1a_Grossjean_2025
     RDKit          3D

 26 27  0  0  0  0  0  0  0  0999 V2000
  129.8610  128.7590   71.9370 C   0  0  0  0  0  0  0  0  0  0  0  0
  130.1810  127.2730   72.1230 C   0  0  0  0  0  0  0  0  0  0  0  0
  129.0440  126.4960   71.7700 O   0  0  0  0  0  0  0  0  0  0  0  0
  128.2030  126.8940   70.7800 C   0  0  0  0  0  0  0  0  0  0  0  0
  127.0380  127.2490   70.9800 O   0  0  0  0  0  0  0  0  0  0  0  0
  128.8270  126.8430   69.4150 C   0  0  0  0  0  0  0  0  0  0  0  0
  129.4950  125.6790   69.0120 C   0  0  0  0  0  0  0  0  0  0  0  0
  130.0880  125.6030   67.7550 C   0  0  0  0  0  0  0  0  0  0  0  0
  130.0270  126.6850   66.8760 C   0  0  0  0  0  0  0  0  0  0  0  0
  130.6620  126.4990   65.6330 N   0  0  0  0  0  0  0  0  0  0  0  0
  131.7240  125.7310   65.3070 C   0  0  0  0  0  0  0  0  0  0  0  0
  132.3560  125.0170   66.0860 O   0  0  0  0  0  0  0  0  0  0  0  0
  132.1420  125.7820   63.8360 C   0  0  0  0  0  0  0  0  0  0  0  0
  133.4670  124.5950   63.4590 S   0  0  0  0  0  0  0  0  0  0  0  0
  132.9090  123.5840   62.1060 C   0  0  0  0  0  0  0  0  0  0  0  0
  133.5800  123.8010   60.9470 N   0  0  0  0  0  0  0  0  0  0  0  0
  133.2330  123.0880   59.8510 C   0  0  0  0  0  0  0  0  0  0  0  0
  134.0170  123.3940   58.5880 C   0  0  0  0  0  0  0  0  0  0  0  0
  132.2210  122.1300   59.8660 C   0  0  0  0  0  0  0  0  0  0  0  0
  131.5370  121.8830   61.0610 C   0  0  0  0  0  0  0  0  0  0  0  0
  130.4420  120.8180   61.0580 C   0  0  0  0  0  0  0  0  0  0  0  0
  131.8850  122.6140   62.2200 C   0  0  0  0  0  0  0  0  0  0  0  0
  131.2160  122.3380   63.4950 C   0  0  0  0  0  0  0  0  0  0  0  0
  130.6870  122.1180   64.5000 N   0  0  0  0  0  0  0  0  0  0  0  0
  129.3520  127.8510   67.2680 C   0  0  0  0  0  0  0  0  0  0  0  0
  128.7610  127.9270   68.5260 C   0  0  0  0  0  0  0  0  0  0  0  0
  1  2  1  0
  2  3  1  0
  3  4  1  0
  4  5  2  0
  4  6  1  0
  6  7  2  0
  7  8  1  0
  8  9  2  0
  9 10  1  0
 10 11  1  0
 11 12  2  0
 11 13  1  0
 13 14  1  0
 14 15  1  0
 15 16  2  0
 16 17  1  0
 17 18  1  0
 17 19  2  0
 19 20  1  0
 20 21  1  0
 20 22  2  0
 22 23  1  0
 23 24  3  0
  9 25  1  0
 25 26  2  0
 26  6  1  0
 22 15  1  0
M  END
>  <Binding energies>  (1) 
[-7.45]

>  <Ligand effiencies>  (1) 
[-0.2759259259259259]

>  <Interactions>  (1) 
["V-A:HIS:456:CE1:4064, H-B:LYS:547:NZ:9919, V-B:ALA:541:CB:9860, V-B:GLU:543:CB:9874, V-A:LEU:475:CD2:4254, V-B:TYR:539:CE2:9844, V-A:ILE:369:CD1:3234, V-A:ASP:366:CA:3205, V-A:ILE:369:CB:3231, V-A:ASP:366:CG:3208, V-B:HIS:456:CE1:9037, V-A:ASP:366:CB:3207, V-A:ASP:366:C:3203, V-B:GLU:543:C:9870, V-A:GLU:543:CD:4903, V-A:ILE:369:CG2:3232, H-A:TYR:484:OH:4343, H-A:GLY:454:N:4045, V-A:ARG:545:CZ:4921, H-A:HIS:456:NE2:4065, H-A:GLU:543:OE1:4904, V-A:ILE:369:CG1:3233"]

$$$$
1aa_Ghoteimi_2023
     RDKit          3D

 40 43  0  0  0  0  0  0  0  0999 V2000
  127.9780  123.7120   56.6330 C   0  0  0  0  0  0  0  0  0  0  0  0
  127.1710  122.4830   57.0630 C   0  0  0  0  0  0  0  0  0  0  0  0
  125.9180  122.9000   57.5910 O   0  0  0  0  0  0  0  0  0  0  0  0
  125.4750  124.1720   57.4210 C   0  0  0  0  0  0  0  0  0  0  0  0
  124.9290  124.5700   56.3880 O   0  0  0  0  0  0  0  0  0  0  0  0
  125.7140  125.0490   58.6170 C   0  0  0  0  0  0  0  0  0  0  0  0
  125.9250  126.4310   58.4930 C   0  0  0  0  0  0  0  0  0  0  0  0
  126.1440  127.2200   59.6200 C   0  0  0  0  0  0  0  0  0  0  0  0
  126.1520  126.6370   60.8960 C   0  0  0  0  0  0  0  0  0  0  0  0
  126.3630  127.3310   62.1020 N   0  0  0  0  0  0  0  0  0  0  0  0
  125.8350  128.4950   62.5470 C   0  0  0  0  0  0  0  0  0  0  0  0
  125.0230  129.1810   61.9280 O   0  0  0  0  0  0  0  0  0  0  0  0
  126.2870  128.9890   63.9310 C   0  0  0  0  0  0  0  0  0  0  0  0
  127.7180  129.0250   64.0080 O   0  0  0  0  0  0  0  0  0  0  0  0
  128.4020  128.1020   64.7860 C   0  0  0  0  0  0  0  0  0  0  0  0
  128.3270  128.2240   66.1400 N   0  0  0  0  0  0  0  0  0  0  0  0
  128.9940  127.3480   66.9360 C   0  0  0  0  0  0  0  0  0  0  0  0
  128.8580  127.5500   68.4180 C   0  0  0  0  0  0  0  0  0  0  0  0
  129.8640  128.1920   69.1550 C   0  0  0  0  0  0  0  0  0  0  0  0
  129.7410  128.3780   70.5290 C   0  0  0  0  0  0  0  0  0  0  0  0
  128.6100  127.9310   71.2090 C   0  0  0  0  0  0  0  0  0  0  0  0
  128.5750  128.1590   72.5710 O   0  0  0  0  0  0  0  0  0  0  0  0
  128.7760  129.4810   73.0590 C   0  0  0  0  0  0  0  0  0  0  0  0
  127.5940  127.2930   70.4850 C   0  0  0  0  0  0  0  0  0  0  0  0
  127.7190  127.1080   69.1120 C   0  0  0  0  0  0  0  0  0  0  0  0
  129.7450  126.3060   66.3780 C   0  0  0  0  0  0  0  0  0  0  0  0
  129.8300  126.1510   64.9880 C   0  0  0  0  0  0  0  0  0  0  0  0
  130.6380  125.0130   64.4550 C   0  0  0  0  0  0  0  0  0  0  0  0
  130.0460  123.7610   64.2600 C   0  0  0  0  0  0  0  0  0  0  0  0
  130.7900  122.6990   63.7550 C   0  0  0  0  0  0  0  0  0  0  0  0
  132.1350  122.8650   63.4290 C   0  0  0  0  0  0  0  0  0  0  0  0
  132.7930  121.7560   62.9350 O   0  0  0  0  0  0  0  0  0  0  0  0
  134.0280  121.9300   62.2500 C   0  0  0  0  0  0  0  0  0  0  0  0
  132.7310  124.1220   63.6160 C   0  0  0  0  0  0  0  0  0  0  0  0
  131.9860  125.1840   64.1220 C   0  0  0  0  0  0  0  0  0  0  0  0
  129.1460  127.0810   64.1710 C   0  0  0  0  0  0  0  0  0  0  0  0
  129.2130  127.0250   62.7090 C   0  0  0  0  0  0  0  0  0  0  0  0
  129.2640  126.9830   61.5540 N   0  0  0  0  0  0  0  0  0  0  0  0
  125.9450  125.2620   61.0220 C   0  0  0  0  0  0  0  0  0  0  0  0
  125.7270  124.4760   59.8950 C   0  0  0  0  0  0  0  0  0  0  0  0
  1  2  1  0
  2  3  1  0
  3  4  1  0
  4  5  2  0
  4  6  1  0
  6  7  2  0
  7  8  1  0
  8  9  2  0
  9 10  1  0
 10 11  1  0
 11 12  2  0
 11 13  1  0
 13 14  1  0
 14 15  1  0
 15 16  2  0
 16 17  1  0
 17 18  1  0
 18 19  2  0
 19 20  1  0
 20 21  2  0
 21 22  1  0
 22 23  1  0
 21 24  1  0
 24 25  2  0
 17 26  2  0
 26 27  1  0
 27 28  1  0
 28 29  2  0
 29 30  1  0
 30 31  2  0
 31 32  1  0
 32 33  1  0
 31 34  1  0
 34 35  2  0
 27 36  2  0
 36 37  1  0
 37 38  3  0
  9 39  1  0
 39 40  2  0
 40  6  1  0
 36 15  1  0
 25 18  1  0
 35 28  1  0
M  END
>  <Binding energies>  (2) 
[-7.55]

>  <Ligand effiencies>  (2) 
[-0.18414634146341463]

>  <Interactions>  (2) 
["V-B:GLU:543:CG:9875, V-A:HIS:456:CE1:4064, H-B:LYS:547:NZ:9919, V-B:GLU:543:CB:9874, V-B:TYR:539:C:9835, V-A:LEU:475:CD2:4254, V-A:ILE:369:CD1:3234, V-B:HIS:456:CE1:9037, V-B:GLU:543:C:9870, V-A:GLU:543:CD:4903, V-B:GLU:543:CD:9876, H-A:TYR:484:OH:4343, V-A:GLY:454:CA:4044, V-B:PRO:540:CA:9851, V-B:HIS:456:CD2:9035, V-B:ASP:366:CB:8179, V-B:GLY:544:C:9880, H-B:GLU:543:OE2:9878, V-B:ASP:366:CG:8180, H-B:GLU:543:OE1:9877, V-B:ARG:545:CZ:9894, V-B:PRO:540:N:9852, V-B:MET:535:CE:9803, H-B:ARG:545:NH2:9896, H-B:TYR:531:OH:9763"]

$$$$
1b_Grossjean_2025
     RDKit          3D

 25 26  0  0  0  0  0  0  0  0999 V2000
  129.9730  127.3090   71.9950 C   0  0  0  0  0  0  0  0  0  0  0  0
  128.7770  126.6350   71.6270 O   0  0  0  0  0  0  0  0  0  0  0  0
  128.0660  127.0190   70.5370 C   0  0  0  0  0  0  0  0  0  0  0  0
  126.9170  127.4680   70.5970 O   0  0  0  0  0  0  0  0  0  0  0  0
  128.8190  126.8530   69.2480 C   0  0  0  0  0  0  0  0  0  0  0  0
  128.8690  127.8680   68.2810 C   0  0  0  0  0  0  0  0  0  0  0  0
  129.5740  127.6810   67.0960 C   0  0  0  0  0  0  0  0  0  0  0  0
  130.2430  126.4820   66.8520 C   0  0  0  0  0  0  0  0  0  0  0  0
  130.9230  126.4040   65.6210 N   0  0  0  0  0  0  0  0  0  0  0  0
  132.0410  125.7240   65.2860 C   0  0  0  0  0  0  0  0  0  0  0  0
  132.6970  125.0080   66.0420 O   0  0  0  0  0  0  0  0  0  0  0  0
  132.4890  125.8770   63.8310 C   0  0  0  0  0  0  0  0  0  0  0  0
  133.7310  124.6350   63.3620 S   0  0  0  0  0  0  0  0  0  0  0  0
  133.0400  123.6670   62.0380 C   0  0  0  0  0  0  0  0  0  0  0  0
  133.6630  123.8480   60.8460 N   0  0  0  0  0  0  0  0  0  0  0  0
  133.2190  123.1590   59.7690 C   0  0  0  0  0  0  0  0  0  0  0  0
  133.9720  123.4000   58.4740 C   0  0  0  0  0  0  0  0  0  0  0  0
  132.1400  122.2780   59.8320 C   0  0  0  0  0  0  0  0  0  0  0  0
  131.4780  122.1020   61.0510 C   0  0  0  0  0  0  0  0  0  0  0  0
  130.2880  121.1440   61.0920 C   0  0  0  0  0  0  0  0  0  0  0  0
  131.9240  122.8110   62.1900 C   0  0  0  0  0  0  0  0  0  0  0  0
  131.2190  122.6760   63.4670 C   0  0  0  0  0  0  0  0  0  0  0  0
  130.6590  122.5670   64.4730 N   0  0  0  0  0  0  0  0  0  0  0  0
  130.1990  125.4620   67.8140 C   0  0  0  0  0  0  0  0  0  0  0  0
  129.4930  125.6500   68.9990 C   0  0  0  0  0  0  0  0  0  0  0  0
  1  2  1  0
  2  3  1  0
  3  4  2  0
  3  5  1  0
  5  6  2  0
  6  7  1  0
  7  8  2  0
  8  9  1  0
  9 10  1  0
 10 11  2  0
 10 12  1  0
 12 13  1  0
 13 14  1  0
 14 15  2  0
 15 16  1  0
 16 17  1  0
 16 18  2  0
 18 19  1  0
 19 20  1  0
 19 21  2  0
 21 22  1  0
 22 23  3  0
  8 24  1  0
 24 25  2  0
 25  5  1  0
 21 14  1  0
M  END
>  <Binding energies>  (3) 
[-7.31]

>  <Ligand effiencies>  (3) 
[-0.28115384615384614]

>  <Interactions>  (3) 
["V-A:HIS:456:CE1:4064, H-B:LYS:547:NZ:9919, V-B:ALA:541:CB:9860, V-B:GLU:543:CB:9874, V-B:TYR:539:CE2:9844, V-A:ILE:369:CD1:3234, V-A:ASP:366:CA:3205, V-A:ILE:369:CB:3231, V-A:ASP:366:CG:3208, V-B:HIS:456:CE1:9037, V-A:ASP:366:CB:3207, V-A:ASP:366:C:3203, V-B:GLU:543:C:9870, V-A:GLU:543:CD:4903, V-A:ILE:369:CG2:3232, H-A:TYR:484:OH:4343, H-A:GLY:454:N:4045, V-A:ARG:545:CZ:4921, H-A:GLU:543:OE2:4905, H-A:HIS:456:NE2:4065, H-A:GLU:543:OE1:4904, V-A:ILE:369:CG1:3233, H-B:HIS:456:ND1:9034"]

$$$$
1c_Grossjean_2025
     RDKit          3D

 23 24  0  0  0  0  0  0  0  0999 V2000
  135.1290  124.9170   66.7370 C   0  0  0  0  0  0  0  0  0  0  0  0
  134.8780  125.3700   65.4110 O   0  0  0  0  0  0  0  0  0  0  0  0
  133.6970  125.0130   64.7900 C   0  0  0  0  0  0  0  0  0  0  0  0
  132.5180  125.3780   65.4380 C   0  0  0  0  0  0  0  0  0  0  0  0
  131.2770  125.0640   64.8900 C   0  0  0  0  0  0  0  0  0  0  0  0
  131.2040  124.3770   63.6690 C   0  0  0  0  0  0  0  0  0  0  0  0
  130.0050  124.0010   63.0330 N   0  0  0  0  0  0  0  0  0  0  0  0
  129.5080  122.7670   62.8020 C   0  0  0  0  0  0  0  0  0  0  0  0
  130.0370  121.7090   63.1420 O   0  0  0  0  0  0  0  0  0  0  0  0
  128.1710  122.7270   62.0600 C   0  0  0  0  0  0  0  0  0  0  0  0
  128.3930  122.4430   60.2790 S   0  0  0  0  0  0  0  0  0  0  0  0
  130.1380  122.3120   59.9440 C   0  0  0  0  0  0  0  0  0  0  0  0
  130.6590  123.4180   59.3540 N   0  0  0  0  0  0  0  0  0  0  0  0
  131.9780  123.4350   59.0510 C   0  0  0  0  0  0  0  0  0  0  0  0
  132.4890  124.7080   58.4040 C   0  0  0  0  0  0  0  0  0  0  0  0
  132.8220  122.3580   59.3090 C   0  0  0  0  0  0  0  0  0  0  0  0
  132.2910  121.2030   59.8940 C   0  0  0  0  0  0  0  0  0  0  0  0
  133.2330  120.0280   60.1510 C   0  0  0  0  0  0  0  0  0  0  0  0
  130.9150  121.1620   60.2170 C   0  0  0  0  0  0  0  0  0  0  0  0
  130.3300  119.9420   60.7790 C   0  0  0  0  0  0  0  0  0  0  0  0
  129.8690  118.9790   61.2240 N   0  0  0  0  0  0  0  0  0  0  0  0
  132.3820  124.0000   63.0230 C   0  0  0  0  0  0  0  0  0  0  0  0
  133.6210  124.3150   63.5740 C   0  0  0  0  0  0  0  0  0  0  0  0
  1  2  1  0
  2  3  1  0
  3  4  2  0
  4  5  1  0
  5  6  2  0
  6  7  1  0
  7  8  1  0
  8  9  2  0
  8 10  1  0
 10 11  1  0
 11 12  1  0
 12 13  2  0
 13 14  1  0
 14 15  1  0
 14 16  2  0
 16 17  1  0
 17 18  1  0
 17 19  2  0
 19 20  1  0
 20 21  3  0
  6 22  1  0
 22 23  2  0
 23  3  1  0
 19 12  1  0
M  END
>  <Binding energies>  (4) 
[-6.8]

>  <Ligand effiencies>  (4) 
[-0.2833333333333333]

>  <Interactions>  (4) 
["V-B:GLU:543:CG:9875, V-A:TRP:381:CZ2:3365, V-B:ALA:541:CB:9860, V-B:ALA:541:CA:9858, V-A:TRP:381:CH2:3367, V-B:TYR:539:CD2:9842, V-A:LEU:475:CD2:4254, V-B:TYR:539:CE2:9844, V-A:ILE:369:CD1:3234, V-A:ASP:366:CG:3208, V-A:ASP:366:CB:3207, V-B:GLU:543:CD:9876, H-A:ARG:545:NH1:4922, V-A:ILE:369:CG2:3232, H-A:ARG:545:NE:4919, H-A:GLY:454:N:4045, V-A:GLY:454:CA:4044, V-A:ARG:545:CZ:4921, H-B:ALA:541:N:9859, H-B:GLU:543:OE2:9878, V-A:ARG:545:CD:4918, V-A:GLY:453:CA:4039, V-A:ARG:545:CG:4917, V-A:HIS:456:CD2:4063, V-A:GLY:453:C:4037, V-A:ILE:455:C:4047"]

$$$$
1d_Grossjean_2025
     RDKit          3D

 21 22  0  0  0  0  0  0  0  0999 V2000
  132.7460  124.5660   59.0080 C   0  0  0  0  0  0  0  0  0  0  0  0
  132.2420  123.2310   59.5190 C   0  0  0  0  0  0  0  0  0  0  0  0
  133.0970  122.1460   59.6940 C   0  0  0  0  0  0  0  0  0  0  0  0
  132.5770  120.9410   60.1790 C   0  0  0  0  0  0  0  0  0  0  0  0
  133.5380  119.7700   60.3780 C   0  0  0  0  0  0  0  0  0  0  0  0
  131.1970  120.8510   60.4710 C   0  0  0  0  0  0  0  0  0  0  0  0
  130.6390  119.6150   61.0240 C   0  0  0  0  0  0  0  0  0  0  0  0
  130.2020  118.6370   61.4620 N   0  0  0  0  0  0  0  0  0  0  0  0
  130.3980  121.9960   60.2390 C   0  0  0  0  0  0  0  0  0  0  0  0
  128.6470  122.0600   60.5480 S   0  0  0  0  0  0  0  0  0  0  0  0
  128.4160  122.7390   62.2200 C   0  0  0  0  0  0  0  0  0  0  0  0
  129.7370  122.8570   62.9820 C   0  0  0  0  0  0  0  0  0  0  0  0
  130.3970  121.8410   63.2010 O   0  0  0  0  0  0  0  0  0  0  0  0
  130.0880  124.1110   63.3400 N   0  0  0  0  0  0  0  0  0  0  0  0
  131.2130  124.5640   64.0540 C   0  0  0  0  0  0  0  0  0  0  0  0
  132.4520  124.2920   63.4680 C   0  0  0  0  0  0  0  0  0  0  0  0
  133.6290  124.7010   64.0890 C   0  0  0  0  0  0  0  0  0  0  0  0
  133.5670  125.3910   65.2970 C   0  0  0  0  0  0  0  0  0  0  0  0
  132.3390  125.6760   65.8880 C   0  0  0  0  0  0  0  0  0  0  0  0
  131.1600  125.2670   65.2690 C   0  0  0  0  0  0  0  0  0  0  0  0
  130.9160  123.1660   59.7890 N   0  0  0  0  0  0  0  0  0  0  0  0
  1  2  1  0
  2  3  2  0
  3  4  1  0
  4  5  1  0
  4  6  2  0
  6  7  1  0
  7  8  3  0
  6  9  1  0
  9 10  1  0
 10 11  1  0
 11 12  1  0
 12 13  2  0
 12 14  1  0
 14 15  1  0
 15 16  2  0
 16 17  1  0
 17 18  2  0
 18 19  1  0
 19 20  2  0
  9 21  2  0
 21  2  1  0
 20 15  1  0
M  END
>  <Binding energies>  (5) 
[-6.42]

>  <Ligand effiencies>  (5) 
[-0.2918181818181818]

>  <Interactions>  (5) 
["V-B:GLU:543:CG:9875, V-A:TRP:381:CZ2:3365, V-B:ALA:541:CB:9860, V-B:ALA:541:CA:9858, V-A:TRP:381:CH2:3367, V-B:TYR:539:CD2:9842, V-A:LEU:475:CD2:4254, V-B:TYR:539:CE2:9844, V-A:ILE:369:CD1:3234, V-A:ASP:366:CG:3208, V-A:ASP:366:CB:3207, V-B:GLU:543:CD:9876, V-A:ILE:369:CG2:3232, V-A:ARG:545:CZ:4921, H-B:ALA:541:N:9859, H-B:GLU:543:OE2:9878, V-A:ARG:545:CD:4918"]

$$$$
1e_Grossjean_2025
     RDKit          3D

 22 23  0  0  0  0  0  0  0  0999 V2000
  135.0740  125.0180   66.4450 C   0  0  0  0  0  0  0  0  0  0  0  0
  133.8900  125.2290   65.5200 C   0  0  0  0  0  0  0  0  0  0  0  0
  132.6500  125.6540   66.0050 C   0  0  0  0  0  0  0  0  0  0  0  0
  131.6050  125.8250   65.0960 C   0  0  0  0  0  0  0  0  0  0  0  0
  131.8200  125.5680   63.7410 C   0  0  0  0  0  0  0  0  0  0  0  0
  133.0890  125.1500   63.3210 C   0  0  0  0  0  0  0  0  0  0  0  0
  133.2420  124.8960   61.9460 N   0  0  0  0  0  0  0  0  0  0  0  0
  133.4970  123.7200   61.3320 C   0  0  0  0  0  0  0  0  0  0  0  0
  133.6520  122.6420   61.9060 O   0  0  0  0  0  0  0  0  0  0  0  0
  133.6230  123.7790   59.8080 C   0  0  0  0  0  0  0  0  0  0  0  0
  132.9360  122.2970   59.0110 S   0  0  0  0  0  0  0  0  0  0  0  0
  131.4240  121.8510   59.8410 C   0  0  0  0  0  0  0  0  0  0  0  0
  131.3480  120.5320   60.1530 N   0  0  0  0  0  0  0  0  0  0  0  0
  130.2420  120.0730   60.7850 C   0  0  0  0  0  0  0  0  0  0  0  0
  130.2330  118.5920   61.1080 C   0  0  0  0  0  0  0  0  0  0  0  0
  129.1710  120.8990   61.1180 C   0  0  0  0  0  0  0  0  0  0  0  0
  129.2270  122.2540   60.7790 C   0  0  0  0  0  0  0  0  0  0  0  0
  128.0300  123.1340   61.1390 C   0  0  0  0  0  0  0  0  0  0  0  0
  130.3700  122.7560   60.1160 C   0  0  0  0  0  0  0  0  0  0  0  0
  130.4190  124.1600   59.7020 C   0  0  0  0  0  0  0  0  0  0  0  0
  130.4560  125.2700   59.3760 N   0  0  0  0  0  0  0  0  0  0  0  0
  134.1150  124.9770   64.2060 N   0  0  0  0  0  0  0  0  0  0  0  0
  1  2  1  0
  2  3  2  0
  3  4  1  0
  4  5  2  0
  5  6  1  0
  6  7  1  0
  7  8  1  0
  8  9  2  0
  8 10  1  0
 10 11  1  0
 11 12  1  0
 12 13  2  0
 13 14  1  0
 14 15  1  0
 14 16  2  0
 16 17  1  0
 17 18  1  0
 17 19  2  0
 19 20  1  0
 20 21  3  0
  6 22  2  0
 22  2  1  0
 19 12  1  0
M  END
>  <Binding energies>  (6) 
[-7.21]

>  <Ligand effiencies>  (6) 
[-0.3134782608695652]

>  <Interactions>  (6) 
["V-B:PRO:540:C:9849, V-A:PRO:482:CG:4322, V-A:TRP:381:CZ2:3365, V-B:ALA:541:CB:9860, V-B:ALA:541:CA:9858, V-A:TRP:381:CH2:3367, V-B:TYR:539:CD2:9842, V-A:LEU:475:CD2:4254, V-A:TRP:381:CE2:3362, V-A:PRO:482:CB:4321, V-B:TYR:539:CE2:9844, V-A:ILE:369:CD1:3234, V-A:ASP:366:CA:3205, V-A:ASP:366:CG:3208, V-A:ASP:366:CB:3207, H-A:ASP:366:OD2:3210, H-A:ARG:545:NH1:4922, H-A:TYR:484:OH:4343, H-A:ARG:545:NE:4919, H-A:ARG:545:NH2:4923, H-A:ASP:366:OD1:3209, H-A:GLY:454:N:4045, V-A:GLY:454:CA:4044, V-A:ARG:545:CZ:4921, V-A:ARG:545:CD:4918, V-A:GLY:453:CA:4039, V-A:ARG:545:CG:4917, V-A:HIS:456:CD2:4063, V-A:GLY:453:C:4037"]

$$$$
1f_Grossjean_2025
     RDKit          3D

 21 22  0  0  0  0  0  0  0  0999 V2000
  132.7420  124.3390   58.4280 C   0  0  0  0  0  0  0  0  0  0  0  0
  132.2570  123.1010   59.1600 C   0  0  0  0  0  0  0  0  0  0  0  0
  133.1150  122.0450   59.4540 C   0  0  0  0  0  0  0  0  0  0  0  0
  132.6090  120.9240   60.1200 C   0  0  0  0  0  0  0  0  0  0  0  0
  133.5650  119.7700   60.4150 C   0  0  0  0  0  0  0  0  0  0  0  0
  131.2430  120.8950   60.4860 C   0  0  0  0  0  0  0  0  0  0  0  0
  130.6820  119.7070   61.1340 C   0  0  0  0  0  0  0  0  0  0  0  0
  130.2400  118.7680   61.6460 N   0  0  0  0  0  0  0  0  0  0  0  0
  130.4520  122.0250   60.1720 C   0  0  0  0  0  0  0  0  0  0  0  0
  128.7170  122.1690   60.5530 S   0  0  0  0  0  0  0  0  0  0  0  0
  128.5510  122.7410   62.2780 C   0  0  0  0  0  0  0  0  0  0  0  0
  129.8740  122.8590   63.0500 C   0  0  0  0  0  0  0  0  0  0  0  0
  130.5660  121.8610   63.2590 O   0  0  0  0  0  0  0  0  0  0  0  0
  130.1660  124.1060   63.4760 N   0  0  0  0  0  0  0  0  0  0  0  0
  131.2830  124.5710   64.1960 C   0  0  0  0  0  0  0  0  0  0  0  0
  131.2380  125.4010   65.3320 C   0  0  0  0  0  0  0  0  0  0  0  0
  132.4300  125.7860   65.9540 C   0  0  0  0  0  0  0  0  0  0  0  0
  133.6370  125.3290   65.4260 C   0  0  0  0  0  0  0  0  0  0  0  0
  133.7070  124.5250   64.3360 N   0  0  0  0  0  0  0  0  0  0  0  0
  132.5410  124.1590   63.7420 C   0  0  0  0  0  0  0  0  0  0  0  0
  130.9480  123.0960   59.5040 N   0  0  0  0  0  0  0  0  0  0  0  0
  1  2  1  0
  2  3  2  0
  3  4  1  0
  4  5  1  0
  4  6  2  0
  6  7  1  0
  7  8  3  0
  6  9  1  0
  9 10  1  0
 10 11  1  0
 11 12  1  0
 12 13  2  0
 12 14  1  0
 14 15  1  0
 15 16  2  0
 16 17  1  0
 17 18  2  0
 18 19  1  0
 19 20  2  0
  9 21  2  0
 21  2  1  0
 20 15  1  0
M  END
>  <Binding energies>  (7) 
[-6.81]

>  <Ligand effiencies>  (7) 
[-0.3095454545454545]

>  <Interactions>  (7) 
["V-B:GLU:543:CG:9875, V-A:TRP:381:CZ2:3365, V-B:ALA:541:CB:9860, V-B:ALA:541:CA:9858, V-A:TRP:381:CH2:3367, V-B:TYR:539:CD2:9842, V-A:LEU:475:CD2:4254, V-B:TYR:539:CE2:9844, V-A:ILE:369:CD1:3234, V-A:ILE:369:CB:3231, V-A:ASP:366:CG:3208, V-A:ASP:366:CB:3207, V-B:GLU:543:CD:9876, V-A:ILE:369:CG2:3232, H-A:TYR:484:OH:4343, H-A:GLY:454:N:4045, V-A:ARG:545:CZ:4921, H-B:ALA:541:N:9859, H-B:GLU:543:OE2:9878, V-A:ARG:545:CD:4918"]

$$$$
1g_Grossjean_2025
     RDKit          3D

 22 23  0  0  0  0  0  0  0  0999 V2000
  133.5610  123.2570   57.4910 C   0  0  0  0  0  0  0  0  0  0  0  0
  133.0880  123.0260   58.9140 C   0  0  0  0  0  0  0  0  0  0  0  0
  133.4880  123.8550   59.9600 C   0  0  0  0  0  0  0  0  0  0  0  0
  133.0330  123.5840   61.2550 C   0  0  0  0  0  0  0  0  0  0  0  0
  133.4970  124.4980   62.3880 C   0  0  0  0  0  0  0  0  0  0  0  0
  132.1730  122.4830   61.4690 C   0  0  0  0  0  0  0  0  0  0  0  0
  131.7250  122.1490   62.8230 C   0  0  0  0  0  0  0  0  0  0  0  0
  131.3740  121.8860   63.8940 N   0  0  0  0  0  0  0  0  0  0  0  0
  131.7980  121.7110   60.3440 C   0  0  0  0  0  0  0  0  0  0  0  0
  130.7180  120.3000   60.4310 S   0  0  0  0  0  0  0  0  0  0  0  0
  129.1500  120.8640   61.1580 C   0  0  0  0  0  0  0  0  0  0  0  0
  128.5290  122.0120   60.3600 C   0  0  0  0  0  0  0  0  0  0  0  0
  127.5160  122.5750   60.7770 O   0  0  0  0  0  0  0  0  0  0  0  0
  129.1470  122.3420   59.2130 N   0  0  0  0  0  0  0  0  0  0  0  0
  128.7610  123.4400   58.3270 C   0  0  0  0  0  0  0  0  0  0  0  0
  127.3040  123.4010   57.8760 C   0  0  0  0  0  0  0  0  0  0  0  0
  126.4110  124.3850   58.3140 C   0  0  0  0  0  0  0  0  0  0  0  0
  125.0810  124.3490   57.9020 C   0  0  0  0  0  0  0  0  0  0  0  0
  124.6500  123.3350   57.0500 C   0  0  0  0  0  0  0  0  0  0  0  0
  125.5360  122.3550   56.6060 C   0  0  0  0  0  0  0  0  0  0  0  0
  126.8650  122.3880   57.0190 C   0  0  0  0  0  0  0  0  0  0  0  0
  132.2630  121.9680   59.0950 N   0  0  0  0  0  0  0  0  0  0  0  0
  1  2  1  0
  2  3  2  0
  3  4  1  0
  4  5  1  0
  4  6  2  0
  6  7  1  0
  7  8  3  0
  6  9  1  0
  9 10  1  0
 10 11  1  0
 11 12  1  0
 12 13  2  0
 12 14  1  0
 14 15  1  0
 15 16  1  0
 16 17  2  0
 17 18  1  0
 18 19  2  0
 19 20  1  0
 20 21  2  0
  9 22  2  0
 22  2  1  0
 21 16  1  0
M  END
>  <Binding energies>  (8) 
[-6.84]

>  <Ligand effiencies>  (8) 
[-0.29739130434782607]

>  <Interactions>  (8) 
["V-B:PRO:540:C:9849, V-B:ALA:541:CB:9860, V-B:ALA:541:CA:9858, V-B:TYR:539:C:9835, V-B:TYR:539:CD2:9842, V-A:LEU:475:CD2:4254, V-B:TYR:539:CE2:9844, V-A:ILE:369:CD1:3234, V-B:TYR:539:CZ:9845, V-A:ILE:369:CB:3231, V-A:ASP:366:CG:3208, V-A:ASP:366:CB:3207, V-A:ILE:369:CG2:3232, H-A:TYR:484:OH:4343, V-B:PRO:540:CB:9853, H-B:ALA:541:N:9859, V-B:PRO:540:CA:9851, H-B:TYR:539:O:9836, V-B:LEU:363:CD1:8156, V-B:PRO:540:CD:9855, V-B:PRO:540:N:9852, V-B:MET:535:CE:9803, V-B:TYR:539:CA:9837"]

$$$$
1h_Grossjean_2025
     RDKit          3D

 28 29  0  0  0  0  0  0  0  0999 V2000
  130.0260  131.1490   73.3760 C   0  0  0  0  0  0  0  0  0  0  0  0
  130.0200  129.7310   73.4870 O   0  0  0  0  0  0  0  0  0  0  0  0
  129.6800  128.9650   72.3860 C   0  0  0  0  0  0  0  0  0  0  0  0
  129.5690  129.4730   71.0830 C   0  0  0  0  0  0  0  0  0  0  0  0
  129.2080  128.6440   70.0200 C   0  0  0  0  0  0  0  0  0  0  0  0
  129.1120  129.2040   68.6040 C   0  0  0  0  0  0  0  0  0  0  0  0
  129.4210  128.2310   67.5570 N   0  0  0  0  0  0  0  0  0  0  0  0
  128.7240  128.0660   66.4190 C   0  0  0  0  0  0  0  0  0  0  0  0
  127.7440  128.7450   66.1140 O   0  0  0  0  0  0  0  0  0  0  0  0
  129.2020  126.9570   65.4810 C   0  0  0  0  0  0  0  0  0  0  0  0
  130.0980  125.6500   66.3740 S   0  0  0  0  0  0  0  0  0  0  0  0
  131.6670  125.3990   65.5590 C   0  0  0  0  0  0  0  0  0  0  0  0
  132.7590  125.3990   66.3680 N   0  0  0  0  0  0  0  0  0  0  0  0
  133.9790  125.2090   65.8150 C   0  0  0  0  0  0  0  0  0  0  0  0
  135.1480  125.2170   66.7820 C   0  0  0  0  0  0  0  0  0  0  0  0
  134.1650  125.0150   64.4480 C   0  0  0  0  0  0  0  0  0  0  0  0
  133.0490  125.0150   63.6040 C   0  0  0  0  0  0  0  0  0  0  0  0
  133.2740  124.7990   62.1090 C   0  0  0  0  0  0  0  0  0  0  0  0
  131.7640  125.2110   64.1600 C   0  0  0  0  0  0  0  0  0  0  0  0
  130.5770  125.2190   63.3000 C   0  0  0  0  0  0  0  0  0  0  0  0
  129.6400  125.2250   62.6210 N   0  0  0  0  0  0  0  0  0  0  0  0
  128.9910  127.2840   70.2510 C   0  0  0  0  0  0  0  0  0  0  0  0
  129.1010  126.7480   71.5440 C   0  0  0  0  0  0  0  0  0  0  0  0
  128.8980  125.4130   71.8450 O   0  0  0  0  0  0  0  0  0  0  0  0
  129.8970  124.4590   71.5010 C   0  0  0  0  0  0  0  0  0  0  0  0
  129.4360  127.6010   72.6050 C   0  0  0  0  0  0  0  0  0  0  0  0
  129.5530  127.0890   73.8740 O   0  0  0  0  0  0  0  0  0  0  0  0
  130.7750  126.4040   74.1110 C   0  0  0  0  0  0  0  0  0  0  0  0
  1  2  1  0
  2  3  1  0
  3  4  2  0
  4  5  1  0
  5  6  1  0
  6  7  1  0
  7  8  1  0
  8  9  2  0
  8 10  1  0
 10 11  1  0
 11 12  1  0
 12 13  2  0
 13 14  1  0
 14 15  1  0
 14 16  2  0
 16 17  1  0
 17 18  1  0
 17 19  2  0
 19 20  1  0
 20 21  3  0
  5 22  2  0
 22 23  1  0
 23 24  1  0
 24 25  1  0
 23 26  2  0
 26 27  1  0
 27 28  1  0
 26  3  1  0
 19 12  1  0
M  END
>  <Binding energies>  (9) 
[-6.85]

>  <Ligand effiencies>  (9) 
[-0.23620689655172414]

>  <Interactions>  (9) 
["V-A:HIS:456:CE1:4064, H-B:LYS:547:NZ:9919, V-A:GLU:543:CB:4901, V-A:ASP:366:CG:3208, V-B:HIS:456:CE1:9037, V-A:GLU:543:CD:4903, V-B:GLU:543:CD:9876, H-A:TYR:484:OH:4343, V-A:ARG:545:CZ:4921, H-A:HIS:456:NE2:4065, H-A:GLU:543:OE1:4904, V-A:GLU:543:C:4897, V-A:LYS:547:CE:4945, V-B:HIS:456:CD2:9035, H-A:LYS:547:NZ:4946, V-A:ARG:545:CD:4918, V-A:GLY:453:CA:4039, V-A:ARG:545:CG:4917, V-A:HIS:456:CD2:4063, V-A:GLY:453:C:4037, V-A:ILE:455:C:4047, V-A:ARG:545:CB:4916"]

$$$$
1i_Grossjean_2025
     RDKit          3D

 20 21  0  0  0  0  0  0  0  0999 V2000
  133.2400  123.1180   57.6890 C   0  0  0  0  0  0  0  0  0  0  0  0
  132.6590  122.9670   59.0820 C   0  0  0  0  0  0  0  0  0  0  0  0
  131.3140  122.6700   59.2840 C   0  0  0  0  0  0  0  0  0  0  0  0
  130.8360  122.5340   60.5920 C   0  0  0  0  0  0  0  0  0  0  0  0
  129.3600  122.1910   60.7870 C   0  0  0  0  0  0  0  0  0  0  0  0
  131.7280  122.7060   61.6750 C   0  0  0  0  0  0  0  0  0  0  0  0
  131.2600  122.5180   63.0510 C   0  0  0  0  0  0  0  0  0  0  0  0
  130.8890  122.3670   64.1370 N   0  0  0  0  0  0  0  0  0  0  0  0
  133.0720  123.0310   61.3770 C   0  0  0  0  0  0  0  0  0  0  0  0
  134.3260  123.2830   62.6140 S   0  0  0  0  0  0  0  0  0  0  0  0
  134.1870  125.0000   63.1960 C   0  0  0  0  0  0  0  0  0  0  0  0
  133.4990  125.0910   64.5600 C   0  0  0  0  0  0  0  0  0  0  0  0
  134.1770  125.0060   65.5850 O   0  0  0  0  0  0  0  0  0  0  0  0
  132.1590  125.2660   64.5260 N   0  0  0  0  0  0  0  0  0  0  0  0
  131.2980  125.3740   65.6090 C   0  0  0  0  0  0  0  0  0  0  0  0
  130.2120  126.2480   65.6320 C   0  0  0  0  0  0  0  0  0  0  0  0
  129.6240  126.0540   66.8600 C   0  0  0  0  0  0  0  0  0  0  0  0
  130.3190  125.1140   67.5420 O   0  0  0  0  0  0  0  0  0  0  0  0
  131.3800  124.6910   66.7390 N   0  0  0  0  0  0  0  0  0  0  0  0
  133.5300  123.1410   60.1050 N   0  0  0  0  0  0  0  0  0  0  0  0
  1  2  1  0
  2  3  2  0
  3  4  1  0
  4  5  1  0
  4  6  2  0
  6  7  1  0
  7  8  3  0
  6  9  1  0
  9 10  1  0
 10 11  1  0
 11 12  1  0
 12 13  2  0
 12 14  1  0
 14 15  1  0
 15 16  1  0
 16 17  2  0
 17 18  1  0
 18 19  1  0
  9 20  2  0
 20  2  1  0
 19 15  2  0
M  END
>  <Binding energies>  (10) 
[-6.19]

>  <Ligand effiencies>  (10) 
[-0.2947619047619048]

>  <Interactions>  (10) 
["V-B:GLU:543:CG:9875, V-B:GLU:543:CB:9874, V-A:LEU:475:CD2:4254, V-B:TYR:539:CE2:9844, V-A:ILE:369:CD1:3234, V-B:TYR:539:CZ:9845, V-A:ILE:369:CB:3231, V-A:ASP:366:CG:3208, V-A:ILE:369:CG2:3232, H-A:TYR:484:OH:4343, H-A:ARG:545:NE:4919, H-A:GLY:454:N:4045, V-A:ARG:545:CZ:4921, H-A:HIS:456:NE2:4065, V-A:GLY:453:CA:4039"]

$$$$
1k_Grossjean_2025
     RDKit          3D

 25 25  0  0  0  0  0  0  0  0999 V2000
  130.3080  124.9570   66.2820 C   0  0  0  0  0  0  0  0  0  0  0  0
  131.7200  124.9970   66.4090 O   0  0  0  0  0  0  0  0  0  0  0  0
  132.3590  125.7550   65.3910 C   0  0  0  0  0  0  0  0  0  0  0  0
  133.8150  125.2920   65.2450 C   0  0  0  0  0  0  0  0  0  0  0  0
  133.8780  124.2140   64.3190 O   0  0  0  0  0  0  0  0  0  0  0  0
  133.9060  124.6290   62.9600 C   0  0  0  0  0  0  0  0  0  0  0  0
  132.4840  124.5900   62.3860 C   0  0  0  0  0  0  0  0  0  0  0  0
  132.0760  123.2380   62.2220 O   0  0  0  0  0  0  0  0  0  0  0  0
  131.4150  122.6990   63.3600 C   0  0  0  0  0  0  0  0  0  0  0  0
  129.8940  122.8970   63.2150 C   0  0  0  0  0  0  0  0  0  0  0  0
  129.4680  123.2700   61.8660 N   0  0  0  0  0  0  0  0  0  0  0  0
  128.2120  123.1770   61.3960 C   0  0  0  0  0  0  0  0  0  0  0  0
  127.2690  122.7630   62.0740 O   0  0  0  0  0  0  0  0  0  0  0  0
  128.0150  123.6190   59.9370 C   0  0  0  0  0  0  0  0  0  0  0  0
  128.7190  122.5050   58.6720 S   0  0  0  0  0  0  0  0  0  0  0  0
  130.4930  122.4300   58.8790 C   0  0  0  0  0  0  0  0  0  0  0  0
  131.2110  123.3540   58.1890 N   0  0  0  0  0  0  0  0  0  0  0  0
  132.5590  123.3460   58.2930 C   0  0  0  0  0  0  0  0  0  0  0  0
  133.2890  124.4020   57.4870 C   0  0  0  0  0  0  0  0  0  0  0  0
  133.2460  122.4310   59.0880 C   0  0  0  0  0  0  0  0  0  0  0  0
  132.5190  121.4790   59.8100 C   0  0  0  0  0  0  0  0  0  0  0  0
  133.2910  120.4850   60.6750 C   0  0  0  0  0  0  0  0  0  0  0  0
  131.1100  121.4670   59.7110 C   0  0  0  0  0  0  0  0  0  0  0  0
  130.3220  120.4780   60.4530 C   0  0  0  0  0  0  0  0  0  0  0  0
  129.7010  119.6970   61.0390 N   0  0  0  0  0  0  0  0  0  0  0  0
  1  2  1  0
  2  3  1  0
  3  4  1  0
  4  5  1  0
  5  6  1  0
  6  7  1  0
  7  8  1  0
  8  9  1  0
  9 10  1  0
 10 11  1  0
 11 12  1  0
 12 13  2  0
 12 14  1  0
 14 15  1  0
 15 16  1  0
 16 17  2  0
 17 18  1  0
 18 19  1  0
 18 20  2  0
 20 21  1  0
 21 22  1  0
 21 23  2  0
 23 24  1  0
 24 25  3  0
 23 16  1  0
M  END
>  <Binding energies>  (11) 
[-5.68]

>  <Ligand effiencies>  (11) 
[-0.21846153846153846]

>  <Interactions>  (11) 
["V-B:GLU:543:CG:9875, V-B:ALA:541:CB:9860, V-B:GLU:543:CB:9874, V-A:TRP:381:CH2:3367, V-B:TYR:539:CD2:9842, V-A:LEU:475:CD2:4254, V-B:TYR:539:CE2:9844, V-A:ILE:369:CD1:3234, V-B:TYR:539:CZ:9845, V-A:ASP:366:CA:3205, V-A:ILE:369:CB:3231, V-A:ASP:366:CG:3208, V-A:ASP:366:CB:3207, V-A:ASP:366:C:3203, V-B:GLU:543:CD:9876, V-A:ILE:369:CG2:3232, H-A:TYR:484:OH:4343, H-A:GLY:454:N:4045, V-A:ARG:545:CZ:4921, H-B:ALA:541:N:9859, H-A:HIS:456:NE2:4065, V-A:TYR:531:CZ:4789, V-A:ARG:545:CD:4918, V-A:TYR:531:CE1:4787, H-B:TYR:539:OH:9846"]

$$$$
1l_Grossjean_2025
     RDKit          3D

 17 17  0  0  0  0  0  0  0  0999 V2000
  130.2470  124.2220   65.6930 C   0  0  0  0  0  0  0  0  0  0  0  0
  130.3790  123.0520   64.8990 O   0  0  0  0  0  0  0  0  0  0  0  0
  129.8000  123.2580   63.6480 N   0  0  0  0  0  0  0  0  0  0  0  0
  130.5230  123.0000   62.5420 C   0  0  0  0  0  0  0  0  0  0  0  0
  131.5890  122.3780   62.5520 O   0  0  0  0  0  0  0  0  0  0  0  0
  129.9210  123.5260   61.2310 C   0  0  0  0  0  0  0  0  0  0  0  0
  129.0620  122.2720   60.2200 S   0  0  0  0  0  0  0  0  0  0  0  0
  127.4390  122.8980   59.8200 C   0  0  0  0  0  0  0  0  0  0  0  0
  126.6190  123.1300   60.8780 N   0  0  0  0  0  0  0  0  0  0  0  0
  125.3720  123.6040   60.6470 C   0  0  0  0  0  0  0  0  0  0  0  0
  124.5170  123.8380   61.8780 C   0  0  0  0  0  0  0  0  0  0  0  0
  124.8930  123.8670   59.3650 C   0  0  0  0  0  0  0  0  0  0  0  0
  125.7290  123.6340   58.2680 C   0  0  0  0  0  0  0  0  0  0  0  0
  125.1830  123.9290   56.8720 C   0  0  0  0  0  0  0  0  0  0  0  0
  127.0330  123.1380   58.4870 C   0  0  0  0  0  0  0  0  0  0  0  0
  127.9300  122.8840   57.3550 C   0  0  0  0  0  0  0  0  0  0  0  0
  128.6370  122.6840   56.4610 N   0  0  0  0  0  0  0  0  0  0  0  0
  1  2  1  0
  2  3  1  0
  3  4  1  0
  4  5  2  0
  4  6  1  0
  6  7  1  0
  7  8  1  0
  8  9  2  0
  9 10  1  0
 10 11  1  0
 10 12  2  0
 12 13  1  0
 13 14  1  0
 13 15  2  0
 15 16  1  0
 16 17  3  0
 15  8  1  0
M  END
>  <Binding energies>  (12) 
[-6.08]

>  <Ligand effiencies>  (12) 
[-0.3377777777777778]

>  <Interactions>  (12) 
["V-B:PRO:540:C:9849, V-B:GLU:543:CG:9875, V-B:ALA:541:CB:9860, V-B:TYR:539:C:9835, V-A:TYR:484:CZ:4342, V-A:TYR:484:CE1:4340, V-B:GLU:543:CD:9876, H-A:TYR:484:OH:4343, V-B:ASN:362:CB:8143, V-B:PRO:540:CB:9853, H-B:ALA:541:N:9859, V-B:PRO:540:CA:9851, H-B:GLU:543:OE2:9878, V-B:LEU:363:CD1:8156, V-B:PRO:540:N:9852, V-B:MET:535:CE:9803"]

$$$$
1m_Grossjean_2025
     RDKit          3D

 20 20  0  0  0  0  0  0  0  0999 V2000
  131.1170  125.7470   66.0790 C   0  0  0  0  0  0  0  0  0  0  0  0
  132.4590  125.2810   66.0870 O   0  0  0  0  0  0  0  0  0  0  0  0
  133.1980  125.3010   64.9590 C   0  0  0  0  0  0  0  0  0  0  0  0
  134.3940  125.0030   64.8800 O   0  0  0  0  0  0  0  0  0  0  0  0
  132.3600  125.7400   63.7400 C   0  0  0  0  0  0  0  0  0  0  0  0
  132.9430  125.3050   62.4620 N   0  0  0  0  0  0  0  0  0  0  0  0
  133.1260  124.0280   62.0760 C   0  0  0  0  0  0  0  0  0  0  0  0
  132.8290  123.0630   62.7840 O   0  0  0  0  0  0  0  0  0  0  0  0
  133.7430  123.8390   60.6840 C   0  0  0  0  0  0  0  0  0  0  0  0
  132.5390  123.4830   59.3590 S   0  0  0  0  0  0  0  0  0  0  0  0
  131.2240  122.5070   60.0570 C   0  0  0  0  0  0  0  0  0  0  0  0
  130.0530  123.1820   60.1770 N   0  0  0  0  0  0  0  0  0  0  0  0
  128.9800  122.5380   60.6910 C   0  0  0  0  0  0  0  0  0  0  0  0
  127.7010  123.3500   60.7770 C   0  0  0  0  0  0  0  0  0  0  0  0
  129.0300  121.2110   61.1130 C   0  0  0  0  0  0  0  0  0  0  0  0
  130.2390  120.5130   61.0190 C   0  0  0  0  0  0  0  0  0  0  0  0
  130.2750  119.0650   61.5020 C   0  0  0  0  0  0  0  0  0  0  0  0
  131.3740  121.1660   60.4860 C   0  0  0  0  0  0  0  0  0  0  0  0
  132.6620  120.4700   60.4240 C   0  0  0  0  0  0  0  0  0  0  0  0
  133.6780  119.9200   60.3740 N   0  0  0  0  0  0  0  0  0  0  0  0
  1  2  1  0
  2  3  1  0
  3  4  2  0
  3  5  1  0
  5  6  1  0
  6  7  1  0
  7  8  2  0
  7  9  1  0
  9 10  1  0
 10 11  1  0
 11 12  2  0
 12 13  1  0
 13 14  1  0
 13 15  2  0
 15 16  1  0
 16 17  1  0
 16 18  2  0
 18 19  1  0
 19 20  3  0
 18 11  1  0
M  END
>  <Binding energies>  (13) 
[-6.03]

>  <Ligand effiencies>  (13) 
[-0.28714285714285714]

>  <Interactions>  (13) 
["V-B:PRO:540:C:9849, V-A:TRP:381:CZ2:3365, V-B:ALA:541:CB:9860, V-B:ALA:541:CA:9858, V-A:TRP:381:CH2:3367, V-B:TYR:539:CD2:9842, V-A:LEU:475:CD2:4254, V-A:PRO:482:CB:4321, V-B:TYR:539:CE2:9844, V-A:ILE:369:CD1:3234, V-A:ASP:366:CG:3208, V-A:ASP:366:CB:3207, H-A:ASP:366:OD2:3210, H-A:ARG:545:NH1:4922, V-A:ILE:369:CG2:3232, H-A:TYR:484:OH:4343, H-A:ARG:545:NE:4919, H-A:ASP:366:OD1:3209, H-A:GLY:454:N:4045, V-A:ARG:545:CZ:4921, V-B:PRO:540:CA:9851, H-A:HIS:456:NE2:4065, V-A:LEU:475:CD1:4253"]

$$$$
1n_Grossjean_2025
     RDKit          3D

 27 28  0  0  0  0  0  0  0  0999 V2000
  130.4830  125.8760   73.8130 C   0  0  0  0  0  0  0  0  0  0  0  0
  130.7760  127.2790   73.2710 C   0  0  0  0  0  0  0  0  0  0  0  0
  129.6500  128.1170   73.4970 O   0  0  0  0  0  0  0  0  0  0  0  0
  128.7260  128.3290   72.5250 C   0  0  0  0  0  0  0  0  0  0  0  0
  127.5870  128.7500   72.7490 O   0  0  0  0  0  0  0  0  0  0  0  0
  129.2310  128.0100   71.1470 C   0  0  0  0  0  0  0  0  0  0  0  0
  130.2330  128.7740   70.5290 C   0  0  0  0  0  0  0  0  0  0  0  0
  130.6770  128.4540   69.2490 C   0  0  0  0  0  0  0  0  0  0  0  0
  130.1280  127.3720   68.5590 C   0  0  0  0  0  0  0  0  0  0  0  0
  130.6470  127.1410   67.2710 N   0  0  0  0  0  0  0  0  0  0  0  0
  130.8740  125.9760   66.6280 C   0  0  0  0  0  0  0  0  0  0  0  0
  130.6470  124.8540   67.0820 O   0  0  0  0  0  0  0  0  0  0  0  0
  131.4610  126.1010   65.2160 C   0  0  0  0  0  0  0  0  0  0  0  0
  131.5360  124.7520   64.4690 C   0  0  0  0  0  0  0  0  0  0  0  0
  133.0950  124.4690   63.5780 S   0  0  0  0  0  0  0  0  0  0  0  0
  132.7420  123.4040   62.1970 C   0  0  0  0  0  0  0  0  0  0  0  0
  133.3530  123.7840   61.0470 N   0  0  0  0  0  0  0  0  0  0  0  0
  133.1690  123.0370   59.9340 C   0  0  0  0  0  0  0  0  0  0  0  0
  133.8920  123.5170   58.6900 C   0  0  0  0  0  0  0  0  0  0  0  0
  132.3710  121.8950   59.9180 C   0  0  0  0  0  0  0  0  0  0  0  0
  131.7190  121.5060   61.0940 C   0  0  0  0  0  0  0  0  0  0  0  0
  130.8380  120.2590   61.0490 C   0  0  0  0  0  0  0  0  0  0  0  0
  131.8930  122.2740   62.2670 C   0  0  0  0  0  0  0  0  0  0  0  0
  131.1800  121.9150   63.4950 C   0  0  0  0  0  0  0  0  0  0  0  0
  130.6150  121.6290   64.4640 N   0  0  0  0  0  0  0  0  0  0  0  0
  129.1340  126.5980   69.1750 C   0  0  0  0  0  0  0  0  0  0  0  0
  128.6930  126.9180   70.4560 C   0  0  0  0  0  0  0  0  0  0  0  0
  1  2  1  0
  2  3  1  0
  3  4  1  0
  4  5  2  0
  4  6  1  0
  6  7  2  0
  7  8  1  0
  8  9  2  0
  9 10  1  0
 10 11  1  0
 11 12  2  0
 11 13  1  0
 13 14  1  0
 14 15  1  0
 15 16  1  0
 16 17  2  0
 17 18  1  0
 18 19  1  0
 18 20  2  0
 20 21  1  0
 21 22  1  0
 21 23  2  0
 23 24  1  0
 24 25  3  0
  9 26  1  0
 26 27  2  0
 27  6  1  0
 23 16  1  0
M  END
>  <Binding energies>  (14) 
[-7.75]

>  <Ligand effiencies>  (14) 
[-0.2767857142857143]

>  <Interactions>  (14) 
["V-A:HIS:456:CE1:4064, H-B:LYS:547:NZ:9919, V-B:ALA:541:CB:9860, V-A:LEU:475:CD2:4254, V-A:GLU:543:CB:4901, V-B:TYR:539:CE2:9844, V-A:ILE:369:CD1:3234, V-A:ASP:366:CA:3205, V-A:ILE:369:CB:3231, V-A:ASP:366:CG:3208, V-A:ASP:366:CB:3207, V-A:ASP:366:C:3203, V-A:GLU:543:CD:4903, V-A:ILE:369:CG2:3232, H-A:TYR:484:OH:4343, H-A:HIS:456:NE2:4065, V-A:LEU:475:CD1:4253, H-A:GLU:543:OE1:4904, V-A:GLU:543:C:4897, V-A:LYS:547:CE:4945, V-B:HIS:456:CD2:9035, H-A:LYS:547:NZ:4946, V-B:LYS:547:CE:9918"]

$$$$
1q_Grossjean_2025
     RDKit          3D

 21 21  0  0  0  0  0  0  0  0999 V2000
  133.6670  124.9940   63.2520 C   0  0  0  0  0  0  0  0  0  0  0  0
  134.2370  125.0000   64.5520 O   0  0  0  0  0  0  0  0  0  0  0  0
  133.4880  125.3380   65.6310 C   0  0  0  0  0  0  0  0  0  0  0  0
  133.9260  125.7430   66.7090 O   0  0  0  0  0  0  0  0  0  0  0  0
  131.9700  125.1460   65.4270 C   0  0  0  0  0  0  0  0  0  0  0  0
  131.1670  126.2000   66.0660 N   0  0  0  0  0  0  0  0  0  0  0  0
  130.3670  126.0420   67.1370 C   0  0  0  0  0  0  0  0  0  0  0  0
  130.2210  124.9630   67.7160 O   0  0  0  0  0  0  0  0  0  0  0  0
  129.6410  127.3040   67.6260 C   0  0  0  0  0  0  0  0  0  0  0  0
  129.8850  127.6400   69.1110 C   0  0  0  0  0  0  0  0  0  0  0  0
  128.6500  126.9180   70.2330 S   0  0  0  0  0  0  0  0  0  0  0  0
  129.4970  125.9170   71.4390 C   0  0  0  0  0  0  0  0  0  0  0  0
  129.7700  124.6610   71.0000 N   0  0  0  0  0  0  0  0  0  0  0  0
  130.4100  123.8050   71.8300 C   0  0  0  0  0  0  0  0  0  0  0  0
  130.6640  122.4160   71.2760 C   0  0  0  0  0  0  0  0  0  0  0  0
  130.8110  124.1630   73.1160 C   0  0  0  0  0  0  0  0  0  0  0  0
  130.5580  125.4610   73.5690 C   0  0  0  0  0  0  0  0  0  0  0  0
  131.0240  125.8340   74.9760 C   0  0  0  0  0  0  0  0  0  0  0  0
  129.8930  126.3740   72.7200 C   0  0  0  0  0  0  0  0  0  0  0  0
  129.6710  127.7540   73.1560 C   0  0  0  0  0  0  0  0  0  0  0  0
  129.4970  128.8440   73.5050 N   0  0  0  0  0  0  0  0  0  0  0  0
  1  2  1  0
  2  3  1  0
  3  4  2  0
  3  5  1  0
  5  6  1  0
  6  7  1  0
  7  8  2  0
  7  9  1  0
  9 10  1  0
 10 11  1  0
 11 12  1  0
 12 13  2  0
 13 14  1  0
 14 15  1  0
 14 16  2  0
 16 17  1  0
 17 18  1  0
 17 19  2  0
 19 20  1  0
 20 21  3  0
 19 12  1  0
M  END
>  <Binding energies>  (15) 
[-5.67]

>  <Ligand effiencies>  (15) 
[-0.25772727272727275]

>  <Interactions>  (15) 
["V-A:HIS:456:CE1:4064, H-B:LYS:547:NZ:9919, V-A:ASP:366:CG:3208, V-A:GLU:543:CD:4903, H-A:ARG:545:NH1:4922, H-A:TYR:484:OH:4343, H-A:ARG:545:NE:4919, H-A:GLY:454:N:4045, V-A:ARG:545:CZ:4921, H-A:GLU:543:OE2:4905, H-A:HIS:456:NE2:4065, H-A:GLU:543:OE1:4904, V-A:TYR:484:CG:4337, V-A:TYR:484:CD1:4338, V-A:LYS:547:CE:4945, V-A:HIS:456:CG:4061, H-A:LYS:547:NZ:4946, V-A:ARG:545:CD:4918, V-A:HIS:456:CD2:4063, V-B:LYS:547:CE:9918, V-A:TYR:484:CB:4336, V-A:TYR:484:CD2:4339"]

$$$$
2a_Grossjean_2025
     RDKit          3D

 29 30  0  0  0  0  0  0  0  0999 V2000
  129.7780  128.7210   71.8410 C   0  0  0  0  0  0  0  0  0  0  0  0
  130.0440  127.2230   72.0150 C   0  0  0  0  0  0  0  0  0  0  0  0
  128.8740  126.4940   71.6580 O   0  0  0  0  0  0  0  0  0  0  0  0
  128.0910  126.8910   70.6220 C   0  0  0  0  0  0  0  0  0  0  0  0
  126.9370  127.3080   70.7620 O   0  0  0  0  0  0  0  0  0  0  0  0
  128.7780  126.7920   69.2900 C   0  0  0  0  0  0  0  0  0  0  0  0
  129.4690  125.6370   68.8960 C   0  0  0  0  0  0  0  0  0  0  0  0
  130.0960  125.5780   67.6550 C   0  0  0  0  0  0  0  0  0  0  0  0
  130.0530  126.6700   66.7870 C   0  0  0  0  0  0  0  0  0  0  0  0
  130.7330  126.5040   65.5660 N   0  0  0  0  0  0  0  0  0  0  0  0
  131.7950  125.7270   65.2630 C   0  0  0  0  0  0  0  0  0  0  0  0
  132.4030  125.0060   66.0540 O   0  0  0  0  0  0  0  0  0  0  0  0
  132.2530  125.7770   63.8010 C   0  0  0  0  0  0  0  0  0  0  0  0
  133.5140  124.5230   63.3970 S   0  0  0  0  0  0  0  0  0  0  0  0
  132.9410  123.5060   62.0410 C   0  0  0  0  0  0  0  0  0  0  0  0
  133.6030  123.6620   60.8670 N   0  0  0  0  0  0  0  0  0  0  0  0
  133.2150  122.9350   59.7960 C   0  0  0  0  0  0  0  0  0  0  0  0
  133.9850  123.1850   58.5120 C   0  0  0  0  0  0  0  0  0  0  0  0
  132.1670  122.0210   59.8480 C   0  0  0  0  0  0  0  0  0  0  0  0
  131.4730  121.8360   61.0550 C   0  0  0  0  0  0  0  0  0  0  0  0
  130.3160  120.8200   61.0970 C   0  0  0  0  0  0  0  0  0  0  0  0
  130.4560  120.0090   62.1450 F   0  0  0  0  0  0  0  0  0  0  0  0
  129.1500  121.4610   61.1970 F   0  0  0  0  0  0  0  0  0  0  0  0
  130.2600  120.0560   60.0030 F   0  0  0  0  0  0  0  0  0  0  0  0
  131.8680  122.5960   62.1850 C   0  0  0  0  0  0  0  0  0  0  0  0
  131.1760  122.4450   63.4690 C   0  0  0  0  0  0  0  0  0  0  0  0
  130.6300  122.3250   64.4830 N   0  0  0  0  0  0  0  0  0  0  0  0
  129.3560  127.8250   67.1700 C   0  0  0  0  0  0  0  0  0  0  0  0
  128.7260  127.8800   68.4100 C   0  0  0  0  0  0  0  0  0  0  0  0
  1  2  1  0
  2  3  1  0
  3  4  1  0
  4  5  2  0
  4  6  1  0
  6  7  2  0
  7  8  1  0
  8  9  2  0
  9 10  1  0
 10 11  1  0
 11 12  2  0
 11 13  1  0
 13 14  1  0
 14 15  1  0
 15 16  2  0
 16 17  1  0
 17 18  1  0
 17 19  2  0
 19 20  1  0
 20 21  1  0
 21 22  1  0
 21 23  1  0
 21 24  1  0
 20 25  2  0
 25 26  1  0
 26 27  3  0
  9 28  1  0
 28 29  2  0
 29  6  1  0
 25 15  1  0
M  END
>  <Binding energies>  (16) 
[-7.38]

>  <Ligand effiencies>  (16) 
[-0.246]

>  <Interactions>  (16) 
["V-B:PRO:540:C:9849, V-A:HIS:456:CE1:4064, H-B:LYS:547:NZ:9919, V-B:ALA:541:CB:9860, V-B:GLU:543:CB:9874, V-B:ALA:541:CA:9858, V-B:TYR:539:C:9835, V-B:TYR:539:CD2:9842, V-A:LEU:475:CD2:4254, V-B:TYR:539:CE2:9844, V-A:ILE:369:CD1:3234, V-A:ASP:366:CA:3205, V-A:ILE:369:CB:3231, V-B:HIS:456:CE1:9037, V-A:ASP:366:CB:3207, V-B:GLU:543:C:9870, V-A:GLU:543:CD:4903, V-A:ILE:369:CG2:3232, H-A:TYR:484:OH:4343, H-A:GLY:454:N:4045, V-A:ARG:545:CZ:4921, H-A:GLU:543:OE2:4905, H-A:HIS:456:NE2:4065, V-A:LEU:475:CD1:4253, H-A:GLU:543:OE1:4904, V-A:ILE:369:CG1:3233, V-A:LEU:475:CG:4252"]

$$$$
2b_Grossjean_2025
     RDKit          3D

 28 29  0  0  0  0  0  0  0  0999 V2000
  126.4870  127.2170   70.1060 C   0  0  0  0  0  0  0  0  0  0  0  0
  127.6470  127.4830   70.8830 O   0  0  0  0  0  0  0  0  0  0  0  0
  128.7140  126.6440   70.8560 C   0  0  0  0  0  0  0  0  0  0  0  0
  129.1630  126.0810   71.8600 O   0  0  0  0  0  0  0  0  0  0  0  0
  129.2990  126.4730   69.4840 C   0  0  0  0  0  0  0  0  0  0  0  0
  129.6420  127.5700   68.6810 C   0  0  0  0  0  0  0  0  0  0  0  0
  130.1810  127.3760   67.4120 C   0  0  0  0  0  0  0  0  0  0  0  0
  130.3920  126.0880   66.9220 C   0  0  0  0  0  0  0  0  0  0  0  0
  130.9350  126.0060   65.6260 N   0  0  0  0  0  0  0  0  0  0  0  0
  132.1900  125.6970   65.2350 C   0  0  0  0  0  0  0  0  0  0  0  0
  133.1300  125.4440   65.9900 O   0  0  0  0  0  0  0  0  0  0  0  0
  132.4180  125.6890   63.7200 C   0  0  0  0  0  0  0  0  0  0  0  0
  133.6730  124.4770   63.1900 S   0  0  0  0  0  0  0  0  0  0  0  0
  133.0200  123.4600   61.8720 C   0  0  0  0  0  0  0  0  0  0  0  0
  133.6200  123.6060   60.6630 N   0  0  0  0  0  0  0  0  0  0  0  0
  133.1740  122.8720   59.6200 C   0  0  0  0  0  0  0  0  0  0  0  0
  133.8880  123.1020   58.3020 C   0  0  0  0  0  0  0  0  0  0  0  0
  132.1270  121.9620   59.7340 C   0  0  0  0  0  0  0  0  0  0  0  0
  131.4960  121.7890   60.9760 C   0  0  0  0  0  0  0  0  0  0  0  0
  130.3420  120.7760   61.0870 C   0  0  0  0  0  0  0  0  0  0  0  0
  129.1750  121.4190   61.1520 F   0  0  0  0  0  0  0  0  0  0  0  0
  130.3340  119.9710   60.0230 F   0  0  0  0  0  0  0  0  0  0  0  0
  130.4350  120.0030   62.1720 F   0  0  0  0  0  0  0  0  0  0  0  0
  131.9500  122.5580   62.0790 C   0  0  0  0  0  0  0  0  0  0  0  0
  131.3240  122.4230   63.3980 C   0  0  0  0  0  0  0  0  0  0  0  0
  130.8300  122.3160   64.4390 N   0  0  0  0  0  0  0  0  0  0  0  0
  130.0440  124.9850   67.7150 C   0  0  0  0  0  0  0  0  0  0  0  0
  129.5050  125.1800   68.9830 C   0  0  0  0  0  0  0  0  0  0  0  0
  1  2  1  0
  2  3  1  0
  3  4  2  0
  3  5  1  0
  5  6  2  0
  6  7  1  0
  7  8  2  0
  8  9  1  0
  9 10  1  0
 10 11  2  0
 10 12  1  0
 12 13  1  0
 13 14  1  0
 14 15  2  0
 15 16  1  0
 16 17  1  0
 16 18  2  0
 18 19  1  0
 19 20  1  0
 20 21  1  0
 20 22  1  0
 20 23  1  0
 19 24  2  0
 24 25  1  0
 25 26  3  0
  8 27  1  0
 27 28  2  0
 28  5  1  0
 24 14  1  0
M  END
>  <Binding energies>  (17) 
[-7.05]

>  <Ligand effiencies>  (17) 
[-0.24310344827586206]

>  <Interactions>  (17) 
["V-B:PRO:540:C:9849, V-B:GLU:543:CG:9875, V-A:HIS:456:CE1:4064, H-B:LYS:547:NZ:9919, V-B:ALA:541:CB:9860, V-B:GLU:543:CB:9874, V-B:ALA:541:CA:9858, V-A:TRP:381:CH2:3367, V-B:TYR:539:C:9835, V-B:TYR:539:CD2:9842, V-A:LEU:475:CD2:4254, V-B:TYR:539:CE2:9844, V-A:ILE:369:CD1:3234, V-A:ASP:366:CA:3205, V-A:ILE:369:CB:3231, V-B:HIS:456:CE1:9037, V-A:ASP:366:CB:3207, V-B:GLU:543:C:9870, V-A:TYR:484:CE1:4340, V-B:GLU:543:CA:9872, V-A:GLU:543:CD:4903, V-A:ILE:369:CG2:3232, H-A:TYR:484:OH:4343, H-A:ARG:545:NE:4919, H-A:GLY:454:N:4045, V-A:ARG:545:CZ:4921, H-A:HIS:456:NE2:4065, V-A:LEU:475:CD1:4253, H-A:GLU:543:OE1:4904, V-B:HIS:456:CD2:9035, V-B:HIS:456:CG:9033, V-B:GLY:544:C:9880, H-B:GLU:543:OE2:9878, V-A:ILE:369:CG1:3233, V-A:LEU:475:CG:4252, V-B:ARG:545:CA:9887"]

$$$$
2c_Grossjean_2025
     RDKit          3D

 26 27  0  0  0  0  0  0  0  0999 V2000
  127.3730  127.2530   70.5680 C   0  0  0  0  0  0  0  0  0  0  0  0
  126.9450  127.1750   69.2130 O   0  0  0  0  0  0  0  0  0  0  0  0
  127.8860  126.9870   68.2190 C   0  0  0  0  0  0  0  0  0  0  0  0
  128.9550  126.1460   68.5250 C   0  0  0  0  0  0  0  0  0  0  0  0
  129.9550  125.8960   67.5880 C   0  0  0  0  0  0  0  0  0  0  0  0
  129.8960  126.5020   66.3240 C   0  0  0  0  0  0  0  0  0  0  0  0
  130.8470  126.2960   65.3080 N   0  0  0  0  0  0  0  0  0  0  0  0
  131.1620  125.1490   64.6690 C   0  0  0  0  0  0  0  0  0  0  0  0
  130.6780  124.0460   64.9290 O   0  0  0  0  0  0  0  0  0  0  0  0
  132.2340  125.2910   63.5770 C   0  0  0  0  0  0  0  0  0  0  0  0
  133.3210  123.8400   63.3510 S   0  0  0  0  0  0  0  0  0  0  0  0
  132.7230  122.8570   61.9810 C   0  0  0  0  0  0  0  0  0  0  0  0
  133.3020  123.1100   60.7790 N   0  0  0  0  0  0  0  0  0  0  0  0
  132.8940  122.4120   59.6980 C   0  0  0  0  0  0  0  0  0  0  0  0
  133.5760  122.7650   58.3900 C   0  0  0  0  0  0  0  0  0  0  0  0
  131.9050  121.4330   59.7650 C   0  0  0  0  0  0  0  0  0  0  0  0
  131.2990  121.1490   60.9970 C   0  0  0  0  0  0  0  0  0  0  0  0
  130.2090  120.0610   61.0560 C   0  0  0  0  0  0  0  0  0  0  0  0
  129.0020  120.6270   61.0970 F   0  0  0  0  0  0  0  0  0  0  0  0
  130.2840  119.2780   59.9790 F   0  0  0  0  0  0  0  0  0  0  0  0
  130.3210  119.2770   62.1310 F   0  0  0  0  0  0  0  0  0  0  0  0
  131.7140  121.8780   62.1400 C   0  0  0  0  0  0  0  0  0  0  0  0
  131.1130  121.6250   63.4540 C   0  0  0  0  0  0  0  0  0  0  0  0
  130.6390  121.4240   64.4900 N   0  0  0  0  0  0  0  0  0  0  0  0
  128.8200  127.3320   66.0070 C   0  0  0  0  0  0  0  0  0  0  0  0
  127.8230  127.5790   66.9470 C   0  0  0  0  0  0  0  0  0  0  0  0
  1  2  1  0
  2  3  1  0
  3  4  2  0
  4  5  1  0
  5  6  2  0
  6  7  1  0
  7  8  1  0
  8  9  2  0
  8 10  1  0
 10 11  1  0
 11 12  1  0
 12 13  2  0
 13 14  1  0
 14 15  1  0
 14 16  2  0
 16 17  1  0
 17 18  1  0
 18 19  1  0
 18 20  1  0
 18 21  1  0
 17 22  2  0
 22 23  1  0
 23 24  3  0
  6 25  1  0
 25 26  2  0
 26  3  1  0
 22 12  1  0
M  END
>  <Binding energies>  (18) 
[-6.44]

>  <Ligand effiencies>  (18) 
[-0.23851851851851855]

>  <Interactions>  (18) 
["V-B:PRO:540:C:9849, V-A:TRP:381:CZ3:3366, V-A:HIS:456:CE1:4064, V-A:TRP:381:CZ2:3365, V-B:ALA:541:CB:9860, V-B:GLU:543:CB:9874, V-B:ALA:541:CA:9858, V-A:TRP:381:CH2:3367, V-B:TYR:539:C:9835, V-B:TYR:539:CD2:9842, V-A:LEU:475:CD2:4254, V-A:PRO:482:CB:4321, V-B:TYR:539:CE2:9844, V-A:ILE:369:CD1:3234, V-A:ILE:369:CB:3231, V-B:HIS:456:CE1:9037, V-B:GLU:543:C:9870, V-A:GLU:543:CD:4903, V-B:GLU:543:CD:9876, V-A:ILE:369:CG2:3232, H-A:TYR:484:OH:4343, H-A:GLY:454:N:4045, V-B:PRO:540:CA:9851, H-A:GLU:543:OE2:4905, V-A:LEU:475:CD1:4253, H-A:GLU:543:OE1:4904, V-B:HIS:456:CD2:9035, V-B:GLY:544:C:9880, V-B:TYR:539:CG:9840, V-A:LEU:475:CG:4252"]

$$$$
2d_Ghoteimi_2023
     RDKit          3D

 38 42  0  0  0  0  0  0  0  0999 V2000
  130.0350  131.2580   61.8730 C   0  0  0  0  0  0  0  0  0  0  0  0
  129.8750  132.5080   62.5260 O   0  0  0  0  0  0  0  0  0  0  0  0
  128.7840  132.7520   63.2820 C   0  0  0  0  0  0  0  0  0  0  0  0
  128.6730  132.4940   64.4840 O   0  0  0  0  0  0  0  0  0  0  0  0
  127.6690  133.4100   62.4550 C   0  0  0  0  0  0  0  0  0  0  0  0
  126.1010  132.4870   62.6060 S   0  0  0  0  0  0  0  0  0  0  0  0
  126.4850  130.7530   62.7550 C   0  0  0  0  0  0  0  0  0  0  0  0
  126.8950  130.4010   63.9970 N   0  0  0  0  0  0  0  0  0  0  0  0
  127.2270  129.1100   64.2530 C   0  0  0  0  0  0  0  0  0  0  0  0
  127.6880  128.8000   65.6410 C   0  0  0  0  0  0  0  0  0  0  0  0
  128.3600  129.7640   66.4000 C   0  0  0  0  0  0  0  0  0  0  0  0
  128.7920  129.4820   67.6940 C   0  0  0  0  0  0  0  0  0  0  0  0
  128.5570  128.2290   68.2790 C   0  0  0  0  0  0  0  0  0  0  0  0
  129.0000  127.9230   69.5710 N   0  0  0  0  0  0  0  0  0  0  0  0
  129.5100  128.9690   70.4800 C   0  0  0  0  0  0  0  0  0  0  0  0
  130.2870  128.4100   71.6900 C   0  0  0  0  0  0  0  0  0  0  0  0
  129.4810  127.4790   72.3940 O   0  0  0  0  0  0  0  0  0  0  0  0
  129.1120  126.3830   71.5730 C   0  0  0  0  0  0  0  0  0  0  0  0
  128.3050  126.8810   70.3550 C   0  0  0  0  0  0  0  0  0  0  0  0
  127.8950  127.2620   67.5090 C   0  0  0  0  0  0  0  0  0  0  0  0
  127.4650  127.5430   66.2150 C   0  0  0  0  0  0  0  0  0  0  0  0
  127.1500  128.1350   63.2560 C   0  0  0  0  0  0  0  0  0  0  0  0
  126.6970  128.4660   61.9730 C   0  0  0  0  0  0  0  0  0  0  0  0
  126.6130  127.3660   60.9650 C   0  0  0  0  0  0  0  0  0  0  0  0
  126.1300  126.1100   61.3360 C   0  0  0  0  0  0  0  0  0  0  0  0
  126.0360  125.0820   60.4020 C   0  0  0  0  0  0  0  0  0  0  0  0
  126.4260  125.2820   59.0680 C   0  0  0  0  0  0  0  0  0  0  0  0
  126.3290  124.2680   58.1100 N   0  0  0  0  0  0  0  0  0  0  0  0
  125.0620  123.5460   57.8820 C   0  0  0  0  0  0  0  0  0  0  0  0
  125.0450  122.7340   56.5690 C   0  0  0  0  0  0  0  0  0  0  0  0
  126.1510  121.8440   56.5340 O   0  0  0  0  0  0  0  0  0  0  0  0
  127.3860  122.5400   56.6070 C   0  0  0  0  0  0  0  0  0  0  0  0
  127.4630  123.3430   57.9230 C   0  0  0  0  0  0  0  0  0  0  0  0
  126.8920  126.5520   58.7010 C   0  0  0  0  0  0  0  0  0  0  0  0
  126.9850  127.5800   59.6350 C   0  0  0  0  0  0  0  0  0  0  0  0
  126.3460  129.8130   61.7080 C   0  0  0  0  0  0  0  0  0  0  0  0
  125.8490  130.2060   60.3860 C   0  0  0  0  0  0  0  0  0  0  0  0
  125.4560  130.5110   59.3400 N   0  0  0  0  0  0  0  0  0  0  0  0
  1  2  1  0
  2  3  1  0
  3  4  2  0
  3  5  1  0
  5  6  1  0
  6  7  1  0
  7  8  2  0
  8  9  1  0
  9 10  1  0
 10 11  2  0
 11 12  1  0
 12 13  2  0
 13 14  1  0
 14 15  1  0
 15 16  1  0
 16 17  1  0
 17 18  1  0
 18 19  1  0
 13 20  1  0
 20 21  2  0
  9 22  2  0
 22 23  1  0
 23 24  1  0
 24 25  2  0
 25 26  1  0
 26 27  2  0
 27 28  1  0
 28 29  1  0
 29 30  1  0
 30 31  1  0
 31 32  1  0
 32 33  1  0
 27 34  1  0
 34 35  2  0
 23 36  2  0
 36 37  1  0
 37 38  3  0
 36  7  1  0
 21 10  1  0
 35 24  1  0
 19 14  1  0
 33 28  1  0
M  END
>  <Binding energies>  (19) 
[-8.85]

>  <Ligand effiencies>  (19) 
[-0.23289473684210527]

>  <Interactions>  (19) 
["V-B:GLU:543:CG:9875, V-A:HIS:456:CE1:4064, H-B:LYS:547:NZ:9919, V-B:GLU:543:CB:9874, V-B:TYR:539:C:9835, V-A:GLU:543:CB:4901, V-B:HIS:456:CE1:9037, V-A:GLU:543:CG:4902, V-B:GLU:543:C:9870, H-B:TYR:484:OH:9315, V-A:GLU:543:CD:4903, V-B:GLU:543:CD:9876, V-B:PRO:540:CB:9853, V-B:PRO:540:CA:9851, V-B:HIS:456:CD2:9035, H-A:ALA:541:N:4886, V-A:ALA:541:CB:4887, V-B:ASP:366:CG:8180, V-B:LEU:475:CD2:9226, V-B:LEU:363:CD1:8156, V-B:PRO:540:CD:9855, V-B:PRO:540:N:9852, V-B:MET:535:CE:9803, H-B:TYR:539:N:9838"]

$$$$
2d_Grossjean_2025
     RDKit          3D

 24 25  0  0  0  0  0  0  0  0999 V2000
  133.6220  122.8030   58.0060 C   0  0  0  0  0  0  0  0  0  0  0  0
  132.9120  122.6980   59.3420 C   0  0  0  0  0  0  0  0  0  0  0  0
  132.0010  121.6790   59.6060 C   0  0  0  0  0  0  0  0  0  0  0  0
  131.3740  121.6210   60.8600 C   0  0  0  0  0  0  0  0  0  0  0  0
  130.3760  120.4810   61.1370 C   0  0  0  0  0  0  0  0  0  0  0  0
  129.1280  120.9510   61.1180 F   0  0  0  0  0  0  0  0  0  0  0  0
  130.4940  119.5330   60.2050 F   0  0  0  0  0  0  0  0  0  0  0  0
  130.5690  119.9020   62.3240 F   0  0  0  0  0  0  0  0  0  0  0  0
  131.6880  122.6160   61.8210 C   0  0  0  0  0  0  0  0  0  0  0  0
  131.0960  122.5740   63.1600 C   0  0  0  0  0  0  0  0  0  0  0  0
  130.6290  122.5390   64.2190 N   0  0  0  0  0  0  0  0  0  0  0  0
  132.6070  123.6280   61.4550 C   0  0  0  0  0  0  0  0  0  0  0  0
  133.0890  124.9690   62.5260 S   0  0  0  0  0  0  0  0  0  0  0  0
  133.4320  124.2990   64.1870 C   0  0  0  0  0  0  0  0  0  0  0  0
  132.6740  125.0330   65.2970 C   0  0  0  0  0  0  0  0  0  0  0  0
  133.2970  125.4390   66.2790 O   0  0  0  0  0  0  0  0  0  0  0  0
  131.3420  125.1510   65.1150 N   0  0  0  0  0  0  0  0  0  0  0  0
  130.3840  125.7670   65.9420 C   0  0  0  0  0  0  0  0  0  0  0  0
  130.2300  125.2180   67.2170 C   0  0  0  0  0  0  0  0  0  0  0  0
  129.3020  125.7550   68.1050 C   0  0  0  0  0  0  0  0  0  0  0  0
  128.5190  126.8390   67.7130 C   0  0  0  0  0  0  0  0  0  0  0  0
  128.6550  127.3870   66.4400 C   0  0  0  0  0  0  0  0  0  0  0  0
  129.5820  126.8530   65.5510 C   0  0  0  0  0  0  0  0  0  0  0  0
  133.2190  123.6560   60.2470 N   0  0  0  0  0  0  0  0  0  0  0  0
  1  2  1  0
  2  3  2  0
  3  4  1  0
  4  5  1  0
  5  6  1  0
  5  7  1  0
  5  8  1  0
  4  9  2  0
  9 10  1  0
 10 11  3  0
  9 12  1  0
 12 13  1  0
 13 14  1  0
 14 15  1  0
 15 16  2  0
 15 17  1  0
 17 18  1  0
 18 19  2  0
 19 20  1  0
 20 21  2  0
 21 22  1  0
 22 23  2  0
 12 24  2  0
 24  2  1  0
 23 18  1  0
M  END
>  <Binding energies>  (20) 
[-6.03]

>  <Ligand effiencies>  (20) 
[-0.2412]

>  <Interactions>  (20) 
["V-B:PRO:540:C:9849, V-B:GLU:543:CG:9875, V-A:HIS:456:CE1:4064, V-A:TRP:381:CZ2:3365, V-B:ALA:541:CB:9860, V-B:GLU:543:CB:9874, V-B:ALA:541:CA:9858, V-A:TRP:381:CH2:3367, V-B:TYR:539:CD2:9842, V-A:LEU:475:CD2:4254, V-B:TYR:539:CE2:9844, V-A:ILE:369:CD1:3234, V-B:TYR:539:CZ:9845, V-A:ILE:369:CB:3231, V-B:GLU:543:C:9870, V-B:GLU:543:CA:9872, V-A:GLU:543:CD:4903, V-B:GLU:543:CD:9876, V-A:ILE:369:CG2:3232, H-A:TYR:484:OH:4343, H-A:ARG:545:NE:4919, H-A:ARG:545:NH2:4923, V-A:GLY:454:CA:4044, H-A:HIS:456:NE2:4065, V-A:LEU:475:CD1:4253, V-A:LEU:475:CG:4252"]

$$$$
2e_Grossjean_2025
     RDKit          3D

 25 26  0  0  0  0  0  0  0  0999 V2000
  135.3590  125.0010   66.7950 C   0  0  0  0  0  0  0  0  0  0  0  0
  134.1830  125.2140   65.8610 C   0  0  0  0  0  0  0  0  0  0  0  0
  132.9850  125.7760   66.3090 C   0  0  0  0  0  0  0  0  0  0  0  0
  131.9500  125.9520   65.3900 C   0  0  0  0  0  0  0  0  0  0  0  0
  132.1340  125.5650   64.0600 C   0  0  0  0  0  0  0  0  0  0  0  0
  133.3560  124.9990   63.6800 C   0  0  0  0  0  0  0  0  0  0  0  0
  133.5030  124.6680   62.3220 N   0  0  0  0  0  0  0  0  0  0  0  0
  133.2570  123.4820   61.7220 C   0  0  0  0  0  0  0  0  0  0  0  0
  132.7800  122.4930   62.2800 O   0  0  0  0  0  0  0  0  0  0  0  0
  133.6550  123.3870   60.2460 C   0  0  0  0  0  0  0  0  0  0  0  0
  132.2550  123.7390   59.1360 S   0  0  0  0  0  0  0  0  0  0  0  0
  130.8930  122.7870   59.7720 C   0  0  0  0  0  0  0  0  0  0  0  0
  129.7640  123.5010   60.0050 N   0  0  0  0  0  0  0  0  0  0  0  0
  128.6950  122.8630   60.5320 C   0  0  0  0  0  0  0  0  0  0  0  0
  127.4660  123.7210   60.7670 C   0  0  0  0  0  0  0  0  0  0  0  0
  128.7080  121.5060   60.8490 C   0  0  0  0  0  0  0  0  0  0  0  0
  129.8720  120.7550   60.6220 C   0  0  0  0  0  0  0  0  0  0  0  0
  129.8780  119.2620   60.9980 C   0  0  0  0  0  0  0  0  0  0  0  0
  128.6290  118.8250   61.1610 F   0  0  0  0  0  0  0  0  0  0  0  0
  130.4630  118.5520   60.0320 F   0  0  0  0  0  0  0  0  0  0  0  0
  130.5390  119.0190   62.1320 F   0  0  0  0  0  0  0  0  0  0  0  0
  131.0000  121.4080   60.0660 C   0  0  0  0  0  0  0  0  0  0  0  0
  132.2540  120.6860   59.8320 C   0  0  0  0  0  0  0  0  0  0  0  0
  133.2450  120.1160   59.6490 N   0  0  0  0  0  0  0  0  0  0  0  0
  134.3760  124.8310   64.5720 N   0  0  0  0  0  0  0  0  0  0  0  0
  1  2  1  0
  2  3  2  0
  3  4  1  0
  4  5  2  0
  5  6  1  0
  6  7  1  0
  7  8  1  0
  8  9  2  0
  8 10  1  0
 10 11  1  0
 11 12  1  0
 12 13  2  0
 13 14  1  0
 14 15  1  0
 14 16  2  0
 16 17  1  0
 17 18  1  0
 18 19  1  0
 18 20  1  0
 18 21  1  0
 17 22  2  0
 22 23  1  0
 23 24  3  0
  6 25  2  0
 25  2  1  0
 22 12  1  0
M  END
>  <Binding energies>  (21) 
[-7.04]

>  <Ligand effiencies>  (21) 
[-0.27076923076923076]

>  <Interactions>  (21) 
["V-B:PRO:540:C:9849, V-A:TRP:381:CZ3:3366, V-A:HIS:456:CE1:4064, V-A:PRO:482:CG:4322, V-B:TYR:539:CB:9839, V-A:TRP:381:CZ2:3365, V-B:ALA:541:CB:9860, V-B:ALA:541:CA:9858, V-A:TRP:381:CE3:3363, V-A:TRP:381:CH2:3367, V-B:TYR:539:C:9835, V-B:TYR:539:CD2:9842, V-A:LEU:475:CD2:4254, V-A:TRP:381:CE2:3362, V-A:PRO:482:CB:4321, V-B:TYR:539:CE2:9844, V-A:ILE:369:CD1:3234, V-A:ASP:366:CG:3208, V-A:GLU:543:CD:4903, H-A:ASP:366:OD2:3210, H-A:ARG:545:NH1:4922, V-A:ILE:369:CG2:3232, H-A:TYR:484:OH:4343, H-A:ASP:366:OD1:3209, H-A:GLY:454:N:4045, V-A:ARG:545:CZ:4921, V-B:PRO:540:CA:9851, V-A:LEU:475:CD1:4253, V-A:ARG:545:CD:4918, V-A:GLY:453:CA:4039, V-A:ARG:545:CG:4917, V-A:HIS:456:CD2:4063, V-A:GLY:453:C:4037, V-A:ILE:455:C:4047, V-A:LEU:475:CG:4252, V-A:ARG:545:CB:4916"]

$$$$
2f_Grossjean_2025
     RDKit          3D

 24 25  0  0  0  0  0  0  0  0999 V2000
  124.5210  123.5650   62.0900 C   0  0  0  0  0  0  0  0  0  0  0  0
  125.6650  123.4350   61.1020 C   0  0  0  0  0  0  0  0  0  0  0  0
  125.5370  123.8520   59.7790 C   0  0  0  0  0  0  0  0  0  0  0  0
  126.6220  123.7040   58.9010 C   0  0  0  0  0  0  0  0  0  0  0  0
  126.4570  124.1600   57.4380 C   0  0  0  0  0  0  0  0  0  0  0  0
  127.3350  125.1260   57.1580 F   0  0  0  0  0  0  0  0  0  0  0  0
  126.6680  123.1320   56.6150 F   0  0  0  0  0  0  0  0  0  0  0  0
  125.2390  124.6400   57.1800 F   0  0  0  0  0  0  0  0  0  0  0  0
  127.8240  123.1370   59.3970 C   0  0  0  0  0  0  0  0  0  0  0  0
  128.9650  122.9090   58.5070 C   0  0  0  0  0  0  0  0  0  0  0  0
  129.8660  122.7300   57.8030 N   0  0  0  0  0  0  0  0  0  0  0  0
  127.8700  122.7660   60.7630 C   0  0  0  0  0  0  0  0  0  0  0  0
  129.2970  122.0520   61.5560 S   0  0  0  0  0  0  0  0  0  0  0  0
  130.3370  123.4140   62.1830 C   0  0  0  0  0  0  0  0  0  0  0  0
  130.4220  123.5180   63.7120 C   0  0  0  0  0  0  0  0  0  0  0  0
  130.9310  122.6140   64.3760 O   0  0  0  0  0  0  0  0  0  0  0  0
  129.8870  124.6460   64.2270 N   0  0  0  0  0  0  0  0  0  0  0  0
  129.8030  125.0650   65.5690 C   0  0  0  0  0  0  0  0  0  0  0  0
  129.9670  124.2370   66.6950 C   0  0  0  0  0  0  0  0  0  0  0  0
  129.8640  124.7840   67.9750 C   0  0  0  0  0  0  0  0  0  0  0  0
  129.6040  126.1490   68.0990 C   0  0  0  0  0  0  0  0  0  0  0  0
  129.4510  126.9700   67.0310 N   0  0  0  0  0  0  0  0  0  0  0  0
  129.5540  126.4240   65.7920 C   0  0  0  0  0  0  0  0  0  0  0  0
  126.8050  122.8960   61.5900 N   0  0  0  0  0  0  0  0  0  0  0  0
  1  2  1  0
  2  3  2  0
  3  4  1  0
  4  5  1  0
  5  6  1  0
  5  7  1  0
  5  8  1  0
  4  9  2  0
  9 10  1  0
 10 11  3  0
  9 12  1  0
 12 13  1  0
 13 14  1  0
 14 15  1  0
 15 16  2  0
 15 17  1  0
 17 18  1  0
 18 19  2  0
 19 20  1  0
 20 21  2  0
 21 22  1  0
 22 23  2  0
 12 24  2  0
 24  2  1  0
 23 18  1  0
M  END
>  <Binding energies>  (22) 
[-6.44]

>  <Ligand effiencies>  (22) 
[-0.2576]

>  <Interactions>  (22) 
["V-B:PRO:540:C:9849, V-B:GLU:543:CG:9875, V-A:HIS:456:CE1:4064, V-B:GLU:543:CB:9874, V-B:TYR:539:CE2:9844, V-A:TYR:484:CZ:4342, V-B:GLU:543:C:9870, V-A:TYR:484:CE1:4340, V-B:GLU:543:CA:9872, V-B:GLU:543:CD:9876, H-A:TYR:484:OH:4343, V-B:ASN:362:CB:8143, V-B:PRO:540:CB:9853, H-B:ALA:541:N:9859, V-B:PRO:540:CA:9851, H-B:GLU:543:OE2:9878, V-B:MET:535:CE:9803, V-B:ASN:362:CG:8144"]

$$$$
2g_Grossjean_2025
     RDKit          3D

 25 26  0  0  0  0  0  0  0  0999 V2000
  124.5370  123.5480   62.2530 C   0  0  0  0  0  0  0  0  0  0  0  0
  125.4950  123.4800   61.0790 C   0  0  0  0  0  0  0  0  0  0  0  0
  125.0660  123.7080   59.7740 C   0  0  0  0  0  0  0  0  0  0  0  0
  125.9900  123.6260   58.7210 C   0  0  0  0  0  0  0  0  0  0  0  0
  125.4960  123.8730   57.2820 C   0  0  0  0  0  0  0  0  0  0  0  0
  124.2300  124.2930   57.2940 F   0  0  0  0  0  0  0  0  0  0  0  0
  126.2540  124.8000   56.6960 F   0  0  0  0  0  0  0  0  0  0  0  0
  125.5440  122.7750   56.5240 F   0  0  0  0  0  0  0  0  0  0  0  0
  127.3410  123.3210   59.0250 C   0  0  0  0  0  0  0  0  0  0  0  0
  128.3340  123.1670   57.9580 C   0  0  0  0  0  0  0  0  0  0  0  0
  129.1170  123.0470   57.1150 N   0  0  0  0  0  0  0  0  0  0  0  0
  127.6910  123.1350   60.3850 C   0  0  0  0  0  0  0  0  0  0  0  0
  129.3410  122.7710   60.9450 S   0  0  0  0  0  0  0  0  0  0  0  0
  129.2400  122.3620   62.7200 C   0  0  0  0  0  0  0  0  0  0  0  0
  130.2310  123.1230   63.6120 C   0  0  0  0  0  0  0  0  0  0  0  0
  131.2090  122.5610   64.1100 O   0  0  0  0  0  0  0  0  0  0  0  0
  129.9520  124.4240   63.8070 N   0  0  0  0  0  0  0  0  0  0  0  0
  130.7500  125.3540   64.6080 C   0  0  0  0  0  0  0  0  0  0  0  0
  130.1880  125.6300   65.9980 C   0  0  0  0  0  0  0  0  0  0  0  0
  130.2640  124.6450   66.9880 C   0  0  0  0  0  0  0  0  0  0  0  0
  129.7850  124.9080   68.2690 C   0  0  0  0  0  0  0  0  0  0  0  0
  129.2420  126.1560   68.5600 C   0  0  0  0  0  0  0  0  0  0  0  0
  129.1750  127.1470   67.5810 C   0  0  0  0  0  0  0  0  0  0  0  0
  129.6540  126.8850   66.3010 C   0  0  0  0  0  0  0  0  0  0  0  0
  126.7810  123.1950   61.3870 N   0  0  0  0  0  0  0  0  0  0  0  0
  1  2  1  0
  2  3  2  0
  3  4  1  0
  4  5  1  0
  5  6  1  0
  5  7  1  0
  5  8  1  0
  4  9  2  0
  9 10  1  0
 10 11  3  0
  9 12  1  0
 12 13  1  0
 13 14  1  0
 14 15  1  0
 15 16  2  0
 15 17  1  0
 17 18  1  0
 18 19  1  0
 19 20  2  0
 20 21  1  0
 21 22  2  0
 22 23  1  0
 23 24  2  0
 12 25  2  0
 25  2  1  0
 24 19  1  0
M  END
>  <Binding energies>  (23) 
[-7.12]

>  <Ligand effiencies>  (23) 
[-0.27384615384615385]

>  <Interactions>  (23) 
["V-B:PRO:540:C:9849, V-B:GLU:543:CG:9875, V-A:HIS:456:CE1:4064, V-B:ALA:541:CB:9860, V-B:GLU:543:CB:9874, V-B:ALA:541:CA:9858, V-B:TYR:539:C:9835, V-A:TYR:484:CZ:4342, V-B:GLU:543:C:9870, V-A:TYR:484:CE1:4340, V-B:GLU:543:CA:9872, V-B:GLU:543:CD:9876, H-A:TYR:484:OH:4343, V-B:ASN:362:CB:8143, V-B:PRO:540:CB:9853, H-B:ALA:541:N:9859, V-B:PRO:540:CA:9851, H-B:GLU:543:OE2:9878, V-B:LEU:363:CD1:8156, V-B:PRO:540:CD:9855, V-B:PRO:540:N:9852, V-B:MET:535:CE:9803, V-B:TYR:531:CE2:9761, V-B:ASN:362:CG:8144"]

$$$$
2h_Grossjean_2025
     RDKit          3D

 31 32  0  0  0  0  0  0  0  0999 V2000
  128.9020  129.3040   67.3760 C   0  0  0  0  0  0  0  0  0  0  0  0
  128.3880  128.0790   66.8640 O   0  0  0  0  0  0  0  0  0  0  0  0
  129.1510  127.3410   65.9770 C   0  0  0  0  0  0  0  0  0  0  0  0
  128.9500  127.3350   64.5870 C   0  0  0  0  0  0  0  0  0  0  0  0
  129.7660  126.5720   63.7550 C   0  0  0  0  0  0  0  0  0  0  0  0
  130.7970  125.7990   64.2890 C   0  0  0  0  0  0  0  0  0  0  0  0
  131.6910  124.9860   63.3550 C   0  0  0  0  0  0  0  0  0  0  0  0
  130.9810  123.9280   62.6360 N   0  0  0  0  0  0  0  0  0  0  0  0
  130.2930  122.9290   63.2170 C   0  0  0  0  0  0  0  0  0  0  0  0
  130.2590  122.7530   64.4370 O   0  0  0  0  0  0  0  0  0  0  0  0
  129.5300  122.0040   62.2590 C   0  0  0  0  0  0  0  0  0  0  0  0
  129.5550  122.5190   60.5090 S   0  0  0  0  0  0  0  0  0  0  0  0
  127.8860  122.9640   60.0800 C   0  0  0  0  0  0  0  0  0  0  0  0
  127.0590  123.0760   61.1490 N   0  0  0  0  0  0  0  0  0  0  0  0
  125.7630  123.3930   60.9350 C   0  0  0  0  0  0  0  0  0  0  0  0
  124.8960  123.4940   62.1760 C   0  0  0  0  0  0  0  0  0  0  0  0
  125.2430  123.6140   59.6620 C   0  0  0  0  0  0  0  0  0  0  0  0
  126.0870  123.5230   58.5450 C   0  0  0  0  0  0  0  0  0  0  0  0
  125.4960  123.7800   57.1450 C   0  0  0  0  0  0  0  0  0  0  0  0
  126.1660  124.7610   56.5410 F   0  0  0  0  0  0  0  0  0  0  0  0
  125.5570  122.7070   56.3540 F   0  0  0  0  0  0  0  0  0  0  0  0
  124.2130  124.1310   57.2470 F   0  0  0  0  0  0  0  0  0  0  0  0
  127.4520  123.1990   58.7530 C   0  0  0  0  0  0  0  0  0  0  0  0
  128.3880  123.1490   57.6260 C   0  0  0  0  0  0  0  0  0  0  0  0
  129.1250  123.1140   56.7360 N   0  0  0  0  0  0  0  0  0  0  0  0
  130.9950  125.7760   65.6780 C   0  0  0  0  0  0  0  0  0  0  0  0
  132.0070  125.0140   66.2130 O   0  0  0  0  0  0  0  0  0  0  0  0
  133.3110  125.5380   65.9990 C   0  0  0  0  0  0  0  0  0  0  0  0
  130.1830  126.5620   66.5150 C   0  0  0  0  0  0  0  0  0  0  0  0
  130.3860  126.5560   67.8740 O   0  0  0  0  0  0  0  0  0  0  0  0
  129.4620  125.7530   68.5960 C   0  0  0  0  0  0  0  0  0  0  0  0
  1  2  1  0
  2  3  1  0
  3  4  2  0
  4  5  1  0
  5  6  2  0
  6  7  1  0
  7  8  1  0
  8  9  1  0
  9 10  2  0
  9 11  1  0
 11 12  1  0
 12 13  1  0
 13 14  2  0
 14 15  1  0
 15 16  1  0
 15 17  2  0
 17 18  1  0
 18 19  1  0
 19 20  1  0
 19 21  1  0
 19 22  1  0
 18 23  2  0
 23 24  1  0
 24 25  3  0
  6 26  1  0
 26 27  1  0
 27 28  1  0
 26 29  2  0
 29 30  1  0
 30 31  1  0
 29  3  1  0
 23 13  1  0
M  END
>  <Binding energies>  (24) 
[-6.25]

>  <Ligand effiencies>  (24) 
[-0.1953125]

>  <Interactions>  (24) 
["V-B:PRO:540:C:9849, V-A:HIS:456:CE1:4064, V-B:ALA:541:CB:9860, V-B:GLU:543:CB:9874, V-B:TYR:539:C:9835, V-A:GLU:543:CB:4901, V-B:HIS:456:CE1:9037, V-A:GLU:543:CG:4902, V-B:GLU:543:C:9870, V-A:GLU:543:CD:4903, V-B:GLU:543:CD:9876, H-A:TYR:484:OH:4343, V-B:ASN:362:CB:8143, V-A:ARG:545:CZ:4921, V-B:PRO:540:CB:9853, H-B:ALA:541:N:9859, V-B:PRO:540:CA:9851, H-A:HIS:456:NE2:4065, V-A:ARG:545:CD:4918, V-A:ARG:545:CG:4917, V-A:HIS:456:CD2:4063, V-B:LEU:363:CD1:8156, V-B:PRO:540:CD:9855, V-B:PRO:540:N:9852, V-B:MET:535:CE:9803, H-B:TYR:539:OH:9846, V-B:TYR:531:CE2:9761"]

$$$$
2i_Grossjean_2025
     RDKit          3D

 23 24  0  0  0  0  0  0  0  0999 V2000
  124.3860  123.7670   61.8400 C   0  0  0  0  0  0  0  0  0  0  0  0
  125.5310  123.5620   60.8650 C   0  0  0  0  0  0  0  0  0  0  0  0
  125.3870  123.8220   59.5050 C   0  0  0  0  0  0  0  0  0  0  0  0
  126.4770  123.6180   58.6450 C   0  0  0  0  0  0  0  0  0  0  0  0
  126.3000  123.9100   57.1430 C   0  0  0  0  0  0  0  0  0  0  0  0
  125.0310  124.2310   56.8870 F   0  0  0  0  0  0  0  0  0  0  0  0
  127.0850  124.9240   56.7780 F   0  0  0  0  0  0  0  0  0  0  0  0
  126.6120  122.8650   56.3730 F   0  0  0  0  0  0  0  0  0  0  0  0
  127.6960  123.1500   59.1970 C   0  0  0  0  0  0  0  0  0  0  0  0
  128.8670  122.9210   58.3440 C   0  0  0  0  0  0  0  0  0  0  0  0
  129.7920  122.7400   57.6720 N   0  0  0  0  0  0  0  0  0  0  0  0
  127.7540  122.9100   60.5890 C   0  0  0  0  0  0  0  0  0  0  0  0
  129.2320  122.3120   61.3930 S   0  0  0  0  0  0  0  0  0  0  0  0
  129.1530  122.7860   63.1470 C   0  0  0  0  0  0  0  0  0  0  0  0
  130.5420  122.9370   63.7700 C   0  0  0  0  0  0  0  0  0  0  0  0
  131.1470  121.9280   64.1360 O   0  0  0  0  0  0  0  0  0  0  0  0
  130.9950  124.2030   63.8960 N   0  0  0  0  0  0  0  0  0  0  0  0
  132.2050  124.5980   64.4410 C   0  0  0  0  0  0  0  0  0  0  0  0
  132.4740  125.4290   65.5380 C   0  0  0  0  0  0  0  0  0  0  0  0
  133.8460  125.4660   65.6220 C   0  0  0  0  0  0  0  0  0  0  0  0
  134.3710  124.6960   64.6390 O   0  0  0  0  0  0  0  0  0  0  0  0
  133.3180  124.1480   63.9030 N   0  0  0  0  0  0  0  0  0  0  0  0
  126.6870  123.1150   61.4040 N   0  0  0  0  0  0  0  0  0  0  0  0
  1  2  1  0
  2  3  2  0
  3  4  1  0
  4  5  1  0
  5  6  1  0
  5  7  1  0
  5  8  1  0
  4  9  2  0
  9 10  1  0
 10 11  3  0
  9 12  1  0
 12 13  1  0
 13 14  1  0
 14 15  1  0
 15 16  2  0
 15 17  1  0
 17 18  1  0
 18 19  1  0
 19 20  2  0
 20 21  1  0
 21 22  1  0
 12 23  2  0
 23  2  1  0
 22 18  2  0
M  END
>  <Binding energies>  (25) 
[-7.0]

>  <Ligand effiencies>  (25) 
[-0.2916666666666667]

>  <Interactions>  (25) 
["V-B:PRO:540:C:9849, V-B:GLU:543:CG:9875, V-B:ALA:541:CB:9860, V-B:TYR:539:C:9835, V-B:TYR:539:CE2:9844, V-B:GLU:543:CD:9876, H-A:TYR:484:OH:4343, H-A:GLY:454:N:4045, V-B:ASN:362:CB:8143, V-A:ARG:545:CZ:4921, V-B:PRO:540:CB:9853, H-B:ALA:541:N:9859, V-B:PRO:540:CA:9851, H-B:GLU:543:OE2:9878, V-A:ARG:545:CD:4918, V-A:ARG:545:CG:4917, V-B:LEU:363:CD1:8156, V-B:PRO:540:N:9852, V-B:MET:535:CE:9803, H-B:TYR:539:OH:9846, V-B:TYR:531:CE2:9761"]

$$$$
2k_Grossjean_2025
     RDKit          3D

 28 28  0  0  0  0  0  0  0  0999 V2000
  133.7860  125.2430   65.3140 C   0  0  0  0  0  0  0  0  0  0  0  0
  134.3410  124.7560   64.1010 O   0  0  0  0  0  0  0  0  0  0  0  0
  133.4560  123.9150   63.3710 C   0  0  0  0  0  0  0  0  0  0  0  0
  133.2350  124.4910   61.9670 C   0  0  0  0  0  0  0  0  0  0  0  0
  131.8850  124.9180   61.8490 O   0  0  0  0  0  0  0  0  0  0  0  0
  131.7010  126.3210   61.9920 C   0  0  0  0  0  0  0  0  0  0  0  0
  130.2210  126.6430   61.7470 C   0  0  0  0  0  0  0  0  0  0  0  0
  129.5530  126.5950   62.9980 O   0  0  0  0  0  0  0  0  0  0  0  0
  130.4020  126.5350   64.1340 C   0  0  0  0  0  0  0  0  0  0  0  0
  130.4030  125.0950   64.6810 C   0  0  0  0  0  0  0  0  0  0  0  0
  129.8560  124.1220   63.7320 N   0  0  0  0  0  0  0  0  0  0  0  0
  130.1860  122.8180   63.6690 C   0  0  0  0  0  0  0  0  0  0  0  0
  130.9830  122.2820   64.4410 O   0  0  0  0  0  0  0  0  0  0  0  0
  129.5170  122.0150   62.5430 C   0  0  0  0  0  0  0  0  0  0  0  0
  129.5180  122.8180   60.9020 S   0  0  0  0  0  0  0  0  0  0  0  0
  127.8330  123.1280   60.3920 C   0  0  0  0  0  0  0  0  0  0  0  0
  126.9200  123.2060   61.3930 N   0  0  0  0  0  0  0  0  0  0  0  0
  125.6250  123.4340   61.0790 C   0  0  0  0  0  0  0  0  0  0  0  0
  124.6650  123.4940   62.2510 C   0  0  0  0  0  0  0  0  0  0  0  0
  125.1890  123.6060   59.7680 C   0  0  0  0  0  0  0  0  0  0  0  0
  126.1170  123.5390   58.7180 C   0  0  0  0  0  0  0  0  0  0  0  0
  125.6180  123.7360   57.2740 C   0  0  0  0  0  0  0  0  0  0  0  0
  126.2520  124.7230   56.6390 F   0  0  0  0  0  0  0  0  0  0  0  0
  125.8060  122.6200   56.5680 F   0  0  0  0  0  0  0  0  0  0  0  0
  124.3180  124.0320   57.2760 F   0  0  0  0  0  0  0  0  0  0  0  0
  127.4780  123.2920   59.0320 C   0  0  0  0  0  0  0  0  0  0  0  0
  128.4900  123.2070   57.9740 C   0  0  0  0  0  0  0  0  0  0  0  0
  129.2880  123.1420   57.1390 N   0  0  0  0  0  0  0  0  0  0  0  0
  1  2  1  0
  2  3  1  0
  3  4  1  0
  4  5  1  0
  5  6  1  0
  6  7  1  0
  7  8  1  0
  8  9  1  0
  9 10  1  0
 10 11  1  0
 11 12  1  0
 12 13  2  0
 12 14  1  0
 14 15  1  0
 15 16  1  0
 16 17  2  0
 17 18  1  0
 18 19  1  0
 18 20  2  0
 20 21  1  0
 21 22  1  0
 22 23  1  0
 22 24  1  0
 22 25  1  0
 21 26  2  0
 26 27  1  0
 27 28  3  0
 26 16  1  0
M  END
>  <Binding energies>  (26) 
[-5.31]

>  <Ligand effiencies>  (26) 
[-0.18310344827586206]

>  <Interactions>  (26) 
["V-B:PRO:540:C:9849, V-B:GLU:543:CG:9875, V-B:ALA:541:CB:9860, V-B:TYR:539:C:9835, V-A:ASP:366:CG:3208, V-A:GLU:543:CD:4903, V-B:GLU:543:CD:9876, H-A:ARG:545:NH1:4922, H-A:TYR:484:OH:4343, H-A:GLY:454:N:4045, V-A:GLY:454:CA:4044, V-B:ASN:362:CB:8143, V-A:ARG:545:CZ:4921, V-B:PRO:540:CB:9853, H-B:ALA:541:N:9859, V-B:PRO:540:CA:9851, H-B:GLU:543:OE2:9878, V-A:ARG:545:CD:4918, V-B:LEU:363:CD1:8156, V-B:PRO:540:CD:9855, V-B:PRO:540:N:9852, V-B:MET:535:CE:9803, V-B:TYR:531:CE2:9761, V-B:ASN:362:CG:8144"]

$$$$
3aa_Grossjean_2025
     RDKit          3D

 34 36  0  0  0  0  0  0  0  0999 V2000
  129.9440  123.8470   71.6390 C   0  0  0  0  0  0  0  0  0  0  0  0
  130.3140  124.8740   72.7130 C   0  0  0  0  0  0  0  0  0  0  0  0
  129.2740  125.8380   72.8260 O   0  0  0  0  0  0  0  0  0  0  0  0
  129.5160  127.1560   72.6040 C   0  0  0  0  0  0  0  0  0  0  0  0
  129.8890  127.9370   73.4840 O   0  0  0  0  0  0  0  0  0  0  0  0
  129.2670  127.5730   71.1820 C   0  0  0  0  0  0  0  0  0  0  0  0
  130.1760  128.3730   70.4730 C   0  0  0  0  0  0  0  0  0  0  0  0
  129.9160  128.7380   69.1550 C   0  0  0  0  0  0  0  0  0  0  0  0
  128.7510  128.3080   68.5180 C   0  0  0  0  0  0  0  0  0  0  0  0
  128.5880  128.7310   67.1830 N   0  0  0  0  0  0  0  0  0  0  0  0
  128.5790  129.9810   66.6710 C   0  0  0  0  0  0  0  0  0  0  0  0
  128.6970  131.0200   67.3210 O   0  0  0  0  0  0  0  0  0  0  0  0
  128.3940  130.0710   65.1560 C   0  0  0  0  0  0  0  0  0  0  0  0
  128.7440  131.7430   64.5310 S   0  0  0  0  0  0  0  0  0  0  0  0
  128.6910  131.6570   62.7550 C   0  0  0  0  0  0  0  0  0  0  0  0
  129.9080  131.4900   62.1830 N   0  0  0  0  0  0  0  0  0  0  0  0
  130.0100  131.4100   60.8310 C   0  0  0  0  0  0  0  0  0  0  0  0
  131.3880  131.2100   60.2750 C   0  0  0  0  0  0  0  0  0  0  0  0
  132.5110  131.2520   61.1170 C   0  0  0  0  0  0  0  0  0  0  0  0
  133.7940  131.0660   60.6080 C   0  0  0  0  0  0  0  0  0  0  0  0
  133.9710  130.8360   59.2480 C   0  0  0  0  0  0  0  0  0  0  0  0
  132.8740  130.7870   58.3940 C   0  0  0  0  0  0  0  0  0  0  0  0
  131.5930  130.9710   58.9060 C   0  0  0  0  0  0  0  0  0  0  0  0
  128.8750  131.4910   60.0180 C   0  0  0  0  0  0  0  0  0  0  0  0
  127.6070  131.6820   60.5870 C   0  0  0  0  0  0  0  0  0  0  0  0
  126.3820  131.7770   59.6570 C   0  0  0  0  0  0  0  0  0  0  0  0
  126.7140  131.8040   58.3650 F   0  0  0  0  0  0  0  0  0  0  0  0
  125.5820  130.7260   59.8410 F   0  0  0  0  0  0  0  0  0  0  0  0
  125.6980  132.8920   59.9200 F   0  0  0  0  0  0  0  0  0  0  0  0
  127.5070  131.7810   61.9960 C   0  0  0  0  0  0  0  0  0  0  0  0
  126.2160  132.0380   62.6410 C   0  0  0  0  0  0  0  0  0  0  0  0
  125.1960  132.2420   63.1510 N   0  0  0  0  0  0  0  0  0  0  0  0
  127.8320  127.5190   69.2250 C   0  0  0  0  0  0  0  0  0  0  0  0
  128.0920  127.1570   70.5430 C   0  0  0  0  0  0  0  0  0  0  0  0
  1  2  1  0
  2  3  1  0
  3  4  1  0
  4  5  2  0
  4  6  1  0
  6  7  2  0
  7  8  1  0
  8  9  2  0
  9 10  1  0
 10 11  1  0
 11 12  2  0
 11 13  1  0
 13 14  1  0
 14 15  1  0
 15 16  2  0
 16 17  1  0
 17 18  1  0
 18 19  2  0
 19 20  1  0
 20 21  2  0
 21 22  1  0
 22 23  2  0
 17 24  2  0
 24 25  1  0
 25 26  1  0
 26 27  1  0
 26 28  1  0
 26 29  1  0
 25 30  2  0
 30 31  1  0
 31 32  3  0
  9 33  1  0
 33 34  2  0
 34  6  1  0
 30 15  1  0
 23 18  1  0
M  END
>  <Binding energies>  (27) 
[-7.42]

>  <Ligand effiencies>  (27) 
[-0.212]

>  <Interactions>  (27) 
["V-A:HIS:456:CE1:4064, H-B:LYS:547:NZ:9919, V-A:GLU:543:CB:4901, V-B:HIS:456:CE1:9037, V-A:GLU:543:CG:4902, H-B:TYR:484:OH:9315, V-A:GLU:543:CD:4903, V-A:TYR:539:CE2:4871, V-A:GLU:543:C:4897, V-A:PRO:540:CA:4878, V-A:TYR:539:CD2:4869, V-A:LEU:363:CD1:3184, V-B:TYR:484:CE1:9312, V-B:TYR:484:CZ:9314, V-A:ASN:362:C:3167, V-A:LEU:363:CA:3180, V-A:PRO:540:CB:4880, H-A:LYS:547:NZ:4946, V-A:LEU:363:CB:3182, V-A:TYR:539:CZ:4872, V-A:TYR:539:CE1:4870, V-A:ASN:362:CB:3171, V-B:LYS:547:CE:9918"]

$$$$
3ad_Grossjean_2025
     RDKit          3D

 29 31  0  0  0  0  0  0  0  0999 V2000
  133.6370  119.7060   60.4650 N   0  0  0  0  0  0  0  0  0  0  0  0
  132.6760  120.3440   60.5620 C   0  0  0  0  0  0  0  0  0  0  0  0
  131.4560  121.1480   60.6850 C   0  0  0  0  0  0  0  0  0  0  0  0
  130.1870  120.5270   60.7880 C   0  0  0  0  0  0  0  0  0  0  0  0
  130.0090  118.9980   60.8230 C   0  0  0  0  0  0  0  0  0  0  0  0
  130.7970  118.4040   61.7210 F   0  0  0  0  0  0  0  0  0  0  0  0
  128.7470  118.6940   61.1320 F   0  0  0  0  0  0  0  0  0  0  0  0
  130.3000  118.4750   59.6310 F   0  0  0  0  0  0  0  0  0  0  0  0
  129.0470  121.3420   60.8560 C   0  0  0  0  0  0  0  0  0  0  0  0
  129.1690  122.7350   60.8190 C   0  0  0  0  0  0  0  0  0  0  0  0
  127.9830  123.6520   60.8740 C   0  0  0  0  0  0  0  0  0  0  0  0
  126.6910  123.1420   61.0720 C   0  0  0  0  0  0  0  0  0  0  0  0
  125.5860  123.9870   61.1240 C   0  0  0  0  0  0  0  0  0  0  0  0
  125.7600  125.3600   60.9790 C   0  0  0  0  0  0  0  0  0  0  0  0
  127.0300  125.8910   60.7850 C   0  0  0  0  0  0  0  0  0  0  0  0
  128.1330  125.0420   60.7340 C   0  0  0  0  0  0  0  0  0  0  0  0
  130.3870  123.3250   60.7140 N   0  0  0  0  0  0  0  0  0  0  0  0
  131.5030  122.5600   60.6680 C   0  0  0  0  0  0  0  0  0  0  0  0
  133.0080  123.5000   60.5430 S   0  0  0  0  0  0  0  0  0  0  0  0
  133.8840  123.3290   62.1270 C   0  0  0  0  0  0  0  0  0  0  0  0
  133.2920  124.2270   63.2150 C   0  0  0  0  0  0  0  0  0  0  0  0
  134.0260  124.6430   64.1130 O   0  0  0  0  0  0  0  0  0  0  0  0
  131.9740  124.4950   63.0930 N   0  0  0  0  0  0  0  0  0  0  0  0
  131.1360  125.2850   63.9010 C   0  0  0  0  0  0  0  0  0  0  0  0
  131.1580  124.9880   65.2670 C   0  0  0  0  0  0  0  0  0  0  0  0
  130.3630  125.7070   66.1560 C   0  0  0  0  0  0  0  0  0  0  0  0
  129.5390  126.7230   65.6780 C   0  0  0  0  0  0  0  0  0  0  0  0
  129.5020  127.0240   64.3190 C   0  0  0  0  0  0  0  0  0  0  0  0
  130.2960  126.3070   63.4270 C   0  0  0  0  0  0  0  0  0  0  0  0
  1  2  3  0
  2  3  1  0
  3  4  2  0
  4  5  1  0
  5  6  1  0
  5  7  1  0
  5  8  1  0
  4  9  1  0
  9 10  2  0
 10 11  1  0
 11 12  2  0
 12 13  1  0
 13 14  2  0
 14 15  1  0
 15 16  2  0
 10 17  1  0
 17 18  2  0
 18 19  1  0
 19 20  1  0
 20 21  1  0
 21 22  2  0
 21 23  1  0
 23 24  1  0
 24 25  2  0
 25 26  1  0
 26 27  2  0
 27 28  1  0
 28 29  2  0
 18  3  1  0
 29 24  1  0
 16 11  1  0
M  END
>  <Binding energies>  (28) 
[-6.79]

>  <Ligand effiencies>  (28) 
[-0.22633333333333333]

>  <Interactions>  (28) 
["V-B:PRO:540:C:9849, V-A:TRP:381:CD2:3360, V-A:TRP:381:CZ3:3366, V-A:PRO:482:CG:4322, V-B:TYR:539:CB:9839, V-A:TRP:381:CZ2:3365, V-B:ALA:541:CB:9860, V-B:ALA:541:CA:9858, V-A:TRP:381:CE3:3363, V-A:TRP:381:CH2:3367, V-B:TYR:539:C:9835, V-B:TYR:539:CD2:9842, V-A:LEU:475:CD2:4254, V-A:TRP:381:CE2:3362, V-A:PRO:482:CB:4321, V-B:TYR:539:CE2:9844, V-A:ILE:369:CD1:3234, V-A:GLU:543:CD:4903, V-B:GLU:543:CD:9876, V-A:ILE:369:CG2:3232, H-A:TYR:484:OH:4343, H-A:GLY:454:N:4045, V-B:PRO:540:CB:9853, V-B:PRO:540:CA:9851, V-A:LEU:475:CD1:4253, V-B:ASP:366:CG:8180, V-B:TYR:539:CG:9840, V-A:LEU:475:CG:4252"]

$$$$
3ai_Grossjean_2025
     RDKit          3D

 28 30  0  0  0  0  0  0  0  0999 V2000
  131.8280  125.2110   66.3870 N   0  0  0  0  0  0  0  0  0  0  0  0
  130.8650  125.7910   66.1110 C   0  0  0  0  0  0  0  0  0  0  0  0
  129.6450  126.5250   65.7610 C   0  0  0  0  0  0  0  0  0  0  0  0
  129.4070  126.9390   64.4280 C   0  0  0  0  0  0  0  0  0  0  0  0
  130.3720  126.6130   63.2710 C   0  0  0  0  0  0  0  0  0  0  0  0
  130.1120  127.3170   62.1670 F   0  0  0  0  0  0  0  0  0  0  0  0
  131.6260  126.8840   63.6350 F   0  0  0  0  0  0  0  0  0  0  0  0
  130.2830  125.3220   62.9500 F   0  0  0  0  0  0  0  0  0  0  0  0
  128.2480  127.6810   64.1530 C   0  0  0  0  0  0  0  0  0  0  0  0
  127.3540  128.0020   65.1790 C   0  0  0  0  0  0  0  0  0  0  0  0
  126.1070  128.8000   64.9440 C   0  0  0  0  0  0  0  0  0  0  0  0
  125.7500  129.2080   63.6490 C   0  0  0  0  0  0  0  0  0  0  0  0
  124.5920  129.9460   63.4230 C   0  0  0  0  0  0  0  0  0  0  0  0
  123.7700  130.2850   64.4920 C   0  0  0  0  0  0  0  0  0  0  0  0
  124.0990  129.8910   65.7850 C   0  0  0  0  0  0  0  0  0  0  0  0
  125.2580  129.1540   66.0070 C   0  0  0  0  0  0  0  0  0  0  0  0
  127.5900  127.6110   66.4570 N   0  0  0  0  0  0  0  0  0  0  0  0
  128.6900  126.8730   66.7430 C   0  0  0  0  0  0  0  0  0  0  0  0
  128.8210  126.4330   68.4640 S   0  0  0  0  0  0  0  0  0  0  0  0
  129.7630  127.7490   69.3080 C   0  0  0  0  0  0  0  0  0  0  0  0
  129.3680  127.9930   70.7720 C   0  0  0  0  0  0  0  0  0  0  0  0
  128.9030  127.0810   71.4600 O   0  0  0  0  0  0  0  0  0  0  0  0
  129.5720  129.2560   71.2080 N   0  0  0  0  0  0  0  0  0  0  0  0
  129.3150  129.7590   72.4770 C   0  0  0  0  0  0  0  0  0  0  0  0
  129.2320  131.1230   72.7540 C   0  0  0  0  0  0  0  0  0  0  0  0
  128.9720  131.2000   74.1030 C   0  0  0  0  0  0  0  0  0  0  0  0
  128.9020  129.9480   74.6130 O   0  0  0  0  0  0  0  0  0  0  0  0
  129.1200  129.0430   73.5720 N   0  0  0  0  0  0  0  0  0  0  0  0
  1  2  3  0
  2  3  1  0
  3  4  2  0
  4  5  1  0
  5  6  1  0
  5  7  1  0
  5  8  1  0
  4  9  1  0
  9 10  2  0
 10 11  1  0
 11 12  2  0
 12 13  1  0
 13 14  2  0
 14 15  1  0
 15 16  2  0
 10 17  1  0
 17 18  2  0
 18 19  1  0
 19 20  1  0
 20 21  1  0
 21 22  2  0
 21 23  1  0
 23 24  1  0
 24 25  1  0
 25 26  2  0
 26 27  1  0
 27 28  1  0
 18  3  1  0
 28 24  2  0
 16 11  1  0
M  END
>  <Binding energies>  (29) 
[-7.54]

>  <Ligand effiencies>  (29) 
[-0.26]

>  <Interactions>  (29) 
["V-B:GLU:543:CG:9875, V-A:HIS:456:CE1:4064, H-B:LYS:547:NZ:9919, V-B:GLU:543:CB:9874, V-B:HIS:456:CE1:9037, H-B:HIS:456:NE2:9038, V-A:GLU:543:CD:4903, V-B:GLU:543:CD:9876, H-A:TYR:484:OH:4343, V-A:ARG:545:CZ:4921, H-A:HIS:456:NE2:4065, V-B:ARG:545:CG:9890, V-A:LYS:547:CE:4945, V-B:HIS:456:CD2:9035, H-A:GLU:543:O:4898, V-B:ARG:545:CD:9891, H-A:LYS:547:NZ:4946, V-B:ARG:545:CZ:9894, V-B:GLY:453:CA:9011"]

$$$$
3aj_Grossjean_2025
     RDKit          3D

 28 30  0  0  0  0  0  0  0  0999 V2000
  132.2830  125.5180   66.3750 N   0  0  0  0  0  0  0  0  0  0  0  0
  131.3020  126.0900   66.1560 C   0  0  0  0  0  0  0  0  0  0  0  0
  130.0580  126.8140   65.8750 C   0  0  0  0  0  0  0  0  0  0  0  0
  129.5140  126.8380   64.5680 C   0  0  0  0  0  0  0  0  0  0  0  0
  130.1540  126.0830   63.3860 C   0  0  0  0  0  0  0  0  0  0  0  0
  130.2500  124.7690   63.6020 F   0  0  0  0  0  0  0  0  0  0  0  0
  129.4250  126.2580   62.2840 F   0  0  0  0  0  0  0  0  0  0  0  0
  131.3870  126.5420   63.1660 F   0  0  0  0  0  0  0  0  0  0  0  0
  128.3470  127.5840   64.3410 C   0  0  0  0  0  0  0  0  0  0  0  0
  127.7450  128.2900   65.3880 C   0  0  0  0  0  0  0  0  0  0  0  0
  126.5050  129.1100   65.1980 C   0  0  0  0  0  0  0  0  0  0  0  0
  125.3820  128.9090   66.0160 C   0  0  0  0  0  0  0  0  0  0  0  0
  124.2280  129.6710   65.8480 C   0  0  0  0  0  0  0  0  0  0  0  0
  124.1820  130.6460   64.8560 C   0  0  0  0  0  0  0  0  0  0  0  0
  125.2830  130.8650   64.0340 C   0  0  0  0  0  0  0  0  0  0  0  0
  126.4340  130.1030   64.2070 C   0  0  0  0  0  0  0  0  0  0  0  0
  128.2750  128.2700   66.6370 N   0  0  0  0  0  0  0  0  0  0  0  0
  129.3860  127.5380   66.8870 C   0  0  0  0  0  0  0  0  0  0  0  0
  129.9210  127.6140   68.5820 S   0  0  0  0  0  0  0  0  0  0  0  0
  128.4690  127.2950   69.6410 C   0  0  0  0  0  0  0  0  0  0  0  0
  128.7870  126.6700   71.0080 C   0  0  0  0  0  0  0  0  0  0  0  0
  128.5340  127.2750   72.0530 O   0  0  0  0  0  0  0  0  0  0  0  0
  129.3470  125.4410   70.9500 N   0  0  0  0  0  0  0  0  0  0  0  0
  129.7260  124.6510   72.0280 C   0  0  0  0  0  0  0  0  0  0  0  0
  129.5170  124.8770   73.3070 N   0  0  0  0  0  0  0  0  0  0  0  0
  130.0110  123.9120   74.0570 C   0  0  0  0  0  0  0  0  0  0  0  0
  130.6400  122.8690   73.3820 C   0  0  0  0  0  0  0  0  0  0  0  0
  130.5770  123.1820   71.6740 S   0  0  0  0  0  0  0  0  0  0  0  0
  1  2  3  0
  2  3  1  0
  3  4  2  0
  4  5  1  0
  5  6  1  0
  5  7  1  0
  5  8  1  0
  4  9  1  0
  9 10  2  0
 10 11  1  0
 11 12  2  0
 12 13  1  0
 13 14  2  0
 14 15  1  0
 15 16  2  0
 10 17  1  0
 17 18  2  0
 18 19  1  0
 19 20  1  0
 20 21  1  0
 21 22  2  0
 21 23  1  0
 23 24  1  0
 24 25  2  0
 25 26  1  0
 26 27  2  0
 27 28  1  0
 18  3  1  0
 28 24  1  0
 16 11  1  0
M  END
>  <Binding energies>  (30) 
[-6.56]

>  <Ligand effiencies>  (30) 
[-0.22620689655172413]

>  <Interactions>  (30) 
["H-B:GLU:543:O:9871, V-A:HIS:456:CE1:4064, H-B:LYS:547:NZ:9919, V-B:HIS:456:CE1:9037, V-B:GLU:543:C:9870, V-A:GLU:543:CD:4903, V-B:GLU:543:CD:9876, H-A:TYR:484:OH:4343, H-A:HIS:456:NE2:4065, V-B:ARG:545:CG:9890, V-A:HIS:456:CG:4061, V-B:ARG:545:CD:9891, V-B:ARG:545:CZ:9894, V-A:HIS:456:CD2:4063, V-B:LYS:547:CE:9918"]

$$$$
3ak_Grossjean_2025
     RDKit          3D

 33 34  0  0  0  0  0  0  0  0999 V2000
  129.7380  124.6820   71.7350 C   0  0  0  0  0  0  0  0  0  0  0  0
  128.8340  125.7460   71.9910 O   0  0  0  0  0  0  0  0  0  0  0  0
  129.1480  126.9370   71.2820 C   0  0  0  0  0  0  0  0  0  0  0  0
  128.0480  127.2070   70.2480 C   0  0  0  0  0  0  0  0  0  0  0  0
  128.5790  128.0240   69.2100 O   0  0  0  0  0  0  0  0  0  0  0  0
  129.4570  127.3670   68.3000 C   0  0  0  0  0  0  0  0  0  0  0  0
  128.8980  126.0450   67.7430 C   0  0  0  0  0  0  0  0  0  0  0  0
  128.9800  126.0640   66.3250 O   0  0  0  0  0  0  0  0  0  0  0  0
  130.2000  126.5950   65.8250 C   0  0  0  0  0  0  0  0  0  0  0  0
  130.9910  125.5020   65.0840 C   0  0  0  0  0  0  0  0  0  0  0  0
  130.1430  124.4730   64.4790 N   0  0  0  0  0  0  0  0  0  0  0  0
  130.5740  123.3530   63.8670 C   0  0  0  0  0  0  0  0  0  0  0  0
  131.7670  123.0650   63.7680 O   0  0  0  0  0  0  0  0  0  0  0  0
  129.5360  122.3910   63.2660 C   0  0  0  0  0  0  0  0  0  0  0  0
  130.1250  121.2800   61.9350 S   0  0  0  0  0  0  0  0  0  0  0  0
  130.0230  122.1490   60.3770 C   0  0  0  0  0  0  0  0  0  0  0  0
  128.7730  122.3160   59.8790 N   0  0  0  0  0  0  0  0  0  0  0  0
  128.5940  122.9590   58.6970 C   0  0  0  0  0  0  0  0  0  0  0  0
  127.1790  123.1000   58.2220 C   0  0  0  0  0  0  0  0  0  0  0  0
  126.7460  122.4550   57.0530 C   0  0  0  0  0  0  0  0  0  0  0  0
  125.4320  122.5790   56.6100 C   0  0  0  0  0  0  0  0  0  0  0  0
  124.5300  123.3520   57.3320 C   0  0  0  0  0  0  0  0  0  0  0  0
  124.9310  124.0000   58.4950 C   0  0  0  0  0  0  0  0  0  0  0  0
  126.2460  123.8730   58.9370 C   0  0  0  0  0  0  0  0  0  0  0  0
  129.6850  123.4700   57.9860 C   0  0  0  0  0  0  0  0  0  0  0  0
  130.9890  123.3120   58.4800 C   0  0  0  0  0  0  0  0  0  0  0  0
  132.1660  123.8870   57.6670 C   0  0  0  0  0  0  0  0  0  0  0  0
  132.7260  124.8990   58.3280 F   0  0  0  0  0  0  0  0  0  0  0  0
  133.0850  122.9420   57.4630 F   0  0  0  0  0  0  0  0  0  0  0  0
  131.7930  124.3460   56.4700 F   0  0  0  0  0  0  0  0  0  0  0  0
  131.1690  122.6320   59.7080 C   0  0  0  0  0  0  0  0  0  0  0  0
  132.5090  122.4370   60.2720 C   0  0  0  0  0  0  0  0  0  0  0  0
  133.5670  122.2820   60.7170 N   0  0  0  0  0  0  0  0  0  0  0  0
  1  2  1  0
  2  3  1  0
  3  4  1  0
  4  5  1  0
  5  6  1  0
  6  7  1  0
  7  8  1  0
  8  9  1  0
  9 10  1  0
 10 11  1  0
 11 12  1  0
 12 13  2  0
 12 14  1  0
 14 15  1  0
 15 16  1  0
 16 17  2  0
 17 18  1  0
 18 19  1  0
 19 20  2  0
 20 21  1  0
 21 22  2  0
 22 23  1  0
 23 24  2  0
 18 25  2  0
 25 26  1  0
 26 27  1  0
 27 28  1  0
 27 29  1  0
 27 30  1  0
 26 31  2  0
 31 32  1  0
 32 33  3  0
 31 16  1  0
 24 19  1  0
M  END
>  <Binding energies>  (31) 
[-6.12]

>  <Ligand effiencies>  (31) 
[-0.18]

>  <Interactions>  (31) 
["V-B:GLU:543:CG:9875, V-A:HIS:456:CE1:4064, H-B:LYS:547:NZ:9919, V-B:ALA:541:CB:9860, V-B:GLU:543:CB:9874, V-B:TYR:539:C:9835, V-B:TYR:539:CE2:9844, V-A:ILE:369:CD1:3234, V-B:TYR:539:CZ:9845, V-A:ILE:369:CB:3231, V-A:ASP:366:CG:3208, V-B:HIS:456:CE1:9037, V-A:ASP:366:CB:3207, V-B:GLU:543:C:9870, V-B:GLU:543:CA:9872, V-A:GLU:543:CD:4903, V-B:GLU:543:CD:9876, V-A:ILE:369:CG2:3232, H-A:TYR:484:OH:4343, V-B:PRO:540:CB:9853, V-B:PRO:540:CA:9851, V-A:TYR:531:CZ:4789, H-B:GLU:543:OE2:9878, V-B:LEU:363:CD1:8156, V-B:PRO:540:CD:9855, V-B:PRO:540:N:9852, V-B:MET:535:CE:9803, V-A:TYR:531:CE1:4787"]

$$$$
3bk_Grossjean_2025
     RDKit          3D

 30 31  0  0  0  0  0  0  0  0999 V2000
  130.3110  125.0300   66.2730 C   0  0  0  0  0  0  0  0  0  0  0  0
  131.7250  124.9970   66.3880 O   0  0  0  0  0  0  0  0  0  0  0  0
  132.3980  125.5430   65.2610 C   0  0  0  0  0  0  0  0  0  0  0  0
  133.9060  125.2870   65.3870 C   0  0  0  0  0  0  0  0  0  0  0  0
  134.3730  124.6350   64.2140 O   0  0  0  0  0  0  0  0  0  0  0  0
  133.5080  124.7770   63.0950 C   0  0  0  0  0  0  0  0  0  0  0  0
  133.9900  123.8620   61.9630 C   0  0  0  0  0  0  0  0  0  0  0  0
  132.8720  123.2170   61.3690 O   0  0  0  0  0  0  0  0  0  0  0  0
  132.4010  123.8530   60.1880 C   0  0  0  0  0  0  0  0  0  0  0  0
  132.3070  122.8220   59.0540 C   0  0  0  0  0  0  0  0  0  0  0  0
  131.5290  121.6420   59.4370 N   0  0  0  0  0  0  0  0  0  0  0  0
  132.0390  120.4780   59.8720 C   0  0  0  0  0  0  0  0  0  0  0  0
  133.2450  120.2730   60.0190 O   0  0  0  0  0  0  0  0  0  0  0  0
  131.0320  119.3790   60.2210 C   0  0  0  0  0  0  0  0  0  0  0  0
  129.9490  119.8610   61.6030 S   0  0  0  0  0  0  0  0  0  0  0  0
  129.4510  121.5610   61.3850 C   0  0  0  0  0  0  0  0  0  0  0  0
  128.5550  121.7950   60.3940 N   0  0  0  0  0  0  0  0  0  0  0  0
  128.1210  123.0610   60.1530 C   0  0  0  0  0  0  0  0  0  0  0  0
  127.1150  123.2270   59.0550 C   0  0  0  0  0  0  0  0  0  0  0  0
  127.3660  122.7230   57.7690 C   0  0  0  0  0  0  0  0  0  0  0  0
  126.4370  122.8800   56.7430 C   0  0  0  0  0  0  0  0  0  0  0  0
  125.2410  123.5440   56.9900 C   0  0  0  0  0  0  0  0  0  0  0  0
  124.9660  124.0500   58.2560 C   0  0  0  0  0  0  0  0  0  0  0  0
  125.8960  123.8900   59.2800 C   0  0  0  0  0  0  0  0  0  0  0  0
  128.5830  124.1350   60.9220 C   0  0  0  0  0  0  0  0  0  0  0  0
  129.5080  123.9130   61.9470 C   0  0  0  0  0  0  0  0  0  0  0  0
  129.9870  125.1140   62.7610 C   0  0  0  0  0  0  0  0  0  0  0  0
  129.9610  122.6000   62.1950 C   0  0  0  0  0  0  0  0  0  0  0  0
  130.9290  122.3370   63.2640 C   0  0  0  0  0  0  0  0  0  0  0  0
  131.6930  122.1290   64.1070 N   0  0  0  0  0  0  0  0  0  0  0  0
  1  2  1  0
  2  3  1  0
  3  4  1  0
  4  5  1  0
  5  6  1  0
  6  7  1  0
  7  8  1  0
  8  9  1  0
  9 10  1  0
 10 11  1  0
 11 12  1  0
 12 13  2  0
 12 14  1  0
 14 15  1  0
 15 16  1  0
 16 17  2  0
 17 18  1  0
 18 19  1  0
 19 20  2  0
 20 21  1  0
 21 22  2  0
 22 23  1  0
 23 24  2  0
 18 25  2  0
 25 26  1  0
 26 27  1  0
 26 28  2  0
 28 29  1  0
 29 30  3  0
 28 16  1  0
 24 19  1  0
M  END
>  <Binding energies>  (32) 
[-6.86]

>  <Ligand effiencies>  (32) 
[-0.22129032258064518]

>  <Interactions>  (32) 
["V-B:GLU:543:CG:9875, V-A:TRP:381:CZ3:3366, V-A:TRP:381:CZ2:3365, V-B:ALA:541:CB:9860, V-A:TRP:381:CH2:3367, V-B:TYR:539:C:9835, V-B:TYR:539:CD2:9842, V-A:LEU:475:CD2:4254, V-B:TYR:539:CE2:9844, V-A:ILE:369:CD1:3234, V-A:ASP:366:CG:3208, V-B:GLU:543:CD:9876, H-A:ARG:545:NH1:4922, H-A:TYR:484:OH:4343, H-A:GLY:454:N:4045, V-A:ARG:545:CZ:4921, V-B:PRO:540:CB:9853, H-B:ALA:541:N:9859, V-B:PRO:540:CA:9851, H-A:HIS:456:NE2:4065, H-B:TYR:539:O:9836, V-A:ARG:545:CD:4918, V-B:LEU:363:CD1:8156, V-B:PRO:540:N:9852, V-B:MET:535:CE:9803"]

$$$$
3cb_Grossjean_2025
     RDKit          3D

 30 32  0  0  0  0  0  0  0  0999 V2000
  124.5220  124.3730   57.9870 C   0  0  0  0  0  0  0  0  0  0  0  0
  125.5760  124.1550   57.0610 O   0  0  0  0  0  0  0  0  0  0  0  0
  126.1940  122.9480   56.9770 C   0  0  0  0  0  0  0  0  0  0  0  0
  125.7610  122.0080   56.3050 O   0  0  0  0  0  0  0  0  0  0  0  0
  127.4570  122.8710   57.7850 C   0  0  0  0  0  0  0  0  0  0  0  0
  127.4400  122.7500   59.1830 C   0  0  0  0  0  0  0  0  0  0  0  0
  128.6290  122.6780   59.9020 C   0  0  0  0  0  0  0  0  0  0  0  0
  129.8590  122.7290   59.2440 C   0  0  0  0  0  0  0  0  0  0  0  0
  130.9990  122.6450   60.0690 N   0  0  0  0  0  0  0  0  0  0  0  0
  131.1800  121.9840   61.2330 C   0  0  0  0  0  0  0  0  0  0  0  0
  130.3290  121.2880   61.7890 O   0  0  0  0  0  0  0  0  0  0  0  0
  132.5820  122.1430   61.8430 C   0  0  0  0  0  0  0  0  0  0  0  0
  133.2330  123.8480   61.8430 S   0  0  0  0  0  0  0  0  0  0  0  0
  132.9130  124.5530   63.4460 C   0  0  0  0  0  0  0  0  0  0  0  0
  133.9880  124.5260   64.2720 N   0  0  0  0  0  0  0  0  0  0  0  0
  133.8620  125.0360   65.5170 C   0  0  0  0  0  0  0  0  0  0  0  0
  135.1080  124.9830   66.3810 C   0  0  0  0  0  0  0  0  0  0  0  0
  132.6710  125.5820   65.9870 C   0  0  0  0  0  0  0  0  0  0  0  0
  131.5420  125.6060   65.1570 C   0  0  0  0  0  0  0  0  0  0  0  0
  130.2850  126.1970   65.7100 C   0  0  0  0  0  0  0  0  0  0  0  0
  129.8710  125.8820   67.0110 C   0  0  0  0  0  0  0  0  0  0  0  0
  128.7080  126.4360   67.5390 C   0  0  0  0  0  0  0  0  0  0  0  0
  127.9530  127.3150   66.7660 C   0  0  0  0  0  0  0  0  0  0  0  0
  128.3530  127.6460   65.4750 C   0  0  0  0  0  0  0  0  0  0  0  0
  129.5180  127.0910   64.9510 C   0  0  0  0  0  0  0  0  0  0  0  0
  131.6540  125.0630   63.8510 C   0  0  0  0  0  0  0  0  0  0  0  0
  130.4820  124.9770   62.9740 C   0  0  0  0  0  0  0  0  0  0  0  0
  129.5580  124.9090   62.2820 N   0  0  0  0  0  0  0  0  0  0  0  0
  129.8860  122.8460   57.8460 C   0  0  0  0  0  0  0  0  0  0  0  0
  128.6950  122.9170   57.1280 C   0  0  0  0  0  0  0  0  0  0  0  0
  1  2  1  0
  2  3  1  0
  3  4  2  0
  3  5  1  0
  5  6  2  0
  6  7  1  0
  7  8  2  0
  8  9  1  0
  9 10  1  0
 10 11  2  0
 10 12  1  0
 12 13  1  0
 13 14  1  0
 14 15  2  0
 15 16  1  0
 16 17  1  0
 16 18  2  0
 18 19  1  0
 19 20  1  0
 20 21  2  0
 21 22  1  0
 22 23  2  0
 23 24  1  0
 24 25  2  0
 19 26  2  0
 26 27  1  0
 27 28  3  0
  8 29  1  0
 29 30  2  0
 30  5  1  0
 26 14  1  0
 25 20  1  0
M  END
>  <Binding energies>  (33) 
[-8.12]

>  <Ligand effiencies>  (33) 
[-0.2619354838709677]

>  <Interactions>  (33) 
["V-B:GLU:543:CG:9875, V-A:HIS:456:CE1:4064, V-B:GLU:543:CB:9874, V-B:TYR:539:C:9835, V-B:TYR:539:CD2:9842, V-A:LEU:475:CD2:4254, V-B:TYR:539:CE2:9844, V-B:TYR:539:CZ:9845, V-A:GLU:543:CD:4903, V-B:GLU:543:CD:9876, H-A:TYR:484:OH:4343, H-A:GLY:454:N:4045, V-A:GLY:454:CA:4044, V-A:ARG:545:CZ:4921, V-B:PRO:540:CB:9853, V-B:PRO:540:CA:9851, V-B:TYR:539:CE1:9843, V-A:ARG:545:CD:4918, V-A:GLY:453:CA:4039, V-A:ARG:545:CG:4917, V-A:HIS:456:CD2:4063, V-A:GLY:453:C:4037, V-B:LEU:363:CD1:8156, V-B:PRO:540:N:9852, V-B:MET:535:CE:9803, H-B:TYR:531:OH:9763, H-B:TYR:539:N:9838"]

$$$$
3ch_Grossjean_2025
     RDKit          3D

 32 34  0  0  0  0  0  0  0  0999 V2000
  129.9550  131.2880   72.9410 C   0  0  0  0  0  0  0  0  0  0  0  0
  130.1920  129.9020   73.1670 O   0  0  0  0  0  0  0  0  0  0  0  0
  129.7930  128.9780   72.2190 C   0  0  0  0  0  0  0  0  0  0  0  0
  129.5920  129.2810   70.8630 C   0  0  0  0  0  0  0  0  0  0  0  0
  129.1960  128.2880   69.9550 C   0  0  0  0  0  0  0  0  0  0  0  0
  128.9750  128.4940   68.5800 N   0  0  0  0  0  0  0  0  0  0  0  0
  128.9250  129.6480   67.8780 C   0  0  0  0  0  0  0  0  0  0  0  0
  129.0860  130.7750   68.3440 O   0  0  0  0  0  0  0  0  0  0  0  0
  128.6890  129.4950   66.3750 C   0  0  0  0  0  0  0  0  0  0  0  0
  127.8240  127.9490   65.9700 S   0  0  0  0  0  0  0  0  0  0  0  0
  129.0500  126.6610   66.0510 C   0  0  0  0  0  0  0  0  0  0  0  0
  129.0280  125.9520   67.2070 N   0  0  0  0  0  0  0  0  0  0  0  0
  129.9260  124.9550   67.3700 C   0  0  0  0  0  0  0  0  0  0  0  0
  129.8500  124.2070   68.6870 C   0  0  0  0  0  0  0  0  0  0  0  0
  130.8720  124.6300   66.4010 C   0  0  0  0  0  0  0  0  0  0  0  0
  130.9060  125.3460   65.1960 C   0  0  0  0  0  0  0  0  0  0  0  0
  131.9450  124.9690   64.1890 C   0  0  0  0  0  0  0  0  0  0  0  0
  131.5920  124.2140   63.0640 C   0  0  0  0  0  0  0  0  0  0  0  0
  132.5550  123.8510   62.1260 C   0  0  0  0  0  0  0  0  0  0  0  0
  133.8790  124.2400   62.3130 C   0  0  0  0  0  0  0  0  0  0  0  0
  134.2480  124.9850   63.4300 C   0  0  0  0  0  0  0  0  0  0  0  0
  133.2820  125.3440   64.3670 C   0  0  0  0  0  0  0  0  0  0  0  0
  129.9570  126.3830   65.0020 C   0  0  0  0  0  0  0  0  0  0  0  0
  129.8860  127.1010   63.7260 C   0  0  0  0  0  0  0  0  0  0  0  0
  129.8290  127.6690   62.7190 N   0  0  0  0  0  0  0  0  0  0  0  0
  128.9820  126.9890   70.4190 C   0  0  0  0  0  0  0  0  0  0  0  0
  129.1740  126.6620   71.7700 C   0  0  0  0  0  0  0  0  0  0  0  0
  128.9870  125.3930   72.2920 O   0  0  0  0  0  0  0  0  0  0  0  0
  129.8740  124.3440   71.9180 C   0  0  0  0  0  0  0  0  0  0  0  0
  129.5770  127.6650   72.6600 C   0  0  0  0  0  0  0  0  0  0  0  0
  129.7860  127.3540   73.9830 O   0  0  0  0  0  0  0  0  0  0  0  0
  130.9130  126.5180   74.2100 C   0  0  0  0  0  0  0  0  0  0  0  0
  1  2  1  0
  2  3  1  0
  3  4  2  0
  4  5  1  0
  5  6  1  0
  6  7  1  0
  7  8  2  0
  7  9  1  0
  9 10  1  0
 10 11  1  0
 11 12  2  0
 12 13  1  0
 13 14  1  0
 13 15  2  0
 15 16  1  0
 16 17  1  0
 17 18  2  0
 18 19  1  0
 19 20  2  0
 20 21  1  0
 21 22  2  0
 16 23  2  0
 23 24  1  0
 24 25  3  0
  5 26  2  0
 26 27  1  0
 27 28  1  0
 28 29  1  0
 27 30  2  0
 30 31  1  0
 31 32  1  0
 30  3  1  0
 23 11  1  0
 22 17  1  0
M  END
>  <Binding energies>  (34) 
[-7.45]

>  <Ligand effiencies>  (34) 
[-0.22575757575757577]

>  <Interactions>  (34) 
["V-B:GLU:543:CG:9875, V-A:HIS:456:CE1:4064, H-B:LYS:547:NZ:9919, V-B:GLU:543:CB:9874, V-A:GLU:543:CB:4901, V-A:ILE:369:CD1:3234, V-A:ASP:366:CG:3208, V-B:HIS:456:CE1:9037, V-A:TYR:484:CZ:4342, V-A:GLU:543:CG:4902, V-B:GLU:543:C:9870, V-A:TYR:484:CE1:4340, V-B:GLU:543:CA:9872, V-A:GLU:543:CD:4903, V-B:GLU:543:CD:9876, V-A:ARG:545:CZ:4921, V-A:GLU:543:C:4897, V-A:LYS:547:CE:4945, V-B:HIS:456:CD2:9035, V-A:GLY:544:CA:4909, H-A:LYS:547:NZ:4946, V-A:GLY:453:CA:4039, V-A:GLY:453:C:4037, V-A:GLU:543:CA:4899"]

$$$$
3ci_Grossjean_2025
     RDKit          3D

 25 27  0  0  0  0  0  0  0  0999 V2000
  130.2580  118.6260   61.6200 C   0  0  0  0  0  0  0  0  0  0  0  0
  130.2860  120.0030   60.9840 C   0  0  0  0  0  0  0  0  0  0  0  0
  129.1210  120.7320   60.7680 C   0  0  0  0  0  0  0  0  0  0  0  0
  129.1990  122.0080   60.1920 C   0  0  0  0  0  0  0  0  0  0  0  0
  127.9240  122.7600   59.9930 C   0  0  0  0  0  0  0  0  0  0  0  0
  127.1780  123.2080   61.0910 C   0  0  0  0  0  0  0  0  0  0  0  0
  125.9850  123.9010   60.9000 C   0  0  0  0  0  0  0  0  0  0  0  0
  125.5310  124.1450   59.6080 C   0  0  0  0  0  0  0  0  0  0  0  0
  126.2560  123.7000   58.5060 C   0  0  0  0  0  0  0  0  0  0  0  0
  127.4480  123.0070   58.7000 C   0  0  0  0  0  0  0  0  0  0  0  0
  130.4770  122.5090   59.8350 C   0  0  0  0  0  0  0  0  0  0  0  0
  130.6180  123.8180   59.1900 C   0  0  0  0  0  0  0  0  0  0  0  0
  130.7270  124.8530   58.6810 N   0  0  0  0  0  0  0  0  0  0  0  0
  131.6120  121.7020   60.0950 C   0  0  0  0  0  0  0  0  0  0  0  0
  133.2720  122.2430   59.7060 S   0  0  0  0  0  0  0  0  0  0  0  0
  133.6070  123.8260   60.5450 C   0  0  0  0  0  0  0  0  0  0  0  0
  133.2800  123.8020   62.0420 C   0  0  0  0  0  0  0  0  0  0  0  0
  132.7470  122.8020   62.5260 O   0  0  0  0  0  0  0  0  0  0  0  0
  133.5980  124.9210   62.7310 N   0  0  0  0  0  0  0  0  0  0  0  0
  133.4340  125.1470   64.0900 C   0  0  0  0  0  0  0  0  0  0  0  0
  132.2530  125.6440   64.6420 C   0  0  0  0  0  0  0  0  0  0  0  0
  132.4960  125.7250   65.9940 C   0  0  0  0  0  0  0  0  0  0  0  0
  133.7580  125.2970   66.2430 O   0  0  0  0  0  0  0  0  0  0  0  0
  134.3420  124.9350   65.0280 N   0  0  0  0  0  0  0  0  0  0  0  0
  131.5100  120.4690   60.6530 N   0  0  0  0  0  0  0  0  0  0  0  0
  1  2  1  0
  2  3  2  0
  3  4  1  0
  4  5  1  0
  5  6  2  0
  6  7  1  0
  7  8  2  0
  8  9  1  0
  9 10  2  0
  4 11  2  0
 11 12  1  0
 12 13  3  0
 11 14  1  0
 14 15  1  0
 15 16  1  0
 16 17  1  0
 17 18  2  0
 17 19  1  0
 19 20  1  0
 20 21  1  0
 21 22  2  0
 22 23  1  0
 23 24  1  0
 14 25  2  0
 25  2  1  0
 10  5  1  0
 24 20  2  0
M  END
>  <Binding energies>  (35) 
[-7.86]

>  <Ligand effiencies>  (35) 
[-0.30230769230769233]

>  <Interactions>  (35) 
["V-B:PRO:540:C:9849, V-A:PRO:482:CG:4322, V-A:TRP:381:CZ2:3365, V-B:ALA:541:CB:9860, V-B:ALA:541:CA:9858, V-A:TRP:381:CH2:3367, V-B:TYR:539:C:9835, V-B:TYR:539:CD2:9842, V-A:LEU:475:CD2:4254, V-A:PRO:482:CB:4321, V-B:TYR:539:CE2:9844, V-A:ILE:369:CD1:3234, V-A:ASP:366:CG:3208, V-A:ASP:366:CB:3207, V-B:GLU:543:CD:9876, H-A:ASP:366:OD2:3210, H-A:ARG:545:NH1:4922, H-A:TYR:484:OH:4343, H-A:ARG:545:NE:4919, H-A:ASP:366:OD1:3209, H-A:GLY:454:N:4045, V-A:ARG:545:CZ:4921, V-B:PRO:540:CB:9853, V-B:PRO:540:CA:9851, H-A:HIS:456:NE2:4065, V-A:LEU:475:CD1:4253, V-B:PRO:540:N:9852, V-A:LEU:475:CG:4252"]

$$$$
3ck_Grossjean_2025
     RDKit          3D

 30 31  0  0  0  0  0  0  0  0999 V2000
  124.6780  123.6100   61.6420 C   0  0  0  0  0  0  0  0  0  0  0  0
  125.9930  123.0980   61.4930 O   0  0  0  0  0  0  0  0  0  0  0  0
  126.8460  123.9390   60.7290 C   0  0  0  0  0  0  0  0  0  0  0  0
  128.2510  123.3270   60.6680 C   0  0  0  0  0  0  0  0  0  0  0  0
  128.3570  122.2950   61.6400 O   0  0  0  0  0  0  0  0  0  0  0  0
  128.8220  122.7410   62.9070 C   0  0  0  0  0  0  0  0  0  0  0  0
  130.2590  122.2490   63.1160 C   0  0  0  0  0  0  0  0  0  0  0  0
  130.8690  123.0570   64.1110 O   0  0  0  0  0  0  0  0  0  0  0  0
  131.7790  124.0270   63.6150 C   0  0  0  0  0  0  0  0  0  0  0  0
  131.1870  124.6950   62.3600 C   0  0  0  0  0  0  0  0  0  0  0  0
  130.0310  125.5520   62.6380 N   0  0  0  0  0  0  0  0  0  0  0  0
  130.0710  126.8810   62.8440 C   0  0  0  0  0  0  0  0  0  0  0  0
  131.1110  127.5420   62.7940 O   0  0  0  0  0  0  0  0  0  0  0  0
  128.7180  127.5450   63.1450 C   0  0  0  0  0  0  0  0  0  0  0  0
  128.7020  128.6730   64.5810 S   0  0  0  0  0  0  0  0  0  0  0  0
  129.0750  127.7430   66.0600 C   0  0  0  0  0  0  0  0  0  0  0  0
  129.3410  126.4260   65.8720 N   0  0  0  0  0  0  0  0  0  0  0  0
  129.6270  125.6600   66.9490 C   0  0  0  0  0  0  0  0  0  0  0  0
  129.9100  124.1980   66.6610 C   0  0  0  0  0  0  0  0  0  0  0  0
  129.6600  126.1690   68.2450 C   0  0  0  0  0  0  0  0  0  0  0  0
  129.3830  127.5250   68.4630 C   0  0  0  0  0  0  0  0  0  0  0  0
  129.4070  128.0220   69.8710 C   0  0  0  0  0  0  0  0  0  0  0  0
  128.2750  127.8870   70.6840 C   0  0  0  0  0  0  0  0  0  0  0  0
  128.2870  128.3570   71.9960 C   0  0  0  0  0  0  0  0  0  0  0  0
  129.4310  128.9700   72.4970 C   0  0  0  0  0  0  0  0  0  0  0  0
  130.5630  129.1200   71.6980 C   0  0  0  0  0  0  0  0  0  0  0  0
  130.5480  128.6490   70.3890 C   0  0  0  0  0  0  0  0  0  0  0  0
  129.0930  128.3430   67.3410 C   0  0  0  0  0  0  0  0  0  0  0  0
  128.8370  129.7780   67.5050 C   0  0  0  0  0  0  0  0  0  0  0  0
  128.6350  130.9110   67.6350 N   0  0  0  0  0  0  0  0  0  0  0  0
  1  2  1  0
  2  3  1  0
  3  4  1  0
  4  5  1  0
  5  6  1  0
  6  7  1  0
  7  8  1  0
  8  9  1  0
  9 10  1  0
 10 11  1  0
 11 12  1  0
 12 13  2  0
 12 14  1  0
 14 15  1  0
 15 16  1  0
 16 17  2  0
 17 18  1  0
 18 19  1  0
 18 20  2  0
 20 21  1  0
 21 22  1  0
 22 23  2  0
 23 24  1  0
 24 25  2  0
 25 26  1  0
 26 27  2  0
 21 28  2  0
 28 29  1  0
 29 30  3  0
 28 16  1  0
 27 22  1  0
M  END
>  <Binding energies>  (36) 
[-5.99]

>  <Ligand effiencies>  (36) 
[-0.1932258064516129]

>  <Interactions>  (36) 
["V-B:GLU:543:CG:9875, V-A:HIS:456:CE1:4064, V-B:ALA:541:CB:9860, V-B:GLU:543:CB:9874, V-B:ALA:541:CA:9858, V-A:GLU:543:CB:4901, V-B:HIS:456:CE1:9037, V-A:TYR:484:CZ:4342, V-A:GLU:543:CG:4902, H-B:TYR:484:OH:9315, V-A:TYR:484:CE1:4340, V-B:GLU:543:CA:9872, V-A:GLU:543:CD:4903, V-B:GLU:543:CD:9876, H-A:TYR:484:OH:4343, H-A:ARG:545:NH2:4923, V-B:ASN:362:CB:8143, V-B:PRO:540:CB:9853, H-B:ALA:541:N:9859, V-B:PRO:540:CA:9851, V-A:GLY:544:C:4907, V-A:GLU:543:C:4897, V-B:HIS:456:CD2:9035, V-A:GLY:544:CA:4909, H-B:GLU:543:OE2:9878, V-A:GLU:543:CA:4899"]

$$$$
4aa_Grossjean_2025
     RDKit          3D

 26 28  0  0  0  0  0  0  0  0999 V2000
  130.0210  128.7750   71.2770 C   0  0  0  0  0  0  0  0  0  0  0  0
  129.9070  127.4410   72.0220 C   0  0  0  0  0  0  0  0  0  0  0  0
  128.7480  126.7480   71.5760 O   0  0  0  0  0  0  0  0  0  0  0  0
  128.0090  127.2140   70.5370 C   0  0  0  0  0  0  0  0  0  0  0  0
  127.0190  127.9400   70.6770 O   0  0  0  0  0  0  0  0  0  0  0  0
  128.5120  126.7560   69.1990 C   0  0  0  0  0  0  0  0  0  0  0  0
  129.4750  125.7400   69.1410 C   0  0  0  0  0  0  0  0  0  0  0  0
  129.9650  125.2970   67.9160 C   0  0  0  0  0  0  0  0  0  0  0  0
  129.4980  125.8530   66.7240 C   0  0  0  0  0  0  0  0  0  0  0  0
  130.0670  125.3360   65.5440 N   0  0  0  0  0  0  0  0  0  0  0  0
  131.3530  125.0170   65.2620 C   0  0  0  0  0  0  0  0  0  0  0  0
  132.2940  125.1810   66.0400 O   0  0  0  0  0  0  0  0  0  0  0  0
  131.5810  124.4670   63.9240 C   0  0  0  0  0  0  0  0  0  0  0  0
  133.0130  124.9330   63.0030 S   0  0  0  0  0  0  0  0  0  0  0  0
  132.5160  123.9500   61.6440 C   0  0  0  0  0  0  0  0  0  0  0  0
  133.2420  123.8690   60.5280 N   0  0  0  0  0  0  0  0  0  0  0  0
  132.7420  123.0760   59.5490 C   0  0  0  0  0  0  0  0  0  0  0  0
  133.5810  123.0010   58.2870 C   0  0  0  0  0  0  0  0  0  0  0  0
  131.5470  122.3680   59.6600 C   0  0  0  0  0  0  0  0  0  0  0  0
  130.7880  122.4550   60.8320 C   0  0  0  0  0  0  0  0  0  0  0  0
  129.4910  121.6640   60.9060 C   0  0  0  0  0  0  0  0  0  0  0  0
  131.2780  123.2800   61.8800 C   0  0  0  0  0  0  0  0  0  0  0  0
  130.7650  123.5960   63.1870 C   0  0  0  0  0  0  0  0  0  0  0  0
  129.5820  123.0780   63.6530 N   0  0  0  0  0  0  0  0  0  0  0  0
  128.5380  126.8740   66.7720 C   0  0  0  0  0  0  0  0  0  0  0  0
  128.0510  127.3190   67.9990 C   0  0  0  0  0  0  0  0  0  0  0  0
  1  2  1  0
  2  3  1  0
  3  4  1  0
  4  5  2  0
  4  6  1  0
  6  7  2  0
  7  8  1  0
  8  9  2  0
  9 10  1  0
 10 11  1  0
 11 12  2  0
 11 13  1  0
 13 14  1  0
 14 15  1  0
 15 16  2  0
 16 17  1  0
 17 18  1  0
 17 19  2  0
 19 20  1  0
 20 21  1  0
 20 22  2  0
 22 23  1  0
 23 24  1  0
  9 25  1  0
 25 26  2  0
 26  6  1  0
 23 13  2  0
 22 15  1  0
M  END
>  <Binding energies>  (37) 
[-6.89]

>  <Ligand effiencies>  (37) 
[-0.23758620689655172]

>  <Interactions>  (37) 
["V-B:GLU:543:CG:9875, V-A:HIS:456:CE1:4064, H-B:LYS:547:NZ:9919, V-B:ALA:541:CB:9860, V-B:GLU:543:CB:9874, V-B:TYR:539:CE2:9844, V-A:ILE:369:CD1:3234, V-A:ILE:369:CB:3231, V-A:ASP:366:CG:3208, V-B:HIS:456:CE1:9037, V-B:GLU:543:C:9870, V-B:GLU:543:CD:9876, V-A:ILE:369:CG2:3232, H-A:TYR:484:OH:4343, V-A:ARG:545:CZ:4921, H-A:HIS:456:NE2:4065, H-B:GLU:543:OE2:9878, H-B:HIS:456:ND1:9034"]

$$$$
4ab_Grossjean_2025
     RDKit          3D

 25 27  0  0  0  0  0  0  0  0999 V2000
  129.8740  128.7380   70.4560 C   0  0  0  0  0  0  0  0  0  0  0  0
  128.8220  127.9910   71.0510 O   0  0  0  0  0  0  0  0  0  0  0  0
  127.8720  127.3930   70.2890 C   0  0  0  0  0  0  0  0  0  0  0  0
  126.6950  127.2690   70.6420 O   0  0  0  0  0  0  0  0  0  0  0  0
  128.3970  126.8890   68.9750 C   0  0  0  0  0  0  0  0  0  0  0  0
  129.3780  125.8880   68.9700 C   0  0  0  0  0  0  0  0  0  0  0  0
  129.8860  125.4010   67.7680 C   0  0  0  0  0  0  0  0  0  0  0  0
  129.4190  125.8960   66.5510 C   0  0  0  0  0  0  0  0  0  0  0  0
  130.0070  125.3380   65.4000 N   0  0  0  0  0  0  0  0  0  0  0  0
  131.2810  124.9340   65.1780 C   0  0  0  0  0  0  0  0  0  0  0  0
  132.1940  125.0380   65.9980 O   0  0  0  0  0  0  0  0  0  0  0  0
  131.5340  124.3670   63.8520 C   0  0  0  0  0  0  0  0  0  0  0  0
  132.9700  124.8390   62.9410 S   0  0  0  0  0  0  0  0  0  0  0  0
  132.5060  123.8270   61.5920 C   0  0  0  0  0  0  0  0  0  0  0  0
  133.2460  123.7400   60.4870 N   0  0  0  0  0  0  0  0  0  0  0  0
  132.7720  122.9220   59.5150 C   0  0  0  0  0  0  0  0  0  0  0  0
  133.6270  122.8410   58.2640 C   0  0  0  0  0  0  0  0  0  0  0  0
  131.5900  122.1940   59.6240 C   0  0  0  0  0  0  0  0  0  0  0  0
  130.8140  122.2880   60.7850 C   0  0  0  0  0  0  0  0  0  0  0  0
  129.5300  121.4760   60.8560 C   0  0  0  0  0  0  0  0  0  0  0  0
  131.2770  123.1400   61.8250 C   0  0  0  0  0  0  0  0  0  0  0  0
  130.7420  123.4700   63.1180 C   0  0  0  0  0  0  0  0  0  0  0  0
  129.5610  122.9430   63.5780 N   0  0  0  0  0  0  0  0  0  0  0  0
  128.4410  126.9020   66.5460 C   0  0  0  0  0  0  0  0  0  0  0  0
  127.9360  127.3900   67.7490 C   0  0  0  0  0  0  0  0  0  0  0  0
  1  2  1  0
  2  3  1  0
  3  4  2  0
  3  5  1  0
  5  6  2  0
  6  7  1  0
  7  8  2  0
  8  9  1  0
  9 10  1  0
 10 11  2  0
 10 12  1  0
 12 13  1  0
 13 14  1  0
 14 15  2  0
 15 16  1  0
 16 17  1  0
 16 18  2  0
 18 19  1  0
 19 20  1  0
 19 21  2  0
 21 22  1  0
 22 23  1  0
  8 24  1  0
 24 25  2  0
 25  5  1  0
 22 12  2  0
 21 14  1  0
M  END
>  <Binding energies>  (38) 
[-6.77]

>  <Ligand effiencies>  (38) 
[-0.24178571428571427]

>  <Interactions>  (38) 
["V-B:GLU:543:CG:9875, V-A:HIS:456:CE1:4064, H-B:LYS:547:NZ:9919, V-B:ALA:541:CB:9860, V-B:GLU:543:CB:9874, V-B:TYR:539:CD2:9842, V-B:TYR:539:CE2:9844, V-A:ILE:369:CD1:3234, V-A:ILE:369:CB:3231, V-A:ASP:366:CG:3208, V-B:HIS:456:CE1:9037, V-B:GLU:543:C:9870, V-B:GLU:543:CD:9876, V-A:ILE:369:CG2:3232, H-A:TYR:484:OH:4343, H-A:HIS:456:NE2:4065, H-B:GLU:543:OE2:9878, H-B:HIS:456:ND1:9034, H-B:ARG:545:N:9888"]

$$$$
4ac_Grossjean_2025
     RDKit          3D

 23 25  0  0  0  0  0  0  0  0999 V2000
  125.0400  122.5640   56.4230 C   0  0  0  0  0  0  0  0  0  0  0  0
  126.3700  122.0860   56.2500 O   0  0  0  0  0  0  0  0  0  0  0  0
  127.3340  122.4240   57.1800 C   0  0  0  0  0  0  0  0  0  0  0  0
  126.8760  122.7880   58.4460 C   0  0  0  0  0  0  0  0  0  0  0  0
  127.7740  123.1430   59.4490 C   0  0  0  0  0  0  0  0  0  0  0  0
  129.1470  123.1300   59.2000 C   0  0  0  0  0  0  0  0  0  0  0  0
  129.9770  123.5160   60.2680 N   0  0  0  0  0  0  0  0  0  0  0  0
  131.1740  124.1510   60.2380 C   0  0  0  0  0  0  0  0  0  0  0  0
  131.7580  124.4710   59.2010 O   0  0  0  0  0  0  0  0  0  0  0  0
  131.7640  124.4410   61.5480 C   0  0  0  0  0  0  0  0  0  0  0  0
  133.4480  124.0340   61.8770 S   0  0  0  0  0  0  0  0  0  0  0  0
  133.3290  124.6560   63.5080 C   0  0  0  0  0  0  0  0  0  0  0  0
  134.3640  124.6360   64.3480 N   0  0  0  0  0  0  0  0  0  0  0  0
  134.1390  125.1490   65.5820 C   0  0  0  0  0  0  0  0  0  0  0  0
  135.3290  125.1170   66.5230 C   0  0  0  0  0  0  0  0  0  0  0  0
  132.9150  125.6740   65.9920 C   0  0  0  0  0  0  0  0  0  0  0  0
  131.8300  125.6930   65.1070 C   0  0  0  0  0  0  0  0  0  0  0  0
  130.5150  126.2770   65.6000 C   0  0  0  0  0  0  0  0  0  0  0  0
  132.0300  125.1660   63.8030 C   0  0  0  0  0  0  0  0  0  0  0  0
  131.1570  125.0330   62.6670 C   0  0  0  0  0  0  0  0  0  0  0  0
  129.8510  125.4510   62.6960 N   0  0  0  0  0  0  0  0  0  0  0  0
  129.6150  122.7770   57.9250 C   0  0  0  0  0  0  0  0  0  0  0  0
  128.7140  122.4220   56.9250 C   0  0  0  0  0  0  0  0  0  0  0  0
  1  2  1  0
  2  3  1  0
  3  4  2  0
  4  5  1  0
  5  6  2  0
  6  7  1  0
  7  8  1  0
  8  9  2  0
  8 10  1  0
 10 11  1  0
 11 12  1  0
 12 13  2  0
 13 14  1  0
 14 15  1  0
 14 16  2  0
 16 17  1  0
 17 18  1  0
 17 19  2  0
 19 20  1  0
 20 21  1  0
  6 22  1  0
 22 23  2  0
 23  3  1  0
 20 10  2  0
 19 12  1  0
M  END
>  <Binding energies>  (39) 
[-7.08]

>  <Ligand effiencies>  (39) 
[-0.2723076923076923]

>  <Interactions>  (39) 
["V-B:TYR:539:C:9835, V-B:TYR:539:CD2:9842, V-B:TYR:539:CE2:9844, V-A:ILE:369:CD1:3234, V-B:TYR:539:CZ:9845, V-A:ASP:366:CG:3208, V-A:GLU:543:CD:4903, V-B:GLU:543:CD:9876, H-A:ARG:545:NH1:4922, H-A:TYR:484:OH:4343, H-A:GLY:454:N:4045, V-A:ARG:545:CZ:4921, V-B:PRO:540:CB:9853, V-B:PRO:540:CA:9851, V-B:TYR:539:CE1:9843, H-B:GLU:543:OE2:9878, V-A:ARG:545:CD:4918, V-A:GLY:453:CA:4039, V-A:ARG:545:CG:4917, V-A:HIS:456:CD2:4063, V-A:GLY:453:C:4037, V-B:LEU:363:CD1:8156, V-B:PRO:540:CD:9855, V-B:PRO:540:N:9852, V-B:MET:535:CE:9803, V-B:ILE:538:CG2:9831, H-B:TYR:539:N:9838, V-B:TYR:539:CG:9840, V-B:TYR:539:CA:9837, V-B:TYR:539:CD1:9841"]

$$$$
4ad_Grossjean_2025
     RDKit          3D

 21 23  0  0  0  0  0  0  0  0999 V2000
  135.0600  125.0370   66.3520 C   0  0  0  0  0  0  0  0  0  0  0  0
  133.8550  125.0200   65.4310 C   0  0  0  0  0  0  0  0  0  0  0  0
  132.5930  125.3880   65.8940 C   0  0  0  0  0  0  0  0  0  0  0  0
  131.4940  125.3620   65.0260 C   0  0  0  0  0  0  0  0  0  0  0  0
  130.1360  125.7700   65.5770 C   0  0  0  0  0  0  0  0  0  0  0  0
  131.7190  124.9520   63.6840 C   0  0  0  0  0  0  0  0  0  0  0  0
  130.8410  124.8110   62.5530 C   0  0  0  0  0  0  0  0  0  0  0  0
  129.5010  125.0960   62.6280 N   0  0  0  0  0  0  0  0  0  0  0  0
  131.4810  124.3640   61.3860 C   0  0  0  0  0  0  0  0  0  0  0  0
  130.8960  124.0980   60.0710 C   0  0  0  0  0  0  0  0  0  0  0  0
  131.5240  124.3530   59.0410 O   0  0  0  0  0  0  0  0  0  0  0  0
  129.6530  123.5550   60.0860 N   0  0  0  0  0  0  0  0  0  0  0  0
  128.8070  123.2240   59.0110 C   0  0  0  0  0  0  0  0  0  0  0  0
  127.4400  123.4220   59.2240 C   0  0  0  0  0  0  0  0  0  0  0  0
  126.5230  123.1340   58.2170 C   0  0  0  0  0  0  0  0  0  0  0  0
  126.9740  122.6540   56.9910 C   0  0  0  0  0  0  0  0  0  0  0  0
  128.3350  122.4650   56.7600 C   0  0  0  0  0  0  0  0  0  0  0  0
  129.2540  122.7510   57.7660 C   0  0  0  0  0  0  0  0  0  0  0  0
  133.2050  124.1080   61.6640 S   0  0  0  0  0  0  0  0  0  0  0  0
  133.0570  124.5980   63.3360 C   0  0  0  0  0  0  0  0  0  0  0  0
  134.1060  124.6230   64.1600 N   0  0  0  0  0  0  0  0  0  0  0  0
  1  2  1  0
  2  3  2  0
  3  4  1  0
  4  5  1  0
  4  6  2  0
  6  7  1  0
  7  8  1  0
  7  9  2  0
  9 10  1  0
 10 11  2  0
 10 12  1  0
 12 13  1  0
 13 14  2  0
 14 15  1  0
 15 16  2  0
 16 17  1  0
 17 18  2  0
  9 19  1  0
 19 20  1  0
 20 21  2  0
 21  2  1  0
 20  6  1  0
 18 13  1  0
M  END
>  <Binding energies>  (40) 
[-6.59]

>  <Ligand effiencies>  (40) 
[-0.27458333333333335]

>  <Interactions>  (40) 
["V-B:GLU:543:CG:9875, V-B:TYR:539:C:9835, V-B:TYR:539:CD2:9842, V-B:TYR:539:CE2:9844, V-B:TYR:539:CZ:9845, V-A:ASP:366:CG:3208, V-B:GLU:543:CD:9876, H-A:TYR:484:OH:4343, H-A:GLY:454:N:4045, V-A:GLY:454:CA:4044, V-A:ARG:545:CZ:4921, V-B:PRO:540:CB:9853, V-B:PRO:540:CA:9851, V-B:TYR:539:CE1:9843, H-B:GLU:543:OE2:9878, V-A:ARG:545:CD:4918, V-A:GLY:453:CA:4039, V-A:ARG:545:CG:4917, V-A:HIS:456:CD2:4063, V-A:GLY:453:C:4037, V-B:PRO:540:N:9852, V-B:MET:535:CE:9803, V-B:TYR:539:CG:9840, V-B:TYR:539:CD1:9841"]

$$$$
4ae_Grossjean_2025
     RDKit          3D

 22 24  0  0  0  0  0  0  0  0999 V2000
  127.5110  122.5130   56.9610 C   0  0  0  0  0  0  0  0  0  0  0  0
  127.1790  123.1440   58.2990 C   0  0  0  0  0  0  0  0  0  0  0  0
  125.8710  123.5000   58.6360 C   0  0  0  0  0  0  0  0  0  0  0  0
  125.6410  124.0830   59.8820 C   0  0  0  0  0  0  0  0  0  0  0  0
  126.7130  124.2950   60.7520 C   0  0  0  0  0  0  0  0  0  0  0  0
  127.9980  123.9080   60.3550 C   0  0  0  0  0  0  0  0  0  0  0  0
  129.0380  124.1660   61.2650 N   0  0  0  0  0  0  0  0  0  0  0  0
  130.3610  124.3320   61.0150 C   0  0  0  0  0  0  0  0  0  0  0  0
  130.8600  124.2690   59.8900 O   0  0  0  0  0  0  0  0  0  0  0  0
  131.1930  124.5950   62.1910 C   0  0  0  0  0  0  0  0  0  0  0  0
  132.8910  124.1170   62.2060 S   0  0  0  0  0  0  0  0  0  0  0  0
  133.0930  124.7080   63.8390 C   0  0  0  0  0  0  0  0  0  0  0  0
  134.2600  124.6250   64.4800 N   0  0  0  0  0  0  0  0  0  0  0  0
  134.2810  125.1140   65.7430 C   0  0  0  0  0  0  0  0  0  0  0  0
  135.6160  125.0030   66.4570 C   0  0  0  0  0  0  0  0  0  0  0  0
  133.1740  125.6810   66.3740 C   0  0  0  0  0  0  0  0  0  0  0  0
  131.9520  125.7670   65.6970 C   0  0  0  0  0  0  0  0  0  0  0  0
  130.7720  126.3910   66.4280 C   0  0  0  0  0  0  0  0  0  0  0  0
  131.8910  125.2620   64.3700 C   0  0  0  0  0  0  0  0  0  0  0  0
  130.8220  125.1880   63.4100 C   0  0  0  0  0  0  0  0  0  0  0  0
  129.5610  125.6570   63.6770 N   0  0  0  0  0  0  0  0  0  0  0  0
  128.2310  123.3430   59.1340 N   0  0  0  0  0  0  0  0  0  0  0  0
  1  2  1  0
  2  3  2  0
  3  4  1  0
  4  5  2  0
  5  6  1  0
  6  7  1  0
  7  8  1  0
  8  9  2  0
  8 10  1  0
 10 11  1  0
 11 12  1  0
 12 13  2  0
 13 14  1  0
 14 15  1  0
 14 16  2  0
 16 17  1  0
 17 18  1  0
 17 19  2  0
 19 20  1  0
 20 21  1  0
  6 22  2  0
 22  2  1  0
 20 10  2  0
 19 12  1  0
M  END
>  <Binding energies>  (41) 
[-6.79]

>  <Ligand effiencies>  (41) 
[-0.2716]

>  <Interactions>  (41) 
["V-B:GLU:543:CG:9875, V-A:HIS:456:CE1:4064, V-B:TYR:539:C:9835, V-A:ASP:366:CG:3208, V-A:GLU:543:CD:4903, V-B:GLU:543:CD:9876, H-A:TYR:484:OH:4343, H-A:GLY:454:N:4045, V-A:GLY:454:CA:4044, V-A:ARG:545:CZ:4921, V-B:PRO:540:CB:9853, V-B:PRO:540:CA:9851, H-B:GLU:543:OE2:9878, V-A:ARG:545:CD:4918, V-A:GLY:453:CA:4039, V-A:ARG:545:CG:4917, V-A:HIS:456:CD2:4063, V-A:GLY:453:C:4037, V-B:PRO:540:N:9852, V-B:MET:535:CE:9803, V-A:ILE:455:C:4047"]

$$$$
4af_Grossjean_2025
     RDKit          3D

 21 23  0  0  0  0  0  0  0  0999 V2000
  135.1990  125.2100   66.4130 C   0  0  0  0  0  0  0  0  0  0  0  0
  133.9810  125.0690   65.5190 C   0  0  0  0  0  0  0  0  0  0  0  0
  132.7050  125.3670   65.9910 C   0  0  0  0  0  0  0  0  0  0  0  0
  131.5960  125.2270   65.1490 C   0  0  0  0  0  0  0  0  0  0  0  0
  130.2240  125.5620   65.7110 C   0  0  0  0  0  0  0  0  0  0  0  0
  131.8250  124.7750   63.8210 C   0  0  0  0  0  0  0  0  0  0  0  0
  130.9380  124.5230   62.7160 C   0  0  0  0  0  0  0  0  0  0  0  0
  129.5820  124.7090   62.8090 N   0  0  0  0  0  0  0  0  0  0  0  0
  131.5870  124.0760   61.5550 C   0  0  0  0  0  0  0  0  0  0  0  0
  130.9970  123.6990   60.2690 C   0  0  0  0  0  0  0  0  0  0  0  0
  131.7070  123.5450   59.2740 O   0  0  0  0  0  0  0  0  0  0  0  0
  129.6530  123.5250   60.2760 N   0  0  0  0  0  0  0  0  0  0  0  0
  128.7840  123.2140   59.2130 C   0  0  0  0  0  0  0  0  0  0  0  0
  129.1800  122.7500   57.9450 C   0  0  0  0  0  0  0  0  0  0  0  0
  128.2140  122.4940   56.9710 C   0  0  0  0  0  0  0  0  0  0  0  0
  126.8720  122.7120   57.2850 C   0  0  0  0  0  0  0  0  0  0  0  0
  126.4650  123.1670   58.4970 N   0  0  0  0  0  0  0  0  0  0  0  0
  127.4160  123.4110   59.4340 C   0  0  0  0  0  0  0  0  0  0  0  0
  133.3300  123.9530   61.8060 S   0  0  0  0  0  0  0  0  0  0  0  0
  133.1780  124.5040   63.4590 C   0  0  0  0  0  0  0  0  0  0  0  0
  134.2370  124.6370   64.2590 N   0  0  0  0  0  0  0  0  0  0  0  0
  1  2  1  0
  2  3  2  0
  3  4  1  0
  4  5  1  0
  4  6  2  0
  6  7  1  0
  7  8  1  0
  7  9  2  0
  9 10  1  0
 10 11  2  0
 10 12  1  0
 12 13  1  0
 13 14  2  0
 14 15  1  0
 15 16  2  0
 16 17  1  0
 17 18  2  0
  9 19  1  0
 19 20  1  0
 20 21  2  0
 21  2  1  0
 20  6  1  0
 18 13  1  0
M  END
>  <Binding energies>  (42) 
[-6.3]

>  <Ligand effiencies>  (42) 
[-0.2625]

>  <Interactions>  (42) 
["V-B:GLU:543:CG:9875, V-B:TYR:539:C:9835, V-B:TYR:539:CD2:9842, V-B:TYR:539:CE2:9844, V-A:ILE:369:CD1:3234, V-B:TYR:539:CZ:9845, V-A:ASP:366:CG:3208, V-B:GLU:543:CD:9876, H-A:TYR:484:OH:4343, H-A:GLY:454:N:4045, V-A:ARG:545:CZ:4921, V-B:PRO:540:CA:9851, V-B:TYR:539:CE1:9843, H-B:GLU:543:OE2:9878, V-A:ARG:545:CD:4918, V-A:GLY:453:CA:4039, V-A:ARG:545:CG:4917, V-A:HIS:456:CD2:4063, V-A:GLY:453:C:4037, V-B:PRO:540:N:9852, V-B:MET:535:CE:9803, V-B:TYR:539:CG:9840, V-B:TYR:539:CD1:9841"]

$$$$
4ag_Grossjean_2025
     RDKit          3D

 22 24  0  0  0  0  0  0  0  0999 V2000
  135.1710  125.2520   66.4330 C   0  0  0  0  0  0  0  0  0  0  0  0
  133.9640  125.0770   65.5300 C   0  0  0  0  0  0  0  0  0  0  0  0
  132.6800  125.3750   65.9840 C   0  0  0  0  0  0  0  0  0  0  0  0
  131.5810  125.2080   65.1340 C   0  0  0  0  0  0  0  0  0  0  0  0
  130.2000  125.5460   65.6760 C   0  0  0  0  0  0  0  0  0  0  0  0
  131.8270  124.7330   63.8180 C   0  0  0  0  0  0  0  0  0  0  0  0
  130.9540  124.4530   62.7110 C   0  0  0  0  0  0  0  0  0  0  0  0
  129.5950  124.6310   62.7840 N   0  0  0  0  0  0  0  0  0  0  0  0
  131.6170  123.9860   61.5670 C   0  0  0  0  0  0  0  0  0  0  0  0
  131.0470  123.6180   60.2710 C   0  0  0  0  0  0  0  0  0  0  0  0
  131.6910  123.7410   59.2280 O   0  0  0  0  0  0  0  0  0  0  0  0
  129.7770  123.1600   60.2900 N   0  0  0  0  0  0  0  0  0  0  0  0
  129.0210  122.7120   59.1210 C   0  0  0  0  0  0  0  0  0  0  0  0
  127.5510  123.1150   59.1440 C   0  0  0  0  0  0  0  0  0  0  0  0
  126.9510  123.4890   60.3500 C   0  0  0  0  0  0  0  0  0  0  0  0
  125.6150  123.8820   60.3690 C   0  0  0  0  0  0  0  0  0  0  0  0
  124.8860  123.9090   59.1820 C   0  0  0  0  0  0  0  0  0  0  0  0
  125.4820  123.5530   57.9740 C   0  0  0  0  0  0  0  0  0  0  0  0
  126.8180  123.1610   57.9540 C   0  0  0  0  0  0  0  0  0  0  0  0
  133.3580  123.8890   61.8320 S   0  0  0  0  0  0  0  0  0  0  0  0
  133.1860  124.4660   63.4750 C   0  0  0  0  0  0  0  0  0  0  0  0
  134.2360  124.6250   64.2820 N   0  0  0  0  0  0  0  0  0  0  0  0
  1  2  1  0
  2  3  2  0
  3  4  1  0
  4  5  1  0
  4  6  2  0
  6  7  1  0
  7  8  1  0
  7  9  2  0
  9 10  1  0
 10 11  2  0
 10 12  1  0
 12 13  1  0
 13 14  1  0
 14 15  2  0
 15 16  1  0
 16 17  2  0
 17 18  1  0
 18 19  2  0
  9 20  1  0
 20 21  1  0
 21 22  2  0
 22  2  1  0
 21  6  1  0
 19 14  1  0
M  END
>  <Binding energies>  (43) 
[-6.81]

>  <Ligand effiencies>  (43) 
[-0.2724]

>  <Interactions>  (43) 
["V-B:GLU:543:CG:9875, V-B:TYR:539:C:9835, V-A:ILE:369:CD1:3234, V-A:ASP:366:CG:3208, V-B:GLU:543:CD:9876, H-A:TYR:484:OH:4343, H-A:GLY:454:N:4045, V-A:ARG:545:CZ:4921, V-B:PRO:540:CB:9853, V-B:PRO:540:CA:9851, H-B:GLU:543:OE2:9878, V-A:ARG:545:CD:4918, V-A:GLY:453:CA:4039, V-A:ARG:545:CG:4917, V-A:HIS:456:CD2:4063, V-A:GLY:453:C:4037, V-B:PRO:540:N:9852"]

$$$$
4ah_Grossjean_2025
     RDKit          3D

 28 30  0  0  0  0  0  0  0  0999 V2000
  129.8850  131.2930   73.4380 C   0  0  0  0  0  0  0  0  0  0  0  0
  129.8730  129.8820   73.6170 O   0  0  0  0  0  0  0  0  0  0  0  0
  129.6690  129.0600   72.5230 C   0  0  0  0  0  0  0  0  0  0  0  0
  129.6680  129.5110   71.1940 C   0  0  0  0  0  0  0  0  0  0  0  0
  129.4530  128.6240   70.1380 C   0  0  0  0  0  0  0  0  0  0  0  0
  129.5020  129.1240   68.6980 C   0  0  0  0  0  0  0  0  0  0  0  0
  130.1070  128.1710   67.7680 N   0  0  0  0  0  0  0  0  0  0  0  0
  129.5440  127.0160   67.3550 C   0  0  0  0  0  0  0  0  0  0  0  0
  128.4490  126.6270   67.7650 O   0  0  0  0  0  0  0  0  0  0  0  0
  130.3320  126.2200   66.4150 C   0  0  0  0  0  0  0  0  0  0  0  0
  129.5250  125.1510   65.2660 S   0  0  0  0  0  0  0  0  0  0  0  0
  131.0600  124.6050   64.6290 C   0  0  0  0  0  0  0  0  0  0  0  0
  131.1380  123.7120   63.6420 N   0  0  0  0  0  0  0  0  0  0  0  0
  132.3870  123.3760   63.2390 C   0  0  0  0  0  0  0  0  0  0  0  0
  132.4520  122.3560   62.1170 C   0  0  0  0  0  0  0  0  0  0  0  0
  133.5490  123.9070   63.7930 C   0  0  0  0  0  0  0  0  0  0  0  0
  133.4660  124.8430   64.8310 C   0  0  0  0  0  0  0  0  0  0  0  0
  134.7620  125.3940   65.4050 C   0  0  0  0  0  0  0  0  0  0  0  0
  132.1710  125.2190   65.2820 C   0  0  0  0  0  0  0  0  0  0  0  0
  131.7270  126.1270   66.3050 C   0  0  0  0  0  0  0  0  0  0  0  0
  132.6020  126.8370   67.0880 N   0  0  0  0  0  0  0  0  0  0  0  0
  129.2640  127.2680   70.4060 C   0  0  0  0  0  0  0  0  0  0  0  0
  129.2540  126.7890   71.7260 C   0  0  0  0  0  0  0  0  0  0  0  0
  129.0580  125.4630   72.0640 O   0  0  0  0  0  0  0  0  0  0  0  0
  129.8780  124.4620   71.4690 C   0  0  0  0  0  0  0  0  0  0  0  0
  129.4520  127.6970   72.7760 C   0  0  0  0  0  0  0  0  0  0  0  0
  129.4630  127.2400   74.0720 O   0  0  0  0  0  0  0  0  0  0  0  0
  130.5720  126.4070   74.3810 C   0  0  0  0  0  0  0  0  0  0  0  0
  1  2  1  0
  2  3  1  0
  3  4  2  0
  4  5  1  0
  5  6  1  0
  6  7  1  0
  7  8  1  0
  8  9  2  0
  8 10  1  0
 10 11  1  0
 11 12  1  0
 12 13  2  0
 13 14  1  0
 14 15  1  0
 14 16  2  0
 16 17  1  0
 17 18  1  0
 17 19  2  0
 19 20  1  0
 20 21  1  0
  5 22  2  0
 22 23  1  0
 23 24  1  0
 24 25  1  0
 23 26  2  0
 26 27  1  0
 27 28  1  0
 26  3  1  0
 20 10  2  0
 19 12  1  0
M  END
>  <Binding energies>  (44) 
[-6.96]

>  <Ligand effiencies>  (44) 
[-0.22451612903225807]

>  <Interactions>  (44) 
["V-B:GLU:543:CG:9875, V-A:HIS:456:CE1:4064, H-B:LYS:547:NZ:9919, V-B:GLU:543:CB:9874, V-A:LEU:475:CD2:4254, V-A:GLU:543:CB:4901, V-A:GLU:543:CG:4902, V-A:GLU:543:CD:4903, V-B:GLU:543:CD:9876, H-A:TYR:484:OH:4343, V-A:GLY:454:CA:4044, V-A:ARG:545:CZ:4921, H-A:GLU:543:OE1:4904, V-A:GLU:543:C:4897, V-A:LYS:547:CE:4945, V-B:HIS:456:CD2:9035, H-A:LYS:547:NZ:4946, V-A:ARG:545:CD:4918, V-A:GLY:453:CA:4039, V-A:ARG:545:CG:4917, V-A:HIS:456:CD2:4063, V-A:GLY:453:C:4037, V-B:LYS:547:CE:9918"]

$$$$
4ai_Grossjean_2025
     RDKit          3D

 20 22  0  0  0  0  0  0  0  0999 V2000
  123.7220  129.8680   66.3240 C   0  0  0  0  0  0  0  0  0  0  0  0
  124.9700  129.1920   65.7860 C   0  0  0  0  0  0  0  0  0  0  0  0
  125.2390  129.1670   64.4190 C   0  0  0  0  0  0  0  0  0  0  0  0
  126.3990  128.5430   63.9450 C   0  0  0  0  0  0  0  0  0  0  0  0
  126.6490  128.5440   62.4440 C   0  0  0  0  0  0  0  0  0  0  0  0
  127.2710  127.9510   64.8980 C   0  0  0  0  0  0  0  0  0  0  0  0
  128.5170  127.2470   64.7660 C   0  0  0  0  0  0  0  0  0  0  0  0
  129.1020  127.0170   63.5460 N   0  0  0  0  0  0  0  0  0  0  0  0
  129.0690  126.8290   65.9870 C   0  0  0  0  0  0  0  0  0  0  0  0
  130.3100  126.0860   66.2190 C   0  0  0  0  0  0  0  0  0  0  0  0
  130.4200  125.3340   67.1900 O   0  0  0  0  0  0  0  0  0  0  0  0
  131.2840  126.2780   65.2950 N   0  0  0  0  0  0  0  0  0  0  0  0
  132.5450  125.6970   65.2640 C   0  0  0  0  0  0  0  0  0  0  0  0
  133.4250  125.7280   66.3450 C   0  0  0  0  0  0  0  0  0  0  0  0
  134.5460  125.0570   65.9150 C   0  0  0  0  0  0  0  0  0  0  0  0
  134.3510  124.6410   64.6410 O   0  0  0  0  0  0  0  0  0  0  0  0
  133.0790  125.0510   64.2390 N   0  0  0  0  0  0  0  0  0  0  0  0
  128.0340  127.2830   67.3420 S   0  0  0  0  0  0  0  0  0  0  0  0
  126.8810  128.0450   66.2690 C   0  0  0  0  0  0  0  0  0  0  0  0
  125.7770  128.6370   66.7240 N   0  0  0  0  0  0  0  0  0  0  0  0
  1  2  1  0
  2  3  2  0
  3  4  1  0
  4  5  1  0
  4  6  2  0
  6  7  1  0
  7  8  1  0
  7  9  2  0
  9 10  1  0
 10 11  2  0
 10 12  1  0
 12 13  1  0
 13 14  1  0
 14 15  2  0
 15 16  1  0
 16 17  1  0
  9 18  1  0
 18 19  1  0
 19 20  2  0
 20  2  1  0
 19  6  1  0
 17 13  2  0
M  END
>  <Binding energies>  (45) 
[-6.06]

>  <Ligand effiencies>  (45) 
[-0.2634782608695652]

>  <Interactions>  (45) 
["V-B:GLU:543:CG:9875, V-A:HIS:456:CE1:4064, V-B:GLU:543:CB:9874, V-B:HIS:456:CE1:9037, V-A:GLU:543:CD:4903, V-B:GLU:543:CD:9876, H-A:TYR:484:OH:4343, H-A:GLY:454:N:4045, V-A:ARG:545:CZ:4921, H-A:GLU:543:OE2:4905, H-A:HIS:456:NE2:4065, V-B:ARG:545:CG:9890, H-A:GLU:543:OE1:4904, V-B:ARG:545:CD:9891, H-B:GLU:543:OE2:9878, V-B:ARG:545:CZ:9894, V-A:ARG:545:CD:4918, V-A:GLY:453:CA:4039, V-A:ARG:545:CG:4917, V-A:HIS:456:CD2:4063, V-A:GLY:453:C:4037, H-B:HIS:456:ND1:9034"]

$$$$
4aj_Grossjean_2025
     RDKit          3D

 20 22  0  0  0  0  0  0  0  0999 V2000
  135.2880  125.0040   66.5340 C   0  0  0  0  0  0  0  0  0  0  0  0
  134.1130  125.0650   65.5750 C   0  0  0  0  0  0  0  0  0  0  0  0
  132.8730  125.5420   65.9900 C   0  0  0  0  0  0  0  0  0  0  0  0
  131.8010  125.5840   65.0910 C   0  0  0  0  0  0  0  0  0  0  0  0
  130.4670  126.1140   65.5930 C   0  0  0  0  0  0  0  0  0  0  0  0
  132.0310  125.1300   63.7650 C   0  0  0  0  0  0  0  0  0  0  0  0
  131.1760  125.0340   62.6110 C   0  0  0  0  0  0  0  0  0  0  0  0
  129.8590  125.4130   62.6420 N   0  0  0  0  0  0  0  0  0  0  0  0
  131.8160  124.5270   61.4690 C   0  0  0  0  0  0  0  0  0  0  0  0
  131.2510  124.2880   60.1390 C   0  0  0  0  0  0  0  0  0  0  0  0
  131.8600  124.6360   59.1250 O   0  0  0  0  0  0  0  0  0  0  0  0
  130.0500  123.6610   60.1210 N   0  0  0  0  0  0  0  0  0  0  0  0
  129.3100  123.3090   59.0010 C   0  0  0  0  0  0  0  0  0  0  0  0
  129.7510  123.0680   57.7850 N   0  0  0  0  0  0  0  0  0  0  0  0
  128.7660  122.7550   56.9650 C   0  0  0  0  0  0  0  0  0  0  0  0
  127.4880  122.7390   57.5160 C   0  0  0  0  0  0  0  0  0  0  0  0
  127.5940  123.1570   59.2010 S   0  0  0  0  0  0  0  0  0  0  0  0
  133.5040  124.1380   61.8040 S   0  0  0  0  0  0  0  0  0  0  0  0
  133.3470  124.6670   63.4640 C   0  0  0  0  0  0  0  0  0  0  0  0
  134.3700  124.6250   64.3180 N   0  0  0  0  0  0  0  0  0  0  0  0
  1  2  1  0
  2  3  2  0
  3  4  1  0
  4  5  1  0
  4  6  2  0
  6  7  1  0
  7  8  1  0
  7  9  2  0
  9 10  1  0
 10 11  2  0
 10 12  1  0
 12 13  1  0
 13 14  2  0
 14 15  1  0
 15 16  2  0
 16 17  1  0
  9 18  1  0
 18 19  1  0
 19 20  2  0
 20  2  1  0
 19  6  1  0
 17 13  1  0
M  END
>  <Binding energies>  (46) 
[-5.95]

>  <Ligand effiencies>  (46) 
[-0.25869565217391305]

>  <Interactions>  (46) 
["V-B:TYR:539:C:9835, V-B:TYR:539:CD2:9842, V-B:TYR:539:CE2:9844, V-A:ILE:369:CD1:3234, V-B:TYR:539:CZ:9845, V-A:ASP:366:CG:3208, V-B:GLU:543:CD:9876, H-A:ARG:545:NH1:4922, H-A:TYR:484:OH:4343, H-A:GLY:454:N:4045, V-A:GLY:454:CA:4044, V-A:ARG:545:CZ:4921, V-B:PRO:540:CA:9851, V-B:TYR:539:CE1:9843, H-B:GLU:543:OE2:9878, V-A:ARG:545:CD:4918, V-A:GLY:453:CA:4039, V-A:ARG:545:CG:4917, V-A:HIS:456:CD2:4063, V-A:GLY:453:C:4037, V-B:PRO:540:N:9852, V-B:TYR:539:CG:9840, V-A:ILE:455:C:4047, V-B:TYR:539:CD1:9841"]

$$$$
4ak_Grossjean_2025
     RDKit          3D

 25 26  0  0  0  0  0  0  0  0999 V2000
  133.5060  123.2910   62.5200 C   0  0  0  0  0  0  0  0  0  0  0  0
  132.8700  122.0260   62.4220 O   0  0  0  0  0  0  0  0  0  0  0  0
  133.2800  121.2740   61.2870 C   0  0  0  0  0  0  0  0  0  0  0  0
  132.5930  121.8270   60.0310 C   0  0  0  0  0  0  0  0  0  0  0  0
  131.5790  120.9230   59.6120 O   0  0  0  0  0  0  0  0  0  0  0  0
  131.3160  119.8830   60.5440 C   0  0  0  0  0  0  0  0  0  0  0  0
  129.9700  120.1450   61.2300 C   0  0  0  0  0  0  0  0  0  0  0  0
  129.3990  121.3350   60.7040 O   0  0  0  0  0  0  0  0  0  0  0  0
  128.9500  122.2470   61.6980 C   0  0  0  0  0  0  0  0  0  0  0  0
  129.9840  123.3760   61.8580 C   0  0  0  0  0  0  0  0  0  0  0  0
  129.8080  124.1650   63.0760 N   0  0  0  0  0  0  0  0  0  0  0  0
  130.3110  123.8530   64.2880 C   0  0  0  0  0  0  0  0  0  0  0  0
  131.0060  122.8530   64.4770 O   0  0  0  0  0  0  0  0  0  0  0  0
  129.9930  124.7780   65.3740 C   0  0  0  0  0  0  0  0  0  0  0  0
  130.1100  124.2530   67.0530 S   0  0  0  0  0  0  0  0  0  0  0  0
  129.6180  125.8300   67.6290 C   0  0  0  0  0  0  0  0  0  0  0  0
  129.4980  126.1000   68.9300 N   0  0  0  0  0  0  0  0  0  0  0  0
  129.1060  127.3600   69.2410 C   0  0  0  0  0  0  0  0  0  0  0  0
  128.9760  127.6480   70.7260 C   0  0  0  0  0  0  0  0  0  0  0  0
  128.8370  128.3450   68.2930 C   0  0  0  0  0  0  0  0  0  0  0  0
  128.9650  128.0580   66.9290 C   0  0  0  0  0  0  0  0  0  0  0  0
  128.6570  129.1650   65.9330 C   0  0  0  0  0  0  0  0  0  0  0  0
  129.3730  126.7470   66.5640 C   0  0  0  0  0  0  0  0  0  0  0  0
  129.6000  126.1230   65.2880 C   0  0  0  0  0  0  0  0  0  0  0  0
  129.4380  126.7950   64.1030 N   0  0  0  0  0  0  0  0  0  0  0  0
  1  2  1  0
  2  3  1  0
  3  4  1  0
  4  5  1  0
  5  6  1  0
  6  7  1  0
  7  8  1  0
  8  9  1  0
  9 10  1  0
 10 11  1  0
 11 12  1  0
 12 13  2  0
 12 14  1  0
 14 15  1  0
 15 16  1  0
 16 17  2  0
 17 18  1  0
 18 19  1  0
 18 20  2  0
 20 21  1  0
 21 22  1  0
 21 23  2  0
 23 24  1  0
 24 25  1  0
 24 14  2  0
 23 16  1  0
M  END
>  <Binding energies>  (47) 
[-4.86]

>  <Ligand effiencies>  (47) 
[-0.17357142857142857]

>  <Interactions>  (47) 
["V-B:GLU:543:CG:9875, V-A:HIS:456:CE1:4064, V-A:TRP:381:CZ2:3365, V-B:ALA:541:CB:9860, V-B:GLU:543:CB:9874, V-A:TRP:381:CH2:3367, V-B:TYR:539:CD2:9842, V-A:LEU:475:CD2:4254, V-A:GLU:543:CB:4901, V-B:TYR:539:CE2:9844, V-A:ILE:369:CD1:3234, V-B:HIS:456:CE1:9037, V-A:TYR:484:CZ:4342, V-A:GLU:543:CG:4902, V-A:TYR:484:CE1:4340, V-B:GLU:543:CA:9872, V-A:GLU:543:CD:4903, V-B:GLU:543:CD:9876, H-A:TYR:484:OH:4343, V-A:GLY:454:CA:4044, H-B:ALA:541:N:9859, H-A:GLU:543:OE2:4905, H-A:HIS:456:NE2:4065, H-A:GLU:543:OE1:4904, H-B:GLU:543:OE2:9878"]

$$$$
4al_Grossjean_2025
     RDKit          3D

 16 17  0  0  0  0  0  0  0  0999 V2000
  134.3460  125.0120   65.7100 C   0  0  0  0  0  0  0  0  0  0  0  0
  134.0200  124.6230   64.3840 O   0  0  0  0  0  0  0  0  0  0  0  0
  132.8720  125.0480   63.7950 C   0  0  0  0  0  0  0  0  0  0  0  0
  132.4770  126.2160   63.8170 O   0  0  0  0  0  0  0  0  0  0  0  0
  132.1350  123.9590   63.1170 C   0  0  0  0  0  0  0  0  0  0  0  0
  132.9500  122.4370   62.7520 S   0  0  0  0  0  0  0  0  0  0  0  0
  131.4990  121.7860   62.0270 C   0  0  0  0  0  0  0  0  0  0  0  0
  131.4590  120.5560   61.5120 N   0  0  0  0  0  0  0  0  0  0  0  0
  130.2720  120.1720   60.9790 C   0  0  0  0  0  0  0  0  0  0  0  0
  130.2480  118.7700   60.3980 C   0  0  0  0  0  0  0  0  0  0  0  0
  129.1380  120.9800   60.9500 C   0  0  0  0  0  0  0  0  0  0  0  0
  129.1830  122.2700   61.4920 C   0  0  0  0  0  0  0  0  0  0  0  0
  127.9200  123.1140   61.4370 C   0  0  0  0  0  0  0  0  0  0  0  0
  130.4100  122.7070   62.0590 C   0  0  0  0  0  0  0  0  0  0  0  0
  130.8030  123.9380   62.6860 C   0  0  0  0  0  0  0  0  0  0  0  0
  129.9420  124.9940   62.8450 N   0  0  0  0  0  0  0  0  0  0  0  0
  1  2  1  0
  2  3  1  0
  3  4  2  0
  3  5  1  0
  5  6  1  0
  6  7  1  0
  7  8  2  0
  8  9  1  0
  9 10  1  0
  9 11  2  0
 11 12  1  0
 12 13  1  0
 12 14  2  0
 14 15  1  0
 15 16  1  0
 15  5  2  0
 14  7  1  0
M  END
>  <Binding energies>  (48) 
[-4.93]

>  <Ligand effiencies>  (48) 
[-0.27388888888888885]

>  <Interactions>  (48) 
["V-B:PRO:540:C:9849, V-A:TRP:381:CZ3:3366, V-A:TRP:381:CZ2:3365, V-B:ALA:541:CB:9860, V-B:ALA:541:CA:9858, V-A:TRP:381:CH2:3367, V-B:TYR:539:C:9835, V-B:TYR:539:CD2:9842, V-A:LEU:475:CD2:4254, V-B:GLU:543:CD:9876, H-A:TYR:484:OH:4343, H-A:ARG:545:NE:4919, H-A:ARG:545:NH2:4923, H-A:GLY:454:N:4045, V-A:GLY:454:CA:4044, V-A:ARG:545:CZ:4921, V-B:PRO:540:CA:9851, H-B:GLU:543:OE2:9878, V-A:ARG:545:CD:4918, V-A:GLY:453:CA:4039, V-A:GLY:453:C:4037"]

$$$$
4bc_Grossjean_2025
     RDKit          3D

 26 28  0  0  0  0  0  0  0  0999 V2000
  125.1190  122.3640   56.5620 C   0  0  0  0  0  0  0  0  0  0  0  0
  126.4910  122.0530   56.3400 O   0  0  0  0  0  0  0  0  0  0  0  0
  127.4260  122.4180   57.2890 C   0  0  0  0  0  0  0  0  0  0  0  0
  126.9300  122.8640   58.5130 C   0  0  0  0  0  0  0  0  0  0  0  0
  127.7960  123.2540   59.5310 C   0  0  0  0  0  0  0  0  0  0  0  0
  129.1780  123.1950   59.3380 C   0  0  0  0  0  0  0  0  0  0  0  0
  129.9740  123.6230   60.4160 N   0  0  0  0  0  0  0  0  0  0  0  0
  130.4700  124.8580   60.6780 C   0  0  0  0  0  0  0  0  0  0  0  0
  130.3100  125.8330   59.9430 O   0  0  0  0  0  0  0  0  0  0  0  0
  131.2390  124.9760   61.9210 C   0  0  0  0  0  0  0  0  0  0  0  0
  132.9420  124.5280   61.9550 S   0  0  0  0  0  0  0  0  0  0  0  0
  133.0620  124.9360   63.6510 C   0  0  0  0  0  0  0  0  0  0  0  0
  134.2090  124.8040   64.3180 N   0  0  0  0  0  0  0  0  0  0  0  0
  134.1780  125.1500   65.6260 C   0  0  0  0  0  0  0  0  0  0  0  0
  135.4940  124.9980   66.3660 C   0  0  0  0  0  0  0  0  0  0  0  0
  133.0390  125.6190   66.2760 C   0  0  0  0  0  0  0  0  0  0  0  0
  131.8290  125.7590   65.5790 C   0  0  0  0  0  0  0  0  0  0  0  0
  130.6020  126.2760   66.3390 C   0  0  0  0  0  0  0  0  0  0  0  0
  129.8870  127.1570   65.6360 F   0  0  0  0  0  0  0  0  0  0  0  0
  129.7970  125.2570   66.6390 F   0  0  0  0  0  0  0  0  0  0  0  0
  130.9880  126.8800   67.4620 F   0  0  0  0  0  0  0  0  0  0  0  0
  131.8280  125.4040   64.1960 C   0  0  0  0  0  0  0  0  0  0  0  0
  130.8040  125.4180   63.1800 C   0  0  0  0  0  0  0  0  0  0  0  0
  129.5190  125.8300   63.4300 N   0  0  0  0  0  0  0  0  0  0  0  0
  129.6850  122.7600   58.1050 C   0  0  0  0  0  0  0  0  0  0  0  0
  128.8160  122.3710   57.0900 C   0  0  0  0  0  0  0  0  0  0  0  0
  1  2  1  0
  2  3  1  0
  3  4  2  0
  4  5  1  0
  5  6  2  0
  6  7  1  0
  7  8  1  0
  8  9  2  0
  8 10  1  0
 10 11  1  0
 11 12  1  0
 12 13  2  0
 13 14  1  0
 14 15  1  0
 14 16  2  0
 16 17  1  0
 17 18  1  0
 18 19  1  0
 18 20  1  0
 18 21  1  0
 17 22  2  0
 22 23  1  0
 23 24  1  0
  6 25  1  0
 25 26  2  0
 26  3  1  0
 23 10  2  0
 22 12  1  0
M  END
>  <Binding energies>  (49) 
[-6.24]

>  <Ligand effiencies>  (49) 
[-0.21517241379310345]

>  <Interactions>  (49) 
["V-B:GLU:543:CG:9875, V-A:HIS:456:CE1:4064, V-B:GLU:543:CB:9874, V-B:TYR:539:C:9835, V-B:TYR:539:CD2:9842, V-B:TYR:539:CE2:9844, V-B:TYR:539:CZ:9845, V-A:ASP:366:CG:3208, V-A:GLU:543:CD:4903, V-B:GLU:543:CD:9876, H-A:ARG:545:NH1:4922, H-A:TYR:484:OH:4343, H-A:GLY:454:N:4045, V-A:GLY:454:CA:4044, V-A:ARG:545:CZ:4921, V-B:PRO:540:CB:9853, V-B:PRO:540:CA:9851, V-B:TYR:539:CE1:9843, H-B:GLU:543:OE2:9878, H-B:GLU:543:OE1:9877, V-A:ARG:545:CD:4918, V-A:GLY:453:CA:4039, V-A:ARG:545:CG:4917, V-A:HIS:456:CD2:4063, V-A:GLY:453:C:4037, V-B:LEU:363:CD1:8156, V-B:PRO:540:CD:9855, V-B:PRO:540:N:9852, V-B:PRO:540:CG:9854, V-B:MET:535:CE:9803, V-B:ILE:538:CG2:9831, H-B:TYR:539:N:9838, V-B:TYR:539:CG:9840, V-A:ILE:455:C:4047, V-B:TYR:539:CD1:9841"]

$$$$
4bf_Grossjean_2025
     RDKit          3D

 24 26  0  0  0  0  0  0  0  0999 V2000
  135.2640  125.1690   66.3700 C   0  0  0  0  0  0  0  0  0  0  0  0
  134.0270  125.0710   65.4940 C   0  0  0  0  0  0  0  0  0  0  0  0
  132.7670  125.3850   65.9950 C   0  0  0  0  0  0  0  0  0  0  0  0
  131.6320  125.2860   65.1760 C   0  0  0  0  0  0  0  0  0  0  0  0
  130.2650  125.6390   65.7720 C   0  0  0  0  0  0  0  0  0  0  0  0
  130.3490  126.1660   66.9970 F   0  0  0  0  0  0  0  0  0  0  0  0
  129.6490  126.5300   64.9960 F   0  0  0  0  0  0  0  0  0  0  0  0
  129.5150  124.5400   65.8620 F   0  0  0  0  0  0  0  0  0  0  0  0
  131.8340  124.8570   63.8300 C   0  0  0  0  0  0  0  0  0  0  0  0
  130.9340  124.6410   62.7240 C   0  0  0  0  0  0  0  0  0  0  0  0
  129.5810  124.8480   62.8190 N   0  0  0  0  0  0  0  0  0  0  0  0
  131.5650  124.2060   61.5460 C   0  0  0  0  0  0  0  0  0  0  0  0
  130.9570  123.8640   60.2570 C   0  0  0  0  0  0  0  0  0  0  0  0
  131.6460  123.7910   59.2390 O   0  0  0  0  0  0  0  0  0  0  0  0
  129.6220  123.6300   60.2880 N   0  0  0  0  0  0  0  0  0  0  0  0
  128.7400  123.3310   59.2330 C   0  0  0  0  0  0  0  0  0  0  0  0
  127.3490  123.5370   59.2500 C   0  0  0  0  0  0  0  0  0  0  0  0
  126.5840  123.1810   58.1370 C   0  0  0  0  0  0  0  0  0  0  0  0
  127.2290  122.6220   57.0340 C   0  0  0  0  0  0  0  0  0  0  0  0
  128.5680  122.4060   56.9950 N   0  0  0  0  0  0  0  0  0  0  0  0
  129.2980  122.7570   58.0840 C   0  0  0  0  0  0  0  0  0  0  0  0
  133.3040  124.0470   61.7780 S   0  0  0  0  0  0  0  0  0  0  0  0
  133.1780  124.5670   63.4420 C   0  0  0  0  0  0  0  0  0  0  0  0
  134.2530  124.6630   64.2240 N   0  0  0  0  0  0  0  0  0  0  0  0
  1  2  1  0
  2  3  2  0
  3  4  1  0
  4  5  1  0
  5  6  1  0
  5  7  1  0
  5  8  1  0
  4  9  2  0
  9 10  1  0
 10 11  1  0
 10 12  2  0
 12 13  1  0
 13 14  2  0
 13 15  1  0
 15 16  1  0
 16 17  2  0
 17 18  1  0
 18 19  2  0
 19 20  1  0
 20 21  2  0
 12 22  1  0
 22 23  1  0
 23 24  2  0
 24  2  1  0
 23  9  1  0
 21 16  1  0
M  END
>  <Binding energies>  (50) 
[-5.94]

>  <Ligand effiencies>  (50) 
[-0.22]

>  <Interactions>  (50) 
["V-B:GLU:543:CG:9875, V-A:HIS:456:CE1:4064, V-B:GLU:543:CB:9874, V-B:TYR:539:C:9835, V-B:TYR:539:CD2:9842, V-B:TYR:539:CE2:9844, V-A:ILE:369:CD1:3234, V-B:TYR:539:CZ:9845, V-A:ASP:366:CG:3208, V-B:GLU:543:CD:9876, H-A:ARG:545:NH1:4922, H-A:TYR:484:OH:4343, H-A:GLY:454:N:4045, V-A:ARG:545:CZ:4921, V-B:PRO:540:CB:9853, V-B:PRO:540:CA:9851, H-B:GLU:543:OE2:9878, V-A:ARG:545:CD:4918, V-A:GLY:453:CA:4039, V-A:ARG:545:CG:4917, V-A:HIS:456:CD2:4063, V-A:GLY:453:C:4037, V-B:PRO:540:N:9852, V-B:MET:535:CE:9803"]

$$$$
4bh_Grossjean_2025
     RDKit          3D

 31 33  0  0  0  0  0  0  0  0999 V2000
  129.8730  124.3840   71.2940 C   0  0  0  0  0  0  0  0  0  0  0  0
  129.0890  125.3720   71.9540 O   0  0  0  0  0  0  0  0  0  0  0  0
  129.2780  126.7070   71.6450 C   0  0  0  0  0  0  0  0  0  0  0  0
  129.2490  127.2210   70.3390 C   0  0  0  0  0  0  0  0  0  0  0  0
  129.4500  128.5810   70.0990 C   0  0  0  0  0  0  0  0  0  0  0  0
  129.3690  129.1280   68.6790 C   0  0  0  0  0  0  0  0  0  0  0  0
  129.6950  128.1370   67.6530 N   0  0  0  0  0  0  0  0  0  0  0  0
  128.9320  127.0750   67.3210 C   0  0  0  0  0  0  0  0  0  0  0  0
  127.8760  126.8110   67.8990 O   0  0  0  0  0  0  0  0  0  0  0  0
  129.4530  126.2160   66.2570 C   0  0  0  0  0  0  0  0  0  0  0  0
  129.8940  124.5480   66.6070 S   0  0  0  0  0  0  0  0  0  0  0  0
  130.4140  124.2950   64.9570 C   0  0  0  0  0  0  0  0  0  0  0  0
  130.8930  123.1190   64.5520 N   0  0  0  0  0  0  0  0  0  0  0  0
  131.2610  123.0440   63.2520 C   0  0  0  0  0  0  0  0  0  0  0  0
  131.8060  121.6960   62.8120 C   0  0  0  0  0  0  0  0  0  0  0  0
  131.1610  124.1040   62.3560 C   0  0  0  0  0  0  0  0  0  0  0  0
  130.6590  125.3460   62.7770 C   0  0  0  0  0  0  0  0  0  0  0  0
  130.5660  126.4830   61.7540 C   0  0  0  0  0  0  0  0  0  0  0  0
  131.3020  127.5460   62.0850 F   0  0  0  0  0  0  0  0  0  0  0  0
  130.9920  126.0570   60.5660 F   0  0  0  0  0  0  0  0  0  0  0  0
  129.3010  126.8900   61.6480 F   0  0  0  0  0  0  0  0  0  0  0  0
  130.2650  125.4600   64.1430 C   0  0  0  0  0  0  0  0  0  0  0  0
  129.7240  126.5480   64.9200 C   0  0  0  0  0  0  0  0  0  0  0  0
  129.4900  127.7920   64.3940 N   0  0  0  0  0  0  0  0  0  0  0  0
  129.6550  129.4450   71.1770 C   0  0  0  0  0  0  0  0  0  0  0  0
  129.6970  128.9580   72.4920 C   0  0  0  0  0  0  0  0  0  0  0  0
  129.9100  129.7540   73.6040 O   0  0  0  0  0  0  0  0  0  0  0  0
  129.8990  131.1700   73.4600 C   0  0  0  0  0  0  0  0  0  0  0  0
  129.5130  127.5850   72.7120 C   0  0  0  0  0  0  0  0  0  0  0  0
  129.5330  127.0980   73.9980 O   0  0  0  0  0  0  0  0  0  0  0  0
  130.6660  126.2910   74.2910 C   0  0  0  0  0  0  0  0  0  0  0  0
  1  2  1  0
  2  3  1  0
  3  4  2  0
  4  5  1  0
  5  6  1  0
  6  7  1  0
  7  8  1  0
  8  9  2  0
  8 10  1  0
 10 11  1  0
 11 12  1  0
 12 13  2  0
 13 14  1  0
 14 15  1  0
 14 16  2  0
 16 17  1  0
 17 18  1  0
 18 19  1  0
 18 20  1  0
 18 21  1  0
 17 22  2  0
 22 23  1  0
 23 24  1  0
  5 25  2  0
 25 26  1  0
 26 27  1  0
 27 28  1  0
 26 29  2  0
 29 30  1  0
 30 31  1  0
 29  3  1  0
 23 10  2  0
 22 12  1  0
M  END
>  <Binding energies>  (51) 
[-6.34]

>  <Ligand effiencies>  (51) 
[-0.1864705882352941]

>  <Interactions>  (51) 
["V-B:GLU:543:CG:9875, V-A:HIS:456:CE1:4064, H-B:LYS:547:NZ:9919, V-B:GLU:543:CB:9874, V-A:LEU:475:CD2:4254, V-A:GLU:543:CB:4901, V-B:HIS:456:CE1:9037, V-A:TYR:484:CZ:4342, V-B:GLU:543:C:9870, V-A:TYR:484:CE1:4340, V-B:GLU:543:CA:9872, V-A:GLU:543:CD:4903, V-B:GLU:543:CD:9876, H-A:TYR:484:OH:4343, H-A:GLU:543:OE2:4905, H-A:GLU:543:OE1:4904, V-A:GLU:543:C:4897, V-A:LYS:547:CE:4945, V-B:HIS:456:CD2:9035, H-A:LYS:547:NZ:4946, H-B:GLU:543:OE2:9878, V-B:LYS:547:CE:9918"]

$$$$
4bi_Grossjean_2025
     RDKit          3D

 23 25  0  0  0  0  0  0  0  0999 V2000
  123.7520  129.8770   66.3710 C   0  0  0  0  0  0  0  0  0  0  0  0
  124.9940  129.2040   65.8130 C   0  0  0  0  0  0  0  0  0  0  0  0
  125.2450  129.1850   64.4440 C   0  0  0  0  0  0  0  0  0  0  0  0
  126.4000  128.5630   63.9420 C   0  0  0  0  0  0  0  0  0  0  0  0
  126.6390  128.5750   62.4290 C   0  0  0  0  0  0  0  0  0  0  0  0
  127.8380  129.0540   62.0930 F   0  0  0  0  0  0  0  0  0  0  0  0
  126.5560  127.3340   61.9490 F   0  0  0  0  0  0  0  0  0  0  0  0
  125.7220  129.3390   61.8330 F   0  0  0  0  0  0  0  0  0  0  0  0
  127.2810  127.9610   64.8900 C   0  0  0  0  0  0  0  0  0  0  0  0
  128.5260  127.2470   64.7560 C   0  0  0  0  0  0  0  0  0  0  0  0
  129.1160  127.0060   63.5410 N   0  0  0  0  0  0  0  0  0  0  0  0
  129.0830  126.8270   65.9760 C   0  0  0  0  0  0  0  0  0  0  0  0
  130.3190  126.0740   66.2050 C   0  0  0  0  0  0  0  0  0  0  0  0
  130.4090  125.2860   67.1480 O   0  0  0  0  0  0  0  0  0  0  0  0
  131.3130  126.2990   65.3100 N   0  0  0  0  0  0  0  0  0  0  0  0
  132.5730  125.7170   65.2820 C   0  0  0  0  0  0  0  0  0  0  0  0
  133.4470  125.7400   66.3670 C   0  0  0  0  0  0  0  0  0  0  0  0
  134.5690  125.0670   65.9390 C   0  0  0  0  0  0  0  0  0  0  0  0
  134.3790  124.6590   64.6620 O   0  0  0  0  0  0  0  0  0  0  0  0
  133.1100  125.0770   64.2560 N   0  0  0  0  0  0  0  0  0  0  0  0
  128.0590  127.2870   67.3340 S   0  0  0  0  0  0  0  0  0  0  0  0
  126.9060  128.0520   66.2660 C   0  0  0  0  0  0  0  0  0  0  0  0
  125.8090  128.6450   66.7360 N   0  0  0  0  0  0  0  0  0  0  0  0
  1  2  1  0
  2  3  2  0
  3  4  1  0
  4  5  1  0
  5  6  1  0
  5  7  1  0
  5  8  1  0
  4  9  2  0
  9 10  1  0
 10 11  1  0
 10 12  2  0
 12 13  1  0
 13 14  2  0
 13 15  1  0
 15 16  1  0
 16 17  1  0
 17 18  2  0
 18 19  1  0
 19 20  1  0
 12 21  1  0
 21 22  1  0
 22 23  2  0
 23  2  1  0
 22  9  1  0
 20 16  2  0
M  END
>  <Binding energies>  (52) 
[-5.72]

>  <Ligand effiencies>  (52) 
[-0.22]

>  <Interactions>  (52) 
["V-B:GLU:543:CG:9875, V-A:HIS:456:CE1:4064, V-B:GLU:543:CB:9874, V-B:HIS:456:CE1:9037, V-A:GLU:543:CD:4903, V-B:GLU:543:CD:9876, H-A:TYR:484:OH:4343, H-A:ARG:545:NH2:4923, H-A:GLY:454:N:4045, V-A:ARG:545:CZ:4921, H-A:GLU:543:OE2:4905, H-A:HIS:456:NE2:4065, V-B:ARG:545:CG:9890, H-A:GLU:543:OE1:4904, V-B:ARG:545:CD:9891, H-B:GLU:543:OE2:9878, V-B:ARG:545:CZ:9894, V-A:ARG:545:CD:4918, V-A:GLY:453:CA:4039, V-A:ARG:545:CG:4917, V-A:HIS:456:CD2:4063, V-A:GLY:453:C:4037, H-B:HIS:456:ND1:9034"]

$$$$
4bj_Grossjean_2025
     RDKit          3D

 23 25  0  0  0  0  0  0  0  0999 V2000
  135.3100  125.2610   66.4180 C   0  0  0  0  0  0  0  0  0  0  0  0
  134.0910  125.0920   65.5280 C   0  0  0  0  0  0  0  0  0  0  0  0
  132.8160  125.4020   65.9920 C   0  0  0  0  0  0  0  0  0  0  0  0
  131.6970  125.2360   65.1610 C   0  0  0  0  0  0  0  0  0  0  0  0
  130.3120  125.5880   65.7170 C   0  0  0  0  0  0  0  0  0  0  0  0
  130.3650  126.1700   66.9170 F   0  0  0  0  0  0  0  0  0  0  0  0
  129.6950  126.4310   64.8900 F   0  0  0  0  0  0  0  0  0  0  0  0
  129.5830  124.4790   65.8420 F   0  0  0  0  0  0  0  0  0  0  0  0
  131.9310  124.7450   63.8420 C   0  0  0  0  0  0  0  0  0  0  0  0
  131.0550  124.4480   62.7340 C   0  0  0  0  0  0  0  0  0  0  0  0
  129.6950  124.6150   62.8000 N   0  0  0  0  0  0  0  0  0  0  0  0
  131.7180  123.9840   61.5870 C   0  0  0  0  0  0  0  0  0  0  0  0
  131.1440  123.5850   60.3000 C   0  0  0  0  0  0  0  0  0  0  0  0
  131.8710  123.2730   59.3540 O   0  0  0  0  0  0  0  0  0  0  0  0
  129.7900  123.5740   60.2450 N   0  0  0  0  0  0  0  0  0  0  0  0
  129.0030  123.2250   59.1560 C   0  0  0  0  0  0  0  0  0  0  0  0
  129.3990  122.8540   57.9580 N   0  0  0  0  0  0  0  0  0  0  0  0
  128.3770  122.5910   57.1680 C   0  0  0  0  0  0  0  0  0  0  0  0
  127.1120  122.7500   57.7260 C   0  0  0  0  0  0  0  0  0  0  0  0
  127.2820  123.2760   59.3740 S   0  0  0  0  0  0  0  0  0  0  0  0
  133.4570  123.8780   61.8530 S   0  0  0  0  0  0  0  0  0  0  0  0
  133.2880  124.4690   63.4900 C   0  0  0  0  0  0  0  0  0  0  0  0
  134.3470  124.6260   64.2840 N   0  0  0  0  0  0  0  0  0  0  0  0
  1  2  1  0
  2  3  2  0
  3  4  1  0
  4  5  1  0
  5  6  1  0
  5  7  1  0
  5  8  1  0
  4  9  2  0
  9 10  1  0
 10 11  1  0
 10 12  2  0
 12 13  1  0
 13 14  2  0
 13 15  1  0
 15 16  1  0
 16 17  2  0
 17 18  1  0
 18 19  2  0
 19 20  1  0
 12 21  1  0
 21 22  1  0
 22 23  2  0
 23  2  1  0
 22  9  1  0
 20 16  1  0
M  END
>  <Binding energies>  (53) 
[-5.63]

>  <Ligand effiencies>  (53) 
[-0.21653846153846154]

>  <Interactions>  (53) 
["V-B:GLU:543:CG:9875, V-A:HIS:456:CE1:4064, V-B:GLU:543:CB:9874, V-B:TYR:539:C:9835, V-B:TYR:539:CD2:9842, V-B:TYR:539:CE2:9844, V-A:ILE:369:CD1:3234, V-B:TYR:539:CZ:9845, V-A:ASP:366:CG:3208, V-A:TYR:484:CE1:4340, V-B:GLU:543:CD:9876, H-A:ARG:545:NH1:4922, H-A:TYR:484:OH:4343, H-A:GLY:454:N:4045, V-A:ARG:545:CZ:4921, V-B:PRO:540:CA:9851, V-B:TYR:539:CE1:9843, H-B:GLU:543:OE2:9878, V-A:ARG:545:CD:4918, V-A:GLY:453:CA:4039, V-A:ARG:545:CG:4917, V-A:HIS:456:CD2:4063, V-A:GLY:453:C:4037, V-B:PRO:540:N:9852, V-B:TYR:539:CG:9840, V-A:ARG:545:CB:4916"]

$$$$
4bk_Grossjean_2025
     RDKit          3D

 28 29  0  0  0  0  0  0  0  0999 V2000
  125.3990  125.6030   57.9280 C   0  0  0  0  0  0  0  0  0  0  0  0
  124.9610  124.6350   56.9860 O   0  0  0  0  0  0  0  0  0  0  0  0
  125.0190  123.3020   57.4760 C   0  0  0  0  0  0  0  0  0  0  0  0
  125.4510  122.3590   56.3460 C   0  0  0  0  0  0  0  0  0  0  0  0
  126.7830  121.9210   56.5800 O   0  0  0  0  0  0  0  0  0  0  0  0
  127.5500  122.8150   57.3750 C   0  0  0  0  0  0  0  0  0  0  0  0
  128.6650  123.4300   56.5190 C   0  0  0  0  0  0  0  0  0  0  0  0
  129.1200  124.6290   57.1310 O   0  0  0  0  0  0  0  0  0  0  0  0
  130.5370  124.7380   57.1980 C   0  0  0  0  0  0  0  0  0  0  0  0
  131.1090  123.5070   57.9230 C   0  0  0  0  0  0  0  0  0  0  0  0
  131.5510  123.7830   59.2910 N   0  0  0  0  0  0  0  0  0  0  0  0
  130.7710  124.2720   60.2780 C   0  0  0  0  0  0  0  0  0  0  0  0
  129.5750  124.5190   60.1130 O   0  0  0  0  0  0  0  0  0  0  0  0
  131.4260  124.4870   61.5690 C   0  0  0  0  0  0  0  0  0  0  0  0
  133.1450  124.1510   61.7550 S   0  0  0  0  0  0  0  0  0  0  0  0
  133.1090  124.6600   63.4260 C   0  0  0  0  0  0  0  0  0  0  0  0
  134.2040  124.6360   64.1850 N   0  0  0  0  0  0  0  0  0  0  0  0
  134.0520  125.0550   65.4620 C   0  0  0  0  0  0  0  0  0  0  0  0
  135.3130  125.0210   66.3070 C   0  0  0  0  0  0  0  0  0  0  0  0
  132.8420  125.4940   65.9940 C   0  0  0  0  0  0  0  0  0  0  0  0
  131.6840  125.5210   65.2010 C   0  0  0  0  0  0  0  0  0  0  0  0
  130.3760  126.0090   65.8310 C   0  0  0  0  0  0  0  0  0  0  0  0
  129.7860  126.9780   65.1270 F   0  0  0  0  0  0  0  0  0  0  0  0
  129.5130  124.9970   65.9190 F   0  0  0  0  0  0  0  0  0  0  0  0
  130.6140  126.4900   67.0500 F   0  0  0  0  0  0  0  0  0  0  0  0
  131.8100  125.0860   63.8470 C   0  0  0  0  0  0  0  0  0  0  0  0
  130.8700  124.9790   62.7590 C   0  0  0  0  0  0  0  0  0  0  0  0
  129.5490  125.3260   62.8830 N   0  0  0  0  0  0  0  0  0  0  0  0
  1  2  1  0
  2  3  1  0
  3  4  1  0
  4  5  1  0
  5  6  1  0
  6  7  1  0
  7  8  1  0
  8  9  1  0
  9 10  1  0
 10 11  1  0
 11 12  1  0
 12 13  2  0
 12 14  1  0
 14 15  1  0
 15 16  1  0
 16 17  2  0
 17 18  1  0
 18 19  1  0
 18 20  2  0
 20 21  1  0
 21 22  1  0
 22 23  1  0
 22 24  1  0
 22 25  1  0
 21 26  2  0
 26 27  1  0
 27 28  1  0
 27 14  2  0
 26 16  1  0
M  END
>  <Binding energies>  (54) 
[-5.4]

>  <Ligand effiencies>  (54) 
[-0.17419354838709677]

>  <Interactions>  (54) 
["V-B:GLU:543:CG:9875, V-A:HIS:456:CE1:4064, V-B:GLU:543:CB:9874, V-B:TYR:539:C:9835, V-B:TYR:539:CE2:9844, V-B:TYR:539:CZ:9845, V-A:ASP:366:CG:3208, V-A:GLU:543:CD:4903, V-B:GLU:543:CD:9876, H-A:TYR:484:OH:4343, H-A:GLY:454:N:4045, V-A:GLY:454:CA:4044, V-A:ARG:545:CZ:4921, V-B:PRO:540:CB:9853, V-B:PRO:540:CA:9851, V-B:ASP:366:CB:8179, V-B:TYR:539:CE1:9843, H-B:GLU:543:OE2:9878, V-B:ASP:366:CG:8180, V-A:ARG:545:CD:4918, V-A:GLY:453:CA:4039, V-A:ARG:545:CG:4917, V-A:HIS:456:CD2:4063, V-A:GLY:453:C:4037, V-B:LEU:363:CD1:8156, V-B:PRO:540:CD:9855, V-B:PRO:540:N:9852, V-B:MET:535:CE:9803, V-B:ILE:538:CG2:9831, H-B:TYR:531:OH:9763, H-B:TYR:539:N:9838"]

$$$$
4cd_Grossjean_2025
     RDKit          3D

 29 32  0  0  0  0  0  0  0  0999 V2000
  129.2610  126.5060   63.7090 N   0  0  0  0  0  0  0  0  0  0  0  0
  129.5430  126.0090   64.9560 C   0  0  0  0  0  0  0  0  0  0  0  0
  130.0080  124.7020   65.1760 C   0  0  0  0  0  0  0  0  0  0  0  0
  130.2610  123.6450   64.1930 C   0  0  0  0  0  0  0  0  0  0  0  0
  130.9760  122.6830   64.4750 O   0  0  0  0  0  0  0  0  0  0  0  0
  129.6540  123.8110   62.9920 N   0  0  0  0  0  0  0  0  0  0  0  0
  129.7300  123.0190   61.8320 C   0  0  0  0  0  0  0  0  0  0  0  0
  129.5360  123.6880   60.6200 C   0  0  0  0  0  0  0  0  0  0  0  0
  129.6050  122.9930   59.4160 C   0  0  0  0  0  0  0  0  0  0  0  0
  129.8760  121.6280   59.4210 C   0  0  0  0  0  0  0  0  0  0  0  0
  130.0840  120.9510   60.6200 C   0  0  0  0  0  0  0  0  0  0  0  0
  130.0150  121.6430   61.8280 C   0  0  0  0  0  0  0  0  0  0  0  0
  130.2760  124.4040   66.8920 S   0  0  0  0  0  0  0  0  0  0  0  0
  129.7560  126.0210   67.3010 C   0  0  0  0  0  0  0  0  0  0  0  0
  129.7270  126.4430   68.5630 N   0  0  0  0  0  0  0  0  0  0  0  0
  129.2950  127.7120   68.7840 C   0  0  0  0  0  0  0  0  0  0  0  0
  129.2700  128.1580   70.2170 C   0  0  0  0  0  0  0  0  0  0  0  0
  130.4010  128.7460   70.8060 C   0  0  0  0  0  0  0  0  0  0  0  0
  130.3850  129.1630   72.1340 C   0  0  0  0  0  0  0  0  0  0  0  0
  129.2330  128.9980   72.8950 C   0  0  0  0  0  0  0  0  0  0  0  0
  128.0970  128.4220   72.3350 C   0  0  0  0  0  0  0  0  0  0  0  0
  128.1170  128.0090   71.0070 C   0  0  0  0  0  0  0  0  0  0  0  0
  128.9130  128.5560   67.7370 C   0  0  0  0  0  0  0  0  0  0  0  0
  128.9440  128.1220   66.4010 C   0  0  0  0  0  0  0  0  0  0  0  0
  128.5090  129.0980   65.3020 C   0  0  0  0  0  0  0  0  0  0  0  0
  129.2900  129.0510   64.2200 F   0  0  0  0  0  0  0  0  0  0  0  0
  127.2670  128.8130   64.9110 F   0  0  0  0  0  0  0  0  0  0  0  0
  128.5480  130.3470   65.7670 F   0  0  0  0  0  0  0  0  0  0  0  0
  129.3840  126.7890   66.1590 C   0  0  0  0  0  0  0  0  0  0  0  0
  1  2  1  0
  2  3  2  0
  3  4  1  0
  4  5  2  0
  4  6  1  0
  6  7  1  0
  7  8  2  0
  8  9  1  0
  9 10  2  0
 10 11  1  0
 11 12  2  0
  3 13  1  0
 13 14  1  0
 14 15  2  0
 15 16  1  0
 16 17  1  0
 17 18  2  0
 18 19  1  0
 19 20  2  0
 20 21  1  0
 21 22  2  0
 16 23  2  0
 23 24  1  0
 24 25  1  0
 25 26  1  0
 25 27  1  0
 25 28  1  0
 24 29  2  0
 29  2  1  0
 12  7  1  0
 29 14  1  0
 22 17  1  0
M  END
>  <Binding energies>  (55) 
[-7.13]

>  <Ligand effiencies>  (55) 
[-0.2228125]

>  <Interactions>  (55) 
["V-B:GLU:543:CG:9875, V-A:HIS:456:CE1:4064, V-B:ALA:541:CB:9860, V-B:GLU:543:CB:9874, V-B:TYR:539:C:9835, V-B:TYR:539:CD2:9842, V-A:GLU:543:CB:4901, V-B:TYR:539:CE2:9844, V-B:HIS:456:CE1:9037, V-A:TYR:484:CZ:4342, V-A:GLU:543:CG:4902, V-A:TYR:484:CE1:4340, V-A:GLU:543:CD:4903, V-B:GLU:543:CD:9876, H-A:TYR:484:OH:4343, H-A:GLU:543:OE2:4905, H-A:HIS:456:NE2:4065, H-A:GLU:543:OE1:4904, V-A:GLY:544:C:4907, V-A:GLU:543:C:4897, V-A:LYS:547:CE:4945, V-B:HIS:456:CD2:9035, V-B:TYR:484:CZ:9314, H-B:GLU:543:OE2:9878, H-B:GLU:543:OE1:9877"]

$$$$
4cg_Grossjean_2025
     RDKit          3D

 30 33  0  0  0  0  0  0  0  0999 V2000
  129.3050  126.5080   63.6180 N   0  0  0  0  0  0  0  0  0  0  0  0
  129.5540  126.0050   64.8700 C   0  0  0  0  0  0  0  0  0  0  0  0
  129.9360  124.6760   65.1010 C   0  0  0  0  0  0  0  0  0  0  0  0
  130.1870  123.6160   64.1250 C   0  0  0  0  0  0  0  0  0  0  0  0
  130.9990  122.7160   64.3480 O   0  0  0  0  0  0  0  0  0  0  0  0
  129.5090  123.7100   62.9620 N   0  0  0  0  0  0  0  0  0  0  0  0
  129.5850  122.7560   61.8570 C   0  0  0  0  0  0  0  0  0  0  0  0
  128.5540  123.0110   60.7630 C   0  0  0  0  0  0  0  0  0  0  0  0
  128.8720  122.7310   59.4310 C   0  0  0  0  0  0  0  0  0  0  0  0
  127.9220  122.9330   58.4320 C   0  0  0  0  0  0  0  0  0  0  0  0
  126.6560  123.4040   58.7710 C   0  0  0  0  0  0  0  0  0  0  0  0
  126.3280  123.6690   60.0990 C   0  0  0  0  0  0  0  0  0  0  0  0
  127.2760  123.4660   61.0970 C   0  0  0  0  0  0  0  0  0  0  0  0
  130.1940  124.3710   66.8160 S   0  0  0  0  0  0  0  0  0  0  0  0
  129.7660  126.0180   67.2150 C   0  0  0  0  0  0  0  0  0  0  0  0
  129.7670  126.4500   68.4730 N   0  0  0  0  0  0  0  0  0  0  0  0
  129.4250  127.7480   68.6870 C   0  0  0  0  0  0  0  0  0  0  0  0
  129.4340  128.2040   70.1180 C   0  0  0  0  0  0  0  0  0  0  0  0
  130.5940  128.7450   70.6960 C   0  0  0  0  0  0  0  0  0  0  0  0
  130.6070  129.1680   72.0210 C   0  0  0  0  0  0  0  0  0  0  0  0
  129.4560  129.0540   72.7940 C   0  0  0  0  0  0  0  0  0  0  0  0
  128.2940  128.5190   72.2490 C   0  0  0  0  0  0  0  0  0  0  0  0
  128.2850  128.0980   70.9230 C   0  0  0  0  0  0  0  0  0  0  0  0
  129.0670  128.5990   67.6350 C   0  0  0  0  0  0  0  0  0  0  0  0
  129.0620  128.1540   66.3040 C   0  0  0  0  0  0  0  0  0  0  0  0
  128.6580  129.1390   65.2010 C   0  0  0  0  0  0  0  0  0  0  0  0
  129.4320  129.0570   64.1170 F   0  0  0  0  0  0  0  0  0  0  0  0
  127.4050  128.8960   64.8170 F   0  0  0  0  0  0  0  0  0  0  0  0
  128.7440  130.3870   65.6580 F   0  0  0  0  0  0  0  0  0  0  0  0
  129.4340  126.7980   66.0690 C   0  0  0  0  0  0  0  0  0  0  0  0
  1  2  1  0
  2  3  2  0
  3  4  1  0
  4  5  2  0
  4  6  1  0
  6  7  1  0
  7  8  1  0
  8  9  2  0
  9 10  1  0
 10 11  2  0
 11 12  1  0
 12 13  2  0
  3 14  1  0
 14 15  1  0
 15 16  2  0
 16 17  1  0
 17 18  1  0
 18 19  2  0
 19 20  1  0
 20 21  2  0
 21 22  1  0
 22 23  2  0
 17 24  2  0
 24 25  1  0
 25 26  1  0
 26 27  1  0
 26 28  1  0
 26 29  1  0
 25 30  2  0
 30  2  1  0
 13  8  1  0
 30 15  1  0
 23 18  1  0
M  END
>  <Binding energies>  (56) 
[-7.36]

>  <Ligand effiencies>  (56) 
[-0.22303030303030305]

>  <Interactions>  (56) 
["V-B:GLU:543:CG:9875, V-A:HIS:456:CE1:4064, V-B:ALA:541:CB:9860, V-B:GLU:543:CB:9874, V-B:TYR:539:C:9835, V-A:GLU:543:CB:4901, V-B:HIS:456:CE1:9037, V-A:TYR:484:CZ:4342, V-A:GLU:543:CG:4902, V-A:TYR:484:CE1:4340, V-A:GLU:543:CD:4903, V-B:GLU:543:CD:9876, H-A:TYR:484:OH:4343, V-B:PRO:540:CB:9853, V-B:PRO:540:CA:9851, H-A:GLU:543:OE2:4905, H-A:HIS:456:NE2:4065, H-A:GLU:543:OE1:4904, V-A:GLY:544:C:4907, V-A:GLU:543:C:4897, V-A:LYS:547:CE:4945, V-B:HIS:456:CD2:9035, V-A:GLY:544:CA:4909, H-B:GLU:543:OE2:9878, V-B:PRO:540:N:9852"]

$$$$
4ch_Grossjean_2025
     RDKit          3D

 36 39  0  0  0  0  0  0  0  0999 V2000
  124.4090  123.4930   61.7670 C   0  0  0  0  0  0  0  0  0  0  0  0
  124.9460  123.8580   60.5000 O   0  0  0  0  0  0  0  0  0  0  0  0
  126.2310  123.4680   60.1700 C   0  0  0  0  0  0  0  0  0  0  0  0
  127.2670  123.3100   61.1050 C   0  0  0  0  0  0  0  0  0  0  0  0
  128.5420  122.9110   60.7010 C   0  0  0  0  0  0  0  0  0  0  0  0
  129.6610  122.7720   61.7260 C   0  0  0  0  0  0  0  0  0  0  0  0
  129.5670  123.7070   62.8480 N   0  0  0  0  0  0  0  0  0  0  0  0
  130.2770  123.6320   63.9930 C   0  0  0  0  0  0  0  0  0  0  0  0
  131.1190  122.7540   64.1950 O   0  0  0  0  0  0  0  0  0  0  0  0
  130.0180  124.6830   64.9780 C   0  0  0  0  0  0  0  0  0  0  0  0
  130.3000  124.3770   66.6890 S   0  0  0  0  0  0  0  0  0  0  0  0
  129.8140  126.0030   67.1040 C   0  0  0  0  0  0  0  0  0  0  0  0
  129.8040  126.4240   68.3660 N   0  0  0  0  0  0  0  0  0  0  0  0
  129.4170  127.7070   68.5920 C   0  0  0  0  0  0  0  0  0  0  0  0
  129.4100  128.1480   70.0270 C   0  0  0  0  0  0  0  0  0  0  0  0
  128.2590  128.0020   70.8190 C   0  0  0  0  0  0  0  0  0  0  0  0
  128.2450  128.4100   72.1500 C   0  0  0  0  0  0  0  0  0  0  0  0
  129.3860  128.9730   72.7110 C   0  0  0  0  0  0  0  0  0  0  0  0
  130.5390  129.1340   71.9480 C   0  0  0  0  0  0  0  0  0  0  0  0
  130.5470  128.7260   70.6170 C   0  0  0  0  0  0  0  0  0  0  0  0
  129.0260  128.5540   67.5500 C   0  0  0  0  0  0  0  0  0  0  0  0
  129.0320  128.1200   66.2140 C   0  0  0  0  0  0  0  0  0  0  0  0
  128.5920  129.1000   65.1220 C   0  0  0  0  0  0  0  0  0  0  0  0
  129.3700  129.0610   64.0370 F   0  0  0  0  0  0  0  0  0  0  0  0
  127.3500  128.8150   64.7330 F   0  0  0  0  0  0  0  0  0  0  0  0
  128.6290  130.3470   65.5920 F   0  0  0  0  0  0  0  0  0  0  0  0
  129.4490  126.7810   65.9660 C   0  0  0  0  0  0  0  0  0  0  0  0
  129.5860  126.0010   64.7600 C   0  0  0  0  0  0  0  0  0  0  0  0
  129.3100  126.5030   63.5140 N   0  0  0  0  0  0  0  0  0  0  0  0
  128.7940  122.6820   59.3470 C   0  0  0  0  0  0  0  0  0  0  0  0
  127.7780  122.8330   58.3900 C   0  0  0  0  0  0  0  0  0  0  0  0
  127.9560  122.6220   57.0350 O   0  0  0  0  0  0  0  0  0  0  0  0
  128.8140  123.4880   56.3000 C   0  0  0  0  0  0  0  0  0  0  0  0
  126.4990  123.2200   58.8160 C   0  0  0  0  0  0  0  0  0  0  0  0
  125.4990  123.3870   57.8880 O   0  0  0  0  0  0  0  0  0  0  0  0
  125.0510  124.7290   57.7550 C   0  0  0  0  0  0  0  0  0  0  0  0
  1  2  1  0
  2  3  1  0
  3  4  2  0
  4  5  1  0
  5  6  1  0
  6  7  1  0
  7  8  1  0
  8  9  2  0
  8 10  1  0
 10 11  1  0
 11 12  1  0
 12 13  2  0
 13 14  1  0
 14 15  1  0
 15 16  2  0
 16 17  1  0
 17 18  2  0
 18 19  1  0
 19 20  2  0
 14 21  2  0
 21 22  1  0
 22 23  1  0
 23 24  1  0
 23 25  1  0
 23 26  1  0
 22 27  2  0
 27 28  1  0
 28 29  1  0
  5 30  2  0
 30 31  1  0
 31 32  1  0
 32 33  1  0
 31 34  2  0
 34 35  1  0
 35 36  1  0
 34  3  1  0
 28 10  2  0
 27 12  1  0
 20 15  1  0
M  END
>  <Binding energies>  (57) 
[-7.55]

>  <Ligand effiencies>  (57) 
[-0.1935897435897436]

>  <Interactions>  (57) 
["V-B:GLU:543:CG:9875, V-A:HIS:456:CE1:4064, V-B:ALA:541:CB:9860, V-B:GLU:543:CB:9874, V-B:TYR:539:C:9835, V-A:GLU:543:CB:4901, V-B:TYR:539:CZ:9845, V-B:HIS:456:CE1:9037, V-A:TYR:484:CZ:4342, V-A:GLU:543:CG:4902, V-A:TYR:484:CE1:4340, V-A:GLU:543:CD:4903, V-B:GLU:543:CD:9876, H-A:TYR:484:OH:4343, V-B:ASN:362:CB:8143, V-B:PRO:540:CB:9853, V-B:PRO:540:CA:9851, H-A:GLU:543:OE2:4905, H-A:HIS:456:NE2:4065, H-A:GLU:543:OE1:4904, V-A:GLY:544:C:4907, V-A:GLU:543:C:4897, V-A:LYS:547:CE:4945, V-B:HIS:456:CD2:9035, V-A:GLY:544:CA:4909, V-B:TYR:539:CE1:9843, H-B:GLU:543:OE2:9878, V-B:PRO:540:N:9852, V-B:MET:535:CE:9803"]

$$$$
4cj_Grossjean_2025
     RDKit          3D

 28 31  0  0  0  0  0  0  0  0999 V2000
  129.2380  126.5880   63.7770 N   0  0  0  0  0  0  0  0  0  0  0  0
  129.5200  126.0820   65.0210 C   0  0  0  0  0  0  0  0  0  0  0  0
  129.9600  124.7660   65.2340 C   0  0  0  0  0  0  0  0  0  0  0  0
  130.2080  123.7140   64.2450 C   0  0  0  0  0  0  0  0  0  0  0  0
  131.0050  122.8020   64.4800 O   0  0  0  0  0  0  0  0  0  0  0  0
  129.5170  123.8320   63.0840 N   0  0  0  0  0  0  0  0  0  0  0  0
  129.5700  122.9750   61.9930 C   0  0  0  0  0  0  0  0  0  0  0  0
  128.5640  122.3900   61.3770 N   0  0  0  0  0  0  0  0  0  0  0  0
  128.9800  121.6430   60.3730 C   0  0  0  0  0  0  0  0  0  0  0  0
  130.3540  121.6120   60.1560 C   0  0  0  0  0  0  0  0  0  0  0  0
  131.1360  122.6210   61.3370 S   0  0  0  0  0  0  0  0  0  0  0  0
  130.2390  124.4570   66.9470 S   0  0  0  0  0  0  0  0  0  0  0  0
  129.7620  126.0870   67.3630 C   0  0  0  0  0  0  0  0  0  0  0  0
  129.7650  126.5100   68.6240 N   0  0  0  0  0  0  0  0  0  0  0  0
  129.3870  127.7940   68.8510 C   0  0  0  0  0  0  0  0  0  0  0  0
  129.4140  128.2430   70.2840 C   0  0  0  0  0  0  0  0  0  0  0  0
  130.5920  128.7520   70.8550 C   0  0  0  0  0  0  0  0  0  0  0  0
  130.6250  129.1650   72.1850 C   0  0  0  0  0  0  0  0  0  0  0  0
  129.4770  129.0720   72.9650 C   0  0  0  0  0  0  0  0  0  0  0  0
  128.2990  128.5690   72.4250 C   0  0  0  0  0  0  0  0  0  0  0  0
  128.2700  128.1590   71.0950 C   0  0  0  0  0  0  0  0  0  0  0  0
  128.9840  128.6390   67.8120 C   0  0  0  0  0  0  0  0  0  0  0  0
  128.9750  128.2030   66.4770 C   0  0  0  0  0  0  0  0  0  0  0  0
  128.5250  129.1830   65.3870 C   0  0  0  0  0  0  0  0  0  0  0  0
  129.2760  129.1220   64.2860 F   0  0  0  0  0  0  0  0  0  0  0  0
  127.2700  128.9130   65.0310 F   0  0  0  0  0  0  0  0  0  0  0  0
  128.5920  130.4320   65.8480 F   0  0  0  0  0  0  0  0  0  0  0  0
  129.3890  126.8630   66.2270 C   0  0  0  0  0  0  0  0  0  0  0  0
  1  2  1  0
  2  3  2  0
  3  4  1  0
  4  5  2  0
  4  6  1  0
  6  7  1  0
  7  8  2  0
  8  9  1  0
  9 10  2  0
 10 11  1  0
  3 12  1  0
 12 13  1  0
 13 14  2  0
 14 15  1  0
 15 16  1  0
 16 17  2  0
 17 18  1  0
 18 19  2  0
 19 20  1  0
 20 21  2  0
 15 22  2  0
 22 23  1  0
 23 24  1  0
 24 25  1  0
 24 26  1  0
 24 27  1  0
 23 28  2  0
 28  2  1  0
 11  7  1  0
 28 13  1  0
 21 16  1  0
M  END
>  <Binding energies>  (58) 
[-6.82]

>  <Ligand effiencies>  (58) 
[-0.22]

>  <Interactions>  (58) 
["V-B:PRO:540:C:9849, V-B:GLU:543:CG:9875, V-A:HIS:456:CE1:4064, V-B:ALA:541:CB:9860, V-B:GLU:543:CB:9874, V-B:TYR:539:C:9835, V-B:TYR:539:CD2:9842, V-A:GLU:543:CB:4901, V-B:TYR:539:CE2:9844, V-B:HIS:456:CE1:9037, V-A:TYR:484:CZ:4342, V-A:GLU:543:CG:4902, V-A:TYR:484:CE1:4340, V-A:GLU:543:CD:4903, V-B:GLU:543:CD:9876, H-A:TYR:484:OH:4343, H-B:ALA:541:N:9859, V-B:PRO:540:CA:9851, H-A:GLU:543:OE2:4905, H-A:HIS:456:NE2:4065, H-A:GLU:543:OE1:4904, V-A:GLY:544:C:4907, V-A:GLU:543:C:4897, V-A:LYS:547:CE:4945, V-B:HIS:456:CD2:9035, V-B:TYR:484:CE1:9312, V-B:TYR:484:CZ:9314, V-A:GLY:544:CA:4909, H-B:GLU:543:OE2:9878, H-B:GLU:543:OE1:9877"]

$$$$
4ck_Grossjean_2025
     RDKit          3D

 33 35  0  0  0  0  0  0  0  0999 V2000
  133.6600  125.4850   65.9820 C   0  0  0  0  0  0  0  0  0  0  0  0
  134.2770  124.9150   64.8390 O   0  0  0  0  0  0  0  0  0  0  0  0
  133.6110  125.2260   63.6230 C   0  0  0  0  0  0  0  0  0  0  0  0
  134.1070  124.2790   62.5230 C   0  0  0  0  0  0  0  0  0  0  0  0
  134.0060  122.9390   62.9850 O   0  0  0  0  0  0  0  0  0  0  0  0
  133.4050  122.0580   62.0460 C   0  0  0  0  0  0  0  0  0  0  0  0
  132.9140  122.8690   60.8400 C   0  0  0  0  0  0  0  0  0  0  0  0
  131.7540  123.5970   61.2200 O   0  0  0  0  0  0  0  0  0  0  0  0
  130.5480  123.0910   60.6600 C   0  0  0  0  0  0  0  0  0  0  0  0
  129.6190  122.6120   61.7860 C   0  0  0  0  0  0  0  0  0  0  0  0
  129.5450  123.5740   62.8850 N   0  0  0  0  0  0  0  0  0  0  0  0
  130.3500  123.6010   63.9680 C   0  0  0  0  0  0  0  0  0  0  0  0
  131.2770  122.8050   64.1270 O   0  0  0  0  0  0  0  0  0  0  0  0
  130.0670  124.6480   64.9500 C   0  0  0  0  0  0  0  0  0  0  0  0
  130.3240  124.3420   66.6660 S   0  0  0  0  0  0  0  0  0  0  0  0
  129.8470  125.9740   67.0720 C   0  0  0  0  0  0  0  0  0  0  0  0
  129.8320  126.4010   68.3320 N   0  0  0  0  0  0  0  0  0  0  0  0
  129.4450  127.6850   68.5500 C   0  0  0  0  0  0  0  0  0  0  0  0
  129.4560  128.1410   69.9810 C   0  0  0  0  0  0  0  0  0  0  0  0
  130.6040  128.7230   70.5410 C   0  0  0  0  0  0  0  0  0  0  0  0
  130.6220  129.1460   71.8680 C   0  0  0  0  0  0  0  0  0  0  0  0
  129.4870  128.9920   72.6560 C   0  0  0  0  0  0  0  0  0  0  0  0
  128.3350  128.4220   72.1250 C   0  0  0  0  0  0  0  0  0  0  0  0
  128.3210  128.0020   70.7980 C   0  0  0  0  0  0  0  0  0  0  0  0
  129.0850  128.5360   67.5010 C   0  0  0  0  0  0  0  0  0  0  0  0
  129.0970  128.0960   66.1670 C   0  0  0  0  0  0  0  0  0  0  0  0
  128.6860  129.0820   65.0660 C   0  0  0  0  0  0  0  0  0  0  0  0
  129.4760  129.0270   63.9930 F   0  0  0  0  0  0  0  0  0  0  0  0
  127.4450  128.8130   64.6620 F   0  0  0  0  0  0  0  0  0  0  0  0
  128.7360  130.3280   65.5360 F   0  0  0  0  0  0  0  0  0  0  0  0
  129.4980  126.7510   65.9280 C   0  0  0  0  0  0  0  0  0  0  0  0
  129.6410  125.9660   64.7250 C   0  0  0  0  0  0  0  0  0  0  0  0
  129.3790  126.4660   63.4760 N   0  0  0  0  0  0  0  0  0  0  0  0
  1  2  1  0
  2  3  1  0
  3  4  1  0
  4  5  1  0
  5  6  1  0
  6  7  1  0
  7  8  1  0
  8  9  1  0
  9 10  1  0
 10 11  1  0
 11 12  1  0
 12 13  2  0
 12 14  1  0
 14 15  1  0
 15 16  1  0
 16 17  2  0
 17 18  1  0
 18 19  1  0
 19 20  2  0
 20 21  1  0
 21 22  2  0
 22 23  1  0
 23 24  2  0
 18 25  2  0
 25 26  1  0
 26 27  1  0
 27 28  1  0
 27 29  1  0
 27 30  1  0
 26 31  2  0
 31 32  1  0
 32 33  1  0
 32 14  2  0
 31 16  1  0
 24 19  1  0
M  END
>  <Binding energies>  (59) 
[-6.23]

>  <Ligand effiencies>  (59) 
[-0.17305555555555557]

>  <Interactions>  (59) 
["V-B:GLU:543:CG:9875, V-A:HIS:456:CE1:4064, V-B:ALA:541:CB:9860, V-B:GLU:543:CB:9874, V-A:LEU:475:CD2:4254, V-A:GLU:543:CB:4901, V-A:ILE:369:CD1:3234, V-A:ASP:366:CG:3208, V-B:HIS:456:CE1:9037, V-A:TYR:484:CZ:4342, V-A:GLU:543:CG:4902, V-A:TYR:484:CE1:4340, V-A:GLU:543:CD:4903, V-B:GLU:543:CD:9876, H-A:ARG:545:NH1:4922, H-A:TYR:484:OH:4343, H-A:ARG:545:NE:4919, H-A:GLY:454:N:4045, V-A:GLY:454:CA:4044, V-A:ARG:545:CZ:4921, H-A:GLU:543:OE2:4905, H-A:HIS:456:NE2:4065, H-A:GLU:543:OE1:4904, V-A:GLY:544:C:4907, V-A:GLU:543:C:4897, V-A:LYS:547:CE:4945, V-B:HIS:456:CD2:9035, V-A:GLY:544:CA:4909, H-B:GLU:543:OE2:9878, V-A:ARG:545:CD:4918, V-A:ARG:545:CG:4917, V-A:HIS:456:CD2:4063"]

$$$$
4dd_Grossjean_2025
     RDKit          3D

 26 29  0  0  0  0  0  0  0  0999 V2000
  128.7500  129.0860   65.2960 C   0  0  0  0  0  0  0  0  0  0  0  0
  129.0960  128.1000   66.4020 C   0  0  0  0  0  0  0  0  0  0  0  0
  129.0250  128.5430   67.7280 C   0  0  0  0  0  0  0  0  0  0  0  0
  129.3300  127.6840   68.7910 C   0  0  0  0  0  0  0  0  0  0  0  0
  129.2680  128.1340   70.2210 C   0  0  0  0  0  0  0  0  0  0  0  0
  130.3800  128.7310   70.8370 C   0  0  0  0  0  0  0  0  0  0  0  0
  130.3280  129.1530   72.1630 C   0  0  0  0  0  0  0  0  0  0  0  0
  129.1590  128.9810   72.8960 C   0  0  0  0  0  0  0  0  0  0  0  0
  128.0420  128.3940   72.3110 C   0  0  0  0  0  0  0  0  0  0  0  0
  128.0980  127.9760   70.9840 C   0  0  0  0  0  0  0  0  0  0  0  0
  129.7180  126.3960   68.5860 N   0  0  0  0  0  0  0  0  0  0  0  0
  129.7800  125.9710   67.3250 C   0  0  0  0  0  0  0  0  0  0  0  0
  130.2460  124.3340   66.9180 S   0  0  0  0  0  0  0  0  0  0  0  0
  130.0550  124.6580   65.1940 C   0  0  0  0  0  0  0  0  0  0  0  0
  130.2990  123.6010   64.2100 C   0  0  0  0  0  0  0  0  0  0  0  0
  130.9970  122.6270   64.4950 O   0  0  0  0  0  0  0  0  0  0  0  0
  129.7030  123.7810   63.0060 N   0  0  0  0  0  0  0  0  0  0  0  0
  129.7780  122.9930   61.8430 C   0  0  0  0  0  0  0  0  0  0  0  0
  129.5000  123.6500   60.6410 C   0  0  0  0  0  0  0  0  0  0  0  0
  129.5620  122.9600   59.4330 C   0  0  0  0  0  0  0  0  0  0  0  0
  129.9080  121.6120   59.4260 C   0  0  0  0  0  0  0  0  0  0  0  0
  130.1990  120.9480   60.6140 C   0  0  0  0  0  0  0  0  0  0  0  0
  130.1390  121.6350   61.8240 C   0  0  0  0  0  0  0  0  0  0  0  0
  129.6530  125.9840   64.9700 C   0  0  0  0  0  0  0  0  0  0  0  0
  129.4330  126.5150   63.7240 N   0  0  0  0  0  0  0  0  0  0  0  0
  129.4860  126.7550   66.1740 C   0  0  0  0  0  0  0  0  0  0  0  0
  1  2  1  0
  2  3  2  0
  3  4  1  0
  4  5  1  0
  5  6  2  0
  6  7  1  0
  7  8  2  0
  8  9  1  0
  9 10  2  0
  4 11  2  0
 11 12  1  0
 12 13  1  0
 13 14  1  0
 14 15  1  0
 15 16  2  0
 15 17  1  0
 17 18  1  0
 18 19  2  0
 19 20  1  0
 20 21  2  0
 21 22  1  0
 22 23  2  0
 14 24  2  0
 24 25  1  0
 24 26  1  0
 26  2  1  0
 10  5  1  0
 26 12  2  0
 23 18  1  0
M  END
>  <Binding energies>  (60) 
[-7.56]

>  <Ligand effiencies>  (60) 
[-0.26068965517241377]

>  <Interactions>  (60) 
["V-B:GLU:543:CG:9875, V-A:HIS:456:CE1:4064, V-B:ALA:541:CB:9860, V-B:GLU:543:CB:9874, V-B:TYR:539:C:9835, V-B:TYR:539:CD2:9842, V-A:GLU:543:CB:4901, V-B:TYR:539:CE2:9844, V-B:HIS:456:CE1:9037, V-A:TYR:484:CZ:4342, V-A:GLU:543:CG:4902, V-A:TYR:484:CE1:4340, V-A:GLU:543:CD:4903, V-B:GLU:543:CD:9876, H-A:TYR:484:OH:4343, H-A:GLU:543:OE2:4905, H-A:HIS:456:NE2:4065, H-A:GLU:543:OE1:4904, V-A:GLY:544:C:4907, V-A:GLU:543:C:4897, V-A:LYS:547:CE:4945, V-B:HIS:456:CD2:9035, H-B:GLU:543:OE2:9878"]

$$$$
4dg_Grossjean_2025
     RDKit          3D

 27 30  0  0  0  0  0  0  0  0999 V2000
  128.7690  129.0960   65.2340 C   0  0  0  0  0  0  0  0  0  0  0  0
  129.1330  128.1140   66.3380 C   0  0  0  0  0  0  0  0  0  0  0  0
  129.1210  128.5730   67.6600 C   0  0  0  0  0  0  0  0  0  0  0  0
  129.4460  127.7200   68.7210 C   0  0  0  0  0  0  0  0  0  0  0  0
  129.4400  128.1830   70.1510 C   0  0  0  0  0  0  0  0  0  0  0  0
  130.5850  128.7570   70.7270 C   0  0  0  0  0  0  0  0  0  0  0  0
  130.5860  129.1850   72.0530 C   0  0  0  0  0  0  0  0  0  0  0  0
  129.4380  129.0440   72.8240 C   0  0  0  0  0  0  0  0  0  0  0  0
  128.2900  128.4750   72.2800 C   0  0  0  0  0  0  0  0  0  0  0  0
  128.2940  128.0480   70.9550 C   0  0  0  0  0  0  0  0  0  0  0  0
  129.7680  126.4130   68.5190 N   0  0  0  0  0  0  0  0  0  0  0  0
  129.7810  125.9750   67.2600 C   0  0  0  0  0  0  0  0  0  0  0  0
  130.1830  124.3210   66.8600 S   0  0  0  0  0  0  0  0  0  0  0  0
  129.9550  124.6370   65.1400 C   0  0  0  0  0  0  0  0  0  0  0  0
  130.1970  123.5790   64.1610 C   0  0  0  0  0  0  0  0  0  0  0  0
  131.0010  122.6700   64.3820 O   0  0  0  0  0  0  0  0  0  0  0  0
  129.5190  123.6850   62.9990 N   0  0  0  0  0  0  0  0  0  0  0  0
  129.5870  122.7340   61.8890 C   0  0  0  0  0  0  0  0  0  0  0  0
  128.5810  123.0240   60.7810 C   0  0  0  0  0  0  0  0  0  0  0  0
  128.9180  122.7590   59.4500 C   0  0  0  0  0  0  0  0  0  0  0  0
  127.9910  122.9930   58.4390 C   0  0  0  0  0  0  0  0  0  0  0  0
  126.7260  123.4800   58.7620 C   0  0  0  0  0  0  0  0  0  0  0  0
  126.3770  123.7300   60.0870 C   0  0  0  0  0  0  0  0  0  0  0  0
  127.3040  123.4950   61.0990 C   0  0  0  0  0  0  0  0  0  0  0  0
  129.5990  125.9740   64.9100 C   0  0  0  0  0  0  0  0  0  0  0  0
  129.3730  126.5000   63.6630 N   0  0  0  0  0  0  0  0  0  0  0  0
  129.4810  126.7580   66.1100 C   0  0  0  0  0  0  0  0  0  0  0  0
  1  2  1  0
  2  3  2  0
  3  4  1  0
  4  5  1  0
  5  6  2  0
  6  7  1  0
  7  8  2  0
  8  9  1  0
  9 10  2  0
  4 11  2  0
 11 12  1  0
 12 13  1  0
 13 14  1  0
 14 15  1  0
 15 16  2  0
 15 17  1  0
 17 18  1  0
 18 19  1  0
 19 20  2  0
 20 21  1  0
 21 22  2  0
 22 23  1  0
 23 24  2  0
 14 25  2  0
 25 26  1  0
 25 27  1  0
 27  2  1  0
 10  5  1  0
 27 12  2  0
 24 19  1  0
M  END
>  <Binding energies>  (61) 
[-7.76]

>  <Ligand effiencies>  (61) 
[-0.25866666666666666]

>  <Interactions>  (61) 
["V-B:GLU:543:CG:9875, V-A:HIS:456:CE1:4064, V-B:ALA:541:CB:9860, V-B:GLU:543:CB:9874, V-B:TYR:539:C:9835, V-A:GLU:543:CB:4901, V-B:HIS:456:CE1:9037, V-A:TYR:484:CZ:4342, V-A:GLU:543:CG:4902, V-A:TYR:484:CE1:4340, V-A:GLU:543:CD:4903, V-B:GLU:543:CD:9876, H-A:TYR:484:OH:4343, V-B:PRO:540:CB:9853, V-B:PRO:540:CA:9851, H-A:GLU:543:OE2:4905, H-A:HIS:456:NE2:4065, H-A:GLU:543:OE1:4904, V-A:GLY:544:C:4907, V-A:GLU:543:C:4897, V-A:LYS:547:CE:4945, V-B:HIS:456:CD2:9035, V-A:GLY:544:CA:4909, H-B:GLU:543:OE2:9878, V-B:PRO:540:N:9852"]

$$$$
4dj_Grossjean_2025
     RDKit          3D

 25 28  0  0  0  0  0  0  0  0999 V2000
  128.7480  129.1630   65.3880 C   0  0  0  0  0  0  0  0  0  0  0  0
  129.1330  128.1800   66.4820 C   0  0  0  0  0  0  0  0  0  0  0  0
  129.1260  128.6310   67.8070 C   0  0  0  0  0  0  0  0  0  0  0  0
  129.4720  127.7760   68.8600 C   0  0  0  0  0  0  0  0  0  0  0  0
  129.4690  128.2300   70.2920 C   0  0  0  0  0  0  0  0  0  0  0  0
  128.3050  128.1410   71.0730 C   0  0  0  0  0  0  0  0  0  0  0  0
  128.2940  128.5600   72.4010 C   0  0  0  0  0  0  0  0  0  0  0  0
  129.4520  129.0820   72.9680 C   0  0  0  0  0  0  0  0  0  0  0  0
  130.6180  129.1870   72.2170 C   0  0  0  0  0  0  0  0  0  0  0  0
  130.6240  128.7650   70.8910 C   0  0  0  0  0  0  0  0  0  0  0  0
  129.8110  126.4750   68.6480 N   0  0  0  0  0  0  0  0  0  0  0  0
  129.8190  126.0440   67.3870 C   0  0  0  0  0  0  0  0  0  0  0  0
  130.2430  124.3990   66.9710 S   0  0  0  0  0  0  0  0  0  0  0  0
  129.9960  124.7200   65.2530 C   0  0  0  0  0  0  0  0  0  0  0  0
  130.2130  123.6630   64.2640 C   0  0  0  0  0  0  0  0  0  0  0  0
  130.9930  122.7350   64.4940 O   0  0  0  0  0  0  0  0  0  0  0  0
  129.5130  123.7910   63.1100 N   0  0  0  0  0  0  0  0  0  0  0  0
  129.5390  122.9350   62.0180 C   0  0  0  0  0  0  0  0  0  0  0  0
  128.5160  122.4130   61.3760 N   0  0  0  0  0  0  0  0  0  0  0  0
  128.9100  121.6400   60.3830 C   0  0  0  0  0  0  0  0  0  0  0  0
  130.2840  121.5240   60.2010 C   0  0  0  0  0  0  0  0  0  0  0  0
  131.0960  122.4820   61.4030 S   0  0  0  0  0  0  0  0  0  0  0  0
  129.6060  126.0510   65.0390 C   0  0  0  0  0  0  0  0  0  0  0  0
  129.3490  126.5800   63.7990 N   0  0  0  0  0  0  0  0  0  0  0  0
  129.4960  126.8280   66.2430 C   0  0  0  0  0  0  0  0  0  0  0  0
  1  2  1  0
  2  3  2  0
  3  4  1  0
  4  5  1  0
  5  6  2  0
  6  7  1  0
  7  8  2  0
  8  9  1  0
  9 10  2  0
  4 11  2  0
 11 12  1  0
 12 13  1  0
 13 14  1  0
 14 15  1  0
 15 16  2  0
 15 17  1  0
 17 18  1  0
 18 19  2  0
 19 20  1  0
 20 21  2  0
 21 22  1  0
 14 23  2  0
 23 24  1  0
 23 25  1  0
 25  2  1  0
 10  5  1  0
 25 12  2  0
 22 18  1  0
M  END
>  <Binding energies>  (62) 
[-7.24]

>  <Ligand effiencies>  (62) 
[-0.25857142857142856]

>  <Interactions>  (62) 
["V-B:PRO:540:C:9849, V-B:GLU:543:CG:9875, V-A:HIS:456:CE1:4064, V-B:ALA:541:CB:9860, V-B:GLU:543:CB:9874, V-B:TYR:539:C:9835, V-B:TYR:539:CD2:9842, V-A:GLU:543:CB:4901, V-B:TYR:539:CE2:9844, V-B:HIS:456:CE1:9037, V-A:TYR:484:CZ:4342, V-A:GLU:543:CG:4902, V-A:TYR:484:CE1:4340, V-A:GLU:543:CD:4903, V-B:GLU:543:CD:9876, H-A:TYR:484:OH:4343, H-B:ALA:541:N:9859, V-B:PRO:540:CA:9851, H-A:GLU:543:OE2:4905, H-A:HIS:456:NE2:4065, H-A:GLU:543:OE1:4904, V-A:GLY:544:C:4907, V-A:GLU:543:C:4897, V-A:LYS:547:CE:4945, V-B:HIS:456:CD2:9035, V-A:GLY:544:CA:4909, H-B:GLU:543:OE2:9878"]

$$$$
4ea_Grossjean_2025
     RDKit          3D

 31 34  0  0  0  0  0  0  0  0999 V2000
  130.2320  129.2990   72.2830 C   0  0  0  0  0  0  0  0  0  0  0  0
  130.4220  128.7440   70.8690 C   0  0  0  0  0  0  0  0  0  0  0  0
  129.2190  128.9080   70.1300 O   0  0  0  0  0  0  0  0  0  0  0  0
  129.2330  129.4010   68.8650 C   0  0  0  0  0  0  0  0  0  0  0  0
  129.1340  130.6040   68.6030 O   0  0  0  0  0  0  0  0  0  0  0  0
  129.3820  128.3370   67.8160 C   0  0  0  0  0  0  0  0  0  0  0  0
  130.4680  127.4560   67.8860 C   0  0  0  0  0  0  0  0  0  0  0  0
  130.6340  126.4580   66.9290 C   0  0  0  0  0  0  0  0  0  0  0  0
  129.7200  126.3210   65.8840 C   0  0  0  0  0  0  0  0  0  0  0  0
  129.9880  125.2780   64.9760 N   0  0  0  0  0  0  0  0  0  0  0  0
  131.1520  124.9000   64.3920 C   0  0  0  0  0  0  0  0  0  0  0  0
  132.2350  125.4540   64.5820 O   0  0  0  0  0  0  0  0  0  0  0  0
  131.0520  123.7520   63.4870 C   0  0  0  0  0  0  0  0  0  0  0  0
  130.3560  122.2300   64.0490 S   0  0  0  0  0  0  0  0  0  0  0  0
  130.6030  121.4850   62.4860 C   0  0  0  0  0  0  0  0  0  0  0  0
  130.2510  120.2200   62.2450 N   0  0  0  0  0  0  0  0  0  0  0  0
  130.4960  119.7630   60.9930 C   0  0  0  0  0  0  0  0  0  0  0  0
  130.0880  118.3230   60.7400 C   0  0  0  0  0  0  0  0  0  0  0  0
  131.0780  120.5310   59.9870 C   0  0  0  0  0  0  0  0  0  0  0  0
  131.4450  121.8560   60.2440 C   0  0  0  0  0  0  0  0  0  0  0  0
  132.0620  122.6600   59.1650 C   0  0  0  0  0  0  0  0  0  0  0  0
  133.4390  122.5860   58.9340 C   0  0  0  0  0  0  0  0  0  0  0  0
  134.0200  123.3400   57.9170 C   0  0  0  0  0  0  0  0  0  0  0  0
  133.2230  124.1710   57.1340 C   0  0  0  0  0  0  0  0  0  0  0  0
  131.8510  124.2550   57.3580 C   0  0  0  0  0  0  0  0  0  0  0  0
  131.2720  123.5010   58.3750 C   0  0  0  0  0  0  0  0  0  0  0  0
  131.2050  122.3750   61.5470 C   0  0  0  0  0  0  0  0  0  0  0  0
  131.4500  123.6620   62.1440 C   0  0  0  0  0  0  0  0  0  0  0  0
  132.0230  124.6940   61.4470 N   0  0  0  0  0  0  0  0  0  0  0  0
  128.6280  127.2000   65.8060 C   0  0  0  0  0  0  0  0  0  0  0  0
  128.4640  128.1960   66.7640 C   0  0  0  0  0  0  0  0  0  0  0  0
  1  2  1  0
  2  3  1  0
  3  4  1  0
  4  5  2  0
  4  6  1  0
  6  7  2  0
  7  8  1  0
  8  9  2  0
  9 10  1  0
 10 11  1  0
 11 12  2  0
 11 13  1  0
 13 14  1  0
 14 15  1  0
 15 16  2  0
 16 17  1  0
 17 18  1  0
 17 19  2  0
 19 20  1  0
 20 21  1  0
 21 22  2  0
 22 23  1  0
 23 24  2  0
 24 25  1  0
 25 26  2  0
 20 27  2  0
 27 28  1  0
 28 29  1  0
  9 30  1  0
 30 31  2  0
 31  6  1  0
 28 13  2  0
 27 15  1  0
 26 21  1  0
M  END
>  <Binding energies>  (63) 
[-7.9]

>  <Ligand effiencies>  (63) 
[-0.2323529411764706]

>  <Interactions>  (63) 
["V-B:GLU:543:CG:9875, V-A:TRP:381:CZ3:3366, V-A:HIS:456:CE1:4064, V-A:PRO:482:CG:4322, V-A:TRP:381:CZ2:3365, V-B:ALA:541:CB:9860, V-A:TRP:381:CH2:3367, V-B:TYR:539:CD2:9842, V-A:LEU:475:CD2:4254, V-A:TRP:381:CE2:3362, V-A:GLU:543:CB:4901, V-A:PRO:482:CB:4321, V-B:TYR:539:CE2:9844, V-A:ILE:369:CD1:3234, V-B:TYR:539:CZ:9845, V-A:ASP:366:CA:3205, V-A:ILE:369:CB:3231, V-A:ASP:366:CG:3208, V-B:HIS:456:CE1:9037, V-A:ASP:366:CB:3207, V-A:ASP:366:C:3203, V-A:TYR:484:CZ:4342, V-A:TYR:484:CE1:4340, V-B:GLU:543:CD:9876, H-A:ASP:366:OD2:3210, V-A:ILE:369:CG2:3232, H-A:TYR:484:OH:4343, H-A:ASP:366:OD1:3209, V-A:GLY:544:C:4907, V-A:GLU:543:C:4897, V-A:LYS:547:CE:4945, V-A:TYR:531:CZ:4789, H-B:GLU:543:OE2:9878, V-A:TYR:531:CE1:4787"]

$$$$
4eb_Grossjean_2025
     RDKit          3D

 30 33  0  0  0  0  0  0  0  0999 V2000
  130.4200  128.7790   70.7940 C   0  0  0  0  0  0  0  0  0  0  0  0
  129.2110  128.9040   70.0610 O   0  0  0  0  0  0  0  0  0  0  0  0
  129.2100  129.3880   68.7910 C   0  0  0  0  0  0  0  0  0  0  0  0
  129.0910  130.5860   68.5210 O   0  0  0  0  0  0  0  0  0  0  0  0
  129.3680  128.3180   67.7490 C   0  0  0  0  0  0  0  0  0  0  0  0
  130.3880  127.3680   67.8930 C   0  0  0  0  0  0  0  0  0  0  0  0
  130.5610  126.3650   66.9450 C   0  0  0  0  0  0  0  0  0  0  0  0
  129.7200  126.2890   65.8330 C   0  0  0  0  0  0  0  0  0  0  0  0
  129.9880  125.2330   64.9400 N   0  0  0  0  0  0  0  0  0  0  0  0
  131.1680  124.7590   64.4710 C   0  0  0  0  0  0  0  0  0  0  0  0
  132.2700  125.2140   64.7770 O   0  0  0  0  0  0  0  0  0  0  0  0
  131.0630  123.6310   63.5410 C   0  0  0  0  0  0  0  0  0  0  0  0
  130.3720  122.0970   64.0750 S   0  0  0  0  0  0  0  0  0  0  0  0
  130.6080  121.3850   62.4950 C   0  0  0  0  0  0  0  0  0  0  0  0
  130.2560  120.1260   62.2290 N   0  0  0  0  0  0  0  0  0  0  0  0
  130.4920  119.6960   60.9670 C   0  0  0  0  0  0  0  0  0  0  0  0
  130.0830  118.2600   60.6860 C   0  0  0  0  0  0  0  0  0  0  0  0
  131.0660  120.4850   59.9730 C   0  0  0  0  0  0  0  0  0  0  0  0
  131.4340  121.8050   60.2570 C   0  0  0  0  0  0  0  0  0  0  0  0
  132.0440  122.6320   59.1900 C   0  0  0  0  0  0  0  0  0  0  0  0
  133.4230  122.5870   58.9680 C   0  0  0  0  0  0  0  0  0  0  0  0
  133.9970  123.3630   57.9640 C   0  0  0  0  0  0  0  0  0  0  0  0
  133.1900  124.1870   57.1830 C   0  0  0  0  0  0  0  0  0  0  0  0
  131.8140  124.2420   57.3990 C   0  0  0  0  0  0  0  0  0  0  0  0
  131.2430  123.4650   58.4030 C   0  0  0  0  0  0  0  0  0  0  0  0
  131.2030  122.2950   61.5710 C   0  0  0  0  0  0  0  0  0  0  0  0
  131.4510  123.5680   62.1940 C   0  0  0  0  0  0  0  0  0  0  0  0
  132.0190  124.6180   61.5160 N   0  0  0  0  0  0  0  0  0  0  0  0
  128.6960  127.2360   65.6800 C   0  0  0  0  0  0  0  0  0  0  0  0
  128.5250  128.2390   66.6300 C   0  0  0  0  0  0  0  0  0  0  0  0
  1  2  1  0
  2  3  1  0
  3  4  2  0
  3  5  1  0
  5  6  2  0
  6  7  1  0
  7  8  2  0
  8  9  1  0
  9 10  1  0
 10 11  2  0
 10 12  1  0
 12 13  1  0
 13 14  1  0
 14 15  2  0
 15 16  1  0
 16 17  1  0
 16 18  2  0
 18 19  1  0
 19 20  1  0
 20 21  2  0
 21 22  1  0
 22 23  2  0
 23 24  1  0
 24 25  2  0
 19 26  2  0
 26 27  1  0
 27 28  1  0
  8 29  1  0
 29 30  2  0
 30  5  1  0
 27 12  2  0
 26 14  1  0
 25 20  1  0
M  END
>  <Binding energies>  (64) 
[-7.85]

>  <Ligand effiencies>  (64) 
[-0.23787878787878786]

>  <Interactions>  (64) 
["V-B:GLU:543:CG:9875, V-A:TRP:381:CZ3:3366, V-A:HIS:456:CE1:4064, V-A:PRO:482:CG:4322, V-A:TRP:381:CZ2:3365, V-B:ALA:541:CB:9860, V-A:TRP:381:CH2:3367, V-B:TYR:539:CD2:9842, V-A:LEU:475:CD2:4254, V-A:TRP:381:CE2:3362, V-A:GLU:543:CB:4901, V-A:PRO:482:CB:4321, V-B:TYR:539:CE2:9844, V-A:ILE:369:CD1:3234, V-B:TYR:539:CZ:9845, V-A:ASP:366:CA:3205, V-A:ILE:369:CB:3231, V-A:ASP:366:CG:3208, V-B:HIS:456:CE1:9037, V-A:ASP:366:CB:3207, V-A:ASP:366:C:3203, V-A:TYR:484:CZ:4342, V-A:TYR:484:CE1:4340, V-B:GLU:543:CD:9876, H-A:ASP:366:OD2:3210, V-A:ILE:369:CG2:3232, H-A:TYR:484:OH:4343, H-A:ASP:366:OD1:3209, V-A:GLY:544:C:4907, V-A:GLU:543:C:4897, V-A:TYR:531:CZ:4789, H-B:GLU:543:OE2:9878, V-A:TYR:531:CE1:4787"]

$$$$
8b_Ghoteimi_2023
     RDKit          3D

 34 38  0  0  0  0  0  0  0  0999 V2000
  128.0330  130.3070   74.6210 C   0  0  0  0  0  0  0  0  0  0  0  0
  129.0200  129.3520   74.2450 O   0  0  0  0  0  0  0  0  0  0  0  0
  129.1330  128.9860   72.9180 C   0  0  0  0  0  0  0  0  0  0  0  0
  128.0030  128.4220   72.3280 C   0  0  0  0  0  0  0  0  0  0  0  0
  128.0240  128.0230   70.9960 C   0  0  0  0  0  0  0  0  0  0  0  0
  129.1790  128.1770   70.2160 C   0  0  0  0  0  0  0  0  0  0  0  0
  129.2090  127.7480   68.7830 C   0  0  0  0  0  0  0  0  0  0  0  0
  128.6710  128.5420   67.7650 C   0  0  0  0  0  0  0  0  0  0  0  0
  128.7110  128.1180   66.4330 C   0  0  0  0  0  0  0  0  0  0  0  0
  128.1240  128.9780   65.3800 C   0  0  0  0  0  0  0  0  0  0  0  0
  128.7080  130.2070   65.0700 C   0  0  0  0  0  0  0  0  0  0  0  0
  128.1600  131.0100   64.0730 C   0  0  0  0  0  0  0  0  0  0  0  0
  127.0230  130.6000   63.3750 C   0  0  0  0  0  0  0  0  0  0  0  0
  126.5510  131.4600   62.4020 O   0  0  0  0  0  0  0  0  0  0  0  0
  127.1600  132.7380   62.2510 C   0  0  0  0  0  0  0  0  0  0  0  0
  126.4360  129.3650   63.6930 C   0  0  0  0  0  0  0  0  0  0  0  0
  126.9850  128.5620   64.6890 C   0  0  0  0  0  0  0  0  0  0  0  0
  129.3200  126.8660   66.1490 C   0  0  0  0  0  0  0  0  0  0  0  0
  129.5360  126.1420   64.9230 C   0  0  0  0  0  0  0  0  0  0  0  0
  129.1320  126.6240   63.7040 N   0  0  0  0  0  0  0  0  0  0  0  0
  130.1920  124.9130   65.0970 C   0  0  0  0  0  0  0  0  0  0  0  0
  130.5730  123.9320   64.0790 C   0  0  0  0  0  0  0  0  0  0  0  0
  131.6810  123.3900   64.1110 O   0  0  0  0  0  0  0  0  0  0  0  0
  129.6340  123.6810   63.1320 N   0  0  0  0  0  0  0  0  0  0  0  0
  129.7270  122.8010   62.0620 C   0  0  0  0  0  0  0  0  0  0  0  0
  130.9250  122.5230   61.4070 C   0  0  0  0  0  0  0  0  0  0  0  0
  130.5930  121.6230   60.4200 C   0  0  0  0  0  0  0  0  0  0  0  0
  129.2650  121.3690   60.4800 O   0  0  0  0  0  0  0  0  0  0  0  0
  128.7260  122.1210   61.5270 N   0  0  0  0  0  0  0  0  0  0  0  0
  130.5620  124.6240   66.7980 S   0  0  0  0  0  0  0  0  0  0  0  0
  129.8380  126.1460   67.2630 C   0  0  0  0  0  0  0  0  0  0  0  0
  129.7970  126.5480   68.5330 N   0  0  0  0  0  0  0  0  0  0  0  0
  130.3110  128.7480   70.8130 C   0  0  0  0  0  0  0  0  0  0  0  0
  130.2940  129.1480   72.1470 C   0  0  0  0  0  0  0  0  0  0  0  0
  1  2  1  0
  2  3  1  0
  3  4  2  0
  4  5  1  0
  5  6  2  0
  6  7  1  0
  7  8  2  0
  8  9  1  0
  9 10  1  0
 10 11  2  0
 11 12  1  0
 12 13  2  0
 13 14  1  0
 14 15  1  0
 13 16  1  0
 16 17  2  0
  9 18  2  0
 18 19  1  0
 19 20  1  0
 19 21  2  0
 21 22  1  0
 22 23  2  0
 22 24  1  0
 24 25  1  0
 25 26  1  0
 26 27  2  0
 27 28  1  0
 28 29  1  0
 21 30  1  0
 30 31  1  0
 31 32  2  0
  6 33  1  0
 33 34  2  0
 34  3  1  0
 32  7  1  0
 17 10  1  0
 31 18  1  0
 29 25  2  0
M  END
>  <Binding energies>  (65) 
[-7.9]

>  <Ligand effiencies>  (65) 
[-0.21351351351351353]

>  <Interactions>  (65) 
["V-B:GLU:543:CG:9875, V-A:HIS:456:CE1:4064, V-B:ALA:541:CB:9860, V-B:GLU:543:CB:9874, V-A:GLU:543:CB:4901, V-B:HIS:456:CE1:9037, V-A:TYR:484:CZ:4342, V-A:GLU:543:CG:4902, V-A:TYR:484:CE1:4340, V-A:GLU:543:CD:4903, V-B:GLU:543:CD:9876, H-A:TYR:484:OH:4343, H-B:ALA:541:N:9859, H-A:GLU:543:OE2:4905, H-A:HIS:456:NE2:4065, H-A:GLU:543:OE1:4904, V-A:GLY:544:C:4907, V-A:GLU:543:C:4897, V-A:LYS:547:CE:4945, V-B:HIS:456:CD2:9035, H-A:LYS:547:NZ:4946, H-B:GLU:543:OE2:9878, H-B:GLU:543:OE1:9877"]

$$$$
9d_Ghoteimi_2023
     RDKit          3D

 38 43  0  0  0  0  0  0  0  0999 V2000
  123.8600  132.4730   62.5400 C   0  0  0  0  0  0  0  0  0  0  0  0
  123.5700  131.2620   63.2220 O   0  0  0  0  0  0  0  0  0  0  0  0
  124.2310  130.9290   64.3610 C   0  0  0  0  0  0  0  0  0  0  0  0
  123.9010  131.3100   65.4870 O   0  0  0  0  0  0  0  0  0  0  0  0
  125.4020  130.0580   64.1140 C   0  0  0  0  0  0  0  0  0  0  0  0
  125.7770  129.5360   62.4720 S   0  0  0  0  0  0  0  0  0  0  0  0
  127.1840  128.6610   63.0300 C   0  0  0  0  0  0  0  0  0  0  0  0
  127.9860  128.0170   62.1830 N   0  0  0  0  0  0  0  0  0  0  0  0
  129.0630  127.3820   62.7150 C   0  0  0  0  0  0  0  0  0  0  0  0
  129.9620  126.6860   61.7440 C   0  0  0  0  0  0  0  0  0  0  0  0
  130.2200  127.2470   60.4890 C   0  0  0  0  0  0  0  0  0  0  0  0
  131.0540  126.6070   59.5760 C   0  0  0  0  0  0  0  0  0  0  0  0
  131.6710  125.3860   59.8910 C   0  0  0  0  0  0  0  0  0  0  0  0
  132.4980  124.7220   58.9780 N   0  0  0  0  0  0  0  0  0  0  0  0
  133.2770  123.5300   59.3720 C   0  0  0  0  0  0  0  0  0  0  0  0
  134.3790  123.1440   58.3640 C   0  0  0  0  0  0  0  0  0  0  0  0
  133.8190  122.9800   57.0720 O   0  0  0  0  0  0  0  0  0  0  0  0
  133.2150  124.1780   56.6120 C   0  0  0  0  0  0  0  0  0  0  0  0
  132.0770  124.6000   57.5660 C   0  0  0  0  0  0  0  0  0  0  0  0
  131.3970  124.8210   61.1450 C   0  0  0  0  0  0  0  0  0  0  0  0
  130.5610  125.4600   62.0560 C   0  0  0  0  0  0  0  0  0  0  0  0
  129.3160  127.3660   64.0890 C   0  0  0  0  0  0  0  0  0  0  0  0
  128.4660  128.0260   64.9850 C   0  0  0  0  0  0  0  0  0  0  0  0
  128.7660  127.9540   66.4390 C   0  0  0  0  0  0  0  0  0  0  0  0
  128.7900  126.7250   67.1020 C   0  0  0  0  0  0  0  0  0  0  0  0
  129.0900  126.6610   68.4610 C   0  0  0  0  0  0  0  0  0  0  0  0
  129.3900  127.8240   69.1880 C   0  0  0  0  0  0  0  0  0  0  0  0
  129.6850  127.7870   70.5520 N   0  0  0  0  0  0  0  0  0  0  0  0
  129.3620  126.5710   71.3240 C   0  0  0  0  0  0  0  0  0  0  0  0
  130.0780  126.5090   72.6900 C   0  0  0  0  0  0  0  0  0  0  0  0
  129.7910  127.6780   73.4430 O   0  0  0  0  0  0  0  0  0  0  0  0
  130.2240  128.8530   72.7730 C   0  0  0  0  0  0  0  0  0  0  0  0
  129.5070  128.9740   71.4110 C   0  0  0  0  0  0  0  0  0  0  0  0
  129.3620  129.0520   68.5110 C   0  0  0  0  0  0  0  0  0  0  0  0
  129.0610  129.1160   67.1540 C   0  0  0  0  0  0  0  0  0  0  0  0
  127.3550  128.7320   64.4450 C   0  0  0  0  0  0  0  0  0  0  0  0
  126.3310  129.5540   65.0330 C   0  0  0  0  0  0  0  0  0  0  0  0
  126.2820  129.8380   66.3740 N   0  0  0  0  0  0  0  0  0  0  0  0
  1  2  1  0
  2  3  1  0
  3  4  2  0
  3  5  1  0
  5  6  1  0
  6  7  1  0
  7  8  2  0
  8  9  1  0
  9 10  1  0
 10 11  2  0
 11 12  1  0
 12 13  2  0
 13 14  1  0
 14 15  1  0
 15 16  1  0
 16 17  1  0
 17 18  1  0
 18 19  1  0
 13 20  1  0
 20 21  2  0
  9 22  2  0
 22 23  1  0
 23 24  1  0
 24 25  2  0
 25 26  1  0
 26 27  2  0
 27 28  1  0
 28 29  1  0
 29 30  1  0
 30 31  1  0
 31 32  1  0
 32 33  1  0
 27 34  1  0
 34 35  2  0
 23 36  2  0
 36 37  1  0
 37 38  1  0
 37  5  2  0
 36  7  1  0
 21 10  1  0
 35 24  1  0
 19 14  1  0
 33 28  1  0
M  END
>  <Binding energies>  (66) 
[-7.85]

>  <Ligand effiencies>  (66) 
[-0.19624999999999998]

>  <Interactions>  (66) 
["V-B:GLU:543:CG:9875, V-A:HIS:456:CE1:4064, H-B:LYS:547:NZ:9919, V-B:GLU:543:CB:9874, V-A:GLU:543:CB:4901, V-A:ILE:369:CD1:3234, V-B:TYR:539:CZ:9845, V-A:ASP:366:CA:3205, V-A:ILE:369:CB:3231, V-A:ASN:370:CB:3240, V-A:ASP:366:CG:3208, V-B:HIS:456:CE1:9037, V-A:ASP:366:CB:3207, V-A:ASP:366:C:3203, V-A:GLU:543:CG:4902, H-B:HIS:456:NE2:9038, H-B:TYR:484:OH:9315, V-A:GLU:543:CD:4903, V-A:ILE:369:CG2:3232, V-A:LYS:547:CE:4945, V-B:HIS:456:CD2:9035, V-B:TYR:484:CZ:9314, V-A:TYR:531:CZ:4789, H-A:LYS:547:NZ:4946, V-B:LEU:475:CD2:9226, V-A:TYR:531:CE1:4787, H-B:TYR:539:OH:9846, V-B:ILE:369:CD1:8206, V-A:ILE:369:CG1:3233, H-B:GLY:454:N:9017, V-B:GLY:454:CA:9016, H-A:ASN:370:N:3239"]

$$$$
RR10_Rahimova_2017
     RDKit          3D

 34 38  0  0  0  0  0  0  0  0999 V2000
  128.0900  126.3420   57.1260 C   0  0  0  0  0  0  0  0  0  0  0  0
  127.1690  125.6910   58.1720 C   0  0  1  0  0  0  0  0  0  0  0  0
  127.3440  124.1550   58.2190 C   0  0  0  0  0  0  0  0  0  0  0  0
  126.3850  123.5190   59.2510 C   0  0  0  0  0  0  0  0  0  0  0  0
  126.5900  124.0980   60.6740 C   0  0  1  0  0  0  0  0  0  0  0  0
  127.8920  123.6910   61.2190 N   0  0  0  0  0  0  0  0  0  0  0  0
  128.4950  122.5080   60.9980 C   0  0  0  0  0  0  0  0  0  0  0  0
  128.0110  121.6320   60.2780 O   0  0  0  0  0  0  0  0  0  0  0  0
  129.8450  122.2740   61.7080 C   0  0  1  0  0  0  0  0  0  0  0  0
  130.7780  121.4540   60.7800 C   0  0  0  0  0  0  0  0  0  0  0  0
  132.1640  121.2960   61.4500 C   0  0  0  0  0  0  0  0  0  0  0  0
  132.7600  122.6480   61.9050 C   0  0  0  0  0  0  0  0  0  0  0  0
  131.7810  123.4000   62.7350 N   0  0  0  0  0  0  0  0  0  0  0  0
  132.4530  124.8190   63.5560 S   0  0  0  0  0  0  0  0  0  0  0  0
  132.1740  126.0000   62.7300 O   0  0  0  0  0  0  0  0  0  0  0  0
  133.8320  124.5010   63.9500 O   0  0  0  0  0  0  0  0  0  0  0  0
  131.4800  124.9960   65.0520 C   0  0  0  0  0  0  0  0  0  0  0  0
  130.6060  123.9700   65.4260 C   0  0  0  0  0  0  0  0  0  0  0  0
  129.8190  124.0470   66.5780 C   0  0  0  0  0  0  0  0  0  0  0  0
  129.9490  125.2070   67.3460 C   0  0  0  0  0  0  0  0  0  0  0  0
  129.3630  125.6500   68.5080 N   0  0  0  0  0  0  0  0  0  0  0  0
  129.8860  126.8920   68.8000 C   0  0  0  0  0  0  0  0  0  0  0  0
  129.4810  127.7040   69.9970 C   0  0  0  0  0  0  0  0  0  0  0  0
  128.2270  127.5120   70.5940 C   0  0  0  0  0  0  0  0  0  0  0  0
  127.8520  128.2610   71.7050 C   0  0  0  0  0  0  0  0  0  0  0  0
  128.7290  129.2090   72.2270 C   0  0  0  0  0  0  0  0  0  0  0  0
  129.9770  129.4120   71.6470 C   0  0  0  0  0  0  0  0  0  0  0  0
  130.3520  128.6620   70.5350 C   0  0  0  0  0  0  0  0  0  0  0  0
  130.7740  127.2750   67.9090 N   0  0  0  0  0  0  0  0  0  0  0  0
  130.8320  126.2560   66.9950 C   0  0  0  0  0  0  0  0  0  0  0  0
  131.6120  126.1490   65.8350 C   0  0  0  0  0  0  0  0  0  0  0  0
  130.4860  123.6410   62.0500 C   0  0  0  0  0  0  0  0  0  0  0  0
  126.4280  125.6410   60.6080 C   0  0  0  0  0  0  0  0  0  0  0  0
  127.3910  126.2810   59.5840 C   0  0  0  0  0  0  0  0  0  0  0  0
  2  1  1  6
  2  3  1  0
  3  4  1  0
  4  5  1  0
  5  6  1  6
  6  7  1  0
  7  8  2  0
  9  7  1  6
  9 10  1  0
 10 11  1  0
 11 12  1  0
 12 13  1  0
 13 14  1  0
 14 15  2  0
 14 16  2  0
 14 17  1  0
 17 18  2  0
 18 19  1  0
 19 20  2  0
 20 21  1  0
 21 22  1  0
 22 23  1  0
 23 24  2  0
 24 25  1  0
 25 26  2  0
 26 27  1  0
 27 28  2  0
 22 29  2  0
 29 30  1  0
 30 31  2  0
 13 32  1  0
  5 33  1  0
 33 34  1  0
 34  2  1  0
 32  9  1  0
 31 17  1  0
 30 20  1  0
 28 23  1  0
M  END
>  <Binding energies>  (67) 
[-8.77]

>  <Ligand effiencies>  (67) 
[-0.2436111111111111]

>  <Interactions>  (67) 
["V-B:GLU:543:CG:9875, H-B:GLU:543:O:9871, V-A:HIS:456:CE1:4064, V-B:ALA:541:CB:9860, V-B:GLU:543:CB:9874, V-A:LEU:475:CD2:4254, V-B:HIS:456:CE1:9037, V-A:TYR:484:CZ:4342, V-B:GLU:543:C:9870, V-A:TYR:484:CE1:4340, V-B:GLU:543:CA:9872, V-A:GLU:543:CD:4903, V-B:GLU:543:CD:9876, H-A:TYR:484:OH:4343, H-A:ARG:545:NH2:4923, H-A:GLY:454:N:4045, V-B:PRO:540:CB:9853, H-B:ALA:541:N:9859, V-B:PRO:540:CA:9851, H-A:HIS:456:NE2:4065, V-A:GLY:544:C:4907, V-A:GLU:543:C:4897, V-B:HIS:456:CD2:9035, V-B:HIS:456:CG:9033, H-B:GLU:543:OE2:9878, V-B:PRO:540:N:9852"]

$$$$
RR12_Rahimova_2017
     RDKit          3D

 26 28  0  0  0  0  0  0  0  0999 V2000
  129.5630  118.5790   60.8150 C   0  0  0  0  0  0  0  0  0  0  0  0
  130.7920  119.4960   60.7440 C   0  0  0  0  0  0  0  0  0  0  0  0
  130.4460  120.9710   61.0200 C   0  0  0  0  0  0  0  0  0  0  0  0
  131.2960  121.8590   60.2300 N   0  0  0  0  0  0  0  0  0  0  0  0
  132.6520  122.0950   60.3950 C   0  0  0  0  0  0  0  0  0  0  0  0
  133.4930  121.4760   61.4980 C   0  0  0  0  0  0  0  0  0  0  0  0
  133.2850  122.1720   62.8560 C   0  0  0  0  0  0  0  0  0  0  0  0
  132.7570  123.6130   62.7110 C   0  0  0  0  0  0  0  0  0  0  0  0
  132.5390  124.2920   63.9880 N   0  0  0  0  0  0  0  0  0  0  0  0
  133.4860  124.9400   64.6890 C   0  0  0  0  0  0  0  0  0  0  0  0
  134.6600  125.0260   64.3210 O   0  0  0  0  0  0  0  0  0  0  0  0
  133.0170  125.5870   65.9990 C   0  0  0  0  0  0  0  0  0  0  0  0
  131.7830  124.9940   66.4070 O   0  0  0  0  0  0  0  0  0  0  0  0
  130.6500  125.7820   66.4930 C   0  0  0  0  0  0  0  0  0  0  0  0
  130.2250  126.3900   65.3090 C   0  0  0  0  0  0  0  0  0  0  0  0
  129.0920  127.1990   65.2960 C   0  0  0  0  0  0  0  0  0  0  0  0
  128.3770  127.4020   66.4730 C   0  0  0  0  0  0  0  0  0  0  0  0
  128.7880  126.8050   67.6630 C   0  0  0  0  0  0  0  0  0  0  0  0
  129.9220  125.9970   67.6750 C   0  0  0  0  0  0  0  0  0  0  0  0
  133.1460  122.9260   59.5110 N   0  0  0  0  0  0  0  0  0  0  0  0
  132.0910  123.2450   58.7010 C   0  0  0  0  0  0  0  0  0  0  0  0
  132.0610  124.0900   57.5810 C   0  0  0  0  0  0  0  0  0  0  0  0
  130.8480  124.2490   56.9110 C   0  0  0  0  0  0  0  0  0  0  0  0
  129.6940  123.5900   57.3350 C   0  0  0  0  0  0  0  0  0  0  0  0
  129.6900  122.7450   58.4460 C   0  0  0  0  0  0  0  0  0  0  0  0
  130.9080  122.5860   59.1200 C   0  0  0  0  0  0  0  0  0  0  0  0
  1  2  1  0
  2  3  1  0
  3  4  1  0
  4  5  1  0
  5  6  1  0
  6  7  1  0
  7  8  1  0
  8  9  1  0
  9 10  1  0
 10 11  2  0
 10 12  1  0
 12 13  1  0
 13 14  1  0
 14 15  2  0
 15 16  1  0
 16 17  2  0
 17 18  1  0
 18 19  2  0
  5 20  2  0
 20 21  1  0
 21 22  2  0
 22 23  1  0
 23 24  2  0
 24 25  1  0
 25 26  2  0
 26  4  1  0
 19 14  1  0
 26 21  1  0
M  END
>  <Binding energies>  (68) 
[-6.75]

>  <Ligand effiencies>  (68) 
[-0.25]

>  <Interactions>  (68) 
["V-B:PRO:540:C:9849, V-A:HIS:456:CE1:4064, V-A:PRO:482:CG:4322, V-A:TRP:381:CZ2:3365, V-B:ALA:541:CB:9860, V-B:GLU:543:CB:9874, V-A:TRP:381:CH2:3367, V-B:TYR:539:C:9835, V-B:TYR:539:CD2:9842, V-A:LEU:475:CD2:4254, V-A:PRO:482:CB:4321, V-B:TYR:539:CE2:9844, V-A:ILE:369:CD1:3234, V-B:TYR:539:CZ:9845, V-A:GLU:543:CD:4903, V-B:GLU:543:CD:9876, H-A:ARG:545:NH1:4922, H-A:TYR:484:OH:4343, H-A:ARG:545:NE:4919, H-A:ARG:545:NH2:4923, H-A:GLY:454:N:4045, V-A:GLY:454:CA:4044, V-A:ARG:545:CZ:4921, H-A:HIS:456:NE2:4065, V-A:ARG:545:CD:4918, V-A:ARG:545:CG:4917"]

$$$$
RR13_Rahimova_2017
     RDKit          3D

 48 54  0  0  0  0  0  0  0  0999 V2000
  125.9270  132.1080   61.5330 Cl  0  0  0  0  0  0  0  0  0  0  0  0
  125.7290  131.0990   62.9250 C   0  0  0  0  0  0  0  0  0  0  0  0
  124.6610  131.3750   63.7820 C   0  0  0  0  0  0  0  0  0  0  0  0
  124.4590  130.6140   64.9300 C   0  0  0  0  0  0  0  0  0  0  0  0
  125.3290  129.5690   65.2310 C   0  0  0  0  0  0  0  0  0  0  0  0
  126.3970  129.2860   64.3810 C   0  0  0  0  0  0  0  0  0  0  0  0
  126.6090  130.0360   63.2120 C   0  0  0  0  0  0  0  0  0  0  0  0
  127.8150  129.7180   62.3000 C   0  0  1  0  0  0  0  0  0  0  0  0
  128.8580  130.8450   62.3530 C   0  0  0  0  0  0  0  0  0  0  0  0
  129.4310  131.3350   63.4300 N   0  0  0  0  0  0  0  0  0  0  0  0
  130.2760  132.3470   62.9850 N   0  0  0  0  0  0  0  0  0  0  0  0
  130.1850  132.4710   61.6120 N   0  0  0  0  0  0  0  0  0  0  0  0
  129.2860  131.5500   61.2490 N   0  0  0  0  0  0  0  0  0  0  0  0
  128.9550  131.3590   59.8420 C   0  0  0  0  0  0  0  0  0  0  0  0
  129.7360  130.1610   59.2680 C   0  0  0  0  0  0  0  0  0  0  0  0
  131.2400  130.3410   59.3970 C   0  0  0  0  0  0  0  0  0  0  0  0
  131.9920  130.7450   58.2910 C   0  0  0  0  0  0  0  0  0  0  0  0
  133.3710  130.9020   58.4080 C   0  0  0  0  0  0  0  0  0  0  0  0
  133.9920  130.6550   59.6320 C   0  0  0  0  0  0  0  0  0  0  0  0
  133.2480  130.2520   60.7370 C   0  0  0  0  0  0  0  0  0  0  0  0
  131.8690  130.0940   60.6210 C   0  0  0  0  0  0  0  0  0  0  0  0
  128.4110  128.3840   62.5520 N   0  0  0  0  0  0  0  0  0  0  0  0
  129.3770  128.4520   63.6640 C   0  0  0  0  0  0  0  0  0  0  0  0
  129.9030  127.0410   64.0200 C   0  0  0  0  0  0  0  0  0  0  0  0
  130.6000  126.4420   62.8700 N   0  0  0  0  0  0  0  0  0  0  0  0
  131.1920  125.1220   63.1920 C   0  0  1  0  0  0  0  0  0  0  0  0
  131.6190  124.2700   61.9760 C   0  0  0  0  0  0  0  0  0  0  0  0
  132.2300  124.9400   60.9070 C   0  0  0  0  0  0  0  0  0  0  0  0
  132.6630  124.2490   59.7770 C   0  0  0  0  0  0  0  0  0  0  0  0
  132.4850  122.8710   59.6950 C   0  0  0  0  0  0  0  0  0  0  0  0
  131.8660  122.1890   60.7380 C   0  0  0  0  0  0  0  0  0  0  0  0
  131.4250  122.8730   61.8750 C   0  0  0  0  0  0  0  0  0  0  0  0
  130.6050  121.9450   63.0860 Cl  0  0  0  0  0  0  0  0  0  0  0  0
  132.3380  125.2080   64.2020 C   0  0  0  0  0  0  0  0  0  0  0  0
  133.6160  125.2430   63.9030 N   0  0  0  0  0  0  0  0  0  0  0  0
  134.2900  125.3380   65.1160 N   0  0  0  0  0  0  0  0  0  0  0  0
  133.3860  125.3750   66.1580 N   0  0  0  0  0  0  0  0  0  0  0  0
  132.1860  125.3150   65.5680 N   0  0  0  0  0  0  0  0  0  0  0  0
  130.9730  125.3100   66.3790 C   0  0  0  0  0  0  0  0  0  0  0  0
  130.8080  126.6580   67.1060 C   0  0  0  0  0  0  0  0  0  0  0  0
  129.3950  126.8560   67.6320 C   0  0  0  0  0  0  0  0  0  0  0  0
  129.1500  126.8220   69.0070 C   0  0  0  0  0  0  0  0  0  0  0  0
  127.8580  127.0110   69.4880 C   0  0  0  0  0  0  0  0  0  0  0  0
  126.8130  127.2340   68.5920 C   0  0  0  0  0  0  0  0  0  0  0  0
  127.0510  127.2700   67.2190 C   0  0  0  0  0  0  0  0  0  0  0  0
  128.3440  127.0820   66.7370 C   0  0  0  0  0  0  0  0  0  0  0  0
  129.6290  126.3720   61.7630 C   0  0  0  0  0  0  0  0  0  0  0  0
  129.1140  127.7850   61.4050 C   0  0  0  0  0  0  0  0  0  0  0  0
  1  2  1  0
  2  3  2  0
  3  4  1  0
  4  5  2  0
  5  6  1  0
  6  7  2  0
  7  8  1  0
  8  9  1  0
  9 10  2  0
 10 11  1  0
 11 12  2  0
 12 13  1  0
 13 14  1  0
 14 15  1  0
 15 16  1  0
 16 17  2  0
 17 18  1  0
 18 19  2  0
 19 20  1  0
 20 21  2  0
  8 22  1  1
 22 23  1  0
 23 24  1  0
 24 25  1  0
 26 25  1  6
 26 27  1  0
 27 28  2  0
 28 29  1  0
 29 30  2  0
 30 31  1  0
 31 32  2  0
 32 33  1  0
 26 34  1  0
 34 35  2  0
 35 36  1  0
 36 37  2  0
 37 38  1  0
 38 39  1  0
 39 40  1  0
 40 41  1  0
 41 42  2  0
 42 43  1  0
 43 44  2  0
 44 45  1  0
 45 46  2  0
 25 47  1  0
 47 48  1  0
  7  2  1  0
 13  9  1  0
 21 16  1  0
 48 22  1  0
 32 27  1  0
 38 34  1  0
 46 41  1  0
M  END
>  <Binding energies>  (69) 
[-11.69]

>  <Ligand effiencies>  (69) 
[-0.24354166666666666]

>  <Interactions>  (69) 
["V-B:GLU:543:CG:9875, V-A:HIS:456:CE1:4064, V-B:ALA:541:CB:9860, V-B:GLU:543:CB:9874, V-A:LEU:475:CD2:4254, V-A:ASP:366:CG:3208, V-B:HIS:456:CE1:9037, V-A:ASP:366:CB:3207, V-A:GLU:543:CG:4902, V-B:GLU:543:C:9870, V-A:GLU:543:CD:4903, V-B:GLU:543:CD:9876, H-A:ARG:545:NH1:4922, H-A:TYR:484:OH:4343, H-A:ARG:545:NE:4919, H-A:ARG:545:NH2:4923, H-A:GLY:454:N:4045, H-A:HIS:456:NE2:4065, V-B:ARG:545:CG:9890, H-A:ALA:541:N:4886, V-A:LEU:363:CD1:3184, V-A:TYR:531:CE2:4788, V-A:ASN:362:C:3167, V-A:LEU:363:CA:3180, V-A:PRO:540:CB:4880, V-A:LEU:363:CB:3182, V-A:ASN:362:CB:3171"]

$$$$
RR14_Rahimova_2017
     RDKit          3D

 39 43  0  0  0  0  0  0  0  0999 V2000
  130.2460  118.8630   60.4130 C   0  0  0  0  0  0  0  0  0  0  0  0
  130.0590  119.5460   61.6480 O   0  0  0  0  0  0  0  0  0  0  0  0
  130.6960  120.7550   61.8510 C   0  0  0  0  0  0  0  0  0  0  0  0
  131.4320  121.2600   60.7790 C   0  0  0  0  0  0  0  0  0  0  0  0
  132.1270  122.4590   60.8990 C   0  0  0  0  0  0  0  0  0  0  0  0
  132.0970  123.1660   62.1030 C   0  0  0  0  0  0  0  0  0  0  0  0
  132.9100  124.4460   62.2590 C   0  0  0  0  0  0  0  0  0  0  0  0
  132.9460  124.9440   63.6330 N   0  0  0  0  0  0  0  0  0  0  0  0
  133.7160  124.3470   64.5500 N   0  0  0  0  0  0  0  0  0  0  0  0
  133.4830  125.0490   65.7160 N   0  0  0  0  0  0  0  0  0  0  0  0
  132.5600  126.0650   65.4870 N   0  0  0  0  0  0  0  0  0  0  0  0
  132.2430  125.9770   64.2160 C   0  0  0  0  0  0  0  0  0  0  0  0
  131.2400  126.8700   63.4990 C   0  0  0  0  0  0  0  0  0  0  0  0
  129.9910  127.0390   64.2600 N   0  0  0  0  0  0  0  0  0  0  0  0
  128.8450  127.3090   63.3820 C   0  0  0  0  0  0  0  0  0  0  0  0
  127.6530  127.9630   64.1140 C   0  0  0  0  0  0  0  0  0  0  0  0
  127.9170  129.4200   64.5500 C   0  0  0  0  0  0  0  0  0  0  0  0
  126.6930  130.1570   64.8810 N   0  0  0  0  0  0  0  0  0  0  0  0
  125.7460  129.2840   65.5870 C   0  0  0  0  0  0  0  0  0  0  0  0
  124.4250  130.0150   65.9050 C   0  0  0  0  0  0  0  0  0  0  0  0
  123.8690  130.5620   64.7130 O   0  0  0  0  0  0  0  0  0  0  0  0
  124.7440  131.4950   64.0890 C   0  0  0  0  0  0  0  0  0  0  0  0
  126.0750  130.8080   63.7150 C   0  0  0  0  0  0  0  0  0  0  0  0
  129.7380  125.8490   65.0860 C   0  0  0  0  0  0  0  0  0  0  0  0
  129.5920  126.0920   66.5860 C   0  0  0  0  0  0  0  0  0  0  0  0
  129.4610  127.3470   67.0820 C   0  0  0  0  0  0  0  0  0  0  0  0
  129.3580  127.6130   68.5310 C   0  0  0  0  0  0  0  0  0  0  0  0
  129.2030  128.8980   69.0780 C   0  0  0  0  0  0  0  0  0  0  0  0
  129.1270  130.1370   68.1960 C   0  0  0  0  0  0  0  0  0  0  0  0
  129.1130  129.0400   70.4650 C   0  0  0  0  0  0  0  0  0  0  0  0
  129.1750  127.9260   71.3010 C   0  0  0  0  0  0  0  0  0  0  0  0
  129.3280  126.6430   70.7660 C   0  0  0  0  0  0  0  0  0  0  0  0
  129.3910  125.4450   71.7050 C   0  0  0  0  0  0  0  0  0  0  0  0
  129.4190  126.4880   69.3740 C   0  0  0  0  0  0  0  0  0  0  0  0
  129.5770  125.2140   68.7900 N   0  0  0  0  0  0  0  0  0  0  0  0
  129.6760  124.9240   67.4680 C   0  0  0  0  0  0  0  0  0  0  0  0
  129.8270  123.7600   67.0950 O   0  0  0  0  0  0  0  0  0  0  0  0
  131.3390  122.6850   63.1720 C   0  0  0  0  0  0  0  0  0  0  0  0
  130.6450  121.4850   63.0510 C   0  0  0  0  0  0  0  0  0  0  0  0
  1  2  1  0
  2  3  1  0
  3  4  2  0
  4  5  1  0
  5  6  2  0
  6  7  1  0
  7  8  1  0
  8  9  1  0
  9 10  2  0
 10 11  1  0
 11 12  2  0
 12 13  1  0
 13 14  1  0
 14 15  1  0
 15 16  1  0
 16 17  1  0
 17 18  1  0
 18 19  1  0
 19 20  1  0
 20 21  1  0
 21 22  1  0
 22 23  1  0
 14 24  1  0
 24 25  1  0
 25 26  2  0
 26 27  1  0
 27 28  2  0
 28 29  1  0
 28 30  1  0
 30 31  2  0
 31 32  1  0
 32 33  1  0
 32 34  2  0
 34 35  1  0
 35 36  1  0
 36 37  2  0
  6 38  1  0
 38 39  2  0
 39  3  1  0
 12  8  1  0
 23 18  1  0
 36 25  1  0
 34 27  1  0
M  END
>  <Binding energies>  (70) 
[-9.13]

>  <Ligand effiencies>  (70) 
[-0.22825]

>  <Interactions>  (70) 
["V-B:GLU:543:CG:9875, V-A:TRP:381:CZ3:3366, H-B:GLU:543:O:9871, V-A:HIS:456:CE1:4064, V-A:TRP:381:CZ2:3365, V-B:ALA:541:CB:9860, V-B:GLU:543:CB:9874, V-A:TRP:381:CH2:3367, V-B:TYR:539:CD2:9842, V-A:LEU:475:CD2:4254, V-A:GLU:543:CB:4901, V-A:ASP:366:CG:3208, V-B:HIS:456:CE1:9037, V-A:GLU:543:CG:4902, V-B:GLU:543:C:9870, H-B:TYR:484:OH:9315, V-B:GLU:543:CA:9872, V-A:GLU:543:CD:4903, V-B:GLU:543:CD:9876, H-A:TYR:484:OH:4343, H-A:ARG:545:NE:4919, H-A:GLY:454:N:4045, V-A:ARG:545:CZ:4921, H-A:HIS:456:NE2:4065, V-A:LEU:475:CD1:4253, V-A:GLU:543:C:4897, V-B:HIS:456:CD2:9035, V-B:ARG:545:CD:9891, V-B:TYR:484:CE1:9312, V-A:GLU:543:CA:4899, H-B:GLY:454:N:9017"]

$$$$
RR15_Rahimova_2017
     RDKit          3D

 45 49  0  0  0  0  0  0  0  0999 V2000
  128.3950  130.3130   74.1330 C   0  0  0  0  0  0  0  0  0  0  0  0
  129.2490  129.2170   73.8200 O   0  0  0  0  0  0  0  0  0  0  0  0
  129.2960  128.7390   72.5220 C   0  0  0  0  0  0  0  0  0  0  0  0
  129.2210  129.5610   71.3870 C   0  0  0  0  0  0  0  0  0  0  0  0
  129.2720  129.0150   70.1070 C   0  0  0  0  0  0  0  0  0  0  0  0
  129.3960  127.6340   69.9230 C   0  0  0  0  0  0  0  0  0  0  0  0
  129.4440  127.0430   68.5410 C   0  0  0  0  0  0  0  0  0  0  0  0
  128.3570  126.6840   67.8730 N   0  0  0  0  0  0  0  0  0  0  0  0
  128.7980  126.1840   66.6650 N   0  0  0  0  0  0  0  0  0  0  0  0
  130.1220  126.3370   66.7270 N   0  0  0  0  0  0  0  0  0  0  0  0
  131.0140  125.7840   65.7090 C   0  0  0  0  0  0  0  0  0  0  0  0
  130.3940  125.6730   64.2940 C   0  0  0  0  0  0  0  0  0  0  0  0
  129.8500  124.6130   63.9780 O   0  0  0  0  0  0  0  0  0  0  0  0
  130.4360  126.7490   63.4490 N   0  0  0  0  0  0  0  0  0  0  0  0
  129.6600  127.9740   63.7270 C   0  0  0  0  0  0  0  0  0  0  0  0
  128.1810  127.7010   64.0790 C   0  0  0  0  0  0  0  0  0  0  0  0
  127.5470  128.7240   65.0510 C   0  0  0  0  0  0  0  0  0  0  0  0
  126.1160  128.9460   64.8230 N   0  0  0  0  0  0  0  0  0  0  0  0
  125.4100  129.4850   65.9950 C   0  0  0  0  0  0  0  0  0  0  0  0
  123.9280  129.7810   65.6750 C   0  0  0  0  0  0  0  0  0  0  0  0
  123.8320  130.6420   64.5460 O   0  0  0  0  0  0  0  0  0  0  0  0
  124.4250  130.0770   63.3810 C   0  0  0  0  0  0  0  0  0  0  0  0
  125.9210  129.7920   63.6370 C   0  0  0  0  0  0  0  0  0  0  0  0
  131.3940  126.8610   62.3070 C   0  0  2  0  0  0  0  0  0  0  0  0
  130.8530  127.6910   61.1010 C   0  0  0  0  0  0  0  0  0  0  0  0
  130.1690  127.1660   60.2230 O   0  0  0  0  0  0  0  0  0  0  0  0
  131.1510  129.0030   61.1180 N   0  0  0  0  0  0  0  0  0  0  0  0
  130.6710  129.9890   60.1570 C   0  0  0  0  0  0  0  0  0  0  0  0
  131.7500  131.0450   59.8570 C   0  0  2  0  0  0  0  0  0  0  0  0
  132.7520  130.6690   58.7510 C   0  0  0  0  0  0  0  0  0  0  0  0
  133.9910  130.2310   59.4950 C   0  0  0  0  0  0  0  0  0  0  0  0
  133.9420  131.1360   60.7150 C   0  0  0  0  0  0  0  0  0  0  0  0
  132.5570  131.1400   61.0400 O   0  0  0  0  0  0  0  0  0  0  0  0
  132.0250  125.5080   62.0000 C   0  0  0  0  0  0  0  0  0  0  0  0
  131.4180  124.7010   61.0300 C   0  0  0  0  0  0  0  0  0  0  0  0
  131.9490  123.4550   60.7090 C   0  0  0  0  0  0  0  0  0  0  0  0
  133.0970  123.0070   61.3570 C   0  0  0  0  0  0  0  0  0  0  0  0
  133.6150  121.7970   61.0440 F   0  0  0  0  0  0  0  0  0  0  0  0
  133.7160  123.7950   62.3230 C   0  0  0  0  0  0  0  0  0  0  0  0
  133.1830  125.0410   62.6440 C   0  0  0  0  0  0  0  0  0  0  0  0
  130.5710  126.8290   67.8880 N   0  0  0  0  0  0  0  0  0  0  0  0
  129.4720  126.8150   71.0580 C   0  0  0  0  0  0  0  0  0  0  0  0
  129.4260  127.3520   72.3560 C   0  0  0  0  0  0  0  0  0  0  0  0
  129.5010  126.5860   73.5060 O   0  0  0  0  0  0  0  0  0  0  0  0
  130.6150  125.7230   73.7050 C   0  0  0  0  0  0  0  0  0  0  0  0
  1  2  1  0
  2  3  1  0
  3  4  2  0
  4  5  1  0
  5  6  2  0
  6  7  1  0
  7  8  1  0
  8  9  2  0
  9 10  1  0
 10 11  1  0
 11 12  1  0
 12 13  2  0
 12 14  1  0
 14 15  1  0
 15 16  1  0
 16 17  1  0
 17 18  1  0
 18 19  1  0
 19 20  1  0
 20 21  1  0
 21 22  1  0
 22 23  1  0
 24 14  1  1
 24 25  1  0
 25 26  2  0
 25 27  1  0
 27 28  1  0
 29 28  1  1
 29 30  1  0
 30 31  1  0
 31 32  1  0
 32 33  1  0
 24 34  1  0
 34 35  2  0
 35 36  1  0
 36 37  2  0
 37 38  1  0
 37 39  1  0
 39 40  2  0
 10 41  1  0
  6 42  1  0
 42 43  2  0
 43 44  1  0
 44 45  1  0
 43  3  1  0
 41  7  2  0
 23 18  1  0
 33 29  1  0
 40 34  1  0
M  END
>  <Binding energies>  (71) 
[-8.59]

>  <Ligand effiencies>  (71) 
[-0.1867391304347826]

>  <Interactions>  (71) 
["V-A:HIS:456:CE1:4064, H-B:LYS:547:NZ:9919, V-A:LEU:475:CD2:4254, V-A:ILE:369:CD1:3234, V-A:ASP:366:CG:3208, V-B:HIS:456:CE1:9037, V-A:ASP:366:CB:3207, H-B:TYR:484:OH:9315, V-A:GLU:543:CD:4903, V-B:GLU:543:CD:9876, H-A:ASP:366:OD2:3210, V-A:ILE:369:CG2:3232, V-A:ARG:545:CZ:4921, H-A:GLU:543:OE2:4905, H-A:HIS:456:NE2:4065, V-B:ARG:545:CG:9890, H-A:GLU:543:OE1:4904, V-B:HIS:456:CD2:9035, V-A:PRO:540:CA:4878, V-B:ARG:545:CD:9891, V-A:ASN:362:C:3167, V-A:LEU:363:CA:3180, V-A:PRO:540:CB:4880, H-A:LYS:547:NZ:4946, V-B:ARG:545:CZ:9894, V-A:ASN:362:CB:3171, V-B:LYS:547:CE:9918, H-B:GLY:454:N:9017, V-A:ASN:362:CA:3169"]

$$$$
RR17_Rahimova_2017
     RDKit          3D

 38 41  0  0  0  0  0  0  0  0999 V2000
  129.0640  131.9000   72.7240 C   0  0  0  0  0  0  0  0  0  0  0  0
  130.1010  131.0510   73.4660 C   0  0  0  0  0  0  0  0  0  0  0  0
  129.6410  129.7030   73.5100 O   0  0  0  0  0  0  0  0  0  0  0  0
  129.3480  129.0470   72.3280 C   0  0  0  0  0  0  0  0  0  0  0  0
  128.0790  128.4780   72.2300 C   0  0  0  0  0  0  0  0  0  0  0  0
  127.6940  127.7980   71.0800 C   0  0  0  0  0  0  0  0  0  0  0  0
  128.5770  127.6700   69.9980 C   0  0  0  0  0  0  0  0  0  0  0  0
  128.1330  126.9310   68.7690 C   0  0  0  0  0  0  0  0  0  0  0  0
  127.0440  127.1420   68.2270 O   0  0  0  0  0  0  0  0  0  0  0  0
  129.0990  125.8650   68.2040 C   0  0  0  0  0  0  0  0  0  0  0  0
  129.1790  125.9060   66.3780 S   0  0  0  0  0  0  0  0  0  0  0  0
  130.9350  125.8940   66.1500 C   0  0  0  0  0  0  0  0  0  0  0  0
  131.8100  126.4500   66.9560 N   0  0  0  0  0  0  0  0  0  0  0  0
  133.0770  126.2150   66.4360 N   0  0  0  0  0  0  0  0  0  0  0  0
  132.9200  125.5220   65.3360 C   0  0  0  0  0  0  0  0  0  0  0  0
  134.0580  125.0370   64.4500 C   0  0  0  0  0  0  0  0  0  0  0  0
  133.7810  125.1470   63.0200 N   0  0  0  0  0  0  0  0  0  0  0  0
  133.5490  124.0410   62.1830 C   0  0  0  0  0  0  0  0  0  0  0  0
  133.6860  122.7710   62.7430 C   0  0  0  0  0  0  0  0  0  0  0  0
  133.4760  121.6330   61.9700 C   0  0  0  0  0  0  0  0  0  0  0  0
  133.1230  121.7530   60.6230 C   0  0  0  0  0  0  0  0  0  0  0  0
  132.9020  120.4940   59.7850 C   0  0  0  0  0  0  0  0  0  0  0  0
  131.6300  120.0920   59.8020 F   0  0  0  0  0  0  0  0  0  0  0  0
  133.2470  120.7130   58.5150 F   0  0  0  0  0  0  0  0  0  0  0  0
  133.6590  119.5090   60.2700 F   0  0  0  0  0  0  0  0  0  0  0  0
  132.9770  123.0260   60.0600 C   0  0  0  0  0  0  0  0  0  0  0  0
  133.1860  124.1620   60.8350 C   0  0  0  0  0  0  0  0  0  0  0  0
  131.5820  125.2940   65.0890 N   0  0  0  0  0  0  0  0  0  0  0  0
  131.0130  124.5840   64.0200 C   0  0  0  0  0  0  0  0  0  0  0  0
  130.6410  125.2670   62.8630 C   0  0  0  0  0  0  0  0  0  0  0  0
  130.0730  124.5640   61.8040 C   0  0  0  0  0  0  0  0  0  0  0  0
  129.8770  123.1760   61.9000 C   0  0  0  0  0  0  0  0  0  0  0  0
  129.3230  122.3980   60.9020 O   0  0  0  0  0  0  0  0  0  0  0  0
  129.2840  122.9000   59.5700 C   0  0  0  0  0  0  0  0  0  0  0  0
  130.2540  122.5100   63.0680 C   0  0  0  0  0  0  0  0  0  0  0  0
  130.8230  123.2070   64.1300 C   0  0  0  0  0  0  0  0  0  0  0  0
  129.8530  128.2430   70.0970 C   0  0  0  0  0  0  0  0  0  0  0  0
  130.2350  128.9250   71.2490 C   0  0  0  0  0  0  0  0  0  0  0  0
  1  2  1  0
  2  3  1  0
  3  4  1  0
  4  5  2  0
  5  6  1  0
  6  7  2  0
  7  8  1  0
  8  9  2  0
  8 10  1  0
 10 11  1  0
 11 12  1  0
 12 13  2  0
 13 14  1  0
 14 15  2  0
 15 16  1  0
 16 17  1  0
 17 18  1  0
 18 19  2  0
 19 20  1  0
 20 21  2  0
 21 22  1  0
 22 23  1  0
 22 24  1  0
 22 25  1  0
 21 26  1  0
 26 27  2  0
 15 28  1  0
 28 29  1  0
 29 30  2  0
 30 31  1  0
 31 32  2  0
 32 33  1  0
 33 34  1  0
 32 35  1  0
 35 36  2  0
  7 37  1  0
 37 38  2  0
 38  4  1  0
 28 12  1  0
 36 29  1  0
 27 18  1  0
M  END
>  <Binding energies>  (72) 
[-7.28]

>  <Ligand effiencies>  (72) 
[-0.18666666666666668]

>  <Interactions>  (72) 
["V-B:GLU:543:CG:9875, V-A:TRP:381:CZ3:3366, V-A:HIS:456:CE1:4064, V-A:TRP:381:CZ2:3365, V-B:ALA:541:CB:9860, V-B:GLU:543:CB:9874, V-A:TRP:381:CH2:3367, V-B:TYR:539:CD2:9842, V-A:LEU:475:CD2:4254, V-B:TYR:539:CE2:9844, V-A:ILE:369:CD1:3234, V-B:TYR:539:CZ:9845, V-A:ILE:369:CB:3231, V-A:ASP:366:CG:3208, V-B:HIS:456:CE1:9037, V-A:ASP:366:CB:3207, V-A:TYR:484:CZ:4342, V-B:GLU:543:C:9870, V-A:TYR:484:CE1:4340, V-B:GLU:543:CA:9872, H-A:ASP:366:OD2:3210, V-A:ILE:369:CG2:3232, H-A:ARG:545:NE:4919, H-A:ASP:366:OD1:3209, V-A:GLY:454:CA:4044, V-A:ARG:545:CZ:4921, H-A:HIS:456:NE2:4065, V-A:GLY:544:C:4907, V-A:LYS:547:CE:4945, V-B:HIS:456:CD2:9035, H-A:LYS:547:NZ:4946, V-A:GLY:453:CA:4039, V-A:GLY:453:C:4037"]

$$$$
RR19_Rahimova_2017
     RDKit          3D

 46 51  0  0  0  0  0  0  0  0999 V2000
  129.4870  127.8750   67.4190 O   0  0  0  0  0  0  0  0  0  0  0  0
  128.9660  127.6900   66.3160 C   0  0  0  0  0  0  0  0  0  0  0  0
  129.1740  126.6220   65.5050 N   0  0  0  0  0  0  0  0  0  0  0  0
  129.7790  125.4040   65.6990 C   0  0  0  0  0  0  0  0  0  0  0  0
  130.2630  124.7700   67.1930 S   0  0  0  0  0  0  0  0  0  0  0  0
  129.9230  124.7860   64.4820 N   0  0  0  0  0  0  0  0  0  0  0  0
  130.3170  123.5400   64.1190 C   0  0  0  0  0  0  0  0  0  0  0  0
  130.4760  122.5750   64.8700 O   0  0  0  0  0  0  0  0  0  0  0  0
  130.6000  123.3860   62.6030 C   0  0  2  0  0  0  0  0  0  0  0  0
  131.9730  123.9490   62.1350 C   0  0  0  0  0  0  0  0  0  0  0  0
  132.4800  123.4010   60.8100 C   0  0  0  0  0  0  0  0  0  0  0  0
  132.4800  122.0130   60.5530 C   0  0  0  0  0  0  0  0  0  0  0  0
  132.8720  121.5380   59.3090 C   0  0  0  0  0  0  0  0  0  0  0  0
  133.2480  122.4230   58.3060 C   0  0  0  0  0  0  0  0  0  0  0  0
  133.2230  123.7930   58.5350 C   0  0  0  0  0  0  0  0  0  0  0  0
  132.8330  124.2900   59.7710 C   0  0  0  0  0  0  0  0  0  0  0  0
  129.4800  123.9290   61.7870 N   0  0  0  0  0  0  0  0  0  0  0  0
  129.4490  125.2380   61.4060 C   0  0  0  0  0  0  0  0  0  0  0  0
  130.2690  126.1160   61.6840 O   0  0  0  0  0  0  0  0  0  0  0  0
  128.2240  125.3840   60.5820 C   0  0  0  0  0  0  0  0  0  0  0  0
  127.6830  126.4960   59.9360 C   0  0  0  0  0  0  0  0  0  0  0  0
  126.4970  126.3370   59.2100 C   0  0  0  0  0  0  0  0  0  0  0  0
  125.8750  125.0830   59.1380 C   0  0  0  0  0  0  0  0  0  0  0  0
  126.4350  123.9800   59.7930 C   0  0  0  0  0  0  0  0  0  0  0  0
  127.6160  124.1600   60.5130 C   0  0  0  0  0  0  0  0  0  0  0  0
  128.4380  123.1980   61.2890 C   0  0  0  0  0  0  0  0  0  0  0  0
  128.2260  121.9940   61.4420 O   0  0  0  0  0  0  0  0  0  0  0  0
  127.9860  128.7490   65.7450 C   0  0  2  0  0  0  0  0  0  0  0  0
  126.5220  128.2410   65.6030 C   0  0  0  0  0  0  0  0  0  0  0  0
  125.6810  129.0500   64.6320 C   0  0  0  0  0  0  0  0  0  0  0  0
  125.7230  128.7650   63.2500 C   0  0  0  0  0  0  0  0  0  0  0  0
  124.8770  129.4370   62.3770 C   0  0  0  0  0  0  0  0  0  0  0  0
  123.9690  130.3700   62.8590 C   0  0  0  0  0  0  0  0  0  0  0  0
  123.8890  130.6330   64.2220 C   0  0  0  0  0  0  0  0  0  0  0  0
  124.7270  129.9730   65.1120 C   0  0  0  0  0  0  0  0  0  0  0  0
  128.4690  129.3830   64.4840 N   0  0  0  0  0  0  0  0  0  0  0  0
  128.6340  130.7310   64.3780 C   0  0  0  0  0  0  0  0  0  0  0  0
  128.4080  131.5810   65.2390 O   0  0  0  0  0  0  0  0  0  0  0  0
  129.1440  130.9570   63.0020 C   0  0  0  0  0  0  0  0  0  0  0  0
  129.4850  132.1350   62.3360 C   0  0  0  0  0  0  0  0  0  0  0  0
  129.9500  132.0490   61.0190 C   0  0  0  0  0  0  0  0  0  0  0  0
  130.0700  130.8010   60.3920 C   0  0  0  0  0  0  0  0  0  0  0  0
  129.7250  129.6310   61.0790 C   0  0  0  0  0  0  0  0  0  0  0  0
  129.2610  129.7390   62.3910 C   0  0  0  0  0  0  0  0  0  0  0  0
  128.8290  128.7010   63.3570 C   0  0  0  0  0  0  0  0  0  0  0  0
  128.8020  127.4820   63.1810 O   0  0  0  0  0  0  0  0  0  0  0  0
  1  2  2  0
  2  3  1  0
  3  4  1  0
  4  5  2  0
  4  6  1  0
  6  7  1  0
  7  8  2  0
  7  9  1  0
  9 10  1  6
 10 11  1  0
 11 12  2  0
 12 13  1  0
 13 14  2  0
 14 15  1  0
 15 16  2  0
  9 17  1  0
 17 18  1  0
 18 19  2  0
 18 20  1  0
 20 21  2  0
 21 22  1  0
 22 23  2  0
 23 24  1  0
 24 25  2  0
 25 26  1  0
 26 27  2  0
  2 28  1  0
 28 29  1  6
 29 30  1  0
 30 31  2  0
 31 32  1  0
 32 33  2  0
 33 34  1  0
 34 35  2  0
 28 36  1  0
 36 37  1  0
 37 38  2  0
 37 39  1  0
 39 40  2  0
 40 41  1  0
 41 42  2  0
 42 43  1  0
 43 44  2  0
 44 45  1  0
 45 46  2  0
 16 11  1  0
 26 17  1  0
 35 30  1  0
 45 36  1  0
 25 20  1  0
 44 39  1  0
M  END
>  <Binding energies>  (73) 
[-10.0]

>  <Ligand effiencies>  (73) 
[-0.20833333333333334]

>  <Interactions>  (73) 
["V-B:GLU:543:CG:9875, V-A:HIS:456:CE1:4064, V-B:GLU:543:CB:9874, V-B:TYR:539:CD2:9842, V-B:TYR:539:CE2:9844, V-A:ILE:369:CD1:3234, V-B:TYR:539:CZ:9845, V-A:ASP:366:CA:3205, V-A:ILE:369:CB:3231, V-A:ASP:366:CG:3208, V-A:ASP:366:CB:3207, V-A:TYR:484:CZ:4342, V-A:GLU:543:CG:4902, H-B:TYR:484:OH:9315, V-A:TYR:484:CE1:4340, V-A:GLU:543:CD:4903, V-B:GLU:543:CD:9876, V-A:ILE:369:CG2:3232, H-A:TYR:484:OH:4343, H-B:ALA:541:N:9859, V-B:PRO:540:CA:9851, V-A:PRO:540:CA:4878, V-A:ALA:541:CB:4887, H-B:GLU:543:OE2:9878, V-B:ASP:366:CG:8180, V-B:ARG:545:CZ:9894"]

$$$$
RR1_Rahimova_2017
     RDKit          3D

 41 44  0  0  0  0  0  0  0  0999 V2000
  123.5310  124.8990   57.6280 C   0  0  0  0  0  0  0  0  0  0  0  0
  124.7600  124.5820   56.9830 O   0  0  0  0  0  0  0  0  0  0  0  0
  125.8440  124.1980   57.7490 C   0  0  0  0  0  0  0  0  0  0  0  0
  125.8980  124.2930   59.1480 C   0  0  0  0  0  0  0  0  0  0  0  0
  127.0380  123.8870   59.8360 C   0  0  0  0  0  0  0  0  0  0  0  0
  128.1360  123.3760   59.1430 C   0  0  0  0  0  0  0  0  0  0  0  0
  129.2580  123.0360   59.9220 N   0  0  0  0  0  0  0  0  0  0  0  0
  129.3480  122.1820   60.9640 C   0  0  0  0  0  0  0  0  0  0  0  0
  128.3960  121.5840   61.4660 O   0  0  0  0  0  0  0  0  0  0  0  0
  130.7710  121.9940   61.5160 C   0  0  0  0  0  0  0  0  0  0  0  0
  131.9940  123.2340   60.9660 S   0  0  0  0  0  0  0  0  0  0  0  0
  131.2080  124.6620   61.6360 C   0  0  0  0  0  0  0  0  0  0  0  0
  130.0650  125.1390   61.2130 N   0  0  0  0  0  0  0  0  0  0  0  0
  129.8500  126.1920   61.9950 C   0  0  0  0  0  0  0  0  0  0  0  0
  128.6230  127.0490   61.8710 C   0  0  0  0  0  0  0  0  0  0  0  0
  128.1500  127.8150   62.9480 C   0  0  0  0  0  0  0  0  0  0  0  0
  127.0040  128.6000   62.8040 C   0  0  0  0  0  0  0  0  0  0  0  0
  126.3510  128.6010   61.5730 C   0  0  0  0  0  0  0  0  0  0  0  0
  126.7800  127.8730   60.5110 N   0  0  0  0  0  0  0  0  0  0  0  0
  127.8960  127.1170   60.6720 C   0  0  0  0  0  0  0  0  0  0  0  0
  130.7890  126.4300   62.8920 N   0  0  0  0  0  0  0  0  0  0  0  0
  131.6650  125.4470   62.6620 N   0  0  0  0  0  0  0  0  0  0  0  0
  132.8740  125.3250   63.4750 C   0  0  0  0  0  0  0  0  0  0  0  0
  132.6980  125.6830   64.9610 C   0  0  0  0  0  0  0  0  0  0  0  0
  133.6720  125.7310   65.7210 O   0  0  0  0  0  0  0  0  0  0  0  0
  131.4290  125.9270   65.3400 N   0  0  0  0  0  0  0  0  0  0  0  0
  131.2090  126.3980   66.6270 N   0  0  0  0  0  0  0  0  0  0  0  0
  129.9500  126.3410   67.1130 C   0  0  0  0  0  0  0  0  0  0  0  0
  129.0050  125.8020   66.5270 O   0  0  0  0  0  0  0  0  0  0  0  0
  129.7450  126.9670   68.4780 C   0  0  0  0  0  0  0  0  0  0  0  0
  129.9880  128.3330   68.6630 C   0  0  0  0  0  0  0  0  0  0  0  0
  129.8180  128.9260   69.9100 C   0  0  0  0  0  0  0  0  0  0  0  0
  129.4050  128.1660   71.0160 C   0  0  0  0  0  0  0  0  0  0  0  0
  129.2310  128.6900   72.2840 O   0  0  0  0  0  0  0  0  0  0  0  0
  129.4680  130.0750   72.5090 C   0  0  0  0  0  0  0  0  0  0  0  0
  129.1650  126.7950   70.8530 C   0  0  0  0  0  0  0  0  0  0  0  0
  128.7800  126.0870   71.9790 O   0  0  0  0  0  0  0  0  0  0  0  0
  129.4830  124.9040   72.3420 C   0  0  0  0  0  0  0  0  0  0  0  0
  129.3340  126.2090   69.5860 C   0  0  0  0  0  0  0  0  0  0  0  0
  128.0850  123.2780   57.7440 C   0  0  0  0  0  0  0  0  0  0  0  0
  126.9430  123.6850   57.0600 C   0  0  0  0  0  0  0  0  0  0  0  0
  1  2  1  0
  2  3  1  0
  3  4  2  0
  4  5  1  0
  5  6  2  0
  6  7  1  0
  7  8  1  0
  8  9  2  0
  8 10  1  0
 10 11  1  0
 11 12  1  0
 12 13  2  0
 13 14  1  0
 14 15  1  0
 15 16  2  0
 16 17  1  0
 17 18  2  0
 18 19  1  0
 19 20  2  0
 14 21  2  0
 21 22  1  0
 22 23  1  0
 23 24  1  0
 24 25  2  0
 24 26  1  0
 26 27  1  0
 27 28  1  0
 28 29  2  0
 28 30  1  0
 30 31  2  0
 31 32  1  0
 32 33  2  0
 33 34  1  0
 34 35  1  0
 33 36  1  0
 36 37  1  0
 37 38  1  0
 36 39  2  0
  6 40  1  0
 40 41  2  0
 41  3  1  0
 22 12  1  0
 39 30  1  0
 20 15  1  0
M  END
>  <Binding energies>  (74) 
[-7.13]

>  <Ligand effiencies>  (74) 
[-0.16204545454545455]

>  <Interactions>  (74) 
["V-A:HIS:456:CE1:4064, H-B:LYS:547:NZ:9919, V-B:ALA:541:CB:9860, V-A:GLU:543:CB:4901, V-B:GLU:543:C:9870, V-A:GLU:543:CD:4903, H-A:TYR:484:OH:4343, H-A:ARG:545:NE:4919, V-A:ARG:545:CZ:4921, H-B:ALA:541:N:9859, V-B:PRO:540:CA:9851, H-A:HIS:456:NE2:4065, H-A:GLU:543:OE1:4904, V-A:GLU:543:C:4897, V-B:HIS:456:CD2:9035, V-B:ASP:366:CB:8179, V-B:ASP:366:CG:8180, V-B:LYS:547:CE:9918, V-B:LEU:363:CD1:8156, V-B:LEU:363:CA:8152, V-B:LEU:363:CB:8154, V-B:MET:535:CE:9803, H-B:TYR:531:OH:9763, V-B:TYR:531:CZ:9762, V-B:TYR:531:CE2:9761"]

$$$$
RR22_Rahimova_2017
     RDKit          3D

 31 36  0  0  0  0  0  0  0  0999 V2000
  134.7570  125.3740   64.8760 O   0  0  0  0  0  0  0  0  0  0  0  0
  133.5700  125.3080   64.5650 C   0  0  0  0  0  0  0  0  0  0  0  0
  132.5280  126.0850   65.0400 N   0  0  0  0  0  0  0  0  0  0  0  0
  131.2030  125.9190   64.5250 C   0  0  1  0  0  0  0  0  0  0  0  0
  130.3860  125.6600   65.6700 O   0  0  0  0  0  0  0  0  0  0  0  0
  129.3350  126.5360   65.9470 C   0  0  0  0  0  0  0  0  0  0  0  0
  128.8030  126.4810   67.2350 C   0  0  0  0  0  0  0  0  0  0  0  0
  127.7240  127.2980   67.5740 C   0  0  0  0  0  0  0  0  0  0  0  0
  127.1750  128.1600   66.6240 C   0  0  0  0  0  0  0  0  0  0  0  0
  127.7080  128.2140   65.3350 C   0  0  0  0  0  0  0  0  0  0  0  0
  128.8050  127.4200   64.9880 C   0  0  0  0  0  0  0  0  0  0  0  0
  129.4260  127.3720   63.6100 C   0  0  1  0  0  0  0  0  0  0  0  0
  129.4650  128.5780   62.6930 C   0  0  0  0  0  0  0  0  0  0  0  0
  130.7520  128.2770   61.9200 C   0  0  0  0  0  0  0  0  0  0  0  0
  131.0780  128.9200   60.6320 C   0  0  0  0  0  0  0  0  0  0  0  0
  130.3660  128.5900   59.4690 C   0  0  0  0  0  0  0  0  0  0  0  0
  130.6760  129.2000   58.2570 C   0  0  0  0  0  0  0  0  0  0  0  0
  131.6990  130.1430   58.1990 C   0  0  0  0  0  0  0  0  0  0  0  0
  132.4150  130.4820   59.3440 C   0  0  0  0  0  0  0  0  0  0  0  0
  132.1050  129.8740   60.5570 C   0  0  0  0  0  0  0  0  0  0  0  0
  131.4830  127.4370   62.5500 N   0  0  0  0  0  0  0  0  0  0  0  0
  130.8270  127.1090   63.7480 N   0  0  0  0  0  0  0  0  0  0  0  0
  131.2170  124.6480   63.6900 C   0  0  0  0  0  0  0  0  0  0  0  0
  130.0890  123.9900   63.3300 C   0  0  0  0  0  0  0  0  0  0  0  0
  129.9580  122.7680   62.5120 C   0  0  0  0  0  0  0  0  0  0  0  0
  130.8060  121.6600   62.6480 C   0  0  0  0  0  0  0  0  0  0  0  0
  130.6220  120.5380   61.8380 C   0  0  0  0  0  0  0  0  0  0  0  0
  129.5900  120.5560   60.9010 C   0  0  0  0  0  0  0  0  0  0  0  0
  128.7600  121.6170   60.7410 N   0  0  0  0  0  0  0  0  0  0  0  0
  128.9540  122.6990   61.5390 C   0  0  0  0  0  0  0  0  0  0  0  0
  132.8780  124.1300   63.3650 S   0  0  0  0  0  0  0  0  0  0  0  0
  1  2  2  0
  2  3  1  0
  4  3  1  1
  4  5  1  0
  5  6  1  0
  6  7  2  0
  7  8  1  0
  8  9  2  0
  9 10  1  0
 10 11  2  0
 11 12  1  0
 12 13  1  1
 13 14  1  0
 14 15  1  0
 15 16  2  0
 16 17  1  0
 17 18  2  0
 18 19  1  0
 19 20  2  0
 14 21  2  0
 21 22  1  0
  4 23  1  0
 23 24  2  0
 24 25  1  0
 25 26  2  0
 26 27  1  0
 27 28  2  0
 28 29  1  0
 29 30  2  0
 23 31  1  0
 31  2  1  0
 22  4  1  0
 30 25  1  0
 11  6  1  0
 22 12  1  0
 20 15  1  0
M  END
>  <Binding energies>  (75) 
[-8.48]

>  <Ligand effiencies>  (75) 
[-0.265]

>  <Interactions>  (75) 
["V-B:GLU:543:CG:9875, V-B:ALA:541:CB:9860, V-B:GLU:543:CB:9874, V-A:LEU:475:CD2:4254, V-B:HIS:456:CE1:9037, V-A:GLU:543:CD:4903, V-B:GLU:543:CD:9876, H-A:ARG:545:NH1:4922, H-A:TYR:484:OH:4343, H-A:ARG:545:NE:4919, H-A:ARG:545:NH2:4923, H-A:GLY:454:N:4045, V-A:ARG:545:CZ:4921, H-B:ALA:541:N:9859, H-A:GLU:543:OE1:4904, V-A:PRO:540:CB:4880"]

$$$$
RR24_Rahimova_2017
     RDKit          3D

 43 49  0  0  0  0  0  0  0  0999 V2000
  123.5320  133.5610   63.0090 C   0  0  0  0  0  0  0  0  0  0  0  0
  124.0740  132.1840   62.5990 C   0  0  2  0  0  0  0  0  0  0  0  0
  124.2740  131.2190   63.8050 C   0  0  0  0  0  0  0  0  0  0  0  0
  124.0630  131.5720   64.9700 O   0  0  0  0  0  0  0  0  0  0  0  0
  124.7240  129.9880   63.4200 O   0  0  0  0  0  0  0  0  0  0  0  0
  125.8390  129.4530   64.0250 C   0  0  0  0  0  0  0  0  0  0  0  0
  126.9990  130.2230   64.1240 C   0  0  0  0  0  0  0  0  0  0  0  0
  128.1300  129.6950   64.7420 C   0  0  0  0  0  0  0  0  0  0  0  0
  128.1030  128.4010   65.2690 C   0  0  0  0  0  0  0  0  0  0  0  0
  129.3570  127.8180   65.9300 C   0  0  1  0  0  0  0  0  0  0  0  0
  129.2880  127.9000   67.4730 C   0  0  0  0  0  0  0  0  0  0  0  0
  129.5150  126.8390   68.2700 C   0  0  0  0  0  0  0  0  0  0  0  0
  129.8250  125.5990   67.7670 N   0  0  0  0  0  0  0  0  0  0  0  0
  129.9180  125.3800   66.4130 C   0  0  0  0  0  0  0  0  0  0  0  0
  130.2410  124.1040   66.0810 N   0  0  0  0  0  0  0  0  0  0  0  0
  130.3010  123.6800   64.7890 C   0  0  0  0  0  0  0  0  0  0  0  0
  130.2810  122.4720   64.5490 O   0  0  0  0  0  0  0  0  0  0  0  0
  130.2110  124.7010   63.8550 N   0  0  0  0  0  0  0  0  0  0  0  0
  130.3620  124.3070   62.4390 C   0  0  0  0  0  0  0  0  0  0  0  0
  129.8860  126.0270   64.0820 C   0  0  0  0  0  0  0  0  0  0  0  0
  129.7720  126.8750   63.1910 O   0  0  0  0  0  0  0  0  0  0  0  0
  129.7060  126.3620   65.4980 C   0  0  0  0  0  0  0  0  0  0  0  0
  129.3820  127.2050   69.6700 C   0  0  0  0  0  0  0  0  0  0  0  0
  129.5100  126.4850   70.8580 C   0  0  0  0  0  0  0  0  0  0  0  0
  129.3140  127.1390   72.0770 C   0  0  0  0  0  0  0  0  0  0  0  0
  128.9960  128.5010   72.1020 C   0  0  0  0  0  0  0  0  0  0  0  0
  128.8690  129.2170   70.9080 C   0  0  0  0  0  0  0  0  0  0  0  0
  129.0640  128.5570   69.6930 C   0  0  0  0  0  0  0  0  0  0  0  0
  128.9960  129.0620   68.3060 C   0  0  0  0  0  0  0  0  0  0  0  0
  128.7530  130.1940   67.8920 O   0  0  0  0  0  0  0  0  0  0  0  0
  126.9320  127.6390   65.1840 C   0  0  0  0  0  0  0  0  0  0  0  0
  125.8010  128.1670   64.5680 C   0  0  0  0  0  0  0  0  0  0  0  0
  125.2960  132.2930   61.7490 N   0  0  0  0  0  0  0  0  0  0  0  0
  125.2960  131.8940   60.4460 C   0  0  0  0  0  0  0  0  0  0  0  0
  124.3570  131.4090   59.8120 O   0  0  0  0  0  0  0  0  0  0  0  0
  126.6670  132.1690   59.9490 C   0  0  0  0  0  0  0  0  0  0  0  0
  127.2420  131.9620   58.6940 C   0  0  0  0  0  0  0  0  0  0  0  0
  128.5810  132.3240   58.5040 C   0  0  0  0  0  0  0  0  0  0  0  0
  129.3180  132.8820   59.5560 C   0  0  0  0  0  0  0  0  0  0  0  0
  128.7230  133.0820   60.8060 C   0  0  0  0  0  0  0  0  0  0  0  0
  127.3880  132.7130   60.9770 C   0  0  0  0  0  0  0  0  0  0  0  0
  126.4970  132.8030   62.1610 C   0  0  0  0  0  0  0  0  0  0  0  0
  126.7790  133.2470   63.2740 O   0  0  0  0  0  0  0  0  0  0  0  0
  2  1  1  1
  2  3  1  0
  3  4  2  0
  3  5  1  0
  5  6  1  0
  6  7  2  0
  7  8  1  0
  8  9  2  0
 10  9  1  6
 10 11  1  0
 11 12  2  0
 12 13  1  0
 13 14  1  0
 14 15  1  0
 15 16  1  0
 16 17  2  0
 16 18  1  0
 18 19  1  0
 18 20  1  0
 20 21  2  0
 20 22  1  0
 12 23  1  0
 23 24  2  0
 24 25  1  0
 25 26  2  0
 26 27  1  0
 27 28  2  0
 28 29  1  0
 29 30  2  0
  9 31  1  0
 31 32  2  0
  2 33  1  0
 33 34  1  0
 34 35  2  0
 34 36  1  0
 36 37  2  0
 37 38  1  0
 38 39  2  0
 39 40  1  0
 40 41  2  0
 41 42  1  0
 42 43  2  0
 32  6  1  0
 42 33  1  0
 22 10  1  0
 28 23  1  0
 41 36  1  0
 29 11  1  0
 22 14  2  0
M  END
>  <Binding energies>  (76) 
[-9.28]

>  <Ligand effiencies>  (76) 
[-0.2062222222222222]

>  <Interactions>  (76) 
["V-B:GLU:543:CG:9875, H-B:GLU:543:O:9871, V-A:HIS:456:CE1:4064, V-B:GLU:543:CB:9874, V-A:GLU:543:CB:4901, V-B:HIS:456:CE1:9037, V-A:TYR:484:CZ:4342, V-A:GLU:543:CG:4902, H-B:TYR:484:OH:9315, V-A:TYR:484:CE1:4340, V-A:GLU:543:CD:4903, V-B:GLU:543:CD:9876, H-A:TYR:484:OH:4343, V-A:TYR:539:CE2:4871, V-B:HIS:456:CD2:9035, V-A:PRO:540:CA:4878, V-A:TYR:539:CD2:4869, V-A:TYR:539:C:4862, V-A:PRO:540:N:4879, V-A:PRO:540:CB:4880, V-B:ARG:545:CZ:9894, H-A:TYR:539:OH:4873, V-A:TYR:539:CZ:4872, V-A:TYR:539:CE1:4870, V-B:LEU:475:CD2:9226, V-B:ILE:369:CD1:8206, H-B:GLY:454:N:9017, V-B:GLY:454:CA:9016"]

$$$$
RR25_Rahimova_2017
     RDKit          3D

 39 44  0  0  0  0  0  0  0  0999 V2000
  126.2170  127.2650   67.5460 O   0  0  0  0  0  0  0  0  0  0  0  0
  127.1470  127.2640   66.7400 C   0  0  0  0  0  0  0  0  0  0  0  0
  128.3250  126.7060   67.1730 O   0  0  0  0  0  0  0  0  0  0  0  0
  129.3540  126.4200   66.2940 C   0  0  0  0  0  0  0  0  0  0  0  0
  130.2310  125.4020   66.6660 C   0  0  0  0  0  0  0  0  0  0  0  0
  131.2960  125.0670   65.8320 C   0  0  0  0  0  0  0  0  0  0  0  0
  131.5010  125.7440   64.6210 C   0  0  0  0  0  0  0  0  0  0  0  0
  132.6310  125.3800   63.7310 N   0  0  0  0  0  0  0  0  0  0  0  0
  133.5670  124.7390   64.2010 O   0  0  0  0  0  0  0  0  0  0  0  0
  132.5900  125.7330   62.5560 O   0  0  0  0  0  0  0  0  0  0  0  0
  130.6130  126.7750   64.2710 C   0  0  0  0  0  0  0  0  0  0  0  0
  129.5450  127.1290   65.1000 C   0  0  0  0  0  0  0  0  0  0  0  0
  128.5530  128.2260   64.7610 C   0  0  0  0  0  0  0  0  0  0  0  0
  127.1440  127.8410   65.2940 C   0  0  2  0  0  0  0  0  0  0  0  0
  126.1200  128.9880   65.0520 C   0  0  0  0  0  0  0  0  0  0  0  0
  125.5230  129.4020   66.0500 O   0  0  0  0  0  0  0  0  0  0  0  0
  125.9780  129.5920   63.8340 N   0  0  0  0  0  0  0  0  0  0  0  0
  126.4140  128.9590   62.5710 C   0  0  0  0  0  0  0  0  0  0  0  0
  126.9770  130.0470   61.6320 C   0  0  0  0  0  0  0  0  0  0  0  0
  126.0090  131.1260   61.4230 N   0  0  0  0  0  0  0  0  0  0  0  0
  126.4890  132.0950   60.4270 C   0  0  0  0  0  0  0  0  0  0  0  0
  127.7780  132.8320   60.8780 C   0  0  0  0  0  0  0  0  0  0  0  0
  129.0500  132.3760   60.2460 N   0  0  0  0  0  0  0  0  0  0  0  0
  130.1050  132.1890   61.1130 C   0  0  0  0  0  0  0  0  0  0  0  0
  130.0320  132.4140   62.3270 O   0  0  0  0  0  0  0  0  0  0  0  0
  131.3710  131.6630   60.4640 C   0  0  0  0  0  0  0  0  0  0  0  0
  132.4980  131.4110   61.2580 C   0  0  0  0  0  0  0  0  0  0  0  0
  133.6750  130.9200   60.6960 C   0  0  0  0  0  0  0  0  0  0  0  0
  133.7630  130.6610   59.3290 C   0  0  0  0  0  0  0  0  0  0  0  0
  132.6500  130.8990   58.4880 C   0  0  0  0  0  0  0  0  0  0  0  0
  132.6700  130.6570   57.0940 C   0  0  0  0  0  0  0  0  0  0  0  0
  131.5360  130.9110   56.3230 C   0  0  0  0  0  0  0  0  0  0  0  0
  130.3710  131.4050   56.9050 C   0  0  0  0  0  0  0  0  0  0  0  0
  130.3050  131.6600   58.2810 C   0  0  0  0  0  0  0  0  0  0  0  0
  131.4540  131.4030   59.0720 C   0  0  0  0  0  0  0  0  0  0  0  0
  129.0150  132.1900   58.8790 C   0  0  0  0  0  0  0  0  0  0  0  0
  128.0170  132.4150   58.1870 O   0  0  0  0  0  0  0  0  0  0  0  0
  125.7000  131.7720   62.7000 C   0  0  0  0  0  0  0  0  0  0  0  0
  125.0930  130.7730   63.7140 C   0  0  0  0  0  0  0  0  0  0  0  0
  1  2  2  0
  2  3  1  0
  3  4  1  0
  4  5  2  0
  5  6  1  0
  6  7  2  0
  7  8  1  0
  8  9  2  0
  8 10  1  0
  7 11  1  0
 11 12  2  0
 12 13  1  0
 13 14  1  0
 14 15  1  1
 15 16  2  0
 15 17  1  0
 17 18  1  0
 18 19  1  0
 19 20  1  0
 20 21  1  0
 21 22  1  0
 22 23  1  0
 23 24  1  0
 24 25  2  0
 24 26  1  0
 26 27  2  0
 27 28  1  0
 28 29  2  0
 29 30  1  0
 30 31  2  0
 31 32  1  0
 32 33  2  0
 33 34  1  0
 34 35  2  0
 34 36  1  0
 36 37  2  0
 20 38  1  0
 38 39  1  0
 14  2  1  0
 39 17  1  0
 12  4  1  0
 36 23  1  0
 35 26  1  0
 35 30  1  0
M  CHG  2   8   1  10  -1
M  END
>  <Binding energies>  (77) 
[-10.13]

>  <Ligand effiencies>  (77) 
[-0.25974358974358974]

>  <Interactions>  (77) 
["V-B:GLU:543:CG:9875, V-B:GLU:543:CB:9874, V-B:HIS:456:CE1:9037, V-A:TYR:484:CZ:4342, H-B:TYR:484:OH:9315, V-A:GLU:543:CD:4903, V-B:GLU:543:CD:9876, H-A:TYR:484:OH:4343, H-A:ARG:545:NH2:4923, H-A:GLY:454:N:4045, V-A:ARG:545:CZ:4921, V-A:TYR:539:CE2:4871, H-A:ALA:541:N:4886, V-A:PRO:540:CA:4878, V-A:PRO:540:C:4876, V-A:LEU:363:CD1:3184, V-A:TYR:531:CE2:4788, V-A:ASN:362:C:3167, V-A:LEU:363:CA:3180, V-A:TYR:531:CZ:4789, V-A:PRO:540:CB:4880, V-A:LEU:363:CB:3182, V-A:ASN:362:CB:3171"]

$$$$
RR27_Rahimova_2017
     RDKit          3D

 39 44  0  0  0  0  0  0  0  0999 V2000
  130.3100  123.3890   57.5720 O   0  0  0  0  0  0  0  0  0  0  0  0
  129.3790  123.4590   58.3800 C   0  0  0  0  0  0  0  0  0  0  0  0
  128.2810  124.5380   58.1510 C   0  0  0  0  0  0  0  0  0  0  0  0
  128.0800  125.4630   59.3650 C   0  0  0  0  0  0  0  0  0  0  0  0
  129.0870  126.3340   59.8080 C   0  0  0  0  0  0  0  0  0  0  0  0
  128.8710  127.1590   60.9080 C   0  0  0  0  0  0  0  0  0  0  0  0
  127.6470  127.1170   61.5710 C   0  0  0  0  0  0  0  0  0  0  0  0
  126.6390  126.2570   61.1450 C   0  0  0  0  0  0  0  0  0  0  0  0
  126.8560  125.4320   60.0450 C   0  0  0  0  0  0  0  0  0  0  0  0
  126.9880  123.9250   57.5800 C   0  0  0  0  0  0  0  0  0  0  0  0
  125.7910  124.6520   57.5200 C   0  0  0  0  0  0  0  0  0  0  0  0
  124.6370  124.0640   57.0090 C   0  0  0  0  0  0  0  0  0  0  0  0
  124.6740  122.7460   56.5610 C   0  0  0  0  0  0  0  0  0  0  0  0
  125.8530  122.0080   56.6250 C   0  0  0  0  0  0  0  0  0  0  0  0
  127.0050  122.5970   57.1370 C   0  0  0  0  0  0  0  0  0  0  0  0
  129.2160  122.5290   59.3650 N   0  0  0  0  0  0  0  0  0  0  0  0
  128.2900  122.6990   60.4950 C   0  0  0  0  0  0  0  0  0  0  0  0
  129.0650  123.4540   61.5980 C   0  0  0  0  0  0  0  0  0  0  0  0
  130.3970  122.7420   61.9950 C   0  0  0  0  0  0  0  0  0  0  0  0
  131.2620  123.5120   63.0100 C   0  0  0  0  0  0  0  0  0  0  0  0
  132.5760  123.6850   62.6800 N   0  0  0  0  0  0  0  0  0  0  0  0
  133.3790  124.3820   63.5310 C   0  0  0  0  0  0  0  0  0  0  0  0
  134.7090  124.6240   63.3090 O   0  0  0  0  0  0  0  0  0  0  0  0
  132.8210  124.8940   64.7190 C   0  0  0  0  0  0  0  0  0  0  0  0
  133.3240  125.6210   65.7580 N   0  0  0  0  0  0  0  0  0  0  0  0
  132.2920  125.8270   66.6530 N   0  0  0  0  0  0  0  0  0  0  0  0
  131.1730  125.2460   66.1700 N   0  0  0  0  0  0  0  0  0  0  0  0
  129.9280  125.2880   66.9320 C   0  0  0  0  0  0  0  0  0  0  0  0
  129.3730  126.6940   67.1200 C   0  0  0  0  0  0  0  0  0  0  0  0
  129.9600  127.5640   68.0450 C   0  0  0  0  0  0  0  0  0  0  0  0
  129.4580  128.8560   68.2100 C   0  0  0  0  0  0  0  0  0  0  0  0
  128.3720  129.2860   67.4480 C   0  0  0  0  0  0  0  0  0  0  0  0
  127.7880  128.4260   66.5170 C   0  0  0  0  0  0  0  0  0  0  0  0
  126.4600  128.9660   65.5540 Cl  0  0  0  0  0  0  0  0  0  0  0  0
  128.2840  127.1320   66.3570 C   0  0  0  0  0  0  0  0  0  0  0  0
  131.4530  124.6400   64.9560 C   0  0  0  0  0  0  0  0  0  0  0  0
  130.6460  123.9540   64.1430 N   0  0  0  0  0  0  0  0  0  0  0  0
  131.1940  122.2590   60.7440 C   0  0  0  0  0  0  0  0  0  0  0  0
  130.2990  121.5830   59.6750 C   0  0  0  0  0  0  0  0  0  0  0  0
  1  2  2  0
  2  3  1  0
  3  4  1  0
  4  5  2  0
  5  6  1  0
  6  7  2  0
  7  8  1  0
  8  9  2  0
  3 10  1  0
 10 11  2  0
 11 12  1  0
 12 13  2  0
 13 14  1  0
 14 15  2  0
  2 16  1  0
 16 17  1  0
 17 18  1  0
 18 19  1  0
 19 20  1  0
 20 21  2  0
 21 22  1  0
 22 23  1  0
 22 24  2  0
 24 25  1  0
 25 26  2  0
 26 27  1  0
 27 28  1  0
 28 29  1  0
 29 30  2  0
 30 31  1  0
 31 32  2  0
 32 33  1  0
 33 34  1  0
 33 35  2  0
 27 36  1  0
 36 37  2  0
 19 38  1  0
 38 39  1  0
  9  4  1  0
 15 10  1  0
 39 16  1  0
 37 20  1  0
 36 24  1  0
 35 29  1  0
M  END
>  <Binding energies>  (78) 
[-10.18]

>  <Ligand effiencies>  (78) 
[-0.2545]

>  <Interactions>  (78) 
["V-B:GLU:543:CG:9875, V-A:HIS:456:CE1:4064, V-B:GLU:543:CB:9874, V-B:TYR:539:C:9835, V-B:TYR:539:CD2:9842, V-A:GLU:543:CB:4901, V-B:TYR:539:CE2:9844, V-B:HIS:456:CE1:9037, V-A:GLU:543:CG:4902, V-B:GLU:543:CD:9876, H-A:ASP:366:OD2:3210, H-A:ARG:545:NH1:4922, H-A:TYR:484:OH:4343, H-A:ARG:545:NE:4919, H-A:ASP:366:OD1:3209, H-A:GLY:454:N:4045, V-B:PRO:540:CB:9853, V-B:PRO:540:CA:9851, H-A:HIS:456:NE2:4065, V-B:LEU:363:CD1:8156, V-B:PRO:540:CD:9855, V-B:PRO:540:N:9852, V-B:MET:535:CE:9803, H-B:TYR:539:OH:9846, V-B:TYR:539:CA:9837, V-B:TYR:531:CE2:9761"]

$$$$
RR28_Rahimova_2017
     RDKit          3D

 46 49  0  0  0  0  0  0  0  0999 V2000
  123.5500  123.5010   60.6770 C   0  0  0  0  0  0  0  0  0  0  0  0
  125.0190  123.6710   61.0470 C   0  0  0  0  0  0  0  0  0  0  0  0
  125.4770  123.0620   62.0110 O   0  0  0  0  0  0  0  0  0  0  0  0
  125.7380  124.5050   60.2680 N   0  0  0  0  0  0  0  0  0  0  0  0
  127.1680  124.8670   60.3910 C   0  0  0  0  0  0  0  0  0  0  0  0
  127.2600  126.2560   61.0850 C   0  0  0  0  0  0  0  0  0  0  0  0
  128.5080  126.8910   61.1920 C   0  0  0  0  0  0  0  0  0  0  0  0
  128.6280  128.1310   61.8110 C   0  0  0  0  0  0  0  0  0  0  0  0
  127.5030  128.7670   62.3390 C   0  0  0  0  0  0  0  0  0  0  0  0
  127.6560  130.1270   63.0190 C   0  0  0  0  0  0  0  0  0  0  0  0
  127.6150  131.1370   62.1470 F   0  0  0  0  0  0  0  0  0  0  0  0
  126.6800  130.3120   63.9080 F   0  0  0  0  0  0  0  0  0  0  0  0
  128.8280  130.1710   63.6530 F   0  0  0  0  0  0  0  0  0  0  0  0
  126.2560  128.1450   62.2400 C   0  0  0  0  0  0  0  0  0  0  0  0
  126.1360  126.9030   61.6210 C   0  0  0  0  0  0  0  0  0  0  0  0
  127.8720  124.8150   58.9880 C   0  0  0  0  0  0  0  0  0  0  0  0
  127.9410  123.3870   58.3890 C   0  0  0  0  0  0  0  0  0  0  0  0
  128.6780  122.5630   59.3610 N   0  0  0  0  0  0  0  0  0  0  0  0
  130.0220  122.3910   59.2370 C   0  0  0  0  0  0  0  0  0  0  0  0
  130.6400  122.7650   58.2380 O   0  0  0  0  0  0  0  0  0  0  0  0
  130.7710  121.5580   60.3050 C   0  0  0  0  0  0  0  0  0  0  0  0
  132.1700  122.0880   60.7220 C   0  0  0  0  0  0  0  0  0  0  0  0
  132.2700  123.6240   60.8780 C   0  0  0  0  0  0  0  0  0  0  0  0
  133.1330  124.2170   60.2260 O   0  0  0  0  0  0  0  0  0  0  0  0
  131.3320  124.2910   61.6100 N   0  0  0  0  0  0  0  0  0  0  0  0
  130.5010  123.6490   62.6340 C   0  0  0  0  0  0  0  0  0  0  0  0
  131.3240  123.6600   63.9410 C   0  0  0  0  0  0  0  0  0  0  0  0
  131.7960  125.0820   64.4060 C   0  0  0  0  0  0  0  0  0  0  0  0
  132.8790  124.9310   65.4010 N   0  0  0  0  0  0  0  0  0  0  0  0
  134.2080  125.0460   65.2080 C   0  0  0  0  0  0  0  0  0  0  0  0
  135.0910  124.8160   66.4310 C   0  0  0  0  0  0  0  0  0  0  0  0
  134.7270  125.3170   64.1260 O   0  0  0  0  0  0  0  0  0  0  0  0
  130.5880  125.7660   65.1240 C   0  0  0  0  0  0  0  0  0  0  0  0
  129.7940  126.7480   64.5090 C   0  0  0  0  0  0  0  0  0  0  0  0
  128.7250  127.3320   65.1830 C   0  0  0  0  0  0  0  0  0  0  0  0
  128.4240  126.9510   66.4930 C   0  0  0  0  0  0  0  0  0  0  0  0
  127.2520  127.5800   67.2450 C   0  0  0  0  0  0  0  0  0  0  0  0
  127.2970  127.2580   68.5390 F   0  0  0  0  0  0  0  0  0  0  0  0
  127.3220  128.9060   67.1330 F   0  0  0  0  0  0  0  0  0  0  0  0
  126.0730  127.1810   66.7630 F   0  0  0  0  0  0  0  0  0  0  0  0
  129.2090  125.9830   67.1210 C   0  0  0  0  0  0  0  0  0  0  0  0
  130.2760  125.4010   66.4440 C   0  0  0  0  0  0  0  0  0  0  0  0
  132.3110  125.8880   63.1510 C   0  0  0  0  0  0  0  0  0  0  0  0
  131.4760  125.7320   61.8520 C   0  0  0  0  0  0  0  0  0  0  0  0
  127.9720  122.4000   60.6400 C   0  0  0  0  0  0  0  0  0  0  0  0
  127.8810  123.8050   61.2910 C   0  0  0  0  0  0  0  0  0  0  0  0
  1  2  1  0
  2  3  2  0
  2  4  1  0
  4  5  1  0
  5  6  1  0
  6  7  2  0
  7  8  1  0
  8  9  2  0
  9 10  1  0
 10 11  1  0
 10 12  1  0
 10 13  1  0
  9 14  1  0
 14 15  2  0
  5 16  1  0
 16 17  1  0
 17 18  1  0
 18 19  1  0
 19 20  2  0
 19 21  1  0
 21 22  1  0
 22 23  1  0
 23 24  2  0
 23 25  1  0
 25 26  1  0
 26 27  1  0
 27 28  1  0
 28 29  1  0
 29 30  1  0
 30 31  1  0
 30 32  2  0
 28 33  1  0
 33 34  2  0
 34 35  1  0
 35 36  2  0
 36 37  1  0
 37 38  1  0
 37 39  1  0
 37 40  1  0
 36 41  1  0
 41 42  2  0
 28 43  1  0
 43 44  1  0
 18 45  1  0
 45 46  1  0
 46  5  1  0
 15  6  1  0
 44 25  1  0
 42 33  1  0
M  END
>  <Binding energies>  (79) 
[-8.38]

>  <Ligand effiencies>  (79) 
[-0.17458333333333334]

>  <Interactions>  (79) 
["V-B:PRO:540:C:9849, V-B:GLU:543:CG:9875, V-B:ALA:541:CB:9860, V-B:GLU:543:CB:9874, V-B:TYR:539:C:9835, V-B:TYR:539:CD2:9842, V-B:TYR:539:CE2:9844, V-B:HIS:456:CE1:9037, V-A:TYR:484:CZ:4342, V-A:GLU:543:CG:4902, V-B:GLU:543:C:9870, V-A:GLU:543:CD:4903, V-B:GLU:543:CD:9876, H-A:ARG:545:NH1:4922, H-A:TYR:484:OH:4343, H-A:ARG:545:NE:4919, H-A:ARG:545:NH2:4923, H-A:GLY:454:N:4045, V-A:GLY:454:CA:4044, V-B:ASN:362:CB:8143, V-A:ARG:545:CZ:4921, V-B:PRO:540:CB:9853, H-B:ALA:541:N:9859, V-B:PRO:540:CA:9851, V-B:ARG:545:CG:9890, V-B:ARG:545:CD:9891, V-B:ASP:366:CG:8180, V-A:ARG:545:CD:4918, V-A:GLY:453:CA:4039, V-A:ARG:545:CG:4917, V-A:HIS:456:CD2:4063, V-A:GLY:453:C:4037, H-B:ASP:366:OD2:8182, V-B:LEU:363:CA:8152, V-B:ASN:362:C:8139, V-B:ASN:362:CA:8141"]

$$$$
RR29_Rahimova_2017
     RDKit          3D

 18 19  0  0  0  0  0  0  0  0999 V2000
  129.1920  120.8730   60.7950 C   0  0  0  0  0  0  0  0  0  0  0  0
  128.6870  122.1970   61.3500 C   0  0  0  0  0  0  0  0  0  0  0  0
  129.5510  122.7320   62.5130 C   0  0  0  0  0  0  0  0  0  0  0  0
  130.0680  124.1580   62.2310 C   0  0  0  0  0  0  0  0  0  0  0  0
  131.3720  124.4530   62.9580 C   0  0  0  0  0  0  0  0  0  0  0  0
  132.5940  124.3990   62.2590 C   0  0  0  0  0  0  0  0  0  0  0  0
  133.8070  124.6680   62.9090 C   0  0  0  0  0  0  0  0  0  0  0  0
  133.7550  124.9780   64.2640 C   0  0  0  0  0  0  0  0  0  0  0  0
  132.5720  125.0300   64.9460 C   0  0  0  0  0  0  0  0  0  0  0  0
  131.3540  124.7770   64.3260 C   0  0  0  0  0  0  0  0  0  0  0  0
  132.8130  125.3860   66.2360 O   0  0  0  0  0  0  0  0  0  0  0  0
  134.2070  125.3460   66.3860 C   0  0  0  0  0  0  0  0  0  0  0  0
  134.7740  125.3010   65.1040 O   0  0  0  0  0  0  0  0  0  0  0  0
  127.6360  122.7180   60.8340 N   0  0  0  0  0  0  0  0  0  0  0  0
  127.1280  123.8720   61.3900 N   0  0  0  0  0  0  0  0  0  0  0  0
  126.1230  124.5840   60.8550 C   0  0  0  0  0  0  0  0  0  0  0  0
  125.4750  124.2660   59.7340 N   0  0  0  0  0  0  0  0  0  0  0  0
  125.7450  125.6860   61.4860 N   0  0  0  0  0  0  0  0  0  0  0  0
  1  2  1  0
  2  3  1  0
  3  4  1  0
  4  5  1  0
  5  6  2  0
  6  7  1  0
  7  8  2  0
  8  9  1  0
  9 10  2  0
  9 11  1  0
 11 12  1  0
 12 13  1  0
  2 14  2  0
 14 15  1  0
 15 16  1  0
 16 17  1  0
 16 18  2  0
 10  5  1  0
 13  8  1  0
M  CHG  1  18   1
M  END
>  <Binding energies>  (80) 
[-7.37]

>  <Ligand effiencies>  (80) 
[-0.3204347826086957]

>  <Interactions>  (80) 
["V-B:PRO:540:C:9849, V-B:ALA:541:CB:9860, V-B:ALA:541:CA:9858, V-B:TYR:539:C:9835, V-A:ASP:366:CG:3208, V-B:GLU:543:CD:9876, H-A:ARG:545:NH1:4922, H-A:TYR:484:OH:4343, H-A:ARG:545:NE:4919, H-A:GLY:454:N:4045, V-A:ARG:545:CZ:4921, V-B:PRO:540:CB:9853, H-B:ALA:541:N:9859, V-B:PRO:540:CA:9851, H-A:HIS:456:NE2:4065, H-B:GLU:543:OE2:9878, V-B:ASP:366:CG:8180, H-B:GLU:543:OE1:9877, V-A:ARG:545:CD:4918, V-A:ARG:545:CG:4917, V-A:HIS:456:CD2:4063, H-B:ASP:366:OD2:8182, H-B:ASP:366:OD1:8181"]

$$$$
RR30_Rahimova_2017
     RDKit          3D

 18 19  0  0  0  0  0  0  0  0999 V2000
  133.2260  122.7290   60.8680 C   0  0  0  0  0  0  0  0  0  0  0  0
  133.3660  124.2350   61.1290 C   0  0  0  0  0  0  0  0  0  0  0  0
  133.4540  124.5550   62.6050 C   0  0  0  0  0  0  0  0  0  0  0  0
  134.5260  124.6350   63.3540 N   0  0  0  0  0  0  0  0  0  0  0  0
  134.0750  124.9450   64.6350 N   0  0  0  0  0  0  0  0  0  0  0  0
  132.7710  125.0160   64.5520 C   0  0  0  0  0  0  0  0  0  0  0  0
  131.6290  125.3900   65.8430 S   0  0  0  0  0  0  0  0  0  0  0  0
  130.0620  125.0300   64.9890 C   0  0  0  0  0  0  0  0  0  0  0  0
  130.0760  123.6590   64.3080 C   0  0  0  0  0  0  0  0  0  0  0  0
  130.6110  122.7070   64.8810 O   0  0  0  0  0  0  0  0  0  0  0  0
  129.5140  123.6040   63.0800 N   0  0  0  0  0  0  0  0  0  0  0  0
  129.4110  122.4820   62.2710 C   0  0  0  0  0  0  0  0  0  0  0  0
  128.4590  122.1800   61.4160 N   0  0  0  0  0  0  0  0  0  0  0  0
  128.6880  120.9670   60.7780 N   0  0  0  0  0  0  0  0  0  0  0  0
  129.7990  120.3800   61.1590 C   0  0  0  0  0  0  0  0  0  0  0  0
  130.2620  119.0500   60.6110 C   0  0  0  0  0  0  0  0  0  0  0  0
  130.6730  121.2940   62.3580 S   0  0  0  0  0  0  0  0  0  0  0  0
  132.3100  124.7850   63.2960 O   0  0  0  0  0  0  0  0  0  0  0  0
  1  2  1  0
  2  3  1  0
  3  4  2  0
  4  5  1  0
  5  6  2  0
  6  7  1  0
  7  8  1  0
  8  9  1  0
  9 10  2  0
  9 11  1  0
 11 12  1  0
 12 13  2  0
 13 14  1  0
 14 15  2  0
 15 16  1  0
 15 17  1  0
  6 18  1  0
 18  3  1  0
 17 12  1  0
M  END
>  <Binding energies>  (81) 
[-6.57]

>  <Ligand effiencies>  (81) 
[-0.34578947368421054]

>  <Interactions>  (81) 
["V-B:GLU:543:CG:9875, V-A:TRP:381:CZ2:3365, V-B:ALA:541:CB:9860, V-A:TRP:381:CH2:3367, V-B:TYR:539:CD2:9842, V-A:LEU:475:CD2:4254, V-A:ILE:369:CD1:3234, V-A:ASP:366:CG:3208, V-A:ASP:366:CB:3207, V-B:GLU:543:CD:9876, H-A:ARG:545:NH1:4922, H-A:TYR:484:OH:4343, H-A:ARG:545:NE:4919, H-A:GLY:454:N:4045, H-B:ALA:541:N:9859, H-A:HIS:456:NE2:4065, H-B:GLU:543:OE2:9878"]

$$$$
RR31_Rahimova_2017
     RDKit          3D

 18 19  0  0  0  0  0  0  0  0999 V2000
  134.4300  125.3380   65.8350 C   0  0  0  0  0  0  0  0  0  0  0  0
  133.3100  125.0170   64.8550 C   0  0  0  0  0  0  0  0  0  0  0  0
  133.6130  124.3490   63.6680 C   0  0  0  0  0  0  0  0  0  0  0  0
  132.6090  124.0380   62.7530 C   0  0  0  0  0  0  0  0  0  0  0  0
  131.2700  124.3780   63.0010 C   0  0  0  0  0  0  0  0  0  0  0  0
  130.2540  124.0820   62.0890 N   0  0  0  0  0  0  0  0  0  0  0  0
  129.4640  122.8390   62.1750 C   0  0  0  0  0  0  0  0  0  0  0  0
  128.6930  122.4910   60.8800 C   0  0  0  0  0  0  0  0  0  0  0  0
  127.8220  123.5980   60.4760 N   0  0  0  0  0  0  0  0  0  0  0  0
  127.0500  123.2840   59.2700 C   0  0  0  0  0  0  0  0  0  0  0  0
  125.6110  123.8370   59.3140 C   0  0  0  0  0  0  0  0  0  0  0  0
  125.0380  123.8550   60.7400 C   0  0  0  0  0  0  0  0  0  0  0  0
  125.6030  125.0490   61.5170 N   0  0  0  0  0  0  0  0  0  0  0  0
  128.6770  124.7580   60.2260 C   0  0  0  0  0  0  0  0  0  0  0  0
  129.4370  125.1660   61.5080 C   0  0  0  0  0  0  0  0  0  0  0  0
  130.9800  125.0570   64.1940 C   0  0  0  0  0  0  0  0  0  0  0  0
  131.9790  125.3760   65.1210 C   0  0  0  0  0  0  0  0  0  0  0  0
  131.5990  126.1180   66.3970 C   0  0  0  0  0  0  0  0  0  0  0  0
  1  2  1  0
  2  3  2  0
  3  4  1  0
  4  5  2  0
  5  6  1  0
  6  7  1  0
  7  8  1  0
  8  9  1  0
  9 10  1  0
 10 11  1  0
 11 12  1  0
 12 13  1  0
  9 14  1  0
 14 15  1  0
  5 16  1  0
 16 17  2  0
 17 18  1  0
 17  2  1  0
 15  6  1  0
M  CHG  1  13   1
M  END
>  <Binding energies>  (82) 
[-5.76]

>  <Ligand effiencies>  (82) 
[-0.2742857142857143]

>  <Interactions>  (82) 
["V-A:HIS:456:CE1:4064, V-B:ALA:541:CB:9860, V-B:GLU:543:CD:9876, V-A:GLY:454:CA:4044, V-A:ARG:545:CZ:4921, V-B:PRO:540:CB:9853, V-B:PRO:540:CA:9851, H-B:GLU:543:OE2:9878, H-B:GLU:543:OE1:9877, V-A:ARG:545:CD:4918, V-A:GLY:453:CA:4039, V-A:ARG:545:CG:4917, H-B:ASP:366:OD2:8182, V-B:PRO:540:N:9852, H-B:ASP:366:OD1:8181"]

$$$$
RR32_Rahimova_2017
     RDKit          3D

 18 20  0  0  0  0  0  0  0  0999 V2000
  131.6180  120.9390   60.8080 C   0  0  0  0  0  0  0  0  0  0  0  0
  131.0380  121.8860   59.7620 C   0  0  0  0  0  0  0  0  0  0  0  0
  129.6510  122.0060   59.6770 C   0  0  0  0  0  0  0  0  0  0  0  0
  129.0860  122.8630   58.7370 C   0  0  0  0  0  0  0  0  0  0  0  0
  127.7100  122.9790   58.6560 N   0  0  0  0  0  0  0  0  0  0  0  0
  127.0610  123.9590   59.5460 C   0  0  0  0  0  0  0  0  0  0  0  0
  125.5160  123.8860   59.5120 C   0  0  0  0  0  0  0  0  0  0  0  0
  125.0300  124.1010   58.1490 N   0  0  0  0  0  0  0  0  0  0  0  0
  123.5720  124.0640   58.1220 C   0  0  0  0  0  0  0  0  0  0  0  0
  125.5790  123.0440   57.3030 C   0  0  0  0  0  0  0  0  0  0  0  0
  127.1250  123.1010   57.3060 C   0  0  0  0  0  0  0  0  0  0  0  0
  129.8350  123.6020   57.8770 N   0  0  0  0  0  0  0  0  0  0  0  0
  131.1910  123.5040   57.9330 C   0  0  0  0  0  0  0  0  0  0  0  0
  131.9460  124.2840   57.0240 C   0  0  0  0  0  0  0  0  0  0  0  0
  133.3350  124.2240   57.0350 C   0  0  0  0  0  0  0  0  0  0  0  0
  133.9980  123.4010   57.9380 C   0  0  0  0  0  0  0  0  0  0  0  0
  133.2860  122.6220   58.8450 C   0  0  0  0  0  0  0  0  0  0  0  0
  131.8610  122.6500   58.8690 C   0  0  0  0  0  0  0  0  0  0  0  0
  1  2  1  0
  2  3  2  0
  3  4  1  0
  4  5  1  0
  5  6  1  0
  6  7  1  0
  7  8  1  0
  8  9  1  0
  8 10  1  0
 10 11  1  0
  4 12  2  0
 12 13  1  0
 13 14  2  0
 14 15  1  0
 15 16  2  0
 16 17  1  0
 17 18  2  0
 18  2  1  0
 11  5  1  0
 18 13  1  0
M  END
>  <Binding energies>  (83) 
[-5.95]

>  <Ligand effiencies>  (83) 
[-0.33055555555555555]

>  <Interactions>  (83) 
["V-B:TYR:539:C:9835, V-B:TYR:539:CD2:9842, V-A:LEU:475:CD2:4254, V-B:TYR:539:CE2:9844, V-A:ILE:369:CD1:3234, V-B:TYR:539:CZ:9845, V-A:ASP:366:CA:3205, V-A:ILE:369:CB:3231, V-A:ASP:366:CB:3207, V-A:ASP:366:C:3203, V-A:ILE:369:CG2:3232, V-B:PRO:540:CB:9853, V-B:PRO:540:CA:9851, V-A:TYR:531:CZ:4789, V-B:ASP:366:CB:8179, V-B:ASP:366:CG:8180, V-B:LEU:363:CD1:8156, V-B:PRO:540:CD:9855, V-B:LEU:363:CA:8152, V-B:PRO:540:N:9852, V-B:LEU:363:CB:8154, V-B:MET:535:CE:9803, V-A:TYR:531:CE1:4787, V-B:LEU:363:CG:8155"]

$$$$
RR5_Rahimova_2017
     RDKit          3D

 45 50  0  0  0  0  0  0  0  0999 V2000
  129.9960  122.3690   62.9670 O   0  0  0  0  0  0  0  0  0  0  0  0
  130.2300  123.4700   62.4710 C   0  0  0  0  0  0  0  0  0  0  0  0
  130.5180  124.6750   63.3870 C   0  0  0  0  0  0  0  0  0  0  0  0
  131.6670  124.4250   64.4280 C   0  0  2  0  0  0  0  0  0  0  0  0
  131.3180  124.7350   65.8290 N   0  0  0  0  0  0  0  0  0  0  0  0
  130.6600  125.9080   66.1710 C   0  0  0  0  0  0  0  0  0  0  0  0
  130.2560  126.7790   65.3970 O   0  0  0  0  0  0  0  0  0  0  0  0
  130.5430  125.9530   67.5100 O   0  0  0  0  0  0  0  0  0  0  0  0
  129.4120  125.3980   68.1760 C   0  0  0  0  0  0  0  0  0  0  0  0
  128.5210  126.5130   68.7660 C   0  0  0  0  0  0  0  0  0  0  0  0
  129.0700  127.1170   70.0460 C   0  0  0  0  0  0  0  0  0  0  0  0
  129.3860  126.4960   71.2590 C   0  0  0  0  0  0  0  0  0  0  0  0
  129.9070  127.2510   72.3110 C   0  0  0  0  0  0  0  0  0  0  0  0
  130.1100  128.6240   72.1560 C   0  0  0  0  0  0  0  0  0  0  0  0
  129.7930  129.2460   70.9470 C   0  0  0  0  0  0  0  0  0  0  0  0
  129.2720  128.4890   69.8960 C   0  0  0  0  0  0  0  0  0  0  0  0
  128.8480  128.8760   68.5410 C   0  0  0  0  0  0  0  0  0  0  0  0
  128.8330  130.1190   67.9030 C   0  0  0  0  0  0  0  0  0  0  0  0
  128.3510  130.2170   66.5970 C   0  0  0  0  0  0  0  0  0  0  0  0
  127.8900  129.0790   65.9320 C   0  0  0  0  0  0  0  0  0  0  0  0
  127.9110  127.8400   66.5720 C   0  0  0  0  0  0  0  0  0  0  0  0
  128.3950  127.7360   67.8780 C   0  0  0  0  0  0  0  0  0  0  0  0
  132.9500  125.1950   64.0270 C   0  0  0  0  0  0  0  0  0  0  0  0
  134.0570  124.7030   63.9480 O   0  0  0  0  0  0  0  0  0  0  0  0
  132.6380  126.4980   63.7590 O   0  0  0  0  0  0  0  0  0  0  0  0
  130.2890  123.7220   61.1440 N   0  0  0  0  0  0  0  0  0  0  0  0
  130.0890  122.8770   59.9280 C   0  0  0  0  0  0  0  0  0  0  0  0
  131.2220  123.3950   58.9790 C   0  0  0  0  0  0  0  0  0  0  0  0
  132.5670  123.4080   59.3830 C   0  0  0  0  0  0  0  0  0  0  0  0
  133.5670  123.8690   58.5310 C   0  0  0  0  0  0  0  0  0  0  0  0
  133.2360  124.3360   57.2630 C   0  0  0  0  0  0  0  0  0  0  0  0
  131.9130  124.3340   56.8370 C   0  0  0  0  0  0  0  0  0  0  0  0
  130.9160  123.8630   57.6860 C   0  0  0  0  0  0  0  0  0  0  0  0
  130.2970  121.3860   60.3560 C   0  0  0  0  0  0  0  0  0  0  0  0
  131.5620  120.7780   60.3220 C   0  0  0  0  0  0  0  0  0  0  0  0
  131.7210  119.4430   60.6880 C   0  0  0  0  0  0  0  0  0  0  0  0
  130.6160  118.7000   61.0910 C   0  0  0  0  0  0  0  0  0  0  0  0
  129.3540  119.2810   61.1360 C   0  0  0  0  0  0  0  0  0  0  0  0
  129.1980  120.6160   60.7780 C   0  0  0  0  0  0  0  0  0  0  0  0
  128.6530  123.2110   59.3990 C   0  0  0  0  0  0  0  0  0  0  0  0
  128.2130  122.7350   58.1500 C   0  0  0  0  0  0  0  0  0  0  0  0
  126.9400  123.0350   57.6720 C   0  0  0  0  0  0  0  0  0  0  0  0
  126.0800  123.8120   58.4380 C   0  0  0  0  0  0  0  0  0  0  0  0
  126.4810  124.2850   59.6820 C   0  0  0  0  0  0  0  0  0  0  0  0
  127.7540  123.9830   60.1570 C   0  0  0  0  0  0  0  0  0  0  0  0
  1  2  2  0
  2  3  1  0
  4  3  1  6
  4  5  1  0
  5  6  1  0
  6  7  2  0
  6  8  1  0
  8  9  1  0
  9 10  1  0
 10 11  1  0
 11 12  2  0
 12 13  1  0
 13 14  2  0
 14 15  1  0
 15 16  2  0
 16 17  1  0
 17 18  2  0
 18 19  1  0
 19 20  2  0
 20 21  1  0
 21 22  2  0
  4 23  1  0
 23 24  2  0
 23 25  1  0
  2 26  1  0
 26 27  1  0
 27 28  1  0
 28 29  2  0
 29 30  1  0
 30 31  2  0
 31 32  1  0
 32 33  2  0
 27 34  1  0
 34 35  2  0
 35 36  1  0
 36 37  2  0
 37 38  1  0
 38 39  2  0
 27 40  1  0
 40 41  2  0
 41 42  1  0
 42 43  2  0
 43 44  1  0
 44 45  2  0
 22 10  1  0
 33 28  1  0
 39 34  1  0
 45 40  1  0
 16 11  1  0
 22 17  1  0
M  END
>  <Binding energies>  (84) 
[-11.09]

>  <Ligand effiencies>  (84) 
[-0.23104166666666667]

>  <Interactions>  (84) 
["V-B:PRO:540:C:9849, V-B:GLU:543:CG:9875, V-A:TRP:381:CZ3:3366, V-A:HIS:456:CE1:4064, V-A:TRP:381:CZ2:3365, V-B:ALA:541:CB:9860, V-B:GLU:543:CB:9874, V-B:ALA:541:CA:9858, V-A:TRP:381:CH2:3367, V-B:TYR:539:C:9835, V-B:TYR:539:CD2:9842, V-A:LEU:475:CD2:4254, V-A:TRP:381:CE2:3362, V-A:GLU:543:CB:4901, V-A:PRO:482:CB:4321, V-B:TYR:539:CE2:9844, V-A:ILE:369:CD1:3234, V-B:TYR:539:CZ:9845, V-A:ASP:366:CA:3205, V-A:ASP:366:CG:3208, V-B:HIS:456:CE1:9037, V-A:ASP:366:CB:3207, V-A:ASP:366:C:3203, V-A:TYR:484:CZ:4342, V-A:GLU:543:CG:4902, V-B:GLU:543:C:9870, V-A:TYR:484:CE1:4340, V-B:GLU:543:CA:9872, V-A:GLU:543:CD:4903, H-A:TYR:484:OH:4343, H-A:ARG:545:NE:4919, H-A:ARG:545:NH2:4923, H-A:GLY:454:N:4045, V-A:ARG:545:CZ:4921, V-B:PRO:540:CB:9853, V-B:PRO:540:CA:9851, H-A:GLU:543:OE2:4905, H-A:HIS:456:NE2:4065, H-A:GLU:543:OE1:4904, V-A:GLU:543:C:4897, V-A:LYS:547:CE:4945, V-B:HIS:456:CD2:9035, V-B:TYR:484:CE1:9312, V-B:TYR:484:CZ:9314, V-A:TYR:531:CZ:4789, V-B:PRO:540:N:9852, V-A:TYR:531:CE1:4787, V-A:GLU:543:CA:4899"]

$$$$
