1a_Ghoteimi_2023
     RDKit          3D

 40 43  0  0  0  0  0  0  0  0999 V2000
  131.3380  118.3680   75.6270 C   0  0  0  0  0  0  0  0  0  0  0  0
  130.0800  119.2110   75.4000 C   0  0  0  0  0  0  0  0  0  0  0  0
  130.4560  120.5040   74.9410 O   0  0  0  0  0  0  0  0  0  0  0  0
  130.9640  120.6850   73.6950 C   0  0  0  0  0  0  0  0  0  0  0  0
  131.7150  119.8750   73.1410 O   0  0  0  0  0  0  0  0  0  0  0  0
  130.5180  121.9670   73.0540 C   0  0  0  0  0  0  0  0  0  0  0  0
  130.3380  123.1440   73.7950 C   0  0  0  0  0  0  0  0  0  0  0  0
  129.9200  124.3180   73.1740 C   0  0  0  0  0  0  0  0  0  0  0  0
  129.6790  124.3360   71.7920 C   0  0  0  0  0  0  0  0  0  0  0  0
  129.2510  125.4620   71.0630 N   0  0  0  0  0  0  0  0  0  0  0  0
  129.0020  126.7220   71.4830 C   0  0  0  0  0  0  0  0  0  0  0  0
  129.1270  127.1300   72.6370 O   0  0  0  0  0  0  0  0  0  0  0  0
  128.5320  127.6940   70.4010 C   0  0  0  0  0  0  0  0  0  0  0  0
  127.4160  126.8920   69.2130 S   0  0  0  0  0  0  0  0  0  0  0  0
  128.1360  127.1460   67.6080 C   0  0  0  0  0  0  0  0  0  0  0  0
  127.5620  128.1470   66.9000 N   0  0  0  0  0  0  0  0  0  0  0  0
  128.0240  128.4470   65.6570 C   0  0  0  0  0  0  0  0  0  0  0  0
  127.3490  129.5830   64.9450 C   0  0  0  0  0  0  0  0  0  0  0  0
  125.9520  129.6380   64.8180 C   0  0  0  0  0  0  0  0  0  0  0  0
  125.3290  130.6930   64.1580 C   0  0  0  0  0  0  0  0  0  0  0  0
  126.0810  131.7250   63.6030 C   0  0  0  0  0  0  0  0  0  0  0  0
  125.3800  132.7330   62.9690 O   0  0  0  0  0  0  0  0  0  0  0  0
  123.9930  132.5520   62.7030 C   0  0  0  0  0  0  0  0  0  0  0  0
  127.4780  131.6830   63.7170 C   0  0  0  0  0  0  0  0  0  0  0  0
  128.0970  130.6270   64.3780 C   0  0  0  0  0  0  0  0  0  0  0  0
  129.0890  127.7270   65.1010 C   0  0  0  0  0  0  0  0  0  0  0  0
  129.6820  126.6700   65.8030 C   0  0  0  0  0  0  0  0  0  0  0  0
  130.7920  125.9270   65.1340 C   0  0  0  0  0  0  0  0  0  0  0  0
  132.0730  125.8940   65.6940 C   0  0  0  0  0  0  0  0  0  0  0  0
  133.0980  125.1860   65.0720 C   0  0  0  0  0  0  0  0  0  0  0  0
  132.8620  124.4930   63.8850 C   0  0  0  0  0  0  0  0  0  0  0  0
  133.9380  123.8190   63.3410 O   0  0  0  0  0  0  0  0  0  0  0  0
  134.1120  123.8140   61.9280 C   0  0  0  0  0  0  0  0  0  0  0  0
  131.5760  124.5170   63.3240 C   0  0  0  0  0  0  0  0  0  0  0  0
  130.5520  125.2270   63.9480 C   0  0  0  0  0  0  0  0  0  0  0  0
  129.1990  126.3680   67.0990 C   0  0  0  0  0  0  0  0  0  0  0  0
  129.7900  125.2830   67.8900 C   0  0  0  0  0  0  0  0  0  0  0  0
  130.2570  124.4270   68.5130 N   0  0  0  0  0  0  0  0  0  0  0  0
  129.8540  123.1670   71.0520 C   0  0  0  0  0  0  0  0  0  0  0  0
  130.2720  121.9930   71.6750 C   0  0  0  0  0  0  0  0  0  0  0  0
  1  2  1  0
  2  3  1  0
  3  4  1  0
  4  5  2  0
  4  6  1  0
  6  7  2  0
  7  8  1  0
  8  9  2  0
  9 10  1  0
 10 11  1  0
 11 12  2  0
 11 13  1  0
 13 14  1  0
 14 15  1  0
 15 16  2  0
 16 17  1  0
 17 18  1  0
 18 19  2  0
 19 20  1  0
 20 21  2  0
 21 22  1  0
 22 23  1  0
 21 24  1  0
 24 25  2  0
 17 26  2  0
 26 27  1  0
 27 28  1  0
 28 29  2  0
 29 30  1  0
 30 31  2  0
 31 32  1  0
 32 33  1  0
 31 34  1  0
 34 35  2  0
 27 36  2  0
 36 37  1  0
 37 38  3  0
  9 39  1  0
 39 40  2  0
 40  6  1  0
 36 15  1  0
 25 18  1  0
 35 28  1  0
M  END
>  <Binding energies>  (1) 
[-8.19]

>  <Ligand effiencies>  (1) 
[-0.1997560975609756]

>  <Interactions>  (1) 
["V-B:GLU:543:CG:9875, H-B:GLU:543:O:9871, V-A:HIS:456:CE1:4064, H-B:LYS:547:NZ:9919, V-B:GLU:543:CB:9874, V-A:ILE:369:CD1:3234, V-A:ASP:366:CG:3208, V-B:HIS:456:CE1:9037, V-A:GLU:543:CG:4902, V-B:GLU:543:C:9870, H-B:TYR:484:OH:9315, V-B:GLU:543:CA:9872, V-A:GLU:543:CD:4903, H-A:TYR:484:OH:4343, H-A:GLY:454:N:4045, V-A:ARG:545:CZ:4921, H-A:HIS:456:NE2:4065, V-A:TYR:484:CG:4337, V-A:TYR:484:CD1:4338, V-A:ASP:473:CG:4235, V-A:ASP:473:CB:4234, V-B:LEU:475:CD2:9226, V-B:LYS:547:CE:9918, V-A:TYR:484:CB:4336, V-B:ILE:369:CD1:8206, V-A:TYR:484:CD2:4339, V-A:PRO:486:CD:4361, V-A:PRO:486:CG:4360, V-B:GLY:454:CA:9016"]

$$$$
1b_Ghoteimi_2023
     RDKit          3D

 34 37  0  0  0  0  0  0  0  0999 V2000
  129.9130  126.8640   74.2820 C   0  0  0  0  0  0  0  0  0  0  0  0
  130.0430  128.0760   73.5490 O   0  0  0  0  0  0  0  0  0  0  0  0
  129.8790  128.0550   72.1770 C   0  0  0  0  0  0  0  0  0  0  0  0
  128.6530  127.5950   71.7020 C   0  0  0  0  0  0  0  0  0  0  0  0
  128.3980  127.5360   70.3350 C   0  0  0  0  0  0  0  0  0  0  0  0
  129.3630  127.9400   69.4000 C   0  0  0  0  0  0  0  0  0  0  0  0
  129.0850  127.8740   67.9240 C   0  0  0  0  0  0  0  0  0  0  0  0
  128.0300  128.5630   67.3160 C   0  0  0  0  0  0  0  0  0  0  0  0
  127.8170  128.4710   65.9350 C   0  0  0  0  0  0  0  0  0  0  0  0
  126.6680  129.2290   65.3550 C   0  0  0  0  0  0  0  0  0  0  0  0
  126.8880  130.2020   64.3760 C   0  0  0  0  0  0  0  0  0  0  0  0
  125.8220  130.9180   63.8380 C   0  0  0  0  0  0  0  0  0  0  0  0
  124.5180  130.6800   64.2720 C   0  0  0  0  0  0  0  0  0  0  0  0
  123.5230  131.4380   63.6840 O   0  0  0  0  0  0  0  0  0  0  0  0
  123.7280  131.9540   62.3730 C   0  0  0  0  0  0  0  0  0  0  0  0
  124.2930  129.7110   65.2610 C   0  0  0  0  0  0  0  0  0  0  0  0
  125.3620  128.9970   65.7970 C   0  0  0  0  0  0  0  0  0  0  0  0
  128.7010  127.6730   65.1680 C   0  0  0  0  0  0  0  0  0  0  0  0
  128.5790  127.6200   63.7080 C   0  0  0  0  0  0  0  0  0  0  0  0
  128.4820  127.5780   62.5550 N   0  0  0  0  0  0  0  0  0  0  0  0
  129.7330  126.9870   65.8470 C   0  0  0  0  0  0  0  0  0  0  0  0
  130.9290  125.9350   65.0490 S   0  0  0  0  0  0  0  0  0  0  0  0
  130.5440  124.2090   65.4940 C   0  0  0  0  0  0  0  0  0  0  0  0
  130.4240  123.2430   64.3070 C   0  0  0  0  0  0  0  0  0  0  0  0
  131.1530  122.2520   64.2240 O   0  0  0  0  0  0  0  0  0  0  0  0
  129.4780  123.5790   63.4010 N   0  0  0  0  0  0  0  0  0  0  0  0
  129.1480  122.8950   62.2370 C   0  0  0  0  0  0  0  0  0  0  0  0
  130.0980  122.3020   61.4070 C   0  0  0  0  0  0  0  0  0  0  0  0
  129.3750  121.7370   60.3810 C   0  0  0  0  0  0  0  0  0  0  0  0
  128.0570  121.9760   60.5850 O   0  0  0  0  0  0  0  0  0  0  0  0
  127.9260  122.7100   61.7640 N   0  0  0  0  0  0  0  0  0  0  0  0
  129.9250  127.1050   67.1830 N   0  0  0  0  0  0  0  0  0  0  0  0
  130.5950  128.4000   69.8900 C   0  0  0  0  0  0  0  0  0  0  0  0
  130.8540  128.4590   71.2560 C   0  0  0  0  0  0  0  0  0  0  0  0
  1  2  1  0
  2  3  1  0
  3  4  2  0
  4  5  1  0
  5  6  2  0
  6  7  1  0
  7  8  2  0
  8  9  1  0
  9 10  1  0
 10 11  2  0
 11 12  1  0
 12 13  2  0
 13 14  1  0
 14 15  1  0
 13 16  1  0
 16 17  2  0
  9 18  2  0
 18 19  1  0
 19 20  3  0
 18 21  1  0
 21 22  1  0
 22 23  1  0
 23 24  1  0
 24 25  2  0
 24 26  1  0
 26 27  1  0
 27 28  1  0
 28 29  2  0
 29 30  1  0
 30 31  1  0
 21 32  2  0
  6 33  1  0
 33 34  2  0
 34  3  1  0
 32  7  1  0
 17 10  1  0
 31 27  2  0
M  END
>  <Binding energies>  (2) 
[-8.44]

>  <Ligand effiencies>  (2) 
[-0.24114285714285713]

>  <Interactions>  (2) 
["V-B:GLU:543:CG:9875, V-A:HIS:456:CE1:4064, H-B:LYS:547:NZ:9919, V-B:ALA:541:CB:9860, V-A:GLU:543:CB:4901, V-B:HIS:456:CE1:9037, V-A:TYR:484:CZ:4342, V-A:TYR:484:CE1:4340, V-A:GLU:543:CD:4903, V-B:GLU:543:CD:9876, H-A:TYR:484:OH:4343, H-B:ALA:541:N:9859, V-B:ARG:545:CG:9890, V-A:GLY:544:C:4907, V-A:GLU:543:C:4897, V-A:LYS:547:CE:4945, V-B:ARG:545:CD:9891, H-A:LYS:547:NZ:4946, H-B:GLU:543:OE2:9878, V-B:ARG:545:CZ:9894, V-B:LYS:547:CE:9918, V-B:ILE:369:CD1:8206, H-B:GLY:454:N:9017"]

$$$$
1c_Ghoteimi_2023
     RDKit          3D

 34 37  0  0  0  0  0  0  0  0999 V2000
  123.8760  132.0000   61.8230 C   0  0  0  0  0  0  0  0  0  0  0  0
  124.4640  132.3090   63.0820 O   0  0  0  0  0  0  0  0  0  0  0  0
  125.2490  131.3610   63.7120 C   0  0  0  0  0  0  0  0  0  0  0  0
  124.5970  130.4790   64.5690 C   0  0  0  0  0  0  0  0  0  0  0  0
  125.3090  129.4940   65.2480 C   0  0  0  0  0  0  0  0  0  0  0  0
  126.6980  129.3630   65.0890 C   0  0  0  0  0  0  0  0  0  0  0  0
  127.4710  128.3060   65.8220 C   0  0  0  0  0  0  0  0  0  0  0  0
  128.5870  127.6660   65.2720 C   0  0  0  0  0  0  0  0  0  0  0  0
  129.2930  126.7050   66.0050 C   0  0  0  0  0  0  0  0  0  0  0  0
  130.5130  126.1120   65.3820 C   0  0  0  0  0  0  0  0  0  0  0  0
  131.7190  126.0620   66.0860 C   0  0  0  0  0  0  0  0  0  0  0  0
  132.8610  125.5290   65.4960 C   0  0  0  0  0  0  0  0  0  0  0  0
  132.8200  125.0410   64.1900 C   0  0  0  0  0  0  0  0  0  0  0  0
  134.0010  124.5300   63.6860 O   0  0  0  0  0  0  0  0  0  0  0  0
  134.0180  123.9940   62.3670 C   0  0  0  0  0  0  0  0  0  0  0  0
  131.6130  125.0950   63.4770 C   0  0  0  0  0  0  0  0  0  0  0  0
  130.4720  125.6290   64.0700 C   0  0  0  0  0  0  0  0  0  0  0  0
  128.8330  126.3750   67.3020 C   0  0  0  0  0  0  0  0  0  0  0  0
  129.5080  125.3520   68.1070 C   0  0  0  0  0  0  0  0  0  0  0  0
  130.0420  124.5450   68.7420 N   0  0  0  0  0  0  0  0  0  0  0  0
  127.7120  127.0700   67.8020 C   0  0  0  0  0  0  0  0  0  0  0  0
  127.1300  126.8810   69.4730 S   0  0  0  0  0  0  0  0  0  0  0  0
  128.3440  127.7760   70.4940 C   0  0  0  0  0  0  0  0  0  0  0  0
  128.9230  126.8970   71.6080 C   0  0  0  0  0  0  0  0  0  0  0  0
  129.1140  127.3780   72.7260 O   0  0  0  0  0  0  0  0  0  0  0  0
  129.1440  125.6080   71.2680 N   0  0  0  0  0  0  0  0  0  0  0  0
  129.5130  124.5780   72.1190 C   0  0  0  0  0  0  0  0  0  0  0  0
  129.1880  124.4200   73.3840 N   0  0  0  0  0  0  0  0  0  0  0  0
  129.6840  123.3010   73.8740 C   0  0  0  0  0  0  0  0  0  0  0  0
  130.4290  122.5210   72.9950 C   0  0  0  0  0  0  0  0  0  0  0  0
  130.4810  123.3070   71.4450 S   0  0  0  0  0  0  0  0  0  0  0  0
  127.0580  128.0140   67.0840 N   0  0  0  0  0  0  0  0  0  0  0  0
  127.3430  130.2530   64.2180 C   0  0  0  0  0  0  0  0  0  0  0  0
  126.6350  131.2400   63.5390 C   0  0  0  0  0  0  0  0  0  0  0  0
  1  2  1  0
  2  3  1  0
  3  4  2  0
  4  5  1  0
  5  6  2  0
  6  7  1  0
  7  8  2  0
  8  9  1  0
  9 10  1  0
 10 11  2  0
 11 12  1  0
 12 13  2  0
 13 14  1  0
 14 15  1  0
 13 16  1  0
 16 17  2  0
  9 18  2  0
 18 19  1  0
 19 20  3  0
 18 21  1  0
 21 22  1  0
 22 23  1  0
 23 24  1  0
 24 25  2  0
 24 26  1  0
 26 27  1  0
 27 28  2  0
 28 29  1  0
 29 30  2  0
 30 31  1  0
 21 32  2  0
  6 33  1  0
 33 34  2  0
 34  3  1  0
 32  7  1  0
 17 10  1  0
 31 27  1  0
M  END
>  <Binding energies>  (3) 
[-8.41]

>  <Ligand effiencies>  (3) 
[-0.2402857142857143]

>  <Interactions>  (3) 
["V-B:GLU:543:CG:9875, H-B:GLU:543:O:9871, V-A:HIS:456:CE1:4064, H-B:LYS:547:NZ:9919, V-B:GLU:543:CB:9874, V-A:ILE:369:CD1:3234, V-A:ASP:366:CG:3208, V-B:HIS:456:CE1:9037, V-B:GLU:543:C:9870, V-B:GLU:543:CA:9872, V-B:GLU:543:CD:9876, H-A:TYR:484:OH:4343, H-A:GLY:454:N:4045, V-A:ARG:545:CZ:4921, H-A:HIS:456:NE2:4065, V-B:HIS:456:CD2:9035, V-A:HIS:456:CG:4061, V-B:ARG:545:CZ:9894, V-A:HIS:456:CD2:4063, V-B:LYS:547:CE:9918, V-B:ILE:369:CD1:8206"]

$$$$
1d_Ghoteimi_2023
     RDKit          3D

 30 32  0  0  0  0  0  0  0  0999 V2000
  124.5470  131.7550   64.0880 C   0  0  0  0  0  0  0  0  0  0  0  0
  123.8480  130.6110   64.5530 O   0  0  0  0  0  0  0  0  0  0  0  0
  124.2150  130.0010   65.6990 C   0  0  0  0  0  0  0  0  0  0  0  0
  123.7810  130.2450   66.8260 O   0  0  0  0  0  0  0  0  0  0  0  0
  125.2770  128.9290   65.4710 C   0  0  0  0  0  0  0  0  0  0  0  0
  126.8810  129.7710   65.3140 S   0  0  0  0  0  0  0  0  0  0  0  0
  128.1000  128.7120   66.0620 C   0  0  0  0  0  0  0  0  0  0  0  0
  128.1520  128.8090   67.4120 N   0  0  0  0  0  0  0  0  0  0  0  0
  129.0410  128.0580   68.1110 C   0  0  0  0  0  0  0  0  0  0  0  0
  129.0300  128.2200   69.6040 C   0  0  0  0  0  0  0  0  0  0  0  0
  127.9140  127.8450   70.3690 C   0  0  0  0  0  0  0  0  0  0  0  0
  127.9030  128.0020   71.7510 C   0  0  0  0  0  0  0  0  0  0  0  0
  129.0050  128.5390   72.4130 C   0  0  0  0  0  0  0  0  0  0  0  0
  128.9040  128.6610   73.7860 O   0  0  0  0  0  0  0  0  0  0  0  0
  128.0990  129.7000   74.3320 C   0  0  0  0  0  0  0  0  0  0  0  0
  130.1270  128.9180   71.6630 C   0  0  0  0  0  0  0  0  0  0  0  0
  130.1340  128.7590   70.2800 C   0  0  0  0  0  0  0  0  0  0  0  0
  129.9020  127.1740   67.4500 C   0  0  0  0  0  0  0  0  0  0  0  0
  129.8810  127.0660   66.0540 C   0  0  0  0  0  0  0  0  0  0  0  0
  130.8330  126.1080   65.4130 C   0  0  0  0  0  0  0  0  0  0  0  0
  132.1890  126.1290   65.7550 C   0  0  0  0  0  0  0  0  0  0  0  0
  133.0810  125.2390   65.1620 C   0  0  0  0  0  0  0  0  0  0  0  0
  132.6370  124.3100   64.2220 C   0  0  0  0  0  0  0  0  0  0  0  0
  133.5940  123.4730   63.6810 O   0  0  0  0  0  0  0  0  0  0  0  0
  134.0570  123.7110   62.3570 C   0  0  0  0  0  0  0  0  0  0  0  0
  131.2750  124.2780   63.8850 C   0  0  0  0  0  0  0  0  0  0  0  0
  130.3850  125.1670   64.4800 C   0  0  0  0  0  0  0  0  0  0  0  0
  128.9680  127.8720   65.3290 C   0  0  0  0  0  0  0  0  0  0  0  0
  128.9750  127.8760   63.8630 C   0  0  0  0  0  0  0  0  0  0  0  0
  128.9810  127.8780   62.7060 N   0  0  0  0  0  0  0  0  0  0  0  0
  1  2  1  0
  2  3  1  0
  3  4  2  0
  3  5  1  0
  5  6  1  0
  6  7  1  0
  7  8  2  0
  8  9  1  0
  9 10  1  0
 10 11  2  0
 11 12  1  0
 12 13  2  0
 13 14  1  0
 14 15  1  0
 13 16  1  0
 16 17  2  0
  9 18  2  0
 18 19  1  0
 19 20  1  0
 20 21  2  0
 21 22  1  0
 22 23  2  0
 23 24  1  0
 24 25  1  0
 23 26  1  0
 26 27  2  0
 19 28  2  0
 28 29  1  0
 29 30  3  0
 28  7  1  0
 17 10  1  0
 27 20  1  0
M  END
>  <Binding energies>  (4) 
[-7.49]

>  <Ligand effiencies>  (4) 
[-0.24966666666666668]

>  <Interactions>  (4) 
["V-B:GLU:543:CG:9875, V-A:HIS:456:CE1:4064, H-B:LYS:547:NZ:9919, V-A:ILE:369:CD1:3234, V-A:ASP:366:CG:3208, V-B:HIS:456:CE1:9037, H-B:TYR:484:OH:9315, V-A:GLU:543:CD:4903, V-B:GLU:543:CD:9876, H-A:TYR:484:OH:4343, H-A:GLY:454:N:4045, V-A:ARG:545:CZ:4921, V-B:ARG:545:CG:9890, V-A:GLU:543:C:4897, V-B:HIS:456:CD2:9035, V-B:ARG:545:CD:9891, H-A:LYS:547:NZ:4946, V-B:ARG:545:CZ:9894, H-B:HIS:456:ND1:9034, H-B:GLY:454:N:9017, V-B:GLY:454:CA:9016"]

$$$$
1j_Grossjean_2025
     RDKit          3D

 20 21  0  0  0  0  0  0  0  0999 V2000
  124.3920  123.7310   61.8850 C   0  0  0  0  0  0  0  0  0  0  0  0
  125.5680  123.5110   60.9510 C   0  0  0  0  0  0  0  0  0  0  0  0
  125.5050  123.8600   59.6040 C   0  0  0  0  0  0  0  0  0  0  0  0
  126.6240  123.6460   58.7940 C   0  0  0  0  0  0  0  0  0  0  0  0
  126.5370  124.0540   57.3230 C   0  0  0  0  0  0  0  0  0  0  0  0
  127.7860  123.0740   59.3580 C   0  0  0  0  0  0  0  0  0  0  0  0
  128.9880  122.8890   58.5400 C   0  0  0  0  0  0  0  0  0  0  0  0
  129.9350  122.7460   57.8910 N   0  0  0  0  0  0  0  0  0  0  0  0
  127.7520  122.7250   60.7290 C   0  0  0  0  0  0  0  0  0  0  0  0
  129.1210  121.9940   61.6000 S   0  0  0  0  0  0  0  0  0  0  0  0
  130.2100  123.3420   62.1480 C   0  0  0  0  0  0  0  0  0  0  0  0
  130.3670  123.3710   63.6700 C   0  0  0  0  0  0  0  0  0  0  0  0
  130.9220  122.4300   64.2380 O   0  0  0  0  0  0  0  0  0  0  0  0
  129.8680  124.4650   64.2860 N   0  0  0  0  0  0  0  0  0  0  0  0
  129.8790  124.7250   65.6490 C   0  0  0  0  0  0  0  0  0  0  0  0
  129.9070  123.8560   66.6360 N   0  0  0  0  0  0  0  0  0  0  0  0
  129.9100  124.4570   67.8090 C   0  0  0  0  0  0  0  0  0  0  0  0
  129.8860  125.8480   67.7890 C   0  0  0  0  0  0  0  0  0  0  0  0
  129.8590  126.3890   66.1370 S   0  0  0  0  0  0  0  0  0  0  0  0
  126.6690  122.9570   61.5120 N   0  0  0  0  0  0  0  0  0  0  0  0
  1  2  1  0
  2  3  2  0
  3  4  1  0
  4  5  1  0
  4  6  2  0
  6  7  1  0
  7  8  3  0
  6  9  1  0
  9 10  1  0
 10 11  1  0
 11 12  1  0
 12 13  2  0
 12 14  1  0
 14 15  1  0
 15 16  2  0
 16 17  1  0
 17 18  2  0
 18 19  1  0
  9 20  2  0
 20  2  1  0
 19 15  1  0
M  END
>  <Binding energies>  (5) 
[-6.62]

>  <Ligand effiencies>  (5) 
[-0.31523809523809526]

>  <Interactions>  (5) 
["V-B:PRO:540:C:9849, V-B:GLU:543:CG:9875, V-A:HIS:456:CE1:4064, V-B:GLU:543:CB:9874, V-B:TYR:539:CE2:9844, V-A:TYR:484:CZ:4342, V-B:GLU:543:C:9870, V-A:TYR:484:CE1:4340, V-B:GLU:543:CA:9872, V-B:GLU:543:CD:9876, H-A:TYR:484:OH:4343, V-B:ASN:362:CB:8143, V-B:PRO:540:CB:9853, H-B:ALA:541:N:9859, V-B:PRO:540:CA:9851, H-B:GLU:543:OE2:9878, V-B:MET:535:CE:9803"]

$$$$
1o_Grossjean_2025
     RDKit          3D

 26 27  0  0  0  0  0  0  0  0999 V2000
  129.9820  127.0470   72.2950 C   0  0  0  0  0  0  0  0  0  0  0  0
  128.7670  126.4850   71.8200 O   0  0  0  0  0  0  0  0  0  0  0  0
  128.0400  127.1050   70.8550 C   0  0  0  0  0  0  0  0  0  0  0  0
  127.0680  127.8280   71.0950 O   0  0  0  0  0  0  0  0  0  0  0  0
  128.5360  126.8260   69.4660 C   0  0  0  0  0  0  0  0  0  0  0  0
  129.4750  125.8190   69.2010 C   0  0  0  0  0  0  0  0  0  0  0  0
  129.9130  125.5840   67.9000 C   0  0  0  0  0  0  0  0  0  0  0  0
  129.4290  126.3520   66.8410 C   0  0  0  0  0  0  0  0  0  0  0  0
  129.9320  126.0240   65.5670 N   0  0  0  0  0  0  0  0  0  0  0  0
  131.1320  125.5120   65.2150 C   0  0  0  0  0  0  0  0  0  0  0  0
  132.0220  125.1860   66.0010 O   0  0  0  0  0  0  0  0  0  0  0  0
  131.3480  125.3090   63.7080 C   0  0  0  0  0  0  0  0  0  0  0  0
  132.7940  125.5910   63.2560 C   0  0  0  0  0  0  0  0  0  0  0  0
  133.7950  124.0940   63.0090 S   0  0  0  0  0  0  0  0  0  0  0  0
  133.0030  123.0820   61.7750 C   0  0  0  0  0  0  0  0  0  0  0  0
  133.5170  123.2470   60.5300 N   0  0  0  0  0  0  0  0  0  0  0  0
  133.0000  122.5230   59.5100 C   0  0  0  0  0  0  0  0  0  0  0  0
  133.6350  122.7510   58.1510 C   0  0  0  0  0  0  0  0  0  0  0  0
  131.9510  121.6230   59.6840 C   0  0  0  0  0  0  0  0  0  0  0  0
  131.3960  121.4640   60.9580 C   0  0  0  0  0  0  0  0  0  0  0  0
  130.2380  120.4810   61.1210 C   0  0  0  0  0  0  0  0  0  0  0  0
  131.9180  122.2120   62.0380 C   0  0  0  0  0  0  0  0  0  0  0  0
  131.3110  122.1030   63.3670 C   0  0  0  0  0  0  0  0  0  0  0  0
  130.8310  122.0140   64.4160 N   0  0  0  0  0  0  0  0  0  0  0  0
  128.4850  127.3590   67.0980 C   0  0  0  0  0  0  0  0  0  0  0  0
  128.0480  127.5910   68.3990 C   0  0  0  0  0  0  0  0  0  0  0  0
  1  2  1  0
  2  3  1  0
  3  4  2  0
  3  5  1  0
  5  6  2  0
  6  7  1  0
  7  8  2  0
  8  9  1  0
  9 10  1  0
 10 11  2  0
 10 12  1  0
 12 13  1  0
 13 14  1  0
 14 15  1  0
 15 16  2  0
 16 17  1  0
 17 18  1  0
 17 19  2  0
 19 20  1  0
 20 21  1  0
 20 22  2  0
 22 23  1  0
 23 24  3  0
  8 25  1  0
 25 26  2  0
 26  5  1  0
 22 15  1  0
M  END
>  <Binding energies>  (6) 
[-7.43]

>  <Ligand effiencies>  (6) 
[-0.2751851851851852]

>  <Interactions>  (6) 
["V-B:GLU:543:CG:9875, V-A:HIS:456:CE1:4064, H-B:LYS:547:NZ:9919, V-B:ALA:541:CB:9860, V-B:GLU:543:CB:9874, V-B:TYR:539:CD2:9842, V-A:LEU:475:CD2:4254, V-B:TYR:539:CE2:9844, V-A:ILE:369:CD1:3234, V-A:ILE:369:CB:3231, V-A:ASP:366:CG:3208, V-B:HIS:456:CE1:9037, V-B:GLU:543:C:9870, V-B:GLU:543:CD:9876, V-A:ILE:369:CG2:3232, H-A:TYR:484:OH:4343, H-A:GLY:454:N:4045, V-A:ARG:545:CZ:4921, H-A:HIS:456:NE2:4065, H-B:GLU:543:OE2:9878, H-B:HIS:456:ND1:9034"]

$$$$
1p_Grossjean_2025
     RDKit          3D

 21 22  0  0  0  0  0  0  0  0999 V2000
  133.1310  124.1940   57.9280 C   0  0  0  0  0  0  0  0  0  0  0  0
  132.5210  123.0680   58.7410 C   0  0  0  0  0  0  0  0  0  0  0  0
  133.2880  121.9920   59.1850 C   0  0  0  0  0  0  0  0  0  0  0  0
  132.6710  120.9740   59.9200 C   0  0  0  0  0  0  0  0  0  0  0  0
  133.5280  119.7980   60.3840 C   0  0  0  0  0  0  0  0  0  0  0  0
  131.2890  121.0650   60.2000 C   0  0  0  0  0  0  0  0  0  0  0  0
  130.6100  119.9900   60.9260 C   0  0  0  0  0  0  0  0  0  0  0  0
  130.0740  119.1390   61.5000 N   0  0  0  0  0  0  0  0  0  0  0  0
  130.5930  122.2040   59.7290 C   0  0  0  0  0  0  0  0  0  0  0  0
  128.8580  122.4800   60.0020 S   0  0  0  0  0  0  0  0  0  0  0  0
  128.7160  123.4920   61.5040 C   0  0  0  0  0  0  0  0  0  0  0  0
  128.8550  122.6880   62.8110 C   0  0  0  0  0  0  0  0  0  0  0  0
  130.1430  122.9970   63.5880 C   0  0  0  0  0  0  0  0  0  0  0  0
  130.9950  122.1180   63.7270 O   0  0  0  0  0  0  0  0  0  0  0  0
  130.2500  124.2590   64.0630 N   0  0  0  0  0  0  0  0  0  0  0  0
  131.3040  124.7960   64.7910 C   0  0  0  0  0  0  0  0  0  0  0  0
  132.4740  125.2720   64.2000 C   0  0  0  0  0  0  0  0  0  0  0  0
  133.2510  125.7120   65.2480 C   0  0  0  0  0  0  0  0  0  0  0  0
  132.5840  125.5110   66.4080 O   0  0  0  0  0  0  0  0  0  0  0  0
  131.3520  124.9280   66.1060 N   0  0  0  0  0  0  0  0  0  0  0  0
  131.1970  123.1760   58.9990 N   0  0  0  0  0  0  0  0  0  0  0  0
  1  2  1  0
  2  3  2  0
  3  4  1  0
  4  5  1  0
  4  6  2  0
  6  7  1  0
  7  8  3  0
  6  9  1  0
  9 10  1  0
 10 11  1  0
 11 12  1  0
 12 13  1  0
 13 14  2  0
 13 15  1  0
 15 16  1  0
 16 17  1  0
 17 18  2  0
 18 19  1  0
 19 20  1  0
  9 21  2  0
 21  2  1  0
 20 16  2  0
M  END
>  <Binding energies>  (7) 
[-6.76]

>  <Ligand effiencies>  (7) 
[-0.30727272727272725]

>  <Interactions>  (7) 
["V-B:GLU:543:CG:9875, V-A:TRP:381:CZ2:3365, V-B:ALA:541:CB:9860, V-B:ALA:541:CA:9858, V-A:TRP:381:CH2:3367, V-B:TYR:539:CD2:9842, V-A:LEU:475:CD2:4254, V-B:TYR:539:CE2:9844, V-A:ILE:369:CD1:3234, V-A:ASP:366:CA:3205, V-A:ILE:369:CB:3231, V-A:ASP:366:CG:3208, V-A:ASP:366:CB:3207, V-B:GLU:543:CD:9876, V-A:ILE:369:CG2:3232, H-A:TYR:484:OH:4343, V-A:ARG:545:CZ:4921, H-A:HIS:456:NE2:4065, H-B:GLU:543:OE2:9878, V-A:ARG:545:CD:4918"]

$$$$
2a_Ghoteimi_2023
     RDKit          3D

 48 53  0  0  0  0  0  0  0  0999 V2000
  129.2690  122.3700   58.9680 C   0  0  0  0  0  0  0  0  0  0  0  0
  129.0640  122.8070   57.5140 C   0  0  0  0  0  0  0  0  0  0  0  0
  128.0010  122.0560   56.9420 O   0  0  0  0  0  0  0  0  0  0  0  0
  126.7290  122.5310   56.9380 C   0  0  0  0  0  0  0  0  0  0  0  0
  125.8030  121.9890   56.3270 O   0  0  0  0  0  0  0  0  0  0  0  0
  126.5590  123.7780   57.7570 C   0  0  0  0  0  0  0  0  0  0  0  0
  126.7910  125.0550   57.2240 C   0  0  0  0  0  0  0  0  0  0  0  0
  126.6230  126.1900   58.0100 C   0  0  0  0  0  0  0  0  0  0  0  0
  126.2160  126.0770   59.3410 C   0  0  0  0  0  0  0  0  0  0  0  0
  126.0820  127.2900   60.0440 N   0  0  0  0  0  0  0  0  0  0  0  0
  125.8510  128.5370   59.5810 C   0  0  0  0  0  0  0  0  0  0  0  0
  125.7600  128.8470   58.3920 O   0  0  0  0  0  0  0  0  0  0  0  0
  125.7410  129.6230   60.6600 C   0  0  0  0  0  0  0  0  0  0  0  0
  125.1710  129.0190   62.2810 S   0  0  0  0  0  0  0  0  0  0  0  0
  126.6240  128.4090   63.1040 C   0  0  0  0  0  0  0  0  0  0  0  0
  127.5080  127.8030   62.2770 N   0  0  0  0  0  0  0  0  0  0  0  0
  128.6530  127.2860   62.7890 C   0  0  0  0  0  0  0  0  0  0  0  0
  129.5770  126.6230   61.8190 C   0  0  0  0  0  0  0  0  0  0  0  0
  130.5290  125.6880   62.2460 C   0  0  0  0  0  0  0  0  0  0  0  0
  131.3940  125.0830   61.3390 C   0  0  0  0  0  0  0  0  0  0  0  0
  131.3370  125.3820   59.9710 C   0  0  0  0  0  0  0  0  0  0  0  0
  132.2330  124.7880   59.0760 N   0  0  0  0  0  0  0  0  0  0  0  0
  131.8350  124.4590   57.6920 C   0  0  0  0  0  0  0  0  0  0  0  0
  133.0250  124.1550   56.7580 C   0  0  0  0  0  0  0  0  0  0  0  0
  133.8300  123.1270   57.3130 O   0  0  0  0  0  0  0  0  0  0  0  0
  134.3560  123.5070   58.5740 C   0  0  0  0  0  0  0  0  0  0  0  0
  133.2080  123.7910   59.5660 C   0  0  0  0  0  0  0  0  0  0  0  0
  130.3890  126.3290   59.5500 C   0  0  0  0  0  0  0  0  0  0  0  0
  129.5220  126.9320   60.4550 C   0  0  0  0  0  0  0  0  0  0  0  0
  128.9430  127.3820   64.1520 C   0  0  0  0  0  0  0  0  0  0  0  0
  128.0430  128.0050   65.0280 C   0  0  0  0  0  0  0  0  0  0  0  0
  128.4130  128.0670   66.4740 C   0  0  0  0  0  0  0  0  0  0  0  0
  128.3110  126.9270   67.2750 C   0  0  0  0  0  0  0  0  0  0  0  0
  128.6340  126.9790   68.6280 C   0  0  0  0  0  0  0  0  0  0  0  0
  129.0730  128.1720   69.2200 C   0  0  0  0  0  0  0  0  0  0  0  0
  129.3850  128.2510   70.5810 N   0  0  0  0  0  0  0  0  0  0  0  0
  129.1570  127.0740   71.4430 C   0  0  0  0  0  0  0  0  0  0  0  0
  129.8920  127.1600   72.7980 C   0  0  0  0  0  0  0  0  0  0  0  0
  129.5330  128.3560   73.4710 O   0  0  0  0  0  0  0  0  0  0  0  0
  129.8730  129.5070   72.7150 C   0  0  0  0  0  0  0  0  0  0  0  0
  129.1410  129.4820   71.3570 C   0  0  0  0  0  0  0  0  0  0  0  0
  129.1610  129.3150   68.4120 C   0  0  0  0  0  0  0  0  0  0  0  0
  128.8360  129.2640   67.0600 C   0  0  0  0  0  0  0  0  0  0  0  0
  126.8480  128.5430   64.4930 C   0  0  0  0  0  0  0  0  0  0  0  0
  125.8940  129.2560   65.3490 C   0  0  0  0  0  0  0  0  0  0  0  0
  125.1420  129.8170   66.0270 N   0  0  0  0  0  0  0  0  0  0  0  0
  125.9900  124.8040   59.8840 C   0  0  0  0  0  0  0  0  0  0  0  0
  126.1580  123.6680   59.0950 C   0  0  0  0  0  0  0  0  0  0  0  0
  1  2  1  0
  2  3  1  0
  3  4  1  0
  4  5  2  0
  4  6  1  0
  6  7  2  0
  7  8  1  0
  8  9  2  0
  9 10  1  0
 10 11  1  0
 11 12  2  0
 11 13  1  0
 13 14  1  0
 14 15  1  0
 15 16  2  0
 16 17  1  0
 17 18  1  0
 18 19  2  0
 19 20  1  0
 20 21  2  0
 21 22  1  0
 22 23  1  0
 23 24  1  0
 24 25  1  0
 25 26  1  0
 26 27  1  0
 21 28  1  0
 28 29  2  0
 17 30  2  0
 30 31  1  0
 31 32  1  0
 32 33  2  0
 33 34  1  0
 34 35  2  0
 35 36  1  0
 36 37  1  0
 37 38  1  0
 38 39  1  0
 39 40  1  0
 40 41  1  0
 35 42  1  0
 42 43  2  0
 31 44  2  0
 44 45  1  0
 45 46  3  0
  9 47  1  0
 47 48  2  0
 48  6  1  0
 44 15  1  0
 29 18  1  0
 43 32  1  0
 27 22  1  0
 41 36  1  0
M  END
>  <Binding energies>  (8) 
[-9.57]

>  <Ligand effiencies>  (8) 
[-0.1953061224489796]

>  <Interactions>  (8) 
["V-B:GLU:543:CG:9875, V-A:HIS:456:CE1:4064, H-B:LYS:547:NZ:9919, V-B:GLU:543:CB:9874, V-B:TYR:539:C:9835, V-B:TYR:539:CD2:9842, V-A:GLU:543:CB:4901, V-B:TYR:539:CE2:9844, V-A:ILE:369:CD1:3234, V-B:TYR:539:CZ:9845, V-A:ASP:366:CA:3205, V-A:ILE:369:CB:3231, V-A:ASP:366:CG:3208, V-B:HIS:456:CE1:9037, V-A:ASP:366:CB:3207, V-A:ASP:366:C:3203, V-A:GLU:543:CG:4902, H-B:TYR:484:OH:9315, V-A:GLU:543:CD:4903, V-B:GLU:543:CD:9876, V-A:ILE:369:CG2:3232, V-B:PRO:540:CB:9853, V-B:PRO:540:CA:9851, V-A:LYS:547:CE:4945, V-B:HIS:456:CD2:9035, V-A:TYR:531:CZ:4789, H-A:LYS:547:NZ:4946, V-B:ASP:366:CB:8179, H-B:GLU:543:OE2:9878, V-B:ASP:366:CG:8180, H-B:ASP:366:OD2:8182, V-B:PRO:540:N:9852, V-B:MET:535:CE:9803, V-A:TYR:531:CE1:4787, H-B:TYR:539:OH:9846, H-B:ARG:545:NH2:9896, H-B:TYR:531:OH:9763, V-A:ILE:369:CG1:3233, H-B:TYR:539:N:9838"]

$$$$
2aa_Ghoteimi_2023
     RDKit          3D

 48 53  0  0  0  0  0  0  0  0999 V2000
  129.5960  122.3890   58.8820 C   0  0  0  0  0  0  0  0  0  0  0  0
  129.1440  123.0420   57.5720 C   0  0  0  0  0  0  0  0  0  0  0  0
  128.1290  122.2460   56.9750 O   0  0  0  0  0  0  0  0  0  0  0  0
  126.8200  122.6010   57.0540 C   0  0  0  0  0  0  0  0  0  0  0  0
  125.9130  121.9890   56.4800 O   0  0  0  0  0  0  0  0  0  0  0  0
  126.5840  123.8030   57.9220 C   0  0  0  0  0  0  0  0  0  0  0  0
  126.3830  123.6900   59.3060 C   0  0  0  0  0  0  0  0  0  0  0  0
  126.1710  124.8240   60.0850 C   0  0  0  0  0  0  0  0  0  0  0  0
  126.1450  126.0900   59.4980 C   0  0  0  0  0  0  0  0  0  0  0  0
  125.9260  127.1670   60.3790 N   0  0  0  0  0  0  0  0  0  0  0  0
  125.5520  128.4380   60.1150 C   0  0  0  0  0  0  0  0  0  0  0  0
  125.2990  128.8840   58.9940 O   0  0  0  0  0  0  0  0  0  0  0  0
  125.4290  129.3370   61.3520 C   0  0  0  0  0  0  0  0  0  0  0  0
  125.4400  128.5320   62.5360 O   0  0  0  0  0  0  0  0  0  0  0  0
  126.6460  128.1290   63.0940 C   0  0  0  0  0  0  0  0  0  0  0  0
  127.5650  127.5420   62.2770 N   0  0  0  0  0  0  0  0  0  0  0  0
  128.7560  127.1410   62.7900 C   0  0  0  0  0  0  0  0  0  0  0  0
  129.7130  126.5000   61.8350 C   0  0  0  0  0  0  0  0  0  0  0  0
  130.8210  125.7880   62.3050 C   0  0  0  0  0  0  0  0  0  0  0  0
  131.7120  125.1830   61.4210 C   0  0  0  0  0  0  0  0  0  0  0  0
  131.5190  125.2580   60.0330 C   0  0  0  0  0  0  0  0  0  0  0  0
  132.4110  124.6670   59.1310 N   0  0  0  0  0  0  0  0  0  0  0  0
  133.1780  123.4560   59.4870 C   0  0  0  0  0  0  0  0  0  0  0  0
  134.3520  123.1580   58.5310 C   0  0  0  0  0  0  0  0  0  0  0  0
  133.8830  123.0860   57.1940 O   0  0  0  0  0  0  0  0  0  0  0  0
  133.2890  124.3080   56.7850 C   0  0  0  0  0  0  0  0  0  0  0  0
  132.0830  124.6400   57.6900 C   0  0  0  0  0  0  0  0  0  0  0  0
  130.4180  125.9910   59.5670 C   0  0  0  0  0  0  0  0  0  0  0  0
  129.5300  126.5970   60.4510 C   0  0  0  0  0  0  0  0  0  0  0  0
  129.0500  127.3040   64.1470 C   0  0  0  0  0  0  0  0  0  0  0  0
  128.1190  127.8950   65.0100 C   0  0  0  0  0  0  0  0  0  0  0  0
  128.4800  128.0190   66.4550 C   0  0  0  0  0  0  0  0  0  0  0  0
  128.7720  129.2700   67.0040 C   0  0  0  0  0  0  0  0  0  0  0  0
  129.1290  129.3910   68.3440 C   0  0  0  0  0  0  0  0  0  0  0  0
  129.2180  128.2600   69.1710 C   0  0  0  0  0  0  0  0  0  0  0  0
  129.5710  128.3580   70.5200 N   0  0  0  0  0  0  0  0  0  0  0  0
  129.5450  127.1800   71.4090 C   0  0  0  0  0  0  0  0  0  0  0  0
  130.2930  127.3990   72.7410 C   0  0  0  0  0  0  0  0  0  0  0  0
  129.7780  128.5440   73.4040 O   0  0  0  0  0  0  0  0  0  0  0  0
  129.9300  129.7150   72.6170 C   0  0  0  0  0  0  0  0  0  0  0  0
  129.1730  129.5580   71.2820 C   0  0  0  0  0  0  0  0  0  0  0  0
  128.9170  127.0100   68.6130 C   0  0  0  0  0  0  0  0  0  0  0  0
  128.5590  126.8900   67.2740 C   0  0  0  0  0  0  0  0  0  0  0  0
  126.8890  128.3320   64.4640 C   0  0  0  0  0  0  0  0  0  0  0  0
  125.8760  129.0040   65.2810 C   0  0  0  0  0  0  0  0  0  0  0  0
  125.0760  129.5360   65.9270 N   0  0  0  0  0  0  0  0  0  0  0  0
  126.3510  126.2120   58.1170 C   0  0  0  0  0  0  0  0  0  0  0  0
  126.5680  125.0770   57.3400 C   0  0  0  0  0  0  0  0  0  0  0  0
  1  2  1  0
  2  3  1  0
  3  4  1  0
  4  5  2  0
  4  6  1  0
  6  7  2  0
  7  8  1  0
  8  9  2  0
  9 10  1  0
 10 11  1  0
 11 12  2  0
 11 13  1  0
 13 14  1  0
 14 15  1  0
 15 16  2  0
 16 17  1  0
 17 18  1  0
 18 19  2  0
 19 20  1  0
 20 21  2  0
 21 22  1  0
 22 23  1  0
 23 24  1  0
 24 25  1  0
 25 26  1  0
 26 27  1  0
 21 28  1  0
 28 29  2  0
 17 30  2  0
 30 31  1  0
 31 32  1  0
 32 33  2  0
 33 34  1  0
 34 35  2  0
 35 36  1  0
 36 37  1  0
 37 38  1  0
 38 39  1  0
 39 40  1  0
 40 41  1  0
 35 42  1  0
 42 43  2  0
 31 44  2  0
 44 45  1  0
 45 46  3  0
  9 47  1  0
 47 48  2  0
 48  6  1  0
 44 15  1  0
 29 18  1  0
 43 32  1  0
 27 22  1  0
 41 36  1  0
M  END
>  <Binding energies>  (9) 
[-9.17]

>  <Ligand effiencies>  (9) 
[-0.18714285714285714]

>  <Interactions>  (9) 
["V-B:GLU:543:CG:9875, V-A:HIS:456:CE1:4064, V-B:GLU:543:CB:9874, V-B:TYR:539:C:9835, V-B:TYR:539:CD2:9842, V-A:GLU:543:CB:4901, V-B:TYR:539:CE2:9844, V-A:ILE:369:CD1:3234, V-B:TYR:539:CZ:9845, V-A:ASP:366:CA:3205, V-A:ILE:369:CB:3231, V-A:ASP:366:CG:3208, V-B:HIS:456:CE1:9037, V-A:ASP:366:CB:3207, V-A:ASP:366:C:3203, V-A:GLU:543:CG:4902, H-B:TYR:484:OH:9315, V-A:GLU:543:CD:4903, V-B:GLU:543:CD:9876, V-A:ILE:369:CG2:3232, V-B:PRO:540:CB:9853, V-B:PRO:540:CA:9851, V-A:LYS:547:CE:4945, V-B:HIS:456:CD2:9035, V-A:TYR:531:CZ:4789, H-A:LYS:547:NZ:4946, V-B:ASP:366:CB:8179, H-B:GLU:543:OE2:9878, V-B:ASP:366:CG:8180, H-B:ASP:366:OD2:8182, V-B:PRO:540:N:9852, V-B:MET:535:CE:9803, V-A:TYR:531:CE1:4787, H-B:TYR:539:OH:9846, H-B:ARG:545:NH2:9896, V-A:ILE:369:CG1:3233, H-B:TYR:539:N:9838, H-A:ASN:370:N:3239"]

$$$$
2b_Ghoteimi_2023
     RDKit          3D

 42 47  0  0  0  0  0  0  0  0999 V2000
  124.4690  130.0060   59.2500 N   0  0  0  0  0  0  0  0  0  0  0  0
  124.9430  129.7700   60.2790 C   0  0  0  0  0  0  0  0  0  0  0  0
  125.5460  129.4650   61.5800 C   0  0  0  0  0  0  0  0  0  0  0  0
  126.1550  128.2070   61.8140 C   0  0  0  0  0  0  0  0  0  0  0  0
  126.2350  127.1200   60.7930 C   0  0  0  0  0  0  0  0  0  0  0  0
  125.7800  125.8360   61.0950 C   0  0  0  0  0  0  0  0  0  0  0  0
  125.8540  124.8190   60.1470 C   0  0  0  0  0  0  0  0  0  0  0  0
  126.4020  125.0550   58.8770 C   0  0  0  0  0  0  0  0  0  0  0  0
  126.4740  124.0550   57.9050 N   0  0  0  0  0  0  0  0  0  0  0  0
  127.7470  123.3330   57.7110 C   0  0  0  0  0  0  0  0  0  0  0  0
  127.8070  122.5440   56.3860 C   0  0  0  0  0  0  0  0  0  0  0  0
  126.6990  121.6610   56.2920 O   0  0  0  0  0  0  0  0  0  0  0  0
  125.4650  122.3620   56.3320 C   0  0  0  0  0  0  0  0  0  0  0  0
  125.3440  123.1370   57.6600 C   0  0  0  0  0  0  0  0  0  0  0  0
  126.8590  126.3470   58.5850 C   0  0  0  0  0  0  0  0  0  0  0  0
  126.7820  127.3650   59.5300 C   0  0  0  0  0  0  0  0  0  0  0  0
  126.7210  127.9640   63.0710 C   0  0  0  0  0  0  0  0  0  0  0  0
  126.7110  128.9560   64.0560 C   0  0  0  0  0  0  0  0  0  0  0  0
  127.3290  128.7580   65.4040 C   0  0  0  0  0  0  0  0  0  0  0  0
  128.0040  129.8050   66.0400 C   0  0  0  0  0  0  0  0  0  0  0  0
  128.5680  129.6330   67.3010 C   0  0  0  0  0  0  0  0  0  0  0  0
  128.4880  128.4010   67.9700 C   0  0  0  0  0  0  0  0  0  0  0  0
  129.0230  128.2210   69.2500 N   0  0  0  0  0  0  0  0  0  0  0  0
  130.0740  129.1340   69.7440 C   0  0  0  0  0  0  0  0  0  0  0  0
  130.8320  128.5960   70.9770 C   0  0  0  0  0  0  0  0  0  0  0  0
  129.9120  128.2730   72.0090 O   0  0  0  0  0  0  0  0  0  0  0  0
  128.9970  127.2720   71.5950 C   0  0  0  0  0  0  0  0  0  0  0  0
  128.1860  127.7680   70.3780 C   0  0  0  0  0  0  0  0  0  0  0  0
  127.8040  127.3560   67.3310 C   0  0  0  0  0  0  0  0  0  0  0  0
  127.2380  127.5310   66.0710 C   0  0  0  0  0  0  0  0  0  0  0  0
  126.1280  130.1610   63.8290 N   0  0  0  0  0  0  0  0  0  0  0  0
  125.5440  130.4080   62.6330 C   0  0  0  0  0  0  0  0  0  0  0  0
  124.8270  132.0320   62.5110 S   0  0  0  0  0  0  0  0  0  0  0  0
  125.2900  132.7170   60.8920 C   0  0  0  0  0  0  0  0  0  0  0  0
  126.8070  132.7540   60.6960 C   0  0  0  0  0  0  0  0  0  0  0  0
  127.2700  133.2210   59.6540 O   0  0  0  0  0  0  0  0  0  0  0  0
  127.5370  132.2490   61.7140 N   0  0  0  0  0  0  0  0  0  0  0  0
  128.9200  132.1700   61.8000 C   0  0  0  0  0  0  0  0  0  0  0  0
  129.6830  131.3110   61.0110 C   0  0  0  0  0  0  0  0  0  0  0  0
  130.9850  131.5330   61.3960 C   0  0  0  0  0  0  0  0  0  0  0  0
  131.0040  132.4780   62.3660 O   0  0  0  0  0  0  0  0  0  0  0  0
  129.6880  132.8760   62.6130 N   0  0  0  0  0  0  0  0  0  0  0  0
  1  2  3  0
  2  3  1  0
  3  4  2  0
  4  5  1  0
  5  6  2  0
  6  7  1  0
  7  8  2  0
  8  9  1  0
  9 10  1  0
 10 11  1  0
 11 12  1  0
 12 13  1  0
 13 14  1  0
  8 15  1  0
 15 16  2  0
  4 17  1  0
 17 18  2  0
 18 19  1  0
 19 20  2  0
 20 21  1  0
 21 22  2  0
 22 23  1  0
 23 24  1  0
 24 25  1  0
 25 26  1  0
 26 27  1  0
 27 28  1  0
 22 29  1  0
 29 30  2  0
 18 31  1  0
 31 32  2  0
 32 33  1  0
 33 34  1  0
 34 35  1  0
 35 36  2  0
 35 37  1  0
 37 38  1  0
 38 39  1  0
 39 40  2  0
 40 41  1  0
 41 42  1  0
 32  3  1  0
 42 38  2  0
 16  5  1  0
 30 19  1  0
 14  9  1  0
 28 23  1  0
M  END
>  <Binding energies>  (10) 
[-9.37]

>  <Ligand effiencies>  (10) 
[-0.21790697674418602]

>  <Interactions>  (10) 
["V-B:GLU:543:CG:9875, V-A:HIS:456:CE1:4064, V-B:GLU:543:CB:9874, V-B:TYR:539:C:9835, V-A:GLU:543:CB:4901, V-B:TYR:539:CZ:9845, V-B:HIS:456:CE1:9037, V-A:GLU:543:CG:4902, H-B:TYR:484:OH:9315, V-B:GLU:543:CD:9876, V-B:PRO:540:CB:9853, V-B:PRO:540:CA:9851, V-A:GLY:544:C:4907, V-A:TYR:539:CE2:4871, V-A:GLU:543:C:4897, V-B:HIS:456:CD2:9035, H-A:ALA:541:N:4886, V-A:PRO:540:CA:4878, V-A:PRO:540:CB:4880, V-B:ASP:366:CB:8179, V-B:TYR:539:CE1:9843, V-B:ASP:366:CG:8180, V-B:PRO:540:CD:9855, V-B:PRO:540:N:9852, V-B:MET:535:CE:9803, V-B:ILE:538:CG2:9831, H-B:TYR:539:N:9838, V-B:TYR:539:CG:9840, V-B:TYR:539:CD1:9841"]

$$$$
2c_Ghoteimi_2023
     RDKit          3D

 42 47  0  0  0  0  0  0  0  0999 V2000
  124.6680  130.2290   59.2130 N   0  0  0  0  0  0  0  0  0  0  0  0
  125.0970  129.9460   60.2490 C   0  0  0  0  0  0  0  0  0  0  0  0
  125.6420  129.5820   61.5600 C   0  0  0  0  0  0  0  0  0  0  0  0
  126.1240  128.2720   61.8020 C   0  0  0  0  0  0  0  0  0  0  0  0
  126.1180  127.1810   60.7820 C   0  0  0  0  0  0  0  0  0  0  0  0
  126.4530  127.4580   59.4550 C   0  0  0  0  0  0  0  0  0  0  0  0
  126.4540  126.4470   58.4990 C   0  0  0  0  0  0  0  0  0  0  0  0
  126.1050  125.1300   58.8400 C   0  0  0  0  0  0  0  0  0  0  0  0
  126.1190  124.0960   57.9010 N   0  0  0  0  0  0  0  0  0  0  0  0
  127.2960  123.2080   57.8220 C   0  0  0  0  0  0  0  0  0  0  0  0
  127.3490  122.3820   56.5190 C   0  0  0  0  0  0  0  0  0  0  0  0
  126.1470  121.6440   56.3610 O   0  0  0  0  0  0  0  0  0  0  0  0
  125.0140  122.4960   56.2920 C   0  0  0  0  0  0  0  0  0  0  0  0
  124.8990  123.3260   57.5880 C   0  0  0  0  0  0  0  0  0  0  0  0
  125.7670  124.8620   60.1740 C   0  0  0  0  0  0  0  0  0  0  0  0
  125.7680  125.8740   61.1300 C   0  0  0  0  0  0  0  0  0  0  0  0
  126.6390  127.9750   63.0710 C   0  0  0  0  0  0  0  0  0  0  0  0
  126.6970  128.9610   64.0610 C   0  0  0  0  0  0  0  0  0  0  0  0
  127.2530  128.6990   65.4240 C   0  0  0  0  0  0  0  0  0  0  0  0
  128.2350  129.5320   65.9670 C   0  0  0  0  0  0  0  0  0  0  0  0
  128.7530  129.2960   67.2380 C   0  0  0  0  0  0  0  0  0  0  0  0
  128.3140  128.2090   68.0100 C   0  0  0  0  0  0  0  0  0  0  0  0
  128.8050  127.9730   69.2980 N   0  0  0  0  0  0  0  0  0  0  0  0
  128.8780  126.5910   69.8160 C   0  0  0  0  0  0  0  0  0  0  0  0
  129.0640  126.5120   71.3460 C   0  0  0  0  0  0  0  0  0  0  0  0
  130.2050  127.2580   71.7360 O   0  0  0  0  0  0  0  0  0  0  0  0
  130.0750  128.6270   71.3870 C   0  0  0  0  0  0  0  0  0  0  0  0
  129.9150  128.7710   69.8590 C   0  0  0  0  0  0  0  0  0  0  0  0
  127.3190  127.3840   67.4670 C   0  0  0  0  0  0  0  0  0  0  0  0
  126.8010  127.6210   66.1960 C   0  0  0  0  0  0  0  0  0  0  0  0
  126.2360  130.2160   63.8250 N   0  0  0  0  0  0  0  0  0  0  0  0
  125.7050  130.5190   62.6170 C   0  0  0  0  0  0  0  0  0  0  0  0
  125.1430  132.2010   62.4880 S   0  0  0  0  0  0  0  0  0  0  0  0
  126.3440  133.2470   63.3660 C   0  0  0  0  0  0  0  0  0  0  0  0
  127.7680  132.7000   63.2570 C   0  0  0  0  0  0  0  0  0  0  0  0
  128.4300  132.5280   64.2820 O   0  0  0  0  0  0  0  0  0  0  0  0
  128.2010  132.4460   62.0030 N   0  0  0  0  0  0  0  0  0  0  0  0
  129.4370  131.9340   61.6400 C   0  0  0  0  0  0  0  0  0  0  0  0
  130.6240  132.4600   61.8520 N   0  0  0  0  0  0  0  0  0  0  0  0
  131.5860  131.6960   61.3760 C   0  0  0  0  0  0  0  0  0  0  0  0
  131.1850  130.5160   60.7570 C   0  0  0  0  0  0  0  0  0  0  0  0
  129.4500  130.4110   60.8090 S   0  0  0  0  0  0  0  0  0  0  0  0
  1  2  3  0
  2  3  1  0
  3  4  2  0
  4  5  1  0
  5  6  2  0
  6  7  1  0
  7  8  2  0
  8  9  1  0
  9 10  1  0
 10 11  1  0
 11 12  1  0
 12 13  1  0
 13 14  1  0
  8 15  1  0
 15 16  2  0
  4 17  1  0
 17 18  2  0
 18 19  1  0
 19 20  2  0
 20 21  1  0
 21 22  2  0
 22 23  1  0
 23 24  1  0
 24 25  1  0
 25 26  1  0
 26 27  1  0
 27 28  1  0
 22 29  1  0
 29 30  2  0
 18 31  1  0
 31 32  2  0
 32 33  1  0
 33 34  1  0
 34 35  1  0
 35 36  2  0
 35 37  1  0
 37 38  1  0
 38 39  2  0
 39 40  1  0
 40 41  2  0
 41 42  1  0
 32  3  1  0
 42 38  1  0
 16  5  1  0
 30 19  1  0
 14  9  1  0
 28 23  1  0
M  END
>  <Binding energies>  (11) 
[-9.75]

>  <Ligand effiencies>  (11) 
[-0.22674418604651161]

>  <Interactions>  (11) 
["V-A:HIS:456:CE1:4064, V-B:GLU:543:CB:9874, V-B:TYR:539:C:9835, V-A:GLU:543:CB:4901, V-B:HIS:456:CE1:9037, V-A:GLU:543:CG:4902, V-B:GLU:543:C:9870, H-B:TYR:484:OH:9315, V-A:GLU:543:CD:4903, V-B:GLU:543:CD:9876, V-B:PRO:540:CB:9853, V-B:PRO:540:CA:9851, V-A:GLU:543:C:4897, H-A:ALA:541:N:4886, V-A:PRO:540:CA:4878, V-A:ALA:541:CB:4887, V-A:PRO:540:CB:4880, V-B:ASP:366:CG:8180, V-B:LEU:475:CD2:9226, V-B:LEU:363:CD1:8156, V-B:PRO:540:CD:9855, V-B:PRO:540:N:9852, V-B:MET:535:CE:9803, V-B:ILE:538:CG2:9831, H-B:TYR:539:N:9838, V-B:TYR:539:CA:9837, V-B:TYR:539:CD1:9841, V-B:LEU:475:CD1:9225"]

$$$$
2j_Grossjean_2025
     RDKit          3D

 23 24  0  0  0  0  0  0  0  0999 V2000
  133.6370  123.4830   57.7330 C   0  0  0  0  0  0  0  0  0  0  0  0
  133.1040  123.2470   59.1340 C   0  0  0  0  0  0  0  0  0  0  0  0
  133.7120  123.8130   60.2510 C   0  0  0  0  0  0  0  0  0  0  0  0
  133.1800  123.5670   61.5260 C   0  0  0  0  0  0  0  0  0  0  0  0
  133.8650  124.2020   62.7510 C   0  0  0  0  0  0  0  0  0  0  0  0
  133.4070  125.4400   62.9390 F   0  0  0  0  0  0  0  0  0  0  0  0
  133.6120  123.4770   63.8420 F   0  0  0  0  0  0  0  0  0  0  0  0
  135.1910  124.2780   62.6190 F   0  0  0  0  0  0  0  0  0  0  0  0
  132.0320  122.7420   61.6320 C   0  0  0  0  0  0  0  0  0  0  0  0
  131.4330  122.4510   62.9390 C   0  0  0  0  0  0  0  0  0  0  0  0
  130.9600  122.2230   63.9700 N   0  0  0  0  0  0  0  0  0  0  0  0
  131.4790  122.2080   60.4440 C   0  0  0  0  0  0  0  0  0  0  0  0
  130.0320  121.1590   60.4570 S   0  0  0  0  0  0  0  0  0  0  0  0
  128.7570  121.9510   61.4960 C   0  0  0  0  0  0  0  0  0  0  0  0
  127.5950  122.5870   60.7200 C   0  0  0  0  0  0  0  0  0  0  0  0
  126.6790  123.1590   61.3140 O   0  0  0  0  0  0  0  0  0  0  0  0
  127.6690  122.4490   59.3770 N   0  0  0  0  0  0  0  0  0  0  0  0
  126.7590  122.9260   58.4430 C   0  0  0  0  0  0  0  0  0  0  0  0
  126.3870  122.3580   57.3160 N   0  0  0  0  0  0  0  0  0  0  0  0
  125.5000  123.0920   56.6720 C   0  0  0  0  0  0  0  0  0  0  0  0
  125.1340  124.2890   57.2800 C   0  0  0  0  0  0  0  0  0  0  0  0
  126.0050  124.4520   58.7760 S   0  0  0  0  0  0  0  0  0  0  0  0
  132.0080  122.4600   59.2190 N   0  0  0  0  0  0  0  0  0  0  0  0
  1  2  1  0
  2  3  2  0
  3  4  1  0
  4  5  1  0
  5  6  1  0
  5  7  1  0
  5  8  1  0
  4  9  2  0
  9 10  1  0
 10 11  3  0
  9 12  1  0
 12 13  1  0
 13 14  1  0
 14 15  1  0
 15 16  2  0
 15 17  1  0
 17 18  1  0
 18 19  2  0
 19 20  1  0
 20 21  2  0
 21 22  1  0
 12 23  2  0
 23  2  1  0
 22 18  1  0
M  END
>  <Binding energies>  (12) 
[-6.0]

>  <Ligand effiencies>  (12) 
[-0.25]

>  <Interactions>  (12) 
["V-B:PRO:540:C:9849, V-B:ALA:541:CB:9860, V-B:ALA:541:CA:9858, V-B:TYR:539:C:9835, V-A:LEU:475:CD2:4254, V-B:TYR:539:CE2:9844, V-A:ILE:369:CD1:3234, V-A:ASP:366:CA:3205, V-A:ILE:369:CB:3231, V-A:ASP:366:CG:3208, V-A:ASP:366:CB:3207, V-A:ASP:366:C:3203, V-A:ILE:369:CG2:3232, H-A:TYR:484:OH:4343, V-A:GLY:454:CA:4044, V-A:ARG:545:CZ:4921, V-B:PRO:540:CB:9853, H-B:ALA:541:N:9859, V-B:PRO:540:CA:9851, H-B:TYR:539:O:9836, V-A:GLY:453:CA:4039, V-A:GLY:453:C:4037, V-B:PRO:540:N:9852, V-B:MET:535:CE:9803"]

$$$$
3ab_Grossjean_2025
     RDKit          3D

 33 35  0  0  0  0  0  0  0  0999 V2000
  131.3810  118.2570   74.2680 C   0  0  0  0  0  0  0  0  0  0  0  0
  131.2280  119.4830   73.5660 O   0  0  0  0  0  0  0  0  0  0  0  0
  130.9180  120.6300   74.2230 C   0  0  0  0  0  0  0  0  0  0  0  0
  130.9510  120.7410   75.4520 O   0  0  0  0  0  0  0  0  0  0  0  0
  130.5330  121.7540   73.3040 C   0  0  0  0  0  0  0  0  0  0  0  0
  130.0310  121.5210   72.0140 C   0  0  0  0  0  0  0  0  0  0  0  0
  129.6810  122.5820   71.1850 C   0  0  0  0  0  0  0  0  0  0  0  0
  129.8290  123.9040   71.6330 C   0  0  0  0  0  0  0  0  0  0  0  0
  129.5030  125.0510   70.8840 N   0  0  0  0  0  0  0  0  0  0  0  0
  129.2020  126.2990   71.2990 C   0  0  0  0  0  0  0  0  0  0  0  0
  129.1450  126.6700   72.4710 O   0  0  0  0  0  0  0  0  0  0  0  0
  128.9120  127.3080   70.1850 C   0  0  0  0  0  0  0  0  0  0  0  0
  127.4010  126.8920   69.2620 S   0  0  0  0  0  0  0  0  0  0  0  0
  127.7320  127.1820   67.5370 C   0  0  0  0  0  0  0  0  0  0  0  0
  126.8940  128.0810   66.9690 N   0  0  0  0  0  0  0  0  0  0  0  0
  127.0360  128.4020   65.6570 C   0  0  0  0  0  0  0  0  0  0  0  0
  126.0700  129.4090   65.1050 C   0  0  0  0  0  0  0  0  0  0  0  0
  126.4380  130.2510   64.0440 C   0  0  0  0  0  0  0  0  0  0  0  0
  125.5460  131.1860   63.5270 C   0  0  0  0  0  0  0  0  0  0  0  0
  124.2680  131.2940   64.0670 C   0  0  0  0  0  0  0  0  0  0  0  0
  123.8790  130.4740   65.1210 C   0  0  0  0  0  0  0  0  0  0  0  0
  124.7750  129.5400   65.6350 C   0  0  0  0  0  0  0  0  0  0  0  0
  128.0260  127.7980   64.8750 C   0  0  0  0  0  0  0  0  0  0  0  0
  128.8930  126.8490   65.4350 C   0  0  0  0  0  0  0  0  0  0  0  0
  129.9670  126.2030   64.5380 C   0  0  0  0  0  0  0  0  0  0  0  0
  131.2080  126.4150   64.9820 F   0  0  0  0  0  0  0  0  0  0  0  0
  129.7840  124.8830   64.4800 F   0  0  0  0  0  0  0  0  0  0  0  0
  129.8900  126.7040   63.3040 F   0  0  0  0  0  0  0  0  0  0  0  0
  128.7430  126.5200   66.8050 C   0  0  0  0  0  0  0  0  0  0  0  0
  129.5850  125.4940   67.4260 C   0  0  0  0  0  0  0  0  0  0  0  0
  130.2520  124.6830   67.9140 N   0  0  0  0  0  0  0  0  0  0  0  0
  130.3220  124.1390   72.9180 C   0  0  0  0  0  0  0  0  0  0  0  0
  130.6730  123.0760   73.7450 C   0  0  0  0  0  0  0  0  0  0  0  0
  1  2  1  0
  2  3  1  0
  3  4  2  0
  3  5  1  0
  5  6  2  0
  6  7  1  0
  7  8  2  0
  8  9  1  0
  9 10  1  0
 10 11  2  0
 10 12  1  0
 12 13  1  0
 13 14  1  0
 14 15  2  0
 15 16  1  0
 16 17  1  0
 17 18  2  0
 18 19  1  0
 19 20  2  0
 20 21  1  0
 21 22  2  0
 16 23  2  0
 23 24  1  0
 24 25  1  0
 25 26  1  0
 25 27  1  0
 25 28  1  0
 24 29  2  0
 29 30  1  0
 30 31  3  0
  8 32  1  0
 32 33  2  0
 33  5  1  0
 29 14  1  0
 22 17  1  0
M  END
>  <Binding energies>  (13) 
[-7.0]

>  <Ligand effiencies>  (13) 
[-0.20588235294117646]

>  <Interactions>  (13) 
["V-B:GLU:543:CG:9875, H-B:GLU:543:O:9871, V-A:HIS:456:CE1:4064, H-B:LYS:547:NZ:9919, V-B:GLU:543:CB:9874, V-B:HIS:456:CE1:9037, V-B:GLU:543:C:9870, V-B:GLU:543:CA:9872, V-A:GLU:543:CD:4903, V-B:GLU:543:CD:9876, H-A:TYR:484:OH:4343, H-A:HIS:456:NE2:4065, V-A:TYR:484:CG:4337, V-A:TYR:484:CD1:4338, V-A:ASP:473:CG:4235, V-A:ASP:473:CB:4234, V-B:ARG:545:CD:9891, V-B:ARG:545:CZ:9894, V-A:TYR:484:CB:4336, V-A:TYR:484:C:4332, V-A:ASP:485:CA:4348, V-A:PRO:486:CD:4361, V-A:PRO:486:N:4358, V-A:ASP:485:C:4346, V-B:GLY:454:CA:9016, H-A:LYS:471:NZ:4216"]

$$$$
3ac_Grossjean_2025
     RDKit          3D

 31 33  0  0  0  0  0  0  0  0999 V2000
  133.5490  123.7700   57.0070 C   0  0  0  0  0  0  0  0  0  0  0  0
  132.4040  123.5760   57.8310 O   0  0  0  0  0  0  0  0  0  0  0  0
  132.4660  123.9250   59.1660 C   0  0  0  0  0  0  0  0  0  0  0  0
  131.6720  124.9990   59.5660 C   0  0  0  0  0  0  0  0  0  0  0  0
  131.6650  125.4200   60.8920 C   0  0  0  0  0  0  0  0  0  0  0  0
  132.4640  124.7770   61.8400 C   0  0  0  0  0  0  0  0  0  0  0  0
  132.3750  125.2610   63.1580 N   0  0  0  0  0  0  0  0  0  0  0  0
  133.2670  125.1540   64.1660 C   0  0  0  0  0  0  0  0  0  0  0  0
  134.3760  124.6260   64.0820 O   0  0  0  0  0  0  0  0  0  0  0  0
  132.8260  125.7520   65.5030 C   0  0  0  0  0  0  0  0  0  0  0  0
  131.1980  125.1340   66.0300 S   0  0  0  0  0  0  0  0  0  0  0  0
  130.1290  126.5270   66.3370 C   0  0  0  0  0  0  0  0  0  0  0  0
  129.9970  126.8180   67.6530 N   0  0  0  0  0  0  0  0  0  0  0  0
  129.2170  127.8600   68.0410 C   0  0  0  0  0  0  0  0  0  0  0  0
  129.1180  128.1090   69.5170 C   0  0  0  0  0  0  0  0  0  0  0  0
  127.9640  127.7480   70.2310 C   0  0  0  0  0  0  0  0  0  0  0  0
  127.8680  127.9720   71.6010 C   0  0  0  0  0  0  0  0  0  0  0  0
  128.9290  128.5640   72.2790 C   0  0  0  0  0  0  0  0  0  0  0  0
  130.0810  128.9360   71.5960 C   0  0  0  0  0  0  0  0  0  0  0  0
  130.1730  128.7100   70.2250 C   0  0  0  0  0  0  0  0  0  0  0  0
  128.5310  128.6310   67.0990 C   0  0  0  0  0  0  0  0  0  0  0  0
  128.6330  128.3380   65.7310 C   0  0  0  0  0  0  0  0  0  0  0  0
  127.8550  129.2100   64.7260 C   0  0  0  0  0  0  0  0  0  0  0  0
  128.6360  129.7240   63.7730 F   0  0  0  0  0  0  0  0  0  0  0  0
  126.9130  128.4870   64.1190 F   0  0  0  0  0  0  0  0  0  0  0  0
  127.2740  130.2270   65.3640 F   0  0  0  0  0  0  0  0  0  0  0  0
  129.4430  127.2460   65.3300 C   0  0  0  0  0  0  0  0  0  0  0  0
  129.5190  126.8540   63.9220 C   0  0  0  0  0  0  0  0  0  0  0  0
  129.5780  126.5440   62.8080 N   0  0  0  0  0  0  0  0  0  0  0  0
  133.2610  123.6910   61.4470 C   0  0  0  0  0  0  0  0  0  0  0  0
  133.2640  123.2710   60.1190 C   0  0  0  0  0  0  0  0  0  0  0  0
  1  2  1  0
  2  3  1  0
  3  4  2  0
  4  5  1  0
  5  6  2  0
  6  7  1  0
  7  8  1  0
  8  9  2  0
  8 10  1  0
 10 11  1  0
 11 12  1  0
 12 13  2  0
 13 14  1  0
 14 15  1  0
 15 16  2  0
 16 17  1  0
 17 18  2  0
 18 19  1  0
 19 20  2  0
 14 21  2  0
 21 22  1  0
 22 23  1  0
 23 24  1  0
 23 25  1  0
 23 26  1  0
 22 27  2  0
 27 28  1  0
 28 29  3  0
  6 30  1  0
 30 31  2  0
 31  3  1  0
 27 12  1  0
 20 15  1  0
M  END
>  <Binding energies>  (14) 
[-6.59]

>  <Ligand effiencies>  (14) 
[-0.2059375]

>  <Interactions>  (14) 
["V-A:HIS:456:CE1:4064, V-B:TYR:539:CE2:9844, V-A:ILE:369:CD1:3234, V-B:TYR:539:CZ:9845, V-A:ASP:366:CG:3208, V-B:HIS:456:CE1:9037, V-A:ASP:366:CB:3207, V-A:ASP:366:C:3203, V-A:GLU:543:CG:4902, V-A:GLU:543:CD:4903, V-B:GLU:543:CD:9876, H-A:ARG:545:NH1:4922, H-A:TYR:484:OH:4343, H-A:GLY:454:N:4045, V-A:ARG:545:CZ:4921, H-A:HIS:456:NE2:4065, V-A:GLU:543:C:4897, V-B:HIS:456:CD2:9035, V-B:TYR:484:CZ:9314, V-A:ARG:545:CD:4918, H-B:TYR:539:OH:9846"]

$$$$
3af_Grossjean_2025
     RDKit          3D

 29 31  0  0  0  0  0  0  0  0999 V2000
  133.6350  119.7310   60.3300 N   0  0  0  0  0  0  0  0  0  0  0  0
  132.6780  120.3720   60.4490 C   0  0  0  0  0  0  0  0  0  0  0  0
  131.4660  121.1810   60.5990 C   0  0  0  0  0  0  0  0  0  0  0  0
  130.1990  120.5640   60.7440 C   0  0  0  0  0  0  0  0  0  0  0  0
  130.0200  119.0340   60.8020 C   0  0  0  0  0  0  0  0  0  0  0  0
  130.8150  118.4530   61.7040 F   0  0  0  0  0  0  0  0  0  0  0  0
  128.7610  118.7360   61.1250 F   0  0  0  0  0  0  0  0  0  0  0  0
  130.3030  118.4950   59.6160 F   0  0  0  0  0  0  0  0  0  0  0  0
  129.0610  121.3810   60.8300 C   0  0  0  0  0  0  0  0  0  0  0  0
  129.1850  122.7730   60.7710 C   0  0  0  0  0  0  0  0  0  0  0  0
  128.0010  123.6920   60.8390 C   0  0  0  0  0  0  0  0  0  0  0  0
  126.7090  123.1830   61.0480 C   0  0  0  0  0  0  0  0  0  0  0  0
  125.6070  124.0320   61.1150 C   0  0  0  0  0  0  0  0  0  0  0  0
  125.7830  125.4030   60.9730 C   0  0  0  0  0  0  0  0  0  0  0  0
  127.0530  125.9340   60.7680 C   0  0  0  0  0  0  0  0  0  0  0  0
  128.1520  125.0820   60.7020 C   0  0  0  0  0  0  0  0  0  0  0  0
  130.4000  123.3600   60.6280 N   0  0  0  0  0  0  0  0  0  0  0  0
  131.5160  122.5930   60.5660 C   0  0  0  0  0  0  0  0  0  0  0  0
  133.0150  123.5410   60.3950 S   0  0  0  0  0  0  0  0  0  0  0  0
  134.0120  123.2900   61.8940 C   0  0  0  0  0  0  0  0  0  0  0  0
  133.5210  124.1520   63.0560 C   0  0  0  0  0  0  0  0  0  0  0  0
  134.3420  124.6220   63.8430 O   0  0  0  0  0  0  0  0  0  0  0  0
  132.1820  124.3230   63.1230 N   0  0  0  0  0  0  0  0  0  0  0  0
  131.4150  125.0430   64.0600 C   0  0  0  0  0  0  0  0  0  0  0  0
  130.2620  125.7960   63.7710 C   0  0  0  0  0  0  0  0  0  0  0  0
  129.5980  126.4650   64.8020 C   0  0  0  0  0  0  0  0  0  0  0  0
  130.1040  126.3650   66.0990 C   0  0  0  0  0  0  0  0  0  0  0  0
  131.2120  125.6450   66.4030 N   0  0  0  0  0  0  0  0  0  0  0  0
  131.8460  125.0010   65.3900 C   0  0  0  0  0  0  0  0  0  0  0  0
  1  2  3  0
  2  3  1  0
  3  4  2  0
  4  5  1  0
  5  6  1  0
  5  7  1  0
  5  8  1  0
  4  9  1  0
  9 10  2  0
 10 11  1  0
 11 12  2  0
 12 13  1  0
 13 14  2  0
 14 15  1  0
 15 16  2  0
 10 17  1  0
 17 18  2  0
 18 19  1  0
 19 20  1  0
 20 21  1  0
 21 22  2  0
 21 23  1  0
 23 24  1  0
 24 25  2  0
 25 26  1  0
 26 27  2  0
 27 28  1  0
 28 29  2  0
 18  3  1  0
 29 24  1  0
 16 11  1  0
M  END
>  <Binding energies>  (15) 
[-6.76]

>  <Ligand effiencies>  (15) 
[-0.22533333333333333]

>  <Interactions>  (15) 
["V-B:PRO:540:C:9849, V-B:GLU:543:CG:9875, V-A:TRP:381:CZ3:3366, V-A:PRO:482:CG:4322, V-B:TYR:539:CB:9839, V-A:TRP:381:CZ2:3365, V-B:ALA:541:CB:9860, V-B:ALA:541:CA:9858, V-A:TRP:381:CE3:3363, V-A:TRP:381:CH2:3367, V-B:TYR:539:C:9835, V-B:TYR:539:CD2:9842, V-A:LEU:475:CD2:4254, V-A:TRP:381:CE2:3362, V-A:PRO:482:CB:4321, V-B:TYR:539:CE2:9844, V-A:ILE:369:CD1:3234, V-A:TYR:484:CZ:4342, V-B:GLU:543:CD:9876, H-A:ARG:545:NH1:4922, V-A:ILE:369:CG2:3232, H-A:TYR:484:OH:4343, H-A:GLY:454:N:4045, V-B:PRO:540:CB:9853, V-B:PRO:540:CA:9851, H-A:HIS:456:NE2:4065, V-A:LEU:475:CD1:4253, V-B:ASP:366:CG:8180, V-B:TYR:539:CG:9840, V-A:LEU:475:CG:4252"]

$$$$
3ag_Grossjean_2025
     RDKit          3D

 30 32  0  0  0  0  0  0  0  0999 V2000
  128.6890  128.1760   66.6380 N   0  0  0  0  0  0  0  0  0  0  0  0
  128.9710  127.3510   67.4000 C   0  0  0  0  0  0  0  0  0  0  0  0
  129.3280  126.3050   68.3620 C   0  0  0  0  0  0  0  0  0  0  0  0
  129.8550  125.0660   67.9220 C   0  0  0  0  0  0  0  0  0  0  0  0
  130.1370  124.7620   66.4370 C   0  0  0  0  0  0  0  0  0  0  0  0
  131.3840  125.0650   66.0750 F   0  0  0  0  0  0  0  0  0  0  0  0
  129.9530  123.4640   66.1970 F   0  0  0  0  0  0  0  0  0  0  0  0
  129.3140  125.4670   65.6600 F   0  0  0  0  0  0  0  0  0  0  0  0
  130.1310  124.0760   68.8780 C   0  0  0  0  0  0  0  0  0  0  0  0
  129.8780  124.3130   70.2330 C   0  0  0  0  0  0  0  0  0  0  0  0
  130.1510  123.2920   71.2960 C   0  0  0  0  0  0  0  0  0  0  0  0
  129.1300  122.8630   72.1580 C   0  0  0  0  0  0  0  0  0  0  0  0
  129.3770  121.9150   73.1470 C   0  0  0  0  0  0  0  0  0  0  0  0
  130.6540  121.3810   73.2880 C   0  0  0  0  0  0  0  0  0  0  0  0
  131.6850  121.7910   72.4480 C   0  0  0  0  0  0  0  0  0  0  0  0
  131.4340  122.7400   71.4610 C   0  0  0  0  0  0  0  0  0  0  0  0
  129.3850  125.5070   70.6530 N   0  0  0  0  0  0  0  0  0  0  0  0
  129.1290  126.4830   69.7490 C   0  0  0  0  0  0  0  0  0  0  0  0
  128.4920  127.9760   70.4780 S   0  0  0  0  0  0  0  0  0  0  0  0
  129.8190  128.6920   71.4940 C   0  0  0  0  0  0  0  0  0  0  0  0
  129.9980  127.9480   72.8180 C   0  0  0  0  0  0  0  0  0  0  0  0
  129.5670  128.4400   73.8630 O   0  0  0  0  0  0  0  0  0  0  0  0
  130.6290  126.7620   72.7570 N   0  0  0  0  0  0  0  0  0  0  0  0
  130.8750  125.8720   73.8900 C   0  0  0  0  0  0  0  0  0  0  0  0
  132.3380  125.7900   74.3120 C   0  0  0  0  0  0  0  0  0  0  0  0
  132.7940  124.6780   75.0250 C   0  0  0  0  0  0  0  0  0  0  0  0
  134.1360  124.5860   75.3860 C   0  0  0  0  0  0  0  0  0  0  0  0
  135.0190  125.6010   75.0240 C   0  0  0  0  0  0  0  0  0  0  0  0
  134.5740  126.7050   74.3000 C   0  0  0  0  0  0  0  0  0  0  0  0
  133.2330  126.7980   73.9380 C   0  0  0  0  0  0  0  0  0  0  0  0
  1  2  3  0
  2  3  1  0
  3  4  2  0
  4  5  1  0
  5  6  1  0
  5  7  1  0
  5  8  1  0
  4  9  1  0
  9 10  2  0
 10 11  1  0
 11 12  2  0
 12 13  1  0
 13 14  2  0
 14 15  1  0
 15 16  2  0
 10 17  1  0
 17 18  2  0
 18 19  1  0
 19 20  1  0
 20 21  1  0
 21 22  2  0
 21 23  1  0
 23 24  1  0
 24 25  1  0
 25 26  2  0
 26 27  1  0
 27 28  2  0
 28 29  1  0
 29 30  2  0
 18  3  1  0
 30 25  1  0
 16 11  1  0
M  END
>  <Binding energies>  (16) 
[-6.79]

>  <Ligand effiencies>  (16) 
[-0.21903225806451612]

>  <Interactions>  (16) 
["V-B:GLU:543:CG:9875, V-A:HIS:456:CE1:4064, H-B:LYS:547:NZ:9919, V-B:GLU:543:CB:9874, V-A:TYR:484:CZ:4342, V-B:GLU:543:C:9870, V-A:TYR:484:CE1:4340, V-B:GLU:543:CA:9872, V-B:GLU:543:CD:9876, V-A:TYR:484:CG:4337, H-A:HIS:456:ND1:4062, V-A:TYR:484:CD1:4338, V-A:LYS:547:CE:4945, V-A:ASP:473:CG:4235, V-A:HIS:456:CG:4061, V-A:ASP:473:CB:4234, V-A:HIS:456:CB:4060, H-A:LYS:547:NZ:4946, V-A:HIS:456:CD2:4063, V-A:TYR:484:CB:4336, V-A:HIS:456:C:4056, V-A:VAL:457:C:4068, V-A:LYS:547:CD:4944, V-A:VAL:458:CG2:4082, V-A:LYS:547:CG:4943, V-A:VAL:457:CA:4070, V-A:TYR:484:CE2:4341, V-A:TYR:484:CD2:4339, V-A:ARG:545:C:4912"]

$$$$
3bc_Grossjean_2025
     RDKit          3D

 28 30  0  0  0  0  0  0  0  0999 V2000
  130.2270  126.0810   72.8730 C   0  0  0  0  0  0  0  0  0  0  0  0
  129.0840  126.6310   72.2270 O   0  0  0  0  0  0  0  0  0  0  0  0
  129.2310  127.2250   70.9870 C   0  0  0  0  0  0  0  0  0  0  0  0
  128.2960  126.8720   70.0140 C   0  0  0  0  0  0  0  0  0  0  0  0
  128.3630  127.4180   68.7350 C   0  0  0  0  0  0  0  0  0  0  0  0
  129.3760  128.3210   68.4090 C   0  0  0  0  0  0  0  0  0  0  0  0
  129.3560  128.8290   67.0960 N   0  0  0  0  0  0  0  0  0  0  0  0
  128.3020  129.0250   66.2750 C   0  0  0  0  0  0  0  0  0  0  0  0
  127.1270  128.8120   66.5790 O   0  0  0  0  0  0  0  0  0  0  0  0
  128.6620  129.5910   64.8940 C   0  0  0  0  0  0  0  0  0  0  0  0
  128.7370  131.4110   64.7970 S   0  0  0  0  0  0  0  0  0  0  0  0
  128.8240  131.8610   63.0780 C   0  0  0  0  0  0  0  0  0  0  0  0
  129.9860  131.5010   62.4780 N   0  0  0  0  0  0  0  0  0  0  0  0
  130.1840  131.7820   61.1640 C   0  0  0  0  0  0  0  0  0  0  0  0
  131.5030  131.3700   60.5820 C   0  0  0  0  0  0  0  0  0  0  0  0
  131.5940  130.9280   59.2530 C   0  0  0  0  0  0  0  0  0  0  0  0
  132.8150  130.5440   58.7060 C   0  0  0  0  0  0  0  0  0  0  0  0
  133.9660  130.5950   59.4850 C   0  0  0  0  0  0  0  0  0  0  0  0
  133.9040  131.0260   60.8060 C   0  0  0  0  0  0  0  0  0  0  0  0
  132.6800  131.4080   61.3490 C   0  0  0  0  0  0  0  0  0  0  0  0
  129.2040  132.4410   60.4140 C   0  0  0  0  0  0  0  0  0  0  0  0
  127.9910  132.7990   61.0120 C   0  0  0  0  0  0  0  0  0  0  0  0
  126.9430  133.5020   60.1500 C   0  0  0  0  0  0  0  0  0  0  0  0
  127.7770  132.4990   62.3750 C   0  0  0  0  0  0  0  0  0  0  0  0
  126.4960  132.8190   63.0080 C   0  0  0  0  0  0  0  0  0  0  0  0
  125.4840  133.0750   63.5070 N   0  0  0  0  0  0  0  0  0  0  0  0
  130.3130  128.6920   69.3850 C   0  0  0  0  0  0  0  0  0  0  0  0
  130.2420  128.1440   70.6640 C   0  0  0  0  0  0  0  0  0  0  0  0
  1  2  1  0
  2  3  1  0
  3  4  2  0
  4  5  1  0
  5  6  2  0
  6  7  1  0
  7  8  1  0
  8  9  2  0
  8 10  1  0
 10 11  1  0
 11 12  1  0
 12 13  2  0
 13 14  1  0
 14 15  1  0
 15 16  2  0
 16 17  1  0
 17 18  2  0
 18 19  1  0
 19 20  2  0
 14 21  2  0
 21 22  1  0
 22 23  1  0
 22 24  2  0
 24 25  1  0
 25 26  3  0
  6 27  1  0
 27 28  2  0
 28  3  1  0
 24 12  1  0
 20 15  1  0
M  END
>  <Binding energies>  (17) 
[-7.47]

>  <Ligand effiencies>  (17) 
[-0.2575862068965517]

>  <Interactions>  (17) 
["V-A:HIS:456:CE1:4064, H-B:LYS:547:NZ:9919, V-A:GLU:543:CB:4901, V-A:ASP:366:CG:3208, V-B:HIS:456:CE1:9037, V-A:GLU:543:CG:4902, V-B:GLU:543:C:9870, H-B:TYR:484:OH:9315, V-A:GLU:543:CD:4903, H-A:GLU:543:OE1:4904, V-A:TYR:539:CE2:4871, V-A:GLU:543:C:4897, V-A:PRO:540:CA:4878, V-A:TYR:539:CD2:4869, V-A:ALA:541:CB:4887, V-A:ASN:362:C:3167, V-A:LEU:363:CA:3180, V-A:PRO:540:CB:4880, V-A:LEU:363:CB:3182, V-A:TYR:539:CZ:4872, V-A:ASN:362:CB:3171, V-B:LEU:475:CD2:9226, V-A:ASN:362:CA:3169"]

$$$$
3bd_Grossjean_2025
     RDKit          3D

 26 28  0  0  0  0  0  0  0  0999 V2000
  129.9640  126.2610   64.8630 C   0  0  0  0  0  0  0  0  0  0  0  0
  128.8500  126.8930   65.6960 C   0  0  0  0  0  0  0  0  0  0  0  0
  128.0110  127.8270   65.0770 C   0  0  0  0  0  0  0  0  0  0  0  0
  126.9810  128.4320   65.8070 C   0  0  0  0  0  0  0  0  0  0  0  0
  126.0440  129.4370   65.2050 C   0  0  0  0  0  0  0  0  0  0  0  0
  124.7470  129.6050   65.7170 C   0  0  0  0  0  0  0  0  0  0  0  0
  123.8710  130.5350   65.1620 C   0  0  0  0  0  0  0  0  0  0  0  0
  124.2820  131.3110   64.0830 C   0  0  0  0  0  0  0  0  0  0  0  0
  125.5590  131.1620   63.5550 C   0  0  0  0  0  0  0  0  0  0  0  0
  126.4320  130.2310   64.1130 C   0  0  0  0  0  0  0  0  0  0  0  0
  126.7740  128.1140   67.1120 N   0  0  0  0  0  0  0  0  0  0  0  0
  127.5790  127.2120   67.7270 C   0  0  0  0  0  0  0  0  0  0  0  0
  127.2090  126.8910   69.4440 S   0  0  0  0  0  0  0  0  0  0  0  0
  128.4540  127.7450   70.4580 C   0  0  0  0  0  0  0  0  0  0  0  0
  129.1240  126.8020   71.4570 C   0  0  0  0  0  0  0  0  0  0  0  0
  129.4300  127.2290   72.5710 O   0  0  0  0  0  0  0  0  0  0  0  0
  129.3450  125.5430   71.0180 N   0  0  0  0  0  0  0  0  0  0  0  0
  129.9120  124.4530   71.7040 C   0  0  0  0  0  0  0  0  0  0  0  0
  129.9210  123.2340   71.0200 C   0  0  0  0  0  0  0  0  0  0  0  0
  130.4540  122.0970   71.6210 C   0  0  0  0  0  0  0  0  0  0  0  0
  130.9690  122.1750   72.9120 C   0  0  0  0  0  0  0  0  0  0  0  0
  130.9530  123.3810   73.6090 C   0  0  0  0  0  0  0  0  0  0  0  0
  130.4230  124.5200   73.0100 C   0  0  0  0  0  0  0  0  0  0  0  0
  128.6400  126.5710   67.0530 C   0  0  0  0  0  0  0  0  0  0  0  0
  129.5020  125.5960   67.7290 C   0  0  0  0  0  0  0  0  0  0  0  0
  130.1810  124.8250   68.2610 N   0  0  0  0  0  0  0  0  0  0  0  0
  1  2  1  0
  2  3  2  0
  3  4  1  0
  4  5  1  0
  5  6  2  0
  6  7  1  0
  7  8  2  0
  8  9  1  0
  9 10  2  0
  4 11  2  0
 11 12  1  0
 12 13  1  0
 13 14  1  0
 14 15  1  0
 15 16  2  0
 15 17  1  0
 17 18  1  0
 18 19  2  0
 19 20  1  0
 20 21  2  0
 21 22  1  0
 22 23  2  0
 12 24  2  0
 24 25  1  0
 25 26  3  0
 24  2  1  0
 10  5  1  0
 23 18  1  0
M  END
>  <Binding energies>  (18) 
[-7.14]

>  <Ligand effiencies>  (18) 
[-0.2644444444444444]

>  <Interactions>  (18) 
["V-B:GLU:543:CG:9875, H-B:GLU:543:O:9871, V-A:HIS:456:CE1:4064, H-B:LYS:547:NZ:9919, V-B:GLU:543:CB:9874, V-B:HIS:456:CE1:9037, V-B:GLU:543:C:9870, V-B:GLU:543:CA:9872, V-B:GLU:543:CD:9876, H-A:HIS:456:NE2:4065, V-A:TYR:484:CG:4337, V-A:TYR:484:CD1:4338, V-B:HIS:456:CD2:9035, V-B:ARG:545:CD:9891, V-B:ARG:545:CZ:9894, V-A:TYR:484:CB:4336, V-A:TYR:484:CD2:4339, V-B:GLY:454:CA:9016"]

$$$$
3be_Grossjean_2025
     RDKit          3D

 27 29  0  0  0  0  0  0  0  0999 V2000
  135.1220  124.9960   66.7610 C   0  0  0  0  0  0  0  0  0  0  0  0
  134.0450  125.1960   65.7130 C   0  0  0  0  0  0  0  0  0  0  0  0
  132.8000  125.7410   66.0380 C   0  0  0  0  0  0  0  0  0  0  0  0
  131.8560  125.8940   65.0220 C   0  0  0  0  0  0  0  0  0  0  0  0
  132.1770  125.5040   63.7190 C   0  0  0  0  0  0  0  0  0  0  0  0
  133.4440  124.9690   63.4610 C   0  0  0  0  0  0  0  0  0  0  0  0
  133.7010  124.5860   62.1310 N   0  0  0  0  0  0  0  0  0  0  0  0
  133.4110  123.4190   61.5160 C   0  0  0  0  0  0  0  0  0  0  0  0
  132.8540  122.4620   62.0580 O   0  0  0  0  0  0  0  0  0  0  0  0
  133.8310  123.3490   60.0400 C   0  0  0  0  0  0  0  0  0  0  0  0
  132.4590  123.1680   58.8500 S   0  0  0  0  0  0  0  0  0  0  0  0
  131.1720  122.2190   59.6310 C   0  0  0  0  0  0  0  0  0  0  0  0
  129.9480  122.7980   59.5540 N   0  0  0  0  0  0  0  0  0  0  0  0
  128.8710  122.1790   60.1060 C   0  0  0  0  0  0  0  0  0  0  0  0
  127.5560  122.8930   59.9900 C   0  0  0  0  0  0  0  0  0  0  0  0
  127.0200  123.2090   58.7320 C   0  0  0  0  0  0  0  0  0  0  0  0
  125.8020  123.8730   58.6170 C   0  0  0  0  0  0  0  0  0  0  0  0
  125.1010  124.2320   59.7630 C   0  0  0  0  0  0  0  0  0  0  0  0
  125.6100  123.9320   61.0220 C   0  0  0  0  0  0  0  0  0  0  0  0
  126.8290  123.2690   61.1320 C   0  0  0  0  0  0  0  0  0  0  0  0
  129.0060  120.9500   60.7590 C   0  0  0  0  0  0  0  0  0  0  0  0
  130.2570  120.3280   60.8260 C   0  0  0  0  0  0  0  0  0  0  0  0
  130.3540  118.9770   61.5330 C   0  0  0  0  0  0  0  0  0  0  0  0
  131.3750  120.9610   60.2410 C   0  0  0  0  0  0  0  0  0  0  0  0
  132.6830  120.3020   60.2520 C   0  0  0  0  0  0  0  0  0  0  0  0
  133.7160  119.7790   60.2610 N   0  0  0  0  0  0  0  0  0  0  0  0
  134.3700  124.8140   64.4520 N   0  0  0  0  0  0  0  0  0  0  0  0
  1  2  1  0
  2  3  2  0
  3  4  1  0
  4  5  2  0
  5  6  1  0
  6  7  1  0
  7  8  1  0
  8  9  2  0
  8 10  1  0
 10 11  1  0
 11 12  1  0
 12 13  2  0
 13 14  1  0
 14 15  1  0
 15 16  2  0
 16 17  1  0
 17 18  2  0
 18 19  1  0
 19 20  2  0
 14 21  2  0
 21 22  1  0
 22 23  1  0
 22 24  2  0
 24 25  1  0
 25 26  3  0
  6 27  2  0
 27  2  1  0
 24 12  1  0
 20 15  1  0
M  END
>  <Binding energies>  (19) 
[-8.73]

>  <Ligand effiencies>  (19) 
[-0.3117857142857143]

>  <Interactions>  (19) 
["V-B:PRO:540:C:9849, V-A:TRP:381:CZ2:3365, V-B:ALA:541:CB:9860, V-B:ALA:541:CA:9858, V-A:TRP:381:CH2:3367, V-B:TYR:539:C:9835, V-B:TYR:539:CD2:9842, V-A:LEU:475:CD2:4254, V-A:PRO:482:CB:4321, V-B:TYR:539:CE2:9844, V-A:ILE:369:CD1:3234, V-A:ASP:366:CG:3208, V-A:ASP:366:CB:3207, V-A:GLU:543:CD:4903, V-B:GLU:543:CD:9876, H-A:ASP:366:OD2:3210, H-A:ARG:545:NH1:4922, V-A:ILE:369:CG2:3232, H-A:TYR:484:OH:4343, H-A:ASP:366:OD1:3209, H-A:GLY:454:N:4045, V-A:ARG:545:CZ:4921, V-B:PRO:540:CB:9853, V-B:PRO:540:CA:9851, V-A:LEU:475:CD1:4253, V-B:ASP:366:CG:8180, V-A:ARG:545:CD:4918, V-A:GLY:453:CA:4039, V-A:ARG:545:CG:4917, V-A:HIS:456:CD2:4063, V-A:GLY:453:C:4037, V-B:PRO:540:N:9852, V-A:ILE:455:C:4047"]

$$$$
3bf_Grossjean_2025
     RDKit          3D

 26 28  0  0  0  0  0  0  0  0999 V2000
  130.0120  126.2220   64.9010 C   0  0  0  0  0  0  0  0  0  0  0  0
  128.8930  126.8490   65.7290 C   0  0  0  0  0  0  0  0  0  0  0  0
  128.0470  127.7700   65.1030 C   0  0  0  0  0  0  0  0  0  0  0  0
  126.9990  128.3570   65.8210 C   0  0  0  0  0  0  0  0  0  0  0  0
  126.0450  129.3340   65.2020 C   0  0  0  0  0  0  0  0  0  0  0  0
  126.4370  130.1250   64.1110 C   0  0  0  0  0  0  0  0  0  0  0  0
  125.5560  131.0350   63.5320 C   0  0  0  0  0  0  0  0  0  0  0  0
  124.2680  131.1670   64.0390 C   0  0  0  0  0  0  0  0  0  0  0  0
  123.8550  130.3960   65.1210 C   0  0  0  0  0  0  0  0  0  0  0  0
  124.7390  129.4880   65.6980 C   0  0  0  0  0  0  0  0  0  0  0  0
  126.7880  128.0450   67.1270 N   0  0  0  0  0  0  0  0  0  0  0  0
  127.6150  127.1730   67.7550 C   0  0  0  0  0  0  0  0  0  0  0  0
  127.1910  126.8900   69.4600 S   0  0  0  0  0  0  0  0  0  0  0  0
  128.5010  127.6220   70.4980 C   0  0  0  0  0  0  0  0  0  0  0  0
  129.1340  126.6650   71.5200 C   0  0  0  0  0  0  0  0  0  0  0  0
  129.3210  127.0230   72.6840 O   0  0  0  0  0  0  0  0  0  0  0  0
  129.4210  125.4360   71.0390 N   0  0  0  0  0  0  0  0  0  0  0  0
  130.0080  124.3430   71.7030 C   0  0  0  0  0  0  0  0  0  0  0  0
  130.0070  123.1140   71.0340 C   0  0  0  0  0  0  0  0  0  0  0  0
  130.5870  121.9950   71.6340 C   0  0  0  0  0  0  0  0  0  0  0  0
  131.1620  122.1390   72.8970 C   0  0  0  0  0  0  0  0  0  0  0  0
  131.1860  123.3200   73.5640 N   0  0  0  0  0  0  0  0  0  0  0  0
  130.6190  124.4000   72.9680 C   0  0  0  0  0  0  0  0  0  0  0  0
  128.6800  126.5280   67.0870 C   0  0  0  0  0  0  0  0  0  0  0  0
  129.5230  125.5290   67.7480 C   0  0  0  0  0  0  0  0  0  0  0  0
  130.1910  124.7400   68.2700 N   0  0  0  0  0  0  0  0  0  0  0  0
  1  2  1  0
  2  3  2  0
  3  4  1  0
  4  5  1  0
  5  6  2  0
  6  7  1  0
  7  8  2  0
  8  9  1  0
  9 10  2  0
  4 11  2  0
 11 12  1  0
 12 13  1  0
 13 14  1  0
 14 15  1  0
 15 16  2  0
 15 17  1  0
 17 18  1  0
 18 19  2  0
 19 20  1  0
 20 21  2  0
 21 22  1  0
 22 23  2  0
 12 24  2  0
 24 25  1  0
 25 26  3  0
 24  2  1  0
 10  5  1  0
 23 18  1  0
M  END
>  <Binding energies>  (20) 
[-7.01]

>  <Ligand effiencies>  (20) 
[-0.2596296296296296]

>  <Interactions>  (20) 
["V-B:GLU:543:CG:9875, H-B:GLU:543:O:9871, V-A:HIS:456:CE1:4064, H-B:LYS:547:NZ:9919, V-B:GLU:543:CB:9874, V-B:HIS:456:CE1:9037, V-B:GLU:543:C:9870, V-B:GLU:543:CA:9872, V-B:GLU:543:CD:9876, H-A:HIS:456:NE2:4065, V-B:ARG:545:CG:9890, V-A:TYR:484:CG:4337, V-A:TYR:484:CD1:4338, V-A:HIS:456:CG:4061, V-A:ASP:473:CB:4234, V-B:ARG:545:CD:9891, V-B:ARG:545:CZ:9894, V-A:TYR:484:CB:4336, V-A:TYR:484:CD2:4339, V-B:GLY:454:CA:9016"]

$$$$
3bg_Grossjean_2025
     RDKit          3D

 27 29  0  0  0  0  0  0  0  0999 V2000
  130.6190  118.8090   61.5650 C   0  0  0  0  0  0  0  0  0  0  0  0
  130.5670  120.1500   60.8350 C   0  0  0  0  0  0  0  0  0  0  0  0
  129.3370  120.8100   60.7510 C   0  0  0  0  0  0  0  0  0  0  0  0
  129.2460  122.0460   60.0970 C   0  0  0  0  0  0  0  0  0  0  0  0
  127.9580  122.8130   59.9810 C   0  0  0  0  0  0  0  0  0  0  0  0
  127.2410  123.2010   61.1250 C   0  0  0  0  0  0  0  0  0  0  0  0
  126.0570  123.9260   61.0230 C   0  0  0  0  0  0  0  0  0  0  0  0
  125.5670  124.2750   59.7690 C   0  0  0  0  0  0  0  0  0  0  0  0
  126.2490  123.8940   58.6190 C   0  0  0  0  0  0  0  0  0  0  0  0
  127.4310  123.1670   58.7260 C   0  0  0  0  0  0  0  0  0  0  0  0
  130.3520  122.6230   59.5540 N   0  0  0  0  0  0  0  0  0  0  0  0
  131.5540  121.9970   59.6290 C   0  0  0  0  0  0  0  0  0  0  0  0
  132.9310  122.8760   58.9080 S   0  0  0  0  0  0  0  0  0  0  0  0
  133.7120  123.8830   60.2120 C   0  0  0  0  0  0  0  0  0  0  0  0
  133.1970  123.5100   61.6050 C   0  0  0  0  0  0  0  0  0  0  0  0
  133.9840  123.1080   62.4620 O   0  0  0  0  0  0  0  0  0  0  0  0
  131.8730  123.6270   61.8040 N   0  0  0  0  0  0  0  0  0  0  0  0
  131.1470  123.1580   62.9850 C   0  0  0  0  0  0  0  0  0  0  0  0
  131.2910  124.1210   64.1580 C   0  0  0  0  0  0  0  0  0  0  0  0
  132.4570  124.8810   64.3010 C   0  0  0  0  0  0  0  0  0  0  0  0
  132.5930  125.7530   65.3760 C   0  0  0  0  0  0  0  0  0  0  0  0
  131.5580  125.8730   66.3020 C   0  0  0  0  0  0  0  0  0  0  0  0
  130.3850  125.1360   66.1550 C   0  0  0  0  0  0  0  0  0  0  0  0
  130.2500  124.2620   65.0780 C   0  0  0  0  0  0  0  0  0  0  0  0
  131.7090  120.7440   60.2580 C   0  0  0  0  0  0  0  0  0  0  0  0
  133.0130  120.0800   60.3360 C   0  0  0  0  0  0  0  0  0  0  0  0
  134.0420  119.5550   60.3990 N   0  0  0  0  0  0  0  0  0  0  0  0
  1  2  1  0
  2  3  2  0
  3  4  1  0
  4  5  1  0
  5  6  2  0
  6  7  1  0
  7  8  2  0
  8  9  1  0
  9 10  2  0
  4 11  2  0
 11 12  1  0
 12 13  1  0
 13 14  1  0
 14 15  1  0
 15 16  2  0
 15 17  1  0
 17 18  1  0
 18 19  1  0
 19 20  2  0
 20 21  1  0
 21 22  2  0
 22 23  1  0
 23 24  2  0
 12 25  2  0
 25 26  1  0
 26 27  3  0
 25  2  1  0
 10  5  1  0
 24 19  1  0
M  END
>  <Binding energies>  (21) 
[-7.11]

>  <Ligand effiencies>  (21) 
[-0.25392857142857145]

>  <Interactions>  (21) 
["V-B:PRO:540:C:9849, V-B:GLU:543:CG:9875, V-A:HIS:456:CE1:4064, V-A:TRP:381:CZ2:3365, V-B:ALA:541:CB:9860, V-A:TRP:381:CH2:3367, V-B:TYR:539:C:9835, V-B:TYR:539:CD2:9842, V-A:LEU:475:CD2:4254, V-A:PRO:482:CB:4321, V-B:TYR:539:CE2:9844, V-A:ILE:369:CD1:3234, V-A:ASP:366:CA:3205, V-A:ASP:366:CG:3208, V-A:ASP:366:CB:3207, V-B:GLU:543:CD:9876, V-A:ILE:369:CG2:3232, H-A:GLY:454:N:4045, V-A:ARG:545:CZ:4921, V-B:PRO:540:CB:9853, V-B:PRO:540:CA:9851, V-A:LEU:475:CD1:4253, V-B:PRO:540:N:9852, V-A:LEU:475:CG:4252"]

$$$$
3ca_Grossjean_2025
     RDKit          3D

 31 33  0  0  0  0  0  0  0  0999 V2000
  125.6110  129.8590   75.1910 C   0  0  0  0  0  0  0  0  0  0  0  0
  126.8510  130.2030   74.3610 C   0  0  0  0  0  0  0  0  0  0  0  0
  127.2080  129.0840   73.5580 O   0  0  0  0  0  0  0  0  0  0  0  0
  128.4850  128.9050   73.1340 C   0  0  0  0  0  0  0  0  0  0  0  0
  129.4730  129.0860   73.8530 O   0  0  0  0  0  0  0  0  0  0  0  0
  128.5780  128.4560   71.7040 C   0  0  0  0  0  0  0  0  0  0  0  0
  127.4900  127.7910   71.1230 C   0  0  0  0  0  0  0  0  0  0  0  0
  127.5460  127.3630   69.7990 C   0  0  0  0  0  0  0  0  0  0  0  0
  128.6910  127.5840   69.0320 C   0  0  0  0  0  0  0  0  0  0  0  0
  128.6420  127.1120   67.7070 N   0  0  0  0  0  0  0  0  0  0  0  0
  129.4990  126.3030   67.0470 C   0  0  0  0  0  0  0  0  0  0  0  0
  130.5150  125.7990   67.5270 O   0  0  0  0  0  0  0  0  0  0  0  0
  129.1250  125.9990   65.5930 C   0  0  0  0  0  0  0  0  0  0  0  0
  130.1760  126.8690   64.3840 S   0  0  0  0  0  0  0  0  0  0  0  0
  131.5670  125.8390   63.9360 C   0  0  0  0  0  0  0  0  0  0  0  0
  132.5790  125.7920   64.8400 N   0  0  0  0  0  0  0  0  0  0  0  0
  133.6530  125.0170   64.5770 C   0  0  0  0  0  0  0  0  0  0  0  0
  134.7320  125.0030   65.6420 C   0  0  0  0  0  0  0  0  0  0  0  0
  133.7720  124.2740   63.4050 C   0  0  0  0  0  0  0  0  0  0  0  0
  132.7500  124.3190   62.4490 C   0  0  0  0  0  0  0  0  0  0  0  0
  132.9280  123.5160   61.2010 C   0  0  0  0  0  0  0  0  0  0  0  0
  133.1580  124.1590   59.9790 C   0  0  0  0  0  0  0  0  0  0  0  0
  133.3150  123.4190   58.8090 C   0  0  0  0  0  0  0  0  0  0  0  0
  133.2380  122.0300   58.8580 C   0  0  0  0  0  0  0  0  0  0  0  0
  133.0030  121.3750   60.0650 C   0  0  0  0  0  0  0  0  0  0  0  0
  132.8460  122.1190   61.2320 C   0  0  0  0  0  0  0  0  0  0  0  0
  131.6080  125.1160   62.7200 C   0  0  0  0  0  0  0  0  0  0  0  0
  130.4840  125.1630   61.7800 C   0  0  0  0  0  0  0  0  0  0  0  0
  129.5970  125.1990   61.0370 N   0  0  0  0  0  0  0  0  0  0  0  0
  129.7830  128.2570   69.6040 C   0  0  0  0  0  0  0  0  0  0  0  0
  129.7230  128.6860   70.9270 C   0  0  0  0  0  0  0  0  0  0  0  0
  1  2  1  0
  2  3  1  0
  3  4  1  0
  4  5  2  0
  4  6  1  0
  6  7  2  0
  7  8  1  0
  8  9  2  0
  9 10  1  0
 10 11  1  0
 11 12  2  0
 11 13  1  0
 13 14  1  0
 14 15  1  0
 15 16  2  0
 16 17  1  0
 17 18  1  0
 17 19  2  0
 19 20  1  0
 20 21  1  0
 21 22  2  0
 22 23  1  0
 23 24  2  0
 24 25  1  0
 25 26  2  0
 20 27  2  0
 27 28  1  0
 28 29  3  0
  9 30  1  0
 30 31  2  0
 31  6  1  0
 27 15  1  0
 26 21  1  0
M  END
>  <Binding energies>  (22) 
[-7.63]

>  <Ligand effiencies>  (22) 
[-0.2384375]

>  <Interactions>  (22) 
["V-B:GLU:543:CG:9875, V-A:HIS:456:CE1:4064, H-B:LYS:547:NZ:9919, V-B:GLU:543:CB:9874, V-A:LEU:475:CD2:4254, V-B:TYR:539:CE2:9844, V-A:ILE:369:CD1:3234, V-A:ILE:369:CB:3231, V-A:ASP:366:CG:3208, V-B:HIS:456:CE1:9037, V-A:ASP:366:CB:3207, V-B:GLU:543:CD:9876, V-A:ILE:369:CG2:3232, H-A:TYR:484:OH:4343, H-A:ARG:545:NE:4919, H-A:ARG:545:NH2:4923, V-A:GLY:454:CA:4044, V-A:ARG:545:CZ:4921, H-A:HIS:456:NE2:4065, V-B:HIS:456:CD2:9035, V-B:HIS:456:CG:9033, H-A:LYS:547:NZ:4946, V-B:HIS:456:CB:9032, V-A:ARG:545:CD:4918, V-A:GLY:453:CA:4039, V-A:GLY:453:C:4037"]

$$$$
3ce_Grossjean_2025
     RDKit          3D

 27 29  0  0  0  0  0  0  0  0999 V2000
  127.7520  127.2560   69.2160 C   0  0  0  0  0  0  0  0  0  0  0  0
  128.1100  127.5180   67.7660 C   0  0  0  0  0  0  0  0  0  0  0  0
  127.8340  128.7430   67.1530 C   0  0  0  0  0  0  0  0  0  0  0  0
  128.2000  128.9160   65.8190 C   0  0  0  0  0  0  0  0  0  0  0  0
  128.8270  127.8720   65.1350 C   0  0  0  0  0  0  0  0  0  0  0  0
  129.0650  126.6670   65.8050 C   0  0  0  0  0  0  0  0  0  0  0  0
  129.7160  125.6590   65.0730 N   0  0  0  0  0  0  0  0  0  0  0  0
  130.8610  125.0100   65.3800 C   0  0  0  0  0  0  0  0  0  0  0  0
  131.5340  125.2050   66.3940 O   0  0  0  0  0  0  0  0  0  0  0  0
  131.3160  123.9550   64.3720 C   0  0  0  0  0  0  0  0  0  0  0  0
  129.9440  122.8900   63.8380 S   0  0  0  0  0  0  0  0  0  0  0  0
  130.4510  122.1910   62.2840 C   0  0  0  0  0  0  0  0  0  0  0  0
  130.2380  120.8560   62.1840 N   0  0  0  0  0  0  0  0  0  0  0  0
  130.5750  120.2320   61.0320 C   0  0  0  0  0  0  0  0  0  0  0  0
  130.2970  118.7420   60.9830 C   0  0  0  0  0  0  0  0  0  0  0  0
  131.1430  120.9040   59.9540 C   0  0  0  0  0  0  0  0  0  0  0  0
  131.3960  122.2790   60.0470 C   0  0  0  0  0  0  0  0  0  0  0  0
  132.0300  122.9510   58.8740 C   0  0  0  0  0  0  0  0  0  0  0  0
  133.3860  122.7450   58.5940 C   0  0  0  0  0  0  0  0  0  0  0  0
  133.9860  123.3730   57.5060 C   0  0  0  0  0  0  0  0  0  0  0  0
  133.2330  124.2170   56.6950 C   0  0  0  0  0  0  0  0  0  0  0  0
  131.8850  124.4410   56.9660 C   0  0  0  0  0  0  0  0  0  0  0  0
  131.2880  123.8110   58.0540 C   0  0  0  0  0  0  0  0  0  0  0  0
  131.0370  122.9500   61.2440 C   0  0  0  0  0  0  0  0  0  0  0  0
  131.2630  124.3910   61.3940 C   0  0  0  0  0  0  0  0  0  0  0  0
  131.4420  125.5280   61.5110 N   0  0  0  0  0  0  0  0  0  0  0  0
  128.7160  126.4930   67.1130 N   0  0  0  0  0  0  0  0  0  0  0  0
  1  2  1  0
  2  3  2  0
  3  4  1  0
  4  5  2  0
  5  6  1  0
  6  7  1  0
  7  8  1  0
  8  9  2  0
  8 10  1  0
 10 11  1  0
 11 12  1  0
 12 13  2  0
 13 14  1  0
 14 15  1  0
 14 16  2  0
 16 17  1  0
 17 18  1  0
 18 19  2  0
 19 20  1  0
 20 21  2  0
 21 22  1  0
 22 23  2  0
 17 24  2  0
 24 25  1  0
 25 26  3  0
  6 27  2  0
 27  2  1  0
 24 12  1  0
 23 18  1  0
M  END
>  <Binding energies>  (23) 
[-7.78]

>  <Ligand effiencies>  (23) 
[-0.27785714285714286]

>  <Interactions>  (23) 
["V-B:GLU:543:CG:9875, V-A:TRP:381:CZ2:3365, V-B:ALA:541:CB:9860, V-B:GLU:543:CB:9874, V-A:TRP:381:CH2:3367, V-B:TYR:539:CD2:9842, V-A:LEU:475:CD2:4254, V-A:PRO:482:CB:4321, V-B:TYR:539:CE2:9844, V-A:ILE:369:CD1:3234, V-B:TYR:539:CZ:9845, V-A:ASP:366:CA:3205, V-A:ILE:369:CB:3231, V-A:ASN:370:CB:3240, V-B:HIS:456:CE1:9037, V-A:ASP:366:CB:3207, V-A:ASP:366:C:3203, V-A:TYR:484:CZ:4342, V-A:GLU:543:CG:4902, V-A:GLU:543:CD:4903, V-B:GLU:543:CD:9876, V-A:ILE:369:CG2:3232, H-A:TYR:484:OH:4343, H-A:HIS:456:NE2:4065, V-A:TYR:531:CZ:4789, H-B:GLU:543:OE2:9878, V-A:TYR:531:CE1:4787"]

$$$$
3cj_Grossjean_2025
     RDKit          3D

 25 27  0  0  0  0  0  0  0  0999 V2000
  127.8450  129.5340   64.6380 C   0  0  0  0  0  0  0  0  0  0  0  0
  128.3830  128.3510   65.4190 C   0  0  0  0  0  0  0  0  0  0  0  0
  129.4280  127.5690   64.9300 C   0  0  0  0  0  0  0  0  0  0  0  0
  129.9090  126.4990   65.6960 C   0  0  0  0  0  0  0  0  0  0  0  0
  131.0710  125.7300   65.1620 C   0  0  0  0  0  0  0  0  0  0  0  0
  132.3170  125.7910   65.7990 C   0  0  0  0  0  0  0  0  0  0  0  0
  133.4040  125.0840   65.2920 C   0  0  0  0  0  0  0  0  0  0  0  0
  133.2500  124.3160   64.1420 C   0  0  0  0  0  0  0  0  0  0  0  0
  132.0200  124.2530   63.4920 C   0  0  0  0  0  0  0  0  0  0  0  0
  130.9340  124.9610   64.0010 C   0  0  0  0  0  0  0  0  0  0  0  0
  129.2870  126.2260   66.9390 C   0  0  0  0  0  0  0  0  0  0  0  0
  129.7260  125.1020   67.7730 C   0  0  0  0  0  0  0  0  0  0  0  0
  130.0740  124.2160   68.4310 N   0  0  0  0  0  0  0  0  0  0  0  0
  128.2370  127.0730   67.3590 C   0  0  0  0  0  0  0  0  0  0  0  0
  127.4610  126.9240   68.9540 S   0  0  0  0  0  0  0  0  0  0  0  0
  128.5560  127.8310   70.0920 C   0  0  0  0  0  0  0  0  0  0  0  0
  128.9940  126.9620   71.2760 C   0  0  0  0  0  0  0  0  0  0  0  0
  129.0690  127.4610   72.4010 O   0  0  0  0  0  0  0  0  0  0  0  0
  129.2350  125.6650   70.9840 N   0  0  0  0  0  0  0  0  0  0  0  0
  129.5110  124.6520   71.8870 C   0  0  0  0  0  0  0  0  0  0  0  0
  129.1410  124.5680   73.1470 N   0  0  0  0  0  0  0  0  0  0  0  0
  129.5560  123.4460   73.6990 C   0  0  0  0  0  0  0  0  0  0  0  0
  130.2840  122.5880   72.8800 C   0  0  0  0  0  0  0  0  0  0  0  0
  130.4280  123.3010   71.3000 S   0  0  0  0  0  0  0  0  0  0  0  0
  127.8000  128.1220   66.6170 N   0  0  0  0  0  0  0  0  0  0  0  0
  1  2  1  0
  2  3  2  0
  3  4  1  0
  4  5  1  0
  5  6  2  0
  6  7  1  0
  7  8  2  0
  8  9  1  0
  9 10  2  0
  4 11  2  0
 11 12  1  0
 12 13  3  0
 11 14  1  0
 14 15  1  0
 15 16  1  0
 16 17  1  0
 17 18  2  0
 17 19  1  0
 19 20  1  0
 20 21  2  0
 21 22  1  0
 22 23  2  0
 23 24  1  0
 14 25  2  0
 25  2  1  0
 10  5  1  0
 24 20  1  0
M  END
>  <Binding energies>  (24) 
[-7.03]

>  <Ligand effiencies>  (24) 
[-0.2703846153846154]

>  <Interactions>  (24) 
["V-B:GLU:543:CG:9875, H-B:GLU:543:O:9871, V-A:HIS:456:CE1:4064, H-B:LYS:547:NZ:9919, V-B:GLU:543:CB:9874, V-B:HIS:456:CE1:9037, V-B:GLU:543:C:9870, V-B:GLU:543:CA:9872, V-A:GLU:543:CD:4903, V-A:ARG:545:CZ:4921, H-A:HIS:456:NE2:4065, V-A:HIS:456:CG:4061, V-A:HIS:456:CD2:4063, V-B:LYS:547:CE:9918"]

$$$$
4ba_Grossjean_2025
     RDKit          3D

 28 30  0  0  0  0  0  0  0  0999 V2000
  130.1560  128.7440   70.5060 C   0  0  0  0  0  0  0  0  0  0  0  0
  128.8930  128.1960   71.1950 C   0  0  0  0  0  0  0  0  0  0  0  0
  127.9640  127.3610   70.2900 C   0  0  0  0  0  0  0  0  0  0  0  0
  126.8200  127.1000   70.6700 O   0  0  0  0  0  0  0  0  0  0  0  0
  128.5060  126.9030   68.9670 C   0  0  0  0  0  0  0  0  0  0  0  0
  129.4260  125.8480   68.9290 C   0  0  0  0  0  0  0  0  0  0  0  0
  129.9450  125.4040   67.7160 C   0  0  0  0  0  0  0  0  0  0  0  0
  129.5540  126.0020   66.5180 C   0  0  0  0  0  0  0  0  0  0  0  0
  130.1470  125.4810   65.3520 N   0  0  0  0  0  0  0  0  0  0  0  0
  131.4040  125.0160   65.1460 C   0  0  0  0  0  0  0  0  0  0  0  0
  132.2910  125.0190   66.0010 O   0  0  0  0  0  0  0  0  0  0  0  0
  131.6710  124.5140   63.7970 C   0  0  0  0  0  0  0  0  0  0  0  0
  133.2360  124.8010   63.0380 S   0  0  0  0  0  0  0  0  0  0  0  0
  132.7260  123.9960   61.5730 C   0  0  0  0  0  0  0  0  0  0  0  0
  133.5410  123.8770   60.5260 N   0  0  0  0  0  0  0  0  0  0  0  0
  133.0340  123.2350   59.4490 C   0  0  0  0  0  0  0  0  0  0  0  0
  133.9760  123.1190   58.2640 C   0  0  0  0  0  0  0  0  0  0  0  0
  131.7460  122.7080   59.3960 C   0  0  0  0  0  0  0  0  0  0  0  0
  130.8830  122.8290   60.4970 C   0  0  0  0  0  0  0  0  0  0  0  0
  129.4760  122.2310   60.3930 C   0  0  0  0  0  0  0  0  0  0  0  0
  129.1040  121.9860   59.1350 F   0  0  0  0  0  0  0  0  0  0  0  0
  129.4240  121.0760   61.0570 F   0  0  0  0  0  0  0  0  0  0  0  0
  128.5870  123.0780   60.9140 F   0  0  0  0  0  0  0  0  0  0  0  0
  131.3850  123.5080   61.6480 C   0  0  0  0  0  0  0  0  0  0  0  0
  130.8050  123.8280   62.9290 C   0  0  0  0  0  0  0  0  0  0  0  0
  129.5190  123.4880   63.2650 N   0  0  0  0  0  0  0  0  0  0  0  0
  128.6370  127.0640   66.5480 C   0  0  0  0  0  0  0  0  0  0  0  0
  128.1190  127.5070   67.7620 C   0  0  0  0  0  0  0  0  0  0  0  0
  1  2  1  0
  2  3  1  0
  3  4  2  0
  3  5  1  0
  5  6  2  0
  6  7  1  0
  7  8  2  0
  8  9  1  0
  9 10  1  0
 10 11  2  0
 10 12  1  0
 12 13  1  0
 13 14  1  0
 14 15  2  0
 15 16  1  0
 16 17  1  0
 16 18  2  0
 18 19  1  0
 19 20  1  0
 20 21  1  0
 20 22  1  0
 20 23  1  0
 19 24  2  0
 24 25  1  0
 25 26  1  0
  8 27  1  0
 27 28  2  0
 28  5  1  0
 25 12  2  0
 24 14  1  0
M  END
>  <Binding energies>  (25) 
[-6.85]

>  <Ligand effiencies>  (25) 
[-0.22096774193548385]

>  <Interactions>  (25) 
["V-B:GLU:543:CG:9875, V-A:HIS:456:CE1:4064, H-B:LYS:547:NZ:9919, V-B:ALA:541:CB:9860, V-B:GLU:543:CB:9874, V-B:TYR:539:C:9835, V-B:TYR:539:CD2:9842, V-B:TYR:539:CE2:9844, V-A:ILE:369:CD1:3234, V-A:ASP:366:CA:3205, V-A:ILE:369:CB:3231, V-A:ASP:366:CG:3208, V-B:HIS:456:CE1:9037, V-A:ASP:366:CB:3207, V-A:ASP:366:C:3203, V-B:GLU:543:C:9870, V-B:GLU:543:CD:9876, V-A:ILE:369:CG2:3232, H-A:TYR:484:OH:4343, V-A:ARG:545:CZ:4921, H-A:HIS:456:NE2:4065, V-A:GLU:543:C:4897, V-B:HIS:456:CD2:9035, H-B:GLU:543:OE2:9878, V-A:ILE:369:CG1:3233, H-B:ARG:545:N:9888"]

$$$$
4bb_Grossjean_2025
     RDKit          3D

 27 29  0  0  0  0  0  0  0  0999 V2000
  128.7350  128.4010   71.0830 C   0  0  0  0  0  0  0  0  0  0  0  0
  127.9350  127.3580   70.2990 C   0  0  0  0  0  0  0  0  0  0  0  0
  126.8850  126.9410   70.7910 O   0  0  0  0  0  0  0  0  0  0  0  0
  128.4770  126.8910   68.9810 C   0  0  0  0  0  0  0  0  0  0  0  0
  129.4130  125.8490   68.9530 C   0  0  0  0  0  0  0  0  0  0  0  0
  129.9330  125.3970   67.7440 C   0  0  0  0  0  0  0  0  0  0  0  0
  129.5210  125.9710   66.5390 C   0  0  0  0  0  0  0  0  0  0  0  0
  130.1120  125.4400   65.3760 N   0  0  0  0  0  0  0  0  0  0  0  0
  131.3760  124.9970   65.1640 C   0  0  0  0  0  0  0  0  0  0  0  0
  132.2680  125.0210   66.0120 O   0  0  0  0  0  0  0  0  0  0  0  0
  131.6440  124.4980   63.8130 C   0  0  0  0  0  0  0  0  0  0  0  0
  133.2040  124.7970   63.0500 S   0  0  0  0  0  0  0  0  0  0  0  0
  132.7000  123.9790   61.5900 C   0  0  0  0  0  0  0  0  0  0  0  0
  133.5160  123.8570   60.5440 N   0  0  0  0  0  0  0  0  0  0  0  0
  133.0120  123.2050   59.4710 C   0  0  0  0  0  0  0  0  0  0  0  0
  133.9590  123.0760   58.2910 C   0  0  0  0  0  0  0  0  0  0  0  0
  131.7250  122.6770   59.4190 C   0  0  0  0  0  0  0  0  0  0  0  0
  130.8610  122.8020   60.5180 C   0  0  0  0  0  0  0  0  0  0  0  0
  129.4540  122.2050   60.4140 C   0  0  0  0  0  0  0  0  0  0  0  0
  128.5120  122.9950   60.9340 F   0  0  0  0  0  0  0  0  0  0  0  0
  129.1440  122.0020   59.1330 F   0  0  0  0  0  0  0  0  0  0  0  0
  129.4060  121.0440   61.0670 F   0  0  0  0  0  0  0  0  0  0  0  0
  131.3610  123.4860   61.6670 C   0  0  0  0  0  0  0  0  0  0  0  0
  130.7820  123.8020   62.9490 C   0  0  0  0  0  0  0  0  0  0  0  0
  129.5030  123.4460   63.2920 N   0  0  0  0  0  0  0  0  0  0  0  0
  128.5890  127.0200   66.5600 C   0  0  0  0  0  0  0  0  0  0  0  0
  128.0730  127.4720   67.7720 C   0  0  0  0  0  0  0  0  0  0  0  0
  1  2  1  0
  2  3  2  0
  2  4  1  0
  4  5  2  0
  5  6  1  0
  6  7  2  0
  7  8  1  0
  8  9  1  0
  9 10  2  0
  9 11  1  0
 11 12  1  0
 12 13  1  0
 13 14  2  0
 14 15  1  0
 15 16  1  0
 15 17  2  0
 17 18  1  0
 18 19  1  0
 19 20  1  0
 19 21  1  0
 19 22  1  0
 18 23  2  0
 23 24  1  0
 24 25  1  0
  7 26  1  0
 26 27  2  0
 27  4  1  0
 24 11  2  0
 23 13  1  0
M  END
>  <Binding energies>  (26) 
[-6.71]

>  <Ligand effiencies>  (26) 
[-0.22366666666666665]

>  <Interactions>  (26) 
["V-B:PRO:540:C:9849, V-B:GLU:543:CG:9875, V-A:HIS:456:CE1:4064, H-B:LYS:547:NZ:9919, V-B:ALA:541:CB:9860, V-B:GLU:543:CB:9874, V-B:TYR:539:C:9835, V-B:TYR:539:CD2:9842, V-B:TYR:539:CE2:9844, V-A:ILE:369:CD1:3234, V-A:ASP:366:CA:3205, V-A:ILE:369:CB:3231, V-A:ASP:366:CG:3208, V-B:HIS:456:CE1:9037, V-A:ASP:366:CB:3207, V-B:GLU:543:C:9870, V-B:GLU:543:CD:9876, V-A:ILE:369:CG2:3232, H-A:TYR:484:OH:4343, V-A:ARG:545:CZ:4921, H-A:HIS:456:NE2:4065, V-B:HIS:456:CD2:9035, H-B:GLU:543:OE2:9878, V-A:ILE:369:CG1:3233, H-B:ARG:545:N:9888"]

$$$$
4bd_Grossjean_2025
     RDKit          3D

 24 26  0  0  0  0  0  0  0  0999 V2000
  135.2510  125.2640   66.3820 C   0  0  0  0  0  0  0  0  0  0  0  0
  134.0190  125.0950   65.5100 C   0  0  0  0  0  0  0  0  0  0  0  0
  132.7490  125.3870   65.9980 C   0  0  0  0  0  0  0  0  0  0  0  0
  131.6180  125.2250   65.1820 C   0  0  0  0  0  0  0  0  0  0  0  0
  130.2400  125.5560   65.7640 C   0  0  0  0  0  0  0  0  0  0  0  0
  129.5370  126.3920   64.9970 F   0  0  0  0  0  0  0  0  0  0  0  0
  129.5250  124.4390   65.8970 F   0  0  0  0  0  0  0  0  0  0  0  0
  130.3810  126.1340   66.9570 F   0  0  0  0  0  0  0  0  0  0  0  0
  131.8350  124.7550   63.8530 C   0  0  0  0  0  0  0  0  0  0  0  0
  130.9450  124.4740   62.7530 C   0  0  0  0  0  0  0  0  0  0  0  0
  129.5880  124.6460   62.8380 N   0  0  0  0  0  0  0  0  0  0  0  0
  131.5920  124.0110   61.5950 C   0  0  0  0  0  0  0  0  0  0  0  0
  130.9990  123.6180   60.3130 C   0  0  0  0  0  0  0  0  0  0  0  0
  131.7130  123.3600   59.3430 O   0  0  0  0  0  0  0  0  0  0  0  0
  129.6440  123.5540   60.2950 N   0  0  0  0  0  0  0  0  0  0  0  0
  128.7770  123.2540   59.2280 C   0  0  0  0  0  0  0  0  0  0  0  0
  127.4250  123.5370   59.4400 C   0  0  0  0  0  0  0  0  0  0  0  0
  126.4890  123.2850   58.4400 C   0  0  0  0  0  0  0  0  0  0  0  0
  126.9060  122.7570   57.2220 C   0  0  0  0  0  0  0  0  0  0  0  0
  128.2520  122.4830   56.9930 C   0  0  0  0  0  0  0  0  0  0  0  0
  129.1910  122.7330   57.9900 C   0  0  0  0  0  0  0  0  0  0  0  0
  133.3350  123.9150   61.8330 S   0  0  0  0  0  0  0  0  0  0  0  0
  133.1890  124.4910   63.4770 C   0  0  0  0  0  0  0  0  0  0  0  0
  134.2580  124.6480   64.2550 N   0  0  0  0  0  0  0  0  0  0  0  0
  1  2  1  0
  2  3  2  0
  3  4  1  0
  4  5  1  0
  5  6  1  0
  5  7  1  0
  5  8  1  0
  4  9  2  0
  9 10  1  0
 10 11  1  0
 10 12  2  0
 12 13  1  0
 13 14  2  0
 13 15  1  0
 15 16  1  0
 16 17  2  0
 17 18  1  0
 18 19  2  0
 19 20  1  0
 20 21  2  0
 12 22  1  0
 22 23  1  0
 23 24  2  0
 24  2  1  0
 23  9  1  0
 21 16  1  0
M  END
>  <Binding energies>  (27) 
[-6.25]

>  <Ligand effiencies>  (27) 
[-0.23148148148148148]

>  <Interactions>  (27) 
["V-B:GLU:543:CG:9875, V-A:HIS:456:CE1:4064, V-B:GLU:543:CB:9874, V-B:TYR:539:C:9835, V-B:TYR:539:CD2:9842, V-B:TYR:539:CE2:9844, V-A:ILE:369:CD1:3234, V-B:TYR:539:CZ:9845, V-A:ASP:366:CG:3208, V-A:TYR:484:CE1:4340, V-B:GLU:543:CA:9872, V-B:GLU:543:CD:9876, H-A:TYR:484:OH:4343, H-A:GLY:454:N:4045, V-A:ARG:545:CZ:4921, V-B:PRO:540:CB:9853, V-B:PRO:540:CA:9851, V-B:TYR:539:CE1:9843, H-B:GLU:543:OE2:9878, V-A:ARG:545:CD:4918, V-A:GLY:453:CA:4039, V-A:ARG:545:CG:4917, V-A:HIS:456:CD2:4063, V-A:GLY:453:C:4037, V-B:PRO:540:N:9852, V-B:MET:535:CE:9803, V-B:TYR:539:CG:9840, V-B:TYR:539:CD1:9841"]

$$$$
4be_Grossjean_2025
     RDKit          3D

 25 27  0  0  0  0  0  0  0  0999 V2000
  127.5240  122.5060   56.9350 C   0  0  0  0  0  0  0  0  0  0  0  0
  127.1900  123.1560   58.2640 C   0  0  0  0  0  0  0  0  0  0  0  0
  125.8800  123.5050   58.5990 C   0  0  0  0  0  0  0  0  0  0  0  0
  125.6470  124.1020   59.8380 C   0  0  0  0  0  0  0  0  0  0  0  0
  126.7180  124.3340   60.7040 C   0  0  0  0  0  0  0  0  0  0  0  0
  128.0060  123.9540   60.3090 C   0  0  0  0  0  0  0  0  0  0  0  0
  129.0410  124.2220   61.2220 N   0  0  0  0  0  0  0  0  0  0  0  0
  130.3750  124.3180   60.9940 C   0  0  0  0  0  0  0  0  0  0  0  0
  130.8930  124.1810   59.8840 O   0  0  0  0  0  0  0  0  0  0  0  0
  131.1990  124.5800   62.1780 C   0  0  0  0  0  0  0  0  0  0  0  0
  132.9030  124.1290   62.1880 S   0  0  0  0  0  0  0  0  0  0  0  0
  133.0930  124.7070   63.8270 C   0  0  0  0  0  0  0  0  0  0  0  0
  134.2650  124.6390   64.4550 N   0  0  0  0  0  0  0  0  0  0  0  0
  134.2890  125.1190   65.7200 C   0  0  0  0  0  0  0  0  0  0  0  0
  135.6320  125.0310   66.4210 C   0  0  0  0  0  0  0  0  0  0  0  0
  133.1790  125.6620   66.3630 C   0  0  0  0  0  0  0  0  0  0  0  0
  131.9420  125.7370   65.7050 C   0  0  0  0  0  0  0  0  0  0  0  0
  130.7500  126.3460   66.4520 C   0  0  0  0  0  0  0  0  0  0  0  0
  130.0170  127.1610   65.6890 F   0  0  0  0  0  0  0  0  0  0  0  0
  129.9450  125.3760   66.8850 F   0  0  0  0  0  0  0  0  0  0  0  0
  131.1850  127.0550   67.4930 F   0  0  0  0  0  0  0  0  0  0  0  0
  131.8810  125.2350   64.3710 C   0  0  0  0  0  0  0  0  0  0  0  0
  130.8130  125.1380   63.4060 C   0  0  0  0  0  0  0  0  0  0  0  0
  129.5360  125.5630   63.6700 N   0  0  0  0  0  0  0  0  0  0  0  0
  128.2420  123.3740   59.0950 N   0  0  0  0  0  0  0  0  0  0  0  0
  1  2  1  0
  2  3  2  0
  3  4  1  0
  4  5  2  0
  5  6  1  0
  6  7  1  0
  7  8  1  0
  8  9  2  0
  8 10  1  0
 10 11  1  0
 11 12  1  0
 12 13  2  0
 13 14  1  0
 14 15  1  0
 14 16  2  0
 16 17  1  0
 17 18  1  0
 18 19  1  0
 18 20  1  0
 18 21  1  0
 17 22  2  0
 22 23  1  0
 23 24  1  0
  6 25  2  0
 25  2  1  0
 23 10  2  0
 22 12  1  0
M  END
>  <Binding energies>  (28) 
[-6.47]

>  <Ligand effiencies>  (28) 
[-0.23107142857142857]

>  <Interactions>  (28) 
["V-B:GLU:543:CG:9875, V-A:HIS:456:CE1:4064, V-B:GLU:543:CB:9874, V-B:TYR:539:C:9835, V-A:ASP:366:CG:3208, V-A:GLU:543:CD:4903, V-B:GLU:543:CD:9876, H-A:TYR:484:OH:4343, H-A:GLY:454:N:4045, V-A:GLY:454:CA:4044, V-A:ARG:545:CZ:4921, V-B:PRO:540:CB:9853, V-B:PRO:540:CA:9851, H-B:GLU:543:OE2:9878, V-A:ARG:545:CD:4918, V-A:GLY:453:CA:4039, V-A:ARG:545:CG:4917, V-A:HIS:456:CD2:4063, V-A:GLY:453:C:4037, V-B:PRO:540:N:9852, V-B:MET:535:CE:9803, V-A:ILE:455:C:4047"]

$$$$
4bg_Grossjean_2025
     RDKit          3D

 25 27  0  0  0  0  0  0  0  0999 V2000
  135.3990  125.2680   66.3280 C   0  0  0  0  0  0  0  0  0  0  0  0
  134.1490  125.0920   65.4840 C   0  0  0  0  0  0  0  0  0  0  0  0
  132.8890  125.3860   65.9990 C   0  0  0  0  0  0  0  0  0  0  0  0
  131.7400  125.2140   65.2100 C   0  0  0  0  0  0  0  0  0  0  0  0
  130.3760  125.5500   65.8190 C   0  0  0  0  0  0  0  0  0  0  0  0
  129.6040  124.4750   65.9970 F   0  0  0  0  0  0  0  0  0  0  0  0
  130.5430  126.1220   67.0110 F   0  0  0  0  0  0  0  0  0  0  0  0
  129.7160  126.3860   65.0180 F   0  0  0  0  0  0  0  0  0  0  0  0
  131.9300  124.7330   63.8800 C   0  0  0  0  0  0  0  0  0  0  0  0
  131.0160  124.4330   62.8050 C   0  0  0  0  0  0  0  0  0  0  0  0
  129.6560  124.5740   62.9250 N   0  0  0  0  0  0  0  0  0  0  0  0
  131.6410  123.9930   61.6280 C   0  0  0  0  0  0  0  0  0  0  0  0
  131.0250  123.5780   60.3680 C   0  0  0  0  0  0  0  0  0  0  0  0
  131.5630  123.8050   59.2840 O   0  0  0  0  0  0  0  0  0  0  0  0
  129.8610  122.9030   60.4750 N   0  0  0  0  0  0  0  0  0  0  0  0
  129.0630  122.4060   59.3540 C   0  0  0  0  0  0  0  0  0  0  0  0
  127.6540  122.9830   59.3060 C   0  0  0  0  0  0  0  0  0  0  0  0
  126.9610  123.0420   58.0930 C   0  0  0  0  0  0  0  0  0  0  0  0
  125.6590  123.5340   58.0590 C   0  0  0  0  0  0  0  0  0  0  0  0
  125.0480  123.9520   59.2390 C   0  0  0  0  0  0  0  0  0  0  0  0
  125.7250  123.8810   60.4530 C   0  0  0  0  0  0  0  0  0  0  0  0
  127.0280  123.3900   60.4880 C   0  0  0  0  0  0  0  0  0  0  0  0
  133.3890  123.9000   61.8270 S   0  0  0  0  0  0  0  0  0  0  0  0
  133.2760  124.4760   63.4730 C   0  0  0  0  0  0  0  0  0  0  0  0
  134.3620  124.6390   64.2280 N   0  0  0  0  0  0  0  0  0  0  0  0
  1  2  1  0
  2  3  2  0
  3  4  1  0
  4  5  1  0
  5  6  1  0
  5  7  1  0
  5  8  1  0
  4  9  2  0
  9 10  1  0
 10 11  1  0
 10 12  2  0
 12 13  1  0
 13 14  2  0
 13 15  1  0
 15 16  1  0
 16 17  1  0
 17 18  2  0
 18 19  1  0
 19 20  2  0
 20 21  1  0
 21 22  2  0
 12 23  1  0
 23 24  1  0
 24 25  2  0
 25  2  1  0
 24  9  1  0
 22 17  1  0
M  END
>  <Binding energies>  (29) 
[-6.42]

>  <Ligand effiencies>  (29) 
[-0.2292857142857143]

>  <Interactions>  (29) 
["V-B:GLU:543:CG:9875, V-A:HIS:456:CE1:4064, V-B:GLU:543:CB:9874, V-B:TYR:539:C:9835, V-A:ILE:369:CD1:3234, V-A:ASP:366:CG:3208, V-A:TYR:484:CE1:4340, V-B:GLU:543:CA:9872, V-B:GLU:543:CD:9876, H-A:ARG:545:NH1:4922, H-A:TYR:484:OH:4343, H-A:GLY:454:N:4045, V-A:ARG:545:CZ:4921, V-B:PRO:540:CB:9853, V-B:PRO:540:CA:9851, H-B:GLU:543:OE2:9878, V-A:ARG:545:CD:4918, V-A:GLY:453:CA:4039, V-A:ARG:545:CG:4917, V-A:HIS:456:CD2:4063, V-A:GLY:453:C:4037, V-B:PRO:540:N:9852"]

$$$$
4ca_Grossjean_2025
     RDKit          3D

 34 37  0  0  0  0  0  0  0  0999 V2000
  129.8680  124.1840   71.8280 C   0  0  0  0  0  0  0  0  0  0  0  0
  130.2290  125.3720   72.7250 C   0  0  0  0  0  0  0  0  0  0  0  0
  129.1450  126.2920   72.7510 O   0  0  0  0  0  0  0  0  0  0  0  0
  129.3170  127.5890   72.3870 C   0  0  0  0  0  0  0  0  0  0  0  0
  129.4910  128.5050   73.1970 O   0  0  0  0  0  0  0  0  0  0  0  0
  129.2780  127.7970   70.9010 C   0  0  0  0  0  0  0  0  0  0  0  0
  130.3040  128.5270   70.2850 C   0  0  0  0  0  0  0  0  0  0  0  0
  130.2980  128.7330   68.9080 C   0  0  0  0  0  0  0  0  0  0  0  0
  129.2650  128.2230   68.1210 C   0  0  0  0  0  0  0  0  0  0  0  0
  129.3630  128.4830   66.7400 N   0  0  0  0  0  0  0  0  0  0  0  0
  128.3890  128.6970   65.8210 C   0  0  0  0  0  0  0  0  0  0  0  0
  127.1880  128.7450   66.0860 O   0  0  0  0  0  0  0  0  0  0  0  0
  128.8580  128.8940   64.4480 C   0  0  0  0  0  0  0  0  0  0  0  0
  128.7010  130.4700   63.6760 S   0  0  0  0  0  0  0  0  0  0  0  0
  129.4760  129.8860   62.2230 C   0  0  0  0  0  0  0  0  0  0  0  0
  129.6740  130.6810   61.1740 N   0  0  0  0  0  0  0  0  0  0  0  0
  130.2980  130.1420   60.0940 C   0  0  0  0  0  0  0  0  0  0  0  0
  130.5140  131.0670   58.9310 C   0  0  0  0  0  0  0  0  0  0  0  0
  129.5420  132.0150   58.5760 C   0  0  0  0  0  0  0  0  0  0  0  0
  129.7350  132.8710   57.4950 C   0  0  0  0  0  0  0  0  0  0  0  0
  130.9070  132.7910   56.7500 C   0  0  0  0  0  0  0  0  0  0  0  0
  131.8860  131.8590   57.0790 C   0  0  0  0  0  0  0  0  0  0  0  0
  131.6890  131.0040   58.1610 C   0  0  0  0  0  0  0  0  0  0  0  0
  130.7000  128.8020   60.0660 C   0  0  0  0  0  0  0  0  0  0  0  0
  130.4920  127.9550   61.1640 C   0  0  0  0  0  0  0  0  0  0  0  0
  130.9610  126.4980   61.0660 C   0  0  0  0  0  0  0  0  0  0  0  0
  129.9800  125.6180   61.2750 F   0  0  0  0  0  0  0  0  0  0  0  0
  131.4550  126.2640   59.8510 F   0  0  0  0  0  0  0  0  0  0  0  0
  131.9050  126.2660   61.9780 F   0  0  0  0  0  0  0  0  0  0  0  0
  129.8540  128.5140   62.3090 C   0  0  0  0  0  0  0  0  0  0  0  0
  129.4900  127.9730   63.5950 C   0  0  0  0  0  0  0  0  0  0  0  0
  129.7380  126.6710   63.9480 N   0  0  0  0  0  0  0  0  0  0  0  0
  128.2370  127.4870   68.7270 C   0  0  0  0  0  0  0  0  0  0  0  0
  128.2450  127.2800   70.1050 C   0  0  0  0  0  0  0  0  0  0  0  0
  1  2  1  0
  2  3  1  0
  3  4  1  0
  4  5  2  0
  4  6  1  0
  6  7  2  0
  7  8  1  0
  8  9  2  0
  9 10  1  0
 10 11  1  0
 11 12  2  0
 11 13  1  0
 13 14  1  0
 14 15  1  0
 15 16  2  0
 16 17  1  0
 17 18  1  0
 18 19  2  0
 19 20  1  0
 20 21  2  0
 21 22  1  0
 22 23  2  0
 17 24  2  0
 24 25  1  0
 25 26  1  0
 26 27  1  0
 26 28  1  0
 26 29  1  0
 25 30  2  0
 30 31  1  0
 31 32  1  0
  9 33  1  0
 33 34  2  0
 34  6  1  0
 31 13  2  0
 30 15  1  0
 23 18  1  0
M  END
>  <Binding energies>  (30) 
[-7.27]

>  <Ligand effiencies>  (30) 
[-0.19648648648648648]

>  <Interactions>  (30) 
["V-A:HIS:456:CE1:4064, H-B:LYS:547:NZ:9919, V-A:GLU:543:CB:4901, V-A:ASP:366:CG:3208, V-B:HIS:456:CE1:9037, V-A:GLU:543:CG:4902, V-A:GLU:543:CD:4903, V-B:GLU:543:CD:9876, H-A:GLU:543:OE2:4905, H-A:GLU:543:OE1:4904, V-A:GLU:543:C:4897, V-A:PRO:540:CA:4878, V-A:TYR:539:C:4862, V-A:PRO:540:N:4879, V-A:LEU:363:CD1:3184, V-A:TYR:539:CG:4867, V-A:PRO:540:CB:4880, H-A:LYS:547:NZ:4946, H-B:GLU:543:OE2:9878, V-A:TYR:539:CD1:4868, V-A:PRO:540:CD:4882"]

$$$$
4cb_Grossjean_2025
     RDKit          3D

 33 36  0  0  0  0  0  0  0  0999 V2000
  130.8270  127.1640   73.3060 C   0  0  0  0  0  0  0  0  0  0  0  0
  129.8870  128.2160   73.4740 O   0  0  0  0  0  0  0  0  0  0  0  0
  128.8800  128.4030   72.5820 C   0  0  0  0  0  0  0  0  0  0  0  0
  127.7510  128.7870   72.8990 O   0  0  0  0  0  0  0  0  0  0  0  0
  129.2780  128.0950   71.1660 C   0  0  0  0  0  0  0  0  0  0  0  0
  128.6020  127.0840   70.4700 C   0  0  0  0  0  0  0  0  0  0  0  0
  128.9410  126.7810   69.1540 C   0  0  0  0  0  0  0  0  0  0  0  0
  129.9660  127.4750   68.5100 C   0  0  0  0  0  0  0  0  0  0  0  0
  130.2150  127.0970   67.1770 N   0  0  0  0  0  0  0  0  0  0  0  0
  130.5410  125.8880   66.6590 C   0  0  0  0  0  0  0  0  0  0  0  0
  130.6300  124.8530   67.3220 O   0  0  0  0  0  0  0  0  0  0  0  0
  130.7740  125.8690   65.2130 C   0  0  0  0  0  0  0  0  0  0  0  0
  131.8190  124.6420   64.4990 S   0  0  0  0  0  0  0  0  0  0  0  0
  131.5280  125.2640   62.8910 C   0  0  0  0  0  0  0  0  0  0  0  0
  132.0870  124.7100   61.8190 N   0  0  0  0  0  0  0  0  0  0  0  0
  131.7930  125.2560   60.6110 C   0  0  0  0  0  0  0  0  0  0  0  0
  132.4350  124.6050   59.4200 C   0  0  0  0  0  0  0  0  0  0  0  0
  133.3710  123.5720   59.5850 C   0  0  0  0  0  0  0  0  0  0  0  0
  133.9730  122.9660   58.4850 C   0  0  0  0  0  0  0  0  0  0  0  0
  133.6460  123.3870   57.2000 C   0  0  0  0  0  0  0  0  0  0  0  0
  132.7240  124.4110   57.0080 C   0  0  0  0  0  0  0  0  0  0  0  0
  132.1270  125.0150   58.1110 C   0  0  0  0  0  0  0  0  0  0  0  0
  130.9560  126.3710   60.4880 C   0  0  0  0  0  0  0  0  0  0  0  0
  130.3640  126.9650   61.6130 C   0  0  0  0  0  0  0  0  0  0  0  0
  129.4550  128.1840   61.4060 C   0  0  0  0  0  0  0  0  0  0  0  0
  129.8800  129.2690   62.0570 F   0  0  0  0  0  0  0  0  0  0  0  0
  129.4020  128.4910   60.1110 F   0  0  0  0  0  0  0  0  0  0  0  0
  128.2270  127.9100   61.8450 F   0  0  0  0  0  0  0  0  0  0  0  0
  130.6520  126.3900   62.8830 C   0  0  0  0  0  0  0  0  0  0  0  0
  130.2330  126.7100   64.2260 C   0  0  0  0  0  0  0  0  0  0  0  0
  129.3810  127.7470   64.5080 N   0  0  0  0  0  0  0  0  0  0  0  0
  130.6450  128.4920   69.1980 C   0  0  0  0  0  0  0  0  0  0  0  0
  130.3040  128.7940   70.5130 C   0  0  0  0  0  0  0  0  0  0  0  0
  1  2  1  0
  2  3  1  0
  3  4  2  0
  3  5  1  0
  5  6  2  0
  6  7  1  0
  7  8  2  0
  8  9  1  0
  9 10  1  0
 10 11  2  0
 10 12  1  0
 12 13  1  0
 13 14  1  0
 14 15  2  0
 15 16  1  0
 16 17  1  0
 17 18  2  0
 18 19  1  0
 19 20  2  0
 20 21  1  0
 21 22  2  0
 16 23  2  0
 23 24  1  0
 24 25  1  0
 25 26  1  0
 25 27  1  0
 25 28  1  0
 24 29  2  0
 29 30  1  0
 30 31  1  0
  8 32  1  0
 32 33  2  0
 33  5  1  0
 30 12  2  0
 29 14  1  0
 22 17  1  0
M  END
>  <Binding energies>  (31) 
[-7.01]

>  <Ligand effiencies>  (31) 
[-0.1947222222222222]

>  <Interactions>  (31) 
["V-A:HIS:456:CE1:4064, H-B:LYS:547:NZ:9919, V-A:GLU:543:CB:4901, V-B:TYR:539:CE2:9844, V-A:ILE:369:CD1:3234, V-B:TYR:539:CZ:9845, V-A:ASP:366:CA:3205, V-A:ILE:369:CB:3231, V-A:ASP:366:CG:3208, V-A:ASP:366:CB:3207, V-A:ASP:366:C:3203, V-A:GLU:543:CD:4903, V-A:ILE:369:CG2:3232, H-A:TYR:484:OH:4343, H-A:GLU:543:OE2:4905, H-A:HIS:456:NE2:4065, H-A:GLU:543:OE1:4904, V-A:GLY:544:C:4907, V-A:GLU:543:C:4897, V-A:LYS:547:CE:4945, V-A:TYR:531:CZ:4789, H-A:LYS:547:NZ:4946, H-B:GLU:543:OE2:9878, V-A:TYR:531:CE1:4787, V-A:ILE:369:CG1:3233"]

$$$$
4cc_Grossjean_2025
     RDKit          3D

 31 34  0  0  0  0  0  0  0  0999 V2000
  129.7350  118.1290   60.4340 C   0  0  0  0  0  0  0  0  0  0  0  0
  130.1490  119.4210   60.0030 O   0  0  0  0  0  0  0  0  0  0  0  0
  129.9750  120.5010   60.8460 C   0  0  0  0  0  0  0  0  0  0  0  0
  130.6200  120.4380   62.0800 C   0  0  0  0  0  0  0  0  0  0  0  0
  130.5050  121.4800   62.9950 C   0  0  0  0  0  0  0  0  0  0  0  0
  129.7300  122.6010   62.6910 C   0  0  0  0  0  0  0  0  0  0  0  0
  129.6850  123.6100   63.6700 N   0  0  0  0  0  0  0  0  0  0  0  0
  130.7010  124.1730   64.3680 C   0  0  0  0  0  0  0  0  0  0  0  0
  131.8880  123.8890   64.2040 O   0  0  0  0  0  0  0  0  0  0  0  0
  130.3030  125.1750   65.3610 C   0  0  0  0  0  0  0  0  0  0  0  0
  130.6210  124.9040   67.0730 S   0  0  0  0  0  0  0  0  0  0  0  0
  129.9040  126.4410   67.4960 C   0  0  0  0  0  0  0  0  0  0  0  0
  129.8380  126.8520   68.7600 N   0  0  0  0  0  0  0  0  0  0  0  0
  129.2720  128.0650   68.9900 C   0  0  0  0  0  0  0  0  0  0  0  0
  129.2080  128.5010   70.4250 C   0  0  0  0  0  0  0  0  0  0  0  0
  128.0290  128.3410   71.1720 C   0  0  0  0  0  0  0  0  0  0  0  0
  127.9620  128.7450   72.5030 C   0  0  0  0  0  0  0  0  0  0  0  0
  129.0760  129.3160   73.1080 C   0  0  0  0  0  0  0  0  0  0  0  0
  130.2550  129.4890   72.3900 C   0  0  0  0  0  0  0  0  0  0  0  0
  130.3180  129.0850   71.0590 C   0  0  0  0  0  0  0  0  0  0  0  0
  128.7620  128.8510   67.9520 C   0  0  0  0  0  0  0  0  0  0  0  0
  128.8260  128.4270   66.6150 C   0  0  0  0  0  0  0  0  0  0  0  0
  128.2530  129.3410   65.5270 C   0  0  0  0  0  0  0  0  0  0  0  0
  128.0190  130.5840   65.9560 F   0  0  0  0  0  0  0  0  0  0  0  0
  129.1100  129.4260   64.5100 F   0  0  0  0  0  0  0  0  0  0  0  0
  127.0960  128.8480   65.0860 F   0  0  0  0  0  0  0  0  0  0  0  0
  129.4250  127.1600   66.3610 C   0  0  0  0  0  0  0  0  0  0  0  0
  129.6640  126.4080   65.1530 C   0  0  0  0  0  0  0  0  0  0  0  0
  129.2970  126.8650   63.9120 N   0  0  0  0  0  0  0  0  0  0  0  0
  129.0870  122.6780   61.4460 C   0  0  0  0  0  0  0  0  0  0  0  0
  129.2060  121.6330   60.5330 C   0  0  0  0  0  0  0  0  0  0  0  0
  1  2  1  0
  2  3  1  0
  3  4  2  0
  4  5  1  0
  5  6  2  0
  6  7  1  0
  7  8  1  0
  8  9  2  0
  8 10  1  0
 10 11  1  0
 11 12  1  0
 12 13  2  0
 13 14  1  0
 14 15  1  0
 15 16  2  0
 16 17  1  0
 17 18  2  0
 18 19  1  0
 19 20  2  0
 14 21  2  0
 21 22  1  0
 22 23  1  0
 23 24  1  0
 23 25  1  0
 23 26  1  0
 22 27  2  0
 27 28  1  0
 28 29  1  0
  6 30  1  0
 30 31  2  0
 31  3  1  0
 28 10  2  0
 27 12  1  0
 20 15  1  0
M  END
>  <Binding energies>  (32) 
[-7.15]

>  <Ligand effiencies>  (32) 
[-0.21029411764705883]

>  <Interactions>  (32) 
["V-B:GLU:543:CG:9875, V-A:TRP:381:CD2:3360, V-A:TRP:381:CZ3:3366, V-A:HIS:456:CE1:4064, V-A:PRO:482:CG:4322, V-A:TRP:381:CZ2:3365, V-B:ALA:541:CB:9860, V-A:TRP:381:CE3:3363, V-A:TRP:381:CH2:3367, V-B:TYR:539:C:9835, V-B:TYR:539:CD2:9842, V-A:LEU:475:CD2:4254, V-A:TRP:381:CE2:3362, V-A:GLU:543:CB:4901, V-A:PRO:482:CB:4321, V-B:HIS:456:CE1:9037, V-A:TYR:484:CZ:4342, V-A:GLU:543:CG:4902, V-A:TYR:484:CE1:4340, V-A:GLU:543:CD:4903, V-B:GLU:543:CD:9876, H-A:TYR:484:OH:4343, H-A:GLU:543:OE2:4905, H-A:HIS:456:NE2:4065, V-A:LEU:475:CD1:4253, H-A:GLU:543:OE1:4904, V-A:GLY:544:C:4907, V-A:GLU:543:C:4897, V-A:LYS:547:CE:4945, V-B:HIS:456:CD2:9035, V-B:HIS:456:CG:9033, V-B:TYR:484:CE1:9312, V-B:TYR:484:CZ:9314, H-B:GLU:543:OE2:9878, H-B:GLU:543:OE1:9877"]

$$$$
4ce_Grossjean_2025
     RDKit          3D

 30 33  0  0  0  0  0  0  0  0999 V2000
  129.9880  119.4750   61.0110 C   0  0  0  0  0  0  0  0  0  0  0  0
  129.9020  120.9780   60.8260 C   0  0  0  0  0  0  0  0  0  0  0  0
  129.8690  121.5570   59.5540 C   0  0  0  0  0  0  0  0  0  0  0  0
  129.7820  122.9470   59.4600 C   0  0  0  0  0  0  0  0  0  0  0  0
  129.7270  123.7150   60.6240 C   0  0  0  0  0  0  0  0  0  0  0  0
  129.7700  123.0710   61.8670 C   0  0  0  0  0  0  0  0  0  0  0  0
  129.6870  123.8970   63.0020 N   0  0  0  0  0  0  0  0  0  0  0  0
  130.2660  123.7290   64.2170 C   0  0  0  0  0  0  0  0  0  0  0  0
  131.0010  122.7820   64.5010 O   0  0  0  0  0  0  0  0  0  0  0  0
  129.9660  124.7670   65.2060 C   0  0  0  0  0  0  0  0  0  0  0  0
  130.2260  124.4590   66.9210 S   0  0  0  0  0  0  0  0  0  0  0  0
  129.7090  126.0760   67.3360 C   0  0  0  0  0  0  0  0  0  0  0  0
  129.6850  126.4950   68.5990 N   0  0  0  0  0  0  0  0  0  0  0  0
  129.2830  127.7740   68.8220 C   0  0  0  0  0  0  0  0  0  0  0  0
  129.2720  128.2160   70.2550 C   0  0  0  0  0  0  0  0  0  0  0  0
  130.4220  128.7700   70.8420 C   0  0  0  0  0  0  0  0  0  0  0  0
  130.4210  129.1760   72.1740 C   0  0  0  0  0  0  0  0  0  0  0  0
  129.2680  129.0360   72.9380 C   0  0  0  0  0  0  0  0  0  0  0  0
  128.1170  128.4890   72.3810 C   0  0  0  0  0  0  0  0  0  0  0  0
  128.1220  128.0820   71.0500 C   0  0  0  0  0  0  0  0  0  0  0  0
  128.8870  128.6170   67.7780 C   0  0  0  0  0  0  0  0  0  0  0  0
  128.9030  128.1830   66.4430 C   0  0  0  0  0  0  0  0  0  0  0  0
  128.4580  129.1600   65.3490 C   0  0  0  0  0  0  0  0  0  0  0  0
  129.2300  129.1150   64.2610 F   0  0  0  0  0  0  0  0  0  0  0  0
  127.2130  128.8720   64.9670 F   0  0  0  0  0  0  0  0  0  0  0  0
  128.4970  130.4070   65.8160 F   0  0  0  0  0  0  0  0  0  0  0  0
  129.3380  126.8490   66.1960 C   0  0  0  0  0  0  0  0  0  0  0  0
  129.4940  126.0730   64.9910 C   0  0  0  0  0  0  0  0  0  0  0  0
  129.2070  126.5710   63.7460 N   0  0  0  0  0  0  0  0  0  0  0  0
  129.8510  121.7120   61.9670 N   0  0  0  0  0  0  0  0  0  0  0  0
  1  2  1  0
  2  3  2  0
  3  4  1  0
  4  5  2  0
  5  6  1  0
  6  7  1  0
  7  8  1  0
  8  9  2  0
  8 10  1  0
 10 11  1  0
 11 12  1  0
 12 13  2  0
 13 14  1  0
 14 15  1  0
 15 16  2  0
 16 17  1  0
 17 18  2  0
 18 19  1  0
 19 20  2  0
 14 21  2  0
 21 22  1  0
 22 23  1  0
 23 24  1  0
 23 25  1  0
 23 26  1  0
 22 27  2  0
 27 28  1  0
 28 29  1  0
  6 30  2  0
 30  2  1  0
 28 10  2  0
 27 12  1  0
 20 15  1  0
M  END
>  <Binding energies>  (33) 
[-7.5]

>  <Ligand effiencies>  (33) 
[-0.22727272727272727]

>  <Interactions>  (33) 
["V-B:GLU:543:CG:9875, V-A:HIS:456:CE1:4064, V-B:ALA:541:CB:9860, V-B:GLU:543:CB:9874, V-B:TYR:539:C:9835, V-B:TYR:539:CD2:9842, V-A:LEU:475:CD2:4254, V-A:GLU:543:CB:4901, V-B:TYR:539:CE2:9844, V-B:HIS:456:CE1:9037, V-A:TYR:484:CZ:4342, V-A:GLU:543:CG:4902, V-A:TYR:484:CE1:4340, V-A:GLU:543:CD:4903, V-B:GLU:543:CD:9876, H-A:TYR:484:OH:4343, H-A:GLU:543:OE2:4905, H-A:HIS:456:NE2:4065, H-A:GLU:543:OE1:4904, V-A:GLY:544:C:4907, V-A:GLU:543:C:4897, V-A:LYS:547:CE:4945, V-B:HIS:456:CD2:9035, V-B:TYR:484:CE1:9312, V-B:TYR:484:CZ:9314, H-B:GLU:543:OE2:9878, H-B:GLU:543:OE1:9877"]

$$$$
4cf_Grossjean_2025
     RDKit          3D

 29 32  0  0  0  0  0  0  0  0999 V2000
  129.3760  126.4850   63.6390 N   0  0  0  0  0  0  0  0  0  0  0  0
  129.6220  125.9920   64.8950 C   0  0  0  0  0  0  0  0  0  0  0  0
  130.0620  124.6800   65.1330 C   0  0  0  0  0  0  0  0  0  0  0  0
  130.3040  123.6070   64.1650 C   0  0  0  0  0  0  0  0  0  0  0  0
  130.9910  122.6300   64.4690 O   0  0  0  0  0  0  0  0  0  0  0  0
  129.7160  123.7730   62.9550 N   0  0  0  0  0  0  0  0  0  0  0  0
  129.7870  122.9670   61.8030 C   0  0  0  0  0  0  0  0  0  0  0  0
  130.1520  121.6070   61.7800 C   0  0  0  0  0  0  0  0  0  0  0  0
  130.1970  120.9250   60.5620 C   0  0  0  0  0  0  0  0  0  0  0  0
  129.8760  121.6200   59.3950 C   0  0  0  0  0  0  0  0  0  0  0  0
  129.5280  122.9310   59.3890 N   0  0  0  0  0  0  0  0  0  0  0  0
  129.4910  123.5810   60.5820 C   0  0  0  0  0  0  0  0  0  0  0  0
  130.2830  124.3860   66.8570 S   0  0  0  0  0  0  0  0  0  0  0  0
  129.7780  126.0140   67.2440 C   0  0  0  0  0  0  0  0  0  0  0  0
  129.7210  126.4430   68.5040 N   0  0  0  0  0  0  0  0  0  0  0  0
  129.3000  127.7190   68.7060 C   0  0  0  0  0  0  0  0  0  0  0  0
  129.2390  128.1720   70.1360 C   0  0  0  0  0  0  0  0  0  0  0  0
  128.0660  128.0100   70.8900 C   0  0  0  0  0  0  0  0  0  0  0  0
  128.0000  128.4260   72.2170 C   0  0  0  0  0  0  0  0  0  0  0  0
  129.1130  129.0110   72.8110 C   0  0  0  0  0  0  0  0  0  0  0  0
  130.2900  129.1820   72.0890 C   0  0  0  0  0  0  0  0  0  0  0  0
  130.3500  128.7630   70.7620 C   0  0  0  0  0  0  0  0  0  0  0  0
  128.9650  128.5650   67.6450 C   0  0  0  0  0  0  0  0  0  0  0  0
  129.0260  128.1240   66.3130 C   0  0  0  0  0  0  0  0  0  0  0  0
  128.6390  129.1020   65.1980 C   0  0  0  0  0  0  0  0  0  0  0  0
  129.4400  129.0260   64.1330 F   0  0  0  0  0  0  0  0  0  0  0  0
  127.3990  128.8440   64.7830 F   0  0  0  0  0  0  0  0  0  0  0  0
  128.7000  130.3530   65.6530 F   0  0  0  0  0  0  0  0  0  0  0  0
  129.4480  126.7810   66.0890 C   0  0  0  0  0  0  0  0  0  0  0  0
  1  2  1  0
  2  3  2  0
  3  4  1  0
  4  5  2  0
  4  6  1  0
  6  7  1  0
  7  8  2  0
  8  9  1  0
  9 10  2  0
 10 11  1  0
 11 12  2  0
  3 13  1  0
 13 14  1  0
 14 15  2  0
 15 16  1  0
 16 17  1  0
 17 18  2  0
 18 19  1  0
 19 20  2  0
 20 21  1  0
 21 22  2  0
 16 23  2  0
 23 24  1  0
 24 25  1  0
 25 26  1  0
 25 27  1  0
 25 28  1  0
 24 29  2  0
 29  2  1  0
 12  7  1  0
 29 14  1  0
 22 17  1  0
M  END
>  <Binding energies>  (34) 
[-6.88]

>  <Ligand effiencies>  (34) 
[-0.215]

>  <Interactions>  (34) 
["V-B:GLU:543:CG:9875, V-A:HIS:456:CE1:4064, V-B:ALA:541:CB:9860, V-B:GLU:543:CB:9874, V-B:TYR:539:C:9835, V-B:TYR:539:CD2:9842, V-A:GLU:543:CB:4901, V-B:TYR:539:CE2:9844, V-B:HIS:456:CE1:9037, V-A:TYR:484:CZ:4342, V-A:GLU:543:CG:4902, V-A:TYR:484:CE1:4340, V-A:GLU:543:CD:4903, V-B:GLU:543:CD:9876, H-A:TYR:484:OH:4343, H-A:GLU:543:OE2:4905, H-A:HIS:456:NE2:4065, H-A:GLU:543:OE1:4904, V-A:GLY:544:C:4907, V-A:GLU:543:C:4897, V-A:LYS:547:CE:4945, V-B:HIS:456:CD2:9035, H-B:GLU:543:OE2:9878"]

$$$$
4ci_Grossjean_2025
     RDKit          3D

 28 31  0  0  0  0  0  0  0  0999 V2000
  129.2440  126.5070   63.7560 N   0  0  0  0  0  0  0  0  0  0  0  0
  129.5310  126.0140   65.0030 C   0  0  0  0  0  0  0  0  0  0  0  0
  129.9620  124.6970   65.2290 C   0  0  0  0  0  0  0  0  0  0  0  0
  130.1960  123.6320   64.2500 C   0  0  0  0  0  0  0  0  0  0  0  0
  130.9950  122.7230   64.4880 O   0  0  0  0  0  0  0  0  0  0  0  0
  129.4930  123.7360   63.0940 N   0  0  0  0  0  0  0  0  0  0  0  0
  129.5250  122.8750   62.0050 C   0  0  0  0  0  0  0  0  0  0  0  0
  130.7070  122.4690   61.3880 C   0  0  0  0  0  0  0  0  0  0  0  0
  130.3120  121.6360   60.3680 C   0  0  0  0  0  0  0  0  0  0  0  0
  128.9600  121.5440   60.3700 O   0  0  0  0  0  0  0  0  0  0  0  0
  128.4730  122.3350   61.4120 N   0  0  0  0  0  0  0  0  0  0  0  0
  130.2490  124.4060   66.9430 S   0  0  0  0  0  0  0  0  0  0  0  0
  129.7830  126.0420   67.3450 C   0  0  0  0  0  0  0  0  0  0  0  0
  129.7900  126.4790   68.6020 N   0  0  0  0  0  0  0  0  0  0  0  0
  129.4160  127.7670   68.8160 C   0  0  0  0  0  0  0  0  0  0  0  0
  129.4290  128.2280   70.2460 C   0  0  0  0  0  0  0  0  0  0  0  0
  130.5940  128.7660   70.8180 C   0  0  0  0  0  0  0  0  0  0  0  0
  130.6120  129.1960   72.1420 C   0  0  0  0  0  0  0  0  0  0  0  0
  129.4610  129.0930   72.9170 C   0  0  0  0  0  0  0  0  0  0  0  0
  128.2960  128.5610   72.3780 C   0  0  0  0  0  0  0  0  0  0  0  0
  128.2820  128.1300   71.0530 C   0  0  0  0  0  0  0  0  0  0  0  0
  129.0190  128.6030   67.7680 C   0  0  0  0  0  0  0  0  0  0  0  0
  129.0080  128.1540   66.4380 C   0  0  0  0  0  0  0  0  0  0  0  0
  128.5630  129.1250   65.3390 C   0  0  0  0  0  0  0  0  0  0  0  0
  129.2770  129.0110   64.2170 F   0  0  0  0  0  0  0  0  0  0  0  0
  127.2880  128.8940   65.0250 F   0  0  0  0  0  0  0  0  0  0  0  0
  128.6900  130.3810   65.7670 F   0  0  0  0  0  0  0  0  0  0  0  0
  129.4120  126.8090   66.2010 C   0  0  0  0  0  0  0  0  0  0  0  0
  1  2  1  0
  2  3  2  0
  3  4  1  0
  4  5  2  0
  4  6  1  0
  6  7  1  0
  7  8  1  0
  8  9  2  0
  9 10  1  0
 10 11  1  0
  3 12  1  0
 12 13  1  0
 13 14  2  0
 14 15  1  0
 15 16  1  0
 16 17  2  0
 17 18  1  0
 18 19  2  0
 19 20  1  0
 20 21  2  0
 15 22  2  0
 22 23  1  0
 23 24  1  0
 24 25  1  0
 24 26  1  0
 24 27  1  0
 23 28  2  0
 28  2  1  0
 11  7  2  0
 28 13  1  0
 21 16  1  0
M  END
>  <Binding energies>  (35) 
[-6.82]

>  <Ligand effiencies>  (35) 
[-0.22]

>  <Interactions>  (35) 
["V-B:GLU:543:CG:9875, V-A:HIS:456:CE1:4064, V-B:ALA:541:CB:9860, V-B:GLU:543:CB:9874, V-A:GLU:543:CB:4901, V-B:HIS:456:CE1:9037, V-A:TYR:484:CZ:4342, V-A:GLU:543:CG:4902, V-A:TYR:484:CE1:4340, V-A:GLU:543:CD:4903, V-B:GLU:543:CD:9876, H-A:TYR:484:OH:4343, H-B:ALA:541:N:9859, H-A:GLU:543:OE2:4905, H-A:HIS:456:NE2:4065, H-A:GLU:543:OE1:4904, V-A:GLY:544:C:4907, V-A:GLU:543:C:4897, V-A:LYS:547:CE:4945, V-B:HIS:456:CD2:9035, V-A:GLY:544:CA:4909, H-B:GLU:543:OE2:9878, H-B:GLU:543:OE1:9877"]

$$$$
8a_Ghoteimi_2023
     RDKit          3D

 40 44  0  0  0  0  0  0  0  0999 V2000
  129.4680  117.5070   60.0040 C   0  0  0  0  0  0  0  0  0  0  0  0
  130.3020  118.5960   60.6860 C   0  0  0  0  0  0  0  0  0  0  0  0
  131.0100  119.3360   59.7000 O   0  0  0  0  0  0  0  0  0  0  0  0
  132.1190  120.0520   60.0240 C   0  0  0  0  0  0  0  0  0  0  0  0
  133.2310  119.8440   59.5280 O   0  0  0  0  0  0  0  0  0  0  0  0
  131.8580  121.1190   61.0480 C   0  0  0  0  0  0  0  0  0  0  0  0
  130.5400  121.5190   61.2980 C   0  0  0  0  0  0  0  0  0  0  0  0
  130.2650  122.5060   62.2400 C   0  0  0  0  0  0  0  0  0  0  0  0
  131.3010  123.1140   62.9520 C   0  0  0  0  0  0  0  0  0  0  0  0
  130.9050  124.1020   63.8750 N   0  0  0  0  0  0  0  0  0  0  0  0
  131.2080  125.4220   63.9310 C   0  0  0  0  0  0  0  0  0  0  0  0
  131.9340  126.0020   63.1220 O   0  0  0  0  0  0  0  0  0  0  0  0
  130.5990  126.1570   65.0440 C   0  0  0  0  0  0  0  0  0  0  0  0
  131.2800  126.0410   66.6660 S   0  0  0  0  0  0  0  0  0  0  0  0
  130.0530  127.1080   67.3080 C   0  0  0  0  0  0  0  0  0  0  0  0
  130.0060  127.4230   68.6020 N   0  0  0  0  0  0  0  0  0  0  0  0
  129.0070  128.2560   68.9980 C   0  0  0  0  0  0  0  0  0  0  0  0
  128.9620  128.5800   70.4570 C   0  0  0  0  0  0  0  0  0  0  0  0
  127.8010  128.3590   71.2120 C   0  0  0  0  0  0  0  0  0  0  0  0
  127.7620  128.6740   72.5670 C   0  0  0  0  0  0  0  0  0  0  0  0
  128.8790  129.2130   73.2020 C   0  0  0  0  0  0  0  0  0  0  0  0
  128.7470  129.4960   74.5490 O   0  0  0  0  0  0  0  0  0  0  0  0
  127.7410  130.4110   74.9690 C   0  0  0  0  0  0  0  0  0  0  0  0
  130.0460  129.4330   72.4580 C   0  0  0  0  0  0  0  0  0  0  0  0
  130.0820  129.1200   71.1010 C   0  0  0  0  0  0  0  0  0  0  0  0
  128.0690  128.7740   68.1030 C   0  0  0  0  0  0  0  0  0  0  0  0
  128.1240  128.4590   66.7410 C   0  0  0  0  0  0  0  0  0  0  0  0
  127.1200  129.0630   65.8280 C   0  0  0  0  0  0  0  0  0  0  0  0
  125.7650  128.7540   65.9700 C   0  0  0  0  0  0  0  0  0  0  0  0
  124.8190  129.3340   65.1300 C   0  0  0  0  0  0  0  0  0  0  0  0
  125.2080  130.2340   64.1380 C   0  0  0  0  0  0  0  0  0  0  0  0
  124.2010  130.7600   63.3510 O   0  0  0  0  0  0  0  0  0  0  0  0
  124.1540  132.1640   63.1300 C   0  0  0  0  0  0  0  0  0  0  0  0
  126.5690  130.5520   63.9980 C   0  0  0  0  0  0  0  0  0  0  0  0
  127.5130  129.9720   64.8420 C   0  0  0  0  0  0  0  0  0  0  0  0
  129.1480  127.5710   66.3080 C   0  0  0  0  0  0  0  0  0  0  0  0
  129.4730  126.9960   65.0260 C   0  0  0  0  0  0  0  0  0  0  0  0
  128.7300  127.2400   63.8980 N   0  0  0  0  0  0  0  0  0  0  0  0
  132.6250  122.7160   62.7110 C   0  0  0  0  0  0  0  0  0  0  0  0
  132.8970  121.7280   61.7680 C   0  0  0  0  0  0  0  0  0  0  0  0
  1  2  1  0
  2  3  1  0
  3  4  1  0
  4  5  2  0
  4  6  1  0
  6  7  2  0
  7  8  1  0
  8  9  2  0
  9 10  1  0
 10 11  1  0
 11 12  2  0
 11 13  1  0
 13 14  1  0
 14 15  1  0
 15 16  2  0
 16 17  1  0
 17 18  1  0
 18 19  2  0
 19 20  1  0
 20 21  2  0
 21 22  1  0
 22 23  1  0
 21 24  1  0
 24 25  2  0
 17 26  2  0
 26 27  1  0
 27 28  1  0
 28 29  2  0
 29 30  1  0
 30 31  2  0
 31 32  1  0
 32 33  1  0
 31 34  1  0
 34 35  2  0
 27 36  2  0
 36 37  1  0
 37 38  1  0
  9 39  1  0
 39 40  2  0
 40  6  1  0
 37 13  2  0
 36 15  1  0
 25 18  1  0
 35 28  1  0
M  END
>  <Binding energies>  (36) 
[-8.12]

>  <Ligand effiencies>  (36) 
[-0.18883720930232556]

>  <Interactions>  (36) 
["V-A:TRP:381:CD2:3360, V-A:TRP:381:CZ3:3366, V-A:HIS:456:CE1:4064, V-A:PRO:482:CG:4322, V-B:TYR:539:CB:9839, V-A:TRP:381:CZ2:3365, V-B:ALA:541:CB:9860, V-A:TRP:381:CE3:3363, V-A:TRP:381:CH2:3367, V-B:TYR:539:C:9835, V-B:TYR:539:CD2:9842, V-A:LEU:475:CD2:4254, V-A:TRP:381:CE2:3362, V-A:PRO:482:CB:4321, V-B:TYR:539:CE2:9844, V-A:ILE:369:CD1:3234, V-B:HIS:456:CE1:9037, V-A:GLU:543:CD:4903, V-B:GLU:543:CD:9876, H-A:TYR:484:OH:4343, H-A:ARG:545:NH2:4923, V-B:ARG:545:CG:9890, V-A:GLY:544:C:4907, V-A:GLU:543:C:4897, V-A:LYS:547:CE:4945, V-B:HIS:456:CD2:9035, V-B:HIS:456:CG:9033, V-B:ARG:545:CD:9891, H-A:LYS:547:NZ:4946, H-B:GLU:543:OE2:9878, H-B:GLU:543:OE1:9877, V-B:ARG:545:CZ:9894, V-B:ILE:369:CD1:8206, V-B:GLY:454:CA:9016"]

$$$$
8c_Ghoteimi_2023
     RDKit          3D

 34 38  0  0  0  0  0  0  0  0999 V2000
  128.0340  130.2510   74.6300 C   0  0  0  0  0  0  0  0  0  0  0  0
  129.0350  129.3150   74.2450 O   0  0  0  0  0  0  0  0  0  0  0  0
  129.1440  128.9550   72.9150 C   0  0  0  0  0  0  0  0  0  0  0  0
  128.0170  128.3820   72.3300 C   0  0  0  0  0  0  0  0  0  0  0  0
  128.0370  127.9850   70.9960 C   0  0  0  0  0  0  0  0  0  0  0  0
  129.1860  128.1540   70.2110 C   0  0  0  0  0  0  0  0  0  0  0  0
  129.2150  127.7270   68.7770 C   0  0  0  0  0  0  0  0  0  0  0  0
  128.6580  128.5120   67.7630 C   0  0  0  0  0  0  0  0  0  0  0  0
  128.7010  128.0900   66.4290 C   0  0  0  0  0  0  0  0  0  0  0  0
  128.0940  128.9410   65.3800 C   0  0  0  0  0  0  0  0  0  0  0  0
  128.7450  130.1010   64.9510 C   0  0  0  0  0  0  0  0  0  0  0  0
  128.1780  130.8940   63.9590 C   0  0  0  0  0  0  0  0  0  0  0  0
  126.9560  130.5440   63.3820 C   0  0  0  0  0  0  0  0  0  0  0  0
  126.4700  131.3890   62.4030 O   0  0  0  0  0  0  0  0  0  0  0  0
  126.7860  132.7750   62.4620 C   0  0  0  0  0  0  0  0  0  0  0  0
  126.3010  129.3810   63.8180 C   0  0  0  0  0  0  0  0  0  0  0  0
  126.8700  128.5870   64.8110 C   0  0  0  0  0  0  0  0  0  0  0  0
  129.3290  126.8500   66.1410 C   0  0  0  0  0  0  0  0  0  0  0  0
  129.5510  126.1300   64.9140 C   0  0  0  0  0  0  0  0  0  0  0  0
  129.1310  126.6060   63.6970 N   0  0  0  0  0  0  0  0  0  0  0  0
  130.2290  124.9130   65.0830 C   0  0  0  0  0  0  0  0  0  0  0  0
  130.6200  123.9370   64.0630 C   0  0  0  0  0  0  0  0  0  0  0  0
  131.7540  123.4530   64.0570 O   0  0  0  0  0  0  0  0  0  0  0  0
  129.6600  123.6270   63.1570 N   0  0  0  0  0  0  0  0  0  0  0  0
  129.7690  122.7380   62.0970 C   0  0  0  0  0  0  0  0  0  0  0  0
  129.3100  122.8790   60.8730 N   0  0  0  0  0  0  0  0  0  0  0  0
  129.5990  121.8350   60.1230 C   0  0  0  0  0  0  0  0  0  0  0  0
  130.3090  120.8110   60.7410 C   0  0  0  0  0  0  0  0  0  0  0  0
  130.6100  121.2510   62.3960 S   0  0  0  0  0  0  0  0  0  0  0  0
  130.6150  124.6290   66.7810 S   0  0  0  0  0  0  0  0  0  0  0  0
  129.8660  126.1370   67.2520 C   0  0  0  0  0  0  0  0  0  0  0  0
  129.8250  126.5370   68.5230 N   0  0  0  0  0  0  0  0  0  0  0  0
  130.3150  128.7350   70.8050 C   0  0  0  0  0  0  0  0  0  0  0  0
  130.2990  129.1310   72.1390 C   0  0  0  0  0  0  0  0  0  0  0  0
  1  2  1  0
  2  3  1  0
  3  4  2  0
  4  5  1  0
  5  6  2  0
  6  7  1  0
  7  8  2  0
  8  9  1  0
  9 10  1  0
 10 11  2  0
 11 12  1  0
 12 13  2  0
 13 14  1  0
 14 15  1  0
 13 16  1  0
 16 17  2  0
  9 18  2  0
 18 19  1  0
 19 20  1  0
 19 21  2  0
 21 22  1  0
 22 23  2  0
 22 24  1  0
 24 25  1  0
 25 26  2  0
 26 27  1  0
 27 28  2  0
 28 29  1  0
 21 30  1  0
 30 31  1  0
 31 32  2  0
  6 33  1  0
 33 34  2  0
 34  3  1  0
 32  7  1  0
 17 10  1  0
 31 18  1  0
 29 25  1  0
M  END
>  <Binding energies>  (37) 
[-8.1]

>  <Ligand effiencies>  (37) 
[-0.2189189189189189]

>  <Interactions>  (37) 
["V-B:GLU:543:CG:9875, V-A:HIS:456:CE1:4064, V-B:ALA:541:CB:9860, V-B:GLU:543:CB:9874, V-B:TYR:539:CD2:9842, V-A:LEU:475:CD2:4254, V-A:GLU:543:CB:4901, V-B:HIS:456:CE1:9037, V-A:TYR:484:CZ:4342, V-A:GLU:543:CG:4902, V-A:TYR:484:CE1:4340, V-A:GLU:543:CD:4903, V-B:GLU:543:CD:9876, H-A:TYR:484:OH:4343, H-A:HIS:456:NE2:4065, H-A:GLU:543:OE1:4904, V-A:GLY:544:C:4907, V-A:GLU:543:C:4897, V-A:LYS:547:CE:4945, V-B:HIS:456:CD2:9035, H-A:LYS:547:NZ:4946, H-B:GLU:543:OE2:9878, H-B:GLU:543:OE1:9877, V-B:LEU:475:CD2:9226"]

$$$$
8d_Ghoteimi_2023
     RDKit          3D

 30 33  0  0  0  0  0  0  0  0999 V2000
  126.3630  126.3340   61.1260 C   0  0  0  0  0  0  0  0  0  0  0  0
  127.1250  127.4240   61.6250 O   0  0  0  0  0  0  0  0  0  0  0  0
  126.6300  128.2320   62.5980 C   0  0  0  0  0  0  0  0  0  0  0  0
  125.7210  129.0460   62.4220 O   0  0  0  0  0  0  0  0  0  0  0  0
  127.2970  128.0350   63.9040 C   0  0  0  0  0  0  0  0  0  0  0  0
  126.6210  128.7740   65.3570 S   0  0  0  0  0  0  0  0  0  0  0  0
  127.9020  128.1030   66.3400 C   0  0  0  0  0  0  0  0  0  0  0  0
  127.9660  128.3180   67.6550 N   0  0  0  0  0  0  0  0  0  0  0  0
  129.0030  127.7480   68.3250 C   0  0  0  0  0  0  0  0  0  0  0  0
  129.0530  128.0080   69.7980 C   0  0  0  0  0  0  0  0  0  0  0  0
  127.9350  127.7800   70.6130 C   0  0  0  0  0  0  0  0  0  0  0  0
  127.9870  128.0240   71.9820 C   0  0  0  0  0  0  0  0  0  0  0  0
  129.1560  128.5020   72.5730 C   0  0  0  0  0  0  0  0  0  0  0  0
  129.1160  128.7150   73.9370 O   0  0  0  0  0  0  0  0  0  0  0  0
  128.0930  129.5420   74.4810 C   0  0  0  0  0  0  0  0  0  0  0  0
  130.2810  128.7320   71.7680 C   0  0  0  0  0  0  0  0  0  0  0  0
  130.2250  128.4860   70.3980 C   0  0  0  0  0  0  0  0  0  0  0  0
  129.9740  126.9750   67.6810 C   0  0  0  0  0  0  0  0  0  0  0  0
  129.9050  126.7480   66.3030 C   0  0  0  0  0  0  0  0  0  0  0  0
  130.9440  125.9170   65.6510 C   0  0  0  0  0  0  0  0  0  0  0  0
  130.5780  124.9170   64.7480 C   0  0  0  0  0  0  0  0  0  0  0  0
  131.5540  124.1300   64.1420 C   0  0  0  0  0  0  0  0  0  0  0  0
  132.9060  124.3340   64.4240 C   0  0  0  0  0  0  0  0  0  0  0  0
  133.8020  123.5060   63.7780 O   0  0  0  0  0  0  0  0  0  0  0  0
  133.9440  123.6040   62.3650 C   0  0  0  0  0  0  0  0  0  0  0  0
  133.2710  125.3440   65.3300 C   0  0  0  0  0  0  0  0  0  0  0  0
  132.2940  126.1290   65.9360 C   0  0  0  0  0  0  0  0  0  0  0  0
  128.8290  127.3310   65.5840 C   0  0  0  0  0  0  0  0  0  0  0  0
  128.4580  127.3100   64.1950 C   0  0  0  0  0  0  0  0  0  0  0  0
  129.1870  126.6400   63.2460 N   0  0  0  0  0  0  0  0  0  0  0  0
  1  2  1  0
  2  3  1  0
  3  4  2  0
  3  5  1  0
  5  6  1  0
  6  7  1  0
  7  8  2  0
  8  9  1  0
  9 10  1  0
 10 11  2  0
 11 12  1  0
 12 13  2  0
 13 14  1  0
 14 15  1  0
 13 16  1  0
 16 17  2  0
  9 18  2  0
 18 19  1  0
 19 20  1  0
 20 21  2  0
 21 22  1  0
 22 23  2  0
 23 24  1  0
 24 25  1  0
 23 26  1  0
 26 27  2  0
 19 28  2  0
 28 29  1  0
 29 30  1  0
 29  5  2  0
 28  7  1  0
 17 10  1  0
 27 20  1  0
M  END
>  <Binding energies>  (38) 
[-6.57]

>  <Ligand effiencies>  (38) 
[-0.2053125]

>  <Interactions>  (38) 
["V-B:GLU:543:CG:9875, V-A:HIS:456:CE1:4064, H-B:LYS:547:NZ:9919, V-A:ILE:369:CD1:3234, V-B:HIS:456:CE1:9037, V-A:GLU:543:CD:4903, V-B:GLU:543:CD:9876, H-A:TYR:484:OH:4343, H-A:GLY:454:N:4045, V-A:ARG:545:CZ:4921, H-A:GLU:543:OE1:4904, V-A:GLY:544:C:4907, V-B:HIS:456:CD2:9035, H-A:LYS:547:NZ:4946, H-B:GLU:543:OE2:9878, V-A:ARG:545:CD:4918, H-B:ARG:545:NH2:9896"]

$$$$
9a_Ghoteimi_2023
     RDKit          3D

 48 54  0  0  0  0  0  0  0  0999 V2000
  128.4010  131.1800   56.6210 C   0  0  0  0  0  0  0  0  0  0  0  0
  126.9980  131.0170   57.2160 C   0  0  0  0  0  0  0  0  0  0  0  0
  126.7230  132.1080   58.0870 O   0  0  0  0  0  0  0  0  0  0  0  0
  127.6620  132.5670   58.9530 C   0  0  0  0  0  0  0  0  0  0  0  0
  128.2820  133.6230   58.7880 O   0  0  0  0  0  0  0  0  0  0  0  0
  127.8780  131.6600   60.1300 C   0  0  0  0  0  0  0  0  0  0  0  0
  128.2840  130.3370   59.9100 C   0  0  0  0  0  0  0  0  0  0  0  0
  128.4910  129.4720   60.9800 C   0  0  0  0  0  0  0  0  0  0  0  0
  128.2990  129.9090   62.2910 C   0  0  0  0  0  0  0  0  0  0  0  0
  128.5370  128.9480   63.2930 N   0  0  0  0  0  0  0  0  0  0  0  0
  128.1790  128.9350   64.6010 C   0  0  0  0  0  0  0  0  0  0  0  0
  127.5410  129.8310   65.1530 O   0  0  0  0  0  0  0  0  0  0  0  0
  128.6010  127.7500   65.3540 C   0  0  0  0  0  0  0  0  0  0  0  0
  128.3090  127.6470   67.0900 S   0  0  0  0  0  0  0  0  0  0  0  0
  129.0410  126.0610   67.1660 C   0  0  0  0  0  0  0  0  0  0  0  0
  129.1140  125.3790   68.3080 N   0  0  0  0  0  0  0  0  0  0  0  0
  129.6920  124.1490   68.2560 C   0  0  0  0  0  0  0  0  0  0  0  0
  129.7520  123.3980   69.5460 C   0  0  0  0  0  0  0  0  0  0  0  0
  130.5950  123.8250   70.5790 C   0  0  0  0  0  0  0  0  0  0  0  0
  130.6570  123.1310   71.7840 C   0  0  0  0  0  0  0  0  0  0  0  0
  129.8680  121.9910   72.0080 C   0  0  0  0  0  0  0  0  0  0  0  0
  129.9340  121.2730   73.2060 N   0  0  0  0  0  0  0  0  0  0  0  0
  129.4520  121.8490   74.4780 C   0  0  0  0  0  0  0  0  0  0  0  0
  129.9270  121.0810   75.7290 C   0  0  0  0  0  0  0  0  0  0  0  0
  129.5730  119.7120   75.6230 O   0  0  0  0  0  0  0  0  0  0  0  0
  130.1710  119.1070   74.4870 C   0  0  0  0  0  0  0  0  0  0  0  0
  129.6960  119.8150   73.2020 C   0  0  0  0  0  0  0  0  0  0  0  0
  129.0370  121.5590   70.9640 C   0  0  0  0  0  0  0  0  0  0  0  0
  128.9770  122.2520   69.7580 C   0  0  0  0  0  0  0  0  0  0  0  0
  130.2170  123.6210   67.0740 C   0  0  0  0  0  0  0  0  0  0  0  0
  130.1600  124.3430   65.8770 C   0  0  0  0  0  0  0  0  0  0  0  0
  130.7670  123.7510   64.6570 C   0  0  0  0  0  0  0  0  0  0  0  0
  130.0940  122.7590   63.9380 C   0  0  0  0  0  0  0  0  0  0  0  0
  130.6570  122.2150   62.7880 C   0  0  0  0  0  0  0  0  0  0  0  0
  131.9020  122.6610   62.3150 C   0  0  0  0  0  0  0  0  0  0  0  0
  132.4920  122.1220   61.1690 N   0  0  0  0  0  0  0  0  0  0  0  0
  132.6350  122.9680   59.9670 C   0  0  0  0  0  0  0  0  0  0  0  0
  133.6230  122.3930   58.9300 C   0  0  0  0  0  0  0  0  0  0  0  0
  133.2440  121.0720   58.5770 O   0  0  0  0  0  0  0  0  0  0  0  0
  133.2420  120.2080   59.7030 C   0  0  0  0  0  0  0  0  0  0  0  0
  132.2440  120.7250   60.7620 C   0  0  0  0  0  0  0  0  0  0  0  0
  132.5660  123.6590   63.0430 C   0  0  0  0  0  0  0  0  0  0  0  0
  132.0050  124.2000   64.1950 C   0  0  0  0  0  0  0  0  0  0  0  0
  129.5270  125.6190   65.9000 C   0  0  0  0  0  0  0  0  0  0  0  0
  129.2400  126.5940   64.8780 C   0  0  0  0  0  0  0  0  0  0  0  0
  129.5550  126.3940   63.5580 N   0  0  0  0  0  0  0  0  0  0  0  0
  127.8960  131.2330   62.5220 C   0  0  0  0  0  0  0  0  0  0  0  0
  127.6880  132.0980   61.4500 C   0  0  0  0  0  0  0  0  0  0  0  0
  1  2  1  0
  2  3  1  0
  3  4  1  0
  4  5  2  0
  4  6  1  0
  6  7  2  0
  7  8  1  0
  8  9  2  0
  9 10  1  0
 10 11  1  0
 11 12  2  0
 11 13  1  0
 13 14  1  0
 14 15  1  0
 15 16  2  0
 16 17  1  0
 17 18  1  0
 18 19  2  0
 19 20  1  0
 20 21  2  0
 21 22  1  0
 22 23  1  0
 23 24  1  0
 24 25  1  0
 25 26  1  0
 26 27  1  0
 21 28  1  0
 28 29  2  0
 17 30  2  0
 30 31  1  0
 31 32  1  0
 32 33  2  0
 33 34  1  0
 34 35  2  0
 35 36  1  0
 36 37  1  0
 37 38  1  0
 38 39  1  0
 39 40  1  0
 40 41  1  0
 35 42  1  0
 42 43  2  0
 31 44  2  0
 44 45  1  0
 45 46  1  0
  9 47  1  0
 47 48  2  0
 48  6  1  0
 45 13  2  0
 44 15  1  0
 29 18  1  0
 43 32  1  0
 27 22  1  0
 41 36  1  0
M  END
>  <Binding energies>  (39) 
[-3.87]

>  <Ligand effiencies>  (39) 
[-0.07588235294117647]

>  <Interactions>  (39) 
["V-B:GLU:543:CG:9875, V-A:HIS:456:CE1:4064, V-B:ALA:541:CB:9860, V-B:GLU:543:CB:9874, V-A:TRP:381:CH2:3367, V-B:TYR:539:CD2:9842, V-A:LEU:475:CD2:4254, V-B:TYR:539:CE2:9844, V-A:ILE:369:CD1:3234, V-A:ILE:369:CB:3231, V-A:TYR:484:CZ:4342, V-B:GLU:543:C:9870, H-B:TYR:484:OH:9315, V-A:TYR:484:CE1:4340, V-B:GLU:543:CA:9872, V-A:GLU:543:CD:4903, V-B:GLU:543:CD:9876, V-A:ILE:369:CG2:3232, H-A:GLU:543:OE2:4905, H-A:GLU:543:OE1:4904, V-A:TYR:484:CG:4337, V-A:TYR:484:CD1:4338, V-A:TYR:539:CE2:4871, V-A:HIS:456:CG:4061, V-A:TYR:539:CD2:4869, H-B:GLU:543:OE2:9878, H-A:TYR:539:OH:4873, V-A:TYR:539:CZ:4872, V-A:TYR:539:CE1:4870, V-A:HIS:456:CD2:4063, V-A:TYR:484:CB:4336, V-A:ILE:369:CG1:3233"]

$$$$
9b_Ghoteimi_2023
     RDKit          3D

 42 48  0  0  0  0  0  0  0  0999 V2000
  129.8800  127.3800   65.1640 N   0  0  0  0  0  0  0  0  0  0  0  0
  129.5580  127.3130   66.4960 C   0  0  0  0  0  0  0  0  0  0  0  0
  129.0580  128.4020   67.2260 C   0  0  0  0  0  0  0  0  0  0  0  0
  128.7630  129.7590   66.7570 C   0  0  0  0  0  0  0  0  0  0  0  0
  128.6210  130.6840   67.5590 O   0  0  0  0  0  0  0  0  0  0  0  0
  128.6570  129.9000   65.4120 N   0  0  0  0  0  0  0  0  0  0  0  0
  128.3760  131.0610   64.7020 C   0  0  0  0  0  0  0  0  0  0  0  0
  127.6160  131.0720   63.5330 C   0  0  0  0  0  0  0  0  0  0  0  0
  127.5690  132.3930   63.1500 C   0  0  0  0  0  0  0  0  0  0  0  0
  128.2650  133.1370   64.0430 O   0  0  0  0  0  0  0  0  0  0  0  0
  128.7720  132.2820   65.0210 N   0  0  0  0  0  0  0  0  0  0  0  0
  128.7840  127.9670   68.9130 S   0  0  0  0  0  0  0  0  0  0  0  0
  129.3570  126.3400   68.6330 C   0  0  0  0  0  0  0  0  0  0  0  0
  129.4270  125.4460   69.6180 N   0  0  0  0  0  0  0  0  0  0  0  0
  129.9030  124.2140   69.2990 C   0  0  0  0  0  0  0  0  0  0  0  0
  129.9900  123.2360   70.4260 C   0  0  0  0  0  0  0  0  0  0  0  0
  129.1230  122.1390   70.5020 C   0  0  0  0  0  0  0  0  0  0  0  0
  129.2000  121.2400   71.5610 C   0  0  0  0  0  0  0  0  0  0  0  0
  130.1370  121.4130   72.5920 C   0  0  0  0  0  0  0  0  0  0  0  0
  130.2280  120.5150   73.6620 N   0  0  0  0  0  0  0  0  0  0  0  0
  131.1740  119.3820   73.6370 C   0  0  0  0  0  0  0  0  0  0  0  0
  131.3860  118.7170   75.0130 C   0  0  0  0  0  0  0  0  0  0  0  0
  130.1380  118.3230   75.5590 O   0  0  0  0  0  0  0  0  0  0  0  0
  129.2790  119.4350   75.7460 C   0  0  0  0  0  0  0  0  0  0  0  0
  129.0030  120.1280   74.3940 C   0  0  0  0  0  0  0  0  0  0  0  0
  131.0150  122.5010   72.5000 C   0  0  0  0  0  0  0  0  0  0  0  0
  130.9420  123.3980   71.4390 C   0  0  0  0  0  0  0  0  0  0  0  0
  130.2810  123.8730   67.9980 C   0  0  0  0  0  0  0  0  0  0  0  0
  130.1900  124.8040   66.9560 C   0  0  0  0  0  0  0  0  0  0  0  0
  130.5750  124.3830   65.5850 C   0  0  0  0  0  0  0  0  0  0  0  0
  131.6500  124.9930   64.9370 C   0  0  0  0  0  0  0  0  0  0  0  0
  132.0250  124.5880   63.6600 C   0  0  0  0  0  0  0  0  0  0  0  0
  131.3360  123.5610   62.9960 C   0  0  0  0  0  0  0  0  0  0  0  0
  131.7060  123.1280   61.7200 N   0  0  0  0  0  0  0  0  0  0  0  0
  133.0060  123.5500   61.1630 C   0  0  0  0  0  0  0  0  0  0  0  0
  133.1090  123.3440   59.6360 C   0  0  0  0  0  0  0  0  0  0  0  0
  132.8390  121.9890   59.3100 O   0  0  0  0  0  0  0  0  0  0  0  0
  131.5370  121.5980   59.7200 C   0  0  0  0  0  0  0  0  0  0  0  0
  131.3920  121.7640   61.2480 C   0  0  0  0  0  0  0  0  0  0  0  0
  130.2700  122.9420   63.6650 C   0  0  0  0  0  0  0  0  0  0  0  0
  129.8940  123.3480   64.9430 C   0  0  0  0  0  0  0  0  0  0  0  0
  129.7260  126.1110   67.2740 C   0  0  0  0  0  0  0  0  0  0  0  0
  1  2  1  0
  2  3  2  0
  3  4  1  0
  4  5  2  0
  4  6  1  0
  6  7  1  0
  7  8  1  0
  8  9  2  0
  9 10  1  0
 10 11  1  0
  3 12  1  0
 12 13  1  0
 13 14  2  0
 14 15  1  0
 15 16  1  0
 16 17  2  0
 17 18  1  0
 18 19  2  0
 19 20  1  0
 20 21  1  0
 21 22  1  0
 22 23  1  0
 23 24  1  0
 24 25  1  0
 19 26  1  0
 26 27  2  0
 15 28  2  0
 28 29  1  0
 29 30  1  0
 30 31  2  0
 31 32  1  0
 32 33  2  0
 33 34  1  0
 34 35  1  0
 35 36  1  0
 36 37  1  0
 37 38  1  0
 38 39  1  0
 33 40  1  0
 40 41  2  0
 29 42  2  0
 42  2  1  0
 11  7  2  0
 42 13  1  0
 27 16  1  0
 41 30  1  0
 25 20  1  0
 39 34  1  0
M  END
>  <Binding energies>  (40) 
[-8.98]

>  <Ligand effiencies>  (40) 
[-0.19955555555555557]

>  <Interactions>  (40) 
["V-B:GLU:543:CG:9875, V-A:HIS:456:CE1:4064, V-B:ALA:541:CB:9860, V-B:GLU:543:CB:9874, V-B:TYR:539:CD2:9842, V-A:LEU:475:CD2:4254, V-A:GLU:543:CB:4901, V-B:TYR:539:CE2:9844, V-A:ILE:369:CD1:3234, V-A:ASP:366:CG:3208, V-B:HIS:456:CE1:9037, V-A:TYR:484:CZ:4342, V-A:GLU:543:CG:4902, V-B:GLU:543:C:9870, H-B:TYR:484:OH:9315, V-A:TYR:484:CE1:4340, V-B:GLU:543:CA:9872, V-A:GLU:543:CD:4903, V-B:GLU:543:CD:9876, H-A:GLU:543:OE2:4905, H-A:HIS:456:NE2:4065, H-A:GLU:543:OE1:4904, V-A:TYR:484:CG:4337, V-A:TYR:484:CD1:4338, V-A:ASP:473:CG:4235, V-A:HIS:456:CG:4061, V-A:ASP:473:CB:4234, H-B:GLU:543:OE2:9878, V-A:HIS:456:CD2:4063, V-A:TYR:484:CB:4336, V-A:TYR:484:C:4332, V-A:ASP:485:CA:4348, V-A:PRO:486:CD:4361"]

$$$$
9c_Ghoteimi_2023
     RDKit          3D

 42 48  0  0  0  0  0  0  0  0999 V2000
  129.8890  127.3400   64.9780 N   0  0  0  0  0  0  0  0  0  0  0  0
  129.5450  127.2890   66.3040 C   0  0  0  0  0  0  0  0  0  0  0  0
  129.0190  128.3820   67.0100 C   0  0  0  0  0  0  0  0  0  0  0  0
  128.7200  129.7300   66.5150 C   0  0  0  0  0  0  0  0  0  0  0  0
  128.7220  130.6970   67.2790 O   0  0  0  0  0  0  0  0  0  0  0  0
  128.4440  129.8150   65.1910 N   0  0  0  0  0  0  0  0  0  0  0  0
  128.1170  130.9600   64.4790 C   0  0  0  0  0  0  0  0  0  0  0  0
  128.7240  132.1270   64.5010 N   0  0  0  0  0  0  0  0  0  0  0  0
  128.1360  132.9950   63.6990 C   0  0  0  0  0  0  0  0  0  0  0  0
  127.0230  132.5330   63.0030 C   0  0  0  0  0  0  0  0  0  0  0  0
  126.7390  130.8720   63.4280 S   0  0  0  0  0  0  0  0  0  0  0  0
  128.7210  127.9690   68.6970 S   0  0  0  0  0  0  0  0  0  0  0  0
  129.3170  126.3450   68.4530 C   0  0  0  0  0  0  0  0  0  0  0  0
  129.3780  125.4650   69.4510 N   0  0  0  0  0  0  0  0  0  0  0  0
  129.8740  124.2350   69.1590 C   0  0  0  0  0  0  0  0  0  0  0  0
  129.9520  123.2750   70.3020 C   0  0  0  0  0  0  0  0  0  0  0  0
  129.1300  122.1430   70.3550 C   0  0  0  0  0  0  0  0  0  0  0  0
  129.1990  121.2580   71.4260 C   0  0  0  0  0  0  0  0  0  0  0  0
  130.0860  121.4790   72.4930 C   0  0  0  0  0  0  0  0  0  0  0  0
  130.1720  120.5940   73.5730 N   0  0  0  0  0  0  0  0  0  0  0  0
  131.0490  119.4060   73.5260 C   0  0  0  0  0  0  0  0  0  0  0  0
  131.2880  118.7520   74.9030 C   0  0  0  0  0  0  0  0  0  0  0  0
  130.0450  118.4410   75.5130 O   0  0  0  0  0  0  0  0  0  0  0  0
  129.2620  119.6050   75.7190 C   0  0  0  0  0  0  0  0  0  0  0  0
  128.9640  120.2910   74.3670 C   0  0  0  0  0  0  0  0  0  0  0  0
  130.9200  122.6040   72.4250 C   0  0  0  0  0  0  0  0  0  0  0  0
  130.8530  123.4870   71.3510 C   0  0  0  0  0  0  0  0  0  0  0  0
  130.2790  123.8790   67.8700 C   0  0  0  0  0  0  0  0  0  0  0  0
  130.1960  124.7930   66.8140 C   0  0  0  0  0  0  0  0  0  0  0  0
  130.6090  124.3580   65.4570 C   0  0  0  0  0  0  0  0  0  0  0  0
  131.7110  124.9460   64.8330 C   0  0  0  0  0  0  0  0  0  0  0  0
  132.1110  124.5280   63.5660 C   0  0  0  0  0  0  0  0  0  0  0  0
  131.4190  123.5120   62.8900 C   0  0  0  0  0  0  0  0  0  0  0  0
  131.8110  123.0690   61.6220 N   0  0  0  0  0  0  0  0  0  0  0  0
  132.8850  123.7890   60.9080 C   0  0  0  0  0  0  0  0  0  0  0  0
  132.9440  123.4540   59.4020 C   0  0  0  0  0  0  0  0  0  0  0  0
  133.0720  122.0520   59.2210 O   0  0  0  0  0  0  0  0  0  0  0  0
  131.9770  121.3480   59.7840 C   0  0  0  0  0  0  0  0  0  0  0  0
  131.8880  121.6310   61.3000 C   0  0  0  0  0  0  0  0  0  0  0  0
  130.3270  122.9140   63.5350 C   0  0  0  0  0  0  0  0  0  0  0  0
  129.9260  123.3320   64.8010 C   0  0  0  0  0  0  0  0  0  0  0  0
  129.7120  126.1010   67.1040 C   0  0  0  0  0  0  0  0  0  0  0  0
  1  2  1  0
  2  3  2  0
  3  4  1  0
  4  5  2  0
  4  6  1  0
  6  7  1  0
  7  8  2  0
  8  9  1  0
  9 10  2  0
 10 11  1  0
  3 12  1  0
 12 13  1  0
 13 14  2  0
 14 15  1  0
 15 16  1  0
 16 17  2  0
 17 18  1  0
 18 19  2  0
 19 20  1  0
 20 21  1  0
 21 22  1  0
 22 23  1  0
 23 24  1  0
 24 25  1  0
 19 26  1  0
 26 27  2  0
 15 28  2  0
 28 29  1  0
 29 30  1  0
 30 31  2  0
 31 32  1  0
 32 33  2  0
 33 34  1  0
 34 35  1  0
 35 36  1  0
 36 37  1  0
 37 38  1  0
 38 39  1  0
 33 40  1  0
 40 41  2  0
 29 42  2  0
 42  2  1  0
 11  7  1  0
 42 13  1  0
 27 16  1  0
 41 30  1  0
 25 20  1  0
 39 34  1  0
M  END
>  <Binding energies>  (41) 
[-8.61]

>  <Ligand effiencies>  (41) 
[-0.19133333333333333]

>  <Interactions>  (41) 
["V-B:GLU:543:CG:9875, V-A:HIS:456:CE1:4064, V-B:ALA:541:CB:9860, V-B:GLU:543:CB:9874, V-B:TYR:539:CD2:9842, V-A:LEU:475:CD2:4254, V-A:GLU:543:CB:4901, V-B:TYR:539:CE2:9844, V-A:ILE:369:CD1:3234, V-A:ASP:366:CG:3208, V-B:HIS:456:CE1:9037, V-A:TYR:484:CZ:4342, V-A:GLU:543:CG:4902, V-B:GLU:543:C:9870, H-B:TYR:484:OH:9315, V-A:TYR:484:CE1:4340, V-B:GLU:543:CA:9872, V-A:GLU:543:CD:4903, V-B:GLU:543:CD:9876, H-A:GLU:543:OE2:4905, H-A:HIS:456:NE2:4065, H-A:GLU:543:OE1:4904, V-A:TYR:484:CG:4337, V-A:TYR:484:CD1:4338, V-A:ASP:473:CG:4235, V-A:HIS:456:CG:4061, V-A:ASP:473:CB:4234, V-A:ALA:541:CB:4887, H-B:GLU:543:OE2:9878, V-A:HIS:456:CD2:4063, V-A:TYR:484:CB:4336, V-A:TYR:484:C:4332, V-A:ASP:485:CA:4348, V-A:TYR:484:CA:4334"]

$$$$
RR11_Rahimova_2017
     RDKit          3D

 33 38  0  0  0  0  0  0  0  0999 V2000
  124.8620  129.6440   57.5180 N   0  0  0  0  0  0  0  0  0  0  0  0
  125.2810  129.5160   58.8410 C   0  0  0  0  0  0  0  0  0  0  0  0
  125.0800  130.5650   59.7360 C   0  0  0  0  0  0  0  0  0  0  0  0
  125.4960  130.4350   61.0580 C   0  0  0  0  0  0  0  0  0  0  0  0
  126.1160  129.2570   61.4970 C   0  0  0  0  0  0  0  0  0  0  0  0
  126.5580  129.1160   62.9240 C   0  0  0  0  0  0  0  0  0  0  0  0
  127.4520  129.8870   63.5040 N   0  0  0  0  0  0  0  0  0  0  0  0
  127.5460  129.4270   64.7910 C   0  0  0  0  0  0  0  0  0  0  0  0
  128.3460  129.8950   65.8420 C   0  0  0  0  0  0  0  0  0  0  0  0
  128.2480  129.2600   67.0870 C   0  0  0  0  0  0  0  0  0  0  0  0
  129.1100  129.7420   68.2460 C   0  0  0  0  0  0  0  0  0  0  0  0
  129.1940  128.7330   69.3820 C   0  0  0  0  0  0  0  0  0  0  0  0
  129.1260  129.1790   70.7070 C   0  0  0  0  0  0  0  0  0  0  0  0
  129.1900  128.2910   71.7830 C   0  0  0  0  0  0  0  0  0  0  0  0
  129.3200  126.9240   71.5040 C   0  0  0  0  0  0  0  0  0  0  0  0
  129.4100  125.8660   72.3710 N   0  0  0  0  0  0  0  0  0  0  0  0
  129.5210  124.8010   71.6070 C   0  0  0  0  0  0  0  0  0  0  0  0
  129.6650  123.3980   72.1230 C   0  0  0  0  0  0  0  0  0  0  0  0
  128.5320  122.6440   72.4580 C   0  0  0  0  0  0  0  0  0  0  0  0
  128.6650  121.3470   72.9460 C   0  0  0  0  0  0  0  0  0  0  0  0
  129.9340  120.7940   73.1040 C   0  0  0  0  0  0  0  0  0  0  0  0
  130.0690  119.4960   73.5980 N   0  0  0  0  0  0  0  0  0  0  0  0
  131.0690  121.5290   72.7710 C   0  0  0  0  0  0  0  0  0  0  0  0
  130.9340  122.8260   72.2830 C   0  0  0  0  0  0  0  0  0  0  0  0
  129.5000  125.1220   70.2660 N   0  0  0  0  0  0  0  0  0  0  0  0
  129.3740  126.4860   70.1590 C   0  0  0  0  0  0  0  0  0  0  0  0
  129.3050  127.3690   69.0790 C   0  0  0  0  0  0  0  0  0  0  0  0
  127.3900  128.1690   67.2650 C   0  0  0  0  0  0  0  0  0  0  0  0
  126.5840  127.6770   66.2360 C   0  0  0  0  0  0  0  0  0  0  0  0
  126.6790  128.3300   65.0050 C   0  0  0  0  0  0  0  0  0  0  0  0
  126.0660  128.1580   63.7860 N   0  0  0  0  0  0  0  0  0  0  0  0
  126.3120  128.2110   60.5860 C   0  0  0  0  0  0  0  0  0  0  0  0
  125.8960  128.3380   59.2630 C   0  0  0  0  0  0  0  0  0  0  0  0
  1  2  1  0
  2  3  2  0
  3  4  1  0
  4  5  2  0
  5  6  1  0
  6  7  2  0
  7  8  1  0
  8  9  2  0
  9 10  1  0
 10 11  1  0
 11 12  1  0
 12 13  2  0
 13 14  1  0
 14 15  2  0
 15 16  1  0
 16 17  2  0
 17 18  1  0
 18 19  2  0
 19 20  1  0
 20 21  2  0
 21 22  1  0
 21 23  1  0
 23 24  2  0
 17 25  1  0
 25 26  1  0
 26 27  2  0
 10 28  2  0
 28 29  1  0
 29 30  2  0
 30 31  1  0
  5 32  1  0
 32 33  2  0
 33  2  1  0
 31  6  1  0
 30  8  1  0
 27 12  1  0
 26 15  1  0
 24 18  1  0
M  END
>  <Binding energies>  (42) 
[-7.56]

>  <Ligand effiencies>  (42) 
[-0.19384615384615383]

>  <Interactions>  (42) 
["H-B:GLU:543:O:9871, V-A:HIS:456:CE1:4064, H-B:LYS:547:NZ:9919, V-B:GLU:543:CB:9874, V-A:GLU:543:CB:4901, V-B:HIS:456:CE1:9037, V-A:GLU:543:CG:4902, V-B:GLU:543:C:9870, V-A:GLU:543:CD:4903, V-B:GLU:543:CD:9876, V-A:TYR:484:CG:4337, V-A:GLU:543:C:4897, V-B:HIS:456:CD2:9035, V-A:HIS:456:CG:4061, V-A:ASP:473:CB:4234, V-B:ASP:366:CB:8179, H-B:GLU:543:OE2:9878, V-B:ASP:366:CG:8180, H-B:GLU:543:OE1:9877, V-B:ARG:545:CZ:9894, H-A:TYR:539:OH:4873, V-A:TYR:484:CB:4336, V-A:GLU:543:CA:4899, H-B:TYR:531:OH:9763, V-A:TYR:484:CD2:4339, V-A:TYR:484:C:4332, V-B:GLY:544:CA:9882, H-A:TYR:484:O:4333"]

$$$$
RR16_Rahimova_2017
     RDKit          3D

 44 49  0  0  0  0  0  0  0  0999 V2000
  129.4960  126.0970   73.0650 O   0  0  0  0  0  0  0  0  0  0  0  0
  129.9000  127.4950   72.8760 S   0  0  0  0  0  0  0  0  0  0  0  0
  131.3090  127.8910   72.9720 O   0  0  0  0  0  0  0  0  0  0  0  0
  128.9760  128.4740   74.0170 N   0  0  0  0  0  0  0  0  0  0  0  0
  128.4020  129.7780   73.6110 C   0  0  0  0  0  0  0  0  0  0  0  0
  127.1570  130.0810   74.4840 C   0  0  0  0  0  0  0  0  0  0  0  0
  126.8980  131.5530   74.8610 C   0  0  0  0  0  0  0  0  0  0  0  0
  126.8630  132.5090   73.6560 C   0  0  0  0  0  0  0  0  0  0  0  0
  128.2250  133.0780   73.2150 C   0  0  0  0  0  0  0  0  0  0  0  0
  129.2880  132.0650   72.7450 C   0  0  0  0  0  0  0  0  0  0  0  0
  129.5240  130.8420   73.6520 C   0  0  0  0  0  0  0  0  0  0  0  0
  129.2960  127.9960   71.2680 C   0  0  0  0  0  0  0  0  0  0  0  0
  128.4030  127.1830   70.5660 C   0  0  0  0  0  0  0  0  0  0  0  0
  128.0370  127.5240   69.2670 C   0  0  0  0  0  0  0  0  0  0  0  0
  128.5640  128.6750   68.6770 C   0  0  0  0  0  0  0  0  0  0  0  0
  128.2060  129.0410   66.9600 S   0  0  0  0  0  0  0  0  0  0  0  0
  128.7380  130.3800   66.6760 O   0  0  0  0  0  0  0  0  0  0  0  0
  126.7860  128.7440   66.7330 O   0  0  0  0  0  0  0  0  0  0  0  0
  129.1690  127.8570   66.0550 N   0  0  0  0  0  0  0  0  0  0  0  0
  129.7450  126.7680   66.8850 C   0  0  0  0  0  0  0  0  0  0  0  0
  130.8040  125.9810   66.0860 C   0  0  0  0  0  0  0  0  0  0  0  0
  130.2450  125.4780   64.7320 C   0  0  0  0  0  0  0  0  0  0  0  0
  131.2950  124.7350   63.9020 C   0  0  0  0  0  0  0  0  0  0  0  0
  132.6430  125.1110   63.9860 C   0  0  0  0  0  0  0  0  0  0  0  0
  133.6340  124.4560   63.2540 C   0  0  0  0  0  0  0  0  0  0  0  0
  134.9480  124.8360   63.3520 O   0  0  0  0  0  0  0  0  0  0  0  0
  133.2490  123.3950   62.4200 C   0  0  0  0  0  0  0  0  0  0  0  0
  133.9860  122.5750   61.6150 N   0  0  0  0  0  0  0  0  0  0  0  0
  133.1180  121.6760   61.0350 N   0  0  0  0  0  0  0  0  0  0  0  0
  131.8670  121.9680   61.4410 N   0  0  0  0  0  0  0  0  0  0  0  0
  130.7510  121.1180   61.0460 C   0  0  0  0  0  0  0  0  0  0  0  0
  129.6230  121.9000   60.3870 C   0  0  0  0  0  0  0  0  0  0  0  0
  128.5710  122.4010   61.1620 C   0  0  0  0  0  0  0  0  0  0  0  0
  127.5470  123.1370   60.5630 C   0  0  0  0  0  0  0  0  0  0  0  0
  127.5710  123.3760   59.1890 C   0  0  0  0  0  0  0  0  0  0  0  0
  128.6180  122.8810   58.4120 C   0  0  0  0  0  0  0  0  0  0  0  0
  128.6560  123.1850   56.7130 Cl  0  0  0  0  0  0  0  0  0  0  0  0
  129.6410  122.1410   59.0100 C   0  0  0  0  0  0  0  0  0  0  0  0
  131.8860  123.0260   62.3340 C   0  0  0  0  0  0  0  0  0  0  0  0
  130.8910  123.6840   63.0650 C   0  0  0  0  0  0  0  0  0  0  0  0
  129.5350  126.6030   63.9340 C   0  0  0  0  0  0  0  0  0  0  0  0
  128.5240  127.3760   64.8050 C   0  0  0  0  0  0  0  0  0  0  0  0
  129.4230  129.5090   69.3960 C   0  0  0  0  0  0  0  0  0  0  0  0
  129.7920  129.1670   70.6930 C   0  0  0  0  0  0  0  0  0  0  0  0
  1  2  2  0
  2  3  2  0
  2  4  1  0
  4  5  1  0
  5  6  1  0
  6  7  1  0
  7  8  1  0
  8  9  1  0
  9 10  1  0
 10 11  1  0
  2 12  1  0
 12 13  2  0
 13 14  1  0
 14 15  2  0
 15 16  1  0
 16 17  2  0
 16 18  2  0
 16 19  1  0
 19 20  1  0
 20 21  1  0
 21 22  1  0
 22 23  1  0
 23 24  2  0
 24 25  1  0
 25 26  1  0
 25 27  2  0
 27 28  1  0
 28 29  2  0
 29 30  1  0
 30 31  1  0
 31 32  1  0
 32 33  2  0
 33 34  1  0
 34 35  2  0
 35 36  1  0
 36 37  1  0
 36 38  2  0
 30 39  1  0
 39 40  2  0
 22 41  1  0
 41 42  1  0
 15 43  1  0
 43 44  2  0
 11  5  1  0
 44 12  1  0
 42 19  1  0
 40 23  1  0
 39 27  1  0
 38 32  1  0
M  END
>  <Binding energies>  (43) 
[-9.34]

>  <Ligand effiencies>  (43) 
[-0.19458333333333333]

>  <Interactions>  (43) 
["V-B:GLU:543:CG:9875, V-A:HIS:456:CE1:4064, H-B:LYS:547:NZ:9919, V-B:ALA:541:CB:9860, V-B:TYR:539:C:9835, V-B:TYR:539:CD2:9842, V-A:LEU:475:CD2:4254, V-A:GLU:543:CB:4901, V-B:TYR:539:CE2:9844, V-A:ILE:369:CD1:3234, V-B:TYR:539:CZ:9845, V-B:HIS:456:CE1:9037, H-B:TYR:484:OH:9315, V-B:GLU:543:CD:9876, H-A:ASP:366:OD2:3210, H-A:ARG:545:NH1:4922, H-A:ARG:545:NH2:4923, H-A:ASP:366:OD1:3209, H-A:GLY:454:N:4045, V-A:ARG:545:CZ:4921, V-B:PRO:540:CA:9851, V-A:GLU:543:C:4897, V-A:LYS:547:CE:4945, V-B:HIS:456:CD2:9035, V-B:HIS:456:CG:9033, H-A:LYS:547:NZ:4946, V-B:HIS:456:CB:9032, V-B:TYR:539:CE1:9843, V-B:MET:535:CE:9803, V-A:GLU:543:CA:4899, V-B:ASP:473:CB:9206, V-B:TYR:484:CB:9308, V-B:ASP:473:CG:9207"]

$$$$
RR18_Rahimova_2017
     RDKit          3D

 36 41  0  0  0  0  0  0  0  0999 V2000
  133.0770  124.5090   62.2510 C   0  0  0  0  0  0  0  0  0  0  0  0
  131.8680  125.4040   62.1390 C   0  0  0  0  0  0  0  0  0  0  0  0
  131.4110  126.5030   62.8470 C   0  0  0  0  0  0  0  0  0  0  0  0
  130.2140  126.8970   62.2520 C   0  0  0  0  0  0  0  0  0  0  0  0
  129.9810  126.0250   61.2010 C   0  0  0  0  0  0  0  0  0  0  0  0
  128.8760  125.8980   60.1560 C   0  0  1  0  0  0  0  0  0  0  0  0
  127.7330  124.9590   60.6450 C   0  0  0  0  0  0  0  0  0  0  0  0
  127.9880  123.5410   60.8730 C   0  0  0  0  0  0  0  0  0  0  0  0
  127.1450  122.8020   61.3860 O   0  0  0  0  0  0  0  0  0  0  0  0
  129.2080  123.1240   60.4600 N   0  0  0  0  0  0  0  0  0  0  0  0
  129.8090  121.8490   60.5320 C   0  0  0  0  0  0  0  0  0  0  0  0
  129.1900  120.7320   61.1230 C   0  0  0  0  0  0  0  0  0  0  0  0
  129.8420  119.5010   61.1680 C   0  0  0  0  0  0  0  0  0  0  0  0
  131.1190  119.3660   60.6320 C   0  0  0  0  0  0  0  0  0  0  0  0
  131.7490  120.4660   60.0540 C   0  0  0  0  0  0  0  0  0  0  0  0
  131.1070  121.7080   60.0010 C   0  0  0  0  0  0  0  0  0  0  0  0
  131.8430  122.8820   59.3610 C   0  0  0  0  0  0  0  0  0  0  0  0
  126.5290  125.5110   60.9500 C   0  0  0  0  0  0  0  0  0  0  0  0
  126.1990  126.8170   60.7490 N   0  0  0  0  0  0  0  0  0  0  0  0
  127.0310  127.5940   60.1610 C   0  0  0  0  0  0  0  0  0  0  0  0
  126.6920  129.2460   59.7010 S   0  0  0  0  0  0  0  0  0  0  0  0
  128.3200  129.4340   58.9770 C   0  0  0  0  0  0  0  0  0  0  0  0
  128.8330  130.5560   58.3620 C   0  0  0  0  0  0  0  0  0  0  0  0
  127.9930  131.7470   58.1700 C   0  0  0  0  0  0  0  0  0  0  0  0
  126.8280  131.9560   58.5050 O   0  0  0  0  0  0  0  0  0  0  0  0
  128.7250  132.6480   57.5070 N   0  0  0  0  0  0  0  0  0  0  0  0
  129.9920  132.2190   57.2510 C   0  0  0  0  0  0  0  0  0  0  0  0
  131.0120  132.9090   56.5970 C   0  0  0  0  0  0  0  0  0  0  0  0
  132.2570  132.3010   56.4640 C   0  0  0  0  0  0  0  0  0  0  0  0
  132.4620  131.0270   56.9910 C   0  0  0  0  0  0  0  0  0  0  0  0
  131.4240  130.3560   57.6420 C   0  0  0  0  0  0  0  0  0  0  0  0
  130.1510  130.9440   57.7660 C   0  0  0  0  0  0  0  0  0  0  0  0
  129.0340  128.1670   59.1350 C   0  0  0  0  0  0  0  0  0  0  0  0
  130.1570  127.9040   58.7150 O   0  0  0  0  0  0  0  0  0  0  0  0
  128.2940  127.2430   59.8070 N   0  0  0  0  0  0  0  0  0  0  0  0
  130.9930  125.1180   61.1400 O   0  0  0  0  0  0  0  0  0  0  0  0
  1  2  1  0
  2  3  2  0
  3  4  1  0
  4  5  2  0
  6  5  1  1
  6  7  1  0
  7  8  1  0
  8  9  2  0
  8 10  1  0
 10 11  1  0
 11 12  2  0
 12 13  1  0
 13 14  2  0
 14 15  1  0
 15 16  2  0
 16 17  1  0
  7 18  2  0
 18 19  1  0
 19 20  2  0
 20 21  1  0
 21 22  1  0
 22 23  2  0
 23 24  1  0
 24 25  2  0
 24 26  1  0
 26 27  1  0
 27 28  2  0
 28 29  1  0
 29 30  2  0
 30 31  1  0
 31 32  2  0
 22 33  1  0
 33 34  2  0
 33 35  1  0
  5 36  1  0
 36  2  1  0
 35  6  1  0
 16 11  1  0
 35 20  1  0
 32 23  1  0
 32 27  1  0
M  END
>  <Binding energies>  (44) 
[-7.88]

>  <Ligand effiencies>  (44) 
[-0.20736842105263156]

>  <Interactions>  (44) 
["V-B:PRO:540:C:9849, V-A:TRP:381:CZ3:3366, V-A:TRP:381:CZ2:3365, V-B:ALA:541:CB:9860, V-B:ALA:541:CA:9858, V-A:TRP:381:CH2:3367, V-B:TYR:539:CD2:9842, V-A:LEU:475:CD2:4254, V-B:TYR:539:CE2:9844, V-A:ASP:366:CG:3208, V-B:GLU:543:CD:9876, H-B:ALA:541:N:9859, V-A:TYR:539:CE2:4871, V-A:PRO:540:CA:4878, V-A:TYR:539:CD2:4869, V-A:TYR:539:C:4862, V-A:PRO:540:N:4879, V-A:LEU:363:CD1:3184, V-A:TYR:531:CE2:4788, V-A:TYR:539:CG:4867, V-A:TYR:531:CZ:4789, H-A:TYR:531:OH:4790, V-A:PRO:540:CB:4880, H-A:TYR:539:OH:4873, V-A:TYR:539:CZ:4872, V-A:TYR:539:CE1:4870, V-A:TYR:539:CD1:4868, V-A:PRO:540:CD:4882, H-B:ARG:545:NH2:9896, H-A:TYR:539:O:4863, V-A:PRO:540:CG:4881"]

$$$$
RR20_Rahimova_2017
     RDKit          3D

 38 43  0  0  0  0  0  0  0  0999 V2000
  129.5300  118.0270   60.4640 C   0  0  0  0  0  0  0  0  0  0  0  0
  130.2510  119.3620   60.5090 C   0  0  0  0  0  0  0  0  0  0  0  0
  129.5310  120.5340   60.7430 C   0  0  0  0  0  0  0  0  0  0  0  0
  130.1920  121.7580   60.7940 C   0  0  0  0  0  0  0  0  0  0  0  0
  131.5760  121.8230   60.5970 C   0  0  0  0  0  0  0  0  0  0  0  0
  132.2780  123.1610   60.6760 C   0  0  0  0  0  0  0  0  0  0  0  0
  132.4010  123.8030   59.6300 O   0  0  0  0  0  0  0  0  0  0  0  0
  132.7300  123.6080   61.8830 N   0  0  0  0  0  0  0  0  0  0  0  0
  134.0460  124.2530   62.0230 C   0  0  0  0  0  0  0  0  0  0  0  0
  134.1310  124.7470   63.4580 C   0  0  0  0  0  0  0  0  0  0  0  0
  132.7070  124.6790   63.9190 C   0  0  0  0  0  0  0  0  0  0  0  0
  132.1550  125.0900   65.1320 C   0  0  0  0  0  0  0  0  0  0  0  0
  130.8230  124.7930   65.4470 C   0  0  0  0  0  0  0  0  0  0  0  0
  130.2250  125.2430   66.7510 C   0  0  0  0  0  0  0  0  0  0  0  0
  130.3980  124.4810   67.8190 N   0  0  0  0  0  0  0  0  0  0  0  0
  129.8540  124.9780   68.9000 C   0  0  0  0  0  0  0  0  0  0  0  0
  129.8530  124.4440   70.1800 N   0  0  0  0  0  0  0  0  0  0  0  0
  130.5730  123.3840   70.6210 C   0  0  0  0  0  0  0  0  0  0  0  0
  131.3650  122.7500   69.9210 O   0  0  0  0  0  0  0  0  0  0  0  0
  130.4100  122.9590   72.0990 C   0  0  0  0  0  0  0  0  0  0  0  0
  129.8350  121.6100   72.2510 N   0  0  0  0  0  0  0  0  0  0  0  0
  129.4060  121.3340   73.6300 C   0  0  0  0  0  0  0  0  0  0  0  0
  129.0640  119.8360   73.7930 C   0  0  0  0  0  0  0  0  0  0  0  0
  128.1990  119.2940   72.6550 C   0  0  0  0  0  0  0  0  0  0  0  0
  127.5700  118.0480   72.7580 C   0  0  0  0  0  0  0  0  0  0  0  0
  126.8130  117.5370   71.7070 C   0  0  0  0  0  0  0  0  0  0  0  0
  126.6730  118.2720   70.5340 C   0  0  0  0  0  0  0  0  0  0  0  0
  127.2870  119.5180   70.4210 C   0  0  0  0  0  0  0  0  0  0  0  0
  128.0510  120.0420   71.4700 C   0  0  0  0  0  0  0  0  0  0  0  0
  128.6760  121.4340   71.3680 C   0  0  0  0  0  0  0  0  0  0  0  0
  129.0460  126.4790   68.6640 S   0  0  0  0  0  0  0  0  0  0  0  0
  129.4740  126.4180   66.9710 C   0  0  0  0  0  0  0  0  0  0  0  0
  129.0150  127.5060   66.0250 C   0  0  0  0  0  0  0  0  0  0  0  0
  130.0750  124.0260   64.5400 C   0  0  0  0  0  0  0  0  0  0  0  0
  130.6300  123.5970   63.3350 C   0  0  0  0  0  0  0  0  0  0  0  0
  131.9360  123.9730   62.9940 C   0  0  0  0  0  0  0  0  0  0  0  0
  132.2970  120.6400   60.3910 C   0  0  0  0  0  0  0  0  0  0  0  0
  131.6360  119.4140   60.3420 C   0  0  0  0  0  0  0  0  0  0  0  0
  1  2  1  0
  2  3  2  0
  3  4  1  0
  4  5  2  0
  5  6  1  0
  6  7  2  0
  6  8  1  0
  8  9  1  0
  9 10  1  0
 10 11  1  0
 11 12  2  0
 12 13  1  0
 13 14  1  0
 14 15  1  0
 15 16  2  0
 16 17  1  0
 17 18  1  0
 18 19  2  0
 18 20  1  0
 20 21  1  0
 21 22  1  0
 22 23  1  0
 23 24  1  0
 24 25  2  0
 25 26  1  0
 26 27  2  0
 27 28  1  0
 28 29  2  0
 29 30  1  0
 16 31  1  0
 31 32  1  0
 32 33  1  0
 13 34  2  0
 34 35  1  0
 35 36  2  0
  5 37  1  0
 37 38  2  0
 38  2  1  0
 36  8  1  0
 36 11  1  0
 32 14  2  0
 30 21  1  0
 29 24  1  0
M  END
>  <Binding energies>  (45) 
[-9.94]

>  <Ligand effiencies>  (45) 
[-0.25487179487179484]

>  <Interactions>  (45) 
["V-B:PRO:540:C:9849, V-B:GLU:543:CG:9875, V-A:TRP:381:CD2:3360, V-A:TRP:381:CZ3:3366, H-B:GLU:543:O:9871, V-A:HIS:456:CE1:4064, V-A:PRO:482:CG:4322, V-B:TYR:539:CB:9839, V-A:TRP:381:CZ2:3365, V-B:ALA:541:CB:9860, V-B:GLU:543:CB:9874, V-A:TRP:381:CE3:3363, V-A:TRP:381:CH2:3367, V-B:TYR:539:C:9835, V-B:TYR:539:CD2:9842, V-A:LEU:475:CD2:4254, V-A:TRP:381:CE2:3362, V-A:PRO:482:CB:4321, V-B:TYR:539:CE2:9844, V-A:ILE:369:CD1:3234, V-A:ASP:366:CG:3208, V-B:GLU:543:C:9870, V-A:TYR:484:CE1:4340, V-B:GLU:543:CA:9872, V-A:GLU:543:CD:4903, V-B:GLU:543:CD:9876, H-A:TYR:484:OH:4343, V-A:ARG:545:CZ:4921, H-A:HIS:456:NE2:4065, V-A:TYR:484:CG:4337, V-A:TYR:484:CD1:4338, V-A:HIS:456:CG:4061, V-A:GLY:453:CA:4039, V-A:HIS:456:CD2:4063, V-A:GLY:453:C:4037, V-A:TYR:484:CB:4336, V-B:VAL:542:C:9862, V-A:SER:483:CA:4326, V-A:SER:483:CB:4328, V-B:VAL:542:CG1:9867, V-B:VAL:542:CB:9866"]

$$$$
RR21_Rahimova_2017
     RDKit          3D

 40 45  0  0  0  0  0  0  0  0999 V2000
  132.9020  124.2400   58.5620 C   0  0  0  0  0  0  0  0  0  0  0  0
  132.9270  124.1430   59.9830 O   0  0  0  0  0  0  0  0  0  0  0  0
  132.1370  124.9950   60.7320 C   0  0  0  0  0  0  0  0  0  0  0  0
  131.0960  125.7770   60.2040 C   0  0  0  0  0  0  0  0  0  0  0  0
  130.3430  126.6090   61.0310 C   0  0  0  0  0  0  0  0  0  0  0  0
  130.6070  126.6790   62.4040 C   0  0  0  0  0  0  0  0  0  0  0  0
  129.7930  127.5710   63.2910 C   0  0  0  0  0  0  0  0  0  0  0  0
  129.3050  128.7000   62.8160 N   0  0  0  0  0  0  0  0  0  0  0  0
  128.6290  129.2800   63.8200 N   0  0  0  0  0  0  0  0  0  0  0  0
  127.9550  130.5160   63.6420 C   0  0  0  0  0  0  0  0  0  0  0  0
  128.6710  131.7210   63.5690 C   0  0  0  0  0  0  0  0  0  0  0  0
  127.9980  132.9270   63.3900 C   0  0  0  0  0  0  0  0  0  0  0  0
  126.6090  132.9330   63.2830 C   0  0  0  0  0  0  0  0  0  0  0  0
  125.8870  131.7450   63.3560 C   0  0  0  0  0  0  0  0  0  0  0  0
  126.5570  130.5370   63.5360 C   0  0  0  0  0  0  0  0  0  0  0  0
  128.6790  128.4920   64.9420 C   0  0  0  0  0  0  0  0  0  0  0  0
  129.4410  127.3720   64.6460 C   0  0  0  0  0  0  0  0  0  0  0  0
  129.7370  126.2340   65.5030 C   0  0  0  0  0  0  0  0  0  0  0  0
  129.6780  126.1650   66.8530 C   0  0  0  0  0  0  0  0  0  0  0  0
  129.2310  127.4520   67.9940 S   0  0  0  0  0  0  0  0  0  0  0  0
  129.4520  126.3280   69.3270 C   0  0  0  0  0  0  0  0  0  0  0  0
  129.2780  126.5500   70.5930 N   0  0  0  0  0  0  0  0  0  0  0  0
  129.4820  125.5430   71.5750 C   0  0  0  0  0  0  0  0  0  0  0  0
  129.3180  125.6670   72.7890 O   0  0  0  0  0  0  0  0  0  0  0  0
  129.9300  124.2230   71.0080 C   0  0  0  0  0  0  0  0  0  0  0  0
  130.2010  123.0640   71.9760 C   0  0  0  0  0  0  0  0  0  0  0  0
  129.3180  121.8390   71.7530 C   0  0  0  0  0  0  0  0  0  0  0  0
  128.7480  121.6050   70.4980 C   0  0  0  0  0  0  0  0  0  0  0  0
  127.9570  120.4780   70.2910 C   0  0  0  0  0  0  0  0  0  0  0  0
  127.7340  119.5810   71.3370 C   0  0  0  0  0  0  0  0  0  0  0  0
  126.8800  118.3480   71.1020 C   0  0  0  0  0  0  0  0  0  0  0  0
  128.3110  119.8060   72.5890 C   0  0  0  0  0  0  0  0  0  0  0  0
  129.1020  120.9330   72.7960 C   0  0  0  0  0  0  0  0  0  0  0  0
  130.1050  124.0180   69.7440 N   0  0  0  0  0  0  0  0  0  0  0  0
  129.8570  125.0960   68.8850 N   0  0  0  0  0  0  0  0  0  0  0  0
  130.0080  124.9280   67.5480 C   0  0  0  0  0  0  0  0  0  0  0  0
  130.3680  123.8760   67.0060 O   0  0  0  0  0  0  0  0  0  0  0  0
  131.6470  125.9060   62.9300 C   0  0  0  0  0  0  0  0  0  0  0  0
  132.4020  125.0730   62.1040 C   0  0  0  0  0  0  0  0  0  0  0  0
  133.4010  124.3360   62.6440 F   0  0  0  0  0  0  0  0  0  0  0  0
  1  2  1  0
  2  3  1  0
  3  4  2  0
  4  5  1  0
  5  6  2  0
  6  7  1  0
  7  8  2  0
  8  9  1  0
  9 10  1  0
 10 11  2  0
 11 12  1  0
 12 13  2  0
 13 14  1  0
 14 15  2  0
  9 16  1  0
 16 17  2  0
 17 18  1  0
 18 19  2  0
 19 20  1  0
 20 21  1  0
 21 22  2  0
 22 23  1  0
 23 24  2  0
 23 25  1  0
 25 26  1  0
 26 27  1  0
 27 28  2  0
 28 29  1  0
 29 30  2  0
 30 31  1  0
 30 32  1  0
 32 33  2  0
 25 34  2  0
 34 35  1  0
 35 36  1  0
 36 37  2  0
  6 38  1  0
 38 39  2  0
 39 40  1  0
 39  3  1  0
 17  7  1  0
 36 19  1  0
 15 10  1  0
 35 21  1  0
 33 27  1  0
M  END
>  <Binding energies>  (46) 
[-8.48]

>  <Ligand effiencies>  (46) 
[-0.21200000000000002]

>  <Interactions>  (46) 
["V-B:GLU:543:CG:9875, V-A:HIS:456:CE1:4064, H-B:LYS:547:NZ:9919, V-B:GLU:543:CB:9874, V-A:ASP:366:CG:3208, V-A:ASP:366:CB:3207, V-A:GLU:543:CG:4902, V-B:GLU:543:C:9870, V-A:TYR:484:CE1:4340, V-B:GLU:543:CA:9872, V-A:GLU:543:CD:4903, V-B:GLU:543:CD:9876, H-A:TYR:484:OH:4343, H-A:HIS:456:NE2:4065, V-A:TYR:484:CG:4337, V-A:TYR:484:CD1:4338, V-A:ALA:541:CB:4887, V-B:LEU:475:CD2:9226, V-A:TYR:484:CB:4336, V-B:VAL:542:C:9862, V-A:SER:483:CB:4328, V-B:VAL:542:CG1:9867"]

$$$$
RR23_Rahimova_2017
     RDKit          3D

 39 44  0  0  0  0  0  0  0  0999 V2000
  134.3530  129.8790   59.1390 C   0  0  0  0  0  0  0  0  0  0  0  0
  133.0870  130.6100   58.7320 C   0  0  0  0  0  0  0  0  0  0  0  0
  132.9210  131.0390   57.4140 C   0  0  0  0  0  0  0  0  0  0  0  0
  131.7550  131.7020   57.0390 C   0  0  0  0  0  0  0  0  0  0  0  0
  130.7510  131.9510   57.9810 C   0  0  0  0  0  0  0  0  0  0  0  0
  129.4830  132.6530   57.5490 C   0  0  0  0  0  0  0  0  0  0  0  0
  129.5870  133.5610   56.7210 O   0  0  0  0  0  0  0  0  0  0  0  0
  128.2850  132.2540   58.0700 N   0  0  0  0  0  0  0  0  0  0  0  0
  127.3760  131.3710   57.3220 C   0  0  0  0  0  0  0  0  0  0  0  0
  126.2340  131.0330   58.2670 C   0  0  0  0  0  0  0  0  0  0  0  0
  126.7740  131.4460   59.6030 C   0  0  0  0  0  0  0  0  0  0  0  0
  126.2020  131.2950   60.8670 C   0  0  0  0  0  0  0  0  0  0  0  0
  126.7930  131.8950   61.9890 C   0  0  0  0  0  0  0  0  0  0  0  0
  126.1970  131.7530   63.3980 C   0  0  2  0  0  0  0  0  0  0  0  0
  126.7010  130.5860   64.0890 N   0  0  0  0  0  0  0  0  0  0  0  0
  125.8340  130.0920   64.8780 C   0  0  0  0  0  0  0  0  0  0  0  0
  125.9470  128.9870   65.6630 N   0  0  0  0  0  0  0  0  0  0  0  0
  126.9480  128.0740   65.6910 C   0  0  0  0  0  0  0  0  0  0  0  0
  127.9760  128.1160   65.0130 O   0  0  0  0  0  0  0  0  0  0  0  0
  126.7430  126.8970   66.6600 C   0  0  0  0  0  0  0  0  0  0  0  0
  127.2850  127.2620   67.9880 N   0  0  0  0  0  0  0  0  0  0  0  0
  126.3950  127.1480   69.0480 N   0  0  0  0  0  0  0  0  0  0  0  0
  126.7460  127.4380   70.2600 N   0  0  0  0  0  0  0  0  0  0  0  0
  128.0460  127.8750   70.5200 C   0  0  0  0  0  0  0  0  0  0  0  0
  128.3920  128.1820   71.8390 C   0  0  0  0  0  0  0  0  0  0  0  0
  129.6840  128.6210   72.1310 C   0  0  0  0  0  0  0  0  0  0  0  0
  130.6280  128.7550   71.1100 C   0  0  0  0  0  0  0  0  0  0  0  0
  130.2850  128.4500   69.7920 C   0  0  0  0  0  0  0  0  0  0  0  0
  128.9890  128.0070   69.4990 C   0  0  0  0  0  0  0  0  0  0  0  0
  128.5960  127.6750   68.0790 C   0  0  0  0  0  0  0  0  0  0  0  0
  129.3600  127.7750   67.1140 O   0  0  0  0  0  0  0  0  0  0  0  0
  124.2560  130.9260   64.9740 S   0  0  0  0  0  0  0  0  0  0  0  0
  124.6520  131.7880   63.4420 C   0  0  2  0  0  0  0  0  0  0  0  0
  123.9100  131.1040   62.2740 C   0  0  0  0  0  0  0  0  0  0  0  0
  127.9340  132.6860   61.8090 C   0  0  0  0  0  0  0  0  0  0  0  0
  128.4940  132.8550   60.5430 C   0  0  0  0  0  0  0  0  0  0  0  0
  127.9460  132.1870   59.4400 C   0  0  0  0  0  0  0  0  0  0  0  0
  130.9110  131.4920   59.2950 C   0  0  0  0  0  0  0  0  0  0  0  0
  132.0770  130.8290   59.6700 C   0  0  0  0  0  0  0  0  0  0  0  0
  1  2  1  0
  2  3  2  0
  3  4  1  0
  4  5  2  0
  5  6  1  0
  6  7  2  0
  6  8  1  0
  8  9  1  0
  9 10  1  0
 10 11  1  0
 11 12  2  0
 12 13  1  0
 14 13  1  6
 14 15  1  0
 15 16  2  0
 16 17  1  0
 17 18  1  0
 18 19  2  0
 18 20  1  0
 20 21  1  0
 21 22  1  0
 22 23  2  0
 23 24  1  0
 24 25  2  0
 25 26  1  0
 26 27  2  0
 27 28  1  0
 28 29  2  0
 29 30  1  0
 30 31  2  0
 16 32  1  0
 32 33  1  0
 33 34  1  6
 13 35  2  0
 35 36  1  0
 36 37  2  0
  5 38  1  0
 38 39  2  0
 39  2  1  0
 37  8  1  0
 37 11  1  0
 33 14  1  0
 30 21  1  0
 29 24  1  0
M  END
>  <Binding energies>  (47) 
[-10.12]

>  <Ligand effiencies>  (47) 
[-0.253]

>  <Interactions>  (47) 
["V-B:GLU:543:CG:9875, V-A:HIS:456:CE1:4064, V-B:GLU:543:CB:9874, V-A:ASP:366:CG:3208, V-B:HIS:456:CE1:9037, V-A:ASP:366:CB:3207, H-B:TYR:484:OH:9315, V-B:GLU:543:CD:9876, V-B:ARG:545:CG:9890, V-A:GLY:544:C:4907, V-A:TYR:539:CE2:4871, V-A:GLU:543:C:4897, V-B:HIS:456:CD2:9035, V-A:PRO:540:CA:4878, V-A:TYR:539:CD2:4869, V-A:TYR:539:C:4862, V-A:PRO:540:N:4879, V-A:LEU:363:CD1:3184, V-A:TYR:531:CE2:4788, V-A:ASN:362:C:3167, V-A:LEU:363:CA:3180, V-A:TYR:531:CZ:4789, V-A:PRO:540:CB:4880, V-A:LEU:363:CB:3182, V-A:TYR:539:CZ:4872, H-A:TYR:539:N:4865, V-A:TYR:539:CE1:4870, V-A:TYR:539:CD1:4868, V-B:ILE:369:CD1:8206, H-B:HIS:456:ND1:9034, H-B:ARG:545:N:9888, H-B:GLY:454:N:9017, V-A:LEU:363:C:3178"]

$$$$
RR26_Rahimova_2017
     RDKit          3D

 38 44  0  0  0  0  0  0  0  0999 V2000
  129.6350  121.1400   60.6960 C   0  0  0  0  0  0  0  0  0  0  0  0
  131.1460  120.9590   60.7810 C   0  0  0  0  0  0  0  0  0  0  0  0
  131.7350  119.9420   60.0220 C   0  0  0  0  0  0  0  0  0  0  0  0
  133.1160  119.7560   60.0310 C   0  0  0  0  0  0  0  0  0  0  0  0
  133.9220  120.5930   60.7950 C   0  0  0  0  0  0  0  0  0  0  0  0
  133.3480  121.6100   61.5550 C   0  0  0  0  0  0  0  0  0  0  0  0
  131.9580  121.8060   61.5660 C   0  0  0  0  0  0  0  0  0  0  0  0
  131.4200  122.9140   62.4240 C   0  0  0  0  0  0  0  0  0  0  0  0
  131.2540  122.7810   63.7370 N   0  0  0  0  0  0  0  0  0  0  0  0
  130.7910  123.9550   64.0720 C   0  0  0  0  0  0  0  0  0  0  0  0
  130.2820  124.7130   65.5350 S   0  0  0  0  0  0  0  0  0  0  0  0
  129.9230  126.2160   64.6050 C   0  0  0  0  0  0  0  0  0  0  0  0
  129.4340  127.3840   65.0770 C   0  0  0  0  0  0  0  0  0  0  0  0
  129.0840  127.7210   66.4470 C   0  0  0  0  0  0  0  0  0  0  0  0
  129.7970  127.4510   67.6050 C   0  0  0  0  0  0  0  0  0  0  0  0
  129.1080  127.9910   68.6610 N   0  0  0  0  0  0  0  0  0  0  0  0
  129.4540  127.9720   70.0370 C   0  0  0  0  0  0  0  0  0  0  0  0
  130.0750  129.0770   70.6370 C   0  0  0  0  0  0  0  0  0  0  0  0
  130.4120  129.0430   71.9870 C   0  0  0  0  0  0  0  0  0  0  0  0
  130.1270  127.9090   72.7420 C   0  0  0  0  0  0  0  0  0  0  0  0
  129.5080  126.8050   72.1590 C   0  0  0  0  0  0  0  0  0  0  0  0
  129.1720  126.8350   70.8090 C   0  0  0  0  0  0  0  0  0  0  0  0
  128.0040  128.6170   68.2250 N   0  0  0  0  0  0  0  0  0  0  0  0
  127.9740  128.4600   66.9160 C   0  0  0  0  0  0  0  0  0  0  0  0
  126.8450  129.0410   66.1210 C   0  0  0  0  0  0  0  0  0  0  0  0
  125.5230  128.6410   66.3680 C   0  0  0  0  0  0  0  0  0  0  0  0
  124.4640  129.1740   65.6300 C   0  0  0  0  0  0  0  0  0  0  0  0
  124.7220  130.1140   64.6350 C   0  0  0  0  0  0  0  0  0  0  0  0
  126.0380  130.5350   64.3900 C   0  0  0  0  0  0  0  0  0  0  0  0
  127.0930  129.9970   65.1250 C   0  0  0  0  0  0  0  0  0  0  0  0
  126.3450  131.4300   63.3850 O   0  0  0  0  0  0  0  0  0  0  0  0
  125.2310  132.2050   62.9300 C   0  0  0  0  0  0  0  0  0  0  0  0
  123.9860  131.3060   62.7360 C   0  0  0  0  0  0  0  0  0  0  0  0
  123.6430  130.6510   63.9620 O   0  0  0  0  0  0  0  0  0  0  0  0
  130.2080  126.0680   63.1810 C   0  0  0  0  0  0  0  0  0  0  0  0
  130.0720  126.8890   62.2720 O   0  0  0  0  0  0  0  0  0  0  0  0
  130.6900  124.7630   63.0010 N   0  0  0  0  0  0  0  0  0  0  0  0
  131.1020  124.0960   61.9190 N   0  0  0  0  0  0  0  0  0  0  0  0
  1  2  1  0
  2  3  2  0
  3  4  1  0
  4  5  2  0
  5  6  1  0
  6  7  2  0
  7  8  1  0
  8  9  1  0
  9 10  2  0
 10 11  1  0
 11 12  1  0
 12 13  2  0
 13 14  1  0
 14 15  2  0
 15 16  1  0
 16 17  1  0
 17 18  2  0
 18 19  1  0
 19 20  2  0
 20 21  1  0
 21 22  2  0
 16 23  1  0
 23 24  2  0
 24 25  1  0
 25 26  2  0
 26 27  1  0
 27 28  2  0
 28 29  1  0
 29 30  2  0
 29 31  1  0
 31 32  1  0
 32 33  1  0
 33 34  1  0
 12 35  1  0
 35 36  2  0
 35 37  1  0
 37 38  1  0
  7  2  1  0
 38  8  2  0
 37 10  1  0
 24 14  1  0
 30 25  1  0
 22 17  1  0
 34 28  1  0
M  END
>  <Binding energies>  (48) 
[-9.0]

>  <Ligand effiencies>  (48) 
[-0.23684210526315788]

>  <Interactions>  (48) 
["V-B:GLU:543:CG:9875, V-A:TRP:381:CZ3:3366, V-A:HIS:456:CE1:4064, V-A:TRP:381:CZ2:3365, V-B:ALA:541:CB:9860, V-A:TRP:381:CH2:3367, V-B:TYR:539:CD2:9842, V-A:LEU:475:CD2:4254, V-B:TYR:539:CE2:9844, V-A:ILE:369:CD1:3234, V-B:HIS:456:CE1:9037, H-B:TYR:484:OH:9315, V-A:GLU:543:CD:4903, V-B:GLU:543:CD:9876, V-A:ILE:369:CG2:3232, H-A:TYR:484:OH:4343, V-B:ARG:545:CG:9890, V-A:GLY:544:C:4907, V-A:GLU:543:C:4897, V-A:LYS:547:CE:4945, V-B:ARG:545:CD:9891, V-B:ARG:545:CZ:9894, V-B:LEU:475:CD2:9226, V-B:ILE:369:CD1:8206, V-A:ILE:369:CG1:3233, H-B:GLY:454:N:9017"]

$$$$
RR2_Rahimova_2017
     RDKit          3D

 46 50  0  0  0  0  0  0  0  0999 V2000
  132.8420  130.9810   57.2840 C   0  0  0  0  0  0  0  0  0  0  0  0
  131.7210  131.6310   56.6980 O   0  0  0  0  0  0  0  0  0  0  0  0
  130.5910  131.8500   57.4650 C   0  0  0  0  0  0  0  0  0  0  0  0
  129.8900  133.0630   57.5140 C   0  0  0  0  0  0  0  0  0  0  0  0
  128.7630  133.1910   58.3200 C   0  0  0  0  0  0  0  0  0  0  0  0
  128.3110  132.1150   59.0960 C   0  0  0  0  0  0  0  0  0  0  0  0
  127.0840  132.2830   59.9710 C   0  0  0  0  0  0  0  0  0  0  0  0
  126.7960  133.3920   60.4340 O   0  0  0  0  0  0  0  0  0  0  0  0
  126.3670  131.1590   60.2040 N   0  0  0  0  0  0  0  0  0  0  0  0
  125.2850  131.2390   61.0740 N   0  0  0  0  0  0  0  0  0  0  0  0
  124.9930  130.1600   61.8290 C   0  0  0  0  0  0  0  0  0  0  0  0
  125.4940  129.0410   61.6840 O   0  0  0  0  0  0  0  0  0  0  0  0
  123.9720  130.3950   62.9500 C   0  0  0  0  0  0  0  0  0  0  0  0
  124.6800  130.9830   64.5320 S   0  0  0  0  0  0  0  0  0  0  0  0
  125.5470  129.5360   65.0590 C   0  0  0  0  0  0  0  0  0  0  0  0
  125.0070  128.6170   65.8180 N   0  0  0  0  0  0  0  0  0  0  0  0
  125.9860  127.6730   66.0920 N   0  0  0  0  0  0  0  0  0  0  0  0
  127.0760  128.0420   65.4620 C   0  0  0  0  0  0  0  0  0  0  0  0
  128.3510  127.2630   65.5010 C   0  0  0  0  0  0  0  0  0  0  0  0
  128.8930  126.8800   66.7310 C   0  0  0  0  0  0  0  0  0  0  0  0
  130.0840  126.1620   66.7780 C   0  0  0  0  0  0  0  0  0  0  0  0
  130.7360  125.8040   65.5920 C   0  0  0  0  0  0  0  0  0  0  0  0
  131.9440  125.0900   65.5800 N   0  0  0  0  0  0  0  0  0  0  0  0
  133.0310  124.9630   64.1790 S   0  0  0  0  0  0  0  0  0  0  0  0
  134.3510  124.6230   64.7210 O   0  0  0  0  0  0  0  0  0  0  0  0
  132.8440  126.1590   63.3480 O   0  0  0  0  0  0  0  0  0  0  0  0
  132.4600  123.5280   63.2710 C   0  0  0  0  0  0  0  0  0  0  0  0
  133.2770  122.9200   62.3150 C   0  0  0  0  0  0  0  0  0  0  0  0
  132.8090  121.8150   61.6100 C   0  0  0  0  0  0  0  0  0  0  0  0
  131.5290  121.3160   61.8630 C   0  0  0  0  0  0  0  0  0  0  0  0
  131.0150  120.1200   61.0820 C   0  0  0  0  0  0  0  0  0  0  0  0
  130.7130  121.9290   62.8160 C   0  0  0  0  0  0  0  0  0  0  0  0
  131.1790  123.0340   63.5210 C   0  0  0  0  0  0  0  0  0  0  0  0
  130.1920  126.1840   64.3650 C   0  0  0  0  0  0  0  0  0  0  0  0
  129.0050  126.9080   64.3170 C   0  0  0  0  0  0  0  0  0  0  0  0
  126.8670  129.2310   64.7830 N   0  0  0  0  0  0  0  0  0  0  0  0
  127.7900  129.9810   64.0250 C   0  0  0  0  0  0  0  0  0  0  0  0
  128.2000  131.2380   64.4730 C   0  0  0  0  0  0  0  0  0  0  0  0
  129.1150  131.9720   63.7230 C   0  0  0  0  0  0  0  0  0  0  0  0
  129.6240  131.4630   62.5270 C   0  0  0  0  0  0  0  0  0  0  0  0
  130.5250  132.2640   61.8530 O   0  0  0  0  0  0  0  0  0  0  0  0
  131.7820  131.7210   61.4610 C   0  0  0  0  0  0  0  0  0  0  0  0
  129.2060  130.1970   62.0840 C   0  0  0  0  0  0  0  0  0  0  0  0
  128.2930  129.4590   62.8320 C   0  0  0  0  0  0  0  0  0  0  0  0
  129.0140  130.9020   59.0370 C   0  0  0  0  0  0  0  0  0  0  0  0
  130.1410  130.7760   58.2290 C   0  0  0  0  0  0  0  0  0  0  0  0
  1  2  1  0
  2  3  1  0
  3  4  2  0
  4  5  1  0
  5  6  2  0
  6  7  1  0
  7  8  2  0
  7  9  1  0
  9 10  1  0
 10 11  1  0
 11 12  2  0
 11 13  1  0
 13 14  1  0
 14 15  1  0
 15 16  2  0
 16 17  1  0
 17 18  2  0
 18 19  1  0
 19 20  2  0
 20 21  1  0
 21 22  2  0
 22 23  1  0
 23 24  1  0
 24 25  2  0
 24 26  2  0
 24 27  1  0
 27 28  2  0
 28 29  1  0
 29 30  2  0
 30 31  1  0
 30 32  1  0
 32 33  2  0
 22 34  1  0
 34 35  2  0
 18 36  1  0
 36 37  1  0
 37 38  2  0
 38 39  1  0
 39 40  2  0
 40 41  1  0
 41 42  1  0
 40 43  1  0
 43 44  2  0
  6 45  1  0
 45 46  2  0
 46  3  1  0
 36 15  1  0
 44 37  1  0
 35 19  1  0
 33 27  1  0
M  END
>  <Binding energies>  (49) 
[-9.59]

>  <Ligand effiencies>  (49) 
[-0.1957142857142857]

>  <Interactions>  (49) 
["V-B:GLU:543:CG:9875, V-B:ALA:541:CB:9860, V-B:GLU:543:CB:9874, V-A:LEU:475:CD2:4254, V-A:ILE:369:CD1:3234, V-A:TYR:484:CZ:4342, V-A:GLU:543:CG:4902, H-B:TYR:484:OH:9315, V-A:GLU:543:CD:4903, V-B:GLU:543:CD:9876, H-A:TYR:484:OH:4343, H-A:ARG:545:NE:4919, H-A:ARG:545:NH2:4923, H-A:GLY:454:N:4045, V-A:ARG:545:CZ:4921, V-A:TYR:539:CE2:4871, H-A:ALA:541:N:4886, V-A:PRO:540:CA:4878, V-A:TYR:539:CD2:4869, V-A:TYR:539:C:4862, V-A:PRO:540:N:4879, V-A:ALA:541:CB:4887, V-A:LEU:363:CD1:3184, V-A:TYR:531:CE2:4788, V-A:TYR:539:CG:4867, V-A:TYR:531:CZ:4789, V-A:PRO:540:CB:4880, V-B:ARG:545:CZ:9894, V-A:TYR:539:CZ:4872, V-A:TYR:539:CE1:4870, V-A:TYR:539:CD1:4868, V-A:PRO:540:CD:4882, H-B:ARG:545:NH2:9896, H-B:ARG:545:NE:9892, H-B:GLY:454:N:9017, V-A:TYR:539:CA:4864"]

$$$$
RR33_Rahimova_2017
     RDKit          3D

 18 19  0  0  0  0  0  0  0  0999 V2000
  126.6120  129.9040   74.6220 C   0  0  0  0  0  0  0  0  0  0  0  0
  128.0150  130.3030   74.1540 C   0  0  0  0  0  0  0  0  0  0  0  0
  128.7570  129.1190   73.8740 O   0  0  0  0  0  0  0  0  0  0  0  0
  128.9920  128.7620   72.5600 C   0  0  0  0  0  0  0  0  0  0  0  0
  127.9800  128.0460   71.9210 C   0  0  0  0  0  0  0  0  0  0  0  0
  128.1280  127.6390   70.5980 C   0  0  0  0  0  0  0  0  0  0  0  0
  129.2960  127.9440   69.8910 C   0  0  0  0  0  0  0  0  0  0  0  0
  129.4540  127.5060   68.4710 C   0  0  0  0  0  0  0  0  0  0  0  0
  130.2880  126.6080   67.9960 N   0  0  0  0  0  0  0  0  0  0  0  0
  130.0550  126.5680   66.6930 C   0  0  0  0  0  0  0  0  0  0  0  0
  130.8260  125.6270   65.7930 C   0  0  0  0  0  0  0  0  0  0  0  0
  132.1290  125.3210   66.3660 N   0  0  0  0  0  0  0  0  0  0  0  0
  133.1660  125.4020   65.3510 C   0  0  0  0  0  0  0  0  0  0  0  0
  129.0490  127.4710   66.3720 C   0  0  0  0  0  0  0  0  0  0  0  0
  128.3450  127.8860   65.1030 C   0  0  0  0  0  0  0  0  0  0  0  0
  128.6660  128.0740   67.5210 O   0  0  0  0  0  0  0  0  0  0  0  0
  130.3110  128.6660   70.5270 C   0  0  0  0  0  0  0  0  0  0  0  0
  130.1630  129.0720   71.8520 C   0  0  0  0  0  0  0  0  0  0  0  0
  1  2  1  0
  2  3  1  0
  3  4  1  0
  4  5  2  0
  5  6  1  0
  6  7  2  0
  7  8  1  0
  8  9  2  0
  9 10  1  0
 10 11  1  0
 11 12  1  0
 12 13  1  0
 10 14  2  0
 14 15  1  0
 14 16  1  0
  7 17  1  0
 17 18  2  0
 18  4  1  0
 16  8  1  0
M  END
>  <Binding energies>  (50) 
[-5.31]

>  <Ligand effiencies>  (50) 
[-0.2794736842105263]

>  <Interactions>  (50) 
["V-A:HIS:456:CE1:4064, H-B:LYS:547:NZ:9919, V-B:HIS:456:CE1:9037, V-B:GLU:543:CD:9876, H-A:TYR:484:OH:4343, V-A:ARG:545:CZ:4921, H-A:HIS:456:NE2:4065, V-A:GLY:544:C:4907, V-A:GLU:543:C:4897, V-B:HIS:456:CD2:9035, H-A:LYS:547:NZ:4946, V-B:HIS:456:CB:9032, V-A:ARG:545:CD:4918"]

$$$$
RR3_Rahimova_2017
     RDKit          3D

 38 44  0  0  0  0  0  0  0  0999 V2000
  130.2670  118.5980   60.9560 C   0  0  0  0  0  0  0  0  0  0  0  0
  131.5040  119.2010   60.7550 C   0  0  0  0  0  0  0  0  0  0  0  0
  131.5960  120.5890   60.7160 C   0  0  0  0  0  0  0  0  0  0  0  0
  130.4570  121.3910   60.8760 C   0  0  0  0  0  0  0  0  0  0  0  0
  130.5580  122.8840   60.8350 C   0  0  0  0  0  0  0  0  0  0  0  0
  131.5690  123.5180   60.1010 C   0  0  0  0  0  0  0  0  0  0  0  0
  131.6650  124.9060   60.0650 C   0  0  0  0  0  0  0  0  0  0  0  0
  130.7530  125.6940   60.7710 C   0  0  0  0  0  0  0  0  0  0  0  0
  130.8530  127.1870   60.7420 C   0  0  0  0  0  0  0  0  0  0  0  0
  131.3470  127.7990   59.6710 N   0  0  0  0  0  0  0  0  0  0  0  0
  131.2720  129.0870   59.9070 C   0  0  0  0  0  0  0  0  0  0  0  0
  131.7080  130.1370   58.9910 C   0  0  0  0  0  0  0  0  0  0  0  0
  133.0200  130.5030   58.7420 C   0  0  0  0  0  0  0  0  0  0  0  0
  133.0620  131.5170   57.8220 N   0  0  0  0  0  0  0  0  0  0  0  0
  131.7830  131.8540   57.4370 C   0  0  0  0  0  0  0  0  0  0  0  0
  131.3260  132.8190   56.5320 C   0  0  0  0  0  0  0  0  0  0  0  0
  129.9460  132.9190   56.3580 C   0  0  0  0  0  0  0  0  0  0  0  0
  129.0580  132.1020   57.0480 C   0  0  0  0  0  0  0  0  0  0  0  0
  129.5130  131.1410   57.9490 C   0  0  0  0  0  0  0  0  0  0  0  0
  130.8960  130.9980   58.1620 C   0  0  0  0  0  0  0  0  0  0  0  0
  130.7330  129.3270   61.1410 N   0  0  0  0  0  0  0  0  0  0  0  0
  130.4680  128.1150   61.7250 C   0  0  0  0  0  0  0  0  0  0  0  0
  129.9260  127.9840   63.1100 C   0  0  0  0  0  0  0  0  0  0  0  0
  130.3750  126.9590   63.9440 C   0  0  0  0  0  0  0  0  0  0  0  0
  129.8630  126.8260   65.2300 C   0  0  0  0  0  0  0  0  0  0  0  0
  128.8930  127.7150   65.7150 C   0  0  0  0  0  0  0  0  0  0  0  0
  128.3290  127.5570   67.0920 C   0  0  0  0  0  0  0  0  0  0  0  0
  126.9680  127.2750   67.2850 C   0  0  0  0  0  0  0  0  0  0  0  0
  126.4450  127.1230   68.5670 C   0  0  0  0  0  0  0  0  0  0  0  0
  127.2800  127.2520   69.6730 C   0  0  0  0  0  0  0  0  0  0  0  0
  128.6320  127.5300   69.5050 C   0  0  0  0  0  0  0  0  0  0  0  0
  129.1520  127.6820   68.2220 C   0  0  0  0  0  0  0  0  0  0  0  0
  128.4620  128.7500   64.8740 C   0  0  0  0  0  0  0  0  0  0  0  0
  128.9730  128.8870   63.5860 C   0  0  0  0  0  0  0  0  0  0  0  0
  129.7330  125.0730   61.4950 C   0  0  0  0  0  0  0  0  0  0  0  0
  129.6400  123.6840   61.5290 C   0  0  0  0  0  0  0  0  0  0  0  0
  129.2200  120.7610   61.0760 C   0  0  0  0  0  0  0  0  0  0  0  0
  129.1230  119.3730   61.1170 C   0  0  0  0  0  0  0  0  0  0  0  0
  1  2  2  0
  2  3  1  0
  3  4  2  0
  4  5  1  0
  5  6  2  0
  6  7  1  0
  7  8  2  0
  8  9  1  0
  9 10  1  0
 10 11  2  0
 11 12  1  0
 12 13  2  0
 13 14  1  0
 14 15  1  0
 15 16  2  0
 16 17  1  0
 17 18  2  0
 18 19  1  0
 19 20  2  0
 11 21  1  0
 21 22  1  0
 22 23  1  0
 23 24  2  0
 24 25  1  0
 25 26  2  0
 26 27  1  0
 27 28  2  0
 28 29  1  0
 29 30  2  0
 30 31  1  0
 31 32  2  0
 26 33  1  0
 33 34  2  0
  8 35  1  0
 35 36  2  0
  4 37  1  0
 37 38  2  0
 38  1  1  0
 36  5  1  0
 22  9  2  0
 34 23  1  0
 20 12  1  0
 32 27  1  0
 20 15  1  0
M  END
>  <Binding energies>  (51) 
[-8.8]

>  <Ligand effiencies>  (51) 
[-0.22000000000000003]

>  <Interactions>  (51) 
["V-B:PRO:540:C:9849, V-B:GLU:543:CG:9875, V-A:TRP:381:CZ3:3366, V-A:PRO:482:CG:4322, V-A:TRP:381:CZ2:3365, V-B:ALA:541:CB:9860, V-B:GLU:543:CB:9874, V-B:ALA:541:CA:9858, V-A:TRP:381:CH2:3367, V-B:TYR:539:C:9835, V-B:TYR:539:CD2:9842, V-A:LEU:475:CD2:4254, V-A:TRP:381:CE2:3362, V-A:PRO:482:CB:4321, V-A:ASP:366:CG:3208, V-B:HIS:456:CE1:9037, V-A:GLU:543:CG:4902, V-B:GLU:543:C:9870, V-A:GLU:543:CD:4903, V-B:GLU:543:CD:9876, H-A:GLU:543:OE2:4905, V-B:ARG:545:CG:9890, V-A:PRO:540:CA:4878, V-A:TYR:539:C:4862, V-A:PRO:540:N:4879, V-A:LEU:363:CD1:3184, V-A:LEU:363:CA:3180, H-A:TYR:531:OH:4790, V-A:PRO:540:CB:4880, V-B:GLY:544:C:9880, V-A:TYR:539:CZ:4872, V-A:TYR:539:CE1:4870, V-A:TYR:539:CD1:4868, V-A:PRO:540:CD:4882, V-A:PRO:540:CG:4881"]

$$$$
RR4_Rahimova_2017
     RDKit          3D

 40 44  0  0  0  0  0  0  0  0999 V2000
  128.0210  129.5870   74.8260 C   0  0  0  0  0  0  0  0  0  0  0  0
  129.1170  128.8990   74.2340 O   0  0  0  0  0  0  0  0  0  0  0  0
  129.1490  128.7360   72.8620 C   0  0  0  0  0  0  0  0  0  0  0  0
  127.9580  128.3490   72.2510 C   0  0  0  0  0  0  0  0  0  0  0  0
  127.8950  128.1620   70.8740 C   0  0  0  0  0  0  0  0  0  0  0  0
  129.0250  128.3530   70.0650 C   0  0  0  0  0  0  0  0  0  0  0  0
  128.9540  128.1490   68.5790 C   0  0  0  0  0  0  0  0  0  0  0  0
  127.9780  128.7490   67.7770 C   0  0  0  0  0  0  0  0  0  0  0  0
  127.9560  128.5300   66.3940 C   0  0  0  0  0  0  0  0  0  0  0  0
  126.9010  129.2270   65.5990 C   0  0  0  0  0  0  0  0  0  0  0  0
  125.5500  129.0280   65.8980 C   0  0  0  0  0  0  0  0  0  0  0  0
  124.5600  129.6820   65.1700 C   0  0  0  0  0  0  0  0  0  0  0  0
  124.9000  130.5520   64.1350 C   0  0  0  0  0  0  0  0  0  0  0  0
  123.8510  131.1570   63.4680 O   0  0  0  0  0  0  0  0  0  0  0  0
  124.1090  132.3040   62.6640 C   0  0  0  0  0  0  0  0  0  0  0  0
  126.2550  130.7600   63.8340 C   0  0  0  0  0  0  0  0  0  0  0  0
  127.2430  130.1040   64.5640 C   0  0  0  0  0  0  0  0  0  0  0  0
  128.9280  127.6660   65.8320 C   0  0  0  0  0  0  0  0  0  0  0  0
  128.9510  127.4040   64.3900 C   0  0  0  0  0  0  0  0  0  0  0  0
  128.9700  127.1970   63.2510 N   0  0  0  0  0  0  0  0  0  0  0  0
  129.8670  127.0700   66.7040 C   0  0  0  0  0  0  0  0  0  0  0  0
  131.1470  125.9520   66.1760 S   0  0  0  0  0  0  0  0  0  0  0  0
  130.3530  124.3790   65.7060 C   0  0  0  0  0  0  0  0  0  0  0  0
  130.7410  123.8600   64.3150 C   0  0  0  0  0  0  0  0  0  0  0  0
  131.0020  122.6670   64.1410 O   0  0  0  0  0  0  0  0  0  0  0  0
  130.7820  124.8060   63.3480 N   0  0  0  0  0  0  0  0  0  0  0  0
  131.0950  124.6530   61.9950 C   0  0  0  0  0  0  0  0  0  0  0  0
  129.9290  124.8820   60.7190 S   0  0  0  0  0  0  0  0  0  0  0  0
  131.1070  124.5070   59.4990 C   0  0  0  0  0  0  0  0  0  0  0  0
  132.3580  124.2110   60.0630 C   0  0  0  0  0  0  0  0  0  0  0  0
  132.3530  124.3100   61.4760 C   0  0  0  0  0  0  0  0  0  0  0  0
  133.5320  124.0710   62.3020 C   0  0  0  0  0  0  0  0  0  0  0  0
  134.4670  123.8800   62.9570 N   0  0  0  0  0  0  0  0  0  0  0  0
  133.5750  123.8850   59.1890 C   0  0  0  0  0  0  0  0  0  0  0  0
  133.3270  124.3180   57.7260 C   0  0  0  0  0  0  0  0  0  0  0  0
  131.9380  123.8900   57.2210 C   0  0  0  0  0  0  0  0  0  0  0  0
  130.8000  124.5730   58.0090 C   0  0  0  0  0  0  0  0  0  0  0  0
  129.8850  127.3240   68.0340 N   0  0  0  0  0  0  0  0  0  0  0  0
  130.2200  128.7460   70.6900 C   0  0  0  0  0  0  0  0  0  0  0  0
  130.2860  128.9340   72.0670 C   0  0  0  0  0  0  0  0  0  0  0  0
  1  2  1  0
  2  3  1  0
  3  4  2  0
  4  5  1  0
  5  6  2  0
  6  7  1  0
  7  8  2  0
  8  9  1  0
  9 10  1  0
 10 11  2  0
 11 12  1  0
 12 13  2  0
 13 14  1  0
 14 15  1  0
 13 16  1  0
 16 17  2  0
  9 18  2  0
 18 19  1  0
 19 20  3  0
 18 21  1  0
 21 22  1  0
 22 23  1  0
 23 24  1  0
 24 25  2  0
 24 26  1  0
 26 27  1  0
 27 28  1  0
 28 29  1  0
 29 30  2  0
 30 31  1  0
 31 32  1  0
 32 33  3  0
 30 34  1  0
 34 35  1  0
 35 36  1  0
 36 37  1  0
 21 38  2  0
  6 39  1  0
 39 40  2  0
 40  3  1  0
 38  7  1  0
 17 10  1  0
 31 27  2  0
 37 29  1  0
M  END
>  <Binding energies>  (52) 
[-9.93]

>  <Ligand effiencies>  (52) 
[-0.2421951219512195]

>  <Interactions>  (52) 
["V-B:GLU:543:CG:9875, V-A:HIS:456:CE1:4064, H-B:LYS:547:NZ:9919, V-B:TYR:539:CE2:9844, V-A:ILE:369:CD1:3234, V-B:TYR:539:CZ:9845, V-A:ASP:366:CA:3205, V-A:ASP:366:CG:3208, V-B:HIS:456:CE1:9037, V-A:ASP:366:CB:3207, V-A:ASP:366:C:3203, V-A:TYR:484:CZ:4342, V-A:TYR:484:CE1:4340, V-A:GLU:543:CD:4903, V-B:GLU:543:CD:9876, H-A:TYR:484:OH:4343, H-A:GLY:454:N:4045, H-A:HIS:456:NE2:4065, V-B:ARG:545:CG:9890, V-A:GLY:544:C:4907, V-A:GLU:543:C:4897, V-A:LYS:547:CE:4945, V-B:HIS:456:CD2:9035, V-B:HIS:456:CG:9033, V-B:ARG:545:CD:9891, V-A:TYR:531:CZ:4789, H-A:LYS:547:NZ:4946, H-B:GLU:543:OE2:9878, V-B:ARG:545:CZ:9894, V-B:LEU:475:CD2:9226, V-B:ILE:369:CD1:8206, H-B:GLY:454:N:9017"]

$$$$
RR6_Rahimova_2017
     RDKit          3D

 38 41  0  0  0  0  0  0  0  0999 V2000
  128.5070  131.5940   56.2830 C   0  0  0  0  0  0  0  0  0  0  0  0
  129.3890  132.4230   57.0280 O   0  0  0  0  0  0  0  0  0  0  0  0
  129.1920  132.6380   58.3540 C   0  0  0  0  0  0  0  0  0  0  0  0
  128.5930  133.6220   58.8010 O   0  0  0  0  0  0  0  0  0  0  0  0
  129.7720  131.5600   59.2240 C   0  0  0  0  0  0  0  0  0  0  0  0
  130.9900  131.7260   59.9000 C   0  0  0  0  0  0  0  0  0  0  0  0
  131.5060  130.7040   60.6930 C   0  0  0  0  0  0  0  0  0  0  0  0
  130.8110  129.4930   60.8200 C   0  0  0  0  0  0  0  0  0  0  0  0
  131.2550  128.3880   61.5710 N   0  0  0  0  0  0  0  0  0  0  0  0
  130.9850  127.0750   61.4020 C   0  0  0  0  0  0  0  0  0  0  0  0
  130.2800  126.5990   60.5120 O   0  0  0  0  0  0  0  0  0  0  0  0
  131.5750  126.1370   62.4610 C   0  0  0  0  0  0  0  0  0  0  0  0
  130.3240  125.3990   63.5650 S   0  0  0  0  0  0  0  0  0  0  0  0
  129.6970  126.7180   64.5840 C   0  0  0  0  0  0  0  0  0  0  0  0
  129.2500  127.7930   63.8920 N   0  0  0  0  0  0  0  0  0  0  0  0
  128.7210  128.8500   64.5580 C   0  0  0  0  0  0  0  0  0  0  0  0
  128.1930  129.9740   63.7150 C   0  0  0  0  0  0  0  0  0  0  0  0
  128.7590  131.2560   63.7840 C   0  0  0  0  0  0  0  0  0  0  0  0
  128.2600  132.3020   63.0120 C   0  0  0  0  0  0  0  0  0  0  0  0
  127.1870  132.0820   62.1490 C   0  0  0  0  0  0  0  0  0  0  0  0
  126.6410  133.2270   61.3160 C   0  0  0  0  0  0  0  0  0  0  0  0
  126.6130  130.8160   62.0640 C   0  0  0  0  0  0  0  0  0  0  0  0
  127.1160  129.7750   62.8370 C   0  0  0  0  0  0  0  0  0  0  0  0
  128.6430  128.8490   65.9540 C   0  0  0  0  0  0  0  0  0  0  0  0
  129.1030  127.7500   66.6940 C   0  0  0  0  0  0  0  0  0  0  0  0
  128.9730  127.8070   68.1800 C   0  0  0  0  0  0  0  0  0  0  0  0
  127.8360  127.2860   68.8060 C   0  0  0  0  0  0  0  0  0  0  0  0
  127.7140  127.3210   70.1930 C   0  0  0  0  0  0  0  0  0  0  0  0
  128.7250  127.8710   70.9800 C   0  0  0  0  0  0  0  0  0  0  0  0
  128.5180  127.8600   72.3460 O   0  0  0  0  0  0  0  0  0  0  0  0
  128.3780  129.0980   73.0350 C   0  0  0  0  0  0  0  0  0  0  0  0
  129.8700  128.3890   70.3560 C   0  0  0  0  0  0  0  0  0  0  0  0
  129.9890  128.3530   68.9700 C   0  0  0  0  0  0  0  0  0  0  0  0
  129.6530  126.6490   65.9910 C   0  0  0  0  0  0  0  0  0  0  0  0
  130.1790  125.4800   66.7040 C   0  0  0  0  0  0  0  0  0  0  0  0
  130.5920  124.5570   67.2660 N   0  0  0  0  0  0  0  0  0  0  0  0
  129.5910  129.3300   60.1630 C   0  0  0  0  0  0  0  0  0  0  0  0
  129.0780  130.3520   59.3680 C   0  0  0  0  0  0  0  0  0  0  0  0
  1  2  1  0
  2  3  1  0
  3  4  2  0
  3  5  1  0
  5  6  2  0
  6  7  1  0
  7  8  2  0
  8  9  1  0
  9 10  1  0
 10 11  2  0
 10 12  1  0
 12 13  1  0
 13 14  1  0
 14 15  2  0
 15 16  1  0
 16 17  1  0
 17 18  2  0
 18 19  1  0
 19 20  2  0
 20 21  1  0
 20 22  1  0
 22 23  2  0
 16 24  2  0
 24 25  1  0
 25 26  1  0
 26 27  2  0
 27 28  1  0
 28 29  2  0
 29 30  1  0
 30 31  1  0
 29 32  1  0
 32 33  2  0
 25 34  2  0
 34 35  1  0
 35 36  3  0
  8 37  1  0
 37 38  2  0
 38  5  1  0
 34 14  1  0
 23 17  1  0
 33 26  1  0
M  END
>  <Binding energies>  (53) 
[-7.39]

>  <Ligand effiencies>  (53) 
[-0.18948717948717947]

>  <Interactions>  (53) 
["V-B:GLU:543:CG:9875, V-A:HIS:456:CE1:4064, H-B:LYS:547:NZ:9919, V-B:GLU:543:CB:9874, V-A:GLU:543:CB:4901, V-B:HIS:456:CE1:9037, V-A:GLU:543:CG:4902, V-A:GLU:543:CD:4903, V-B:GLU:543:CD:9876, H-A:ASP:366:OD2:3210, H-A:TYR:484:OH:4343, H-A:GLU:543:OE2:4905, H-A:HIS:456:NE2:4065, H-A:GLU:543:OE1:4904, V-B:HIS:456:CD2:9035, V-A:PRO:540:CA:4878, V-A:TYR:539:C:4862, V-A:PRO:540:N:4879, V-A:ALA:541:CB:4887, V-A:PRO:540:CB:4880, V-A:TYR:539:CZ:4872, V-A:TYR:539:CE1:4870, V-A:TYR:539:CD1:4868"]

$$$$
RR7_Rahimova_2017
     RDKit          3D

 47 53  0  0  0  0  0  0  0  0999 V2000
  124.0900  124.5160   57.8520 C   0  0  0  0  0  0  0  0  0  0  0  0
  125.3430  124.8750   57.2770 O   0  0  0  0  0  0  0  0  0  0  0  0
  126.5090  124.5140   57.9250 C   0  0  0  0  0  0  0  0  0  0  0  0
  127.5770  125.4050   57.8280 C   0  0  0  0  0  0  0  0  0  0  0  0
  128.7890  125.1300   58.4520 C   0  0  0  0  0  0  0  0  0  0  0  0
  128.9670  123.9460   59.1820 C   0  0  0  0  0  0  0  0  0  0  0  0
  130.3050  123.6260   59.9200 C   0  0  0  0  0  0  0  0  0  0  0  0
  130.3890  124.5510   61.0270 O   0  0  0  0  0  0  0  0  0  0  0  0
  129.2140  125.2230   61.4910 C   0  0  0  0  0  0  0  0  0  0  0  0
  129.6030  126.6230   61.9950 C   0  0  1  0  0  0  0  0  0  0  0  0
  129.3870  126.6290   63.4040 O   0  0  0  0  0  0  0  0  0  0  0  0
  130.5570  126.9210   64.1110 C   0  0  1  0  0  0  0  0  0  0  0  0
  130.5660  126.2120   65.3770 N   0  0  0  0  0  0  0  0  0  0  0  0
  131.1530  124.9930   65.6670 C   0  0  0  0  0  0  0  0  0  0  0  0
  130.9670  124.5570   66.8880 N   0  0  0  0  0  0  0  0  0  0  0  0
  130.1680  125.5110   67.4570 C   0  0  0  0  0  0  0  0  0  0  0  0
  129.6040  125.6240   68.7430 C   0  0  0  0  0  0  0  0  0  0  0  0
  129.8710  124.6160   69.6880 N   0  0  0  0  0  0  0  0  0  0  0  0
  129.6940  124.6380   71.0300 C   0  0  0  0  0  0  0  0  0  0  0  0
  129.2640  125.6090   71.6580 O   0  0  0  0  0  0  0  0  0  0  0  0
  130.0940  123.3760   71.7650 C   0  0  0  0  0  0  0  0  0  0  0  0
  129.1430  122.6930   72.5390 C   0  0  0  0  0  0  0  0  0  0  0  0
  129.4880  121.5280   73.2180 C   0  0  0  0  0  0  0  0  0  0  0  0
  130.7840  121.0330   73.1250 C   0  0  0  0  0  0  0  0  0  0  0  0
  131.7410  121.6930   72.3580 C   0  0  0  0  0  0  0  0  0  0  0  0
  131.3980  122.8590   71.6790 C   0  0  0  0  0  0  0  0  0  0  0  0
  128.8140  126.7020   69.0330 N   0  0  0  0  0  0  0  0  0  0  0  0
  128.6090  127.6200   68.0530 C   0  0  0  0  0  0  0  0  0  0  0  0
  129.1050  127.6120   66.7860 N   0  0  0  0  0  0  0  0  0  0  0  0
  129.8800  126.5490   66.5330 C   0  0  0  0  0  0  0  0  0  0  0  0
  131.6980  126.5640   63.1650 C   0  0  0  0  0  0  0  0  0  0  0  0
  131.0890  126.9790   61.8380 C   0  0  2  0  0  0  0  0  0  0  0  0
  131.2890  128.3560   61.5690 O   0  0  0  0  0  0  0  0  0  0  0  0
  130.3210  122.1960   60.5220 C   0  0  0  0  0  0  0  0  0  0  0  0
  130.3280  121.0730   59.6790 C   0  0  0  0  0  0  0  0  0  0  0  0
  130.3280  119.7860   60.2070 C   0  0  0  0  0  0  0  0  0  0  0  0
  130.3200  119.6080   61.5870 C   0  0  0  0  0  0  0  0  0  0  0  0
  130.3110  120.7070   62.4420 C   0  0  0  0  0  0  0  0  0  0  0  0
  130.3100  121.9940   61.9120 C   0  0  0  0  0  0  0  0  0  0  0  0
  131.5950  123.7310   59.0570 C   0  0  0  0  0  0  0  0  0  0  0  0
  131.5260  124.1770   57.7280 C   0  0  0  0  0  0  0  0  0  0  0  0
  132.6730  124.2650   56.9450 C   0  0  0  0  0  0  0  0  0  0  0  0
  133.9030  123.8970   57.4820 C   0  0  0  0  0  0  0  0  0  0  0  0
  133.9930  123.4390   58.7930 C   0  0  0  0  0  0  0  0  0  0  0  0
  132.8450  123.3520   59.5740 C   0  0  0  0  0  0  0  0  0  0  0  0
  127.8850  123.0600   59.2890 C   0  0  0  0  0  0  0  0  0  0  0  0
  126.6710  123.3350   58.6660 C   0  0  0  0  0  0  0  0  0  0  0  0
  1  2  1  0
  2  3  1  0
  3  4  2  0
  4  5  1  0
  5  6  2  0
  6  7  1  0
  7  8  1  0
  8  9  1  0
 10  9  1  1
 10 11  1  0
 11 12  1  0
 12 13  1  1
 13 14  1  0
 14 15  2  0
 15 16  1  0
 16 17  2  0
 17 18  1  0
 18 19  1  0
 19 20  2  0
 19 21  1  0
 21 22  2  0
 22 23  1  0
 23 24  2  0
 24 25  1  0
 25 26  2  0
 17 27  1  0
 27 28  2  0
 28 29  1  0
 29 30  2  0
 12 31  1  0
 31 32  1  0
 32 33  1  1
  7 34  1  0
 34 35  2  0
 35 36  1  0
 36 37  2  0
 37 38  1  0
 38 39  2  0
  7 40  1  0
 40 41  2  0
 41 42  1  0
 42 43  2  0
 43 44  1  0
 44 45  2  0
  6 46  1  0
 46 47  2  0
 47  3  1  0
 32 10  1  0
 39 34  1  0
 45 40  1  0
 30 13  1  0
 30 16  1  0
 26 21  1  0
M  END
>  <Binding energies>  (54) 
[-9.4]

>  <Ligand effiencies>  (54) 
[-0.19183673469387755]

>  <Interactions>  (54) 
["H-B:GLU:543:O:9871, V-A:HIS:456:CE1:4064, H-B:LYS:547:NZ:9919, V-B:ALA:541:CB:9860, V-B:GLU:543:CB:9874, V-A:TRP:381:CH2:3367, V-B:TYR:539:CD2:9842, V-A:LEU:475:CD2:4254, V-B:TYR:539:CE2:9844, V-A:ILE:369:CD1:3234, V-B:TYR:539:CZ:9845, V-A:ASP:366:CA:3205, V-A:ILE:369:CB:3231, V-A:ASP:366:CG:3208, V-B:HIS:456:CE1:9037, V-A:ASP:366:CB:3207, V-A:ASP:366:C:3203, V-A:TYR:484:CZ:4342, V-B:GLU:543:C:9870, V-A:GLU:543:CD:4903, H-A:ASP:366:OD2:3210, V-A:ILE:369:CG2:3232, H-A:TYR:484:OH:4343, H-A:ARG:545:NH2:4923, V-A:ARG:545:CZ:4921, V-B:PRO:540:CB:9853, V-B:PRO:540:CA:9851, H-A:GLU:543:OE2:4905, H-A:HIS:456:NE2:4065, V-A:LEU:475:CD1:4253, H-A:GLU:543:OE1:4904, V-A:TYR:484:CG:4337, V-A:ASP:473:CG:4235, V-A:HIS:456:CG:4061, V-A:ASP:473:CB:4234, V-A:HIS:456:CB:4060, V-A:TYR:531:CZ:4789, V-B:ASP:366:CB:8179, V-B:ASP:366:CG:8180, V-A:HIS:456:CD2:4063, V-A:TYR:484:CB:4336, V-B:LEU:363:CD1:8156, V-B:LEU:363:CA:8152, V-B:PRO:540:N:9852, V-A:TYR:531:CE1:4787, H-B:TYR:531:OH:9763, V-A:ILE:369:CG1:3233, V-A:TYR:484:CD2:4339"]

$$$$
RR8_A_Rahimova_2017
     RDKit          3D

 42 46  0  0  0  0  0  0  0  0999 V2000
  128.4630  128.2220   66.5540 O   0  0  0  0  0  0  0  0  0  0  0  0
  128.9640  127.5350   67.4510 C   0  0  0  0  0  0  0  0  0  0  0  0
  129.7400  126.4270   67.2350 O   0  0  0  0  0  0  0  0  0  0  0  0
  130.6680  126.4810   66.1870 C   0  0  1  0  0  0  0  0  0  0  0  0
  131.7340  125.6000   66.3970 O   0  0  0  0  0  0  0  0  0  0  0  0
  132.1560  124.9810   65.1850 C   0  0  2  0  0  0  0  0  0  0  0  0
  133.6580  125.2510   64.9940 C   0  0  0  0  0  0  0  0  0  0  0  0
  134.0790  124.6580   63.7730 O   0  0  0  0  0  0  0  0  0  0  0  0
  133.5470  123.3590   63.5490 C   0  0  0  0  0  0  0  0  0  0  0  0
  133.3730  123.1230   62.0550 C   0  0  0  0  0  0  0  0  0  0  0  0
  133.4370  121.8250   61.5430 C   0  0  0  0  0  0  0  0  0  0  0  0
  133.2710  121.6060   60.1770 C   0  0  0  0  0  0  0  0  0  0  0  0
  133.0390  122.6870   59.3280 C   0  0  0  0  0  0  0  0  0  0  0  0
  132.9680  123.9840   59.8320 C   0  0  0  0  0  0  0  0  0  0  0  0
  133.1320  124.2020   61.1970 C   0  0  0  0  0  0  0  0  0  0  0  0
  131.2340  125.5930   64.1220 C   0  0  1  0  0  0  0  0  0  0  0  0
  130.8220  124.6550   63.1300 O   0  0  0  0  0  0  0  0  0  0  0  0
  130.0600  123.5510   63.6030 C   0  0  0  0  0  0  0  0  0  0  0  0
  130.0450  122.4440   62.5570 C   0  0  0  0  0  0  0  0  0  0  0  0
  129.4350  122.6690   61.3190 C   0  0  0  0  0  0  0  0  0  0  0  0
  129.4090  121.6590   60.3620 C   0  0  0  0  0  0  0  0  0  0  0  0
  129.9900  120.4240   60.6450 C   0  0  0  0  0  0  0  0  0  0  0  0
  130.5920  120.1890   61.8780 C   0  0  0  0  0  0  0  0  0  0  0  0
  130.6180  121.1990   62.8370 C   0  0  0  0  0  0  0  0  0  0  0  0
  129.9990  125.9840   64.9130 C   0  0  2  0  0  0  0  0  0  0  0  0
  129.2590  126.9890   64.2250 O   0  0  0  0  0  0  0  0  0  0  0  0
  129.9980  127.7650   63.2880 C   0  0  0  0  0  0  0  0  0  0  0  0
  129.9040  127.1370   61.9060 C   0  0  0  0  0  0  0  0  0  0  0  0
  130.9950  127.1890   61.0330 C   0  0  0  0  0  0  0  0  0  0  0  0
  130.9080  126.6040   59.7730 C   0  0  0  0  0  0  0  0  0  0  0  0
  129.7310  125.9650   59.3890 C   0  0  0  0  0  0  0  0  0  0  0  0
  128.6410  125.9040   60.2540 C   0  0  0  0  0  0  0  0  0  0  0  0
  128.7280  126.4890   61.5160 C   0  0  0  0  0  0  0  0  0  0  0  0
  128.7890  127.8440   68.9100 C   0  0  0  0  0  0  0  0  0  0  0  0
  127.7440  127.2910   69.6650 C   0  0  0  0  0  0  0  0  0  0  0  0
  127.6080  127.5980   71.0160 C   0  0  0  0  0  0  0  0  0  0  0  0
  128.5110  128.4650   71.6460 C   0  0  0  0  0  0  0  0  0  0  0  0
  128.3660  128.7900   73.0860 N   0  0  0  0  0  0  0  0  0  0  0  0
  127.2580  129.1060   73.5090 O   0  0  0  0  0  0  0  0  0  0  0  0
  129.3590  128.7310   73.8050 O   0  0  0  0  0  0  0  0  0  0  0  0
  129.5520  129.0180   70.8900 C   0  0  0  0  0  0  0  0  0  0  0  0
  129.6900  128.7120   69.5400 C   0  0  0  0  0  0  0  0  0  0  0  0
  1  2  2  0
  2  3  1  0
  4  3  1  1
  4  5  1  0
  5  6  1  0
  6  7  1  6
  7  8  1  0
  8  9  1  0
  9 10  1  0
 10 11  2  0
 11 12  1  0
 12 13  2  0
 13 14  1  0
 14 15  2  0
  6 16  1  0
 16 17  1  6
 17 18  1  0
 18 19  1  0
 19 20  2  0
 20 21  1  0
 21 22  2  0
 22 23  1  0
 23 24  2  0
 16 25  1  0
 25 26  1  6
 26 27  1  0
 27 28  1  0
 28 29  2  0
 29 30  1  0
 30 31  2  0
 31 32  1  0
 32 33  2  0
  2 34  1  0
 34 35  2  0
 35 36  1  0
 36 37  2  0
 37 38  1  0
 38 39  2  0
 38 40  1  0
 37 41  1  0
 41 42  2  0
 25  4  1  0
 33 28  1  0
 42 34  1  0
 15 10  1  0
 24 19  1  0
M  CHG  2  38   1  40  -1
M  END
>  <Binding energies>  (55) 
[-8.75]

>  <Ligand effiencies>  (55) 
[-0.20833333333333334]

>  <Interactions>  (55) 
["V-B:GLU:543:CG:9875, V-A:HIS:456:CE1:4064, H-B:LYS:547:NZ:9919, V-B:ALA:541:CB:9860, V-B:TYR:539:CD2:9842, V-A:LEU:475:CD2:4254, V-A:GLU:543:CB:4901, V-B:TYR:539:CE2:9844, V-A:ILE:369:CD1:3234, V-A:ASP:366:CG:3208, V-B:HIS:456:CE1:9037, V-A:ASP:366:CB:3207, V-A:GLU:543:CD:4903, V-B:GLU:543:CD:9876, V-A:ILE:369:CG2:3232, H-A:TYR:484:OH:4343, H-A:GLY:454:N:4045, V-A:GLY:454:CA:4044, V-A:ARG:545:CZ:4921, H-A:HIS:456:NE2:4065, V-A:LEU:475:CD1:4253, V-B:HIS:456:CD2:9035, H-A:LYS:547:NZ:4946, V-A:ARG:545:CD:4918"]

$$$$
RR8_B_Rahimova_2017
     RDKit          3D

 42 46  0  0  0  0  0  0  0  0999 V2000
  128.7610  129.6550   67.2220 O   0  0  0  0  0  0  0  0  0  0  0  0
  129.4310  128.7650   67.7550 C   0  0  0  0  0  0  0  0  0  0  0  0
  130.2310  127.8880   67.0760 O   0  0  0  0  0  0  0  0  0  0  0  0
  129.9350  126.5160   67.1610 C   0  0  2  0  0  0  0  0  0  0  0  0
  131.0940  125.7330   67.2010 O   0  0  0  0  0  0  0  0  0  0  0  0
  131.4990  125.3310   65.8930 C   0  0  2  0  0  0  0  0  0  0  0  0
  132.9300  125.8270   65.6230 C   0  0  0  0  0  0  0  0  0  0  0  0
  133.2560  125.5940   64.2580 O   0  0  0  0  0  0  0  0  0  0  0  0
  133.4990  124.2360   63.9250 C   0  0  0  0  0  0  0  0  0  0  0  0
  133.1490  124.0080   62.4620 C   0  0  0  0  0  0  0  0  0  0  0  0
  132.4200  124.9760   61.7640 C   0  0  0  0  0  0  0  0  0  0  0  0
  132.0750  124.7640   60.4320 C   0  0  0  0  0  0  0  0  0  0  0  0
  132.4620  123.5830   59.8010 C   0  0  0  0  0  0  0  0  0  0  0  0
  133.1930  122.6170   60.4880 C   0  0  0  0  0  0  0  0  0  0  0  0
  133.5360  122.8280   61.8210 C   0  0  0  0  0  0  0  0  0  0  0  0
  130.4170  125.9020   64.9700 C   0  0  1  0  0  0  0  0  0  0  0  0
  130.1800  125.0010   63.8840 O   0  0  0  0  0  0  0  0  0  0  0  0
  129.9560  123.6290   64.2150 C   0  0  0  0  0  0  0  0  0  0  0  0
  129.9220  122.7340   62.9800 C   0  0  0  0  0  0  0  0  0  0  0  0
  130.6680  121.5530   62.9490 C   0  0  0  0  0  0  0  0  0  0  0  0
  130.6100  120.7220   61.8330 C   0  0  0  0  0  0  0  0  0  0  0  0
  129.8080  121.0780   60.7500 C   0  0  0  0  0  0  0  0  0  0  0  0
  129.0650  122.2560   60.7720 C   0  0  0  0  0  0  0  0  0  0  0  0
  129.1210  123.0860   61.8900 C   0  0  0  0  0  0  0  0  0  0  0  0
  129.2130  126.0700   65.8900 C   0  0  2  0  0  0  0  0  0  0  0  0
  128.3180  127.0470   65.3640 O   0  0  0  0  0  0  0  0  0  0  0  0
  127.1460  127.2820   66.1300 C   0  0  0  0  0  0  0  0  0  0  0  0
  126.2540  128.2340   65.3540 C   0  0  0  0  0  0  0  0  0  0  0  0
  125.2610  128.9650   66.0120 C   0  0  0  0  0  0  0  0  0  0  0  0
  124.4350  129.8210   65.2870 C   0  0  0  0  0  0  0  0  0  0  0  0
  124.6040  129.9420   63.9100 C   0  0  0  0  0  0  0  0  0  0  0  0
  125.5940  129.2170   63.2480 C   0  0  0  0  0  0  0  0  0  0  0  0
  126.4190  128.3620   63.9720 C   0  0  0  0  0  0  0  0  0  0  0  0
  129.4220  128.5050   69.2340 C   0  0  0  0  0  0  0  0  0  0  0  0
  130.5410  128.7720   70.0380 C   0  0  0  0  0  0  0  0  0  0  0  0
  130.5070  128.5140   71.4040 C   0  0  0  0  0  0  0  0  0  0  0  0
  129.3610  127.9730   71.9990 C   0  0  0  0  0  0  0  0  0  0  0  0
  129.3370  127.6730   73.4520 N   0  0  0  0  0  0  0  0  0  0  0  0
  129.8100  126.6080   73.8420 O   0  0  0  0  0  0  0  0  0  0  0  0
  128.8490  128.5020   74.2160 O   0  0  0  0  0  0  0  0  0  0  0  0
  128.2430  127.7120   71.1980 C   0  0  0  0  0  0  0  0  0  0  0  0
  128.2720  127.9770   69.8320 C   0  0  0  0  0  0  0  0  0  0  0  0
  1  2  2  0
  2  3  1  0
  4  3  1  6
  4  5  1  0
  5  6  1  0
  6  7  1  6
  7  8  1  0
  8  9  1  0
  9 10  1  0
 10 11  2  0
 11 12  1  0
 12 13  2  0
 13 14  1  0
 14 15  2  0
  6 16  1  0
 16 17  1  6
 17 18  1  0
 18 19  1  0
 19 20  2  0
 20 21  1  0
 21 22  2  0
 22 23  1  0
 23 24  2  0
 16 25  1  0
 25 26  1  6
 26 27  1  0
 27 28  1  0
 28 29  2  0
 29 30  1  0
 30 31  2  0
 31 32  1  0
 32 33  2  0
  2 34  1  0
 34 35  2  0
 35 36  1  0
 36 37  2  0
 37 38  1  0
 38 39  2  0
 38 40  1  0
 37 41  1  0
 41 42  2  0
 25  4  1  0
 33 28  1  0
 42 34  1  0
 15 10  1  0
 24 19  1  0
M  CHG  2  38   1  40  -1
M  END
>  <Binding energies>  (56) 
[-8.59]

>  <Ligand effiencies>  (56) 
[-0.20452380952380952]

>  <Interactions>  (56) 
["V-B:GLU:543:CG:9875, V-A:HIS:456:CE1:4064, H-B:LYS:547:NZ:9919, V-B:ALA:541:CB:9860, V-B:GLU:543:CB:9874, V-A:LEU:475:CD2:4254, V-A:GLU:543:CB:4901, V-A:ILE:369:CD1:3234, V-A:ASP:366:CG:3208, V-B:HIS:456:CE1:9037, V-A:GLU:543:CG:4902, V-A:GLU:543:CD:4903, V-B:GLU:543:CD:9876, H-A:TYR:484:OH:4343, H-A:ARG:545:NE:4919, H-A:ARG:545:NH2:4923, V-A:GLY:454:CA:4044, V-A:ARG:545:CZ:4921, H-A:HIS:456:NE2:4065, V-A:LEU:475:CD1:4253, V-B:ARG:545:CG:9890, V-A:GLY:544:C:4907, V-A:GLU:543:C:4897, V-A:LYS:547:CE:4945, V-B:HIS:456:CD2:9035, V-B:ARG:545:CD:9891, H-A:LYS:547:NZ:4946, V-B:ARG:545:CZ:9894, V-A:ARG:545:CD:4918, V-A:ARG:545:CG:4917, V-B:LYS:547:CE:9918"]

$$$$
RR9_Rahimova_2017
     RDKit          3D

 36 40  0  0  0  0  0  0  0  0999 V2000
  130.5820  128.5690   72.3400 C   0  0  0  0  0  0  0  0  0  0  0  0
  129.3140  129.3060   71.8950 C   0  0  0  0  0  0  0  0  0  0  0  0
  128.5140  128.4160   71.1230 O   0  0  0  0  0  0  0  0  0  0  0  0
  129.0290  127.8770   69.9600 C   0  0  0  0  0  0  0  0  0  0  0  0
  129.8050  128.7240   69.1700 C   0  0  0  0  0  0  0  0  0  0  0  0
  130.3630  128.2690   67.9800 C   0  0  0  0  0  0  0  0  0  0  0  0
  130.1600  126.9510   67.5440 C   0  0  0  0  0  0  0  0  0  0  0  0
  130.7560  126.4560   66.2600 C   0  0  0  0  0  0  0  0  0  0  0  0
  130.1450  126.7070   65.0210 C   0  0  0  0  0  0  0  0  0  0  0  0
  130.7140  126.2520   63.8180 C   0  0  0  0  0  0  0  0  0  0  0  0
  130.0660  126.6390   62.5170 C   0  0  0  0  0  0  0  0  0  0  0  0
  129.4040  125.8180   61.8820 O   0  0  0  0  0  0  0  0  0  0  0  0
  130.2830  127.9050   62.1080 N   0  0  0  0  0  0  0  0  0  0  0  0
  129.8700  128.4760   60.8220 C   0  0  0  0  0  0  0  0  0  0  0  0
  130.9370  128.3090   59.7150 C   0  0  0  0  0  0  0  0  0  0  0  0
  132.0390  129.3630   59.7290 C   0  0  0  0  0  0  0  0  0  0  0  0
  132.6840  129.7190   58.5400 C   0  0  0  0  0  0  0  0  0  0  0  0
  133.6660  130.7060   58.5510 C   0  0  0  0  0  0  0  0  0  0  0  0
  134.0030  131.3310   59.7490 C   0  0  0  0  0  0  0  0  0  0  0  0
  133.3680  130.9780   60.9380 C   0  0  0  0  0  0  0  0  0  0  0  0
  132.3850  129.9910   60.9280 C   0  0  0  0  0  0  0  0  0  0  0  0
  131.9110  125.5030   63.9340 C   0  0  0  0  0  0  0  0  0  0  0  0
  132.8440  124.8060   63.0800 C   0  0  0  0  0  0  0  0  0  0  0  0
  132.7850  124.5650   61.6080 C   0  0  0  0  0  0  0  0  0  0  0  0
  132.0030  125.3880   60.7920 C   0  0  0  0  0  0  0  0  0  0  0  0
  131.9370  125.1520   59.4200 C   0  0  0  0  0  0  0  0  0  0  0  0
  132.6570  124.0950   58.8610 C   0  0  0  0  0  0  0  0  0  0  0  0
  132.5700  123.8260   57.3690 C   0  0  0  0  0  0  0  0  0  0  0  0
  133.4370  123.2710   59.6720 C   0  0  0  0  0  0  0  0  0  0  0  0
  133.5040  123.5090   61.0420 C   0  0  0  0  0  0  0  0  0  0  0  0
  133.8450  124.3270   63.7850 N   0  0  0  0  0  0  0  0  0  0  0  0
  133.6140  124.6110   65.0770 N   0  0  0  0  0  0  0  0  0  0  0  0
  132.4440  125.3170   65.2320 C   0  0  0  0  0  0  0  0  0  0  0  0
  131.9170  125.7530   66.3750 N   0  0  0  0  0  0  0  0  0  0  0  0
  129.3770  126.1060   68.3430 C   0  0  0  0  0  0  0  0  0  0  0  0
  128.8180  126.5580   69.5360 C   0  0  0  0  0  0  0  0  0  0  0  0
  1  2  1  0
  2  3  1  0
  3  4  1  0
  4  5  2  0
  5  6  1  0
  6  7  2  0
  7  8  1  0
  8  9  2  0
  9 10  1  0
 10 11  1  0
 11 12  2  0
 11 13  1  0
 13 14  1  0
 14 15  1  0
 15 16  1  0
 16 17  2  0
 17 18  1  0
 18 19  2  0
 19 20  1  0
 20 21  2  0
 10 22  2  0
 22 23  1  0
 23 24  1  0
 24 25  2  0
 25 26  1  0
 26 27  2  0
 27 28  1  0
 27 29  1  0
 29 30  2  0
 23 31  2  0
 31 32  1  0
 32 33  1  0
 33 34  2  0
  7 35  1  0
 35 36  2  0
 36  4  1  0
 34  8  1  0
 21 16  1  0
 33 22  1  0
 30 24  1  0
M  END
>  <Binding energies>  (57) 
[-8.89]

>  <Ligand effiencies>  (57) 
[-0.23394736842105265]

>  <Interactions>  (57) 
["V-A:HIS:456:CE1:4064, V-B:GLU:543:CB:9874, V-A:GLU:543:CB:4901, V-B:TYR:539:CE2:9844, V-A:ILE:369:CD1:3234, V-B:TYR:539:CZ:9845, V-A:ASP:366:CG:3208, V-A:ASP:366:CB:3207, V-A:GLU:543:CG:4902, V-B:GLU:543:C:9870, V-A:GLU:543:CD:4903, H-A:TYR:484:OH:4343, H-A:GLY:454:N:4045, V-A:GLY:454:CA:4044, H-A:GLU:543:OE2:4905, H-A:HIS:456:NE2:4065, H-A:GLU:543:OE1:4904, V-A:GLY:544:C:4907, V-A:GLU:543:C:4897, V-A:LYS:547:CE:4945, V-B:HIS:456:CD2:9035, V-A:LEU:363:CD1:3184, V-A:TYR:531:CE2:4788, V-A:ASN:362:C:3167, V-A:LEU:363:CA:3180, V-A:TYR:531:CZ:4789, V-A:PRO:540:CB:4880, V-A:LEU:363:CB:3182, V-A:ASN:362:CB:3171"]

$$$$
