1a_Ghoteimi_2023
     RDKit          3D

 67 70  0  0  0  0  0  0  0  0999 V2000
  131.3380  118.3680   75.6270 C   0  0  0  0  0  0  0  0  0  0  0  0
  130.0800  119.2110   75.4000 C   0  0  0  0  0  0  0  0  0  0  0  0
  130.4560  120.5040   74.9410 O   0  0  0  0  0  0  0  0  0  0  0  0
  130.9640  120.6850   73.6950 C   0  0  0  0  0  0  0  0  0  0  0  0
  131.7150  119.8750   73.1410 O   0  0  0  0  0  0  0  0  0  0  0  0
  130.5180  121.9670   73.0540 C   0  0  0  0  0  0  0  0  0  0  0  0
  130.3380  123.1440   73.7950 C   0  0  0  0  0  0  0  0  0  0  0  0
  129.9200  124.3180   73.1740 C   0  0  0  0  0  0  0  0  0  0  0  0
  129.6790  124.3360   71.7920 C   0  0  0  0  0  0  0  0  0  0  0  0
  129.2510  125.4620   71.0630 N   0  0  0  0  0  0  0  0  0  0  0  0
  129.0020  126.7220   71.4830 C   0  0  0  0  0  0  0  0  0  0  0  0
  129.1270  127.1300   72.6370 O   0  0  0  0  0  0  0  0  0  0  0  0
  128.5320  127.6940   70.4010 C   0  0  0  0  0  0  0  0  0  0  0  0
  127.4160  126.8920   69.2130 S   0  0  0  0  0  0  0  0  0  0  0  0
  128.1360  127.1460   67.6080 C   0  0  0  0  0  0  0  0  0  0  0  0
  127.5620  128.1470   66.9000 N   0  0  0  0  0  0  0  0  0  0  0  0
  128.0240  128.4470   65.6570 C   0  0  0  0  0  0  0  0  0  0  0  0
  127.3490  129.5830   64.9450 C   0  0  0  0  0  0  0  0  0  0  0  0
  125.9520  129.6380   64.8180 C   0  0  0  0  0  0  0  0  0  0  0  0
  125.3290  130.6930   64.1580 C   0  0  0  0  0  0  0  0  0  0  0  0
  126.0810  131.7250   63.6030 C   0  0  0  0  0  0  0  0  0  0  0  0
  125.3800  132.7330   62.9690 O   0  0  0  0  0  0  0  0  0  0  0  0
  123.9930  132.5520   62.7030 C   0  0  0  0  0  0  0  0  0  0  0  0
  127.4780  131.6830   63.7170 C   0  0  0  0  0  0  0  0  0  0  0  0
  128.0970  130.6270   64.3780 C   0  0  0  0  0  0  0  0  0  0  0  0
  129.0890  127.7270   65.1010 C   0  0  0  0  0  0  0  0  0  0  0  0
  129.6820  126.6700   65.8030 C   0  0  0  0  0  0  0  0  0  0  0  0
  130.7920  125.9270   65.1340 C   0  0  0  0  0  0  0  0  0  0  0  0
  132.0730  125.8940   65.6940 C   0  0  0  0  0  0  0  0  0  0  0  0
  133.0980  125.1860   65.0720 C   0  0  0  0  0  0  0  0  0  0  0  0
  132.8620  124.4930   63.8850 C   0  0  0  0  0  0  0  0  0  0  0  0
  133.9380  123.8190   63.3410 O   0  0  0  0  0  0  0  0  0  0  0  0
  134.1120  123.8140   61.9280 C   0  0  0  0  0  0  0  0  0  0  0  0
  131.5760  124.5170   63.3240 C   0  0  0  0  0  0  0  0  0  0  0  0
  130.5520  125.2270   63.9480 C   0  0  0  0  0  0  0  0  0  0  0  0
  129.1990  126.3680   67.0990 C   0  0  0  0  0  0  0  0  0  0  0  0
  129.7900  125.2830   67.8900 C   0  0  0  0  0  0  0  0  0  0  0  0
  130.2570  124.4270   68.5130 N   0  0  0  0  0  0  0  0  0  0  0  0
  129.8540  123.1670   71.0520 C   0  0  0  0  0  0  0  0  0  0  0  0
  130.2720  121.9930   71.6750 C   0  0  0  0  0  0  0  0  0  0  0  0
  131.5115  118.2517   76.7070 H   0  0  0  0  0  0  0  0  0  0  0  0
  131.2031  117.3772   75.1685 H   0  0  0  0  0  0  0  0  0  0  0  0
  132.2031  118.8695   75.1685 H   0  0  0  0  0  0  0  0  0  0  0  0
  129.4430  118.7247   74.6466 H   0  0  0  0  0  0  0  0  0  0  0  0
  129.5232  119.3031   76.3442 H   0  0  0  0  0  0  0  0  0  0  0  0
  130.5291  123.1396   74.8783 H   0  0  0  0  0  0  0  0  0  0  0  0
  129.7785  125.2330   73.7680 H   0  0  0  0  0  0  0  0  0  0  0  0
  129.1490  125.2970   70.0720 H   0  0  0  0  0  0  0  0  0  0  0  0
  128.0013  128.5302   70.8796 H   0  0  0  0  0  0  0  0  0  0  0  0
  129.4169  128.0496   69.8528 H   0  0  0  0  0  0  0  0  0  0  0  0
  125.3386  128.8325   65.2480 H   0  0  0  0  0  0  0  0  0  0  0  0
  124.2324  130.7117   64.0740 H   0  0  0  0  0  0  0  0  0  0  0  0
  123.4437  132.4803   63.6533 H   0  0  0  0  0  0  0  0  0  0  0  0
  123.6157  133.4085   62.1251 H   0  0  0  0  0  0  0  0  0  0  0  0
  123.8481  131.6273   62.1251 H   0  0  0  0  0  0  0  0  0  0  0  0
  128.0872  132.4888   63.2817 H   0  0  0  0  0  0  0  0  0  0  0  0
  129.1940  130.6097   64.4580 H   0  0  0  0  0  0  0  0  0  0  0  0
  129.4638  127.9946   64.1020 H   0  0  0  0  0  0  0  0  0  0  0  0
  132.2724  126.4314   66.6329 H   0  0  0  0  0  0  0  0  0  0  0  0
  134.1023  125.1732   65.5206 H   0  0  0  0  0  0  0  0  0  0  0  0
  135.1857  123.7831   61.6909 H   0  0  0  0  0  0  0  0  0  0  0  0
  133.6166  122.9297   61.5007 H   0  0  0  0  0  0  0  0  0  0  0  0
  133.6682  124.7253   61.5007 H   0  0  0  0  0  0  0  0  0  0  0  0
  131.3756  123.9737   62.3888 H   0  0  0  0  0  0  0  0  0  0  0  0
  129.5459  125.2367   63.5034 H   0  0  0  0  0  0  0  0  0  0  0  0
  129.6607  123.1718   69.9691 H   0  0  0  0  0  0  0  0  0  0  0  0
  130.4100  121.0788   71.0791 H   0  0  0  0  0  0  0  0  0  0  0  0
  1  2  1  0
  2  3  1  0
  3  4  1  0
  4  5  2  0
  4  6  1  0
  6  7  2  0
  7  8  1  0
  8  9  2  0
  9 10  1  0
 10 11  1  0
 11 12  2  0
 11 13  1  0
 13 14  1  0
 14 15  1  0
 15 16  2  0
 16 17  1  0
 17 18  1  0
 18 19  2  0
 19 20  1  0
 20 21  2  0
 21 22  1  0
 22 23  1  0
 21 24  1  0
 24 25  2  0
 17 26  2  0
 26 27  1  0
 27 28  1  0
 28 29  2  0
 29 30  1  0
 30 31  2  0
 31 32  1  0
 32 33  1  0
 31 34  1  0
 34 35  2  0
 27 36  2  0
 36 37  1  0
 37 38  3  0
  9 39  1  0
 39 40  2  0
 40  6  1  0
 36 15  1  0
 25 18  1  0
 35 28  1  0
  1 41  1  0
  1 42  1  0
  1 43  1  0
  2 44  1  0
  2 45  1  0
  7 46  1  0
  8 47  1  0
 10 48  1  0
 13 49  1  0
 13 50  1  0
 19 51  1  0
 20 52  1  0
 23 53  1  0
 23 54  1  0
 23 55  1  0
 24 56  1  0
 25 57  1  0
 26 58  1  0
 29 59  1  0
 30 60  1  0
 33 61  1  0
 33 62  1  0
 33 63  1  0
 34 64  1  0
 35 65  1  0
 39 66  1  0
 40 67  1  0
M  END
>  <Binding energies>  (1) 
[-8.19]

>  <Ligand effiencies>  (1) 
[-0.1997560975609756]

>  <Interactions>  (1) 
["V-B:GLU:543:CG:9875, H-B:GLU:543:O:9871, V-A:HIS:456:CE1:4064, H-B:LYS:547:NZ:9919, V-B:GLU:543:CB:9874, V-A:ILE:369:CD1:3234, V-A:ASP:366:CG:3208, V-B:HIS:456:CE1:9037, V-A:GLU:543:CG:4902, V-B:GLU:543:C:9870, H-B:TYR:484:OH:9315, V-B:GLU:543:CA:9872, V-A:GLU:543:CD:4903, H-A:TYR:484:OH:4343, H-A:GLY:454:N:4045, V-A:ARG:545:CZ:4921, H-A:HIS:456:NE2:4065, V-A:TYR:484:CG:4337, V-A:TYR:484:CD1:4338, V-A:ASP:473:CG:4235, V-A:ASP:473:CB:4234, V-B:LEU:475:CD2:9226, V-B:LYS:547:CE:9918, V-A:TYR:484:CB:4336, V-B:ILE:369:CD1:8206, V-A:TYR:484:CD2:4339, V-A:PRO:486:CD:4361, V-A:PRO:486:CG:4360, V-B:GLY:454:CA:9016"]

$$$$
1a_Grossjean_2025
     RDKit          3D

 45 46  0  0  0  0  0  0  0  0999 V2000
  129.8610  128.7590   71.9370 C   0  0  0  0  0  0  0  0  0  0  0  0
  130.1810  127.2730   72.1230 C   0  0  0  0  0  0  0  0  0  0  0  0
  129.0440  126.4960   71.7700 O   0  0  0  0  0  0  0  0  0  0  0  0
  128.2030  126.8940   70.7800 C   0  0  0  0  0  0  0  0  0  0  0  0
  127.0380  127.2490   70.9800 O   0  0  0  0  0  0  0  0  0  0  0  0
  128.8270  126.8430   69.4150 C   0  0  0  0  0  0  0  0  0  0  0  0
  129.4950  125.6790   69.0120 C   0  0  0  0  0  0  0  0  0  0  0  0
  130.0880  125.6030   67.7550 C   0  0  0  0  0  0  0  0  0  0  0  0
  130.0270  126.6850   66.8760 C   0  0  0  0  0  0  0  0  0  0  0  0
  130.6620  126.4990   65.6330 N   0  0  0  0  0  0  0  0  0  0  0  0
  131.7240  125.7310   65.3070 C   0  0  0  0  0  0  0  0  0  0  0  0
  132.3560  125.0170   66.0860 O   0  0  0  0  0  0  0  0  0  0  0  0
  132.1420  125.7820   63.8360 C   0  0  0  0  0  0  0  0  0  0  0  0
  133.4670  124.5950   63.4590 S   0  0  0  0  0  0  0  0  0  0  0  0
  132.9090  123.5840   62.1060 C   0  0  0  0  0  0  0  0  0  0  0  0
  133.5800  123.8010   60.9470 N   0  0  0  0  0  0  0  0  0  0  0  0
  133.2330  123.0880   59.8510 C   0  0  0  0  0  0  0  0  0  0  0  0
  134.0170  123.3940   58.5880 C   0  0  0  0  0  0  0  0  0  0  0  0
  132.2210  122.1300   59.8660 C   0  0  0  0  0  0  0  0  0  0  0  0
  131.5370  121.8830   61.0610 C   0  0  0  0  0  0  0  0  0  0  0  0
  130.4420  120.8180   61.0580 C   0  0  0  0  0  0  0  0  0  0  0  0
  131.8850  122.6140   62.2200 C   0  0  0  0  0  0  0  0  0  0  0  0
  131.2160  122.3380   63.4950 C   0  0  0  0  0  0  0  0  0  0  0  0
  130.6870  122.1180   64.5000 N   0  0  0  0  0  0  0  0  0  0  0  0
  129.3520  127.8510   67.2680 C   0  0  0  0  0  0  0  0  0  0  0  0
  128.7610  127.9270   68.5260 C   0  0  0  0  0  0  0  0  0  0  0  0
  129.7579  129.2379   72.9219 H   0  0  0  0  0  0  0  0  0  0  0  0
  130.6757  129.2423   71.3778 H   0  0  0  0  0  0  0  0  0  0  0  0
  128.9196  128.8642   71.3778 H   0  0  0  0  0  0  0  0  0  0  0  0
  131.0284  126.9968   71.4783 H   0  0  0  0  0  0  0  0  0  0  0  0
  130.4431  127.0830   73.1743 H   0  0  0  0  0  0  0  0  0  0  0  0
  129.5512  124.8183   69.6946 H   0  0  0  0  0  0  0  0  0  0  0  0
  130.6089  124.6827   67.4522 H   0  0  0  0  0  0  0  0  0  0  0  0
  130.2270  126.9990   64.8720 H   0  0  0  0  0  0  0  0  0  0  0  0
  131.2678  125.5480   63.2107 H   0  0  0  0  0  0  0  0  0  0  0  0
  132.5234  126.7925   63.6274 H   0  0  0  0  0  0  0  0  0  0  0  0
  135.0104  123.7817   58.8580 H   0  0  0  0  0  0  0  0  0  0  0  0
  134.1310  122.4744   57.9953 H   0  0  0  0  0  0  0  0  0  0  0  0
  133.4779  124.1477   57.9953 H   0  0  0  0  0  0  0  0  0  0  0  0
  131.9637  121.5760   58.9512 H   0  0  0  0  0  0  0  0  0  0  0  0
  130.1777  120.5609   62.0944 H   0  0  0  0  0  0  0  0  0  0  0  0
  129.5537  121.2069   60.5387 H   0  0  0  0  0  0  0  0  0  0  0  0
  130.8061  119.9192   60.5387 H   0  0  0  0  0  0  0  0  0  0  0  0
  129.2897  128.7068   66.5797 H   0  0  0  0  0  0  0  0  0  0  0  0
  128.2368  128.8462   68.8265 H   0  0  0  0  0  0  0  0  0  0  0  0
  1  2  1  0
  2  3  1  0
  3  4  1  0
  4  5  2  0
  4  6  1  0
  6  7  2  0
  7  8  1  0
  8  9  2  0
  9 10  1  0
 10 11  1  0
 11 12  2  0
 11 13  1  0
 13 14  1  0
 14 15  1  0
 15 16  2  0
 16 17  1  0
 17 18  1  0
 17 19  2  0
 19 20  1  0
 20 21  1  0
 20 22  2  0
 22 23  1  0
 23 24  3  0
  9 25  1  0
 25 26  2  0
 26  6  1  0
 22 15  1  0
  1 27  1  0
  1 28  1  0
  1 29  1  0
  2 30  1  0
  2 31  1  0
  7 32  1  0
  8 33  1  0
 10 34  1  0
 13 35  1  0
 13 36  1  0
 18 37  1  0
 18 38  1  0
 18 39  1  0
 19 40  1  0
 21 41  1  0
 21 42  1  0
 21 43  1  0
 25 44  1  0
 26 45  1  0
M  END
>  <Binding energies>  (1) 
[-7.45]

>  <Ligand effiencies>  (1) 
[-0.2759259259259259]

>  <Interactions>  (1) 
["V-A:HIS:456:CE1:4064, H-B:LYS:547:NZ:9919, V-B:ALA:541:CB:9860, V-B:GLU:543:CB:9874, V-A:LEU:475:CD2:4254, V-B:TYR:539:CE2:9844, V-A:ILE:369:CD1:3234, V-A:ASP:366:CA:3205, V-A:ILE:369:CB:3231, V-A:ASP:366:CG:3208, V-B:HIS:456:CE1:9037, V-A:ASP:366:CB:3207, V-A:ASP:366:C:3203, V-B:GLU:543:C:9870, V-A:GLU:543:CD:4903, V-A:ILE:369:CG2:3232, H-A:TYR:484:OH:4343, H-A:GLY:454:N:4045, V-A:ARG:545:CZ:4921, H-A:HIS:456:NE2:4065, H-A:GLU:543:OE1:4904, V-A:ILE:369:CG1:3233"]

$$$$
1aa_Ghoteimi_2023
     RDKit          3D

 67 70  0  0  0  0  0  0  0  0999 V2000
  127.9780  123.7120   56.6330 C   0  0  0  0  0  0  0  0  0  0  0  0
  127.1710  122.4830   57.0630 C   0  0  0  0  0  0  0  0  0  0  0  0
  125.9180  122.9000   57.5910 O   0  0  0  0  0  0  0  0  0  0  0  0
  125.4750  124.1720   57.4210 C   0  0  0  0  0  0  0  0  0  0  0  0
  124.9290  124.5700   56.3880 O   0  0  0  0  0  0  0  0  0  0  0  0
  125.7140  125.0490   58.6170 C   0  0  0  0  0  0  0  0  0  0  0  0
  125.9250  126.4310   58.4930 C   0  0  0  0  0  0  0  0  0  0  0  0
  126.1440  127.2200   59.6200 C   0  0  0  0  0  0  0  0  0  0  0  0
  126.1520  126.6370   60.8960 C   0  0  0  0  0  0  0  0  0  0  0  0
  126.3630  127.3310   62.1020 N   0  0  0  0  0  0  0  0  0  0  0  0
  125.8350  128.4950   62.5470 C   0  0  0  0  0  0  0  0  0  0  0  0
  125.0230  129.1810   61.9280 O   0  0  0  0  0  0  0  0  0  0  0  0
  126.2870  128.9890   63.9310 C   0  0  0  0  0  0  0  0  0  0  0  0
  127.7180  129.0250   64.0080 O   0  0  0  0  0  0  0  0  0  0  0  0
  128.4020  128.1020   64.7860 C   0  0  0  0  0  0  0  0  0  0  0  0
  128.3270  128.2240   66.1400 N   0  0  0  0  0  0  0  0  0  0  0  0
  128.9940  127.3480   66.9360 C   0  0  0  0  0  0  0  0  0  0  0  0
  128.8580  127.5500   68.4180 C   0  0  0  0  0  0  0  0  0  0  0  0
  129.8640  128.1920   69.1550 C   0  0  0  0  0  0  0  0  0  0  0  0
  129.7410  128.3780   70.5290 C   0  0  0  0  0  0  0  0  0  0  0  0
  128.6100  127.9310   71.2090 C   0  0  0  0  0  0  0  0  0  0  0  0
  128.5750  128.1590   72.5710 O   0  0  0  0  0  0  0  0  0  0  0  0
  128.7760  129.4810   73.0590 C   0  0  0  0  0  0  0  0  0  0  0  0
  127.5940  127.2930   70.4850 C   0  0  0  0  0  0  0  0  0  0  0  0
  127.7190  127.1080   69.1120 C   0  0  0  0  0  0  0  0  0  0  0  0
  129.7450  126.3060   66.3780 C   0  0  0  0  0  0  0  0  0  0  0  0
  129.8300  126.1510   64.9880 C   0  0  0  0  0  0  0  0  0  0  0  0
  130.6380  125.0130   64.4550 C   0  0  0  0  0  0  0  0  0  0  0  0
  130.0460  123.7610   64.2600 C   0  0  0  0  0  0  0  0  0  0  0  0
  130.7900  122.6990   63.7550 C   0  0  0  0  0  0  0  0  0  0  0  0
  132.1350  122.8650   63.4290 C   0  0  0  0  0  0  0  0  0  0  0  0
  132.7930  121.7560   62.9350 O   0  0  0  0  0  0  0  0  0  0  0  0
  134.0280  121.9300   62.2500 C   0  0  0  0  0  0  0  0  0  0  0  0
  132.7310  124.1220   63.6160 C   0  0  0  0  0  0  0  0  0  0  0  0
  131.9860  125.1840   64.1220 C   0  0  0  0  0  0  0  0  0  0  0  0
  129.1460  127.0810   64.1710 C   0  0  0  0  0  0  0  0  0  0  0  0
  129.2130  127.0250   62.7090 C   0  0  0  0  0  0  0  0  0  0  0  0
  129.2640  126.9830   61.5540 N   0  0  0  0  0  0  0  0  0  0  0  0
  125.9450  125.2620   61.0220 C   0  0  0  0  0  0  0  0  0  0  0  0
  125.7270  124.4760   59.8950 C   0  0  0  0  0  0  0  0  0  0  0  0
  128.3309  124.2495   57.5255 H   0  0  0  0  0  0  0  0  0  0  0  0
  128.8420  123.3915   56.0324 H   0  0  0  0  0  0  0  0  0  0  0  0
  127.3405  124.3775   56.0324 H   0  0  0  0  0  0  0  0  0  0  0  0
  127.0037  121.8313   56.1928 H   0  0  0  0  0  0  0  0  0  0  0  0
  127.7279  121.9297   57.8335 H   0  0  0  0  0  0  0  0  0  0  0  0
  125.9174  126.8957   57.4960 H   0  0  0  0  0  0  0  0  0  0  0  0
  126.3109  128.3016   59.5093 H   0  0  0  0  0  0  0  0  0  0  0  0
  127.0100  126.8760   62.7300 H   0  0  0  0  0  0  0  0  0  0  0  0
  125.8896  130.0004   64.1020 H   0  0  0  0  0  0  0  0  0  0  0  0
  125.9065  128.2977   64.6974 H   0  0  0  0  0  0  0  0  0  0  0  0
  130.7651  128.5545   68.6386 H   0  0  0  0  0  0  0  0  0  0  0  0
  130.5453  128.8833   71.0839 H   0  0  0  0  0  0  0  0  0  0  0  0
  128.7743  129.4700   74.1589 H   0  0  0  0  0  0  0  0  0  0  0  0
  129.7424  129.8623   72.6976 H   0  0  0  0  0  0  0  0  0  0  0  0
  127.9666  130.1323   72.6976 H   0  0  0  0  0  0  0  0  0  0  0  0
  126.6927  126.9365   71.0052 H   0  0  0  0  0  0  0  0  0  0  0  0
  126.9111  126.6063   68.5592 H   0  0  0  0  0  0  0  0  0  0  0  0
  130.2735  125.6020   67.0376 H   0  0  0  0  0  0  0  0  0  0  0  0
  128.9843  123.6147   64.5077 H   0  0  0  0  0  0  0  0  0  0  0  0
  130.3119  121.7187   63.6116 H   0  0  0  0  0  0  0  0  0  0  0  0
  134.8406  122.0445   62.9825 H   0  0  0  0  0  0  0  0  0  0  0  0
  134.2244  121.0506   61.6190 H   0  0  0  0  0  0  0  0  0  0  0  0
  133.9738  122.8294   61.6190 H   0  0  0  0  0  0  0  0  0  0  0  0
  133.7911  124.2687   63.3617 H   0  0  0  0  0  0  0  0  0  0  0  0
  132.4616  126.1661   64.2611 H   0  0  0  0  0  0  0  0  0  0  0  0
  125.9543  124.7971   62.0189 H   0  0  0  0  0  0  0  0  0  0  0  0
  125.5633  123.3942   60.0087 H   0  0  0  0  0  0  0  0  0  0  0  0
  1  2  1  0
  2  3  1  0
  3  4  1  0
  4  5  2  0
  4  6  1  0
  6  7  2  0
  7  8  1  0
  8  9  2  0
  9 10  1  0
 10 11  1  0
 11 12  2  0
 11 13  1  0
 13 14  1  0
 14 15  1  0
 15 16  2  0
 16 17  1  0
 17 18  1  0
 18 19  2  0
 19 20  1  0
 20 21  2  0
 21 22  1  0
 22 23  1  0
 21 24  1  0
 24 25  2  0
 17 26  2  0
 26 27  1  0
 27 28  1  0
 28 29  2  0
 29 30  1  0
 30 31  2  0
 31 32  1  0
 32 33  1  0
 31 34  1  0
 34 35  2  0
 27 36  2  0
 36 37  1  0
 37 38  3  0
  9 39  1  0
 39 40  2  0
 40  6  1  0
 36 15  1  0
 25 18  1  0
 35 28  1  0
  1 41  1  0
  1 42  1  0
  1 43  1  0
  2 44  1  0
  2 45  1  0
  7 46  1  0
  8 47  1  0
 10 48  1  0
 13 49  1  0
 13 50  1  0
 19 51  1  0
 20 52  1  0
 23 53  1  0
 23 54  1  0
 23 55  1  0
 24 56  1  0
 25 57  1  0
 26 58  1  0
 29 59  1  0
 30 60  1  0
 33 61  1  0
 33 62  1  0
 33 63  1  0
 34 64  1  0
 35 65  1  0
 39 66  1  0
 40 67  1  0
M  END
>  <Binding energies>  (1) 
[-7.55]

>  <Ligand effiencies>  (1) 
[-0.18414634146341463]

>  <Interactions>  (1) 
["V-B:GLU:543:CG:9875, V-A:HIS:456:CE1:4064, H-B:LYS:547:NZ:9919, V-B:GLU:543:CB:9874, V-B:TYR:539:C:9835, V-A:LEU:475:CD2:4254, V-A:ILE:369:CD1:3234, V-B:HIS:456:CE1:9037, V-B:GLU:543:C:9870, V-A:GLU:543:CD:4903, V-B:GLU:543:CD:9876, H-A:TYR:484:OH:4343, V-A:GLY:454:CA:4044, V-B:PRO:540:CA:9851, V-B:HIS:456:CD2:9035, V-B:ASP:366:CB:8179, V-B:GLY:544:C:9880, H-B:GLU:543:OE2:9878, V-B:ASP:366:CG:8180, H-B:GLU:543:OE1:9877, V-B:ARG:545:CZ:9894, V-B:PRO:540:N:9852, V-B:MET:535:CE:9803, H-B:ARG:545:NH2:9896, H-B:TYR:531:OH:9763"]

$$$$
1b_Ghoteimi_2023
     RDKit          3D

 54 57  0  0  0  0  0  0  0  0999 V2000
  129.9130  126.8640   74.2820 C   0  0  0  0  0  0  0  0  0  0  0  0
  130.0430  128.0760   73.5490 O   0  0  0  0  0  0  0  0  0  0  0  0
  129.8790  128.0550   72.1770 C   0  0  0  0  0  0  0  0  0  0  0  0
  128.6530  127.5950   71.7020 C   0  0  0  0  0  0  0  0  0  0  0  0
  128.3980  127.5360   70.3350 C   0  0  0  0  0  0  0  0  0  0  0  0
  129.3630  127.9400   69.4000 C   0  0  0  0  0  0  0  0  0  0  0  0
  129.0850  127.8740   67.9240 C   0  0  0  0  0  0  0  0  0  0  0  0
  128.0300  128.5630   67.3160 C   0  0  0  0  0  0  0  0  0  0  0  0
  127.8170  128.4710   65.9350 C   0  0  0  0  0  0  0  0  0  0  0  0
  126.6680  129.2290   65.3550 C   0  0  0  0  0  0  0  0  0  0  0  0
  126.8880  130.2020   64.3760 C   0  0  0  0  0  0  0  0  0  0  0  0
  125.8220  130.9180   63.8380 C   0  0  0  0  0  0  0  0  0  0  0  0
  124.5180  130.6800   64.2720 C   0  0  0  0  0  0  0  0  0  0  0  0
  123.5230  131.4380   63.6840 O   0  0  0  0  0  0  0  0  0  0  0  0
  123.7280  131.9540   62.3730 C   0  0  0  0  0  0  0  0  0  0  0  0
  124.2930  129.7110   65.2610 C   0  0  0  0  0  0  0  0  0  0  0  0
  125.3620  128.9970   65.7970 C   0  0  0  0  0  0  0  0  0  0  0  0
  128.7010  127.6730   65.1680 C   0  0  0  0  0  0  0  0  0  0  0  0
  128.5790  127.6200   63.7080 C   0  0  0  0  0  0  0  0  0  0  0  0
  128.4820  127.5780   62.5550 N   0  0  0  0  0  0  0  0  0  0  0  0
  129.7330  126.9870   65.8470 C   0  0  0  0  0  0  0  0  0  0  0  0
  130.9290  125.9350   65.0490 S   0  0  0  0  0  0  0  0  0  0  0  0
  130.5440  124.2090   65.4940 C   0  0  0  0  0  0  0  0  0  0  0  0
  130.4240  123.2430   64.3070 C   0  0  0  0  0  0  0  0  0  0  0  0
  131.1530  122.2520   64.2240 O   0  0  0  0  0  0  0  0  0  0  0  0
  129.4780  123.5790   63.4010 N   0  0  0  0  0  0  0  0  0  0  0  0
  129.1480  122.8950   62.2370 C   0  0  0  0  0  0  0  0  0  0  0  0
  130.0980  122.3020   61.4070 C   0  0  0  0  0  0  0  0  0  0  0  0
  129.3750  121.7370   60.3810 C   0  0  0  0  0  0  0  0  0  0  0  0
  128.0570  121.9760   60.5850 O   0  0  0  0  0  0  0  0  0  0  0  0
  127.9260  122.7100   61.7640 N   0  0  0  0  0  0  0  0  0  0  0  0
  129.9250  127.1050   67.1830 N   0  0  0  0  0  0  0  0  0  0  0  0
  130.5950  128.4000   69.8900 C   0  0  0  0  0  0  0  0  0  0  0  0
  130.8540  128.4590   71.2560 C   0  0  0  0  0  0  0  0  0  0  0  0
  129.9365  127.0830   75.3597 H   0  0  0  0  0  0  0  0  0  0  0  0
  128.9580  126.3816   74.0266 H   0  0  0  0  0  0  0  0  0  0  0  0
  130.7440  126.1901   74.0266 H   0  0  0  0  0  0  0  0  0  0  0  0
  127.8785  127.2751   72.4146 H   0  0  0  0  0  0  0  0  0  0  0  0
  127.4239  127.1666   69.9819 H   0  0  0  0  0  0  0  0  0  0  0  0
  127.3605  129.1838   67.9295 H   0  0  0  0  0  0  0  0  0  0  0  0
  127.9117  130.4037   64.0277 H   0  0  0  0  0  0  0  0  0  0  0  0
  126.0097  131.6774   63.0646 H   0  0  0  0  0  0  0  0  0  0  0  0
  124.1334  132.9744   62.4398 H   0  0  0  0  0  0  0  0  0  0  0  0
  124.4392  131.3115   61.8331 H   0  0  0  0  0  0  0  0  0  0  0  0
  122.7698  131.9748   61.8331 H   0  0  0  0  0  0  0  0  0  0  0  0
  123.2699  129.5146   65.6141 H   0  0  0  0  0  0  0  0  0  0  0  0
  125.1769  128.2428   66.5761 H   0  0  0  0  0  0  0  0  0  0  0  0
  131.3432  123.8406   66.1540 H   0  0  0  0  0  0  0  0  0  0  0  0
  129.5546  124.2293   65.9743 H   0  0  0  0  0  0  0  0  0  0  0  0
  128.9360  124.4100   63.5850 H   0  0  0  0  0  0  0  0  0  0  0  0
  131.1895  122.2885   61.5426 H   0  0  0  0  0  0  0  0  0  0  0  0
  129.7990  121.1809   59.5320 H   0  0  0  0  0  0  0  0  0  0  0  0
  131.3716  128.7204   69.1799 H   0  0  0  0  0  0  0  0  0  0  0  0
  131.8279  128.8242   71.6138 H   0  0  0  0  0  0  0  0  0  0  0  0
  1  2  1  0
  2  3  1  0
  3  4  2  0
  4  5  1  0
  5  6  2  0
  6  7  1  0
  7  8  2  0
  8  9  1  0
  9 10  1  0
 10 11  2  0
 11 12  1  0
 12 13  2  0
 13 14  1  0
 14 15  1  0
 13 16  1  0
 16 17  2  0
  9 18  2  0
 18 19  1  0
 19 20  3  0
 18 21  1  0
 21 22  1  0
 22 23  1  0
 23 24  1  0
 24 25  2  0
 24 26  1  0
 26 27  1  0
 27 28  1  0
 28 29  2  0
 29 30  1  0
 30 31  1  0
 21 32  2  0
  6 33  1  0
 33 34  2  0
 34  3  1  0
 32  7  1  0
 17 10  1  0
 31 27  2  0
  1 35  1  0
  1 36  1  0
  1 37  1  0
  4 38  1  0
  5 39  1  0
  8 40  1  0
 11 41  1  0
 12 42  1  0
 15 43  1  0
 15 44  1  0
 15 45  1  0
 16 46  1  0
 17 47  1  0
 23 48  1  0
 23 49  1  0
 26 50  1  0
 28 51  1  0
 29 52  1  0
 33 53  1  0
 34 54  1  0
M  END
>  <Binding energies>  (1) 
[-8.44]

>  <Ligand effiencies>  (1) 
[-0.24114285714285713]

>  <Interactions>  (1) 
["V-B:GLU:543:CG:9875, V-A:HIS:456:CE1:4064, H-B:LYS:547:NZ:9919, V-B:ALA:541:CB:9860, V-A:GLU:543:CB:4901, V-B:HIS:456:CE1:9037, V-A:TYR:484:CZ:4342, V-A:TYR:484:CE1:4340, V-A:GLU:543:CD:4903, V-B:GLU:543:CD:9876, H-A:TYR:484:OH:4343, H-B:ALA:541:N:9859, V-B:ARG:545:CG:9890, V-A:GLY:544:C:4907, V-A:GLU:543:C:4897, V-A:LYS:547:CE:4945, V-B:ARG:545:CD:9891, H-A:LYS:547:NZ:4946, H-B:GLU:543:OE2:9878, V-B:ARG:545:CZ:9894, V-B:LYS:547:CE:9918, V-B:ILE:369:CD1:8206, H-B:GLY:454:N:9017"]

$$$$
1b_Grossjean_2025
     RDKit          3D

 42 43  0  0  0  0  0  0  0  0999 V2000
  129.9730  127.3090   71.9950 C   0  0  0  0  0  0  0  0  0  0  0  0
  128.7770  126.6350   71.6270 O   0  0  0  0  0  0  0  0  0  0  0  0
  128.0660  127.0190   70.5370 C   0  0  0  0  0  0  0  0  0  0  0  0
  126.9170  127.4680   70.5970 O   0  0  0  0  0  0  0  0  0  0  0  0
  128.8190  126.8530   69.2480 C   0  0  0  0  0  0  0  0  0  0  0  0
  128.8690  127.8680   68.2810 C   0  0  0  0  0  0  0  0  0  0  0  0
  129.5740  127.6810   67.0960 C   0  0  0  0  0  0  0  0  0  0  0  0
  130.2430  126.4820   66.8520 C   0  0  0  0  0  0  0  0  0  0  0  0
  130.9230  126.4040   65.6210 N   0  0  0  0  0  0  0  0  0  0  0  0
  132.0410  125.7240   65.2860 C   0  0  0  0  0  0  0  0  0  0  0  0
  132.6970  125.0080   66.0420 O   0  0  0  0  0  0  0  0  0  0  0  0
  132.4890  125.8770   63.8310 C   0  0  0  0  0  0  0  0  0  0  0  0
  133.7310  124.6350   63.3620 S   0  0  0  0  0  0  0  0  0  0  0  0
  133.0400  123.6670   62.0380 C   0  0  0  0  0  0  0  0  0  0  0  0
  133.6630  123.8480   60.8460 N   0  0  0  0  0  0  0  0  0  0  0  0
  133.2190  123.1590   59.7690 C   0  0  0  0  0  0  0  0  0  0  0  0
  133.9720  123.4000   58.4740 C   0  0  0  0  0  0  0  0  0  0  0  0
  132.1400  122.2780   59.8320 C   0  0  0  0  0  0  0  0  0  0  0  0
  131.4780  122.1020   61.0510 C   0  0  0  0  0  0  0  0  0  0  0  0
  130.2880  121.1440   61.0920 C   0  0  0  0  0  0  0  0  0  0  0  0
  131.9240  122.8110   62.1900 C   0  0  0  0  0  0  0  0  0  0  0  0
  131.2190  122.6760   63.4670 C   0  0  0  0  0  0  0  0  0  0  0  0
  130.6590  122.5670   64.4730 N   0  0  0  0  0  0  0  0  0  0  0  0
  130.1990  125.4620   67.8140 C   0  0  0  0  0  0  0  0  0  0  0  0
  129.4930  125.6500   68.9990 C   0  0  0  0  0  0  0  0  0  0  0  0
  130.0476  127.3510   73.0917 H   0  0  0  0  0  0  0  0  0  0  0  0
  130.8395  126.7663   71.5891 H   0  0  0  0  0  0  0  0  0  0  0  0
  129.9576  128.3312   71.5891 H   0  0  0  0  0  0  0  0  0  0  0  0
  128.3468  128.8193   68.4609 H   0  0  0  0  0  0  0  0  0  0  0  0
  129.6038  128.4851   66.3460 H   0  0  0  0  0  0  0  0  0  0  0  0
  130.5040  126.9560   64.8870 H   0  0  0  0  0  0  0  0  0  0  0  0
  131.6119  125.7659   63.1765 H   0  0  0  0  0  0  0  0  0  0  0  0
  132.9466  126.8712   63.7208 H   0  0  0  0  0  0  0  0  0  0  0  0
  134.9970  123.7281   58.7015 H   0  0  0  0  0  0  0  0  0  0  0  0
  134.0062  122.4679   57.8908 H   0  0  0  0  0  0  0  0  0  0  0  0
  133.4587  124.1787   57.8908 H   0  0  0  0  0  0  0  0  0  0  0  0
  131.8144  121.7295   58.9358 H   0  0  0  0  0  0  0  0  0  0  0  0
  130.0242  120.9316   62.1386 H   0  0  0  0  0  0  0  0  0  0  0  0
  129.4284  121.6050   60.5835 H   0  0  0  0  0  0  0  0  0  0  0  0
  130.5549  120.2058   60.5835 H   0  0  0  0  0  0  0  0  0  0  0  0
  130.7231  124.5122   67.6318 H   0  0  0  0  0  0  0  0  0  0  0  0
  129.4639  124.8452   69.7483 H   0  0  0  0  0  0  0  0  0  0  0  0
  1  2  1  0
  2  3  1  0
  3  4  2  0
  3  5  1  0
  5  6  2  0
  6  7  1  0
  7  8  2  0
  8  9  1  0
  9 10  1  0
 10 11  2  0
 10 12  1  0
 12 13  1  0
 13 14  1  0
 14 15  2  0
 15 16  1  0
 16 17  1  0
 16 18  2  0
 18 19  1  0
 19 20  1  0
 19 21  2  0
 21 22  1  0
 22 23  3  0
  8 24  1  0
 24 25  2  0
 25  5  1  0
 21 14  1  0
  1 26  1  0
  1 27  1  0
  1 28  1  0
  6 29  1  0
  7 30  1  0
  9 31  1  0
 12 32  1  0
 12 33  1  0
 17 34  1  0
 17 35  1  0
 17 36  1  0
 18 37  1  0
 20 38  1  0
 20 39  1  0
 20 40  1  0
 24 41  1  0
 25 42  1  0
M  END
>  <Binding energies>  (1) 
[-7.31]

>  <Ligand effiencies>  (1) 
[-0.28115384615384614]

>  <Interactions>  (1) 
["V-A:HIS:456:CE1:4064, H-B:LYS:547:NZ:9919, V-B:ALA:541:CB:9860, V-B:GLU:543:CB:9874, V-B:TYR:539:CE2:9844, V-A:ILE:369:CD1:3234, V-A:ASP:366:CA:3205, V-A:ILE:369:CB:3231, V-A:ASP:366:CG:3208, V-B:HIS:456:CE1:9037, V-A:ASP:366:CB:3207, V-A:ASP:366:C:3203, V-B:GLU:543:C:9870, V-A:GLU:543:CD:4903, V-A:ILE:369:CG2:3232, H-A:TYR:484:OH:4343, H-A:GLY:454:N:4045, V-A:ARG:545:CZ:4921, H-A:GLU:543:OE2:4905, H-A:HIS:456:NE2:4065, H-A:GLU:543:OE1:4904, V-A:ILE:369:CG1:3233, H-B:HIS:456:ND1:9034"]

$$$$
1c_Ghoteimi_2023
     RDKit          3D

 54 57  0  0  0  0  0  0  0  0999 V2000
  123.8760  132.0000   61.8230 C   0  0  0  0  0  0  0  0  0  0  0  0
  124.4640  132.3090   63.0820 O   0  0  0  0  0  0  0  0  0  0  0  0
  125.2490  131.3610   63.7120 C   0  0  0  0  0  0  0  0  0  0  0  0
  124.5970  130.4790   64.5690 C   0  0  0  0  0  0  0  0  0  0  0  0
  125.3090  129.4940   65.2480 C   0  0  0  0  0  0  0  0  0  0  0  0
  126.6980  129.3630   65.0890 C   0  0  0  0  0  0  0  0  0  0  0  0
  127.4710  128.3060   65.8220 C   0  0  0  0  0  0  0  0  0  0  0  0
  128.5870  127.6660   65.2720 C   0  0  0  0  0  0  0  0  0  0  0  0
  129.2930  126.7050   66.0050 C   0  0  0  0  0  0  0  0  0  0  0  0
  130.5130  126.1120   65.3820 C   0  0  0  0  0  0  0  0  0  0  0  0
  131.7190  126.0620   66.0860 C   0  0  0  0  0  0  0  0  0  0  0  0
  132.8610  125.5290   65.4960 C   0  0  0  0  0  0  0  0  0  0  0  0
  132.8200  125.0410   64.1900 C   0  0  0  0  0  0  0  0  0  0  0  0
  134.0010  124.5300   63.6860 O   0  0  0  0  0  0  0  0  0  0  0  0
  134.0180  123.9940   62.3670 C   0  0  0  0  0  0  0  0  0  0  0  0
  131.6130  125.0950   63.4770 C   0  0  0  0  0  0  0  0  0  0  0  0
  130.4720  125.6290   64.0700 C   0  0  0  0  0  0  0  0  0  0  0  0
  128.8330  126.3750   67.3020 C   0  0  0  0  0  0  0  0  0  0  0  0
  129.5080  125.3520   68.1070 C   0  0  0  0  0  0  0  0  0  0  0  0
  130.0420  124.5450   68.7420 N   0  0  0  0  0  0  0  0  0  0  0  0
  127.7120  127.0700   67.8020 C   0  0  0  0  0  0  0  0  0  0  0  0
  127.1300  126.8810   69.4730 S   0  0  0  0  0  0  0  0  0  0  0  0
  128.3440  127.7760   70.4940 C   0  0  0  0  0  0  0  0  0  0  0  0
  128.9230  126.8970   71.6080 C   0  0  0  0  0  0  0  0  0  0  0  0
  129.1140  127.3780   72.7260 O   0  0  0  0  0  0  0  0  0  0  0  0
  129.1440  125.6080   71.2680 N   0  0  0  0  0  0  0  0  0  0  0  0
  129.5130  124.5780   72.1190 C   0  0  0  0  0  0  0  0  0  0  0  0
  129.1880  124.4200   73.3840 N   0  0  0  0  0  0  0  0  0  0  0  0
  129.6840  123.3010   73.8740 C   0  0  0  0  0  0  0  0  0  0  0  0
  130.4290  122.5210   72.9950 C   0  0  0  0  0  0  0  0  0  0  0  0
  130.4810  123.3070   71.4450 S   0  0  0  0  0  0  0  0  0  0  0  0
  127.0580  128.0140   67.0840 N   0  0  0  0  0  0  0  0  0  0  0  0
  127.3430  130.2530   64.2180 C   0  0  0  0  0  0  0  0  0  0  0  0
  126.6350  131.2400   63.5390 C   0  0  0  0  0  0  0  0  0  0  0  0
  122.9126  131.4937   61.9826 H   0  0  0  0  0  0  0  0  0  0  0  0
  123.7127  132.9288   61.2567 H   0  0  0  0  0  0  0  0  0  0  0  0
  124.5483  131.3387   61.2567 H   0  0  0  0  0  0  0  0  0  0  0  0
  123.5093  130.5610   64.7111 H   0  0  0  0  0  0  0  0  0  0  0  0
  124.7745  128.8068   65.9203 H   0  0  0  0  0  0  0  0  0  0  0  0
  128.9130  127.9207   64.2528 H   0  0  0  0  0  0  0  0  0  0  0  0
  131.7660  126.4472   67.1153 H   0  0  0  0  0  0  0  0  0  0  0  0
  133.8026  125.4923   66.0635 H   0  0  0  0  0  0  0  0  0  0  0  0
  134.0528  122.8957   62.4179 H   0  0  0  0  0  0  0  0  0  0  0  0
  133.1095  124.3076   61.8320 H   0  0  0  0  0  0  0  0  0  0  0  0
  134.9048  124.3646   61.8320 H   0  0  0  0  0  0  0  0  0  0  0  0
  131.5679  124.7142   62.4460 H   0  0  0  0  0  0  0  0  0  0  0  0
  129.5309  125.6714   63.5021 H   0  0  0  0  0  0  0  0  0  0  0  0
  129.1666  128.1176   69.8485 H   0  0  0  0  0  0  0  0  0  0  0  0
  127.8277  128.6244   70.9669 H   0  0  0  0  0  0  0  0  0  0  0  0
  128.9530  125.3410   70.3140 H   0  0  0  0  0  0  0  0  0  0  0  0
  129.5181  123.0008   74.9192 H   0  0  0  0  0  0  0  0  0  0  0  0
  130.9079  121.5618   73.2411 H   0  0  0  0  0  0  0  0  0  0  0  0
  128.4296  130.1693   64.0687 H   0  0  0  0  0  0  0  0  0  0  0  0
  127.1649  131.9280   62.8638 H   0  0  0  0  0  0  0  0  0  0  0  0
  1  2  1  0
  2  3  1  0
  3  4  2  0
  4  5  1  0
  5  6  2  0
  6  7  1  0
  7  8  2  0
  8  9  1  0
  9 10  1  0
 10 11  2  0
 11 12  1  0
 12 13  2  0
 13 14  1  0
 14 15  1  0
 13 16  1  0
 16 17  2  0
  9 18  2  0
 18 19  1  0
 19 20  3  0
 18 21  1  0
 21 22  1  0
 22 23  1  0
 23 24  1  0
 24 25  2  0
 24 26  1  0
 26 27  1  0
 27 28  2  0
 28 29  1  0
 29 30  2  0
 30 31  1  0
 21 32  2  0
  6 33  1  0
 33 34  2  0
 34  3  1  0
 32  7  1  0
 17 10  1  0
 31 27  1  0
  1 35  1  0
  1 36  1  0
  1 37  1  0
  4 38  1  0
  5 39  1  0
  8 40  1  0
 11 41  1  0
 12 42  1  0
 15 43  1  0
 15 44  1  0
 15 45  1  0
 16 46  1  0
 17 47  1  0
 23 48  1  0
 23 49  1  0
 26 50  1  0
 29 51  1  0
 30 52  1  0
 33 53  1  0
 34 54  1  0
M  END
>  <Binding energies>  (1) 
[-8.41]

>  <Ligand effiencies>  (1) 
[-0.2402857142857143]

>  <Interactions>  (1) 
["V-B:GLU:543:CG:9875, H-B:GLU:543:O:9871, V-A:HIS:456:CE1:4064, H-B:LYS:547:NZ:9919, V-B:GLU:543:CB:9874, V-A:ILE:369:CD1:3234, V-A:ASP:366:CG:3208, V-B:HIS:456:CE1:9037, V-B:GLU:543:C:9870, V-B:GLU:543:CA:9872, V-B:GLU:543:CD:9876, H-A:TYR:484:OH:4343, H-A:GLY:454:N:4045, V-A:ARG:545:CZ:4921, H-A:HIS:456:NE2:4065, V-B:HIS:456:CD2:9035, V-A:HIS:456:CG:4061, V-B:ARG:545:CZ:9894, V-A:HIS:456:CD2:4063, V-B:LYS:547:CE:9918, V-B:ILE:369:CD1:8206"]

$$$$
1c_Grossjean_2025
     RDKit          3D

 40 41  0  0  0  0  0  0  0  0999 V2000
  135.1290  124.9170   66.7370 C   0  0  0  0  0  0  0  0  0  0  0  0
  134.8780  125.3700   65.4110 O   0  0  0  0  0  0  0  0  0  0  0  0
  133.6970  125.0130   64.7900 C   0  0  0  0  0  0  0  0  0  0  0  0
  132.5180  125.3780   65.4380 C   0  0  0  0  0  0  0  0  0  0  0  0
  131.2770  125.0640   64.8900 C   0  0  0  0  0  0  0  0  0  0  0  0
  131.2040  124.3770   63.6690 C   0  0  0  0  0  0  0  0  0  0  0  0
  130.0050  124.0010   63.0330 N   0  0  0  0  0  0  0  0  0  0  0  0
  129.5080  122.7670   62.8020 C   0  0  0  0  0  0  0  0  0  0  0  0
  130.0370  121.7090   63.1420 O   0  0  0  0  0  0  0  0  0  0  0  0
  128.1710  122.7270   62.0600 C   0  0  0  0  0  0  0  0  0  0  0  0
  128.3930  122.4430   60.2790 S   0  0  0  0  0  0  0  0  0  0  0  0
  130.1380  122.3120   59.9440 C   0  0  0  0  0  0  0  0  0  0  0  0
  130.6590  123.4180   59.3540 N   0  0  0  0  0  0  0  0  0  0  0  0
  131.9780  123.4350   59.0510 C   0  0  0  0  0  0  0  0  0  0  0  0
  132.4890  124.7080   58.4040 C   0  0  0  0  0  0  0  0  0  0  0  0
  132.8220  122.3580   59.3090 C   0  0  0  0  0  0  0  0  0  0  0  0
  132.2910  121.2030   59.8940 C   0  0  0  0  0  0  0  0  0  0  0  0
  133.2330  120.0280   60.1510 C   0  0  0  0  0  0  0  0  0  0  0  0
  130.9150  121.1620   60.2170 C   0  0  0  0  0  0  0  0  0  0  0  0
  130.3300  119.9420   60.7790 C   0  0  0  0  0  0  0  0  0  0  0  0
  129.8690  118.9790   61.2240 N   0  0  0  0  0  0  0  0  0  0  0  0
  132.3820  124.0000   63.0230 C   0  0  0  0  0  0  0  0  0  0  0  0
  133.6210  124.3150   63.5740 C   0  0  0  0  0  0  0  0  0  0  0  0
  134.7255  125.6453   67.4558 H   0  0  0  0  0  0  0  0  0  0  0  0
  134.6421  123.9425   66.8899 H   0  0  0  0  0  0  0  0  0  0  0  0
  136.2134  124.8131   66.8899 H   0  0  0  0  0  0  0  0  0  0  0  0
  132.5686  125.9205   66.3936 H   0  0  0  0  0  0  0  0  0  0  0  0
  130.3545  125.3544   65.4141 H   0  0  0  0  0  0  0  0  0  0  0  0
  129.4210  124.7750   62.7560 H   0  0  0  0  0  0  0  0  0  0  0  0
  127.5575  121.9142   62.4760 H   0  0  0  0  0  0  0  0  0  0  0  0
  127.6789  123.7020   62.1911 H   0  0  0  0  0  0  0  0  0  0  0  0
  132.7773  125.4263   59.1856 H   0  0  0  0  0  0  0  0  0  0  0  0
  133.3636  124.4759   57.7786 H   0  0  0  0  0  0  0  0  0  0  0  0
  131.6966  125.1451   57.7786 H   0  0  0  0  0  0  0  0  0  0  0  0
  133.8911  122.4143   59.0565 H   0  0  0  0  0  0  0  0  0  0  0  0
  133.3500  119.8821   61.2350 H   0  0  0  0  0  0  0  0  0  0  0  0
  132.8129  119.1161   59.7015 H   0  0  0  0  0  0  0  0  0  0  0  0
  134.2144  120.2397   59.7015 H   0  0  0  0  0  0  0  0  0  0  0  0
  132.3312  123.4500   62.0717 H   0  0  0  0  0  0  0  0  0  0  0  0
  134.5436  124.0161   63.0550 H   0  0  0  0  0  0  0  0  0  0  0  0
  1  2  1  0
  2  3  1  0
  3  4  2  0
  4  5  1  0
  5  6  2  0
  6  7  1  0
  7  8  1  0
  8  9  2  0
  8 10  1  0
 10 11  1  0
 11 12  1  0
 12 13  2  0
 13 14  1  0
 14 15  1  0
 14 16  2  0
 16 17  1  0
 17 18  1  0
 17 19  2  0
 19 20  1  0
 20 21  3  0
  6 22  1  0
 22 23  2  0
 23  3  1  0
 19 12  1  0
  1 24  1  0
  1 25  1  0
  1 26  1  0
  4 27  1  0
  5 28  1  0
  7 29  1  0
 10 30  1  0
 10 31  1  0
 15 32  1  0
 15 33  1  0
 15 34  1  0
 16 35  1  0
 18 36  1  0
 18 37  1  0
 18 38  1  0
 22 39  1  0
 23 40  1  0
M  END
>  <Binding energies>  (1) 
[-6.8]

>  <Ligand effiencies>  (1) 
[-0.2833333333333333]

>  <Interactions>  (1) 
["V-B:GLU:543:CG:9875, V-A:TRP:381:CZ2:3365, V-B:ALA:541:CB:9860, V-B:ALA:541:CA:9858, V-A:TRP:381:CH2:3367, V-B:TYR:539:CD2:9842, V-A:LEU:475:CD2:4254, V-B:TYR:539:CE2:9844, V-A:ILE:369:CD1:3234, V-A:ASP:366:CG:3208, V-A:ASP:366:CB:3207, V-B:GLU:543:CD:9876, H-A:ARG:545:NH1:4922, V-A:ILE:369:CG2:3232, H-A:ARG:545:NE:4919, H-A:GLY:454:N:4045, V-A:GLY:454:CA:4044, V-A:ARG:545:CZ:4921, H-B:ALA:541:N:9859, H-B:GLU:543:OE2:9878, V-A:ARG:545:CD:4918, V-A:GLY:453:CA:4039, V-A:ARG:545:CG:4917, V-A:HIS:456:CD2:4063, V-A:GLY:453:C:4037, V-A:ILE:455:C:4047"]

$$$$
1d_Ghoteimi_2023
     RDKit          3D

 50 52  0  0  0  0  0  0  0  0999 V2000
  124.5470  131.7550   64.0880 C   0  0  0  0  0  0  0  0  0  0  0  0
  123.8480  130.6110   64.5530 O   0  0  0  0  0  0  0  0  0  0  0  0
  124.2150  130.0010   65.6990 C   0  0  0  0  0  0  0  0  0  0  0  0
  123.7810  130.2450   66.8260 O   0  0  0  0  0  0  0  0  0  0  0  0
  125.2770  128.9290   65.4710 C   0  0  0  0  0  0  0  0  0  0  0  0
  126.8810  129.7710   65.3140 S   0  0  0  0  0  0  0  0  0  0  0  0
  128.1000  128.7120   66.0620 C   0  0  0  0  0  0  0  0  0  0  0  0
  128.1520  128.8090   67.4120 N   0  0  0  0  0  0  0  0  0  0  0  0
  129.0410  128.0580   68.1110 C   0  0  0  0  0  0  0  0  0  0  0  0
  129.0300  128.2200   69.6040 C   0  0  0  0  0  0  0  0  0  0  0  0
  127.9140  127.8450   70.3690 C   0  0  0  0  0  0  0  0  0  0  0  0
  127.9030  128.0020   71.7510 C   0  0  0  0  0  0  0  0  0  0  0  0
  129.0050  128.5390   72.4130 C   0  0  0  0  0  0  0  0  0  0  0  0
  128.9040  128.6610   73.7860 O   0  0  0  0  0  0  0  0  0  0  0  0
  128.0990  129.7000   74.3320 C   0  0  0  0  0  0  0  0  0  0  0  0
  130.1270  128.9180   71.6630 C   0  0  0  0  0  0  0  0  0  0  0  0
  130.1340  128.7590   70.2800 C   0  0  0  0  0  0  0  0  0  0  0  0
  129.9020  127.1740   67.4500 C   0  0  0  0  0  0  0  0  0  0  0  0
  129.8810  127.0660   66.0540 C   0  0  0  0  0  0  0  0  0  0  0  0
  130.8330  126.1080   65.4130 C   0  0  0  0  0  0  0  0  0  0  0  0
  132.1890  126.1290   65.7550 C   0  0  0  0  0  0  0  0  0  0  0  0
  133.0810  125.2390   65.1620 C   0  0  0  0  0  0  0  0  0  0  0  0
  132.6370  124.3100   64.2220 C   0  0  0  0  0  0  0  0  0  0  0  0
  133.5940  123.4730   63.6810 O   0  0  0  0  0  0  0  0  0  0  0  0
  134.0570  123.7110   62.3570 C   0  0  0  0  0  0  0  0  0  0  0  0
  131.2750  124.2780   63.8850 C   0  0  0  0  0  0  0  0  0  0  0  0
  130.3850  125.1670   64.4800 C   0  0  0  0  0  0  0  0  0  0  0  0
  128.9680  127.8720   65.3290 C   0  0  0  0  0  0  0  0  0  0  0  0
  128.9750  127.8760   63.8630 C   0  0  0  0  0  0  0  0  0  0  0  0
  128.9810  127.8780   62.7060 N   0  0  0  0  0  0  0  0  0  0  0  0
  124.9048  132.3406   64.9477 H   0  0  0  0  0  0  0  0  0  0  0  0
  125.4054  131.4373   63.4779 H   0  0  0  0  0  0  0  0  0  0  0  0
  123.8726  132.3739   63.4779 H   0  0  0  0  0  0  0  0  0  0  0  0
  125.2992  128.2352   66.3243 H   0  0  0  0  0  0  0  0  0  0  0  0
  125.0535  128.3500   64.5628 H   0  0  0  0  0  0  0  0  0  0  0  0
  127.0328  127.4195   69.8665 H   0  0  0  0  0  0  0  0  0  0  0  0
  127.0159  127.6993   72.3267 H   0  0  0  0  0  0  0  0  0  0  0  0
  128.1353  129.6532   75.4304 H   0  0  0  0  0  0  0  0  0  0  0  0
  128.4798  130.6750   73.9938 H   0  0  0  0  0  0  0  0  0  0  0  0
  127.0598  129.5748   73.9938 H   0  0  0  0  0  0  0  0  0  0  0  0
  131.0060  129.3430   72.1696 H   0  0  0  0  0  0  0  0  0  0  0  0
  131.0225  129.0620   69.7066 H   0  0  0  0  0  0  0  0  0  0  0  0
  130.6022  126.5579   68.0332 H   0  0  0  0  0  0  0  0  0  0  0  0
  132.5536  126.8538   66.4978 H   0  0  0  0  0  0  0  0  0  0  0  0
  134.1455  125.2693   65.4377 H   0  0  0  0  0  0  0  0  0  0  0  0
  135.0347  124.2136   62.3953 H   0  0  0  0  0  0  0  0  0  0  0  0
  134.1577  122.7529   61.8260 H   0  0  0  0  0  0  0  0  0  0  0  0
  133.3365  124.3505   61.8260 H   0  0  0  0  0  0  0  0  0  0  0  0
  130.9097  123.5477   63.1480 H   0  0  0  0  0  0  0  0  0  0  0  0
  129.3183  125.1294   64.2139 H   0  0  0  0  0  0  0  0  0  0  0  0
  1  2  1  0
  2  3  1  0
  3  4  2  0
  3  5  1  0
  5  6  1  0
  6  7  1  0
  7  8  2  0
  8  9  1  0
  9 10  1  0
 10 11  2  0
 11 12  1  0
 12 13  2  0
 13 14  1  0
 14 15  1  0
 13 16  1  0
 16 17  2  0
  9 18  2  0
 18 19  1  0
 19 20  1  0
 20 21  2  0
 21 22  1  0
 22 23  2  0
 23 24  1  0
 24 25  1  0
 23 26  1  0
 26 27  2  0
 19 28  2  0
 28 29  1  0
 29 30  3  0
 28  7  1  0
 17 10  1  0
 27 20  1  0
  1 31  1  0
  1 32  1  0
  1 33  1  0
  5 34  1  0
  5 35  1  0
 11 36  1  0
 12 37  1  0
 15 38  1  0
 15 39  1  0
 15 40  1  0
 16 41  1  0
 17 42  1  0
 18 43  1  0
 21 44  1  0
 22 45  1  0
 25 46  1  0
 25 47  1  0
 25 48  1  0
 26 49  1  0
 27 50  1  0
M  END
>  <Binding energies>  (1) 
[-7.49]

>  <Ligand effiencies>  (1) 
[-0.24966666666666668]

>  <Interactions>  (1) 
["V-B:GLU:543:CG:9875, V-A:HIS:456:CE1:4064, H-B:LYS:547:NZ:9919, V-A:ILE:369:CD1:3234, V-A:ASP:366:CG:3208, V-B:HIS:456:CE1:9037, H-B:TYR:484:OH:9315, V-A:GLU:543:CD:4903, V-B:GLU:543:CD:9876, H-A:TYR:484:OH:4343, H-A:GLY:454:N:4045, V-A:ARG:545:CZ:4921, V-B:ARG:545:CG:9890, V-A:GLU:543:C:4897, V-B:HIS:456:CD2:9035, V-B:ARG:545:CD:9891, H-A:LYS:547:NZ:4946, V-B:ARG:545:CZ:9894, H-B:HIS:456:ND1:9034, H-B:GLY:454:N:9017, V-B:GLY:454:CA:9016"]

$$$$
1d_Grossjean_2025
     RDKit          3D

 36 37  0  0  0  0  0  0  0  0999 V2000
  132.7460  124.5660   59.0080 C   0  0  0  0  0  0  0  0  0  0  0  0
  132.2420  123.2310   59.5190 C   0  0  0  0  0  0  0  0  0  0  0  0
  133.0970  122.1460   59.6940 C   0  0  0  0  0  0  0  0  0  0  0  0
  132.5770  120.9410   60.1790 C   0  0  0  0  0  0  0  0  0  0  0  0
  133.5380  119.7700   60.3780 C   0  0  0  0  0  0  0  0  0  0  0  0
  131.1970  120.8510   60.4710 C   0  0  0  0  0  0  0  0  0  0  0  0
  130.6390  119.6150   61.0240 C   0  0  0  0  0  0  0  0  0  0  0  0
  130.2020  118.6370   61.4620 N   0  0  0  0  0  0  0  0  0  0  0  0
  130.3980  121.9960   60.2390 C   0  0  0  0  0  0  0  0  0  0  0  0
  128.6470  122.0600   60.5480 S   0  0  0  0  0  0  0  0  0  0  0  0
  128.4160  122.7390   62.2200 C   0  0  0  0  0  0  0  0  0  0  0  0
  129.7370  122.8570   62.9820 C   0  0  0  0  0  0  0  0  0  0  0  0
  130.3970  121.8410   63.2010 O   0  0  0  0  0  0  0  0  0  0  0  0
  130.0880  124.1110   63.3400 N   0  0  0  0  0  0  0  0  0  0  0  0
  131.2130  124.5640   64.0540 C   0  0  0  0  0  0  0  0  0  0  0  0
  132.4520  124.2920   63.4680 C   0  0  0  0  0  0  0  0  0  0  0  0
  133.6290  124.7010   64.0890 C   0  0  0  0  0  0  0  0  0  0  0  0
  133.5670  125.3910   65.2970 C   0  0  0  0  0  0  0  0  0  0  0  0
  132.3390  125.6760   65.8880 C   0  0  0  0  0  0  0  0  0  0  0  0
  131.1600  125.2670   65.2690 C   0  0  0  0  0  0  0  0  0  0  0  0
  130.9160  123.1660   59.7890 N   0  0  0  0  0  0  0  0  0  0  0  0
  132.9914  125.2161   59.8608 H   0  0  0  0  0  0  0  0  0  0  0  0
  133.6464  124.4082   58.3962 H   0  0  0  0  0  0  0  0  0  0  0  0
  131.9659  125.0426   58.3962 H   0  0  0  0  0  0  0  0  0  0  0  0
  134.1668  122.2350   59.4542 H   0  0  0  0  0  0  0  0  0  0  0  0
  133.6829  119.5934   61.4540 H   0  0  0  0  0  0  0  0  0  0  0  0
  133.1172  118.8670   59.9116 H   0  0  0  0  0  0  0  0  0  0  0  0
  134.5058  120.0065   59.9116 H   0  0  0  0  0  0  0  0  0  0  0  0
  127.9639  123.7384   62.1374 H   0  0  0  0  0  0  0  0  0  0  0  0
  127.7643  122.0503   62.7776 H   0  0  0  0  0  0  0  0  0  0  0  0
  129.4640  124.8480   63.0450 H   0  0  0  0  0  0  0  0  0  0  0  0
  132.4977  123.7518   62.5109 H   0  0  0  0  0  0  0  0  0  0  0  0
  134.6029  124.4802   63.6278 H   0  0  0  0  0  0  0  0  0  0  0  0
  134.4965  125.7138   65.7887 H   0  0  0  0  0  0  0  0  0  0  0  0
  132.2999  126.2229   66.8416 H   0  0  0  0  0  0  0  0  0  0  0  0
  130.1881  125.4944   65.7313 H   0  0  0  0  0  0  0  0  0  0  0  0
  1  2  1  0
  2  3  2  0
  3  4  1  0
  4  5  1  0
  4  6  2  0
  6  7  1  0
  7  8  3  0
  6  9  1  0
  9 10  1  0
 10 11  1  0
 11 12  1  0
 12 13  2  0
 12 14  1  0
 14 15  1  0
 15 16  2  0
 16 17  1  0
 17 18  2  0
 18 19  1  0
 19 20  2  0
  9 21  2  0
 21  2  1  0
 20 15  1  0
  1 22  1  0
  1 23  1  0
  1 24  1  0
  3 25  1  0
  5 26  1  0
  5 27  1  0
  5 28  1  0
 11 29  1  0
 11 30  1  0
 14 31  1  0
 16 32  1  0
 17 33  1  0
 18 34  1  0
 19 35  1  0
 20 36  1  0
M  END
>  <Binding energies>  (1) 
[-6.42]

>  <Ligand effiencies>  (1) 
[-0.2918181818181818]

>  <Interactions>  (1) 
["V-B:GLU:543:CG:9875, V-A:TRP:381:CZ2:3365, V-B:ALA:541:CB:9860, V-B:ALA:541:CA:9858, V-A:TRP:381:CH2:3367, V-B:TYR:539:CD2:9842, V-A:LEU:475:CD2:4254, V-B:TYR:539:CE2:9844, V-A:ILE:369:CD1:3234, V-A:ASP:366:CG:3208, V-A:ASP:366:CB:3207, V-B:GLU:543:CD:9876, V-A:ILE:369:CG2:3232, V-A:ARG:545:CZ:4921, H-B:ALA:541:N:9859, H-B:GLU:543:OE2:9878, V-A:ARG:545:CD:4918"]

$$$$
1e_Grossjean_2025
     RDKit          3D

 38 39  0  0  0  0  0  0  0  0999 V2000
  135.0740  125.0180   66.4450 C   0  0  0  0  0  0  0  0  0  0  0  0
  133.8900  125.2290   65.5200 C   0  0  0  0  0  0  0  0  0  0  0  0
  132.6500  125.6540   66.0050 C   0  0  0  0  0  0  0  0  0  0  0  0
  131.6050  125.8250   65.0960 C   0  0  0  0  0  0  0  0  0  0  0  0
  131.8200  125.5680   63.7410 C   0  0  0  0  0  0  0  0  0  0  0  0
  133.0890  125.1500   63.3210 C   0  0  0  0  0  0  0  0  0  0  0  0
  133.2420  124.8960   61.9460 N   0  0  0  0  0  0  0  0  0  0  0  0
  133.4970  123.7200   61.3320 C   0  0  0  0  0  0  0  0  0  0  0  0
  133.6520  122.6420   61.9060 O   0  0  0  0  0  0  0  0  0  0  0  0
  133.6230  123.7790   59.8080 C   0  0  0  0  0  0  0  0  0  0  0  0
  132.9360  122.2970   59.0110 S   0  0  0  0  0  0  0  0  0  0  0  0
  131.4240  121.8510   59.8410 C   0  0  0  0  0  0  0  0  0  0  0  0
  131.3480  120.5320   60.1530 N   0  0  0  0  0  0  0  0  0  0  0  0
  130.2420  120.0730   60.7850 C   0  0  0  0  0  0  0  0  0  0  0  0
  130.2330  118.5920   61.1080 C   0  0  0  0  0  0  0  0  0  0  0  0
  129.1710  120.8990   61.1180 C   0  0  0  0  0  0  0  0  0  0  0  0
  129.2270  122.2540   60.7790 C   0  0  0  0  0  0  0  0  0  0  0  0
  128.0300  123.1340   61.1390 C   0  0  0  0  0  0  0  0  0  0  0  0
  130.3700  122.7560   60.1160 C   0  0  0  0  0  0  0  0  0  0  0  0
  130.4190  124.1600   59.7020 C   0  0  0  0  0  0  0  0  0  0  0  0
  130.4560  125.2700   59.3760 N   0  0  0  0  0  0  0  0  0  0  0  0
  134.1150  124.9770   64.2060 N   0  0  0  0  0  0  0  0  0  0  0  0
  134.7377  125.0779   67.4906 H   0  0  0  0  0  0  0  0  0  0  0  0
  135.5138  124.0273   66.2575 H   0  0  0  0  0  0  0  0  0  0  0  0
  135.8289  125.7958   66.2575 H   0  0  0  0  0  0  0  0  0  0  0  0
  132.5014  125.8490   67.0773 H   0  0  0  0  0  0  0  0  0  0  0  0
  130.6174  126.1605   65.4454 H   0  0  0  0  0  0  0  0  0  0  0  0
  131.0044  125.6920   63.0134 H   0  0  0  0  0  0  0  0  0  0  0  0
  133.2050  125.7160   61.3580 H   0  0  0  0  0  0  0  0  0  0  0  0
  133.0815  124.6632   59.4407 H   0  0  0  0  0  0  0  0  0  0  0  0
  134.6925  123.8352   59.5571 H   0  0  0  0  0  0  0  0  0  0  0  0
  130.2322  118.4547   62.1994 H   0  0  0  0  0  0  0  0  0  0  0  0
  129.3320  118.1287   60.6795 H   0  0  0  0  0  0  0  0  0  0  0  0
  131.1283  118.1178   60.6795 H   0  0  0  0  0  0  0  0  0  0  0  0
  128.2933  120.4907   61.6405 H   0  0  0  0  0  0  0  0  0  0  0  0
  127.9397  123.2004   62.2333 H   0  0  0  0  0  0  0  0  0  0  0  0
  128.1765  124.1410   60.7214 H   0  0  0  0  0  0  0  0  0  0  0  0
  127.1125  122.6938   60.7214 H   0  0  0  0  0  0  0  0  0  0  0  0
  1  2  1  0
  2  3  2  0
  3  4  1  0
  4  5  2  0
  5  6  1  0
  6  7  1  0
  7  8  1  0
  8  9  2  0
  8 10  1  0
 10 11  1  0
 11 12  1  0
 12 13  2  0
 13 14  1  0
 14 15  1  0
 14 16  2  0
 16 17  1  0
 17 18  1  0
 17 19  2  0
 19 20  1  0
 20 21  3  0
  6 22  2  0
 22  2  1  0
 19 12  1  0
  1 23  1  0
  1 24  1  0
  1 25  1  0
  3 26  1  0
  4 27  1  0
  5 28  1  0
  7 29  1  0
 10 30  1  0
 10 31  1  0
 15 32  1  0
 15 33  1  0
 15 34  1  0
 16 35  1  0
 18 36  1  0
 18 37  1  0
 18 38  1  0
M  END
>  <Binding energies>  (1) 
[-7.21]

>  <Ligand effiencies>  (1) 
[-0.3134782608695652]

>  <Interactions>  (1) 
["V-B:PRO:540:C:9849, V-A:PRO:482:CG:4322, V-A:TRP:381:CZ2:3365, V-B:ALA:541:CB:9860, V-B:ALA:541:CA:9858, V-A:TRP:381:CH2:3367, V-B:TYR:539:CD2:9842, V-A:LEU:475:CD2:4254, V-A:TRP:381:CE2:3362, V-A:PRO:482:CB:4321, V-B:TYR:539:CE2:9844, V-A:ILE:369:CD1:3234, V-A:ASP:366:CA:3205, V-A:ASP:366:CG:3208, V-A:ASP:366:CB:3207, H-A:ASP:366:OD2:3210, H-A:ARG:545:NH1:4922, H-A:TYR:484:OH:4343, H-A:ARG:545:NE:4919, H-A:ARG:545:NH2:4923, H-A:ASP:366:OD1:3209, H-A:GLY:454:N:4045, V-A:GLY:454:CA:4044, V-A:ARG:545:CZ:4921, V-A:ARG:545:CD:4918, V-A:GLY:453:CA:4039, V-A:ARG:545:CG:4917, V-A:HIS:456:CD2:4063, V-A:GLY:453:C:4037"]

$$$$
1f_Grossjean_2025
     RDKit          3D

 35 36  0  0  0  0  0  0  0  0999 V2000
  132.7420  124.3390   58.4280 C   0  0  0  0  0  0  0  0  0  0  0  0
  132.2570  123.1010   59.1600 C   0  0  0  0  0  0  0  0  0  0  0  0
  133.1150  122.0450   59.4540 C   0  0  0  0  0  0  0  0  0  0  0  0
  132.6090  120.9240   60.1200 C   0  0  0  0  0  0  0  0  0  0  0  0
  133.5650  119.7700   60.4150 C   0  0  0  0  0  0  0  0  0  0  0  0
  131.2430  120.8950   60.4860 C   0  0  0  0  0  0  0  0  0  0  0  0
  130.6820  119.7070   61.1340 C   0  0  0  0  0  0  0  0  0  0  0  0
  130.2400  118.7680   61.6460 N   0  0  0  0  0  0  0  0  0  0  0  0
  130.4520  122.0250   60.1720 C   0  0  0  0  0  0  0  0  0  0  0  0
  128.7170  122.1690   60.5530 S   0  0  0  0  0  0  0  0  0  0  0  0
  128.5510  122.7410   62.2780 C   0  0  0  0  0  0  0  0  0  0  0  0
  129.8740  122.8590   63.0500 C   0  0  0  0  0  0  0  0  0  0  0  0
  130.5660  121.8610   63.2590 O   0  0  0  0  0  0  0  0  0  0  0  0
  130.1660  124.1060   63.4760 N   0  0  0  0  0  0  0  0  0  0  0  0
  131.2830  124.5710   64.1960 C   0  0  0  0  0  0  0  0  0  0  0  0
  131.2380  125.4010   65.3320 C   0  0  0  0  0  0  0  0  0  0  0  0
  132.4300  125.7860   65.9540 C   0  0  0  0  0  0  0  0  0  0  0  0
  133.6370  125.3290   65.4260 C   0  0  0  0  0  0  0  0  0  0  0  0
  133.7070  124.5250   64.3360 N   0  0  0  0  0  0  0  0  0  0  0  0
  132.5410  124.1590   63.7420 C   0  0  0  0  0  0  0  0  0  0  0  0
  130.9480  123.0960   59.5040 N   0  0  0  0  0  0  0  0  0  0  0  0
  133.0416  125.1038   59.1597 H   0  0  0  0  0  0  0  0  0  0  0  0
  133.6042  124.0776   57.7969 H   0  0  0  0  0  0  0  0  0  0  0  0
  131.9317  124.7328   57.7969 H   0  0  0  0  0  0  0  0  0  0  0  0
  134.1758  122.0915   59.1666 H   0  0  0  0  0  0  0  0  0  0  0  0
  133.6667  119.6472   61.5034 H   0  0  0  0  0  0  0  0  0  0  0  0
  133.1668  118.8429   59.9770 H   0  0  0  0  0  0  0  0  0  0  0  0
  134.5500  119.9888   59.9770 H   0  0  0  0  0  0  0  0  0  0  0  0
  128.0733  123.7318   62.2651 H   0  0  0  0  0  0  0  0  0  0  0  0
  127.9557  121.9776   62.8004 H   0  0  0  0  0  0  0  0  0  0  0  0
  129.4820  124.8190   63.2660 H   0  0  0  0  0  0  0  0  0  0  0  0
  130.2711  125.7447   65.7281 H   0  0  0  0  0  0  0  0  0  0  0  0
  132.4157  126.4359   66.8414 H   0  0  0  0  0  0  0  0  0  0  0  0
  134.5738  125.6341   65.9152 H   0  0  0  0  0  0  0  0  0  0  0  0
  132.5884  123.5051   62.8587 H   0  0  0  0  0  0  0  0  0  0  0  0
  1  2  1  0
  2  3  2  0
  3  4  1  0
  4  5  1  0
  4  6  2  0
  6  7  1  0
  7  8  3  0
  6  9  1  0
  9 10  1  0
 10 11  1  0
 11 12  1  0
 12 13  2  0
 12 14  1  0
 14 15  1  0
 15 16  2  0
 16 17  1  0
 17 18  2  0
 18 19  1  0
 19 20  2  0
  9 21  2  0
 21  2  1  0
 20 15  1  0
  1 22  1  0
  1 23  1  0
  1 24  1  0
  3 25  1  0
  5 26  1  0
  5 27  1  0
  5 28  1  0
 11 29  1  0
 11 30  1  0
 14 31  1  0
 16 32  1  0
 17 33  1  0
 18 34  1  0
 20 35  1  0
M  END
>  <Binding energies>  (1) 
[-6.81]

>  <Ligand effiencies>  (1) 
[-0.3095454545454545]

>  <Interactions>  (1) 
["V-B:GLU:543:CG:9875, V-A:TRP:381:CZ2:3365, V-B:ALA:541:CB:9860, V-B:ALA:541:CA:9858, V-A:TRP:381:CH2:3367, V-B:TYR:539:CD2:9842, V-A:LEU:475:CD2:4254, V-B:TYR:539:CE2:9844, V-A:ILE:369:CD1:3234, V-A:ILE:369:CB:3231, V-A:ASP:366:CG:3208, V-A:ASP:366:CB:3207, V-B:GLU:543:CD:9876, V-A:ILE:369:CG2:3232, H-A:TYR:484:OH:4343, H-A:GLY:454:N:4045, V-A:ARG:545:CZ:4921, H-B:ALA:541:N:9859, H-B:GLU:543:OE2:9878, V-A:ARG:545:CD:4918"]

$$$$
1g_Grossjean_2025
     RDKit          3D

 39 40  0  0  0  0  0  0  0  0999 V2000
  133.5610  123.2570   57.4910 C   0  0  0  0  0  0  0  0  0  0  0  0
  133.0880  123.0260   58.9140 C   0  0  0  0  0  0  0  0  0  0  0  0
  133.4880  123.8550   59.9600 C   0  0  0  0  0  0  0  0  0  0  0  0
  133.0330  123.5840   61.2550 C   0  0  0  0  0  0  0  0  0  0  0  0
  133.4970  124.4980   62.3880 C   0  0  0  0  0  0  0  0  0  0  0  0
  132.1730  122.4830   61.4690 C   0  0  0  0  0  0  0  0  0  0  0  0
  131.7250  122.1490   62.8230 C   0  0  0  0  0  0  0  0  0  0  0  0
  131.3740  121.8860   63.8940 N   0  0  0  0  0  0  0  0  0  0  0  0
  131.7980  121.7110   60.3440 C   0  0  0  0  0  0  0  0  0  0  0  0
  130.7180  120.3000   60.4310 S   0  0  0  0  0  0  0  0  0  0  0  0
  129.1500  120.8640   61.1580 C   0  0  0  0  0  0  0  0  0  0  0  0
  128.5290  122.0120   60.3600 C   0  0  0  0  0  0  0  0  0  0  0  0
  127.5160  122.5750   60.7770 O   0  0  0  0  0  0  0  0  0  0  0  0
  129.1470  122.3420   59.2130 N   0  0  0  0  0  0  0  0  0  0  0  0
  128.7610  123.4400   58.3270 C   0  0  0  0  0  0  0  0  0  0  0  0
  127.3040  123.4010   57.8760 C   0  0  0  0  0  0  0  0  0  0  0  0
  126.4110  124.3850   58.3140 C   0  0  0  0  0  0  0  0  0  0  0  0
  125.0810  124.3490   57.9020 C   0  0  0  0  0  0  0  0  0  0  0  0
  124.6500  123.3350   57.0500 C   0  0  0  0  0  0  0  0  0  0  0  0
  125.5360  122.3550   56.6060 C   0  0  0  0  0  0  0  0  0  0  0  0
  126.8650  122.3880   57.0190 C   0  0  0  0  0  0  0  0  0  0  0  0
  132.2630  121.9680   59.0950 N   0  0  0  0  0  0  0  0  0  0  0  0
  134.5493  123.7397   57.5069 H   0  0  0  0  0  0  0  0  0  0  0  0
  133.6324  122.2924   56.9672 H   0  0  0  0  0  0  0  0  0  0  0  0
  132.8442  123.9064   56.9672 H   0  0  0  0  0  0  0  0  0  0  0  0
  134.1524  124.7109   59.7702 H   0  0  0  0  0  0  0  0  0  0  0  0
  133.2602  124.0316   63.3557 H   0  0  0  0  0  0  0  0  0  0  0  0
  134.5833  124.6537   62.3120 H   0  0  0  0  0  0  0  0  0  0  0  0
  132.9816  125.4668   62.3120 H   0  0  0  0  0  0  0  0  0  0  0  0
  128.4434  120.0211   61.1763 H   0  0  0  0  0  0  0  0  0  0  0  0
  129.3586  121.2301   62.1741 H   0  0  0  0  0  0  0  0  0  0  0  0
  129.9850  121.8400   58.9570 H   0  0  0  0  0  0  0  0  0  0  0  0
  128.9317  124.3878   58.8586 H   0  0  0  0  0  0  0  0  0  0  0  0
  129.3743  123.3423   57.4191 H   0  0  0  0  0  0  0  0  0  0  0  0
  126.7589  125.1860   58.9829 H   0  0  0  0  0  0  0  0  0  0  0  0
  124.3743  125.1178   58.2479 H   0  0  0  0  0  0  0  0  0  0  0  0
  123.5997  123.3073   56.7242 H   0  0  0  0  0  0  0  0  0  0  0  0
  125.1866  121.5589   55.9321 H   0  0  0  0  0  0  0  0  0  0  0  0
  127.5689  121.6176   56.6712 H   0  0  0  0  0  0  0  0  0  0  0  0
  1  2  1  0
  2  3  2  0
  3  4  1  0
  4  5  1  0
  4  6  2  0
  6  7  1  0
  7  8  3  0
  6  9  1  0
  9 10  1  0
 10 11  1  0
 11 12  1  0
 12 13  2  0
 12 14  1  0
 14 15  1  0
 15 16  1  0
 16 17  2  0
 17 18  1  0
 18 19  2  0
 19 20  1  0
 20 21  2  0
  9 22  2  0
 22  2  1  0
 21 16  1  0
  1 23  1  0
  1 24  1  0
  1 25  1  0
  3 26  1  0
  5 27  1  0
  5 28  1  0
  5 29  1  0
 11 30  1  0
 11 31  1  0
 14 32  1  0
 15 33  1  0
 15 34  1  0
 17 35  1  0
 18 36  1  0
 19 37  1  0
 20 38  1  0
 21 39  1  0
M  END
>  <Binding energies>  (1) 
[-6.84]

>  <Ligand effiencies>  (1) 
[-0.29739130434782607]

>  <Interactions>  (1) 
["V-B:PRO:540:C:9849, V-B:ALA:541:CB:9860, V-B:ALA:541:CA:9858, V-B:TYR:539:C:9835, V-B:TYR:539:CD2:9842, V-A:LEU:475:CD2:4254, V-B:TYR:539:CE2:9844, V-A:ILE:369:CD1:3234, V-B:TYR:539:CZ:9845, V-A:ILE:369:CB:3231, V-A:ASP:366:CG:3208, V-A:ASP:366:CB:3207, V-A:ILE:369:CG2:3232, H-A:TYR:484:OH:4343, V-B:PRO:540:CB:9853, H-B:ALA:541:N:9859, V-B:PRO:540:CA:9851, H-B:TYR:539:O:9836, V-B:LEU:363:CD1:8156, V-B:PRO:540:CD:9855, V-B:PRO:540:N:9852, V-B:MET:535:CE:9803, V-B:TYR:539:CA:9837"]

$$$$
1h_Grossjean_2025
     RDKit          3D

 51 52  0  0  0  0  0  0  0  0999 V2000
  130.0260  131.1490   73.3760 C   0  0  0  0  0  0  0  0  0  0  0  0
  130.0200  129.7310   73.4870 O   0  0  0  0  0  0  0  0  0  0  0  0
  129.6800  128.9650   72.3860 C   0  0  0  0  0  0  0  0  0  0  0  0
  129.5690  129.4730   71.0830 C   0  0  0  0  0  0  0  0  0  0  0  0
  129.2080  128.6440   70.0200 C   0  0  0  0  0  0  0  0  0  0  0  0
  129.1120  129.2040   68.6040 C   0  0  0  0  0  0  0  0  0  0  0  0
  129.4210  128.2310   67.5570 N   0  0  0  0  0  0  0  0  0  0  0  0
  128.7240  128.0660   66.4190 C   0  0  0  0  0  0  0  0  0  0  0  0
  127.7440  128.7450   66.1140 O   0  0  0  0  0  0  0  0  0  0  0  0
  129.2020  126.9570   65.4810 C   0  0  0  0  0  0  0  0  0  0  0  0
  130.0980  125.6500   66.3740 S   0  0  0  0  0  0  0  0  0  0  0  0
  131.6670  125.3990   65.5590 C   0  0  0  0  0  0  0  0  0  0  0  0
  132.7590  125.3990   66.3680 N   0  0  0  0  0  0  0  0  0  0  0  0
  133.9790  125.2090   65.8150 C   0  0  0  0  0  0  0  0  0  0  0  0
  135.1480  125.2170   66.7820 C   0  0  0  0  0  0  0  0  0  0  0  0
  134.1650  125.0150   64.4480 C   0  0  0  0  0  0  0  0  0  0  0  0
  133.0490  125.0150   63.6040 C   0  0  0  0  0  0  0  0  0  0  0  0
  133.2740  124.7990   62.1090 C   0  0  0  0  0  0  0  0  0  0  0  0
  131.7640  125.2110   64.1600 C   0  0  0  0  0  0  0  0  0  0  0  0
  130.5770  125.2190   63.3000 C   0  0  0  0  0  0  0  0  0  0  0  0
  129.6400  125.2250   62.6210 N   0  0  0  0  0  0  0  0  0  0  0  0
  128.9910  127.2840   70.2510 C   0  0  0  0  0  0  0  0  0  0  0  0
  129.1010  126.7480   71.5440 C   0  0  0  0  0  0  0  0  0  0  0  0
  128.8980  125.4130   71.8450 O   0  0  0  0  0  0  0  0  0  0  0  0
  129.8970  124.4590   71.5010 C   0  0  0  0  0  0  0  0  0  0  0  0
  129.4360  127.6010   72.6050 C   0  0  0  0  0  0  0  0  0  0  0  0
  129.5530  127.0890   73.8740 O   0  0  0  0  0  0  0  0  0  0  0  0
  130.7750  126.4040   74.1110 C   0  0  0  0  0  0  0  0  0  0  0  0
  130.0279  131.5955   74.3813 H   0  0  0  0  0  0  0  0  0  0  0  0
  130.9255  131.4703   72.8304 H   0  0  0  0  0  0  0  0  0  0  0  0
  129.1292  131.4779   72.8304 H   0  0  0  0  0  0  0  0  0  0  0  0
  129.7691  130.5385   70.8968 H   0  0  0  0  0  0  0  0  0  0  0  0
  128.0865  129.5689   68.4452 H   0  0  0  0  0  0  0  0  0  0  0  0
  129.8632  130.0038   68.5267 H   0  0  0  0  0  0  0  0  0  0  0  0
  130.2050  127.6200   67.7350 H   0  0  0  0  0  0  0  0  0  0  0  0
  128.3282  126.5120   64.9826 H   0  0  0  0  0  0  0  0  0  0  0  0
  129.8918  127.4037   64.7498 H   0  0  0  0  0  0  0  0  0  0  0  0
  134.7695  125.2144   67.8148 H   0  0  0  0  0  0  0  0  0  0  0  0
  135.7672  124.3231   66.6161 H   0  0  0  0  0  0  0  0  0  0  0  0
  135.7549  126.1193   66.6161 H   0  0  0  0  0  0  0  0  0  0  0  0
  135.1746  124.8640   64.0381 H   0  0  0  0  0  0  0  0  0  0  0  0
  134.0604  124.0441   61.9619 H   0  0  0  0  0  0  0  0  0  0  0  0
  132.3398  124.4508   61.6442 H   0  0  0  0  0  0  0  0  0  0  0  0
  133.5838  125.7466   61.6442 H   0  0  0  0  0  0  0  0  0  0  0  0
  128.7308  126.6247   69.4098 H   0  0  0  0  0  0  0  0  0  0  0  0
  130.3356  124.0402   72.4188 H   0  0  0  0  0  0  0  0  0  0  0  0
  129.4434  123.6503   70.9092 H   0  0  0  0  0  0  0  0  0  0  0  0
  130.6840  124.9494   70.9092 H   0  0  0  0  0  0  0  0  0  0  0  0
  130.9395  126.3118   75.1947 H   0  0  0  0  0  0  0  0  0  0  0  0
  130.7266  125.4015   73.6609 H   0  0  0  0  0  0  0  0  0  0  0  0
  131.6050  126.9684   73.6609 H   0  0  0  0  0  0  0  0  0  0  0  0
  1  2  1  0
  2  3  1  0
  3  4  2  0
  4  5  1  0
  5  6  1  0
  6  7  1  0
  7  8  1  0
  8  9  2  0
  8 10  1  0
 10 11  1  0
 11 12  1  0
 12 13  2  0
 13 14  1  0
 14 15  1  0
 14 16  2  0
 16 17  1  0
 17 18  1  0
 17 19  2  0
 19 20  1  0
 20 21  3  0
  5 22  2  0
 22 23  1  0
 23 24  1  0
 24 25  1  0
 23 26  2  0
 26 27  1  0
 27 28  1  0
 26  3  1  0
 19 12  1  0
  1 29  1  0
  1 30  1  0
  1 31  1  0
  4 32  1  0
  6 33  1  0
  6 34  1  0
  7 35  1  0
 10 36  1  0
 10 37  1  0
 15 38  1  0
 15 39  1  0
 15 40  1  0
 16 41  1  0
 18 42  1  0
 18 43  1  0
 18 44  1  0
 22 45  1  0
 25 46  1  0
 25 47  1  0
 25 48  1  0
 28 49  1  0
 28 50  1  0
 28 51  1  0
M  END
>  <Binding energies>  (1) 
[-6.85]

>  <Ligand effiencies>  (1) 
[-0.23620689655172414]

>  <Interactions>  (1) 
["V-A:HIS:456:CE1:4064, H-B:LYS:547:NZ:9919, V-A:GLU:543:CB:4901, V-A:ASP:366:CG:3208, V-B:HIS:456:CE1:9037, V-A:GLU:543:CD:4903, V-B:GLU:543:CD:9876, H-A:TYR:484:OH:4343, V-A:ARG:545:CZ:4921, H-A:HIS:456:NE2:4065, H-A:GLU:543:OE1:4904, V-A:GLU:543:C:4897, V-A:LYS:547:CE:4945, V-B:HIS:456:CD2:9035, H-A:LYS:547:NZ:4946, V-A:ARG:545:CD:4918, V-A:GLY:453:CA:4039, V-A:ARG:545:CG:4917, V-A:HIS:456:CD2:4063, V-A:GLY:453:C:4037, V-A:ILE:455:C:4047, V-A:ARG:545:CB:4916"]

$$$$
1i_Grossjean_2025
     RDKit          3D

 32 33  0  0  0  0  0  0  0  0999 V2000
  133.2400  123.1180   57.6890 C   0  0  0  0  0  0  0  0  0  0  0  0
  132.6590  122.9670   59.0820 C   0  0  0  0  0  0  0  0  0  0  0  0
  131.3140  122.6700   59.2840 C   0  0  0  0  0  0  0  0  0  0  0  0
  130.8360  122.5340   60.5920 C   0  0  0  0  0  0  0  0  0  0  0  0
  129.3600  122.1910   60.7870 C   0  0  0  0  0  0  0  0  0  0  0  0
  131.7280  122.7060   61.6750 C   0  0  0  0  0  0  0  0  0  0  0  0
  131.2600  122.5180   63.0510 C   0  0  0  0  0  0  0  0  0  0  0  0
  130.8890  122.3670   64.1370 N   0  0  0  0  0  0  0  0  0  0  0  0
  133.0720  123.0310   61.3770 C   0  0  0  0  0  0  0  0  0  0  0  0
  134.3260  123.2830   62.6140 S   0  0  0  0  0  0  0  0  0  0  0  0
  134.1870  125.0000   63.1960 C   0  0  0  0  0  0  0  0  0  0  0  0
  133.4990  125.0910   64.5600 C   0  0  0  0  0  0  0  0  0  0  0  0
  134.1770  125.0060   65.5850 O   0  0  0  0  0  0  0  0  0  0  0  0
  132.1590  125.2660   64.5260 N   0  0  0  0  0  0  0  0  0  0  0  0
  131.2980  125.3740   65.6090 C   0  0  0  0  0  0  0  0  0  0  0  0
  130.2120  126.2480   65.6320 C   0  0  0  0  0  0  0  0  0  0  0  0
  129.6240  126.0540   66.8600 C   0  0  0  0  0  0  0  0  0  0  0  0
  130.3190  125.1140   67.5420 O   0  0  0  0  0  0  0  0  0  0  0  0
  131.3800  124.6910   66.7390 N   0  0  0  0  0  0  0  0  0  0  0  0
  133.5300  123.1410   60.1050 N   0  0  0  0  0  0  0  0  0  0  0  0
  134.3022  123.3941   57.7627 H   0  0  0  0  0  0  0  0  0  0  0  0
  133.1455  122.1654   57.1470 H   0  0  0  0  0  0  0  0  0  0  0  0
  132.6936  123.9040   57.1470 H   0  0  0  0  0  0  0  0  0  0  0  0
  130.6362  122.5439   58.4269 H   0  0  0  0  0  0  0  0  0  0  0  0
  129.1347  122.1386   61.8624 H   0  0  0  0  0  0  0  0  0  0  0  0
  128.7380  122.9685   60.3195 H   0  0  0  0  0  0  0  0  0  0  0  0
  129.1446  121.2189   60.3195 H   0  0  0  0  0  0  0  0  0  0  0  0
  135.1963  125.4295   63.2784 H   0  0  0  0  0  0  0  0  0  0  0  0
  133.5752  125.5555   62.4700 H   0  0  0  0  0  0  0  0  0  0  0  0
  131.7180  125.2890   63.6170 H   0  0  0  0  0  0  0  0  0  0  0  0
  129.8944  126.9421   64.8399 H   0  0  0  0  0  0  0  0  0  0  0  0
  128.7308  126.5793   67.2292 H   0  0  0  0  0  0  0  0  0  0  0  0
  1  2  1  0
  2  3  2  0
  3  4  1  0
  4  5  1  0
  4  6  2  0
  6  7  1  0
  7  8  3  0
  6  9  1  0
  9 10  1  0
 10 11  1  0
 11 12  1  0
 12 13  2  0
 12 14  1  0
 14 15  1  0
 15 16  1  0
 16 17  2  0
 17 18  1  0
 18 19  1  0
  9 20  2  0
 20  2  1  0
 19 15  2  0
  1 21  1  0
  1 22  1  0
  1 23  1  0
  3 24  1  0
  5 25  1  0
  5 26  1  0
  5 27  1  0
 11 28  1  0
 11 29  1  0
 14 30  1  0
 16 31  1  0
 17 32  1  0
M  END
>  <Binding energies>  (1) 
[-6.19]

>  <Ligand effiencies>  (1) 
[-0.2947619047619048]

>  <Interactions>  (1) 
["V-B:GLU:543:CG:9875, V-B:GLU:543:CB:9874, V-A:LEU:475:CD2:4254, V-B:TYR:539:CE2:9844, V-A:ILE:369:CD1:3234, V-B:TYR:539:CZ:9845, V-A:ILE:369:CB:3231, V-A:ASP:366:CG:3208, V-A:ILE:369:CG2:3232, H-A:TYR:484:OH:4343, H-A:ARG:545:NE:4919, H-A:GLY:454:N:4045, V-A:ARG:545:CZ:4921, H-A:HIS:456:NE2:4065, V-A:GLY:453:CA:4039"]

$$$$
1j_Grossjean_2025
     RDKit          3D

 32 33  0  0  0  0  0  0  0  0999 V2000
  124.3920  123.7310   61.8850 C   0  0  0  0  0  0  0  0  0  0  0  0
  125.5680  123.5110   60.9510 C   0  0  0  0  0  0  0  0  0  0  0  0
  125.5050  123.8600   59.6040 C   0  0  0  0  0  0  0  0  0  0  0  0
  126.6240  123.6460   58.7940 C   0  0  0  0  0  0  0  0  0  0  0  0
  126.5370  124.0540   57.3230 C   0  0  0  0  0  0  0  0  0  0  0  0
  127.7860  123.0740   59.3580 C   0  0  0  0  0  0  0  0  0  0  0  0
  128.9880  122.8890   58.5400 C   0  0  0  0  0  0  0  0  0  0  0  0
  129.9350  122.7460   57.8910 N   0  0  0  0  0  0  0  0  0  0  0  0
  127.7520  122.7250   60.7290 C   0  0  0  0  0  0  0  0  0  0  0  0
  129.1210  121.9940   61.6000 S   0  0  0  0  0  0  0  0  0  0  0  0
  130.2100  123.3420   62.1480 C   0  0  0  0  0  0  0  0  0  0  0  0
  130.3670  123.3710   63.6700 C   0  0  0  0  0  0  0  0  0  0  0  0
  130.9220  122.4300   64.2380 O   0  0  0  0  0  0  0  0  0  0  0  0
  129.8680  124.4650   64.2860 N   0  0  0  0  0  0  0  0  0  0  0  0
  129.8790  124.7250   65.6490 C   0  0  0  0  0  0  0  0  0  0  0  0
  129.9070  123.8560   66.6360 N   0  0  0  0  0  0  0  0  0  0  0  0
  129.9100  124.4570   67.8090 C   0  0  0  0  0  0  0  0  0  0  0  0
  129.8860  125.8480   67.7890 C   0  0  0  0  0  0  0  0  0  0  0  0
  129.8590  126.3890   66.1370 S   0  0  0  0  0  0  0  0  0  0  0  0
  126.6690  122.9570   61.5120 N   0  0  0  0  0  0  0  0  0  0  0  0
  124.7352  123.6668   62.9281 H   0  0  0  0  0  0  0  0  0  0  0  0
  123.9594  124.7257   61.7019 H   0  0  0  0  0  0  0  0  0  0  0  0
  123.6291  122.9600   61.7019 H   0  0  0  0  0  0  0  0  0  0  0  0
  124.5876  124.2978   59.1836 H   0  0  0  0  0  0  0  0  0  0  0  0
  126.3081  125.1276   57.2532 H   0  0  0  0  0  0  0  0  0  0  0  0
  127.4986  123.8512   56.8288 H   0  0  0  0  0  0  0  0  0  0  0  0
  125.7418  123.4766   56.8288 H   0  0  0  0  0  0  0  0  0  0  0  0
  131.2014  123.2052   61.6915 H   0  0  0  0  0  0  0  0  0  0  0  0
  129.7553  124.2937   61.8357 H   0  0  0  0  0  0  0  0  0  0  0  0
  129.4120  125.1580   63.7110 H   0  0  0  0  0  0  0  0  0  0  0  0
  129.9304  123.8903   68.7516 H   0  0  0  0  0  0  0  0  0  0  0  0
  129.8844  126.4999   68.6750 H   0  0  0  0  0  0  0  0  0  0  0  0
  1  2  1  0
  2  3  2  0
  3  4  1  0
  4  5  1  0
  4  6  2  0
  6  7  1  0
  7  8  3  0
  6  9  1  0
  9 10  1  0
 10 11  1  0
 11 12  1  0
 12 13  2  0
 12 14  1  0
 14 15  1  0
 15 16  2  0
 16 17  1  0
 17 18  2  0
 18 19  1  0
  9 20  2  0
 20  2  1  0
 19 15  1  0
  1 21  1  0
  1 22  1  0
  1 23  1  0
  3 24  1  0
  5 25  1  0
  5 26  1  0
  5 27  1  0
 11 28  1  0
 11 29  1  0
 14 30  1  0
 17 31  1  0
 18 32  1  0
M  END
>  <Binding energies>  (1) 
[-6.62]

>  <Ligand effiencies>  (1) 
[-0.31523809523809526]

>  <Interactions>  (1) 
["V-B:PRO:540:C:9849, V-B:GLU:543:CG:9875, V-A:HIS:456:CE1:4064, V-B:GLU:543:CB:9874, V-B:TYR:539:CE2:9844, V-A:TYR:484:CZ:4342, V-B:GLU:543:C:9870, V-A:TYR:484:CE1:4340, V-B:GLU:543:CA:9872, V-B:GLU:543:CD:9876, H-A:TYR:484:OH:4343, V-B:ASN:362:CB:8143, V-B:PRO:540:CB:9853, H-B:ALA:541:N:9859, V-B:PRO:540:CA:9851, H-B:GLU:543:OE2:9878, V-B:MET:535:CE:9803"]

$$$$
1k_Grossjean_2025
     RDKit          3D

 50 50  0  0  0  0  0  0  0  0999 V2000
  130.3080  124.9570   66.2820 C   0  0  0  0  0  0  0  0  0  0  0  0
  131.7200  124.9970   66.4090 O   0  0  0  0  0  0  0  0  0  0  0  0
  132.3590  125.7550   65.3910 C   0  0  0  0  0  0  0  0  0  0  0  0
  133.8150  125.2920   65.2450 C   0  0  0  0  0  0  0  0  0  0  0  0
  133.8780  124.2140   64.3190 O   0  0  0  0  0  0  0  0  0  0  0  0
  133.9060  124.6290   62.9600 C   0  0  0  0  0  0  0  0  0  0  0  0
  132.4840  124.5900   62.3860 C   0  0  0  0  0  0  0  0  0  0  0  0
  132.0760  123.2380   62.2220 O   0  0  0  0  0  0  0  0  0  0  0  0
  131.4150  122.6990   63.3600 C   0  0  0  0  0  0  0  0  0  0  0  0
  129.8940  122.8970   63.2150 C   0  0  0  0  0  0  0  0  0  0  0  0
  129.4680  123.2700   61.8660 N   0  0  0  0  0  0  0  0  0  0  0  0
  128.2120  123.1770   61.3960 C   0  0  0  0  0  0  0  0  0  0  0  0
  127.2690  122.7630   62.0740 O   0  0  0  0  0  0  0  0  0  0  0  0
  128.0150  123.6190   59.9370 C   0  0  0  0  0  0  0  0  0  0  0  0
  128.7190  122.5050   58.6720 S   0  0  0  0  0  0  0  0  0  0  0  0
  130.4930  122.4300   58.8790 C   0  0  0  0  0  0  0  0  0  0  0  0
  131.2110  123.3540   58.1890 N   0  0  0  0  0  0  0  0  0  0  0  0
  132.5590  123.3460   58.2930 C   0  0  0  0  0  0  0  0  0  0  0  0
  133.2890  124.4020   57.4870 C   0  0  0  0  0  0  0  0  0  0  0  0
  133.2460  122.4310   59.0880 C   0  0  0  0  0  0  0  0  0  0  0  0
  132.5190  121.4790   59.8100 C   0  0  0  0  0  0  0  0  0  0  0  0
  133.2910  120.4850   60.6750 C   0  0  0  0  0  0  0  0  0  0  0  0
  131.1100  121.4670   59.7110 C   0  0  0  0  0  0  0  0  0  0  0  0
  130.3220  120.4780   60.4530 C   0  0  0  0  0  0  0  0  0  0  0  0
  129.7010  119.6970   61.0390 N   0  0  0  0  0  0  0  0  0  0  0  0
  129.8501  124.9440   67.2821 H   0  0  0  0  0  0  0  0  0  0  0  0
  129.9639  125.8458   65.7327 H   0  0  0  0  0  0  0  0  0  0  0  0
  130.0148  124.0502   65.7327 H   0  0  0  0  0  0  0  0  0  0  0  0
  131.8302  125.6077   64.4378 H   0  0  0  0  0  0  0  0  0  0  0  0
  132.3389  126.8212   65.6609 H   0  0  0  0  0  0  0  0  0  0  0  0
  134.4305  126.1268   64.8786 H   0  0  0  0  0  0  0  0  0  0  0  0
  134.1942  124.9591   66.2224 H   0  0  0  0  0  0  0  0  0  0  0  0
  134.2990  125.6545   62.8974 H   0  0  0  0  0  0  0  0  0  0  0  0
  134.5540  123.9531   62.3827 H   0  0  0  0  0  0  0  0  0  0  0  0
  131.7958  125.0995   63.0765 H   0  0  0  0  0  0  0  0  0  0  0  0
  132.4682  125.0986   61.4108 H   0  0  0  0  0  0  0  0  0  0  0  0
  131.6386  121.6249   63.4389 H   0  0  0  0  0  0  0  0  0  0  0  0
  131.7663  123.2153   64.2656 H   0  0  0  0  0  0  0  0  0  0  0  0
  129.3952  121.9551   63.4871 H   0  0  0  0  0  0  0  0  0  0  0  0
  129.6171  123.7301   63.8777 H   0  0  0  0  0  0  0  0  0  0  0  0
  130.1890  123.6180   61.2500 H   0  0  0  0  0  0  0  0  0  0  0  0
  126.9339  123.7012   59.7515 H   0  0  0  0  0  0  0  0  0  0  0  0
  128.5577  124.5704   59.8353 H   0  0  0  0  0  0  0  0  0  0  0  0
  133.7792  125.1111   58.1704 H   0  0  0  0  0  0  0  0  0  0  0  0
  134.0476  123.9199   56.8529 H   0  0  0  0  0  0  0  0  0  0  0  0
  132.5700  124.9414   56.8529 H   0  0  0  0  0  0  0  0  0  0  0  0
  134.3441  122.4570   59.1469 H   0  0  0  0  0  0  0  0  0  0  0  0
  133.1160  120.7103   61.7374 H   0  0  0  0  0  0  0  0  0  0  0  0
  132.9472  119.4635   60.4553 H   0  0  0  0  0  0  0  0  0  0  0  0
  134.3658  120.5653   60.4553 H   0  0  0  0  0  0  0  0  0  0  0  0
  1  2  1  0
  2  3  1  0
  3  4  1  0
  4  5  1  0
  5  6  1  0
  6  7  1  0
  7  8  1  0
  8  9  1  0
  9 10  1  0
 10 11  1  0
 11 12  1  0
 12 13  2  0
 12 14  1  0
 14 15  1  0
 15 16  1  0
 16 17  2  0
 17 18  1  0
 18 19  1  0
 18 20  2  0
 20 21  1  0
 21 22  1  0
 21 23  2  0
 23 24  1  0
 24 25  3  0
 23 16  1  0
  1 26  1  0
  1 27  1  0
  1 28  1  0
  3 29  1  0
  3 30  1  0
  4 31  1  0
  4 32  1  0
  6 33  1  0
  6 34  1  0
  7 35  1  0
  7 36  1  0
  9 37  1  0
  9 38  1  0
 10 39  1  0
 10 40  1  0
 11 41  1  0
 14 42  1  0
 14 43  1  0
 19 44  1  0
 19 45  1  0
 19 46  1  0
 20 47  1  0
 22 48  1  0
 22 49  1  0
 22 50  1  0
M  END
>  <Binding energies>  (1) 
[-5.68]

>  <Ligand effiencies>  (1) 
[-0.21846153846153846]

>  <Interactions>  (1) 
["V-B:GLU:543:CG:9875, V-B:ALA:541:CB:9860, V-B:GLU:543:CB:9874, V-A:TRP:381:CH2:3367, V-B:TYR:539:CD2:9842, V-A:LEU:475:CD2:4254, V-B:TYR:539:CE2:9844, V-A:ILE:369:CD1:3234, V-B:TYR:539:CZ:9845, V-A:ASP:366:CA:3205, V-A:ILE:369:CB:3231, V-A:ASP:366:CG:3208, V-A:ASP:366:CB:3207, V-A:ASP:366:C:3203, V-B:GLU:543:CD:9876, V-A:ILE:369:CG2:3232, H-A:TYR:484:OH:4343, H-A:GLY:454:N:4045, V-A:ARG:545:CZ:4921, H-B:ALA:541:N:9859, H-A:HIS:456:NE2:4065, V-A:TYR:531:CZ:4789, V-A:ARG:545:CD:4918, V-A:TYR:531:CE1:4787, H-B:TYR:539:OH:9846"]

$$$$
1l_Grossjean_2025
     RDKit          3D

 30 30  0  0  0  0  0  0  0  0999 V2000
  130.2470  124.2220   65.6930 C   0  0  0  0  0  0  0  0  0  0  0  0
  130.3790  123.0520   64.8990 O   0  0  0  0  0  0  0  0  0  0  0  0
  129.8000  123.2580   63.6480 N   0  0  0  0  0  0  0  0  0  0  0  0
  130.5230  123.0000   62.5420 C   0  0  0  0  0  0  0  0  0  0  0  0
  131.5890  122.3780   62.5520 O   0  0  0  0  0  0  0  0  0  0  0  0
  129.9210  123.5260   61.2310 C   0  0  0  0  0  0  0  0  0  0  0  0
  129.0620  122.2720   60.2200 S   0  0  0  0  0  0  0  0  0  0  0  0
  127.4390  122.8980   59.8200 C   0  0  0  0  0  0  0  0  0  0  0  0
  126.6190  123.1300   60.8780 N   0  0  0  0  0  0  0  0  0  0  0  0
  125.3720  123.6040   60.6470 C   0  0  0  0  0  0  0  0  0  0  0  0
  124.5170  123.8380   61.8780 C   0  0  0  0  0  0  0  0  0  0  0  0
  124.8930  123.8670   59.3650 C   0  0  0  0  0  0  0  0  0  0  0  0
  125.7290  123.6340   58.2680 C   0  0  0  0  0  0  0  0  0  0  0  0
  125.1830  123.9290   56.8720 C   0  0  0  0  0  0  0  0  0  0  0  0
  127.0330  123.1380   58.4870 C   0  0  0  0  0  0  0  0  0  0  0  0
  127.9300  122.8840   57.3550 C   0  0  0  0  0  0  0  0  0  0  0  0
  128.6370  122.6840   56.4610 N   0  0  0  0  0  0  0  0  0  0  0  0
  130.2779  123.9479   66.7579 H   0  0  0  0  0  0  0  0  0  0  0  0
  131.0729  124.9129   65.4681 H   0  0  0  0  0  0  0  0  0  0  0  0
  129.2879  124.7115   65.4681 H   0  0  0  0  0  0  0  0  0  0  0  0
  129.0470  123.9310   63.6820 H   0  0  0  0  0  0  0  0  0  0  0  0
  129.1984  124.3170   61.4803 H   0  0  0  0  0  0  0  0  0  0  0  0
  130.7669  123.8830   60.6253 H   0  0  0  0  0  0  0  0  0  0  0  0
  125.1221  123.6724   62.7816 H   0  0  0  0  0  0  0  0  0  0  0  0
  124.1416  124.8719   61.8725 H   0  0  0  0  0  0  0  0  0  0  0  0
  123.6674  123.1394   61.8725 H   0  0  0  0  0  0  0  0  0  0  0  0
  123.8731  124.2519   59.2180 H   0  0  0  0  0  0  0  0  0  0  0  0
  124.2182  124.4503   56.9582 H   0  0  0  0  0  0  0  0  0  0  0  0
  125.8958  124.5648   56.3263 H   0  0  0  0  0  0  0  0  0  0  0  0
  125.0419  122.9844   56.3263 H   0  0  0  0  0  0  0  0  0  0  0  0
  1  2  1  0
  2  3  1  0
  3  4  1  0
  4  5  2  0
  4  6  1  0
  6  7  1  0
  7  8  1  0
  8  9  2  0
  9 10  1  0
 10 11  1  0
 10 12  2  0
 12 13  1  0
 13 14  1  0
 13 15  2  0
 15 16  1  0
 16 17  3  0
 15  8  1  0
  1 18  1  0
  1 19  1  0
  1 20  1  0
  3 21  1  0
  6 22  1  0
  6 23  1  0
 11 24  1  0
 11 25  1  0
 11 26  1  0
 12 27  1  0
 14 28  1  0
 14 29  1  0
 14 30  1  0
M  END
>  <Binding energies>  (1) 
[-6.08]

>  <Ligand effiencies>  (1) 
[-0.3377777777777778]

>  <Interactions>  (1) 
["V-B:PRO:540:C:9849, V-B:GLU:543:CG:9875, V-B:ALA:541:CB:9860, V-B:TYR:539:C:9835, V-A:TYR:484:CZ:4342, V-A:TYR:484:CE1:4340, V-B:GLU:543:CD:9876, H-A:TYR:484:OH:4343, V-B:ASN:362:CB:8143, V-B:PRO:540:CB:9853, H-B:ALA:541:N:9859, V-B:PRO:540:CA:9851, H-B:GLU:543:OE2:9878, V-B:LEU:363:CD1:8156, V-B:PRO:540:N:9852, V-B:MET:535:CE:9803"]

$$$$
1m_Grossjean_2025
     RDKit          3D

 35 35  0  0  0  0  0  0  0  0999 V2000
  131.1170  125.7470   66.0790 C   0  0  0  0  0  0  0  0  0  0  0  0
  132.4590  125.2810   66.0870 O   0  0  0  0  0  0  0  0  0  0  0  0
  133.1980  125.3010   64.9590 C   0  0  0  0  0  0  0  0  0  0  0  0
  134.3940  125.0030   64.8800 O   0  0  0  0  0  0  0  0  0  0  0  0
  132.3600  125.7400   63.7400 C   0  0  0  0  0  0  0  0  0  0  0  0
  132.9430  125.3050   62.4620 N   0  0  0  0  0  0  0  0  0  0  0  0
  133.1260  124.0280   62.0760 C   0  0  0  0  0  0  0  0  0  0  0  0
  132.8290  123.0630   62.7840 O   0  0  0  0  0  0  0  0  0  0  0  0
  133.7430  123.8390   60.6840 C   0  0  0  0  0  0  0  0  0  0  0  0
  132.5390  123.4830   59.3590 S   0  0  0  0  0  0  0  0  0  0  0  0
  131.2240  122.5070   60.0570 C   0  0  0  0  0  0  0  0  0  0  0  0
  130.0530  123.1820   60.1770 N   0  0  0  0  0  0  0  0  0  0  0  0
  128.9800  122.5380   60.6910 C   0  0  0  0  0  0  0  0  0  0  0  0
  127.7010  123.3500   60.7770 C   0  0  0  0  0  0  0  0  0  0  0  0
  129.0300  121.2110   61.1130 C   0  0  0  0  0  0  0  0  0  0  0  0
  130.2390  120.5130   61.0190 C   0  0  0  0  0  0  0  0  0  0  0  0
  130.2750  119.0650   61.5020 C   0  0  0  0  0  0  0  0  0  0  0  0
  131.3740  121.1660   60.4860 C   0  0  0  0  0  0  0  0  0  0  0  0
  132.6620  120.4700   60.4240 C   0  0  0  0  0  0  0  0  0  0  0  0
  133.6780  119.9200   60.3740 N   0  0  0  0  0  0  0  0  0  0  0  0
  130.7651  125.8692   67.1140 H   0  0  0  0  0  0  0  0  0  0  0  0
  131.0680  126.7148   65.5584 H   0  0  0  0  0  0  0  0  0  0  0  0
  130.4788  125.0179   65.5584 H   0  0  0  0  0  0  0  0  0  0  0  0
  131.3526  125.3080   63.8320 H   0  0  0  0  0  0  0  0  0  0  0  0
  132.3332  126.8397   63.7349 H   0  0  0  0  0  0  0  0  0  0  0  0
  133.2360  126.0410   61.8360 H   0  0  0  0  0  0  0  0  0  0  0  0
  134.2811  124.7612   60.4195 H   0  0  0  0  0  0  0  0  0  0  0  0
  134.4000  122.9594   60.7518 H   0  0  0  0  0  0  0  0  0  0  0  0
  127.4416  123.5147   61.8332 H   0  0  0  0  0  0  0  0  0  0  0  0
  127.8485  124.3202   60.2801 H   0  0  0  0  0  0  0  0  0  0  0  0
  126.8857  122.8037   60.2801 H   0  0  0  0  0  0  0  0  0  0  0  0
  128.1317  120.7191   61.5144 H   0  0  0  0  0  0  0  0  0  0  0  0
  130.2755  119.0452   62.6018 H   0  0  0  0  0  0  0  0  0  0  0  0
  129.3899  118.5310   61.1261 H   0  0  0  0  0  0  0  0  0  0  0  0
  131.1856  118.5756   61.1261 H   0  0  0  0  0  0  0  0  0  0  0  0
  1  2  1  0
  2  3  1  0
  3  4  2  0
  3  5  1  0
  5  6  1  0
  6  7  1  0
  7  8  2  0
  7  9  1  0
  9 10  1  0
 10 11  1  0
 11 12  2  0
 12 13  1  0
 13 14  1  0
 13 15  2  0
 15 16  1  0
 16 17  1  0
 16 18  2  0
 18 19  1  0
 19 20  3  0
 18 11  1  0
  1 21  1  0
  1 22  1  0
  1 23  1  0
  5 24  1  0
  5 25  1  0
  6 26  1  0
  9 27  1  0
  9 28  1  0
 14 29  1  0
 14 30  1  0
 14 31  1  0
 15 32  1  0
 17 33  1  0
 17 34  1  0
 17 35  1  0
M  END
>  <Binding energies>  (1) 
[-6.03]

>  <Ligand effiencies>  (1) 
[-0.28714285714285714]

>  <Interactions>  (1) 
["V-B:PRO:540:C:9849, V-A:TRP:381:CZ2:3365, V-B:ALA:541:CB:9860, V-B:ALA:541:CA:9858, V-A:TRP:381:CH2:3367, V-B:TYR:539:CD2:9842, V-A:LEU:475:CD2:4254, V-A:PRO:482:CB:4321, V-B:TYR:539:CE2:9844, V-A:ILE:369:CD1:3234, V-A:ASP:366:CG:3208, V-A:ASP:366:CB:3207, H-A:ASP:366:OD2:3210, H-A:ARG:545:NH1:4922, V-A:ILE:369:CG2:3232, H-A:TYR:484:OH:4343, H-A:ARG:545:NE:4919, H-A:ASP:366:OD1:3209, H-A:GLY:454:N:4045, V-A:ARG:545:CZ:4921, V-B:PRO:540:CA:9851, H-A:HIS:456:NE2:4065, V-A:LEU:475:CD1:4253"]

$$$$
1n_Grossjean_2025
     RDKit          3D

 48 49  0  0  0  0  0  0  0  0999 V2000
  130.4830  125.8760   73.8130 C   0  0  0  0  0  0  0  0  0  0  0  0
  130.7760  127.2790   73.2710 C   0  0  0  0  0  0  0  0  0  0  0  0
  129.6500  128.1170   73.4970 O   0  0  0  0  0  0  0  0  0  0  0  0
  128.7260  128.3290   72.5250 C   0  0  0  0  0  0  0  0  0  0  0  0
  127.5870  128.7500   72.7490 O   0  0  0  0  0  0  0  0  0  0  0  0
  129.2310  128.0100   71.1470 C   0  0  0  0  0  0  0  0  0  0  0  0
  130.2330  128.7740   70.5290 C   0  0  0  0  0  0  0  0  0  0  0  0
  130.6770  128.4540   69.2490 C   0  0  0  0  0  0  0  0  0  0  0  0
  130.1280  127.3720   68.5590 C   0  0  0  0  0  0  0  0  0  0  0  0
  130.6470  127.1410   67.2710 N   0  0  0  0  0  0  0  0  0  0  0  0
  130.8740  125.9760   66.6280 C   0  0  0  0  0  0  0  0  0  0  0  0
  130.6470  124.8540   67.0820 O   0  0  0  0  0  0  0  0  0  0  0  0
  131.4610  126.1010   65.2160 C   0  0  0  0  0  0  0  0  0  0  0  0
  131.5360  124.7520   64.4690 C   0  0  0  0  0  0  0  0  0  0  0  0
  133.0950  124.4690   63.5780 S   0  0  0  0  0  0  0  0  0  0  0  0
  132.7420  123.4040   62.1970 C   0  0  0  0  0  0  0  0  0  0  0  0
  133.3530  123.7840   61.0470 N   0  0  0  0  0  0  0  0  0  0  0  0
  133.1690  123.0370   59.9340 C   0  0  0  0  0  0  0  0  0  0  0  0
  133.8920  123.5170   58.6900 C   0  0  0  0  0  0  0  0  0  0  0  0
  132.3710  121.8950   59.9180 C   0  0  0  0  0  0  0  0  0  0  0  0
  131.7190  121.5060   61.0940 C   0  0  0  0  0  0  0  0  0  0  0  0
  130.8380  120.2590   61.0490 C   0  0  0  0  0  0  0  0  0  0  0  0
  131.8930  122.2740   62.2670 C   0  0  0  0  0  0  0  0  0  0  0  0
  131.1800  121.9150   63.4950 C   0  0  0  0  0  0  0  0  0  0  0  0
  130.6150  121.6290   64.4640 N   0  0  0  0  0  0  0  0  0  0  0  0
  129.1340  126.5980   69.1750 C   0  0  0  0  0  0  0  0  0  0  0  0
  128.6930  126.9180   70.4560 C   0  0  0  0  0  0  0  0  0  0  0  0
  130.4879  125.8994   74.9127 H   0  0  0  0  0  0  0  0  0  0  0  0
  129.4962  125.5443   73.4577 H   0  0  0  0  0  0  0  0  0  0  0  0
  131.2546  125.1771   73.4577 H   0  0  0  0  0  0  0  0  0  0  0  0
  131.6533  127.6960   73.7871 H   0  0  0  0  0  0  0  0  0  0  0  0
  130.9801  127.2208   72.1917 H   0  0  0  0  0  0  0  0  0  0  0  0
  130.6708  129.6321   71.0600 H   0  0  0  0  0  0  0  0  0  0  0  0
  131.4663  129.0583   68.7779 H   0  0  0  0  0  0  0  0  0  0  0  0
  130.8370  127.9820   66.7460 H   0  0  0  0  0  0  0  0  0  0  0  0
  130.8296  126.7886   64.6341 H   0  0  0  0  0  0  0  0  0  0  0  0
  132.4901  126.4752   65.3208 H   0  0  0  0  0  0  0  0  0  0  0  0
  131.4094  123.9443   65.2049 H   0  0  0  0  0  0  0  0  0  0  0  0
  130.7406  124.7705   63.7094 H   0  0  0  0  0  0  0  0  0  0  0  0
  134.7754  124.1035   58.9827 H   0  0  0  0  0  0  0  0  0  0  0  0
  134.2092  122.6496   58.0926 H   0  0  0  0  0  0  0  0  0  0  0  0
  133.2157  124.1461   58.0926 H   0  0  0  0  0  0  0  0  0  0  0  0
  132.2551  121.3079   58.9950 H   0  0  0  0  0  0  0  0  0  0  0  0
  130.6089  119.9347   62.0748 H   0  0  0  0  0  0  0  0  0  0  0  0
  129.9018  120.4904   60.5199 H   0  0  0  0  0  0  0  0  0  0  0  0
  131.3689  119.4539   60.5199 H   0  0  0  0  0  0  0  0  0  0  0  0
  128.7020  125.7364   68.6449 H   0  0  0  0  0  0  0  0  0  0  0  0
  127.9125  126.3054   70.9309 H   0  0  0  0  0  0  0  0  0  0  0  0
  1  2  1  0
  2  3  1  0
  3  4  1  0
  4  5  2  0
  4  6  1  0
  6  7  2  0
  7  8  1  0
  8  9  2  0
  9 10  1  0
 10 11  1  0
 11 12  2  0
 11 13  1  0
 13 14  1  0
 14 15  1  0
 15 16  1  0
 16 17  2  0
 17 18  1  0
 18 19  1  0
 18 20  2  0
 20 21  1  0
 21 22  1  0
 21 23  2  0
 23 24  1  0
 24 25  3  0
  9 26  1  0
 26 27  2  0
 27  6  1  0
 23 16  1  0
  1 28  1  0
  1 29  1  0
  1 30  1  0
  2 31  1  0
  2 32  1  0
  7 33  1  0
  8 34  1  0
 10 35  1  0
 13 36  1  0
 13 37  1  0
 14 38  1  0
 14 39  1  0
 19 40  1  0
 19 41  1  0
 19 42  1  0
 20 43  1  0
 22 44  1  0
 22 45  1  0
 22 46  1  0
 26 47  1  0
 27 48  1  0
M  END
>  <Binding energies>  (1) 
[-7.75]

>  <Ligand effiencies>  (1) 
[-0.2767857142857143]

>  <Interactions>  (1) 
["V-A:HIS:456:CE1:4064, H-B:LYS:547:NZ:9919, V-B:ALA:541:CB:9860, V-A:LEU:475:CD2:4254, V-A:GLU:543:CB:4901, V-B:TYR:539:CE2:9844, V-A:ILE:369:CD1:3234, V-A:ASP:366:CA:3205, V-A:ILE:369:CB:3231, V-A:ASP:366:CG:3208, V-A:ASP:366:CB:3207, V-A:ASP:366:C:3203, V-A:GLU:543:CD:4903, V-A:ILE:369:CG2:3232, H-A:TYR:484:OH:4343, H-A:HIS:456:NE2:4065, V-A:LEU:475:CD1:4253, H-A:GLU:543:OE1:4904, V-A:GLU:543:C:4897, V-A:LYS:547:CE:4945, V-B:HIS:456:CD2:9035, H-A:LYS:547:NZ:4946, V-B:LYS:547:CE:9918"]

$$$$
1o_Grossjean_2025
     RDKit          3D

 45 46  0  0  0  0  0  0  0  0999 V2000
  129.9820  127.0470   72.2950 C   0  0  0  0  0  0  0  0  0  0  0  0
  128.7670  126.4850   71.8200 O   0  0  0  0  0  0  0  0  0  0  0  0
  128.0400  127.1050   70.8550 C   0  0  0  0  0  0  0  0  0  0  0  0
  127.0680  127.8280   71.0950 O   0  0  0  0  0  0  0  0  0  0  0  0
  128.5360  126.8260   69.4660 C   0  0  0  0  0  0  0  0  0  0  0  0
  129.4750  125.8190   69.2010 C   0  0  0  0  0  0  0  0  0  0  0  0
  129.9130  125.5840   67.9000 C   0  0  0  0  0  0  0  0  0  0  0  0
  129.4290  126.3520   66.8410 C   0  0  0  0  0  0  0  0  0  0  0  0
  129.9320  126.0240   65.5670 N   0  0  0  0  0  0  0  0  0  0  0  0
  131.1320  125.5120   65.2150 C   0  0  0  0  0  0  0  0  0  0  0  0
  132.0220  125.1860   66.0010 O   0  0  0  0  0  0  0  0  0  0  0  0
  131.3480  125.3090   63.7080 C   0  0  0  0  0  0  0  0  0  0  0  0
  132.7940  125.5910   63.2560 C   0  0  0  0  0  0  0  0  0  0  0  0
  133.7950  124.0940   63.0090 S   0  0  0  0  0  0  0  0  0  0  0  0
  133.0030  123.0820   61.7750 C   0  0  0  0  0  0  0  0  0  0  0  0
  133.5170  123.2470   60.5300 N   0  0  0  0  0  0  0  0  0  0  0  0
  133.0000  122.5230   59.5100 C   0  0  0  0  0  0  0  0  0  0  0  0
  133.6350  122.7510   58.1510 C   0  0  0  0  0  0  0  0  0  0  0  0
  131.9510  121.6230   59.6840 C   0  0  0  0  0  0  0  0  0  0  0  0
  131.3960  121.4640   60.9580 C   0  0  0  0  0  0  0  0  0  0  0  0
  130.2380  120.4810   61.1210 C   0  0  0  0  0  0  0  0  0  0  0  0
  131.9180  122.2120   62.0380 C   0  0  0  0  0  0  0  0  0  0  0  0
  131.3110  122.1030   63.3670 C   0  0  0  0  0  0  0  0  0  0  0  0
  130.8310  122.0140   64.4160 N   0  0  0  0  0  0  0  0  0  0  0  0
  128.4850  127.3590   67.0980 C   0  0  0  0  0  0  0  0  0  0  0  0
  128.0480  127.5910   68.3990 C   0  0  0  0  0  0  0  0  0  0  0  0
  129.9809  127.0465   73.3950 H   0  0  0  0  0  0  0  0  0  0  0  0
  130.8301  126.4497   71.9289 H   0  0  0  0  0  0  0  0  0  0  0  0
  130.0760  128.0800   71.9289 H   0  0  0  0  0  0  0  0  0  0  0  0
  129.8690  125.2095   70.0276 H   0  0  0  0  0  0  0  0  0  0  0  0
  130.6459  124.7870   67.7062 H   0  0  0  0  0  0  0  0  0  0  0  0
  129.2780  126.1800   64.8130 H   0  0  0  0  0  0  0  0  0  0  0  0
  131.1007  124.2669   63.4571 H   0  0  0  0  0  0  0  0  0  0  0  0
  130.6978  126.0265   63.1861 H   0  0  0  0  0  0  0  0  0  0  0  0
  132.7580  126.1440   62.3058 H   0  0  0  0  0  0  0  0  0  0  0  0
  133.2736  126.1658   64.0619 H   0  0  0  0  0  0  0  0  0  0  0  0
  134.6627  123.1200   58.2838 H   0  0  0  0  0  0  0  0  0  0  0  0
  133.6548  121.8038   57.5920 H   0  0  0  0  0  0  0  0  0  0  0  0
  133.0478  123.4945   57.5920 H   0  0  0  0  0  0  0  0  0  0  0  0
  131.5645  121.0454   58.8313 H   0  0  0  0  0  0  0  0  0  0  0  0
  130.0444  120.3167   62.1913 H   0  0  0  0  0  0  0  0  0  0  0  0
  129.3366  120.8940   60.6445 H   0  0  0  0  0  0  0  0  0  0  0  0
  130.4991  119.5245   60.6445 H   0  0  0  0  0  0  0  0  0  0  0  0
  128.0901  127.9657   66.2698 H   0  0  0  0  0  0  0  0  0  0  0  0
  127.3108  128.3844   68.5914 H   0  0  0  0  0  0  0  0  0  0  0  0
  1  2  1  0
  2  3  1  0
  3  4  2  0
  3  5  1  0
  5  6  2  0
  6  7  1  0
  7  8  2  0
  8  9  1  0
  9 10  1  0
 10 11  2  0
 10 12  1  0
 12 13  1  0
 13 14  1  0
 14 15  1  0
 15 16  2  0
 16 17  1  0
 17 18  1  0
 17 19  2  0
 19 20  1  0
 20 21  1  0
 20 22  2  0
 22 23  1  0
 23 24  3  0
  8 25  1  0
 25 26  2  0
 26  5  1  0
 22 15  1  0
  1 27  1  0
  1 28  1  0
  1 29  1  0
  6 30  1  0
  7 31  1  0
  9 32  1  0
 12 33  1  0
 12 34  1  0
 13 35  1  0
 13 36  1  0
 18 37  1  0
 18 38  1  0
 18 39  1  0
 19 40  1  0
 21 41  1  0
 21 42  1  0
 21 43  1  0
 25 44  1  0
 26 45  1  0
M  END
>  <Binding energies>  (1) 
[-7.43]

>  <Ligand effiencies>  (1) 
[-0.2751851851851852]

>  <Interactions>  (1) 
["V-B:GLU:543:CG:9875, V-A:HIS:456:CE1:4064, H-B:LYS:547:NZ:9919, V-B:ALA:541:CB:9860, V-B:GLU:543:CB:9874, V-B:TYR:539:CD2:9842, V-A:LEU:475:CD2:4254, V-B:TYR:539:CE2:9844, V-A:ILE:369:CD1:3234, V-A:ILE:369:CB:3231, V-A:ASP:366:CG:3208, V-B:HIS:456:CE1:9037, V-B:GLU:543:C:9870, V-B:GLU:543:CD:9876, V-A:ILE:369:CG2:3232, H-A:TYR:484:OH:4343, H-A:GLY:454:N:4045, V-A:ARG:545:CZ:4921, H-A:HIS:456:NE2:4065, H-B:GLU:543:OE2:9878, H-B:HIS:456:ND1:9034"]

$$$$
1p_Grossjean_2025
     RDKit          3D

 35 36  0  0  0  0  0  0  0  0999 V2000
  133.1310  124.1940   57.9280 C   0  0  0  0  0  0  0  0  0  0  0  0
  132.5210  123.0680   58.7410 C   0  0  0  0  0  0  0  0  0  0  0  0
  133.2880  121.9920   59.1850 C   0  0  0  0  0  0  0  0  0  0  0  0
  132.6710  120.9740   59.9200 C   0  0  0  0  0  0  0  0  0  0  0  0
  133.5280  119.7980   60.3840 C   0  0  0  0  0  0  0  0  0  0  0  0
  131.2890  121.0650   60.2000 C   0  0  0  0  0  0  0  0  0  0  0  0
  130.6100  119.9900   60.9260 C   0  0  0  0  0  0  0  0  0  0  0  0
  130.0740  119.1390   61.5000 N   0  0  0  0  0  0  0  0  0  0  0  0
  130.5930  122.2040   59.7290 C   0  0  0  0  0  0  0  0  0  0  0  0
  128.8580  122.4800   60.0020 S   0  0  0  0  0  0  0  0  0  0  0  0
  128.7160  123.4920   61.5040 C   0  0  0  0  0  0  0  0  0  0  0  0
  128.8550  122.6880   62.8110 C   0  0  0  0  0  0  0  0  0  0  0  0
  130.1430  122.9970   63.5880 C   0  0  0  0  0  0  0  0  0  0  0  0
  130.9950  122.1180   63.7270 O   0  0  0  0  0  0  0  0  0  0  0  0
  130.2500  124.2590   64.0630 N   0  0  0  0  0  0  0  0  0  0  0  0
  131.3040  124.7960   64.7910 C   0  0  0  0  0  0  0  0  0  0  0  0
  132.4740  125.2720   64.2000 C   0  0  0  0  0  0  0  0  0  0  0  0
  133.2510  125.7120   65.2480 C   0  0  0  0  0  0  0  0  0  0  0  0
  132.5840  125.5110   66.4080 O   0  0  0  0  0  0  0  0  0  0  0  0
  131.3520  124.9280   66.1060 N   0  0  0  0  0  0  0  0  0  0  0  0
  131.1970  123.1760   58.9990 N   0  0  0  0  0  0  0  0  0  0  0  0
  133.5432  124.9549   58.6070 H   0  0  0  0  0  0  0  0  0  0  0  0
  133.9358  123.7940   57.2937 H   0  0  0  0  0  0  0  0  0  0  0  0
  132.3564  124.6496   57.2937 H   0  0  0  0  0  0  0  0  0  0  0  0
  134.3638  121.9440   58.9605 H   0  0  0  0  0  0  0  0  0  0  0  0
  133.5482  119.7703   61.4835 H   0  0  0  0  0  0  0  0  0  0  0  0
  133.1007  118.8594   60.0014 H   0  0  0  0  0  0  0  0  0  0  0  0
  134.5524  119.9173   60.0014 H   0  0  0  0  0  0  0  0  0  0  0  0
  129.5055  124.2577   61.4822 H   0  0  0  0  0  0  0  0  0  0  0  0
  127.7062  123.9283   61.5021 H   0  0  0  0  0  0  0  0  0  0  0  0
  127.9951  122.9213   63.4561 H   0  0  0  0  0  0  0  0  0  0  0  0
  128.8928  121.6243   62.5333 H   0  0  0  0  0  0  0  0  0  0  0  0
  129.4820  124.8880   63.8830 H   0  0  0  0  0  0  0  0  0  0  0  0
  132.7223  125.2917   63.1286 H   0  0  0  0  0  0  0  0  0  0  0  0
  134.2534  126.1558   65.1569 H   0  0  0  0  0  0  0  0  0  0  0  0
  1  2  1  0
  2  3  2  0
  3  4  1  0
  4  5  1  0
  4  6  2  0
  6  7  1  0
  7  8  3  0
  6  9  1  0
  9 10  1  0
 10 11  1  0
 11 12  1  0
 12 13  1  0
 13 14  2  0
 13 15  1  0
 15 16  1  0
 16 17  1  0
 17 18  2  0
 18 19  1  0
 19 20  1  0
  9 21  2  0
 21  2  1  0
 20 16  2  0
  1 22  1  0
  1 23  1  0
  1 24  1  0
  3 25  1  0
  5 26  1  0
  5 27  1  0
  5 28  1  0
 11 29  1  0
 11 30  1  0
 12 31  1  0
 12 32  1  0
 15 33  1  0
 17 34  1  0
 18 35  1  0
M  END
>  <Binding energies>  (1) 
[-6.76]

>  <Ligand effiencies>  (1) 
[-0.30727272727272725]

>  <Interactions>  (1) 
["V-B:GLU:543:CG:9875, V-A:TRP:381:CZ2:3365, V-B:ALA:541:CB:9860, V-B:ALA:541:CA:9858, V-A:TRP:381:CH2:3367, V-B:TYR:539:CD2:9842, V-A:LEU:475:CD2:4254, V-B:TYR:539:CE2:9844, V-A:ILE:369:CD1:3234, V-A:ASP:366:CA:3205, V-A:ILE:369:CB:3231, V-A:ASP:366:CG:3208, V-A:ASP:366:CB:3207, V-B:GLU:543:CD:9876, V-A:ILE:369:CG2:3232, H-A:TYR:484:OH:4343, V-A:ARG:545:CZ:4921, H-A:HIS:456:NE2:4065, H-B:GLU:543:OE2:9878, V-A:ARG:545:CD:4918"]

$$$$
1q_Grossjean_2025
     RDKit          3D

 38 38  0  0  0  0  0  0  0  0999 V2000
  133.6670  124.9940   63.2520 C   0  0  0  0  0  0  0  0  0  0  0  0
  134.2370  125.0000   64.5520 O   0  0  0  0  0  0  0  0  0  0  0  0
  133.4880  125.3380   65.6310 C   0  0  0  0  0  0  0  0  0  0  0  0
  133.9260  125.7430   66.7090 O   0  0  0  0  0  0  0  0  0  0  0  0
  131.9700  125.1460   65.4270 C   0  0  0  0  0  0  0  0  0  0  0  0
  131.1670  126.2000   66.0660 N   0  0  0  0  0  0  0  0  0  0  0  0
  130.3670  126.0420   67.1370 C   0  0  0  0  0  0  0  0  0  0  0  0
  130.2210  124.9630   67.7160 O   0  0  0  0  0  0  0  0  0  0  0  0
  129.6410  127.3040   67.6260 C   0  0  0  0  0  0  0  0  0  0  0  0
  129.8850  127.6400   69.1110 C   0  0  0  0  0  0  0  0  0  0  0  0
  128.6500  126.9180   70.2330 S   0  0  0  0  0  0  0  0  0  0  0  0
  129.4970  125.9170   71.4390 C   0  0  0  0  0  0  0  0  0  0  0  0
  129.7700  124.6610   71.0000 N   0  0  0  0  0  0  0  0  0  0  0  0
  130.4100  123.8050   71.8300 C   0  0  0  0  0  0  0  0  0  0  0  0
  130.6640  122.4160   71.2760 C   0  0  0  0  0  0  0  0  0  0  0  0
  130.8110  124.1630   73.1160 C   0  0  0  0  0  0  0  0  0  0  0  0
  130.5580  125.4610   73.5690 C   0  0  0  0  0  0  0  0  0  0  0  0
  131.0240  125.8340   74.9760 C   0  0  0  0  0  0  0  0  0  0  0  0
  129.8930  126.3740   72.7200 C   0  0  0  0  0  0  0  0  0  0  0  0
  129.6710  127.7540   73.1560 C   0  0  0  0  0  0  0  0  0  0  0  0
  129.4970  128.8440   73.5050 N   0  0  0  0  0  0  0  0  0  0  0  0
  132.5700  124.9825   63.3327 H   0  0  0  0  0  0  0  0  0  0  0  0
  133.9852  125.8955   62.7080 H   0  0  0  0  0  0  0  0  0  0  0  0
  134.0041  124.0994   62.7080 H   0  0  0  0  0  0  0  0  0  0  0  0
  131.7580  125.1495   64.3476 H   0  0  0  0  0  0  0  0  0  0  0  0
  131.6929  124.1906   65.8964 H   0  0  0  0  0  0  0  0  0  0  0  0
  131.2110  127.1120   65.6340 H   0  0  0  0  0  0  0  0  0  0  0  0
  129.9831  128.1554   67.0193 H   0  0  0  0  0  0  0  0  0  0  0  0
  128.5636  127.1093   67.5195 H   0  0  0  0  0  0  0  0  0  0  0  0
  130.8773  127.2598   69.3951 H   0  0  0  0  0  0  0  0  0  0  0  0
  129.8115  128.7330   69.2107 H   0  0  0  0  0  0  0  0  0  0  0  0
  130.7935  121.7076   72.1075 H   0  0  0  0  0  0  0  0  0  0  0  0
  129.8078  122.1050   70.6594 H   0  0  0  0  0  0  0  0  0  0  0  0
  131.5748  122.4281   70.6594 H   0  0  0  0  0  0  0  0  0  0  0  0
  131.3192  123.4347   73.7650 H   0  0  0  0  0  0  0  0  0  0  0  0
  130.3904  125.3269   75.7186 H   0  0  0  0  0  0  0  0  0  0  0  0
  132.0697  125.5206   75.1110 H   0  0  0  0  0  0  0  0  0  0  0  0
  130.9472  126.9230   75.1110 H   0  0  0  0  0  0  0  0  0  0  0  0
  1  2  1  0
  2  3  1  0
  3  4  2  0
  3  5  1  0
  5  6  1  0
  6  7  1  0
  7  8  2  0
  7  9  1  0
  9 10  1  0
 10 11  1  0
 11 12  1  0
 12 13  2  0
 13 14  1  0
 14 15  1  0
 14 16  2  0
 16 17  1  0
 17 18  1  0
 17 19  2  0
 19 20  1  0
 20 21  3  0
 19 12  1  0
  1 22  1  0
  1 23  1  0
  1 24  1  0
  5 25  1  0
  5 26  1  0
  6 27  1  0
  9 28  1  0
  9 29  1  0
 10 30  1  0
 10 31  1  0
 15 32  1  0
 15 33  1  0
 15 34  1  0
 16 35  1  0
 18 36  1  0
 18 37  1  0
 18 38  1  0
M  END
>  <Binding energies>  (1) 
[-5.67]

>  <Ligand effiencies>  (1) 
[-0.25772727272727275]

>  <Interactions>  (1) 
["V-A:HIS:456:CE1:4064, H-B:LYS:547:NZ:9919, V-A:ASP:366:CG:3208, V-A:GLU:543:CD:4903, H-A:ARG:545:NH1:4922, H-A:TYR:484:OH:4343, H-A:ARG:545:NE:4919, H-A:GLY:454:N:4045, V-A:ARG:545:CZ:4921, H-A:GLU:543:OE2:4905, H-A:HIS:456:NE2:4065, H-A:GLU:543:OE1:4904, V-A:TYR:484:CG:4337, V-A:TYR:484:CD1:4338, V-A:LYS:547:CE:4945, V-A:HIS:456:CG:4061, H-A:LYS:547:NZ:4946, V-A:ARG:545:CD:4918, V-A:HIS:456:CD2:4063, V-B:LYS:547:CE:9918, V-A:TYR:484:CB:4336, V-A:TYR:484:CD2:4339"]

$$$$
2a_Ghoteimi_2023
     RDKit          3D

 85 90  0  0  0  0  0  0  0  0999 V2000
  129.2690  122.3700   58.9680 C   0  0  0  0  0  0  0  0  0  0  0  0
  129.0640  122.8070   57.5140 C   0  0  0  0  0  0  0  0  0  0  0  0
  128.0010  122.0560   56.9420 O   0  0  0  0  0  0  0  0  0  0  0  0
  126.7290  122.5310   56.9380 C   0  0  0  0  0  0  0  0  0  0  0  0
  125.8030  121.9890   56.3270 O   0  0  0  0  0  0  0  0  0  0  0  0
  126.5590  123.7780   57.7570 C   0  0  0  0  0  0  0  0  0  0  0  0
  126.7910  125.0550   57.2240 C   0  0  0  0  0  0  0  0  0  0  0  0
  126.6230  126.1900   58.0100 C   0  0  0  0  0  0  0  0  0  0  0  0
  126.2160  126.0770   59.3410 C   0  0  0  0  0  0  0  0  0  0  0  0
  126.0820  127.2900   60.0440 N   0  0  0  0  0  0  0  0  0  0  0  0
  125.8510  128.5370   59.5810 C   0  0  0  0  0  0  0  0  0  0  0  0
  125.7600  128.8470   58.3920 O   0  0  0  0  0  0  0  0  0  0  0  0
  125.7410  129.6230   60.6600 C   0  0  0  0  0  0  0  0  0  0  0  0
  125.1710  129.0190   62.2810 S   0  0  0  0  0  0  0  0  0  0  0  0
  126.6240  128.4090   63.1040 C   0  0  0  0  0  0  0  0  0  0  0  0
  127.5080  127.8030   62.2770 N   0  0  0  0  0  0  0  0  0  0  0  0
  128.6530  127.2860   62.7890 C   0  0  0  0  0  0  0  0  0  0  0  0
  129.5770  126.6230   61.8190 C   0  0  0  0  0  0  0  0  0  0  0  0
  130.5290  125.6880   62.2460 C   0  0  0  0  0  0  0  0  0  0  0  0
  131.3940  125.0830   61.3390 C   0  0  0  0  0  0  0  0  0  0  0  0
  131.3370  125.3820   59.9710 C   0  0  0  0  0  0  0  0  0  0  0  0
  132.2330  124.7880   59.0760 N   0  0  0  0  0  0  0  0  0  0  0  0
  131.8350  124.4590   57.6920 C   0  0  0  0  0  0  0  0  0  0  0  0
  133.0250  124.1550   56.7580 C   0  0  0  0  0  0  0  0  0  0  0  0
  133.8300  123.1270   57.3130 O   0  0  0  0  0  0  0  0  0  0  0  0
  134.3560  123.5070   58.5740 C   0  0  0  0  0  0  0  0  0  0  0  0
  133.2080  123.7910   59.5660 C   0  0  0  0  0  0  0  0  0  0  0  0
  130.3890  126.3290   59.5500 C   0  0  0  0  0  0  0  0  0  0  0  0
  129.5220  126.9320   60.4550 C   0  0  0  0  0  0  0  0  0  0  0  0
  128.9430  127.3820   64.1520 C   0  0  0  0  0  0  0  0  0  0  0  0
  128.0430  128.0050   65.0280 C   0  0  0  0  0  0  0  0  0  0  0  0
  128.4130  128.0670   66.4740 C   0  0  0  0  0  0  0  0  0  0  0  0
  128.3110  126.9270   67.2750 C   0  0  0  0  0  0  0  0  0  0  0  0
  128.6340  126.9790   68.6280 C   0  0  0  0  0  0  0  0  0  0  0  0
  129.0730  128.1720   69.2200 C   0  0  0  0  0  0  0  0  0  0  0  0
  129.3850  128.2510   70.5810 N   0  0  0  0  0  0  0  0  0  0  0  0
  129.1570  127.0740   71.4430 C   0  0  0  0  0  0  0  0  0  0  0  0
  129.8920  127.1600   72.7980 C   0  0  0  0  0  0  0  0  0  0  0  0
  129.5330  128.3560   73.4710 O   0  0  0  0  0  0  0  0  0  0  0  0
  129.8730  129.5070   72.7150 C   0  0  0  0  0  0  0  0  0  0  0  0
  129.1410  129.4820   71.3570 C   0  0  0  0  0  0  0  0  0  0  0  0
  129.1610  129.3150   68.4120 C   0  0  0  0  0  0  0  0  0  0  0  0
  128.8360  129.2640   67.0600 C   0  0  0  0  0  0  0  0  0  0  0  0
  126.8480  128.5430   64.4930 C   0  0  0  0  0  0  0  0  0  0  0  0
  125.8940  129.2560   65.3490 C   0  0  0  0  0  0  0  0  0  0  0  0
  125.1420  129.8170   66.0270 N   0  0  0  0  0  0  0  0  0  0  0  0
  125.9900  124.8040   59.8840 C   0  0  0  0  0  0  0  0  0  0  0  0
  126.1580  123.6680   59.0950 C   0  0  0  0  0  0  0  0  0  0  0  0
  128.9000  123.1565   59.6427 H   0  0  0  0  0  0  0  0  0  0  0  0
  128.7140  121.4384   59.1526 H   0  0  0  0  0  0  0  0  0  0  0  0
  130.3402  122.2013   59.1526 H   0  0  0  0  0  0  0  0  0  0  0  0
  128.8147  123.8779   57.4841 H   0  0  0  0  0  0  0  0  0  0  0  0
  129.9877  122.6311   56.9431 H   0  0  0  0  0  0  0  0  0  0  0  0
  127.1083  125.1593   56.1759 H   0  0  0  0  0  0  0  0  0  0  0  0
  126.8122  127.1846   57.5798 H   0  0  0  0  0  0  0  0  0  0  0  0
  126.2030  127.2020   61.0420 H   0  0  0  0  0  0  0  0  0  0  0  0
  126.7336  130.0782   60.7922 H   0  0  0  0  0  0  0  0  0  0  0  0
  124.9838  130.3392   60.3082 H   0  0  0  0  0  0  0  0  0  0  0  0
  130.5937  125.4285   63.3130 H   0  0  0  0  0  0  0  0  0  0  0  0
  132.1360  124.3568   61.7025 H   0  0  0  0  0  0  0  0  0  0  0  0
  131.1812  123.5748   57.7199 H   0  0  0  0  0  0  0  0  0  0  0  0
  131.3265  125.3456   57.2853 H   0  0  0  0  0  0  0  0  0  0  0  0
  132.6448  123.8304   55.7782 H   0  0  0  0  0  0  0  0  0  0  0  0
  133.6325  125.0645   56.6411 H   0  0  0  0  0  0  0  0  0  0  0  0
  134.9827  122.6927   58.9668 H   0  0  0  0  0  0  0  0  0  0  0  0
  134.9589  124.4189   58.4517 H   0  0  0  0  0  0  0  0  0  0  0  0
  132.6742  122.8487   59.7586 H   0  0  0  0  0  0  0  0  0  0  0  0
  133.6647  124.2078   60.4758 H   0  0  0  0  0  0  0  0  0  0  0  0
  130.3312  126.5987   58.4851 H   0  0  0  0  0  0  0  0  0  0  0  0
  128.7827  127.6620   60.0937 H   0  0  0  0  0  0  0  0  0  0  0  0
  129.8841  126.9659   64.5408 H   0  0  0  0  0  0  0  0  0  0  0  0
  127.9721  125.9789   66.8321 H   0  0  0  0  0  0  0  0  0  0  0  0
  128.5435  126.0708   69.2419 H   0  0  0  0  0  0  0  0  0  0  0  0
  128.0776  126.9859   71.6359 H   0  0  0  0  0  0  0  0  0  0  0  0
  129.5549  126.1974   70.9107 H   0  0  0  0  0  0  0  0  0  0  0  0
  129.6137  126.2955   73.4186 H   0  0  0  0  0  0  0  0  0  0  0  0
  130.9775  127.1583   72.6201 H   0  0  0  0  0  0  0  0  0  0  0  0
  129.5775  130.4087   73.2715 H   0  0  0  0  0  0  0  0  0  0  0  0
  130.9589  129.5158   72.5396 H   0  0  0  0  0  0  0  0  0  0  0  0
  128.0602  129.5687   71.5421 H   0  0  0  0  0  0  0  0  0  0  0  0
  129.5305  130.3221   70.7632 H   0  0  0  0  0  0  0  0  0  0  0  0
  129.4920  130.2664   68.8539 H   0  0  0  0  0  0  0  0  0  0  0  0
  128.9126  130.1738   66.4465 H   0  0  0  0  0  0  0  0  0  0  0  0
  125.6796  124.7022   60.9344 H   0  0  0  0  0  0  0  0  0  0  0  0
  125.9737  122.6735   59.5274 H   0  0  0  0  0  0  0  0  0  0  0  0
  1  2  1  0
  2  3  1  0
  3  4  1  0
  4  5  2  0
  4  6  1  0
  6  7  2  0
  7  8  1  0
  8  9  2  0
  9 10  1  0
 10 11  1  0
 11 12  2  0
 11 13  1  0
 13 14  1  0
 14 15  1  0
 15 16  2  0
 16 17  1  0
 17 18  1  0
 18 19  2  0
 19 20  1  0
 20 21  2  0
 21 22  1  0
 22 23  1  0
 23 24  1  0
 24 25  1  0
 25 26  1  0
 26 27  1  0
 21 28  1  0
 28 29  2  0
 17 30  2  0
 30 31  1  0
 31 32  1  0
 32 33  2  0
 33 34  1  0
 34 35  2  0
 35 36  1  0
 36 37  1  0
 37 38  1  0
 38 39  1  0
 39 40  1  0
 40 41  1  0
 35 42  1  0
 42 43  2  0
 31 44  2  0
 44 45  1  0
 45 46  3  0
  9 47  1  0
 47 48  2  0
 48  6  1  0
 44 15  1  0
 29 18  1  0
 43 32  1  0
 27 22  1  0
 41 36  1  0
  1 49  1  0
  1 50  1  0
  1 51  1  0
  2 52  1  0
  2 53  1  0
  7 54  1  0
  8 55  1  0
 10 56  1  0
 13 57  1  0
 13 58  1  0
 19 59  1  0
 20 60  1  0
 23 61  1  0
 23 62  1  0
 24 63  1  0
 24 64  1  0
 26 65  1  0
 26 66  1  0
 27 67  1  0
 27 68  1  0
 28 69  1  0
 29 70  1  0
 30 71  1  0
 33 72  1  0
 34 73  1  0
 37 74  1  0
 37 75  1  0
 38 76  1  0
 38 77  1  0
 40 78  1  0
 40 79  1  0
 41 80  1  0
 41 81  1  0
 42 82  1  0
 43 83  1  0
 47 84  1  0
 48 85  1  0
M  END
>  <Binding energies>  (1) 
[-9.57]

>  <Ligand effiencies>  (1) 
[-0.1953061224489796]

>  <Interactions>  (1) 
["V-B:GLU:543:CG:9875, V-A:HIS:456:CE1:4064, H-B:LYS:547:NZ:9919, V-B:GLU:543:CB:9874, V-B:TYR:539:C:9835, V-B:TYR:539:CD2:9842, V-A:GLU:543:CB:4901, V-B:TYR:539:CE2:9844, V-A:ILE:369:CD1:3234, V-B:TYR:539:CZ:9845, V-A:ASP:366:CA:3205, V-A:ILE:369:CB:3231, V-A:ASP:366:CG:3208, V-B:HIS:456:CE1:9037, V-A:ASP:366:CB:3207, V-A:ASP:366:C:3203, V-A:GLU:543:CG:4902, H-B:TYR:484:OH:9315, V-A:GLU:543:CD:4903, V-B:GLU:543:CD:9876, V-A:ILE:369:CG2:3232, V-B:PRO:540:CB:9853, V-B:PRO:540:CA:9851, V-A:LYS:547:CE:4945, V-B:HIS:456:CD2:9035, V-A:TYR:531:CZ:4789, H-A:LYS:547:NZ:4946, V-B:ASP:366:CB:8179, H-B:GLU:543:OE2:9878, V-B:ASP:366:CG:8180, H-B:ASP:366:OD2:8182, V-B:PRO:540:N:9852, V-B:MET:535:CE:9803, V-A:TYR:531:CE1:4787, H-B:TYR:539:OH:9846, H-B:ARG:545:NH2:9896, H-B:TYR:531:OH:9763, V-A:ILE:369:CG1:3233, H-B:TYR:539:N:9838"]

$$$$
2a_Grossjean_2025
     RDKit          3D

 45 46  0  0  0  0  0  0  0  0999 V2000
  129.7780  128.7210   71.8410 C   0  0  0  0  0  0  0  0  0  0  0  0
  130.0440  127.2230   72.0150 C   0  0  0  0  0  0  0  0  0  0  0  0
  128.8740  126.4940   71.6580 O   0  0  0  0  0  0  0  0  0  0  0  0
  128.0910  126.8910   70.6220 C   0  0  0  0  0  0  0  0  0  0  0  0
  126.9370  127.3080   70.7620 O   0  0  0  0  0  0  0  0  0  0  0  0
  128.7780  126.7920   69.2900 C   0  0  0  0  0  0  0  0  0  0  0  0
  129.4690  125.6370   68.8960 C   0  0  0  0  0  0  0  0  0  0  0  0
  130.0960  125.5780   67.6550 C   0  0  0  0  0  0  0  0  0  0  0  0
  130.0530  126.6700   66.7870 C   0  0  0  0  0  0  0  0  0  0  0  0
  130.7330  126.5040   65.5660 N   0  0  0  0  0  0  0  0  0  0  0  0
  131.7950  125.7270   65.2630 C   0  0  0  0  0  0  0  0  0  0  0  0
  132.4030  125.0060   66.0540 O   0  0  0  0  0  0  0  0  0  0  0  0
  132.2530  125.7770   63.8010 C   0  0  0  0  0  0  0  0  0  0  0  0
  133.5140  124.5230   63.3970 S   0  0  0  0  0  0  0  0  0  0  0  0
  132.9410  123.5060   62.0410 C   0  0  0  0  0  0  0  0  0  0  0  0
  133.6030  123.6620   60.8670 N   0  0  0  0  0  0  0  0  0  0  0  0
  133.2150  122.9350   59.7960 C   0  0  0  0  0  0  0  0  0  0  0  0
  133.9850  123.1850   58.5120 C   0  0  0  0  0  0  0  0  0  0  0  0
  132.1670  122.0210   59.8480 C   0  0  0  0  0  0  0  0  0  0  0  0
  131.4730  121.8360   61.0550 C   0  0  0  0  0  0  0  0  0  0  0  0
  130.3160  120.8200   61.0970 C   0  0  0  0  0  0  0  0  0  0  0  0
  130.4560  120.0090   62.1450 F   0  0  0  0  0  0  0  0  0  0  0  0
  129.1500  121.4610   61.1970 F   0  0  0  0  0  0  0  0  0  0  0  0
  130.2600  120.0560   60.0030 F   0  0  0  0  0  0  0  0  0  0  0  0
  131.8680  122.5960   62.1850 C   0  0  0  0  0  0  0  0  0  0  0  0
  131.1760  122.4450   63.4690 C   0  0  0  0  0  0  0  0  0  0  0  0
  130.6300  122.3250   64.4830 N   0  0  0  0  0  0  0  0  0  0  0  0
  129.3560  127.8250   67.1700 C   0  0  0  0  0  0  0  0  0  0  0  0
  128.7260  127.8800   68.4100 C   0  0  0  0  0  0  0  0  0  0  0  0
  129.6937  129.1957   72.8297 H   0  0  0  0  0  0  0  0  0  0  0  0
  130.6089  129.1787   71.2841 H   0  0  0  0  0  0  0  0  0  0  0  0
  128.8403  128.8646   71.2841 H   0  0  0  0  0  0  0  0  0  0  0  0
  130.8785  126.9199   71.3656 H   0  0  0  0  0  0  0  0  0  0  0  0
  130.3038  127.0136   73.0632 H   0  0  0  0  0  0  0  0  0  0  0  0
  129.5157  124.7712   69.5729 H   0  0  0  0  0  0  0  0  0  0  0  0
  130.6295  124.6637   67.3560 H   0  0  0  0  0  0  0  0  0  0  0  0
  130.3280  127.0160   64.7980 H   0  0  0  0  0  0  0  0  0  0  0  0
  131.3778  125.6128   63.1551 H   0  0  0  0  0  0  0  0  0  0  0  0
  132.7103  126.7638   63.6363 H   0  0  0  0  0  0  0  0  0  0  0  0
  135.0054  123.5163   58.7550 H   0  0  0  0  0  0  0  0  0  0  0  0
  134.0312  122.2557   57.9253 H   0  0  0  0  0  0  0  0  0  0  0  0
  133.4765  123.9642   57.9253 H   0  0  0  0  0  0  0  0  0  0  0  0
  131.8847  121.4487   58.9521 H   0  0  0  0  0  0  0  0  0  0  0  0
  129.3071  128.6882   66.4900 H   0  0  0  0  0  0  0  0  0  0  0  0
  128.1805  128.7894   68.7023 H   0  0  0  0  0  0  0  0  0  0  0  0
  1  2  1  0
  2  3  1  0
  3  4  1  0
  4  5  2  0
  4  6  1  0
  6  7  2  0
  7  8  1  0
  8  9  2  0
  9 10  1  0
 10 11  1  0
 11 12  2  0
 11 13  1  0
 13 14  1  0
 14 15  1  0
 15 16  2  0
 16 17  1  0
 17 18  1  0
 17 19  2  0
 19 20  1  0
 20 21  1  0
 21 22  1  0
 21 23  1  0
 21 24  1  0
 20 25  2  0
 25 26  1  0
 26 27  3  0
  9 28  1  0
 28 29  2  0
 29  6  1  0
 25 15  1  0
  1 30  1  0
  1 31  1  0
  1 32  1  0
  2 33  1  0
  2 34  1  0
  7 35  1  0
  8 36  1  0
 10 37  1  0
 13 38  1  0
 13 39  1  0
 18 40  1  0
 18 41  1  0
 18 42  1  0
 19 43  1  0
 28 44  1  0
 29 45  1  0
M  END
>  <Binding energies>  (1) 
[-7.38]

>  <Ligand effiencies>  (1) 
[-0.246]

>  <Interactions>  (1) 
["V-B:PRO:540:C:9849, V-A:HIS:456:CE1:4064, H-B:LYS:547:NZ:9919, V-B:ALA:541:CB:9860, V-B:GLU:543:CB:9874, V-B:ALA:541:CA:9858, V-B:TYR:539:C:9835, V-B:TYR:539:CD2:9842, V-A:LEU:475:CD2:4254, V-B:TYR:539:CE2:9844, V-A:ILE:369:CD1:3234, V-A:ASP:366:CA:3205, V-A:ILE:369:CB:3231, V-B:HIS:456:CE1:9037, V-A:ASP:366:CB:3207, V-B:GLU:543:C:9870, V-A:GLU:543:CD:4903, V-A:ILE:369:CG2:3232, H-A:TYR:484:OH:4343, H-A:GLY:454:N:4045, V-A:ARG:545:CZ:4921, H-A:GLU:543:OE2:4905, H-A:HIS:456:NE2:4065, V-A:LEU:475:CD1:4253, H-A:GLU:543:OE1:4904, V-A:ILE:369:CG1:3233, V-A:LEU:475:CG:4252"]

$$$$
2aa_Ghoteimi_2023
     RDKit          3D

 85 90  0  0  0  0  0  0  0  0999 V2000
  129.5960  122.3890   58.8820 C   0  0  0  0  0  0  0  0  0  0  0  0
  129.1440  123.0420   57.5720 C   0  0  0  0  0  0  0  0  0  0  0  0
  128.1290  122.2460   56.9750 O   0  0  0  0  0  0  0  0  0  0  0  0
  126.8200  122.6010   57.0540 C   0  0  0  0  0  0  0  0  0  0  0  0
  125.9130  121.9890   56.4800 O   0  0  0  0  0  0  0  0  0  0  0  0
  126.5840  123.8030   57.9220 C   0  0  0  0  0  0  0  0  0  0  0  0
  126.3830  123.6900   59.3060 C   0  0  0  0  0  0  0  0  0  0  0  0
  126.1710  124.8240   60.0850 C   0  0  0  0  0  0  0  0  0  0  0  0
  126.1450  126.0900   59.4980 C   0  0  0  0  0  0  0  0  0  0  0  0
  125.9260  127.1670   60.3790 N   0  0  0  0  0  0  0  0  0  0  0  0
  125.5520  128.4380   60.1150 C   0  0  0  0  0  0  0  0  0  0  0  0
  125.2990  128.8840   58.9940 O   0  0  0  0  0  0  0  0  0  0  0  0
  125.4290  129.3370   61.3520 C   0  0  0  0  0  0  0  0  0  0  0  0
  125.4400  128.5320   62.5360 O   0  0  0  0  0  0  0  0  0  0  0  0
  126.6460  128.1290   63.0940 C   0  0  0  0  0  0  0  0  0  0  0  0
  127.5650  127.5420   62.2770 N   0  0  0  0  0  0  0  0  0  0  0  0
  128.7560  127.1410   62.7900 C   0  0  0  0  0  0  0  0  0  0  0  0
  129.7130  126.5000   61.8350 C   0  0  0  0  0  0  0  0  0  0  0  0
  130.8210  125.7880   62.3050 C   0  0  0  0  0  0  0  0  0  0  0  0
  131.7120  125.1830   61.4210 C   0  0  0  0  0  0  0  0  0  0  0  0
  131.5190  125.2580   60.0330 C   0  0  0  0  0  0  0  0  0  0  0  0
  132.4110  124.6670   59.1310 N   0  0  0  0  0  0  0  0  0  0  0  0
  133.1780  123.4560   59.4870 C   0  0  0  0  0  0  0  0  0  0  0  0
  134.3520  123.1580   58.5310 C   0  0  0  0  0  0  0  0  0  0  0  0
  133.8830  123.0860   57.1940 O   0  0  0  0  0  0  0  0  0  0  0  0
  133.2890  124.3080   56.7850 C   0  0  0  0  0  0  0  0  0  0  0  0
  132.0830  124.6400   57.6900 C   0  0  0  0  0  0  0  0  0  0  0  0
  130.4180  125.9910   59.5670 C   0  0  0  0  0  0  0  0  0  0  0  0
  129.5300  126.5970   60.4510 C   0  0  0  0  0  0  0  0  0  0  0  0
  129.0500  127.3040   64.1470 C   0  0  0  0  0  0  0  0  0  0  0  0
  128.1190  127.8950   65.0100 C   0  0  0  0  0  0  0  0  0  0  0  0
  128.4800  128.0190   66.4550 C   0  0  0  0  0  0  0  0  0  0  0  0
  128.7720  129.2700   67.0040 C   0  0  0  0  0  0  0  0  0  0  0  0
  129.1290  129.3910   68.3440 C   0  0  0  0  0  0  0  0  0  0  0  0
  129.2180  128.2600   69.1710 C   0  0  0  0  0  0  0  0  0  0  0  0
  129.5710  128.3580   70.5200 N   0  0  0  0  0  0  0  0  0  0  0  0
  129.5450  127.1800   71.4090 C   0  0  0  0  0  0  0  0  0  0  0  0
  130.2930  127.3990   72.7410 C   0  0  0  0  0  0  0  0  0  0  0  0
  129.7780  128.5440   73.4040 O   0  0  0  0  0  0  0  0  0  0  0  0
  129.9300  129.7150   72.6170 C   0  0  0  0  0  0  0  0  0  0  0  0
  129.1730  129.5580   71.2820 C   0  0  0  0  0  0  0  0  0  0  0  0
  128.9170  127.0100   68.6130 C   0  0  0  0  0  0  0  0  0  0  0  0
  128.5590  126.8900   67.2740 C   0  0  0  0  0  0  0  0  0  0  0  0
  126.8890  128.3320   64.4640 C   0  0  0  0  0  0  0  0  0  0  0  0
  125.8760  129.0040   65.2810 C   0  0  0  0  0  0  0  0  0  0  0  0
  125.0760  129.5360   65.9270 N   0  0  0  0  0  0  0  0  0  0  0  0
  126.3510  126.2120   58.1170 C   0  0  0  0  0  0  0  0  0  0  0  0
  126.5680  125.0770   57.3400 C   0  0  0  0  0  0  0  0  0  0  0  0
  129.1994  122.9619   59.7332 H   0  0  0  0  0  0  0  0  0  0  0  0
  129.2181  121.3569   58.9267 H   0  0  0  0  0  0  0  0  0  0  0  0
  130.6950  122.3793   58.9267 H   0  0  0  0  0  0  0  0  0  0  0  0
  128.7478  124.0469   57.7801 H   0  0  0  0  0  0  0  0  0  0  0  0
  130.0002  123.1220   56.8860 H   0  0  0  0  0  0  0  0  0  0  0  0
  126.3930  122.6971   59.7794 H   0  0  0  0  0  0  0  0  0  0  0  0
  126.0230  124.7217   61.1702 H   0  0  0  0  0  0  0  0  0  0  0  0
  126.0310  126.9290   61.3540 H   0  0  0  0  0  0  0  0  0  0  0  0
  126.2752  130.0393   61.3793 H   0  0  0  0  0  0  0  0  0  0  0  0
  124.4846  129.8987   61.3019 H   0  0  0  0  0  0  0  0  0  0  0  0
  130.9916  125.7043   63.3885 H   0  0  0  0  0  0  0  0  0  0  0  0
  132.5810  124.6376   61.8176 H   0  0  0  0  0  0  0  0  0  0  0  0
  133.5820  123.5873   60.5017 H   0  0  0  0  0  0  0  0  0  0  0  0
  132.4841  122.6054   59.4165 H   0  0  0  0  0  0  0  0  0  0  0  0
  135.1002  123.9603   58.6118 H   0  0  0  0  0  0  0  0  0  0  0  0
  134.8064  122.1949   58.8065 H   0  0  0  0  0  0  0  0  0  0  0  0
  134.0319  125.1160   56.8577 H   0  0  0  0  0  0  0  0  0  0  0  0
  132.9432  124.2103   55.7454 H   0  0  0  0  0  0  0  0  0  0  0  0
  131.6956  125.6289   57.4034 H   0  0  0  0  0  0  0  0  0  0  0  0
  131.3418  123.8404   57.5440 H   0  0  0  0  0  0  0  0  0  0  0  0
  130.2533  126.0887   58.4838 H   0  0  0  0  0  0  0  0  0  0  0  0
  128.6718  127.1604   60.0560 H   0  0  0  0  0  0  0  0  0  0  0  0
  130.0201  126.9654   64.5398 H   0  0  0  0  0  0  0  0  0  0  0  0
  128.7193  130.1682   66.3712 H   0  0  0  0  0  0  0  0  0  0  0  0
  129.3443  130.3861   68.7605 H   0  0  0  0  0  0  0  0  0  0  0  0
  128.4962  126.9366   71.6343 H   0  0  0  0  0  0  0  0  0  0  0  0
  130.0577  126.3632   70.8798 H   0  0  0  0  0  0  0  0  0  0  0  0
  130.1602  126.5157   73.3830 H   0  0  0  0  0  0  0  0  0  0  0  0
  131.3624  127.5519   72.5339 H   0  0  0  0  0  0  0  0  0  0  0  0
  129.5244  130.5776   73.1660 H   0  0  0  0  0  0  0  0  0  0  0  0
  130.9985  129.8728   72.4088 H   0  0  0  0  0  0  0  0  0  0  0  0
  128.0962  129.4931   71.4973 H   0  0  0  0  0  0  0  0  0  0  0  0
  129.4213  130.4328   70.6631 H   0  0  0  0  0  0  0  0  0  0  0  0
  128.9646  126.1099   69.2435 H   0  0  0  0  0  0  0  0  0  0  0  0
  128.3361  125.8971   66.8563 H   0  0  0  0  0  0  0  0  0  0  0  0
  126.3412  127.2061   57.6461 H   0  0  0  0  0  0  0  0  0  0  0  0
  126.7287  125.1821   56.2569 H   0  0  0  0  0  0  0  0  0  0  0  0
  1  2  1  0
  2  3  1  0
  3  4  1  0
  4  5  2  0
  4  6  1  0
  6  7  2  0
  7  8  1  0
  8  9  2  0
  9 10  1  0
 10 11  1  0
 11 12  2  0
 11 13  1  0
 13 14  1  0
 14 15  1  0
 15 16  2  0
 16 17  1  0
 17 18  1  0
 18 19  2  0
 19 20  1  0
 20 21  2  0
 21 22  1  0
 22 23  1  0
 23 24  1  0
 24 25  1  0
 25 26  1  0
 26 27  1  0
 21 28  1  0
 28 29  2  0
 17 30  2  0
 30 31  1  0
 31 32  1  0
 32 33  2  0
 33 34  1  0
 34 35  2  0
 35 36  1  0
 36 37  1  0
 37 38  1  0
 38 39  1  0
 39 40  1  0
 40 41  1  0
 35 42  1  0
 42 43  2  0
 31 44  2  0
 44 45  1  0
 45 46  3  0
  9 47  1  0
 47 48  2  0
 48  6  1  0
 44 15  1  0
 29 18  1  0
 43 32  1  0
 27 22  1  0
 41 36  1  0
  1 49  1  0
  1 50  1  0
  1 51  1  0
  2 52  1  0
  2 53  1  0
  7 54  1  0
  8 55  1  0
 10 56  1  0
 13 57  1  0
 13 58  1  0
 19 59  1  0
 20 60  1  0
 23 61  1  0
 23 62  1  0
 24 63  1  0
 24 64  1  0
 26 65  1  0
 26 66  1  0
 27 67  1  0
 27 68  1  0
 28 69  1  0
 29 70  1  0
 30 71  1  0
 33 72  1  0
 34 73  1  0
 37 74  1  0
 37 75  1  0
 38 76  1  0
 38 77  1  0
 40 78  1  0
 40 79  1  0
 41 80  1  0
 41 81  1  0
 42 82  1  0
 43 83  1  0
 47 84  1  0
 48 85  1  0
M  END
>  <Binding energies>  (1) 
[-9.17]

>  <Ligand effiencies>  (1) 
[-0.18714285714285714]

>  <Interactions>  (1) 
["V-B:GLU:543:CG:9875, V-A:HIS:456:CE1:4064, V-B:GLU:543:CB:9874, V-B:TYR:539:C:9835, V-B:TYR:539:CD2:9842, V-A:GLU:543:CB:4901, V-B:TYR:539:CE2:9844, V-A:ILE:369:CD1:3234, V-B:TYR:539:CZ:9845, V-A:ASP:366:CA:3205, V-A:ILE:369:CB:3231, V-A:ASP:366:CG:3208, V-B:HIS:456:CE1:9037, V-A:ASP:366:CB:3207, V-A:ASP:366:C:3203, V-A:GLU:543:CG:4902, H-B:TYR:484:OH:9315, V-A:GLU:543:CD:4903, V-B:GLU:543:CD:9876, V-A:ILE:369:CG2:3232, V-B:PRO:540:CB:9853, V-B:PRO:540:CA:9851, V-A:LYS:547:CE:4945, V-B:HIS:456:CD2:9035, V-A:TYR:531:CZ:4789, H-A:LYS:547:NZ:4946, V-B:ASP:366:CB:8179, H-B:GLU:543:OE2:9878, V-B:ASP:366:CG:8180, H-B:ASP:366:OD2:8182, V-B:PRO:540:N:9852, V-B:MET:535:CE:9803, V-A:TYR:531:CE1:4787, H-B:TYR:539:OH:9846, H-B:ARG:545:NH2:9896, V-A:ILE:369:CG1:3233, H-B:TYR:539:N:9838, H-A:ASN:370:N:3239"]

$$$$
2b_Ghoteimi_2023
     RDKit          3D

 72 77  0  0  0  0  0  0  0  0999 V2000
  124.4690  130.0060   59.2500 N   0  0  0  0  0  0  0  0  0  0  0  0
  124.9430  129.7700   60.2790 C   0  0  0  0  0  0  0  0  0  0  0  0
  125.5460  129.4650   61.5800 C   0  0  0  0  0  0  0  0  0  0  0  0
  126.1550  128.2070   61.8140 C   0  0  0  0  0  0  0  0  0  0  0  0
  126.2350  127.1200   60.7930 C   0  0  0  0  0  0  0  0  0  0  0  0
  125.7800  125.8360   61.0950 C   0  0  0  0  0  0  0  0  0  0  0  0
  125.8540  124.8190   60.1470 C   0  0  0  0  0  0  0  0  0  0  0  0
  126.4020  125.0550   58.8770 C   0  0  0  0  0  0  0  0  0  0  0  0
  126.4740  124.0550   57.9050 N   0  0  0  0  0  0  0  0  0  0  0  0
  127.7470  123.3330   57.7110 C   0  0  0  0  0  0  0  0  0  0  0  0
  127.8070  122.5440   56.3860 C   0  0  0  0  0  0  0  0  0  0  0  0
  126.6990  121.6610   56.2920 O   0  0  0  0  0  0  0  0  0  0  0  0
  125.4650  122.3620   56.3320 C   0  0  0  0  0  0  0  0  0  0  0  0
  125.3440  123.1370   57.6600 C   0  0  0  0  0  0  0  0  0  0  0  0
  126.8590  126.3470   58.5850 C   0  0  0  0  0  0  0  0  0  0  0  0
  126.7820  127.3650   59.5300 C   0  0  0  0  0  0  0  0  0  0  0  0
  126.7210  127.9640   63.0710 C   0  0  0  0  0  0  0  0  0  0  0  0
  126.7110  128.9560   64.0560 C   0  0  0  0  0  0  0  0  0  0  0  0
  127.3290  128.7580   65.4040 C   0  0  0  0  0  0  0  0  0  0  0  0
  128.0040  129.8050   66.0400 C   0  0  0  0  0  0  0  0  0  0  0  0
  128.5680  129.6330   67.3010 C   0  0  0  0  0  0  0  0  0  0  0  0
  128.4880  128.4010   67.9700 C   0  0  0  0  0  0  0  0  0  0  0  0
  129.0230  128.2210   69.2500 N   0  0  0  0  0  0  0  0  0  0  0  0
  130.0740  129.1340   69.7440 C   0  0  0  0  0  0  0  0  0  0  0  0
  130.8320  128.5960   70.9770 C   0  0  0  0  0  0  0  0  0  0  0  0
  129.9120  128.2730   72.0090 O   0  0  0  0  0  0  0  0  0  0  0  0
  128.9970  127.2720   71.5950 C   0  0  0  0  0  0  0  0  0  0  0  0
  128.1860  127.7680   70.3780 C   0  0  0  0  0  0  0  0  0  0  0  0
  127.8040  127.3560   67.3310 C   0  0  0  0  0  0  0  0  0  0  0  0
  127.2380  127.5310   66.0710 C   0  0  0  0  0  0  0  0  0  0  0  0
  126.1280  130.1610   63.8290 N   0  0  0  0  0  0  0  0  0  0  0  0
  125.5440  130.4080   62.6330 C   0  0  0  0  0  0  0  0  0  0  0  0
  124.8270  132.0320   62.5110 S   0  0  0  0  0  0  0  0  0  0  0  0
  125.2900  132.7170   60.8920 C   0  0  0  0  0  0  0  0  0  0  0  0
  126.8070  132.7540   60.6960 C   0  0  0  0  0  0  0  0  0  0  0  0
  127.2700  133.2210   59.6540 O   0  0  0  0  0  0  0  0  0  0  0  0
  127.5370  132.2490   61.7140 N   0  0  0  0  0  0  0  0  0  0  0  0
  128.9200  132.1700   61.8000 C   0  0  0  0  0  0  0  0  0  0  0  0
  129.6830  131.3110   61.0110 C   0  0  0  0  0  0  0  0  0  0  0  0
  130.9850  131.5330   61.3960 C   0  0  0  0  0  0  0  0  0  0  0  0
  131.0040  132.4780   62.3660 O   0  0  0  0  0  0  0  0  0  0  0  0
  129.6880  132.8760   62.6130 N   0  0  0  0  0  0  0  0  0  0  0  0
  125.3597  125.6257   62.0895 H   0  0  0  0  0  0  0  0  0  0  0  0
  125.4775  123.8162   60.3972 H   0  0  0  0  0  0  0  0  0  0  0  0
  128.5680  124.0651   57.7186 H   0  0  0  0  0  0  0  0  0  0  0  0
  127.8345  122.6025   58.5288 H   0  0  0  0  0  0  0  0  0  0  0  0
  127.7830  123.2487   55.5417 H   0  0  0  0  0  0  0  0  0  0  0  0
  128.7373  121.9577   56.3585 H   0  0  0  0  0  0  0  0  0  0  0  0
  125.4203  123.0699   55.4913 H   0  0  0  0  0  0  0  0  0  0  0  0
  124.6369  121.6419   56.2563 H   0  0  0  0  0  0  0  0  0  0  0  0
  124.4147  123.7252   57.6377 H   0  0  0  0  0  0  0  0  0  0  0  0
  125.3451  122.3948   58.4718 H   0  0  0  0  0  0  0  0  0  0  0  0
  127.2851  126.5596   57.5934 H   0  0  0  0  0  0  0  0  0  0  0  0
  127.1542  128.3699   59.2817 H   0  0  0  0  0  0  0  0  0  0  0  0
  127.1767  126.9860   63.2852 H   0  0  0  0  0  0  0  0  0  0  0  0
  128.0905  130.7790   65.5362 H   0  0  0  0  0  0  0  0  0  0  0  0
  129.0852  130.4766   67.7816 H   0  0  0  0  0  0  0  0  0  0  0  0
  130.8001  129.2987   68.9342 H   0  0  0  0  0  0  0  0  0  0  0  0
  129.5738  130.0635   70.0536 H   0  0  0  0  0  0  0  0  0  0  0  0
  131.3939  127.6936   70.6942 H   0  0  0  0  0  0  0  0  0  0  0  0
  131.5258  129.3686   71.3401 H   0  0  0  0  0  0  0  0  0  0  0  0
  129.5519  126.3637   71.3172 H   0  0  0  0  0  0  0  0  0  0  0  0
  128.3069  127.0494   72.4222 H   0  0  0  0  0  0  0  0  0  0  0  0
  127.5476  126.9437   70.0272 H   0  0  0  0  0  0  0  0  0  0  0  0
  127.6028  128.6379   70.7142 H   0  0  0  0  0  0  0  0  0  0  0  0
  127.7133  126.3819   67.8339 H   0  0  0  0  0  0  0  0  0  0  0  0
  126.7113  126.6921   65.5925 H   0  0  0  0  0  0  0  0  0  0  0  0
  124.8453  132.0933   60.1025 H   0  0  0  0  0  0  0  0  0  0  0  0
  124.9163  133.7504   60.8417 H   0  0  0  0  0  0  0  0  0  0  0  0
  127.0340  131.9100   62.5210 H   0  0  0  0  0  0  0  0  0  0  0  0
  129.3222  130.6077   60.2460 H   0  0  0  0  0  0  0  0  0  0  0  0
  131.8685  131.0247   60.9825 H   0  0  0  0  0  0  0  0  0  0  0  0
  1  2  3  0
  2  3  1  0
  3  4  2  0
  4  5  1  0
  5  6  2  0
  6  7  1  0
  7  8  2  0
  8  9  1  0
  9 10  1  0
 10 11  1  0
 11 12  1  0
 12 13  1  0
 13 14  1  0
  8 15  1  0
 15 16  2  0
  4 17  1  0
 17 18  2  0
 18 19  1  0
 19 20  2  0
 20 21  1  0
 21 22  2  0
 22 23  1  0
 23 24  1  0
 24 25  1  0
 25 26  1  0
 26 27  1  0
 27 28  1  0
 22 29  1  0
 29 30  2  0
 18 31  1  0
 31 32  2  0
 32 33  1  0
 33 34  1  0
 34 35  1  0
 35 36  2  0
 35 37  1  0
 37 38  1  0
 38 39  1  0
 39 40  2  0
 40 41  1  0
 41 42  1  0
 32  3  1  0
 42 38  2  0
 16  5  1  0
 30 19  1  0
 14  9  1  0
 28 23  1  0
  6 43  1  0
  7 44  1  0
 10 45  1  0
 10 46  1  0
 11 47  1  0
 11 48  1  0
 13 49  1  0
 13 50  1  0
 14 51  1  0
 14 52  1  0
 15 53  1  0
 16 54  1  0
 17 55  1  0
 20 56  1  0
 21 57  1  0
 24 58  1  0
 24 59  1  0
 25 60  1  0
 25 61  1  0
 27 62  1  0
 27 63  1  0
 28 64  1  0
 28 65  1  0
 29 66  1  0
 30 67  1  0
 34 68  1  0
 34 69  1  0
 37 70  1  0
 39 71  1  0
 40 72  1  0
M  END
>  <Binding energies>  (1) 
[-9.37]

>  <Ligand effiencies>  (1) 
[-0.21790697674418602]

>  <Interactions>  (1) 
["V-B:GLU:543:CG:9875, V-A:HIS:456:CE1:4064, V-B:GLU:543:CB:9874, V-B:TYR:539:C:9835, V-A:GLU:543:CB:4901, V-B:TYR:539:CZ:9845, V-B:HIS:456:CE1:9037, V-A:GLU:543:CG:4902, H-B:TYR:484:OH:9315, V-B:GLU:543:CD:9876, V-B:PRO:540:CB:9853, V-B:PRO:540:CA:9851, V-A:GLY:544:C:4907, V-A:TYR:539:CE2:4871, V-A:GLU:543:C:4897, V-B:HIS:456:CD2:9035, H-A:ALA:541:N:4886, V-A:PRO:540:CA:4878, V-A:PRO:540:CB:4880, V-B:ASP:366:CB:8179, V-B:TYR:539:CE1:9843, V-B:ASP:366:CG:8180, V-B:PRO:540:CD:9855, V-B:PRO:540:N:9852, V-B:MET:535:CE:9803, V-B:ILE:538:CG2:9831, H-B:TYR:539:N:9838, V-B:TYR:539:CG:9840, V-B:TYR:539:CD1:9841"]

$$$$
2b_Grossjean_2025
     RDKit          3D

 42 43  0  0  0  0  0  0  0  0999 V2000
  126.4870  127.2170   70.1060 C   0  0  0  0  0  0  0  0  0  0  0  0
  127.6470  127.4830   70.8830 O   0  0  0  0  0  0  0  0  0  0  0  0
  128.7140  126.6440   70.8560 C   0  0  0  0  0  0  0  0  0  0  0  0
  129.1630  126.0810   71.8600 O   0  0  0  0  0  0  0  0  0  0  0  0
  129.2990  126.4730   69.4840 C   0  0  0  0  0  0  0  0  0  0  0  0
  129.6420  127.5700   68.6810 C   0  0  0  0  0  0  0  0  0  0  0  0
  130.1810  127.3760   67.4120 C   0  0  0  0  0  0  0  0  0  0  0  0
  130.3920  126.0880   66.9220 C   0  0  0  0  0  0  0  0  0  0  0  0
  130.9350  126.0060   65.6260 N   0  0  0  0  0  0  0  0  0  0  0  0
  132.1900  125.6970   65.2350 C   0  0  0  0  0  0  0  0  0  0  0  0
  133.1300  125.4440   65.9900 O   0  0  0  0  0  0  0  0  0  0  0  0
  132.4180  125.6890   63.7200 C   0  0  0  0  0  0  0  0  0  0  0  0
  133.6730  124.4770   63.1900 S   0  0  0  0  0  0  0  0  0  0  0  0
  133.0200  123.4600   61.8720 C   0  0  0  0  0  0  0  0  0  0  0  0
  133.6200  123.6060   60.6630 N   0  0  0  0  0  0  0  0  0  0  0  0
  133.1740  122.8720   59.6200 C   0  0  0  0  0  0  0  0  0  0  0  0
  133.8880  123.1020   58.3020 C   0  0  0  0  0  0  0  0  0  0  0  0
  132.1270  121.9620   59.7340 C   0  0  0  0  0  0  0  0  0  0  0  0
  131.4960  121.7890   60.9760 C   0  0  0  0  0  0  0  0  0  0  0  0
  130.3420  120.7760   61.0870 C   0  0  0  0  0  0  0  0  0  0  0  0
  129.1750  121.4190   61.1520 F   0  0  0  0  0  0  0  0  0  0  0  0
  130.3340  119.9710   60.0230 F   0  0  0  0  0  0  0  0  0  0  0  0
  130.4350  120.0030   62.1720 F   0  0  0  0  0  0  0  0  0  0  0  0
  131.9500  122.5580   62.0790 C   0  0  0  0  0  0  0  0  0  0  0  0
  131.3240  122.4230   63.3980 C   0  0  0  0  0  0  0  0  0  0  0  0
  130.8300  122.3160   64.4390 N   0  0  0  0  0  0  0  0  0  0  0  0
  130.0440  124.9850   67.7150 C   0  0  0  0  0  0  0  0  0  0  0  0
  129.5050  125.1800   68.9830 C   0  0  0  0  0  0  0  0  0  0  0  0
  125.6351  127.0217   70.7739 H   0  0  0  0  0  0  0  0  0  0  0  0
  126.2633  128.0872   69.4713 H   0  0  0  0  0  0  0  0  0  0  0  0
  126.6648  126.3363   69.4713 H   0  0  0  0  0  0  0  0  0  0  0  0
  129.4840  128.5918   69.0565 H   0  0  0  0  0  0  0  0  0  0  0  0
  130.4424  128.2457   66.7913 H   0  0  0  0  0  0  0  0  0  0  0  0
  130.2930  126.2650   64.8910 H   0  0  0  0  0  0  0  0  0  0  0  0
  131.4664  125.4466   63.2243 H   0  0  0  0  0  0  0  0  0  0  0  0
  132.7872  126.6864   63.4393 H   0  0  0  0  0  0  0  0  0  0  0  0
  134.9186  123.4340   58.4963 H   0  0  0  0  0  0  0  0  0  0  0  0
  133.9071  122.1645   57.7268 H   0  0  0  0  0  0  0  0  0  0  0  0
  133.3563  123.8743   57.7268 H   0  0  0  0  0  0  0  0  0  0  0  0
  131.7969  121.3835   58.8586 H   0  0  0  0  0  0  0  0  0  0  0  0
  130.1973  123.9645   67.3342 H   0  0  0  0  0  0  0  0  0  0  0  0
  129.2374  124.3092   69.5996 H   0  0  0  0  0  0  0  0  0  0  0  0
  1  2  1  0
  2  3  1  0
  3  4  2  0
  3  5  1  0
  5  6  2  0
  6  7  1  0
  7  8  2  0
  8  9  1  0
  9 10  1  0
 10 11  2  0
 10 12  1  0
 12 13  1  0
 13 14  1  0
 14 15  2  0
 15 16  1  0
 16 17  1  0
 16 18  2  0
 18 19  1  0
 19 20  1  0
 20 21  1  0
 20 22  1  0
 20 23  1  0
 19 24  2  0
 24 25  1  0
 25 26  3  0
  8 27  1  0
 27 28  2  0
 28  5  1  0
 24 14  1  0
  1 29  1  0
  1 30  1  0
  1 31  1  0
  6 32  1  0
  7 33  1  0
  9 34  1  0
 12 35  1  0
 12 36  1  0
 17 37  1  0
 17 38  1  0
 17 39  1  0
 18 40  1  0
 27 41  1  0
 28 42  1  0
M  END
>  <Binding energies>  (1) 
[-7.05]

>  <Ligand effiencies>  (1) 
[-0.24310344827586206]

>  <Interactions>  (1) 
["V-B:PRO:540:C:9849, V-B:GLU:543:CG:9875, V-A:HIS:456:CE1:4064, H-B:LYS:547:NZ:9919, V-B:ALA:541:CB:9860, V-B:GLU:543:CB:9874, V-B:ALA:541:CA:9858, V-A:TRP:381:CH2:3367, V-B:TYR:539:C:9835, V-B:TYR:539:CD2:9842, V-A:LEU:475:CD2:4254, V-B:TYR:539:CE2:9844, V-A:ILE:369:CD1:3234, V-A:ASP:366:CA:3205, V-A:ILE:369:CB:3231, V-B:HIS:456:CE1:9037, V-A:ASP:366:CB:3207, V-B:GLU:543:C:9870, V-A:TYR:484:CE1:4340, V-B:GLU:543:CA:9872, V-A:GLU:543:CD:4903, V-A:ILE:369:CG2:3232, H-A:TYR:484:OH:4343, H-A:ARG:545:NE:4919, H-A:GLY:454:N:4045, V-A:ARG:545:CZ:4921, H-A:HIS:456:NE2:4065, V-A:LEU:475:CD1:4253, H-A:GLU:543:OE1:4904, V-B:HIS:456:CD2:9035, V-B:HIS:456:CG:9033, V-B:GLY:544:C:9880, H-B:GLU:543:OE2:9878, V-A:ILE:369:CG1:3233, V-A:LEU:475:CG:4252, V-B:ARG:545:CA:9887"]

$$$$
2c_Ghoteimi_2023
     RDKit          3D

 72 77  0  0  0  0  0  0  0  0999 V2000
  124.6680  130.2290   59.2130 N   0  0  0  0  0  0  0  0  0  0  0  0
  125.0970  129.9460   60.2490 C   0  0  0  0  0  0  0  0  0  0  0  0
  125.6420  129.5820   61.5600 C   0  0  0  0  0  0  0  0  0  0  0  0
  126.1240  128.2720   61.8020 C   0  0  0  0  0  0  0  0  0  0  0  0
  126.1180  127.1810   60.7820 C   0  0  0  0  0  0  0  0  0  0  0  0
  126.4530  127.4580   59.4550 C   0  0  0  0  0  0  0  0  0  0  0  0
  126.4540  126.4470   58.4990 C   0  0  0  0  0  0  0  0  0  0  0  0
  126.1050  125.1300   58.8400 C   0  0  0  0  0  0  0  0  0  0  0  0
  126.1190  124.0960   57.9010 N   0  0  0  0  0  0  0  0  0  0  0  0
  127.2960  123.2080   57.8220 C   0  0  0  0  0  0  0  0  0  0  0  0
  127.3490  122.3820   56.5190 C   0  0  0  0  0  0  0  0  0  0  0  0
  126.1470  121.6440   56.3610 O   0  0  0  0  0  0  0  0  0  0  0  0
  125.0140  122.4960   56.2920 C   0  0  0  0  0  0  0  0  0  0  0  0
  124.8990  123.3260   57.5880 C   0  0  0  0  0  0  0  0  0  0  0  0
  125.7670  124.8620   60.1740 C   0  0  0  0  0  0  0  0  0  0  0  0
  125.7680  125.8740   61.1300 C   0  0  0  0  0  0  0  0  0  0  0  0
  126.6390  127.9750   63.0710 C   0  0  0  0  0  0  0  0  0  0  0  0
  126.6970  128.9610   64.0610 C   0  0  0  0  0  0  0  0  0  0  0  0
  127.2530  128.6990   65.4240 C   0  0  0  0  0  0  0  0  0  0  0  0
  128.2350  129.5320   65.9670 C   0  0  0  0  0  0  0  0  0  0  0  0
  128.7530  129.2960   67.2380 C   0  0  0  0  0  0  0  0  0  0  0  0
  128.3140  128.2090   68.0100 C   0  0  0  0  0  0  0  0  0  0  0  0
  128.8050  127.9730   69.2980 N   0  0  0  0  0  0  0  0  0  0  0  0
  128.8780  126.5910   69.8160 C   0  0  0  0  0  0  0  0  0  0  0  0
  129.0640  126.5120   71.3460 C   0  0  0  0  0  0  0  0  0  0  0  0
  130.2050  127.2580   71.7360 O   0  0  0  0  0  0  0  0  0  0  0  0
  130.0750  128.6270   71.3870 C   0  0  0  0  0  0  0  0  0  0  0  0
  129.9150  128.7710   69.8590 C   0  0  0  0  0  0  0  0  0  0  0  0
  127.3190  127.3840   67.4670 C   0  0  0  0  0  0  0  0  0  0  0  0
  126.8010  127.6210   66.1960 C   0  0  0  0  0  0  0  0  0  0  0  0
  126.2360  130.2160   63.8250 N   0  0  0  0  0  0  0  0  0  0  0  0
  125.7050  130.5190   62.6170 C   0  0  0  0  0  0  0  0  0  0  0  0
  125.1430  132.2010   62.4880 S   0  0  0  0  0  0  0  0  0  0  0  0
  126.3440  133.2470   63.3660 C   0  0  0  0  0  0  0  0  0  0  0  0
  127.7680  132.7000   63.2570 C   0  0  0  0  0  0  0  0  0  0  0  0
  128.4300  132.5280   64.2820 O   0  0  0  0  0  0  0  0  0  0  0  0
  128.2010  132.4460   62.0030 N   0  0  0  0  0  0  0  0  0  0  0  0
  129.4370  131.9340   61.6400 C   0  0  0  0  0  0  0  0  0  0  0  0
  130.6240  132.4600   61.8520 N   0  0  0  0  0  0  0  0  0  0  0  0
  131.5860  131.6960   61.3760 C   0  0  0  0  0  0  0  0  0  0  0  0
  131.1850  130.5160   60.7570 C   0  0  0  0  0  0  0  0  0  0  0  0
  129.4500  130.4110   60.8090 S   0  0  0  0  0  0  0  0  0  0  0  0
  126.7185  128.4847   59.1628 H   0  0  0  0  0  0  0  0  0  0  0  0
  126.7321  126.6826   57.4612 H   0  0  0  0  0  0  0  0  0  0  0  0
  128.2043  123.8256   57.8815 H   0  0  0  0  0  0  0  0  0  0  0  0
  127.2246  122.4960   58.6574 H   0  0  0  0  0  0  0  0  0  0  0  0
  127.4746  123.0608   55.6626 H   0  0  0  0  0  0  0  0  0  0  0  0
  128.1969  121.6831   56.5696 H   0  0  0  0  0  0  0  0  0  0  0  0
  125.1202  123.1747   55.4328 H   0  0  0  0  0  0  0  0  0  0  0  0
  124.1080  121.8836   56.1735 H   0  0  0  0  0  0  0  0  0  0  0  0
  124.0609  124.0300   57.4781 H   0  0  0  0  0  0  0  0  0  0  0  0
  124.7410  122.6175   58.4145 H   0  0  0  0  0  0  0  0  0  0  0  0
  125.4971  123.8374   60.4695 H   0  0  0  0  0  0  0  0  0  0  0  0
  125.4907  125.6424   62.1690 H   0  0  0  0  0  0  0  0  0  0  0  0
  127.0001  126.9593   63.2899 H   0  0  0  0  0  0  0  0  0  0  0  0
  128.6044  130.3870   65.3817 H   0  0  0  0  0  0  0  0  0  0  0  0
  129.5192  129.9729   67.6438 H   0  0  0  0  0  0  0  0  0  0  0  0
  127.9451  126.0713   69.5521 H   0  0  0  0  0  0  0  0  0  0  0  0
  129.7624  126.1225   69.3596 H   0  0  0  0  0  0  0  0  0  0  0  0
  128.1729  126.9232   71.8428 H   0  0  0  0  0  0  0  0  0  0  0  0
  129.2032  125.4608   71.6385 H   0  0  0  0  0  0  0  0  0  0  0  0
  129.1900  129.0476   71.8869 H   0  0  0  0  0  0  0  0  0  0  0  0
  130.9777  129.1678   71.7074 H   0  0  0  0  0  0  0  0  0  0  0  0
  129.7318  129.8307   69.6278 H   0  0  0  0  0  0  0  0  0  0  0  0
  130.8426  128.3949   69.4028 H   0  0  0  0  0  0  0  0  0  0  0  0
  126.9408  126.5347   68.0550 H   0  0  0  0  0  0  0  0  0  0  0  0
  126.0262  126.9524   65.7928 H   0  0  0  0  0  0  0  0  0  0  0  0
  126.3178  134.2579   62.9330 H   0  0  0  0  0  0  0  0  0  0  0  0
  126.0667  133.2626   64.4304 H   0  0  0  0  0  0  0  0  0  0  0  0
  127.5580  132.6200   61.2430 H   0  0  0  0  0  0  0  0  0  0  0  0
  132.6464  131.9752   61.4630 H   0  0  0  0  0  0  0  0  0  0  0  0
  131.8570  129.7701   60.3074 H   0  0  0  0  0  0  0  0  0  0  0  0
  1  2  3  0
  2  3  1  0
  3  4  2  0
  4  5  1  0
  5  6  2  0
  6  7  1  0
  7  8  2  0
  8  9  1  0
  9 10  1  0
 10 11  1  0
 11 12  1  0
 12 13  1  0
 13 14  1  0
  8 15  1  0
 15 16  2  0
  4 17  1  0
 17 18  2  0
 18 19  1  0
 19 20  2  0
 20 21  1  0
 21 22  2  0
 22 23  1  0
 23 24  1  0
 24 25  1  0
 25 26  1  0
 26 27  1  0
 27 28  1  0
 22 29  1  0
 29 30  2  0
 18 31  1  0
 31 32  2  0
 32 33  1  0
 33 34  1  0
 34 35  1  0
 35 36  2  0
 35 37  1  0
 37 38  1  0
 38 39  2  0
 39 40  1  0
 40 41  2  0
 41 42  1  0
 32  3  1  0
 42 38  1  0
 16  5  1  0
 30 19  1  0
 14  9  1  0
 28 23  1  0
  6 43  1  0
  7 44  1  0
 10 45  1  0
 10 46  1  0
 11 47  1  0
 11 48  1  0
 13 49  1  0
 13 50  1  0
 14 51  1  0
 14 52  1  0
 15 53  1  0
 16 54  1  0
 17 55  1  0
 20 56  1  0
 21 57  1  0
 24 58  1  0
 24 59  1  0
 25 60  1  0
 25 61  1  0
 27 62  1  0
 27 63  1  0
 28 64  1  0
 28 65  1  0
 29 66  1  0
 30 67  1  0
 34 68  1  0
 34 69  1  0
 37 70  1  0
 40 71  1  0
 41 72  1  0
M  END
>  <Binding energies>  (1) 
[-9.75]

>  <Ligand effiencies>  (1) 
[-0.22674418604651161]

>  <Interactions>  (1) 
["V-A:HIS:456:CE1:4064, V-B:GLU:543:CB:9874, V-B:TYR:539:C:9835, V-A:GLU:543:CB:4901, V-B:HIS:456:CE1:9037, V-A:GLU:543:CG:4902, V-B:GLU:543:C:9870, H-B:TYR:484:OH:9315, V-A:GLU:543:CD:4903, V-B:GLU:543:CD:9876, V-B:PRO:540:CB:9853, V-B:PRO:540:CA:9851, V-A:GLU:543:C:4897, H-A:ALA:541:N:4886, V-A:PRO:540:CA:4878, V-A:ALA:541:CB:4887, V-A:PRO:540:CB:4880, V-B:ASP:366:CG:8180, V-B:LEU:475:CD2:9226, V-B:LEU:363:CD1:8156, V-B:PRO:540:CD:9855, V-B:PRO:540:N:9852, V-B:MET:535:CE:9803, V-B:ILE:538:CG2:9831, H-B:TYR:539:N:9838, V-B:TYR:539:CA:9837, V-B:TYR:539:CD1:9841, V-B:LEU:475:CD1:9225"]

$$$$
2c_Grossjean_2025
     RDKit          3D

 40 41  0  0  0  0  0  0  0  0999 V2000
  127.3730  127.2530   70.5680 C   0  0  0  0  0  0  0  0  0  0  0  0
  126.9450  127.1750   69.2130 O   0  0  0  0  0  0  0  0  0  0  0  0
  127.8860  126.9870   68.2190 C   0  0  0  0  0  0  0  0  0  0  0  0
  128.9550  126.1460   68.5250 C   0  0  0  0  0  0  0  0  0  0  0  0
  129.9550  125.8960   67.5880 C   0  0  0  0  0  0  0  0  0  0  0  0
  129.8960  126.5020   66.3240 C   0  0  0  0  0  0  0  0  0  0  0  0
  130.8470  126.2960   65.3080 N   0  0  0  0  0  0  0  0  0  0  0  0
  131.1620  125.1490   64.6690 C   0  0  0  0  0  0  0  0  0  0  0  0
  130.6780  124.0460   64.9290 O   0  0  0  0  0  0  0  0  0  0  0  0
  132.2340  125.2910   63.5770 C   0  0  0  0  0  0  0  0  0  0  0  0
  133.3210  123.8400   63.3510 S   0  0  0  0  0  0  0  0  0  0  0  0
  132.7230  122.8570   61.9810 C   0  0  0  0  0  0  0  0  0  0  0  0
  133.3020  123.1100   60.7790 N   0  0  0  0  0  0  0  0  0  0  0  0
  132.8940  122.4120   59.6980 C   0  0  0  0  0  0  0  0  0  0  0  0
  133.5760  122.7650   58.3900 C   0  0  0  0  0  0  0  0  0  0  0  0
  131.9050  121.4330   59.7650 C   0  0  0  0  0  0  0  0  0  0  0  0
  131.2990  121.1490   60.9970 C   0  0  0  0  0  0  0  0  0  0  0  0
  130.2090  120.0610   61.0560 C   0  0  0  0  0  0  0  0  0  0  0  0
  129.0020  120.6270   61.0970 F   0  0  0  0  0  0  0  0  0  0  0  0
  130.2840  119.2780   59.9790 F   0  0  0  0  0  0  0  0  0  0  0  0
  130.3210  119.2770   62.1310 F   0  0  0  0  0  0  0  0  0  0  0  0
  131.7140  121.8780   62.1400 C   0  0  0  0  0  0  0  0  0  0  0  0
  131.1130  121.6250   63.4540 C   0  0  0  0  0  0  0  0  0  0  0  0
  130.6390  121.4240   64.4900 N   0  0  0  0  0  0  0  0  0  0  0  0
  128.8200  127.3320   66.0070 C   0  0  0  0  0  0  0  0  0  0  0  0
  127.8230  127.5790   66.9470 C   0  0  0  0  0  0  0  0  0  0  0  0
  126.5118  127.0961   71.2341 H   0  0  0  0  0  0  0  0  0  0  0  0
  128.1300  126.4780   70.7586 H   0  0  0  0  0  0  0  0  0  0  0  0
  127.8080  128.2452   70.7586 H   0  0  0  0  0  0  0  0  0  0  0  0
  129.0094  125.6746   69.5174 H   0  0  0  0  0  0  0  0  0  0  0  0
  130.7895  125.2246   67.8387 H   0  0  0  0  0  0  0  0  0  0  0  0
  131.4030  127.1080   65.0800 H   0  0  0  0  0  0  0  0  0  0  0  0
  131.7224  125.4835   62.6224 H   0  0  0  0  0  0  0  0  0  0  0  0
  132.8895  126.1126   63.9014 H   0  0  0  0  0  0  0  0  0  0  0  0
  134.5351  123.2614   58.5989 H   0  0  0  0  0  0  0  0  0  0  0  0
  133.7566  121.8472   57.8113 H   0  0  0  0  0  0  0  0  0  0  0  0
  132.9309  123.4424   57.8113 H   0  0  0  0  0  0  0  0  0  0  0  0
  131.6022  120.8875   58.8590 H   0  0  0  0  0  0  0  0  0  0  0  0
  128.7592  127.7931   65.0102 H   0  0  0  0  0  0  0  0  0  0  0  0
  126.9821  128.2408   66.6922 H   0  0  0  0  0  0  0  0  0  0  0  0
  1  2  1  0
  2  3  1  0
  3  4  2  0
  4  5  1  0
  5  6  2  0
  6  7  1  0
  7  8  1  0
  8  9  2  0
  8 10  1  0
 10 11  1  0
 11 12  1  0
 12 13  2  0
 13 14  1  0
 14 15  1  0
 14 16  2  0
 16 17  1  0
 17 18  1  0
 18 19  1  0
 18 20  1  0
 18 21  1  0
 17 22  2  0
 22 23  1  0
 23 24  3  0
  6 25  1  0
 25 26  2  0
 26  3  1  0
 22 12  1  0
  1 27  1  0
  1 28  1  0
  1 29  1  0
  4 30  1  0
  5 31  1  0
  7 32  1  0
 10 33  1  0
 10 34  1  0
 15 35  1  0
 15 36  1  0
 15 37  1  0
 16 38  1  0
 25 39  1  0
 26 40  1  0
M  END
>  <Binding energies>  (1) 
[-6.44]

>  <Ligand effiencies>  (1) 
[-0.23851851851851855]

>  <Interactions>  (1) 
["V-B:PRO:540:C:9849, V-A:TRP:381:CZ3:3366, V-A:HIS:456:CE1:4064, V-A:TRP:381:CZ2:3365, V-B:ALA:541:CB:9860, V-B:GLU:543:CB:9874, V-B:ALA:541:CA:9858, V-A:TRP:381:CH2:3367, V-B:TYR:539:C:9835, V-B:TYR:539:CD2:9842, V-A:LEU:475:CD2:4254, V-A:PRO:482:CB:4321, V-B:TYR:539:CE2:9844, V-A:ILE:369:CD1:3234, V-A:ILE:369:CB:3231, V-B:HIS:456:CE1:9037, V-B:GLU:543:C:9870, V-A:GLU:543:CD:4903, V-B:GLU:543:CD:9876, V-A:ILE:369:CG2:3232, H-A:TYR:484:OH:4343, H-A:GLY:454:N:4045, V-B:PRO:540:CA:9851, H-A:GLU:543:OE2:4905, V-A:LEU:475:CD1:4253, H-A:GLU:543:OE1:4904, V-B:HIS:456:CD2:9035, V-B:GLY:544:C:9880, V-B:TYR:539:CG:9840, V-A:LEU:475:CG:4252"]

$$$$
2d_Ghoteimi_2023
     RDKit          3D

 68 72  0  0  0  0  0  0  0  0999 V2000
  130.0350  131.2580   61.8730 C   0  0  0  0  0  0  0  0  0  0  0  0
  129.8750  132.5080   62.5260 O   0  0  0  0  0  0  0  0  0  0  0  0
  128.7840  132.7520   63.2820 C   0  0  0  0  0  0  0  0  0  0  0  0
  128.6730  132.4940   64.4840 O   0  0  0  0  0  0  0  0  0  0  0  0
  127.6690  133.4100   62.4550 C   0  0  0  0  0  0  0  0  0  0  0  0
  126.1010  132.4870   62.6060 S   0  0  0  0  0  0  0  0  0  0  0  0
  126.4850  130.7530   62.7550 C   0  0  0  0  0  0  0  0  0  0  0  0
  126.8950  130.4010   63.9970 N   0  0  0  0  0  0  0  0  0  0  0  0
  127.2270  129.1100   64.2530 C   0  0  0  0  0  0  0  0  0  0  0  0
  127.6880  128.8000   65.6410 C   0  0  0  0  0  0  0  0  0  0  0  0
  128.3600  129.7640   66.4000 C   0  0  0  0  0  0  0  0  0  0  0  0
  128.7920  129.4820   67.6940 C   0  0  0  0  0  0  0  0  0  0  0  0
  128.5570  128.2290   68.2790 C   0  0  0  0  0  0  0  0  0  0  0  0
  129.0000  127.9230   69.5710 N   0  0  0  0  0  0  0  0  0  0  0  0
  129.5100  128.9690   70.4800 C   0  0  0  0  0  0  0  0  0  0  0  0
  130.2870  128.4100   71.6900 C   0  0  0  0  0  0  0  0  0  0  0  0
  129.4810  127.4790   72.3940 O   0  0  0  0  0  0  0  0  0  0  0  0
  129.1120  126.3830   71.5730 C   0  0  0  0  0  0  0  0  0  0  0  0
  128.3050  126.8810   70.3550 C   0  0  0  0  0  0  0  0  0  0  0  0
  127.8950  127.2620   67.5090 C   0  0  0  0  0  0  0  0  0  0  0  0
  127.4650  127.5430   66.2150 C   0  0  0  0  0  0  0  0  0  0  0  0
  127.1500  128.1350   63.2560 C   0  0  0  0  0  0  0  0  0  0  0  0
  126.6970  128.4660   61.9730 C   0  0  0  0  0  0  0  0  0  0  0  0
  126.6130  127.3660   60.9650 C   0  0  0  0  0  0  0  0  0  0  0  0
  126.1300  126.1100   61.3360 C   0  0  0  0  0  0  0  0  0  0  0  0
  126.0360  125.0820   60.4020 C   0  0  0  0  0  0  0  0  0  0  0  0
  126.4260  125.2820   59.0680 C   0  0  0  0  0  0  0  0  0  0  0  0
  126.3290  124.2680   58.1100 N   0  0  0  0  0  0  0  0  0  0  0  0
  125.0620  123.5460   57.8820 C   0  0  0  0  0  0  0  0  0  0  0  0
  125.0450  122.7340   56.5690 C   0  0  0  0  0  0  0  0  0  0  0  0
  126.1510  121.8440   56.5340 O   0  0  0  0  0  0  0  0  0  0  0  0
  127.3860  122.5400   56.6070 C   0  0  0  0  0  0  0  0  0  0  0  0
  127.4630  123.3430   57.9230 C   0  0  0  0  0  0  0  0  0  0  0  0
  126.8920  126.5520   58.7010 C   0  0  0  0  0  0  0  0  0  0  0  0
  126.9850  127.5800   59.6350 C   0  0  0  0  0  0  0  0  0  0  0  0
  126.3460  129.8130   61.7080 C   0  0  0  0  0  0  0  0  0  0  0  0
  125.8490  130.2060   60.3860 C   0  0  0  0  0  0  0  0  0  0  0  0
  125.4560  130.5110   59.3400 N   0  0  0  0  0  0  0  0  0  0  0  0
  130.1369  130.4618   62.6251 H   0  0  0  0  0  0  0  0  0  0  0  0
  129.1552  131.0577   61.2439 H   0  0  0  0  0  0  0  0  0  0  0  0
  130.9369  131.2857   61.2439 H   0  0  0  0  0  0  0  0  0  0  0  0
  127.5157  134.4385   62.8138 H   0  0  0  0  0  0  0  0  0  0  0  0
  127.9730  133.4087   61.3978 H   0  0  0  0  0  0  0  0  0  0  0  0
  128.5499  130.7582   65.9692 H   0  0  0  0  0  0  0  0  0  0  0  0
  129.3262  130.2546   68.2664 H   0  0  0  0  0  0  0  0  0  0  0  0
  130.1813  129.6281   69.9100 H   0  0  0  0  0  0  0  0  0  0  0  0
  128.6358  129.5053   70.8776 H   0  0  0  0  0  0  0  0  0  0  0  0
  131.1999  127.9081   71.3368 H   0  0  0  0  0  0  0  0  0  0  0  0
  130.5542  129.2385   72.3625 H   0  0  0  0  0  0  0  0  0  0  0  0
  130.0193  125.8690   71.2228 H   0  0  0  0  0  0  0  0  0  0  0  0
  128.4904  125.6886   72.1573 H   0  0  0  0  0  0  0  0  0  0  0  0
  128.1067  126.0236   69.6951 H   0  0  0  0  0  0  0  0  0  0  0  0
  127.3802  127.3326   70.7435 H   0  0  0  0  0  0  0  0  0  0  0  0
  127.7123  126.2643   67.9347 H   0  0  0  0  0  0  0  0  0  0  0  0
  126.9431  126.7669   65.6360 H   0  0  0  0  0  0  0  0  0  0  0  0
  127.4473  127.0999   63.4801 H   0  0  0  0  0  0  0  0  0  0  0  0
  125.8207  125.9308   62.3763 H   0  0  0  0  0  0  0  0  0  0  0  0
  125.6510  124.0997   60.7132 H   0  0  0  0  0  0  0  0  0  0  0  0
  124.8993  122.8542   58.7216 H   0  0  0  0  0  0  0  0  0  0  0  0
  124.2671  124.3025   57.8055 H   0  0  0  0  0  0  0  0  0  0  0  0
  124.1107  122.1565   56.5099 H   0  0  0  0  0  0  0  0  0  0  0  0
  125.1108  123.4254   55.7160 H   0  0  0  0  0  0  0  0  0  0  0  0
  128.2142  121.8168   56.5726 H   0  0  0  0  0  0  0  0  0  0  0  0
  127.4603  123.2334   55.7563 H   0  0  0  0  0  0  0  0  0  0  0  0
  127.4776  122.6342   58.7640 H   0  0  0  0  0  0  0  0  0  0  0  0
  128.3771  123.9533   57.8790 H   0  0  0  0  0  0  0  0  0  0  0  0
  127.1889  126.7393   57.6585 H   0  0  0  0  0  0  0  0  0  0  0  0
  127.3541  128.5684   59.3238 H   0  0  0  0  0  0  0  0  0  0  0  0
  1  2  1  0
  2  3  1  0
  3  4  2  0
  3  5  1  0
  5  6  1  0
  6  7  1  0
  7  8  2  0
  8  9  1  0
  9 10  1  0
 10 11  2  0
 11 12  1  0
 12 13  2  0
 13 14  1  0
 14 15  1  0
 15 16  1  0
 16 17  1  0
 17 18  1  0
 18 19  1  0
 13 20  1  0
 20 21  2  0
  9 22  2  0
 22 23  1  0
 23 24  1  0
 24 25  2  0
 25 26  1  0
 26 27  2  0
 27 28  1  0
 28 29  1  0
 29 30  1  0
 30 31  1  0
 31 32  1  0
 32 33  1  0
 27 34  1  0
 34 35  2  0
 23 36  2  0
 36 37  1  0
 37 38  3  0
 36  7  1  0
 21 10  1  0
 35 24  1  0
 19 14  1  0
 33 28  1  0
  1 39  1  0
  1 40  1  0
  1 41  1  0
  5 42  1  0
  5 43  1  0
 11 44  1  0
 12 45  1  0
 15 46  1  0
 15 47  1  0
 16 48  1  0
 16 49  1  0
 18 50  1  0
 18 51  1  0
 19 52  1  0
 19 53  1  0
 20 54  1  0
 21 55  1  0
 22 56  1  0
 25 57  1  0
 26 58  1  0
 29 59  1  0
 29 60  1  0
 30 61  1  0
 30 62  1  0
 32 63  1  0
 32 64  1  0
 33 65  1  0
 33 66  1  0
 34 67  1  0
 35 68  1  0
M  END
>  <Binding energies>  (1) 
[-8.85]

>  <Ligand effiencies>  (1) 
[-0.23289473684210527]

>  <Interactions>  (1) 
["V-B:GLU:543:CG:9875, V-A:HIS:456:CE1:4064, H-B:LYS:547:NZ:9919, V-B:GLU:543:CB:9874, V-B:TYR:539:C:9835, V-A:GLU:543:CB:4901, V-B:HIS:456:CE1:9037, V-A:GLU:543:CG:4902, V-B:GLU:543:C:9870, H-B:TYR:484:OH:9315, V-A:GLU:543:CD:4903, V-B:GLU:543:CD:9876, V-B:PRO:540:CB:9853, V-B:PRO:540:CA:9851, V-B:HIS:456:CD2:9035, H-A:ALA:541:N:4886, V-A:ALA:541:CB:4887, V-B:ASP:366:CG:8180, V-B:LEU:475:CD2:9226, V-B:LEU:363:CD1:8156, V-B:PRO:540:CD:9855, V-B:PRO:540:N:9852, V-B:MET:535:CE:9803, H-B:TYR:539:N:9838"]

$$$$
2d_Grossjean_2025
     RDKit          3D

 36 37  0  0  0  0  0  0  0  0999 V2000
  133.6220  122.8030   58.0060 C   0  0  0  0  0  0  0  0  0  0  0  0
  132.9120  122.6980   59.3420 C   0  0  0  0  0  0  0  0  0  0  0  0
  132.0010  121.6790   59.6060 C   0  0  0  0  0  0  0  0  0  0  0  0
  131.3740  121.6210   60.8600 C   0  0  0  0  0  0  0  0  0  0  0  0
  130.3760  120.4810   61.1370 C   0  0  0  0  0  0  0  0  0  0  0  0
  129.1280  120.9510   61.1180 F   0  0  0  0  0  0  0  0  0  0  0  0
  130.4940  119.5330   60.2050 F   0  0  0  0  0  0  0  0  0  0  0  0
  130.5690  119.9020   62.3240 F   0  0  0  0  0  0  0  0  0  0  0  0
  131.6880  122.6160   61.8210 C   0  0  0  0  0  0  0  0  0  0  0  0
  131.0960  122.5740   63.1600 C   0  0  0  0  0  0  0  0  0  0  0  0
  130.6290  122.5390   64.2190 N   0  0  0  0  0  0  0  0  0  0  0  0
  132.6070  123.6280   61.4550 C   0  0  0  0  0  0  0  0  0  0  0  0
  133.0890  124.9690   62.5260 S   0  0  0  0  0  0  0  0  0  0  0  0
  133.4320  124.2990   64.1870 C   0  0  0  0  0  0  0  0  0  0  0  0
  132.6740  125.0330   65.2970 C   0  0  0  0  0  0  0  0  0  0  0  0
  133.2970  125.4390   66.2790 O   0  0  0  0  0  0  0  0  0  0  0  0
  131.3420  125.1510   65.1150 N   0  0  0  0  0  0  0  0  0  0  0  0
  130.3840  125.7670   65.9420 C   0  0  0  0  0  0  0  0  0  0  0  0
  130.2300  125.2180   67.2170 C   0  0  0  0  0  0  0  0  0  0  0  0
  129.3020  125.7550   68.1050 C   0  0  0  0  0  0  0  0  0  0  0  0
  128.5190  126.8390   67.7130 C   0  0  0  0  0  0  0  0  0  0  0  0
  128.6550  127.3870   66.4400 C   0  0  0  0  0  0  0  0  0  0  0  0
  129.5820  126.8530   65.5510 C   0  0  0  0  0  0  0  0  0  0  0  0
  133.2190  123.6560   60.2470 N   0  0  0  0  0  0  0  0  0  0  0  0
  134.6974  122.9620   58.1738 H   0  0  0  0  0  0  0  0  0  0  0  0
  133.4732  121.8731   57.4376 H   0  0  0  0  0  0  0  0  0  0  0  0
  133.2104  123.6500   57.4376 H   0  0  0  0  0  0  0  0  0  0  0  0
  131.7744  120.9252   58.8376 H   0  0  0  0  0  0  0  0  0  0  0  0
  133.1392  123.2388   64.2046 H   0  0  0  0  0  0  0  0  0  0  0  0
  134.5069  124.4316   64.3796 H   0  0  0  0  0  0  0  0  0  0  0  0
  130.9580  124.6890   64.3040 H   0  0  0  0  0  0  0  0  0  0  0  0
  130.8445  124.3577   67.5208 H   0  0  0  0  0  0  0  0  0  0  0  0
  129.1874  125.3257   69.1113 H   0  0  0  0  0  0  0  0  0  0  0  0
  127.7873  127.2654   68.4150 H   0  0  0  0  0  0  0  0  0  0  0  0
  128.0304  128.2407   66.1380 H   0  0  0  0  0  0  0  0  0  0  0  0
  129.6873  127.2803   64.5429 H   0  0  0  0  0  0  0  0  0  0  0  0
  1  2  1  0
  2  3  2  0
  3  4  1  0
  4  5  1  0
  5  6  1  0
  5  7  1  0
  5  8  1  0
  4  9  2  0
  9 10  1  0
 10 11  3  0
  9 12  1  0
 12 13  1  0
 13 14  1  0
 14 15  1  0
 15 16  2  0
 15 17  1  0
 17 18  1  0
 18 19  2  0
 19 20  1  0
 20 21  2  0
 21 22  1  0
 22 23  2  0
 12 24  2  0
 24  2  1  0
 23 18  1  0
  1 25  1  0
  1 26  1  0
  1 27  1  0
  3 28  1  0
 14 29  1  0
 14 30  1  0
 17 31  1  0
 19 32  1  0
 20 33  1  0
 21 34  1  0
 22 35  1  0
 23 36  1  0
M  END
>  <Binding energies>  (1) 
[-6.03]

>  <Ligand effiencies>  (1) 
[-0.2412]

>  <Interactions>  (1) 
["V-B:PRO:540:C:9849, V-B:GLU:543:CG:9875, V-A:HIS:456:CE1:4064, V-A:TRP:381:CZ2:3365, V-B:ALA:541:CB:9860, V-B:GLU:543:CB:9874, V-B:ALA:541:CA:9858, V-A:TRP:381:CH2:3367, V-B:TYR:539:CD2:9842, V-A:LEU:475:CD2:4254, V-B:TYR:539:CE2:9844, V-A:ILE:369:CD1:3234, V-B:TYR:539:CZ:9845, V-A:ILE:369:CB:3231, V-B:GLU:543:C:9870, V-B:GLU:543:CA:9872, V-A:GLU:543:CD:4903, V-B:GLU:543:CD:9876, V-A:ILE:369:CG2:3232, H-A:TYR:484:OH:4343, H-A:ARG:545:NE:4919, H-A:ARG:545:NH2:4923, V-A:GLY:454:CA:4044, H-A:HIS:456:NE2:4065, V-A:LEU:475:CD1:4253, V-A:LEU:475:CG:4252"]

$$$$
2e_Grossjean_2025
     RDKit          3D

 38 39  0  0  0  0  0  0  0  0999 V2000
  135.3590  125.0010   66.7950 C   0  0  0  0  0  0  0  0  0  0  0  0
  134.1830  125.2140   65.8610 C   0  0  0  0  0  0  0  0  0  0  0  0
  132.9850  125.7760   66.3090 C   0  0  0  0  0  0  0  0  0  0  0  0
  131.9500  125.9520   65.3900 C   0  0  0  0  0  0  0  0  0  0  0  0
  132.1340  125.5650   64.0600 C   0  0  0  0  0  0  0  0  0  0  0  0
  133.3560  124.9990   63.6800 C   0  0  0  0  0  0  0  0  0  0  0  0
  133.5030  124.6680   62.3220 N   0  0  0  0  0  0  0  0  0  0  0  0
  133.2570  123.4820   61.7220 C   0  0  0  0  0  0  0  0  0  0  0  0
  132.7800  122.4930   62.2800 O   0  0  0  0  0  0  0  0  0  0  0  0
  133.6550  123.3870   60.2460 C   0  0  0  0  0  0  0  0  0  0  0  0
  132.2550  123.7390   59.1360 S   0  0  0  0  0  0  0  0  0  0  0  0
  130.8930  122.7870   59.7720 C   0  0  0  0  0  0  0  0  0  0  0  0
  129.7640  123.5010   60.0050 N   0  0  0  0  0  0  0  0  0  0  0  0
  128.6950  122.8630   60.5320 C   0  0  0  0  0  0  0  0  0  0  0  0
  127.4660  123.7210   60.7670 C   0  0  0  0  0  0  0  0  0  0  0  0
  128.7080  121.5060   60.8490 C   0  0  0  0  0  0  0  0  0  0  0  0
  129.8720  120.7550   60.6220 C   0  0  0  0  0  0  0  0  0  0  0  0
  129.8780  119.2620   60.9980 C   0  0  0  0  0  0  0  0  0  0  0  0
  128.6290  118.8250   61.1610 F   0  0  0  0  0  0  0  0  0  0  0  0
  130.4630  118.5520   60.0320 F   0  0  0  0  0  0  0  0  0  0  0  0
  130.5390  119.0190   62.1320 F   0  0  0  0  0  0  0  0  0  0  0  0
  131.0000  121.4080   60.0660 C   0  0  0  0  0  0  0  0  0  0  0  0
  132.2540  120.6860   59.8320 C   0  0  0  0  0  0  0  0  0  0  0  0
  133.2450  120.1160   59.6490 N   0  0  0  0  0  0  0  0  0  0  0  0
  134.3760  124.8310   64.5720 N   0  0  0  0  0  0  0  0  0  0  0  0
  135.0149  125.0633   67.8379 H   0  0  0  0  0  0  0  0  0  0  0  0
  135.7974  124.0088   66.6122 H   0  0  0  0  0  0  0  0  0  0  0  0
  136.1175  125.7764   66.6122 H   0  0  0  0  0  0  0  0  0  0  0  0
  132.8607  126.0726   67.3609 H   0  0  0  0  0  0  0  0  0  0  0  0
  130.9946  126.3929   65.7107 H   0  0  0  0  0  0  0  0  0  0  0  0
  131.3298  125.7033   63.3223 H   0  0  0  0  0  0  0  0  0  0  0  0
  133.7930  125.4290   61.7270 H   0  0  0  0  0  0  0  0  0  0  0  0
  134.4568  124.1134   60.0472 H   0  0  0  0  0  0  0  0  0  0  0  0
  133.9918  122.3581   60.0512 H   0  0  0  0  0  0  0  0  0  0  0  0
  127.3007  123.8364   61.8484 H   0  0  0  0  0  0  0  0  0  0  0  0
  127.6172  124.7108   60.3115 H   0  0  0  0  0  0  0  0  0  0  0  0
  126.5890  123.2379   60.3115 H   0  0  0  0  0  0  0  0  0  0  0  0
  127.8133  121.0273   61.2737 H   0  0  0  0  0  0  0  0  0  0  0  0
  1  2  1  0
  2  3  2  0
  3  4  1  0
  4  5  2  0
  5  6  1  0
  6  7  1  0
  7  8  1  0
  8  9  2  0
  8 10  1  0
 10 11  1  0
 11 12  1  0
 12 13  2  0
 13 14  1  0
 14 15  1  0
 14 16  2  0
 16 17  1  0
 17 18  1  0
 18 19  1  0
 18 20  1  0
 18 21  1  0
 17 22  2  0
 22 23  1  0
 23 24  3  0
  6 25  2  0
 25  2  1  0
 22 12  1  0
  1 26  1  0
  1 27  1  0
  1 28  1  0
  3 29  1  0
  4 30  1  0
  5 31  1  0
  7 32  1  0
 10 33  1  0
 10 34  1  0
 15 35  1  0
 15 36  1  0
 15 37  1  0
 16 38  1  0
M  END
>  <Binding energies>  (1) 
[-7.04]

>  <Ligand effiencies>  (1) 
[-0.27076923076923076]

>  <Interactions>  (1) 
["V-B:PRO:540:C:9849, V-A:TRP:381:CZ3:3366, V-A:HIS:456:CE1:4064, V-A:PRO:482:CG:4322, V-B:TYR:539:CB:9839, V-A:TRP:381:CZ2:3365, V-B:ALA:541:CB:9860, V-B:ALA:541:CA:9858, V-A:TRP:381:CE3:3363, V-A:TRP:381:CH2:3367, V-B:TYR:539:C:9835, V-B:TYR:539:CD2:9842, V-A:LEU:475:CD2:4254, V-A:TRP:381:CE2:3362, V-A:PRO:482:CB:4321, V-B:TYR:539:CE2:9844, V-A:ILE:369:CD1:3234, V-A:ASP:366:CG:3208, V-A:GLU:543:CD:4903, H-A:ASP:366:OD2:3210, H-A:ARG:545:NH1:4922, V-A:ILE:369:CG2:3232, H-A:TYR:484:OH:4343, H-A:ASP:366:OD1:3209, H-A:GLY:454:N:4045, V-A:ARG:545:CZ:4921, V-B:PRO:540:CA:9851, V-A:LEU:475:CD1:4253, V-A:ARG:545:CD:4918, V-A:GLY:453:CA:4039, V-A:ARG:545:CG:4917, V-A:HIS:456:CD2:4063, V-A:GLY:453:C:4037, V-A:ILE:455:C:4047, V-A:LEU:475:CG:4252, V-A:ARG:545:CB:4916"]

$$$$
2f_Grossjean_2025
     RDKit          3D

 35 36  0  0  0  0  0  0  0  0999 V2000
  124.5210  123.5650   62.0900 C   0  0  0  0  0  0  0  0  0  0  0  0
  125.6650  123.4350   61.1020 C   0  0  0  0  0  0  0  0  0  0  0  0
  125.5370  123.8520   59.7790 C   0  0  0  0  0  0  0  0  0  0  0  0
  126.6220  123.7040   58.9010 C   0  0  0  0  0  0  0  0  0  0  0  0
  126.4570  124.1600   57.4380 C   0  0  0  0  0  0  0  0  0  0  0  0
  127.3350  125.1260   57.1580 F   0  0  0  0  0  0  0  0  0  0  0  0
  126.6680  123.1320   56.6150 F   0  0  0  0  0  0  0  0  0  0  0  0
  125.2390  124.6400   57.1800 F   0  0  0  0  0  0  0  0  0  0  0  0
  127.8240  123.1370   59.3970 C   0  0  0  0  0  0  0  0  0  0  0  0
  128.9650  122.9090   58.5070 C   0  0  0  0  0  0  0  0  0  0  0  0
  129.8660  122.7300   57.8030 N   0  0  0  0  0  0  0  0  0  0  0  0
  127.8700  122.7660   60.7630 C   0  0  0  0  0  0  0  0  0  0  0  0
  129.2970  122.0520   61.5560 S   0  0  0  0  0  0  0  0  0  0  0  0
  130.3370  123.4140   62.1830 C   0  0  0  0  0  0  0  0  0  0  0  0
  130.4220  123.5180   63.7120 C   0  0  0  0  0  0  0  0  0  0  0  0
  130.9310  122.6140   64.3760 O   0  0  0  0  0  0  0  0  0  0  0  0
  129.8870  124.6460   64.2270 N   0  0  0  0  0  0  0  0  0  0  0  0
  129.8030  125.0650   65.5690 C   0  0  0  0  0  0  0  0  0  0  0  0
  129.9670  124.2370   66.6950 C   0  0  0  0  0  0  0  0  0  0  0  0
  129.8640  124.7840   67.9750 C   0  0  0  0  0  0  0  0  0  0  0  0
  129.6040  126.1490   68.0990 C   0  0  0  0  0  0  0  0  0  0  0  0
  129.4510  126.9700   67.0310 N   0  0  0  0  0  0  0  0  0  0  0  0
  129.5540  126.4240   65.7920 C   0  0  0  0  0  0  0  0  0  0  0  0
  126.8050  122.8960   61.5900 N   0  0  0  0  0  0  0  0  0  0  0  0
  124.9156  123.5202   63.1158 H   0  0  0  0  0  0  0  0  0  0  0  0
  124.0104  124.5269   61.9353 H   0  0  0  0  0  0  0  0  0  0  0  0
  123.8076  122.7421   61.9353 H   0  0  0  0  0  0  0  0  0  0  0  0
  124.5936  124.2935   59.4254 H   0  0  0  0  0  0  0  0  0  0  0  0
  131.3560  123.2714   61.7940 H   0  0  0  0  0  0  0  0  0  0  0  0
  129.8627  124.3449   61.8387 H   0  0  0  0  0  0  0  0  0  0  0  0
  129.4500  125.2750   63.5680 H   0  0  0  0  0  0  0  0  0  0  0  0
  130.1752  123.1645   66.5671 H   0  0  0  0  0  0  0  0  0  0  0  0
  129.9853  124.1521   68.8672 H   0  0  0  0  0  0  0  0  0  0  0  0
  129.5194  126.5783   69.1082 H   0  0  0  0  0  0  0  0  0  0  0  0
  129.4357  127.0832   64.9194 H   0  0  0  0  0  0  0  0  0  0  0  0
  1  2  1  0
  2  3  2  0
  3  4  1  0
  4  5  1  0
  5  6  1  0
  5  7  1  0
  5  8  1  0
  4  9  2  0
  9 10  1  0
 10 11  3  0
  9 12  1  0
 12 13  1  0
 13 14  1  0
 14 15  1  0
 15 16  2  0
 15 17  1  0
 17 18  1  0
 18 19  2  0
 19 20  1  0
 20 21  2  0
 21 22  1  0
 22 23  2  0
 12 24  2  0
 24  2  1  0
 23 18  1  0
  1 25  1  0
  1 26  1  0
  1 27  1  0
  3 28  1  0
 14 29  1  0
 14 30  1  0
 17 31  1  0
 19 32  1  0
 20 33  1  0
 21 34  1  0
 23 35  1  0
M  END
>  <Binding energies>  (1) 
[-6.44]

>  <Ligand effiencies>  (1) 
[-0.2576]

>  <Interactions>  (1) 
["V-B:PRO:540:C:9849, V-B:GLU:543:CG:9875, V-A:HIS:456:CE1:4064, V-B:GLU:543:CB:9874, V-B:TYR:539:CE2:9844, V-A:TYR:484:CZ:4342, V-B:GLU:543:C:9870, V-A:TYR:484:CE1:4340, V-B:GLU:543:CA:9872, V-B:GLU:543:CD:9876, H-A:TYR:484:OH:4343, V-B:ASN:362:CB:8143, V-B:PRO:540:CB:9853, H-B:ALA:541:N:9859, V-B:PRO:540:CA:9851, H-B:GLU:543:OE2:9878, V-B:MET:535:CE:9803, V-B:ASN:362:CG:8144"]

$$$$
2g_Grossjean_2025
     RDKit          3D

 39 40  0  0  0  0  0  0  0  0999 V2000
  124.5370  123.5480   62.2530 C   0  0  0  0  0  0  0  0  0  0  0  0
  125.4950  123.4800   61.0790 C   0  0  0  0  0  0  0  0  0  0  0  0
  125.0660  123.7080   59.7740 C   0  0  0  0  0  0  0  0  0  0  0  0
  125.9900  123.6260   58.7210 C   0  0  0  0  0  0  0  0  0  0  0  0
  125.4960  123.8730   57.2820 C   0  0  0  0  0  0  0  0  0  0  0  0
  124.2300  124.2930   57.2940 F   0  0  0  0  0  0  0  0  0  0  0  0
  126.2540  124.8000   56.6960 F   0  0  0  0  0  0  0  0  0  0  0  0
  125.5440  122.7750   56.5240 F   0  0  0  0  0  0  0  0  0  0  0  0
  127.3410  123.3210   59.0250 C   0  0  0  0  0  0  0  0  0  0  0  0
  128.3340  123.1670   57.9580 C   0  0  0  0  0  0  0  0  0  0  0  0
  129.1170  123.0470   57.1150 N   0  0  0  0  0  0  0  0  0  0  0  0
  127.6910  123.1350   60.3850 C   0  0  0  0  0  0  0  0  0  0  0  0
  129.3410  122.7710   60.9450 S   0  0  0  0  0  0  0  0  0  0  0  0
  129.2400  122.3620   62.7200 C   0  0  0  0  0  0  0  0  0  0  0  0
  130.2310  123.1230   63.6120 C   0  0  0  0  0  0  0  0  0  0  0  0
  131.2090  122.5610   64.1100 O   0  0  0  0  0  0  0  0  0  0  0  0
  129.9520  124.4240   63.8070 N   0  0  0  0  0  0  0  0  0  0  0  0
  130.7500  125.3540   64.6080 C   0  0  0  0  0  0  0  0  0  0  0  0
  130.1880  125.6300   65.9980 C   0  0  0  0  0  0  0  0  0  0  0  0
  130.2640  124.6450   66.9880 C   0  0  0  0  0  0  0  0  0  0  0  0
  129.7850  124.9080   68.2690 C   0  0  0  0  0  0  0  0  0  0  0  0
  129.2420  126.1560   68.5600 C   0  0  0  0  0  0  0  0  0  0  0  0
  129.1750  127.1470   67.5810 C   0  0  0  0  0  0  0  0  0  0  0  0
  129.6540  126.8850   66.3010 C   0  0  0  0  0  0  0  0  0  0  0  0
  126.7810  123.1950   61.3870 N   0  0  0  0  0  0  0  0  0  0  0  0
  125.1061  123.5076   63.1935 H   0  0  0  0  0  0  0  0  0  0  0  0
  123.9687  124.4887   62.2085 H   0  0  0  0  0  0  0  0  0  0  0  0
  123.8415  122.6970   62.2085 H   0  0  0  0  0  0  0  0  0  0  0  0
  124.0125  123.9502   59.5704 H   0  0  0  0  0  0  0  0  0  0  0  0
  128.2215  122.5910   63.0668 H   0  0  0  0  0  0  0  0  0  0  0  0
  129.4984  121.2964   62.8081 H   0  0  0  0  0  0  0  0  0  0  0  0
  129.1450  124.8170   63.3450 H   0  0  0  0  0  0  0  0  0  0  0  0
  131.7590  124.9312   64.7225 H   0  0  0  0  0  0  0  0  0  0  0  0
  130.7459  126.3142   64.0713 H   0  0  0  0  0  0  0  0  0  0  0  0
  130.7018  123.6632   66.7550 H   0  0  0  0  0  0  0  0  0  0  0  0
  129.8356  124.1326   69.0476 H   0  0  0  0  0  0  0  0  0  0  0  0
  128.8622  126.3626   69.5715 H   0  0  0  0  0  0  0  0  0  0  0  0
  128.7455  128.1312   67.8195 H   0  0  0  0  0  0  0  0  0  0  0  0
  129.6122  127.6661   65.5276 H   0  0  0  0  0  0  0  0  0  0  0  0
  1  2  1  0
  2  3  2  0
  3  4  1  0
  4  5  1  0
  5  6  1  0
  5  7  1  0
  5  8  1  0
  4  9  2  0
  9 10  1  0
 10 11  3  0
  9 12  1  0
 12 13  1  0
 13 14  1  0
 14 15  1  0
 15 16  2  0
 15 17  1  0
 17 18  1  0
 18 19  1  0
 19 20  2  0
 20 21  1  0
 21 22  2  0
 22 23  1  0
 23 24  2  0
 12 25  2  0
 25  2  1  0
 24 19  1  0
  1 26  1  0
  1 27  1  0
  1 28  1  0
  3 29  1  0
 14 30  1  0
 14 31  1  0
 17 32  1  0
 18 33  1  0
 18 34  1  0
 20 35  1  0
 21 36  1  0
 22 37  1  0
 23 38  1  0
 24 39  1  0
M  END
>  <Binding energies>  (1) 
[-7.12]

>  <Ligand effiencies>  (1) 
[-0.27384615384615385]

>  <Interactions>  (1) 
["V-B:PRO:540:C:9849, V-B:GLU:543:CG:9875, V-A:HIS:456:CE1:4064, V-B:ALA:541:CB:9860, V-B:GLU:543:CB:9874, V-B:ALA:541:CA:9858, V-B:TYR:539:C:9835, V-A:TYR:484:CZ:4342, V-B:GLU:543:C:9870, V-A:TYR:484:CE1:4340, V-B:GLU:543:CA:9872, V-B:GLU:543:CD:9876, H-A:TYR:484:OH:4343, V-B:ASN:362:CB:8143, V-B:PRO:540:CB:9853, H-B:ALA:541:N:9859, V-B:PRO:540:CA:9851, H-B:GLU:543:OE2:9878, V-B:LEU:363:CD1:8156, V-B:PRO:540:CD:9855, V-B:PRO:540:N:9852, V-B:MET:535:CE:9803, V-B:TYR:531:CE2:9761, V-B:ASN:362:CG:8144"]

$$$$
2h_Grossjean_2025
     RDKit          3D

 51 52  0  0  0  0  0  0  0  0999 V2000
  128.9020  129.3040   67.3760 C   0  0  0  0  0  0  0  0  0  0  0  0
  128.3880  128.0790   66.8640 O   0  0  0  0  0  0  0  0  0  0  0  0
  129.1510  127.3410   65.9770 C   0  0  0  0  0  0  0  0  0  0  0  0
  128.9500  127.3350   64.5870 C   0  0  0  0  0  0  0  0  0  0  0  0
  129.7660  126.5720   63.7550 C   0  0  0  0  0  0  0  0  0  0  0  0
  130.7970  125.7990   64.2890 C   0  0  0  0  0  0  0  0  0  0  0  0
  131.6910  124.9860   63.3550 C   0  0  0  0  0  0  0  0  0  0  0  0
  130.9810  123.9280   62.6360 N   0  0  0  0  0  0  0  0  0  0  0  0
  130.2930  122.9290   63.2170 C   0  0  0  0  0  0  0  0  0  0  0  0
  130.2590  122.7530   64.4370 O   0  0  0  0  0  0  0  0  0  0  0  0
  129.5300  122.0040   62.2590 C   0  0  0  0  0  0  0  0  0  0  0  0
  129.5550  122.5190   60.5090 S   0  0  0  0  0  0  0  0  0  0  0  0
  127.8860  122.9640   60.0800 C   0  0  0  0  0  0  0  0  0  0  0  0
  127.0590  123.0760   61.1490 N   0  0  0  0  0  0  0  0  0  0  0  0
  125.7630  123.3930   60.9350 C   0  0  0  0  0  0  0  0  0  0  0  0
  124.8960  123.4940   62.1760 C   0  0  0  0  0  0  0  0  0  0  0  0
  125.2430  123.6140   59.6620 C   0  0  0  0  0  0  0  0  0  0  0  0
  126.0870  123.5230   58.5450 C   0  0  0  0  0  0  0  0  0  0  0  0
  125.4960  123.7800   57.1450 C   0  0  0  0  0  0  0  0  0  0  0  0
  126.1660  124.7610   56.5410 F   0  0  0  0  0  0  0  0  0  0  0  0
  125.5570  122.7070   56.3540 F   0  0  0  0  0  0  0  0  0  0  0  0
  124.2130  124.1310   57.2470 F   0  0  0  0  0  0  0  0  0  0  0  0
  127.4520  123.1990   58.7530 C   0  0  0  0  0  0  0  0  0  0  0  0
  128.3880  123.1490   57.6260 C   0  0  0  0  0  0  0  0  0  0  0  0
  129.1250  123.1140   56.7360 N   0  0  0  0  0  0  0  0  0  0  0  0
  130.9950  125.7760   65.6780 C   0  0  0  0  0  0  0  0  0  0  0  0
  132.0070  125.0140   66.2130 O   0  0  0  0  0  0  0  0  0  0  0  0
  133.3110  125.5380   65.9990 C   0  0  0  0  0  0  0  0  0  0  0  0
  130.1830  126.5620   66.5150 C   0  0  0  0  0  0  0  0  0  0  0  0
  130.3860  126.5560   67.8740 O   0  0  0  0  0  0  0  0  0  0  0  0
  129.4620  125.7530   68.5960 C   0  0  0  0  0  0  0  0  0  0  0  0
  128.8901  129.2756   68.4756 H   0  0  0  0  0  0  0  0  0  0  0  0
  129.9347  129.4439   67.0240 H   0  0  0  0  0  0  0  0  0  0  0  0
  128.2783  130.1390   67.0240 H   0  0  0  0  0  0  0  0  0  0  0  0
  128.1403  127.9387   64.1511 H   0  0  0  0  0  0  0  0  0  0  0  0
  129.5960  126.5791   62.6682 H   0  0  0  0  0  0  0  0  0  0  0  0
  132.1353  125.6699   62.6169 H   0  0  0  0  0  0  0  0  0  0  0  0
  132.4500  124.4955   63.9822 H   0  0  0  0  0  0  0  0  0  0  0  0
  130.9340  124.0260   61.6320 H   0  0  0  0  0  0  0  0  0  0  0  0
  129.9755  121.0005   62.3260 H   0  0  0  0  0  0  0  0  0  0  0  0
  128.4766  122.0354   62.5743 H   0  0  0  0  0  0  0  0  0  0  0  0
  125.5291  123.4203   63.0725 H   0  0  0  0  0  0  0  0  0  0  0  0
  124.3691  124.4596   62.1776 H   0  0  0  0  0  0  0  0  0  0  0  0
  124.1613  122.6754   62.1776 H   0  0  0  0  0  0  0  0  0  0  0  0
  124.1782  123.8581   59.5333 H   0  0  0  0  0  0  0  0  0  0  0  0
  133.7922  125.7314   66.9691 H   0  0  0  0  0  0  0  0  0  0  0  0
  133.9098  124.8107   65.4312 H   0  0  0  0  0  0  0  0  0  0  0  0
  133.2400  126.4774   65.4312 H   0  0  0  0  0  0  0  0  0  0  0  0
  129.6213  125.8914   69.6756 H   0  0  0  0  0  0  0  0  0  0  0  0
  128.4356  126.0510   68.3356 H   0  0  0  0  0  0  0  0  0  0  0  0
  129.6139  124.6951   68.3356 H   0  0  0  0  0  0  0  0  0  0  0  0
  1  2  1  0
  2  3  1  0
  3  4  2  0
  4  5  1  0
  5  6  2  0
  6  7  1  0
  7  8  1  0
  8  9  1  0
  9 10  2  0
  9 11  1  0
 11 12  1  0
 12 13  1  0
 13 14  2  0
 14 15  1  0
 15 16  1  0
 15 17  2  0
 17 18  1  0
 18 19  1  0
 19 20  1  0
 19 21  1  0
 19 22  1  0
 18 23  2  0
 23 24  1  0
 24 25  3  0
  6 26  1  0
 26 27  1  0
 27 28  1  0
 26 29  2  0
 29 30  1  0
 30 31  1  0
 29  3  1  0
 23 13  1  0
  1 32  1  0
  1 33  1  0
  1 34  1  0
  4 35  1  0
  5 36  1  0
  7 37  1  0
  7 38  1  0
  8 39  1  0
 11 40  1  0
 11 41  1  0
 16 42  1  0
 16 43  1  0
 16 44  1  0
 17 45  1  0
 28 46  1  0
 28 47  1  0
 28 48  1  0
 31 49  1  0
 31 50  1  0
 31 51  1  0
M  END
>  <Binding energies>  (1) 
[-6.25]

>  <Ligand effiencies>  (1) 
[-0.1953125]

>  <Interactions>  (1) 
["V-B:PRO:540:C:9849, V-A:HIS:456:CE1:4064, V-B:ALA:541:CB:9860, V-B:GLU:543:CB:9874, V-B:TYR:539:C:9835, V-A:GLU:543:CB:4901, V-B:HIS:456:CE1:9037, V-A:GLU:543:CG:4902, V-B:GLU:543:C:9870, V-A:GLU:543:CD:4903, V-B:GLU:543:CD:9876, H-A:TYR:484:OH:4343, V-B:ASN:362:CB:8143, V-A:ARG:545:CZ:4921, V-B:PRO:540:CB:9853, H-B:ALA:541:N:9859, V-B:PRO:540:CA:9851, H-A:HIS:456:NE2:4065, V-A:ARG:545:CD:4918, V-A:ARG:545:CG:4917, V-A:HIS:456:CD2:4063, V-B:LEU:363:CD1:8156, V-B:PRO:540:CD:9855, V-B:PRO:540:N:9852, V-B:MET:535:CE:9803, H-B:TYR:539:OH:9846, V-B:TYR:531:CE2:9761"]

$$$$
2i_Grossjean_2025
     RDKit          3D

 32 33  0  0  0  0  0  0  0  0999 V2000
  124.3860  123.7670   61.8400 C   0  0  0  0  0  0  0  0  0  0  0  0
  125.5310  123.5620   60.8650 C   0  0  0  0  0  0  0  0  0  0  0  0
  125.3870  123.8220   59.5050 C   0  0  0  0  0  0  0  0  0  0  0  0
  126.4770  123.6180   58.6450 C   0  0  0  0  0  0  0  0  0  0  0  0
  126.3000  123.9100   57.1430 C   0  0  0  0  0  0  0  0  0  0  0  0
  125.0310  124.2310   56.8870 F   0  0  0  0  0  0  0  0  0  0  0  0
  127.0850  124.9240   56.7780 F   0  0  0  0  0  0  0  0  0  0  0  0
  126.6120  122.8650   56.3730 F   0  0  0  0  0  0  0  0  0  0  0  0
  127.6960  123.1500   59.1970 C   0  0  0  0  0  0  0  0  0  0  0  0
  128.8670  122.9210   58.3440 C   0  0  0  0  0  0  0  0  0  0  0  0
  129.7920  122.7400   57.6720 N   0  0  0  0  0  0  0  0  0  0  0  0
  127.7540  122.9100   60.5890 C   0  0  0  0  0  0  0  0  0  0  0  0
  129.2320  122.3120   61.3930 S   0  0  0  0  0  0  0  0  0  0  0  0
  129.1530  122.7860   63.1470 C   0  0  0  0  0  0  0  0  0  0  0  0
  130.5420  122.9370   63.7700 C   0  0  0  0  0  0  0  0  0  0  0  0
  131.1470  121.9280   64.1360 O   0  0  0  0  0  0  0  0  0  0  0  0
  130.9950  124.2030   63.8960 N   0  0  0  0  0  0  0  0  0  0  0  0
  132.2050  124.5980   64.4410 C   0  0  0  0  0  0  0  0  0  0  0  0
  132.4740  125.4290   65.5380 C   0  0  0  0  0  0  0  0  0  0  0  0
  133.8460  125.4660   65.6220 C   0  0  0  0  0  0  0  0  0  0  0  0
  134.3710  124.6960   64.6390 O   0  0  0  0  0  0  0  0  0  0  0  0
  133.3180  124.1480   63.9030 N   0  0  0  0  0  0  0  0  0  0  0  0
  126.6870  123.1150   61.4040 N   0  0  0  0  0  0  0  0  0  0  0  0
  124.7652  123.6991   62.8703 H   0  0  0  0  0  0  0  0  0  0  0  0
  123.9398  124.7593   61.6781 H   0  0  0  0  0  0  0  0  0  0  0  0
  123.6232  122.9911   61.6781 H   0  0  0  0  0  0  0  0  0  0  0  0
  124.4272  124.1842   59.1080 H   0  0  0  0  0  0  0  0  0  0  0  0
  128.6214  123.7454   63.2307 H   0  0  0  0  0  0  0  0  0  0  0  0
  128.6261  121.9866   63.6885 H   0  0  0  0  0  0  0  0  0  0  0  0
  130.3870  124.9510   63.5950 H   0  0  0  0  0  0  0  0  0  0  0  0
  131.7477  125.9388   66.1880 H   0  0  0  0  0  0  0  0  0  0  0  0
  134.4246  126.0305   66.3680 H   0  0  0  0  0  0  0  0  0  0  0  0
  1  2  1  0
  2  3  2  0
  3  4  1  0
  4  5  1  0
  5  6  1  0
  5  7  1  0
  5  8  1  0
  4  9  2  0
  9 10  1  0
 10 11  3  0
  9 12  1  0
 12 13  1  0
 13 14  1  0
 14 15  1  0
 15 16  2  0
 15 17  1  0
 17 18  1  0
 18 19  1  0
 19 20  2  0
 20 21  1  0
 21 22  1  0
 12 23  2  0
 23  2  1  0
 22 18  2  0
  1 24  1  0
  1 25  1  0
  1 26  1  0
  3 27  1  0
 14 28  1  0
 14 29  1  0
 17 30  1  0
 19 31  1  0
 20 32  1  0
M  END
>  <Binding energies>  (1) 
[-7.0]

>  <Ligand effiencies>  (1) 
[-0.2916666666666667]

>  <Interactions>  (1) 
["V-B:PRO:540:C:9849, V-B:GLU:543:CG:9875, V-B:ALA:541:CB:9860, V-B:TYR:539:C:9835, V-B:TYR:539:CE2:9844, V-B:GLU:543:CD:9876, H-A:TYR:484:OH:4343, H-A:GLY:454:N:4045, V-B:ASN:362:CB:8143, V-A:ARG:545:CZ:4921, V-B:PRO:540:CB:9853, H-B:ALA:541:N:9859, V-B:PRO:540:CA:9851, H-B:GLU:543:OE2:9878, V-A:ARG:545:CD:4918, V-A:ARG:545:CG:4917, V-B:LEU:363:CD1:8156, V-B:PRO:540:N:9852, V-B:MET:535:CE:9803, H-B:TYR:539:OH:9846, V-B:TYR:531:CE2:9761"]

$$$$
2j_Grossjean_2025
     RDKit          3D

 32 33  0  0  0  0  0  0  0  0999 V2000
  133.6370  123.4830   57.7330 C   0  0  0  0  0  0  0  0  0  0  0  0
  133.1040  123.2470   59.1340 C   0  0  0  0  0  0  0  0  0  0  0  0
  133.7120  123.8130   60.2510 C   0  0  0  0  0  0  0  0  0  0  0  0
  133.1800  123.5670   61.5260 C   0  0  0  0  0  0  0  0  0  0  0  0
  133.8650  124.2020   62.7510 C   0  0  0  0  0  0  0  0  0  0  0  0
  133.4070  125.4400   62.9390 F   0  0  0  0  0  0  0  0  0  0  0  0
  133.6120  123.4770   63.8420 F   0  0  0  0  0  0  0  0  0  0  0  0
  135.1910  124.2780   62.6190 F   0  0  0  0  0  0  0  0  0  0  0  0
  132.0320  122.7420   61.6320 C   0  0  0  0  0  0  0  0  0  0  0  0
  131.4330  122.4510   62.9390 C   0  0  0  0  0  0  0  0  0  0  0  0
  130.9600  122.2230   63.9700 N   0  0  0  0  0  0  0  0  0  0  0  0
  131.4790  122.2080   60.4440 C   0  0  0  0  0  0  0  0  0  0  0  0
  130.0320  121.1590   60.4570 S   0  0  0  0  0  0  0  0  0  0  0  0
  128.7570  121.9510   61.4960 C   0  0  0  0  0  0  0  0  0  0  0  0
  127.5950  122.5870   60.7200 C   0  0  0  0  0  0  0  0  0  0  0  0
  126.6790  123.1590   61.3140 O   0  0  0  0  0  0  0  0  0  0  0  0
  127.6690  122.4490   59.3770 N   0  0  0  0  0  0  0  0  0  0  0  0
  126.7590  122.9260   58.4430 C   0  0  0  0  0  0  0  0  0  0  0  0
  126.3870  122.3580   57.3160 N   0  0  0  0  0  0  0  0  0  0  0  0
  125.5000  123.0920   56.6720 C   0  0  0  0  0  0  0  0  0  0  0  0
  125.1340  124.2890   57.2800 C   0  0  0  0  0  0  0  0  0  0  0  0
  126.0050  124.4520   58.7760 S   0  0  0  0  0  0  0  0  0  0  0  0
  132.0080  122.4600   59.2190 N   0  0  0  0  0  0  0  0  0  0  0  0
  134.6413  123.9277   57.7929 H   0  0  0  0  0  0  0  0  0  0  0  0
  133.6917  122.5250   57.1953 H   0  0  0  0  0  0  0  0  0  0  0  0
  132.9644  124.1674   57.1953 H   0  0  0  0  0  0  0  0  0  0  0  0
  134.6026  124.4482   60.1351 H   0  0  0  0  0  0  0  0  0  0  0  0
  128.3409  121.1866   62.1687 H   0  0  0  0  0  0  0  0  0  0  0  0
  129.2590  122.7724   62.0283 H   0  0  0  0  0  0  0  0  0  0  0  0
  128.4620  121.9490   59.0020 H   0  0  0  0  0  0  0  0  0  0  0  0
  125.0737  122.7756   55.7086 H   0  0  0  0  0  0  0  0  0  0  0  0
  124.4108  125.0145   56.8791 H   0  0  0  0  0  0  0  0  0  0  0  0
  1  2  1  0
  2  3  2  0
  3  4  1  0
  4  5  1  0
  5  6  1  0
  5  7  1  0
  5  8  1  0
  4  9  2  0
  9 10  1  0
 10 11  3  0
  9 12  1  0
 12 13  1  0
 13 14  1  0
 14 15  1  0
 15 16  2  0
 15 17  1  0
 17 18  1  0
 18 19  2  0
 19 20  1  0
 20 21  2  0
 21 22  1  0
 12 23  2  0
 23  2  1  0
 22 18  1  0
  1 24  1  0
  1 25  1  0
  1 26  1  0
  3 27  1  0
 14 28  1  0
 14 29  1  0
 17 30  1  0
 20 31  1  0
 21 32  1  0
M  END
>  <Binding energies>  (1) 
[-6.0]

>  <Ligand effiencies>  (1) 
[-0.25]

>  <Interactions>  (1) 
["V-B:PRO:540:C:9849, V-B:ALA:541:CB:9860, V-B:ALA:541:CA:9858, V-B:TYR:539:C:9835, V-A:LEU:475:CD2:4254, V-B:TYR:539:CE2:9844, V-A:ILE:369:CD1:3234, V-A:ASP:366:CA:3205, V-A:ILE:369:CB:3231, V-A:ASP:366:CG:3208, V-A:ASP:366:CB:3207, V-A:ASP:366:C:3203, V-A:ILE:369:CG2:3232, H-A:TYR:484:OH:4343, V-A:GLY:454:CA:4044, V-A:ARG:545:CZ:4921, V-B:PRO:540:CB:9853, H-B:ALA:541:N:9859, V-B:PRO:540:CA:9851, H-B:TYR:539:O:9836, V-A:GLY:453:CA:4039, V-A:GLY:453:C:4037, V-B:PRO:540:N:9852, V-B:MET:535:CE:9803"]

$$$$
2k_Grossjean_2025
     RDKit          3D

 50 50  0  0  0  0  0  0  0  0999 V2000
  133.7860  125.2430   65.3140 C   0  0  0  0  0  0  0  0  0  0  0  0
  134.3410  124.7560   64.1010 O   0  0  0  0  0  0  0  0  0  0  0  0
  133.4560  123.9150   63.3710 C   0  0  0  0  0  0  0  0  0  0  0  0
  133.2350  124.4910   61.9670 C   0  0  0  0  0  0  0  0  0  0  0  0
  131.8850  124.9180   61.8490 O   0  0  0  0  0  0  0  0  0  0  0  0
  131.7010  126.3210   61.9920 C   0  0  0  0  0  0  0  0  0  0  0  0
  130.2210  126.6430   61.7470 C   0  0  0  0  0  0  0  0  0  0  0  0
  129.5530  126.5950   62.9980 O   0  0  0  0  0  0  0  0  0  0  0  0
  130.4020  126.5350   64.1340 C   0  0  0  0  0  0  0  0  0  0  0  0
  130.4030  125.0950   64.6810 C   0  0  0  0  0  0  0  0  0  0  0  0
  129.8560  124.1220   63.7320 N   0  0  0  0  0  0  0  0  0  0  0  0
  130.1860  122.8180   63.6690 C   0  0  0  0  0  0  0  0  0  0  0  0
  130.9830  122.2820   64.4410 O   0  0  0  0  0  0  0  0  0  0  0  0
  129.5170  122.0150   62.5430 C   0  0  0  0  0  0  0  0  0  0  0  0
  129.5180  122.8180   60.9020 S   0  0  0  0  0  0  0  0  0  0  0  0
  127.8330  123.1280   60.3920 C   0  0  0  0  0  0  0  0  0  0  0  0
  126.9200  123.2060   61.3930 N   0  0  0  0  0  0  0  0  0  0  0  0
  125.6250  123.4340   61.0790 C   0  0  0  0  0  0  0  0  0  0  0  0
  124.6650  123.4940   62.2510 C   0  0  0  0  0  0  0  0  0  0  0  0
  125.1890  123.6060   59.7680 C   0  0  0  0  0  0  0  0  0  0  0  0
  126.1170  123.5390   58.7180 C   0  0  0  0  0  0  0  0  0  0  0  0
  125.6180  123.7360   57.2740 C   0  0  0  0  0  0  0  0  0  0  0  0
  126.2520  124.7230   56.6390 F   0  0  0  0  0  0  0  0  0  0  0  0
  125.8060  122.6200   56.5680 F   0  0  0  0  0  0  0  0  0  0  0  0
  124.3180  124.0320   57.2760 F   0  0  0  0  0  0  0  0  0  0  0  0
  127.4780  123.2920   59.0320 C   0  0  0  0  0  0  0  0  0  0  0  0
  128.4900  123.2070   57.9740 C   0  0  0  0  0  0  0  0  0  0  0  0
  129.2880  123.1420   57.1390 N   0  0  0  0  0  0  0  0  0  0  0  0
  134.3086  124.7845   66.1664 H   0  0  0  0  0  0  0  0  0  0  0  0
  133.9021  126.3360   65.3576 H   0  0  0  0  0  0  0  0  0  0  0  0
  132.7174  124.9858   65.3576 H   0  0  0  0  0  0  0  0  0  0  0  0
  133.8926  122.9087   63.2887 H   0  0  0  0  0  0  0  0  0  0  0  0
  132.4916  123.8577   63.8969 H   0  0  0  0  0  0  0  0  0  0  0  0
  133.9076  125.3471   61.8096 H   0  0  0  0  0  0  0  0  0  0  0  0
  133.4482  123.7204   61.2115 H   0  0  0  0  0  0  0  0  0  0  0  0
  131.9854  126.6313   63.0083 H   0  0  0  0  0  0  0  0  0  0  0  0
  132.3299  126.8603   61.2683 H   0  0  0  0  0  0  0  0  0  0  0  0
  130.1242  127.6476   61.3096 H   0  0  0  0  0  0  0  0  0  0  0  0
  129.7805  125.9163   61.0485 H   0  0  0  0  0  0  0  0  0  0  0  0
  131.4244  126.8214   63.8464 H   0  0  0  0  0  0  0  0  0  0  0  0
  130.0385  127.2272   64.9078 H   0  0  0  0  0  0  0  0  0  0  0  0
  131.4390  124.8103   64.9169 H   0  0  0  0  0  0  0  0  0  0  0  0
  129.7602  125.0815   65.5735 H   0  0  0  0  0  0  0  0  0  0  0  0
  129.1810  124.4780   63.0700 H   0  0  0  0  0  0  0  0  0  0  0  0
  130.0449  121.0543   62.4512 H   0  0  0  0  0  0  0  0  0  0  0  0
  128.4601  121.9125   62.8300 H   0  0  0  0  0  0  0  0  0  0  0  0
  125.2329  123.4585   63.1924 H   0  0  0  0  0  0  0  0  0  0  0  0
  124.0888  124.4299   62.2055 H   0  0  0  0  0  0  0  0  0  0  0  0
  123.9768  122.6371   62.2055 H   0  0  0  0  0  0  0  0  0  0  0  0
  124.1257  123.7929   59.5572 H   0  0  0  0  0  0  0  0  0  0  0  0
  1  2  1  0
  2  3  1  0
  3  4  1  0
  4  5  1  0
  5  6  1  0
  6  7  1  0
  7  8  1  0
  8  9  1  0
  9 10  1  0
 10 11  1  0
 11 12  1  0
 12 13  2  0
 12 14  1  0
 14 15  1  0
 15 16  1  0
 16 17  2  0
 17 18  1  0
 18 19  1  0
 18 20  2  0
 20 21  1  0
 21 22  1  0
 22 23  1  0
 22 24  1  0
 22 25  1  0
 21 26  2  0
 26 27  1  0
 27 28  3  0
 26 16  1  0
  1 29  1  0
  1 30  1  0
  1 31  1  0
  3 32  1  0
  3 33  1  0
  4 34  1  0
  4 35  1  0
  6 36  1  0
  6 37  1  0
  7 38  1  0
  7 39  1  0
  9 40  1  0
  9 41  1  0
 10 42  1  0
 10 43  1  0
 11 44  1  0
 14 45  1  0
 14 46  1  0
 19 47  1  0
 19 48  1  0
 19 49  1  0
 20 50  1  0
M  END
>  <Binding energies>  (1) 
[-5.31]

>  <Ligand effiencies>  (1) 
[-0.18310344827586206]

>  <Interactions>  (1) 
["V-B:PRO:540:C:9849, V-B:GLU:543:CG:9875, V-B:ALA:541:CB:9860, V-B:TYR:539:C:9835, V-A:ASP:366:CG:3208, V-A:GLU:543:CD:4903, V-B:GLU:543:CD:9876, H-A:ARG:545:NH1:4922, H-A:TYR:484:OH:4343, H-A:GLY:454:N:4045, V-A:GLY:454:CA:4044, V-B:ASN:362:CB:8143, V-A:ARG:545:CZ:4921, V-B:PRO:540:CB:9853, H-B:ALA:541:N:9859, V-B:PRO:540:CA:9851, H-B:GLU:543:OE2:9878, V-A:ARG:545:CD:4918, V-B:LEU:363:CD1:8156, V-B:PRO:540:CD:9855, V-B:PRO:540:N:9852, V-B:MET:535:CE:9803, V-B:TYR:531:CE2:9761, V-B:ASN:362:CG:8144"]

$$$$
3aa_Grossjean_2025
     RDKit          3D

 52 54  0  0  0  0  0  0  0  0999 V2000
  129.9440  123.8470   71.6390 C   0  0  0  0  0  0  0  0  0  0  0  0
  130.3140  124.8740   72.7130 C   0  0  0  0  0  0  0  0  0  0  0  0
  129.2740  125.8380   72.8260 O   0  0  0  0  0  0  0  0  0  0  0  0
  129.5160  127.1560   72.6040 C   0  0  0  0  0  0  0  0  0  0  0  0
  129.8890  127.9370   73.4840 O   0  0  0  0  0  0  0  0  0  0  0  0
  129.2670  127.5730   71.1820 C   0  0  0  0  0  0  0  0  0  0  0  0
  130.1760  128.3730   70.4730 C   0  0  0  0  0  0  0  0  0  0  0  0
  129.9160  128.7380   69.1550 C   0  0  0  0  0  0  0  0  0  0  0  0
  128.7510  128.3080   68.5180 C   0  0  0  0  0  0  0  0  0  0  0  0
  128.5880  128.7310   67.1830 N   0  0  0  0  0  0  0  0  0  0  0  0
  128.5790  129.9810   66.6710 C   0  0  0  0  0  0  0  0  0  0  0  0
  128.6970  131.0200   67.3210 O   0  0  0  0  0  0  0  0  0  0  0  0
  128.3940  130.0710   65.1560 C   0  0  0  0  0  0  0  0  0  0  0  0
  128.7440  131.7430   64.5310 S   0  0  0  0  0  0  0  0  0  0  0  0
  128.6910  131.6570   62.7550 C   0  0  0  0  0  0  0  0  0  0  0  0
  129.9080  131.4900   62.1830 N   0  0  0  0  0  0  0  0  0  0  0  0
  130.0100  131.4100   60.8310 C   0  0  0  0  0  0  0  0  0  0  0  0
  131.3880  131.2100   60.2750 C   0  0  0  0  0  0  0  0  0  0  0  0
  132.5110  131.2520   61.1170 C   0  0  0  0  0  0  0  0  0  0  0  0
  133.7940  131.0660   60.6080 C   0  0  0  0  0  0  0  0  0  0  0  0
  133.9710  130.8360   59.2480 C   0  0  0  0  0  0  0  0  0  0  0  0
  132.8740  130.7870   58.3940 C   0  0  0  0  0  0  0  0  0  0  0  0
  131.5930  130.9710   58.9060 C   0  0  0  0  0  0  0  0  0  0  0  0
  128.8750  131.4910   60.0180 C   0  0  0  0  0  0  0  0  0  0  0  0
  127.6070  131.6820   60.5870 C   0  0  0  0  0  0  0  0  0  0  0  0
  126.3820  131.7770   59.6570 C   0  0  0  0  0  0  0  0  0  0  0  0
  126.7140  131.8040   58.3650 F   0  0  0  0  0  0  0  0  0  0  0  0
  125.5820  130.7260   59.8410 F   0  0  0  0  0  0  0  0  0  0  0  0
  125.6980  132.8920   59.9200 F   0  0  0  0  0  0  0  0  0  0  0  0
  127.5070  131.7810   61.9960 C   0  0  0  0  0  0  0  0  0  0  0  0
  126.2160  132.0380   62.6410 C   0  0  0  0  0  0  0  0  0  0  0  0
  125.1960  132.2420   63.1510 N   0  0  0  0  0  0  0  0  0  0  0  0
  127.8320  127.5190   69.2250 C   0  0  0  0  0  0  0  0  0  0  0  0
  128.0920  127.1570   70.5430 C   0  0  0  0  0  0  0  0  0  0  0  0
  129.6089  122.9168   72.1211 H   0  0  0  0  0  0  0  0  0  0  0  0
  129.1337  124.2477   71.0122 H   0  0  0  0  0  0  0  0  0  0  0  0
  130.8237  123.6388   71.0122 H   0  0  0  0  0  0  0  0  0  0  0  0
  130.4470  124.3634   73.6782 H   0  0  0  0  0  0  0  0  0  0  0  0
  131.2510  125.3770   72.4319 H   0  0  0  0  0  0  0  0  0  0  0  0
  131.1004  128.7141   70.9620 H   0  0  0  0  0  0  0  0  0  0  0  0
  130.6340  129.3699   68.6117 H   0  0  0  0  0  0  0  0  0  0  0  0
  128.4050  127.9810   66.5310 H   0  0  0  0  0  0  0  0  0  0  0  0
  129.0780  129.3591   64.6708 H   0  0  0  0  0  0  0  0  0  0  0  0
  127.3455  129.8320   64.9247 H   0  0  0  0  0  0  0  0  0  0  0  0
  132.3755  131.4343   62.1933 H   0  0  0  0  0  0  0  0  0  0  0  0
  134.6645  131.1009   61.2796 H   0  0  0  0  0  0  0  0  0  0  0  0
  134.9844  130.6920   58.8452 H   0  0  0  0  0  0  0  0  0  0  0  0
  133.0183  130.6037   57.3190 H   0  0  0  0  0  0  0  0  0  0  0  0
  130.7277  130.9286   58.2282 H   0  0  0  0  0  0  0  0  0  0  0  0
  128.9771  131.4045   58.9262 H   0  0  0  0  0  0  0  0  0  0  0  0
  126.9043  127.1859   68.7368 H   0  0  0  0  0  0  0  0  0  0  0  0
  127.3663  126.5368   71.0896 H   0  0  0  0  0  0  0  0  0  0  0  0
  1  2  1  0
  2  3  1  0
  3  4  1  0
  4  5  2  0
  4  6  1  0
  6  7  2  0
  7  8  1  0
  8  9  2  0
  9 10  1  0
 10 11  1  0
 11 12  2  0
 11 13  1  0
 13 14  1  0
 14 15  1  0
 15 16  2  0
 16 17  1  0
 17 18  1  0
 18 19  2  0
 19 20  1  0
 20 21  2  0
 21 22  1  0
 22 23  2  0
 17 24  2  0
 24 25  1  0
 25 26  1  0
 26 27  1  0
 26 28  1  0
 26 29  1  0
 25 30  2  0
 30 31  1  0
 31 32  3  0
  9 33  1  0
 33 34  2  0
 34  6  1  0
 30 15  1  0
 23 18  1  0
  1 35  1  0
  1 36  1  0
  1 37  1  0
  2 38  1  0
  2 39  1  0
  7 40  1  0
  8 41  1  0
 10 42  1  0
 13 43  1  0
 13 44  1  0
 19 45  1  0
 20 46  1  0
 21 47  1  0
 22 48  1  0
 23 49  1  0
 24 50  1  0
 33 51  1  0
 34 52  1  0
M  END
>  <Binding energies>  (1) 
[-7.42]

>  <Ligand effiencies>  (1) 
[-0.212]

>  <Interactions>  (1) 
["V-A:HIS:456:CE1:4064, H-B:LYS:547:NZ:9919, V-A:GLU:543:CB:4901, V-B:HIS:456:CE1:9037, V-A:GLU:543:CG:4902, H-B:TYR:484:OH:9315, V-A:GLU:543:CD:4903, V-A:TYR:539:CE2:4871, V-A:GLU:543:C:4897, V-A:PRO:540:CA:4878, V-A:TYR:539:CD2:4869, V-A:LEU:363:CD1:3184, V-B:TYR:484:CE1:9312, V-B:TYR:484:CZ:9314, V-A:ASN:362:C:3167, V-A:LEU:363:CA:3180, V-A:PRO:540:CB:4880, H-A:LYS:547:NZ:4946, V-A:LEU:363:CB:3182, V-A:TYR:539:CZ:4872, V-A:TYR:539:CE1:4870, V-A:ASN:362:CB:3171, V-B:LYS:547:CE:9918"]

$$$$
3ab_Grossjean_2025
     RDKit          3D

 49 51  0  0  0  0  0  0  0  0999 V2000
  131.3810  118.2570   74.2680 C   0  0  0  0  0  0  0  0  0  0  0  0
  131.2280  119.4830   73.5660 O   0  0  0  0  0  0  0  0  0  0  0  0
  130.9180  120.6300   74.2230 C   0  0  0  0  0  0  0  0  0  0  0  0
  130.9510  120.7410   75.4520 O   0  0  0  0  0  0  0  0  0  0  0  0
  130.5330  121.7540   73.3040 C   0  0  0  0  0  0  0  0  0  0  0  0
  130.0310  121.5210   72.0140 C   0  0  0  0  0  0  0  0  0  0  0  0
  129.6810  122.5820   71.1850 C   0  0  0  0  0  0  0  0  0  0  0  0
  129.8290  123.9040   71.6330 C   0  0  0  0  0  0  0  0  0  0  0  0
  129.5030  125.0510   70.8840 N   0  0  0  0  0  0  0  0  0  0  0  0
  129.2020  126.2990   71.2990 C   0  0  0  0  0  0  0  0  0  0  0  0
  129.1450  126.6700   72.4710 O   0  0  0  0  0  0  0  0  0  0  0  0
  128.9120  127.3080   70.1850 C   0  0  0  0  0  0  0  0  0  0  0  0
  127.4010  126.8920   69.2620 S   0  0  0  0  0  0  0  0  0  0  0  0
  127.7320  127.1820   67.5370 C   0  0  0  0  0  0  0  0  0  0  0  0
  126.8940  128.0810   66.9690 N   0  0  0  0  0  0  0  0  0  0  0  0
  127.0360  128.4020   65.6570 C   0  0  0  0  0  0  0  0  0  0  0  0
  126.0700  129.4090   65.1050 C   0  0  0  0  0  0  0  0  0  0  0  0
  126.4380  130.2510   64.0440 C   0  0  0  0  0  0  0  0  0  0  0  0
  125.5460  131.1860   63.5270 C   0  0  0  0  0  0  0  0  0  0  0  0
  124.2680  131.2940   64.0670 C   0  0  0  0  0  0  0  0  0  0  0  0
  123.8790  130.4740   65.1210 C   0  0  0  0  0  0  0  0  0  0  0  0
  124.7750  129.5400   65.6350 C   0  0  0  0  0  0  0  0  0  0  0  0
  128.0260  127.7980   64.8750 C   0  0  0  0  0  0  0  0  0  0  0  0
  128.8930  126.8490   65.4350 C   0  0  0  0  0  0  0  0  0  0  0  0
  129.9670  126.2030   64.5380 C   0  0  0  0  0  0  0  0  0  0  0  0
  131.2080  126.4150   64.9820 F   0  0  0  0  0  0  0  0  0  0  0  0
  129.7840  124.8830   64.4800 F   0  0  0  0  0  0  0  0  0  0  0  0
  129.8900  126.7040   63.3040 F   0  0  0  0  0  0  0  0  0  0  0  0
  128.7430  126.5200   66.8050 C   0  0  0  0  0  0  0  0  0  0  0  0
  129.5850  125.4940   67.4260 C   0  0  0  0  0  0  0  0  0  0  0  0
  130.2520  124.6830   67.9140 N   0  0  0  0  0  0  0  0  0  0  0  0
  130.3220  124.1390   72.9180 C   0  0  0  0  0  0  0  0  0  0  0  0
  130.6730  123.0760   73.7450 C   0  0  0  0  0  0  0  0  0  0  0  0
  131.3570  118.4490   75.3508 H   0  0  0  0  0  0  0  0  0  0  0  0
  130.5610  117.5752   73.9983 H   0  0  0  0  0  0  0  0  0  0  0  0
  132.3434  117.7977   73.9983 H   0  0  0  0  0  0  0  0  0  0  0  0
  129.9130  120.4881   71.6546 H   0  0  0  0  0  0  0  0  0  0  0  0
  129.2877  122.3846   70.1769 H   0  0  0  0  0  0  0  0  0  0  0  0
  129.4580  124.8900   69.8880 H   0  0  0  0  0  0  0  0  0  0  0  0
  128.7910  128.3055   70.6325 H   0  0  0  0  0  0  0  0  0  0  0  0
  129.7563  127.2867   69.4802 H   0  0  0  0  0  0  0  0  0  0  0  0
  127.4474  130.1706   63.6143 H   0  0  0  0  0  0  0  0  0  0  0  0
  125.8502  131.8374   62.6944 H   0  0  0  0  0  0  0  0  0  0  0  0
  123.5618  132.0317   63.6582 H   0  0  0  0  0  0  0  0  0  0  0  0
  122.8685  130.5628   65.5465 H   0  0  0  0  0  0  0  0  0  0  0  0
  124.4641  128.8942   66.4695 H   0  0  0  0  0  0  0  0  0  0  0  0
  128.1250  128.0693   63.8136 H   0  0  0  0  0  0  0  0  0  0  0  0
  130.4338  125.1719   73.2794 H   0  0  0  0  0  0  0  0  0  0  0  0
  131.0637  123.2758   74.7537 H   0  0  0  0  0  0  0  0  0  0  0  0
  1  2  1  0
  2  3  1  0
  3  4  2  0
  3  5  1  0
  5  6  2  0
  6  7  1  0
  7  8  2  0
  8  9  1  0
  9 10  1  0
 10 11  2  0
 10 12  1  0
 12 13  1  0
 13 14  1  0
 14 15  2  0
 15 16  1  0
 16 17  1  0
 17 18  2  0
 18 19  1  0
 19 20  2  0
 20 21  1  0
 21 22  2  0
 16 23  2  0
 23 24  1  0
 24 25  1  0
 25 26  1  0
 25 27  1  0
 25 28  1  0
 24 29  2  0
 29 30  1  0
 30 31  3  0
  8 32  1  0
 32 33  2  0
 33  5  1  0
 29 14  1  0
 22 17  1  0
  1 34  1  0
  1 35  1  0
  1 36  1  0
  6 37  1  0
  7 38  1  0
  9 39  1  0
 12 40  1  0
 12 41  1  0
 18 42  1  0
 19 43  1  0
 20 44  1  0
 21 45  1  0
 22 46  1  0
 23 47  1  0
 32 48  1  0
 33 49  1  0
M  END
>  <Binding energies>  (1) 
[-7.0]

>  <Ligand effiencies>  (1) 
[-0.20588235294117646]

>  <Interactions>  (1) 
["V-B:GLU:543:CG:9875, H-B:GLU:543:O:9871, V-A:HIS:456:CE1:4064, H-B:LYS:547:NZ:9919, V-B:GLU:543:CB:9874, V-B:HIS:456:CE1:9037, V-B:GLU:543:C:9870, V-B:GLU:543:CA:9872, V-A:GLU:543:CD:4903, V-B:GLU:543:CD:9876, H-A:TYR:484:OH:4343, H-A:HIS:456:NE2:4065, V-A:TYR:484:CG:4337, V-A:TYR:484:CD1:4338, V-A:ASP:473:CG:4235, V-A:ASP:473:CB:4234, V-B:ARG:545:CD:9891, V-B:ARG:545:CZ:9894, V-A:TYR:484:CB:4336, V-A:TYR:484:C:4332, V-A:ASP:485:CA:4348, V-A:PRO:486:CD:4361, V-A:PRO:486:N:4358, V-A:ASP:485:C:4346, V-B:GLY:454:CA:9016, H-A:LYS:471:NZ:4216"]

$$$$
3ac_Grossjean_2025
     RDKit          3D

 47 49  0  0  0  0  0  0  0  0999 V2000
  133.5490  123.7700   57.0070 C   0  0  0  0  0  0  0  0  0  0  0  0
  132.4040  123.5760   57.8310 O   0  0  0  0  0  0  0  0  0  0  0  0
  132.4660  123.9250   59.1660 C   0  0  0  0  0  0  0  0  0  0  0  0
  131.6720  124.9990   59.5660 C   0  0  0  0  0  0  0  0  0  0  0  0
  131.6650  125.4200   60.8920 C   0  0  0  0  0  0  0  0  0  0  0  0
  132.4640  124.7770   61.8400 C   0  0  0  0  0  0  0  0  0  0  0  0
  132.3750  125.2610   63.1580 N   0  0  0  0  0  0  0  0  0  0  0  0
  133.2670  125.1540   64.1660 C   0  0  0  0  0  0  0  0  0  0  0  0
  134.3760  124.6260   64.0820 O   0  0  0  0  0  0  0  0  0  0  0  0
  132.8260  125.7520   65.5030 C   0  0  0  0  0  0  0  0  0  0  0  0
  131.1980  125.1340   66.0300 S   0  0  0  0  0  0  0  0  0  0  0  0
  130.1290  126.5270   66.3370 C   0  0  0  0  0  0  0  0  0  0  0  0
  129.9970  126.8180   67.6530 N   0  0  0  0  0  0  0  0  0  0  0  0
  129.2170  127.8600   68.0410 C   0  0  0  0  0  0  0  0  0  0  0  0
  129.1180  128.1090   69.5170 C   0  0  0  0  0  0  0  0  0  0  0  0
  127.9640  127.7480   70.2310 C   0  0  0  0  0  0  0  0  0  0  0  0
  127.8680  127.9720   71.6010 C   0  0  0  0  0  0  0  0  0  0  0  0
  128.9290  128.5640   72.2790 C   0  0  0  0  0  0  0  0  0  0  0  0
  130.0810  128.9360   71.5960 C   0  0  0  0  0  0  0  0  0  0  0  0
  130.1730  128.7100   70.2250 C   0  0  0  0  0  0  0  0  0  0  0  0
  128.5310  128.6310   67.0990 C   0  0  0  0  0  0  0  0  0  0  0  0
  128.6330  128.3380   65.7310 C   0  0  0  0  0  0  0  0  0  0  0  0
  127.8550  129.2100   64.7260 C   0  0  0  0  0  0  0  0  0  0  0  0
  128.6360  129.7240   63.7730 F   0  0  0  0  0  0  0  0  0  0  0  0
  126.9130  128.4870   64.1190 F   0  0  0  0  0  0  0  0  0  0  0  0
  127.2740  130.2270   65.3640 F   0  0  0  0  0  0  0  0  0  0  0  0
  129.4430  127.2460   65.3300 C   0  0  0  0  0  0  0  0  0  0  0  0
  129.5190  126.8540   63.9220 C   0  0  0  0  0  0  0  0  0  0  0  0
  129.5780  126.5440   62.8080 N   0  0  0  0  0  0  0  0  0  0  0  0
  133.2610  123.6910   61.4470 C   0  0  0  0  0  0  0  0  0  0  0  0
  133.2640  123.2710   60.1190 C   0  0  0  0  0  0  0  0  0  0  0  0
  134.4355  123.9202   57.6406 H   0  0  0  0  0  0  0  0  0  0  0  0
  133.6980  122.8843   56.3719 H   0  0  0  0  0  0  0  0  0  0  0  0
  133.3980  124.6554   56.3719 H   0  0  0  0  0  0  0  0  0  0  0  0
  131.0452  125.5184   58.8262 H   0  0  0  0  0  0  0  0  0  0  0  0
  131.0271  126.2633   61.1952 H   0  0  0  0  0  0  0  0  0  0  0  0
  131.5450  125.8030   63.3490 H   0  0  0  0  0  0  0  0  0  0  0  0
  133.5694  125.4903   66.2703 H   0  0  0  0  0  0  0  0  0  0  0  0
  132.7480  126.8418   65.3757 H   0  0  0  0  0  0  0  0  0  0  0  0
  127.1224  127.2806   69.6988 H   0  0  0  0  0  0  0  0  0  0  0  0
  126.9572  127.6823   72.1456 H   0  0  0  0  0  0  0  0  0  0  0  0
  128.8557  128.7388   73.3625 H   0  0  0  0  0  0  0  0  0  0  0  0
  130.9159  129.4066   72.1358 H   0  0  0  0  0  0  0  0  0  0  0  0
  131.0858  129.0065   69.6876 H   0  0  0  0  0  0  0  0  0  0  0  0
  127.9069  129.4732   67.4324 H   0  0  0  0  0  0  0  0  0  0  0  0
  133.8844  123.1705   62.1889 H   0  0  0  0  0  0  0  0  0  0  0  0
  133.8947  122.4226   59.8150 H   0  0  0  0  0  0  0  0  0  0  0  0
  1  2  1  0
  2  3  1  0
  3  4  2  0
  4  5  1  0
  5  6  2  0
  6  7  1  0
  7  8  1  0
  8  9  2  0
  8 10  1  0
 10 11  1  0
 11 12  1  0
 12 13  2  0
 13 14  1  0
 14 15  1  0
 15 16  2  0
 16 17  1  0
 17 18  2  0
 18 19  1  0
 19 20  2  0
 14 21  2  0
 21 22  1  0
 22 23  1  0
 23 24  1  0
 23 25  1  0
 23 26  1  0
 22 27  2  0
 27 28  1  0
 28 29  3  0
  6 30  1  0
 30 31  2  0
 31  3  1  0
 27 12  1  0
 20 15  1  0
  1 32  1  0
  1 33  1  0
  1 34  1  0
  4 35  1  0
  5 36  1  0
  7 37  1  0
 10 38  1  0
 10 39  1  0
 16 40  1  0
 17 41  1  0
 18 42  1  0
 19 43  1  0
 20 44  1  0
 21 45  1  0
 30 46  1  0
 31 47  1  0
M  END
>  <Binding energies>  (1) 
[-6.59]

>  <Ligand effiencies>  (1) 
[-0.2059375]

>  <Interactions>  (1) 
["V-A:HIS:456:CE1:4064, V-B:TYR:539:CE2:9844, V-A:ILE:369:CD1:3234, V-B:TYR:539:CZ:9845, V-A:ASP:366:CG:3208, V-B:HIS:456:CE1:9037, V-A:ASP:366:CB:3207, V-A:ASP:366:C:3203, V-A:GLU:543:CG:4902, V-A:GLU:543:CD:4903, V-B:GLU:543:CD:9876, H-A:ARG:545:NH1:4922, H-A:TYR:484:OH:4343, H-A:GLY:454:N:4045, V-A:ARG:545:CZ:4921, H-A:HIS:456:NE2:4065, V-A:GLU:543:C:4897, V-B:HIS:456:CD2:9035, V-B:TYR:484:CZ:9314, V-A:ARG:545:CD:4918, H-B:TYR:539:OH:9846"]

$$$$
3ad_Grossjean_2025
     RDKit          3D

 43 45  0  0  0  0  0  0  0  0999 V2000
  133.6370  119.7060   60.4650 N   0  0  0  0  0  0  0  0  0  0  0  0
  132.6760  120.3440   60.5620 C   0  0  0  0  0  0  0  0  0  0  0  0
  131.4560  121.1480   60.6850 C   0  0  0  0  0  0  0  0  0  0  0  0
  130.1870  120.5270   60.7880 C   0  0  0  0  0  0  0  0  0  0  0  0
  130.0090  118.9980   60.8230 C   0  0  0  0  0  0  0  0  0  0  0  0
  130.7970  118.4040   61.7210 F   0  0  0  0  0  0  0  0  0  0  0  0
  128.7470  118.6940   61.1320 F   0  0  0  0  0  0  0  0  0  0  0  0
  130.3000  118.4750   59.6310 F   0  0  0  0  0  0  0  0  0  0  0  0
  129.0470  121.3420   60.8560 C   0  0  0  0  0  0  0  0  0  0  0  0
  129.1690  122.7350   60.8190 C   0  0  0  0  0  0  0  0  0  0  0  0
  127.9830  123.6520   60.8740 C   0  0  0  0  0  0  0  0  0  0  0  0
  126.6910  123.1420   61.0720 C   0  0  0  0  0  0  0  0  0  0  0  0
  125.5860  123.9870   61.1240 C   0  0  0  0  0  0  0  0  0  0  0  0
  125.7600  125.3600   60.9790 C   0  0  0  0  0  0  0  0  0  0  0  0
  127.0300  125.8910   60.7850 C   0  0  0  0  0  0  0  0  0  0  0  0
  128.1330  125.0420   60.7340 C   0  0  0  0  0  0  0  0  0  0  0  0
  130.3870  123.3250   60.7140 N   0  0  0  0  0  0  0  0  0  0  0  0
  131.5030  122.5600   60.6680 C   0  0  0  0  0  0  0  0  0  0  0  0
  133.0080  123.5000   60.5430 S   0  0  0  0  0  0  0  0  0  0  0  0
  133.8840  123.3290   62.1270 C   0  0  0  0  0  0  0  0  0  0  0  0
  133.2920  124.2270   63.2150 C   0  0  0  0  0  0  0  0  0  0  0  0
  134.0260  124.6430   64.1130 O   0  0  0  0  0  0  0  0  0  0  0  0
  131.9740  124.4950   63.0930 N   0  0  0  0  0  0  0  0  0  0  0  0
  131.1360  125.2850   63.9010 C   0  0  0  0  0  0  0  0  0  0  0  0
  131.1580  124.9880   65.2670 C   0  0  0  0  0  0  0  0  0  0  0  0
  130.3630  125.7070   66.1560 C   0  0  0  0  0  0  0  0  0  0  0  0
  129.5390  126.7230   65.6780 C   0  0  0  0  0  0  0  0  0  0  0  0
  129.5020  127.0240   64.3190 C   0  0  0  0  0  0  0  0  0  0  0  0
  130.2960  126.3070   63.4270 C   0  0  0  0  0  0  0  0  0  0  0  0
  128.0510  120.8826   60.9389 H   0  0  0  0  0  0  0  0  0  0  0  0
  126.5490  122.0574   61.1880 H   0  0  0  0  0  0  0  0  0  0  0  0
  124.5795  123.5711   61.2791 H   0  0  0  0  0  0  0  0  0  0  0  0
  124.8877  126.0290   61.0181 H   0  0  0  0  0  0  0  0  0  0  0  0
  127.1633  126.9771   60.6722 H   0  0  0  0  0  0  0  0  0  0  0  0
  129.1365  125.4660   60.5818 H   0  0  0  0  0  0  0  0  0  0  0  0
  133.8177  122.2818   62.4572 H   0  0  0  0  0  0  0  0  0  0  0  0
  134.9291  123.6338   61.9694 H   0  0  0  0  0  0  0  0  0  0  0  0
  131.4970  124.0350   62.3310 H   0  0  0  0  0  0  0  0  0  0  0  0
  131.8066  124.1823   65.6414 H   0  0  0  0  0  0  0  0  0  0  0  0
  130.3857  125.4736   67.2307 H   0  0  0  0  0  0  0  0  0  0  0  0
  128.9121  127.2925   66.3800 H   0  0  0  0  0  0  0  0  0  0  0  0
  128.8467  127.8269   63.9504 H   0  0  0  0  0  0  0  0  0  0  0  0
  130.2655  126.5406   62.3525 H   0  0  0  0  0  0  0  0  0  0  0  0
  1  2  3  0
  2  3  1  0
  3  4  2  0
  4  5  1  0
  5  6  1  0
  5  7  1  0
  5  8  1  0
  4  9  1  0
  9 10  2  0
 10 11  1  0
 11 12  2  0
 12 13  1  0
 13 14  2  0
 14 15  1  0
 15 16  2  0
 10 17  1  0
 17 18  2  0
 18 19  1  0
 19 20  1  0
 20 21  1  0
 21 22  2  0
 21 23  1  0
 23 24  1  0
 24 25  2  0
 25 26  1  0
 26 27  2  0
 27 28  1  0
 28 29  2  0
 18  3  1  0
 29 24  1  0
 16 11  1  0
  9 30  1  0
 12 31  1  0
 13 32  1  0
 14 33  1  0
 15 34  1  0
 16 35  1  0
 20 36  1  0
 20 37  1  0
 23 38  1  0
 25 39  1  0
 26 40  1  0
 27 41  1  0
 28 42  1  0
 29 43  1  0
M  END
>  <Binding energies>  (1) 
[-6.79]

>  <Ligand effiencies>  (1) 
[-0.22633333333333333]

>  <Interactions>  (1) 
["V-B:PRO:540:C:9849, V-A:TRP:381:CD2:3360, V-A:TRP:381:CZ3:3366, V-A:PRO:482:CG:4322, V-B:TYR:539:CB:9839, V-A:TRP:381:CZ2:3365, V-B:ALA:541:CB:9860, V-B:ALA:541:CA:9858, V-A:TRP:381:CE3:3363, V-A:TRP:381:CH2:3367, V-B:TYR:539:C:9835, V-B:TYR:539:CD2:9842, V-A:LEU:475:CD2:4254, V-A:TRP:381:CE2:3362, V-A:PRO:482:CB:4321, V-B:TYR:539:CE2:9844, V-A:ILE:369:CD1:3234, V-A:GLU:543:CD:4903, V-B:GLU:543:CD:9876, V-A:ILE:369:CG2:3232, H-A:TYR:484:OH:4343, H-A:GLY:454:N:4045, V-B:PRO:540:CB:9853, V-B:PRO:540:CA:9851, V-A:LEU:475:CD1:4253, V-B:ASP:366:CG:8180, V-B:TYR:539:CG:9840, V-A:LEU:475:CG:4252"]

$$$$
3af_Grossjean_2025
     RDKit          3D

 42 44  0  0  0  0  0  0  0  0999 V2000
  133.6350  119.7310   60.3300 N   0  0  0  0  0  0  0  0  0  0  0  0
  132.6780  120.3720   60.4490 C   0  0  0  0  0  0  0  0  0  0  0  0
  131.4660  121.1810   60.5990 C   0  0  0  0  0  0  0  0  0  0  0  0
  130.1990  120.5640   60.7440 C   0  0  0  0  0  0  0  0  0  0  0  0
  130.0200  119.0340   60.8020 C   0  0  0  0  0  0  0  0  0  0  0  0
  130.8150  118.4530   61.7040 F   0  0  0  0  0  0  0  0  0  0  0  0
  128.7610  118.7360   61.1250 F   0  0  0  0  0  0  0  0  0  0  0  0
  130.3030  118.4950   59.6160 F   0  0  0  0  0  0  0  0  0  0  0  0
  129.0610  121.3810   60.8300 C   0  0  0  0  0  0  0  0  0  0  0  0
  129.1850  122.7730   60.7710 C   0  0  0  0  0  0  0  0  0  0  0  0
  128.0010  123.6920   60.8390 C   0  0  0  0  0  0  0  0  0  0  0  0
  126.7090  123.1830   61.0480 C   0  0  0  0  0  0  0  0  0  0  0  0
  125.6070  124.0320   61.1150 C   0  0  0  0  0  0  0  0  0  0  0  0
  125.7830  125.4030   60.9730 C   0  0  0  0  0  0  0  0  0  0  0  0
  127.0530  125.9340   60.7680 C   0  0  0  0  0  0  0  0  0  0  0  0
  128.1520  125.0820   60.7020 C   0  0  0  0  0  0  0  0  0  0  0  0
  130.4000  123.3600   60.6280 N   0  0  0  0  0  0  0  0  0  0  0  0
  131.5160  122.5930   60.5660 C   0  0  0  0  0  0  0  0  0  0  0  0
  133.0150  123.5410   60.3950 S   0  0  0  0  0  0  0  0  0  0  0  0
  134.0120  123.2900   61.8940 C   0  0  0  0  0  0  0  0  0  0  0  0
  133.5210  124.1520   63.0560 C   0  0  0  0  0  0  0  0  0  0  0  0
  134.3420  124.6220   63.8430 O   0  0  0  0  0  0  0  0  0  0  0  0
  132.1820  124.3230   63.1230 N   0  0  0  0  0  0  0  0  0  0  0  0
  131.4150  125.0430   64.0600 C   0  0  0  0  0  0  0  0  0  0  0  0
  130.2620  125.7960   63.7710 C   0  0  0  0  0  0  0  0  0  0  0  0
  129.5980  126.4650   64.8020 C   0  0  0  0  0  0  0  0  0  0  0  0
  130.1040  126.3650   66.0990 C   0  0  0  0  0  0  0  0  0  0  0  0
  131.2120  125.6450   66.4030 N   0  0  0  0  0  0  0  0  0  0  0  0
  131.8460  125.0010   65.3900 C   0  0  0  0  0  0  0  0  0  0  0  0
  128.0668  120.9244   60.9444 H   0  0  0  0  0  0  0  0  0  0  0  0
  126.5653  122.0982   61.1604 H   0  0  0  0  0  0  0  0  0  0  0  0
  124.6010  123.6187   61.2797 H   0  0  0  0  0  0  0  0  0  0  0  0
  124.9123  126.0734   61.0230 H   0  0  0  0  0  0  0  0  0  0  0  0
  127.1876  127.0203   60.6588 H   0  0  0  0  0  0  0  0  0  0  0  0
  129.1548  125.5040   60.5400 H   0  0  0  0  0  0  0  0  0  0  0  0
  133.9533  122.2314   62.1870 H   0  0  0  0  0  0  0  0  0  0  0  0
  135.0480  123.5819   61.6671 H   0  0  0  0  0  0  0  0  0  0  0  0
  131.6410  123.8800   62.3970 H   0  0  0  0  0  0  0  0  0  0  0  0
  129.8857  125.8575   62.7392 H   0  0  0  0  0  0  0  0  0  0  0  0
  128.6950  127.0584   64.5960 H   0  0  0  0  0  0  0  0  0  0  0  0
  129.5811  126.8933   66.9098 H   0  0  0  0  0  0  0  0  0  0  0  0
  132.7462  124.4152   65.6277 H   0  0  0  0  0  0  0  0  0  0  0  0
  1  2  3  0
  2  3  1  0
  3  4  2  0
  4  5  1  0
  5  6  1  0
  5  7  1  0
  5  8  1  0
  4  9  1  0
  9 10  2  0
 10 11  1  0
 11 12  2  0
 12 13  1  0
 13 14  2  0
 14 15  1  0
 15 16  2  0
 10 17  1  0
 17 18  2  0
 18 19  1  0
 19 20  1  0
 20 21  1  0
 21 22  2  0
 21 23  1  0
 23 24  1  0
 24 25  2  0
 25 26  1  0
 26 27  2  0
 27 28  1  0
 28 29  2  0
 18  3  1  0
 29 24  1  0
 16 11  1  0
  9 30  1  0
 12 31  1  0
 13 32  1  0
 14 33  1  0
 15 34  1  0
 16 35  1  0
 20 36  1  0
 20 37  1  0
 23 38  1  0
 25 39  1  0
 26 40  1  0
 27 41  1  0
 29 42  1  0
M  END
>  <Binding energies>  (1) 
[-6.76]

>  <Ligand effiencies>  (1) 
[-0.22533333333333333]

>  <Interactions>  (1) 
["V-B:PRO:540:C:9849, V-B:GLU:543:CG:9875, V-A:TRP:381:CZ3:3366, V-A:PRO:482:CG:4322, V-B:TYR:539:CB:9839, V-A:TRP:381:CZ2:3365, V-B:ALA:541:CB:9860, V-B:ALA:541:CA:9858, V-A:TRP:381:CE3:3363, V-A:TRP:381:CH2:3367, V-B:TYR:539:C:9835, V-B:TYR:539:CD2:9842, V-A:LEU:475:CD2:4254, V-A:TRP:381:CE2:3362, V-A:PRO:482:CB:4321, V-B:TYR:539:CE2:9844, V-A:ILE:369:CD1:3234, V-A:TYR:484:CZ:4342, V-B:GLU:543:CD:9876, H-A:ARG:545:NH1:4922, V-A:ILE:369:CG2:3232, H-A:TYR:484:OH:4343, H-A:GLY:454:N:4045, V-B:PRO:540:CB:9853, V-B:PRO:540:CA:9851, H-A:HIS:456:NE2:4065, V-A:LEU:475:CD1:4253, V-B:ASP:366:CG:8180, V-B:TYR:539:CG:9840, V-A:LEU:475:CG:4252"]

$$$$
3ag_Grossjean_2025
     RDKit          3D

 46 48  0  0  0  0  0  0  0  0999 V2000
  128.6890  128.1760   66.6380 N   0  0  0  0  0  0  0  0  0  0  0  0
  128.9710  127.3510   67.4000 C   0  0  0  0  0  0  0  0  0  0  0  0
  129.3280  126.3050   68.3620 C   0  0  0  0  0  0  0  0  0  0  0  0
  129.8550  125.0660   67.9220 C   0  0  0  0  0  0  0  0  0  0  0  0
  130.1370  124.7620   66.4370 C   0  0  0  0  0  0  0  0  0  0  0  0
  131.3840  125.0650   66.0750 F   0  0  0  0  0  0  0  0  0  0  0  0
  129.9530  123.4640   66.1970 F   0  0  0  0  0  0  0  0  0  0  0  0
  129.3140  125.4670   65.6600 F   0  0  0  0  0  0  0  0  0  0  0  0
  130.1310  124.0760   68.8780 C   0  0  0  0  0  0  0  0  0  0  0  0
  129.8780  124.3130   70.2330 C   0  0  0  0  0  0  0  0  0  0  0  0
  130.1510  123.2920   71.2960 C   0  0  0  0  0  0  0  0  0  0  0  0
  129.1300  122.8630   72.1580 C   0  0  0  0  0  0  0  0  0  0  0  0
  129.3770  121.9150   73.1470 C   0  0  0  0  0  0  0  0  0  0  0  0
  130.6540  121.3810   73.2880 C   0  0  0  0  0  0  0  0  0  0  0  0
  131.6850  121.7910   72.4480 C   0  0  0  0  0  0  0  0  0  0  0  0
  131.4340  122.7400   71.4610 C   0  0  0  0  0  0  0  0  0  0  0  0
  129.3850  125.5070   70.6530 N   0  0  0  0  0  0  0  0  0  0  0  0
  129.1290  126.4830   69.7490 C   0  0  0  0  0  0  0  0  0  0  0  0
  128.4920  127.9760   70.4780 S   0  0  0  0  0  0  0  0  0  0  0  0
  129.8190  128.6920   71.4940 C   0  0  0  0  0  0  0  0  0  0  0  0
  129.9980  127.9480   72.8180 C   0  0  0  0  0  0  0  0  0  0  0  0
  129.5670  128.4400   73.8630 O   0  0  0  0  0  0  0  0  0  0  0  0
  130.6290  126.7620   72.7570 N   0  0  0  0  0  0  0  0  0  0  0  0
  130.8750  125.8720   73.8900 C   0  0  0  0  0  0  0  0  0  0  0  0
  132.3380  125.7900   74.3120 C   0  0  0  0  0  0  0  0  0  0  0  0
  132.7940  124.6780   75.0250 C   0  0  0  0  0  0  0  0  0  0  0  0
  134.1360  124.5860   75.3860 C   0  0  0  0  0  0  0  0  0  0  0  0
  135.0190  125.6010   75.0240 C   0  0  0  0  0  0  0  0  0  0  0  0
  134.5740  126.7050   74.3000 C   0  0  0  0  0  0  0  0  0  0  0  0
  133.2330  126.7980   73.9380 C   0  0  0  0  0  0  0  0  0  0  0  0
  130.5483  123.1092   68.5600 H   0  0  0  0  0  0  0  0  0  0  0  0
  128.1188  123.2824   72.0505 H   0  0  0  0  0  0  0  0  0  0  0  0
  128.5656  121.5893   73.8145 H   0  0  0  0  0  0  0  0  0  0  0  0
  130.8498  120.6304   74.0679 H   0  0  0  0  0  0  0  0  0  0  0  0
  132.6935  121.3672   72.5634 H   0  0  0  0  0  0  0  0  0  0  0  0
  132.2517  123.0631   70.8000 H   0  0  0  0  0  0  0  0  0  0  0  0
  130.7622  128.6436   70.9301 H   0  0  0  0  0  0  0  0  0  0  0  0
  129.5438  129.7316   71.7253 H   0  0  0  0  0  0  0  0  0  0  0  0
  130.9420  126.4300   71.8560 H   0  0  0  0  0  0  0  0  0  0  0  0
  130.2881  126.2339   74.7471 H   0  0  0  0  0  0  0  0  0  0  0  0
  130.5806  124.8618   73.5692 H   0  0  0  0  0  0  0  0  0  0  0  0
  132.0936  123.8760   75.3009 H   0  0  0  0  0  0  0  0  0  0  0  0
  134.4970  123.7161   75.9542 H   0  0  0  0  0  0  0  0  0  0  0  0
  136.0781  125.5300   75.3127 H   0  0  0  0  0  0  0  0  0  0  0  0
  135.2793  127.4998   74.0156 H   0  0  0  0  0  0  0  0  0  0  0  0
  132.8776  127.6629   73.3587 H   0  0  0  0  0  0  0  0  0  0  0  0
  1  2  3  0
  2  3  1  0
  3  4  2  0
  4  5  1  0
  5  6  1  0
  5  7  1  0
  5  8  1  0
  4  9  1  0
  9 10  2  0
 10 11  1  0
 11 12  2  0
 12 13  1  0
 13 14  2  0
 14 15  1  0
 15 16  2  0
 10 17  1  0
 17 18  2  0
 18 19  1  0
 19 20  1  0
 20 21  1  0
 21 22  2  0
 21 23  1  0
 23 24  1  0
 24 25  1  0
 25 26  2  0
 26 27  1  0
 27 28  2  0
 28 29  1  0
 29 30  2  0
 18  3  1  0
 30 25  1  0
 16 11  1  0
  9 31  1  0
 12 32  1  0
 13 33  1  0
 14 34  1  0
 15 35  1  0
 16 36  1  0
 20 37  1  0
 20 38  1  0
 23 39  1  0
 24 40  1  0
 24 41  1  0
 26 42  1  0
 27 43  1  0
 28 44  1  0
 29 45  1  0
 30 46  1  0
M  END
>  <Binding energies>  (1) 
[-6.79]

>  <Ligand effiencies>  (1) 
[-0.21903225806451612]

>  <Interactions>  (1) 
["V-B:GLU:543:CG:9875, V-A:HIS:456:CE1:4064, H-B:LYS:547:NZ:9919, V-B:GLU:543:CB:9874, V-A:TYR:484:CZ:4342, V-B:GLU:543:C:9870, V-A:TYR:484:CE1:4340, V-B:GLU:543:CA:9872, V-B:GLU:543:CD:9876, V-A:TYR:484:CG:4337, H-A:HIS:456:ND1:4062, V-A:TYR:484:CD1:4338, V-A:LYS:547:CE:4945, V-A:ASP:473:CG:4235, V-A:HIS:456:CG:4061, V-A:ASP:473:CB:4234, V-A:HIS:456:CB:4060, H-A:LYS:547:NZ:4946, V-A:HIS:456:CD2:4063, V-A:TYR:484:CB:4336, V-A:HIS:456:C:4056, V-A:VAL:457:C:4068, V-A:LYS:547:CD:4944, V-A:VAL:458:CG2:4082, V-A:LYS:547:CG:4943, V-A:VAL:457:CA:4070, V-A:TYR:484:CE2:4341, V-A:TYR:484:CD2:4339, V-A:ARG:545:C:4912"]

$$$$
3ai_Grossjean_2025
     RDKit          3D

 39 41  0  0  0  0  0  0  0  0999 V2000
  131.8280  125.2110   66.3870 N   0  0  0  0  0  0  0  0  0  0  0  0
  130.8650  125.7910   66.1110 C   0  0  0  0  0  0  0  0  0  0  0  0
  129.6450  126.5250   65.7610 C   0  0  0  0  0  0  0  0  0  0  0  0
  129.4070  126.9390   64.4280 C   0  0  0  0  0  0  0  0  0  0  0  0
  130.3720  126.6130   63.2710 C   0  0  0  0  0  0  0  0  0  0  0  0
  130.1120  127.3170   62.1670 F   0  0  0  0  0  0  0  0  0  0  0  0
  131.6260  126.8840   63.6350 F   0  0  0  0  0  0  0  0  0  0  0  0
  130.2830  125.3220   62.9500 F   0  0  0  0  0  0  0  0  0  0  0  0
  128.2480  127.6810   64.1530 C   0  0  0  0  0  0  0  0  0  0  0  0
  127.3540  128.0020   65.1790 C   0  0  0  0  0  0  0  0  0  0  0  0
  126.1070  128.8000   64.9440 C   0  0  0  0  0  0  0  0  0  0  0  0
  125.7500  129.2080   63.6490 C   0  0  0  0  0  0  0  0  0  0  0  0
  124.5920  129.9460   63.4230 C   0  0  0  0  0  0  0  0  0  0  0  0
  123.7700  130.2850   64.4920 C   0  0  0  0  0  0  0  0  0  0  0  0
  124.0990  129.8910   65.7850 C   0  0  0  0  0  0  0  0  0  0  0  0
  125.2580  129.1540   66.0070 C   0  0  0  0  0  0  0  0  0  0  0  0
  127.5900  127.6110   66.4570 N   0  0  0  0  0  0  0  0  0  0  0  0
  128.6900  126.8730   66.7430 C   0  0  0  0  0  0  0  0  0  0  0  0
  128.8210  126.4330   68.4640 S   0  0  0  0  0  0  0  0  0  0  0  0
  129.7630  127.7490   69.3080 C   0  0  0  0  0  0  0  0  0  0  0  0
  129.3680  127.9930   70.7720 C   0  0  0  0  0  0  0  0  0  0  0  0
  128.9030  127.0810   71.4600 O   0  0  0  0  0  0  0  0  0  0  0  0
  129.5720  129.2560   71.2080 N   0  0  0  0  0  0  0  0  0  0  0  0
  129.3150  129.7590   72.4770 C   0  0  0  0  0  0  0  0  0  0  0  0
  129.2320  131.1230   72.7540 C   0  0  0  0  0  0  0  0  0  0  0  0
  128.9720  131.2000   74.1030 C   0  0  0  0  0  0  0  0  0  0  0  0
  128.9020  129.9480   74.6130 O   0  0  0  0  0  0  0  0  0  0  0  0
  129.1200  129.0430   73.5720 N   0  0  0  0  0  0  0  0  0  0  0  0
  128.0417  128.0119   63.1244 H   0  0  0  0  0  0  0  0  0  0  0  0
  126.3957  128.9402   62.7997 H   0  0  0  0  0  0  0  0  0  0  0  0
  124.3279  130.2600   62.4024 H   0  0  0  0  0  0  0  0  0  0  0  0
  122.8543  130.8681   64.3143 H   0  0  0  0  0  0  0  0  0  0  0  0
  123.4458  130.1609   66.6279 H   0  0  0  0  0  0  0  0  0  0  0  0
  125.5141  128.8434   67.0307 H   0  0  0  0  0  0  0  0  0  0  0  0
  130.8283  127.4758   69.2829 H   0  0  0  0  0  0  0  0  0  0  0  0
  129.5385  128.6815   68.7695 H   0  0  0  0  0  0  0  0  0  0  0  0
  129.9570  129.9170   70.5500 H   0  0  0  0  0  0  0  0  0  0  0  0
  129.3491  131.9574   72.0468 H   0  0  0  0  0  0  0  0  0  0  0  0
  128.8418  132.1302   74.6755 H   0  0  0  0  0  0  0  0  0  0  0  0
  1  2  3  0
  2  3  1  0
  3  4  2  0
  4  5  1  0
  5  6  1  0
  5  7  1  0
  5  8  1  0
  4  9  1  0
  9 10  2  0
 10 11  1  0
 11 12  2  0
 12 13  1  0
 13 14  2  0
 14 15  1  0
 15 16  2  0
 10 17  1  0
 17 18  2  0
 18 19  1  0
 19 20  1  0
 20 21  1  0
 21 22  2  0
 21 23  1  0
 23 24  1  0
 24 25  1  0
 25 26  2  0
 26 27  1  0
 27 28  1  0
 18  3  1  0
 28 24  2  0
 16 11  1  0
  9 29  1  0
 12 30  1  0
 13 31  1  0
 14 32  1  0
 15 33  1  0
 16 34  1  0
 20 35  1  0
 20 36  1  0
 23 37  1  0
 25 38  1  0
 26 39  1  0
M  END
>  <Binding energies>  (1) 
[-7.54]

>  <Ligand effiencies>  (1) 
[-0.26]

>  <Interactions>  (1) 
["V-B:GLU:543:CG:9875, V-A:HIS:456:CE1:4064, H-B:LYS:547:NZ:9919, V-B:GLU:543:CB:9874, V-B:HIS:456:CE1:9037, H-B:HIS:456:NE2:9038, V-A:GLU:543:CD:4903, V-B:GLU:543:CD:9876, H-A:TYR:484:OH:4343, V-A:ARG:545:CZ:4921, H-A:HIS:456:NE2:4065, V-B:ARG:545:CG:9890, V-A:LYS:547:CE:4945, V-B:HIS:456:CD2:9035, H-A:GLU:543:O:4898, V-B:ARG:545:CD:9891, H-A:LYS:547:NZ:4946, V-B:ARG:545:CZ:9894, V-B:GLY:453:CA:9011"]

$$$$
3aj_Grossjean_2025
     RDKit          3D

 39 41  0  0  0  0  0  0  0  0999 V2000
  132.2830  125.5180   66.3750 N   0  0  0  0  0  0  0  0  0  0  0  0
  131.3020  126.0900   66.1560 C   0  0  0  0  0  0  0  0  0  0  0  0
  130.0580  126.8140   65.8750 C   0  0  0  0  0  0  0  0  0  0  0  0
  129.5140  126.8380   64.5680 C   0  0  0  0  0  0  0  0  0  0  0  0
  130.1540  126.0830   63.3860 C   0  0  0  0  0  0  0  0  0  0  0  0
  130.2500  124.7690   63.6020 F   0  0  0  0  0  0  0  0  0  0  0  0
  129.4250  126.2580   62.2840 F   0  0  0  0  0  0  0  0  0  0  0  0
  131.3870  126.5420   63.1660 F   0  0  0  0  0  0  0  0  0  0  0  0
  128.3470  127.5840   64.3410 C   0  0  0  0  0  0  0  0  0  0  0  0
  127.7450  128.2900   65.3880 C   0  0  0  0  0  0  0  0  0  0  0  0
  126.5050  129.1100   65.1980 C   0  0  0  0  0  0  0  0  0  0  0  0
  125.3820  128.9090   66.0160 C   0  0  0  0  0  0  0  0  0  0  0  0
  124.2280  129.6710   65.8480 C   0  0  0  0  0  0  0  0  0  0  0  0
  124.1820  130.6460   64.8560 C   0  0  0  0  0  0  0  0  0  0  0  0
  125.2830  130.8650   64.0340 C   0  0  0  0  0  0  0  0  0  0  0  0
  126.4340  130.1030   64.2070 C   0  0  0  0  0  0  0  0  0  0  0  0
  128.2750  128.2700   66.6370 N   0  0  0  0  0  0  0  0  0  0  0  0
  129.3860  127.5380   66.8870 C   0  0  0  0  0  0  0  0  0  0  0  0
  129.9210  127.6140   68.5820 S   0  0  0  0  0  0  0  0  0  0  0  0
  128.4690  127.2950   69.6410 C   0  0  0  0  0  0  0  0  0  0  0  0
  128.7870  126.6700   71.0080 C   0  0  0  0  0  0  0  0  0  0  0  0
  128.5340  127.2750   72.0530 O   0  0  0  0  0  0  0  0  0  0  0  0
  129.3470  125.4410   70.9500 N   0  0  0  0  0  0  0  0  0  0  0  0
  129.7260  124.6510   72.0280 C   0  0  0  0  0  0  0  0  0  0  0  0
  129.5170  124.8770   73.3070 N   0  0  0  0  0  0  0  0  0  0  0  0
  130.0110  123.9120   74.0570 C   0  0  0  0  0  0  0  0  0  0  0  0
  130.6400  122.8690   73.3820 C   0  0  0  0  0  0  0  0  0  0  0  0
  130.5770  123.1820   71.6740 S   0  0  0  0  0  0  0  0  0  0  0  0
  127.9035  127.6137   63.3348 H   0  0  0  0  0  0  0  0  0  0  0  0
  125.4137  128.1389   66.8008 H   0  0  0  0  0  0  0  0  0  0  0  0
  123.3561  129.5026   66.4972 H   0  0  0  0  0  0  0  0  0  0  0  0
  123.2704  131.2467   64.7211 H   0  0  0  0  0  0  0  0  0  0  0  0
  125.2436  131.6368   63.2512 H   0  0  0  0  0  0  0  0  0  0  0  0
  127.3032  130.2811   63.5568 H   0  0  0  0  0  0  0  0  0  0  0  0
  127.9563  128.2526   69.8146 H   0  0  0  0  0  0  0  0  0  0  0  0
  127.8518  126.5603   69.1032 H   0  0  0  0  0  0  0  0  0  0  0  0
  129.5020  125.0420   70.0360 H   0  0  0  0  0  0  0  0  0  0  0  0
  129.9309  123.9297   75.1539 H   0  0  0  0  0  0  0  0  0  0  0  0
  131.1020  121.9892   73.8538 H   0  0  0  0  0  0  0  0  0  0  0  0
  1  2  3  0
  2  3  1  0
  3  4  2  0
  4  5  1  0
  5  6  1  0
  5  7  1  0
  5  8  1  0
  4  9  1  0
  9 10  2  0
 10 11  1  0
 11 12  2  0
 12 13  1  0
 13 14  2  0
 14 15  1  0
 15 16  2  0
 10 17  1  0
 17 18  2  0
 18 19  1  0
 19 20  1  0
 20 21  1  0
 21 22  2  0
 21 23  1  0
 23 24  1  0
 24 25  2  0
 25 26  1  0
 26 27  2  0
 27 28  1  0
 18  3  1  0
 28 24  1  0
 16 11  1  0
  9 29  1  0
 12 30  1  0
 13 31  1  0
 14 32  1  0
 15 33  1  0
 16 34  1  0
 20 35  1  0
 20 36  1  0
 23 37  1  0
 26 38  1  0
 27 39  1  0
M  END
>  <Binding energies>  (1) 
[-6.56]

>  <Ligand effiencies>  (1) 
[-0.22620689655172413]

>  <Interactions>  (1) 
["H-B:GLU:543:O:9871, V-A:HIS:456:CE1:4064, H-B:LYS:547:NZ:9919, V-B:HIS:456:CE1:9037, V-B:GLU:543:C:9870, V-A:GLU:543:CD:4903, V-B:GLU:543:CD:9876, H-A:TYR:484:OH:4343, H-A:HIS:456:NE2:4065, V-B:ARG:545:CG:9890, V-A:HIS:456:CG:4061, V-B:ARG:545:CD:9891, V-B:ARG:545:CZ:9894, V-A:HIS:456:CD2:4063, V-B:LYS:547:CE:9918"]

$$$$
3ak_Grossjean_2025
     RDKit          3D

 57 58  0  0  0  0  0  0  0  0999 V2000
  129.7380  124.6820   71.7350 C   0  0  0  0  0  0  0  0  0  0  0  0
  128.8340  125.7460   71.9910 O   0  0  0  0  0  0  0  0  0  0  0  0
  129.1480  126.9370   71.2820 C   0  0  0  0  0  0  0  0  0  0  0  0
  128.0480  127.2070   70.2480 C   0  0  0  0  0  0  0  0  0  0  0  0
  128.5790  128.0240   69.2100 O   0  0  0  0  0  0  0  0  0  0  0  0
  129.4570  127.3670   68.3000 C   0  0  0  0  0  0  0  0  0  0  0  0
  128.8980  126.0450   67.7430 C   0  0  0  0  0  0  0  0  0  0  0  0
  128.9800  126.0640   66.3250 O   0  0  0  0  0  0  0  0  0  0  0  0
  130.2000  126.5950   65.8250 C   0  0  0  0  0  0  0  0  0  0  0  0
  130.9910  125.5020   65.0840 C   0  0  0  0  0  0  0  0  0  0  0  0
  130.1430  124.4730   64.4790 N   0  0  0  0  0  0  0  0  0  0  0  0
  130.5740  123.3530   63.8670 C   0  0  0  0  0  0  0  0  0  0  0  0
  131.7670  123.0650   63.7680 O   0  0  0  0  0  0  0  0  0  0  0  0
  129.5360  122.3910   63.2660 C   0  0  0  0  0  0  0  0  0  0  0  0
  130.1250  121.2800   61.9350 S   0  0  0  0  0  0  0  0  0  0  0  0
  130.0230  122.1490   60.3770 C   0  0  0  0  0  0  0  0  0  0  0  0
  128.7730  122.3160   59.8790 N   0  0  0  0  0  0  0  0  0  0  0  0
  128.5940  122.9590   58.6970 C   0  0  0  0  0  0  0  0  0  0  0  0
  127.1790  123.1000   58.2220 C   0  0  0  0  0  0  0  0  0  0  0  0
  126.7460  122.4550   57.0530 C   0  0  0  0  0  0  0  0  0  0  0  0
  125.4320  122.5790   56.6100 C   0  0  0  0  0  0  0  0  0  0  0  0
  124.5300  123.3520   57.3320 C   0  0  0  0  0  0  0  0  0  0  0  0
  124.9310  124.0000   58.4950 C   0  0  0  0  0  0  0  0  0  0  0  0
  126.2460  123.8730   58.9370 C   0  0  0  0  0  0  0  0  0  0  0  0
  129.6850  123.4700   57.9860 C   0  0  0  0  0  0  0  0  0  0  0  0
  130.9890  123.3120   58.4800 C   0  0  0  0  0  0  0  0  0  0  0  0
  132.1660  123.8870   57.6670 C   0  0  0  0  0  0  0  0  0  0  0  0
  132.7260  124.8990   58.3280 F   0  0  0  0  0  0  0  0  0  0  0  0
  133.0850  122.9420   57.4630 F   0  0  0  0  0  0  0  0  0  0  0  0
  131.7930  124.3460   56.4700 F   0  0  0  0  0  0  0  0  0  0  0  0
  131.1690  122.6320   59.7080 C   0  0  0  0  0  0  0  0  0  0  0  0
  132.5090  122.4370   60.2720 C   0  0  0  0  0  0  0  0  0  0  0  0
  133.5670  122.2820   60.7170 N   0  0  0  0  0  0  0  0  0  0  0  0
  130.0926  124.2646   72.6890 H   0  0  0  0  0  0  0  0  0  0  0  0
  129.2265  123.8969   71.1588 H   0  0  0  0  0  0  0  0  0  0  0  0
  130.5954  125.0600   71.1588 H   0  0  0  0  0  0  0  0  0  0  0  0
  129.2077  127.7803   71.9857 H   0  0  0  0  0  0  0  0  0  0  0  0
  130.1165  126.8223   70.7731 H   0  0  0  0  0  0  0  0  0  0  0  0
  127.6976  126.2541   69.8247 H   0  0  0  0  0  0  0  0  0  0  0  0
  127.2026  127.7202   70.7296 H   0  0  0  0  0  0  0  0  0  0  0  0
  129.6518  128.0445   67.4555 H   0  0  0  0  0  0  0  0  0  0  0  0
  130.3710  127.1183   68.8593 H   0  0  0  0  0  0  0  0  0  0  0  0
  129.4871  125.2025   68.1344 H   0  0  0  0  0  0  0  0  0  0  0  0
  127.8485  125.9285   68.0510 H   0  0  0  0  0  0  0  0  0  0  0  0
  129.9800  127.4188   65.1300 H   0  0  0  0  0  0  0  0  0  0  0  0
  130.8024  126.9654   66.6675 H   0  0  0  0  0  0  0  0  0  0  0  0
  131.5808  125.9791   64.2875 H   0  0  0  0  0  0  0  0  0  0  0  0
  131.6245  125.0002   65.8303 H   0  0  0  0  0  0  0  0  0  0  0  0
  129.1470  124.6290   64.5380 H   0  0  0  0  0  0  0  0  0  0  0  0
  129.1527  121.7608   64.0820 H   0  0  0  0  0  0  0  0  0  0  0  0
  128.7809  123.0363   62.7933 H   0  0  0  0  0  0  0  0  0  0  0  0
  127.4558  121.8421   56.4780 H   0  0  0  0  0  0  0  0  0  0  0  0
  125.1086  122.0670   55.6917 H   0  0  0  0  0  0  0  0  0  0  0  0
  123.4923  123.4517   56.9810 H   0  0  0  0  0  0  0  0  0  0  0  0
  124.2134  124.6100   59.0633 H   0  0  0  0  0  0  0  0  0  0  0  0
  126.5595  124.3848   59.8588 H   0  0  0  0  0  0  0  0  0  0  0  0
  129.5200  123.9981   57.0353 H   0  0  0  0  0  0  0  0  0  0  0  0
  1  2  1  0
  2  3  1  0
  3  4  1  0
  4  5  1  0
  5  6  1  0
  6  7  1  0
  7  8  1  0
  8  9  1  0
  9 10  1  0
 10 11  1  0
 11 12  1  0
 12 13  2  0
 12 14  1  0
 14 15  1  0
 15 16  1  0
 16 17  2  0
 17 18  1  0
 18 19  1  0
 19 20  2  0
 20 21  1  0
 21 22  2  0
 22 23  1  0
 23 24  2  0
 18 25  2  0
 25 26  1  0
 26 27  1  0
 27 28  1  0
 27 29  1  0
 27 30  1  0
 26 31  2  0
 31 32  1  0
 32 33  3  0
 31 16  1  0
 24 19  1  0
  1 34  1  0
  1 35  1  0
  1 36  1  0
  3 37  1  0
  3 38  1  0
  4 39  1  0
  4 40  1  0
  6 41  1  0
  6 42  1  0
  7 43  1  0
  7 44  1  0
  9 45  1  0
  9 46  1  0
 10 47  1  0
 10 48  1  0
 11 49  1  0
 14 50  1  0
 14 51  1  0
 20 52  1  0
 21 53  1  0
 22 54  1  0
 23 55  1  0
 24 56  1  0
 25 57  1  0
M  END
>  <Binding energies>  (1) 
[-6.12]

>  <Ligand effiencies>  (1) 
[-0.18]

>  <Interactions>  (1) 
["V-B:GLU:543:CG:9875, V-A:HIS:456:CE1:4064, H-B:LYS:547:NZ:9919, V-B:ALA:541:CB:9860, V-B:GLU:543:CB:9874, V-B:TYR:539:C:9835, V-B:TYR:539:CE2:9844, V-A:ILE:369:CD1:3234, V-B:TYR:539:CZ:9845, V-A:ILE:369:CB:3231, V-A:ASP:366:CG:3208, V-B:HIS:456:CE1:9037, V-A:ASP:366:CB:3207, V-B:GLU:543:C:9870, V-B:GLU:543:CA:9872, V-A:GLU:543:CD:4903, V-B:GLU:543:CD:9876, V-A:ILE:369:CG2:3232, H-A:TYR:484:OH:4343, V-B:PRO:540:CB:9853, V-B:PRO:540:CA:9851, V-A:TYR:531:CZ:4789, H-B:GLU:543:OE2:9878, V-B:LEU:363:CD1:8156, V-B:PRO:540:CD:9855, V-B:PRO:540:N:9852, V-B:MET:535:CE:9803, V-A:TYR:531:CE1:4787"]

$$$$
3bc_Grossjean_2025
     RDKit          3D

 47 49  0  0  0  0  0  0  0  0999 V2000
  130.2270  126.0810   72.8730 C   0  0  0  0  0  0  0  0  0  0  0  0
  129.0840  126.6310   72.2270 O   0  0  0  0  0  0  0  0  0  0  0  0
  129.2310  127.2250   70.9870 C   0  0  0  0  0  0  0  0  0  0  0  0
  128.2960  126.8720   70.0140 C   0  0  0  0  0  0  0  0  0  0  0  0
  128.3630  127.4180   68.7350 C   0  0  0  0  0  0  0  0  0  0  0  0
  129.3760  128.3210   68.4090 C   0  0  0  0  0  0  0  0  0  0  0  0
  129.3560  128.8290   67.0960 N   0  0  0  0  0  0  0  0  0  0  0  0
  128.3020  129.0250   66.2750 C   0  0  0  0  0  0  0  0  0  0  0  0
  127.1270  128.8120   66.5790 O   0  0  0  0  0  0  0  0  0  0  0  0
  128.6620  129.5910   64.8940 C   0  0  0  0  0  0  0  0  0  0  0  0
  128.7370  131.4110   64.7970 S   0  0  0  0  0  0  0  0  0  0  0  0
  128.8240  131.8610   63.0780 C   0  0  0  0  0  0  0  0  0  0  0  0
  129.9860  131.5010   62.4780 N   0  0  0  0  0  0  0  0  0  0  0  0
  130.1840  131.7820   61.1640 C   0  0  0  0  0  0  0  0  0  0  0  0
  131.5030  131.3700   60.5820 C   0  0  0  0  0  0  0  0  0  0  0  0
  131.5940  130.9280   59.2530 C   0  0  0  0  0  0  0  0  0  0  0  0
  132.8150  130.5440   58.7060 C   0  0  0  0  0  0  0  0  0  0  0  0
  133.9660  130.5950   59.4850 C   0  0  0  0  0  0  0  0  0  0  0  0
  133.9040  131.0260   60.8060 C   0  0  0  0  0  0  0  0  0  0  0  0
  132.6800  131.4080   61.3490 C   0  0  0  0  0  0  0  0  0  0  0  0
  129.2040  132.4410   60.4140 C   0  0  0  0  0  0  0  0  0  0  0  0
  127.9910  132.7990   61.0120 C   0  0  0  0  0  0  0  0  0  0  0  0
  126.9430  133.5020   60.1500 C   0  0  0  0  0  0  0  0  0  0  0  0
  127.7770  132.4990   62.3750 C   0  0  0  0  0  0  0  0  0  0  0  0
  126.4960  132.8190   63.0080 C   0  0  0  0  0  0  0  0  0  0  0  0
  125.4840  133.0750   63.5070 N   0  0  0  0  0  0  0  0  0  0  0  0
  130.3130  128.6920   69.3850 C   0  0  0  0  0  0  0  0  0  0  0  0
  130.2420  128.1440   70.6640 C   0  0  0  0  0  0  0  0  0  0  0  0
  130.0973  126.1434   73.9635 H   0  0  0  0  0  0  0  0  0  0  0  0
  130.3440  125.0280   72.5773 H   0  0  0  0  0  0  0  0  0  0  0  0
  131.1229  126.6466   72.5773 H   0  0  0  0  0  0  0  0  0  0  0  0
  127.4982  126.1555   70.2595 H   0  0  0  0  0  0  0  0  0  0  0  0
  127.6151  127.1368   67.9790 H   0  0  0  0  0  0  0  0  0  0  0  0
  130.2540  129.1400   66.7550 H   0  0  0  0  0  0  0  0  0  0  0  0
  129.6477  129.1940   64.6098 H   0  0  0  0  0  0  0  0  0  0  0  0
  127.8523  129.2820   64.2166 H   0  0  0  0  0  0  0  0  0  0  0  0
  130.6859  130.8843   58.6338 H   0  0  0  0  0  0  0  0  0  0  0  0
  132.8693  130.2017   57.6620 H   0  0  0  0  0  0  0  0  0  0  0  0
  134.9316  130.2925   59.0536 H   0  0  0  0  0  0  0  0  0  0  0  0
  134.8169  131.0649   61.4184 H   0  0  0  0  0  0  0  0  0  0  0  0
  132.6336  131.7449   62.3951 H   0  0  0  0  0  0  0  0  0  0  0  0
  129.3870  132.6774   59.3554 H   0  0  0  0  0  0  0  0  0  0  0  0
  126.2058  133.9965   60.7996 H   0  0  0  0  0  0  0  0  0  0  0  0
  127.4348  134.2536   59.5150 H   0  0  0  0  0  0  0  0  0  0  0  0
  126.4341  132.7619   59.5150 H   0  0  0  0  0  0  0  0  0  0  0  0
  131.1042  129.4160   69.1403 H   0  0  0  0  0  0  0  0  0  0  0  0
  130.9821  128.4330   71.4248 H   0  0  0  0  0  0  0  0  0  0  0  0
  1  2  1  0
  2  3  1  0
  3  4  2  0
  4  5  1  0
  5  6  2  0
  6  7  1  0
  7  8  1  0
  8  9  2  0
  8 10  1  0
 10 11  1  0
 11 12  1  0
 12 13  2  0
 13 14  1  0
 14 15  1  0
 15 16  2  0
 16 17  1  0
 17 18  2  0
 18 19  1  0
 19 20  2  0
 14 21  2  0
 21 22  1  0
 22 23  1  0
 22 24  2  0
 24 25  1  0
 25 26  3  0
  6 27  1  0
 27 28  2  0
 28  3  1  0
 24 12  1  0
 20 15  1  0
  1 29  1  0
  1 30  1  0
  1 31  1  0
  4 32  1  0
  5 33  1  0
  7 34  1  0
 10 35  1  0
 10 36  1  0
 16 37  1  0
 17 38  1  0
 18 39  1  0
 19 40  1  0
 20 41  1  0
 21 42  1  0
 23 43  1  0
 23 44  1  0
 23 45  1  0
 27 46  1  0
 28 47  1  0
M  END
>  <Binding energies>  (1) 
[-7.47]

>  <Ligand effiencies>  (1) 
[-0.2575862068965517]

>  <Interactions>  (1) 
["V-A:HIS:456:CE1:4064, H-B:LYS:547:NZ:9919, V-A:GLU:543:CB:4901, V-A:ASP:366:CG:3208, V-B:HIS:456:CE1:9037, V-A:GLU:543:CG:4902, V-B:GLU:543:C:9870, H-B:TYR:484:OH:9315, V-A:GLU:543:CD:4903, H-A:GLU:543:OE1:4904, V-A:TYR:539:CE2:4871, V-A:GLU:543:C:4897, V-A:PRO:540:CA:4878, V-A:TYR:539:CD2:4869, V-A:ALA:541:CB:4887, V-A:ASN:362:C:3167, V-A:LEU:363:CA:3180, V-A:PRO:540:CB:4880, V-A:LEU:363:CB:3182, V-A:TYR:539:CZ:4872, V-A:ASN:362:CB:3171, V-B:LEU:475:CD2:9226, V-A:ASN:362:CA:3169"]

$$$$
3bd_Grossjean_2025
     RDKit          3D

 43 45  0  0  0  0  0  0  0  0999 V2000
  129.9640  126.2610   64.8630 C   0  0  0  0  0  0  0  0  0  0  0  0
  128.8500  126.8930   65.6960 C   0  0  0  0  0  0  0  0  0  0  0  0
  128.0110  127.8270   65.0770 C   0  0  0  0  0  0  0  0  0  0  0  0
  126.9810  128.4320   65.8070 C   0  0  0  0  0  0  0  0  0  0  0  0
  126.0440  129.4370   65.2050 C   0  0  0  0  0  0  0  0  0  0  0  0
  124.7470  129.6050   65.7170 C   0  0  0  0  0  0  0  0  0  0  0  0
  123.8710  130.5350   65.1620 C   0  0  0  0  0  0  0  0  0  0  0  0
  124.2820  131.3110   64.0830 C   0  0  0  0  0  0  0  0  0  0  0  0
  125.5590  131.1620   63.5550 C   0  0  0  0  0  0  0  0  0  0  0  0
  126.4320  130.2310   64.1130 C   0  0  0  0  0  0  0  0  0  0  0  0
  126.7740  128.1140   67.1120 N   0  0  0  0  0  0  0  0  0  0  0  0
  127.5790  127.2120   67.7270 C   0  0  0  0  0  0  0  0  0  0  0  0
  127.2090  126.8910   69.4440 S   0  0  0  0  0  0  0  0  0  0  0  0
  128.4540  127.7450   70.4580 C   0  0  0  0  0  0  0  0  0  0  0  0
  129.1240  126.8020   71.4570 C   0  0  0  0  0  0  0  0  0  0  0  0
  129.4300  127.2290   72.5710 O   0  0  0  0  0  0  0  0  0  0  0  0
  129.3450  125.5430   71.0180 N   0  0  0  0  0  0  0  0  0  0  0  0
  129.9120  124.4530   71.7040 C   0  0  0  0  0  0  0  0  0  0  0  0
  129.9210  123.2340   71.0200 C   0  0  0  0  0  0  0  0  0  0  0  0
  130.4540  122.0970   71.6210 C   0  0  0  0  0  0  0  0  0  0  0  0
  130.9690  122.1750   72.9120 C   0  0  0  0  0  0  0  0  0  0  0  0
  130.9530  123.3810   73.6090 C   0  0  0  0  0  0  0  0  0  0  0  0
  130.4230  124.5200   73.0100 C   0  0  0  0  0  0  0  0  0  0  0  0
  128.6400  126.5710   67.0530 C   0  0  0  0  0  0  0  0  0  0  0  0
  129.5020  125.5960   67.7290 C   0  0  0  0  0  0  0  0  0  0  0  0
  130.1810  124.8250   68.2610 N   0  0  0  0  0  0  0  0  0  0  0  0
  130.7231  125.8303   65.5325 H   0  0  0  0  0  0  0  0  0  0  0  0
  129.5423  125.4676   64.2284 H   0  0  0  0  0  0  0  0  0  0  0  0
  130.4286  127.0300   64.2284 H   0  0  0  0  0  0  0  0  0  0  0  0
  128.1608  128.0853   64.0183 H   0  0  0  0  0  0  0  0  0  0  0  0
  124.4179  128.9927   66.5695 H   0  0  0  0  0  0  0  0  0  0  0  0
  122.8586  130.6553   65.5751 H   0  0  0  0  0  0  0  0  0  0  0  0
  123.5919  132.0472   63.6449 H   0  0  0  0  0  0  0  0  0  0  0  0
  125.8788  131.7764   62.7005 H   0  0  0  0  0  0  0  0  0  0  0  0
  127.4416  130.1156   63.6918 H   0  0  0  0  0  0  0  0  0  0  0  0
  129.2244  128.1654   69.7949 H   0  0  0  0  0  0  0  0  0  0  0  0
  127.9439  128.5361   71.0272 H   0  0  0  0  0  0  0  0  0  0  0  0
  129.1260  125.3620   70.0490 H   0  0  0  0  0  0  0  0  0  0  0  0
  129.5055  123.1729   70.0033 H   0  0  0  0  0  0  0  0  0  0  0  0
  130.4682  121.1406   71.0778 H   0  0  0  0  0  0  0  0  0  0  0  0
  131.3921  121.2769   73.3856 H   0  0  0  0  0  0  0  0  0  0  0  0
  131.3583  123.4330   74.6303 H   0  0  0  0  0  0  0  0  0  0  0  0
  130.4045  125.4726   73.5597 H   0  0  0  0  0  0  0  0  0  0  0  0
  1  2  1  0
  2  3  2  0
  3  4  1  0
  4  5  1  0
  5  6  2  0
  6  7  1  0
  7  8  2  0
  8  9  1  0
  9 10  2  0
  4 11  2  0
 11 12  1  0
 12 13  1  0
 13 14  1  0
 14 15  1  0
 15 16  2  0
 15 17  1  0
 17 18  1  0
 18 19  2  0
 19 20  1  0
 20 21  2  0
 21 22  1  0
 22 23  2  0
 12 24  2  0
 24 25  1  0
 25 26  3  0
 24  2  1  0
 10  5  1  0
 23 18  1  0
  1 27  1  0
  1 28  1  0
  1 29  1  0
  3 30  1  0
  6 31  1  0
  7 32  1  0
  8 33  1  0
  9 34  1  0
 10 35  1  0
 14 36  1  0
 14 37  1  0
 17 38  1  0
 19 39  1  0
 20 40  1  0
 21 41  1  0
 22 42  1  0
 23 43  1  0
M  END
>  <Binding energies>  (1) 
[-7.14]

>  <Ligand effiencies>  (1) 
[-0.2644444444444444]

>  <Interactions>  (1) 
["V-B:GLU:543:CG:9875, H-B:GLU:543:O:9871, V-A:HIS:456:CE1:4064, H-B:LYS:547:NZ:9919, V-B:GLU:543:CB:9874, V-B:HIS:456:CE1:9037, V-B:GLU:543:C:9870, V-B:GLU:543:CA:9872, V-B:GLU:543:CD:9876, H-A:HIS:456:NE2:4065, V-A:TYR:484:CG:4337, V-A:TYR:484:CD1:4338, V-B:HIS:456:CD2:9035, V-B:ARG:545:CD:9891, V-B:ARG:545:CZ:9894, V-A:TYR:484:CB:4336, V-A:TYR:484:CD2:4339, V-B:GLY:454:CA:9016"]

$$$$
3be_Grossjean_2025
     RDKit          3D

 45 47  0  0  0  0  0  0  0  0999 V2000
  135.1220  124.9960   66.7610 C   0  0  0  0  0  0  0  0  0  0  0  0
  134.0450  125.1960   65.7130 C   0  0  0  0  0  0  0  0  0  0  0  0
  132.8000  125.7410   66.0380 C   0  0  0  0  0  0  0  0  0  0  0  0
  131.8560  125.8940   65.0220 C   0  0  0  0  0  0  0  0  0  0  0  0
  132.1770  125.5040   63.7190 C   0  0  0  0  0  0  0  0  0  0  0  0
  133.4440  124.9690   63.4610 C   0  0  0  0  0  0  0  0  0  0  0  0
  133.7010  124.5860   62.1310 N   0  0  0  0  0  0  0  0  0  0  0  0
  133.4110  123.4190   61.5160 C   0  0  0  0  0  0  0  0  0  0  0  0
  132.8540  122.4620   62.0580 O   0  0  0  0  0  0  0  0  0  0  0  0
  133.8310  123.3490   60.0400 C   0  0  0  0  0  0  0  0  0  0  0  0
  132.4590  123.1680   58.8500 S   0  0  0  0  0  0  0  0  0  0  0  0
  131.1720  122.2190   59.6310 C   0  0  0  0  0  0  0  0  0  0  0  0
  129.9480  122.7980   59.5540 N   0  0  0  0  0  0  0  0  0  0  0  0
  128.8710  122.1790   60.1060 C   0  0  0  0  0  0  0  0  0  0  0  0
  127.5560  122.8930   59.9900 C   0  0  0  0  0  0  0  0  0  0  0  0
  127.0200  123.2090   58.7320 C   0  0  0  0  0  0  0  0  0  0  0  0
  125.8020  123.8730   58.6170 C   0  0  0  0  0  0  0  0  0  0  0  0
  125.1010  124.2320   59.7630 C   0  0  0  0  0  0  0  0  0  0  0  0
  125.6100  123.9320   61.0220 C   0  0  0  0  0  0  0  0  0  0  0  0
  126.8290  123.2690   61.1320 C   0  0  0  0  0  0  0  0  0  0  0  0
  129.0060  120.9500   60.7590 C   0  0  0  0  0  0  0  0  0  0  0  0
  130.2570  120.3280   60.8260 C   0  0  0  0  0  0  0  0  0  0  0  0
  130.3540  118.9770   61.5330 C   0  0  0  0  0  0  0  0  0  0  0  0
  131.3750  120.9610   60.2410 C   0  0  0  0  0  0  0  0  0  0  0  0
  132.6830  120.3020   60.2520 C   0  0  0  0  0  0  0  0  0  0  0  0
  133.7160  119.7790   60.2610 N   0  0  0  0  0  0  0  0  0  0  0  0
  134.3700  124.8140   64.4520 N   0  0  0  0  0  0  0  0  0  0  0  0
  134.6776  125.0785   67.7638 H   0  0  0  0  0  0  0  0  0  0  0  0
  135.5710  123.9991   66.6398 H   0  0  0  0  0  0  0  0  0  0  0  0
  135.8989  125.7652   66.6398 H   0  0  0  0  0  0  0  0  0  0  0  0
  132.5696  126.0423   67.0705 H   0  0  0  0  0  0  0  0  0  0  0  0
  130.8661  126.3186   65.2451 H   0  0  0  0  0  0  0  0  0  0  0  0
  131.4435  125.6161   62.9070 H   0  0  0  0  0  0  0  0  0  0  0  0
  134.1920  125.2760   61.5820 H   0  0  0  0  0  0  0  0  0  0  0  0
  134.3733  124.2745   59.7961 H   0  0  0  0  0  0  0  0  0  0  0  0
  134.4442  122.4413   59.9396 H   0  0  0  0  0  0  0  0  0  0  0  0
  127.5711  122.9275   57.8226 H   0  0  0  0  0  0  0  0  0  0  0  0
  125.3956  124.1128   57.6234 H   0  0  0  0  0  0  0  0  0  0  0  0
  124.1382  124.7564   59.6732 H   0  0  0  0  0  0  0  0  0  0  0  0
  125.0522  124.2172   61.9262 H   0  0  0  0  0  0  0  0  0  0  0  0
  127.2297  123.0356   62.1295 H   0  0  0  0  0  0  0  0  0  0  0  0
  128.1287  120.4725   61.2198 H   0  0  0  0  0  0  0  0  0  0  0  0
  130.3429  119.1314   62.6220 H   0  0  0  0  0  0  0  0  0  0  0  0
  129.4986  118.3491   61.2430 H   0  0  0  0  0  0  0  0  0  0  0  0
  131.2903  118.4778   61.2430 H   0  0  0  0  0  0  0  0  0  0  0  0
  1  2  1  0
  2  3  2  0
  3  4  1  0
  4  5  2  0
  5  6  1  0
  6  7  1  0
  7  8  1  0
  8  9  2  0
  8 10  1  0
 10 11  1  0
 11 12  1  0
 12 13  2  0
 13 14  1  0
 14 15  1  0
 15 16  2  0
 16 17  1  0
 17 18  2  0
 18 19  1  0
 19 20  2  0
 14 21  2  0
 21 22  1  0
 22 23  1  0
 22 24  2  0
 24 25  1  0
 25 26  3  0
  6 27  2  0
 27  2  1  0
 24 12  1  0
 20 15  1  0
  1 28  1  0
  1 29  1  0
  1 30  1  0
  3 31  1  0
  4 32  1  0
  5 33  1  0
  7 34  1  0
 10 35  1  0
 10 36  1  0
 16 37  1  0
 17 38  1  0
 18 39  1  0
 19 40  1  0
 20 41  1  0
 21 42  1  0
 23 43  1  0
 23 44  1  0
 23 45  1  0
M  END
>  <Binding energies>  (1) 
[-8.73]

>  <Ligand effiencies>  (1) 
[-0.3117857142857143]

>  <Interactions>  (1) 
["V-B:PRO:540:C:9849, V-A:TRP:381:CZ2:3365, V-B:ALA:541:CB:9860, V-B:ALA:541:CA:9858, V-A:TRP:381:CH2:3367, V-B:TYR:539:C:9835, V-B:TYR:539:CD2:9842, V-A:LEU:475:CD2:4254, V-A:PRO:482:CB:4321, V-B:TYR:539:CE2:9844, V-A:ILE:369:CD1:3234, V-A:ASP:366:CG:3208, V-A:ASP:366:CB:3207, V-A:GLU:543:CD:4903, V-B:GLU:543:CD:9876, H-A:ASP:366:OD2:3210, H-A:ARG:545:NH1:4922, V-A:ILE:369:CG2:3232, H-A:TYR:484:OH:4343, H-A:ASP:366:OD1:3209, H-A:GLY:454:N:4045, V-A:ARG:545:CZ:4921, V-B:PRO:540:CB:9853, V-B:PRO:540:CA:9851, V-A:LEU:475:CD1:4253, V-B:ASP:366:CG:8180, V-A:ARG:545:CD:4918, V-A:GLY:453:CA:4039, V-A:ARG:545:CG:4917, V-A:HIS:456:CD2:4063, V-A:GLY:453:C:4037, V-B:PRO:540:N:9852, V-A:ILE:455:C:4047"]

$$$$
3bf_Grossjean_2025
     RDKit          3D

 42 44  0  0  0  0  0  0  0  0999 V2000
  130.0120  126.2220   64.9010 C   0  0  0  0  0  0  0  0  0  0  0  0
  128.8930  126.8490   65.7290 C   0  0  0  0  0  0  0  0  0  0  0  0
  128.0470  127.7700   65.1030 C   0  0  0  0  0  0  0  0  0  0  0  0
  126.9990  128.3570   65.8210 C   0  0  0  0  0  0  0  0  0  0  0  0
  126.0450  129.3340   65.2020 C   0  0  0  0  0  0  0  0  0  0  0  0
  126.4370  130.1250   64.1110 C   0  0  0  0  0  0  0  0  0  0  0  0
  125.5560  131.0350   63.5320 C   0  0  0  0  0  0  0  0  0  0  0  0
  124.2680  131.1670   64.0390 C   0  0  0  0  0  0  0  0  0  0  0  0
  123.8550  130.3960   65.1210 C   0  0  0  0  0  0  0  0  0  0  0  0
  124.7390  129.4880   65.6980 C   0  0  0  0  0  0  0  0  0  0  0  0
  126.7880  128.0450   67.1270 N   0  0  0  0  0  0  0  0  0  0  0  0
  127.6150  127.1730   67.7550 C   0  0  0  0  0  0  0  0  0  0  0  0
  127.1910  126.8900   69.4600 S   0  0  0  0  0  0  0  0  0  0  0  0
  128.5010  127.6220   70.4980 C   0  0  0  0  0  0  0  0  0  0  0  0
  129.1340  126.6650   71.5200 C   0  0  0  0  0  0  0  0  0  0  0  0
  129.3210  127.0230   72.6840 O   0  0  0  0  0  0  0  0  0  0  0  0
  129.4210  125.4360   71.0390 N   0  0  0  0  0  0  0  0  0  0  0  0
  130.0080  124.3430   71.7030 C   0  0  0  0  0  0  0  0  0  0  0  0
  130.0070  123.1140   71.0340 C   0  0  0  0  0  0  0  0  0  0  0  0
  130.5870  121.9950   71.6340 C   0  0  0  0  0  0  0  0  0  0  0  0
  131.1620  122.1390   72.8970 C   0  0  0  0  0  0  0  0  0  0  0  0
  131.1860  123.3200   73.5640 N   0  0  0  0  0  0  0  0  0  0  0  0
  130.6190  124.4000   72.9680 C   0  0  0  0  0  0  0  0  0  0  0  0
  128.6800  126.5280   67.0870 C   0  0  0  0  0  0  0  0  0  0  0  0
  129.5230  125.5290   67.7480 C   0  0  0  0  0  0  0  0  0  0  0  0
  130.1910  124.7400   68.2700 N   0  0  0  0  0  0  0  0  0  0  0  0
  130.7714  125.7965   65.5735 H   0  0  0  0  0  0  0  0  0  0  0  0
  129.5964  125.4254   64.2665 H   0  0  0  0  0  0  0  0  0  0  0  0
  130.4744  126.9924   64.2665 H   0  0  0  0  0  0  0  0  0  0  0  0
  128.2053  128.0329   64.0467 H   0  0  0  0  0  0  0  0  0  0  0  0
  127.4553  130.0247   63.7072 H   0  0  0  0  0  0  0  0  0  0  0  0
  125.8779  131.6472   62.6766 H   0  0  0  0  0  0  0  0  0  0  0  0
  123.5715  131.8853   63.5819 H   0  0  0  0  0  0  0  0  0  0  0  0
  122.8350  130.5032   65.5187 H   0  0  0  0  0  0  0  0  0  0  0  0
  124.4102  128.8820   66.5551 H   0  0  0  0  0  0  0  0  0  0  0  0
  129.2982  127.9869   69.8336 H   0  0  0  0  0  0  0  0  0  0  0  0
  128.0188  128.4192   71.0827 H   0  0  0  0  0  0  0  0  0  0  0  0
  129.1400  125.2480   70.0880 H   0  0  0  0  0  0  0  0  0  0  0  0
  129.5500  123.0298   70.0370 H   0  0  0  0  0  0  0  0  0  0  0  0
  130.5906  121.0212   71.1224 H   0  0  0  0  0  0  0  0  0  0  0  0
  131.6155  121.2568   73.3725 H   0  0  0  0  0  0  0  0  0  0  0  0
  130.6385  125.3633   73.4988 H   0  0  0  0  0  0  0  0  0  0  0  0
  1  2  1  0
  2  3  2  0
  3  4  1  0
  4  5  1  0
  5  6  2  0
  6  7  1  0
  7  8  2  0
  8  9  1  0
  9 10  2  0
  4 11  2  0
 11 12  1  0
 12 13  1  0
 13 14  1  0
 14 15  1  0
 15 16  2  0
 15 17  1  0
 17 18  1  0
 18 19  2  0
 19 20  1  0
 20 21  2  0
 21 22  1  0
 22 23  2  0
 12 24  2  0
 24 25  1  0
 25 26  3  0
 24  2  1  0
 10  5  1  0
 23 18  1  0
  1 27  1  0
  1 28  1  0
  1 29  1  0
  3 30  1  0
  6 31  1  0
  7 32  1  0
  8 33  1  0
  9 34  1  0
 10 35  1  0
 14 36  1  0
 14 37  1  0
 17 38  1  0
 19 39  1  0
 20 40  1  0
 21 41  1  0
 23 42  1  0
M  END
>  <Binding energies>  (1) 
[-7.01]

>  <Ligand effiencies>  (1) 
[-0.2596296296296296]

>  <Interactions>  (1) 
["V-B:GLU:543:CG:9875, H-B:GLU:543:O:9871, V-A:HIS:456:CE1:4064, H-B:LYS:547:NZ:9919, V-B:GLU:543:CB:9874, V-B:HIS:456:CE1:9037, V-B:GLU:543:C:9870, V-B:GLU:543:CA:9872, V-B:GLU:543:CD:9876, H-A:HIS:456:NE2:4065, V-B:ARG:545:CG:9890, V-A:TYR:484:CG:4337, V-A:TYR:484:CD1:4338, V-A:HIS:456:CG:4061, V-A:ASP:473:CB:4234, V-B:ARG:545:CD:9891, V-B:ARG:545:CZ:9894, V-A:TYR:484:CB:4336, V-A:TYR:484:CD2:4339, V-B:GLY:454:CA:9016"]

$$$$
3bg_Grossjean_2025
     RDKit          3D

 46 48  0  0  0  0  0  0  0  0999 V2000
  130.6190  118.8090   61.5650 C   0  0  0  0  0  0  0  0  0  0  0  0
  130.5670  120.1500   60.8350 C   0  0  0  0  0  0  0  0  0  0  0  0
  129.3370  120.8100   60.7510 C   0  0  0  0  0  0  0  0  0  0  0  0
  129.2460  122.0460   60.0970 C   0  0  0  0  0  0  0  0  0  0  0  0
  127.9580  122.8130   59.9810 C   0  0  0  0  0  0  0  0  0  0  0  0
  127.2410  123.2010   61.1250 C   0  0  0  0  0  0  0  0  0  0  0  0
  126.0570  123.9260   61.0230 C   0  0  0  0  0  0  0  0  0  0  0  0
  125.5670  124.2750   59.7690 C   0  0  0  0  0  0  0  0  0  0  0  0
  126.2490  123.8940   58.6190 C   0  0  0  0  0  0  0  0  0  0  0  0
  127.4310  123.1670   58.7260 C   0  0  0  0  0  0  0  0  0  0  0  0
  130.3520  122.6230   59.5540 N   0  0  0  0  0  0  0  0  0  0  0  0
  131.5540  121.9970   59.6290 C   0  0  0  0  0  0  0  0  0  0  0  0
  132.9310  122.8760   58.9080 S   0  0  0  0  0  0  0  0  0  0  0  0
  133.7120  123.8830   60.2120 C   0  0  0  0  0  0  0  0  0  0  0  0
  133.1970  123.5100   61.6050 C   0  0  0  0  0  0  0  0  0  0  0  0
  133.9840  123.1080   62.4620 O   0  0  0  0  0  0  0  0  0  0  0  0
  131.8730  123.6270   61.8040 N   0  0  0  0  0  0  0  0  0  0  0  0
  131.1470  123.1580   62.9850 C   0  0  0  0  0  0  0  0  0  0  0  0
  131.2910  124.1210   64.1580 C   0  0  0  0  0  0  0  0  0  0  0  0
  132.4570  124.8810   64.3010 C   0  0  0  0  0  0  0  0  0  0  0  0
  132.5930  125.7530   65.3760 C   0  0  0  0  0  0  0  0  0  0  0  0
  131.5580  125.8730   66.3020 C   0  0  0  0  0  0  0  0  0  0  0  0
  130.3850  125.1360   66.1550 C   0  0  0  0  0  0  0  0  0  0  0  0
  130.2500  124.2620   65.0780 C   0  0  0  0  0  0  0  0  0  0  0  0
  131.7090  120.7440   60.2580 C   0  0  0  0  0  0  0  0  0  0  0  0
  133.0130  120.0800   60.3360 C   0  0  0  0  0  0  0  0  0  0  0  0
  134.0420  119.5550   60.3990 N   0  0  0  0  0  0  0  0  0  0  0  0
  130.6123  118.9823   62.6512 H   0  0  0  0  0  0  0  0  0  0  0  0
  129.7436  118.2047   61.2847 H   0  0  0  0  0  0  0  0  0  0  0  0
  131.5386  118.2743   61.2847 H   0  0  0  0  0  0  0  0  0  0  0  0
  128.4396  120.3583   61.1989 H   0  0  0  0  0  0  0  0  0  0  0  0
  127.6222  122.9269   62.1198 H   0  0  0  0  0  0  0  0  0  0  0  0
  125.5109  124.2218   61.9309 H   0  0  0  0  0  0  0  0  0  0  0  0
  124.6359  124.8549   59.6868 H   0  0  0  0  0  0  0  0  0  0  0  0
  125.8559  124.1661   57.6283 H   0  0  0  0  0  0  0  0  0  0  0  0
  127.9628  122.8637   57.8121 H   0  0  0  0  0  0  0  0  0  0  0  0
  134.8000  123.7242   60.1805 H   0  0  0  0  0  0  0  0  0  0  0  0
  133.4603  124.9375   60.0259 H   0  0  0  0  0  0  0  0  0  0  0  0
  131.3040  123.9610   61.0410 H   0  0  0  0  0  0  0  0  0  0  0  0
  130.0807  123.0616   62.7324 H   0  0  0  0  0  0  0  0  0  0  0  0
  131.5718  122.1886   63.2846 H   0  0  0  0  0  0  0  0  0  0  0  0
  133.2670  124.7888   63.5625 H   0  0  0  0  0  0  0  0  0  0  0  0
  133.5125  126.3449   65.4948 H   0  0  0  0  0  0  0  0  0  0  0  0
  131.6685  126.5562   67.1570 H   0  0  0  0  0  0  0  0  0  0  0  0
  129.5695  125.2434   66.8853 H   0  0  0  0  0  0  0  0  0  0  0  0
  129.3231  123.6830   64.9526 H   0  0  0  0  0  0  0  0  0  0  0  0
  1  2  1  0
  2  3  2  0
  3  4  1  0
  4  5  1  0
  5  6  2  0
  6  7  1  0
  7  8  2  0
  8  9  1  0
  9 10  2  0
  4 11  2  0
 11 12  1  0
 12 13  1  0
 13 14  1  0
 14 15  1  0
 15 16  2  0
 15 17  1  0
 17 18  1  0
 18 19  1  0
 19 20  2  0
 20 21  1  0
 21 22  2  0
 22 23  1  0
 23 24  2  0
 12 25  2  0
 25 26  1  0
 26 27  3  0
 25  2  1  0
 10  5  1  0
 24 19  1  0
  1 28  1  0
  1 29  1  0
  1 30  1  0
  3 31  1  0
  6 32  1  0
  7 33  1  0
  8 34  1  0
  9 35  1  0
 10 36  1  0
 14 37  1  0
 14 38  1  0
 17 39  1  0
 18 40  1  0
 18 41  1  0
 20 42  1  0
 21 43  1  0
 22 44  1  0
 23 45  1  0
 24 46  1  0
M  END
>  <Binding energies>  (1) 
[-7.11]

>  <Ligand effiencies>  (1) 
[-0.25392857142857145]

>  <Interactions>  (1) 
["V-B:PRO:540:C:9849, V-B:GLU:543:CG:9875, V-A:HIS:456:CE1:4064, V-A:TRP:381:CZ2:3365, V-B:ALA:541:CB:9860, V-A:TRP:381:CH2:3367, V-B:TYR:539:C:9835, V-B:TYR:539:CD2:9842, V-A:LEU:475:CD2:4254, V-A:PRO:482:CB:4321, V-B:TYR:539:CE2:9844, V-A:ILE:369:CD1:3234, V-A:ASP:366:CA:3205, V-A:ASP:366:CG:3208, V-A:ASP:366:CB:3207, V-B:GLU:543:CD:9876, V-A:ILE:369:CG2:3232, H-A:GLY:454:N:4045, V-A:ARG:545:CZ:4921, V-B:PRO:540:CB:9853, V-B:PRO:540:CA:9851, V-A:LEU:475:CD1:4253, V-B:PRO:540:N:9852, V-A:LEU:475:CG:4252"]

$$$$
3bk_Grossjean_2025
     RDKit          3D

 57 58  0  0  0  0  0  0  0  0999 V2000
  130.3110  125.0300   66.2730 C   0  0  0  0  0  0  0  0  0  0  0  0
  131.7250  124.9970   66.3880 O   0  0  0  0  0  0  0  0  0  0  0  0
  132.3980  125.5430   65.2610 C   0  0  0  0  0  0  0  0  0  0  0  0
  133.9060  125.2870   65.3870 C   0  0  0  0  0  0  0  0  0  0  0  0
  134.3730  124.6350   64.2140 O   0  0  0  0  0  0  0  0  0  0  0  0
  133.5080  124.7770   63.0950 C   0  0  0  0  0  0  0  0  0  0  0  0
  133.9900  123.8620   61.9630 C   0  0  0  0  0  0  0  0  0  0  0  0
  132.8720  123.2170   61.3690 O   0  0  0  0  0  0  0  0  0  0  0  0
  132.4010  123.8530   60.1880 C   0  0  0  0  0  0  0  0  0  0  0  0
  132.3070  122.8220   59.0540 C   0  0  0  0  0  0  0  0  0  0  0  0
  131.5290  121.6420   59.4370 N   0  0  0  0  0  0  0  0  0  0  0  0
  132.0390  120.4780   59.8720 C   0  0  0  0  0  0  0  0  0  0  0  0
  133.2450  120.2730   60.0190 O   0  0  0  0  0  0  0  0  0  0  0  0
  131.0320  119.3790   60.2210 C   0  0  0  0  0  0  0  0  0  0  0  0
  129.9490  119.8610   61.6030 S   0  0  0  0  0  0  0  0  0  0  0  0
  129.4510  121.5610   61.3850 C   0  0  0  0  0  0  0  0  0  0  0  0
  128.5550  121.7950   60.3940 N   0  0  0  0  0  0  0  0  0  0  0  0
  128.1210  123.0610   60.1530 C   0  0  0  0  0  0  0  0  0  0  0  0
  127.1150  123.2270   59.0550 C   0  0  0  0  0  0  0  0  0  0  0  0
  127.3660  122.7230   57.7690 C   0  0  0  0  0  0  0  0  0  0  0  0
  126.4370  122.8800   56.7430 C   0  0  0  0  0  0  0  0  0  0  0  0
  125.2410  123.5440   56.9900 C   0  0  0  0  0  0  0  0  0  0  0  0
  124.9660  124.0500   58.2560 C   0  0  0  0  0  0  0  0  0  0  0  0
  125.8960  123.8900   59.2800 C   0  0  0  0  0  0  0  0  0  0  0  0
  128.5830  124.1350   60.9220 C   0  0  0  0  0  0  0  0  0  0  0  0
  129.5080  123.9130   61.9470 C   0  0  0  0  0  0  0  0  0  0  0  0
  129.9870  125.1140   62.7610 C   0  0  0  0  0  0  0  0  0  0  0  0
  129.9610  122.6000   62.1950 C   0  0  0  0  0  0  0  0  0  0  0  0
  130.9290  122.3370   63.2640 C   0  0  0  0  0  0  0  0  0  0  0  0
  131.6930  122.1290   64.1070 N   0  0  0  0  0  0  0  0  0  0  0  0
  129.8616  125.0405   67.2770 H   0  0  0  0  0  0  0  0  0  0  0  0
  130.0086  125.9354   65.7264 H   0  0  0  0  0  0  0  0  0  0  0  0
  129.9667  124.1396   65.7264 H   0  0  0  0  0  0  0  0  0  0  0  0
  132.0214  125.0668   64.3437 H   0  0  0  0  0  0  0  0  0  0  0  0
  132.2143  126.6266   65.2159 H   0  0  0  0  0  0  0  0  0  0  0  0
  134.4322  126.2453   65.5085 H   0  0  0  0  0  0  0  0  0  0  0  0
  134.0990  124.6504   66.2631 H   0  0  0  0  0  0  0  0  0  0  0  0
  132.4844  124.4963   63.3838 H   0  0  0  0  0  0  0  0  0  0  0  0
  133.5164  125.8224   62.7529 H   0  0  0  0  0  0  0  0  0  0  0  0
  134.5136  124.4618   61.2040 H   0  0  0  0  0  0  0  0  0  0  0  0
  134.6774  123.1055   62.3695 H   0  0  0  0  0  0  0  0  0  0  0  0
  131.4063  124.2837   60.3753 H   0  0  0  0  0  0  0  0  0  0  0  0
  133.0986  124.6530   59.8993 H   0  0  0  0  0  0  0  0  0  0  0  0
  131.8267  123.2953   58.1849 H   0  0  0  0  0  0  0  0  0  0  0  0
  133.3283  122.4887   58.8175 H   0  0  0  0  0  0  0  0  0  0  0  0
  130.5250  121.7460   59.4030 H   0  0  0  0  0  0  0  0  0  0  0  0
  130.4101  119.1734   59.3373 H   0  0  0  0  0  0  0  0  0  0  0  0
  131.5961  118.4856   60.5268 H   0  0  0  0  0  0  0  0  0  0  0  0
  128.3106  122.1961   57.5685 H   0  0  0  0  0  0  0  0  0  0  0  0
  126.6491  122.4798   55.7406 H   0  0  0  0  0  0  0  0  0  0  0  0
  124.5079  123.6700   56.1796 H   0  0  0  0  0  0  0  0  0  0  0  0
  124.0181  124.5742   58.4475 H   0  0  0  0  0  0  0  0  0  0  0  0
  125.6733  124.2887   60.2807 H   0  0  0  0  0  0  0  0  0  0  0  0
  128.2188  125.1532   60.7203 H   0  0  0  0  0  0  0  0  0  0  0  0
  129.8973  124.8890   63.8340 H   0  0  0  0  0  0  0  0  0  0  0  0
  131.0385  125.3261   62.5175 H   0  0  0  0  0  0  0  0  0  0  0  0
  129.3701  125.9916   62.5175 H   0  0  0  0  0  0  0  0  0  0  0  0
  1  2  1  0
  2  3  1  0
  3  4  1  0
  4  5  1  0
  5  6  1  0
  6  7  1  0
  7  8  1  0
  8  9  1  0
  9 10  1  0
 10 11  1  0
 11 12  1  0
 12 13  2  0
 12 14  1  0
 14 15  1  0
 15 16  1  0
 16 17  2  0
 17 18  1  0
 18 19  1  0
 19 20  2  0
 20 21  1  0
 21 22  2  0
 22 23  1  0
 23 24  2  0
 18 25  2  0
 25 26  1  0
 26 27  1  0
 26 28  2  0
 28 29  1  0
 29 30  3  0
 28 16  1  0
 24 19  1  0
  1 31  1  0
  1 32  1  0
  1 33  1  0
  3 34  1  0
  3 35  1  0
  4 36  1  0
  4 37  1  0
  6 38  1  0
  6 39  1  0
  7 40  1  0
  7 41  1  0
  9 42  1  0
  9 43  1  0
 10 44  1  0
 10 45  1  0
 11 46  1  0
 14 47  1  0
 14 48  1  0
 20 49  1  0
 21 50  1  0
 22 51  1  0
 23 52  1  0
 24 53  1  0
 25 54  1  0
 27 55  1  0
 27 56  1  0
 27 57  1  0
M  END
>  <Binding energies>  (1) 
[-6.86]

>  <Ligand effiencies>  (1) 
[-0.22129032258064518]

>  <Interactions>  (1) 
["V-B:GLU:543:CG:9875, V-A:TRP:381:CZ3:3366, V-A:TRP:381:CZ2:3365, V-B:ALA:541:CB:9860, V-A:TRP:381:CH2:3367, V-B:TYR:539:C:9835, V-B:TYR:539:CD2:9842, V-A:LEU:475:CD2:4254, V-B:TYR:539:CE2:9844, V-A:ILE:369:CD1:3234, V-A:ASP:366:CG:3208, V-B:GLU:543:CD:9876, H-A:ARG:545:NH1:4922, H-A:TYR:484:OH:4343, H-A:GLY:454:N:4045, V-A:ARG:545:CZ:4921, V-B:PRO:540:CB:9853, H-B:ALA:541:N:9859, V-B:PRO:540:CA:9851, H-A:HIS:456:NE2:4065, H-B:TYR:539:O:9836, V-A:ARG:545:CD:4918, V-B:LEU:363:CD1:8156, V-B:PRO:540:N:9852, V-B:MET:535:CE:9803"]

$$$$
3ca_Grossjean_2025
     RDKit          3D

 52 54  0  0  0  0  0  0  0  0999 V2000
  125.6110  129.8590   75.1910 C   0  0  0  0  0  0  0  0  0  0  0  0
  126.8510  130.2030   74.3610 C   0  0  0  0  0  0  0  0  0  0  0  0
  127.2080  129.0840   73.5580 O   0  0  0  0  0  0  0  0  0  0  0  0
  128.4850  128.9050   73.1340 C   0  0  0  0  0  0  0  0  0  0  0  0
  129.4730  129.0860   73.8530 O   0  0  0  0  0  0  0  0  0  0  0  0
  128.5780  128.4560   71.7040 C   0  0  0  0  0  0  0  0  0  0  0  0
  127.4900  127.7910   71.1230 C   0  0  0  0  0  0  0  0  0  0  0  0
  127.5460  127.3630   69.7990 C   0  0  0  0  0  0  0  0  0  0  0  0
  128.6910  127.5840   69.0320 C   0  0  0  0  0  0  0  0  0  0  0  0
  128.6420  127.1120   67.7070 N   0  0  0  0  0  0  0  0  0  0  0  0
  129.4990  126.3030   67.0470 C   0  0  0  0  0  0  0  0  0  0  0  0
  130.5150  125.7990   67.5270 O   0  0  0  0  0  0  0  0  0  0  0  0
  129.1250  125.9990   65.5930 C   0  0  0  0  0  0  0  0  0  0  0  0
  130.1760  126.8690   64.3840 S   0  0  0  0  0  0  0  0  0  0  0  0
  131.5670  125.8390   63.9360 C   0  0  0  0  0  0  0  0  0  0  0  0
  132.5790  125.7920   64.8400 N   0  0  0  0  0  0  0  0  0  0  0  0
  133.6530  125.0170   64.5770 C   0  0  0  0  0  0  0  0  0  0  0  0
  134.7320  125.0030   65.6420 C   0  0  0  0  0  0  0  0  0  0  0  0
  133.7720  124.2740   63.4050 C   0  0  0  0  0  0  0  0  0  0  0  0
  132.7500  124.3190   62.4490 C   0  0  0  0  0  0  0  0  0  0  0  0
  132.9280  123.5160   61.2010 C   0  0  0  0  0  0  0  0  0  0  0  0
  133.1580  124.1590   59.9790 C   0  0  0  0  0  0  0  0  0  0  0  0
  133.3150  123.4190   58.8090 C   0  0  0  0  0  0  0  0  0  0  0  0
  133.2380  122.0300   58.8580 C   0  0  0  0  0  0  0  0  0  0  0  0
  133.0030  121.3750   60.0650 C   0  0  0  0  0  0  0  0  0  0  0  0
  132.8460  122.1190   61.2320 C   0  0  0  0  0  0  0  0  0  0  0  0
  131.6080  125.1160   62.7200 C   0  0  0  0  0  0  0  0  0  0  0  0
  130.4840  125.1630   61.7800 C   0  0  0  0  0  0  0  0  0  0  0  0
  129.5970  125.1990   61.0370 N   0  0  0  0  0  0  0  0  0  0  0  0
  129.7830  128.2570   69.6040 C   0  0  0  0  0  0  0  0  0  0  0  0
  129.7230  128.6860   70.9270 C   0  0  0  0  0  0  0  0  0  0  0  0
  125.8558  129.9269   76.2613 H   0  0  0  0  0  0  0  0  0  0  0  0
  124.8031  130.5670   74.9540 H   0  0  0  0  0  0  0  0  0  0  0  0
  125.2833  128.8360   74.9540 H   0  0  0  0  0  0  0  0  0  0  0  0
  126.6315  131.0644   73.7131 H   0  0  0  0  0  0  0  0  0  0  0  0
  127.6849  130.4537   75.0331 H   0  0  0  0  0  0  0  0  0  0  0  0
  126.5836  127.6054   71.7180 H   0  0  0  0  0  0  0  0  0  0  0  0
  126.6820  126.8472   69.3546 H   0  0  0  0  0  0  0  0  0  0  0  0
  127.8140  127.3880   67.2000 H   0  0  0  0  0  0  0  0  0  0  0  0
  129.2228  124.9162   65.4259 H   0  0  0  0  0  0  0  0  0  0  0  0
  128.0934  126.3491   65.4409 H   0  0  0  0  0  0  0  0  0  0  0  0
  134.2645  125.0091   66.6377 H   0  0  0  0  0  0  0  0  0  0  0  0
  135.3455  124.0968   65.5305 H   0  0  0  0  0  0  0  0  0  0  0  0
  135.3688  125.8930   65.5305 H   0  0  0  0  0  0  0  0  0  0  0  0
  134.6645  123.6549   63.2313 H   0  0  0  0  0  0  0  0  0  0  0  0
  133.2152  125.2569   59.9422 H   0  0  0  0  0  0  0  0  0  0  0  0
  133.4987  123.9294   57.8521 H   0  0  0  0  0  0  0  0  0  0  0  0
  133.3638  121.4442   57.9355 H   0  0  0  0  0  0  0  0  0  0  0  0
  132.9418  120.2771   60.0961 H   0  0  0  0  0  0  0  0  0  0  0  0
  132.6561  121.6046   62.1856 H   0  0  0  0  0  0  0  0  0  0  0  0
  130.6868  128.4453   69.0059 H   0  0  0  0  0  0  0  0  0  0  0  0
  130.5831  129.2112   71.3680 H   0  0  0  0  0  0  0  0  0  0  0  0
  1  2  1  0
  2  3  1  0
  3  4  1  0
  4  5  2  0
  4  6  1  0
  6  7  2  0
  7  8  1  0
  8  9  2  0
  9 10  1  0
 10 11  1  0
 11 12  2  0
 11 13  1  0
 13 14  1  0
 14 15  1  0
 15 16  2  0
 16 17  1  0
 17 18  1  0
 17 19  2  0
 19 20  1  0
 20 21  1  0
 21 22  2  0
 22 23  1  0
 23 24  2  0
 24 25  1  0
 25 26  2  0
 20 27  2  0
 27 28  1  0
 28 29  3  0
  9 30  1  0
 30 31  2  0
 31  6  1  0
 27 15  1  0
 26 21  1  0
  1 32  1  0
  1 33  1  0
  1 34  1  0
  2 35  1  0
  2 36  1  0
  7 37  1  0
  8 38  1  0
 10 39  1  0
 13 40  1  0
 13 41  1  0
 18 42  1  0
 18 43  1  0
 18 44  1  0
 19 45  1  0
 22 46  1  0
 23 47  1  0
 24 48  1  0
 25 49  1  0
 26 50  1  0
 30 51  1  0
 31 52  1  0
M  END
>  <Binding energies>  (1) 
[-7.63]

>  <Ligand effiencies>  (1) 
[-0.2384375]

>  <Interactions>  (1) 
["V-B:GLU:543:CG:9875, V-A:HIS:456:CE1:4064, H-B:LYS:547:NZ:9919, V-B:GLU:543:CB:9874, V-A:LEU:475:CD2:4254, V-B:TYR:539:CE2:9844, V-A:ILE:369:CD1:3234, V-A:ILE:369:CB:3231, V-A:ASP:366:CG:3208, V-B:HIS:456:CE1:9037, V-A:ASP:366:CB:3207, V-B:GLU:543:CD:9876, V-A:ILE:369:CG2:3232, H-A:TYR:484:OH:4343, H-A:ARG:545:NE:4919, H-A:ARG:545:NH2:4923, V-A:GLY:454:CA:4044, V-A:ARG:545:CZ:4921, H-A:HIS:456:NE2:4065, V-B:HIS:456:CD2:9035, V-B:HIS:456:CG:9033, H-A:LYS:547:NZ:4946, V-B:HIS:456:CB:9032, V-A:ARG:545:CD:4918, V-A:GLY:453:CA:4039, V-A:GLY:453:C:4037"]

$$$$
3cb_Grossjean_2025
     RDKit          3D

 49 51  0  0  0  0  0  0  0  0999 V2000
  124.5220  124.3730   57.9870 C   0  0  0  0  0  0  0  0  0  0  0  0
  125.5760  124.1550   57.0610 O   0  0  0  0  0  0  0  0  0  0  0  0
  126.1940  122.9480   56.9770 C   0  0  0  0  0  0  0  0  0  0  0  0
  125.7610  122.0080   56.3050 O   0  0  0  0  0  0  0  0  0  0  0  0
  127.4570  122.8710   57.7850 C   0  0  0  0  0  0  0  0  0  0  0  0
  127.4400  122.7500   59.1830 C   0  0  0  0  0  0  0  0  0  0  0  0
  128.6290  122.6780   59.9020 C   0  0  0  0  0  0  0  0  0  0  0  0
  129.8590  122.7290   59.2440 C   0  0  0  0  0  0  0  0  0  0  0  0
  130.9990  122.6450   60.0690 N   0  0  0  0  0  0  0  0  0  0  0  0
  131.1800  121.9840   61.2330 C   0  0  0  0  0  0  0  0  0  0  0  0
  130.3290  121.2880   61.7890 O   0  0  0  0  0  0  0  0  0  0  0  0
  132.5820  122.1430   61.8430 C   0  0  0  0  0  0  0  0  0  0  0  0
  133.2330  123.8480   61.8430 S   0  0  0  0  0  0  0  0  0  0  0  0
  132.9130  124.5530   63.4460 C   0  0  0  0  0  0  0  0  0  0  0  0
  133.9880  124.5260   64.2720 N   0  0  0  0  0  0  0  0  0  0  0  0
  133.8620  125.0360   65.5170 C   0  0  0  0  0  0  0  0  0  0  0  0
  135.1080  124.9830   66.3810 C   0  0  0  0  0  0  0  0  0  0  0  0
  132.6710  125.5820   65.9870 C   0  0  0  0  0  0  0  0  0  0  0  0
  131.5420  125.6060   65.1570 C   0  0  0  0  0  0  0  0  0  0  0  0
  130.2850  126.1970   65.7100 C   0  0  0  0  0  0  0  0  0  0  0  0
  129.8710  125.8820   67.0110 C   0  0  0  0  0  0  0  0  0  0  0  0
  128.7080  126.4360   67.5390 C   0  0  0  0  0  0  0  0  0  0  0  0
  127.9530  127.3150   66.7660 C   0  0  0  0  0  0  0  0  0  0  0  0
  128.3530  127.6460   65.4750 C   0  0  0  0  0  0  0  0  0  0  0  0
  129.5180  127.0910   64.9510 C   0  0  0  0  0  0  0  0  0  0  0  0
  131.6540  125.0630   63.8510 C   0  0  0  0  0  0  0  0  0  0  0  0
  130.4820  124.9770   62.9740 C   0  0  0  0  0  0  0  0  0  0  0  0
  129.5580  124.9090   62.2820 N   0  0  0  0  0  0  0  0  0  0  0  0
  129.8860  122.8460   57.8460 C   0  0  0  0  0  0  0  0  0  0  0  0
  128.6950  122.9170   57.1280 C   0  0  0  0  0  0  0  0  0  0  0  0
  124.9122  124.2923   59.0123 H   0  0  0  0  0  0  0  0  0  0  0  0
  124.1005  125.3773   57.8331 H   0  0  0  0  0  0  0  0  0  0  0  0
  123.7367  123.6183   57.8331 H   0  0  0  0  0  0  0  0  0  0  0  0
  126.4780  122.7117   59.7151 H   0  0  0  0  0  0  0  0  0  0  0  0
  128.5995  122.5801   60.9972 H   0  0  0  0  0  0  0  0  0  0  0  0
  131.8030  123.1390   59.7090 H   0  0  0  0  0  0  0  0  0  0  0  0
  132.5428  121.7925   62.8849 H   0  0  0  0  0  0  0  0  0  0  0  0
  133.2618  121.5539   61.2099 H   0  0  0  0  0  0  0  0  0  0  0  0
  134.8191  124.9953   67.4423 H   0  0  0  0  0  0  0  0  0  0  0  0
  135.6660  124.0603   66.1636 H   0  0  0  0  0  0  0  0  0  0  0  0
  135.7423  125.8550   66.1636 H   0  0  0  0  0  0  0  0  0  0  0  0
  132.6162  125.9930   67.0058 H   0  0  0  0  0  0  0  0  0  0  0  0
  130.4706  125.1904   67.6210 H   0  0  0  0  0  0  0  0  0  0  0  0
  128.3874  126.1812   68.5599 H   0  0  0  0  0  0  0  0  0  0  0  0
  127.0321  127.7515   67.1799 H   0  0  0  0  0  0  0  0  0  0  0  0
  127.7523  128.3423   64.8715 H   0  0  0  0  0  0  0  0  0  0  0  0
  129.8387  127.3567   63.9329 H   0  0  0  0  0  0  0  0  0  0  0  0
  130.8495  122.8817   57.3164 H   0  0  0  0  0  0  0  0  0  0  0  0
  128.7257  123.0103   56.0324 H   0  0  0  0  0  0  0  0  0  0  0  0
  1  2  1  0
  2  3  1  0
  3  4  2  0
  3  5  1  0
  5  6  2  0
  6  7  1  0
  7  8  2  0
  8  9  1  0
  9 10  1  0
 10 11  2  0
 10 12  1  0
 12 13  1  0
 13 14  1  0
 14 15  2  0
 15 16  1  0
 16 17  1  0
 16 18  2  0
 18 19  1  0
 19 20  1  0
 20 21  2  0
 21 22  1  0
 22 23  2  0
 23 24  1  0
 24 25  2  0
 19 26  2  0
 26 27  1  0
 27 28  3  0
  8 29  1  0
 29 30  2  0
 30  5  1  0
 26 14  1  0
 25 20  1  0
  1 31  1  0
  1 32  1  0
  1 33  1  0
  6 34  1  0
  7 35  1  0
  9 36  1  0
 12 37  1  0
 12 38  1  0
 17 39  1  0
 17 40  1  0
 17 41  1  0
 18 42  1  0
 21 43  1  0
 22 44  1  0
 23 45  1  0
 24 46  1  0
 25 47  1  0
 29 48  1  0
 30 49  1  0
M  END
>  <Binding energies>  (1) 
[-8.12]

>  <Ligand effiencies>  (1) 
[-0.2619354838709677]

>  <Interactions>  (1) 
["V-B:GLU:543:CG:9875, V-A:HIS:456:CE1:4064, V-B:GLU:543:CB:9874, V-B:TYR:539:C:9835, V-B:TYR:539:CD2:9842, V-A:LEU:475:CD2:4254, V-B:TYR:539:CE2:9844, V-B:TYR:539:CZ:9845, V-A:GLU:543:CD:4903, V-B:GLU:543:CD:9876, H-A:TYR:484:OH:4343, H-A:GLY:454:N:4045, V-A:GLY:454:CA:4044, V-A:ARG:545:CZ:4921, V-B:PRO:540:CB:9853, V-B:PRO:540:CA:9851, V-B:TYR:539:CE1:9843, V-A:ARG:545:CD:4918, V-A:GLY:453:CA:4039, V-A:ARG:545:CG:4917, V-A:HIS:456:CD2:4063, V-A:GLY:453:C:4037, V-B:LEU:363:CD1:8156, V-B:PRO:540:N:9852, V-B:MET:535:CE:9803, H-B:TYR:531:OH:9763, H-B:TYR:539:N:9838"]

$$$$
3ce_Grossjean_2025
     RDKit          3D

 45 47  0  0  0  0  0  0  0  0999 V2000
  127.7520  127.2560   69.2160 C   0  0  0  0  0  0  0  0  0  0  0  0
  128.1100  127.5180   67.7660 C   0  0  0  0  0  0  0  0  0  0  0  0
  127.8340  128.7430   67.1530 C   0  0  0  0  0  0  0  0  0  0  0  0
  128.2000  128.9160   65.8190 C   0  0  0  0  0  0  0  0  0  0  0  0
  128.8270  127.8720   65.1350 C   0  0  0  0  0  0  0  0  0  0  0  0
  129.0650  126.6670   65.8050 C   0  0  0  0  0  0  0  0  0  0  0  0
  129.7160  125.6590   65.0730 N   0  0  0  0  0  0  0  0  0  0  0  0
  130.8610  125.0100   65.3800 C   0  0  0  0  0  0  0  0  0  0  0  0
  131.5340  125.2050   66.3940 O   0  0  0  0  0  0  0  0  0  0  0  0
  131.3160  123.9550   64.3720 C   0  0  0  0  0  0  0  0  0  0  0  0
  129.9440  122.8900   63.8380 S   0  0  0  0  0  0  0  0  0  0  0  0
  130.4510  122.1910   62.2840 C   0  0  0  0  0  0  0  0  0  0  0  0
  130.2380  120.8560   62.1840 N   0  0  0  0  0  0  0  0  0  0  0  0
  130.5750  120.2320   61.0320 C   0  0  0  0  0  0  0  0  0  0  0  0
  130.2970  118.7420   60.9830 C   0  0  0  0  0  0  0  0  0  0  0  0
  131.1430  120.9040   59.9540 C   0  0  0  0  0  0  0  0  0  0  0  0
  131.3960  122.2790   60.0470 C   0  0  0  0  0  0  0  0  0  0  0  0
  132.0300  122.9510   58.8740 C   0  0  0  0  0  0  0  0  0  0  0  0
  133.3860  122.7450   58.5940 C   0  0  0  0  0  0  0  0  0  0  0  0
  133.9860  123.3730   57.5060 C   0  0  0  0  0  0  0  0  0  0  0  0
  133.2330  124.2170   56.6950 C   0  0  0  0  0  0  0  0  0  0  0  0
  131.8850  124.4410   56.9660 C   0  0  0  0  0  0  0  0  0  0  0  0
  131.2880  123.8110   58.0540 C   0  0  0  0  0  0  0  0  0  0  0  0
  131.0370  122.9500   61.2440 C   0  0  0  0  0  0  0  0  0  0  0  0
  131.2630  124.3910   61.3940 C   0  0  0  0  0  0  0  0  0  0  0  0
  131.4420  125.5280   61.5110 N   0  0  0  0  0  0  0  0  0  0  0  0
  128.7160  126.4930   67.1130 N   0  0  0  0  0  0  0  0  0  0  0  0
  128.4657  127.7783   69.8700 H   0  0  0  0  0  0  0  0  0  0  0  0
  126.7349  127.6246   69.4149 H   0  0  0  0  0  0  0  0  0  0  0  0
  127.7957  126.1750   69.4149 H   0  0  0  0  0  0  0  0  0  0  0  0
  127.3393  129.5522   67.7102 H   0  0  0  0  0  0  0  0  0  0  0  0
  127.9963  129.8687   65.3083 H   0  0  0  0  0  0  0  0  0  0  0  0
  129.1293  127.9954   64.0846 H   0  0  0  0  0  0  0  0  0  0  0  0
  129.2110  125.3280   64.2640 H   0  0  0  0  0  0  0  0  0  0  0  0
  131.7355  124.4628   63.4910 H   0  0  0  0  0  0  0  0  0  0  0  0
  132.0696  123.3200   64.8606 H   0  0  0  0  0  0  0  0  0  0  0  0
  130.2236  118.3488   62.0077 H   0  0  0  0  0  0  0  0  0  0  0  0
  129.3499  118.5629   60.4529 H   0  0  0  0  0  0  0  0  0  0  0  0
  131.1158  118.2335   60.4529 H   0  0  0  0  0  0  0  0  0  0  0  0
  131.3924  120.3578   59.0323 H   0  0  0  0  0  0  0  0  0  0  0  0
  133.9819  122.0820   59.2384 H   0  0  0  0  0  0  0  0  0  0  0  0
  135.0507  123.2029   57.2882 H   0  0  0  0  0  0  0  0  0  0  0  0
  133.7059  124.7110   55.8334 H   0  0  0  0  0  0  0  0  0  0  0  0
  131.2958  125.1120   56.3237 H   0  0  0  0  0  0  0  0  0  0  0  0
  130.2247  123.9898   58.2718 H   0  0  0  0  0  0  0  0  0  0  0  0
  1  2  1  0
  2  3  2  0
  3  4  1  0
  4  5  2  0
  5  6  1  0
  6  7  1  0
  7  8  1  0
  8  9  2  0
  8 10  1  0
 10 11  1  0
 11 12  1  0
 12 13  2  0
 13 14  1  0
 14 15  1  0
 14 16  2  0
 16 17  1  0
 17 18  1  0
 18 19  2  0
 19 20  1  0
 20 21  2  0
 21 22  1  0
 22 23  2  0
 17 24  2  0
 24 25  1  0
 25 26  3  0
  6 27  2  0
 27  2  1  0
 24 12  1  0
 23 18  1  0
  1 28  1  0
  1 29  1  0
  1 30  1  0
  3 31  1  0
  4 32  1  0
  5 33  1  0
  7 34  1  0
 10 35  1  0
 10 36  1  0
 15 37  1  0
 15 38  1  0
 15 39  1  0
 16 40  1  0
 19 41  1  0
 20 42  1  0
 21 43  1  0
 22 44  1  0
 23 45  1  0
M  END
>  <Binding energies>  (1) 
[-7.78]

>  <Ligand effiencies>  (1) 
[-0.27785714285714286]

>  <Interactions>  (1) 
["V-B:GLU:543:CG:9875, V-A:TRP:381:CZ2:3365, V-B:ALA:541:CB:9860, V-B:GLU:543:CB:9874, V-A:TRP:381:CH2:3367, V-B:TYR:539:CD2:9842, V-A:LEU:475:CD2:4254, V-A:PRO:482:CB:4321, V-B:TYR:539:CE2:9844, V-A:ILE:369:CD1:3234, V-B:TYR:539:CZ:9845, V-A:ASP:366:CA:3205, V-A:ILE:369:CB:3231, V-A:ASN:370:CB:3240, V-B:HIS:456:CE1:9037, V-A:ASP:366:CB:3207, V-A:ASP:366:C:3203, V-A:TYR:484:CZ:4342, V-A:GLU:543:CG:4902, V-A:GLU:543:CD:4903, V-B:GLU:543:CD:9876, V-A:ILE:369:CG2:3232, H-A:TYR:484:OH:4343, H-A:HIS:456:NE2:4065, V-A:TYR:531:CZ:4789, H-B:GLU:543:OE2:9878, V-A:TYR:531:CE1:4787"]

$$$$
3ch_Grossjean_2025
     RDKit          3D

 55 57  0  0  0  0  0  0  0  0999 V2000
  129.9550  131.2880   72.9410 C   0  0  0  0  0  0  0  0  0  0  0  0
  130.1920  129.9020   73.1670 O   0  0  0  0  0  0  0  0  0  0  0  0
  129.7930  128.9780   72.2190 C   0  0  0  0  0  0  0  0  0  0  0  0
  129.5920  129.2810   70.8630 C   0  0  0  0  0  0  0  0  0  0  0  0
  129.1960  128.2880   69.9550 C   0  0  0  0  0  0  0  0  0  0  0  0
  128.9750  128.4940   68.5800 N   0  0  0  0  0  0  0  0  0  0  0  0
  128.9250  129.6480   67.8780 C   0  0  0  0  0  0  0  0  0  0  0  0
  129.0860  130.7750   68.3440 O   0  0  0  0  0  0  0  0  0  0  0  0
  128.6890  129.4950   66.3750 C   0  0  0  0  0  0  0  0  0  0  0  0
  127.8240  127.9490   65.9700 S   0  0  0  0  0  0  0  0  0  0  0  0
  129.0500  126.6610   66.0510 C   0  0  0  0  0  0  0  0  0  0  0  0
  129.0280  125.9520   67.2070 N   0  0  0  0  0  0  0  0  0  0  0  0
  129.9260  124.9550   67.3700 C   0  0  0  0  0  0  0  0  0  0  0  0
  129.8500  124.2070   68.6870 C   0  0  0  0  0  0  0  0  0  0  0  0
  130.8720  124.6300   66.4010 C   0  0  0  0  0  0  0  0  0  0  0  0
  130.9060  125.3460   65.1960 C   0  0  0  0  0  0  0  0  0  0  0  0
  131.9450  124.9690   64.1890 C   0  0  0  0  0  0  0  0  0  0  0  0
  131.5920  124.2140   63.0640 C   0  0  0  0  0  0  0  0  0  0  0  0
  132.5550  123.8510   62.1260 C   0  0  0  0  0  0  0  0  0  0  0  0
  133.8790  124.2400   62.3130 C   0  0  0  0  0  0  0  0  0  0  0  0
  134.2480  124.9850   63.4300 C   0  0  0  0  0  0  0  0  0  0  0  0
  133.2820  125.3440   64.3670 C   0  0  0  0  0  0  0  0  0  0  0  0
  129.9570  126.3830   65.0020 C   0  0  0  0  0  0  0  0  0  0  0  0
  129.8860  127.1010   63.7260 C   0  0  0  0  0  0  0  0  0  0  0  0
  129.8290  127.6690   62.7190 N   0  0  0  0  0  0  0  0  0  0  0  0
  128.9820  126.9890   70.4190 C   0  0  0  0  0  0  0  0  0  0  0  0
  129.1740  126.6620   71.7700 C   0  0  0  0  0  0  0  0  0  0  0  0
  128.9870  125.3930   72.2920 O   0  0  0  0  0  0  0  0  0  0  0  0
  129.8740  124.3440   71.9180 C   0  0  0  0  0  0  0  0  0  0  0  0
  129.5770  127.6650   72.6600 C   0  0  0  0  0  0  0  0  0  0  0  0
  129.7860  127.3540   73.9830 O   0  0  0  0  0  0  0  0  0  0  0  0
  130.9130  126.5180   74.2100 C   0  0  0  0  0  0  0  0  0  0  0  0
  129.8662  131.8071   73.9068 H   0  0  0  0  0  0  0  0  0  0  0  0
  130.7931  131.7151   72.3708 H   0  0  0  0  0  0  0  0  0  0  0  0
  129.0226  131.4124   72.3708 H   0  0  0  0  0  0  0  0  0  0  0  0
  129.7471  130.3105   70.5080 H   0  0  0  0  0  0  0  0  0  0  0  0
  128.8800  127.6440   68.0440 H   0  0  0  0  0  0  0  0  0  0  0  0
  128.0826  130.3428   66.0235 H   0  0  0  0  0  0  0  0  0  0  0  0
  129.6708  129.4725   65.8795 H   0  0  0  0  0  0  0  0  0  0  0  0
  129.9227  124.9222   69.5196 H   0  0  0  0  0  0  0  0  0  0  0  0
  128.8926  123.6689   68.7483 H   0  0  0  0  0  0  0  0  0  0  0  0
  130.6796  123.4873   68.7483 H   0  0  0  0  0  0  0  0  0  0  0  0
  131.5892  123.8154   66.5802 H   0  0  0  0  0  0  0  0  0  0  0  0
  130.5461  123.9053   62.9200 H   0  0  0  0  0  0  0  0  0  0  0  0
  132.2715  123.2604   61.2424 H   0  0  0  0  0  0  0  0  0  0  0  0
  134.6403  123.9561   61.5715 H   0  0  0  0  0  0  0  0  0  0  0  0
  135.2959  125.2881   63.5715 H   0  0  0  0  0  0  0  0  0  0  0  0
  133.5719  125.9267   65.2538 H   0  0  0  0  0  0  0  0  0  0  0  0
  128.6576  126.2092   69.7143 H   0  0  0  0  0  0  0  0  0  0  0  0
  130.2783  123.8658   72.8224 H   0  0  0  0  0  0  0  0  0  0  0  0
  129.3287  123.5979   71.3213 H   0  0  0  0  0  0  0  0  0  0  0  0
  130.7003  124.7578   71.3213 H   0  0  0  0  0  0  0  0  0  0  0  0
  131.0707  126.4010   75.2923 H   0  0  0  0  0  0  0  0  0  0  0  0
  130.7351  125.5317   73.7567 H   0  0  0  0  0  0  0  0  0  0  0  0
  131.8053  126.9744   73.7567 H   0  0  0  0  0  0  0  0  0  0  0  0
  1  2  1  0
  2  3  1  0
  3  4  2  0
  4  5  1  0
  5  6  1  0
  6  7  1  0
  7  8  2  0
  7  9  1  0
  9 10  1  0
 10 11  1  0
 11 12  2  0
 12 13  1  0
 13 14  1  0
 13 15  2  0
 15 16  1  0
 16 17  1  0
 17 18  2  0
 18 19  1  0
 19 20  2  0
 20 21  1  0
 21 22  2  0
 16 23  2  0
 23 24  1  0
 24 25  3  0
  5 26  2  0
 26 27  1  0
 27 28  1  0
 28 29  1  0
 27 30  2  0
 30 31  1  0
 31 32  1  0
 30  3  1  0
 23 11  1  0
 22 17  1  0
  1 33  1  0
  1 34  1  0
  1 35  1  0
  4 36  1  0
  6 37  1  0
  9 38  1  0
  9 39  1  0
 14 40  1  0
 14 41  1  0
 14 42  1  0
 15 43  1  0
 18 44  1  0
 19 45  1  0
 20 46  1  0
 21 47  1  0
 22 48  1  0
 26 49  1  0
 29 50  1  0
 29 51  1  0
 29 52  1  0
 32 53  1  0
 32 54  1  0
 32 55  1  0
M  END
>  <Binding energies>  (1) 
[-7.45]

>  <Ligand effiencies>  (1) 
[-0.22575757575757577]

>  <Interactions>  (1) 
["V-B:GLU:543:CG:9875, V-A:HIS:456:CE1:4064, H-B:LYS:547:NZ:9919, V-B:GLU:543:CB:9874, V-A:GLU:543:CB:4901, V-A:ILE:369:CD1:3234, V-A:ASP:366:CG:3208, V-B:HIS:456:CE1:9037, V-A:TYR:484:CZ:4342, V-A:GLU:543:CG:4902, V-B:GLU:543:C:9870, V-A:TYR:484:CE1:4340, V-B:GLU:543:CA:9872, V-A:GLU:543:CD:4903, V-B:GLU:543:CD:9876, V-A:ARG:545:CZ:4921, V-A:GLU:543:C:4897, V-A:LYS:547:CE:4945, V-B:HIS:456:CD2:9035, V-A:GLY:544:CA:4909, H-A:LYS:547:NZ:4946, V-A:GLY:453:CA:4039, V-A:GLY:453:C:4037, V-A:GLU:543:CA:4899"]

$$$$
3ci_Grossjean_2025
     RDKit          3D

 39 41  0  0  0  0  0  0  0  0999 V2000
  130.2580  118.6260   61.6200 C   0  0  0  0  0  0  0  0  0  0  0  0
  130.2860  120.0030   60.9840 C   0  0  0  0  0  0  0  0  0  0  0  0
  129.1210  120.7320   60.7680 C   0  0  0  0  0  0  0  0  0  0  0  0
  129.1990  122.0080   60.1920 C   0  0  0  0  0  0  0  0  0  0  0  0
  127.9240  122.7600   59.9930 C   0  0  0  0  0  0  0  0  0  0  0  0
  127.1780  123.2080   61.0910 C   0  0  0  0  0  0  0  0  0  0  0  0
  125.9850  123.9010   60.9000 C   0  0  0  0  0  0  0  0  0  0  0  0
  125.5310  124.1450   59.6080 C   0  0  0  0  0  0  0  0  0  0  0  0
  126.2560  123.7000   58.5060 C   0  0  0  0  0  0  0  0  0  0  0  0
  127.4480  123.0070   58.7000 C   0  0  0  0  0  0  0  0  0  0  0  0
  130.4770  122.5090   59.8350 C   0  0  0  0  0  0  0  0  0  0  0  0
  130.6180  123.8180   59.1900 C   0  0  0  0  0  0  0  0  0  0  0  0
  130.7270  124.8530   58.6810 N   0  0  0  0  0  0  0  0  0  0  0  0
  131.6120  121.7020   60.0950 C   0  0  0  0  0  0  0  0  0  0  0  0
  133.2720  122.2430   59.7060 S   0  0  0  0  0  0  0  0  0  0  0  0
  133.6070  123.8260   60.5450 C   0  0  0  0  0  0  0  0  0  0  0  0
  133.2800  123.8020   62.0420 C   0  0  0  0  0  0  0  0  0  0  0  0
  132.7470  122.8020   62.5260 O   0  0  0  0  0  0  0  0  0  0  0  0
  133.5980  124.9210   62.7310 N   0  0  0  0  0  0  0  0  0  0  0  0
  133.4340  125.1470   64.0900 C   0  0  0  0  0  0  0  0  0  0  0  0
  132.2530  125.6440   64.6420 C   0  0  0  0  0  0  0  0  0  0  0  0
  132.4960  125.7250   65.9940 C   0  0  0  0  0  0  0  0  0  0  0  0
  133.7580  125.2970   66.2430 O   0  0  0  0  0  0  0  0  0  0  0  0
  134.3420  124.9350   65.0280 N   0  0  0  0  0  0  0  0  0  0  0  0
  131.5100  120.4690   60.6530 N   0  0  0  0  0  0  0  0  0  0  0  0
  130.2601  118.7279   62.7153 H   0  0  0  0  0  0  0  0  0  0  0  0
  129.3489  118.0941   61.3029 H   0  0  0  0  0  0  0  0  0  0  0  0
  131.1448  118.0576   61.3029 H   0  0  0  0  0  0  0  0  0  0  0  0
  128.1444  120.3099   61.0474 H   0  0  0  0  0  0  0  0  0  0  0  0
  127.5372  123.0109   62.1118 H   0  0  0  0  0  0  0  0  0  0  0  0
  125.4052  124.2533   61.7659 H   0  0  0  0  0  0  0  0  0  0  0  0
  124.5904  124.6946   59.4556 H   0  0  0  0  0  0  0  0  0  0  0  0
  125.8891  123.8948   57.4874 H   0  0  0  0  0  0  0  0  0  0  0  0
  128.0200  122.6509   57.8305 H   0  0  0  0  0  0  0  0  0  0  0  0
  134.6739  124.0655   60.4248 H   0  0  0  0  0  0  0  0  0  0  0  0
  132.9566  124.5829   60.0824 H   0  0  0  0  0  0  0  0  0  0  0  0
  134.0250  125.6750   62.2140 H   0  0  0  0  0  0  0  0  0  0  0  0
  131.3278  125.9129   64.1113 H   0  0  0  0  0  0  0  0  0  0  0  0
  131.7812  126.0800   66.7510 H   0  0  0  0  0  0  0  0  0  0  0  0
  1  2  1  0
  2  3  2  0
  3  4  1  0
  4  5  1  0
  5  6  2  0
  6  7  1  0
  7  8  2  0
  8  9  1  0
  9 10  2  0
  4 11  2  0
 11 12  1  0
 12 13  3  0
 11 14  1  0
 14 15  1  0
 15 16  1  0
 16 17  1  0
 17 18  2  0
 17 19  1  0
 19 20  1  0
 20 21  1  0
 21 22  2  0
 22 23  1  0
 23 24  1  0
 14 25  2  0
 25  2  1  0
 10  5  1  0
 24 20  2  0
  1 26  1  0
  1 27  1  0
  1 28  1  0
  3 29  1  0
  6 30  1  0
  7 31  1  0
  8 32  1  0
  9 33  1  0
 10 34  1  0
 16 35  1  0
 16 36  1  0
 19 37  1  0
 21 38  1  0
 22 39  1  0
M  END
>  <Binding energies>  (1) 
[-7.86]

>  <Ligand effiencies>  (1) 
[-0.30230769230769233]

>  <Interactions>  (1) 
["V-B:PRO:540:C:9849, V-A:PRO:482:CG:4322, V-A:TRP:381:CZ2:3365, V-B:ALA:541:CB:9860, V-B:ALA:541:CA:9858, V-A:TRP:381:CH2:3367, V-B:TYR:539:C:9835, V-B:TYR:539:CD2:9842, V-A:LEU:475:CD2:4254, V-A:PRO:482:CB:4321, V-B:TYR:539:CE2:9844, V-A:ILE:369:CD1:3234, V-A:ASP:366:CG:3208, V-A:ASP:366:CB:3207, V-B:GLU:543:CD:9876, H-A:ASP:366:OD2:3210, H-A:ARG:545:NH1:4922, H-A:TYR:484:OH:4343, H-A:ARG:545:NE:4919, H-A:ASP:366:OD1:3209, H-A:GLY:454:N:4045, V-A:ARG:545:CZ:4921, V-B:PRO:540:CB:9853, V-B:PRO:540:CA:9851, H-A:HIS:456:NE2:4065, V-A:LEU:475:CD1:4253, V-B:PRO:540:N:9852, V-A:LEU:475:CG:4252"]

$$$$
3cj_Grossjean_2025
     RDKit          3D

 39 41  0  0  0  0  0  0  0  0999 V2000
  127.8450  129.5340   64.6380 C   0  0  0  0  0  0  0  0  0  0  0  0
  128.3830  128.3510   65.4190 C   0  0  0  0  0  0  0  0  0  0  0  0
  129.4280  127.5690   64.9300 C   0  0  0  0  0  0  0  0  0  0  0  0
  129.9090  126.4990   65.6960 C   0  0  0  0  0  0  0  0  0  0  0  0
  131.0710  125.7300   65.1620 C   0  0  0  0  0  0  0  0  0  0  0  0
  132.3170  125.7910   65.7990 C   0  0  0  0  0  0  0  0  0  0  0  0
  133.4040  125.0840   65.2920 C   0  0  0  0  0  0  0  0  0  0  0  0
  133.2500  124.3160   64.1420 C   0  0  0  0  0  0  0  0  0  0  0  0
  132.0200  124.2530   63.4920 C   0  0  0  0  0  0  0  0  0  0  0  0
  130.9340  124.9610   64.0010 C   0  0  0  0  0  0  0  0  0  0  0  0
  129.2870  126.2260   66.9390 C   0  0  0  0  0  0  0  0  0  0  0  0
  129.7260  125.1020   67.7730 C   0  0  0  0  0  0  0  0  0  0  0  0
  130.0740  124.2160   68.4310 N   0  0  0  0  0  0  0  0  0  0  0  0
  128.2370  127.0730   67.3590 C   0  0  0  0  0  0  0  0  0  0  0  0
  127.4610  126.9240   68.9540 S   0  0  0  0  0  0  0  0  0  0  0  0
  128.5560  127.8310   70.0920 C   0  0  0  0  0  0  0  0  0  0  0  0
  128.9940  126.9620   71.2760 C   0  0  0  0  0  0  0  0  0  0  0  0
  129.0690  127.4610   72.4010 O   0  0  0  0  0  0  0  0  0  0  0  0
  129.2350  125.6650   70.9840 N   0  0  0  0  0  0  0  0  0  0  0  0
  129.5110  124.6520   71.8870 C   0  0  0  0  0  0  0  0  0  0  0  0
  129.1410  124.5680   73.1470 N   0  0  0  0  0  0  0  0  0  0  0  0
  129.5560  123.4460   73.6990 C   0  0  0  0  0  0  0  0  0  0  0  0
  130.2840  122.5880   72.8800 C   0  0  0  0  0  0  0  0  0  0  0  0
  130.4280  123.3010   71.3000 S   0  0  0  0  0  0  0  0  0  0  0  0
  127.8000  128.1220   66.6170 N   0  0  0  0  0  0  0  0  0  0  0  0
  127.4937  130.3064   65.3381 H   0  0  0  0  0  0  0  0  0  0  0  0
  128.6430  129.9488   64.0047 H   0  0  0  0  0  0  0  0  0  0  0  0
  127.0079  129.2051   64.0047 H   0  0  0  0  0  0  0  0  0  0  0  0
  129.8725  127.7906   63.9485 H   0  0  0  0  0  0  0  0  0  0  0  0
  132.4375  126.4016   66.7060 H   0  0  0  0  0  0  0  0  0  0  0  0
  134.3795  125.1323   65.7980 H   0  0  0  0  0  0  0  0  0  0  0  0
  134.1071  123.7538   63.7429 H   0  0  0  0  0  0  0  0  0  0  0  0
  131.9067  123.6470   62.5810 H   0  0  0  0  0  0  0  0  0  0  0  0
  129.9625  124.9154   63.4871 H   0  0  0  0  0  0  0  0  0  0  0  0
  129.4500  128.1580   69.5407 H   0  0  0  0  0  0  0  0  0  0  0  0
  127.9983  128.6922   70.4885 H   0  0  0  0  0  0  0  0  0  0  0  0
  129.1210  125.3780   70.0230 H   0  0  0  0  0  0  0  0  0  0  0  0
  129.3391  123.2009   74.7492 H   0  0  0  0  0  0  0  0  0  0  0  0
  130.7009  121.6162   73.1829 H   0  0  0  0  0  0  0  0  0  0  0  0
  1  2  1  0
  2  3  2  0
  3  4  1  0
  4  5  1  0
  5  6  2  0
  6  7  1  0
  7  8  2  0
  8  9  1  0
  9 10  2  0
  4 11  2  0
 11 12  1  0
 12 13  3  0
 11 14  1  0
 14 15  1  0
 15 16  1  0
 16 17  1  0
 17 18  2  0
 17 19  1  0
 19 20  1  0
 20 21  2  0
 21 22  1  0
 22 23  2  0
 23 24  1  0
 14 25  2  0
 25  2  1  0
 10  5  1  0
 24 20  1  0
  1 26  1  0
  1 27  1  0
  1 28  1  0
  3 29  1  0
  6 30  1  0
  7 31  1  0
  8 32  1  0
  9 33  1  0
 10 34  1  0
 16 35  1  0
 16 36  1  0
 19 37  1  0
 22 38  1  0
 23 39  1  0
M  END
>  <Binding energies>  (1) 
[-7.03]

>  <Ligand effiencies>  (1) 
[-0.2703846153846154]

>  <Interactions>  (1) 
["V-B:GLU:543:CG:9875, H-B:GLU:543:O:9871, V-A:HIS:456:CE1:4064, H-B:LYS:547:NZ:9919, V-B:GLU:543:CB:9874, V-B:HIS:456:CE1:9037, V-B:GLU:543:C:9870, V-B:GLU:543:CA:9872, V-A:GLU:543:CD:4903, V-A:ARG:545:CZ:4921, H-A:HIS:456:NE2:4065, V-A:HIS:456:CG:4061, V-A:HIS:456:CD2:4063, V-B:LYS:547:CE:9918"]

$$$$
3ck_Grossjean_2025
     RDKit          3D

 57 58  0  0  0  0  0  0  0  0999 V2000
  124.6780  123.6100   61.6420 C   0  0  0  0  0  0  0  0  0  0  0  0
  125.9930  123.0980   61.4930 O   0  0  0  0  0  0  0  0  0  0  0  0
  126.8460  123.9390   60.7290 C   0  0  0  0  0  0  0  0  0  0  0  0
  128.2510  123.3270   60.6680 C   0  0  0  0  0  0  0  0  0  0  0  0
  128.3570  122.2950   61.6400 O   0  0  0  0  0  0  0  0  0  0  0  0
  128.8220  122.7410   62.9070 C   0  0  0  0  0  0  0  0  0  0  0  0
  130.2590  122.2490   63.1160 C   0  0  0  0  0  0  0  0  0  0  0  0
  130.8690  123.0570   64.1110 O   0  0  0  0  0  0  0  0  0  0  0  0
  131.7790  124.0270   63.6150 C   0  0  0  0  0  0  0  0  0  0  0  0
  131.1870  124.6950   62.3600 C   0  0  0  0  0  0  0  0  0  0  0  0
  130.0310  125.5520   62.6380 N   0  0  0  0  0  0  0  0  0  0  0  0
  130.0710  126.8810   62.8440 C   0  0  0  0  0  0  0  0  0  0  0  0
  131.1110  127.5420   62.7940 O   0  0  0  0  0  0  0  0  0  0  0  0
  128.7180  127.5450   63.1450 C   0  0  0  0  0  0  0  0  0  0  0  0
  128.7020  128.6730   64.5810 S   0  0  0  0  0  0  0  0  0  0  0  0
  129.0750  127.7430   66.0600 C   0  0  0  0  0  0  0  0  0  0  0  0
  129.3410  126.4260   65.8720 N   0  0  0  0  0  0  0  0  0  0  0  0
  129.6270  125.6600   66.9490 C   0  0  0  0  0  0  0  0  0  0  0  0
  129.9100  124.1980   66.6610 C   0  0  0  0  0  0  0  0  0  0  0  0
  129.6600  126.1690   68.2450 C   0  0  0  0  0  0  0  0  0  0  0  0
  129.3830  127.5250   68.4630 C   0  0  0  0  0  0  0  0  0  0  0  0
  129.4070  128.0220   69.8710 C   0  0  0  0  0  0  0  0  0  0  0  0
  128.2750  127.8870   70.6840 C   0  0  0  0  0  0  0  0  0  0  0  0
  128.2870  128.3570   71.9960 C   0  0  0  0  0  0  0  0  0  0  0  0
  129.4310  128.9700   72.4970 C   0  0  0  0  0  0  0  0  0  0  0  0
  130.5630  129.1200   71.6980 C   0  0  0  0  0  0  0  0  0  0  0  0
  130.5480  128.6490   70.3890 C   0  0  0  0  0  0  0  0  0  0  0  0
  129.0930  128.3430   67.3410 C   0  0  0  0  0  0  0  0  0  0  0  0
  128.8370  129.7780   67.5050 C   0  0  0  0  0  0  0  0  0  0  0  0
  128.6350  130.9110   67.6350 N   0  0  0  0  0  0  0  0  0  0  0  0
  124.4397  123.7028   62.7119 H   0  0  0  0  0  0  0  0  0  0  0  0
  124.6133  124.5990   61.1648 H   0  0  0  0  0  0  0  0  0  0  0  0
  123.9616  122.9251   61.1648 H   0  0  0  0  0  0  0  0  0  0  0  0
  126.4451  124.0380   59.7094 H   0  0  0  0  0  0  0  0  0  0  0  0
  126.8997  124.9310   61.2012 H   0  0  0  0  0  0  0  0  0  0  0  0
  128.4258  122.9075   59.6663 H   0  0  0  0  0  0  0  0  0  0  0  0
  129.0009  124.1051   60.8736 H   0  0  0  0  0  0  0  0  0  0  0  0
  128.8005  123.8403   62.9411 H   0  0  0  0  0  0  0  0  0  0  0  0
  128.1743  122.3411   63.7011 H   0  0  0  0  0  0  0  0  0  0  0  0
  130.2482  121.1994   63.4450 H   0  0  0  0  0  0  0  0  0  0  0  0
  130.8231  122.3189   62.1743 H   0  0  0  0  0  0  0  0  0  0  0  0
  131.9573  124.7904   64.3867 H   0  0  0  0  0  0  0  0  0  0  0  0
  132.7294  123.5378   63.3552 H   0  0  0  0  0  0  0  0  0  0  0  0
  131.9700  125.3094   61.8916 H   0  0  0  0  0  0  0  0  0  0  0  0
  130.8368  123.8870   61.7009 H   0  0  0  0  0  0  0  0  0  0  0  0
  129.1350  125.0890   62.6800 H   0  0  0  0  0  0  0  0  0  0  0  0
  128.4177  128.1212   62.2574 H   0  0  0  0  0  0  0  0  0  0  0  0
  128.0272  126.7262   63.3948 H   0  0  0  0  0  0  0  0  0  0  0  0
  130.0158  123.6512   67.6096 H   0  0  0  0  0  0  0  0  0  0  0  0
  129.0779  123.7705   66.0823 H   0  0  0  0  0  0  0  0  0  0  0  0
  130.8415  124.1119   66.0823 H   0  0  0  0  0  0  0  0  0  0  0  0
  129.9020  125.5105   69.0922 H   0  0  0  0  0  0  0  0  0  0  0  0
  127.3698  127.4066   70.2843 H   0  0  0  0  0  0  0  0  0  0  0  0
  127.3967  128.2439   72.6320 H   0  0  0  0  0  0  0  0  0  0  0  0
  129.4422  129.3396   73.5330 H   0  0  0  0  0  0  0  0  0  0  0  0
  131.4631  129.6080   72.1000 H   0  0  0  0  0  0  0  0  0  0  0  0
  131.4391  128.7698   69.7555 H   0  0  0  0  0  0  0  0  0  0  0  0
  1  2  1  0
  2  3  1  0
  3  4  1  0
  4  5  1  0
  5  6  1  0
  6  7  1  0
  7  8  1  0
  8  9  1  0
  9 10  1  0
 10 11  1  0
 11 12  1  0
 12 13  2  0
 12 14  1  0
 14 15  1  0
 15 16  1  0
 16 17  2  0
 17 18  1  0
 18 19  1  0
 18 20  2  0
 20 21  1  0
 21 22  1  0
 22 23  2  0
 23 24  1  0
 24 25  2  0
 25 26  1  0
 26 27  2  0
 21 28  2  0
 28 29  1  0
 29 30  3  0
 28 16  1  0
 27 22  1  0
  1 31  1  0
  1 32  1  0
  1 33  1  0
  3 34  1  0
  3 35  1  0
  4 36  1  0
  4 37  1  0
  6 38  1  0
  6 39  1  0
  7 40  1  0
  7 41  1  0
  9 42  1  0
  9 43  1  0
 10 44  1  0
 10 45  1  0
 11 46  1  0
 14 47  1  0
 14 48  1  0
 19 49  1  0
 19 50  1  0
 19 51  1  0
 20 52  1  0
 23 53  1  0
 24 54  1  0
 25 55  1  0
 26 56  1  0
 27 57  1  0
M  END
>  <Binding energies>  (1) 
[-5.99]

>  <Ligand effiencies>  (1) 
[-0.1932258064516129]

>  <Interactions>  (1) 
["V-B:GLU:543:CG:9875, V-A:HIS:456:CE1:4064, V-B:ALA:541:CB:9860, V-B:GLU:543:CB:9874, V-B:ALA:541:CA:9858, V-A:GLU:543:CB:4901, V-B:HIS:456:CE1:9037, V-A:TYR:484:CZ:4342, V-A:GLU:543:CG:4902, H-B:TYR:484:OH:9315, V-A:TYR:484:CE1:4340, V-B:GLU:543:CA:9872, V-A:GLU:543:CD:4903, V-B:GLU:543:CD:9876, H-A:TYR:484:OH:4343, H-A:ARG:545:NH2:4923, V-B:ASN:362:CB:8143, V-B:PRO:540:CB:9853, H-B:ALA:541:N:9859, V-B:PRO:540:CA:9851, V-A:GLY:544:C:4907, V-A:GLU:543:C:4897, V-B:HIS:456:CD2:9035, V-A:GLY:544:CA:4909, H-B:GLU:543:OE2:9878, V-A:GLU:543:CA:4899"]

$$$$
4aa_Grossjean_2025
     RDKit          3D

 45 47  0  0  0  0  0  0  0  0999 V2000
  130.0210  128.7750   71.2770 C   0  0  0  0  0  0  0  0  0  0  0  0
  129.9070  127.4410   72.0220 C   0  0  0  0  0  0  0  0  0  0  0  0
  128.7480  126.7480   71.5760 O   0  0  0  0  0  0  0  0  0  0  0  0
  128.0090  127.2140   70.5370 C   0  0  0  0  0  0  0  0  0  0  0  0
  127.0190  127.9400   70.6770 O   0  0  0  0  0  0  0  0  0  0  0  0
  128.5120  126.7560   69.1990 C   0  0  0  0  0  0  0  0  0  0  0  0
  129.4750  125.7400   69.1410 C   0  0  0  0  0  0  0  0  0  0  0  0
  129.9650  125.2970   67.9160 C   0  0  0  0  0  0  0  0  0  0  0  0
  129.4980  125.8530   66.7240 C   0  0  0  0  0  0  0  0  0  0  0  0
  130.0670  125.3360   65.5440 N   0  0  0  0  0  0  0  0  0  0  0  0
  131.3530  125.0170   65.2620 C   0  0  0  0  0  0  0  0  0  0  0  0
  132.2940  125.1810   66.0400 O   0  0  0  0  0  0  0  0  0  0  0  0
  131.5810  124.4670   63.9240 C   0  0  0  0  0  0  0  0  0  0  0  0
  133.0130  124.9330   63.0030 S   0  0  0  0  0  0  0  0  0  0  0  0
  132.5160  123.9500   61.6440 C   0  0  0  0  0  0  0  0  0  0  0  0
  133.2420  123.8690   60.5280 N   0  0  0  0  0  0  0  0  0  0  0  0
  132.7420  123.0760   59.5490 C   0  0  0  0  0  0  0  0  0  0  0  0
  133.5810  123.0010   58.2870 C   0  0  0  0  0  0  0  0  0  0  0  0
  131.5470  122.3680   59.6600 C   0  0  0  0  0  0  0  0  0  0  0  0
  130.7880  122.4550   60.8320 C   0  0  0  0  0  0  0  0  0  0  0  0
  129.4910  121.6640   60.9060 C   0  0  0  0  0  0  0  0  0  0  0  0
  131.2780  123.2800   61.8800 C   0  0  0  0  0  0  0  0  0  0  0  0
  130.7650  123.5960   63.1870 C   0  0  0  0  0  0  0  0  0  0  0  0
  129.5820  123.0780   63.6530 N   0  0  0  0  0  0  0  0  0  0  0  0
  128.5380  126.8740   66.7720 C   0  0  0  0  0  0  0  0  0  0  0  0
  128.0510  127.3190   67.9990 C   0  0  0  0  0  0  0  0  0  0  0  0
  130.0912  129.5967   72.0050 H   0  0  0  0  0  0  0  0  0  0  0  0
  130.9217  128.7665   70.6456 H   0  0  0  0  0  0  0  0  0  0  0  0
  129.1319  128.9195   70.6456 H   0  0  0  0  0  0  0  0  0  0  0  0
  130.7997  126.8307   71.8204 H   0  0  0  0  0  0  0  0  0  0  0  0
  129.8290  127.6295   73.1029 H   0  0  0  0  0  0  0  0  0  0  0  0
  129.8472  125.2883   70.0723 H   0  0  0  0  0  0  0  0  0  0  0  0
  130.7258  124.5030   67.8870 H   0  0  0  0  0  0  0  0  0  0  0  0
  129.4060  125.2000   64.7930 H   0  0  0  0  0  0  0  0  0  0  0  0
  134.6429  122.9061   58.5578 H   0  0  0  0  0  0  0  0  0  0  0  0
  133.2742  122.1267   57.6941 H   0  0  0  0  0  0  0  0  0  0  0  0
  133.4341  123.9159   57.6941 H   0  0  0  0  0  0  0  0  0  0  0  0
  131.2003  121.7404   58.8258 H   0  0  0  0  0  0  0  0  0  0  0  0
  129.2214  121.4996   61.9597 H   0  0  0  0  0  0  0  0  0  0  0  0
  128.6891  122.2270   60.4059 H   0  0  0  0  0  0  0  0  0  0  0  0
  129.6244  120.6934   60.4059 H   0  0  0  0  0  0  0  0  0  0  0  0
  129.5010  122.1150   63.9450 H   0  0  0  0  0  0  0  0  0  0  0  0
  128.7490  123.6450   63.7170 H   0  0  0  0  0  0  0  0  0  0  0  0
  128.1687  127.3245   65.8389 H   0  0  0  0  0  0  0  0  0  0  0  0
  127.2974  128.1198   68.0276 H   0  0  0  0  0  0  0  0  0  0  0  0
  1  2  1  0
  2  3  1  0
  3  4  1  0
  4  5  2  0
  4  6  1  0
  6  7  2  0
  7  8  1  0
  8  9  2  0
  9 10  1  0
 10 11  1  0
 11 12  2  0
 11 13  1  0
 13 14  1  0
 14 15  1  0
 15 16  2  0
 16 17  1  0
 17 18  1  0
 17 19  2  0
 19 20  1  0
 20 21  1  0
 20 22  2  0
 22 23  1  0
 23 24  1  0
  9 25  1  0
 25 26  2  0
 26  6  1  0
 23 13  2  0
 22 15  1  0
  1 27  1  0
  1 28  1  0
  1 29  1  0
  2 30  1  0
  2 31  1  0
  7 32  1  0
  8 33  1  0
 10 34  1  0
 18 35  1  0
 18 36  1  0
 18 37  1  0
 19 38  1  0
 21 39  1  0
 21 40  1  0
 21 41  1  0
 24 42  1  0
 24 43  1  0
 25 44  1  0
 26 45  1  0
M  END
>  <Binding energies>  (1) 
[-6.89]

>  <Ligand effiencies>  (1) 
[-0.23758620689655172]

>  <Interactions>  (1) 
["V-B:GLU:543:CG:9875, V-A:HIS:456:CE1:4064, H-B:LYS:547:NZ:9919, V-B:ALA:541:CB:9860, V-B:GLU:543:CB:9874, V-B:TYR:539:CE2:9844, V-A:ILE:369:CD1:3234, V-A:ILE:369:CB:3231, V-A:ASP:366:CG:3208, V-B:HIS:456:CE1:9037, V-B:GLU:543:C:9870, V-B:GLU:543:CD:9876, V-A:ILE:369:CG2:3232, H-A:TYR:484:OH:4343, V-A:ARG:545:CZ:4921, H-A:HIS:456:NE2:4065, H-B:GLU:543:OE2:9878, H-B:HIS:456:ND1:9034"]

$$$$
4ab_Grossjean_2025
     RDKit          3D

 42 44  0  0  0  0  0  0  0  0999 V2000
  129.8740  128.7380   70.4560 C   0  0  0  0  0  0  0  0  0  0  0  0
  128.8220  127.9910   71.0510 O   0  0  0  0  0  0  0  0  0  0  0  0
  127.8720  127.3930   70.2890 C   0  0  0  0  0  0  0  0  0  0  0  0
  126.6950  127.2690   70.6420 O   0  0  0  0  0  0  0  0  0  0  0  0
  128.3970  126.8890   68.9750 C   0  0  0  0  0  0  0  0  0  0  0  0
  129.3780  125.8880   68.9700 C   0  0  0  0  0  0  0  0  0  0  0  0
  129.8860  125.4010   67.7680 C   0  0  0  0  0  0  0  0  0  0  0  0
  129.4190  125.8960   66.5510 C   0  0  0  0  0  0  0  0  0  0  0  0
  130.0070  125.3380   65.4000 N   0  0  0  0  0  0  0  0  0  0  0  0
  131.2810  124.9340   65.1780 C   0  0  0  0  0  0  0  0  0  0  0  0
  132.1940  125.0380   65.9980 O   0  0  0  0  0  0  0  0  0  0  0  0
  131.5340  124.3670   63.8520 C   0  0  0  0  0  0  0  0  0  0  0  0
  132.9700  124.8390   62.9410 S   0  0  0  0  0  0  0  0  0  0  0  0
  132.5060  123.8270   61.5920 C   0  0  0  0  0  0  0  0  0  0  0  0
  133.2460  123.7400   60.4870 N   0  0  0  0  0  0  0  0  0  0  0  0
  132.7720  122.9220   59.5150 C   0  0  0  0  0  0  0  0  0  0  0  0
  133.6270  122.8410   58.2640 C   0  0  0  0  0  0  0  0  0  0  0  0
  131.5900  122.1940   59.6240 C   0  0  0  0  0  0  0  0  0  0  0  0
  130.8140  122.2880   60.7850 C   0  0  0  0  0  0  0  0  0  0  0  0
  129.5300  121.4760   60.8560 C   0  0  0  0  0  0  0  0  0  0  0  0
  131.2770  123.1400   61.8250 C   0  0  0  0  0  0  0  0  0  0  0  0
  130.7420  123.4700   63.1180 C   0  0  0  0  0  0  0  0  0  0  0  0
  129.5610  122.9430   63.5780 N   0  0  0  0  0  0  0  0  0  0  0  0
  128.4410  126.9020   66.5460 C   0  0  0  0  0  0  0  0  0  0  0  0
  127.9360  127.3900   67.7490 C   0  0  0  0  0  0  0  0  0  0  0  0
  130.4996  129.1822   71.2442 H   0  0  0  0  0  0  0  0  0  0  0  0
  130.4884  128.0727   69.8316 H   0  0  0  0  0  0  0  0  0  0  0  0
  129.4484  129.5374   69.8316 H   0  0  0  0  0  0  0  0  0  0  0  0
  129.7497  125.4837   69.9231 H   0  0  0  0  0  0  0  0  0  0  0  0
  130.6610  124.6205   67.7789 H   0  0  0  0  0  0  0  0  0  0  0  0
  129.3740  125.2410   64.6200 H   0  0  0  0  0  0  0  0  0  0  0  0
  134.6848  122.7408   58.5487 H   0  0  0  0  0  0  0  0  0  0  0  0
  133.3233  121.9676   57.6682 H   0  0  0  0  0  0  0  0  0  0  0  0
  133.4927  123.7559   57.6682 H   0  0  0  0  0  0  0  0  0  0  0  0
  131.2660  121.5447   58.7973 H   0  0  0  0  0  0  0  0  0  0  0  0
  129.2614  121.3061   61.9091 H   0  0  0  0  0  0  0  0  0  0  0  0
  128.7199  122.0264   60.3551 H   0  0  0  0  0  0  0  0  0  0  0  0
  129.6800  120.5082   60.3551 H   0  0  0  0  0  0  0  0  0  0  0  0
  128.7320  123.5070   63.6870 H   0  0  0  0  0  0  0  0  0  0  0  0
  129.4860  121.9660   63.8290 H   0  0  0  0  0  0  0  0  0  0  0  0
  128.0727  127.3057   65.5913 H   0  0  0  0  0  0  0  0  0  0  0  0
  127.1674  128.1768   67.7372 H   0  0  0  0  0  0  0  0  0  0  0  0
  1  2  1  0
  2  3  1  0
  3  4  2  0
  3  5  1  0
  5  6  2  0
  6  7  1  0
  7  8  2  0
  8  9  1  0
  9 10  1  0
 10 11  2  0
 10 12  1  0
 12 13  1  0
 13 14  1  0
 14 15  2  0
 15 16  1  0
 16 17  1  0
 16 18  2  0
 18 19  1  0
 19 20  1  0
 19 21  2  0
 21 22  1  0
 22 23  1  0
  8 24  1  0
 24 25  2  0
 25  5  1  0
 22 12  2  0
 21 14  1  0
  1 26  1  0
  1 27  1  0
  1 28  1  0
  6 29  1  0
  7 30  1  0
  9 31  1  0
 17 32  1  0
 17 33  1  0
 17 34  1  0
 18 35  1  0
 20 36  1  0
 20 37  1  0
 20 38  1  0
 23 39  1  0
 23 40  1  0
 24 41  1  0
 25 42  1  0
M  END
>  <Binding energies>  (1) 
[-6.77]

>  <Ligand effiencies>  (1) 
[-0.24178571428571427]

>  <Interactions>  (1) 
["V-B:GLU:543:CG:9875, V-A:HIS:456:CE1:4064, H-B:LYS:547:NZ:9919, V-B:ALA:541:CB:9860, V-B:GLU:543:CB:9874, V-B:TYR:539:CD2:9842, V-B:TYR:539:CE2:9844, V-A:ILE:369:CD1:3234, V-A:ILE:369:CB:3231, V-A:ASP:366:CG:3208, V-B:HIS:456:CE1:9037, V-B:GLU:543:C:9870, V-B:GLU:543:CD:9876, V-A:ILE:369:CG2:3232, H-A:TYR:484:OH:4343, H-A:HIS:456:NE2:4065, H-B:GLU:543:OE2:9878, H-B:HIS:456:ND1:9034, H-B:ARG:545:N:9888"]

$$$$
4ac_Grossjean_2025
     RDKit          3D

 40 42  0  0  0  0  0  0  0  0999 V2000
  125.0400  122.5640   56.4230 C   0  0  0  0  0  0  0  0  0  0  0  0
  126.3700  122.0860   56.2500 O   0  0  0  0  0  0  0  0  0  0  0  0
  127.3340  122.4240   57.1800 C   0  0  0  0  0  0  0  0  0  0  0  0
  126.8760  122.7880   58.4460 C   0  0  0  0  0  0  0  0  0  0  0  0
  127.7740  123.1430   59.4490 C   0  0  0  0  0  0  0  0  0  0  0  0
  129.1470  123.1300   59.2000 C   0  0  0  0  0  0  0  0  0  0  0  0
  129.9770  123.5160   60.2680 N   0  0  0  0  0  0  0  0  0  0  0  0
  131.1740  124.1510   60.2380 C   0  0  0  0  0  0  0  0  0  0  0  0
  131.7580  124.4710   59.2010 O   0  0  0  0  0  0  0  0  0  0  0  0
  131.7640  124.4410   61.5480 C   0  0  0  0  0  0  0  0  0  0  0  0
  133.4480  124.0340   61.8770 S   0  0  0  0  0  0  0  0  0  0  0  0
  133.3290  124.6560   63.5080 C   0  0  0  0  0  0  0  0  0  0  0  0
  134.3640  124.6360   64.3480 N   0  0  0  0  0  0  0  0  0  0  0  0
  134.1390  125.1490   65.5820 C   0  0  0  0  0  0  0  0  0  0  0  0
  135.3290  125.1170   66.5230 C   0  0  0  0  0  0  0  0  0  0  0  0
  132.9150  125.6740   65.9920 C   0  0  0  0  0  0  0  0  0  0  0  0
  131.8300  125.6930   65.1070 C   0  0  0  0  0  0  0  0  0  0  0  0
  130.5150  126.2770   65.6000 C   0  0  0  0  0  0  0  0  0  0  0  0
  132.0300  125.1660   63.8030 C   0  0  0  0  0  0  0  0  0  0  0  0
  131.1570  125.0330   62.6670 C   0  0  0  0  0  0  0  0  0  0  0  0
  129.8510  125.4510   62.6960 N   0  0  0  0  0  0  0  0  0  0  0  0
  129.6150  122.7770   57.9250 C   0  0  0  0  0  0  0  0  0  0  0  0
  128.7140  122.4220   56.9250 C   0  0  0  0  0  0  0  0  0  0  0  0
  124.8161  122.6445   57.4970 H   0  0  0  0  0  0  0  0  0  0  0  0
  124.9420  123.5536   55.9528 H   0  0  0  0  0  0  0  0  0  0  0  0
  124.3344  121.8632   55.9528 H   0  0  0  0  0  0  0  0  0  0  0  0
  125.7958  122.7947   58.6539 H   0  0  0  0  0  0  0  0  0  0  0  0
  127.3998  123.4348   60.4414 H   0  0  0  0  0  0  0  0  0  0  0  0
  129.6370  123.2490   61.1810 H   0  0  0  0  0  0  0  0  0  0  0  0
  134.9736  125.1266   67.5640 H   0  0  0  0  0  0  0  0  0  0  0  0
  135.9139  124.2028   66.3436 H   0  0  0  0  0  0  0  0  0  0  0  0
  135.9621  125.9984   66.3436 H   0  0  0  0  0  0  0  0  0  0  0  0
  132.8012  126.0734   67.0106 H   0  0  0  0  0  0  0  0  0  0  0  0
  130.5052  126.2813   66.6999 H   0  0  0  0  0  0  0  0  0  0  0  0
  130.4089  127.3068   65.2283 H   0  0  0  0  0  0  0  0  0  0  0  0
  129.6798  125.6652   65.2283 H   0  0  0  0  0  0  0  0  0  0  0  0
  129.0830  124.7980   62.7450 H   0  0  0  0  0  0  0  0  0  0  0  0
  129.6140  126.4330   62.6710 H   0  0  0  0  0  0  0  0  0  0  0  0
  130.6949  122.7808   57.7156 H   0  0  0  0  0  0  0  0  0  0  0  0
  129.0858  122.1383   55.9294 H   0  0  0  0  0  0  0  0  0  0  0  0
  1  2  1  0
  2  3  1  0
  3  4  2  0
  4  5  1  0
  5  6  2  0
  6  7  1  0
  7  8  1  0
  8  9  2  0
  8 10  1  0
 10 11  1  0
 11 12  1  0
 12 13  2  0
 13 14  1  0
 14 15  1  0
 14 16  2  0
 16 17  1  0
 17 18  1  0
 17 19  2  0
 19 20  1  0
 20 21  1  0
  6 22  1  0
 22 23  2  0
 23  3  1  0
 20 10  2  0
 19 12  1  0
  1 24  1  0
  1 25  1  0
  1 26  1  0
  4 27  1  0
  5 28  1  0
  7 29  1  0
 15 30  1  0
 15 31  1  0
 15 32  1  0
 16 33  1  0
 18 34  1  0
 18 35  1  0
 18 36  1  0
 21 37  1  0
 21 38  1  0
 22 39  1  0
 23 40  1  0
M  END
>  <Binding energies>  (1) 
[-7.08]

>  <Ligand effiencies>  (1) 
[-0.2723076923076923]

>  <Interactions>  (1) 
["V-B:TYR:539:C:9835, V-B:TYR:539:CD2:9842, V-B:TYR:539:CE2:9844, V-A:ILE:369:CD1:3234, V-B:TYR:539:CZ:9845, V-A:ASP:366:CG:3208, V-A:GLU:543:CD:4903, V-B:GLU:543:CD:9876, H-A:ARG:545:NH1:4922, H-A:TYR:484:OH:4343, H-A:GLY:454:N:4045, V-A:ARG:545:CZ:4921, V-B:PRO:540:CB:9853, V-B:PRO:540:CA:9851, V-B:TYR:539:CE1:9843, H-B:GLU:543:OE2:9878, V-A:ARG:545:CD:4918, V-A:GLY:453:CA:4039, V-A:ARG:545:CG:4917, V-A:HIS:456:CD2:4063, V-A:GLY:453:C:4037, V-B:LEU:363:CD1:8156, V-B:PRO:540:CD:9855, V-B:PRO:540:N:9852, V-B:MET:535:CE:9803, V-B:ILE:538:CG2:9831, H-B:TYR:539:N:9838, V-B:TYR:539:CG:9840, V-B:TYR:539:CA:9837, V-B:TYR:539:CD1:9841"]

$$$$
4ad_Grossjean_2025
     RDKit          3D

 36 38  0  0  0  0  0  0  0  0999 V2000
  135.0600  125.0370   66.3520 C   0  0  0  0  0  0  0  0  0  0  0  0
  133.8550  125.0200   65.4310 C   0  0  0  0  0  0  0  0  0  0  0  0
  132.5930  125.3880   65.8940 C   0  0  0  0  0  0  0  0  0  0  0  0
  131.4940  125.3620   65.0260 C   0  0  0  0  0  0  0  0  0  0  0  0
  130.1360  125.7700   65.5770 C   0  0  0  0  0  0  0  0  0  0  0  0
  131.7190  124.9520   63.6840 C   0  0  0  0  0  0  0  0  0  0  0  0
  130.8410  124.8110   62.5530 C   0  0  0  0  0  0  0  0  0  0  0  0
  129.5010  125.0960   62.6280 N   0  0  0  0  0  0  0  0  0  0  0  0
  131.4810  124.3640   61.3860 C   0  0  0  0  0  0  0  0  0  0  0  0
  130.8960  124.0980   60.0710 C   0  0  0  0  0  0  0  0  0  0  0  0
  131.5240  124.3530   59.0410 O   0  0  0  0  0  0  0  0  0  0  0  0
  129.6530  123.5550   60.0860 N   0  0  0  0  0  0  0  0  0  0  0  0
  128.8070  123.2240   59.0110 C   0  0  0  0  0  0  0  0  0  0  0  0
  127.4400  123.4220   59.2240 C   0  0  0  0  0  0  0  0  0  0  0  0
  126.5230  123.1340   58.2170 C   0  0  0  0  0  0  0  0  0  0  0  0
  126.9740  122.6540   56.9910 C   0  0  0  0  0  0  0  0  0  0  0  0
  128.3350  122.4650   56.7600 C   0  0  0  0  0  0  0  0  0  0  0  0
  129.2540  122.7510   57.7660 C   0  0  0  0  0  0  0  0  0  0  0  0
  133.2050  124.1080   61.6640 S   0  0  0  0  0  0  0  0  0  0  0  0
  133.0570  124.5980   63.3360 C   0  0  0  0  0  0  0  0  0  0  0  0
  134.1060  124.6230   64.1600 N   0  0  0  0  0  0  0  0  0  0  0  0
  134.7216  125.0322   67.3987 H   0  0  0  0  0  0  0  0  0  0  0  0
  135.6788  124.1475   66.1626 H   0  0  0  0  0  0  0  0  0  0  0  0
  135.6535  125.9436   66.1626 H   0  0  0  0  0  0  0  0  0  0  0  0
  132.4601  125.6988   66.9408 H   0  0  0  0  0  0  0  0  0  0  0  0
  130.1684  125.7603   66.6765 H   0  0  0  0  0  0  0  0  0  0  0  0
  129.8872  126.7825   65.2265 H   0  0  0  0  0  0  0  0  0  0  0  0
  129.3704  125.0622   65.2265 H   0  0  0  0  0  0  0  0  0  0  0  0
  129.1560  125.9370   63.0680 H   0  0  0  0  0  0  0  0  0  0  0  0
  128.8090  124.4700   62.2370 H   0  0  0  0  0  0  0  0  0  0  0  0
  129.2750  123.3380   60.9960 H   0  0  0  0  0  0  0  0  0  0  0  0
  127.0870  123.8072   60.1920 H   0  0  0  0  0  0  0  0  0  0  0  0
  125.4472  123.2851   58.3895 H   0  0  0  0  0  0  0  0  0  0  0  0
  126.2492  122.4216   56.1969 H   0  0  0  0  0  0  0  0  0  0  0  0
  128.6824  122.0909   55.7856 H   0  0  0  0  0  0  0  0  0  0  0  0
  130.3295  122.6067   57.5861 H   0  0  0  0  0  0  0  0  0  0  0  0
  1  2  1  0
  2  3  2  0
  3  4  1  0
  4  5  1  0
  4  6  2  0
  6  7  1  0
  7  8  1  0
  7  9  2  0
  9 10  1  0
 10 11  2  0
 10 12  1  0
 12 13  1  0
 13 14  2  0
 14 15  1  0
 15 16  2  0
 16 17  1  0
 17 18  2  0
  9 19  1  0
 19 20  1  0
 20 21  2  0
 21  2  1  0
 20  6  1  0
 18 13  1  0
  1 22  1  0
  1 23  1  0
  1 24  1  0
  3 25  1  0
  5 26  1  0
  5 27  1  0
  5 28  1  0
  8 29  1  0
  8 30  1  0
 12 31  1  0
 14 32  1  0
 15 33  1  0
 16 34  1  0
 17 35  1  0
 18 36  1  0
M  END
>  <Binding energies>  (1) 
[-6.59]

>  <Ligand effiencies>  (1) 
[-0.27458333333333335]

>  <Interactions>  (1) 
["V-B:GLU:543:CG:9875, V-B:TYR:539:C:9835, V-B:TYR:539:CD2:9842, V-B:TYR:539:CE2:9844, V-B:TYR:539:CZ:9845, V-A:ASP:366:CG:3208, V-B:GLU:543:CD:9876, H-A:TYR:484:OH:4343, H-A:GLY:454:N:4045, V-A:GLY:454:CA:4044, V-A:ARG:545:CZ:4921, V-B:PRO:540:CB:9853, V-B:PRO:540:CA:9851, V-B:TYR:539:CE1:9843, H-B:GLU:543:OE2:9878, V-A:ARG:545:CD:4918, V-A:GLY:453:CA:4039, V-A:ARG:545:CG:4917, V-A:HIS:456:CD2:4063, V-A:GLY:453:C:4037, V-B:PRO:540:N:9852, V-B:MET:535:CE:9803, V-B:TYR:539:CG:9840, V-B:TYR:539:CD1:9841"]

$$$$
4ae_Grossjean_2025
     RDKit          3D

 38 40  0  0  0  0  0  0  0  0999 V2000
  127.5110  122.5130   56.9610 C   0  0  0  0  0  0  0  0  0  0  0  0
  127.1790  123.1440   58.2990 C   0  0  0  0  0  0  0  0  0  0  0  0
  125.8710  123.5000   58.6360 C   0  0  0  0  0  0  0  0  0  0  0  0
  125.6410  124.0830   59.8820 C   0  0  0  0  0  0  0  0  0  0  0  0
  126.7130  124.2950   60.7520 C   0  0  0  0  0  0  0  0  0  0  0  0
  127.9980  123.9080   60.3550 C   0  0  0  0  0  0  0  0  0  0  0  0
  129.0380  124.1660   61.2650 N   0  0  0  0  0  0  0  0  0  0  0  0
  130.3610  124.3320   61.0150 C   0  0  0  0  0  0  0  0  0  0  0  0
  130.8600  124.2690   59.8900 O   0  0  0  0  0  0  0  0  0  0  0  0
  131.1930  124.5950   62.1910 C   0  0  0  0  0  0  0  0  0  0  0  0
  132.8910  124.1170   62.2060 S   0  0  0  0  0  0  0  0  0  0  0  0
  133.0930  124.7080   63.8390 C   0  0  0  0  0  0  0  0  0  0  0  0
  134.2600  124.6250   64.4800 N   0  0  0  0  0  0  0  0  0  0  0  0
  134.2810  125.1140   65.7430 C   0  0  0  0  0  0  0  0  0  0  0  0
  135.6160  125.0030   66.4570 C   0  0  0  0  0  0  0  0  0  0  0  0
  133.1740  125.6810   66.3740 C   0  0  0  0  0  0  0  0  0  0  0  0
  131.9520  125.7670   65.6970 C   0  0  0  0  0  0  0  0  0  0  0  0
  130.7720  126.3910   66.4280 C   0  0  0  0  0  0  0  0  0  0  0  0
  131.8910  125.2620   64.3700 C   0  0  0  0  0  0  0  0  0  0  0  0
  130.8220  125.1880   63.4100 C   0  0  0  0  0  0  0  0  0  0  0  0
  129.5610  125.6570   63.6770 N   0  0  0  0  0  0  0  0  0  0  0  0
  128.2310  123.3430   59.1340 N   0  0  0  0  0  0  0  0  0  0  0  0
  128.0175  121.5504   57.1251 H   0  0  0  0  0  0  0  0  0  0  0  0
  126.5834  122.3472   56.3935 H   0  0  0  0  0  0  0  0  0  0  0  0
  128.1730  123.1836   56.3935 H   0  0  0  0  0  0  0  0  0  0  0  0
  125.0416  123.3246   57.9350 H   0  0  0  0  0  0  0  0  0  0  0  0
  124.6222  124.3739   60.1776 H   0  0  0  0  0  0  0  0  0  0  0  0
  126.5495  124.7597   61.7355 H   0  0  0  0  0  0  0  0  0  0  0  0
  128.7590  124.1780   62.2340 H   0  0  0  0  0  0  0  0  0  0  0  0
  135.4523  125.0166   67.5447 H   0  0  0  0  0  0  0  0  0  0  0  0
  136.1071  124.0609   66.1719 H   0  0  0  0  0  0  0  0  0  0  0  0
  136.2559  125.8510   66.1719 H   0  0  0  0  0  0  0  0  0  0  0  0
  133.2612  126.0603   67.4029 H   0  0  0  0  0  0  0  0  0  0  0  0
  130.9281  126.3085   67.5137 H   0  0  0  0  0  0  0  0  0  0  0  0
  130.6874  127.4517   66.1493 H   0  0  0  0  0  0  0  0  0  0  0  0
  129.8477  125.8638   66.1493 H   0  0  0  0  0  0  0  0  0  0  0  0
  128.9900  126.0880   62.9650 H   0  0  0  0  0  0  0  0  0  0  0  0
  129.1600  125.5850   64.6020 H   0  0  0  0  0  0  0  0  0  0  0  0
  1  2  1  0
  2  3  2  0
  3  4  1  0
  4  5  2  0
  5  6  1  0
  6  7  1  0
  7  8  1  0
  8  9  2  0
  8 10  1  0
 10 11  1  0
 11 12  1  0
 12 13  2  0
 13 14  1  0
 14 15  1  0
 14 16  2  0
 16 17  1  0
 17 18  1  0
 17 19  2  0
 19 20  1  0
 20 21  1  0
  6 22  2  0
 22  2  1  0
 20 10  2  0
 19 12  1  0
  1 23  1  0
  1 24  1  0
  1 25  1  0
  3 26  1  0
  4 27  1  0
  5 28  1  0
  7 29  1  0
 15 30  1  0
 15 31  1  0
 15 32  1  0
 16 33  1  0
 18 34  1  0
 18 35  1  0
 18 36  1  0
 21 37  1  0
 21 38  1  0
M  END
>  <Binding energies>  (1) 
[-6.79]

>  <Ligand effiencies>  (1) 
[-0.2716]

>  <Interactions>  (1) 
["V-B:GLU:543:CG:9875, V-A:HIS:456:CE1:4064, V-B:TYR:539:C:9835, V-A:ASP:366:CG:3208, V-A:GLU:543:CD:4903, V-B:GLU:543:CD:9876, H-A:TYR:484:OH:4343, H-A:GLY:454:N:4045, V-A:GLY:454:CA:4044, V-A:ARG:545:CZ:4921, V-B:PRO:540:CB:9853, V-B:PRO:540:CA:9851, H-B:GLU:543:OE2:9878, V-A:ARG:545:CD:4918, V-A:GLY:453:CA:4039, V-A:ARG:545:CG:4917, V-A:HIS:456:CD2:4063, V-A:GLY:453:C:4037, V-B:PRO:540:N:9852, V-B:MET:535:CE:9803, V-A:ILE:455:C:4047"]

$$$$
4af_Grossjean_2025
     RDKit          3D

 35 37  0  0  0  0  0  0  0  0999 V2000
  135.1990  125.2100   66.4130 C   0  0  0  0  0  0  0  0  0  0  0  0
  133.9810  125.0690   65.5190 C   0  0  0  0  0  0  0  0  0  0  0  0
  132.7050  125.3670   65.9910 C   0  0  0  0  0  0  0  0  0  0  0  0
  131.5960  125.2270   65.1490 C   0  0  0  0  0  0  0  0  0  0  0  0
  130.2240  125.5620   65.7110 C   0  0  0  0  0  0  0  0  0  0  0  0
  131.8250  124.7750   63.8210 C   0  0  0  0  0  0  0  0  0  0  0  0
  130.9380  124.5230   62.7160 C   0  0  0  0  0  0  0  0  0  0  0  0
  129.5820  124.7090   62.8090 N   0  0  0  0  0  0  0  0  0  0  0  0
  131.5870  124.0760   61.5550 C   0  0  0  0  0  0  0  0  0  0  0  0
  130.9970  123.6990   60.2690 C   0  0  0  0  0  0  0  0  0  0  0  0
  131.7070  123.5450   59.2740 O   0  0  0  0  0  0  0  0  0  0  0  0
  129.6530  123.5250   60.2760 N   0  0  0  0  0  0  0  0  0  0  0  0
  128.7840  123.2140   59.2130 C   0  0  0  0  0  0  0  0  0  0  0  0
  129.1800  122.7500   57.9450 C   0  0  0  0  0  0  0  0  0  0  0  0
  128.2140  122.4940   56.9710 C   0  0  0  0  0  0  0  0  0  0  0  0
  126.8720  122.7120   57.2850 C   0  0  0  0  0  0  0  0  0  0  0  0
  126.4650  123.1670   58.4970 N   0  0  0  0  0  0  0  0  0  0  0  0
  127.4160  123.4110   59.4340 C   0  0  0  0  0  0  0  0  0  0  0  0
  133.3300  123.9530   61.8060 S   0  0  0  0  0  0  0  0  0  0  0  0
  133.1780  124.5040   63.4590 C   0  0  0  0  0  0  0  0  0  0  0  0
  134.2370  124.6370   64.2590 N   0  0  0  0  0  0  0  0  0  0  0  0
  134.8864  125.1738   67.4670 H   0  0  0  0  0  0  0  0  0  0  0  0
  135.9001  124.3870   66.2100 H   0  0  0  0  0  0  0  0  0  0  0  0
  135.6935  126.1714   66.2100 H   0  0  0  0  0  0  0  0  0  0  0  0
  132.5688  125.7127   67.0264 H   0  0  0  0  0  0  0  0  0  0  0  0
  130.2655  125.5519   66.8102 H   0  0  0  0  0  0  0  0  0  0  0  0
  129.9198  126.5608   65.3648 H   0  0  0  0  0  0  0  0  0  0  0  0
  129.4937  124.8158   65.3648 H   0  0  0  0  0  0  0  0  0  0  0  0
  129.1530  125.6080   62.6390 H   0  0  0  0  0  0  0  0  0  0  0  0
  128.9630  123.9470   63.0490 H   0  0  0  0  0  0  0  0  0  0  0  0
  129.1960  123.6270   61.1710 H   0  0  0  0  0  0  0  0  0  0  0  0
  130.2453  122.5899   57.7227 H   0  0  0  0  0  0  0  0  0  0  0  0
  128.5047  122.1276   55.9754 H   0  0  0  0  0  0  0  0  0  0  0  0
  126.1115  122.5063   56.5173 H   0  0  0  0  0  0  0  0  0  0  0  0
  127.0950  123.7829   60.4182 H   0  0  0  0  0  0  0  0  0  0  0  0
  1  2  1  0
  2  3  2  0
  3  4  1  0
  4  5  1  0
  4  6  2  0
  6  7  1  0
  7  8  1  0
  7  9  2  0
  9 10  1  0
 10 11  2  0
 10 12  1  0
 12 13  1  0
 13 14  2  0
 14 15  1  0
 15 16  2  0
 16 17  1  0
 17 18  2  0
  9 19  1  0
 19 20  1  0
 20 21  2  0
 21  2  1  0
 20  6  1  0
 18 13  1  0
  1 22  1  0
  1 23  1  0
  1 24  1  0
  3 25  1  0
  5 26  1  0
  5 27  1  0
  5 28  1  0
  8 29  1  0
  8 30  1  0
 12 31  1  0
 14 32  1  0
 15 33  1  0
 16 34  1  0
 18 35  1  0
M  END
>  <Binding energies>  (1) 
[-6.3]

>  <Ligand effiencies>  (1) 
[-0.2625]

>  <Interactions>  (1) 
["V-B:GLU:543:CG:9875, V-B:TYR:539:C:9835, V-B:TYR:539:CD2:9842, V-B:TYR:539:CE2:9844, V-A:ILE:369:CD1:3234, V-B:TYR:539:CZ:9845, V-A:ASP:366:CG:3208, V-B:GLU:543:CD:9876, H-A:TYR:484:OH:4343, H-A:GLY:454:N:4045, V-A:ARG:545:CZ:4921, V-B:PRO:540:CA:9851, V-B:TYR:539:CE1:9843, H-B:GLU:543:OE2:9878, V-A:ARG:545:CD:4918, V-A:GLY:453:CA:4039, V-A:ARG:545:CG:4917, V-A:HIS:456:CD2:4063, V-A:GLY:453:C:4037, V-B:PRO:540:N:9852, V-B:MET:535:CE:9803, V-B:TYR:539:CG:9840, V-B:TYR:539:CD1:9841"]

$$$$
4ag_Grossjean_2025
     RDKit          3D

 39 41  0  0  0  0  0  0  0  0999 V2000
  135.1710  125.2520   66.4330 C   0  0  0  0  0  0  0  0  0  0  0  0
  133.9640  125.0770   65.5300 C   0  0  0  0  0  0  0  0  0  0  0  0
  132.6800  125.3750   65.9840 C   0  0  0  0  0  0  0  0  0  0  0  0
  131.5810  125.2080   65.1340 C   0  0  0  0  0  0  0  0  0  0  0  0
  130.2000  125.5460   65.6760 C   0  0  0  0  0  0  0  0  0  0  0  0
  131.8270  124.7330   63.8180 C   0  0  0  0  0  0  0  0  0  0  0  0
  130.9540  124.4530   62.7110 C   0  0  0  0  0  0  0  0  0  0  0  0
  129.5950  124.6310   62.7840 N   0  0  0  0  0  0  0  0  0  0  0  0
  131.6170  123.9860   61.5670 C   0  0  0  0  0  0  0  0  0  0  0  0
  131.0470  123.6180   60.2710 C   0  0  0  0  0  0  0  0  0  0  0  0
  131.6910  123.7410   59.2280 O   0  0  0  0  0  0  0  0  0  0  0  0
  129.7770  123.1600   60.2900 N   0  0  0  0  0  0  0  0  0  0  0  0
  129.0210  122.7120   59.1210 C   0  0  0  0  0  0  0  0  0  0  0  0
  127.5510  123.1150   59.1440 C   0  0  0  0  0  0  0  0  0  0  0  0
  126.9510  123.4890   60.3500 C   0  0  0  0  0  0  0  0  0  0  0  0
  125.6150  123.8820   60.3690 C   0  0  0  0  0  0  0  0  0  0  0  0
  124.8860  123.9090   59.1820 C   0  0  0  0  0  0  0  0  0  0  0  0
  125.4820  123.5530   57.9740 C   0  0  0  0  0  0  0  0  0  0  0  0
  126.8180  123.1610   57.9540 C   0  0  0  0  0  0  0  0  0  0  0  0
  133.3580  123.8890   61.8320 S   0  0  0  0  0  0  0  0  0  0  0  0
  133.1860  124.4660   63.4750 C   0  0  0  0  0  0  0  0  0  0  0  0
  134.2360  124.6250   64.2820 N   0  0  0  0  0  0  0  0  0  0  0  0
  134.8519  125.2057   67.4847 H   0  0  0  0  0  0  0  0  0  0  0  0
  135.8969  124.4497   66.2344 H   0  0  0  0  0  0  0  0  0  0  0  0
  135.6391  126.2274   66.2344 H   0  0  0  0  0  0  0  0  0  0  0  0
  132.5308  125.7414   67.0104 H   0  0  0  0  0  0  0  0  0  0  0  0
  130.2260  125.5396   66.7757 H   0  0  0  0  0  0  0  0  0  0  0  0
  129.9013  126.5438   65.3221 H   0  0  0  0  0  0  0  0  0  0  0  0
  129.4743  124.7990   65.3221 H   0  0  0  0  0  0  0  0  0  0  0  0
  128.9690  123.8710   63.0080 H   0  0  0  0  0  0  0  0  0  0  0  0
  129.1740  125.5350   62.6190 H   0  0  0  0  0  0  0  0  0  0  0  0
  129.3300  123.0310   61.1860 H   0  0  0  0  0  0  0  0  0  0  0  0
  129.4846  123.1446   58.2222 H   0  0  0  0  0  0  0  0  0  0  0  0
  129.0505  121.6124   59.1241 H   0  0  0  0  0  0  0  0  0  0  0  0
  127.5335  123.4729   61.2830 H   0  0  0  0  0  0  0  0  0  0  0  0
  125.1374  124.1699   61.3172 H   0  0  0  0  0  0  0  0  0  0  0  0
  123.8294  124.2144   59.1987 H   0  0  0  0  0  0  0  0  0  0  0  0
  124.9002  123.5815   57.0409 H   0  0  0  0  0  0  0  0  0  0  0  0
  127.2968  122.8875   57.0022 H   0  0  0  0  0  0  0  0  0  0  0  0
  1  2  1  0
  2  3  2  0
  3  4  1  0
  4  5  1  0
  4  6  2  0
  6  7  1  0
  7  8  1  0
  7  9  2  0
  9 10  1  0
 10 11  2  0
 10 12  1  0
 12 13  1  0
 13 14  1  0
 14 15  2  0
 15 16  1  0
 16 17  2  0
 17 18  1  0
 18 19  2  0
  9 20  1  0
 20 21  1  0
 21 22  2  0
 22  2  1  0
 21  6  1  0
 19 14  1  0
  1 23  1  0
  1 24  1  0
  1 25  1  0
  3 26  1  0
  5 27  1  0
  5 28  1  0
  5 29  1  0
  8 30  1  0
  8 31  1  0
 12 32  1  0
 13 33  1  0
 13 34  1  0
 15 35  1  0
 16 36  1  0
 17 37  1  0
 18 38  1  0
 19 39  1  0
M  END
>  <Binding energies>  (1) 
[-6.81]

>  <Ligand effiencies>  (1) 
[-0.2724]

>  <Interactions>  (1) 
["V-B:GLU:543:CG:9875, V-B:TYR:539:C:9835, V-A:ILE:369:CD1:3234, V-A:ASP:366:CG:3208, V-B:GLU:543:CD:9876, H-A:TYR:484:OH:4343, H-A:GLY:454:N:4045, V-A:ARG:545:CZ:4921, V-B:PRO:540:CB:9853, V-B:PRO:540:CA:9851, H-B:GLU:543:OE2:9878, V-A:ARG:545:CD:4918, V-A:GLY:453:CA:4039, V-A:ARG:545:CG:4917, V-A:HIS:456:CD2:4063, V-A:GLY:453:C:4037, V-B:PRO:540:N:9852"]

$$$$
4ah_Grossjean_2025
     RDKit          3D

 51 53  0  0  0  0  0  0  0  0999 V2000
  129.8850  131.2930   73.4380 C   0  0  0  0  0  0  0  0  0  0  0  0
  129.8730  129.8820   73.6170 O   0  0  0  0  0  0  0  0  0  0  0  0
  129.6690  129.0600   72.5230 C   0  0  0  0  0  0  0  0  0  0  0  0
  129.6680  129.5110   71.1940 C   0  0  0  0  0  0  0  0  0  0  0  0
  129.4530  128.6240   70.1380 C   0  0  0  0  0  0  0  0  0  0  0  0
  129.5020  129.1240   68.6980 C   0  0  0  0  0  0  0  0  0  0  0  0
  130.1070  128.1710   67.7680 N   0  0  0  0  0  0  0  0  0  0  0  0
  129.5440  127.0160   67.3550 C   0  0  0  0  0  0  0  0  0  0  0  0
  128.4490  126.6270   67.7650 O   0  0  0  0  0  0  0  0  0  0  0  0
  130.3320  126.2200   66.4150 C   0  0  0  0  0  0  0  0  0  0  0  0
  129.5250  125.1510   65.2660 S   0  0  0  0  0  0  0  0  0  0  0  0
  131.0600  124.6050   64.6290 C   0  0  0  0  0  0  0  0  0  0  0  0
  131.1380  123.7120   63.6420 N   0  0  0  0  0  0  0  0  0  0  0  0
  132.3870  123.3760   63.2390 C   0  0  0  0  0  0  0  0  0  0  0  0
  132.4520  122.3560   62.1170 C   0  0  0  0  0  0  0  0  0  0  0  0
  133.5490  123.9070   63.7930 C   0  0  0  0  0  0  0  0  0  0  0  0
  133.4660  124.8430   64.8310 C   0  0  0  0  0  0  0  0  0  0  0  0
  134.7620  125.3940   65.4050 C   0  0  0  0  0  0  0  0  0  0  0  0
  132.1710  125.2190   65.2820 C   0  0  0  0  0  0  0  0  0  0  0  0
  131.7270  126.1270   66.3050 C   0  0  0  0  0  0  0  0  0  0  0  0
  132.6020  126.8370   67.0880 N   0  0  0  0  0  0  0  0  0  0  0  0
  129.2640  127.2680   70.4060 C   0  0  0  0  0  0  0  0  0  0  0  0
  129.2540  126.7890   71.7260 C   0  0  0  0  0  0  0  0  0  0  0  0
  129.0580  125.4630   72.0640 O   0  0  0  0  0  0  0  0  0  0  0  0
  129.8780  124.4620   71.4690 C   0  0  0  0  0  0  0  0  0  0  0  0
  129.4520  127.6970   72.7760 C   0  0  0  0  0  0  0  0  0  0  0  0
  129.4630  127.2400   74.0720 O   0  0  0  0  0  0  0  0  0  0  0  0
  130.5720  126.4070   74.3810 C   0  0  0  0  0  0  0  0  0  0  0  0
  129.8892  131.7872   74.4207 H   0  0  0  0  0  0  0  0  0  0  0  0
  130.7857  131.5838   72.8774 H   0  0  0  0  0  0  0  0  0  0  0  0
  128.9894  131.5991   72.8774 H   0  0  0  0  0  0  0  0  0  0  0  0
  129.8388  130.5768   70.9819 H   0  0  0  0  0  0  0  0  0  0  0  0
  128.4736  129.3291   68.3658 H   0  0  0  0  0  0  0  0  0  0  0  0
  130.1315  130.0260   68.6908 H   0  0  0  0  0  0  0  0  0  0  0  0
  130.9670  128.4660   67.3290 H   0  0  0  0  0  0  0  0  0  0  0  0
  132.5165  121.3445   62.5443 H   0  0  0  0  0  0  0  0  0  0  0  0
  131.5470  122.4350   61.4967 H   0  0  0  0  0  0  0  0  0  0  0  0
  133.3397  122.5493   61.4967 H   0  0  0  0  0  0  0  0  0  0  0  0
  134.5325  123.5910   63.4150 H   0  0  0  0  0  0  0  0  0  0  0  0
  134.7142  125.3737   66.5038 H   0  0  0  0  0  0  0  0  0  0  0  0
  135.6060  124.7769   65.0632 H   0  0  0  0  0  0  0  0  0  0  0  0
  134.9032  126.4300   65.0632 H   0  0  0  0  0  0  0  0  0  0  0  0
  132.4830  127.8240   67.2620 H   0  0  0  0  0  0  0  0  0  0  0  0
  133.4040  126.3920   67.5130 H   0  0  0  0  0  0  0  0  0  0  0  0
  129.1209  126.5648   69.5723 H   0  0  0  0  0  0  0  0  0  0  0  0
  130.3637  123.8691   72.2581 H   0  0  0  0  0  0  0  0  0  0  0  0
  129.2570  123.8027   70.8447 H   0  0  0  0  0  0  0  0  0  0  0  0
  130.6466  124.9410   70.8447 H   0  0  0  0  0  0  0  0  0  0  0  0
  130.6778  126.3275   75.4730 H   0  0  0  0  0  0  0  0  0  0  0  0
  130.4089  125.4062   73.9546 H   0  0  0  0  0  0  0  0  0  0  0  0
  131.4877  126.8425   73.9546 H   0  0  0  0  0  0  0  0  0  0  0  0
  1  2  1  0
  2  3  1  0
  3  4  2  0
  4  5  1  0
  5  6  1  0
  6  7  1  0
  7  8  1  0
  8  9  2  0
  8 10  1  0
 10 11  1  0
 11 12  1  0
 12 13  2  0
 13 14  1  0
 14 15  1  0
 14 16  2  0
 16 17  1  0
 17 18  1  0
 17 19  2  0
 19 20  1  0
 20 21  1  0
  5 22  2  0
 22 23  1  0
 23 24  1  0
 24 25  1  0
 23 26  2  0
 26 27  1  0
 27 28  1  0
 26  3  1  0
 20 10  2  0
 19 12  1  0
  1 29  1  0
  1 30  1  0
  1 31  1  0
  4 32  1  0
  6 33  1  0
  6 34  1  0
  7 35  1  0
 15 36  1  0
 15 37  1  0
 15 38  1  0
 16 39  1  0
 18 40  1  0
 18 41  1  0
 18 42  1  0
 21 43  1  0
 21 44  1  0
 22 45  1  0
 25 46  1  0
 25 47  1  0
 25 48  1  0
 28 49  1  0
 28 50  1  0
 28 51  1  0
M  END
>  <Binding energies>  (1) 
[-6.96]

>  <Ligand effiencies>  (1) 
[-0.22451612903225807]

>  <Interactions>  (1) 
["V-B:GLU:543:CG:9875, V-A:HIS:456:CE1:4064, H-B:LYS:547:NZ:9919, V-B:GLU:543:CB:9874, V-A:LEU:475:CD2:4254, V-A:GLU:543:CB:4901, V-A:GLU:543:CG:4902, V-A:GLU:543:CD:4903, V-B:GLU:543:CD:9876, H-A:TYR:484:OH:4343, V-A:GLY:454:CA:4044, V-A:ARG:545:CZ:4921, H-A:GLU:543:OE1:4904, V-A:GLU:543:C:4897, V-A:LYS:547:CE:4945, V-B:HIS:456:CD2:9035, H-A:LYS:547:NZ:4946, V-A:ARG:545:CD:4918, V-A:GLY:453:CA:4039, V-A:ARG:545:CG:4917, V-A:HIS:456:CD2:4063, V-A:GLY:453:C:4037, V-B:LYS:547:CE:9918"]

$$$$
4ai_Grossjean_2025
     RDKit          3D

 32 34  0  0  0  0  0  0  0  0999 V2000
  123.7220  129.8680   66.3240 C   0  0  0  0  0  0  0  0  0  0  0  0
  124.9700  129.1920   65.7860 C   0  0  0  0  0  0  0  0  0  0  0  0
  125.2390  129.1670   64.4190 C   0  0  0  0  0  0  0  0  0  0  0  0
  126.3990  128.5430   63.9450 C   0  0  0  0  0  0  0  0  0  0  0  0
  126.6490  128.5440   62.4440 C   0  0  0  0  0  0  0  0  0  0  0  0
  127.2710  127.9510   64.8980 C   0  0  0  0  0  0  0  0  0  0  0  0
  128.5170  127.2470   64.7660 C   0  0  0  0  0  0  0  0  0  0  0  0
  129.1020  127.0170   63.5460 N   0  0  0  0  0  0  0  0  0  0  0  0
  129.0690  126.8290   65.9870 C   0  0  0  0  0  0  0  0  0  0  0  0
  130.3100  126.0860   66.2190 C   0  0  0  0  0  0  0  0  0  0  0  0
  130.4200  125.3340   67.1900 O   0  0  0  0  0  0  0  0  0  0  0  0
  131.2840  126.2780   65.2950 N   0  0  0  0  0  0  0  0  0  0  0  0
  132.5450  125.6970   65.2640 C   0  0  0  0  0  0  0  0  0  0  0  0
  133.4250  125.7280   66.3450 C   0  0  0  0  0  0  0  0  0  0  0  0
  134.5460  125.0570   65.9150 C   0  0  0  0  0  0  0  0  0  0  0  0
  134.3510  124.6410   64.6410 O   0  0  0  0  0  0  0  0  0  0  0  0
  133.0790  125.0510   64.2390 N   0  0  0  0  0  0  0  0  0  0  0  0
  128.0340  127.2830   67.3420 S   0  0  0  0  0  0  0  0  0  0  0  0
  126.8810  128.0450   66.2690 C   0  0  0  0  0  0  0  0  0  0  0  0
  125.7770  128.6370   66.7240 N   0  0  0  0  0  0  0  0  0  0  0  0
  123.7437  129.8562   67.4237 H   0  0  0  0  0  0  0  0  0  0  0  0
  123.6867  130.9086   65.9691 H   0  0  0  0  0  0  0  0  0  0  0  0
  122.8311  129.3291   65.9691 H   0  0  0  0  0  0  0  0  0  0  0  0
  124.5397  129.6377   63.7122 H   0  0  0  0  0  0  0  0  0  0  0  0
  127.7322  128.5483   62.2527 H   0  0  0  0  0  0  0  0  0  0  0  0
  126.2013  127.6441   61.9971 H   0  0  0  0  0  0  0  0  0  0  0  0
  126.1942  129.4403   61.9971 H   0  0  0  0  0  0  0  0  0  0  0  0
  128.8350  126.2360   62.9650 H   0  0  0  0  0  0  0  0  0  0  0  0
  129.8280  127.6240   63.1900 H   0  0  0  0  0  0  0  0  0  0  0  0
  131.0780  126.9070   64.5330 H   0  0  0  0  0  0  0  0  0  0  0  0
  133.2586  126.1896   67.3295 H   0  0  0  0  0  0  0  0  0  0  0  0
  135.4550  124.8857   66.5103 H   0  0  0  0  0  0  0  0  0  0  0  0
  1  2  1  0
  2  3  2  0
  3  4  1  0
  4  5  1  0
  4  6  2  0
  6  7  1  0
  7  8  1  0
  7  9  2  0
  9 10  1  0
 10 11  2  0
 10 12  1  0
 12 13  1  0
 13 14  1  0
 14 15  2  0
 15 16  1  0
 16 17  1  0
  9 18  1  0
 18 19  1  0
 19 20  2  0
 20  2  1  0
 19  6  1  0
 17 13  2  0
  1 21  1  0
  1 22  1  0
  1 23  1  0
  3 24  1  0
  5 25  1  0
  5 26  1  0
  5 27  1  0
  8 28  1  0
  8 29  1  0
 12 30  1  0
 14 31  1  0
 15 32  1  0
M  END
>  <Binding energies>  (1) 
[-6.06]

>  <Ligand effiencies>  (1) 
[-0.2634782608695652]

>  <Interactions>  (1) 
["V-B:GLU:543:CG:9875, V-A:HIS:456:CE1:4064, V-B:GLU:543:CB:9874, V-B:HIS:456:CE1:9037, V-A:GLU:543:CD:4903, V-B:GLU:543:CD:9876, H-A:TYR:484:OH:4343, H-A:GLY:454:N:4045, V-A:ARG:545:CZ:4921, H-A:GLU:543:OE2:4905, H-A:HIS:456:NE2:4065, V-B:ARG:545:CG:9890, H-A:GLU:543:OE1:4904, V-B:ARG:545:CD:9891, H-B:GLU:543:OE2:9878, V-B:ARG:545:CZ:9894, V-A:ARG:545:CD:4918, V-A:GLY:453:CA:4039, V-A:ARG:545:CG:4917, V-A:HIS:456:CD2:4063, V-A:GLY:453:C:4037, H-B:HIS:456:ND1:9034"]

$$$$
4aj_Grossjean_2025
     RDKit          3D

 32 34  0  0  0  0  0  0  0  0999 V2000
  135.2880  125.0040   66.5340 C   0  0  0  0  0  0  0  0  0  0  0  0
  134.1130  125.0650   65.5750 C   0  0  0  0  0  0  0  0  0  0  0  0
  132.8730  125.5420   65.9900 C   0  0  0  0  0  0  0  0  0  0  0  0
  131.8010  125.5840   65.0910 C   0  0  0  0  0  0  0  0  0  0  0  0
  130.4670  126.1140   65.5930 C   0  0  0  0  0  0  0  0  0  0  0  0
  132.0310  125.1300   63.7650 C   0  0  0  0  0  0  0  0  0  0  0  0
  131.1760  125.0340   62.6110 C   0  0  0  0  0  0  0  0  0  0  0  0
  129.8590  125.4130   62.6420 N   0  0  0  0  0  0  0  0  0  0  0  0
  131.8160  124.5270   61.4690 C   0  0  0  0  0  0  0  0  0  0  0  0
  131.2510  124.2880   60.1390 C   0  0  0  0  0  0  0  0  0  0  0  0
  131.8600  124.6360   59.1250 O   0  0  0  0  0  0  0  0  0  0  0  0
  130.0500  123.6610   60.1210 N   0  0  0  0  0  0  0  0  0  0  0  0
  129.3100  123.3090   59.0010 C   0  0  0  0  0  0  0  0  0  0  0  0
  129.7510  123.0680   57.7850 N   0  0  0  0  0  0  0  0  0  0  0  0
  128.7660  122.7550   56.9650 C   0  0  0  0  0  0  0  0  0  0  0  0
  127.4880  122.7390   57.5160 C   0  0  0  0  0  0  0  0  0  0  0  0
  127.5940  123.1570   59.2010 S   0  0  0  0  0  0  0  0  0  0  0  0
  133.5040  124.1380   61.8040 S   0  0  0  0  0  0  0  0  0  0  0  0
  133.3470  124.6670   63.4640 C   0  0  0  0  0  0  0  0  0  0  0  0
  134.3700  124.6250   64.3180 N   0  0  0  0  0  0  0  0  0  0  0  0
  134.9175  125.0232   67.5695 H   0  0  0  0  0  0  0  0  0  0  0  0
  135.8524  124.0753   66.3637 H   0  0  0  0  0  0  0  0  0  0  0  0
  135.9456  125.8692   66.3637 H   0  0  0  0  0  0  0  0  0  0  0  0
  132.7354  125.8863   67.0256 H   0  0  0  0  0  0  0  0  0  0  0  0
  130.4635  126.1154   66.6930 H   0  0  0  0  0  0  0  0  0  0  0  0
  130.3179  127.1397   65.2246 H   0  0  0  0  0  0  0  0  0  0  0  0
  129.6546  125.4703   65.2246 H   0  0  0  0  0  0  0  0  0  0  0  0
  129.1280  124.7820   62.9360 H   0  0  0  0  0  0  0  0  0  0  0  0
  129.5740  126.3440   62.3690 H   0  0  0  0  0  0  0  0  0  0  0  0
  129.6430  123.4140   61.0120 H   0  0  0  0  0  0  0  0  0  0  0  0
  128.9447  122.5199   55.9054 H   0  0  0  0  0  0  0  0  0  0  0  0
  126.5611  122.5006   56.9737 H   0  0  0  0  0  0  0  0  0  0  0  0
  1  2  1  0
  2  3  2  0
  3  4  1  0
  4  5  1  0
  4  6  2  0
  6  7  1  0
  7  8  1  0
  7  9  2  0
  9 10  1  0
 10 11  2  0
 10 12  1  0
 12 13  1  0
 13 14  2  0
 14 15  1  0
 15 16  2  0
 16 17  1  0
  9 18  1  0
 18 19  1  0
 19 20  2  0
 20  2  1  0
 19  6  1  0
 17 13  1  0
  1 21  1  0
  1 22  1  0
  1 23  1  0
  3 24  1  0
  5 25  1  0
  5 26  1  0
  5 27  1  0
  8 28  1  0
  8 29  1  0
 12 30  1  0
 15 31  1  0
 16 32  1  0
M  END
>  <Binding energies>  (1) 
[-5.95]

>  <Ligand effiencies>  (1) 
[-0.25869565217391305]

>  <Interactions>  (1) 
["V-B:TYR:539:C:9835, V-B:TYR:539:CD2:9842, V-B:TYR:539:CE2:9844, V-A:ILE:369:CD1:3234, V-B:TYR:539:CZ:9845, V-A:ASP:366:CG:3208, V-B:GLU:543:CD:9876, H-A:ARG:545:NH1:4922, H-A:TYR:484:OH:4343, H-A:GLY:454:N:4045, V-A:GLY:454:CA:4044, V-A:ARG:545:CZ:4921, V-B:PRO:540:CA:9851, V-B:TYR:539:CE1:9843, H-B:GLU:543:OE2:9878, V-A:ARG:545:CD:4918, V-A:GLY:453:CA:4039, V-A:ARG:545:CG:4917, V-A:HIS:456:CD2:4063, V-A:GLY:453:C:4037, V-B:PRO:540:N:9852, V-B:TYR:539:CG:9840, V-A:ILE:455:C:4047, V-B:TYR:539:CD1:9841"]

$$$$
4ak_Grossjean_2025
     RDKit          3D

 50 51  0  0  0  0  0  0  0  0999 V2000
  133.5060  123.2910   62.5200 C   0  0  0  0  0  0  0  0  0  0  0  0
  132.8700  122.0260   62.4220 O   0  0  0  0  0  0  0  0  0  0  0  0
  133.2800  121.2740   61.2870 C   0  0  0  0  0  0  0  0  0  0  0  0
  132.5930  121.8270   60.0310 C   0  0  0  0  0  0  0  0  0  0  0  0
  131.5790  120.9230   59.6120 O   0  0  0  0  0  0  0  0  0  0  0  0
  131.3160  119.8830   60.5440 C   0  0  0  0  0  0  0  0  0  0  0  0
  129.9700  120.1450   61.2300 C   0  0  0  0  0  0  0  0  0  0  0  0
  129.3990  121.3350   60.7040 O   0  0  0  0  0  0  0  0  0  0  0  0
  128.9500  122.2470   61.6980 C   0  0  0  0  0  0  0  0  0  0  0  0
  129.9840  123.3760   61.8580 C   0  0  0  0  0  0  0  0  0  0  0  0
  129.8080  124.1650   63.0760 N   0  0  0  0  0  0  0  0  0  0  0  0
  130.3110  123.8530   64.2880 C   0  0  0  0  0  0  0  0  0  0  0  0
  131.0060  122.8530   64.4770 O   0  0  0  0  0  0  0  0  0  0  0  0
  129.9930  124.7780   65.3740 C   0  0  0  0  0  0  0  0  0  0  0  0
  130.1100  124.2530   67.0530 S   0  0  0  0  0  0  0  0  0  0  0  0
  129.6180  125.8300   67.6290 C   0  0  0  0  0  0  0  0  0  0  0  0
  129.4980  126.1000   68.9300 N   0  0  0  0  0  0  0  0  0  0  0  0
  129.1060  127.3600   69.2410 C   0  0  0  0  0  0  0  0  0  0  0  0
  128.9760  127.6480   70.7260 C   0  0  0  0  0  0  0  0  0  0  0  0
  128.8370  128.3450   68.2930 C   0  0  0  0  0  0  0  0  0  0  0  0
  128.9650  128.0580   66.9290 C   0  0  0  0  0  0  0  0  0  0  0  0
  128.6570  129.1650   65.9330 C   0  0  0  0  0  0  0  0  0  0  0  0
  129.3730  126.7470   66.5640 C   0  0  0  0  0  0  0  0  0  0  0  0
  129.6000  126.1230   65.2880 C   0  0  0  0  0  0  0  0  0  0  0  0
  129.4380  126.7950   64.1030 N   0  0  0  0  0  0  0  0  0  0  0  0
  133.6381  123.5538   63.5799 H   0  0  0  0  0  0  0  0  0  0  0  0
  134.4888  123.2464   62.0280 H   0  0  0  0  0  0  0  0  0  0  0  0
  132.8840  124.0532   62.0280 H   0  0  0  0  0  0  0  0  0  0  0  0
  134.3713  121.3501   61.1715 H   0  0  0  0  0  0  0  0  0  0  0  0
  132.9983  120.2196   61.4247 H   0  0  0  0  0  0  0  0  0  0  0  0
  132.1424  122.8042   60.2590 H   0  0  0  0  0  0  0  0  0  0  0  0
  133.3351  121.9455   59.2277 H   0  0  0  0  0  0  0  0  0  0  0  0
  131.2780  118.9183   60.0169 H   0  0  0  0  0  0  0  0  0  0  0  0
  132.1150  119.8548   61.2995 H   0  0  0  0  0  0  0  0  0  0  0  0
  129.2921  119.2989   61.0444 H   0  0  0  0  0  0  0  0  0  0  0  0
  130.1241  120.2577   62.3133 H   0  0  0  0  0  0  0  0  0  0  0  0
  127.9832  122.6747   61.3942 H   0  0  0  0  0  0  0  0  0  0  0  0
  128.8307  121.7187   62.6554 H   0  0  0  0  0  0  0  0  0  0  0  0
  130.9882  122.9273   61.8768 H   0  0  0  0  0  0  0  0  0  0  0  0
  129.8466  124.0609   61.0083 H   0  0  0  0  0  0  0  0  0  0  0  0
  129.2510  125.0040   62.9880 H   0  0  0  0  0  0  0  0  0  0  0  0
  129.3619  126.7930   71.3005 H   0  0  0  0  0  0  0  0  0  0  0  0
  129.5545  128.5493   70.9767 H   0  0  0  0  0  0  0  0  0  0  0  0
  127.9173  127.8103   70.9767 H   0  0  0  0  0  0  0  0  0  0  0  0
  128.5239  129.3486   68.6166 H   0  0  0  0  0  0  0  0  0  0  0  0
  128.4007  130.0864   66.4765 H   0  0  0  0  0  0  0  0  0  0  0  0
  129.5391  129.3455   65.3010 H   0  0  0  0  0  0  0  0  0  0  0  0
  127.8085  128.8640   65.3010 H   0  0  0  0  0  0  0  0  0  0  0  0
  128.7470  126.5160   63.4210 H   0  0  0  0  0  0  0  0  0  0  0  0
  130.0060  127.5990   63.8740 H   0  0  0  0  0  0  0  0  0  0  0  0
  1  2  1  0
  2  3  1  0
  3  4  1  0
  4  5  1  0
  5  6  1  0
  6  7  1  0
  7  8  1  0
  8  9  1  0
  9 10  1  0
 10 11  1  0
 11 12  1  0
 12 13  2  0
 12 14  1  0
 14 15  1  0
 15 16  1  0
 16 17  2  0
 17 18  1  0
 18 19  1  0
 18 20  2  0
 20 21  1  0
 21 22  1  0
 21 23  2  0
 23 24  1  0
 24 25  1  0
 24 14  2  0
 23 16  1  0
  1 26  1  0
  1 27  1  0
  1 28  1  0
  3 29  1  0
  3 30  1  0
  4 31  1  0
  4 32  1  0
  6 33  1  0
  6 34  1  0
  7 35  1  0
  7 36  1  0
  9 37  1  0
  9 38  1  0
 10 39  1  0
 10 40  1  0
 11 41  1  0
 19 42  1  0
 19 43  1  0
 19 44  1  0
 20 45  1  0
 22 46  1  0
 22 47  1  0
 22 48  1  0
 25 49  1  0
 25 50  1  0
M  END
>  <Binding energies>  (1) 
[-4.86]

>  <Ligand effiencies>  (1) 
[-0.17357142857142857]

>  <Interactions>  (1) 
["V-B:GLU:543:CG:9875, V-A:HIS:456:CE1:4064, V-A:TRP:381:CZ2:3365, V-B:ALA:541:CB:9860, V-B:GLU:543:CB:9874, V-A:TRP:381:CH2:3367, V-B:TYR:539:CD2:9842, V-A:LEU:475:CD2:4254, V-A:GLU:543:CB:4901, V-B:TYR:539:CE2:9844, V-A:ILE:369:CD1:3234, V-B:HIS:456:CE1:9037, V-A:TYR:484:CZ:4342, V-A:GLU:543:CG:4902, V-A:TYR:484:CE1:4340, V-B:GLU:543:CA:9872, V-A:GLU:543:CD:4903, V-B:GLU:543:CD:9876, H-A:TYR:484:OH:4343, V-A:GLY:454:CA:4044, H-B:ALA:541:N:9859, H-A:GLU:543:OE2:4905, H-A:HIS:456:NE2:4065, H-A:GLU:543:OE1:4904, H-B:GLU:543:OE2:9878"]

$$$$
4al_Grossjean_2025
     RDKit          3D

 28 29  0  0  0  0  0  0  0  0999 V2000
  134.3460  125.0120   65.7100 C   0  0  0  0  0  0  0  0  0  0  0  0
  134.0200  124.6230   64.3840 O   0  0  0  0  0  0  0  0  0  0  0  0
  132.8720  125.0480   63.7950 C   0  0  0  0  0  0  0  0  0  0  0  0
  132.4770  126.2160   63.8170 O   0  0  0  0  0  0  0  0  0  0  0  0
  132.1350  123.9590   63.1170 C   0  0  0  0  0  0  0  0  0  0  0  0
  132.9500  122.4370   62.7520 S   0  0  0  0  0  0  0  0  0  0  0  0
  131.4990  121.7860   62.0270 C   0  0  0  0  0  0  0  0  0  0  0  0
  131.4590  120.5560   61.5120 N   0  0  0  0  0  0  0  0  0  0  0  0
  130.2720  120.1720   60.9790 C   0  0  0  0  0  0  0  0  0  0  0  0
  130.2480  118.7700   60.3980 C   0  0  0  0  0  0  0  0  0  0  0  0
  129.1380  120.9800   60.9500 C   0  0  0  0  0  0  0  0  0  0  0  0
  129.1830  122.2700   61.4920 C   0  0  0  0  0  0  0  0  0  0  0  0
  127.9200  123.1140   61.4370 C   0  0  0  0  0  0  0  0  0  0  0  0
  130.4100  122.7070   62.0590 C   0  0  0  0  0  0  0  0  0  0  0  0
  130.8030  123.9380   62.6860 C   0  0  0  0  0  0  0  0  0  0  0  0
  129.9420  124.9940   62.8450 N   0  0  0  0  0  0  0  0  0  0  0  0
  133.8081  124.3701   66.4232 H   0  0  0  0  0  0  0  0  0  0  0  0
  135.4296  124.9067   65.8671 H   0  0  0  0  0  0  0  0  0  0  0  0
  134.0529  126.0605   65.8671 H   0  0  0  0  0  0  0  0  0  0  0  0
  130.2354  118.0344   61.2157 H   0  0  0  0  0  0  0  0  0  0  0  0
  129.3476  118.6451   59.7786 H   0  0  0  0  0  0  0  0  0  0  0  0
  131.1436  118.6144   59.7786 H   0  0  0  0  0  0  0  0  0  0  0  0
  128.2066  120.6044   60.5011 H   0  0  0  0  0  0  0  0  0  0  0  0
  127.5841  123.3384   62.4601 H   0  0  0  0  0  0  0  0  0  0  0  0
  128.1300  124.0539   60.9055 H   0  0  0  0  0  0  0  0  0  0  0  0
  127.1319  122.5604   60.9055 H   0  0  0  0  0  0  0  0  0  0  0  0
  128.9460  124.8970   62.7090 H   0  0  0  0  0  0  0  0  0  0  0  0
  130.2780  125.9120   63.1060 H   0  0  0  0  0  0  0  0  0  0  0  0
  1  2  1  0
  2  3  1  0
  3  4  2  0
  3  5  1  0
  5  6  1  0
  6  7  1  0
  7  8  2  0
  8  9  1  0
  9 10  1  0
  9 11  2  0
 11 12  1  0
 12 13  1  0
 12 14  2  0
 14 15  1  0
 15 16  1  0
 15  5  2  0
 14  7  1  0
  1 17  1  0
  1 18  1  0
  1 19  1  0
 10 20  1  0
 10 21  1  0
 10 22  1  0
 11 23  1  0
 13 24  1  0
 13 25  1  0
 13 26  1  0
 16 27  1  0
 16 28  1  0
M  END
>  <Binding energies>  (1) 
[-4.93]

>  <Ligand effiencies>  (1) 
[-0.27388888888888885]

>  <Interactions>  (1) 
["V-B:PRO:540:C:9849, V-A:TRP:381:CZ3:3366, V-A:TRP:381:CZ2:3365, V-B:ALA:541:CB:9860, V-B:ALA:541:CA:9858, V-A:TRP:381:CH2:3367, V-B:TYR:539:C:9835, V-B:TYR:539:CD2:9842, V-A:LEU:475:CD2:4254, V-B:GLU:543:CD:9876, H-A:TYR:484:OH:4343, H-A:ARG:545:NE:4919, H-A:ARG:545:NH2:4923, H-A:GLY:454:N:4045, V-A:GLY:454:CA:4044, V-A:ARG:545:CZ:4921, V-B:PRO:540:CA:9851, H-B:GLU:543:OE2:9878, V-A:ARG:545:CD:4918, V-A:GLY:453:CA:4039, V-A:GLY:453:C:4037"]

$$$$
4ba_Grossjean_2025
     RDKit          3D

 44 46  0  0  0  0  0  0  0  0999 V2000
  130.1560  128.7440   70.5060 C   0  0  0  0  0  0  0  0  0  0  0  0
  128.8930  128.1960   71.1950 C   0  0  0  0  0  0  0  0  0  0  0  0
  127.9640  127.3610   70.2900 C   0  0  0  0  0  0  0  0  0  0  0  0
  126.8200  127.1000   70.6700 O   0  0  0  0  0  0  0  0  0  0  0  0
  128.5060  126.9030   68.9670 C   0  0  0  0  0  0  0  0  0  0  0  0
  129.4260  125.8480   68.9290 C   0  0  0  0  0  0  0  0  0  0  0  0
  129.9450  125.4040   67.7160 C   0  0  0  0  0  0  0  0  0  0  0  0
  129.5540  126.0020   66.5180 C   0  0  0  0  0  0  0  0  0  0  0  0
  130.1470  125.4810   65.3520 N   0  0  0  0  0  0  0  0  0  0  0  0
  131.4040  125.0160   65.1460 C   0  0  0  0  0  0  0  0  0  0  0  0
  132.2910  125.0190   66.0010 O   0  0  0  0  0  0  0  0  0  0  0  0
  131.6710  124.5140   63.7970 C   0  0  0  0  0  0  0  0  0  0  0  0
  133.2360  124.8010   63.0380 S   0  0  0  0  0  0  0  0  0  0  0  0
  132.7260  123.9960   61.5730 C   0  0  0  0  0  0  0  0  0  0  0  0
  133.5410  123.8770   60.5260 N   0  0  0  0  0  0  0  0  0  0  0  0
  133.0340  123.2350   59.4490 C   0  0  0  0  0  0  0  0  0  0  0  0
  133.9760  123.1190   58.2640 C   0  0  0  0  0  0  0  0  0  0  0  0
  131.7460  122.7080   59.3960 C   0  0  0  0  0  0  0  0  0  0  0  0
  130.8830  122.8290   60.4970 C   0  0  0  0  0  0  0  0  0  0  0  0
  129.4760  122.2310   60.3930 C   0  0  0  0  0  0  0  0  0  0  0  0
  129.1040  121.9860   59.1350 F   0  0  0  0  0  0  0  0  0  0  0  0
  129.4240  121.0760   61.0570 F   0  0  0  0  0  0  0  0  0  0  0  0
  128.5870  123.0780   60.9140 F   0  0  0  0  0  0  0  0  0  0  0  0
  131.3850  123.5080   61.6480 C   0  0  0  0  0  0  0  0  0  0  0  0
  130.8050  123.8280   62.9290 C   0  0  0  0  0  0  0  0  0  0  0  0
  129.5190  123.4880   63.2650 N   0  0  0  0  0  0  0  0  0  0  0  0
  128.6370  127.0640   66.5480 C   0  0  0  0  0  0  0  0  0  0  0  0
  128.1190  127.5070   67.7620 C   0  0  0  0  0  0  0  0  0  0  0  0
  130.8826  129.0593   71.2693 H   0  0  0  0  0  0  0  0  0  0  0  0
  130.6014  127.9582   69.8782 H   0  0  0  0  0  0  0  0  0  0  0  0
  129.8864  129.6061   69.8782 H   0  0  0  0  0  0  0  0  0  0  0  0
  129.2113  127.5610   72.0349 H   0  0  0  0  0  0  0  0  0  0  0  0
  128.3086  129.0742   71.5067 H   0  0  0  0  0  0  0  0  0  0  0  0
  129.7414  125.3658   69.8660 H   0  0  0  0  0  0  0  0  0  0  0  0
  130.6686  124.5756   67.7021 H   0  0  0  0  0  0  0  0  0  0  0  0
  129.5360  125.4700   64.5490 H   0  0  0  0  0  0  0  0  0  0  0  0
  135.0069  122.9921   58.6261 H   0  0  0  0  0  0  0  0  0  0  0  0
  133.6920  122.2490   57.6536 H   0  0  0  0  0  0  0  0  0  0  0  0
  133.9116  124.0319   57.6536 H   0  0  0  0  0  0  0  0  0  0  0  0
  131.4027  122.1939   58.4862 H   0  0  0  0  0  0  0  0  0  0  0  0
  129.2460  122.5300   63.4320 H   0  0  0  0  0  0  0  0  0  0  0  0
  128.7960  124.1880   63.3510 H   0  0  0  0  0  0  0  0  0  0  0  0
  128.3267  127.5476   65.6100 H   0  0  0  0  0  0  0  0  0  0  0  0
  127.3993  128.3387   67.7761 H   0  0  0  0  0  0  0  0  0  0  0  0
  1  2  1  0
  2  3  1  0
  3  4  2  0
  3  5  1  0
  5  6  2  0
  6  7  1  0
  7  8  2  0
  8  9  1  0
  9 10  1  0
 10 11  2  0
 10 12  1  0
 12 13  1  0
 13 14  1  0
 14 15  2  0
 15 16  1  0
 16 17  1  0
 16 18  2  0
 18 19  1  0
 19 20  1  0
 20 21  1  0
 20 22  1  0
 20 23  1  0
 19 24  2  0
 24 25  1  0
 25 26  1  0
  8 27  1  0
 27 28  2  0
 28  5  1  0
 25 12  2  0
 24 14  1  0
  1 29  1  0
  1 30  1  0
  1 31  1  0
  2 32  1  0
  2 33  1  0
  6 34  1  0
  7 35  1  0
  9 36  1  0
 17 37  1  0
 17 38  1  0
 17 39  1  0
 18 40  1  0
 26 41  1  0
 26 42  1  0
 27 43  1  0
 28 44  1  0
M  END
>  <Binding energies>  (1) 
[-6.85]

>  <Ligand effiencies>  (1) 
[-0.22096774193548385]

>  <Interactions>  (1) 
["V-B:GLU:543:CG:9875, V-A:HIS:456:CE1:4064, H-B:LYS:547:NZ:9919, V-B:ALA:541:CB:9860, V-B:GLU:543:CB:9874, V-B:TYR:539:C:9835, V-B:TYR:539:CD2:9842, V-B:TYR:539:CE2:9844, V-A:ILE:369:CD1:3234, V-A:ASP:366:CA:3205, V-A:ILE:369:CB:3231, V-A:ASP:366:CG:3208, V-B:HIS:456:CE1:9037, V-A:ASP:366:CB:3207, V-A:ASP:366:C:3203, V-B:GLU:543:C:9870, V-B:GLU:543:CD:9876, V-A:ILE:369:CG2:3232, H-A:TYR:484:OH:4343, V-A:ARG:545:CZ:4921, H-A:HIS:456:NE2:4065, V-A:GLU:543:C:4897, V-B:HIS:456:CD2:9035, H-B:GLU:543:OE2:9878, V-A:ILE:369:CG1:3233, H-B:ARG:545:N:9888"]

$$$$
4bb_Grossjean_2025
     RDKit          3D

 41 43  0  0  0  0  0  0  0  0999 V2000
  128.7350  128.4010   71.0830 C   0  0  0  0  0  0  0  0  0  0  0  0
  127.9350  127.3580   70.2990 C   0  0  0  0  0  0  0  0  0  0  0  0
  126.8850  126.9410   70.7910 O   0  0  0  0  0  0  0  0  0  0  0  0
  128.4770  126.8910   68.9810 C   0  0  0  0  0  0  0  0  0  0  0  0
  129.4130  125.8490   68.9530 C   0  0  0  0  0  0  0  0  0  0  0  0
  129.9330  125.3970   67.7440 C   0  0  0  0  0  0  0  0  0  0  0  0
  129.5210  125.9710   66.5390 C   0  0  0  0  0  0  0  0  0  0  0  0
  130.1120  125.4400   65.3760 N   0  0  0  0  0  0  0  0  0  0  0  0
  131.3760  124.9970   65.1640 C   0  0  0  0  0  0  0  0  0  0  0  0
  132.2680  125.0210   66.0120 O   0  0  0  0  0  0  0  0  0  0  0  0
  131.6440  124.4980   63.8130 C   0  0  0  0  0  0  0  0  0  0  0  0
  133.2040  124.7970   63.0500 S   0  0  0  0  0  0  0  0  0  0  0  0
  132.7000  123.9790   61.5900 C   0  0  0  0  0  0  0  0  0  0  0  0
  133.5160  123.8570   60.5440 N   0  0  0  0  0  0  0  0  0  0  0  0
  133.0120  123.2050   59.4710 C   0  0  0  0  0  0  0  0  0  0  0  0
  133.9590  123.0760   58.2910 C   0  0  0  0  0  0  0  0  0  0  0  0
  131.7250  122.6770   59.4190 C   0  0  0  0  0  0  0  0  0  0  0  0
  130.8610  122.8020   60.5180 C   0  0  0  0  0  0  0  0  0  0  0  0
  129.4540  122.2050   60.4140 C   0  0  0  0  0  0  0  0  0  0  0  0
  128.5120  122.9950   60.9340 F   0  0  0  0  0  0  0  0  0  0  0  0
  129.1440  122.0020   59.1330 F   0  0  0  0  0  0  0  0  0  0  0  0
  129.4060  121.0440   61.0670 F   0  0  0  0  0  0  0  0  0  0  0  0
  131.3610  123.4860   61.6670 C   0  0  0  0  0  0  0  0  0  0  0  0
  130.7820  123.8020   62.9490 C   0  0  0  0  0  0  0  0  0  0  0  0
  129.5030  123.4460   63.2920 N   0  0  0  0  0  0  0  0  0  0  0  0
  128.5890  127.0200   66.5600 C   0  0  0  0  0  0  0  0  0  0  0  0
  128.0730  127.4720   67.7720 C   0  0  0  0  0  0  0  0  0  0  0  0
  128.6033  128.2293   72.1615 H   0  0  0  0  0  0  0  0  0  0  0  0
  129.8010  128.3150   70.8255 H   0  0  0  0  0  0  0  0  0  0  0  0
  128.3757  129.4083   70.8255 H   0  0  0  0  0  0  0  0  0  0  0  0
  129.7397  125.3841   69.8949 H   0  0  0  0  0  0  0  0  0  0  0  0
  130.6728  124.5830   67.7372 H   0  0  0  0  0  0  0  0  0  0  0  0
  129.4940  125.4090   64.5780 H   0  0  0  0  0  0  0  0  0  0  0  0
  134.9862  122.9361   58.6588 H   0  0  0  0  0  0  0  0  0  0  0  0
  133.6672  122.2093   57.6797 H   0  0  0  0  0  0  0  0  0  0  0  0
  133.9096  123.9892   57.6797 H   0  0  0  0  0  0  0  0  0  0  0  0
  131.3831  122.1586   58.5110 H   0  0  0  0  0  0  0  0  0  0  0  0
  129.2530  122.4900   63.5050 H   0  0  0  0  0  0  0  0  0  0  0  0
  128.7620  124.1310   63.3440 H   0  0  0  0  0  0  0  0  0  0  0  0
  128.2655  127.4860   65.6176 H   0  0  0  0  0  0  0  0  0  0  0  0
  127.3411  128.2932   67.7800 H   0  0  0  0  0  0  0  0  0  0  0  0
  1  2  1  0
  2  3  2  0
  2  4  1  0
  4  5  2  0
  5  6  1  0
  6  7  2  0
  7  8  1  0
  8  9  1  0
  9 10  2  0
  9 11  1  0
 11 12  1  0
 12 13  1  0
 13 14  2  0
 14 15  1  0
 15 16  1  0
 15 17  2  0
 17 18  1  0
 18 19  1  0
 19 20  1  0
 19 21  1  0
 19 22  1  0
 18 23  2  0
 23 24  1  0
 24 25  1  0
  7 26  1  0
 26 27  2  0
 27  4  1  0
 24 11  2  0
 23 13  1  0
  1 28  1  0
  1 29  1  0
  1 30  1  0
  5 31  1  0
  6 32  1  0
  8 33  1  0
 16 34  1  0
 16 35  1  0
 16 36  1  0
 17 37  1  0
 25 38  1  0
 25 39  1  0
 26 40  1  0
 27 41  1  0
M  END
>  <Binding energies>  (1) 
[-6.71]

>  <Ligand effiencies>  (1) 
[-0.22366666666666665]

>  <Interactions>  (1) 
["V-B:PRO:540:C:9849, V-B:GLU:543:CG:9875, V-A:HIS:456:CE1:4064, H-B:LYS:547:NZ:9919, V-B:ALA:541:CB:9860, V-B:GLU:543:CB:9874, V-B:TYR:539:C:9835, V-B:TYR:539:CD2:9842, V-B:TYR:539:CE2:9844, V-A:ILE:369:CD1:3234, V-A:ASP:366:CA:3205, V-A:ILE:369:CB:3231, V-A:ASP:366:CG:3208, V-B:HIS:456:CE1:9037, V-A:ASP:366:CB:3207, V-B:GLU:543:C:9870, V-B:GLU:543:CD:9876, V-A:ILE:369:CG2:3232, H-A:TYR:484:OH:4343, V-A:ARG:545:CZ:4921, H-A:HIS:456:NE2:4065, V-B:HIS:456:CD2:9035, H-B:GLU:543:OE2:9878, V-A:ILE:369:CG1:3233, H-B:ARG:545:N:9888"]

$$$$
4bc_Grossjean_2025
     RDKit          3D

 40 42  0  0  0  0  0  0  0  0999 V2000
  125.1190  122.3640   56.5620 C   0  0  0  0  0  0  0  0  0  0  0  0
  126.4910  122.0530   56.3400 O   0  0  0  0  0  0  0  0  0  0  0  0
  127.4260  122.4180   57.2890 C   0  0  0  0  0  0  0  0  0  0  0  0
  126.9300  122.8640   58.5130 C   0  0  0  0  0  0  0  0  0  0  0  0
  127.7960  123.2540   59.5310 C   0  0  0  0  0  0  0  0  0  0  0  0
  129.1780  123.1950   59.3380 C   0  0  0  0  0  0  0  0  0  0  0  0
  129.9740  123.6230   60.4160 N   0  0  0  0  0  0  0  0  0  0  0  0
  130.4700  124.8580   60.6780 C   0  0  0  0  0  0  0  0  0  0  0  0
  130.3100  125.8330   59.9430 O   0  0  0  0  0  0  0  0  0  0  0  0
  131.2390  124.9760   61.9210 C   0  0  0  0  0  0  0  0  0  0  0  0
  132.9420  124.5280   61.9550 S   0  0  0  0  0  0  0  0  0  0  0  0
  133.0620  124.9360   63.6510 C   0  0  0  0  0  0  0  0  0  0  0  0
  134.2090  124.8040   64.3180 N   0  0  0  0  0  0  0  0  0  0  0  0
  134.1780  125.1500   65.6260 C   0  0  0  0  0  0  0  0  0  0  0  0
  135.4940  124.9980   66.3660 C   0  0  0  0  0  0  0  0  0  0  0  0
  133.0390  125.6190   66.2760 C   0  0  0  0  0  0  0  0  0  0  0  0
  131.8290  125.7590   65.5790 C   0  0  0  0  0  0  0  0  0  0  0  0
  130.6020  126.2760   66.3390 C   0  0  0  0  0  0  0  0  0  0  0  0
  129.8870  127.1570   65.6360 F   0  0  0  0  0  0  0  0  0  0  0  0
  129.7970  125.2570   66.6390 F   0  0  0  0  0  0  0  0  0  0  0  0
  130.9880  126.8800   67.4620 F   0  0  0  0  0  0  0  0  0  0  0  0
  131.8280  125.4040   64.1960 C   0  0  0  0  0  0  0  0  0  0  0  0
  130.8040  125.4180   63.1800 C   0  0  0  0  0  0  0  0  0  0  0  0
  129.5190  125.8300   63.4300 N   0  0  0  0  0  0  0  0  0  0  0  0
  129.6850  122.7600   58.1050 C   0  0  0  0  0  0  0  0  0  0  0  0
  128.8160  122.3710   57.0900 C   0  0  0  0  0  0  0  0  0  0  0  0
  124.9234  122.4083   57.6436 H   0  0  0  0  0  0  0  0  0  0  0  0
  124.8855  123.3379   56.1069 H   0  0  0  0  0  0  0  0  0  0  0  0
  124.4884  121.5860   56.1069 H   0  0  0  0  0  0  0  0  0  0  0  0
  125.8431  122.9083   58.6763 H   0  0  0  0  0  0  0  0  0  0  0  0
  127.3907  123.6095   60.4898 H   0  0  0  0  0  0  0  0  0  0  0  0
  130.2310  122.8920   61.0630 H   0  0  0  0  0  0  0  0  0  0  0  0
  135.3096  125.0193   67.4502 H   0  0  0  0  0  0  0  0  0  0  0  0
  135.9602  124.0400   66.0921 H   0  0  0  0  0  0  0  0  0  0  0  0
  136.1663  125.8245   66.0921 H   0  0  0  0  0  0  0  0  0  0  0  0
  133.0882  125.8815   67.3431 H   0  0  0  0  0  0  0  0  0  0  0  0
  128.9110  125.3320   64.0640 H   0  0  0  0  0  0  0  0  0  0  0  0
  129.1370  126.6540   62.9860 H   0  0  0  0  0  0  0  0  0  0  0  0
  130.7720  122.7262   57.9397 H   0  0  0  0  0  0  0  0  0  0  0  0
  129.2195  122.0249   56.1270 H   0  0  0  0  0  0  0  0  0  0  0  0
  1  2  1  0
  2  3  1  0
  3  4  2  0
  4  5  1  0
  5  6  2  0
  6  7  1  0
  7  8  1  0
  8  9  2  0
  8 10  1  0
 10 11  1  0
 11 12  1  0
 12 13  2  0
 13 14  1  0
 14 15  1  0
 14 16  2  0
 16 17  1  0
 17 18  1  0
 18 19  1  0
 18 20  1  0
 18 21  1  0
 17 22  2  0
 22 23  1  0
 23 24  1  0
  6 25  1  0
 25 26  2  0
 26  3  1  0
 23 10  2  0
 22 12  1  0
  1 27  1  0
  1 28  1  0
  1 29  1  0
  4 30  1  0
  5 31  1  0
  7 32  1  0
 15 33  1  0
 15 34  1  0
 15 35  1  0
 16 36  1  0
 24 37  1  0
 24 38  1  0
 25 39  1  0
 26 40  1  0
M  END
>  <Binding energies>  (1) 
[-6.24]

>  <Ligand effiencies>  (1) 
[-0.21517241379310345]

>  <Interactions>  (1) 
["V-B:GLU:543:CG:9875, V-A:HIS:456:CE1:4064, V-B:GLU:543:CB:9874, V-B:TYR:539:C:9835, V-B:TYR:539:CD2:9842, V-B:TYR:539:CE2:9844, V-B:TYR:539:CZ:9845, V-A:ASP:366:CG:3208, V-A:GLU:543:CD:4903, V-B:GLU:543:CD:9876, H-A:ARG:545:NH1:4922, H-A:TYR:484:OH:4343, H-A:GLY:454:N:4045, V-A:GLY:454:CA:4044, V-A:ARG:545:CZ:4921, V-B:PRO:540:CB:9853, V-B:PRO:540:CA:9851, V-B:TYR:539:CE1:9843, H-B:GLU:543:OE2:9878, H-B:GLU:543:OE1:9877, V-A:ARG:545:CD:4918, V-A:GLY:453:CA:4039, V-A:ARG:545:CG:4917, V-A:HIS:456:CD2:4063, V-A:GLY:453:C:4037, V-B:LEU:363:CD1:8156, V-B:PRO:540:CD:9855, V-B:PRO:540:N:9852, V-B:PRO:540:CG:9854, V-B:MET:535:CE:9803, V-B:ILE:538:CG2:9831, H-B:TYR:539:N:9838, V-B:TYR:539:CG:9840, V-A:ILE:455:C:4047, V-B:TYR:539:CD1:9841"]

$$$$
4bd_Grossjean_2025
     RDKit          3D

 36 38  0  0  0  0  0  0  0  0999 V2000
  135.2510  125.2640   66.3820 C   0  0  0  0  0  0  0  0  0  0  0  0
  134.0190  125.0950   65.5100 C   0  0  0  0  0  0  0  0  0  0  0  0
  132.7490  125.3870   65.9980 C   0  0  0  0  0  0  0  0  0  0  0  0
  131.6180  125.2250   65.1820 C   0  0  0  0  0  0  0  0  0  0  0  0
  130.2400  125.5560   65.7640 C   0  0  0  0  0  0  0  0  0  0  0  0
  129.5370  126.3920   64.9970 F   0  0  0  0  0  0  0  0  0  0  0  0
  129.5250  124.4390   65.8970 F   0  0  0  0  0  0  0  0  0  0  0  0
  130.3810  126.1340   66.9570 F   0  0  0  0  0  0  0  0  0  0  0  0
  131.8350  124.7550   63.8530 C   0  0  0  0  0  0  0  0  0  0  0  0
  130.9450  124.4740   62.7530 C   0  0  0  0  0  0  0  0  0  0  0  0
  129.5880  124.6460   62.8380 N   0  0  0  0  0  0  0  0  0  0  0  0
  131.5920  124.0110   61.5950 C   0  0  0  0  0  0  0  0  0  0  0  0
  130.9990  123.6180   60.3130 C   0  0  0  0  0  0  0  0  0  0  0  0
  131.7130  123.3600   59.3430 O   0  0  0  0  0  0  0  0  0  0  0  0
  129.6440  123.5540   60.2950 N   0  0  0  0  0  0  0  0  0  0  0  0
  128.7770  123.2540   59.2280 C   0  0  0  0  0  0  0  0  0  0  0  0
  127.4250  123.5370   59.4400 C   0  0  0  0  0  0  0  0  0  0  0  0
  126.4890  123.2850   58.4400 C   0  0  0  0  0  0  0  0  0  0  0  0
  126.9060  122.7570   57.2220 C   0  0  0  0  0  0  0  0  0  0  0  0
  128.2520  122.4830   56.9930 C   0  0  0  0  0  0  0  0  0  0  0  0
  129.1910  122.7330   57.9900 C   0  0  0  0  0  0  0  0  0  0  0  0
  133.3350  123.9150   61.8330 S   0  0  0  0  0  0  0  0  0  0  0  0
  133.1890  124.4910   63.4770 C   0  0  0  0  0  0  0  0  0  0  0  0
  134.2580  124.6480   64.2550 N   0  0  0  0  0  0  0  0  0  0  0  0
  134.9585  125.2239   67.4416 H   0  0  0  0  0  0  0  0  0  0  0  0
  135.9654  124.4554   66.1680 H   0  0  0  0  0  0  0  0  0  0  0  0
  135.7213  126.2351   66.1680 H   0  0  0  0  0  0  0  0  0  0  0  0
  132.6303  125.7473   67.0305 H   0  0  0  0  0  0  0  0  0  0  0  0
  129.1450  125.5270   62.6190 H   0  0  0  0  0  0  0  0  0  0  0  0
  128.9790  123.8900   63.1200 H   0  0  0  0  0  0  0  0  0  0  0  0
  129.1790  123.7280   61.1730 H   0  0  0  0  0  0  0  0  0  0  0  0
  127.0986  123.9608   60.4012 H   0  0  0  0  0  0  0  0  0  0  0  0
  125.4246  123.5024   58.6123 H   0  0  0  0  0  0  0  0  0  0  0  0
  126.1663  122.5544   56.4335 H   0  0  0  0  0  0  0  0  0  0  0  0
  128.5729  122.0695   56.0255 H   0  0  0  0  0  0  0  0  0  0  0  0
  130.2555  122.5231   57.8091 H   0  0  0  0  0  0  0  0  0  0  0  0
  1  2  1  0
  2  3  2  0
  3  4  1  0
  4  5  1  0
  5  6  1  0
  5  7  1  0
  5  8  1  0
  4  9  2  0
  9 10  1  0
 10 11  1  0
 10 12  2  0
 12 13  1  0
 13 14  2  0
 13 15  1  0
 15 16  1  0
 16 17  2  0
 17 18  1  0
 18 19  2  0
 19 20  1  0
 20 21  2  0
 12 22  1  0
 22 23  1  0
 23 24  2  0
 24  2  1  0
 23  9  1  0
 21 16  1  0
  1 25  1  0
  1 26  1  0
  1 27  1  0
  3 28  1  0
 11 29  1  0
 11 30  1  0
 15 31  1  0
 17 32  1  0
 18 33  1  0
 19 34  1  0
 20 35  1  0
 21 36  1  0
M  END
>  <Binding energies>  (1) 
[-6.25]

>  <Ligand effiencies>  (1) 
[-0.23148148148148148]

>  <Interactions>  (1) 
["V-B:GLU:543:CG:9875, V-A:HIS:456:CE1:4064, V-B:GLU:543:CB:9874, V-B:TYR:539:C:9835, V-B:TYR:539:CD2:9842, V-B:TYR:539:CE2:9844, V-A:ILE:369:CD1:3234, V-B:TYR:539:CZ:9845, V-A:ASP:366:CG:3208, V-A:TYR:484:CE1:4340, V-B:GLU:543:CA:9872, V-B:GLU:543:CD:9876, H-A:TYR:484:OH:4343, H-A:GLY:454:N:4045, V-A:ARG:545:CZ:4921, V-B:PRO:540:CB:9853, V-B:PRO:540:CA:9851, V-B:TYR:539:CE1:9843, H-B:GLU:543:OE2:9878, V-A:ARG:545:CD:4918, V-A:GLY:453:CA:4039, V-A:ARG:545:CG:4917, V-A:HIS:456:CD2:4063, V-A:GLY:453:C:4037, V-B:PRO:540:N:9852, V-B:MET:535:CE:9803, V-B:TYR:539:CG:9840, V-B:TYR:539:CD1:9841"]

$$$$
4be_Grossjean_2025
     RDKit          3D

 38 40  0  0  0  0  0  0  0  0999 V2000
  127.5240  122.5060   56.9350 C   0  0  0  0  0  0  0  0  0  0  0  0
  127.1900  123.1560   58.2640 C   0  0  0  0  0  0  0  0  0  0  0  0
  125.8800  123.5050   58.5990 C   0  0  0  0  0  0  0  0  0  0  0  0
  125.6470  124.1020   59.8380 C   0  0  0  0  0  0  0  0  0  0  0  0
  126.7180  124.3340   60.7040 C   0  0  0  0  0  0  0  0  0  0  0  0
  128.0060  123.9540   60.3090 C   0  0  0  0  0  0  0  0  0  0  0  0
  129.0410  124.2220   61.2220 N   0  0  0  0  0  0  0  0  0  0  0  0
  130.3750  124.3180   60.9940 C   0  0  0  0  0  0  0  0  0  0  0  0
  130.8930  124.1810   59.8840 O   0  0  0  0  0  0  0  0  0  0  0  0
  131.1990  124.5800   62.1780 C   0  0  0  0  0  0  0  0  0  0  0  0
  132.9030  124.1290   62.1880 S   0  0  0  0  0  0  0  0  0  0  0  0
  133.0930  124.7070   63.8270 C   0  0  0  0  0  0  0  0  0  0  0  0
  134.2650  124.6390   64.4550 N   0  0  0  0  0  0  0  0  0  0  0  0
  134.2890  125.1190   65.7200 C   0  0  0  0  0  0  0  0  0  0  0  0
  135.6320  125.0310   66.4210 C   0  0  0  0  0  0  0  0  0  0  0  0
  133.1790  125.6620   66.3630 C   0  0  0  0  0  0  0  0  0  0  0  0
  131.9420  125.7370   65.7050 C   0  0  0  0  0  0  0  0  0  0  0  0
  130.7500  126.3460   66.4520 C   0  0  0  0  0  0  0  0  0  0  0  0
  130.0170  127.1610   65.6890 F   0  0  0  0  0  0  0  0  0  0  0  0
  129.9450  125.3760   66.8850 F   0  0  0  0  0  0  0  0  0  0  0  0
  131.1850  127.0550   67.4930 F   0  0  0  0  0  0  0  0  0  0  0  0
  131.8810  125.2350   64.3710 C   0  0  0  0  0  0  0  0  0  0  0  0
  130.8130  125.1380   63.4060 C   0  0  0  0  0  0  0  0  0  0  0  0
  129.5360  125.5630   63.6700 N   0  0  0  0  0  0  0  0  0  0  0  0
  128.2420  123.3740   59.0950 N   0  0  0  0  0  0  0  0  0  0  0  0
  128.0201  121.5406   57.1134 H   0  0  0  0  0  0  0  0  0  0  0  0
  126.5982  122.3425   56.3638 H   0  0  0  0  0  0  0  0  0  0  0  0
  128.1959  123.1635   56.3638 H   0  0  0  0  0  0  0  0  0  0  0  0
  125.0509  123.3135   57.9019 H   0  0  0  0  0  0  0  0  0  0  0  0
  124.6262  124.3883   60.1312 H   0  0  0  0  0  0  0  0  0  0  0  0
  126.5517  124.8085   61.6824 H   0  0  0  0  0  0  0  0  0  0  0  0
  128.7420  124.3130   62.1820 H   0  0  0  0  0  0  0  0  0  0  0  0
  135.4784  125.0411   67.5102 H   0  0  0  0  0  0  0  0  0  0  0  0
  136.1368  124.0979   66.1305 H   0  0  0  0  0  0  0  0  0  0  0  0
  136.2543  125.8903   66.1305 H   0  0  0  0  0  0  0  0  0  0  0  0
  133.2729  126.0346   67.3937 H   0  0  0  0  0  0  0  0  0  0  0  0
  128.9850  126.0600   62.9850 H   0  0  0  0  0  0  0  0  0  0  0  0
  129.1030  125.3970   64.5680 H   0  0  0  0  0  0  0  0  0  0  0  0
  1  2  1  0
  2  3  2  0
  3  4  1  0
  4  5  2  0
  5  6  1  0
  6  7  1  0
  7  8  1  0
  8  9  2  0
  8 10  1  0
 10 11  1  0
 11 12  1  0
 12 13  2  0
 13 14  1  0
 14 15  1  0
 14 16  2  0
 16 17  1  0
 17 18  1  0
 18 19  1  0
 18 20  1  0
 18 21  1  0
 17 22  2  0
 22 23  1  0
 23 24  1  0
  6 25  2  0
 25  2  1  0
 23 10  2  0
 22 12  1  0
  1 26  1  0
  1 27  1  0
  1 28  1  0
  3 29  1  0
  4 30  1  0
  5 31  1  0
  7 32  1  0
 15 33  1  0
 15 34  1  0
 15 35  1  0
 16 36  1  0
 24 37  1  0
 24 38  1  0
M  END
>  <Binding energies>  (1) 
[-6.47]

>  <Ligand effiencies>  (1) 
[-0.23107142857142857]

>  <Interactions>  (1) 
["V-B:GLU:543:CG:9875, V-A:HIS:456:CE1:4064, V-B:GLU:543:CB:9874, V-B:TYR:539:C:9835, V-A:ASP:366:CG:3208, V-A:GLU:543:CD:4903, V-B:GLU:543:CD:9876, H-A:TYR:484:OH:4343, H-A:GLY:454:N:4045, V-A:GLY:454:CA:4044, V-A:ARG:545:CZ:4921, V-B:PRO:540:CB:9853, V-B:PRO:540:CA:9851, H-B:GLU:543:OE2:9878, V-A:ARG:545:CD:4918, V-A:GLY:453:CA:4039, V-A:ARG:545:CG:4917, V-A:HIS:456:CD2:4063, V-A:GLY:453:C:4037, V-B:PRO:540:N:9852, V-B:MET:535:CE:9803, V-A:ILE:455:C:4047"]

$$$$
4bf_Grossjean_2025
     RDKit          3D

 35 37  0  0  0  0  0  0  0  0999 V2000
  135.2640  125.1690   66.3700 C   0  0  0  0  0  0  0  0  0  0  0  0
  134.0270  125.0710   65.4940 C   0  0  0  0  0  0  0  0  0  0  0  0
  132.7670  125.3850   65.9950 C   0  0  0  0  0  0  0  0  0  0  0  0
  131.6320  125.2860   65.1760 C   0  0  0  0  0  0  0  0  0  0  0  0
  130.2650  125.6390   65.7720 C   0  0  0  0  0  0  0  0  0  0  0  0
  130.3490  126.1660   66.9970 F   0  0  0  0  0  0  0  0  0  0  0  0
  129.6490  126.5300   64.9960 F   0  0  0  0  0  0  0  0  0  0  0  0
  129.5150  124.5400   65.8620 F   0  0  0  0  0  0  0  0  0  0  0  0
  131.8340  124.8570   63.8300 C   0  0  0  0  0  0  0  0  0  0  0  0
  130.9340  124.6410   62.7240 C   0  0  0  0  0  0  0  0  0  0  0  0
  129.5810  124.8480   62.8190 N   0  0  0  0  0  0  0  0  0  0  0  0
  131.5650  124.2060   61.5460 C   0  0  0  0  0  0  0  0  0  0  0  0
  130.9570  123.8640   60.2570 C   0  0  0  0  0  0  0  0  0  0  0  0
  131.6460  123.7910   59.2390 O   0  0  0  0  0  0  0  0  0  0  0  0
  129.6220  123.6300   60.2880 N   0  0  0  0  0  0  0  0  0  0  0  0
  128.7400  123.3310   59.2330 C   0  0  0  0  0  0  0  0  0  0  0  0
  127.3490  123.5370   59.2500 C   0  0  0  0  0  0  0  0  0  0  0  0
  126.5840  123.1810   58.1370 C   0  0  0  0  0  0  0  0  0  0  0  0
  127.2290  122.6220   57.0340 C   0  0  0  0  0  0  0  0  0  0  0  0
  128.5680  122.4060   56.9950 N   0  0  0  0  0  0  0  0  0  0  0  0
  129.2980  122.7570   58.0840 C   0  0  0  0  0  0  0  0  0  0  0  0
  133.3040  124.0470   61.7780 S   0  0  0  0  0  0  0  0  0  0  0  0
  133.1780  124.5670   63.4420 C   0  0  0  0  0  0  0  0  0  0  0  0
  134.2530  124.6630   64.2240 N   0  0  0  0  0  0  0  0  0  0  0  0
  134.9664  125.1454   67.4287 H   0  0  0  0  0  0  0  0  0  0  0  0
  135.9317  124.3209   66.1578 H   0  0  0  0  0  0  0  0  0  0  0  0
  135.7898  126.1116   66.1578 H   0  0  0  0  0  0  0  0  0  0  0  0
  132.6603  125.7128   67.0396 H   0  0  0  0  0  0  0  0  0  0  0  0
  128.9440  124.1050   63.0690 H   0  0  0  0  0  0  0  0  0  0  0  0
  129.1750  125.7560   62.6430 H   0  0  0  0  0  0  0  0  0  0  0  0
  129.1870  123.6650   61.1980 H   0  0  0  0  0  0  0  0  0  0  0  0
  126.8659  123.9762   60.1353 H   0  0  0  0  0  0  0  0  0  0  0  0
  125.4953  123.3383   58.1305 H   0  0  0  0  0  0  0  0  0  0  0  0
  126.6257  122.3440   56.1572 H   0  0  0  0  0  0  0  0  0  0  0  0
  130.3837  122.5816   58.0630 H   0  0  0  0  0  0  0  0  0  0  0  0
  1  2  1  0
  2  3  2  0
  3  4  1  0
  4  5  1  0
  5  6  1  0
  5  7  1  0
  5  8  1  0
  4  9  2  0
  9 10  1  0
 10 11  1  0
 10 12  2  0
 12 13  1  0
 13 14  2  0
 13 15  1  0
 15 16  1  0
 16 17  2  0
 17 18  1  0
 18 19  2  0
 19 20  1  0
 20 21  2  0
 12 22  1  0
 22 23  1  0
 23 24  2  0
 24  2  1  0
 23  9  1  0
 21 16  1  0
  1 25  1  0
  1 26  1  0
  1 27  1  0
  3 28  1  0
 11 29  1  0
 11 30  1  0
 15 31  1  0
 17 32  1  0
 18 33  1  0
 19 34  1  0
 21 35  1  0
M  END
>  <Binding energies>  (1) 
[-5.94]

>  <Ligand effiencies>  (1) 
[-0.22]

>  <Interactions>  (1) 
["V-B:GLU:543:CG:9875, V-A:HIS:456:CE1:4064, V-B:GLU:543:CB:9874, V-B:TYR:539:C:9835, V-B:TYR:539:CD2:9842, V-B:TYR:539:CE2:9844, V-A:ILE:369:CD1:3234, V-B:TYR:539:CZ:9845, V-A:ASP:366:CG:3208, V-B:GLU:543:CD:9876, H-A:ARG:545:NH1:4922, H-A:TYR:484:OH:4343, H-A:GLY:454:N:4045, V-A:ARG:545:CZ:4921, V-B:PRO:540:CB:9853, V-B:PRO:540:CA:9851, H-B:GLU:543:OE2:9878, V-A:ARG:545:CD:4918, V-A:GLY:453:CA:4039, V-A:ARG:545:CG:4917, V-A:HIS:456:CD2:4063, V-A:GLY:453:C:4037, V-B:PRO:540:N:9852, V-B:MET:535:CE:9803"]

$$$$
4bg_Grossjean_2025
     RDKit          3D

 39 41  0  0  0  0  0  0  0  0999 V2000
  135.3990  125.2680   66.3280 C   0  0  0  0  0  0  0  0  0  0  0  0
  134.1490  125.0920   65.4840 C   0  0  0  0  0  0  0  0  0  0  0  0
  132.8890  125.3860   65.9990 C   0  0  0  0  0  0  0  0  0  0  0  0
  131.7400  125.2140   65.2100 C   0  0  0  0  0  0  0  0  0  0  0  0
  130.3760  125.5500   65.8190 C   0  0  0  0  0  0  0  0  0  0  0  0
  129.6040  124.4750   65.9970 F   0  0  0  0  0  0  0  0  0  0  0  0
  130.5430  126.1220   67.0110 F   0  0  0  0  0  0  0  0  0  0  0  0
  129.7160  126.3860   65.0180 F   0  0  0  0  0  0  0  0  0  0  0  0
  131.9300  124.7330   63.8800 C   0  0  0  0  0  0  0  0  0  0  0  0
  131.0160  124.4330   62.8050 C   0  0  0  0  0  0  0  0  0  0  0  0
  129.6560  124.5740   62.9250 N   0  0  0  0  0  0  0  0  0  0  0  0
  131.6410  123.9930   61.6280 C   0  0  0  0  0  0  0  0  0  0  0  0
  131.0250  123.5780   60.3680 C   0  0  0  0  0  0  0  0  0  0  0  0
  131.5630  123.8050   59.2840 O   0  0  0  0  0  0  0  0  0  0  0  0
  129.8610  122.9030   60.4750 N   0  0  0  0  0  0  0  0  0  0  0  0
  129.0630  122.4060   59.3540 C   0  0  0  0  0  0  0  0  0  0  0  0
  127.6540  122.9830   59.3060 C   0  0  0  0  0  0  0  0  0  0  0  0
  126.9610  123.0420   58.0930 C   0  0  0  0  0  0  0  0  0  0  0  0
  125.6590  123.5340   58.0590 C   0  0  0  0  0  0  0  0  0  0  0  0
  125.0480  123.9520   59.2390 C   0  0  0  0  0  0  0  0  0  0  0  0
  125.7250  123.8810   60.4530 C   0  0  0  0  0  0  0  0  0  0  0  0
  127.0280  123.3900   60.4880 C   0  0  0  0  0  0  0  0  0  0  0  0
  133.3890  123.9000   61.8270 S   0  0  0  0  0  0  0  0  0  0  0  0
  133.2760  124.4760   63.4730 C   0  0  0  0  0  0  0  0  0  0  0  0
  134.3620  124.6390   64.2280 N   0  0  0  0  0  0  0  0  0  0  0  0
  135.1300  125.2301   67.3939 H   0  0  0  0  0  0  0  0  0  0  0  0
  136.1115  124.4613   66.1007 H   0  0  0  0  0  0  0  0  0  0  0  0
  135.8610  126.2401   66.1007 H   0  0  0  0  0  0  0  0  0  0  0  0
  132.7930  125.7554   67.0307 H   0  0  0  0  0  0  0  0  0  0  0  0
  129.1700  125.3850   62.5720 H   0  0  0  0  0  0  0  0  0  0  0  0
  129.0930  123.8690   63.3820 H   0  0  0  0  0  0  0  0  0  0  0  0
  129.4390  122.8240   61.3890 H   0  0  0  0  0  0  0  0  0  0  0  0
  129.5779  122.6671   58.4177 H   0  0  0  0  0  0  0  0  0  0  0  0
  128.9622  121.3187   59.4865 H   0  0  0  0  0  0  0  0  0  0  0  0
  127.4443  122.6998   57.1660 H   0  0  0  0  0  0  0  0  0  0  0  0
  125.1152  123.5924   57.1046 H   0  0  0  0  0  0  0  0  0  0  0  0
  124.0199  124.3422   59.2111 H   0  0  0  0  0  0  0  0  0  0  0  0
  125.2335  124.2110   61.3801 H   0  0  0  0  0  0  0  0  0  0  0  0
  127.5646  123.3224   61.4459 H   0  0  0  0  0  0  0  0  0  0  0  0
  1  2  1  0
  2  3  2  0
  3  4  1  0
  4  5  1  0
  5  6  1  0
  5  7  1  0
  5  8  1  0
  4  9  2  0
  9 10  1  0
 10 11  1  0
 10 12  2  0
 12 13  1  0
 13 14  2  0
 13 15  1  0
 15 16  1  0
 16 17  1  0
 17 18  2  0
 18 19  1  0
 19 20  2  0
 20 21  1  0
 21 22  2  0
 12 23  1  0
 23 24  1  0
 24 25  2  0
 25  2  1  0
 24  9  1  0
 22 17  1  0
  1 26  1  0
  1 27  1  0
  1 28  1  0
  3 29  1  0
 11 30  1  0
 11 31  1  0
 15 32  1  0
 16 33  1  0
 16 34  1  0
 18 35  1  0
 19 36  1  0
 20 37  1  0
 21 38  1  0
 22 39  1  0
M  END
>  <Binding energies>  (1) 
[-6.42]

>  <Ligand effiencies>  (1) 
[-0.2292857142857143]

>  <Interactions>  (1) 
["V-B:GLU:543:CG:9875, V-A:HIS:456:CE1:4064, V-B:GLU:543:CB:9874, V-B:TYR:539:C:9835, V-A:ILE:369:CD1:3234, V-A:ASP:366:CG:3208, V-A:TYR:484:CE1:4340, V-B:GLU:543:CA:9872, V-B:GLU:543:CD:9876, H-A:ARG:545:NH1:4922, H-A:TYR:484:OH:4343, H-A:GLY:454:N:4045, V-A:ARG:545:CZ:4921, V-B:PRO:540:CB:9853, V-B:PRO:540:CA:9851, H-B:GLU:543:OE2:9878, V-A:ARG:545:CD:4918, V-A:GLY:453:CA:4039, V-A:ARG:545:CG:4917, V-A:HIS:456:CD2:4063, V-A:GLY:453:C:4037, V-B:PRO:540:N:9852"]

$$$$
4bh_Grossjean_2025
     RDKit          3D

 51 53  0  0  0  0  0  0  0  0999 V2000
  129.8730  124.3840   71.2940 C   0  0  0  0  0  0  0  0  0  0  0  0
  129.0890  125.3720   71.9540 O   0  0  0  0  0  0  0  0  0  0  0  0
  129.2780  126.7070   71.6450 C   0  0  0  0  0  0  0  0  0  0  0  0
  129.2490  127.2210   70.3390 C   0  0  0  0  0  0  0  0  0  0  0  0
  129.4500  128.5810   70.0990 C   0  0  0  0  0  0  0  0  0  0  0  0
  129.3690  129.1280   68.6790 C   0  0  0  0  0  0  0  0  0  0  0  0
  129.6950  128.1370   67.6530 N   0  0  0  0  0  0  0  0  0  0  0  0
  128.9320  127.0750   67.3210 C   0  0  0  0  0  0  0  0  0  0  0  0
  127.8760  126.8110   67.8990 O   0  0  0  0  0  0  0  0  0  0  0  0
  129.4530  126.2160   66.2570 C   0  0  0  0  0  0  0  0  0  0  0  0
  129.8940  124.5480   66.6070 S   0  0  0  0  0  0  0  0  0  0  0  0
  130.4140  124.2950   64.9570 C   0  0  0  0  0  0  0  0  0  0  0  0
  130.8930  123.1190   64.5520 N   0  0  0  0  0  0  0  0  0  0  0  0
  131.2610  123.0440   63.2520 C   0  0  0  0  0  0  0  0  0  0  0  0
  131.8060  121.6960   62.8120 C   0  0  0  0  0  0  0  0  0  0  0  0
  131.1610  124.1040   62.3560 C   0  0  0  0  0  0  0  0  0  0  0  0
  130.6590  125.3460   62.7770 C   0  0  0  0  0  0  0  0  0  0  0  0
  130.5660  126.4830   61.7540 C   0  0  0  0  0  0  0  0  0  0  0  0
  131.3020  127.5460   62.0850 F   0  0  0  0  0  0  0  0  0  0  0  0
  130.9920  126.0570   60.5660 F   0  0  0  0  0  0  0  0  0  0  0  0
  129.3010  126.8900   61.6480 F   0  0  0  0  0  0  0  0  0  0  0  0
  130.2650  125.4600   64.1430 C   0  0  0  0  0  0  0  0  0  0  0  0
  129.7240  126.5480   64.9200 C   0  0  0  0  0  0  0  0  0  0  0  0
  129.4900  127.7920   64.3940 N   0  0  0  0  0  0  0  0  0  0  0  0
  129.6550  129.4450   71.1770 C   0  0  0  0  0  0  0  0  0  0  0  0
  129.6970  128.9580   72.4920 C   0  0  0  0  0  0  0  0  0  0  0  0
  129.9100  129.7540   73.6040 O   0  0  0  0  0  0  0  0  0  0  0  0
  129.8990  131.1700   73.4600 C   0  0  0  0  0  0  0  0  0  0  0  0
  129.5130  127.5850   72.7120 C   0  0  0  0  0  0  0  0  0  0  0  0
  129.5330  127.0980   73.9980 O   0  0  0  0  0  0  0  0  0  0  0  0
  130.6660  126.2910   74.2910 C   0  0  0  0  0  0  0  0  0  0  0  0
  130.3738  123.7529   72.0429 H   0  0  0  0  0  0  0  0  0  0  0  0
  129.2219  123.7596   70.6646 H   0  0  0  0  0  0  0  0  0  0  0  0
  130.6290  124.8761   70.6646 H   0  0  0  0  0  0  0  0  0  0  0  0
  129.0653  126.5423   69.4930 H   0  0  0  0  0  0  0  0  0  0  0  0
  128.3448  129.4882   68.5024 H   0  0  0  0  0  0  0  0  0  0  0  0
  130.1137  129.9336   68.5993 H   0  0  0  0  0  0  0  0  0  0  0  0
  130.5040  128.3400   67.0820 H   0  0  0  0  0  0  0  0  0  0  0  0
  132.0501  121.0922   63.6984 H   0  0  0  0  0  0  0  0  0  0  0  0
  131.0486  121.1732   62.2095 H   0  0  0  0  0  0  0  0  0  0  0  0
  132.7139  121.8465   62.2095 H   0  0  0  0  0  0  0  0  0  0  0  0
  131.4772  123.9681   61.3112 H   0  0  0  0  0  0  0  0  0  0  0  0
  128.5530  128.1280   64.2130 H   0  0  0  0  0  0  0  0  0  0  0  0
  130.2490  128.4160   64.1610 H   0  0  0  0  0  0  0  0  0  0  0  0
  129.7852  130.5216   70.9925 H   0  0  0  0  0  0  0  0  0  0  0  0
  129.8954  131.6397   74.4547 H   0  0  0  0  0  0  0  0  0  0  0  0
  130.7947  131.4893   72.9070 H   0  0  0  0  0  0  0  0  0  0  0  0
  128.9985  131.4753   72.9070 H   0  0  0  0  0  0  0  0  0  0  0  0
  130.7841  126.2069   75.3814 H   0  0  0  0  0  0  0  0  0  0  0  0
  130.5242  125.2893   73.8592 H   0  0  0  0  0  0  0  0  0  0  0  0
  131.5664  126.7524   73.8592 H   0  0  0  0  0  0  0  0  0  0  0  0
  1  2  1  0
  2  3  1  0
  3  4  2  0
  4  5  1  0
  5  6  1  0
  6  7  1  0
  7  8  1  0
  8  9  2  0
  8 10  1  0
 10 11  1  0
 11 12  1  0
 12 13  2  0
 13 14  1  0
 14 15  1  0
 14 16  2  0
 16 17  1  0
 17 18  1  0
 18 19  1  0
 18 20  1  0
 18 21  1  0
 17 22  2  0
 22 23  1  0
 23 24  1  0
  5 25  2  0
 25 26  1  0
 26 27  1  0
 27 28  1  0
 26 29  2  0
 29 30  1  0
 30 31  1  0
 29  3  1  0
 23 10  2  0
 22 12  1  0
  1 32  1  0
  1 33  1  0
  1 34  1  0
  4 35  1  0
  6 36  1  0
  6 37  1  0
  7 38  1  0
 15 39  1  0
 15 40  1  0
 15 41  1  0
 16 42  1  0
 24 43  1  0
 24 44  1  0
 25 45  1  0
 28 46  1  0
 28 47  1  0
 28 48  1  0
 31 49  1  0
 31 50  1  0
 31 51  1  0
M  END
>  <Binding energies>  (1) 
[-6.34]

>  <Ligand effiencies>  (1) 
[-0.1864705882352941]

>  <Interactions>  (1) 
["V-B:GLU:543:CG:9875, V-A:HIS:456:CE1:4064, H-B:LYS:547:NZ:9919, V-B:GLU:543:CB:9874, V-A:LEU:475:CD2:4254, V-A:GLU:543:CB:4901, V-B:HIS:456:CE1:9037, V-A:TYR:484:CZ:4342, V-B:GLU:543:C:9870, V-A:TYR:484:CE1:4340, V-B:GLU:543:CA:9872, V-A:GLU:543:CD:4903, V-B:GLU:543:CD:9876, H-A:TYR:484:OH:4343, H-A:GLU:543:OE2:4905, H-A:GLU:543:OE1:4904, V-A:GLU:543:C:4897, V-A:LYS:547:CE:4945, V-B:HIS:456:CD2:9035, H-A:LYS:547:NZ:4946, H-B:GLU:543:OE2:9878, V-B:LYS:547:CE:9918"]

$$$$
4bi_Grossjean_2025
     RDKit          3D

 32 34  0  0  0  0  0  0  0  0999 V2000
  123.7520  129.8770   66.3710 C   0  0  0  0  0  0  0  0  0  0  0  0
  124.9940  129.2040   65.8130 C   0  0  0  0  0  0  0  0  0  0  0  0
  125.2450  129.1850   64.4440 C   0  0  0  0  0  0  0  0  0  0  0  0
  126.4000  128.5630   63.9420 C   0  0  0  0  0  0  0  0  0  0  0  0
  126.6390  128.5750   62.4290 C   0  0  0  0  0  0  0  0  0  0  0  0
  127.8380  129.0540   62.0930 F   0  0  0  0  0  0  0  0  0  0  0  0
  126.5560  127.3340   61.9490 F   0  0  0  0  0  0  0  0  0  0  0  0
  125.7220  129.3390   61.8330 F   0  0  0  0  0  0  0  0  0  0  0  0
  127.2810  127.9610   64.8900 C   0  0  0  0  0  0  0  0  0  0  0  0
  128.5260  127.2470   64.7560 C   0  0  0  0  0  0  0  0  0  0  0  0
  129.1160  127.0060   63.5410 N   0  0  0  0  0  0  0  0  0  0  0  0
  129.0830  126.8270   65.9760 C   0  0  0  0  0  0  0  0  0  0  0  0
  130.3190  126.0740   66.2050 C   0  0  0  0  0  0  0  0  0  0  0  0
  130.4090  125.2860   67.1480 O   0  0  0  0  0  0  0  0  0  0  0  0
  131.3130  126.2990   65.3100 N   0  0  0  0  0  0  0  0  0  0  0  0
  132.5730  125.7170   65.2820 C   0  0  0  0  0  0  0  0  0  0  0  0
  133.4470  125.7400   66.3670 C   0  0  0  0  0  0  0  0  0  0  0  0
  134.5690  125.0670   65.9390 C   0  0  0  0  0  0  0  0  0  0  0  0
  134.3790  124.6590   64.6620 O   0  0  0  0  0  0  0  0  0  0  0  0
  133.1100  125.0770   64.2560 N   0  0  0  0  0  0  0  0  0  0  0  0
  128.0590  127.2870   67.3340 S   0  0  0  0  0  0  0  0  0  0  0  0
  126.9060  128.0520   66.2660 C   0  0  0  0  0  0  0  0  0  0  0  0
  125.8090  128.6450   66.7360 N   0  0  0  0  0  0  0  0  0  0  0  0
  123.7872  129.8579   67.4703 H   0  0  0  0  0  0  0  0  0  0  0  0
  123.7126  130.9199   66.0234 H   0  0  0  0  0  0  0  0  0  0  0  0
  122.8568  129.3406   66.0234 H   0  0  0  0  0  0  0  0  0  0  0  0
  124.5347  129.6599   63.7512 H   0  0  0  0  0  0  0  0  0  0  0  0
  129.8330  127.6120   63.1660 H   0  0  0  0  0  0  0  0  0  0  0  0
  128.8490  126.2140   62.9730 H   0  0  0  0  0  0  0  0  0  0  0  0
  131.1220  126.9570   64.5680 H   0  0  0  0  0  0  0  0  0  0  0  0
  133.2770  126.1973   67.3529 H   0  0  0  0  0  0  0  0  0  0  0  0
  135.4743  124.8893   66.5381 H   0  0  0  0  0  0  0  0  0  0  0  0
  1  2  1  0
  2  3  2  0
  3  4  1  0
  4  5  1  0
  5  6  1  0
  5  7  1  0
  5  8  1  0
  4  9  2  0
  9 10  1  0
 10 11  1  0
 10 12  2  0
 12 13  1  0
 13 14  2  0
 13 15  1  0
 15 16  1  0
 16 17  1  0
 17 18  2  0
 18 19  1  0
 19 20  1  0
 12 21  1  0
 21 22  1  0
 22 23  2  0
 23  2  1  0
 22  9  1  0
 20 16  2  0
  1 24  1  0
  1 25  1  0
  1 26  1  0
  3 27  1  0
 11 28  1  0
 11 29  1  0
 15 30  1  0
 17 31  1  0
 18 32  1  0
M  END
>  <Binding energies>  (1) 
[-5.72]

>  <Ligand effiencies>  (1) 
[-0.22]

>  <Interactions>  (1) 
["V-B:GLU:543:CG:9875, V-A:HIS:456:CE1:4064, V-B:GLU:543:CB:9874, V-B:HIS:456:CE1:9037, V-A:GLU:543:CD:4903, V-B:GLU:543:CD:9876, H-A:TYR:484:OH:4343, H-A:ARG:545:NH2:4923, H-A:GLY:454:N:4045, V-A:ARG:545:CZ:4921, H-A:GLU:543:OE2:4905, H-A:HIS:456:NE2:4065, V-B:ARG:545:CG:9890, H-A:GLU:543:OE1:4904, V-B:ARG:545:CD:9891, H-B:GLU:543:OE2:9878, V-B:ARG:545:CZ:9894, V-A:ARG:545:CD:4918, V-A:GLY:453:CA:4039, V-A:ARG:545:CG:4917, V-A:HIS:456:CD2:4063, V-A:GLY:453:C:4037, H-B:HIS:456:ND1:9034"]

$$$$
4bj_Grossjean_2025
     RDKit          3D

 32 34  0  0  0  0  0  0  0  0999 V2000
  135.3100  125.2610   66.4180 C   0  0  0  0  0  0  0  0  0  0  0  0
  134.0910  125.0920   65.5280 C   0  0  0  0  0  0  0  0  0  0  0  0
  132.8160  125.4020   65.9920 C   0  0  0  0  0  0  0  0  0  0  0  0
  131.6970  125.2360   65.1610 C   0  0  0  0  0  0  0  0  0  0  0  0
  130.3120  125.5880   65.7170 C   0  0  0  0  0  0  0  0  0  0  0  0
  130.3650  126.1700   66.9170 F   0  0  0  0  0  0  0  0  0  0  0  0
  129.6950  126.4310   64.8900 F   0  0  0  0  0  0  0  0  0  0  0  0
  129.5830  124.4790   65.8420 F   0  0  0  0  0  0  0  0  0  0  0  0
  131.9310  124.7450   63.8420 C   0  0  0  0  0  0  0  0  0  0  0  0
  131.0550  124.4480   62.7340 C   0  0  0  0  0  0  0  0  0  0  0  0
  129.6950  124.6150   62.8000 N   0  0  0  0  0  0  0  0  0  0  0  0
  131.7180  123.9840   61.5870 C   0  0  0  0  0  0  0  0  0  0  0  0
  131.1440  123.5850   60.3000 C   0  0  0  0  0  0  0  0  0  0  0  0
  131.8710  123.2730   59.3540 O   0  0  0  0  0  0  0  0  0  0  0  0
  129.7900  123.5740   60.2450 N   0  0  0  0  0  0  0  0  0  0  0  0
  129.0030  123.2250   59.1560 C   0  0  0  0  0  0  0  0  0  0  0  0
  129.3990  122.8540   57.9580 N   0  0  0  0  0  0  0  0  0  0  0  0
  128.3770  122.5910   57.1680 C   0  0  0  0  0  0  0  0  0  0  0  0
  127.1120  122.7500   57.7260 C   0  0  0  0  0  0  0  0  0  0  0  0
  127.2820  123.2760   59.3740 S   0  0  0  0  0  0  0  0  0  0  0  0
  133.4570  123.8780   61.8530 S   0  0  0  0  0  0  0  0  0  0  0  0
  133.2880  124.4690   63.4900 C   0  0  0  0  0  0  0  0  0  0  0  0
  134.3470  124.6260   64.2840 N   0  0  0  0  0  0  0  0  0  0  0  0
  135.0023  125.2183   67.4732 H   0  0  0  0  0  0  0  0  0  0  0  0
  136.0286  124.4539   66.2127 H   0  0  0  0  0  0  0  0  0  0  0  0
  135.7820  126.2332   66.2127 H   0  0  0  0  0  0  0  0  0  0  0  0
  132.6843  125.7796   67.0167 H   0  0  0  0  0  0  0  0  0  0  0  0
  129.2540  125.5000   62.6000 H   0  0  0  0  0  0  0  0  0  0  0  0
  129.0850  123.8510   63.0600 H   0  0  0  0  0  0  0  0  0  0  0  0
  129.2890  123.8390   61.0800 H   0  0  0  0  0  0  0  0  0  0  0  0
  128.5161  122.2644   56.1269 H   0  0  0  0  0  0  0  0  0  0  0  0
  126.1583  122.5716   57.2077 H   0  0  0  0  0  0  0  0  0  0  0  0
  1  2  1  0
  2  3  2  0
  3  4  1  0
  4  5  1  0
  5  6  1  0
  5  7  1  0
  5  8  1  0
  4  9  2  0
  9 10  1  0
 10 11  1  0
 10 12  2  0
 12 13  1  0
 13 14  2  0
 13 15  1  0
 15 16  1  0
 16 17  2  0
 17 18  1  0
 18 19  2  0
 19 20  1  0
 12 21  1  0
 21 22  1  0
 22 23  2  0
 23  2  1  0
 22  9  1  0
 20 16  1  0
  1 24  1  0
  1 25  1  0
  1 26  1  0
  3 27  1  0
 11 28  1  0
 11 29  1  0
 15 30  1  0
 18 31  1  0
 19 32  1  0
M  END
>  <Binding energies>  (1) 
[-5.63]

>  <Ligand effiencies>  (1) 
[-0.21653846153846154]

>  <Interactions>  (1) 
["V-B:GLU:543:CG:9875, V-A:HIS:456:CE1:4064, V-B:GLU:543:CB:9874, V-B:TYR:539:C:9835, V-B:TYR:539:CD2:9842, V-B:TYR:539:CE2:9844, V-A:ILE:369:CD1:3234, V-B:TYR:539:CZ:9845, V-A:ASP:366:CG:3208, V-A:TYR:484:CE1:4340, V-B:GLU:543:CD:9876, H-A:ARG:545:NH1:4922, H-A:TYR:484:OH:4343, H-A:GLY:454:N:4045, V-A:ARG:545:CZ:4921, V-B:PRO:540:CA:9851, V-B:TYR:539:CE1:9843, H-B:GLU:543:OE2:9878, V-A:ARG:545:CD:4918, V-A:GLY:453:CA:4039, V-A:ARG:545:CG:4917, V-A:HIS:456:CD2:4063, V-A:GLY:453:C:4037, V-B:PRO:540:N:9852, V-B:TYR:539:CG:9840, V-A:ARG:545:CB:4916"]

$$$$
4bk_Grossjean_2025
     RDKit          3D

 50 51  0  0  0  0  0  0  0  0999 V2000
  125.3990  125.6030   57.9280 C   0  0  0  0  0  0  0  0  0  0  0  0
  124.9610  124.6350   56.9860 O   0  0  0  0  0  0  0  0  0  0  0  0
  125.0190  123.3020   57.4760 C   0  0  0  0  0  0  0  0  0  0  0  0
  125.4510  122.3590   56.3460 C   0  0  0  0  0  0  0  0  0  0  0  0
  126.7830  121.9210   56.5800 O   0  0  0  0  0  0  0  0  0  0  0  0
  127.5500  122.8150   57.3750 C   0  0  0  0  0  0  0  0  0  0  0  0
  128.6650  123.4300   56.5190 C   0  0  0  0  0  0  0  0  0  0  0  0
  129.1200  124.6290   57.1310 O   0  0  0  0  0  0  0  0  0  0  0  0
  130.5370  124.7380   57.1980 C   0  0  0  0  0  0  0  0  0  0  0  0
  131.1090  123.5070   57.9230 C   0  0  0  0  0  0  0  0  0  0  0  0
  131.5510  123.7830   59.2910 N   0  0  0  0  0  0  0  0  0  0  0  0
  130.7710  124.2720   60.2780 C   0  0  0  0  0  0  0  0  0  0  0  0
  129.5750  124.5190   60.1130 O   0  0  0  0  0  0  0  0  0  0  0  0
  131.4260  124.4870   61.5690 C   0  0  0  0  0  0  0  0  0  0  0  0
  133.1450  124.1510   61.7550 S   0  0  0  0  0  0  0  0  0  0  0  0
  133.1090  124.6600   63.4260 C   0  0  0  0  0  0  0  0  0  0  0  0
  134.2040  124.6360   64.1850 N   0  0  0  0  0  0  0  0  0  0  0  0
  134.0520  125.0550   65.4620 C   0  0  0  0  0  0  0  0  0  0  0  0
  135.3130  125.0210   66.3070 C   0  0  0  0  0  0  0  0  0  0  0  0
  132.8420  125.4940   65.9940 C   0  0  0  0  0  0  0  0  0  0  0  0
  131.6840  125.5210   65.2010 C   0  0  0  0  0  0  0  0  0  0  0  0
  130.3760  126.0090   65.8310 C   0  0  0  0  0  0  0  0  0  0  0  0
  129.7860  126.9780   65.1270 F   0  0  0  0  0  0  0  0  0  0  0  0
  129.5130  124.9970   65.9190 F   0  0  0  0  0  0  0  0  0  0  0  0
  130.6140  126.4900   67.0500 F   0  0  0  0  0  0  0  0  0  0  0  0
  131.8100  125.0860   63.8470 C   0  0  0  0  0  0  0  0  0  0  0  0
  130.8700  124.9790   62.7590 C   0  0  0  0  0  0  0  0  0  0  0  0
  129.5490  125.3260   62.8830 N   0  0  0  0  0  0  0  0  0  0  0  0
  125.2285  125.2261   58.9473 H   0  0  0  0  0  0  0  0  0  0  0  0
  126.4722  125.7961   57.7832 H   0  0  0  0  0  0  0  0  0  0  0  0
  124.8356  126.5366   57.7832 H   0  0  0  0  0  0  0  0  0  0  0  0
  125.7468  123.2454   58.2989 H   0  0  0  0  0  0  0  0  0  0  0  0
  124.0260  123.0032   57.8428 H   0  0  0  0  0  0  0  0  0  0  0  0
  124.7784  121.4891   56.3166 H   0  0  0  0  0  0  0  0  0  0  0  0
  125.4027  122.8912   55.3845 H   0  0  0  0  0  0  0  0  0  0  0  0
  126.8995  123.6143   57.7597 H   0  0  0  0  0  0  0  0  0  0  0  0
  127.9946  122.2671   58.2189 H   0  0  0  0  0  0  0  0  0  0  0  0
  129.5004  122.7190   56.4378 H   0  0  0  0  0  0  0  0  0  0  0  0
  128.2773  123.6534   55.5141 H   0  0  0  0  0  0  0  0  0  0  0  0
  130.9500  124.7893   56.1798 H   0  0  0  0  0  0  0  0  0  0  0  0
  130.8104  125.6498   57.7492 H   0  0  0  0  0  0  0  0  0  0  0  0
  130.3293  122.7320   57.9596 H   0  0  0  0  0  0  0  0  0  0  0  0
  131.9955  123.1838   57.3576 H   0  0  0  0  0  0  0  0  0  0  0  0
  132.5230  123.6020   59.4900 H   0  0  0  0  0  0  0  0  0  0  0  0
  135.0406  125.0283   67.3727 H   0  0  0  0  0  0  0  0  0  0  0  0
  135.8818  124.1072   66.0802 H   0  0  0  0  0  0  0  0  0  0  0  0
  135.9302  125.9028   66.0802 H   0  0  0  0  0  0  0  0  0  0  0  0
  132.7934  125.8218   67.0429 H   0  0  0  0  0  0  0  0  0  0  0  0
  128.8960  125.2290   62.1180 H   0  0  0  0  0  0  0  0  0  0  0  0
  129.1800  125.6880   63.7520 H   0  0  0  0  0  0  0  0  0  0  0  0
  1  2  1  0
  2  3  1  0
  3  4  1  0
  4  5  1  0
  5  6  1  0
  6  7  1  0
  7  8  1  0
  8  9  1  0
  9 10  1  0
 10 11  1  0
 11 12  1  0
 12 13  2  0
 12 14  1  0
 14 15  1  0
 15 16  1  0
 16 17  2  0
 17 18  1  0
 18 19  1  0
 18 20  2  0
 20 21  1  0
 21 22  1  0
 22 23  1  0
 22 24  1  0
 22 25  1  0
 21 26  2  0
 26 27  1  0
 27 28  1  0
 27 14  2  0
 26 16  1  0
  1 29  1  0
  1 30  1  0
  1 31  1  0
  3 32  1  0
  3 33  1  0
  4 34  1  0
  4 35  1  0
  6 36  1  0
  6 37  1  0
  7 38  1  0
  7 39  1  0
  9 40  1  0
  9 41  1  0
 10 42  1  0
 10 43  1  0
 11 44  1  0
 19 45  1  0
 19 46  1  0
 19 47  1  0
 20 48  1  0
 28 49  1  0
 28 50  1  0
M  END
>  <Binding energies>  (1) 
[-5.4]

>  <Ligand effiencies>  (1) 
[-0.17419354838709677]

>  <Interactions>  (1) 
["V-B:GLU:543:CG:9875, V-A:HIS:456:CE1:4064, V-B:GLU:543:CB:9874, V-B:TYR:539:C:9835, V-B:TYR:539:CE2:9844, V-B:TYR:539:CZ:9845, V-A:ASP:366:CG:3208, V-A:GLU:543:CD:4903, V-B:GLU:543:CD:9876, H-A:TYR:484:OH:4343, H-A:GLY:454:N:4045, V-A:GLY:454:CA:4044, V-A:ARG:545:CZ:4921, V-B:PRO:540:CB:9853, V-B:PRO:540:CA:9851, V-B:ASP:366:CB:8179, V-B:TYR:539:CE1:9843, H-B:GLU:543:OE2:9878, V-B:ASP:366:CG:8180, V-A:ARG:545:CD:4918, V-A:GLY:453:CA:4039, V-A:ARG:545:CG:4917, V-A:HIS:456:CD2:4063, V-A:GLY:453:C:4037, V-B:LEU:363:CD1:8156, V-B:PRO:540:CD:9855, V-B:PRO:540:N:9852, V-B:MET:535:CE:9803, V-B:ILE:538:CG2:9831, H-B:TYR:531:OH:9763, H-B:TYR:539:N:9838"]

$$$$
4ca_Grossjean_2025
     RDKit          3D

 52 55  0  0  0  0  0  0  0  0999 V2000
  129.8680  124.1840   71.8280 C   0  0  0  0  0  0  0  0  0  0  0  0
  130.2290  125.3720   72.7250 C   0  0  0  0  0  0  0  0  0  0  0  0
  129.1450  126.2920   72.7510 O   0  0  0  0  0  0  0  0  0  0  0  0
  129.3170  127.5890   72.3870 C   0  0  0  0  0  0  0  0  0  0  0  0
  129.4910  128.5050   73.1970 O   0  0  0  0  0  0  0  0  0  0  0  0
  129.2780  127.7970   70.9010 C   0  0  0  0  0  0  0  0  0  0  0  0
  130.3040  128.5270   70.2850 C   0  0  0  0  0  0  0  0  0  0  0  0
  130.2980  128.7330   68.9080 C   0  0  0  0  0  0  0  0  0  0  0  0
  129.2650  128.2230   68.1210 C   0  0  0  0  0  0  0  0  0  0  0  0
  129.3630  128.4830   66.7400 N   0  0  0  0  0  0  0  0  0  0  0  0
  128.3890  128.6970   65.8210 C   0  0  0  0  0  0  0  0  0  0  0  0
  127.1880  128.7450   66.0860 O   0  0  0  0  0  0  0  0  0  0  0  0
  128.8580  128.8940   64.4480 C   0  0  0  0  0  0  0  0  0  0  0  0
  128.7010  130.4700   63.6760 S   0  0  0  0  0  0  0  0  0  0  0  0
  129.4760  129.8860   62.2230 C   0  0  0  0  0  0  0  0  0  0  0  0
  129.6740  130.6810   61.1740 N   0  0  0  0  0  0  0  0  0  0  0  0
  130.2980  130.1420   60.0940 C   0  0  0  0  0  0  0  0  0  0  0  0
  130.5140  131.0670   58.9310 C   0  0  0  0  0  0  0  0  0  0  0  0
  129.5420  132.0150   58.5760 C   0  0  0  0  0  0  0  0  0  0  0  0
  129.7350  132.8710   57.4950 C   0  0  0  0  0  0  0  0  0  0  0  0
  130.9070  132.7910   56.7500 C   0  0  0  0  0  0  0  0  0  0  0  0
  131.8860  131.8590   57.0790 C   0  0  0  0  0  0  0  0  0  0  0  0
  131.6890  131.0040   58.1610 C   0  0  0  0  0  0  0  0  0  0  0  0
  130.7000  128.8020   60.0660 C   0  0  0  0  0  0  0  0  0  0  0  0
  130.4920  127.9550   61.1640 C   0  0  0  0  0  0  0  0  0  0  0  0
  130.9610  126.4980   61.0660 C   0  0  0  0  0  0  0  0  0  0  0  0
  129.9800  125.6180   61.2750 F   0  0  0  0  0  0  0  0  0  0  0  0
  131.4550  126.2640   59.8510 F   0  0  0  0  0  0  0  0  0  0  0  0
  131.9050  126.2660   61.9780 F   0  0  0  0  0  0  0  0  0  0  0  0
  129.8540  128.5140   62.3090 C   0  0  0  0  0  0  0  0  0  0  0  0
  129.4900  127.9730   63.5950 C   0  0  0  0  0  0  0  0  0  0  0  0
  129.7380  126.6710   63.9480 N   0  0  0  0  0  0  0  0  0  0  0  0
  128.2370  127.4870   68.7270 C   0  0  0  0  0  0  0  0  0  0  0  0
  128.2450  127.2800   70.1050 C   0  0  0  0  0  0  0  0  0  0  0  0
  129.6050  123.3185   72.4539 H   0  0  0  0  0  0  0  0  0  0  0  0
  129.0105  124.4513   71.1929 H   0  0  0  0  0  0  0  0  0  0  0  0
  130.7292  123.9290   71.1929 H   0  0  0  0  0  0  0  0  0  0  0  0
  130.4303  125.0134   73.7452 H   0  0  0  0  0  0  0  0  0  0  0  0
  131.1252  125.8719   72.3289 H   0  0  0  0  0  0  0  0  0  0  0  0
  131.1208  128.9406   70.8947 H   0  0  0  0  0  0  0  0  0  0  0  0
  131.1134  129.3018   68.4373 H   0  0  0  0  0  0  0  0  0  0  0  0
  130.3100  128.5260   66.3950 H   0  0  0  0  0  0  0  0  0  0  0  0
  128.6130  132.0828   59.1610 H   0  0  0  0  0  0  0  0  0  0  0  0
  128.9628  133.6085   57.2308 H   0  0  0  0  0  0  0  0  0  0  0  0
  131.0604  133.4679   55.8966 H   0  0  0  0  0  0  0  0  0  0  0  0
  132.8114  131.7975   56.4875 H   0  0  0  0  0  0  0  0  0  0  0  0
  132.4651  130.2677   58.4172 H   0  0  0  0  0  0  0  0  0  0  0  0
  131.1891  128.4050   59.1643 H   0  0  0  0  0  0  0  0  0  0  0  0
  129.1050  125.9220   63.7070 H   0  0  0  0  0  0  0  0  0  0  0  0
  130.5700  126.4150   64.4630 H   0  0  0  0  0  0  0  0  0  0  0  0
  127.4232  127.0725   68.1139 H   0  0  0  0  0  0  0  0  0  0  0  0
  127.4327  126.7051   70.5736 H   0  0  0  0  0  0  0  0  0  0  0  0
  1  2  1  0
  2  3  1  0
  3  4  1  0
  4  5  2  0
  4  6  1  0
  6  7  2  0
  7  8  1  0
  8  9  2  0
  9 10  1  0
 10 11  1  0
 11 12  2  0
 11 13  1  0
 13 14  1  0
 14 15  1  0
 15 16  2  0
 16 17  1  0
 17 18  1  0
 18 19  2  0
 19 20  1  0
 20 21  2  0
 21 22  1  0
 22 23  2  0
 17 24  2  0
 24 25  1  0
 25 26  1  0
 26 27  1  0
 26 28  1  0
 26 29  1  0
 25 30  2  0
 30 31  1  0
 31 32  1  0
  9 33  1  0
 33 34  2  0
 34  6  1  0
 31 13  2  0
 30 15  1  0
 23 18  1  0
  1 35  1  0
  1 36  1  0
  1 37  1  0
  2 38  1  0
  2 39  1  0
  7 40  1  0
  8 41  1  0
 10 42  1  0
 19 43  1  0
 20 44  1  0
 21 45  1  0
 22 46  1  0
 23 47  1  0
 24 48  1  0
 32 49  1  0
 32 50  1  0
 33 51  1  0
 34 52  1  0
M  END
>  <Binding energies>  (1) 
[-7.27]

>  <Ligand effiencies>  (1) 
[-0.19648648648648648]

>  <Interactions>  (1) 
["V-A:HIS:456:CE1:4064, H-B:LYS:547:NZ:9919, V-A:GLU:543:CB:4901, V-A:ASP:366:CG:3208, V-B:HIS:456:CE1:9037, V-A:GLU:543:CG:4902, V-A:GLU:543:CD:4903, V-B:GLU:543:CD:9876, H-A:GLU:543:OE2:4905, H-A:GLU:543:OE1:4904, V-A:GLU:543:C:4897, V-A:PRO:540:CA:4878, V-A:TYR:539:C:4862, V-A:PRO:540:N:4879, V-A:LEU:363:CD1:3184, V-A:TYR:539:CG:4867, V-A:PRO:540:CB:4880, H-A:LYS:547:NZ:4946, H-B:GLU:543:OE2:9878, V-A:TYR:539:CD1:4868, V-A:PRO:540:CD:4882"]

$$$$
4cb_Grossjean_2025
     RDKit          3D

 49 52  0  0  0  0  0  0  0  0999 V2000
  130.8270  127.1640   73.3060 C   0  0  0  0  0  0  0  0  0  0  0  0
  129.8870  128.2160   73.4740 O   0  0  0  0  0  0  0  0  0  0  0  0
  128.8800  128.4030   72.5820 C   0  0  0  0  0  0  0  0  0  0  0  0
  127.7510  128.7870   72.8990 O   0  0  0  0  0  0  0  0  0  0  0  0
  129.2780  128.0950   71.1660 C   0  0  0  0  0  0  0  0  0  0  0  0
  128.6020  127.0840   70.4700 C   0  0  0  0  0  0  0  0  0  0  0  0
  128.9410  126.7810   69.1540 C   0  0  0  0  0  0  0  0  0  0  0  0
  129.9660  127.4750   68.5100 C   0  0  0  0  0  0  0  0  0  0  0  0
  130.2150  127.0970   67.1770 N   0  0  0  0  0  0  0  0  0  0  0  0
  130.5410  125.8880   66.6590 C   0  0  0  0  0  0  0  0  0  0  0  0
  130.6300  124.8530   67.3220 O   0  0  0  0  0  0  0  0  0  0  0  0
  130.7740  125.8690   65.2130 C   0  0  0  0  0  0  0  0  0  0  0  0
  131.8190  124.6420   64.4990 S   0  0  0  0  0  0  0  0  0  0  0  0
  131.5280  125.2640   62.8910 C   0  0  0  0  0  0  0  0  0  0  0  0
  132.0870  124.7100   61.8190 N   0  0  0  0  0  0  0  0  0  0  0  0
  131.7930  125.2560   60.6110 C   0  0  0  0  0  0  0  0  0  0  0  0
  132.4350  124.6050   59.4200 C   0  0  0  0  0  0  0  0  0  0  0  0
  133.3710  123.5720   59.5850 C   0  0  0  0  0  0  0  0  0  0  0  0
  133.9730  122.9660   58.4850 C   0  0  0  0  0  0  0  0  0  0  0  0
  133.6460  123.3870   57.2000 C   0  0  0  0  0  0  0  0  0  0  0  0
  132.7240  124.4110   57.0080 C   0  0  0  0  0  0  0  0  0  0  0  0
  132.1270  125.0150   58.1110 C   0  0  0  0  0  0  0  0  0  0  0  0
  130.9560  126.3710   60.4880 C   0  0  0  0  0  0  0  0  0  0  0  0
  130.3640  126.9650   61.6130 C   0  0  0  0  0  0  0  0  0  0  0  0
  129.4550  128.1840   61.4060 C   0  0  0  0  0  0  0  0  0  0  0  0
  129.8800  129.2690   62.0570 F   0  0  0  0  0  0  0  0  0  0  0  0
  129.4020  128.4910   60.1110 F   0  0  0  0  0  0  0  0  0  0  0  0
  128.2270  127.9100   61.8450 F   0  0  0  0  0  0  0  0  0  0  0  0
  130.6520  126.3900   62.8830 C   0  0  0  0  0  0  0  0  0  0  0  0
  130.2330  126.7100   64.2260 C   0  0  0  0  0  0  0  0  0  0  0  0
  129.3810  127.7470   64.5080 N   0  0  0  0  0  0  0  0  0  0  0  0
  130.6450  128.4920   69.1980 C   0  0  0  0  0  0  0  0  0  0  0  0
  130.3040  128.7940   70.5130 C   0  0  0  0  0  0  0  0  0  0  0  0
  131.1513  126.8011   74.2925 H   0  0  0  0  0  0  0  0  0  0  0  0
  130.3590  126.3398   72.7477 H   0  0  0  0  0  0  0  0  0  0  0  0
  131.6985  127.5367   72.7477 H   0  0  0  0  0  0  0  0  0  0  0  0
  127.7962  126.5247   70.9678 H   0  0  0  0  0  0  0  0  0  0  0  0
  128.3970  125.9891   68.6183 H   0  0  0  0  0  0  0  0  0  0  0  0
  130.1260  127.8510   66.5110 H   0  0  0  0  0  0  0  0  0  0  0  0
  133.6331  123.2359   60.5990 H   0  0  0  0  0  0  0  0  0  0  0  0
  134.7043  122.1575   58.6317 H   0  0  0  0  0  0  0  0  0  0  0  0
  134.1193  122.9074   56.3305 H   0  0  0  0  0  0  0  0  0  0  0  0
  132.4682  124.7415   55.9905 H   0  0  0  0  0  0  0  0  0  0  0  0
  131.4016  125.8272   57.9557 H   0  0  0  0  0  0  0  0  0  0  0  0
  130.7585  126.7897   59.4902 H   0  0  0  0  0  0  0  0  0  0  0  0
  129.7210  128.6670   64.7500 H   0  0  0  0  0  0  0  0  0  0  0  0
  128.3780  127.6270   64.4800 H   0  0  0  0  0  0  0  0  0  0  0  0
  131.4485  129.0517   68.6969 H   0  0  0  0  0  0  0  0  0  0  0  0
  130.8450  129.5896   71.0462 H   0  0  0  0  0  0  0  0  0  0  0  0
  1  2  1  0
  2  3  1  0
  3  4  2  0
  3  5  1  0
  5  6  2  0
  6  7  1  0
  7  8  2  0
  8  9  1  0
  9 10  1  0
 10 11  2  0
 10 12  1  0
 12 13  1  0
 13 14  1  0
 14 15  2  0
 15 16  1  0
 16 17  1  0
 17 18  2  0
 18 19  1  0
 19 20  2  0
 20 21  1  0
 21 22  2  0
 16 23  2  0
 23 24  1  0
 24 25  1  0
 25 26  1  0
 25 27  1  0
 25 28  1  0
 24 29  2  0
 29 30  1  0
 30 31  1  0
  8 32  1  0
 32 33  2  0
 33  5  1  0
 30 12  2  0
 29 14  1  0
 22 17  1  0
  1 34  1  0
  1 35  1  0
  1 36  1  0
  6 37  1  0
  7 38  1  0
  9 39  1  0
 18 40  1  0
 19 41  1  0
 20 42  1  0
 21 43  1  0
 22 44  1  0
 23 45  1  0
 31 46  1  0
 31 47  1  0
 32 48  1  0
 33 49  1  0
M  END
>  <Binding energies>  (1) 
[-7.01]

>  <Ligand effiencies>  (1) 
[-0.1947222222222222]

>  <Interactions>  (1) 
["V-A:HIS:456:CE1:4064, H-B:LYS:547:NZ:9919, V-A:GLU:543:CB:4901, V-B:TYR:539:CE2:9844, V-A:ILE:369:CD1:3234, V-B:TYR:539:CZ:9845, V-A:ASP:366:CA:3205, V-A:ILE:369:CB:3231, V-A:ASP:366:CG:3208, V-A:ASP:366:CB:3207, V-A:ASP:366:C:3203, V-A:GLU:543:CD:4903, V-A:ILE:369:CG2:3232, H-A:TYR:484:OH:4343, H-A:GLU:543:OE2:4905, H-A:HIS:456:NE2:4065, H-A:GLU:543:OE1:4904, V-A:GLY:544:C:4907, V-A:GLU:543:C:4897, V-A:LYS:547:CE:4945, V-A:TYR:531:CZ:4789, H-A:LYS:547:NZ:4946, H-B:GLU:543:OE2:9878, V-A:TYR:531:CE1:4787, V-A:ILE:369:CG1:3233"]

$$$$
4cc_Grossjean_2025
     RDKit          3D

 47 50  0  0  0  0  0  0  0  0999 V2000
  129.7350  118.1290   60.4340 C   0  0  0  0  0  0  0  0  0  0  0  0
  130.1490  119.4210   60.0030 O   0  0  0  0  0  0  0  0  0  0  0  0
  129.9750  120.5010   60.8460 C   0  0  0  0  0  0  0  0  0  0  0  0
  130.6200  120.4380   62.0800 C   0  0  0  0  0  0  0  0  0  0  0  0
  130.5050  121.4800   62.9950 C   0  0  0  0  0  0  0  0  0  0  0  0
  129.7300  122.6010   62.6910 C   0  0  0  0  0  0  0  0  0  0  0  0
  129.6850  123.6100   63.6700 N   0  0  0  0  0  0  0  0  0  0  0  0
  130.7010  124.1730   64.3680 C   0  0  0  0  0  0  0  0  0  0  0  0
  131.8880  123.8890   64.2040 O   0  0  0  0  0  0  0  0  0  0  0  0
  130.3030  125.1750   65.3610 C   0  0  0  0  0  0  0  0  0  0  0  0
  130.6210  124.9040   67.0730 S   0  0  0  0  0  0  0  0  0  0  0  0
  129.9040  126.4410   67.4960 C   0  0  0  0  0  0  0  0  0  0  0  0
  129.8380  126.8520   68.7600 N   0  0  0  0  0  0  0  0  0  0  0  0
  129.2720  128.0650   68.9900 C   0  0  0  0  0  0  0  0  0  0  0  0
  129.2080  128.5010   70.4250 C   0  0  0  0  0  0  0  0  0  0  0  0
  128.0290  128.3410   71.1720 C   0  0  0  0  0  0  0  0  0  0  0  0
  127.9620  128.7450   72.5030 C   0  0  0  0  0  0  0  0  0  0  0  0
  129.0760  129.3160   73.1080 C   0  0  0  0  0  0  0  0  0  0  0  0
  130.2550  129.4890   72.3900 C   0  0  0  0  0  0  0  0  0  0  0  0
  130.3180  129.0850   71.0590 C   0  0  0  0  0  0  0  0  0  0  0  0
  128.7620  128.8510   67.9520 C   0  0  0  0  0  0  0  0  0  0  0  0
  128.8260  128.4270   66.6150 C   0  0  0  0  0  0  0  0  0  0  0  0
  128.2530  129.3410   65.5270 C   0  0  0  0  0  0  0  0  0  0  0  0
  128.0190  130.5840   65.9560 F   0  0  0  0  0  0  0  0  0  0  0  0
  129.1100  129.4260   64.5100 F   0  0  0  0  0  0  0  0  0  0  0  0
  127.0960  128.8480   65.0860 F   0  0  0  0  0  0  0  0  0  0  0  0
  129.4250  127.1600   66.3610 C   0  0  0  0  0  0  0  0  0  0  0  0
  129.6640  126.4080   65.1530 C   0  0  0  0  0  0  0  0  0  0  0  0
  129.2970  126.8650   63.9120 N   0  0  0  0  0  0  0  0  0  0  0  0
  129.0870  122.6780   61.4460 C   0  0  0  0  0  0  0  0  0  0  0  0
  129.2060  121.6330   60.5330 C   0  0  0  0  0  0  0  0  0  0  0  0
  129.7242  118.0952   61.5334 H   0  0  0  0  0  0  0  0  0  0  0  0
  128.7251  117.9208   60.0508 H   0  0  0  0  0  0  0  0  0  0  0  0
  130.4358  117.3726   60.0508 H   0  0  0  0  0  0  0  0  0  0  0  0
  131.2261  119.5556   62.3331 H   0  0  0  0  0  0  0  0  0  0  0  0
  131.0267  121.4204   63.9616 H   0  0  0  0  0  0  0  0  0  0  0  0
  128.7630  123.9780   63.8500 H   0  0  0  0  0  0  0  0  0  0  0  0
  127.1449  127.8895   70.6981 H   0  0  0  0  0  0  0  0  0  0  0  0
  127.0310  128.6128   73.0737 H   0  0  0  0  0  0  0  0  0  0  0  0
  129.0249  129.6327   74.1602 H   0  0  0  0  0  0  0  0  0  0  0  0
  131.1336  129.9430   72.8717 H   0  0  0  0  0  0  0  0  0  0  0  0
  131.2517  129.2252   70.4946 H   0  0  0  0  0  0  0  0  0  0  0  0
  128.3011  129.8216   68.1878 H   0  0  0  0  0  0  0  0  0  0  0  0
  129.6880  127.7080   63.5170 H   0  0  0  0  0  0  0  0  0  0  0  0
  128.6190  126.3710   63.3510 H   0  0  0  0  0  0  0  0  0  0  0  0
  128.4883  123.5648   61.1909 H   0  0  0  0  0  0  0  0  0  0  0  0
  128.6945  121.6950   59.5611 H   0  0  0  0  0  0  0  0  0  0  0  0
  1  2  1  0
  2  3  1  0
  3  4  2  0
  4  5  1  0
  5  6  2  0
  6  7  1  0
  7  8  1  0
  8  9  2  0
  8 10  1  0
 10 11  1  0
 11 12  1  0
 12 13  2  0
 13 14  1  0
 14 15  1  0
 15 16  2  0
 16 17  1  0
 17 18  2  0
 18 19  1  0
 19 20  2  0
 14 21  2  0
 21 22  1  0
 22 23  1  0
 23 24  1  0
 23 25  1  0
 23 26  1  0
 22 27  2  0
 27 28  1  0
 28 29  1  0
  6 30  1  0
 30 31  2  0
 31  3  1  0
 28 10  2  0
 27 12  1  0
 20 15  1  0
  1 32  1  0
  1 33  1  0
  1 34  1  0
  4 35  1  0
  5 36  1  0
  7 37  1  0
 16 38  1  0
 17 39  1  0
 18 40  1  0
 19 41  1  0
 20 42  1  0
 21 43  1  0
 29 44  1  0
 29 45  1  0
 30 46  1  0
 31 47  1  0
M  END
>  <Binding energies>  (1) 
[-7.15]

>  <Ligand effiencies>  (1) 
[-0.21029411764705883]

>  <Interactions>  (1) 
["V-B:GLU:543:CG:9875, V-A:TRP:381:CD2:3360, V-A:TRP:381:CZ3:3366, V-A:HIS:456:CE1:4064, V-A:PRO:482:CG:4322, V-A:TRP:381:CZ2:3365, V-B:ALA:541:CB:9860, V-A:TRP:381:CE3:3363, V-A:TRP:381:CH2:3367, V-B:TYR:539:C:9835, V-B:TYR:539:CD2:9842, V-A:LEU:475:CD2:4254, V-A:TRP:381:CE2:3362, V-A:GLU:543:CB:4901, V-A:PRO:482:CB:4321, V-B:HIS:456:CE1:9037, V-A:TYR:484:CZ:4342, V-A:GLU:543:CG:4902, V-A:TYR:484:CE1:4340, V-A:GLU:543:CD:4903, V-B:GLU:543:CD:9876, H-A:TYR:484:OH:4343, H-A:GLU:543:OE2:4905, H-A:HIS:456:NE2:4065, V-A:LEU:475:CD1:4253, H-A:GLU:543:OE1:4904, V-A:GLY:544:C:4907, V-A:GLU:543:C:4897, V-A:LYS:547:CE:4945, V-B:HIS:456:CD2:9035, V-B:HIS:456:CG:9033, V-B:TYR:484:CE1:9312, V-B:TYR:484:CZ:9314, H-B:GLU:543:OE2:9878, H-B:GLU:543:OE1:9877"]

$$$$
4cd_Grossjean_2025
     RDKit          3D

 43 46  0  0  0  0  0  0  0  0999 V2000
  129.2610  126.5060   63.7090 N   0  0  0  0  0  0  0  0  0  0  0  0
  129.5430  126.0090   64.9560 C   0  0  0  0  0  0  0  0  0  0  0  0
  130.0080  124.7020   65.1760 C   0  0  0  0  0  0  0  0  0  0  0  0
  130.2610  123.6450   64.1930 C   0  0  0  0  0  0  0  0  0  0  0  0
  130.9760  122.6830   64.4750 O   0  0  0  0  0  0  0  0  0  0  0  0
  129.6540  123.8110   62.9920 N   0  0  0  0  0  0  0  0  0  0  0  0
  129.7300  123.0190   61.8320 C   0  0  0  0  0  0  0  0  0  0  0  0
  129.5360  123.6880   60.6200 C   0  0  0  0  0  0  0  0  0  0  0  0
  129.6050  122.9930   59.4160 C   0  0  0  0  0  0  0  0  0  0  0  0
  129.8760  121.6280   59.4210 C   0  0  0  0  0  0  0  0  0  0  0  0
  130.0840  120.9510   60.6200 C   0  0  0  0  0  0  0  0  0  0  0  0
  130.0150  121.6430   61.8280 C   0  0  0  0  0  0  0  0  0  0  0  0
  130.2760  124.4040   66.8920 S   0  0  0  0  0  0  0  0  0  0  0  0
  129.7560  126.0210   67.3010 C   0  0  0  0  0  0  0  0  0  0  0  0
  129.7270  126.4430   68.5630 N   0  0  0  0  0  0  0  0  0  0  0  0
  129.2950  127.7120   68.7840 C   0  0  0  0  0  0  0  0  0  0  0  0
  129.2700  128.1580   70.2170 C   0  0  0  0  0  0  0  0  0  0  0  0
  130.4010  128.7460   70.8060 C   0  0  0  0  0  0  0  0  0  0  0  0
  130.3850  129.1630   72.1340 C   0  0  0  0  0  0  0  0  0  0  0  0
  129.2330  128.9980   72.8950 C   0  0  0  0  0  0  0  0  0  0  0  0
  128.0970  128.4220   72.3350 C   0  0  0  0  0  0  0  0  0  0  0  0
  128.1170  128.0090   71.0070 C   0  0  0  0  0  0  0  0  0  0  0  0
  128.9130  128.5560   67.7370 C   0  0  0  0  0  0  0  0  0  0  0  0
  128.9440  128.1220   66.4010 C   0  0  0  0  0  0  0  0  0  0  0  0
  128.5090  129.0980   65.3020 C   0  0  0  0  0  0  0  0  0  0  0  0
  129.2900  129.0510   64.2200 F   0  0  0  0  0  0  0  0  0  0  0  0
  127.2670  128.8130   64.9110 F   0  0  0  0  0  0  0  0  0  0  0  0
  128.5480  130.3470   65.7670 F   0  0  0  0  0  0  0  0  0  0  0  0
  129.3840  126.7890   66.1590 C   0  0  0  0  0  0  0  0  0  0  0  0
  129.7930  127.2630   63.3030 H   0  0  0  0  0  0  0  0  0  0  0  0
  128.5100  126.1270   63.1490 H   0  0  0  0  0  0  0  0  0  0  0  0
  129.0420  124.6100   62.9100 H   0  0  0  0  0  0  0  0  0  0  0  0
  129.3280  124.7681   60.6178 H   0  0  0  0  0  0  0  0  0  0  0  0
  129.4459  123.5207   58.4641 H   0  0  0  0  0  0  0  0  0  0  0  0
  129.9264  121.0789   58.4692 H   0  0  0  0  0  0  0  0  0  0  0  0
  130.3022  119.8729   60.6138 H   0  0  0  0  0  0  0  0  0  0  0  0
  130.1834  121.1127   62.7769 H   0  0  0  0  0  0  0  0  0  0  0  0
  131.3147  128.8793   70.2081 H   0  0  0  0  0  0  0  0  0  0  0  0
  131.2802  129.6213   72.5797 H   0  0  0  0  0  0  0  0  0  0  0  0
  129.2197  129.3246   73.9453 H   0  0  0  0  0  0  0  0  0  0  0  0
  127.1872  128.2938   72.9398 H   0  0  0  0  0  0  0  0  0  0  0  0
  127.2151  127.5581   70.5675 H   0  0  0  0  0  0  0  0  0  0  0  0
  128.5816  129.5801   67.9636 H   0  0  0  0  0  0  0  0  0  0  0  0
  1  2  1  0
  2  3  2  0
  3  4  1  0
  4  5  2  0
  4  6  1  0
  6  7  1  0
  7  8  2  0
  8  9  1  0
  9 10  2  0
 10 11  1  0
 11 12  2  0
  3 13  1  0
 13 14  1  0
 14 15  2  0
 15 16  1  0
 16 17  1  0
 17 18  2  0
 18 19  1  0
 19 20  2  0
 20 21  1  0
 21 22  2  0
 16 23  2  0
 23 24  1  0
 24 25  1  0
 25 26  1  0
 25 27  1  0
 25 28  1  0
 24 29  2  0
 29  2  1  0
 12  7  1  0
 29 14  1  0
 22 17  1  0
  1 30  1  0
  1 31  1  0
  6 32  1  0
  8 33  1  0
  9 34  1  0
 10 35  1  0
 11 36  1  0
 12 37  1  0
 18 38  1  0
 19 39  1  0
 20 40  1  0
 21 41  1  0
 22 42  1  0
 23 43  1  0
M  END
>  <Binding energies>  (1) 
[-7.13]

>  <Ligand effiencies>  (1) 
[-0.2228125]

>  <Interactions>  (1) 
["V-B:GLU:543:CG:9875, V-A:HIS:456:CE1:4064, V-B:ALA:541:CB:9860, V-B:GLU:543:CB:9874, V-B:TYR:539:C:9835, V-B:TYR:539:CD2:9842, V-A:GLU:543:CB:4901, V-B:TYR:539:CE2:9844, V-B:HIS:456:CE1:9037, V-A:TYR:484:CZ:4342, V-A:GLU:543:CG:4902, V-A:TYR:484:CE1:4340, V-A:GLU:543:CD:4903, V-B:GLU:543:CD:9876, H-A:TYR:484:OH:4343, H-A:GLU:543:OE2:4905, H-A:HIS:456:NE2:4065, H-A:GLU:543:OE1:4904, V-A:GLY:544:C:4907, V-A:GLU:543:C:4897, V-A:LYS:547:CE:4945, V-B:HIS:456:CD2:9035, V-B:TYR:484:CZ:9314, H-B:GLU:543:OE2:9878, H-B:GLU:543:OE1:9877"]

$$$$
4ce_Grossjean_2025
     RDKit          3D

 45 48  0  0  0  0  0  0  0  0999 V2000
  129.9880  119.4750   61.0110 C   0  0  0  0  0  0  0  0  0  0  0  0
  129.9020  120.9780   60.8260 C   0  0  0  0  0  0  0  0  0  0  0  0
  129.8690  121.5570   59.5540 C   0  0  0  0  0  0  0  0  0  0  0  0
  129.7820  122.9470   59.4600 C   0  0  0  0  0  0  0  0  0  0  0  0
  129.7270  123.7150   60.6240 C   0  0  0  0  0  0  0  0  0  0  0  0
  129.7700  123.0710   61.8670 C   0  0  0  0  0  0  0  0  0  0  0  0
  129.6870  123.8970   63.0020 N   0  0  0  0  0  0  0  0  0  0  0  0
  130.2660  123.7290   64.2170 C   0  0  0  0  0  0  0  0  0  0  0  0
  131.0010  122.7820   64.5010 O   0  0  0  0  0  0  0  0  0  0  0  0
  129.9660  124.7670   65.2060 C   0  0  0  0  0  0  0  0  0  0  0  0
  130.2260  124.4590   66.9210 S   0  0  0  0  0  0  0  0  0  0  0  0
  129.7090  126.0760   67.3360 C   0  0  0  0  0  0  0  0  0  0  0  0
  129.6850  126.4950   68.5990 N   0  0  0  0  0  0  0  0  0  0  0  0
  129.2830  127.7740   68.8220 C   0  0  0  0  0  0  0  0  0  0  0  0
  129.2720  128.2160   70.2550 C   0  0  0  0  0  0  0  0  0  0  0  0
  130.4220  128.7700   70.8420 C   0  0  0  0  0  0  0  0  0  0  0  0
  130.4210  129.1760   72.1740 C   0  0  0  0  0  0  0  0  0  0  0  0
  129.2680  129.0360   72.9380 C   0  0  0  0  0  0  0  0  0  0  0  0
  128.1170  128.4890   72.3810 C   0  0  0  0  0  0  0  0  0  0  0  0
  128.1220  128.0820   71.0500 C   0  0  0  0  0  0  0  0  0  0  0  0
  128.8870  128.6170   67.7780 C   0  0  0  0  0  0  0  0  0  0  0  0
  128.9030  128.1830   66.4430 C   0  0  0  0  0  0  0  0  0  0  0  0
  128.4580  129.1600   65.3490 C   0  0  0  0  0  0  0  0  0  0  0  0
  129.2300  129.1150   64.2610 F   0  0  0  0  0  0  0  0  0  0  0  0
  127.2130  128.8720   64.9670 F   0  0  0  0  0  0  0  0  0  0  0  0
  128.4970  130.4070   65.8160 F   0  0  0  0  0  0  0  0  0  0  0  0
  129.3380  126.8490   66.1960 C   0  0  0  0  0  0  0  0  0  0  0  0
  129.4940  126.0730   64.9910 C   0  0  0  0  0  0  0  0  0  0  0  0
  129.2070  126.5710   63.7460 N   0  0  0  0  0  0  0  0  0  0  0  0
  129.8510  121.7120   61.9670 N   0  0  0  0  0  0  0  0  0  0  0  0
  130.0016  119.2380   62.0851 H   0  0  0  0  0  0  0  0  0  0  0  0
  129.1157  118.9972   60.5410 H   0  0  0  0  0  0  0  0  0  0  0  0
  130.9091  119.0998   60.5410 H   0  0  0  0  0  0  0  0  0  0  0  0
  129.9106  120.9325   58.6494 H   0  0  0  0  0  0  0  0  0  0  0  0
  129.7569  123.4342   58.4741 H   0  0  0  0  0  0  0  0  0  0  0  0
  129.6509  124.8108   60.5660 H   0  0  0  0  0  0  0  0  0  0  0  0
  129.1540  124.7430   62.8700 H   0  0  0  0  0  0  0  0  0  0  0  0
  131.3361  128.8846   70.2409 H   0  0  0  0  0  0  0  0  0  0  0  0
  131.3297  129.6062   72.6203 H   0  0  0  0  0  0  0  0  0  0  0  0
  129.2660  129.3598   73.9893 H   0  0  0  0  0  0  0  0  0  0  0  0
  127.2072  128.3786   72.9893 H   0  0  0  0  0  0  0  0  0  0  0  0
  127.2102  127.6482   70.6136 H   0  0  0  0  0  0  0  0  0  0  0  0
  128.5564  129.6406   68.0079 H   0  0  0  0  0  0  0  0  0  0  0  0
  129.7240  127.3410   63.3450 H   0  0  0  0  0  0  0  0  0  0  0  0
  128.4610  126.1830   63.1840 H   0  0  0  0  0  0  0  0  0  0  0  0
  1  2  1  0
  2  3  2  0
  3  4  1  0
  4  5  2  0
  5  6  1  0
  6  7  1  0
  7  8  1  0
  8  9  2  0
  8 10  1  0
 10 11  1  0
 11 12  1  0
 12 13  2  0
 13 14  1  0
 14 15  1  0
 15 16  2  0
 16 17  1  0
 17 18  2  0
 18 19  1  0
 19 20  2  0
 14 21  2  0
 21 22  1  0
 22 23  1  0
 23 24  1  0
 23 25  1  0
 23 26  1  0
 22 27  2  0
 27 28  1  0
 28 29  1  0
  6 30  2  0
 30  2  1  0
 28 10  2  0
 27 12  1  0
 20 15  1  0
  1 31  1  0
  1 32  1  0
  1 33  1  0
  3 34  1  0
  4 35  1  0
  5 36  1  0
  7 37  1  0
 16 38  1  0
 17 39  1  0
 18 40  1  0
 19 41  1  0
 20 42  1  0
 21 43  1  0
 29 44  1  0
 29 45  1  0
M  END
>  <Binding energies>  (1) 
[-7.5]

>  <Ligand effiencies>  (1) 
[-0.22727272727272727]

>  <Interactions>  (1) 
["V-B:GLU:543:CG:9875, V-A:HIS:456:CE1:4064, V-B:ALA:541:CB:9860, V-B:GLU:543:CB:9874, V-B:TYR:539:C:9835, V-B:TYR:539:CD2:9842, V-A:LEU:475:CD2:4254, V-A:GLU:543:CB:4901, V-B:TYR:539:CE2:9844, V-B:HIS:456:CE1:9037, V-A:TYR:484:CZ:4342, V-A:GLU:543:CG:4902, V-A:TYR:484:CE1:4340, V-A:GLU:543:CD:4903, V-B:GLU:543:CD:9876, H-A:TYR:484:OH:4343, H-A:GLU:543:OE2:4905, H-A:HIS:456:NE2:4065, H-A:GLU:543:OE1:4904, V-A:GLY:544:C:4907, V-A:GLU:543:C:4897, V-A:LYS:547:CE:4945, V-B:HIS:456:CD2:9035, V-B:TYR:484:CE1:9312, V-B:TYR:484:CZ:9314, H-B:GLU:543:OE2:9878, H-B:GLU:543:OE1:9877"]

$$$$
4cf_Grossjean_2025
     RDKit          3D

 42 45  0  0  0  0  0  0  0  0999 V2000
  129.3760  126.4850   63.6390 N   0  0  0  0  0  0  0  0  0  0  0  0
  129.6220  125.9920   64.8950 C   0  0  0  0  0  0  0  0  0  0  0  0
  130.0620  124.6800   65.1330 C   0  0  0  0  0  0  0  0  0  0  0  0
  130.3040  123.6070   64.1650 C   0  0  0  0  0  0  0  0  0  0  0  0
  130.9910  122.6300   64.4690 O   0  0  0  0  0  0  0  0  0  0  0  0
  129.7160  123.7730   62.9550 N   0  0  0  0  0  0  0  0  0  0  0  0
  129.7870  122.9670   61.8030 C   0  0  0  0  0  0  0  0  0  0  0  0
  130.1520  121.6070   61.7800 C   0  0  0  0  0  0  0  0  0  0  0  0
  130.1970  120.9250   60.5620 C   0  0  0  0  0  0  0  0  0  0  0  0
  129.8760  121.6200   59.3950 C   0  0  0  0  0  0  0  0  0  0  0  0
  129.5280  122.9310   59.3890 N   0  0  0  0  0  0  0  0  0  0  0  0
  129.4910  123.5810   60.5820 C   0  0  0  0  0  0  0  0  0  0  0  0
  130.2830  124.3860   66.8570 S   0  0  0  0  0  0  0  0  0  0  0  0
  129.7780  126.0140   67.2440 C   0  0  0  0  0  0  0  0  0  0  0  0
  129.7210  126.4430   68.5040 N   0  0  0  0  0  0  0  0  0  0  0  0
  129.3000  127.7190   68.7060 C   0  0  0  0  0  0  0  0  0  0  0  0
  129.2390  128.1720   70.1360 C   0  0  0  0  0  0  0  0  0  0  0  0
  128.0660  128.0100   70.8900 C   0  0  0  0  0  0  0  0  0  0  0  0
  128.0000  128.4260   72.2170 C   0  0  0  0  0  0  0  0  0  0  0  0
  129.1130  129.0110   72.8110 C   0  0  0  0  0  0  0  0  0  0  0  0
  130.2900  129.1820   72.0890 C   0  0  0  0  0  0  0  0  0  0  0  0
  130.3500  128.7630   70.7620 C   0  0  0  0  0  0  0  0  0  0  0  0
  128.9650  128.5650   67.6450 C   0  0  0  0  0  0  0  0  0  0  0  0
  129.0260  128.1240   66.3130 C   0  0  0  0  0  0  0  0  0  0  0  0
  128.6390  129.1020   65.1980 C   0  0  0  0  0  0  0  0  0  0  0  0
  129.4400  129.0260   64.1330 F   0  0  0  0  0  0  0  0  0  0  0  0
  127.3990  128.8440   64.7830 F   0  0  0  0  0  0  0  0  0  0  0  0
  128.7000  130.3530   65.6530 F   0  0  0  0  0  0  0  0  0  0  0  0
  129.4480  126.7810   66.0890 C   0  0  0  0  0  0  0  0  0  0  0  0
  128.6270  126.1290   63.0620 H   0  0  0  0  0  0  0  0  0  0  0  0
  129.9380  127.2280   63.2460 H   0  0  0  0  0  0  0  0  0  0  0  0
  129.1340  124.5920   62.8530 H   0  0  0  0  0  0  0  0  0  0  0  0
  130.4002  121.0849   62.7159 H   0  0  0  0  0  0  0  0  0  0  0  0
  130.4795  119.8626   60.5233 H   0  0  0  0  0  0  0  0  0  0  0  0
  129.9066  121.0803   58.4370 H   0  0  0  0  0  0  0  0  0  0  0  0
  129.2138  124.6455   60.5874 H   0  0  0  0  0  0  0  0  0  0  0  0
  127.1838  127.5464   70.4244 H   0  0  0  0  0  0  0  0  0  0  0  0
  127.0722  128.2926   72.7927 H   0  0  0  0  0  0  0  0  0  0  0  0
  129.0625  129.3409   73.8591 H   0  0  0  0  0  0  0  0  0  0  0  0
  131.1678  129.6453   72.5633 H   0  0  0  0  0  0  0  0  0  0  0  0
  131.2827  128.8969   70.1944 H   0  0  0  0  0  0  0  0  0  0  0  0
  128.6473  129.5965   67.8575 H   0  0  0  0  0  0  0  0  0  0  0  0
  1  2  1  0
  2  3  2  0
  3  4  1  0
  4  5  2  0
  4  6  1  0
  6  7  1  0
  7  8  2  0
  8  9  1  0
  9 10  2  0
 10 11  1  0
 11 12  2  0
  3 13  1  0
 13 14  1  0
 14 15  2  0
 15 16  1  0
 16 17  1  0
 17 18  2  0
 18 19  1  0
 19 20  2  0
 20 21  1  0
 21 22  2  0
 16 23  2  0
 23 24  1  0
 24 25  1  0
 25 26  1  0
 25 27  1  0
 25 28  1  0
 24 29  2  0
 29  2  1  0
 12  7  1  0
 29 14  1  0
 22 17  1  0
  1 30  1  0
  1 31  1  0
  6 32  1  0
  8 33  1  0
  9 34  1  0
 10 35  1  0
 12 36  1  0
 18 37  1  0
 19 38  1  0
 20 39  1  0
 21 40  1  0
 22 41  1  0
 23 42  1  0
M  END
>  <Binding energies>  (1) 
[-6.88]

>  <Ligand effiencies>  (1) 
[-0.215]

>  <Interactions>  (1) 
["V-B:GLU:543:CG:9875, V-A:HIS:456:CE1:4064, V-B:ALA:541:CB:9860, V-B:GLU:543:CB:9874, V-B:TYR:539:C:9835, V-B:TYR:539:CD2:9842, V-A:GLU:543:CB:4901, V-B:TYR:539:CE2:9844, V-B:HIS:456:CE1:9037, V-A:TYR:484:CZ:4342, V-A:GLU:543:CG:4902, V-A:TYR:484:CE1:4340, V-A:GLU:543:CD:4903, V-B:GLU:543:CD:9876, H-A:TYR:484:OH:4343, H-A:GLU:543:OE2:4905, H-A:HIS:456:NE2:4065, H-A:GLU:543:OE1:4904, V-A:GLY:544:C:4907, V-A:GLU:543:C:4897, V-A:LYS:547:CE:4945, V-B:HIS:456:CD2:9035, H-B:GLU:543:OE2:9878"]

$$$$
4cg_Grossjean_2025
     RDKit          3D

 46 49  0  0  0  0  0  0  0  0999 V2000
  129.3050  126.5080   63.6180 N   0  0  0  0  0  0  0  0  0  0  0  0
  129.5540  126.0050   64.8700 C   0  0  0  0  0  0  0  0  0  0  0  0
  129.9360  124.6760   65.1010 C   0  0  0  0  0  0  0  0  0  0  0  0
  130.1870  123.6160   64.1250 C   0  0  0  0  0  0  0  0  0  0  0  0
  130.9990  122.7160   64.3480 O   0  0  0  0  0  0  0  0  0  0  0  0
  129.5090  123.7100   62.9620 N   0  0  0  0  0  0  0  0  0  0  0  0
  129.5850  122.7560   61.8570 C   0  0  0  0  0  0  0  0  0  0  0  0
  128.5540  123.0110   60.7630 C   0  0  0  0  0  0  0  0  0  0  0  0
  128.8720  122.7310   59.4310 C   0  0  0  0  0  0  0  0  0  0  0  0
  127.9220  122.9330   58.4320 C   0  0  0  0  0  0  0  0  0  0  0  0
  126.6560  123.4040   58.7710 C   0  0  0  0  0  0  0  0  0  0  0  0
  126.3280  123.6690   60.0990 C   0  0  0  0  0  0  0  0  0  0  0  0
  127.2760  123.4660   61.0970 C   0  0  0  0  0  0  0  0  0  0  0  0
  130.1940  124.3710   66.8160 S   0  0  0  0  0  0  0  0  0  0  0  0
  129.7660  126.0180   67.2150 C   0  0  0  0  0  0  0  0  0  0  0  0
  129.7670  126.4500   68.4730 N   0  0  0  0  0  0  0  0  0  0  0  0
  129.4250  127.7480   68.6870 C   0  0  0  0  0  0  0  0  0  0  0  0
  129.4340  128.2040   70.1180 C   0  0  0  0  0  0  0  0  0  0  0  0
  130.5940  128.7450   70.6960 C   0  0  0  0  0  0  0  0  0  0  0  0
  130.6070  129.1680   72.0210 C   0  0  0  0  0  0  0  0  0  0  0  0
  129.4560  129.0540   72.7940 C   0  0  0  0  0  0  0  0  0  0  0  0
  128.2940  128.5190   72.2490 C   0  0  0  0  0  0  0  0  0  0  0  0
  128.2850  128.0980   70.9230 C   0  0  0  0  0  0  0  0  0  0  0  0
  129.0670  128.5990   67.6350 C   0  0  0  0  0  0  0  0  0  0  0  0
  129.0620  128.1540   66.3040 C   0  0  0  0  0  0  0  0  0  0  0  0
  128.6580  129.1390   65.2010 C   0  0  0  0  0  0  0  0  0  0  0  0
  129.4320  129.0570   64.1170 F   0  0  0  0  0  0  0  0  0  0  0  0
  127.4050  128.8960   64.8170 F   0  0  0  0  0  0  0  0  0  0  0  0
  128.7440  130.3870   65.6580 F   0  0  0  0  0  0  0  0  0  0  0  0
  129.4340  126.7980   66.0690 C   0  0  0  0  0  0  0  0  0  0  0  0
  129.8760  127.2350   63.2110 H   0  0  0  0  0  0  0  0  0  0  0  0
  128.5430  126.1590   63.0540 H   0  0  0  0  0  0  0  0  0  0  0  0
  128.8070  124.4310   62.8780 H   0  0  0  0  0  0  0  0  0  0  0  0
  130.5887  122.8184   61.4112 H   0  0  0  0  0  0  0  0  0  0  0  0
  129.3756  121.7598   62.2739 H   0  0  0  0  0  0  0  0  0  0  0  0
  129.8714  122.3515   59.1717 H   0  0  0  0  0  0  0  0  0  0  0  0
  128.1705  122.7217   57.3815 H   0  0  0  0  0  0  0  0  0  0  0  0
  125.9072  123.5685   57.9822 H   0  0  0  0  0  0  0  0  0  0  0  0
  125.3241  124.0370   60.3573 H   0  0  0  0  0  0  0  0  0  0  0  0
  127.0194  123.6636   62.1482 H   0  0  0  0  0  0  0  0  0  0  0  0
  131.5079  128.8358   70.0905 H   0  0  0  0  0  0  0  0  0  0  0  0
  131.5243  129.5912   72.4562 H   0  0  0  0  0  0  0  0  0  0  0  0
  129.4652  129.3888   73.8418 H   0  0  0  0  0  0  0  0  0  0  0  0
  127.3861  128.4290   72.8634 H   0  0  0  0  0  0  0  0  0  0  0  0
  127.3635  127.6749   70.4966 H   0  0  0  0  0  0  0  0  0  0  0  0
  128.7836  129.6386   67.8561 H   0  0  0  0  0  0  0  0  0  0  0  0
  1  2  1  0
  2  3  2  0
  3  4  1  0
  4  5  2  0
  4  6  1  0
  6  7  1  0
  7  8  1  0
  8  9  2  0
  9 10  1  0
 10 11  2  0
 11 12  1  0
 12 13  2  0
  3 14  1  0
 14 15  1  0
 15 16  2  0
 16 17  1  0
 17 18  1  0
 18 19  2  0
 19 20  1  0
 20 21  2  0
 21 22  1  0
 22 23  2  0
 17 24  2  0
 24 25  1  0
 25 26  1  0
 26 27  1  0
 26 28  1  0
 26 29  1  0
 25 30  2  0
 30  2  1  0
 13  8  1  0
 30 15  1  0
 23 18  1  0
  1 31  1  0
  1 32  1  0
  6 33  1  0
  7 34  1  0
  7 35  1  0
  9 36  1  0
 10 37  1  0
 11 38  1  0
 12 39  1  0
 13 40  1  0
 19 41  1  0
 20 42  1  0
 21 43  1  0
 22 44  1  0
 23 45  1  0
 24 46  1  0
M  END
>  <Binding energies>  (1) 
[-7.36]

>  <Ligand effiencies>  (1) 
[-0.22303030303030305]

>  <Interactions>  (1) 
["V-B:GLU:543:CG:9875, V-A:HIS:456:CE1:4064, V-B:ALA:541:CB:9860, V-B:GLU:543:CB:9874, V-B:TYR:539:C:9835, V-A:GLU:543:CB:4901, V-B:HIS:456:CE1:9037, V-A:TYR:484:CZ:4342, V-A:GLU:543:CG:4902, V-A:TYR:484:CE1:4340, V-A:GLU:543:CD:4903, V-B:GLU:543:CD:9876, H-A:TYR:484:OH:4343, V-B:PRO:540:CB:9853, V-B:PRO:540:CA:9851, H-A:GLU:543:OE2:4905, H-A:HIS:456:NE2:4065, H-A:GLU:543:OE1:4904, V-A:GLY:544:C:4907, V-A:GLU:543:C:4897, V-A:LYS:547:CE:4945, V-B:HIS:456:CD2:9035, V-A:GLY:544:CA:4909, H-B:GLU:543:OE2:9878, V-B:PRO:540:N:9852"]

$$$$
4ch_Grossjean_2025
     RDKit          3D

 58 61  0  0  0  0  0  0  0  0999 V2000
  124.4090  123.4930   61.7670 C   0  0  0  0  0  0  0  0  0  0  0  0
  124.9460  123.8580   60.5000 O   0  0  0  0  0  0  0  0  0  0  0  0
  126.2310  123.4680   60.1700 C   0  0  0  0  0  0  0  0  0  0  0  0
  127.2670  123.3100   61.1050 C   0  0  0  0  0  0  0  0  0  0  0  0
  128.5420  122.9110   60.7010 C   0  0  0  0  0  0  0  0  0  0  0  0
  129.6610  122.7720   61.7260 C   0  0  0  0  0  0  0  0  0  0  0  0
  129.5670  123.7070   62.8480 N   0  0  0  0  0  0  0  0  0  0  0  0
  130.2770  123.6320   63.9930 C   0  0  0  0  0  0  0  0  0  0  0  0
  131.1190  122.7540   64.1950 O   0  0  0  0  0  0  0  0  0  0  0  0
  130.0180  124.6830   64.9780 C   0  0  0  0  0  0  0  0  0  0  0  0
  130.3000  124.3770   66.6890 S   0  0  0  0  0  0  0  0  0  0  0  0
  129.8140  126.0030   67.1040 C   0  0  0  0  0  0  0  0  0  0  0  0
  129.8040  126.4240   68.3660 N   0  0  0  0  0  0  0  0  0  0  0  0
  129.4170  127.7070   68.5920 C   0  0  0  0  0  0  0  0  0  0  0  0
  129.4100  128.1480   70.0270 C   0  0  0  0  0  0  0  0  0  0  0  0
  128.2590  128.0020   70.8190 C   0  0  0  0  0  0  0  0  0  0  0  0
  128.2450  128.4100   72.1500 C   0  0  0  0  0  0  0  0  0  0  0  0
  129.3860  128.9730   72.7110 C   0  0  0  0  0  0  0  0  0  0  0  0
  130.5390  129.1340   71.9480 C   0  0  0  0  0  0  0  0  0  0  0  0
  130.5470  128.7260   70.6170 C   0  0  0  0  0  0  0  0  0  0  0  0
  129.0260  128.5540   67.5500 C   0  0  0  0  0  0  0  0  0  0  0  0
  129.0320  128.1200   66.2140 C   0  0  0  0  0  0  0  0  0  0  0  0
  128.5920  129.1000   65.1220 C   0  0  0  0  0  0  0  0  0  0  0  0
  129.3700  129.0610   64.0370 F   0  0  0  0  0  0  0  0  0  0  0  0
  127.3500  128.8150   64.7330 F   0  0  0  0  0  0  0  0  0  0  0  0
  128.6290  130.3470   65.5920 F   0  0  0  0  0  0  0  0  0  0  0  0
  129.4490  126.7810   65.9660 C   0  0  0  0  0  0  0  0  0  0  0  0
  129.5860  126.0010   64.7600 C   0  0  0  0  0  0  0  0  0  0  0  0
  129.3100  126.5030   63.5140 N   0  0  0  0  0  0  0  0  0  0  0  0
  128.7940  122.6820   59.3470 C   0  0  0  0  0  0  0  0  0  0  0  0
  127.7780  122.8330   58.3900 C   0  0  0  0  0  0  0  0  0  0  0  0
  127.9560  122.6220   57.0350 O   0  0  0  0  0  0  0  0  0  0  0  0
  128.8140  123.4880   56.3000 C   0  0  0  0  0  0  0  0  0  0  0  0
  126.4990  123.2200   58.8160 C   0  0  0  0  0  0  0  0  0  0  0  0
  125.4990  123.3870   57.8880 O   0  0  0  0  0  0  0  0  0  0  0  0
  125.0510  124.7290   57.7550 C   0  0  0  0  0  0  0  0  0  0  0  0
  125.0340  123.9178   62.5663 H   0  0  0  0  0  0  0  0  0  0  0  0
  123.3842  123.8824   61.8568 H   0  0  0  0  0  0  0  0  0  0  0  0
  124.3939  122.3968   61.8568 H   0  0  0  0  0  0  0  0  0  0  0  0
  127.0709  123.5033   62.1700 H   0  0  0  0  0  0  0  0  0  0  0  0
  129.6359  121.7481   62.1273 H   0  0  0  0  0  0  0  0  0  0  0  0
  130.6002  123.0015   61.2014 H   0  0  0  0  0  0  0  0  0  0  0  0
  128.8560  124.4200   62.7730 H   0  0  0  0  0  0  0  0  0  0  0  0
  127.3534  127.5578   70.3801 H   0  0  0  0  0  0  0  0  0  0  0  0
  127.3349  128.2875   72.7555 H   0  0  0  0  0  0  0  0  0  0  0  0
  129.3774  129.2929   73.7634 H   0  0  0  0  0  0  0  0  0  0  0  0
  131.4393  129.5814   72.3945 H   0  0  0  0  0  0  0  0  0  0  0  0
  131.4592  128.8583   70.0167 H   0  0  0  0  0  0  0  0  0  0  0  0
  128.7072  129.5811   67.7814 H   0  0  0  0  0  0  0  0  0  0  0  0
  129.8630  127.2400   63.1000 H   0  0  0  0  0  0  0  0  0  0  0  0
  128.5420  126.1460   62.9630 H   0  0  0  0  0  0  0  0  0  0  0  0
  129.8016  122.3794   59.0259 H   0  0  0  0  0  0  0  0  0  0  0  0
  129.4119  124.0915   56.9988 H   0  0  0  0  0  0  0  0  0  0  0  0
  129.4846  122.8887   55.6666 H   0  0  0  0  0  0  0  0  0  0  0  0
  128.2085  124.1530   55.6666 H   0  0  0  0  0  0  0  0  0  0  0  0
  124.9047  125.1673   58.7532 H   0  0  0  0  0  0  0  0  0  0  0  0
  125.8027  125.3136   57.2044 H   0  0  0  0  0  0  0  0  0  0  0  0
  124.0988  124.7448   57.2044 H   0  0  0  0  0  0  0  0  0  0  0  0
  1  2  1  0
  2  3  1  0
  3  4  2  0
  4  5  1  0
  5  6  1  0
  6  7  1  0
  7  8  1  0
  8  9  2  0
  8 10  1  0
 10 11  1  0
 11 12  1  0
 12 13  2  0
 13 14  1  0
 14 15  1  0
 15 16  2  0
 16 17  1  0
 17 18  2  0
 18 19  1  0
 19 20  2  0
 14 21  2  0
 21 22  1  0
 22 23  1  0
 23 24  1  0
 23 25  1  0
 23 26  1  0
 22 27  2  0
 27 28  1  0
 28 29  1  0
  5 30  2  0
 30 31  1  0
 31 32  1  0
 32 33  1  0
 31 34  2  0
 34 35  1  0
 35 36  1  0
 34  3  1  0
 28 10  2  0
 27 12  1  0
 20 15  1  0
  1 37  1  0
  1 38  1  0
  1 39  1  0
  4 40  1  0
  6 41  1  0
  6 42  1  0
  7 43  1  0
 16 44  1  0
 17 45  1  0
 18 46  1  0
 19 47  1  0
 20 48  1  0
 21 49  1  0
 29 50  1  0
 29 51  1  0
 30 52  1  0
 33 53  1  0
 33 54  1  0
 33 55  1  0
 36 56  1  0
 36 57  1  0
 36 58  1  0
M  END
>  <Binding energies>  (1) 
[-7.55]

>  <Ligand effiencies>  (1) 
[-0.1935897435897436]

>  <Interactions>  (1) 
["V-B:GLU:543:CG:9875, V-A:HIS:456:CE1:4064, V-B:ALA:541:CB:9860, V-B:GLU:543:CB:9874, V-B:TYR:539:C:9835, V-A:GLU:543:CB:4901, V-B:TYR:539:CZ:9845, V-B:HIS:456:CE1:9037, V-A:TYR:484:CZ:4342, V-A:GLU:543:CG:4902, V-A:TYR:484:CE1:4340, V-A:GLU:543:CD:4903, V-B:GLU:543:CD:9876, H-A:TYR:484:OH:4343, V-B:ASN:362:CB:8143, V-B:PRO:540:CB:9853, V-B:PRO:540:CA:9851, H-A:GLU:543:OE2:4905, H-A:HIS:456:NE2:4065, H-A:GLU:543:OE1:4904, V-A:GLY:544:C:4907, V-A:GLU:543:C:4897, V-A:LYS:547:CE:4945, V-B:HIS:456:CD2:9035, V-A:GLY:544:CA:4909, V-B:TYR:539:CE1:9843, H-B:GLU:543:OE2:9878, V-B:PRO:540:N:9852, V-B:MET:535:CE:9803"]

$$$$
4ci_Grossjean_2025
     RDKit          3D

 39 42  0  0  0  0  0  0  0  0999 V2000
  129.2440  126.5070   63.7560 N   0  0  0  0  0  0  0  0  0  0  0  0
  129.5310  126.0140   65.0030 C   0  0  0  0  0  0  0  0  0  0  0  0
  129.9620  124.6970   65.2290 C   0  0  0  0  0  0  0  0  0  0  0  0
  130.1960  123.6320   64.2500 C   0  0  0  0  0  0  0  0  0  0  0  0
  130.9950  122.7230   64.4880 O   0  0  0  0  0  0  0  0  0  0  0  0
  129.4930  123.7360   63.0940 N   0  0  0  0  0  0  0  0  0  0  0  0
  129.5250  122.8750   62.0050 C   0  0  0  0  0  0  0  0  0  0  0  0
  130.7070  122.4690   61.3880 C   0  0  0  0  0  0  0  0  0  0  0  0
  130.3120  121.6360   60.3680 C   0  0  0  0  0  0  0  0  0  0  0  0
  128.9600  121.5440   60.3700 O   0  0  0  0  0  0  0  0  0  0  0  0
  128.4730  122.3350   61.4120 N   0  0  0  0  0  0  0  0  0  0  0  0
  130.2490  124.4060   66.9430 S   0  0  0  0  0  0  0  0  0  0  0  0
  129.7830  126.0420   67.3450 C   0  0  0  0  0  0  0  0  0  0  0  0
  129.7900  126.4790   68.6020 N   0  0  0  0  0  0  0  0  0  0  0  0
  129.4160  127.7670   68.8160 C   0  0  0  0  0  0  0  0  0  0  0  0
  129.4290  128.2280   70.2460 C   0  0  0  0  0  0  0  0  0  0  0  0
  130.5940  128.7660   70.8180 C   0  0  0  0  0  0  0  0  0  0  0  0
  130.6120  129.1960   72.1420 C   0  0  0  0  0  0  0  0  0  0  0  0
  129.4610  129.0930   72.9170 C   0  0  0  0  0  0  0  0  0  0  0  0
  128.2960  128.5610   72.3780 C   0  0  0  0  0  0  0  0  0  0  0  0
  128.2820  128.1300   71.0530 C   0  0  0  0  0  0  0  0  0  0  0  0
  129.0190  128.6030   67.7680 C   0  0  0  0  0  0  0  0  0  0  0  0
  129.0080  128.1540   66.4380 C   0  0  0  0  0  0  0  0  0  0  0  0
  128.5630  129.1250   65.3390 C   0  0  0  0  0  0  0  0  0  0  0  0
  129.2770  129.0110   64.2170 F   0  0  0  0  0  0  0  0  0  0  0  0
  127.2880  128.8940   65.0250 F   0  0  0  0  0  0  0  0  0  0  0  0
  128.6900  130.3810   65.7670 F   0  0  0  0  0  0  0  0  0  0  0  0
  129.4120  126.8090   66.2010 C   0  0  0  0  0  0  0  0  0  0  0  0
  128.4740  126.1530   63.2050 H   0  0  0  0  0  0  0  0  0  0  0  0
  129.7920  127.2500   63.3460 H   0  0  0  0  0  0  0  0  0  0  0  0
  128.8740  124.5270   63.0030 H   0  0  0  0  0  0  0  0  0  0  0  0
  131.7344  122.7537   61.6588 H   0  0  0  0  0  0  0  0  0  0  0  0
  130.9854  121.1260   59.6634 H   0  0  0  0  0  0  0  0  0  0  0  0
  131.5068  128.8488   70.2098 H   0  0  0  0  0  0  0  0  0  0  0  0
  131.5326  129.6156   72.5738 H   0  0  0  0  0  0  0  0  0  0  0  0
  129.4734  129.4347   73.9625 H   0  0  0  0  0  0  0  0  0  0  0  0
  127.3887  128.4804   72.9947 H   0  0  0  0  0  0  0  0  0  0  0  0
  127.3585  127.7062   70.6316 H   0  0  0  0  0  0  0  0  0  0  0  0
  128.7086  129.6346   67.9904 H   0  0  0  0  0  0  0  0  0  0  0  0
  1  2  1  0
  2  3  2  0
  3  4  1  0
  4  5  2  0
  4  6  1  0
  6  7  1  0
  7  8  1  0
  8  9  2  0
  9 10  1  0
 10 11  1  0
  3 12  1  0
 12 13  1  0
 13 14  2  0
 14 15  1  0
 15 16  1  0
 16 17  2  0
 17 18  1  0
 18 19  2  0
 19 20  1  0
 20 21  2  0
 15 22  2  0
 22 23  1  0
 23 24  1  0
 24 25  1  0
 24 26  1  0
 24 27  1  0
 23 28  2  0
 28  2  1  0
 11  7  2  0
 28 13  1  0
 21 16  1  0
  1 29  1  0
  1 30  1  0
  6 31  1  0
  8 32  1  0
  9 33  1  0
 17 34  1  0
 18 35  1  0
 19 36  1  0
 20 37  1  0
 21 38  1  0
 22 39  1  0
M  END
>  <Binding energies>  (1) 
[-6.82]

>  <Ligand effiencies>  (1) 
[-0.22]

>  <Interactions>  (1) 
["V-B:GLU:543:CG:9875, V-A:HIS:456:CE1:4064, V-B:ALA:541:CB:9860, V-B:GLU:543:CB:9874, V-A:GLU:543:CB:4901, V-B:HIS:456:CE1:9037, V-A:TYR:484:CZ:4342, V-A:GLU:543:CG:4902, V-A:TYR:484:CE1:4340, V-A:GLU:543:CD:4903, V-B:GLU:543:CD:9876, H-A:TYR:484:OH:4343, H-B:ALA:541:N:9859, H-A:GLU:543:OE2:4905, H-A:HIS:456:NE2:4065, H-A:GLU:543:OE1:4904, V-A:GLY:544:C:4907, V-A:GLU:543:C:4897, V-A:LYS:547:CE:4945, V-B:HIS:456:CD2:9035, V-A:GLY:544:CA:4909, H-B:GLU:543:OE2:9878, H-B:GLU:543:OE1:9877"]

$$$$
4cj_Grossjean_2025
     RDKit          3D

 39 42  0  0  0  0  0  0  0  0999 V2000
  129.2380  126.5880   63.7770 N   0  0  0  0  0  0  0  0  0  0  0  0
  129.5200  126.0820   65.0210 C   0  0  0  0  0  0  0  0  0  0  0  0
  129.9600  124.7660   65.2340 C   0  0  0  0  0  0  0  0  0  0  0  0
  130.2080  123.7140   64.2450 C   0  0  0  0  0  0  0  0  0  0  0  0
  131.0050  122.8020   64.4800 O   0  0  0  0  0  0  0  0  0  0  0  0
  129.5170  123.8320   63.0840 N   0  0  0  0  0  0  0  0  0  0  0  0
  129.5700  122.9750   61.9930 C   0  0  0  0  0  0  0  0  0  0  0  0
  128.5640  122.3900   61.3770 N   0  0  0  0  0  0  0  0  0  0  0  0
  128.9800  121.6430   60.3730 C   0  0  0  0  0  0  0  0  0  0  0  0
  130.3540  121.6120   60.1560 C   0  0  0  0  0  0  0  0  0  0  0  0
  131.1360  122.6210   61.3370 S   0  0  0  0  0  0  0  0  0  0  0  0
  130.2390  124.4570   66.9470 S   0  0  0  0  0  0  0  0  0  0  0  0
  129.7620  126.0870   67.3630 C   0  0  0  0  0  0  0  0  0  0  0  0
  129.7650  126.5100   68.6240 N   0  0  0  0  0  0  0  0  0  0  0  0
  129.3870  127.7940   68.8510 C   0  0  0  0  0  0  0  0  0  0  0  0
  129.4140  128.2430   70.2840 C   0  0  0  0  0  0  0  0  0  0  0  0
  130.5920  128.7520   70.8550 C   0  0  0  0  0  0  0  0  0  0  0  0
  130.6250  129.1650   72.1850 C   0  0  0  0  0  0  0  0  0  0  0  0
  129.4770  129.0720   72.9650 C   0  0  0  0  0  0  0  0  0  0  0  0
  128.2990  128.5690   72.4250 C   0  0  0  0  0  0  0  0  0  0  0  0
  128.2700  128.1590   71.0950 C   0  0  0  0  0  0  0  0  0  0  0  0
  128.9840  128.6390   67.8120 C   0  0  0  0  0  0  0  0  0  0  0  0
  128.9750  128.2030   66.4770 C   0  0  0  0  0  0  0  0  0  0  0  0
  128.5250  129.1830   65.3870 C   0  0  0  0  0  0  0  0  0  0  0  0
  129.2760  129.1220   64.2860 F   0  0  0  0  0  0  0  0  0  0  0  0
  127.2700  128.9130   65.0310 F   0  0  0  0  0  0  0  0  0  0  0  0
  128.5920  130.4320   65.8480 F   0  0  0  0  0  0  0  0  0  0  0  0
  129.3890  126.8630   66.2270 C   0  0  0  0  0  0  0  0  0  0  0  0
  129.7680  127.3500   63.3760 H   0  0  0  0  0  0  0  0  0  0  0  0
  128.4880  126.2100   63.2140 H   0  0  0  0  0  0  0  0  0  0  0  0
  128.9040  124.6280   62.9880 H   0  0  0  0  0  0  0  0  0  0  0  0
  128.2797  121.0759   59.7422 H   0  0  0  0  0  0  0  0  0  0  0  0
  130.8633  121.0415   59.3653 H   0  0  0  0  0  0  0  0  0  0  0  0
  131.5027  128.8257   70.2424 H   0  0  0  0  0  0  0  0  0  0  0  0
  131.5552  129.5631   72.6167 H   0  0  0  0  0  0  0  0  0  0  0  0
  129.5015  129.3984   74.0152 H   0  0  0  0  0  0  0  0  0  0  0  0
  127.3939  128.4953   73.0458 H   0  0  0  0  0  0  0  0  0  0  0  0
  127.3353  127.7625   70.6718 H   0  0  0  0  0  0  0  0  0  0  0  0
  128.6675  129.6663   68.0452 H   0  0  0  0  0  0  0  0  0  0  0  0
  1  2  1  0
  2  3  2  0
  3  4  1  0
  4  5  2  0
  4  6  1  0
  6  7  1  0
  7  8  2  0
  8  9  1  0
  9 10  2  0
 10 11  1  0
  3 12  1  0
 12 13  1  0
 13 14  2  0
 14 15  1  0
 15 16  1  0
 16 17  2  0
 17 18  1  0
 18 19  2  0
 19 20  1  0
 20 21  2  0
 15 22  2  0
 22 23  1  0
 23 24  1  0
 24 25  1  0
 24 26  1  0
 24 27  1  0
 23 28  2  0
 28  2  1  0
 11  7  1  0
 28 13  1  0
 21 16  1  0
  1 29  1  0
  1 30  1  0
  6 31  1  0
  9 32  1  0
 10 33  1  0
 17 34  1  0
 18 35  1  0
 19 36  1  0
 20 37  1  0
 21 38  1  0
 22 39  1  0
M  END
>  <Binding energies>  (1) 
[-6.82]

>  <Ligand effiencies>  (1) 
[-0.22]

>  <Interactions>  (1) 
["V-B:PRO:540:C:9849, V-B:GLU:543:CG:9875, V-A:HIS:456:CE1:4064, V-B:ALA:541:CB:9860, V-B:GLU:543:CB:9874, V-B:TYR:539:C:9835, V-B:TYR:539:CD2:9842, V-A:GLU:543:CB:4901, V-B:TYR:539:CE2:9844, V-B:HIS:456:CE1:9037, V-A:TYR:484:CZ:4342, V-A:GLU:543:CG:4902, V-A:TYR:484:CE1:4340, V-A:GLU:543:CD:4903, V-B:GLU:543:CD:9876, H-A:TYR:484:OH:4343, H-B:ALA:541:N:9859, V-B:PRO:540:CA:9851, H-A:GLU:543:OE2:4905, H-A:HIS:456:NE2:4065, H-A:GLU:543:OE1:4904, V-A:GLY:544:C:4907, V-A:GLU:543:C:4897, V-A:LYS:547:CE:4945, V-B:HIS:456:CD2:9035, V-B:TYR:484:CE1:9312, V-B:TYR:484:CZ:9314, V-A:GLY:544:CA:4909, H-B:GLU:543:OE2:9878, H-B:GLU:543:OE1:9877"]

$$$$
4ck_Grossjean_2025
     RDKit          3D

 57 59  0  0  0  0  0  0  0  0999 V2000
  133.6600  125.4850   65.9820 C   0  0  0  0  0  0  0  0  0  0  0  0
  134.2770  124.9150   64.8390 O   0  0  0  0  0  0  0  0  0  0  0  0
  133.6110  125.2260   63.6230 C   0  0  0  0  0  0  0  0  0  0  0  0
  134.1070  124.2790   62.5230 C   0  0  0  0  0  0  0  0  0  0  0  0
  134.0060  122.9390   62.9850 O   0  0  0  0  0  0  0  0  0  0  0  0
  133.4050  122.0580   62.0460 C   0  0  0  0  0  0  0  0  0  0  0  0
  132.9140  122.8690   60.8400 C   0  0  0  0  0  0  0  0  0  0  0  0
  131.7540  123.5970   61.2200 O   0  0  0  0  0  0  0  0  0  0  0  0
  130.5480  123.0910   60.6600 C   0  0  0  0  0  0  0  0  0  0  0  0
  129.6190  122.6120   61.7860 C   0  0  0  0  0  0  0  0  0  0  0  0
  129.5450  123.5740   62.8850 N   0  0  0  0  0  0  0  0  0  0  0  0
  130.3500  123.6010   63.9680 C   0  0  0  0  0  0  0  0  0  0  0  0
  131.2770  122.8050   64.1270 O   0  0  0  0  0  0  0  0  0  0  0  0
  130.0670  124.6480   64.9500 C   0  0  0  0  0  0  0  0  0  0  0  0
  130.3240  124.3420   66.6660 S   0  0  0  0  0  0  0  0  0  0  0  0
  129.8470  125.9740   67.0720 C   0  0  0  0  0  0  0  0  0  0  0  0
  129.8320  126.4010   68.3320 N   0  0  0  0  0  0  0  0  0  0  0  0
  129.4450  127.6850   68.5500 C   0  0  0  0  0  0  0  0  0  0  0  0
  129.4560  128.1410   69.9810 C   0  0  0  0  0  0  0  0  0  0  0  0
  130.6040  128.7230   70.5410 C   0  0  0  0  0  0  0  0  0  0  0  0
  130.6220  129.1460   71.8680 C   0  0  0  0  0  0  0  0  0  0  0  0
  129.4870  128.9920   72.6560 C   0  0  0  0  0  0  0  0  0  0  0  0
  128.3350  128.4220   72.1250 C   0  0  0  0  0  0  0  0  0  0  0  0
  128.3210  128.0020   70.7980 C   0  0  0  0  0  0  0  0  0  0  0  0
  129.0850  128.5360   67.5010 C   0  0  0  0  0  0  0  0  0  0  0  0
  129.0970  128.0960   66.1670 C   0  0  0  0  0  0  0  0  0  0  0  0
  128.6860  129.0820   65.0660 C   0  0  0  0  0  0  0  0  0  0  0  0
  129.4760  129.0270   63.9930 F   0  0  0  0  0  0  0  0  0  0  0  0
  127.4450  128.8130   64.6620 F   0  0  0  0  0  0  0  0  0  0  0  0
  128.7360  130.3280   65.5360 F   0  0  0  0  0  0  0  0  0  0  0  0
  129.4980  126.7510   65.9280 C   0  0  0  0  0  0  0  0  0  0  0  0
  129.6410  125.9660   64.7250 C   0  0  0  0  0  0  0  0  0  0  0  0
  129.3790  126.4660   63.4760 N   0  0  0  0  0  0  0  0  0  0  0  0
  134.1143  125.0653   66.8916 H   0  0  0  0  0  0  0  0  0  0  0  0
  133.8030  126.5756   65.9704 H   0  0  0  0  0  0  0  0  0  0  0  0
  132.5841  125.2562   65.9704 H   0  0  0  0  0  0  0  0  0  0  0  0
  132.5261  125.1013   63.7549 H   0  0  0  0  0  0  0  0  0  0  0  0
  133.8240  126.2673   63.3395 H   0  0  0  0  0  0  0  0  0  0  0  0
  133.4896  124.4057   61.6215 H   0  0  0  0  0  0  0  0  0  0  0  0
  135.1545  124.5097   62.2789 H   0  0  0  0  0  0  0  0  0  0  0  0
  134.1440  121.3141   61.7135 H   0  0  0  0  0  0  0  0  0  0  0  0
  132.5555  121.5399   62.5149 H   0  0  0  0  0  0  0  0  0  0  0  0
  133.7006  123.5678   60.5193 H   0  0  0  0  0  0  0  0  0  0  0  0
  132.6745  122.1922   60.0066 H   0  0  0  0  0  0  0  0  0  0  0  0
  130.0487  123.8859   60.0866 H   0  0  0  0  0  0  0  0  0  0  0  0
  130.7802  122.2471   59.9937 H   0  0  0  0  0  0  0  0  0  0  0  0
  128.6095  122.4652   61.3746 H   0  0  0  0  0  0  0  0  0  0  0  0
  130.0278  121.6722   62.1855 H   0  0  0  0  0  0  0  0  0  0  0  0
  128.8650  124.3140   62.7820 H   0  0  0  0  0  0  0  0  0  0  0  0
  131.5045  128.8471   69.9216 H   0  0  0  0  0  0  0  0  0  0  0  0
  131.5304  129.6000   72.2907 H   0  0  0  0  0  0  0  0  0  0  0  0
  129.5003  129.3228   73.7050 H   0  0  0  0  0  0  0  0  0  0  0  0
  127.4384  128.3035   72.7512 H   0  0  0  0  0  0  0  0  0  0  0  0
  127.4066  127.5540   70.3820 H   0  0  0  0  0  0  0  0  0  0  0  0
  128.7864  129.5708   67.7246 H   0  0  0  0  0  0  0  0  0  0  0  0
  129.9500  127.1850   63.0550 H   0  0  0  0  0  0  0  0  0  0  0  0
  128.6010  126.1250   62.9260 H   0  0  0  0  0  0  0  0  0  0  0  0
  1  2  1  0
  2  3  1  0
  3  4  1  0
  4  5  1  0
  5  6  1  0
  6  7  1  0
  7  8  1  0
  8  9  1  0
  9 10  1  0
 10 11  1  0
 11 12  1  0
 12 13  2  0
 12 14  1  0
 14 15  1  0
 15 16  1  0
 16 17  2  0
 17 18  1  0
 18 19  1  0
 19 20  2  0
 20 21  1  0
 21 22  2  0
 22 23  1  0
 23 24  2  0
 18 25  2  0
 25 26  1  0
 26 27  1  0
 27 28  1  0
 27 29  1  0
 27 30  1  0
 26 31  2  0
 31 32  1  0
 32 33  1  0
 32 14  2  0
 31 16  1  0
 24 19  1  0
  1 34  1  0
  1 35  1  0
  1 36  1  0
  3 37  1  0
  3 38  1  0
  4 39  1  0
  4 40  1  0
  6 41  1  0
  6 42  1  0
  7 43  1  0
  7 44  1  0
  9 45  1  0
  9 46  1  0
 10 47  1  0
 10 48  1  0
 11 49  1  0
 20 50  1  0
 21 51  1  0
 22 52  1  0
 23 53  1  0
 24 54  1  0
 25 55  1  0
 33 56  1  0
 33 57  1  0
M  END
>  <Binding energies>  (1) 
[-6.23]

>  <Ligand effiencies>  (1) 
[-0.17305555555555557]

>  <Interactions>  (1) 
["V-B:GLU:543:CG:9875, V-A:HIS:456:CE1:4064, V-B:ALA:541:CB:9860, V-B:GLU:543:CB:9874, V-A:LEU:475:CD2:4254, V-A:GLU:543:CB:4901, V-A:ILE:369:CD1:3234, V-A:ASP:366:CG:3208, V-B:HIS:456:CE1:9037, V-A:TYR:484:CZ:4342, V-A:GLU:543:CG:4902, V-A:TYR:484:CE1:4340, V-A:GLU:543:CD:4903, V-B:GLU:543:CD:9876, H-A:ARG:545:NH1:4922, H-A:TYR:484:OH:4343, H-A:ARG:545:NE:4919, H-A:GLY:454:N:4045, V-A:GLY:454:CA:4044, V-A:ARG:545:CZ:4921, H-A:GLU:543:OE2:4905, H-A:HIS:456:NE2:4065, H-A:GLU:543:OE1:4904, V-A:GLY:544:C:4907, V-A:GLU:543:C:4897, V-A:LYS:547:CE:4945, V-B:HIS:456:CD2:9035, V-A:GLY:544:CA:4909, H-B:GLU:543:OE2:9878, V-A:ARG:545:CD:4918, V-A:ARG:545:CG:4917, V-A:HIS:456:CD2:4063"]

$$$$
4dd_Grossjean_2025
     RDKit          3D

 43 46  0  0  0  0  0  0  0  0999 V2000
  128.7500  129.0860   65.2960 C   0  0  0  0  0  0  0  0  0  0  0  0
  129.0960  128.1000   66.4020 C   0  0  0  0  0  0  0  0  0  0  0  0
  129.0250  128.5430   67.7280 C   0  0  0  0  0  0  0  0  0  0  0  0
  129.3300  127.6840   68.7910 C   0  0  0  0  0  0  0  0  0  0  0  0
  129.2680  128.1340   70.2210 C   0  0  0  0  0  0  0  0  0  0  0  0
  130.3800  128.7310   70.8370 C   0  0  0  0  0  0  0  0  0  0  0  0
  130.3280  129.1530   72.1630 C   0  0  0  0  0  0  0  0  0  0  0  0
  129.1590  128.9810   72.8960 C   0  0  0  0  0  0  0  0  0  0  0  0
  128.0420  128.3940   72.3110 C   0  0  0  0  0  0  0  0  0  0  0  0
  128.0980  127.9760   70.9840 C   0  0  0  0  0  0  0  0  0  0  0  0
  129.7180  126.3960   68.5860 N   0  0  0  0  0  0  0  0  0  0  0  0
  129.7800  125.9710   67.3250 C   0  0  0  0  0  0  0  0  0  0  0  0
  130.2460  124.3340   66.9180 S   0  0  0  0  0  0  0  0  0  0  0  0
  130.0550  124.6580   65.1940 C   0  0  0  0  0  0  0  0  0  0  0  0
  130.2990  123.6010   64.2100 C   0  0  0  0  0  0  0  0  0  0  0  0
  130.9970  122.6270   64.4950 O   0  0  0  0  0  0  0  0  0  0  0  0
  129.7030  123.7810   63.0060 N   0  0  0  0  0  0  0  0  0  0  0  0
  129.7780  122.9930   61.8430 C   0  0  0  0  0  0  0  0  0  0  0  0
  129.5000  123.6500   60.6410 C   0  0  0  0  0  0  0  0  0  0  0  0
  129.5620  122.9600   59.4330 C   0  0  0  0  0  0  0  0  0  0  0  0
  129.9080  121.6120   59.4260 C   0  0  0  0  0  0  0  0  0  0  0  0
  130.1990  120.9480   60.6140 C   0  0  0  0  0  0  0  0  0  0  0  0
  130.1390  121.6350   61.8240 C   0  0  0  0  0  0  0  0  0  0  0  0
  129.6530  125.9840   64.9700 C   0  0  0  0  0  0  0  0  0  0  0  0
  129.4330  126.5150   63.7240 N   0  0  0  0  0  0  0  0  0  0  0  0
  129.4860  126.7550   66.1740 C   0  0  0  0  0  0  0  0  0  0  0  0
  128.4170  130.0349   65.7417 H   0  0  0  0  0  0  0  0  0  0  0  0
  129.6389  129.2653   64.6734 H   0  0  0  0  0  0  0  0  0  0  0  0
  127.9439  128.6706   64.6734 H   0  0  0  0  0  0  0  0  0  0  0  0
  128.7254  129.5804   67.9379 H   0  0  0  0  0  0  0  0  0  0  0  0
  131.3079  128.8676   70.2622 H   0  0  0  0  0  0  0  0  0  0  0  0
  131.2081  129.6205   72.6287 H   0  0  0  0  0  0  0  0  0  0  0  0
  129.1174  129.3111   73.9445 H   0  0  0  0  0  0  0  0  0  0  0  0
  127.1187  128.2606   72.8939 H   0  0  0  0  0  0  0  0  0  0  0  0
  127.2115  127.5142   70.5248 H   0  0  0  0  0  0  0  0  0  0  0  0
  129.1050  124.5890   62.9230 H   0  0  0  0  0  0  0  0  0  0  0  0
  129.2311  124.7166   60.6493 H   0  0  0  0  0  0  0  0  0  0  0  0
  129.3385  123.4780   58.4887 H   0  0  0  0  0  0  0  0  0  0  0  0
  129.9519  121.0660   58.4721 H   0  0  0  0  0  0  0  0  0  0  0  0
  130.4756  119.8835   60.5973 H   0  0  0  0  0  0  0  0  0  0  0  0
  130.3741  121.1149   62.7643 H   0  0  0  0  0  0  0  0  0  0  0  0
  129.9670  127.3000   63.3760 H   0  0  0  0  0  0  0  0  0  0  0  0
  128.7290  126.1340   63.1080 H   0  0  0  0  0  0  0  0  0  0  0  0
  1  2  1  0
  2  3  2  0
  3  4  1  0
  4  5  1  0
  5  6  2  0
  6  7  1  0
  7  8  2  0
  8  9  1  0
  9 10  2  0
  4 11  2  0
 11 12  1  0
 12 13  1  0
 13 14  1  0
 14 15  1  0
 15 16  2  0
 15 17  1  0
 17 18  1  0
 18 19  2  0
 19 20  1  0
 20 21  2  0
 21 22  1  0
 22 23  2  0
 14 24  2  0
 24 25  1  0
 24 26  1  0
 26  2  1  0
 10  5  1  0
 26 12  2  0
 23 18  1  0
  1 27  1  0
  1 28  1  0
  1 29  1  0
  3 30  1  0
  6 31  1  0
  7 32  1  0
  8 33  1  0
  9 34  1  0
 10 35  1  0
 17 36  1  0
 19 37  1  0
 20 38  1  0
 21 39  1  0
 22 40  1  0
 23 41  1  0
 25 42  1  0
 25 43  1  0
M  END
>  <Binding energies>  (1) 
[-7.56]

>  <Ligand effiencies>  (1) 
[-0.26068965517241377]

>  <Interactions>  (1) 
["V-B:GLU:543:CG:9875, V-A:HIS:456:CE1:4064, V-B:ALA:541:CB:9860, V-B:GLU:543:CB:9874, V-B:TYR:539:C:9835, V-B:TYR:539:CD2:9842, V-A:GLU:543:CB:4901, V-B:TYR:539:CE2:9844, V-B:HIS:456:CE1:9037, V-A:TYR:484:CZ:4342, V-A:GLU:543:CG:4902, V-A:TYR:484:CE1:4340, V-A:GLU:543:CD:4903, V-B:GLU:543:CD:9876, H-A:TYR:484:OH:4343, H-A:GLU:543:OE2:4905, H-A:HIS:456:NE2:4065, H-A:GLU:543:OE1:4904, V-A:GLY:544:C:4907, V-A:GLU:543:C:4897, V-A:LYS:547:CE:4945, V-B:HIS:456:CD2:9035, H-B:GLU:543:OE2:9878"]

$$$$
4dg_Grossjean_2025
     RDKit          3D

 46 49  0  0  0  0  0  0  0  0999 V2000
  128.7690  129.0960   65.2340 C   0  0  0  0  0  0  0  0  0  0  0  0
  129.1330  128.1140   66.3380 C   0  0  0  0  0  0  0  0  0  0  0  0
  129.1210  128.5730   67.6600 C   0  0  0  0  0  0  0  0  0  0  0  0
  129.4460  127.7200   68.7210 C   0  0  0  0  0  0  0  0  0  0  0  0
  129.4400  128.1830   70.1510 C   0  0  0  0  0  0  0  0  0  0  0  0
  130.5850  128.7570   70.7270 C   0  0  0  0  0  0  0  0  0  0  0  0
  130.5860  129.1850   72.0530 C   0  0  0  0  0  0  0  0  0  0  0  0
  129.4380  129.0440   72.8240 C   0  0  0  0  0  0  0  0  0  0  0  0
  128.2900  128.4750   72.2800 C   0  0  0  0  0  0  0  0  0  0  0  0
  128.2940  128.0480   70.9550 C   0  0  0  0  0  0  0  0  0  0  0  0
  129.7680  126.4130   68.5190 N   0  0  0  0  0  0  0  0  0  0  0  0
  129.7810  125.9750   67.2600 C   0  0  0  0  0  0  0  0  0  0  0  0
  130.1830  124.3210   66.8600 S   0  0  0  0  0  0  0  0  0  0  0  0
  129.9550  124.6370   65.1400 C   0  0  0  0  0  0  0  0  0  0  0  0
  130.1970  123.5790   64.1610 C   0  0  0  0  0  0  0  0  0  0  0  0
  131.0010  122.6700   64.3820 O   0  0  0  0  0  0  0  0  0  0  0  0
  129.5190  123.6850   62.9990 N   0  0  0  0  0  0  0  0  0  0  0  0
  129.5870  122.7340   61.8890 C   0  0  0  0  0  0  0  0  0  0  0  0
  128.5810  123.0240   60.7810 C   0  0  0  0  0  0  0  0  0  0  0  0
  128.9180  122.7590   59.4500 C   0  0  0  0  0  0  0  0  0  0  0  0
  127.9910  122.9930   58.4390 C   0  0  0  0  0  0  0  0  0  0  0  0
  126.7260  123.4800   58.7620 C   0  0  0  0  0  0  0  0  0  0  0  0
  126.3770  123.7300   60.0870 C   0  0  0  0  0  0  0  0  0  0  0  0
  127.3040  123.4950   61.0990 C   0  0  0  0  0  0  0  0  0  0  0  0
  129.5990  125.9740   64.9100 C   0  0  0  0  0  0  0  0  0  0  0  0
  129.3730  126.5000   63.6630 N   0  0  0  0  0  0  0  0  0  0  0  0
  129.4810  126.7580   66.1100 C   0  0  0  0  0  0  0  0  0  0  0  0
  128.4198  130.0381   65.6817 H   0  0  0  0  0  0  0  0  0  0  0  0
  129.6542  129.2920   64.6111 H   0  0  0  0  0  0  0  0  0  0  0  0
  127.9699  128.6677   64.6111 H   0  0  0  0  0  0  0  0  0  0  0  0
  128.8523  129.6192   67.8682 H   0  0  0  0  0  0  0  0  0  0  0  0
  131.4962  128.8706   70.1213 H   0  0  0  0  0  0  0  0  0  0  0  0
  131.4917  129.6327   72.4880 H   0  0  0  0  0  0  0  0  0  0  0  0
  129.4367  129.3841   73.8701 H   0  0  0  0  0  0  0  0  0  0  0  0
  127.3842  128.3633   72.8940 H   0  0  0  0  0  0  0  0  0  0  0  0
  127.3852  127.5973   70.5296 H   0  0  0  0  0  0  0  0  0  0  0  0
  128.8210  124.4090   62.9190 H   0  0  0  0  0  0  0  0  0  0  0  0
  130.5990  122.7711   61.4596 H   0  0  0  0  0  0  0  0  0  0  0  0
  129.3443  121.7414   62.2964 H   0  0  0  0  0  0  0  0  0  0  0  0
  129.9151  122.3659   59.2024 H   0  0  0  0  0  0  0  0  0  0  0  0
  128.2555  122.7945   57.3899 H   0  0  0  0  0  0  0  0  0  0  0  0
  125.9952  123.6690   57.9619 H   0  0  0  0  0  0  0  0  0  0  0  0
  125.3747  124.1109   60.3326 H   0  0  0  0  0  0  0  0  0  0  0  0
  127.0314  123.6800   62.1485 H   0  0  0  0  0  0  0  0  0  0  0  0
  129.8600  127.3190   63.3320 H   0  0  0  0  0  0  0  0  0  0  0  0
  128.7100  126.0750   63.0280 H   0  0  0  0  0  0  0  0  0  0  0  0
  1  2  1  0
  2  3  2  0
  3  4  1  0
  4  5  1  0
  5  6  2  0
  6  7  1  0
  7  8  2  0
  8  9  1  0
  9 10  2  0
  4 11  2  0
 11 12  1  0
 12 13  1  0
 13 14  1  0
 14 15  1  0
 15 16  2  0
 15 17  1  0
 17 18  1  0
 18 19  1  0
 19 20  2  0
 20 21  1  0
 21 22  2  0
 22 23  1  0
 23 24  2  0
 14 25  2  0
 25 26  1  0
 25 27  1  0
 27  2  1  0
 10  5  1  0
 27 12  2  0
 24 19  1  0
  1 28  1  0
  1 29  1  0
  1 30  1  0
  3 31  1  0
  6 32  1  0
  7 33  1  0
  8 34  1  0
  9 35  1  0
 10 36  1  0
 17 37  1  0
 18 38  1  0
 18 39  1  0
 20 40  1  0
 21 41  1  0
 22 42  1  0
 23 43  1  0
 24 44  1  0
 26 45  1  0
 26 46  1  0
M  END
>  <Binding energies>  (1) 
[-7.76]

>  <Ligand effiencies>  (1) 
[-0.25866666666666666]

>  <Interactions>  (1) 
["V-B:GLU:543:CG:9875, V-A:HIS:456:CE1:4064, V-B:ALA:541:CB:9860, V-B:GLU:543:CB:9874, V-B:TYR:539:C:9835, V-A:GLU:543:CB:4901, V-B:HIS:456:CE1:9037, V-A:TYR:484:CZ:4342, V-A:GLU:543:CG:4902, V-A:TYR:484:CE1:4340, V-A:GLU:543:CD:4903, V-B:GLU:543:CD:9876, H-A:TYR:484:OH:4343, V-B:PRO:540:CB:9853, V-B:PRO:540:CA:9851, H-A:GLU:543:OE2:4905, H-A:HIS:456:NE2:4065, H-A:GLU:543:OE1:4904, V-A:GLY:544:C:4907, V-A:GLU:543:C:4897, V-A:LYS:547:CE:4945, V-B:HIS:456:CD2:9035, V-A:GLY:544:CA:4909, H-B:GLU:543:OE2:9878, V-B:PRO:540:N:9852"]

$$$$
4dj_Grossjean_2025
     RDKit          3D

 39 42  0  0  0  0  0  0  0  0999 V2000
  128.7480  129.1630   65.3880 C   0  0  0  0  0  0  0  0  0  0  0  0
  129.1330  128.1800   66.4820 C   0  0  0  0  0  0  0  0  0  0  0  0
  129.1260  128.6310   67.8070 C   0  0  0  0  0  0  0  0  0  0  0  0
  129.4720  127.7760   68.8600 C   0  0  0  0  0  0  0  0  0  0  0  0
  129.4690  128.2300   70.2920 C   0  0  0  0  0  0  0  0  0  0  0  0
  128.3050  128.1410   71.0730 C   0  0  0  0  0  0  0  0  0  0  0  0
  128.2940  128.5600   72.4010 C   0  0  0  0  0  0  0  0  0  0  0  0
  129.4520  129.0820   72.9680 C   0  0  0  0  0  0  0  0  0  0  0  0
  130.6180  129.1870   72.2170 C   0  0  0  0  0  0  0  0  0  0  0  0
  130.6240  128.7650   70.8910 C   0  0  0  0  0  0  0  0  0  0  0  0
  129.8110  126.4750   68.6480 N   0  0  0  0  0  0  0  0  0  0  0  0
  129.8190  126.0440   67.3870 C   0  0  0  0  0  0  0  0  0  0  0  0
  130.2430  124.3990   66.9710 S   0  0  0  0  0  0  0  0  0  0  0  0
  129.9960  124.7200   65.2530 C   0  0  0  0  0  0  0  0  0  0  0  0
  130.2130  123.6630   64.2640 C   0  0  0  0  0  0  0  0  0  0  0  0
  130.9930  122.7350   64.4940 O   0  0  0  0  0  0  0  0  0  0  0  0
  129.5130  123.7910   63.1100 N   0  0  0  0  0  0  0  0  0  0  0  0
  129.5390  122.9350   62.0180 C   0  0  0  0  0  0  0  0  0  0  0  0
  128.5160  122.4130   61.3760 N   0  0  0  0  0  0  0  0  0  0  0  0
  128.9100  121.6400   60.3830 C   0  0  0  0  0  0  0  0  0  0  0  0
  130.2840  121.5240   60.2010 C   0  0  0  0  0  0  0  0  0  0  0  0
  131.0960  122.4820   61.4030 S   0  0  0  0  0  0  0  0  0  0  0  0
  129.6060  126.0510   65.0390 C   0  0  0  0  0  0  0  0  0  0  0  0
  129.3490  126.5800   63.7990 N   0  0  0  0  0  0  0  0  0  0  0  0
  129.4960  126.8280   66.2430 C   0  0  0  0  0  0  0  0  0  0  0  0
  128.3830  130.0950   65.8443 H   0  0  0  0  0  0  0  0  0  0  0  0
  129.6275  129.3802   64.7641 H   0  0  0  0  0  0  0  0  0  0  0  0
  127.9549  128.7251   64.7641 H   0  0  0  0  0  0  0  0  0  0  0  0
  128.8446  129.6720   68.0239 H   0  0  0  0  0  0  0  0  0  0  0  0
  127.3856  127.7330   70.6277 H   0  0  0  0  0  0  0  0  0  0  0  0
  127.3741  128.4786   72.9987 H   0  0  0  0  0  0  0  0  0  0  0  0
  129.4455  129.4138   74.0167 H   0  0  0  0  0  0  0  0  0  0  0  0
  131.5311  129.6017   72.6691 H   0  0  0  0  0  0  0  0  0  0  0  0
  131.5482  128.8513   70.3007 H   0  0  0  0  0  0  0  0  0  0  0  0
  128.9090  124.5950   63.0210 H   0  0  0  0  0  0  0  0  0  0  0  0
  128.1921  121.1162   59.7348 H   0  0  0  0  0  0  0  0  0  0  0  0
  130.7770  120.9233   59.4225 H   0  0  0  0  0  0  0  0  0  0  0  0
  128.6670  126.1750   63.1760 H   0  0  0  0  0  0  0  0  0  0  0  0
  129.8390  127.4000   63.4670 H   0  0  0  0  0  0  0  0  0  0  0  0
  1  2  1  0
  2  3  2  0
  3  4  1  0
  4  5  1  0
  5  6  2  0
  6  7  1  0
  7  8  2  0
  8  9  1  0
  9 10  2  0
  4 11  2  0
 11 12  1  0
 12 13  1  0
 13 14  1  0
 14 15  1  0
 15 16  2  0
 15 17  1  0
 17 18  1  0
 18 19  2  0
 19 20  1  0
 20 21  2  0
 21 22  1  0
 14 23  2  0
 23 24  1  0
 23 25  1  0
 25  2  1  0
 10  5  1  0
 25 12  2  0
 22 18  1  0
  1 26  1  0
  1 27  1  0
  1 28  1  0
  3 29  1  0
  6 30  1  0
  7 31  1  0
  8 32  1  0
  9 33  1  0
 10 34  1  0
 17 35  1  0
 20 36  1  0
 21 37  1  0
 24 38  1  0
 24 39  1  0
M  END
>  <Binding energies>  (1) 
[-7.24]

>  <Ligand effiencies>  (1) 
[-0.25857142857142856]

>  <Interactions>  (1) 
["V-B:PRO:540:C:9849, V-B:GLU:543:CG:9875, V-A:HIS:456:CE1:4064, V-B:ALA:541:CB:9860, V-B:GLU:543:CB:9874, V-B:TYR:539:C:9835, V-B:TYR:539:CD2:9842, V-A:GLU:543:CB:4901, V-B:TYR:539:CE2:9844, V-B:HIS:456:CE1:9037, V-A:TYR:484:CZ:4342, V-A:GLU:543:CG:4902, V-A:TYR:484:CE1:4340, V-A:GLU:543:CD:4903, V-B:GLU:543:CD:9876, H-A:TYR:484:OH:4343, H-B:ALA:541:N:9859, V-B:PRO:540:CA:9851, H-A:GLU:543:OE2:4905, H-A:HIS:456:NE2:4065, H-A:GLU:543:OE1:4904, V-A:GLY:544:C:4907, V-A:GLU:543:C:4897, V-A:LYS:547:CE:4945, V-B:HIS:456:CD2:9035, V-A:GLY:544:CA:4909, H-B:GLU:543:OE2:9878"]

$$$$
4ea_Grossjean_2025
     RDKit          3D

 52 55  0  0  0  0  0  0  0  0999 V2000
  130.2320  129.2990   72.2830 C   0  0  0  0  0  0  0  0  0  0  0  0
  130.4220  128.7440   70.8690 C   0  0  0  0  0  0  0  0  0  0  0  0
  129.2190  128.9080   70.1300 O   0  0  0  0  0  0  0  0  0  0  0  0
  129.2330  129.4010   68.8650 C   0  0  0  0  0  0  0  0  0  0  0  0
  129.1340  130.6040   68.6030 O   0  0  0  0  0  0  0  0  0  0  0  0
  129.3820  128.3370   67.8160 C   0  0  0  0  0  0  0  0  0  0  0  0
  130.4680  127.4560   67.8860 C   0  0  0  0  0  0  0  0  0  0  0  0
  130.6340  126.4580   66.9290 C   0  0  0  0  0  0  0  0  0  0  0  0
  129.7200  126.3210   65.8840 C   0  0  0  0  0  0  0  0  0  0  0  0
  129.9880  125.2780   64.9760 N   0  0  0  0  0  0  0  0  0  0  0  0
  131.1520  124.9000   64.3920 C   0  0  0  0  0  0  0  0  0  0  0  0
  132.2350  125.4540   64.5820 O   0  0  0  0  0  0  0  0  0  0  0  0
  131.0520  123.7520   63.4870 C   0  0  0  0  0  0  0  0  0  0  0  0
  130.3560  122.2300   64.0490 S   0  0  0  0  0  0  0  0  0  0  0  0
  130.6030  121.4850   62.4860 C   0  0  0  0  0  0  0  0  0  0  0  0
  130.2510  120.2200   62.2450 N   0  0  0  0  0  0  0  0  0  0  0  0
  130.4960  119.7630   60.9930 C   0  0  0  0  0  0  0  0  0  0  0  0
  130.0880  118.3230   60.7400 C   0  0  0  0  0  0  0  0  0  0  0  0
  131.0780  120.5310   59.9870 C   0  0  0  0  0  0  0  0  0  0  0  0
  131.4450  121.8560   60.2440 C   0  0  0  0  0  0  0  0  0  0  0  0
  132.0620  122.6600   59.1650 C   0  0  0  0  0  0  0  0  0  0  0  0
  133.4390  122.5860   58.9340 C   0  0  0  0  0  0  0  0  0  0  0  0
  134.0200  123.3400   57.9170 C   0  0  0  0  0  0  0  0  0  0  0  0
  133.2230  124.1710   57.1340 C   0  0  0  0  0  0  0  0  0  0  0  0
  131.8510  124.2550   57.3580 C   0  0  0  0  0  0  0  0  0  0  0  0
  131.2720  123.5010   58.3750 C   0  0  0  0  0  0  0  0  0  0  0  0
  131.2050  122.3750   61.5470 C   0  0  0  0  0  0  0  0  0  0  0  0
  131.4500  123.6620   62.1440 C   0  0  0  0  0  0  0  0  0  0  0  0
  132.0230  124.6940   61.4470 N   0  0  0  0  0  0  0  0  0  0  0  0
  128.6280  127.2000   65.8060 C   0  0  0  0  0  0  0  0  0  0  0  0
  128.4640  128.1960   66.7640 C   0  0  0  0  0  0  0  0  0  0  0  0
  130.4968  128.5256   73.0191 H   0  0  0  0  0  0  0  0  0  0  0  0
  130.8811  130.1760   72.4230 H   0  0  0  0  0  0  0  0  0  0  0  0
  129.1816  129.5942   72.4230 H   0  0  0  0  0  0  0  0  0  0  0  0
  131.2369  129.2874   70.3683 H   0  0  0  0  0  0  0  0  0  0  0  0
  130.6747  127.6749   70.9256 H   0  0  0  0  0  0  0  0  0  0  0  0
  131.1967  127.5530   68.7043 H   0  0  0  0  0  0  0  0  0  0  0  0
  131.4919  125.7729   66.9976 H   0  0  0  0  0  0  0  0  0  0  0  0
  129.1770  124.7330   64.7280 H   0  0  0  0  0  0  0  0  0  0  0  0
  129.9423  117.8088   61.7015 H   0  0  0  0  0  0  0  0  0  0  0  0
  129.1489  118.3031   60.1676 H   0  0  0  0  0  0  0  0  0  0  0  0
  130.8771  117.8135   60.1676 H   0  0  0  0  0  0  0  0  0  0  0  0
  131.2488  120.0958   58.9913 H   0  0  0  0  0  0  0  0  0  0  0  0
  134.0652  121.9306   59.5571 H   0  0  0  0  0  0  0  0  0  0  0  0
  135.1029  123.2793   57.7334 H   0  0  0  0  0  0  0  0  0  0  0  0
  133.6814  124.7668   56.3309 H   0  0  0  0  0  0  0  0  0  0  0  0
  131.2282  124.9135   56.7347 H   0  0  0  0  0  0  0  0  0  0  0  0
  130.1893  123.5670   58.5578 H   0  0  0  0  0  0  0  0  0  0  0  0
  131.9910  124.7390   60.4370 H   0  0  0  0  0  0  0  0  0  0  0  0
  132.5000  125.4490   61.9210 H   0  0  0  0  0  0  0  0  0  0  0  0
  127.9010  127.1013   64.9864 H   0  0  0  0  0  0  0  0  0  0  0  0
  127.6054  128.8802   66.6959 H   0  0  0  0  0  0  0  0  0  0  0  0
  1  2  1  0
  2  3  1  0
  3  4  1  0
  4  5  2  0
  4  6  1  0
  6  7  2  0
  7  8  1  0
  8  9  2  0
  9 10  1  0
 10 11  1  0
 11 12  2  0
 11 13  1  0
 13 14  1  0
 14 15  1  0
 15 16  2  0
 16 17  1  0
 17 18  1  0
 17 19  2  0
 19 20  1  0
 20 21  1  0
 21 22  2  0
 22 23  1  0
 23 24  2  0
 24 25  1  0
 25 26  2  0
 20 27  2  0
 27 28  1  0
 28 29  1  0
  9 30  1  0
 30 31  2  0
 31  6  1  0
 28 13  2  0
 27 15  1  0
 26 21  1  0
  1 32  1  0
  1 33  1  0
  1 34  1  0
  2 35  1  0
  2 36  1  0
  7 37  1  0
  8 38  1  0
 10 39  1  0
 18 40  1  0
 18 41  1  0
 18 42  1  0
 19 43  1  0
 22 44  1  0
 23 45  1  0
 24 46  1  0
 25 47  1  0
 26 48  1  0
 29 49  1  0
 29 50  1  0
 30 51  1  0
 31 52  1  0
M  END
>  <Binding energies>  (1) 
[-7.9]

>  <Ligand effiencies>  (1) 
[-0.2323529411764706]

>  <Interactions>  (1) 
["V-B:GLU:543:CG:9875, V-A:TRP:381:CZ3:3366, V-A:HIS:456:CE1:4064, V-A:PRO:482:CG:4322, V-A:TRP:381:CZ2:3365, V-B:ALA:541:CB:9860, V-A:TRP:381:CH2:3367, V-B:TYR:539:CD2:9842, V-A:LEU:475:CD2:4254, V-A:TRP:381:CE2:3362, V-A:GLU:543:CB:4901, V-A:PRO:482:CB:4321, V-B:TYR:539:CE2:9844, V-A:ILE:369:CD1:3234, V-B:TYR:539:CZ:9845, V-A:ASP:366:CA:3205, V-A:ILE:369:CB:3231, V-A:ASP:366:CG:3208, V-B:HIS:456:CE1:9037, V-A:ASP:366:CB:3207, V-A:ASP:366:C:3203, V-A:TYR:484:CZ:4342, V-A:TYR:484:CE1:4340, V-B:GLU:543:CD:9876, H-A:ASP:366:OD2:3210, V-A:ILE:369:CG2:3232, H-A:TYR:484:OH:4343, H-A:ASP:366:OD1:3209, V-A:GLY:544:C:4907, V-A:GLU:543:C:4897, V-A:LYS:547:CE:4945, V-A:TYR:531:CZ:4789, H-B:GLU:543:OE2:9878, V-A:TYR:531:CE1:4787"]

$$$$
4eb_Grossjean_2025
     RDKit          3D

 49 52  0  0  0  0  0  0  0  0999 V2000
  130.4200  128.7790   70.7940 C   0  0  0  0  0  0  0  0  0  0  0  0
  129.2110  128.9040   70.0610 O   0  0  0  0  0  0  0  0  0  0  0  0
  129.2100  129.3880   68.7910 C   0  0  0  0  0  0  0  0  0  0  0  0
  129.0910  130.5860   68.5210 O   0  0  0  0  0  0  0  0  0  0  0  0
  129.3680  128.3180   67.7490 C   0  0  0  0  0  0  0  0  0  0  0  0
  130.3880  127.3680   67.8930 C   0  0  0  0  0  0  0  0  0  0  0  0
  130.5610  126.3650   66.9450 C   0  0  0  0  0  0  0  0  0  0  0  0
  129.7200  126.2890   65.8330 C   0  0  0  0  0  0  0  0  0  0  0  0
  129.9880  125.2330   64.9400 N   0  0  0  0  0  0  0  0  0  0  0  0
  131.1680  124.7590   64.4710 C   0  0  0  0  0  0  0  0  0  0  0  0
  132.2700  125.2140   64.7770 O   0  0  0  0  0  0  0  0  0  0  0  0
  131.0630  123.6310   63.5410 C   0  0  0  0  0  0  0  0  0  0  0  0
  130.3720  122.0970   64.0750 S   0  0  0  0  0  0  0  0  0  0  0  0
  130.6080  121.3850   62.4950 C   0  0  0  0  0  0  0  0  0  0  0  0
  130.2560  120.1260   62.2290 N   0  0  0  0  0  0  0  0  0  0  0  0
  130.4920  119.6960   60.9670 C   0  0  0  0  0  0  0  0  0  0  0  0
  130.0830  118.2600   60.6860 C   0  0  0  0  0  0  0  0  0  0  0  0
  131.0660  120.4850   59.9730 C   0  0  0  0  0  0  0  0  0  0  0  0
  131.4340  121.8050   60.2570 C   0  0  0  0  0  0  0  0  0  0  0  0
  132.0440  122.6320   59.1900 C   0  0  0  0  0  0  0  0  0  0  0  0
  133.4230  122.5870   58.9680 C   0  0  0  0  0  0  0  0  0  0  0  0
  133.9970  123.3630   57.9640 C   0  0  0  0  0  0  0  0  0  0  0  0
  133.1900  124.1870   57.1830 C   0  0  0  0  0  0  0  0  0  0  0  0
  131.8140  124.2420   57.3990 C   0  0  0  0  0  0  0  0  0  0  0  0
  131.2430  123.4650   58.4030 C   0  0  0  0  0  0  0  0  0  0  0  0
  131.2030  122.2950   61.5710 C   0  0  0  0  0  0  0  0  0  0  0  0
  131.4510  123.5680   62.1940 C   0  0  0  0  0  0  0  0  0  0  0  0
  132.0190  124.6180   61.5160 N   0  0  0  0  0  0  0  0  0  0  0  0
  128.6960  127.2360   65.6800 C   0  0  0  0  0  0  0  0  0  0  0  0
  128.5250  128.2390   66.6300 C   0  0  0  0  0  0  0  0  0  0  0  0
  130.1996  128.8018   71.8714 H   0  0  0  0  0  0  0  0  0  0  0  0
  130.9063  127.8258   70.5393 H   0  0  0  0  0  0  0  0  0  0  0  0
  131.0911  129.6126   70.5393 H   0  0  0  0  0  0  0  0  0  0  0  0
  131.0582  127.4159   68.7640 H   0  0  0  0  0  0  0  0  0  0  0  0
  131.3661  125.6264   67.0722 H   0  0  0  0  0  0  0  0  0  0  0  0
  129.1620  124.7630   64.6030 H   0  0  0  0  0  0  0  0  0  0  0  0
  129.9318  117.7290   61.6374 H   0  0  0  0  0  0  0  0  0  0  0  0
  129.1468  118.2517   60.1086 H   0  0  0  0  0  0  0  0  0  0  0  0
  130.8744  117.7597   60.1086 H   0  0  0  0  0  0  0  0  0  0  0  0
  131.2297  120.0715   58.9669 H   0  0  0  0  0  0  0  0  0  0  0  0
  134.0572  121.9365   59.5883 H   0  0  0  0  0  0  0  0  0  0  0  0
  135.0823  123.3254   57.7887 H   0  0  0  0  0  0  0  0  0  0  0  0
  133.6423  124.7995   56.3891 H   0  0  0  0  0  0  0  0  0  0  0  0
  131.1827  124.8959   56.7794 H   0  0  0  0  0  0  0  0  0  0  0  0
  130.1578  123.5065   58.5778 H   0  0  0  0  0  0  0  0  0  0  0  0
  132.5870  125.3080   61.9860 H   0  0  0  0  0  0  0  0  0  0  0  0
  131.8880  124.7350   60.5200 H   0  0  0  0  0  0  0  0  0  0  0  0
  128.0273  127.1857   64.8080 H   0  0  0  0  0  0  0  0  0  0  0  0
  127.7201  128.9778   66.5021 H   0  0  0  0  0  0  0  0  0  0  0  0
  1  2  1  0
  2  3  1  0
  3  4  2  0
  3  5  1  0
  5  6  2  0
  6  7  1  0
  7  8  2  0
  8  9  1  0
  9 10  1  0
 10 11  2  0
 10 12  1  0
 12 13  1  0
 13 14  1  0
 14 15  2  0
 15 16  1  0
 16 17  1  0
 16 18  2  0
 18 19  1  0
 19 20  1  0
 20 21  2  0
 21 22  1  0
 22 23  2  0
 23 24  1  0
 24 25  2  0
 19 26  2  0
 26 27  1  0
 27 28  1  0
  8 29  1  0
 29 30  2  0
 30  5  1  0
 27 12  2  0
 26 14  1  0
 25 20  1  0
  1 31  1  0
  1 32  1  0
  1 33  1  0
  6 34  1  0
  7 35  1  0
  9 36  1  0
 17 37  1  0
 17 38  1  0
 17 39  1  0
 18 40  1  0
 21 41  1  0
 22 42  1  0
 23 43  1  0
 24 44  1  0
 25 45  1  0
 28 46  1  0
 28 47  1  0
 29 48  1  0
 30 49  1  0
M  END
>  <Binding energies>  (1) 
[-7.85]

>  <Ligand effiencies>  (1) 
[-0.23787878787878786]

>  <Interactions>  (1) 
["V-B:GLU:543:CG:9875, V-A:TRP:381:CZ3:3366, V-A:HIS:456:CE1:4064, V-A:PRO:482:CG:4322, V-A:TRP:381:CZ2:3365, V-B:ALA:541:CB:9860, V-A:TRP:381:CH2:3367, V-B:TYR:539:CD2:9842, V-A:LEU:475:CD2:4254, V-A:TRP:381:CE2:3362, V-A:GLU:543:CB:4901, V-A:PRO:482:CB:4321, V-B:TYR:539:CE2:9844, V-A:ILE:369:CD1:3234, V-B:TYR:539:CZ:9845, V-A:ASP:366:CA:3205, V-A:ILE:369:CB:3231, V-A:ASP:366:CG:3208, V-B:HIS:456:CE1:9037, V-A:ASP:366:CB:3207, V-A:ASP:366:C:3203, V-A:TYR:484:CZ:4342, V-A:TYR:484:CE1:4340, V-B:GLU:543:CD:9876, H-A:ASP:366:OD2:3210, V-A:ILE:369:CG2:3232, H-A:TYR:484:OH:4343, H-A:ASP:366:OD1:3209, V-A:GLY:544:C:4907, V-A:GLU:543:C:4897, V-A:TYR:531:CZ:4789, H-B:GLU:543:OE2:9878, V-A:TYR:531:CE1:4787"]

$$$$
8a_Ghoteimi_2023
     RDKit          3D

 67 71  0  0  0  0  0  0  0  0999 V2000
  129.4680  117.5070   60.0040 C   0  0  0  0  0  0  0  0  0  0  0  0
  130.3020  118.5960   60.6860 C   0  0  0  0  0  0  0  0  0  0  0  0
  131.0100  119.3360   59.7000 O   0  0  0  0  0  0  0  0  0  0  0  0
  132.1190  120.0520   60.0240 C   0  0  0  0  0  0  0  0  0  0  0  0
  133.2310  119.8440   59.5280 O   0  0  0  0  0  0  0  0  0  0  0  0
  131.8580  121.1190   61.0480 C   0  0  0  0  0  0  0  0  0  0  0  0
  130.5400  121.5190   61.2980 C   0  0  0  0  0  0  0  0  0  0  0  0
  130.2650  122.5060   62.2400 C   0  0  0  0  0  0  0  0  0  0  0  0
  131.3010  123.1140   62.9520 C   0  0  0  0  0  0  0  0  0  0  0  0
  130.9050  124.1020   63.8750 N   0  0  0  0  0  0  0  0  0  0  0  0
  131.2080  125.4220   63.9310 C   0  0  0  0  0  0  0  0  0  0  0  0
  131.9340  126.0020   63.1220 O   0  0  0  0  0  0  0  0  0  0  0  0
  130.5990  126.1570   65.0440 C   0  0  0  0  0  0  0  0  0  0  0  0
  131.2800  126.0410   66.6660 S   0  0  0  0  0  0  0  0  0  0  0  0
  130.0530  127.1080   67.3080 C   0  0  0  0  0  0  0  0  0  0  0  0
  130.0060  127.4230   68.6020 N   0  0  0  0  0  0  0  0  0  0  0  0
  129.0070  128.2560   68.9980 C   0  0  0  0  0  0  0  0  0  0  0  0
  128.9620  128.5800   70.4570 C   0  0  0  0  0  0  0  0  0  0  0  0
  127.8010  128.3590   71.2120 C   0  0  0  0  0  0  0  0  0  0  0  0
  127.7620  128.6740   72.5670 C   0  0  0  0  0  0  0  0  0  0  0  0
  128.8790  129.2130   73.2020 C   0  0  0  0  0  0  0  0  0  0  0  0
  128.7470  129.4960   74.5490 O   0  0  0  0  0  0  0  0  0  0  0  0
  127.7410  130.4110   74.9690 C   0  0  0  0  0  0  0  0  0  0  0  0
  130.0460  129.4330   72.4580 C   0  0  0  0  0  0  0  0  0  0  0  0
  130.0820  129.1200   71.1010 C   0  0  0  0  0  0  0  0  0  0  0  0
  128.0690  128.7740   68.1030 C   0  0  0  0  0  0  0  0  0  0  0  0
  128.1240  128.4590   66.7410 C   0  0  0  0  0  0  0  0  0  0  0  0
  127.1200  129.0630   65.8280 C   0  0  0  0  0  0  0  0  0  0  0  0
  125.7650  128.7540   65.9700 C   0  0  0  0  0  0  0  0  0  0  0  0
  124.8190  129.3340   65.1300 C   0  0  0  0  0  0  0  0  0  0  0  0
  125.2080  130.2340   64.1380 C   0  0  0  0  0  0  0  0  0  0  0  0
  124.2010  130.7600   63.3510 O   0  0  0  0  0  0  0  0  0  0  0  0
  124.1540  132.1640   63.1300 C   0  0  0  0  0  0  0  0  0  0  0  0
  126.5690  130.5520   63.9980 C   0  0  0  0  0  0  0  0  0  0  0  0
  127.5130  129.9720   64.8420 C   0  0  0  0  0  0  0  0  0  0  0  0
  129.1480  127.5710   66.3080 C   0  0  0  0  0  0  0  0  0  0  0  0
  129.4730  126.9960   65.0260 C   0  0  0  0  0  0  0  0  0  0  0  0
  128.7300  127.2400   63.8980 N   0  0  0  0  0  0  0  0  0  0  0  0
  132.6250  122.7160   62.7110 C   0  0  0  0  0  0  0  0  0  0  0  0
  132.8970  121.7280   61.7680 C   0  0  0  0  0  0  0  0  0  0  0  0
  128.9876  116.8798   60.7694 H   0  0  0  0  0  0  0  0  0  0  0  0
  128.6957  117.9757   59.3764 H   0  0  0  0  0  0  0  0  0  0  0  0
  130.1218  116.8835   59.3764 H   0  0  0  0  0  0  0  0  0  0  0  0
  129.6373  119.2714   61.2446 H   0  0  0  0  0  0  0  0  0  0  0  0
  131.0174  118.1303   61.3797 H   0  0  0  0  0  0  0  0  0  0  0  0
  129.7138  121.0488   60.7447 H   0  0  0  0  0  0  0  0  0  0  0  0
  129.2240  122.8093   62.4250 H   0  0  0  0  0  0  0  0  0  0  0  0
  130.2890  123.7630   64.5990 H   0  0  0  0  0  0  0  0  0  0  0  0
  126.9107  127.9316   70.7275 H   0  0  0  0  0  0  0  0  0  0  0  0
  126.8412  128.4959   73.1418 H   0  0  0  0  0  0  0  0  0  0  0  0
  127.7082  130.4408   76.0681 H   0  0  0  0  0  0  0  0  0  0  0  0
  127.9729  131.4141   74.5817 H   0  0  0  0  0  0  0  0  0  0  0  0
  126.7643  130.0853   74.5817 H   0  0  0  0  0  0  0  0  0  0  0  0
  130.9366  129.8543   72.9472 H   0  0  0  0  0  0  0  0  0  0  0  0
  131.0032  129.2996   70.5273 H   0  0  0  0  0  0  0  0  0  0  0  0
  127.2754  129.4393   68.4740 H   0  0  0  0  0  0  0  0  0  0  0  0
  125.4439  128.0482   66.7502 H   0  0  0  0  0  0  0  0  0  0  0  0
  123.7553  129.0804   65.2495 H   0  0  0  0  0  0  0  0  0  0  0  0
  124.1365  132.6871   64.0975 H   0  0  0  0  0  0  0  0  0  0  0  0
  125.0422  132.4755   62.5608 H   0  0  0  0  0  0  0  0  0  0  0  0
  123.2469  132.4154   62.5608 H   0  0  0  0  0  0  0  0  0  0  0  0
  126.8899  131.2605   63.2202 H   0  0  0  0  0  0  0  0  0  0  0  0
  128.5762  130.2315   64.7316 H   0  0  0  0  0  0  0  0  0  0  0  0
  128.7290  128.1490   63.4550 H   0  0  0  0  0  0  0  0  0  0  0  0
  128.1640  126.5230   63.4690 H   0  0  0  0  0  0  0  0  0  0  0  0
  133.4494  123.1853   63.2679 H   0  0  0  0  0  0  0  0  0  0  0  0
  133.9376  121.4217   61.5856 H   0  0  0  0  0  0  0  0  0  0  0  0
  1  2  1  0
  2  3  1  0
  3  4  1  0
  4  5  2  0
  4  6  1  0
  6  7  2  0
  7  8  1  0
  8  9  2  0
  9 10  1  0
 10 11  1  0
 11 12  2  0
 11 13  1  0
 13 14  1  0
 14 15  1  0
 15 16  2  0
 16 17  1  0
 17 18  1  0
 18 19  2  0
 19 20  1  0
 20 21  2  0
 21 22  1  0
 22 23  1  0
 21 24  1  0
 24 25  2  0
 17 26  2  0
 26 27  1  0
 27 28  1  0
 28 29  2  0
 29 30  1  0
 30 31  2  0
 31 32  1  0
 32 33  1  0
 31 34  1  0
 34 35  2  0
 27 36  2  0
 36 37  1  0
 37 38  1  0
  9 39  1  0
 39 40  2  0
 40  6  1  0
 37 13  2  0
 36 15  1  0
 25 18  1  0
 35 28  1  0
  1 41  1  0
  1 42  1  0
  1 43  1  0
  2 44  1  0
  2 45  1  0
  7 46  1  0
  8 47  1  0
 10 48  1  0
 19 49  1  0
 20 50  1  0
 23 51  1  0
 23 52  1  0
 23 53  1  0
 24 54  1  0
 25 55  1  0
 26 56  1  0
 29 57  1  0
 30 58  1  0
 33 59  1  0
 33 60  1  0
 33 61  1  0
 34 62  1  0
 35 63  1  0
 38 64  1  0
 38 65  1  0
 39 66  1  0
 40 67  1  0
M  END
>  <Binding energies>  (1) 
[-8.12]

>  <Ligand effiencies>  (1) 
[-0.18883720930232556]

>  <Interactions>  (1) 
["V-A:TRP:381:CD2:3360, V-A:TRP:381:CZ3:3366, V-A:HIS:456:CE1:4064, V-A:PRO:482:CG:4322, V-B:TYR:539:CB:9839, V-A:TRP:381:CZ2:3365, V-B:ALA:541:CB:9860, V-A:TRP:381:CE3:3363, V-A:TRP:381:CH2:3367, V-B:TYR:539:C:9835, V-B:TYR:539:CD2:9842, V-A:LEU:475:CD2:4254, V-A:TRP:381:CE2:3362, V-A:PRO:482:CB:4321, V-B:TYR:539:CE2:9844, V-A:ILE:369:CD1:3234, V-B:HIS:456:CE1:9037, V-A:GLU:543:CD:4903, V-B:GLU:543:CD:9876, H-A:TYR:484:OH:4343, H-A:ARG:545:NH2:4923, V-B:ARG:545:CG:9890, V-A:GLY:544:C:4907, V-A:GLU:543:C:4897, V-A:LYS:547:CE:4945, V-B:HIS:456:CD2:9035, V-B:HIS:456:CG:9033, V-B:ARG:545:CD:9891, H-A:LYS:547:NZ:4946, H-B:GLU:543:OE2:9878, H-B:GLU:543:OE1:9877, V-B:ARG:545:CZ:9894, V-B:ILE:369:CD1:8206, V-B:GLY:454:CA:9016"]

$$$$
8b_Ghoteimi_2023
     RDKit          3D

 54 58  0  0  0  0  0  0  0  0999 V2000
  128.0330  130.3070   74.6210 C   0  0  0  0  0  0  0  0  0  0  0  0
  129.0200  129.3520   74.2450 O   0  0  0  0  0  0  0  0  0  0  0  0
  129.1330  128.9860   72.9180 C   0  0  0  0  0  0  0  0  0  0  0  0
  128.0030  128.4220   72.3280 C   0  0  0  0  0  0  0  0  0  0  0  0
  128.0240  128.0230   70.9960 C   0  0  0  0  0  0  0  0  0  0  0  0
  129.1790  128.1770   70.2160 C   0  0  0  0  0  0  0  0  0  0  0  0
  129.2090  127.7480   68.7830 C   0  0  0  0  0  0  0  0  0  0  0  0
  128.6710  128.5420   67.7650 C   0  0  0  0  0  0  0  0  0  0  0  0
  128.7110  128.1180   66.4330 C   0  0  0  0  0  0  0  0  0  0  0  0
  128.1240  128.9780   65.3800 C   0  0  0  0  0  0  0  0  0  0  0  0
  128.7080  130.2070   65.0700 C   0  0  0  0  0  0  0  0  0  0  0  0
  128.1600  131.0100   64.0730 C   0  0  0  0  0  0  0  0  0  0  0  0
  127.0230  130.6000   63.3750 C   0  0  0  0  0  0  0  0  0  0  0  0
  126.5510  131.4600   62.4020 O   0  0  0  0  0  0  0  0  0  0  0  0
  127.1600  132.7380   62.2510 C   0  0  0  0  0  0  0  0  0  0  0  0
  126.4360  129.3650   63.6930 C   0  0  0  0  0  0  0  0  0  0  0  0
  126.9850  128.5620   64.6890 C   0  0  0  0  0  0  0  0  0  0  0  0
  129.3200  126.8660   66.1490 C   0  0  0  0  0  0  0  0  0  0  0  0
  129.5360  126.1420   64.9230 C   0  0  0  0  0  0  0  0  0  0  0  0
  129.1320  126.6240   63.7040 N   0  0  0  0  0  0  0  0  0  0  0  0
  130.1920  124.9130   65.0970 C   0  0  0  0  0  0  0  0  0  0  0  0
  130.5730  123.9320   64.0790 C   0  0  0  0  0  0  0  0  0  0  0  0
  131.6810  123.3900   64.1110 O   0  0  0  0  0  0  0  0  0  0  0  0
  129.6340  123.6810   63.1320 N   0  0  0  0  0  0  0  0  0  0  0  0
  129.7270  122.8010   62.0620 C   0  0  0  0  0  0  0  0  0  0  0  0
  130.9250  122.5230   61.4070 C   0  0  0  0  0  0  0  0  0  0  0  0
  130.5930  121.6230   60.4200 C   0  0  0  0  0  0  0  0  0  0  0  0
  129.2650  121.3690   60.4800 O   0  0  0  0  0  0  0  0  0  0  0  0
  128.7260  122.1210   61.5270 N   0  0  0  0  0  0  0  0  0  0  0  0
  130.5620  124.6240   66.7980 S   0  0  0  0  0  0  0  0  0  0  0  0
  129.8380  126.1460   67.2630 C   0  0  0  0  0  0  0  0  0  0  0  0
  129.7970  126.5480   68.5330 N   0  0  0  0  0  0  0  0  0  0  0  0
  130.3110  128.7480   70.8130 C   0  0  0  0  0  0  0  0  0  0  0  0
  130.2940  129.1480   72.1470 C   0  0  0  0  0  0  0  0  0  0  0  0
  127.9757  130.3625   75.7181 H   0  0  0  0  0  0  0  0  0  0  0  0
  128.3050  131.2936   74.2177 H   0  0  0  0  0  0  0  0  0  0  0  0
  127.0559  130.0027   74.2177 H   0  0  0  0  0  0  0  0  0  0  0  0
  127.0861  128.2913   72.9216 H   0  0  0  0  0  0  0  0  0  0  0  0
  127.1220  127.5805   70.5481 H   0  0  0  0  0  0  0  0  0  0  0  0
  128.2117  129.5099   68.0147 H   0  0  0  0  0  0  0  0  0  0  0  0
  129.6032  130.5421   65.6144 H   0  0  0  0  0  0  0  0  0  0  0  0
  128.6275  131.9764   63.8333 H   0  0  0  0  0  0  0  0  0  0  0  0
  127.3642  133.1664   63.2434 H   0  0  0  0  0  0  0  0  0  0  0  0
  128.1040  132.6311   61.6965 H   0  0  0  0  0  0  0  0  0  0  0  0
  126.4824  133.4039   61.6965 H   0  0  0  0  0  0  0  0  0  0  0  0
  125.5382  129.0303   63.1527 H   0  0  0  0  0  0  0  0  0  0  0  0
  126.5191  127.5957   64.9323 H   0  0  0  0  0  0  0  0  0  0  0  0
  129.5680  127.4360   63.2900 H   0  0  0  0  0  0  0  0  0  0  0  0
  128.3850  126.1890   63.1810 H   0  0  0  0  0  0  0  0  0  0  0  0
  128.7630  124.1840   63.2070 H   0  0  0  0  0  0  0  0  0  0  0  0
  131.9206  122.9339   61.6304 H   0  0  0  0  0  0  0  0  0  0  0  0
  131.2950  121.1808   59.6977 H   0  0  0  0  0  0  0  0  0  0  0  0
  131.2270  128.8823   70.2189 H   0  0  0  0  0  0  0  0  0  0  0  0
  131.1937  129.5924   72.5976 H   0  0  0  0  0  0  0  0  0  0  0  0
  1  2  1  0
  2  3  1  0
  3  4  2  0
  4  5  1  0
  5  6  2  0
  6  7  1  0
  7  8  2  0
  8  9  1  0
  9 10  1  0
 10 11  2  0
 11 12  1  0
 12 13  2  0
 13 14  1  0
 14 15  1  0
 13 16  1  0
 16 17  2  0
  9 18  2  0
 18 19  1  0
 19 20  1  0
 19 21  2  0
 21 22  1  0
 22 23  2  0
 22 24  1  0
 24 25  1  0
 25 26  1  0
 26 27  2  0
 27 28  1  0
 28 29  1  0
 21 30  1  0
 30 31  1  0
 31 32  2  0
  6 33  1  0
 33 34  2  0
 34  3  1  0
 32  7  1  0
 17 10  1  0
 31 18  1  0
 29 25  2  0
  1 35  1  0
  1 36  1  0
  1 37  1  0
  4 38  1  0
  5 39  1  0
  8 40  1  0
 11 41  1  0
 12 42  1  0
 15 43  1  0
 15 44  1  0
 15 45  1  0
 16 46  1  0
 17 47  1  0
 20 48  1  0
 20 49  1  0
 24 50  1  0
 26 51  1  0
 27 52  1  0
 33 53  1  0
 34 54  1  0
M  END
>  <Binding energies>  (1) 
[-7.9]

>  <Ligand effiencies>  (1) 
[-0.21351351351351353]

>  <Interactions>  (1) 
["V-B:GLU:543:CG:9875, V-A:HIS:456:CE1:4064, V-B:ALA:541:CB:9860, V-B:GLU:543:CB:9874, V-A:GLU:543:CB:4901, V-B:HIS:456:CE1:9037, V-A:TYR:484:CZ:4342, V-A:GLU:543:CG:4902, V-A:TYR:484:CE1:4340, V-A:GLU:543:CD:4903, V-B:GLU:543:CD:9876, H-A:TYR:484:OH:4343, H-B:ALA:541:N:9859, H-A:GLU:543:OE2:4905, H-A:HIS:456:NE2:4065, H-A:GLU:543:OE1:4904, V-A:GLY:544:C:4907, V-A:GLU:543:C:4897, V-A:LYS:547:CE:4945, V-B:HIS:456:CD2:9035, H-A:LYS:547:NZ:4946, H-B:GLU:543:OE2:9878, H-B:GLU:543:OE1:9877"]

$$$$
8c_Ghoteimi_2023
     RDKit          3D

 54 58  0  0  0  0  0  0  0  0999 V2000
  128.0340  130.2510   74.6300 C   0  0  0  0  0  0  0  0  0  0  0  0
  129.0350  129.3150   74.2450 O   0  0  0  0  0  0  0  0  0  0  0  0
  129.1440  128.9550   72.9150 C   0  0  0  0  0  0  0  0  0  0  0  0
  128.0170  128.3820   72.3300 C   0  0  0  0  0  0  0  0  0  0  0  0
  128.0370  127.9850   70.9960 C   0  0  0  0  0  0  0  0  0  0  0  0
  129.1860  128.1540   70.2110 C   0  0  0  0  0  0  0  0  0  0  0  0
  129.2150  127.7270   68.7770 C   0  0  0  0  0  0  0  0  0  0  0  0
  128.6580  128.5120   67.7630 C   0  0  0  0  0  0  0  0  0  0  0  0
  128.7010  128.0900   66.4290 C   0  0  0  0  0  0  0  0  0  0  0  0
  128.0940  128.9410   65.3800 C   0  0  0  0  0  0  0  0  0  0  0  0
  128.7450  130.1010   64.9510 C   0  0  0  0  0  0  0  0  0  0  0  0
  128.1780  130.8940   63.9590 C   0  0  0  0  0  0  0  0  0  0  0  0
  126.9560  130.5440   63.3820 C   0  0  0  0  0  0  0  0  0  0  0  0
  126.4700  131.3890   62.4030 O   0  0  0  0  0  0  0  0  0  0  0  0
  126.7860  132.7750   62.4620 C   0  0  0  0  0  0  0  0  0  0  0  0
  126.3010  129.3810   63.8180 C   0  0  0  0  0  0  0  0  0  0  0  0
  126.8700  128.5870   64.8110 C   0  0  0  0  0  0  0  0  0  0  0  0
  129.3290  126.8500   66.1410 C   0  0  0  0  0  0  0  0  0  0  0  0
  129.5510  126.1300   64.9140 C   0  0  0  0  0  0  0  0  0  0  0  0
  129.1310  126.6060   63.6970 N   0  0  0  0  0  0  0  0  0  0  0  0
  130.2290  124.9130   65.0830 C   0  0  0  0  0  0  0  0  0  0  0  0
  130.6200  123.9370   64.0630 C   0  0  0  0  0  0  0  0  0  0  0  0
  131.7540  123.4530   64.0570 O   0  0  0  0  0  0  0  0  0  0  0  0
  129.6600  123.6270   63.1570 N   0  0  0  0  0  0  0  0  0  0  0  0
  129.7690  122.7380   62.0970 C   0  0  0  0  0  0  0  0  0  0  0  0
  129.3100  122.8790   60.8730 N   0  0  0  0  0  0  0  0  0  0  0  0
  129.5990  121.8350   60.1230 C   0  0  0  0  0  0  0  0  0  0  0  0
  130.3090  120.8110   60.7410 C   0  0  0  0  0  0  0  0  0  0  0  0
  130.6100  121.2510   62.3960 S   0  0  0  0  0  0  0  0  0  0  0  0
  130.6150  124.6290   66.7810 S   0  0  0  0  0  0  0  0  0  0  0  0
  129.8660  126.1370   67.2520 C   0  0  0  0  0  0  0  0  0  0  0  0
  129.8250  126.5370   68.5230 N   0  0  0  0  0  0  0  0  0  0  0  0
  130.3150  128.7350   70.8050 C   0  0  0  0  0  0  0  0  0  0  0  0
  130.2990  129.1310   72.1390 C   0  0  0  0  0  0  0  0  0  0  0  0
  127.9810  130.3005   75.7276 H   0  0  0  0  0  0  0  0  0  0  0  0
  128.2871  131.2439   74.2300 H   0  0  0  0  0  0  0  0  0  0  0  0
  127.0603  129.9319   74.2300 H   0  0  0  0  0  0  0  0  0  0  0  0
  127.1038  128.2421   72.9271 H   0  0  0  0  0  0  0  0  0  0  0  0
  127.1384  127.5322   70.5515 H   0  0  0  0  0  0  0  0  0  0  0  0
  128.1813  129.4706   68.0159 H   0  0  0  0  0  0  0  0  0  0  0  0
  129.7080  130.3874   65.3989 H   0  0  0  0  0  0  0  0  0  0  0  0
  128.6970  131.8050   63.6262 H   0  0  0  0  0  0  0  0  0  0  0  0
  126.8579  133.0903   63.5134 H   0  0  0  0  0  0  0  0  0  0  0  0
  127.7479  132.9535   61.9591 H   0  0  0  0  0  0  0  0  0  0  0  0
  125.9965  133.3528   61.9591 H   0  0  0  0  0  0  0  0  0  0  0  0
  125.3357  129.0961   63.3741 H   0  0  0  0  0  0  0  0  0  0  0  0
  126.3522  127.6769   65.1481 H   0  0  0  0  0  0  0  0  0  0  0  0
  129.5440  127.4300   63.2830 H   0  0  0  0  0  0  0  0  0  0  0  0
  128.3950  126.1520   63.1750 H   0  0  0  0  0  0  0  0  0  0  0  0
  128.7650  124.0830   63.2570 H   0  0  0  0  0  0  0  0  0  0  0  0
  129.2958  121.7765   59.0672 H   0  0  0  0  0  0  0  0  0  0  0  0
  130.6284  119.8744   60.2605 H   0  0  0  0  0  0  0  0  0  0  0  0
  131.2273  128.8801   70.2077 H   0  0  0  0  0  0  0  0  0  0  0  0
  131.1959  129.5839   72.5867 H   0  0  0  0  0  0  0  0  0  0  0  0
  1  2  1  0
  2  3  1  0
  3  4  2  0
  4  5  1  0
  5  6  2  0
  6  7  1  0
  7  8  2  0
  8  9  1  0
  9 10  1  0
 10 11  2  0
 11 12  1  0
 12 13  2  0
 13 14  1  0
 14 15  1  0
 13 16  1  0
 16 17  2  0
  9 18  2  0
 18 19  1  0
 19 20  1  0
 19 21  2  0
 21 22  1  0
 22 23  2  0
 22 24  1  0
 24 25  1  0
 25 26  2  0
 26 27  1  0
 27 28  2  0
 28 29  1  0
 21 30  1  0
 30 31  1  0
 31 32  2  0
  6 33  1  0
 33 34  2  0
 34  3  1  0
 32  7  1  0
 17 10  1  0
 31 18  1  0
 29 25  1  0
  1 35  1  0
  1 36  1  0
  1 37  1  0
  4 38  1  0
  5 39  1  0
  8 40  1  0
 11 41  1  0
 12 42  1  0
 15 43  1  0
 15 44  1  0
 15 45  1  0
 16 46  1  0
 17 47  1  0
 20 48  1  0
 20 49  1  0
 24 50  1  0
 27 51  1  0
 28 52  1  0
 33 53  1  0
 34 54  1  0
M  END
>  <Binding energies>  (1) 
[-8.1]

>  <Ligand effiencies>  (1) 
[-0.2189189189189189]

>  <Interactions>  (1) 
["V-B:GLU:543:CG:9875, V-A:HIS:456:CE1:4064, V-B:ALA:541:CB:9860, V-B:GLU:543:CB:9874, V-B:TYR:539:CD2:9842, V-A:LEU:475:CD2:4254, V-A:GLU:543:CB:4901, V-B:HIS:456:CE1:9037, V-A:TYR:484:CZ:4342, V-A:GLU:543:CG:4902, V-A:TYR:484:CE1:4340, V-A:GLU:543:CD:4903, V-B:GLU:543:CD:9876, H-A:TYR:484:OH:4343, H-A:HIS:456:NE2:4065, H-A:GLU:543:OE1:4904, V-A:GLY:544:C:4907, V-A:GLU:543:C:4897, V-A:LYS:547:CE:4945, V-B:HIS:456:CD2:9035, H-A:LYS:547:NZ:4946, H-B:GLU:543:OE2:9878, H-B:GLU:543:OE1:9877, V-B:LEU:475:CD2:9226"]

$$$$
8d_Ghoteimi_2023
     RDKit          3D

 50 53  0  0  0  0  0  0  0  0999 V2000
  126.3630  126.3340   61.1260 C   0  0  0  0  0  0  0  0  0  0  0  0
  127.1250  127.4240   61.6250 O   0  0  0  0  0  0  0  0  0  0  0  0
  126.6300  128.2320   62.5980 C   0  0  0  0  0  0  0  0  0  0  0  0
  125.7210  129.0460   62.4220 O   0  0  0  0  0  0  0  0  0  0  0  0
  127.2970  128.0350   63.9040 C   0  0  0  0  0  0  0  0  0  0  0  0
  126.6210  128.7740   65.3570 S   0  0  0  0  0  0  0  0  0  0  0  0
  127.9020  128.1030   66.3400 C   0  0  0  0  0  0  0  0  0  0  0  0
  127.9660  128.3180   67.6550 N   0  0  0  0  0  0  0  0  0  0  0  0
  129.0030  127.7480   68.3250 C   0  0  0  0  0  0  0  0  0  0  0  0
  129.0530  128.0080   69.7980 C   0  0  0  0  0  0  0  0  0  0  0  0
  127.9350  127.7800   70.6130 C   0  0  0  0  0  0  0  0  0  0  0  0
  127.9870  128.0240   71.9820 C   0  0  0  0  0  0  0  0  0  0  0  0
  129.1560  128.5020   72.5730 C   0  0  0  0  0  0  0  0  0  0  0  0
  129.1160  128.7150   73.9370 O   0  0  0  0  0  0  0  0  0  0  0  0
  128.0930  129.5420   74.4810 C   0  0  0  0  0  0  0  0  0  0  0  0
  130.2810  128.7320   71.7680 C   0  0  0  0  0  0  0  0  0  0  0  0
  130.2250  128.4860   70.3980 C   0  0  0  0  0  0  0  0  0  0  0  0
  129.9740  126.9750   67.6810 C   0  0  0  0  0  0  0  0  0  0  0  0
  129.9050  126.7480   66.3030 C   0  0  0  0  0  0  0  0  0  0  0  0
  130.9440  125.9170   65.6510 C   0  0  0  0  0  0  0  0  0  0  0  0
  130.5780  124.9170   64.7480 C   0  0  0  0  0  0  0  0  0  0  0  0
  131.5540  124.1300   64.1420 C   0  0  0  0  0  0  0  0  0  0  0  0
  132.9060  124.3340   64.4240 C   0  0  0  0  0  0  0  0  0  0  0  0
  133.8020  123.5060   63.7780 O   0  0  0  0  0  0  0  0  0  0  0  0
  133.9440  123.6040   62.3650 C   0  0  0  0  0  0  0  0  0  0  0  0
  133.2710  125.3440   65.3300 C   0  0  0  0  0  0  0  0  0  0  0  0
  132.2940  126.1290   65.9360 C   0  0  0  0  0  0  0  0  0  0  0  0
  128.8290  127.3310   65.5840 C   0  0  0  0  0  0  0  0  0  0  0  0
  128.4580  127.3100   64.1950 C   0  0  0  0  0  0  0  0  0  0  0  0
  129.1870  126.6400   63.2460 N   0  0  0  0  0  0  0  0  0  0  0  0
  125.9576  125.7540   61.9682 H   0  0  0  0  0  0  0  0  0  0  0  0
  125.5346  126.7165   60.5117 H   0  0  0  0  0  0  0  0  0  0  0  0
  127.0068  125.6873   60.5117 H   0  0  0  0  0  0  0  0  0  0  0  0
  127.0042  127.4031   70.1641 H   0  0  0  0  0  0  0  0  0  0  0  0
  127.0984  127.8382   72.6032 H   0  0  0  0  0  0  0  0  0  0  0  0
  128.1377  129.5059   75.5795 H   0  0  0  0  0  0  0  0  0  0  0  0
  128.2400  130.5781   74.1419 H   0  0  0  0  0  0  0  0  0  0  0  0
  127.1108  129.1811   74.1419 H   0  0  0  0  0  0  0  0  0  0  0  0
  131.2108  129.1079   72.2199 H   0  0  0  0  0  0  0  0  0  0  0  0
  131.1147  128.6699   69.7779 H   0  0  0  0  0  0  0  0  0  0  0  0
  130.7999  126.5414   68.2639 H   0  0  0  0  0  0  0  0  0  0  0  0
  129.5160  124.7504   64.5147 H   0  0  0  0  0  0  0  0  0  0  0  0
  131.2572  123.3411   63.4353 H   0  0  0  0  0  0  0  0  0  0  0  0
  134.8278  124.2140   62.1267 H   0  0  0  0  0  0  0  0  0  0  0  0
  134.0671  122.5977   61.9382 H   0  0  0  0  0  0  0  0  0  0  0  0
  133.0468  124.0761   61.9382 H   0  0  0  0  0  0  0  0  0  0  0  0
  134.3327  125.5151   65.5613 H   0  0  0  0  0  0  0  0  0  0  0  0
  132.5870  126.9197   66.6424 H   0  0  0  0  0  0  0  0  0  0  0  0
  128.7380  126.1130   62.5100 H   0  0  0  0  0  0  0  0  0  0  0  0
  130.1970  126.6540   63.2450 H   0  0  0  0  0  0  0  0  0  0  0  0
  1  2  1  0
  2  3  1  0
  3  4  2  0
  3  5  1  0
  5  6  1  0
  6  7  1  0
  7  8  2  0
  8  9  1  0
  9 10  1  0
 10 11  2  0
 11 12  1  0
 12 13  2  0
 13 14  1  0
 14 15  1  0
 13 16  1  0
 16 17  2  0
  9 18  2  0
 18 19  1  0
 19 20  1  0
 20 21  2  0
 21 22  1  0
 22 23  2  0
 23 24  1  0
 24 25  1  0
 23 26  1  0
 26 27  2  0
 19 28  2  0
 28 29  1  0
 29 30  1  0
 29  5  2  0
 28  7  1  0
 17 10  1  0
 27 20  1  0
  1 31  1  0
  1 32  1  0
  1 33  1  0
 11 34  1  0
 12 35  1  0
 15 36  1  0
 15 37  1  0
 15 38  1  0
 16 39  1  0
 17 40  1  0
 18 41  1  0
 21 42  1  0
 22 43  1  0
 25 44  1  0
 25 45  1  0
 25 46  1  0
 26 47  1  0
 27 48  1  0
 30 49  1  0
 30 50  1  0
M  END
>  <Binding energies>  (1) 
[-6.57]

>  <Ligand effiencies>  (1) 
[-0.2053125]

>  <Interactions>  (1) 
["V-B:GLU:543:CG:9875, V-A:HIS:456:CE1:4064, H-B:LYS:547:NZ:9919, V-A:ILE:369:CD1:3234, V-B:HIS:456:CE1:9037, V-A:GLU:543:CD:4903, V-B:GLU:543:CD:9876, H-A:TYR:484:OH:4343, H-A:GLY:454:N:4045, V-A:ARG:545:CZ:4921, H-A:GLU:543:OE1:4904, V-A:GLY:544:C:4907, V-B:HIS:456:CD2:9035, H-A:LYS:547:NZ:4946, H-B:GLU:543:OE2:9878, V-A:ARG:545:CD:4918, H-B:ARG:545:NH2:9896"]

$$$$
9a_Ghoteimi_2023
     RDKit          3D

 85 91  0  0  0  0  0  0  0  0999 V2000
  128.4010  131.1800   56.6210 C   0  0  0  0  0  0  0  0  0  0  0  0
  126.9980  131.0170   57.2160 C   0  0  0  0  0  0  0  0  0  0  0  0
  126.7230  132.1080   58.0870 O   0  0  0  0  0  0  0  0  0  0  0  0
  127.6620  132.5670   58.9530 C   0  0  0  0  0  0  0  0  0  0  0  0
  128.2820  133.6230   58.7880 O   0  0  0  0  0  0  0  0  0  0  0  0
  127.8780  131.6600   60.1300 C   0  0  0  0  0  0  0  0  0  0  0  0
  128.2840  130.3370   59.9100 C   0  0  0  0  0  0  0  0  0  0  0  0
  128.4910  129.4720   60.9800 C   0  0  0  0  0  0  0  0  0  0  0  0
  128.2990  129.9090   62.2910 C   0  0  0  0  0  0  0  0  0  0  0  0
  128.5370  128.9480   63.2930 N   0  0  0  0  0  0  0  0  0  0  0  0
  128.1790  128.9350   64.6010 C   0  0  0  0  0  0  0  0  0  0  0  0
  127.5410  129.8310   65.1530 O   0  0  0  0  0  0  0  0  0  0  0  0
  128.6010  127.7500   65.3540 C   0  0  0  0  0  0  0  0  0  0  0  0
  128.3090  127.6470   67.0900 S   0  0  0  0  0  0  0  0  0  0  0  0
  129.0410  126.0610   67.1660 C   0  0  0  0  0  0  0  0  0  0  0  0
  129.1140  125.3790   68.3080 N   0  0  0  0  0  0  0  0  0  0  0  0
  129.6920  124.1490   68.2560 C   0  0  0  0  0  0  0  0  0  0  0  0
  129.7520  123.3980   69.5460 C   0  0  0  0  0  0  0  0  0  0  0  0
  130.5950  123.8250   70.5790 C   0  0  0  0  0  0  0  0  0  0  0  0
  130.6570  123.1310   71.7840 C   0  0  0  0  0  0  0  0  0  0  0  0
  129.8680  121.9910   72.0080 C   0  0  0  0  0  0  0  0  0  0  0  0
  129.9340  121.2730   73.2060 N   0  0  0  0  0  0  0  0  0  0  0  0
  129.4520  121.8490   74.4780 C   0  0  0  0  0  0  0  0  0  0  0  0
  129.9270  121.0810   75.7290 C   0  0  0  0  0  0  0  0  0  0  0  0
  129.5730  119.7120   75.6230 O   0  0  0  0  0  0  0  0  0  0  0  0
  130.1710  119.1070   74.4870 C   0  0  0  0  0  0  0  0  0  0  0  0
  129.6960  119.8150   73.2020 C   0  0  0  0  0  0  0  0  0  0  0  0
  129.0370  121.5590   70.9640 C   0  0  0  0  0  0  0  0  0  0  0  0
  128.9770  122.2520   69.7580 C   0  0  0  0  0  0  0  0  0  0  0  0
  130.2170  123.6210   67.0740 C   0  0  0  0  0  0  0  0  0  0  0  0
  130.1600  124.3430   65.8770 C   0  0  0  0  0  0  0  0  0  0  0  0
  130.7670  123.7510   64.6570 C   0  0  0  0  0  0  0  0  0  0  0  0
  130.0940  122.7590   63.9380 C   0  0  0  0  0  0  0  0  0  0  0  0
  130.6570  122.2150   62.7880 C   0  0  0  0  0  0  0  0  0  0  0  0
  131.9020  122.6610   62.3150 C   0  0  0  0  0  0  0  0  0  0  0  0
  132.4920  122.1220   61.1690 N   0  0  0  0  0  0  0  0  0  0  0  0
  132.6350  122.9680   59.9670 C   0  0  0  0  0  0  0  0  0  0  0  0
  133.6230  122.3930   58.9300 C   0  0  0  0  0  0  0  0  0  0  0  0
  133.2440  121.0720   58.5770 O   0  0  0  0  0  0  0  0  0  0  0  0
  133.2420  120.2080   59.7030 C   0  0  0  0  0  0  0  0  0  0  0  0
  132.2440  120.7250   60.7620 C   0  0  0  0  0  0  0  0  0  0  0  0
  132.5660  123.6590   63.0430 C   0  0  0  0  0  0  0  0  0  0  0  0
  132.0050  124.2000   64.1950 C   0  0  0  0  0  0  0  0  0  0  0  0
  129.5270  125.6190   65.9000 C   0  0  0  0  0  0  0  0  0  0  0  0
  129.2400  126.5940   64.8780 C   0  0  0  0  0  0  0  0  0  0  0  0
  129.5550  126.3940   63.5580 N   0  0  0  0  0  0  0  0  0  0  0  0
  127.8960  131.2330   62.5220 C   0  0  0  0  0  0  0  0  0  0  0  0
  127.6880  132.0980   61.4500 C   0  0  0  0  0  0  0  0  0  0  0  0
  129.1366  131.2655   57.4344 H   0  0  0  0  0  0  0  0  0  0  0  0
  128.6403  130.3036   56.0008 H   0  0  0  0  0  0  0  0  0  0  0  0
  128.4330  132.0879   56.0008 H   0  0  0  0  0  0  0  0  0  0  0  0
  126.2554  130.9992   56.4047 H   0  0  0  0  0  0  0  0  0  0  0  0
  126.9463  130.0745   57.7809 H   0  0  0  0  0  0  0  0  0  0  0  0
  128.4405  129.9789   58.8818 H   0  0  0  0  0  0  0  0  0  0  0  0
  128.8084  128.4359   60.7909 H   0  0  0  0  0  0  0  0  0  0  0  0
  129.0560  128.1430   62.9730 H   0  0  0  0  0  0  0  0  0  0  0  0
  131.2168  124.7211   70.4364 H   0  0  0  0  0  0  0  0  0  0  0  0
  131.3362  123.4818   72.5750 H   0  0  0  0  0  0  0  0  0  0  0  0
  129.8144  122.8852   74.5488 H   0  0  0  0  0  0  0  0  0  0  0  0
  128.3539  121.7871   74.4619 H   0  0  0  0  0  0  0  0  0  0  0  0
  131.0200  121.1686   75.8166 H   0  0  0  0  0  0  0  0  0  0  0  0
  129.4449  121.5100   76.6198 H   0  0  0  0  0  0  0  0  0  0  0  0
  131.2653  119.1881   74.5645 H   0  0  0  0  0  0  0  0  0  0  0  0
  129.8779  118.0476   74.4454 H   0  0  0  0  0  0  0  0  0  0  0  0
  130.2313  119.3779   72.3462 H   0  0  0  0  0  0  0  0  0  0  0  0
  128.6081  119.6665   73.1360 H   0  0  0  0  0  0  0  0  0  0  0  0
  128.4221  120.6572   71.1004 H   0  0  0  0  0  0  0  0  0  0  0  0
  128.3105  121.8935   68.9598 H   0  0  0  0  0  0  0  0  0  0  0  0
  130.6816  122.6240   67.0846 H   0  0  0  0  0  0  0  0  0  0  0  0
  129.1115  122.4057   64.2842 H   0  0  0  0  0  0  0  0  0  0  0  0
  130.1201  121.4253   62.2420 H   0  0  0  0  0  0  0  0  0  0  0  0
  131.6483  123.0682   59.4911 H   0  0  0  0  0  0  0  0  0  0  0  0
  133.0364  123.9376   60.2968 H   0  0  0  0  0  0  0  0  0  0  0  0
  133.6162  123.0263   58.0306 H   0  0  0  0  0  0  0  0  0  0  0  0
  134.6327  122.3739   59.3661 H   0  0  0  0  0  0  0  0  0  0  0  0
  132.9461  119.1970   59.3862 H   0  0  0  0  0  0  0  0  0  0  0  0
  134.2512  120.1810   60.1399 H   0  0  0  0  0  0  0  0  0  0  0  0
  131.2281  120.6583   60.3455 H   0  0  0  0  0  0  0  0  0  0  0  0
  132.3682  120.0990   61.6579 H   0  0  0  0  0  0  0  0  0  0  0  0
  133.5461  124.0196   62.6974 H   0  0  0  0  0  0  0  0  0  0  0  0
  132.5408  124.9872   64.7457 H   0  0  0  0  0  0  0  0  0  0  0  0
  129.0350  125.7500   62.9780 H   0  0  0  0  0  0  0  0  0  0  0  0
  130.3220  126.8850   63.1200 H   0  0  0  0  0  0  0  0  0  0  0  0
  127.7440  131.5887   63.5517 H   0  0  0  0  0  0  0  0  0  0  0  0
  127.3718  133.1343   61.6398 H   0  0  0  0  0  0  0  0  0  0  0  0
  1  2  1  0
  2  3  1  0
  3  4  1  0
  4  5  2  0
  4  6  1  0
  6  7  2  0
  7  8  1  0
  8  9  2  0
  9 10  1  0
 10 11  1  0
 11 12  2  0
 11 13  1  0
 13 14  1  0
 14 15  1  0
 15 16  2  0
 16 17  1  0
 17 18  1  0
 18 19  2  0
 19 20  1  0
 20 21  2  0
 21 22  1  0
 22 23  1  0
 23 24  1  0
 24 25  1  0
 25 26  1  0
 26 27  1  0
 21 28  1  0
 28 29  2  0
 17 30  2  0
 30 31  1  0
 31 32  1  0
 32 33  2  0
 33 34  1  0
 34 35  2  0
 35 36  1  0
 36 37  1  0
 37 38  1  0
 38 39  1  0
 39 40  1  0
 40 41  1  0
 35 42  1  0
 42 43  2  0
 31 44  2  0
 44 45  1  0
 45 46  1  0
  9 47  1  0
 47 48  2  0
 48  6  1  0
 45 13  2  0
 44 15  1  0
 29 18  1  0
 43 32  1  0
 27 22  1  0
 41 36  1  0
  1 49  1  0
  1 50  1  0
  1 51  1  0
  2 52  1  0
  2 53  1  0
  7 54  1  0
  8 55  1  0
 10 56  1  0
 19 57  1  0
 20 58  1  0
 23 59  1  0
 23 60  1  0
 24 61  1  0
 24 62  1  0
 26 63  1  0
 26 64  1  0
 27 65  1  0
 27 66  1  0
 28 67  1  0
 29 68  1  0
 30 69  1  0
 33 70  1  0
 34 71  1  0
 37 72  1  0
 37 73  1  0
 38 74  1  0
 38 75  1  0
 40 76  1  0
 40 77  1  0
 41 78  1  0
 41 79  1  0
 42 80  1  0
 43 81  1  0
 46 82  1  0
 46 83  1  0
 47 84  1  0
 48 85  1  0
M  END
>  <Binding energies>  (1) 
[-3.87]

>  <Ligand effiencies>  (1) 
[-0.07588235294117647]

>  <Interactions>  (1) 
["V-B:GLU:543:CG:9875, V-A:HIS:456:CE1:4064, V-B:ALA:541:CB:9860, V-B:GLU:543:CB:9874, V-A:TRP:381:CH2:3367, V-B:TYR:539:CD2:9842, V-A:LEU:475:CD2:4254, V-B:TYR:539:CE2:9844, V-A:ILE:369:CD1:3234, V-A:ILE:369:CB:3231, V-A:TYR:484:CZ:4342, V-B:GLU:543:C:9870, H-B:TYR:484:OH:9315, V-A:TYR:484:CE1:4340, V-B:GLU:543:CA:9872, V-A:GLU:543:CD:4903, V-B:GLU:543:CD:9876, V-A:ILE:369:CG2:3232, H-A:GLU:543:OE2:4905, H-A:GLU:543:OE1:4904, V-A:TYR:484:CG:4337, V-A:TYR:484:CD1:4338, V-A:TYR:539:CE2:4871, V-A:HIS:456:CG:4061, V-A:TYR:539:CD2:4869, H-B:GLU:543:OE2:9878, H-A:TYR:539:OH:4873, V-A:TYR:539:CZ:4872, V-A:TYR:539:CE1:4870, V-A:HIS:456:CD2:4063, V-A:TYR:484:CB:4336, V-A:ILE:369:CG1:3233"]

$$$$
9b_Ghoteimi_2023
     RDKit          3D

 72 78  0  0  0  0  0  0  0  0999 V2000
  129.8800  127.3800   65.1640 N   0  0  0  0  0  0  0  0  0  0  0  0
  129.5580  127.3130   66.4960 C   0  0  0  0  0  0  0  0  0  0  0  0
  129.0580  128.4020   67.2260 C   0  0  0  0  0  0  0  0  0  0  0  0
  128.7630  129.7590   66.7570 C   0  0  0  0  0  0  0  0  0  0  0  0
  128.6210  130.6840   67.5590 O   0  0  0  0  0  0  0  0  0  0  0  0
  128.6570  129.9000   65.4120 N   0  0  0  0  0  0  0  0  0  0  0  0
  128.3760  131.0610   64.7020 C   0  0  0  0  0  0  0  0  0  0  0  0
  127.6160  131.0720   63.5330 C   0  0  0  0  0  0  0  0  0  0  0  0
  127.5690  132.3930   63.1500 C   0  0  0  0  0  0  0  0  0  0  0  0
  128.2650  133.1370   64.0430 O   0  0  0  0  0  0  0  0  0  0  0  0
  128.7720  132.2820   65.0210 N   0  0  0  0  0  0  0  0  0  0  0  0
  128.7840  127.9670   68.9130 S   0  0  0  0  0  0  0  0  0  0  0  0
  129.3570  126.3400   68.6330 C   0  0  0  0  0  0  0  0  0  0  0  0
  129.4270  125.4460   69.6180 N   0  0  0  0  0  0  0  0  0  0  0  0
  129.9030  124.2140   69.2990 C   0  0  0  0  0  0  0  0  0  0  0  0
  129.9900  123.2360   70.4260 C   0  0  0  0  0  0  0  0  0  0  0  0
  129.1230  122.1390   70.5020 C   0  0  0  0  0  0  0  0  0  0  0  0
  129.2000  121.2400   71.5610 C   0  0  0  0  0  0  0  0  0  0  0  0
  130.1370  121.4130   72.5920 C   0  0  0  0  0  0  0  0  0  0  0  0
  130.2280  120.5150   73.6620 N   0  0  0  0  0  0  0  0  0  0  0  0
  131.1740  119.3820   73.6370 C   0  0  0  0  0  0  0  0  0  0  0  0
  131.3860  118.7170   75.0130 C   0  0  0  0  0  0  0  0  0  0  0  0
  130.1380  118.3230   75.5590 O   0  0  0  0  0  0  0  0  0  0  0  0
  129.2790  119.4350   75.7460 C   0  0  0  0  0  0  0  0  0  0  0  0
  129.0030  120.1280   74.3940 C   0  0  0  0  0  0  0  0  0  0  0  0
  131.0150  122.5010   72.5000 C   0  0  0  0  0  0  0  0  0  0  0  0
  130.9420  123.3980   71.4390 C   0  0  0  0  0  0  0  0  0  0  0  0
  130.2810  123.8730   67.9980 C   0  0  0  0  0  0  0  0  0  0  0  0
  130.1900  124.8040   66.9560 C   0  0  0  0  0  0  0  0  0  0  0  0
  130.5750  124.3830   65.5850 C   0  0  0  0  0  0  0  0  0  0  0  0
  131.6500  124.9930   64.9370 C   0  0  0  0  0  0  0  0  0  0  0  0
  132.0250  124.5880   63.6600 C   0  0  0  0  0  0  0  0  0  0  0  0
  131.3360  123.5610   62.9960 C   0  0  0  0  0  0  0  0  0  0  0  0
  131.7060  123.1280   61.7200 N   0  0  0  0  0  0  0  0  0  0  0  0
  133.0060  123.5500   61.1630 C   0  0  0  0  0  0  0  0  0  0  0  0
  133.1090  123.3440   59.6360 C   0  0  0  0  0  0  0  0  0  0  0  0
  132.8390  121.9890   59.3100 O   0  0  0  0  0  0  0  0  0  0  0  0
  131.5370  121.5980   59.7200 C   0  0  0  0  0  0  0  0  0  0  0  0
  131.3920  121.7640   61.2480 C   0  0  0  0  0  0  0  0  0  0  0  0
  130.2700  122.9420   63.6650 C   0  0  0  0  0  0  0  0  0  0  0  0
  129.8940  123.3480   64.9430 C   0  0  0  0  0  0  0  0  0  0  0  0
  129.7260  126.1110   67.2740 C   0  0  0  0  0  0  0  0  0  0  0  0
  129.1960  127.2060   64.4400 H   0  0  0  0  0  0  0  0  0  0  0  0
  130.8170  127.6070   64.8600 H   0  0  0  0  0  0  0  0  0  0  0  0
  128.8020  129.0740   64.8510 H   0  0  0  0  0  0  0  0  0  0  0  0
  127.1542  130.2115   63.0268 H   0  0  0  0  0  0  0  0  0  0  0  0
  127.0499  132.7822   62.2617 H   0  0  0  0  0  0  0  0  0  0  0  0
  128.3710  121.9860   69.7139 H   0  0  0  0  0  0  0  0  0  0  0  0
  128.5154  120.3795   71.5910 H   0  0  0  0  0  0  0  0  0  0  0  0
  130.7876  118.6230   72.9409 H   0  0  0  0  0  0  0  0  0  0  0  0
  132.1480  119.7849   73.3225 H   0  0  0  0  0  0  0  0  0  0  0  0
  132.0276  117.8314   74.8945 H   0  0  0  0  0  0  0  0  0  0  0  0
  131.8658  119.4373   75.6919 H   0  0  0  0  0  0  0  0  0  0  0  0
  128.3281  119.0910   76.1789 H   0  0  0  0  0  0  0  0  0  0  0  0
  129.7627  120.1524   76.4252 H   0  0  0  0  0  0  0  0  0  0  0  0
  128.4245  119.4380   73.7621 H   0  0  0  0  0  0  0  0  0  0  0  0
  128.4547  121.0556   74.6149 H   0  0  0  0  0  0  0  0  0  0  0  0
  131.7757  122.6486   73.2807 H   0  0  0  0  0  0  0  0  0  0  0  0
  131.6417  124.2457   71.3958 H   0  0  0  0  0  0  0  0  0  0  0  0
  130.6550  122.8598   67.7894 H   0  0  0  0  0  0  0  0  0  0  0  0
  132.2045  125.7994   65.4393 H   0  0  0  0  0  0  0  0  0  0  0  0
  132.8742  125.0800   63.1632 H   0  0  0  0  0  0  0  0  0  0  0  0
  133.1501  124.6183   61.3822 H   0  0  0  0  0  0  0  0  0  0  0  0
  133.7806  122.9242   61.6304 H   0  0  0  0  0  0  0  0  0  0  0  0
  132.3785  123.9929   59.1307 H   0  0  0  0  0  0  0  0  0  0  0  0
  134.1264  123.5994   59.3048 H   0  0  0  0  0  0  0  0  0  0  0  0
  130.7911  122.2276   59.2129 H   0  0  0  0  0  0  0  0  0  0  0  0
  131.3769  120.5425   59.4548 H   0  0  0  0  0  0  0  0  0  0  0  0
  130.3548  121.5278   61.5280 H   0  0  0  0  0  0  0  0  0  0  0  0
  132.1144  121.0817   61.7198 H   0  0  0  0  0  0  0  0  0  0  0  0
  129.7231  122.1241   63.1732 H   0  0  0  0  0  0  0  0  0  0  0  0
  129.0546  122.8494   65.4497 H   0  0  0  0  0  0  0  0  0  0  0  0
  1  2  1  0
  2  3  2  0
  3  4  1  0
  4  5  2  0
  4  6  1  0
  6  7  1  0
  7  8  1  0
  8  9  2  0
  9 10  1  0
 10 11  1  0
  3 12  1  0
 12 13  1  0
 13 14  2  0
 14 15  1  0
 15 16  1  0
 16 17  2  0
 17 18  1  0
 18 19  2  0
 19 20  1  0
 20 21  1  0
 21 22  1  0
 22 23  1  0
 23 24  1  0
 24 25  1  0
 19 26  1  0
 26 27  2  0
 15 28  2  0
 28 29  1  0
 29 30  1  0
 30 31  2  0
 31 32  1  0
 32 33  2  0
 33 34  1  0
 34 35  1  0
 35 36  1  0
 36 37  1  0
 37 38  1  0
 38 39  1  0
 33 40  1  0
 40 41  2  0
 29 42  2  0
 42  2  1  0
 11  7  2  0
 42 13  1  0
 27 16  1  0
 41 30  1  0
 25 20  1  0
 39 34  1  0
  1 43  1  0
  1 44  1  0
  6 45  1  0
  8 46  1  0
  9 47  1  0
 17 48  1  0
 18 49  1  0
 21 50  1  0
 21 51  1  0
 22 52  1  0
 22 53  1  0
 24 54  1  0
 24 55  1  0
 25 56  1  0
 25 57  1  0
 26 58  1  0
 27 59  1  0
 28 60  1  0
 31 61  1  0
 32 62  1  0
 35 63  1  0
 35 64  1  0
 36 65  1  0
 36 66  1  0
 38 67  1  0
 38 68  1  0
 39 69  1  0
 39 70  1  0
 40 71  1  0
 41 72  1  0
M  END
>  <Binding energies>  (1) 
[-8.98]

>  <Ligand effiencies>  (1) 
[-0.19955555555555557]

>  <Interactions>  (1) 
["V-B:GLU:543:CG:9875, V-A:HIS:456:CE1:4064, V-B:ALA:541:CB:9860, V-B:GLU:543:CB:9874, V-B:TYR:539:CD2:9842, V-A:LEU:475:CD2:4254, V-A:GLU:543:CB:4901, V-B:TYR:539:CE2:9844, V-A:ILE:369:CD1:3234, V-A:ASP:366:CG:3208, V-B:HIS:456:CE1:9037, V-A:TYR:484:CZ:4342, V-A:GLU:543:CG:4902, V-B:GLU:543:C:9870, H-B:TYR:484:OH:9315, V-A:TYR:484:CE1:4340, V-B:GLU:543:CA:9872, V-A:GLU:543:CD:4903, V-B:GLU:543:CD:9876, H-A:GLU:543:OE2:4905, H-A:HIS:456:NE2:4065, H-A:GLU:543:OE1:4904, V-A:TYR:484:CG:4337, V-A:TYR:484:CD1:4338, V-A:ASP:473:CG:4235, V-A:HIS:456:CG:4061, V-A:ASP:473:CB:4234, H-B:GLU:543:OE2:9878, V-A:HIS:456:CD2:4063, V-A:TYR:484:CB:4336, V-A:TYR:484:C:4332, V-A:ASP:485:CA:4348, V-A:PRO:486:CD:4361"]

$$$$
9c_Ghoteimi_2023
     RDKit          3D

 72 78  0  0  0  0  0  0  0  0999 V2000
  129.8890  127.3400   64.9780 N   0  0  0  0  0  0  0  0  0  0  0  0
  129.5450  127.2890   66.3040 C   0  0  0  0  0  0  0  0  0  0  0  0
  129.0190  128.3820   67.0100 C   0  0  0  0  0  0  0  0  0  0  0  0
  128.7200  129.7300   66.5150 C   0  0  0  0  0  0  0  0  0  0  0  0
  128.7220  130.6970   67.2790 O   0  0  0  0  0  0  0  0  0  0  0  0
  128.4440  129.8150   65.1910 N   0  0  0  0  0  0  0  0  0  0  0  0
  128.1170  130.9600   64.4790 C   0  0  0  0  0  0  0  0  0  0  0  0
  128.7240  132.1270   64.5010 N   0  0  0  0  0  0  0  0  0  0  0  0
  128.1360  132.9950   63.6990 C   0  0  0  0  0  0  0  0  0  0  0  0
  127.0230  132.5330   63.0030 C   0  0  0  0  0  0  0  0  0  0  0  0
  126.7390  130.8720   63.4280 S   0  0  0  0  0  0  0  0  0  0  0  0
  128.7210  127.9690   68.6970 S   0  0  0  0  0  0  0  0  0  0  0  0
  129.3170  126.3450   68.4530 C   0  0  0  0  0  0  0  0  0  0  0  0
  129.3780  125.4650   69.4510 N   0  0  0  0  0  0  0  0  0  0  0  0
  129.8740  124.2350   69.1590 C   0  0  0  0  0  0  0  0  0  0  0  0
  129.9520  123.2750   70.3020 C   0  0  0  0  0  0  0  0  0  0  0  0
  129.1300  122.1430   70.3550 C   0  0  0  0  0  0  0  0  0  0  0  0
  129.1990  121.2580   71.4260 C   0  0  0  0  0  0  0  0  0  0  0  0
  130.0860  121.4790   72.4930 C   0  0  0  0  0  0  0  0  0  0  0  0
  130.1720  120.5940   73.5730 N   0  0  0  0  0  0  0  0  0  0  0  0
  131.0490  119.4060   73.5260 C   0  0  0  0  0  0  0  0  0  0  0  0
  131.2880  118.7520   74.9030 C   0  0  0  0  0  0  0  0  0  0  0  0
  130.0450  118.4410   75.5130 O   0  0  0  0  0  0  0  0  0  0  0  0
  129.2620  119.6050   75.7190 C   0  0  0  0  0  0  0  0  0  0  0  0
  128.9640  120.2910   74.3670 C   0  0  0  0  0  0  0  0  0  0  0  0
  130.9200  122.6040   72.4250 C   0  0  0  0  0  0  0  0  0  0  0  0
  130.8530  123.4870   71.3510 C   0  0  0  0  0  0  0  0  0  0  0  0
  130.2790  123.8790   67.8700 C   0  0  0  0  0  0  0  0  0  0  0  0
  130.1960  124.7930   66.8140 C   0  0  0  0  0  0  0  0  0  0  0  0
  130.6090  124.3580   65.4570 C   0  0  0  0  0  0  0  0  0  0  0  0
  131.7110  124.9460   64.8330 C   0  0  0  0  0  0  0  0  0  0  0  0
  132.1110  124.5280   63.5660 C   0  0  0  0  0  0  0  0  0  0  0  0
  131.4190  123.5120   62.8900 C   0  0  0  0  0  0  0  0  0  0  0  0
  131.8110  123.0690   61.6220 N   0  0  0  0  0  0  0  0  0  0  0  0
  132.8850  123.7890   60.9080 C   0  0  0  0  0  0  0  0  0  0  0  0
  132.9440  123.4540   59.4020 C   0  0  0  0  0  0  0  0  0  0  0  0
  133.0720  122.0520   59.2210 O   0  0  0  0  0  0  0  0  0  0  0  0
  131.9770  121.3480   59.7840 C   0  0  0  0  0  0  0  0  0  0  0  0
  131.8880  121.6310   61.3000 C   0  0  0  0  0  0  0  0  0  0  0  0
  130.3270  122.9140   63.5350 C   0  0  0  0  0  0  0  0  0  0  0  0
  129.9260  123.3320   64.8010 C   0  0  0  0  0  0  0  0  0  0  0  0
  129.7120  126.1010   67.1040 C   0  0  0  0  0  0  0  0  0  0  0  0
  130.8110  127.6240   64.6760 H   0  0  0  0  0  0  0  0  0  0  0  0
  129.2290  127.0960   64.2530 H   0  0  0  0  0  0  0  0  0  0  0  0
  128.4800  128.9610   64.6530 H   0  0  0  0  0  0  0  0  0  0  0  0
  128.5049  134.0252   63.5871 H   0  0  0  0  0  0  0  0  0  0  0  0
  126.4202  133.1239   62.2976 H   0  0  0  0  0  0  0  0  0  0  0  0
  128.4192  121.9506   69.5378 H   0  0  0  0  0  0  0  0  0  0  0  0
  128.5487  120.3709   71.4377 H   0  0  0  0  0  0  0  0  0  0  0  0
  130.5864  118.6597   72.8635 H   0  0  0  0  0  0  0  0  0  0  0  0
  132.0287  119.7460   73.1590 H   0  0  0  0  0  0  0  0  0  0  0  0
  131.8709  117.8284   74.7718 H   0  0  0  0  0  0  0  0  0  0  0  0
  131.8410  119.4530   75.5455 H   0  0  0  0  0  0  0  0  0  0  0  0
  128.3140  119.3250   76.2016 H   0  0  0  0  0  0  0  0  0  0  0  0
  129.8176  120.3033   76.3621 H   0  0  0  0  0  0  0  0  0  0  0  0
  128.3181  119.6255   73.7754 H   0  0  0  0  0  0  0  0  0  0  0  0
  128.4813  121.2527   74.5953 H   0  0  0  0  0  0  0  0  0  0  0  0
  131.6402  122.7922   73.2349 H   0  0  0  0  0  0  0  0  0  0  0  0
  131.5175  124.3633   71.3268 H   0  0  0  0  0  0  0  0  0  0  0  0
  130.6681  122.8672   67.6831 H   0  0  0  0  0  0  0  0  0  0  0  0
  132.2671  125.7448   65.3455 H   0  0  0  0  0  0  0  0  0  0  0  0
  132.9818  125.0012   63.0887 H   0  0  0  0  0  0  0  0  0  0  0  0
  132.7153  124.8701   61.0194 H   0  0  0  0  0  0  0  0  0  0  0  0
  133.8411  123.4734   61.3511 H   0  0  0  0  0  0  0  0  0  0  0  0
  132.0208  123.8013   58.9152 H   0  0  0  0  0  0  0  0  0  0  0  0
  133.8139  123.9567   58.9542 H   0  0  0  0  0  0  0  0  0  0  0  0
  131.0458  121.6741   59.2976 H   0  0  0  0  0  0  0  0  0  0  0  0
  132.1230  120.2691   59.6268 H   0  0  0  0  0  0  0  0  0  0  0  0
  130.9887  121.1361   61.6953 H   0  0  0  0  0  0  0  0  0  0  0  0
  132.8098  121.2435   61.7583 H   0  0  0  0  0  0  0  0  0  0  0  0
  129.7791  122.1027   63.0334 H   0  0  0  0  0  0  0  0  0  0  0  0
  129.0651  122.8506   65.2879 H   0  0  0  0  0  0  0  0  0  0  0  0
  1  2  1  0
  2  3  2  0
  3  4  1  0
  4  5  2  0
  4  6  1  0
  6  7  1  0
  7  8  2  0
  8  9  1  0
  9 10  2  0
 10 11  1  0
  3 12  1  0
 12 13  1  0
 13 14  2  0
 14 15  1  0
 15 16  1  0
 16 17  2  0
 17 18  1  0
 18 19  2  0
 19 20  1  0
 20 21  1  0
 21 22  1  0
 22 23  1  0
 23 24  1  0
 24 25  1  0
 19 26  1  0
 26 27  2  0
 15 28  2  0
 28 29  1  0
 29 30  1  0
 30 31  2  0
 31 32  1  0
 32 33  2  0
 33 34  1  0
 34 35  1  0
 35 36  1  0
 36 37  1  0
 37 38  1  0
 38 39  1  0
 33 40  1  0
 40 41  2  0
 29 42  2  0
 42  2  1  0
 11  7  1  0
 42 13  1  0
 27 16  1  0
 41 30  1  0
 25 20  1  0
 39 34  1  0
  1 43  1  0
  1 44  1  0
  6 45  1  0
  9 46  1  0
 10 47  1  0
 17 48  1  0
 18 49  1  0
 21 50  1  0
 21 51  1  0
 22 52  1  0
 22 53  1  0
 24 54  1  0
 24 55  1  0
 25 56  1  0
 25 57  1  0
 26 58  1  0
 27 59  1  0
 28 60  1  0
 31 61  1  0
 32 62  1  0
 35 63  1  0
 35 64  1  0
 36 65  1  0
 36 66  1  0
 38 67  1  0
 38 68  1  0
 39 69  1  0
 39 70  1  0
 40 71  1  0
 41 72  1  0
M  END
>  <Binding energies>  (1) 
[-8.61]

>  <Ligand effiencies>  (1) 
[-0.19133333333333333]

>  <Interactions>  (1) 
["V-B:GLU:543:CG:9875, V-A:HIS:456:CE1:4064, V-B:ALA:541:CB:9860, V-B:GLU:543:CB:9874, V-B:TYR:539:CD2:9842, V-A:LEU:475:CD2:4254, V-A:GLU:543:CB:4901, V-B:TYR:539:CE2:9844, V-A:ILE:369:CD1:3234, V-A:ASP:366:CG:3208, V-B:HIS:456:CE1:9037, V-A:TYR:484:CZ:4342, V-A:GLU:543:CG:4902, V-B:GLU:543:C:9870, H-B:TYR:484:OH:9315, V-A:TYR:484:CE1:4340, V-B:GLU:543:CA:9872, V-A:GLU:543:CD:4903, V-B:GLU:543:CD:9876, H-A:GLU:543:OE2:4905, H-A:HIS:456:NE2:4065, H-A:GLU:543:OE1:4904, V-A:TYR:484:CG:4337, V-A:TYR:484:CD1:4338, V-A:ASP:473:CG:4235, V-A:HIS:456:CG:4061, V-A:ASP:473:CB:4234, V-A:ALA:541:CB:4887, H-B:GLU:543:OE2:9878, V-A:HIS:456:CD2:4063, V-A:TYR:484:CB:4336, V-A:TYR:484:C:4332, V-A:ASP:485:CA:4348, V-A:TYR:484:CA:4334"]

$$$$
9d_Ghoteimi_2023
     RDKit          3D

 68 73  0  0  0  0  0  0  0  0999 V2000
  123.8600  132.4730   62.5400 C   0  0  0  0  0  0  0  0  0  0  0  0
  123.5700  131.2620   63.2220 O   0  0  0  0  0  0  0  0  0  0  0  0
  124.2310  130.9290   64.3610 C   0  0  0  0  0  0  0  0  0  0  0  0
  123.9010  131.3100   65.4870 O   0  0  0  0  0  0  0  0  0  0  0  0
  125.4020  130.0580   64.1140 C   0  0  0  0  0  0  0  0  0  0  0  0
  125.7770  129.5360   62.4720 S   0  0  0  0  0  0  0  0  0  0  0  0
  127.1840  128.6610   63.0300 C   0  0  0  0  0  0  0  0  0  0  0  0
  127.9860  128.0170   62.1830 N   0  0  0  0  0  0  0  0  0  0  0  0
  129.0630  127.3820   62.7150 C   0  0  0  0  0  0  0  0  0  0  0  0
  129.9620  126.6860   61.7440 C   0  0  0  0  0  0  0  0  0  0  0  0
  130.2200  127.2470   60.4890 C   0  0  0  0  0  0  0  0  0  0  0  0
  131.0540  126.6070   59.5760 C   0  0  0  0  0  0  0  0  0  0  0  0
  131.6710  125.3860   59.8910 C   0  0  0  0  0  0  0  0  0  0  0  0
  132.4980  124.7220   58.9780 N   0  0  0  0  0  0  0  0  0  0  0  0
  133.2770  123.5300   59.3720 C   0  0  0  0  0  0  0  0  0  0  0  0
  134.3790  123.1440   58.3640 C   0  0  0  0  0  0  0  0  0  0  0  0
  133.8190  122.9800   57.0720 O   0  0  0  0  0  0  0  0  0  0  0  0
  133.2150  124.1780   56.6120 C   0  0  0  0  0  0  0  0  0  0  0  0
  132.0770  124.6000   57.5660 C   0  0  0  0  0  0  0  0  0  0  0  0
  131.3970  124.8210   61.1450 C   0  0  0  0  0  0  0  0  0  0  0  0
  130.5610  125.4600   62.0560 C   0  0  0  0  0  0  0  0  0  0  0  0
  129.3160  127.3660   64.0890 C   0  0  0  0  0  0  0  0  0  0  0  0
  128.4660  128.0260   64.9850 C   0  0  0  0  0  0  0  0  0  0  0  0
  128.7660  127.9540   66.4390 C   0  0  0  0  0  0  0  0  0  0  0  0
  128.7900  126.7250   67.1020 C   0  0  0  0  0  0  0  0  0  0  0  0
  129.0900  126.6610   68.4610 C   0  0  0  0  0  0  0  0  0  0  0  0
  129.3900  127.8240   69.1880 C   0  0  0  0  0  0  0  0  0  0  0  0
  129.6850  127.7870   70.5520 N   0  0  0  0  0  0  0  0  0  0  0  0
  129.3620  126.5710   71.3240 C   0  0  0  0  0  0  0  0  0  0  0  0
  130.0780  126.5090   72.6900 C   0  0  0  0  0  0  0  0  0  0  0  0
  129.7910  127.6780   73.4430 O   0  0  0  0  0  0  0  0  0  0  0  0
  130.2240  128.8530   72.7730 C   0  0  0  0  0  0  0  0  0  0  0  0
  129.5070  128.9740   71.4110 C   0  0  0  0  0  0  0  0  0  0  0  0
  129.3620  129.0520   68.5110 C   0  0  0  0  0  0  0  0  0  0  0  0
  129.0610  129.1160   67.1540 C   0  0  0  0  0  0  0  0  0  0  0  0
  127.3550  128.7320   64.4450 C   0  0  0  0  0  0  0  0  0  0  0  0
  126.3310  129.5540   65.0330 C   0  0  0  0  0  0  0  0  0  0  0  0
  126.2820  129.8380   66.3740 N   0  0  0  0  0  0  0  0  0  0  0  0
  124.0509  133.2702   63.2735 H   0  0  0  0  0  0  0  0  0  0  0  0
  124.7503  132.3343   61.9091 H   0  0  0  0  0  0  0  0  0  0  0  0
  123.0034  132.7527   61.9091 H   0  0  0  0  0  0  0  0  0  0  0  0
  129.7573  128.2078   60.2193 H   0  0  0  0  0  0  0  0  0  0  0  0
  131.2323  127.0655   58.5921 H   0  0  0  0  0  0  0  0  0  0  0  0
  133.7513  123.7316   60.3438 H   0  0  0  0  0  0  0  0  0  0  0  0
  132.5721  122.6866   59.4138 H   0  0  0  0  0  0  0  0  0  0  0  0
  135.1391  123.9386   58.3333 H   0  0  0  0  0  0  0  0  0  0  0  0
  134.8414  122.1972   58.6798 H   0  0  0  0  0  0  0  0  0  0  0  0
  133.9718  124.9753   56.5737 H   0  0  0  0  0  0  0  0  0  0  0  0
  132.7983  124.0082   55.6082 H   0  0  0  0  0  0  0  0  0  0  0  0
  131.6893  125.5744   57.2340 H   0  0  0  0  0  0  0  0  0  0  0  0
  131.3144  123.8083   57.5258 H   0  0  0  0  0  0  0  0  0  0  0  0
  131.8509  123.8556   61.4134 H   0  0  0  0  0  0  0  0  0  0  0  0
  130.3684  124.9953   63.0343 H   0  0  0  0  0  0  0  0  0  0  0  0
  130.1952  126.8274   64.4723 H   0  0  0  0  0  0  0  0  0  0  0  0
  128.5705  125.8009   66.5472 H   0  0  0  0  0  0  0  0  0  0  0  0
  129.0918  125.6864   68.9711 H   0  0  0  0  0  0  0  0  0  0  0  0
  128.2760  126.5452   71.4972 H   0  0  0  0  0  0  0  0  0  0  0  0
  129.7075  125.7087   70.7348 H   0  0  0  0  0  0  0  0  0  0  0  0
  129.7299  125.6246   73.2438 H   0  0  0  0  0  0  0  0  0  0  0  0
  131.1637  126.4433   72.5256 H   0  0  0  0  0  0  0  0  0  0  0  0
  129.9875  129.7328   73.3894 H   0  0  0  0  0  0  0  0  0  0  0  0
  131.3100  128.7969   72.6075 H   0  0  0  0  0  0  0  0  0  0  0  0
  128.4315  129.1152   71.5936 H   0  0  0  0  0  0  0  0  0  0  0  0
  129.9525  129.8295   70.8823 H   0  0  0  0  0  0  0  0  0  0  0  0
  129.5814  129.9788   69.0613 H   0  0  0  0  0  0  0  0  0  0  0  0
  129.0555  130.0891   66.6411 H   0  0  0  0  0  0  0  0  0  0  0  0
  125.7150  130.5900   66.7390 H   0  0  0  0  0  0  0  0  0  0  0  0
  126.8100  129.2990   67.0460 H   0  0  0  0  0  0  0  0  0  0  0  0
  1  2  1  0
  2  3  1  0
  3  4  2  0
  3  5  1  0
  5  6  1  0
  6  7  1  0
  7  8  2  0
  8  9  1  0
  9 10  1  0
 10 11  2  0
 11 12  1  0
 12 13  2  0
 13 14  1  0
 14 15  1  0
 15 16  1  0
 16 17  1  0
 17 18  1  0
 18 19  1  0
 13 20  1  0
 20 21  2  0
  9 22  2  0
 22 23  1  0
 23 24  1  0
 24 25  2  0
 25 26  1  0
 26 27  2  0
 27 28  1  0
 28 29  1  0
 29 30  1  0
 30 31  1  0
 31 32  1  0
 32 33  1  0
 27 34  1  0
 34 35  2  0
 23 36  2  0
 36 37  1  0
 37 38  1  0
 37  5  2  0
 36  7  1  0
 21 10  1  0
 35 24  1  0
 19 14  1  0
 33 28  1  0
  1 39  1  0
  1 40  1  0
  1 41  1  0
 11 42  1  0
 12 43  1  0
 15 44  1  0
 15 45  1  0
 16 46  1  0
 16 47  1  0
 18 48  1  0
 18 49  1  0
 19 50  1  0
 19 51  1  0
 20 52  1  0
 21 53  1  0
 22 54  1  0
 25 55  1  0
 26 56  1  0
 29 57  1  0
 29 58  1  0
 30 59  1  0
 30 60  1  0
 32 61  1  0
 32 62  1  0
 33 63  1  0
 33 64  1  0
 34 65  1  0
 35 66  1  0
 38 67  1  0
 38 68  1  0
M  END
>  <Binding energies>  (1) 
[-7.85]

>  <Ligand effiencies>  (1) 
[-0.19624999999999998]

>  <Interactions>  (1) 
["V-B:GLU:543:CG:9875, V-A:HIS:456:CE1:4064, H-B:LYS:547:NZ:9919, V-B:GLU:543:CB:9874, V-A:GLU:543:CB:4901, V-A:ILE:369:CD1:3234, V-B:TYR:539:CZ:9845, V-A:ASP:366:CA:3205, V-A:ILE:369:CB:3231, V-A:ASN:370:CB:3240, V-A:ASP:366:CG:3208, V-B:HIS:456:CE1:9037, V-A:ASP:366:CB:3207, V-A:ASP:366:C:3203, V-A:GLU:543:CG:4902, H-B:HIS:456:NE2:9038, H-B:TYR:484:OH:9315, V-A:GLU:543:CD:4903, V-A:ILE:369:CG2:3232, V-A:LYS:547:CE:4945, V-B:HIS:456:CD2:9035, V-B:TYR:484:CZ:9314, V-A:TYR:531:CZ:4789, H-A:LYS:547:NZ:4946, V-B:LEU:475:CD2:9226, V-A:TYR:531:CE1:4787, H-B:TYR:539:OH:9846, V-B:ILE:369:CD1:8206, V-A:ILE:369:CG1:3233, H-B:GLY:454:N:9017, V-B:GLY:454:CA:9016, H-A:ASN:370:N:3239"]

$$$$
RR10_Rahimova_2017
     RDKit          3D

 66 70  0  0  0  0  0  0  0  0999 V2000
  128.0900  126.3420   57.1260 C   0  0  0  0  0  0  0  0  0  0  0  0
  127.1690  125.6910   58.1720 C   0  0  1  0  0  0  0  0  0  0  0  0
  127.3440  124.1550   58.2190 C   0  0  0  0  0  0  0  0  0  0  0  0
  126.3850  123.5190   59.2510 C   0  0  0  0  0  0  0  0  0  0  0  0
  126.5900  124.0980   60.6740 C   0  0  1  0  0  0  0  0  0  0  0  0
  127.8920  123.6910   61.2190 N   0  0  0  0  0  0  0  0  0  0  0  0
  128.4950  122.5080   60.9980 C   0  0  0  0  0  0  0  0  0  0  0  0
  128.0110  121.6320   60.2780 O   0  0  0  0  0  0  0  0  0  0  0  0
  129.8450  122.2740   61.7080 C   0  0  1  0  0  0  0  0  0  0  0  0
  130.7780  121.4540   60.7800 C   0  0  0  0  0  0  0  0  0  0  0  0
  132.1640  121.2960   61.4500 C   0  0  0  0  0  0  0  0  0  0  0  0
  132.7600  122.6480   61.9050 C   0  0  0  0  0  0  0  0  0  0  0  0
  131.7810  123.4000   62.7350 N   0  0  0  0  0  0  0  0  0  0  0  0
  132.4530  124.8190   63.5560 S   0  0  0  0  0  0  0  0  0  0  0  0
  132.1740  126.0000   62.7300 O   0  0  0  0  0  0  0  0  0  0  0  0
  133.8320  124.5010   63.9500 O   0  0  0  0  0  0  0  0  0  0  0  0
  131.4800  124.9960   65.0520 C   0  0  0  0  0  0  0  0  0  0  0  0
  130.6060  123.9700   65.4260 C   0  0  0  0  0  0  0  0  0  0  0  0
  129.8190  124.0470   66.5780 C   0  0  0  0  0  0  0  0  0  0  0  0
  129.9490  125.2070   67.3460 C   0  0  0  0  0  0  0  0  0  0  0  0
  129.3630  125.6500   68.5080 N   0  0  0  0  0  0  0  0  0  0  0  0
  129.8860  126.8920   68.8000 C   0  0  0  0  0  0  0  0  0  0  0  0
  129.4810  127.7040   69.9970 C   0  0  0  0  0  0  0  0  0  0  0  0
  128.2270  127.5120   70.5940 C   0  0  0  0  0  0  0  0  0  0  0  0
  127.8520  128.2610   71.7050 C   0  0  0  0  0  0  0  0  0  0  0  0
  128.7290  129.2090   72.2270 C   0  0  0  0  0  0  0  0  0  0  0  0
  129.9770  129.4120   71.6470 C   0  0  0  0  0  0  0  0  0  0  0  0
  130.3520  128.6620   70.5350 C   0  0  0  0  0  0  0  0  0  0  0  0
  130.7740  127.2750   67.9090 N   0  0  0  0  0  0  0  0  0  0  0  0
  130.8320  126.2560   66.9950 C   0  0  0  0  0  0  0  0  0  0  0  0
  131.6120  126.1490   65.8350 C   0  0  0  0  0  0  0  0  0  0  0  0
  130.4860  123.6410   62.0500 C   0  0  0  0  0  0  0  0  0  0  0  0
  126.4280  125.6410   60.6080 C   0  0  0  0  0  0  0  0  0  0  0  0
  127.3910  126.2810   59.5840 C   0  0  0  0  0  0  0  0  0  0  0  0
  128.8854  126.9042   57.6371 H   0  0  0  0  0  0  0  0  0  0  0  0
  128.5400  125.5602   56.4965 H   0  0  0  0  0  0  0  0  0  0  0  0
  127.5032  127.0271   56.4965 H   0  0  0  0  0  0  0  0  0  0  0  0
  126.1403  125.9175   57.8551 H   0  0  0  0  0  0  0  0  0  0  0  0
  127.1294  123.7380   57.2240 H   0  0  0  0  0  0  0  0  0  0  0  0
  128.3786  123.9293   58.5168 H   0  0  0  0  0  0  0  0  0  0  0  0
  125.3484  123.7103   58.9365 H   0  0  0  0  0  0  0  0  0  0  0  0
  126.5982  122.4406   59.2909 H   0  0  0  0  0  0  0  0  0  0  0  0
  125.8313  123.6975   61.3625 H   0  0  0  0  0  0  0  0  0  0  0  0
  128.2980  124.3130   61.9030 H   0  0  0  0  0  0  0  0  0  0  0  0
  129.6881  121.7112   62.6400 H   0  0  0  0  0  0  0  0  0  0  0  0
  130.3399  120.4602   60.6053 H   0  0  0  0  0  0  0  0  0  0  0  0
  130.8928  121.9784   59.8199 H   0  0  0  0  0  0  0  0  0  0  0  0
  132.0583  120.6435   62.3292 H   0  0  0  0  0  0  0  0  0  0  0  0
  132.8478  120.8635   60.7048 H   0  0  0  0  0  0  0  0  0  0  0  0
  133.6680  122.4616   62.4973 H   0  0  0  0  0  0  0  0  0  0  0  0
  133.0023  123.2460   61.0141 H   0  0  0  0  0  0  0  0  0  0  0  0
  130.5359  123.0734   64.7926 H   0  0  0  0  0  0  0  0  0  0  0  0
  129.1329  123.2366   66.8653 H   0  0  0  0  0  0  0  0  0  0  0  0
  128.6670  125.1920   69.0790 H   0  0  0  0  0  0  0  0  0  0  0  0
  127.5345  126.7637   70.1810 H   0  0  0  0  0  0  0  0  0  0  0  0
  126.8670  128.1052   72.1692 H   0  0  0  0  0  0  0  0  0  0  0  0
  128.4323  129.8018   73.1048 H   0  0  0  0  0  0  0  0  0  0  0  0
  130.6648  130.1618   72.0649 H   0  0  0  0  0  0  0  0  0  0  0  0
  131.3385  128.8224   70.0756 H   0  0  0  0  0  0  0  0  0  0  0  0
  132.3093  126.9498   65.5477 H   0  0  0  0  0  0  0  0  0  0  0  0
  129.8164  124.2086   62.7129 H   0  0  0  0  0  0  0  0  0  0  0  0
  130.6505  124.2193   61.1289 H   0  0  0  0  0  0  0  0  0  0  0  0
  125.3935  125.8773   60.3184 H   0  0  0  0  0  0  0  0  0  0  0  0
  126.6669  126.0503   61.6007 H   0  0  0  0  0  0  0  0  0  0  0  0
  127.2136  127.3661   59.5526 H   0  0  0  0  0  0  0  0  0  0  0  0
  128.4247  126.0688   59.8944 H   0  0  0  0  0  0  0  0  0  0  0  0
  1  2  1  0
  2  3  1  0
  3  4  1  0
  4  5  1  0
  5  6  1  0
  6  7  1  0
  7  8  2  0
  7  9  1  0
  9 10  1  0
 10 11  1  0
 11 12  1  0
 12 13  1  0
 13 14  1  0
 14 15  2  0
 14 16  2  0
 14 17  1  0
 17 18  2  0
 18 19  1  0
 19 20  2  0
 20 21  1  0
 21 22  1  0
 22 23  1  0
 23 24  2  0
 24 25  1  0
 25 26  2  0
 26 27  1  0
 27 28  2  0
 22 29  2  0
 29 30  1  0
 30 31  2  0
 13 32  1  0
  5 33  1  0
 33 34  1  0
 34  2  1  0
 32  9  1  0
 31 17  1  0
 30 20  1  0
 28 23  1  0
  1 35  1  0
  1 36  1  0
  1 37  1  0
  2 38  1  6
  3 39  1  0
  3 40  1  0
  4 41  1  0
  4 42  1  0
  5 43  1  1
  6 44  1  0
  9 45  1  1
 10 46  1  0
 10 47  1  0
 11 48  1  0
 11 49  1  0
 12 50  1  0
 12 51  1  0
 18 52  1  0
 19 53  1  0
 21 54  1  0
 24 55  1  0
 25 56  1  0
 26 57  1  0
 27 58  1  0
 28 59  1  0
 31 60  1  0
 32 61  1  0
 32 62  1  0
 33 63  1  0
 33 64  1  0
 34 65  1  0
 34 66  1  0
M  END
>  <Binding energies>  (1) 
[-8.77]

>  <Ligand effiencies>  (1) 
[-0.2436111111111111]

>  <Interactions>  (1) 
["V-B:GLU:543:CG:9875, H-B:GLU:543:O:9871, V-A:HIS:456:CE1:4064, V-B:ALA:541:CB:9860, V-B:GLU:543:CB:9874, V-A:LEU:475:CD2:4254, V-B:HIS:456:CE1:9037, V-A:TYR:484:CZ:4342, V-B:GLU:543:C:9870, V-A:TYR:484:CE1:4340, V-B:GLU:543:CA:9872, V-A:GLU:543:CD:4903, V-B:GLU:543:CD:9876, H-A:TYR:484:OH:4343, H-A:ARG:545:NH2:4923, H-A:GLY:454:N:4045, V-B:PRO:540:CB:9853, H-B:ALA:541:N:9859, V-B:PRO:540:CA:9851, H-A:HIS:456:NE2:4065, V-A:GLY:544:C:4907, V-A:GLU:543:C:4897, V-B:HIS:456:CD2:9035, V-B:HIS:456:CG:9033, H-B:GLU:543:OE2:9878, V-B:PRO:540:N:9852"]

$$$$
RR11_Rahimova_2017
     RDKit          3D

 55 60  0  0  0  0  0  0  0  0999 V2000
  124.8620  129.6440   57.5180 N   0  0  0  0  0  0  0  0  0  0  0  0
  125.2810  129.5160   58.8410 C   0  0  0  0  0  0  0  0  0  0  0  0
  125.0800  130.5650   59.7360 C   0  0  0  0  0  0  0  0  0  0  0  0
  125.4960  130.4350   61.0580 C   0  0  0  0  0  0  0  0  0  0  0  0
  126.1160  129.2570   61.4970 C   0  0  0  0  0  0  0  0  0  0  0  0
  126.5580  129.1160   62.9240 C   0  0  0  0  0  0  0  0  0  0  0  0
  127.4520  129.8870   63.5040 N   0  0  0  0  0  0  0  0  0  0  0  0
  127.5460  129.4270   64.7910 C   0  0  0  0  0  0  0  0  0  0  0  0
  128.3460  129.8950   65.8420 C   0  0  0  0  0  0  0  0  0  0  0  0
  128.2480  129.2600   67.0870 C   0  0  0  0  0  0  0  0  0  0  0  0
  129.1100  129.7420   68.2460 C   0  0  0  0  0  0  0  0  0  0  0  0
  129.1940  128.7330   69.3820 C   0  0  0  0  0  0  0  0  0  0  0  0
  129.1260  129.1790   70.7070 C   0  0  0  0  0  0  0  0  0  0  0  0
  129.1900  128.2910   71.7830 C   0  0  0  0  0  0  0  0  0  0  0  0
  129.3200  126.9240   71.5040 C   0  0  0  0  0  0  0  0  0  0  0  0
  129.4100  125.8660   72.3710 N   0  0  0  0  0  0  0  0  0  0  0  0
  129.5210  124.8010   71.6070 C   0  0  0  0  0  0  0  0  0  0  0  0
  129.6650  123.3980   72.1230 C   0  0  0  0  0  0  0  0  0  0  0  0
  128.5320  122.6440   72.4580 C   0  0  0  0  0  0  0  0  0  0  0  0
  128.6650  121.3470   72.9460 C   0  0  0  0  0  0  0  0  0  0  0  0
  129.9340  120.7940   73.1040 C   0  0  0  0  0  0  0  0  0  0  0  0
  130.0690  119.4960   73.5980 N   0  0  0  0  0  0  0  0  0  0  0  0
  131.0690  121.5290   72.7710 C   0  0  0  0  0  0  0  0  0  0  0  0
  130.9340  122.8260   72.2830 C   0  0  0  0  0  0  0  0  0  0  0  0
  129.5000  125.1220   70.2660 N   0  0  0  0  0  0  0  0  0  0  0  0
  129.3740  126.4860   70.1590 C   0  0  0  0  0  0  0  0  0  0  0  0
  129.3050  127.3690   69.0790 C   0  0  0  0  0  0  0  0  0  0  0  0
  127.3900  128.1690   67.2650 C   0  0  0  0  0  0  0  0  0  0  0  0
  126.5840  127.6770   66.2360 C   0  0  0  0  0  0  0  0  0  0  0  0
  126.6790  128.3300   65.0050 C   0  0  0  0  0  0  0  0  0  0  0  0
  126.0660  128.1580   63.7860 N   0  0  0  0  0  0  0  0  0  0  0  0
  126.3120  128.2110   60.5860 C   0  0  0  0  0  0  0  0  0  0  0  0
  125.8960  128.3380   59.2630 C   0  0  0  0  0  0  0  0  0  0  0  0
  124.8410  130.5590   57.0890 H   0  0  0  0  0  0  0  0  0  0  0  0
  124.6240  128.8170   56.9910 H   0  0  0  0  0  0  0  0  0  0  0  0
  124.5943  131.4926   59.3990 H   0  0  0  0  0  0  0  0  0  0  0  0
  125.3369  131.2635   61.7639 H   0  0  0  0  0  0  0  0  0  0  0  0
  129.0341  130.7402   65.6932 H   0  0  0  0  0  0  0  0  0  0  0  0
  130.1263  129.9339   67.8713 H   0  0  0  0  0  0  0  0  0  0  0  0
  128.6427  130.6531   68.6480 H   0  0  0  0  0  0  0  0  0  0  0  0
  129.0195  130.2556   70.9057 H   0  0  0  0  0  0  0  0  0  0  0  0
  129.1398  128.6544   72.8200 H   0  0  0  0  0  0  0  0  0  0  0  0
  127.5299  123.0805   72.3344 H   0  0  0  0  0  0  0  0  0  0  0  0
  127.7713  120.7608   73.2060 H   0  0  0  0  0  0  0  0  0  0  0  0
  129.5980  118.7350   73.1300 H   0  0  0  0  0  0  0  0  0  0  0  0
  130.6640  119.3290   74.3970 H   0  0  0  0  0  0  0  0  0  0  0  0
  132.0686  121.0865   72.8931 H   0  0  0  0  0  0  0  0  0  0  0  0
  131.8309  123.4064   72.0209 H   0  0  0  0  0  0  0  0  0  0  0  0
  129.5740  124.4350   69.5300 H   0  0  0  0  0  0  0  0  0  0  0  0
  129.3363  127.0108   68.0394 H   0  0  0  0  0  0  0  0  0  0  0  0
  127.3489  127.6816   68.2503 H   0  0  0  0  0  0  0  0  0  0  0  0
  125.9102  126.8207   66.3870 H   0  0  0  0  0  0  0  0  0  0  0  0
  125.3730  127.4750   63.5190 H   0  0  0  0  0  0  0  0  0  0  0  0
  126.7983  127.2820   60.9183 H   0  0  0  0  0  0  0  0  0  0  0  0
  126.0520  127.5120   58.5536 H   0  0  0  0  0  0  0  0  0  0  0  0
  1  2  1  0
  2  3  2  0
  3  4  1  0
  4  5  2  0
  5  6  1  0
  6  7  2  0
  7  8  1  0
  8  9  2  0
  9 10  1  0
 10 11  1  0
 11 12  1  0
 12 13  2  0
 13 14  1  0
 14 15  2  0
 15 16  1  0
 16 17  2  0
 17 18  1  0
 18 19  2  0
 19 20  1  0
 20 21  2  0
 21 22  1  0
 21 23  1  0
 23 24  2  0
 17 25  1  0
 25 26  1  0
 26 27  2  0
 10 28  2  0
 28 29  1  0
 29 30  2  0
 30 31  1  0
  5 32  1  0
 32 33  2  0
 33  2  1  0
 31  6  1  0
 30  8  1  0
 27 12  1  0
 26 15  1  0
 24 18  1  0
  1 34  1  0
  1 35  1  0
  3 36  1  0
  4 37  1  0
  9 38  1  0
 11 39  1  0
 11 40  1  0
 13 41  1  0
 14 42  1  0
 19 43  1  0
 20 44  1  0
 22 45  1  0
 22 46  1  0
 23 47  1  0
 24 48  1  0
 25 49  1  0
 27 50  1  0
 28 51  1  0
 29 52  1  0
 31 53  1  0
 32 54  1  0
 33 55  1  0
M  END
>  <Binding energies>  (1) 
[-7.56]

>  <Ligand effiencies>  (1) 
[-0.19384615384615383]

>  <Interactions>  (1) 
["H-B:GLU:543:O:9871, V-A:HIS:456:CE1:4064, H-B:LYS:547:NZ:9919, V-B:GLU:543:CB:9874, V-A:GLU:543:CB:4901, V-B:HIS:456:CE1:9037, V-A:GLU:543:CG:4902, V-B:GLU:543:C:9870, V-A:GLU:543:CD:4903, V-B:GLU:543:CD:9876, V-A:TYR:484:CG:4337, V-A:GLU:543:C:4897, V-B:HIS:456:CD2:9035, V-A:HIS:456:CG:4061, V-A:ASP:473:CB:4234, V-B:ASP:366:CB:8179, H-B:GLU:543:OE2:9878, V-B:ASP:366:CG:8180, H-B:GLU:543:OE1:9877, V-B:ARG:545:CZ:9894, H-A:TYR:539:OH:4873, V-A:TYR:484:CB:4336, V-A:GLU:543:CA:4899, H-B:TYR:531:OH:9763, V-A:TYR:484:CD2:4339, V-A:TYR:484:C:4332, V-B:GLY:544:CA:9882, H-A:TYR:484:O:4333"]

$$$$
RR11_Rahimova_2017-again1
     RDKit          3D

 56 61  0  0  0  0  0  0  0  0999 V2000
  131.4600  127.2080   73.6790 N   0  0  0  0  0  0  0  0  0  0  0  0
  130.7560  127.3570   72.4850 C   0  0  0  0  0  0  0  0  0  0  0  0
  130.9710  128.4800   71.6890 C   0  0  0  0  0  0  0  0  0  0  0  0
  130.2640  128.6290   70.4970 C   0  0  0  0  0  0  0  0  0  0  0  0
  129.3380  127.6580   70.0940 C   0  0  0  0  0  0  0  0  0  0  0  0
  128.5710  127.8240   68.8140 C   0  0  0  0  0  0  0  0  0  0  0  0
  127.3350  127.4170   68.6310 N   0  0  0  0  0  0  0  0  0  0  0  0
  127.0340  127.7420   67.3340 C   0  0  0  0  0  0  0  0  0  0  0  0
  125.8490  127.5290   66.6180 C   0  0  0  0  0  0  0  0  0  0  0  0
  125.8010  127.9470   65.2870 C   0  0  0  0  0  0  0  0  0  0  0  0
  126.8970  128.5590   64.6700 C   0  0  0  0  0  0  0  0  0  0  0  0
  126.7920  128.9910   63.2140 C   0  0  0  0  0  0  0  0  0  0  0  0
  128.0450  128.6650   62.4140 C   0  0  0  0  0  0  0  0  0  0  0  0
  129.0300  129.6450   62.2430 C   0  0  0  0  0  0  0  0  0  0  0  0
  130.1990  129.4050   61.5170 C   0  0  0  0  0  0  0  0  0  0  0  0
  130.3450  128.1280   60.9670 C   0  0  0  0  0  0  0  0  0  0  0  0
  131.3510  127.5610   60.1960 N   0  0  0  0  0  0  0  0  0  0  0  0
  131.0330  126.2590   59.8880 C   0  0  0  0  0  0  0  0  0  0  0  0
  131.8390  125.3080   59.0640 C   0  0  0  0  0  0  0  0  0  0  0  0
  132.8460  124.5400   59.6620 C   0  0  0  0  0  0  0  0  0  0  0  0
  133.5940  123.6460   58.9010 C   0  0  0  0  0  0  0  0  0  0  0  0
  133.3400  123.5160   57.5370 C   0  0  0  0  0  0  0  0  0  0  0  0
  134.0870  122.6180   56.7770 N   0  0  0  0  0  0  0  0  0  0  0  0
  132.3410  124.2770   56.9310 C   0  0  0  0  0  0  0  0  0  0  0  0
  131.5930  125.1710   57.6930 C   0  0  0  0  0  0  0  0  0  0  0  0
  129.8170  126.0060   60.4810 N   0  0  0  0  0  0  0  0  0  0  0  0
  129.3670  127.1360   61.1480 C   0  0  0  0  0  0  0  0  0  0  0  0
  128.2020  127.3790   61.8800 C   0  0  0  0  0  0  0  0  0  0  0  0
  128.0850  128.8040   65.3730 C   0  0  0  0  0  0  0  0  0  0  0  0
  128.1300  128.3770   66.7020 C   0  0  0  0  0  0  0  0  0  0  0  0
  129.0920  128.4170   67.6830 N   0  0  0  0  0  0  0  0  0  0  0  0
  129.1330  126.5330   70.9040 C   0  0  0  0  0  0  0  0  0  0  0  0
  129.8390  126.3830   72.0950 C   0  0  0  0  0  0  0  0  0  0  0  0
  131.0300  126.7190   74.4510 H   0  0  0  0  0  0  0  0  0  0  0  0
  132.3740  127.6250   73.7720 H   0  0  0  0  0  0  0  0  0  0  0  0
  131.6962  129.2464   72.0001 H   0  0  0  0  0  0  0  0  0  0  0  0
  130.4344  129.5154   69.8682 H   0  0  0  0  0  0  0  0  0  0  0  0
  124.9812  127.0462   67.0910 H   0  0  0  0  0  0  0  0  0  0  0  0
  124.8782  127.7912   64.7089 H   0  0  0  0  0  0  0  0  0  0  0  0
  125.9364  128.4746   62.7543 H   0  0  0  0  0  0  0  0  0  0  0  0
  126.6627  130.0833   63.1995 H   0  0  0  0  0  0  0  0  0  0  0  0
  128.8785  130.6363   62.6951 H   0  0  0  0  0  0  0  0  0  0  0  0
  130.9664  130.1820   61.3846 H   0  0  0  0  0  0  0  0  0  0  0  0
  132.2030  128.0010   59.8780 H   0  0  0  0  0  0  0  0  0  0  0  0
  133.0469  124.6438   60.7385 H   0  0  0  0  0  0  0  0  0  0  0  0
  134.3832  123.0440   59.3750 H   0  0  0  0  0  0  0  0  0  0  0  0
  135.0880  122.7380   56.7050 H   0  0  0  0  0  0  0  0  0  0  0  0
  133.6180  121.8730   56.2830 H   0  0  0  0  0  0  0  0  0  0  0  0
  132.1443  124.1715   55.8539 H   0  0  0  0  0  0  0  0  0  0  0  0
  130.8053  125.7721   57.2153 H   0  0  0  0  0  0  0  0  0  0  0  0
  129.3570  125.1110   60.4060 H   0  0  0  0  0  0  0  0  0  0  0  0
  127.4431  126.5970   62.0302 H   0  0  0  0  0  0  0  0  0  0  0  0
  128.9407  129.3084   64.9004 H   0  0  0  0  0  0  0  0  0  0  0  0
  130.0290  128.7910   67.6340 H   0  0  0  0  0  0  0  0  0  0  0  0
  128.4096  125.7633   70.5970 H   0  0  0  0  0  0  0  0  0  0  0  0
  129.6731  125.4977   72.7264 H   0  0  0  0  0  0  0  0  0  0  0  0
  1  2  1  0
  2  3  2  0
  3  4  1  0
  4  5  2  0
  5  6  1  0
  6  7  2  0
  7  8  1  0
  8  9  2  0
  9 10  1  0
 10 11  2  0
 11 12  1  0
 12 13  1  0
 13 14  2  0
 14 15  1  0
 15 16  2  0
 16 17  1  0
 17 18  1  0
 18 19  1  0
 19 20  2  0
 20 21  1  0
 21 22  2  0
 22 23  1  0
 22 24  1  0
 24 25  2  0
 18 26  2  0
 26 27  1  0
 27 28  2  0
 11 29  1  0
 29 30  2  0
 30 31  1  0
  5 32  1  0
 32 33  2  0
 33  2  1  0
 31  6  1  0
 30  8  1  0
 28 13  1  0
 27 16  1  0
 25 19  1  0
  1 34  1  0
  1 35  1  0
  3 36  1  0
  4 37  1  0
  9 38  1  0
 10 39  1  0
 12 40  1  0
 12 41  1  0
 14 42  1  0
 15 43  1  0
 17 44  1  0
 20 45  1  0
 21 46  1  0
 23 47  1  0
 23 48  1  0
 24 49  1  0
 25 50  1  0
 26 51  1  0
 28 52  1  0
 29 53  1  0
 31 54  1  0
 32 55  1  0
 33 56  1  0
M  CHG  1  26   1
M  END
>  <Binding energies>  (1) 
[-7.97]

>  <Ligand effiencies>  (1) 
[-0.19924999999999998]

>  <Interactions>  (1) 
["V-A:HIS:456:CE1:4064, V-B:GLU:543:CB:9874, V-A:GLU:543:CB:4901, V-B:TYR:539:CE2:9844, V-A:ILE:369:CD1:3234, V-B:TYR:539:CZ:9845, V-A:ASP:366:CA:3205, V-A:ILE:369:CB:3231, V-A:ASN:370:CB:3240, V-A:ASP:366:CG:3208, V-B:HIS:456:CE1:9037, V-A:ASP:366:CB:3207, V-A:GLU:543:CD:4903, V-B:GLU:543:CD:9876, H-A:ASP:366:OD2:3210, V-A:ILE:369:CG2:3232, V-B:ARG:545:CG:9890, H-A:GLU:543:OE1:4904, H-A:HIS:456:ND1:4062, V-A:GLY:544:C:4907, V-A:GLU:543:C:4897, V-A:LYS:547:CE:4945, H-A:GLY:544:O:4908, V-B:ARG:545:CD:9891, V-A:TYR:531:CZ:4789, H-A:TYR:531:OH:4790, V-B:ARG:545:CZ:9894, V-A:TYR:531:CE1:4787, H-B:TYR:539:OH:9846, H-A:ASP:366:O:3204, V-A:ILE:369:C:3227, V-A:ASN:370:CA:3238, V-A:ILE:369:CA:3229"]

$$$$
RR11_Rahimova_2017-again2
     RDKit          3D

 57 62  0  0  0  0  0  0  0  0999 V2000
  134.2060  119.4040   60.6280 N   0  0  0  0  0  0  0  0  0  0  0  0
  133.0930  120.2320   60.4870 C   0  0  0  0  0  0  0  0  0  0  0  0
  133.2630  121.5660   60.1240 C   0  0  0  0  0  0  0  0  0  0  0  0
  132.1520  122.3950   59.9890 C   0  0  0  0  0  0  0  0  0  0  0  0
  130.8650  121.8930   60.2170 C   0  0  0  0  0  0  0  0  0  0  0  0
  129.6730  122.7840   60.0820 C   0  0  0  0  0  0  0  0  0  0  0  0
  129.6360  124.1450   60.2820 N   0  0  0  0  0  0  0  0  0  0  0  0
  128.3560  124.6270   60.0430 C   0  0  0  0  0  0  0  0  0  0  0  0
  127.8230  125.9180   60.1010 C   0  0  0  0  0  0  0  0  0  0  0  0
  126.4690  126.0600   59.7730 C   0  0  0  0  0  0  0  0  0  0  0  0
  125.8320  127.4430   59.8130 C   0  0  0  0  0  0  0  0  0  0  0  0
  125.9850  128.1240   61.1660 C   0  0  0  0  0  0  0  0  0  0  0  0
  125.3100  129.3250   61.4140 C   0  0  0  0  0  0  0  0  0  0  0  0
  125.4120  129.9960   62.6360 C   0  0  0  0  0  0  0  0  0  0  0  0
  126.2210  129.4050   63.6100 C   0  0  0  0  0  0  0  0  0  0  0  0
  126.5480  129.7960   64.9010 N   0  0  0  0  0  0  0  0  0  0  0  0
  127.3950  128.8760   65.4740 C   0  0  0  0  0  0  0  0  0  0  0  0
  127.9900  128.9350   66.8430 C   0  0  0  0  0  0  0  0  0  0  0  0
  127.9930  127.8000   67.6610 C   0  0  0  0  0  0  0  0  0  0  0  0
  128.5570  127.8520   68.9340 C   0  0  0  0  0  0  0  0  0  0  0  0
  129.1220  129.0400   69.3930 C   0  0  0  0  0  0  0  0  0  0  0  0
  129.6920  129.0910   70.6650 N   0  0  0  0  0  0  0  0  0  0  0  0
  129.1210  130.1780   68.5880 C   0  0  0  0  0  0  0  0  0  0  0  0
  128.5570  130.1250   67.3160 C   0  0  0  0  0  0  0  0  0  0  0  0
  127.5930  127.8930   64.5320 N   0  0  0  0  0  0  0  0  0  0  0  0
  126.8890  128.1930   63.3730 C   0  0  0  0  0  0  0  0  0  0  0  0
  126.7800  127.5230   62.1520 C   0  0  0  0  0  0  0  0  0  0  0  0
  125.6850  124.9510   59.4340 C   0  0  0  0  0  0  0  0  0  0  0  0
  126.2110  123.6580   59.3810 C   0  0  0  0  0  0  0  0  0  0  0  0
  127.5670  123.5210   59.6890 C   0  0  0  0  0  0  0  0  0  0  0  0
  128.3990  122.4090   59.7230 N   0  0  0  0  0  0  0  0  0  0  0  0
  130.7060  120.5490   60.5770 C   0  0  0  0  0  0  0  0  0  0  0  0
  131.8170  119.7210   60.7120 C   0  0  0  0  0  0  0  0  0  0  0  0
  134.4240  118.7360   59.9020 H   0  0  0  0  0  0  0  0  0  0  0  0
  134.7430  119.4330   61.4820 H   0  0  0  0  0  0  0  0  0  0  0  0
  134.2726  121.9639   59.9443 H   0  0  0  0  0  0  0  0  0  0  0  0
  132.2862  123.4484   59.7021 H   0  0  0  0  0  0  0  0  0  0  0  0
  130.4510  124.6730   60.5560 H   0  0  0  0  0  0  0  0  0  0  0  0
  128.4386  126.7823   60.3909 H   0  0  0  0  0  0  0  0  0  0  0  0
  126.3091  128.0720   59.0470 H   0  0  0  0  0  0  0  0  0  0  0  0
  124.7554  127.3174   59.6253 H   0  0  0  0  0  0  0  0  0  0  0  0
  124.6791  129.7545   60.6219 H   0  0  0  0  0  0  0  0  0  0  0  0
  124.8820  130.9419   62.8216 H   0  0  0  0  0  0  0  0  0  0  0  0
  126.2400  130.6250   65.3890 H   0  0  0  0  0  0  0  0  0  0  0  0
  127.5480  126.8621   67.2974 H   0  0  0  0  0  0  0  0  0  0  0  0
  128.5562  126.9578   69.5747 H   0  0  0  0  0  0  0  0  0  0  0  0
  130.1230  129.9460   70.9830 H   0  0  0  0  0  0  0  0  0  0  0  0
  129.7260  128.2530   71.2270 H   0  0  0  0  0  0  0  0  0  0  0  0
  129.5643  131.1149   68.9564 H   0  0  0  0  0  0  0  0  0  0  0  0
  128.5568  131.0222   66.6796 H   0  0  0  0  0  0  0  0  0  0  0  0
  128.1830  127.0910   64.7030 H   0  0  0  0  0  0  0  0  0  0  0  0
  127.2945  126.5675   61.9724 H   0  0  0  0  0  0  0  0  0  0  0  0
  124.6205  125.1026   59.2019 H   0  0  0  0  0  0  0  0  0  0  0  0
  125.5893  122.7918   59.1106 H   0  0  0  0  0  0  0  0  0  0  0  0
  128.1560  121.4520   59.5190 H   0  0  0  0  0  0  0  0  0  0  0  0
  129.6981  120.1455   60.7540 H   0  0  0  0  0  0  0  0  0  0  0  0
  131.6875  118.6661   60.9956 H   0  0  0  0  0  0  0  0  0  0  0  0
  1  2  1  0
  2  3  2  0
  3  4  1  0
  4  5  2  0
  5  6  1  0
  6  7  1  0
  7  8  1  0
  8  9  2  0
  9 10  1  0
 10 11  1  0
 11 12  1  0
 12 13  2  0
 13 14  1  0
 14 15  2  0
 15 16  1  0
 16 17  1  0
 17 18  1  0
 18 19  2  0
 19 20  1  0
 20 21  2  0
 21 22  1  0
 21 23  1  0
 23 24  2  0
 17 25  2  0
 25 26  1  0
 26 27  2  0
 10 28  2  0
 28 29  1  0
 29 30  2  0
 30 31  1  0
  5 32  1  0
 32 33  2  0
 33  2  1  0
 31  6  2  0
 30  8  1  0
 27 12  1  0
 26 15  1  0
 24 18  1  0
  1 34  1  0
  1 35  1  0
  3 36  1  0
  4 37  1  0
  7 38  1  0
  9 39  1  0
 11 40  1  0
 11 41  1  0
 13 42  1  0
 14 43  1  0
 16 44  1  0
 19 45  1  0
 20 46  1  0
 22 47  1  0
 22 48  1  0
 23 49  1  0
 24 50  1  0
 25 51  1  0
 27 52  1  0
 28 53  1  0
 29 54  1  0
 31 55  1  0
 32 56  1  0
 33 57  1  0
M  CHG  2  25   1  31   1
M  END
>  <Binding energies>  (1) 
[-8.04]

>  <Ligand effiencies>  (1) 
[-0.19609756097560974]

>  <Interactions>  (1) 
["V-A:TRP:381:CZ2:3365, V-A:TRP:381:CH2:3367, V-B:TYR:539:C:9835, V-B:TYR:539:CD2:9842, V-A:LEU:475:CD2:4254, V-A:GLU:543:CB:4901, V-B:TYR:539:CE2:9844, V-A:ILE:369:CD1:3234, V-B:HIS:456:CE1:9037, V-A:GLU:543:CG:4902, H-B:TYR:484:OH:9315, V-B:GLU:543:CD:9876, V-A:ILE:369:CG2:3232, V-B:PRO:540:CB:9853, V-B:PRO:540:CA:9851, V-A:GLU:543:C:4897, V-B:HIS:456:CD2:9035, H-A:GLU:543:O:4898, V-B:TYR:484:CE1:9312, V-B:TYR:484:CZ:9314, V-B:ASP:366:CB:8179, H-B:GLU:543:OE2:9878, H-B:TYR:539:O:9836, V-B:ASP:366:CG:8180, H-B:GLU:543:OE1:9877, V-A:GLU:543:CA:4899, H-A:SER:385:O:3401, V-A:SER:385:CA:3402, V-A:SER:385:C:3400"]

$$$$
RR12_Rahimova_2017
     RDKit          3D

 51 53  0  0  0  0  0  0  0  0999 V2000
  129.5630  118.5790   60.8150 C   0  0  0  0  0  0  0  0  0  0  0  0
  130.7920  119.4960   60.7440 C   0  0  0  0  0  0  0  0  0  0  0  0
  130.4460  120.9710   61.0200 C   0  0  0  0  0  0  0  0  0  0  0  0
  131.2960  121.8590   60.2300 N   0  0  0  0  0  0  0  0  0  0  0  0
  132.6520  122.0950   60.3950 C   0  0  0  0  0  0  0  0  0  0  0  0
  133.4930  121.4760   61.4980 C   0  0  0  0  0  0  0  0  0  0  0  0
  133.2850  122.1720   62.8560 C   0  0  0  0  0  0  0  0  0  0  0  0
  132.7570  123.6130   62.7110 C   0  0  0  0  0  0  0  0  0  0  0  0
  132.5390  124.2920   63.9880 N   0  0  0  0  0  0  0  0  0  0  0  0
  133.4860  124.9400   64.6890 C   0  0  0  0  0  0  0  0  0  0  0  0
  134.6600  125.0260   64.3210 O   0  0  0  0  0  0  0  0  0  0  0  0
  133.0170  125.5870   65.9990 C   0  0  0  0  0  0  0  0  0  0  0  0
  131.7830  124.9940   66.4070 O   0  0  0  0  0  0  0  0  0  0  0  0
  130.6500  125.7820   66.4930 C   0  0  0  0  0  0  0  0  0  0  0  0
  130.2250  126.3900   65.3090 C   0  0  0  0  0  0  0  0  0  0  0  0
  129.0920  127.1990   65.2960 C   0  0  0  0  0  0  0  0  0  0  0  0
  128.3770  127.4020   66.4730 C   0  0  0  0  0  0  0  0  0  0  0  0
  128.7880  126.8050   67.6630 C   0  0  0  0  0  0  0  0  0  0  0  0
  129.9220  125.9970   67.6750 C   0  0  0  0  0  0  0  0  0  0  0  0
  133.1460  122.9260   59.5110 N   0  0  0  0  0  0  0  0  0  0  0  0
  132.0910  123.2450   58.7010 C   0  0  0  0  0  0  0  0  0  0  0  0
  132.0610  124.0900   57.5810 C   0  0  0  0  0  0  0  0  0  0  0  0
  130.8480  124.2490   56.9110 C   0  0  0  0  0  0  0  0  0  0  0  0
  129.6940  123.5900   57.3350 C   0  0  0  0  0  0  0  0  0  0  0  0
  129.6900  122.7450   58.4460 C   0  0  0  0  0  0  0  0  0  0  0  0
  130.9080  122.5860   59.1200 C   0  0  0  0  0  0  0  0  0  0  0  0
  129.3079  118.3887   61.8679 H   0  0  0  0  0  0  0  0  0  0  0  0
  128.7131  119.0655   60.3140 H   0  0  0  0  0  0  0  0  0  0  0  0
  129.7873  117.6258   60.3140 H   0  0  0  0  0  0  0  0  0  0  0  0
  131.5259  119.1603   61.4915 H   0  0  0  0  0  0  0  0  0  0  0  0
  131.1961  119.4337   59.7228 H   0  0  0  0  0  0  0  0  0  0  0  0
  129.3933  121.1501   60.7560 H   0  0  0  0  0  0  0  0  0  0  0  0
  130.6135  121.1792   62.0871 H   0  0  0  0  0  0  0  0  0  0  0  0
  133.2183  120.4156   61.5988 H   0  0  0  0  0  0  0  0  0  0  0  0
  134.5506  121.5938   61.2194 H   0  0  0  0  0  0  0  0  0  0  0  0
  132.5601  121.5889   63.4429 H   0  0  0  0  0  0  0  0  0  0  0  0
  134.2636  122.2253   63.3555 H   0  0  0  0  0  0  0  0  0  0  0  0
  133.4883  124.1937   62.1296 H   0  0  0  0  0  0  0  0  0  0  0  0
  131.7792  123.5477   62.2113 H   0  0  0  0  0  0  0  0  0  0  0  0
  131.5970  124.2670   64.3520 H   0  0  0  0  0  0  0  0  0  0  0  0
  133.7761  125.4278   66.7791 H   0  0  0  0  0  0  0  0  0  0  0  0
  132.8719  126.6663   65.8439 H   0  0  0  0  0  0  0  0  0  0  0  0
  130.7903  126.2281   64.3794 H   0  0  0  0  0  0  0  0  0  0  0  0
  128.7635  127.6753   64.3605 H   0  0  0  0  0  0  0  0  0  0  0  0
  127.4802  128.0389   66.4635 H   0  0  0  0  0  0  0  0  0  0  0  0
  128.2188  126.9714   68.5895 H   0  0  0  0  0  0  0  0  0  0  0  0
  130.2489  125.5254   68.6134 H   0  0  0  0  0  0  0  0  0  0  0  0
  132.9678  124.6118   57.2413 H   0  0  0  0  0  0  0  0  0  0  0  0
  130.8005  124.9071   56.0308 H   0  0  0  0  0  0  0  0  0  0  0  0
  128.7583  123.7409   56.7766 H   0  0  0  0  0  0  0  0  0  0  0  0
  128.7760  122.2295   58.7760 H   0  0  0  0  0  0  0  0  0  0  0  0
  1  2  1  0
  2  3  1  0
  3  4  1  0
  4  5  1  0
  5  6  1  0
  6  7  1  0
  7  8  1  0
  8  9  1  0
  9 10  1  0
 10 11  2  0
 10 12  1  0
 12 13  1  0
 13 14  1  0
 14 15  2  0
 15 16  1  0
 16 17  2  0
 17 18  1  0
 18 19  2  0
  5 20  2  0
 20 21  1  0
 21 22  2  0
 22 23  1  0
 23 24  2  0
 24 25  1  0
 25 26  2  0
 26  4  1  0
 19 14  1  0
 26 21  1  0
  1 27  1  0
  1 28  1  0
  1 29  1  0
  2 30  1  0
  2 31  1  0
  3 32  1  0
  3 33  1  0
  6 34  1  0
  6 35  1  0
  7 36  1  0
  7 37  1  0
  8 38  1  0
  8 39  1  0
  9 40  1  0
 12 41  1  0
 12 42  1  0
 15 43  1  0
 16 44  1  0
 17 45  1  0
 18 46  1  0
 19 47  1  0
 22 48  1  0
 23 49  1  0
 24 50  1  0
 25 51  1  0
M  END
>  <Binding energies>  (1) 
[-6.75]

>  <Ligand effiencies>  (1) 
[-0.25]

>  <Interactions>  (1) 
["V-B:PRO:540:C:9849, V-A:HIS:456:CE1:4064, V-A:PRO:482:CG:4322, V-A:TRP:381:CZ2:3365, V-B:ALA:541:CB:9860, V-B:GLU:543:CB:9874, V-A:TRP:381:CH2:3367, V-B:TYR:539:C:9835, V-B:TYR:539:CD2:9842, V-A:LEU:475:CD2:4254, V-A:PRO:482:CB:4321, V-B:TYR:539:CE2:9844, V-A:ILE:369:CD1:3234, V-B:TYR:539:CZ:9845, V-A:GLU:543:CD:4903, V-B:GLU:543:CD:9876, H-A:ARG:545:NH1:4922, H-A:TYR:484:OH:4343, H-A:ARG:545:NE:4919, H-A:ARG:545:NH2:4923, H-A:GLY:454:N:4045, V-A:GLY:454:CA:4044, V-A:ARG:545:CZ:4921, H-A:HIS:456:NE2:4065, V-A:ARG:545:CD:4918, V-A:ARG:545:CG:4917"]

$$$$
RR13_Rahimova_2017
     RDKit          3D

 84 90  0  0  0  0  0  0  0  0999 V2000
  125.9270  132.1080   61.5330 Cl  0  0  0  0  0  0  0  0  0  0  0  0
  125.7290  131.0990   62.9250 C   0  0  0  0  0  0  0  0  0  0  0  0
  124.6610  131.3750   63.7820 C   0  0  0  0  0  0  0  0  0  0  0  0
  124.4590  130.6140   64.9300 C   0  0  0  0  0  0  0  0  0  0  0  0
  125.3290  129.5690   65.2310 C   0  0  0  0  0  0  0  0  0  0  0  0
  126.3970  129.2860   64.3810 C   0  0  0  0  0  0  0  0  0  0  0  0
  126.6090  130.0360   63.2120 C   0  0  0  0  0  0  0  0  0  0  0  0
  127.8150  129.7180   62.3000 C   0  0  1  0  0  0  0  0  0  0  0  0
  128.8580  130.8450   62.3530 C   0  0  0  0  0  0  0  0  0  0  0  0
  129.4310  131.3350   63.4300 N   0  0  0  0  0  0  0  0  0  0  0  0
  130.2760  132.3470   62.9850 N   0  0  0  0  0  0  0  0  0  0  0  0
  130.1850  132.4710   61.6120 N   0  0  0  0  0  0  0  0  0  0  0  0
  129.2860  131.5500   61.2490 N   0  0  0  0  0  0  0  0  0  0  0  0
  128.9550  131.3590   59.8420 C   0  0  0  0  0  0  0  0  0  0  0  0
  129.7360  130.1610   59.2680 C   0  0  0  0  0  0  0  0  0  0  0  0
  131.2400  130.3410   59.3970 C   0  0  0  0  0  0  0  0  0  0  0  0
  131.9920  130.7450   58.2910 C   0  0  0  0  0  0  0  0  0  0  0  0
  133.3710  130.9020   58.4080 C   0  0  0  0  0  0  0  0  0  0  0  0
  133.9920  130.6550   59.6320 C   0  0  0  0  0  0  0  0  0  0  0  0
  133.2480  130.2520   60.7370 C   0  0  0  0  0  0  0  0  0  0  0  0
  131.8690  130.0940   60.6210 C   0  0  0  0  0  0  0  0  0  0  0  0
  128.4110  128.3840   62.5520 N   0  0  0  0  0  0  0  0  0  0  0  0
  129.3770  128.4520   63.6640 C   0  0  0  0  0  0  0  0  0  0  0  0
  129.9030  127.0410   64.0200 C   0  0  0  0  0  0  0  0  0  0  0  0
  130.6000  126.4420   62.8700 N   0  0  0  0  0  0  0  0  0  0  0  0
  131.1920  125.1220   63.1920 C   0  0  1  0  0  0  0  0  0  0  0  0
  131.6190  124.2700   61.9760 C   0  0  0  0  0  0  0  0  0  0  0  0
  132.2300  124.9400   60.9070 C   0  0  0  0  0  0  0  0  0  0  0  0
  132.6630  124.2490   59.7770 C   0  0  0  0  0  0  0  0  0  0  0  0
  132.4850  122.8710   59.6950 C   0  0  0  0  0  0  0  0  0  0  0  0
  131.8660  122.1890   60.7380 C   0  0  0  0  0  0  0  0  0  0  0  0
  131.4250  122.8730   61.8750 C   0  0  0  0  0  0  0  0  0  0  0  0
  130.6050  121.9450   63.0860 Cl  0  0  0  0  0  0  0  0  0  0  0  0
  132.3380  125.2080   64.2020 C   0  0  0  0  0  0  0  0  0  0  0  0
  133.6160  125.2430   63.9030 N   0  0  0  0  0  0  0  0  0  0  0  0
  134.2900  125.3380   65.1160 N   0  0  0  0  0  0  0  0  0  0  0  0
  133.3860  125.3750   66.1580 N   0  0  0  0  0  0  0  0  0  0  0  0
  132.1860  125.3150   65.5680 N   0  0  0  0  0  0  0  0  0  0  0  0
  130.9730  125.3100   66.3790 C   0  0  0  0  0  0  0  0  0  0  0  0
  130.8080  126.6580   67.1060 C   0  0  0  0  0  0  0  0  0  0  0  0
  129.3950  126.8560   67.6320 C   0  0  0  0  0  0  0  0  0  0  0  0
  129.1500  126.8220   69.0070 C   0  0  0  0  0  0  0  0  0  0  0  0
  127.8580  127.0110   69.4880 C   0  0  0  0  0  0  0  0  0  0  0  0
  126.8130  127.2340   68.5920 C   0  0  0  0  0  0  0  0  0  0  0  0
  127.0510  127.2700   67.2190 C   0  0  0  0  0  0  0  0  0  0  0  0
  128.3440  127.0820   66.7370 C   0  0  0  0  0  0  0  0  0  0  0  0
  129.6290  126.3720   61.7630 C   0  0  0  0  0  0  0  0  0  0  0  0
  129.1140  127.7850   61.4050 C   0  0  0  0  0  0  0  0  0  0  0  0
  123.9735  132.2011   63.5476 H   0  0  0  0  0  0  0  0  0  0  0  0
  123.6141  130.8376   65.5979 H   0  0  0  0  0  0  0  0  0  0  0  0
  125.1735  128.9674   66.1387 H   0  0  0  0  0  0  0  0  0  0  0  0
  127.0839  128.4634   64.6291 H   0  0  0  0  0  0  0  0  0  0  0  0
  127.4266  129.6668   61.2721 H   0  0  0  0  0  0  0  0  0  0  0  0
  127.8759  131.1688   59.7454 H   0  0  0  0  0  0  0  0  0  0  0  0
  129.2287  132.2661   59.2832 H   0  0  0  0  0  0  0  0  0  0  0  0
  129.4401  129.2518   59.8119 H   0  0  0  0  0  0  0  0  0  0  0  0
  129.4958  130.0830   58.1974 H   0  0  0  0  0  0  0  0  0  0  0  0
  131.4955  130.9389   57.3288 H   0  0  0  0  0  0  0  0  0  0  0  0
  133.9671  131.2191   57.5396 H   0  0  0  0  0  0  0  0  0  0  0  0
  135.0809  130.7800   59.7250 H   0  0  0  0  0  0  0  0  0  0  0  0
  133.7470  130.0590   61.6981 H   0  0  0  0  0  0  0  0  0  0  0  0
  131.2758  129.7754   61.4909 H   0  0  0  0  0  0  0  0  0  0  0  0
  130.2237  129.0888   63.3681 H   0  0  0  0  0  0  0  0  0  0  0  0
  128.8717  128.8734   64.5455 H   0  0  0  0  0  0  0  0  0  0  0  0
  130.6019  127.1186   64.8659 H   0  0  0  0  0  0  0  0  0  0  0  0
  129.0491  126.4019   64.2891 H   0  0  0  0  0  0  0  0  0  0  0  0
  130.3487  124.5893   63.6557 H   0  0  0  0  0  0  0  0  0  0  0  0
  132.3700  126.0297   60.9610 H   0  0  0  0  0  0  0  0  0  0  0  0
  133.1450  124.7920   58.9507 H   0  0  0  0  0  0  0  0  0  0  0  0
  132.8330  122.3222   58.8074 H   0  0  0  0  0  0  0  0  0  0  0  0
  131.7221  121.1007   60.6673 H   0  0  0  0  0  0  0  0  0  0  0  0
  130.1025  125.1402   65.7283 H   0  0  0  0  0  0  0  0  0  0  0  0
  131.0474  124.5075   67.1276 H   0  0  0  0  0  0  0  0  0  0  0  0
  131.5095  126.6924   67.9526 H   0  0  0  0  0  0  0  0  0  0  0  0
  131.0152  127.4602   66.3825 H   0  0  0  0  0  0  0  0  0  0  0  0
  129.9782  126.6459   69.7092 H   0  0  0  0  0  0  0  0  0  0  0  0
  127.6619  126.9846   70.5701 H   0  0  0  0  0  0  0  0  0  0  0  0
  125.7916  127.3829   68.9721 H   0  0  0  0  0  0  0  0  0  0  0  0
  126.2209  127.4462   66.5191 H   0  0  0  0  0  0  0  0  0  0  0  0
  128.5384  127.1112   65.6547 H   0  0  0  0  0  0  0  0  0  0  0  0
  130.1163  125.9301   60.8814 H   0  0  0  0  0  0  0  0  0  0  0  0
  128.7766  125.7512   62.0759 H   0  0  0  0  0  0  0  0  0  0  0  0
  129.9674  128.4225   61.1305 H   0  0  0  0  0  0  0  0  0  0  0  0
  128.4133  127.7048   60.5608 H   0  0  0  0  0  0  0  0  0  0  0  0
  1  2  1  0
  2  3  2  0
  3  4  1  0
  4  5  2  0
  5  6  1  0
  6  7  2  0
  7  8  1  0
  8  9  1  0
  9 10  2  0
 10 11  1  0
 11 12  2  0
 12 13  1  0
 13 14  1  0
 14 15  1  0
 15 16  1  0
 16 17  2  0
 17 18  1  0
 18 19  2  0
 19 20  1  0
 20 21  2  0
  8 22  1  0
 22 23  1  0
 23 24  1  0
 24 25  1  0
 25 26  1  0
 26 27  1  0
 27 28  2  0
 28 29  1  0
 29 30  2  0
 30 31  1  0
 31 32  2  0
 32 33  1  0
 26 34  1  0
 34 35  2  0
 35 36  1  0
 36 37  2  0
 37 38  1  0
 38 39  1  0
 39 40  1  0
 40 41  1  0
 41 42  2  0
 42 43  1  0
 43 44  2  0
 44 45  1  0
 45 46  2  0
 25 47  1  0
 47 48  1  0
  7  2  1  0
 13  9  1  0
 21 16  1  0
 48 22  1  0
 32 27  1  0
 38 34  1  0
 46 41  1  0
  3 49  1  0
  4 50  1  0
  5 51  1  0
  6 52  1  0
  8 53  1  6
 14 54  1  0
 14 55  1  0
 15 56  1  0
 15 57  1  0
 17 58  1  0
 18 59  1  0
 19 60  1  0
 20 61  1  0
 21 62  1  0
 23 63  1  0
 23 64  1  0
 24 65  1  0
 24 66  1  0
 26 67  1  1
 28 68  1  0
 29 69  1  0
 30 70  1  0
 31 71  1  0
 39 72  1  0
 39 73  1  0
 40 74  1  0
 40 75  1  0
 42 76  1  0
 43 77  1  0
 44 78  1  0
 45 79  1  0
 46 80  1  0
 47 81  1  0
 47 82  1  0
 48 83  1  0
 48 84  1  0
M  END
>  <Binding energies>  (1) 
[-11.69]

>  <Ligand effiencies>  (1) 
[-0.24354166666666666]

>  <Interactions>  (1) 
["V-B:GLU:543:CG:9875, V-A:HIS:456:CE1:4064, V-B:ALA:541:CB:9860, V-B:GLU:543:CB:9874, V-A:LEU:475:CD2:4254, V-A:ASP:366:CG:3208, V-B:HIS:456:CE1:9037, V-A:ASP:366:CB:3207, V-A:GLU:543:CG:4902, V-B:GLU:543:C:9870, V-A:GLU:543:CD:4903, V-B:GLU:543:CD:9876, H-A:ARG:545:NH1:4922, H-A:TYR:484:OH:4343, H-A:ARG:545:NE:4919, H-A:ARG:545:NH2:4923, H-A:GLY:454:N:4045, H-A:HIS:456:NE2:4065, V-B:ARG:545:CG:9890, H-A:ALA:541:N:4886, V-A:LEU:363:CD1:3184, V-A:TYR:531:CE2:4788, V-A:ASN:362:C:3167, V-A:LEU:363:CA:3180, V-A:PRO:540:CB:4880, V-A:LEU:363:CB:3182, V-A:ASN:362:CB:3171"]

$$$$
RR14_Rahimova_2017
     RDKit          3D

 76 80  0  0  0  0  0  0  0  0999 V2000
  130.2460  118.8630   60.4130 C   0  0  0  0  0  0  0  0  0  0  0  0
  130.0590  119.5460   61.6480 O   0  0  0  0  0  0  0  0  0  0  0  0
  130.6960  120.7550   61.8510 C   0  0  0  0  0  0  0  0  0  0  0  0
  131.4320  121.2600   60.7790 C   0  0  0  0  0  0  0  0  0  0  0  0
  132.1270  122.4590   60.8990 C   0  0  0  0  0  0  0  0  0  0  0  0
  132.0970  123.1660   62.1030 C   0  0  0  0  0  0  0  0  0  0  0  0
  132.9100  124.4460   62.2590 C   0  0  0  0  0  0  0  0  0  0  0  0
  132.9460  124.9440   63.6330 N   0  0  0  0  0  0  0  0  0  0  0  0
  133.7160  124.3470   64.5500 N   0  0  0  0  0  0  0  0  0  0  0  0
  133.4830  125.0490   65.7160 N   0  0  0  0  0  0  0  0  0  0  0  0
  132.5600  126.0650   65.4870 N   0  0  0  0  0  0  0  0  0  0  0  0
  132.2430  125.9770   64.2160 C   0  0  0  0  0  0  0  0  0  0  0  0
  131.2400  126.8700   63.4990 C   0  0  0  0  0  0  0  0  0  0  0  0
  129.9910  127.0390   64.2600 N   0  0  0  0  0  0  0  0  0  0  0  0
  128.8450  127.3090   63.3820 C   0  0  0  0  0  0  0  0  0  0  0  0
  127.6530  127.9630   64.1140 C   0  0  0  0  0  0  0  0  0  0  0  0
  127.9170  129.4200   64.5500 C   0  0  0  0  0  0  0  0  0  0  0  0
  126.6930  130.1570   64.8810 N   0  0  0  0  0  0  0  0  0  0  0  0
  125.7460  129.2840   65.5870 C   0  0  0  0  0  0  0  0  0  0  0  0
  124.4250  130.0150   65.9050 C   0  0  0  0  0  0  0  0  0  0  0  0
  123.8690  130.5620   64.7130 O   0  0  0  0  0  0  0  0  0  0  0  0
  124.7440  131.4950   64.0890 C   0  0  0  0  0  0  0  0  0  0  0  0
  126.0750  130.8080   63.7150 C   0  0  0  0  0  0  0  0  0  0  0  0
  129.7380  125.8490   65.0860 C   0  0  0  0  0  0  0  0  0  0  0  0
  129.5920  126.0920   66.5860 C   0  0  0  0  0  0  0  0  0  0  0  0
  129.4610  127.3470   67.0820 C   0  0  0  0  0  0  0  0  0  0  0  0
  129.3580  127.6130   68.5310 C   0  0  0  0  0  0  0  0  0  0  0  0
  129.2030  128.8980   69.0780 C   0  0  0  0  0  0  0  0  0  0  0  0
  129.1270  130.1370   68.1960 C   0  0  0  0  0  0  0  0  0  0  0  0
  129.1130  129.0400   70.4650 C   0  0  0  0  0  0  0  0  0  0  0  0
  129.1750  127.9260   71.3010 C   0  0  0  0  0  0  0  0  0  0  0  0
  129.3280  126.6430   70.7660 C   0  0  0  0  0  0  0  0  0  0  0  0
  129.3910  125.4450   71.7050 C   0  0  0  0  0  0  0  0  0  0  0  0
  129.4190  126.4880   69.3740 C   0  0  0  0  0  0  0  0  0  0  0  0
  129.5770  125.2140   68.7900 N   0  0  0  0  0  0  0  0  0  0  0  0
  129.6760  124.9240   67.4680 C   0  0  0  0  0  0  0  0  0  0  0  0
  129.8270  123.7600   67.0950 O   0  0  0  0  0  0  0  0  0  0  0  0
  131.3390  122.6850   63.1720 C   0  0  0  0  0  0  0  0  0  0  0  0
  130.6450  121.4850   63.0510 C   0  0  0  0  0  0  0  0  0  0  0  0
  130.5317  117.8193   60.6108 H   0  0  0  0  0  0  0  0  0  0  0  0
  129.3091  118.8838   59.8370 H   0  0  0  0  0  0  0  0  0  0  0  0
  131.0416  119.3581   59.8370 H   0  0  0  0  0  0  0  0  0  0  0  0
  131.4631  120.7049   59.8299 H   0  0  0  0  0  0  0  0  0  0  0  0
  132.7002  122.8503   60.0456 H   0  0  0  0  0  0  0  0  0  0  0  0
  133.9414  124.2465   61.9327 H   0  0  0  0  0  0  0  0  0  0  0  0
  132.4232  125.2181   61.6451 H   0  0  0  0  0  0  0  0  0  0  0  0
  131.6956  127.8592   63.3446 H   0  0  0  0  0  0  0  0  0  0  0  0
  130.9866  126.3879   62.5433 H   0  0  0  0  0  0  0  0  0  0  0  0
  129.1732  127.9839   62.5777 H   0  0  0  0  0  0  0  0  0  0  0  0
  128.4967  126.3400   62.9951 H   0  0  0  0  0  0  0  0  0  0  0  0
  126.7840  127.9543   63.4396 H   0  0  0  0  0  0  0  0  0  0  0  0
  127.4788  127.3796   65.0301 H   0  0  0  0  0  0  0  0  0  0  0  0
  128.5673  129.4067   65.4371 H   0  0  0  0  0  0  0  0  0  0  0  0
  128.3874  129.9347   63.6992 H   0  0  0  0  0  0  0  0  0  0  0  0
  125.5271  128.4106   64.9552 H   0  0  0  0  0  0  0  0  0  0  0  0
  126.2058  128.9769   66.5379 H   0  0  0  0  0  0  0  0  0  0  0  0
  123.7119  129.3026   66.3455 H   0  0  0  0  0  0  0  0  0  0  0  0
  124.6267  130.8303   66.6153 H   0  0  0  0  0  0  0  0  0  0  0  0
  124.2682  131.8863   63.1777 H   0  0  0  0  0  0  0  0  0  0  0  0
  124.9489  132.3189   64.7884 H   0  0  0  0  0  0  0  0  0  0  0  0
  125.8806  130.0487   62.9432 H   0  0  0  0  0  0  0  0  0  0  0  0
  126.7673  131.5773   63.3425 H   0  0  0  0  0  0  0  0  0  0  0  0
  128.8076  125.3834   64.7287 H   0  0  0  0  0  0  0  0  0  0  0  0
  130.6309  125.2163   64.9745 H   0  0  0  0  0  0  0  0  0  0  0  0
  129.4304  128.1950   66.3821 H   0  0  0  0  0  0  0  0  0  0  0  0
  129.0719  131.0349   68.8290 H   0  0  0  0  0  0  0  0  0  0  0  0
  130.0235  130.1905   67.5609 H   0  0  0  0  0  0  0  0  0  0  0  0
  128.2306  130.0806   67.5609 H   0  0  0  0  0  0  0  0  0  0  0  0
  128.9919  130.0420   70.9023 H   0  0  0  0  0  0  0  0  0  0  0  0
  129.1030  128.0574   72.3907 H   0  0  0  0  0  0  0  0  0  0  0  0
  129.3726  125.7950   72.7477 H   0  0  0  0  0  0  0  0  0  0  0  0
  128.5260  124.7903   71.5227 H   0  0  0  0  0  0  0  0  0  0  0  0
  130.3199  124.8847   71.5227 H   0  0  0  0  0  0  0  0  0  0  0  0
  129.6310  124.4130   69.4000 H   0  0  0  0  0  0  0  0  0  0  0  0
  131.2903  123.2554   64.1113 H   0  0  0  0  0  0  0  0  0  0  0  0
  130.0541  121.1062   63.8979 H   0  0  0  0  0  0  0  0  0  0  0  0
  1  2  1  0
  2  3  1  0
  3  4  2  0
  4  5  1  0
  5  6  2  0
  6  7  1  0
  7  8  1  0
  8  9  1  0
  9 10  2  0
 10 11  1  0
 11 12  2  0
 12 13  1  0
 13 14  1  0
 14 15  1  0
 15 16  1  0
 16 17  1  0
 17 18  1  0
 18 19  1  0
 19 20  1  0
 20 21  1  0
 21 22  1  0
 22 23  1  0
 14 24  1  0
 24 25  1  0
 25 26  2  0
 26 27  1  0
 27 28  2  0
 28 29  1  0
 28 30  1  0
 30 31  2  0
 31 32  1  0
 32 33  1  0
 32 34  2  0
 34 35  1  0
 35 36  1  0
 36 37  2  0
  6 38  1  0
 38 39  2  0
 39  3  1  0
 12  8  1  0
 23 18  1  0
 36 25  1  0
 34 27  1  0
  1 40  1  0
  1 41  1  0
  1 42  1  0
  4 43  1  0
  5 44  1  0
  7 45  1  0
  7 46  1  0
 13 47  1  0
 13 48  1  0
 15 49  1  0
 15 50  1  0
 16 51  1  0
 16 52  1  0
 17 53  1  0
 17 54  1  0
 19 55  1  0
 19 56  1  0
 20 57  1  0
 20 58  1  0
 22 59  1  0
 22 60  1  0
 23 61  1  0
 23 62  1  0
 24 63  1  0
 24 64  1  0
 26 65  1  0
 29 66  1  0
 29 67  1  0
 29 68  1  0
 30 69  1  0
 31 70  1  0
 33 71  1  0
 33 72  1  0
 33 73  1  0
 35 74  1  0
 38 75  1  0
 39 76  1  0
M  END
>  <Binding energies>  (1) 
[-9.13]

>  <Ligand effiencies>  (1) 
[-0.22825]

>  <Interactions>  (1) 
["V-B:GLU:543:CG:9875, V-A:TRP:381:CZ3:3366, H-B:GLU:543:O:9871, V-A:HIS:456:CE1:4064, V-A:TRP:381:CZ2:3365, V-B:ALA:541:CB:9860, V-B:GLU:543:CB:9874, V-A:TRP:381:CH2:3367, V-B:TYR:539:CD2:9842, V-A:LEU:475:CD2:4254, V-A:GLU:543:CB:4901, V-A:ASP:366:CG:3208, V-B:HIS:456:CE1:9037, V-A:GLU:543:CG:4902, V-B:GLU:543:C:9870, H-B:TYR:484:OH:9315, V-B:GLU:543:CA:9872, V-A:GLU:543:CD:4903, V-B:GLU:543:CD:9876, H-A:TYR:484:OH:4343, H-A:ARG:545:NE:4919, H-A:GLY:454:N:4045, V-A:ARG:545:CZ:4921, H-A:HIS:456:NE2:4065, V-A:LEU:475:CD1:4253, V-A:GLU:543:C:4897, V-B:HIS:456:CD2:9035, V-B:ARG:545:CD:9891, V-B:TYR:484:CE1:9312, V-A:GLU:543:CA:4899, H-B:GLY:454:N:9017"]

$$$$
RR15_Rahimova_2017
     RDKit          3D

 85 89  0  0  0  0  0  0  0  0999 V2000
  128.3950  130.3130   74.1330 C   0  0  0  0  0  0  0  0  0  0  0  0
  129.2490  129.2170   73.8200 O   0  0  0  0  0  0  0  0  0  0  0  0
  129.2960  128.7390   72.5220 C   0  0  0  0  0  0  0  0  0  0  0  0
  129.2210  129.5610   71.3870 C   0  0  0  0  0  0  0  0  0  0  0  0
  129.2720  129.0150   70.1070 C   0  0  0  0  0  0  0  0  0  0  0  0
  129.3960  127.6340   69.9230 C   0  0  0  0  0  0  0  0  0  0  0  0
  129.4440  127.0430   68.5410 C   0  0  0  0  0  0  0  0  0  0  0  0
  128.3570  126.6840   67.8730 N   0  0  0  0  0  0  0  0  0  0  0  0
  128.7980  126.1840   66.6650 N   0  0  0  0  0  0  0  0  0  0  0  0
  130.1220  126.3370   66.7270 N   0  0  0  0  0  0  0  0  0  0  0  0
  131.0140  125.7840   65.7090 C   0  0  0  0  0  0  0  0  0  0  0  0
  130.3940  125.6730   64.2940 C   0  0  0  0  0  0  0  0  0  0  0  0
  129.8500  124.6130   63.9780 O   0  0  0  0  0  0  0  0  0  0  0  0
  130.4360  126.7490   63.4490 N   0  0  0  0  0  0  0  0  0  0  0  0
  129.6600  127.9740   63.7270 C   0  0  0  0  0  0  0  0  0  0  0  0
  128.1810  127.7010   64.0790 C   0  0  0  0  0  0  0  0  0  0  0  0
  127.5470  128.7240   65.0510 C   0  0  0  0  0  0  0  0  0  0  0  0
  126.1160  128.9460   64.8230 N   0  0  0  0  0  0  0  0  0  0  0  0
  125.4100  129.4850   65.9950 C   0  0  0  0  0  0  0  0  0  0  0  0
  123.9280  129.7810   65.6750 C   0  0  0  0  0  0  0  0  0  0  0  0
  123.8320  130.6420   64.5460 O   0  0  0  0  0  0  0  0  0  0  0  0
  124.4250  130.0770   63.3810 C   0  0  0  0  0  0  0  0  0  0  0  0
  125.9210  129.7920   63.6370 C   0  0  0  0  0  0  0  0  0  0  0  0
  131.3940  126.8610   62.3070 C   0  0  2  0  0  0  0  0  0  0  0  0
  130.8530  127.6910   61.1010 C   0  0  0  0  0  0  0  0  0  0  0  0
  130.1690  127.1660   60.2230 O   0  0  0  0  0  0  0  0  0  0  0  0
  131.1510  129.0030   61.1180 N   0  0  0  0  0  0  0  0  0  0  0  0
  130.6710  129.9890   60.1570 C   0  0  0  0  0  0  0  0  0  0  0  0
  131.7500  131.0450   59.8570 C   0  0  2  0  0  0  0  0  0  0  0  0
  132.7520  130.6690   58.7510 C   0  0  0  0  0  0  0  0  0  0  0  0
  133.9910  130.2310   59.4950 C   0  0  0  0  0  0  0  0  0  0  0  0
  133.9420  131.1360   60.7150 C   0  0  0  0  0  0  0  0  0  0  0  0
  132.5570  131.1400   61.0400 O   0  0  0  0  0  0  0  0  0  0  0  0
  132.0250  125.5080   62.0000 C   0  0  0  0  0  0  0  0  0  0  0  0
  131.4180  124.7010   61.0300 C   0  0  0  0  0  0  0  0  0  0  0  0
  131.9490  123.4550   60.7090 C   0  0  0  0  0  0  0  0  0  0  0  0
  133.0970  123.0070   61.3570 C   0  0  0  0  0  0  0  0  0  0  0  0
  133.6150  121.7970   61.0440 F   0  0  0  0  0  0  0  0  0  0  0  0
  133.7160  123.7950   62.3230 C   0  0  0  0  0  0  0  0  0  0  0  0
  133.1830  125.0410   62.6440 C   0  0  0  0  0  0  0  0  0  0  0  0
  130.5710  126.8290   67.8880 N   0  0  0  0  0  0  0  0  0  0  0  0
  129.4720  126.8150   71.0580 C   0  0  0  0  0  0  0  0  0  0  0  0
  129.4260  127.3520   72.3560 C   0  0  0  0  0  0  0  0  0  0  0  0
  129.5010  126.5860   73.5060 O   0  0  0  0  0  0  0  0  0  0  0  0
  130.6150  125.7230   73.7050 C   0  0  0  0  0  0  0  0  0  0  0  0
  128.3152  130.4154   75.2253 H   0  0  0  0  0  0  0  0  0  0  0  0
  128.8136  131.2371   73.7077 H   0  0  0  0  0  0  0  0  0  0  0  0
  127.3966  130.1330   73.7077 H   0  0  0  0  0  0  0  0  0  0  0  0
  129.1207  130.6495   71.5099 H   0  0  0  0  0  0  0  0  0  0  0  0
  129.2141  129.6773   69.2306 H   0  0  0  0  0  0  0  0  0  0  0  0
  131.9017  126.4304   65.6440 H   0  0  0  0  0  0  0  0  0  0  0  0
  131.2476  124.7570   66.0264 H   0  0  0  0  0  0  0  0  0  0  0  0
  130.1282  128.4979   64.5734 H   0  0  0  0  0  0  0  0  0  0  0  0
  129.6672  128.5769   62.8069 H   0  0  0  0  0  0  0  0  0  0  0  0
  127.5995  127.7100   63.1453 H   0  0  0  0  0  0  0  0  0  0  0  0
  128.1591  126.7292   64.5939 H   0  0  0  0  0  0  0  0  0  0  0  0
  127.6818  128.3559   66.0788 H   0  0  0  0  0  0  0  0  0  0  0  0
  128.0525  129.6858   64.8796 H   0  0  0  0  0  0  0  0  0  0  0  0
  125.4596  128.7498   66.8117 H   0  0  0  0  0  0  0  0  0  0  0  0
  125.8954  130.4278   66.2875 H   0  0  0  0  0  0  0  0  0  0  0  0
  123.4076  128.8367   65.4572 H   0  0  0  0  0  0  0  0  0  0  0  0
  123.4646  130.2734   66.5426 H   0  0  0  0  0  0  0  0  0  0  0  0
  123.9124  129.1365   63.1305 H   0  0  0  0  0  0  0  0  0  0  0  0
  124.3297  130.7868   62.5461 H   0  0  0  0  0  0  0  0  0  0  0  0
  126.3418  129.2790   62.7596 H   0  0  0  0  0  0  0  0  0  0  0  0
  126.4288  130.7519   63.8122 H   0  0  0  0  0  0  0  0  0  0  0  0
  132.2380  127.4951   62.6163 H   0  0  0  0  0  0  0  0  0  0  0  0
  131.6950  129.3630   61.8890 H   0  0  0  0  0  0  0  0  0  0  0  0
  130.4006  129.4766   59.2219 H   0  0  0  0  0  0  0  0  0  0  0  0
  129.7959  130.4977   60.5875 H   0  0  0  0  0  0  0  0  0  0  0  0
  131.2125  131.9515   59.5417 H   0  0  0  0  0  0  0  0  0  0  0  0
  132.3590  129.8481   58.1332 H   0  0  0  0  0  0  0  0  0  0  0  0
  132.9504  131.5055   58.0648 H   0  0  0  0  0  0  0  0  0  0  0  0
  133.9362  129.1696   59.7786 H   0  0  0  0  0  0  0  0  0  0  0  0
  134.9195  130.3127   58.9108 H   0  0  0  0  0  0  0  0  0  0  0  0
  134.5426  130.7245   61.5396 H   0  0  0  0  0  0  0  0  0  0  0  0
  134.3526  132.1401   60.5329 H   0  0  0  0  0  0  0  0  0  0  0  0
  130.5121  125.0554   60.5163 H   0  0  0  0  0  0  0  0  0  0  0  0
  131.4639  122.8273   59.9470 H   0  0  0  0  0  0  0  0  0  0  0  0
  134.6228  123.4350   62.8310 H   0  0  0  0  0  0  0  0  0  0  0  0
  133.6722  125.6640   63.4073 H   0  0  0  0  0  0  0  0  0  0  0  0
  129.5699  125.7269   70.9298 H   0  0  0  0  0  0  0  0  0  0  0  0
  130.7874  125.5895   74.7832 H   0  0  0  0  0  0  0  0  0  0  0  0
  130.4093  124.7462   73.2428 H   0  0  0  0  0  0  0  0  0  0  0  0
  131.5094  126.1663   73.2428 H   0  0  0  0  0  0  0  0  0  0  0  0
  1  2  1  0
  2  3  1  0
  3  4  2  0
  4  5  1  0
  5  6  2  0
  6  7  1  0
  7  8  1  0
  8  9  2  0
  9 10  1  0
 10 11  1  0
 11 12  1  0
 12 13  2  0
 12 14  1  0
 14 15  1  0
 15 16  1  0
 16 17  1  0
 17 18  1  0
 18 19  1  0
 19 20  1  0
 20 21  1  0
 21 22  1  0
 22 23  1  0
 14 24  1  0
 24 25  1  0
 25 26  2  0
 25 27  1  0
 27 28  1  0
 28 29  1  0
 29 30  1  0
 30 31  1  0
 31 32  1  0
 32 33  1  0
 24 34  1  0
 34 35  2  0
 35 36  1  0
 36 37  2  0
 37 38  1  0
 37 39  1  0
 39 40  2  0
 10 41  1  0
  6 42  1  0
 42 43  2  0
 43 44  1  0
 44 45  1  0
 43  3  1  0
 41  7  2  0
 23 18  1  0
 33 29  1  0
 40 34  1  0
  1 46  1  0
  1 47  1  0
  1 48  1  0
  4 49  1  0
  5 50  1  0
 11 51  1  0
 11 52  1  0
 15 53  1  0
 15 54  1  0
 16 55  1  0
 16 56  1  0
 17 57  1  0
 17 58  1  0
 19 59  1  0
 19 60  1  0
 20 61  1  0
 20 62  1  0
 22 63  1  0
 22 64  1  0
 23 65  1  0
 23 66  1  0
 24 67  1  1
 27 68  1  0
 28 69  1  0
 28 70  1  0
 29 71  1  6
 30 72  1  0
 30 73  1  0
 31 74  1  0
 31 75  1  0
 32 76  1  0
 32 77  1  0
 35 78  1  0
 36 79  1  0
 39 80  1  0
 40 81  1  0
 42 82  1  0
 45 83  1  0
 45 84  1  0
 45 85  1  0
M  END
>  <Binding energies>  (1) 
[-8.59]

>  <Ligand effiencies>  (1) 
[-0.1867391304347826]

>  <Interactions>  (1) 
["V-A:HIS:456:CE1:4064, H-B:LYS:547:NZ:9919, V-A:LEU:475:CD2:4254, V-A:ILE:369:CD1:3234, V-A:ASP:366:CG:3208, V-B:HIS:456:CE1:9037, V-A:ASP:366:CB:3207, H-B:TYR:484:OH:9315, V-A:GLU:543:CD:4903, V-B:GLU:543:CD:9876, H-A:ASP:366:OD2:3210, V-A:ILE:369:CG2:3232, V-A:ARG:545:CZ:4921, H-A:GLU:543:OE2:4905, H-A:HIS:456:NE2:4065, V-B:ARG:545:CG:9890, H-A:GLU:543:OE1:4904, V-B:HIS:456:CD2:9035, V-A:PRO:540:CA:4878, V-B:ARG:545:CD:9891, V-A:ASN:362:C:3167, V-A:LEU:363:CA:3180, V-A:PRO:540:CB:4880, H-A:LYS:547:NZ:4946, V-B:ARG:545:CZ:9894, V-A:ASN:362:CB:3171, V-B:LYS:547:CE:9918, H-B:GLY:454:N:9017, V-A:ASN:362:CA:3169"]

$$$$
RR16_Rahimova_2017
     RDKit          3D

 80 85  0  0  0  0  0  0  0  0999 V2000
  129.4960  126.0970   73.0650 O   0  0  0  0  0  0  0  0  0  0  0  0
  129.9000  127.4950   72.8760 S   0  0  0  0  0  0  0  0  0  0  0  0
  131.3090  127.8910   72.9720 O   0  0  0  0  0  0  0  0  0  0  0  0
  128.9760  128.4740   74.0170 N   0  0  0  0  0  0  0  0  0  0  0  0
  128.4020  129.7780   73.6110 C   0  0  0  0  0  0  0  0  0  0  0  0
  127.1570  130.0810   74.4840 C   0  0  0  0  0  0  0  0  0  0  0  0
  126.8980  131.5530   74.8610 C   0  0  0  0  0  0  0  0  0  0  0  0
  126.8630  132.5090   73.6560 C   0  0  0  0  0  0  0  0  0  0  0  0
  128.2250  133.0780   73.2150 C   0  0  0  0  0  0  0  0  0  0  0  0
  129.2880  132.0650   72.7450 C   0  0  0  0  0  0  0  0  0  0  0  0
  129.5240  130.8420   73.6520 C   0  0  0  0  0  0  0  0  0  0  0  0
  129.2960  127.9960   71.2680 C   0  0  0  0  0  0  0  0  0  0  0  0
  128.4030  127.1830   70.5660 C   0  0  0  0  0  0  0  0  0  0  0  0
  128.0370  127.5240   69.2670 C   0  0  0  0  0  0  0  0  0  0  0  0
  128.5640  128.6750   68.6770 C   0  0  0  0  0  0  0  0  0  0  0  0
  128.2060  129.0410   66.9600 S   0  0  0  0  0  0  0  0  0  0  0  0
  128.7380  130.3800   66.6760 O   0  0  0  0  0  0  0  0  0  0  0  0
  126.7860  128.7440   66.7330 O   0  0  0  0  0  0  0  0  0  0  0  0
  129.1690  127.8570   66.0550 N   0  0  0  0  0  0  0  0  0  0  0  0
  129.7450  126.7680   66.8850 C   0  0  0  0  0  0  0  0  0  0  0  0
  130.8040  125.9810   66.0860 C   0  0  0  0  0  0  0  0  0  0  0  0
  130.2450  125.4780   64.7320 C   0  0  0  0  0  0  0  0  0  0  0  0
  131.2950  124.7350   63.9020 C   0  0  0  0  0  0  0  0  0  0  0  0
  132.6430  125.1110   63.9860 C   0  0  0  0  0  0  0  0  0  0  0  0
  133.6340  124.4560   63.2540 C   0  0  0  0  0  0  0  0  0  0  0  0
  134.9480  124.8360   63.3520 O   0  0  0  0  0  0  0  0  0  0  0  0
  133.2490  123.3950   62.4200 C   0  0  0  0  0  0  0  0  0  0  0  0
  133.9860  122.5750   61.6150 N   0  0  0  0  0  0  0  0  0  0  0  0
  133.1180  121.6760   61.0350 N   0  0  0  0  0  0  0  0  0  0  0  0
  131.8670  121.9680   61.4410 N   0  0  0  0  0  0  0  0  0  0  0  0
  130.7510  121.1180   61.0460 C   0  0  0  0  0  0  0  0  0  0  0  0
  129.6230  121.9000   60.3870 C   0  0  0  0  0  0  0  0  0  0  0  0
  128.5710  122.4010   61.1620 C   0  0  0  0  0  0  0  0  0  0  0  0
  127.5470  123.1370   60.5630 C   0  0  0  0  0  0  0  0  0  0  0  0
  127.5710  123.3760   59.1890 C   0  0  0  0  0  0  0  0  0  0  0  0
  128.6180  122.8810   58.4120 C   0  0  0  0  0  0  0  0  0  0  0  0
  128.6560  123.1850   56.7130 Cl  0  0  0  0  0  0  0  0  0  0  0  0
  129.6410  122.1410   59.0100 C   0  0  0  0  0  0  0  0  0  0  0  0
  131.8860  123.0260   62.3340 C   0  0  0  0  0  0  0  0  0  0  0  0
  130.8910  123.6840   63.0650 C   0  0  0  0  0  0  0  0  0  0  0  0
  129.5350  126.6030   63.9340 C   0  0  0  0  0  0  0  0  0  0  0  0
  128.5240  127.3760   64.8050 C   0  0  0  0  0  0  0  0  0  0  0  0
  129.4230  129.5090   69.3960 C   0  0  0  0  0  0  0  0  0  0  0  0
  129.7920  129.1670   70.6930 C   0  0  0  0  0  0  0  0  0  0  0  0
  128.4950  127.9790   74.7730 H   0  0  0  0  0  0  0  0  0  0  0  0
  128.0305  129.7743   72.5756 H   0  0  0  0  0  0  0  0  0  0  0  0
  126.2739  129.7201   73.9364 H   0  0  0  0  0  0  0  0  0  0  0  0
  127.3537  129.5753   75.4409 H   0  0  0  0  0  0  0  0  0  0  0  0
  125.9291  131.6125   75.3784 H   0  0  0  0  0  0  0  0  0  0  0  0
  127.7371  131.8718   75.4969 H   0  0  0  0  0  0  0  0  0  0  0  0
  126.4329  131.9627   72.8036 H   0  0  0  0  0  0  0  0  0  0  0  0
  126.2661  133.3752   73.9777 H   0  0  0  0  0  0  0  0  0  0  0  0
  128.0402  133.7746   72.3840 H   0  0  0  0  0  0  0  0  0  0  0  0
  128.6490  133.5376   74.1200 H   0  0  0  0  0  0  0  0  0  0  0  0
  128.9806  131.6931   71.7565 H   0  0  0  0  0  0  0  0  0  0  0  0
  130.2387  132.6183   72.7510 H   0  0  0  0  0  0  0  0  0  0  0  0
  130.4631  130.3612   73.3407 H   0  0  0  0  0  0  0  0  0  0  0  0
  129.5525  131.2225   74.6837 H   0  0  0  0  0  0  0  0  0  0  0  0
  127.9913  126.2783   71.0371 H   0  0  0  0  0  0  0  0  0  0  0  0
  127.3349  126.8889   68.7069 H   0  0  0  0  0  0  0  0  0  0  0  0
  130.2161  127.2043   67.7781 H   0  0  0  0  0  0  0  0  0  0  0  0
  128.9382  126.0805   67.1789 H   0  0  0  0  0  0  0  0  0  0  0  0
  131.6657  126.6372   65.8940 H   0  0  0  0  0  0  0  0  0  0  0  0
  131.1001  125.1044   66.6810 H   0  0  0  0  0  0  0  0  0  0  0  0
  129.4699  124.7352   64.9719 H   0  0  0  0  0  0  0  0  0  0  0  0
  132.9267  125.9439   64.6461 H   0  0  0  0  0  0  0  0  0  0  0  0
  135.3650  124.9810   62.4990 H   0  0  0  0  0  0  0  0  0  0  0  0
  131.1179  120.3627   60.3354 H   0  0  0  0  0  0  0  0  0  0  0  0
  130.3463  120.6548   61.9580 H   0  0  0  0  0  0  0  0  0  0  0  0
  128.5508  122.2144   62.2459 H   0  0  0  0  0  0  0  0  0  0  0  0
  126.7210  123.5286   61.1748 H   0  0  0  0  0  0  0  0  0  0  0  0
  126.7634  123.9554   58.7179 H   0  0  0  0  0  0  0  0  0  0  0  0
  130.4635  121.7466   58.3953 H   0  0  0  0  0  0  0  0  0  0  0  0
  129.8342  123.3891   62.9866 H   0  0  0  0  0  0  0  0  0  0  0  0
  130.2933  127.3067   63.5601 H   0  0  0  0  0  0  0  0  0  0  0  0
  128.9835  126.1365   63.1044 H   0  0  0  0  0  0  0  0  0  0  0  0
  128.1451  128.2395   64.2386 H   0  0  0  0  0  0  0  0  0  0  0  0
  127.6966  126.7015   65.0703 H   0  0  0  0  0  0  0  0  0  0  0  0
  129.8064  130.4329   68.9385 H   0  0  0  0  0  0  0  0  0  0  0  0
  130.4721  129.8170   71.2631 H   0  0  0  0  0  0  0  0  0  0  0  0
  1  2  2  0
  2  3  2  0
  2  4  1  0
  4  5  1  0
  5  6  1  0
  6  7  1  0
  7  8  1  0
  8  9  1  0
  9 10  1  0
 10 11  1  0
  2 12  1  0
 12 13  2  0
 13 14  1  0
 14 15  2  0
 15 16  1  0
 16 17  2  0
 16 18  2  0
 16 19  1  0
 19 20  1  0
 20 21  1  0
 21 22  1  0
 22 23  1  0
 23 24  2  0
 24 25  1  0
 25 26  1  0
 25 27  2  0
 27 28  1  0
 28 29  2  0
 29 30  1  0
 30 31  1  0
 31 32  1  0
 32 33  2  0
 33 34  1  0
 34 35  2  0
 35 36  1  0
 36 37  1  0
 36 38  2  0
 30 39  1  0
 39 40  2  0
 22 41  1  0
 41 42  1  0
 15 43  1  0
 43 44  2  0
 11  5  1  0
 44 12  1  0
 42 19  1  0
 40 23  1  0
 39 27  1  0
 38 32  1  0
  4 45  1  0
  5 46  1  0
  6 47  1  0
  6 48  1  0
  7 49  1  0
  7 50  1  0
  8 51  1  0
  8 52  1  0
  9 53  1  0
  9 54  1  0
 10 55  1  0
 10 56  1  0
 11 57  1  0
 11 58  1  0
 13 59  1  0
 14 60  1  0
 20 61  1  0
 20 62  1  0
 21 63  1  0
 21 64  1  0
 22 65  1  0
 24 66  1  0
 26 67  1  0
 31 68  1  0
 31 69  1  0
 33 70  1  0
 34 71  1  0
 35 72  1  0
 38 73  1  0
 40 74  1  0
 41 75  1  0
 41 76  1  0
 42 77  1  0
 42 78  1  0
 43 79  1  0
 44 80  1  0
M  END
>  <Binding energies>  (1) 
[-9.34]

>  <Ligand effiencies>  (1) 
[-0.19458333333333333]

>  <Interactions>  (1) 
["V-B:GLU:543:CG:9875, V-A:HIS:456:CE1:4064, H-B:LYS:547:NZ:9919, V-B:ALA:541:CB:9860, V-B:TYR:539:C:9835, V-B:TYR:539:CD2:9842, V-A:LEU:475:CD2:4254, V-A:GLU:543:CB:4901, V-B:TYR:539:CE2:9844, V-A:ILE:369:CD1:3234, V-B:TYR:539:CZ:9845, V-B:HIS:456:CE1:9037, H-B:TYR:484:OH:9315, V-B:GLU:543:CD:9876, H-A:ASP:366:OD2:3210, H-A:ARG:545:NH1:4922, H-A:ARG:545:NH2:4923, H-A:ASP:366:OD1:3209, H-A:GLY:454:N:4045, V-A:ARG:545:CZ:4921, V-B:PRO:540:CA:9851, V-A:GLU:543:C:4897, V-A:LYS:547:CE:4945, V-B:HIS:456:CD2:9035, V-B:HIS:456:CG:9033, H-A:LYS:547:NZ:4946, V-B:HIS:456:CB:9032, V-B:TYR:539:CE1:9843, V-B:MET:535:CE:9803, V-A:GLU:543:CA:4899, V-B:ASP:473:CB:9206, V-B:TYR:484:CB:9308, V-B:ASP:473:CG:9207"]

$$$$
RR17_Rahimova_2017
     RDKit          3D

 63 66  0  0  0  0  0  0  0  0999 V2000
  129.0640  131.9000   72.7240 C   0  0  0  0  0  0  0  0  0  0  0  0
  130.1010  131.0510   73.4660 C   0  0  0  0  0  0  0  0  0  0  0  0
  129.6410  129.7030   73.5100 O   0  0  0  0  0  0  0  0  0  0  0  0
  129.3480  129.0470   72.3280 C   0  0  0  0  0  0  0  0  0  0  0  0
  128.0790  128.4780   72.2300 C   0  0  0  0  0  0  0  0  0  0  0  0
  127.6940  127.7980   71.0800 C   0  0  0  0  0  0  0  0  0  0  0  0
  128.5770  127.6700   69.9980 C   0  0  0  0  0  0  0  0  0  0  0  0
  128.1330  126.9310   68.7690 C   0  0  0  0  0  0  0  0  0  0  0  0
  127.0440  127.1420   68.2270 O   0  0  0  0  0  0  0  0  0  0  0  0
  129.0990  125.8650   68.2040 C   0  0  0  0  0  0  0  0  0  0  0  0
  129.1790  125.9060   66.3780 S   0  0  0  0  0  0  0  0  0  0  0  0
  130.9350  125.8940   66.1500 C   0  0  0  0  0  0  0  0  0  0  0  0
  131.8100  126.4500   66.9560 N   0  0  0  0  0  0  0  0  0  0  0  0
  133.0770  126.2150   66.4360 N   0  0  0  0  0  0  0  0  0  0  0  0
  132.9200  125.5220   65.3360 C   0  0  0  0  0  0  0  0  0  0  0  0
  134.0580  125.0370   64.4500 C   0  0  0  0  0  0  0  0  0  0  0  0
  133.7810  125.1470   63.0200 N   0  0  0  0  0  0  0  0  0  0  0  0
  133.5490  124.0410   62.1830 C   0  0  0  0  0  0  0  0  0  0  0  0
  133.6860  122.7710   62.7430 C   0  0  0  0  0  0  0  0  0  0  0  0
  133.4760  121.6330   61.9700 C   0  0  0  0  0  0  0  0  0  0  0  0
  133.1230  121.7530   60.6230 C   0  0  0  0  0  0  0  0  0  0  0  0
  132.9020  120.4940   59.7850 C   0  0  0  0  0  0  0  0  0  0  0  0
  131.6300  120.0920   59.8020 F   0  0  0  0  0  0  0  0  0  0  0  0
  133.2470  120.7130   58.5150 F   0  0  0  0  0  0  0  0  0  0  0  0
  133.6590  119.5090   60.2700 F   0  0  0  0  0  0  0  0  0  0  0  0
  132.9770  123.0260   60.0600 C   0  0  0  0  0  0  0  0  0  0  0  0
  133.1860  124.1620   60.8350 C   0  0  0  0  0  0  0  0  0  0  0  0
  131.5820  125.2940   65.0890 N   0  0  0  0  0  0  0  0  0  0  0  0
  131.0130  124.5840   64.0200 C   0  0  0  0  0  0  0  0  0  0  0  0
  130.6410  125.2670   62.8630 C   0  0  0  0  0  0  0  0  0  0  0  0
  130.0730  124.5640   61.8040 C   0  0  0  0  0  0  0  0  0  0  0  0
  129.8770  123.1760   61.9000 C   0  0  0  0  0  0  0  0  0  0  0  0
  129.3230  122.3980   60.9020 O   0  0  0  0  0  0  0  0  0  0  0  0
  129.2840  122.9000   59.5700 C   0  0  0  0  0  0  0  0  0  0  0  0
  130.2540  122.5100   63.0680 C   0  0  0  0  0  0  0  0  0  0  0  0
  130.8230  123.2070   64.1300 C   0  0  0  0  0  0  0  0  0  0  0  0
  129.8530  128.2430   70.0970 C   0  0  0  0  0  0  0  0  0  0  0  0
  130.2350  128.9250   71.2490 C   0  0  0  0  0  0  0  0  0  0  0  0
  128.4271  132.4214   73.4537 H   0  0  0  0  0  0  0  0  0  0  0  0
  129.5791  132.6391   72.0927 H   0  0  0  0  0  0  0  0  0  0  0  0
  128.4412  131.2492   72.0927 H   0  0  0  0  0  0  0  0  0  0  0  0
  131.0640  131.0964   72.9362 H   0  0  0  0  0  0  0  0  0  0  0  0
  130.2369  131.4341   74.4881 H   0  0  0  0  0  0  0  0  0  0  0  0
  127.3754  128.5679   73.0708 H   0  0  0  0  0  0  0  0  0  0  0  0
  126.6883  127.3567   71.0183 H   0  0  0  0  0  0  0  0  0  0  0  0
  130.1057  126.0497   68.6071 H   0  0  0  0  0  0  0  0  0  0  0  0
  128.7236  124.8755   68.5039 H   0  0  0  0  0  0  0  0  0  0  0  0
  134.9529  125.6351   64.6767 H   0  0  0  0  0  0  0  0  0  0  0  0
  134.1993  123.9680   64.6672 H   0  0  0  0  0  0  0  0  0  0  0  0
  133.9670  126.0350   62.5790 H   0  0  0  0  0  0  0  0  0  0  0  0
  133.9619  122.6682   63.8029 H   0  0  0  0  0  0  0  0  0  0  0  0
  133.5882  120.6358   62.4206 H   0  0  0  0  0  0  0  0  0  0  0  0
  132.6961  123.1285   59.0014 H   0  0  0  0  0  0  0  0  0  0  0  0
  133.0658  125.1597   60.3877 H   0  0  0  0  0  0  0  0  0  0  0  0
  130.7951  126.3535   62.7873 H   0  0  0  0  0  0  0  0  0  0  0  0
  129.7766  125.0972   60.8887 H   0  0  0  0  0  0  0  0  0  0  0  0
  129.1988  123.9964   59.5937 H   0  0  0  0  0  0  0  0  0  0  0  0
  130.2070  122.6152   59.0437 H   0  0  0  0  0  0  0  0  0  0  0  0
  128.4161  122.4761   59.0437 H   0  0  0  0  0  0  0  0  0  0  0  0
  130.0998  121.4239   63.1496 H   0  0  0  0  0  0  0  0  0  0  0  0
  131.1198  122.6768   65.0469 H   0  0  0  0  0  0  0  0  0  0  0  0
  130.5580  128.1529   69.2574 H   0  0  0  0  0  0  0  0  0  0  0  0
  131.2386  129.3708   71.3131 H   0  0  0  0  0  0  0  0  0  0  0  0
  1  2  1  0
  2  3  1  0
  3  4  1  0
  4  5  2  0
  5  6  1  0
  6  7  2  0
  7  8  1  0
  8  9  2  0
  8 10  1  0
 10 11  1  0
 11 12  1  0
 12 13  2  0
 13 14  1  0
 14 15  2  0
 15 16  1  0
 16 17  1  0
 17 18  1  0
 18 19  2  0
 19 20  1  0
 20 21  2  0
 21 22  1  0
 22 23  1  0
 22 24  1  0
 22 25  1  0
 21 26  1  0
 26 27  2  0
 15 28  1  0
 28 29  1  0
 29 30  2  0
 30 31  1  0
 31 32  2  0
 32 33  1  0
 33 34  1  0
 32 35  1  0
 35 36  2  0
  7 37  1  0
 37 38  2  0
 38  4  1  0
 28 12  1  0
 36 29  1  0
 27 18  1  0
  1 39  1  0
  1 40  1  0
  1 41  1  0
  2 42  1  0
  2 43  1  0
  5 44  1  0
  6 45  1  0
 10 46  1  0
 10 47  1  0
 16 48  1  0
 16 49  1  0
 17 50  1  0
 19 51  1  0
 20 52  1  0
 26 53  1  0
 27 54  1  0
 30 55  1  0
 31 56  1  0
 34 57  1  0
 34 58  1  0
 34 59  1  0
 35 60  1  0
 36 61  1  0
 37 62  1  0
 38 63  1  0
M  END
>  <Binding energies>  (1) 
[-7.28]

>  <Ligand effiencies>  (1) 
[-0.18666666666666668]

>  <Interactions>  (1) 
["V-B:GLU:543:CG:9875, V-A:TRP:381:CZ3:3366, V-A:HIS:456:CE1:4064, V-A:TRP:381:CZ2:3365, V-B:ALA:541:CB:9860, V-B:GLU:543:CB:9874, V-A:TRP:381:CH2:3367, V-B:TYR:539:CD2:9842, V-A:LEU:475:CD2:4254, V-B:TYR:539:CE2:9844, V-A:ILE:369:CD1:3234, V-B:TYR:539:CZ:9845, V-A:ILE:369:CB:3231, V-A:ASP:366:CG:3208, V-B:HIS:456:CE1:9037, V-A:ASP:366:CB:3207, V-A:TYR:484:CZ:4342, V-B:GLU:543:C:9870, V-A:TYR:484:CE1:4340, V-B:GLU:543:CA:9872, H-A:ASP:366:OD2:3210, V-A:ILE:369:CG2:3232, H-A:ARG:545:NE:4919, H-A:ASP:366:OD1:3209, V-A:GLY:454:CA:4044, V-A:ARG:545:CZ:4921, H-A:HIS:456:NE2:4065, V-A:GLY:544:C:4907, V-A:LYS:547:CE:4945, V-B:HIS:456:CD2:9035, H-A:LYS:547:NZ:4946, V-A:GLY:453:CA:4039, V-A:GLY:453:C:4037"]

$$$$
RR18_Rahimova_2017
     RDKit          3D

 56 61  0  0  0  0  0  0  0  0999 V2000
  133.0770  124.5090   62.2510 C   0  0  0  0  0  0  0  0  0  0  0  0
  131.8680  125.4040   62.1390 C   0  0  0  0  0  0  0  0  0  0  0  0
  131.4110  126.5030   62.8470 C   0  0  0  0  0  0  0  0  0  0  0  0
  130.2140  126.8970   62.2520 C   0  0  0  0  0  0  0  0  0  0  0  0
  129.9810  126.0250   61.2010 C   0  0  0  0  0  0  0  0  0  0  0  0
  128.8760  125.8980   60.1560 C   0  0  1  0  0  0  0  0  0  0  0  0
  127.7330  124.9590   60.6450 C   0  0  0  0  0  0  0  0  0  0  0  0
  127.9880  123.5410   60.8730 C   0  0  0  0  0  0  0  0  0  0  0  0
  127.1450  122.8020   61.3860 O   0  0  0  0  0  0  0  0  0  0  0  0
  129.2080  123.1240   60.4600 N   0  0  0  0  0  0  0  0  0  0  0  0
  129.8090  121.8490   60.5320 C   0  0  0  0  0  0  0  0  0  0  0  0
  129.1900  120.7320   61.1230 C   0  0  0  0  0  0  0  0  0  0  0  0
  129.8420  119.5010   61.1680 C   0  0  0  0  0  0  0  0  0  0  0  0
  131.1190  119.3660   60.6320 C   0  0  0  0  0  0  0  0  0  0  0  0
  131.7490  120.4660   60.0540 C   0  0  0  0  0  0  0  0  0  0  0  0
  131.1070  121.7080   60.0010 C   0  0  0  0  0  0  0  0  0  0  0  0
  131.8430  122.8820   59.3610 C   0  0  0  0  0  0  0  0  0  0  0  0
  126.5290  125.5110   60.9500 C   0  0  0  0  0  0  0  0  0  0  0  0
  126.1990  126.8170   60.7490 N   0  0  0  0  0  0  0  0  0  0  0  0
  127.0310  127.5940   60.1610 C   0  0  0  0  0  0  0  0  0  0  0  0
  126.6920  129.2460   59.7010 S   0  0  0  0  0  0  0  0  0  0  0  0
  128.3200  129.4340   58.9770 C   0  0  0  0  0  0  0  0  0  0  0  0
  128.8330  130.5560   58.3620 C   0  0  0  0  0  0  0  0  0  0  0  0
  127.9930  131.7470   58.1700 C   0  0  0  0  0  0  0  0  0  0  0  0
  126.8280  131.9560   58.5050 O   0  0  0  0  0  0  0  0  0  0  0  0
  128.7250  132.6480   57.5070 N   0  0  0  0  0  0  0  0  0  0  0  0
  129.9920  132.2190   57.2510 C   0  0  0  0  0  0  0  0  0  0  0  0
  131.0120  132.9090   56.5970 C   0  0  0  0  0  0  0  0  0  0  0  0
  132.2570  132.3010   56.4640 C   0  0  0  0  0  0  0  0  0  0  0  0
  132.4620  131.0270   56.9910 C   0  0  0  0  0  0  0  0  0  0  0  0
  131.4240  130.3560   57.6420 C   0  0  0  0  0  0  0  0  0  0  0  0
  130.1510  130.9440   57.7660 C   0  0  0  0  0  0  0  0  0  0  0  0
  129.0340  128.1670   59.1350 C   0  0  0  0  0  0  0  0  0  0  0  0
  130.1570  127.9040   58.7150 O   0  0  0  0  0  0  0  0  0  0  0  0
  128.2940  127.2430   59.8070 N   0  0  0  0  0  0  0  0  0  0  0  0
  130.9930  125.1180   61.1400 O   0  0  0  0  0  0  0  0  0  0  0  0
  133.3090  124.3373   63.3125 H   0  0  0  0  0  0  0  0  0  0  0  0
  132.8674  123.5467   61.7611 H   0  0  0  0  0  0  0  0  0  0  0  0
  133.9362  124.9904   61.7611 H   0  0  0  0  0  0  0  0  0  0  0  0
  131.8991  126.9744   63.7128 H   0  0  0  0  0  0  0  0  0  0  0  0
  129.5762  127.7393   62.5583 H   0  0  0  0  0  0  0  0  0  0  0  0
  129.3391  125.4613   59.2589 H   0  0  0  0  0  0  0  0  0  0  0  0
  129.7680  123.8120   59.9800 H   0  0  0  0  0  0  0  0  0  0  0  0
  128.1825  120.8313   61.5533 H   0  0  0  0  0  0  0  0  0  0  0  0
  129.3458  118.6339   61.6284 H   0  0  0  0  0  0  0  0  0  0  0  0
  131.6302  118.3925   60.6646 H   0  0  0  0  0  0  0  0  0  0  0  0
  132.7604  120.3570   59.6355 H   0  0  0  0  0  0  0  0  0  0  0  0
  132.2508  123.5325   60.1488 H   0  0  0  0  0  0  0  0  0  0  0  0
  132.6653  122.5027   58.7365 H   0  0  0  0  0  0  0  0  0  0  0  0
  131.1433  123.4569   58.7365 H   0  0  0  0  0  0  0  0  0  0  0  0
  125.7648  124.8546   61.3917 H   0  0  0  0  0  0  0  0  0  0  0  0
  128.3750  133.5580   57.2460 H   0  0  0  0  0  0  0  0  0  0  0  0
  130.8357  133.9168   56.1930 H   0  0  0  0  0  0  0  0  0  0  0  0
  133.0748  132.8231   55.9457 H   0  0  0  0  0  0  0  0  0  0  0  0
  133.4470  130.5471   56.8937 H   0  0  0  0  0  0  0  0  0  0  0  0
  131.6036  129.3557   58.0630 H   0  0  0  0  0  0  0  0  0  0  0  0
  1  2  1  0
  2  3  2  0
  3  4  1  0
  4  5  2  0
  5  6  1  0
  6  7  1  0
  7  8  1  0
  8  9  2  0
  8 10  1  0
 10 11  1  0
 11 12  2  0
 12 13  1  0
 13 14  2  0
 14 15  1  0
 15 16  2  0
 16 17  1  0
  7 18  2  0
 18 19  1  0
 19 20  2  0
 20 21  1  0
 21 22  1  0
 22 23  2  0
 23 24  1  0
 24 25  2  0
 24 26  1  0
 26 27  1  0
 27 28  2  0
 28 29  1  0
 29 30  2  0
 30 31  1  0
 31 32  2  0
 22 33  1  0
 33 34  2  0
 33 35  1  0
  5 36  1  0
 36  2  1  0
 35  6  1  0
 16 11  1  0
 35 20  1  0
 32 23  1  0
 32 27  1  0
  1 37  1  0
  1 38  1  0
  1 39  1  0
  3 40  1  0
  4 41  1  0
  6 42  1  6
 10 43  1  0
 12 44  1  0
 13 45  1  0
 14 46  1  0
 15 47  1  0
 17 48  1  0
 17 49  1  0
 17 50  1  0
 18 51  1  0
 26 52  1  0
 28 53  1  0
 29 54  1  0
 30 55  1  0
 31 56  1  0
M  END
>  <Binding energies>  (1) 
[-7.88]

>  <Ligand effiencies>  (1) 
[-0.20736842105263156]

>  <Interactions>  (1) 
["V-B:PRO:540:C:9849, V-A:TRP:381:CZ3:3366, V-A:TRP:381:CZ2:3365, V-B:ALA:541:CB:9860, V-B:ALA:541:CA:9858, V-A:TRP:381:CH2:3367, V-B:TYR:539:CD2:9842, V-A:LEU:475:CD2:4254, V-B:TYR:539:CE2:9844, V-A:ASP:366:CG:3208, V-B:GLU:543:CD:9876, H-B:ALA:541:N:9859, V-A:TYR:539:CE2:4871, V-A:PRO:540:CA:4878, V-A:TYR:539:CD2:4869, V-A:TYR:539:C:4862, V-A:PRO:540:N:4879, V-A:LEU:363:CD1:3184, V-A:TYR:531:CE2:4788, V-A:TYR:539:CG:4867, V-A:TYR:531:CZ:4789, H-A:TYR:531:OH:4790, V-A:PRO:540:CB:4880, H-A:TYR:539:OH:4873, V-A:TYR:539:CZ:4872, V-A:TYR:539:CE1:4870, V-A:TYR:539:CD1:4868, V-A:PRO:540:CD:4882, H-B:ARG:545:NH2:9896, H-A:TYR:539:O:4863, V-A:PRO:540:CG:4881"]

$$$$
RR19_Rahimova_2017
     RDKit          3D

 72 77  0  0  0  0  0  0  0  0999 V2000
  129.4870  127.8750   67.4190 O   0  0  0  0  0  0  0  0  0  0  0  0
  128.9660  127.6900   66.3160 C   0  0  0  0  0  0  0  0  0  0  0  0
  129.1740  126.6220   65.5050 N   0  0  0  0  0  0  0  0  0  0  0  0
  129.7790  125.4040   65.6990 C   0  0  0  0  0  0  0  0  0  0  0  0
  130.2630  124.7700   67.1930 S   0  0  0  0  0  0  0  0  0  0  0  0
  129.9230  124.7860   64.4820 N   0  0  0  0  0  0  0  0  0  0  0  0
  130.3170  123.5400   64.1190 C   0  0  0  0  0  0  0  0  0  0  0  0
  130.4760  122.5750   64.8700 O   0  0  0  0  0  0  0  0  0  0  0  0
  130.6000  123.3860   62.6030 C   0  0  2  0  0  0  0  0  0  0  0  0
  131.9730  123.9490   62.1350 C   0  0  0  0  0  0  0  0  0  0  0  0
  132.4800  123.4010   60.8100 C   0  0  0  0  0  0  0  0  0  0  0  0
  132.4800  122.0130   60.5530 C   0  0  0  0  0  0  0  0  0  0  0  0
  132.8720  121.5380   59.3090 C   0  0  0  0  0  0  0  0  0  0  0  0
  133.2480  122.4230   58.3060 C   0  0  0  0  0  0  0  0  0  0  0  0
  133.2230  123.7930   58.5350 C   0  0  0  0  0  0  0  0  0  0  0  0
  132.8330  124.2900   59.7710 C   0  0  0  0  0  0  0  0  0  0  0  0
  129.4800  123.9290   61.7870 N   0  0  0  0  0  0  0  0  0  0  0  0
  129.4490  125.2380   61.4060 C   0  0  0  0  0  0  0  0  0  0  0  0
  130.2690  126.1160   61.6840 O   0  0  0  0  0  0  0  0  0  0  0  0
  128.2240  125.3840   60.5820 C   0  0  0  0  0  0  0  0  0  0  0  0
  127.6830  126.4960   59.9360 C   0  0  0  0  0  0  0  0  0  0  0  0
  126.4970  126.3370   59.2100 C   0  0  0  0  0  0  0  0  0  0  0  0
  125.8750  125.0830   59.1380 C   0  0  0  0  0  0  0  0  0  0  0  0
  126.4350  123.9800   59.7930 C   0  0  0  0  0  0  0  0  0  0  0  0
  127.6160  124.1600   60.5130 C   0  0  0  0  0  0  0  0  0  0  0  0
  128.4380  123.1980   61.2890 C   0  0  0  0  0  0  0  0  0  0  0  0
  128.2260  121.9940   61.4420 O   0  0  0  0  0  0  0  0  0  0  0  0
  127.9860  128.7490   65.7450 C   0  0  2  0  0  0  0  0  0  0  0  0
  126.5220  128.2410   65.6030 C   0  0  0  0  0  0  0  0  0  0  0  0
  125.6810  129.0500   64.6320 C   0  0  0  0  0  0  0  0  0  0  0  0
  125.7230  128.7650   63.2500 C   0  0  0  0  0  0  0  0  0  0  0  0
  124.8770  129.4370   62.3770 C   0  0  0  0  0  0  0  0  0  0  0  0
  123.9690  130.3700   62.8590 C   0  0  0  0  0  0  0  0  0  0  0  0
  123.8890  130.6330   64.2220 C   0  0  0  0  0  0  0  0  0  0  0  0
  124.7270  129.9730   65.1120 C   0  0  0  0  0  0  0  0  0  0  0  0
  128.4690  129.3830   64.4840 N   0  0  0  0  0  0  0  0  0  0  0  0
  128.6340  130.7310   64.3780 C   0  0  0  0  0  0  0  0  0  0  0  0
  128.4080  131.5810   65.2390 O   0  0  0  0  0  0  0  0  0  0  0  0
  129.1440  130.9570   63.0020 C   0  0  0  0  0  0  0  0  0  0  0  0
  129.4850  132.1350   62.3360 C   0  0  0  0  0  0  0  0  0  0  0  0
  129.9500  132.0490   61.0190 C   0  0  0  0  0  0  0  0  0  0  0  0
  130.0700  130.8010   60.3920 C   0  0  0  0  0  0  0  0  0  0  0  0
  129.7250  129.6310   61.0790 C   0  0  0  0  0  0  0  0  0  0  0  0
  129.2610  129.7390   62.3910 C   0  0  0  0  0  0  0  0  0  0  0  0
  128.8290  128.7010   63.3570 C   0  0  0  0  0  0  0  0  0  0  0  0
  128.8020  127.4820   63.1810 O   0  0  0  0  0  0  0  0  0  0  0  0
  128.7100  126.7020   64.6120 H   0  0  0  0  0  0  0  0  0  0  0  0
  129.8010  125.4090   63.6970 H   0  0  0  0  0  0  0  0  0  0  0  0
  130.6692  122.3014   62.4335 H   0  0  0  0  0  0  0  0  0  0  0  0
  131.8779  125.0406   62.0377 H   0  0  0  0  0  0  0  0  0  0  0  0
  132.7054  123.6376   62.8944 H   0  0  0  0  0  0  0  0  0  0  0  0
  132.1695  121.3081   61.3383 H   0  0  0  0  0  0  0  0  0  0  0  0
  132.8850  120.4551   59.1162 H   0  0  0  0  0  0  0  0  0  0  0  0
  133.5668  122.0372   57.3264 H   0  0  0  0  0  0  0  0  0  0  0  0
  133.5137  124.4873   57.7329 H   0  0  0  0  0  0  0  0  0  0  0  0
  132.7989  125.3762   59.9412 H   0  0  0  0  0  0  0  0  0  0  0  0
  128.1779  127.4766   59.9960 H   0  0  0  0  0  0  0  0  0  0  0  0
  126.0511  127.1999   58.6937 H   0  0  0  0  0  0  0  0  0  0  0  0
  124.9436  124.9653   58.5648 H   0  0  0  0  0  0  0  0  0  0  0  0
  125.9539  122.9921   59.7410 H   0  0  0  0  0  0  0  0  0  0  0  0
  127.9664  129.5370   66.5123 H   0  0  0  0  0  0  0  0  0  0  0  0
  126.5496  127.1988   65.2521 H   0  0  0  0  0  0  0  0  0  0  0  0
  126.0521  128.3415   66.5925 H   0  0  0  0  0  0  0  0  0  0  0  0
  126.4253  128.0112   62.8647 H   0  0  0  0  0  0  0  0  0  0  0  0
  124.9268  129.2288   61.2980 H   0  0  0  0  0  0  0  0  0  0  0  0
  123.3095  130.9039   62.1591 H   0  0  0  0  0  0  0  0  0  0  0  0
  123.1597  131.3662   64.5969 H   0  0  0  0  0  0  0  0  0  0  0  0
  124.6471  130.1698   66.1913 H   0  0  0  0  0  0  0  0  0  0  0  0
  129.3903  133.1104   62.8357 H   0  0  0  0  0  0  0  0  0  0  0  0
  130.2225  132.9645   60.4735 H   0  0  0  0  0  0  0  0  0  0  0  0
  130.4365  130.7408   59.3566 H   0  0  0  0  0  0  0  0  0  0  0  0
  129.8176  128.6475   60.5951 H   0  0  0  0  0  0  0  0  0  0  0  0
  1  2  2  0
  2  3  1  0
  3  4  1  0
  4  5  2  0
  4  6  1  0
  6  7  1  0
  7  8  2  0
  7  9  1  0
  9 10  1  0
 10 11  1  0
 11 12  2  0
 12 13  1  0
 13 14  2  0
 14 15  1  0
 15 16  2  0
  9 17  1  0
 17 18  1  0
 18 19  2  0
 18 20  1  0
 20 21  2  0
 21 22  1  0
 22 23  2  0
 23 24  1  0
 24 25  2  0
 25 26  1  0
 26 27  2  0
  2 28  1  0
 28 29  1  0
 29 30  1  0
 30 31  2  0
 31 32  1  0
 32 33  2  0
 33 34  1  0
 34 35  2  0
 28 36  1  0
 36 37  1  0
 37 38  2  0
 37 39  1  0
 39 40  2  0
 40 41  1  0
 41 42  2  0
 42 43  1  0
 43 44  2  0
 44 45  1  0
 45 46  2  0
 16 11  1  0
 26 17  1  0
 35 30  1  0
 45 36  1  0
 25 20  1  0
 44 39  1  0
  3 47  1  0
  6 48  1  0
  9 49  1  1
 10 50  1  0
 10 51  1  0
 12 52  1  0
 13 53  1  0
 14 54  1  0
 15 55  1  0
 16 56  1  0
 21 57  1  0
 22 58  1  0
 23 59  1  0
 24 60  1  0
 28 61  1  1
 29 62  1  0
 29 63  1  0
 31 64  1  0
 32 65  1  0
 33 66  1  0
 34 67  1  0
 35 68  1  0
 40 69  1  0
 41 70  1  0
 42 71  1  0
 43 72  1  0
M  END
>  <Binding energies>  (1) 
[-10.0]

>  <Ligand effiencies>  (1) 
[-0.20833333333333334]

>  <Interactions>  (1) 
["V-B:GLU:543:CG:9875, V-A:HIS:456:CE1:4064, V-B:GLU:543:CB:9874, V-B:TYR:539:CD2:9842, V-B:TYR:539:CE2:9844, V-A:ILE:369:CD1:3234, V-B:TYR:539:CZ:9845, V-A:ASP:366:CA:3205, V-A:ILE:369:CB:3231, V-A:ASP:366:CG:3208, V-A:ASP:366:CB:3207, V-A:TYR:484:CZ:4342, V-A:GLU:543:CG:4902, H-B:TYR:484:OH:9315, V-A:TYR:484:CE1:4340, V-A:GLU:543:CD:4903, V-B:GLU:543:CD:9876, V-A:ILE:369:CG2:3232, H-A:TYR:484:OH:4343, H-B:ALA:541:N:9859, V-B:PRO:540:CA:9851, V-A:PRO:540:CA:4878, V-A:ALA:541:CB:4887, H-B:GLU:543:OE2:9878, V-B:ASP:366:CG:8180, V-B:ARG:545:CZ:9894"]

$$$$
RR19_Rahimova_2017-again1
     RDKit          3D

 71 76  0  0  0  0  0  0  0  0999 V2000
  134.7490  124.2600   63.3240 O   0  0  0  0  0  0  0  0  0  0  0  0
  133.5620  124.5920   63.3770 C   0  0  0  0  0  0  0  0  0  0  0  0
  132.9120  125.0320   64.4810 N   0  0  0  0  0  0  0  0  0  0  0  0
  133.3350  125.3670   65.7360 C   0  0  0  0  0  0  0  0  0  0  0  0
  134.8590  125.2470   66.4350 S   0  0  0  0  0  0  0  0  0  0  0  0
  132.2520  125.9390   66.3800 N   0  0  0  0  0  0  0  0  0  0  0  0
  131.0170  125.5580   66.3970 C   0  0  0  0  0  0  0  0  0  0  0  0
  130.4780  124.5400   65.9180 O   0  0  0  0  0  0  0  0  0  0  0  0
  130.0240  126.5300   67.1200 C   0  0  2  0  0  0  0  0  0  0  0  0
  129.4750  125.9030   68.4450 C   0  0  0  0  0  0  0  0  0  0  0  0
  129.4750  126.8510   69.6420 C   0  0  0  0  0  0  0  0  0  0  0  0
  129.1330  126.3720   70.9090 C   0  0  0  0  0  0  0  0  0  0  0  0
  129.1480  127.2320   72.0040 C   0  0  0  0  0  0  0  0  0  0  0  0
  129.5010  128.5690   71.8280 C   0  0  0  0  0  0  0  0  0  0  0  0
  129.8390  129.0540   70.5650 C   0  0  0  0  0  0  0  0  0  0  0  0
  129.8230  128.1940   69.4710 C   0  0  0  0  0  0  0  0  0  0  0  0
  128.9710  127.0950   66.2130 N   0  0  0  0  0  0  0  0  0  0  0  0
  129.1560  127.1720   64.8650 C   0  0  0  0  0  0  0  0  0  0  0  0
  130.1500  126.8260   64.2250 O   0  0  0  0  0  0  0  0  0  0  0  0
  127.9040  127.7640   64.3290 C   0  0  0  0  0  0  0  0  0  0  0  0
  127.5280  128.0780   63.0220 C   0  0  0  0  0  0  0  0  0  0  0  0
  126.2630  128.6370   62.8060 C   0  0  0  0  0  0  0  0  0  0  0  0
  125.4000  128.8710   63.8840 C   0  0  0  0  0  0  0  0  0  0  0  0
  125.7950  128.5480   65.1860 C   0  0  0  0  0  0  0  0  0  0  0  0
  127.0610  127.9930   65.3810 C   0  0  0  0  0  0  0  0  0  0  0  0
  127.7480  127.5540   66.6200 C   0  0  0  0  0  0  0  0  0  0  0  0
  127.3060  127.5960   67.7670 O   0  0  0  0  0  0  0  0  0  0  0  0
  132.6830  124.5190   62.0940 C   0  0  2  0  0  0  0  0  0  0  0  0
  131.5330  125.5660   62.0620 C   0  0  0  0  0  0  0  0  0  0  0  0
  130.4090  125.2200   61.1020 C   0  0  0  0  0  0  0  0  0  0  0  0
  130.5870  125.3940   59.7130 C   0  0  0  0  0  0  0  0  0  0  0  0
  129.5960  124.9840   58.8290 C   0  0  0  0  0  0  0  0  0  0  0  0
  128.4400  124.3780   59.3050 C   0  0  0  0  0  0  0  0  0  0  0  0
  128.2690  124.1660   60.6670 C   0  0  0  0  0  0  0  0  0  0  0  0
  129.2470  124.5680   61.5670 C   0  0  0  0  0  0  0  0  0  0  0  0
  132.1990  123.1440   61.7650 N   0  0  0  0  0  0  0  0  0  0  0  0
  131.4320  122.4290   62.6370 C   0  0  0  0  0  0  0  0  0  0  0  0
  131.1100  122.7460   63.7820 O   0  0  0  0  0  0  0  0  0  0  0  0
  131.0570  121.1910   61.9100 C   0  0  0  0  0  0  0  0  0  0  0  0
  130.2750  120.1030   62.3000 C   0  0  0  0  0  0  0  0  0  0  0  0
  130.0680  119.0650   61.3850 C   0  0  0  0  0  0  0  0  0  0  0  0
  130.6410  119.1250   60.1080 C   0  0  0  0  0  0  0  0  0  0  0  0
  131.4250  120.2220   59.7360 C   0  0  0  0  0  0  0  0  0  0  0  0
  131.6170  121.2480   60.6620 C   0  0  0  0  0  0  0  0  0  0  0  0
  132.3580  122.5290   60.5550 C   0  0  0  0  0  0  0  0  0  0  0  0
  132.9750  122.9530   59.5770 O   0  0  0  0  0  0  0  0  0  0  0  0
  131.9350  125.2320   64.3250 H   0  0  0  0  0  0  0  0  0  0  0  0
  130.6002  127.4169   67.4223 H   0  0  0  0  0  0  0  0  0  0  0  0
  128.4404  125.5747   68.2668 H   0  0  0  0  0  0  0  0  0  0  0  0
  130.1511  125.0743   68.7024 H   0  0  0  0  0  0  0  0  0  0  0  0
  128.8522  125.3167   71.0414 H   0  0  0  0  0  0  0  0  0  0  0  0
  128.8824  126.8579   73.0038 H   0  0  0  0  0  0  0  0  0  0  0  0
  129.5131  129.2478   72.6935 H   0  0  0  0  0  0  0  0  0  0  0  0
  130.1167  130.1103   70.4342 H   0  0  0  0  0  0  0  0  0  0  0  0
  130.0843  128.5712   68.4713 H   0  0  0  0  0  0  0  0  0  0  0  0
  128.2108  127.8903   62.1802 H   0  0  0  0  0  0  0  0  0  0  0  0
  125.9452  128.8937   61.7847 H   0  0  0  0  0  0  0  0  0  0  0  0
  124.4075  129.3106   63.7058 H   0  0  0  0  0  0  0  0  0  0  0  0
  125.1227  128.7274   66.0380 H   0  0  0  0  0  0  0  0  0  0  0  0
  133.3746  124.7966   61.2849 H   0  0  0  0  0  0  0  0  0  0  0  0
  131.1105  125.6467   63.0744 H   0  0  0  0  0  0  0  0  0  0  0  0
  131.9727  126.5108   61.7097 H   0  0  0  0  0  0  0  0  0  0  0  0
  131.5099  125.8540   59.3300 H   0  0  0  0  0  0  0  0  0  0  0  0
  129.7275  125.1399   57.7481 H   0  0  0  0  0  0  0  0  0  0  0  0
  127.6562  124.0645   58.5997 H   0  0  0  0  0  0  0  0  0  0  0  0
  127.3545  123.6774   61.0344 H   0  0  0  0  0  0  0  0  0  0  0  0
  129.1160  124.3782   62.6426 H   0  0  0  0  0  0  0  0  0  0  0  0
  129.8308  120.0623   63.3055 H   0  0  0  0  0  0  0  0  0  0  0  0
  129.4530  118.1985   61.6694 H   0  0  0  0  0  0  0  0  0  0  0  0
  130.4735  118.3051   59.3941 H   0  0  0  0  0  0  0  0  0  0  0  0
  131.8800  120.2747   58.7359 H   0  0  0  0  0  0  0  0  0  0  0  0
  1  2  2  0
  2  3  1  0
  3  4  1  0
  4  5  2  0
  4  6  1  0
  6  7  2  0
  7  8  1  0
  7  9  1  0
  9 10  1  0
 10 11  1  0
 11 12  2  0
 12 13  1  0
 13 14  2  0
 14 15  1  0
 15 16  2  0
  9 17  1  0
 17 18  1  0
 18 19  2  0
 18 20  1  0
 20 21  2  0
 21 22  1  0
 22 23  2  0
 23 24  1  0
 24 25  2  0
 25 26  1  0
 26 27  2  0
  2 28  1  0
 28 29  1  0
 29 30  1  0
 30 31  2  0
 31 32  1  0
 32 33  2  0
 33 34  1  0
 34 35  2  0
 28 36  1  0
 36 37  1  0
 37 38  2  0
 37 39  1  0
 39 40  2  0
 40 41  1  0
 41 42  2  0
 42 43  1  0
 43 44  2  0
 44 45  1  0
 45 46  2  0
 16 11  1  0
 26 17  1  0
 35 30  1  0
 45 36  1  0
 25 20  1  0
 44 39  1  0
  3 47  1  0
  9 48  1  1
 10 49  1  0
 10 50  1  0
 12 51  1  0
 13 52  1  0
 14 53  1  0
 15 54  1  0
 16 55  1  0
 21 56  1  0
 22 57  1  0
 23 58  1  0
 24 59  1  0
 28 60  1  6
 29 61  1  0
 29 62  1  0
 31 63  1  0
 32 64  1  0
 33 65  1  0
 34 66  1  0
 35 67  1  0
 40 68  1  0
 41 69  1  0
 42 70  1  0
 43 71  1  0
M  CHG  1   8  -1
M  END
>  <Binding energies>  (1) 
[-9.39]

>  <Ligand effiencies>  (1) 
[-0.1997872340425532]

>  <Interactions>  (1) 
["V-A:TRP:381:CZ3:3366, V-A:HIS:456:CE1:4064, V-A:TRP:381:CZ2:3365, V-B:ALA:541:CB:9860, V-B:GLU:543:CB:9874, V-A:TRP:381:CH2:3367, V-B:TYR:539:CD2:9842, V-A:LEU:475:CD2:4254, V-A:PRO:482:CB:4321, V-B:TYR:539:CE2:9844, V-A:ASP:366:CG:3208, V-A:GLU:543:CD:4903, V-B:GLU:543:CD:9876, H-A:TYR:484:OH:4343, H-A:GLY:454:N:4045, V-A:ARG:545:CZ:4921, H-A:HIS:456:NE2:4065, V-A:LEU:475:CD1:4253, V-A:GLU:543:C:4897, V-B:ARG:545:CZ:9894, V-A:ARG:545:CD:4918, V-A:GLY:453:CA:4039, V-A:ARG:545:CG:4917, V-A:HIS:456:CD2:4063, V-A:GLY:453:C:4037, V-A:LEU:475:CG:4252"]

$$$$
RR1_Rahimova_2017
     RDKit          3D

 68 71  0  0  0  0  0  0  0  0999 V2000
  123.5310  124.8990   57.6280 C   0  0  0  0  0  0  0  0  0  0  0  0
  124.7600  124.5820   56.9830 O   0  0  0  0  0  0  0  0  0  0  0  0
  125.8440  124.1980   57.7490 C   0  0  0  0  0  0  0  0  0  0  0  0
  125.8980  124.2930   59.1480 C   0  0  0  0  0  0  0  0  0  0  0  0
  127.0380  123.8870   59.8360 C   0  0  0  0  0  0  0  0  0  0  0  0
  128.1360  123.3760   59.1430 C   0  0  0  0  0  0  0  0  0  0  0  0
  129.2580  123.0360   59.9220 N   0  0  0  0  0  0  0  0  0  0  0  0
  129.3480  122.1820   60.9640 C   0  0  0  0  0  0  0  0  0  0  0  0
  128.3960  121.5840   61.4660 O   0  0  0  0  0  0  0  0  0  0  0  0
  130.7710  121.9940   61.5160 C   0  0  0  0  0  0  0  0  0  0  0  0
  131.9940  123.2340   60.9660 S   0  0  0  0  0  0  0  0  0  0  0  0
  131.2080  124.6620   61.6360 C   0  0  0  0  0  0  0  0  0  0  0  0
  130.0650  125.1390   61.2130 N   0  0  0  0  0  0  0  0  0  0  0  0
  129.8500  126.1920   61.9950 C   0  0  0  0  0  0  0  0  0  0  0  0
  128.6230  127.0490   61.8710 C   0  0  0  0  0  0  0  0  0  0  0  0
  128.1500  127.8150   62.9480 C   0  0  0  0  0  0  0  0  0  0  0  0
  127.0040  128.6000   62.8040 C   0  0  0  0  0  0  0  0  0  0  0  0
  126.3510  128.6010   61.5730 C   0  0  0  0  0  0  0  0  0  0  0  0
  126.7800  127.8730   60.5110 N   0  0  0  0  0  0  0  0  0  0  0  0
  127.8960  127.1170   60.6720 C   0  0  0  0  0  0  0  0  0  0  0  0
  130.7890  126.4300   62.8920 N   0  0  0  0  0  0  0  0  0  0  0  0
  131.6650  125.4470   62.6620 N   0  0  0  0  0  0  0  0  0  0  0  0
  132.8740  125.3250   63.4750 C   0  0  0  0  0  0  0  0  0  0  0  0
  132.6980  125.6830   64.9610 C   0  0  0  0  0  0  0  0  0  0  0  0
  133.6720  125.7310   65.7210 O   0  0  0  0  0  0  0  0  0  0  0  0
  131.4290  125.9270   65.3400 N   0  0  0  0  0  0  0  0  0  0  0  0
  131.2090  126.3980   66.6270 N   0  0  0  0  0  0  0  0  0  0  0  0
  129.9500  126.3410   67.1130 C   0  0  0  0  0  0  0  0  0  0  0  0
  129.0050  125.8020   66.5270 O   0  0  0  0  0  0  0  0  0  0  0  0
  129.7450  126.9670   68.4780 C   0  0  0  0  0  0  0  0  0  0  0  0
  129.9880  128.3330   68.6630 C   0  0  0  0  0  0  0  0  0  0  0  0
  129.8180  128.9260   69.9100 C   0  0  0  0  0  0  0  0  0  0  0  0
  129.4050  128.1660   71.0160 C   0  0  0  0  0  0  0  0  0  0  0  0
  129.2310  128.6900   72.2840 O   0  0  0  0  0  0  0  0  0  0  0  0
  129.4680  130.0750   72.5090 C   0  0  0  0  0  0  0  0  0  0  0  0
  129.1650  126.7950   70.8530 C   0  0  0  0  0  0  0  0  0  0  0  0
  128.7800  126.0870   71.9790 O   0  0  0  0  0  0  0  0  0  0  0  0
  129.4830  124.9040   72.3420 C   0  0  0  0  0  0  0  0  0  0  0  0
  129.3340  126.2090   69.5860 C   0  0  0  0  0  0  0  0  0  0  0  0
  128.0850  123.2780   57.7440 C   0  0  0  0  0  0  0  0  0  0  0  0
  126.9430  123.6850   57.0600 C   0  0  0  0  0  0  0  0  0  0  0  0
  123.6694  124.8633   58.7187 H   0  0  0  0  0  0  0  0  0  0  0  0
  123.2113  125.9090   57.3318 H   0  0  0  0  0  0  0  0  0  0  0  0
  122.7627  124.1696   57.3318 H   0  0  0  0  0  0  0  0  0  0  0  0
  125.0356  124.6901   59.7035 H   0  0  0  0  0  0  0  0  0  0  0  0
  127.0734  123.9695   60.9323 H   0  0  0  0  0  0  0  0  0  0  0  0
  130.1020  123.5340   59.6780 H   0  0  0  0  0  0  0  0  0  0  0  0
  130.7173  122.0340   62.6140 H   0  0  0  0  0  0  0  0  0  0  0  0
  131.1225  121.0274   61.1258 H   0  0  0  0  0  0  0  0  0  0  0  0
  128.6842  127.7969   63.9094 H   0  0  0  0  0  0  0  0  0  0  0  0
  126.6258  129.2032   63.6425 H   0  0  0  0  0  0  0  0  0  0  0  0
  125.4483  129.2189   61.4570 H   0  0  0  0  0  0  0  0  0  0  0  0
  128.2503  126.5248   59.8154 H   0  0  0  0  0  0  0  0  0  0  0  0
  133.2224  124.2834   63.4140 H   0  0  0  0  0  0  0  0  0  0  0  0
  133.5928  126.0510   63.0673 H   0  0  0  0  0  0  0  0  0  0  0  0
  130.6590  126.0970   64.7070 H   0  0  0  0  0  0  0  0  0  0  0  0
  131.8210  127.1710   66.8460 H   0  0  0  0  0  0  0  0  0  0  0  0
  130.3178  128.9458   67.8111 H   0  0  0  0  0  0  0  0  0  0  0  0
  130.0093  130.0025   70.0308 H   0  0  0  0  0  0  0  0  0  0  0  0
  129.5014  130.2702   73.5910 H   0  0  0  0  0  0  0  0  0  0  0  0
  130.4282  130.3612   72.0550 H   0  0  0  0  0  0  0  0  0  0  0  0
  128.6576  130.6642   72.0550 H   0  0  0  0  0  0  0  0  0  0  0  0
  129.5290  124.8266   73.4383 H   0  0  0  0  0  0  0  0  0  0  0  0
  128.9596  124.0267   71.9341 H   0  0  0  0  0  0  0  0  0  0  0  0
  130.5038  124.9443   71.9341 H   0  0  0  0  0  0  0  0  0  0  0  0
  129.1400  125.1336   69.4603 H   0  0  0  0  0  0  0  0  0  0  0  0
  128.9468  122.8799   57.1883 H   0  0  0  0  0  0  0  0  0  0  0  0
  126.9068  123.6011   55.9638 H   0  0  0  0  0  0  0  0  0  0  0  0
  1  2  1  0
  2  3  1  0
  3  4  2  0
  4  5  1  0
  5  6  2  0
  6  7  1  0
  7  8  1  0
  8  9  2  0
  8 10  1  0
 10 11  1  0
 11 12  1  0
 12 13  2  0
 13 14  1  0
 14 15  1  0
 15 16  2  0
 16 17  1  0
 17 18  2  0
 18 19  1  0
 19 20  2  0
 14 21  2  0
 21 22  1  0
 22 23  1  0
 23 24  1  0
 24 25  2  0
 24 26  1  0
 26 27  1  0
 27 28  1  0
 28 29  2  0
 28 30  1  0
 30 31  2  0
 31 32  1  0
 32 33  2  0
 33 34  1  0
 34 35  1  0
 33 36  1  0
 36 37  1  0
 37 38  1  0
 36 39  2  0
  6 40  1  0
 40 41  2  0
 41  3  1  0
 22 12  1  0
 39 30  1  0
 20 15  1  0
  1 42  1  0
  1 43  1  0
  1 44  1  0
  4 45  1  0
  5 46  1  0
  7 47  1  0
 10 48  1  0
 10 49  1  0
 16 50  1  0
 17 51  1  0
 18 52  1  0
 20 53  1  0
 23 54  1  0
 23 55  1  0
 26 56  1  0
 27 57  1  0
 31 58  1  0
 32 59  1  0
 35 60  1  0
 35 61  1  0
 35 62  1  0
 38 63  1  0
 38 64  1  0
 38 65  1  0
 39 66  1  0
 40 67  1  0
 41 68  1  0
M  END
>  <Binding energies>  (1) 
[-7.13]

>  <Ligand effiencies>  (1) 
[-0.16204545454545455]

>  <Interactions>  (1) 
["V-A:HIS:456:CE1:4064, H-B:LYS:547:NZ:9919, V-B:ALA:541:CB:9860, V-A:GLU:543:CB:4901, V-B:GLU:543:C:9870, V-A:GLU:543:CD:4903, H-A:TYR:484:OH:4343, H-A:ARG:545:NE:4919, V-A:ARG:545:CZ:4921, H-B:ALA:541:N:9859, V-B:PRO:540:CA:9851, H-A:HIS:456:NE2:4065, H-A:GLU:543:OE1:4904, V-A:GLU:543:C:4897, V-B:HIS:456:CD2:9035, V-B:ASP:366:CB:8179, V-B:ASP:366:CG:8180, V-B:LYS:547:CE:9918, V-B:LEU:363:CD1:8156, V-B:LEU:363:CA:8152, V-B:LEU:363:CB:8154, V-B:MET:535:CE:9803, H-B:TYR:531:OH:9763, V-B:TYR:531:CZ:9762, V-B:TYR:531:CE2:9761"]

$$$$
RR20_Rahimova_2017
     RDKit          3D

 68 73  0  0  0  0  0  0  0  0999 V2000
  129.5300  118.0270   60.4640 C   0  0  0  0  0  0  0  0  0  0  0  0
  130.2510  119.3620   60.5090 C   0  0  0  0  0  0  0  0  0  0  0  0
  129.5310  120.5340   60.7430 C   0  0  0  0  0  0  0  0  0  0  0  0
  130.1920  121.7580   60.7940 C   0  0  0  0  0  0  0  0  0  0  0  0
  131.5760  121.8230   60.5970 C   0  0  0  0  0  0  0  0  0  0  0  0
  132.2780  123.1610   60.6760 C   0  0  0  0  0  0  0  0  0  0  0  0
  132.4010  123.8030   59.6300 O   0  0  0  0  0  0  0  0  0  0  0  0
  132.7300  123.6080   61.8830 N   0  0  0  0  0  0  0  0  0  0  0  0
  134.0460  124.2530   62.0230 C   0  0  0  0  0  0  0  0  0  0  0  0
  134.1310  124.7470   63.4580 C   0  0  0  0  0  0  0  0  0  0  0  0
  132.7070  124.6790   63.9190 C   0  0  0  0  0  0  0  0  0  0  0  0
  132.1550  125.0900   65.1320 C   0  0  0  0  0  0  0  0  0  0  0  0
  130.8230  124.7930   65.4470 C   0  0  0  0  0  0  0  0  0  0  0  0
  130.2250  125.2430   66.7510 C   0  0  0  0  0  0  0  0  0  0  0  0
  130.3980  124.4810   67.8190 N   0  0  0  0  0  0  0  0  0  0  0  0
  129.8540  124.9780   68.9000 C   0  0  0  0  0  0  0  0  0  0  0  0
  129.8530  124.4440   70.1800 N   0  0  0  0  0  0  0  0  0  0  0  0
  130.5730  123.3840   70.6210 C   0  0  0  0  0  0  0  0  0  0  0  0
  131.3650  122.7500   69.9210 O   0  0  0  0  0  0  0  0  0  0  0  0
  130.4100  122.9590   72.0990 C   0  0  0  0  0  0  0  0  0  0  0  0
  129.8350  121.6100   72.2510 N   0  0  0  0  0  0  0  0  0  0  0  0
  129.4060  121.3340   73.6300 C   0  0  0  0  0  0  0  0  0  0  0  0
  129.0640  119.8360   73.7930 C   0  0  0  0  0  0  0  0  0  0  0  0
  128.1990  119.2940   72.6550 C   0  0  0  0  0  0  0  0  0  0  0  0
  127.5700  118.0480   72.7580 C   0  0  0  0  0  0  0  0  0  0  0  0
  126.8130  117.5370   71.7070 C   0  0  0  0  0  0  0  0  0  0  0  0
  126.6730  118.2720   70.5340 C   0  0  0  0  0  0  0  0  0  0  0  0
  127.2870  119.5180   70.4210 C   0  0  0  0  0  0  0  0  0  0  0  0
  128.0510  120.0420   71.4700 C   0  0  0  0  0  0  0  0  0  0  0  0
  128.6760  121.4340   71.3680 C   0  0  0  0  0  0  0  0  0  0  0  0
  129.0460  126.4790   68.6640 S   0  0  0  0  0  0  0  0  0  0  0  0
  129.4740  126.4180   66.9710 C   0  0  0  0  0  0  0  0  0  0  0  0
  129.0150  127.5060   66.0250 C   0  0  0  0  0  0  0  0  0  0  0  0
  130.0750  124.0260   64.5400 C   0  0  0  0  0  0  0  0  0  0  0  0
  130.6300  123.5970   63.3350 C   0  0  0  0  0  0  0  0  0  0  0  0
  131.9360  123.9730   62.9940 C   0  0  0  0  0  0  0  0  0  0  0  0
  132.2970  120.6400   60.3910 C   0  0  0  0  0  0  0  0  0  0  0  0
  131.6360  119.4140   60.3420 C   0  0  0  0  0  0  0  0  0  0  0  0
  129.3412  117.6775   61.4898 H   0  0  0  0  0  0  0  0  0  0  0  0
  128.5729  118.1448   59.9348 H   0  0  0  0  0  0  0  0  0  0  0  0
  130.1534  117.2912   59.9348 H   0  0  0  0  0  0  0  0  0  0  0  0
  128.4413  120.4908   60.8871 H   0  0  0  0  0  0  0  0  0  0  0  0
  129.6235  122.6790   60.9902 H   0  0  0  0  0  0  0  0  0  0  0  0
  134.8484  123.5279   61.8221 H   0  0  0  0  0  0  0  0  0  0  0  0
  134.1623  125.0812   61.3085 H   0  0  0  0  0  0  0  0  0  0  0  0
  134.7751  124.0932   64.0643 H   0  0  0  0  0  0  0  0  0  0  0  0
  134.5693  125.7520   63.5467 H   0  0  0  0  0  0  0  0  0  0  0  0
  132.7717  125.6528   65.8482 H   0  0  0  0  0  0  0  0  0  0  0  0
  129.2410  124.8930   70.8470 H   0  0  0  0  0  0  0  0  0  0  0  0
  131.3995  122.9743   72.5792 H   0  0  0  0  0  0  0  0  0  0  0  0
  129.7136  123.6682   72.5702 H   0  0  0  0  0  0  0  0  0  0  0  0
  130.2182  121.5987   74.3230 H   0  0  0  0  0  0  0  0  0  0  0  0
  128.5109  121.9328   73.8540 H   0  0  0  0  0  0  0  0  0  0  0  0
  130.0027  119.2633   73.8232 H   0  0  0  0  0  0  0  0  0  0  0  0
  128.4879  119.7292   74.7240 H   0  0  0  0  0  0  0  0  0  0  0  0
  127.6753  117.4632   73.6837 H   0  0  0  0  0  0  0  0  0  0  0  0
  126.3270  116.5549   71.8038 H   0  0  0  0  0  0  0  0  0  0  0  0
  126.0799  117.8711   69.6988 H   0  0  0  0  0  0  0  0  0  0  0  0
  127.1694  120.0981   69.4938 H   0  0  0  0  0  0  0  0  0  0  0  0
  128.9990  121.5976   70.3293 H   0  0  0  0  0  0  0  0  0  0  0  0
  127.9117  122.1608   71.6806 H   0  0  0  0  0  0  0  0  0  0  0  0
  128.6517  128.3671   66.6051 H   0  0  0  0  0  0  0  0  0  0  0  0
  129.8573  127.8201   65.3911 H   0  0  0  0  0  0  0  0  0  0  0  0
  128.2023  127.1218   65.3911 H   0  0  0  0  0  0  0  0  0  0  0  0
  129.0359  123.7595   64.7834 H   0  0  0  0  0  0  0  0  0  0  0  0
  130.0433  122.9641   62.6529 H   0  0  0  0  0  0  0  0  0  0  0  0
  133.3893  120.6787   60.2674 H   0  0  0  0  0  0  0  0  0  0  0  0
  132.2051  118.4882   60.1719 H   0  0  0  0  0  0  0  0  0  0  0  0
  1  2  1  0
  2  3  2  0
  3  4  1  0
  4  5  2  0
  5  6  1  0
  6  7  2  0
  6  8  1  0
  8  9  1  0
  9 10  1  0
 10 11  1  0
 11 12  2  0
 12 13  1  0
 13 14  1  0
 14 15  1  0
 15 16  2  0
 16 17  1  0
 17 18  1  0
 18 19  2  0
 18 20  1  0
 20 21  1  0
 21 22  1  0
 22 23  1  0
 23 24  1  0
 24 25  2  0
 25 26  1  0
 26 27  2  0
 27 28  1  0
 28 29  2  0
 29 30  1  0
 16 31  1  0
 31 32  1  0
 32 33  1  0
 13 34  2  0
 34 35  1  0
 35 36  2  0
  5 37  1  0
 37 38  2  0
 38  2  1  0
 36  8  1  0
 36 11  1  0
 32 14  2  0
 30 21  1  0
 29 24  1  0
  1 39  1  0
  1 40  1  0
  1 41  1  0
  3 42  1  0
  4 43  1  0
  9 44  1  0
  9 45  1  0
 10 46  1  0
 10 47  1  0
 12 48  1  0
 17 49  1  0
 20 50  1  0
 20 51  1  0
 22 52  1  0
 22 53  1  0
 23 54  1  0
 23 55  1  0
 25 56  1  0
 26 57  1  0
 27 58  1  0
 28 59  1  0
 30 60  1  0
 30 61  1  0
 33 62  1  0
 33 63  1  0
 33 64  1  0
 34 65  1  0
 35 66  1  0
 37 67  1  0
 38 68  1  0
M  END
>  <Binding energies>  (1) 
[-9.94]

>  <Ligand effiencies>  (1) 
[-0.25487179487179484]

>  <Interactions>  (1) 
["V-B:PRO:540:C:9849, V-B:GLU:543:CG:9875, V-A:TRP:381:CD2:3360, V-A:TRP:381:CZ3:3366, H-B:GLU:543:O:9871, V-A:HIS:456:CE1:4064, V-A:PRO:482:CG:4322, V-B:TYR:539:CB:9839, V-A:TRP:381:CZ2:3365, V-B:ALA:541:CB:9860, V-B:GLU:543:CB:9874, V-A:TRP:381:CE3:3363, V-A:TRP:381:CH2:3367, V-B:TYR:539:C:9835, V-B:TYR:539:CD2:9842, V-A:LEU:475:CD2:4254, V-A:TRP:381:CE2:3362, V-A:PRO:482:CB:4321, V-B:TYR:539:CE2:9844, V-A:ILE:369:CD1:3234, V-A:ASP:366:CG:3208, V-B:GLU:543:C:9870, V-A:TYR:484:CE1:4340, V-B:GLU:543:CA:9872, V-A:GLU:543:CD:4903, V-B:GLU:543:CD:9876, H-A:TYR:484:OH:4343, V-A:ARG:545:CZ:4921, H-A:HIS:456:NE2:4065, V-A:TYR:484:CG:4337, V-A:TYR:484:CD1:4338, V-A:HIS:456:CG:4061, V-A:GLY:453:CA:4039, V-A:HIS:456:CD2:4063, V-A:GLY:453:C:4037, V-A:TYR:484:CB:4336, V-B:VAL:542:C:9862, V-A:SER:483:CA:4326, V-A:SER:483:CB:4328, V-B:VAL:542:CG1:9867, V-B:VAL:542:CB:9866"]

$$$$
RR20_Rahimova_2017-again1
     RDKit          3D

 68 73  0  0  0  0  0  0  0  0999 V2000
  124.2940  133.3130   61.8590 C   0  0  0  0  0  0  0  0  0  0  0  0
  125.2100  132.3420   62.5830 C   0  0  0  0  0  0  0  0  0  0  0  0
  124.7240  131.0970   62.9860 C   0  0  0  0  0  0  0  0  0  0  0  0
  125.5650  130.2030   63.6430 C   0  0  0  0  0  0  0  0  0  0  0  0
  126.8940  130.5500   63.9130 C   0  0  0  0  0  0  0  0  0  0  0  0
  127.7970  129.5580   64.6120 C   0  0  0  0  0  0  0  0  0  0  0  0
  128.9460  129.4280   64.1840 O   0  0  0  0  0  0  0  0  0  0  0  0
  127.3230  128.8730   65.6940 N   0  0  0  0  0  0  0  0  0  0  0  0
  126.3100  127.8150   65.5500 C   0  0  0  0  0  0  0  0  0  0  0  0
  126.1460  127.1880   66.9250 C   0  0  0  0  0  0  0  0  0  0  0  0
  127.3520  127.6880   67.6630 C   0  0  0  0  0  0  0  0  0  0  0  0
  127.7820  127.3760   68.9540 C   0  0  0  0  0  0  0  0  0  0  0  0
  128.8490  128.0750   69.5390 C   0  0  0  0  0  0  0  0  0  0  0  0
  129.3090  127.7450   70.9300 C   0  0  0  0  0  0  0  0  0  0  0  0
  129.4590  126.4700   71.2540 N   0  0  0  0  0  0  0  0  0  0  0  0
  129.8540  126.2750   72.4890 C   0  0  0  0  0  0  0  0  0  0  0  0
  130.0620  125.0930   73.1500 N   0  0  0  0  0  0  0  0  0  0  0  0
  129.2000  124.1360   73.2460 C   0  0  0  0  0  0  0  0  0  0  0  0
  128.0690  123.9900   72.7450 O   0  0  0  0  0  0  0  0  0  0  0  0
  129.6660  122.9620   74.1310 C   0  0  0  0  0  0  0  0  0  0  0  0
  130.6130  122.0300   73.3200 N   0  0  2  0  0  0  0  0  0  0  0  0
  130.7290  122.4470   71.8400 C   0  0  0  0  0  0  0  0  0  0  0  0
  129.3730  122.2670   71.1340 C   0  0  0  0  0  0  0  0  0  0  0  0
  128.7400  120.9020   71.3870 C   0  0  0  0  0  0  0  0  0  0  0  0
  127.7530  120.4230   70.5180 C   0  0  0  0  0  0  0  0  0  0  0  0
  127.1200  119.2030   70.7440 C   0  0  0  0  0  0  0  0  0  0  0  0
  127.4720  118.4400   71.8510 C   0  0  0  0  0  0  0  0  0  0  0  0
  128.4620  118.8970   72.7170 C   0  0  0  0  0  0  0  0  0  0  0  0
  129.1150  120.1160   72.5020 C   0  0  0  0  0  0  0  0  0  0  0  0
  130.2340  120.5360   73.4640 C   0  0  0  0  0  0  0  0  0  0  0  0
  130.0500  127.7370   73.3800 S   0  0  0  0  0  0  0  0  0  0  0  0
  129.6080  128.6570   71.9620 C   0  0  0  0  0  0  0  0  0  0  0  0
  129.6180  130.1710   71.9950 C   0  0  0  0  0  0  0  0  0  0  0  0
  129.4380  129.1210   68.8170 C   0  0  0  0  0  0  0  0  0  0  0  0
  128.9980  129.4470   67.5330 C   0  0  0  0  0  0  0  0  0  0  0  0
  127.9850  128.6900   66.9290 C   0  0  0  0  0  0  0  0  0  0  0  0
  127.3820  131.7890   63.4780 C   0  0  0  0  0  0  0  0  0  0  0  0
  126.5410  132.6830   62.8210 C   0  0  0  0  0  0  0  0  0  0  0  0
  123.7335  133.9071   62.5958 H   0  0  0  0  0  0  0  0  0  0  0  0
  124.8958  133.9839   61.2284 H   0  0  0  0  0  0  0  0  0  0  0  0
  123.5892  132.7513   61.2284 H   0  0  0  0  0  0  0  0  0  0  0  0
  123.6779  130.8227   62.7847 H   0  0  0  0  0  0  0  0  0  0  0  0
  125.1831  129.2187   63.9516 H   0  0  0  0  0  0  0  0  0  0  0  0
  125.3558  128.2453   65.2118 H   0  0  0  0  0  0  0  0  0  0  0  0
  126.6179  127.0669   64.8047 H   0  0  0  0  0  0  0  0  0  0  0  0
  125.2173  127.5273   67.4072 H   0  0  0  0  0  0  0  0  0  0  0  0
  126.0754  126.0906   66.8981 H   0  0  0  0  0  0  0  0  0  0  0  0
  127.2802  126.5755   69.5174 H   0  0  0  0  0  0  0  0  0  0  0  0
  130.2037  123.3560   75.0060 H   0  0  0  0  0  0  0  0  0  0  0  0
  128.7883  122.3872   74.4615 H   0  0  0  0  0  0  0  0  0  0  0  0
  131.5330  122.1490   73.7240 H   0  0  0  0  0  0  0  0  0  0  0  0
  131.0326  123.5027   71.7818 H   0  0  0  0  0  0  0  0  0  0  0  0
  131.4805  121.8146   71.3447 H   0  0  0  0  0  0  0  0  0  0  0  0
  128.6843  123.0443   71.4965 H   0  0  0  0  0  0  0  0  0  0  0  0
  129.5546  122.3476   70.0521 H   0  0  0  0  0  0  0  0  0  0  0  0
  127.4716  121.0218   69.6392 H   0  0  0  0  0  0  0  0  0  0  0  0
  126.3454  118.8452   70.0498 H   0  0  0  0  0  0  0  0  0  0  0  0
  126.9709  117.4796   72.0422 H   0  0  0  0  0  0  0  0  0  0  0  0
  128.7370  118.2863   73.5896 H   0  0  0  0  0  0  0  0  0  0  0  0
  129.8978  120.3556   74.4957 H   0  0  0  0  0  0  0  0  0  0  0  0
  131.1258  119.9408   73.2181 H   0  0  0  0  0  0  0  0  0  0  0  0
  129.6203  130.5150   73.0398 H   0  0  0  0  0  0  0  0  0  0  0  0
  130.5186  130.5429   71.4846 H   0  0  0  0  0  0  0  0  0  0  0  0
  128.7224  130.5548   71.4846 H   0  0  0  0  0  0  0  0  0  0  0  0
  130.2605  129.6947   69.2691 H   0  0  0  0  0  0  0  0  0  0  0  0
  129.4455  130.2965   66.9963 H   0  0  0  0  0  0  0  0  0  0  0  0
  128.4340  132.0566   63.6563 H   0  0  0  0  0  0  0  0  0  0  0  0
  126.9265  133.6585   62.4896 H   0  0  0  0  0  0  0  0  0  0  0  0
  1  2  1  0
  2  3  2  0
  3  4  1  0
  4  5  2  0
  5  6  1  0
  6  7  2  0
  6  8  1  0
  8  9  1  0
  9 10  1  0
 10 11  1  0
 11 12  2  0
 12 13  1  0
 13 14  1  0
 14 15  1  0
 15 16  2  0
 16 17  1  0
 17 18  2  0
 18 19  1  0
 18 20  1  0
 20 21  1  0
 21 22  1  0
 22 23  1  0
 23 24  1  0
 24 25  2  0
 25 26  1  0
 26 27  2  0
 27 28  1  0
 28 29  2  0
 29 30  1  0
 16 31  1  0
 31 32  1  0
 32 33  1  0
 13 34  2  0
 34 35  1  0
 35 36  2  0
  5 37  1  0
 37 38  2  0
 38  2  1  0
 36  8  1  0
 36 11  1  0
 32 14  2  0
 30 21  1  0
 29 24  1  0
  1 39  1  0
  1 40  1  0
  1 41  1  0
  3 42  1  0
  4 43  1  0
  9 44  1  0
  9 45  1  0
 10 46  1  0
 10 47  1  0
 12 48  1  0
 20 49  1  0
 20 50  1  0
 21 51  1  1
 22 52  1  0
 22 53  1  0
 23 54  1  0
 23 55  1  0
 25 56  1  0
 26 57  1  0
 27 58  1  0
 28 59  1  0
 30 60  1  0
 30 61  1  0
 33 62  1  0
 33 63  1  0
 33 64  1  0
 34 65  1  0
 35 66  1  0
 37 67  1  0
 38 68  1  0
M  CHG  2  19  -1  21   1
M  END
>  <Binding energies>  (1) 
[-9.48]

>  <Ligand effiencies>  (1) 
[-0.24307692307692308]

>  <Interactions>  (1) 
["V-B:GLU:543:CG:9875, V-A:HIS:456:CE1:4064, H-B:LYS:547:NZ:9919, V-B:GLU:543:CB:9874, V-A:GLU:543:CB:4901, V-B:HIS:456:CE1:9037, V-A:GLU:543:CG:4902, V-B:GLU:543:C:9870, V-B:GLU:543:CA:9872, V-A:GLU:543:CD:4903, V-B:GLU:543:CD:9876, V-B:ARG:545:CG:9890, V-A:TYR:484:CG:4337, V-A:TYR:484:CD1:4338, V-A:GLU:543:C:4897, V-A:LYS:547:CE:4945, V-B:HIS:456:CD2:9035, V-B:ARG:545:CD:9891, V-B:LEU:475:CD2:9226, V-B:LYS:547:CE:9918, H-A:ASP:473:OD1:4236, V-A:TYR:484:CB:4336, V-B:ILE:369:CD1:8206, V-A:TYR:484:CD2:4339, V-A:TYR:484:C:4332, V-B:VAL:542:C:9862, V-A:TYR:484:CA:4334, V-B:VAL:542:CG1:9867"]

$$$$
RR21_Rahimova_2017
     RDKit          3D

 62 67  0  0  0  0  0  0  0  0999 V2000
  132.9020  124.2400   58.5620 C   0  0  0  0  0  0  0  0  0  0  0  0
  132.9270  124.1430   59.9830 O   0  0  0  0  0  0  0  0  0  0  0  0
  132.1370  124.9950   60.7320 C   0  0  0  0  0  0  0  0  0  0  0  0
  131.0960  125.7770   60.2040 C   0  0  0  0  0  0  0  0  0  0  0  0
  130.3430  126.6090   61.0310 C   0  0  0  0  0  0  0  0  0  0  0  0
  130.6070  126.6790   62.4040 C   0  0  0  0  0  0  0  0  0  0  0  0
  129.7930  127.5710   63.2910 C   0  0  0  0  0  0  0  0  0  0  0  0
  129.3050  128.7000   62.8160 N   0  0  0  0  0  0  0  0  0  0  0  0
  128.6290  129.2800   63.8200 N   0  0  0  0  0  0  0  0  0  0  0  0
  127.9550  130.5160   63.6420 C   0  0  0  0  0  0  0  0  0  0  0  0
  128.6710  131.7210   63.5690 C   0  0  0  0  0  0  0  0  0  0  0  0
  127.9980  132.9270   63.3900 C   0  0  0  0  0  0  0  0  0  0  0  0
  126.6090  132.9330   63.2830 C   0  0  0  0  0  0  0  0  0  0  0  0
  125.8870  131.7450   63.3560 C   0  0  0  0  0  0  0  0  0  0  0  0
  126.5570  130.5370   63.5360 C   0  0  0  0  0  0  0  0  0  0  0  0
  128.6790  128.4920   64.9420 C   0  0  0  0  0  0  0  0  0  0  0  0
  129.4410  127.3720   64.6460 C   0  0  0  0  0  0  0  0  0  0  0  0
  129.7370  126.2340   65.5030 C   0  0  0  0  0  0  0  0  0  0  0  0
  129.6780  126.1650   66.8530 C   0  0  0  0  0  0  0  0  0  0  0  0
  129.2310  127.4520   67.9940 S   0  0  0  0  0  0  0  0  0  0  0  0
  129.4520  126.3280   69.3270 C   0  0  0  0  0  0  0  0  0  0  0  0
  129.2780  126.5500   70.5930 N   0  0  0  0  0  0  0  0  0  0  0  0
  129.4820  125.5430   71.5750 C   0  0  0  0  0  0  0  0  0  0  0  0
  129.3180  125.6670   72.7890 O   0  0  0  0  0  0  0  0  0  0  0  0
  129.9300  124.2230   71.0080 C   0  0  0  0  0  0  0  0  0  0  0  0
  130.2010  123.0640   71.9760 C   0  0  0  0  0  0  0  0  0  0  0  0
  129.3180  121.8390   71.7530 C   0  0  0  0  0  0  0  0  0  0  0  0
  128.7480  121.6050   70.4980 C   0  0  0  0  0  0  0  0  0  0  0  0
  127.9570  120.4780   70.2910 C   0  0  0  0  0  0  0  0  0  0  0  0
  127.7340  119.5810   71.3370 C   0  0  0  0  0  0  0  0  0  0  0  0
  126.8800  118.3480   71.1020 C   0  0  0  0  0  0  0  0  0  0  0  0
  128.3110  119.8060   72.5890 C   0  0  0  0  0  0  0  0  0  0  0  0
  129.1020  120.9330   72.7960 C   0  0  0  0  0  0  0  0  0  0  0  0
  130.1050  124.0180   69.7440 N   0  0  0  0  0  0  0  0  0  0  0  0
  129.8570  125.0960   68.8850 N   0  0  0  0  0  0  0  0  0  0  0  0
  130.0080  124.9280   67.5480 C   0  0  0  0  0  0  0  0  0  0  0  0
  130.3680  123.8760   67.0060 O   0  0  0  0  0  0  0  0  0  0  0  0
  131.6470  125.9060   62.9300 C   0  0  0  0  0  0  0  0  0  0  0  0
  132.4020  125.0730   62.1040 C   0  0  0  0  0  0  0  0  0  0  0  0
  133.4010  124.3360   62.6440 F   0  0  0  0  0  0  0  0  0  0  0  0
  132.6374  125.2668   58.2692 H   0  0  0  0  0  0  0  0  0  0  0  0
  133.8944  123.9882   58.1598 H   0  0  0  0  0  0  0  0  0  0  0  0
  132.1549  123.5399   58.1598 H   0  0  0  0  0  0  0  0  0  0  0  0
  130.8730  125.7323   59.1278 H   0  0  0  0  0  0  0  0  0  0  0  0
  129.5333  127.2165   60.6005 H   0  0  0  0  0  0  0  0  0  0  0  0
  129.7677  131.7128   63.6535 H   0  0  0  0  0  0  0  0  0  0  0  0
  128.5606  133.8705   63.3334 H   0  0  0  0  0  0  0  0  0  0  0  0
  126.0777  133.8855   63.1395 H   0  0  0  0  0  0  0  0  0  0  0  0
  124.7903  131.7601   63.2718 H   0  0  0  0  0  0  0  0  0  0  0  0
  125.9880  129.5974   63.5951 H   0  0  0  0  0  0  0  0  0  0  0  0
  128.1988  128.7104   65.9072 H   0  0  0  0  0  0  0  0  0  0  0  0
  130.0482  125.3131   64.9881 H   0  0  0  0  0  0  0  0  0  0  0  0
  131.2510  122.7573   71.8606 H   0  0  0  0  0  0  0  0  0  0  0  0
  129.9727  123.4370   72.9853 H   0  0  0  0  0  0  0  0  0  0  0  0
  128.9245  122.3116   69.6737 H   0  0  0  0  0  0  0  0  0  0  0  0
  127.5080  120.2946   69.3037 H   0  0  0  0  0  0  0  0  0  0  0  0
  126.5823  117.9182   72.0698 H   0  0  0  0  0  0  0  0  0  0  0  0
  125.9811  118.6276   70.5329 H   0  0  0  0  0  0  0  0  0  0  0  0
  127.4578  117.6048   70.5329 H   0  0  0  0  0  0  0  0  0  0  0  0
  128.1408  119.0940   73.4100 H   0  0  0  0  0  0  0  0  0  0  0  0
  129.5576  121.1109   73.7813 H   0  0  0  0  0  0  0  0  0  0  0  0
  131.8719  125.9553   64.0056 H   0  0  0  0  0  0  0  0  0  0  0  0
  1  2  1  0
  2  3  1  0
  3  4  2  0
  4  5  1  0
  5  6  2  0
  6  7  1  0
  7  8  2  0
  8  9  1  0
  9 10  1  0
 10 11  2  0
 11 12  1  0
 12 13  2  0
 13 14  1  0
 14 15  2  0
  9 16  1  0
 16 17  2  0
 17 18  1  0
 18 19  2  0
 19 20  1  0
 20 21  1  0
 21 22  2  0
 22 23  1  0
 23 24  2  0
 23 25  1  0
 25 26  1  0
 26 27  1  0
 27 28  2  0
 28 29  1  0
 29 30  2  0
 30 31  1  0
 30 32  1  0
 32 33  2  0
 25 34  2  0
 34 35  1  0
 35 36  1  0
 36 37  2  0
  6 38  1  0
 38 39  2  0
 39 40  1  0
 39  3  1  0
 17  7  1  0
 36 19  1  0
 15 10  1  0
 35 21  1  0
 33 27  1  0
  1 41  1  0
  1 42  1  0
  1 43  1  0
  4 44  1  0
  5 45  1  0
 11 46  1  0
 12 47  1  0
 13 48  1  0
 14 49  1  0
 15 50  1  0
 16 51  1  0
 18 52  1  0
 26 53  1  0
 26 54  1  0
 28 55  1  0
 29 56  1  0
 31 57  1  0
 31 58  1  0
 31 59  1  0
 32 60  1  0
 33 61  1  0
 38 62  1  0
M  END
>  <Binding energies>  (1) 
[-8.48]

>  <Ligand effiencies>  (1) 
[-0.21200000000000002]

>  <Interactions>  (1) 
["V-B:GLU:543:CG:9875, V-A:HIS:456:CE1:4064, H-B:LYS:547:NZ:9919, V-B:GLU:543:CB:9874, V-A:ASP:366:CG:3208, V-A:ASP:366:CB:3207, V-A:GLU:543:CG:4902, V-B:GLU:543:C:9870, V-A:TYR:484:CE1:4340, V-B:GLU:543:CA:9872, V-A:GLU:543:CD:4903, V-B:GLU:543:CD:9876, H-A:TYR:484:OH:4343, H-A:HIS:456:NE2:4065, V-A:TYR:484:CG:4337, V-A:TYR:484:CD1:4338, V-A:ALA:541:CB:4887, V-B:LEU:475:CD2:9226, V-A:TYR:484:CB:4336, V-B:VAL:542:C:9862, V-A:SER:483:CB:4328, V-B:VAL:542:CG1:9867"]

$$$$
RR22_Rahimova_2017
     RDKit          3D

 49 54  0  0  0  0  0  0  0  0999 V2000
  134.7570  125.3740   64.8760 O   0  0  0  0  0  0  0  0  0  0  0  0
  133.5700  125.3080   64.5650 C   0  0  0  0  0  0  0  0  0  0  0  0
  132.5280  126.0850   65.0400 N   0  0  0  0  0  0  0  0  0  0  0  0
  131.2030  125.9190   64.5250 C   0  0  1  0  0  0  0  0  0  0  0  0
  130.3860  125.6600   65.6700 O   0  0  0  0  0  0  0  0  0  0  0  0
  129.3350  126.5360   65.9470 C   0  0  0  0  0  0  0  0  0  0  0  0
  128.8030  126.4810   67.2350 C   0  0  0  0  0  0  0  0  0  0  0  0
  127.7240  127.2980   67.5740 C   0  0  0  0  0  0  0  0  0  0  0  0
  127.1750  128.1600   66.6240 C   0  0  0  0  0  0  0  0  0  0  0  0
  127.7080  128.2140   65.3350 C   0  0  0  0  0  0  0  0  0  0  0  0
  128.8050  127.4200   64.9880 C   0  0  0  0  0  0  0  0  0  0  0  0
  129.4260  127.3720   63.6100 C   0  0  1  0  0  0  0  0  0  0  0  0
  129.4650  128.5780   62.6930 C   0  0  0  0  0  0  0  0  0  0  0  0
  130.7520  128.2770   61.9200 C   0  0  0  0  0  0  0  0  0  0  0  0
  131.0780  128.9200   60.6320 C   0  0  0  0  0  0  0  0  0  0  0  0
  130.3660  128.5900   59.4690 C   0  0  0  0  0  0  0  0  0  0  0  0
  130.6760  129.2000   58.2570 C   0  0  0  0  0  0  0  0  0  0  0  0
  131.6990  130.1430   58.1990 C   0  0  0  0  0  0  0  0  0  0  0  0
  132.4150  130.4820   59.3440 C   0  0  0  0  0  0  0  0  0  0  0  0
  132.1050  129.8740   60.5570 C   0  0  0  0  0  0  0  0  0  0  0  0
  131.4830  127.4370   62.5500 N   0  0  0  0  0  0  0  0  0  0  0  0
  130.8270  127.1090   63.7480 N   0  0  0  0  0  0  0  0  0  0  0  0
  131.2170  124.6480   63.6900 C   0  0  0  0  0  0  0  0  0  0  0  0
  130.0890  123.9900   63.3300 C   0  0  0  0  0  0  0  0  0  0  0  0
  129.9580  122.7680   62.5120 C   0  0  0  0  0  0  0  0  0  0  0  0
  130.8060  121.6600   62.6480 C   0  0  0  0  0  0  0  0  0  0  0  0
  130.6220  120.5380   61.8380 C   0  0  0  0  0  0  0  0  0  0  0  0
  129.5900  120.5560   60.9010 C   0  0  0  0  0  0  0  0  0  0  0  0
  128.7600  121.6170   60.7410 N   0  0  0  0  0  0  0  0  0  0  0  0
  128.9540  122.6990   61.5390 C   0  0  0  0  0  0  0  0  0  0  0  0
  132.8780  124.1300   63.3650 S   0  0  0  0  0  0  0  0  0  0  0  0
  132.6760  126.7480   65.7850 H   0  0  0  0  0  0  0  0  0  0  0  0
  129.2325  125.7960   67.9809 H   0  0  0  0  0  0  0  0  0  0  0  0
  127.3059  127.2626   68.5908 H   0  0  0  0  0  0  0  0  0  0  0  0
  126.3202  128.7985   66.8915 H   0  0  0  0  0  0  0  0  0  0  0  0
  127.2617  128.8860   64.5871 H   0  0  0  0  0  0  0  0  0  0  0  0
  128.7487  126.6370   63.1505 H   0  0  0  0  0  0  0  0  0  0  0  0
  128.5886  128.6156   62.0293 H   0  0  0  0  0  0  0  0  0  0  0  0
  129.4466  129.5518   63.2043 H   0  0  0  0  0  0  0  0  0  0  0  0
  129.5581  127.8449   59.5153 H   0  0  0  0  0  0  0  0  0  0  0  0
  130.1148  128.9381   57.3479 H   0  0  0  0  0  0  0  0  0  0  0  0
  131.9435  130.6241   57.2405 H   0  0  0  0  0  0  0  0  0  0  0  0
  133.2223  131.2272   59.2901 H   0  0  0  0  0  0  0  0  0  0  0  0
  132.6684  130.1428   61.4627 H   0  0  0  0  0  0  0  0  0  0  0  0
  129.1463  124.4233   63.6953 H   0  0  0  0  0  0  0  0  0  0  0  0
  131.6157  121.6747   63.3924 H   0  0  0  0  0  0  0  0  0  0  0  0
  131.2766  119.6595   61.9369 H   0  0  0  0  0  0  0  0  0  0  0  0
  129.4423  119.6716   60.2638 H   0  0  0  0  0  0  0  0  0  0  0  0
  128.2879  123.5655   61.4142 H   0  0  0  0  0  0  0  0  0  0  0  0
  1  2  2  0
  2  3  1  0
  3  4  1  0
  4  5  1  1
  5  6  1  0
  6  7  2  0
  7  8  1  0
  8  9  2  0
  9 10  1  0
 10 11  2  0
 11 12  1  0
 12 13  1  0
 13 14  1  0
 14 15  1  0
 15 16  2  0
 16 17  1  0
 17 18  2  0
 18 19  1  0
 19 20  2  0
 14 21  2  0
 21 22  1  0
  4 23  1  0
 23 24  2  0
 24 25  1  0
 25 26  2  0
 26 27  1  0
 27 28  2  0
 28 29  1  0
 29 30  2  0
 23 31  1  0
 31  2  1  0
 22  4  1  0
 30 25  1  0
 11  6  1  0
 22 12  1  0
 20 15  1  0
  3 32  1  0
  7 33  1  0
  8 34  1  0
  9 35  1  0
 10 36  1  0
 12 37  1  6
 13 38  1  0
 13 39  1  0
 16 40  1  0
 17 41  1  0
 18 42  1  0
 19 43  1  0
 20 44  1  0
 24 45  1  0
 26 46  1  0
 27 47  1  0
 28 48  1  0
 30 49  1  0
M  END
>  <Binding energies>  (1) 
[-8.48]

>  <Ligand effiencies>  (1) 
[-0.265]

>  <Interactions>  (1) 
["V-B:GLU:543:CG:9875, V-B:ALA:541:CB:9860, V-B:GLU:543:CB:9874, V-A:LEU:475:CD2:4254, V-B:HIS:456:CE1:9037, V-A:GLU:543:CD:4903, V-B:GLU:543:CD:9876, H-A:ARG:545:NH1:4922, H-A:TYR:484:OH:4343, H-A:ARG:545:NE:4919, H-A:ARG:545:NH2:4923, H-A:GLY:454:N:4045, V-A:ARG:545:CZ:4921, H-B:ALA:541:N:9859, H-A:GLU:543:OE1:4904, V-A:PRO:540:CB:4880"]

$$$$
RR23_Rahimova_2017
     RDKit          3D

 65 70  0  0  0  0  0  0  0  0999 V2000
  134.3530  129.8790   59.1390 C   0  0  0  0  0  0  0  0  0  0  0  0
  133.0870  130.6100   58.7320 C   0  0  0  0  0  0  0  0  0  0  0  0
  132.9210  131.0390   57.4140 C   0  0  0  0  0  0  0  0  0  0  0  0
  131.7550  131.7020   57.0390 C   0  0  0  0  0  0  0  0  0  0  0  0
  130.7510  131.9510   57.9810 C   0  0  0  0  0  0  0  0  0  0  0  0
  129.4830  132.6530   57.5490 C   0  0  0  0  0  0  0  0  0  0  0  0
  129.5870  133.5610   56.7210 O   0  0  0  0  0  0  0  0  0  0  0  0
  128.2850  132.2540   58.0700 N   0  0  0  0  0  0  0  0  0  0  0  0
  127.3760  131.3710   57.3220 C   0  0  0  0  0  0  0  0  0  0  0  0
  126.2340  131.0330   58.2670 C   0  0  0  0  0  0  0  0  0  0  0  0
  126.7740  131.4460   59.6030 C   0  0  0  0  0  0  0  0  0  0  0  0
  126.2020  131.2950   60.8670 C   0  0  0  0  0  0  0  0  0  0  0  0
  126.7930  131.8950   61.9890 C   0  0  0  0  0  0  0  0  0  0  0  0
  126.1970  131.7530   63.3980 C   0  0  2  0  0  0  0  0  0  0  0  0
  126.7010  130.5860   64.0890 N   0  0  0  0  0  0  0  0  0  0  0  0
  125.8340  130.0920   64.8780 C   0  0  0  0  0  0  0  0  0  0  0  0
  125.9470  128.9870   65.6630 N   0  0  0  0  0  0  0  0  0  0  0  0
  126.9480  128.0740   65.6910 C   0  0  0  0  0  0  0  0  0  0  0  0
  127.9760  128.1160   65.0130 O   0  0  0  0  0  0  0  0  0  0  0  0
  126.7430  126.8970   66.6600 C   0  0  0  0  0  0  0  0  0  0  0  0
  127.2850  127.2620   67.9880 N   0  0  0  0  0  0  0  0  0  0  0  0
  126.3950  127.1480   69.0480 N   0  0  0  0  0  0  0  0  0  0  0  0
  126.7460  127.4380   70.2600 N   0  0  0  0  0  0  0  0  0  0  0  0
  128.0460  127.8750   70.5200 C   0  0  0  0  0  0  0  0  0  0  0  0
  128.3920  128.1820   71.8390 C   0  0  0  0  0  0  0  0  0  0  0  0
  129.6840  128.6210   72.1310 C   0  0  0  0  0  0  0  0  0  0  0  0
  130.6280  128.7550   71.1100 C   0  0  0  0  0  0  0  0  0  0  0  0
  130.2850  128.4500   69.7920 C   0  0  0  0  0  0  0  0  0  0  0  0
  128.9890  128.0070   69.4990 C   0  0  0  0  0  0  0  0  0  0  0  0
  128.5960  127.6750   68.0790 C   0  0  0  0  0  0  0  0  0  0  0  0
  129.3600  127.7750   67.1140 O   0  0  0  0  0  0  0  0  0  0  0  0
  124.2560  130.9260   64.9740 S   0  0  0  0  0  0  0  0  0  0  0  0
  124.6520  131.7880   63.4420 C   0  0  2  0  0  0  0  0  0  0  0  0
  123.9100  131.1040   62.2740 C   0  0  0  0  0  0  0  0  0  0  0  0
  127.9340  132.6860   61.8090 C   0  0  0  0  0  0  0  0  0  0  0  0
  128.4940  132.8550   60.5430 C   0  0  0  0  0  0  0  0  0  0  0  0
  127.9460  132.1870   59.4400 C   0  0  0  0  0  0  0  0  0  0  0  0
  130.9110  131.4920   59.2950 C   0  0  0  0  0  0  0  0  0  0  0  0
  132.0770  130.8290   59.6700 C   0  0  0  0  0  0  0  0  0  0  0  0
  134.4180  129.8415   60.2364 H   0  0  0  0  0  0  0  0  0  0  0  0
  134.3302  128.8550   58.7378 H   0  0  0  0  0  0  0  0  0  0  0  0
  135.2285  130.4106   58.7378 H   0  0  0  0  0  0  0  0  0  0  0  0
  133.7112  130.8534   56.6716 H   0  0  0  0  0  0  0  0  0  0  0  0
  131.6229  132.0313   55.9978 H   0  0  0  0  0  0  0  0  0  0  0  0
  126.9918  131.8876   56.4301 H   0  0  0  0  0  0  0  0  0  0  0  0
  127.8935  130.4626   56.9800 H   0  0  0  0  0  0  0  0  0  0  0  0
  125.3278  131.6025   58.0128 H   0  0  0  0  0  0  0  0  0  0  0  0
  125.9345  129.9753   58.2268 H   0  0  0  0  0  0  0  0  0  0  0  0
  125.2828  130.7023   60.9842 H   0  0  0  0  0  0  0  0  0  0  0  0
  126.5389  132.6517   63.9322 H   0  0  0  0  0  0  0  0  0  0  0  0
  125.1660  128.7950   66.2720 H   0  0  0  0  0  0  0  0  0  0  0  0
  125.6691  126.6758   66.7487 H   0  0  0  0  0  0  0  0  0  0  0  0
  127.2660  126.0077   66.2783 H   0  0  0  0  0  0  0  0  0  0  0  0
  127.6490  128.0780   72.6434 H   0  0  0  0  0  0  0  0  0  0  0  0
  129.9599  128.8622   73.1681 H   0  0  0  0  0  0  0  0  0  0  0  0
  131.6449  129.1020   71.3456 H   0  0  0  0  0  0  0  0  0  0  0  0
  131.0281  128.5569   68.9880 H   0  0  0  0  0  0  0  0  0  0  0  0
  124.3207  132.8345   63.3699 H   0  0  0  0  0  0  0  0  0  0  0  0
  123.1568  130.4096   62.6746 H   0  0  0  0  0  0  0  0  0  0  0  0
  123.4135  131.8678   61.6575 H   0  0  0  0  0  0  0  0  0  0  0  0
  124.6310  130.5471   61.6575 H   0  0  0  0  0  0  0  0  0  0  0  0
  128.3946  133.1804   62.6770 H   0  0  0  0  0  0  0  0  0  0  0  0
  129.3658  133.5126   60.4104 H   0  0  0  0  0  0  0  0  0  0  0  0
  130.1124  131.6559   60.0335 H   0  0  0  0  0  0  0  0  0  0  0  0
  132.2018  130.4781   60.7050 H   0  0  0  0  0  0  0  0  0  0  0  0
  1  2  1  0
  2  3  2  0
  3  4  1  0
  4  5  2  0
  5  6  1  0
  6  7  2  0
  6  8  1  0
  8  9  1  0
  9 10  1  0
 10 11  1  0
 11 12  2  0
 12 13  1  0
 13 14  1  0
 14 15  1  0
 15 16  2  0
 16 17  1  0
 17 18  1  0
 18 19  2  0
 18 20  1  0
 20 21  1  0
 21 22  1  0
 22 23  2  0
 23 24  1  0
 24 25  2  0
 25 26  1  0
 26 27  2  0
 27 28  1  0
 28 29  2  0
 29 30  1  0
 30 31  2  0
 16 32  1  0
 32 33  1  0
 33 34  1  0
 13 35  2  0
 35 36  1  0
 36 37  2  0
  5 38  1  0
 38 39  2  0
 39  2  1  0
 37  8  1  0
 37 11  1  0
 33 14  1  0
 30 21  1  0
 29 24  1  0
  1 40  1  0
  1 41  1  0
  1 42  1  0
  3 43  1  0
  4 44  1  0
  9 45  1  0
  9 46  1  0
 10 47  1  0
 10 48  1  0
 12 49  1  0
 14 50  1  1
 17 51  1  0
 20 52  1  0
 20 53  1  0
 25 54  1  0
 26 55  1  0
 27 56  1  0
 28 57  1  0
 33 58  1  1
 34 59  1  0
 34 60  1  0
 34 61  1  0
 35 62  1  0
 36 63  1  0
 38 64  1  0
 39 65  1  0
M  END
>  <Binding energies>  (1) 
[-10.12]

>  <Ligand effiencies>  (1) 
[-0.253]

>  <Interactions>  (1) 
["V-B:GLU:543:CG:9875, V-A:HIS:456:CE1:4064, V-B:GLU:543:CB:9874, V-A:ASP:366:CG:3208, V-B:HIS:456:CE1:9037, V-A:ASP:366:CB:3207, H-B:TYR:484:OH:9315, V-B:GLU:543:CD:9876, V-B:ARG:545:CG:9890, V-A:GLY:544:C:4907, V-A:TYR:539:CE2:4871, V-A:GLU:543:C:4897, V-B:HIS:456:CD2:9035, V-A:PRO:540:CA:4878, V-A:TYR:539:CD2:4869, V-A:TYR:539:C:4862, V-A:PRO:540:N:4879, V-A:LEU:363:CD1:3184, V-A:TYR:531:CE2:4788, V-A:ASN:362:C:3167, V-A:LEU:363:CA:3180, V-A:TYR:531:CZ:4789, V-A:PRO:540:CB:4880, V-A:LEU:363:CB:3182, V-A:TYR:539:CZ:4872, H-A:TYR:539:N:4865, V-A:TYR:539:CE1:4870, V-A:TYR:539:CD1:4868, V-B:ILE:369:CD1:8206, H-B:HIS:456:ND1:9034, H-B:ARG:545:N:9888, H-B:GLY:454:N:9017, V-A:LEU:363:C:3178"]

$$$$
RR24_Rahimova_2017
     RDKit          3D

 65 71  0  0  0  0  0  0  0  0999 V2000
  123.5320  133.5610   63.0090 C   0  0  0  0  0  0  0  0  0  0  0  0
  124.0740  132.1840   62.5990 C   0  0  2  0  0  0  0  0  0  0  0  0
  124.2740  131.2190   63.8050 C   0  0  0  0  0  0  0  0  0  0  0  0
  124.0630  131.5720   64.9700 O   0  0  0  0  0  0  0  0  0  0  0  0
  124.7240  129.9880   63.4200 O   0  0  0  0  0  0  0  0  0  0  0  0
  125.8390  129.4530   64.0250 C   0  0  0  0  0  0  0  0  0  0  0  0
  126.9990  130.2230   64.1240 C   0  0  0  0  0  0  0  0  0  0  0  0
  128.1300  129.6950   64.7420 C   0  0  0  0  0  0  0  0  0  0  0  0
  128.1030  128.4010   65.2690 C   0  0  0  0  0  0  0  0  0  0  0  0
  129.3570  127.8180   65.9300 C   0  0  1  0  0  0  0  0  0  0  0  0
  129.2880  127.9000   67.4730 C   0  0  0  0  0  0  0  0  0  0  0  0
  129.5150  126.8390   68.2700 C   0  0  0  0  0  0  0  0  0  0  0  0
  129.8250  125.5990   67.7670 N   0  0  0  0  0  0  0  0  0  0  0  0
  129.9180  125.3800   66.4130 C   0  0  0  0  0  0  0  0  0  0  0  0
  130.2410  124.1040   66.0810 N   0  0  0  0  0  0  0  0  0  0  0  0
  130.3010  123.6800   64.7890 C   0  0  0  0  0  0  0  0  0  0  0  0
  130.2810  122.4720   64.5490 O   0  0  0  0  0  0  0  0  0  0  0  0
  130.2110  124.7010   63.8550 N   0  0  0  0  0  0  0  0  0  0  0  0
  130.3620  124.3070   62.4390 C   0  0  0  0  0  0  0  0  0  0  0  0
  129.8860  126.0270   64.0820 C   0  0  0  0  0  0  0  0  0  0  0  0
  129.7720  126.8750   63.1910 O   0  0  0  0  0  0  0  0  0  0  0  0
  129.7060  126.3620   65.4980 C   0  0  0  0  0  0  0  0  0  0  0  0
  129.3820  127.2050   69.6700 C   0  0  0  0  0  0  0  0  0  0  0  0
  129.5100  126.4850   70.8580 C   0  0  0  0  0  0  0  0  0  0  0  0
  129.3140  127.1390   72.0770 C   0  0  0  0  0  0  0  0  0  0  0  0
  128.9960  128.5010   72.1020 C   0  0  0  0  0  0  0  0  0  0  0  0
  128.8690  129.2170   70.9080 C   0  0  0  0  0  0  0  0  0  0  0  0
  129.0640  128.5570   69.6930 C   0  0  0  0  0  0  0  0  0  0  0  0
  128.9960  129.0620   68.3060 C   0  0  0  0  0  0  0  0  0  0  0  0
  128.7530  130.1940   67.8920 O   0  0  0  0  0  0  0  0  0  0  0  0
  126.9320  127.6390   65.1840 C   0  0  0  0  0  0  0  0  0  0  0  0
  125.8010  128.1670   64.5680 C   0  0  0  0  0  0  0  0  0  0  0  0
  125.2960  132.2930   61.7490 N   0  0  0  0  0  0  0  0  0  0  0  0
  125.2960  131.8940   60.4460 C   0  0  0  0  0  0  0  0  0  0  0  0
  124.3570  131.4090   59.8120 O   0  0  0  0  0  0  0  0  0  0  0  0
  126.6670  132.1690   59.9490 C   0  0  0  0  0  0  0  0  0  0  0  0
  127.2420  131.9620   58.6940 C   0  0  0  0  0  0  0  0  0  0  0  0
  128.5810  132.3240   58.5040 C   0  0  0  0  0  0  0  0  0  0  0  0
  129.3180  132.8820   59.5560 C   0  0  0  0  0  0  0  0  0  0  0  0
  128.7230  133.0820   60.8060 C   0  0  0  0  0  0  0  0  0  0  0  0
  127.3880  132.7130   60.9770 C   0  0  0  0  0  0  0  0  0  0  0  0
  126.4970  132.8030   62.1610 C   0  0  0  0  0  0  0  0  0  0  0  0
  126.7790  133.2470   63.2740 O   0  0  0  0  0  0  0  0  0  0  0  0
  123.5040  133.6321   64.1063 H   0  0  0  0  0  0  0  0  0  0  0  0
  124.1876  134.3476   62.6072 H   0  0  0  0  0  0  0  0  0  0  0  0
  122.5161  133.6897   62.6072 H   0  0  0  0  0  0  0  0  0  0  0  0
  123.2918  131.7231   61.9779 H   0  0  0  0  0  0  0  0  0  0  0  0
  127.0199  131.2440   63.7151 H   0  0  0  0  0  0  0  0  0  0  0  0
  129.0469  130.2982   64.8155 H   0  0  0  0  0  0  0  0  0  0  0  0
  130.1724  128.4575   65.5609 H   0  0  0  0  0  0  0  0  0  0  0  0
  129.9910  124.8310   68.4020 H   0  0  0  0  0  0  0  0  0  0  0  0
  130.4230  123.4140   66.7950 H   0  0  0  0  0  0  0  0  0  0  0  0
  130.7552  123.2811   62.3838 H   0  0  0  0  0  0  0  0  0  0  0  0
  129.3830  124.3518   61.9395 H   0  0  0  0  0  0  0  0  0  0  0  0
  131.0603  124.9947   61.9395 H   0  0  0  0  0  0  0  0  0  0  0  0
  129.7624  125.4146   70.8353 H   0  0  0  0  0  0  0  0  0  0  0  0
  129.4101  126.5811   73.0201 H   0  0  0  0  0  0  0  0  0  0  0  0
  128.8453  129.0107   73.0651 H   0  0  0  0  0  0  0  0  0  0  0  0
  128.6184  130.2879   70.9254 H   0  0  0  0  0  0  0  0  0  0  0  0
  126.9055  126.6227   65.6041 H   0  0  0  0  0  0  0  0  0  0  0  0
  124.8779  127.5717   64.5090 H   0  0  0  0  0  0  0  0  0  0  0  0
  126.6560  131.5241   57.8725 H   0  0  0  0  0  0  0  0  0  0  0  0
  129.0563  132.1695   57.5241 H   0  0  0  0  0  0  0  0  0  0  0  0
  130.3695  133.1643   59.3986 H   0  0  0  0  0  0  0  0  0  0  0  0
  129.2952  133.5208   61.6366 H   0  0  0  0  0  0  0  0  0  0  0  0
  1  2  1  0
  2  3  1  0
  3  4  2  0
  3  5  1  0
  5  6  1  0
  6  7  2  0
  7  8  1  0
  8  9  2  0
  9 10  1  0
 10 11  1  0
 11 12  2  0
 12 13  1  0
 13 14  1  0
 14 15  1  0
 15 16  1  0
 16 17  2  0
 16 18  1  0
 18 19  1  0
 18 20  1  0
 20 21  2  0
 20 22  1  0
 12 23  1  0
 23 24  2  0
 24 25  1  0
 25 26  2  0
 26 27  1  0
 27 28  2  0
 28 29  1  0
 29 30  2  0
  9 31  1  0
 31 32  2  0
  2 33  1  0
 33 34  1  0
 34 35  2  0
 34 36  1  0
 36 37  2  0
 37 38  1  0
 38 39  2  0
 39 40  1  0
 40 41  2  0
 41 42  1  0
 42 43  2  0
 32  6  1  0
 42 33  1  0
 22 10  1  0
 28 23  1  0
 41 36  1  0
 29 11  1  0
 22 14  2  0
  1 44  1  0
  1 45  1  0
  1 46  1  0
  2 47  1  6
  7 48  1  0
  8 49  1  0
 10 50  1  6
 13 51  1  0
 15 52  1  0
 19 53  1  0
 19 54  1  0
 19 55  1  0
 24 56  1  0
 25 57  1  0
 26 58  1  0
 27 59  1  0
 31 60  1  0
 32 61  1  0
 37 62  1  0
 38 63  1  0
 39 64  1  0
 40 65  1  0
M  END
>  <Binding energies>  (1) 
[-9.28]

>  <Ligand effiencies>  (1) 
[-0.2062222222222222]

>  <Interactions>  (1) 
["V-B:GLU:543:CG:9875, H-B:GLU:543:O:9871, V-A:HIS:456:CE1:4064, V-B:GLU:543:CB:9874, V-A:GLU:543:CB:4901, V-B:HIS:456:CE1:9037, V-A:TYR:484:CZ:4342, V-A:GLU:543:CG:4902, H-B:TYR:484:OH:9315, V-A:TYR:484:CE1:4340, V-A:GLU:543:CD:4903, V-B:GLU:543:CD:9876, H-A:TYR:484:OH:4343, V-A:TYR:539:CE2:4871, V-B:HIS:456:CD2:9035, V-A:PRO:540:CA:4878, V-A:TYR:539:CD2:4869, V-A:TYR:539:C:4862, V-A:PRO:540:N:4879, V-A:PRO:540:CB:4880, V-B:ARG:545:CZ:9894, H-A:TYR:539:OH:4873, V-A:TYR:539:CZ:4872, V-A:TYR:539:CE1:4870, V-B:LEU:475:CD2:9226, V-B:ILE:369:CD1:8206, H-B:GLY:454:N:9017, V-B:GLY:454:CA:9016"]

$$$$
RR24_Rahimova_2017-again1
     RDKit          3D

 63 69  0  0  0  0  0  0  0  0999 V2000
  127.7120  133.5930   60.8410 C   0  0  0  0  0  0  0  0  0  0  0  0
  128.1160  132.2550   61.4740 C   0  0  2  0  0  0  0  0  0  0  0  0
  127.8670  132.2000   63.0100 C   0  0  0  0  0  0  0  0  0  0  0  0
  128.4800  132.9270   63.8000 O   0  0  0  0  0  0  0  0  0  0  0  0
  126.9390  131.2610   63.3590 O   0  0  0  0  0  0  0  0  0  0  0  0
  127.3390  130.1210   64.0180 C   0  0  0  0  0  0  0  0  0  0  0  0
  127.0760  128.8720   63.4530 C   0  0  0  0  0  0  0  0  0  0  0  0
  127.4950  127.7150   64.1030 C   0  0  0  0  0  0  0  0  0  0  0  0
  128.1850  127.8000   65.3170 C   0  0  0  0  0  0  0  0  0  0  0  0
  128.6490  126.5270   66.0380 C   0  0  1  0  0  0  0  0  0  0  0  0
  130.0810  126.1290   65.6120 C   0  0  0  0  0  0  0  0  0  0  0  0
  130.6010  125.7410   64.4260 C   0  0  0  0  0  0  0  0  0  0  0  0
  129.9260  125.5840   63.3390 O   0  0  0  0  0  0  0  0  0  0  0  0
  132.0470  125.5520   64.5440 C   0  0  0  0  0  0  0  0  0  0  0  0
  133.0290  125.1740   63.6200 C   0  0  0  0  0  0  0  0  0  0  0  0
  134.3610  125.0820   64.0280 C   0  0  0  0  0  0  0  0  0  0  0  0
  134.7080  125.3630   65.3510 C   0  0  0  0  0  0  0  0  0  0  0  0
  133.7250  125.7380   66.2690 C   0  0  0  0  0  0  0  0  0  0  0  0
  132.3940  125.8330   65.8570 C   0  0  0  0  0  0  0  0  0  0  0  0
  131.1740  126.1730   66.5680 C   0  0  0  0  0  0  0  0  0  0  0  0
  130.9940  126.4600   67.8030 N   0  0  0  0  0  0  0  0  0  0  0  0
  129.7460  126.6350   68.3230 C   0  0  0  0  0  0  0  0  0  0  0  0
  129.7460  126.7710   69.6810 N   0  0  0  0  0  0  0  0  0  0  0  0
  128.6330  126.9600   70.2950 C   0  0  0  0  0  0  0  0  0  0  0  0
  128.7530  127.0750   71.5260 O   0  0  0  0  0  0  0  0  0  0  0  0
  127.4120  127.0230   69.6250 N   0  0  0  0  0  0  0  0  0  0  0  0
  126.1130  127.2410   70.3040 C   0  0  0  0  0  0  0  0  0  0  0  0
  127.3140  126.8780   68.2540 C   0  0  0  0  0  0  0  0  0  0  0  0
  126.2520  126.9030   67.6250 O   0  0  0  0  0  0  0  0  0  0  0  0
  128.5990  126.6770   67.5770 C   0  0  0  0  0  0  0  0  0  0  0  0
  128.4570  129.0540   65.8730 C   0  0  0  0  0  0  0  0  0  0  0  0
  128.0400  130.2120   65.2230 C   0  0  0  0  0  0  0  0  0  0  0  0
  129.5100  131.8620   61.1120 N   0  0  0  0  0  0  0  0  0  0  0  0
  129.8020  131.3070   59.9020 C   0  0  0  0  0  0  0  0  0  0  0  0
  129.0190  131.0560   58.9840 O   0  0  0  0  0  0  0  0  0  0  0  0
  131.2670  131.0660   59.9230 C   0  0  0  0  0  0  0  0  0  0  0  0
  132.1160  130.5140   58.9610 C   0  0  0  0  0  0  0  0  0  0  0  0
  133.4790  130.4050   59.2570 C   0  0  0  0  0  0  0  0  0  0  0  0
  133.9720  130.8440   60.4920 C   0  0  0  0  0  0  0  0  0  0  0  0
  133.1050  131.3950   61.4420 C   0  0  0  0  0  0  0  0  0  0  0  0
  131.7480  131.4940   61.1290 C   0  0  0  0  0  0  0  0  0  0  0  0
  130.6060  132.0240   61.9150 C   0  0  0  0  0  0  0  0  0  0  0  0
  130.6390  132.5080   63.0460 O   0  0  0  0  0  0  0  0  0  0  0  0
  127.4918  134.3223   61.6344 H   0  0  0  0  0  0  0  0  0  0  0  0
  128.5371  133.9676   60.2174 H   0  0  0  0  0  0  0  0  0  0  0  0
  126.8175  133.4483   60.2174 H   0  0  0  0  0  0  0  0  0  0  0  0
  127.4445  131.5007   61.0380 H   0  0  0  0  0  0  0  0  0  0  0  0
  126.5386  128.8024   62.4958 H   0  0  0  0  0  0  0  0  0  0  0  0
  127.2829  126.7304   63.6608 H   0  0  0  0  0  0  0  0  0  0  0  0
  127.9472  125.7334   65.7420 H   0  0  0  0  0  0  0  0  0  0  0  0
  132.7526  124.9509   62.5789 H   0  0  0  0  0  0  0  0  0  0  0  0
  135.1377  124.7879   63.3067 H   0  0  0  0  0  0  0  0  0  0  0  0
  135.7579  125.2888   65.6707 H   0  0  0  0  0  0  0  0  0  0  0  0
  133.9977  125.9576   67.3118 H   0  0  0  0  0  0  0  0  0  0  0  0
  126.2602  127.2163   71.3938 H   0  0  0  0  0  0  0  0  0  0  0  0
  125.7059  128.2200   70.0111 H   0  0  0  0  0  0  0  0  0  0  0  0
  125.4086  126.4485   70.0111 H   0  0  0  0  0  0  0  0  0  0  0  0
  129.0016  129.1254   66.8260 H   0  0  0  0  0  0  0  0  0  0  0  0
  128.2622  131.1978   65.6576 H   0  0  0  0  0  0  0  0  0  0  0  0
  131.7218  130.1727   57.9924 H   0  0  0  0  0  0  0  0  0  0  0  0
  134.1670  129.9722   58.5158 H   0  0  0  0  0  0  0  0  0  0  0  0
  135.0453  130.7553   60.7162 H   0  0  0  0  0  0  0  0  0  0  0  0
  133.4843  131.7426   62.4143 H   0  0  0  0  0  0  0  0  0  0  0  0
  1  2  1  0
  2  3  1  0
  3  4  2  0
  3  5  1  0
  5  6  1  0
  6  7  2  0
  7  8  1  0
  8  9  2  0
  9 10  1  0
 10 11  1  0
 11 12  2  0
 12 13  1  0
 12 14  1  0
 14 15  2  0
 15 16  1  0
 16 17  2  0
 17 18  1  0
 18 19  2  0
 19 20  1  0
 20 21  2  0
 21 22  1  0
 22 23  1  0
 23 24  2  0
 24 25  1  0
 24 26  1  0
 26 27  1  0
 26 28  1  0
 28 29  2  0
 28 30  1  0
  9 31  1  0
 31 32  2  0
  2 33  1  0
 33 34  1  0
 34 35  2  0
 34 36  1  0
 36 37  2  0
 37 38  1  0
 38 39  2  0
 39 40  1  0
 40 41  2  0
 41 42  1  0
 42 43  2  0
 32  6  1  0
 42 33  1  0
 30 10  1  0
 41 36  1  0
 20 11  1  0
 30 22  2  0
 19 14  1  0
  1 44  1  0
  1 45  1  0
  1 46  1  0
  2 47  1  6
  7 48  1  0
  8 49  1  0
 10 50  1  1
 15 51  1  0
 16 52  1  0
 17 53  1  0
 18 54  1  0
 27 55  1  0
 27 56  1  0
 27 57  1  0
 31 58  1  0
 32 59  1  0
 37 60  1  0
 38 61  1  0
 39 62  1  0
 40 63  1  0
M  CHG  2  13  -1  25  -1
M  END
>  <Binding energies>  (1) 
[-8.94]

>  <Ligand effiencies>  (1) 
[-0.20790697674418604]

>  <Interactions>  (1) 
["V-B:GLU:543:CG:9875, V-A:HIS:456:CE1:4064, H-B:LYS:547:NZ:9919, V-B:GLU:543:CB:9874, V-B:HIS:456:CE1:9037, V-A:GLU:543:CG:4902, V-B:GLU:543:C:9870, H-B:TYR:484:OH:9315, V-A:GLU:543:CD:4903, V-B:GLU:543:CD:9876, V-A:ARG:545:CZ:4921, H-A:HIS:456:NE2:4065, V-A:TYR:539:CE2:4871, V-B:HIS:456:CD2:9035, V-B:HIS:456:CG:9033, H-A:ALA:541:N:4886, V-A:PRO:540:CA:4878, V-A:TYR:539:CD2:4869, V-A:PRO:540:C:4876, V-A:ASN:362:C:3167, V-A:LEU:363:CA:3180, V-A:PRO:540:CB:4880, V-B:GLY:544:C:9880, V-A:ASN:362:CB:3171, V-A:ARG:545:CD:4918, V-A:GLY:453:CA:4039, V-A:ARG:545:CG:4917, V-A:HIS:456:CD2:4063, V-A:GLY:453:C:4037, V-B:GLY:544:CA:9882, V-A:ASN:362:CA:3169, V-B:ARG:545:CA:9887"]

$$$$
RR25_Rahimova_2017
     RDKit          3D

 63 68  0  0  0  0  0  0  0  0999 V2000
  126.2170  127.2650   67.5460 O   0  0  0  0  0  0  0  0  0  0  0  0
  127.1470  127.2640   66.7400 C   0  0  0  0  0  0  0  0  0  0  0  0
  128.3250  126.7060   67.1730 O   0  0  0  0  0  0  0  0  0  0  0  0
  129.3540  126.4200   66.2940 C   0  0  0  0  0  0  0  0  0  0  0  0
  130.2310  125.4020   66.6660 C   0  0  0  0  0  0  0  0  0  0  0  0
  131.2960  125.0670   65.8320 C   0  0  0  0  0  0  0  0  0  0  0  0
  131.5010  125.7440   64.6210 C   0  0  0  0  0  0  0  0  0  0  0  0
  132.6310  125.3800   63.7310 N   0  0  0  0  0  0  0  0  0  0  0  0
  133.5670  124.7390   64.2010 O   0  0  0  0  0  0  0  0  0  0  0  0
  132.5900  125.7330   62.5560 O   0  0  0  0  0  0  0  0  0  0  0  0
  130.6130  126.7750   64.2710 C   0  0  0  0  0  0  0  0  0  0  0  0
  129.5450  127.1290   65.1000 C   0  0  0  0  0  0  0  0  0  0  0  0
  128.5530  128.2260   64.7610 C   0  0  0  0  0  0  0  0  0  0  0  0
  127.1440  127.8410   65.2940 C   0  0  2  0  0  0  0  0  0  0  0  0
  126.1200  128.9880   65.0520 C   0  0  0  0  0  0  0  0  0  0  0  0
  125.5230  129.4020   66.0500 O   0  0  0  0  0  0  0  0  0  0  0  0
  125.9780  129.5920   63.8340 N   0  0  0  0  0  0  0  0  0  0  0  0
  126.4140  128.9590   62.5710 C   0  0  0  0  0  0  0  0  0  0  0  0
  126.9770  130.0470   61.6320 C   0  0  0  0  0  0  0  0  0  0  0  0
  126.0090  131.1260   61.4230 N   0  0  0  0  0  0  0  0  0  0  0  0
  126.4890  132.0950   60.4270 C   0  0  0  0  0  0  0  0  0  0  0  0
  127.7780  132.8320   60.8780 C   0  0  0  0  0  0  0  0  0  0  0  0
  129.0500  132.3760   60.2460 N   0  0  0  0  0  0  0  0  0  0  0  0
  130.1050  132.1890   61.1130 C   0  0  0  0  0  0  0  0  0  0  0  0
  130.0320  132.4140   62.3270 O   0  0  0  0  0  0  0  0  0  0  0  0
  131.3710  131.6630   60.4640 C   0  0  0  0  0  0  0  0  0  0  0  0
  132.4980  131.4110   61.2580 C   0  0  0  0  0  0  0  0  0  0  0  0
  133.6750  130.9200   60.6960 C   0  0  0  0  0  0  0  0  0  0  0  0
  133.7630  130.6610   59.3290 C   0  0  0  0  0  0  0  0  0  0  0  0
  132.6500  130.8990   58.4880 C   0  0  0  0  0  0  0  0  0  0  0  0
  132.6700  130.6570   57.0940 C   0  0  0  0  0  0  0  0  0  0  0  0
  131.5360  130.9110   56.3230 C   0  0  0  0  0  0  0  0  0  0  0  0
  130.3710  131.4050   56.9050 C   0  0  0  0  0  0  0  0  0  0  0  0
  130.3050  131.6600   58.2810 C   0  0  0  0  0  0  0  0  0  0  0  0
  131.4540  131.4030   59.0720 C   0  0  0  0  0  0  0  0  0  0  0  0
  129.0150  132.1900   58.8790 C   0  0  0  0  0  0  0  0  0  0  0  0
  128.0170  132.4150   58.1870 O   0  0  0  0  0  0  0  0  0  0  0  0
  125.7000  131.7720   62.7000 C   0  0  0  0  0  0  0  0  0  0  0  0
  125.0930  130.7730   63.7140 C   0  0  0  0  0  0  0  0  0  0  0  0
  130.0828  124.8651   67.6146 H   0  0  0  0  0  0  0  0  0  0  0  0
  131.9845  124.2615   66.1272 H   0  0  0  0  0  0  0  0  0  0  0  0
  130.7615  127.3151   63.3243 H   0  0  0  0  0  0  0  0  0  0  0  0
  128.8758  129.1681   65.2281 H   0  0  0  0  0  0  0  0  0  0  0  0
  128.5078  128.3517   63.6691 H   0  0  0  0  0  0  0  0  0  0  0  0
  126.7958  126.9867   64.6949 H   0  0  0  0  0  0  0  0  0  0  0  0
  127.1952  128.2139   62.7823 H   0  0  0  0  0  0  0  0  0  0  0  0
  125.5594  128.4597   62.0911 H   0  0  0  0  0  0  0  0  0  0  0  0
  127.8904  130.4672   62.0783 H   0  0  0  0  0  0  0  0  0  0  0  0
  127.1953  129.5845   60.6581 H   0  0  0  0  0  0  0  0  0  0  0  0
  126.6998  131.5600   59.4893 H   0  0  0  0  0  0  0  0  0  0  0  0
  125.7025  132.8529   60.2963 H   0  0  0  0  0  0  0  0  0  0  0  0
  127.6524  133.9003   60.6477 H   0  0  0  0  0  0  0  0  0  0  0  0
  127.8850  132.6108   61.9502 H   0  0  0  0  0  0  0  0  0  0  0  0
  132.4529  131.6035   62.3401 H   0  0  0  0  0  0  0  0  0  0  0  0
  134.5470  130.7342   61.3402 H   0  0  0  0  0  0  0  0  0  0  0  0
  134.6993  130.2709   58.9033 H   0  0  0  0  0  0  0  0  0  0  0  0
  133.5818  130.2677   56.6175 H   0  0  0  0  0  0  0  0  0  0  0  0
  131.5620  130.7185   55.2403 H   0  0  0  0  0  0  0  0  0  0  0  0
  129.4900  131.5977   56.2751 H   0  0  0  0  0  0  0  0  0  0  0  0
  126.6262  132.1896   63.1217 H   0  0  0  0  0  0  0  0  0  0  0  0
  124.9598  132.5641   62.5136 H   0  0  0  0  0  0  0  0  0  0  0  0
  124.9965  131.2601   64.6956 H   0  0  0  0  0  0  0  0  0  0  0  0
  124.1004  130.4531   63.3640 H   0  0  0  0  0  0  0  0  0  0  0  0
  1  2  2  0
  2  3  1  0
  3  4  1  0
  4  5  2  0
  5  6  1  0
  6  7  2  0
  7  8  1  0
  8  9  2  0
  8 10  1  0
  7 11  1  0
 11 12  2  0
 12 13  1  0
 13 14  1  0
 14 15  1  0
 15 16  2  0
 15 17  1  0
 17 18  1  0
 18 19  1  0
 19 20  1  0
 20 21  1  0
 21 22  1  0
 22 23  1  0
 23 24  1  0
 24 25  2  0
 24 26  1  0
 26 27  2  0
 27 28  1  0
 28 29  2  0
 29 30  1  0
 30 31  2  0
 31 32  1  0
 32 33  2  0
 33 34  1  0
 34 35  2  0
 34 36  1  0
 36 37  2  0
 20 38  1  0
 38 39  1  0
 14  2  1  0
 39 17  1  0
 12  4  1  0
 36 23  1  0
 35 26  1  0
 35 30  1  0
  5 40  1  0
  6 41  1  0
 11 42  1  0
 13 43  1  0
 13 44  1  0
 14 45  1  6
 18 46  1  0
 18 47  1  0
 19 48  1  0
 19 49  1  0
 21 50  1  0
 21 51  1  0
 22 52  1  0
 22 53  1  0
 27 54  1  0
 28 55  1  0
 29 56  1  0
 31 57  1  0
 32 58  1  0
 33 59  1  0
 38 60  1  0
 38 61  1  0
 39 62  1  0
 39 63  1  0
M  CHG  2   8   1  10  -1
M  END
>  <Binding energies>  (1) 
[-10.13]

>  <Ligand effiencies>  (1) 
[-0.25974358974358974]

>  <Interactions>  (1) 
["V-B:GLU:543:CG:9875, V-B:GLU:543:CB:9874, V-B:HIS:456:CE1:9037, V-A:TYR:484:CZ:4342, H-B:TYR:484:OH:9315, V-A:GLU:543:CD:4903, V-B:GLU:543:CD:9876, H-A:TYR:484:OH:4343, H-A:ARG:545:NH2:4923, H-A:GLY:454:N:4045, V-A:ARG:545:CZ:4921, V-A:TYR:539:CE2:4871, H-A:ALA:541:N:4886, V-A:PRO:540:CA:4878, V-A:PRO:540:C:4876, V-A:LEU:363:CD1:3184, V-A:TYR:531:CE2:4788, V-A:ASN:362:C:3167, V-A:LEU:363:CA:3180, V-A:TYR:531:CZ:4789, V-A:PRO:540:CB:4880, V-A:LEU:363:CB:3182, V-A:ASN:362:CB:3171"]

$$$$
RR26_Rahimova_2017
     RDKit          3D

 59 65  0  0  0  0  0  0  0  0999 V2000
  129.6350  121.1400   60.6960 C   0  0  0  0  0  0  0  0  0  0  0  0
  131.1460  120.9590   60.7810 C   0  0  0  0  0  0  0  0  0  0  0  0
  131.7350  119.9420   60.0220 C   0  0  0  0  0  0  0  0  0  0  0  0
  133.1160  119.7560   60.0310 C   0  0  0  0  0  0  0  0  0  0  0  0
  133.9220  120.5930   60.7950 C   0  0  0  0  0  0  0  0  0  0  0  0
  133.3480  121.6100   61.5550 C   0  0  0  0  0  0  0  0  0  0  0  0
  131.9580  121.8060   61.5660 C   0  0  0  0  0  0  0  0  0  0  0  0
  131.4200  122.9140   62.4240 C   0  0  0  0  0  0  0  0  0  0  0  0
  131.2540  122.7810   63.7370 N   0  0  0  0  0  0  0  0  0  0  0  0
  130.7910  123.9550   64.0720 C   0  0  0  0  0  0  0  0  0  0  0  0
  130.2820  124.7130   65.5350 S   0  0  0  0  0  0  0  0  0  0  0  0
  129.9230  126.2160   64.6050 C   0  0  0  0  0  0  0  0  0  0  0  0
  129.4340  127.3840   65.0770 C   0  0  0  0  0  0  0  0  0  0  0  0
  129.0840  127.7210   66.4470 C   0  0  0  0  0  0  0  0  0  0  0  0
  129.7970  127.4510   67.6050 C   0  0  0  0  0  0  0  0  0  0  0  0
  129.1080  127.9910   68.6610 N   0  0  0  0  0  0  0  0  0  0  0  0
  129.4540  127.9720   70.0370 C   0  0  0  0  0  0  0  0  0  0  0  0
  130.0750  129.0770   70.6370 C   0  0  0  0  0  0  0  0  0  0  0  0
  130.4120  129.0430   71.9870 C   0  0  0  0  0  0  0  0  0  0  0  0
  130.1270  127.9090   72.7420 C   0  0  0  0  0  0  0  0  0  0  0  0
  129.5080  126.8050   72.1590 C   0  0  0  0  0  0  0  0  0  0  0  0
  129.1720  126.8350   70.8090 C   0  0  0  0  0  0  0  0  0  0  0  0
  128.0040  128.6170   68.2250 N   0  0  0  0  0  0  0  0  0  0  0  0
  127.9740  128.4600   66.9160 C   0  0  0  0  0  0  0  0  0  0  0  0
  126.8450  129.0410   66.1210 C   0  0  0  0  0  0  0  0  0  0  0  0
  125.5230  128.6410   66.3680 C   0  0  0  0  0  0  0  0  0  0  0  0
  124.4640  129.1740   65.6300 C   0  0  0  0  0  0  0  0  0  0  0  0
  124.7220  130.1140   64.6350 C   0  0  0  0  0  0  0  0  0  0  0  0
  126.0380  130.5350   64.3900 C   0  0  0  0  0  0  0  0  0  0  0  0
  127.0930  129.9970   65.1250 C   0  0  0  0  0  0  0  0  0  0  0  0
  126.3450  131.4300   63.3850 O   0  0  0  0  0  0  0  0  0  0  0  0
  125.2310  132.2050   62.9300 C   0  0  0  0  0  0  0  0  0  0  0  0
  123.9860  131.3060   62.7360 C   0  0  0  0  0  0  0  0  0  0  0  0
  123.6430  130.6510   63.9620 O   0  0  0  0  0  0  0  0  0  0  0  0
  130.2080  126.0680   63.1810 C   0  0  0  0  0  0  0  0  0  0  0  0
  130.0720  126.8890   62.2720 O   0  0  0  0  0  0  0  0  0  0  0  0
  130.6900  124.7630   63.0010 N   0  0  0  0  0  0  0  0  0  0  0  0
  131.1020  124.0960   61.9190 N   0  0  0  0  0  0  0  0  0  0  0  0
  129.2141  121.1904   61.7110 H   0  0  0  0  0  0  0  0  0  0  0  0
  129.4070  122.0719   60.1578 H   0  0  0  0  0  0  0  0  0  0  0  0
  129.1934  120.2883   60.1578 H   0  0  0  0  0  0  0  0  0  0  0  0
  131.1011  119.2821   59.4115 H   0  0  0  0  0  0  0  0  0  0  0  0
  133.5675  118.9490   59.4352 H   0  0  0  0  0  0  0  0  0  0  0  0
  135.0129  120.4521   60.7993 H   0  0  0  0  0  0  0  0  0  0  0  0
  133.9932  122.2687   62.1549 H   0  0  0  0  0  0  0  0  0  0  0  0
  129.2819  128.1786   64.3317 H   0  0  0  0  0  0  0  0  0  0  0  0
  130.7475  126.9008   67.6661 H   0  0  0  0  0  0  0  0  0  0  0  0
  130.2964  129.9733   70.0389 H   0  0  0  0  0  0  0  0  0  0  0  0
  130.9019  129.9093   72.4556 H   0  0  0  0  0  0  0  0  0  0  0  0
  130.3929  127.8840   73.8091 H   0  0  0  0  0  0  0  0  0  0  0  0
  129.2859  125.9133   72.7636 H   0  0  0  0  0  0  0  0  0  0  0  0
  128.6839  125.9648   70.3458 H   0  0  0  0  0  0  0  0  0  0  0  0
  125.3181  127.8981   67.1529 H   0  0  0  0  0  0  0  0  0  0  0  0
  123.4316  128.8532   65.8334 H   0  0  0  0  0  0  0  0  0  0  0  0
  128.1239  130.3233   64.9232 H   0  0  0  0  0  0  0  0  0  0  0  0
  125.0033  132.9825   63.6741 H   0  0  0  0  0  0  0  0  0  0  0  0
  125.4897  132.6662   61.9654 H   0  0  0  0  0  0  0  0  0  0  0  0
  123.1391  131.9267   62.4082 H   0  0  0  0  0  0  0  0  0  0  0  0
  124.2137  130.5429   61.9772 H   0  0  0  0  0  0  0  0  0  0  0  0
  1  2  1  0
  2  3  2  0
  3  4  1  0
  4  5  2  0
  5  6  1  0
  6  7  2  0
  7  8  1  0
  8  9  1  0
  9 10  2  0
 10 11  1  0
 11 12  1  0
 12 13  2  0
 13 14  1  0
 14 15  2  0
 15 16  1  0
 16 17  1  0
 17 18  2  0
 18 19  1  0
 19 20  2  0
 20 21  1  0
 21 22  2  0
 16 23  1  0
 23 24  2  0
 24 25  1  0
 25 26  2  0
 26 27  1  0
 27 28  2  0
 28 29  1  0
 29 30  2  0
 29 31  1  0
 31 32  1  0
 32 33  1  0
 33 34  1  0
 12 35  1  0
 35 36  2  0
 35 37  1  0
 37 38  1  0
  7  2  1  0
 38  8  2  0
 37 10  1  0
 24 14  1  0
 30 25  1  0
 22 17  1  0
 34 28  1  0
  1 39  1  0
  1 40  1  0
  1 41  1  0
  3 42  1  0
  4 43  1  0
  5 44  1  0
  6 45  1  0
 13 46  1  0
 15 47  1  0
 18 48  1  0
 19 49  1  0
 20 50  1  0
 21 51  1  0
 22 52  1  0
 26 53  1  0
 27 54  1  0
 30 55  1  0
 32 56  1  0
 32 57  1  0
 33 58  1  0
 33 59  1  0
M  END
>  <Binding energies>  (1) 
[-9.0]

>  <Ligand effiencies>  (1) 
[-0.23684210526315788]

>  <Interactions>  (1) 
["V-B:GLU:543:CG:9875, V-A:TRP:381:CZ3:3366, V-A:HIS:456:CE1:4064, V-A:TRP:381:CZ2:3365, V-B:ALA:541:CB:9860, V-A:TRP:381:CH2:3367, V-B:TYR:539:CD2:9842, V-A:LEU:475:CD2:4254, V-B:TYR:539:CE2:9844, V-A:ILE:369:CD1:3234, V-B:HIS:456:CE1:9037, H-B:TYR:484:OH:9315, V-A:GLU:543:CD:4903, V-B:GLU:543:CD:9876, V-A:ILE:369:CG2:3232, H-A:TYR:484:OH:4343, V-B:ARG:545:CG:9890, V-A:GLY:544:C:4907, V-A:GLU:543:C:4897, V-A:LYS:547:CE:4945, V-B:ARG:545:CD:9891, V-B:ARG:545:CZ:9894, V-B:LEU:475:CD2:9226, V-B:ILE:369:CD1:8206, V-A:ILE:369:CG1:3233, H-B:GLY:454:N:9017"]

$$$$
RR27_Rahimova_2017
     RDKit          3D

 66 71  0  0  0  0  0  0  0  0999 V2000
  130.3100  123.3890   57.5720 O   0  0  0  0  0  0  0  0  0  0  0  0
  129.3790  123.4590   58.3800 C   0  0  0  0  0  0  0  0  0  0  0  0
  128.2810  124.5380   58.1510 C   0  0  0  0  0  0  0  0  0  0  0  0
  128.0800  125.4630   59.3650 C   0  0  0  0  0  0  0  0  0  0  0  0
  129.0870  126.3340   59.8080 C   0  0  0  0  0  0  0  0  0  0  0  0
  128.8710  127.1590   60.9080 C   0  0  0  0  0  0  0  0  0  0  0  0
  127.6470  127.1170   61.5710 C   0  0  0  0  0  0  0  0  0  0  0  0
  126.6390  126.2570   61.1450 C   0  0  0  0  0  0  0  0  0  0  0  0
  126.8560  125.4320   60.0450 C   0  0  0  0  0  0  0  0  0  0  0  0
  126.9880  123.9250   57.5800 C   0  0  0  0  0  0  0  0  0  0  0  0
  125.7910  124.6520   57.5200 C   0  0  0  0  0  0  0  0  0  0  0  0
  124.6370  124.0640   57.0090 C   0  0  0  0  0  0  0  0  0  0  0  0
  124.6740  122.7460   56.5610 C   0  0  0  0  0  0  0  0  0  0  0  0
  125.8530  122.0080   56.6250 C   0  0  0  0  0  0  0  0  0  0  0  0
  127.0050  122.5970   57.1370 C   0  0  0  0  0  0  0  0  0  0  0  0
  129.2160  122.5290   59.3650 N   0  0  0  0  0  0  0  0  0  0  0  0
  128.2900  122.6990   60.4950 C   0  0  0  0  0  0  0  0  0  0  0  0
  129.0650  123.4540   61.5980 C   0  0  0  0  0  0  0  0  0  0  0  0
  130.3970  122.7420   61.9950 C   0  0  0  0  0  0  0  0  0  0  0  0
  131.2620  123.5120   63.0100 C   0  0  0  0  0  0  0  0  0  0  0  0
  132.5760  123.6850   62.6800 N   0  0  0  0  0  0  0  0  0  0  0  0
  133.3790  124.3820   63.5310 C   0  0  0  0  0  0  0  0  0  0  0  0
  134.7090  124.6240   63.3090 O   0  0  0  0  0  0  0  0  0  0  0  0
  132.8210  124.8940   64.7190 C   0  0  0  0  0  0  0  0  0  0  0  0
  133.3240  125.6210   65.7580 N   0  0  0  0  0  0  0  0  0  0  0  0
  132.2920  125.8270   66.6530 N   0  0  0  0  0  0  0  0  0  0  0  0
  131.1730  125.2460   66.1700 N   0  0  0  0  0  0  0  0  0  0  0  0
  129.9280  125.2880   66.9320 C   0  0  0  0  0  0  0  0  0  0  0  0
  129.3730  126.6940   67.1200 C   0  0  0  0  0  0  0  0  0  0  0  0
  129.9600  127.5640   68.0450 C   0  0  0  0  0  0  0  0  0  0  0  0
  129.4580  128.8560   68.2100 C   0  0  0  0  0  0  0  0  0  0  0  0
  128.3720  129.2860   67.4480 C   0  0  0  0  0  0  0  0  0  0  0  0
  127.7880  128.4260   66.5170 C   0  0  0  0  0  0  0  0  0  0  0  0
  126.4600  128.9660   65.5540 Cl  0  0  0  0  0  0  0  0  0  0  0  0
  128.2840  127.1320   66.3570 C   0  0  0  0  0  0  0  0  0  0  0  0
  131.4530  124.6400   64.9560 C   0  0  0  0  0  0  0  0  0  0  0  0
  130.6460  123.9540   64.1430 N   0  0  0  0  0  0  0  0  0  0  0  0
  131.1940  122.2590   60.7440 C   0  0  0  0  0  0  0  0  0  0  0  0
  130.2990  121.5830   59.6750 C   0  0  0  0  0  0  0  0  0  0  0  0
  128.6474  125.2177   57.3676 H   0  0  0  0  0  0  0  0  0  0  0  0
  130.0530  126.3650   59.2827 H   0  0  0  0  0  0  0  0  0  0  0  0
  129.6629  127.8406   61.2519 H   0  0  0  0  0  0  0  0  0  0  0  0
  127.4752  127.7697   62.4396 H   0  0  0  0  0  0  0  0  0  0  0  0
  125.6755  126.2294   61.6750 H   0  0  0  0  0  0  0  0  0  0  0  0
  126.0607  124.7511   59.7075 H   0  0  0  0  0  0  0  0  0  0  0  0
  125.7633  125.6917   57.8782 H   0  0  0  0  0  0  0  0  0  0  0  0
  123.7000  124.6381   56.9594 H   0  0  0  0  0  0  0  0  0  0  0  0
  123.7633  122.2836   56.1527 H   0  0  0  0  0  0  0  0  0  0  0  0
  125.8736  120.9660   56.2731 H   0  0  0  0  0  0  0  0  0  0  0  0
  127.9364  122.0146   57.1941 H   0  0  0  0  0  0  0  0  0  0  0  0
  127.4127  123.2835   60.1809 H   0  0  0  0  0  0  0  0  0  0  0  0
  127.9310  121.7257   60.8608 H   0  0  0  0  0  0  0  0  0  0  0  0
  129.3015  124.4644   61.2330 H   0  0  0  0  0  0  0  0  0  0  0  0
  128.4251  123.4835   62.4923 H   0  0  0  0  0  0  0  0  0  0  0  0
  130.0910  121.8417   62.5480 H   0  0  0  0  0  0  0  0  0  0  0  0
  134.8560  125.3060   62.6500 H   0  0  0  0  0  0  0  0  0  0  0  0
  129.1757  124.6856   66.4018 H   0  0  0  0  0  0  0  0  0  0  0  0
  130.1508  124.8934   67.9343 H   0  0  0  0  0  0  0  0  0  0  0  0
  130.8196  127.2290   68.6440 H   0  0  0  0  0  0  0  0  0  0  0  0
  129.9194  129.5355   68.9417 H   0  0  0  0  0  0  0  0  0  0  0  0
  127.9756  130.3035   67.5809 H   0  0  0  0  0  0  0  0  0  0  0  0
  127.8175  126.4529   65.6282 H   0  0  0  0  0  0  0  0  0  0  0  0
  131.6885  123.1289   60.2870 H   0  0  0  0  0  0  0  0  0  0  0  0
  131.9184  121.5061   61.0880 H   0  0  0  0  0  0  0  0  0  0  0  0
  130.8862  121.3702   58.7695 H   0  0  0  0  0  0  0  0  0  0  0  0
  129.8950  120.6292   60.0453 H   0  0  0  0  0  0  0  0  0  0  0  0
  1  2  2  0
  2  3  1  0
  3  4  1  0
  4  5  2  0
  5  6  1  0
  6  7  2  0
  7  8  1  0
  8  9  2  0
  3 10  1  0
 10 11  2  0
 11 12  1  0
 12 13  2  0
 13 14  1  0
 14 15  2  0
  2 16  1  0
 16 17  1  0
 17 18  1  0
 18 19  1  0
 19 20  1  0
 20 21  2  0
 21 22  1  0
 22 23  1  0
 22 24  2  0
 24 25  1  0
 25 26  2  0
 26 27  1  0
 27 28  1  0
 28 29  1  0
 29 30  2  0
 30 31  1  0
 31 32  2  0
 32 33  1  0
 33 34  1  0
 33 35  2  0
 27 36  1  0
 36 37  2  0
 19 38  1  0
 38 39  1  0
  9  4  1  0
 15 10  1  0
 39 16  1  0
 37 20  1  0
 36 24  1  0
 35 29  1  0
  3 40  1  0
  5 41  1  0
  6 42  1  0
  7 43  1  0
  8 44  1  0
  9 45  1  0
 11 46  1  0
 12 47  1  0
 13 48  1  0
 14 49  1  0
 15 50  1  0
 17 51  1  0
 17 52  1  0
 18 53  1  0
 18 54  1  0
 19 55  1  0
 23 56  1  0
 28 57  1  0
 28 58  1  0
 30 59  1  0
 31 60  1  0
 32 61  1  0
 35 62  1  0
 38 63  1  0
 38 64  1  0
 39 65  1  0
 39 66  1  0
M  END
>  <Binding energies>  (1) 
[-10.18]

>  <Ligand effiencies>  (1) 
[-0.2545]

>  <Interactions>  (1) 
["V-B:GLU:543:CG:9875, V-A:HIS:456:CE1:4064, V-B:GLU:543:CB:9874, V-B:TYR:539:C:9835, V-B:TYR:539:CD2:9842, V-A:GLU:543:CB:4901, V-B:TYR:539:CE2:9844, V-B:HIS:456:CE1:9037, V-A:GLU:543:CG:4902, V-B:GLU:543:CD:9876, H-A:ASP:366:OD2:3210, H-A:ARG:545:NH1:4922, H-A:TYR:484:OH:4343, H-A:ARG:545:NE:4919, H-A:ASP:366:OD1:3209, H-A:GLY:454:N:4045, V-B:PRO:540:CB:9853, V-B:PRO:540:CA:9851, H-A:HIS:456:NE2:4065, V-B:LEU:363:CD1:8156, V-B:PRO:540:CD:9855, V-B:PRO:540:N:9852, V-B:MET:535:CE:9803, H-B:TYR:539:OH:9846, V-B:TYR:539:CA:9837, V-B:TYR:531:CE2:9761"]

$$$$
RR27_Rahimova_2017-again1
     RDKit          3D

 66 71  0  0  0  0  0  0  0  0999 V2000
  127.0000  126.1230   60.1670 O   0  0  0  0  0  0  0  0  0  0  0  0
  128.0080  125.8100   59.5260 C   0  0  0  0  0  0  0  0  0  0  0  0
  128.0820  124.3730   58.9260 C   0  0  0  0  0  0  0  0  0  0  0  0
  126.7390  123.9160   58.3240 C   0  0  0  0  0  0  0  0  0  0  0  0
  126.6730  123.1410   57.1560 C   0  0  0  0  0  0  0  0  0  0  0  0
  125.4400  122.7450   56.6430 C   0  0  0  0  0  0  0  0  0  0  0  0
  124.2690  123.1220   57.2930 C   0  0  0  0  0  0  0  0  0  0  0  0
  124.3190  123.8890   58.4530 C   0  0  0  0  0  0  0  0  0  0  0  0
  125.5500  124.2850   58.9660 C   0  0  0  0  0  0  0  0  0  0  0  0
  128.6920  123.3640   59.9170 C   0  0  0  0  0  0  0  0  0  0  0  0
  128.5670  123.5320   61.3040 C   0  0  0  0  0  0  0  0  0  0  0  0
  129.1450  122.6170   62.1800 C   0  0  0  0  0  0  0  0  0  0  0  0
  129.8480  121.5270   61.6740 C   0  0  0  0  0  0  0  0  0  0  0  0
  129.9820  121.3470   60.3010 C   0  0  0  0  0  0  0  0  0  0  0  0
  129.4110  122.2660   59.4240 C   0  0  0  0  0  0  0  0  0  0  0  0
  128.9590  126.7350   59.2070 N   0  0  0  0  0  0  0  0  0  0  0  0
  130.2950  126.3910   58.7020 C   0  0  0  0  0  0  0  0  0  0  0  0
  131.2020  126.1100   59.9220 C   0  0  0  0  0  0  0  0  0  0  0  0
  131.0770  127.1220   61.1080 C   0  0  0  0  0  0  0  0  0  0  0  0
  131.4690  126.5260   62.4630 C   0  0  0  0  0  0  0  0  0  0  0  0
  130.6470  126.5690   63.4650 N   0  0  0  0  0  0  0  0  0  0  0  0
  131.1040  126.0150   64.6220 C   0  0  0  0  0  0  0  0  0  0  0  0
  132.3430  125.4250   64.8180 C   0  0  0  0  0  0  0  0  0  0  0  0
  132.4600  125.0000   66.0640 N   0  0  0  0  0  0  0  0  0  0  0  0
  131.2730  125.3080   66.7220 N   0  0  0  0  0  0  0  0  0  0  0  0
  130.4640  125.9040   65.8290 N   0  0  0  0  0  0  0  0  0  0  0  0
  129.1390  126.3720   66.2150 C   0  0  0  0  0  0  0  0  0  0  0  0
  129.1250  127.1170   67.5420 C   0  0  0  0  0  0  0  0  0  0  0  0
  130.1280  128.0460   67.8360 C   0  0  0  0  0  0  0  0  0  0  0  0
  130.1230  128.7230   69.0570 C   0  0  0  0  0  0  0  0  0  0  0  0
  129.1140  128.4760   69.9870 C   0  0  0  0  0  0  0  0  0  0  0  0
  128.1070  127.5540   69.6980 C   0  0  0  0  0  0  0  0  0  0  0  0
  126.8620  127.2470   70.8510 Cl  0  0  0  0  0  0  0  0  0  0  0  0
  128.1110  126.8780   68.4770 C   0  0  0  0  0  0  0  0  0  0  0  0
  133.2860  125.3570   63.7010 C   0  0  0  0  0  0  0  0  0  0  0  0
  134.4170  124.8750   63.6810 O   0  0  0  0  0  0  0  0  0  0  0  0
  132.7250  125.9400   62.5850 N   0  0  0  0  0  0  0  0  0  0  0  0
  129.7420  127.9300   61.1810 C   0  0  0  0  0  0  0  0  0  0  0  0
  128.9470  128.0540   59.8580 C   0  0  0  0  0  0  0  0  0  0  0  0
  128.7790  124.4129   58.0760 H   0  0  0  0  0  0  0  0  0  0  0  0
  127.5998  122.8447   56.6429 H   0  0  0  0  0  0  0  0  0  0  0  0
  125.3923  122.1367   55.7277 H   0  0  0  0  0  0  0  0  0  0  0  0
  123.2953  122.8111   56.8864 H   0  0  0  0  0  0  0  0  0  0  0  0
  123.3888  124.1810   58.9623 H   0  0  0  0  0  0  0  0  0  0  0  0
  125.5899  124.8922   59.8823 H   0  0  0  0  0  0  0  0  0  0  0  0
  128.0088  124.3921   61.7022 H   0  0  0  0  0  0  0  0  0  0  0  0
  129.0466  122.7547   63.2669 H   0  0  0  0  0  0  0  0  0  0  0  0
  130.3014  120.8018   62.3658 H   0  0  0  0  0  0  0  0  0  0  0  0
  130.5370  120.4818   59.9094 H   0  0  0  0  0  0  0  0  0  0  0  0
  129.5248  122.1296   58.3384 H   0  0  0  0  0  0  0  0  0  0  0  0
  130.2356  125.4958   58.0655 H   0  0  0  0  0  0  0  0  0  0  0  0
  130.7035  127.2167   58.1009 H   0  0  0  0  0  0  0  0  0  0  0  0
  130.9535  125.1090   60.3044 H   0  0  0  0  0  0  0  0  0  0  0  0
  132.2349  126.2040   59.5555 H   0  0  0  0  0  0  0  0  0  0  0  0
  131.8337  127.8792   60.8551 H   0  0  0  0  0  0  0  0  0  0  0  0
  128.7658  127.0479   65.4315 H   0  0  0  0  0  0  0  0  0  0  0  0
  128.5022  125.4830   66.3345 H   0  0  0  0  0  0  0  0  0  0  0  0
  130.9237  128.2441   67.1027 H   0  0  0  0  0  0  0  0  0  0  0  0
  130.9151  129.4513   69.2853 H   0  0  0  0  0  0  0  0  0  0  0  0
  129.1117  129.0084   70.9496 H   0  0  0  0  0  0  0  0  0  0  0  0
  127.3144  126.1547   68.2485 H   0  0  0  0  0  0  0  0  0  0  0  0
  133.3150  125.9370   61.7650 H   0  0  0  0  0  0  0  0  0  0  0  0
  129.0914  127.4380   61.9191 H   0  0  0  0  0  0  0  0  0  0  0  0
  130.0325  128.9567   61.4482 H   0  0  0  0  0  0  0  0  0  0  0  0
  127.9114  128.3584   60.0698 H   0  0  0  0  0  0  0  0  0  0  0  0
  129.4018  128.8122   59.2035 H   0  0  0  0  0  0  0  0  0  0  0  0
  1  2  2  0
  2  3  1  0
  3  4  1  0
  4  5  2  0
  5  6  1  0
  6  7  2  0
  7  8  1  0
  8  9  2  0
  3 10  1  0
 10 11  2  0
 11 12  1  0
 12 13  2  0
 13 14  1  0
 14 15  2  0
  2 16  1  0
 16 17  1  0
 17 18  1  0
 18 19  1  0
 19 20  1  0
 20 21  2  0
 21 22  1  0
 22 23  2  0
 23 24  1  0
 24 25  2  0
 25 26  1  0
 26 27  1  0
 27 28  1  0
 28 29  2  0
 29 30  1  0
 30 31  2  0
 31 32  1  0
 32 33  1  0
 32 34  2  0
 23 35  1  0
 35 36  2  0
 35 37  1  0
 19 38  1  0
 38 39  1  0
  9  4  1  0
 15 10  1  0
 39 16  1  0
 37 20  1  0
 26 22  1  0
 34 28  1  0
  3 40  1  0
  5 41  1  0
  6 42  1  0
  7 43  1  0
  8 44  1  0
  9 45  1  0
 11 46  1  0
 12 47  1  0
 13 48  1  0
 14 49  1  0
 15 50  1  0
 17 51  1  0
 17 52  1  0
 18 53  1  0
 18 54  1  0
 19 55  1  0
 27 56  1  0
 27 57  1  0
 29 58  1  0
 30 59  1  0
 31 60  1  0
 34 61  1  0
 37 62  1  0
 38 63  1  0
 38 64  1  0
 39 65  1  0
 39 66  1  0
M  END
>  <Binding energies>  (1) 
[-10.7]

>  <Ligand effiencies>  (1) 
[-0.26749999999999996]

>  <Interactions>  (1) 
["V-B:GLU:543:CG:9875, V-A:HIS:456:CE1:4064, V-B:ALA:541:CB:9860, V-B:GLU:543:CB:9874, V-B:TYR:539:C:9835, V-B:TYR:539:CD2:9842, V-A:GLU:543:CB:4901, V-B:TYR:539:CE2:9844, V-A:ASP:366:CG:3208, V-B:HIS:456:CE1:9037, V-B:GLU:543:C:9870, V-A:GLU:543:CD:4903, V-B:GLU:543:CD:9876, H-A:ASP:366:OD2:3210, H-A:ARG:545:NH1:4922, H-A:TYR:484:OH:4343, H-A:ARG:545:NH2:4923, H-A:ASP:366:OD1:3209, H-A:GLY:454:N:4045, V-A:ARG:545:CZ:4921, V-B:PRO:540:CB:9853, V-B:PRO:540:CA:9851, H-A:HIS:456:NE2:4065, V-A:GLU:543:C:4897, V-B:HIS:456:CD2:9035, V-B:HIS:456:CG:9033, V-B:GLY:544:C:9880, V-B:LEU:363:CD1:8156, V-B:PRO:540:CD:9855, V-B:LEU:363:CA:8152, V-B:PRO:540:N:9852, V-B:PRO:540:CG:9854, V-B:LEU:363:CB:8154, V-B:MET:535:CE:9803"]

$$$$
RR28_Rahimova_2017
     RDKit          3D

 82 85  0  0  0  0  0  0  0  0999 V2000
  123.5500  123.5010   60.6770 C   0  0  0  0  0  0  0  0  0  0  0  0
  125.0190  123.6710   61.0470 C   0  0  0  0  0  0  0  0  0  0  0  0
  125.4770  123.0620   62.0110 O   0  0  0  0  0  0  0  0  0  0  0  0
  125.7380  124.5050   60.2680 N   0  0  0  0  0  0  0  0  0  0  0  0
  127.1680  124.8670   60.3910 C   0  0  0  0  0  0  0  0  0  0  0  0
  127.2600  126.2560   61.0850 C   0  0  0  0  0  0  0  0  0  0  0  0
  128.5080  126.8910   61.1920 C   0  0  0  0  0  0  0  0  0  0  0  0
  128.6280  128.1310   61.8110 C   0  0  0  0  0  0  0  0  0  0  0  0
  127.5030  128.7670   62.3390 C   0  0  0  0  0  0  0  0  0  0  0  0
  127.6560  130.1270   63.0190 C   0  0  0  0  0  0  0  0  0  0  0  0
  127.6150  131.1370   62.1470 F   0  0  0  0  0  0  0  0  0  0  0  0
  126.6800  130.3120   63.9080 F   0  0  0  0  0  0  0  0  0  0  0  0
  128.8280  130.1710   63.6530 F   0  0  0  0  0  0  0  0  0  0  0  0
  126.2560  128.1450   62.2400 C   0  0  0  0  0  0  0  0  0  0  0  0
  126.1360  126.9030   61.6210 C   0  0  0  0  0  0  0  0  0  0  0  0
  127.8720  124.8150   58.9880 C   0  0  0  0  0  0  0  0  0  0  0  0
  127.9410  123.3870   58.3890 C   0  0  0  0  0  0  0  0  0  0  0  0
  128.6780  122.5630   59.3610 N   0  0  0  0  0  0  0  0  0  0  0  0
  130.0220  122.3910   59.2370 C   0  0  0  0  0  0  0  0  0  0  0  0
  130.6400  122.7650   58.2380 O   0  0  0  0  0  0  0  0  0  0  0  0
  130.7710  121.5580   60.3050 C   0  0  0  0  0  0  0  0  0  0  0  0
  132.1700  122.0880   60.7220 C   0  0  0  0  0  0  0  0  0  0  0  0
  132.2700  123.6240   60.8780 C   0  0  0  0  0  0  0  0  0  0  0  0
  133.1330  124.2170   60.2260 O   0  0  0  0  0  0  0  0  0  0  0  0
  131.3320  124.2910   61.6100 N   0  0  0  0  0  0  0  0  0  0  0  0
  130.5010  123.6490   62.6340 C   0  0  0  0  0  0  0  0  0  0  0  0
  131.3240  123.6600   63.9410 C   0  0  0  0  0  0  0  0  0  0  0  0
  131.7960  125.0820   64.4060 C   0  0  0  0  0  0  0  0  0  0  0  0
  132.8790  124.9310   65.4010 N   0  0  0  0  0  0  0  0  0  0  0  0
  134.2080  125.0460   65.2080 C   0  0  0  0  0  0  0  0  0  0  0  0
  135.0910  124.8160   66.4310 C   0  0  0  0  0  0  0  0  0  0  0  0
  134.7270  125.3170   64.1260 O   0  0  0  0  0  0  0  0  0  0  0  0
  130.5880  125.7660   65.1240 C   0  0  0  0  0  0  0  0  0  0  0  0
  129.7940  126.7480   64.5090 C   0  0  0  0  0  0  0  0  0  0  0  0
  128.7250  127.3320   65.1830 C   0  0  0  0  0  0  0  0  0  0  0  0
  128.4240  126.9510   66.4930 C   0  0  0  0  0  0  0  0  0  0  0  0
  127.2520  127.5800   67.2450 C   0  0  0  0  0  0  0  0  0  0  0  0
  127.2970  127.2580   68.5390 F   0  0  0  0  0  0  0  0  0  0  0  0
  127.3220  128.9060   67.1330 F   0  0  0  0  0  0  0  0  0  0  0  0
  126.0730  127.1810   66.7630 F   0  0  0  0  0  0  0  0  0  0  0  0
  129.2090  125.9830   67.1210 C   0  0  0  0  0  0  0  0  0  0  0  0
  130.2760  125.4010   66.4440 C   0  0  0  0  0  0  0  0  0  0  0  0
  132.3110  125.8880   63.1510 C   0  0  0  0  0  0  0  0  0  0  0  0
  131.4760  125.7320   61.8520 C   0  0  0  0  0  0  0  0  0  0  0  0
  127.9720  122.4000   60.6400 C   0  0  0  0  0  0  0  0  0  0  0  0
  127.8810  123.8050   61.2910 C   0  0  0  0  0  0  0  0  0  0  0  0
  122.9466  123.4312   61.5941 H   0  0  0  0  0  0  0  0  0  0  0  0
  123.2184  124.3668   60.0850 H   0  0  0  0  0  0  0  0  0  0  0  0
  123.4249  122.5824   60.0850 H   0  0  0  0  0  0  0  0  0  0  0  0
  125.2490  124.9670   59.5160 H   0  0  0  0  0  0  0  0  0  0  0  0
  129.4029  126.4012   60.7807 H   0  0  0  0  0  0  0  0  0  0  0  0
  129.6141  128.6127   61.8848 H   0  0  0  0  0  0  0  0  0  0  0  0
  125.3641  128.6388   62.6531 H   0  0  0  0  0  0  0  0  0  0  0  0
  125.1484  126.4236   61.5515 H   0  0  0  0  0  0  0  0  0  0  0  0
  127.3129  125.4586   58.2928 H   0  0  0  0  0  0  0  0  0  0  0  0
  128.9071  125.1590   59.1300 H   0  0  0  0  0  0  0  0  0  0  0  0
  126.9270  122.9866   58.2425 H   0  0  0  0  0  0  0  0  0  0  0  0
  128.4406  123.3897   57.4090 H   0  0  0  0  0  0  0  0  0  0  0  0
  130.1418  121.5225   61.2066 H   0  0  0  0  0  0  0  0  0  0  0  0
  130.9508  120.5758   59.8435 H   0  0  0  0  0  0  0  0  0  0  0  0
  132.4346  121.6296   61.6863 H   0  0  0  0  0  0  0  0  0  0  0  0
  132.8559  121.8176   59.9056 H   0  0  0  0  0  0  0  0  0  0  0  0
  129.5650  124.2106   62.7701 H   0  0  0  0  0  0  0  0  0  0  0  0
  130.2340  122.6226   62.3420 H   0  0  0  0  0  0  0  0  0  0  0  0
  130.7044  123.2263   64.7398 H   0  0  0  0  0  0  0  0  0  0  0  0
  132.2367  123.0803   63.7385 H   0  0  0  0  0  0  0  0  0  0  0  0
  132.5700  124.6740   66.3270 H   0  0  0  0  0  0  0  0  0  0  0  0
  134.4988  124.9703   67.3451 H   0  0  0  0  0  0  0  0  0  0  0  0
  135.4790  123.7868   66.4148 H   0  0  0  0  0  0  0  0  0  0  0  0
  135.9318  125.5251   66.4148 H   0  0  0  0  0  0  0  0  0  0  0  0
  130.0204  127.0604   63.4789 H   0  0  0  0  0  0  0  0  0  0  0  0
  128.1143  128.0973   64.6816 H   0  0  0  0  0  0  0  0  0  0  0  0
  128.9835  125.6794   68.1539 H   0  0  0  0  0  0  0  0  0  0  0  0
  130.8870  124.6404   66.9522 H   0  0  0  0  0  0  0  0  0  0  0  0
  132.3219  126.9551   63.4178 H   0  0  0  0  0  0  0  0  0  0  0  0
  133.3022  125.4718   62.9179 H   0  0  0  0  0  0  0  0  0  0  0  0
  130.4865  126.1951   61.9801 H   0  0  0  0  0  0  0  0  0  0  0  0
  131.9707  126.2270   61.0033 H   0  0  0  0  0  0  0  0  0  0  0  0
  126.9628  121.9985   60.4658 H   0  0  0  0  0  0  0  0  0  0  0  0
  128.5065  121.6975   61.2963 H   0  0  0  0  0  0  0  0  0  0  0  0
  127.3212  123.7159   62.2337 H   0  0  0  0  0  0  0  0  0  0  0  0
  128.9119  124.1551   61.4481 H   0  0  0  0  0  0  0  0  0  0  0  0
  1  2  1  0
  2  3  2  0
  2  4  1  0
  4  5  1  0
  5  6  1  0
  6  7  2  0
  7  8  1  0
  8  9  2  0
  9 10  1  0
 10 11  1  0
 10 12  1  0
 10 13  1  0
  9 14  1  0
 14 15  2  0
  5 16  1  0
 16 17  1  0
 17 18  1  0
 18 19  1  0
 19 20  2  0
 19 21  1  0
 21 22  1  0
 22 23  1  0
 23 24  2  0
 23 25  1  0
 25 26  1  0
 26 27  1  0
 27 28  1  0
 28 29  1  0
 29 30  1  0
 30 31  1  0
 30 32  2  0
 28 33  1  0
 33 34  2  0
 34 35  1  0
 35 36  2  0
 36 37  1  0
 37 38  1  0
 37 39  1  0
 37 40  1  0
 36 41  1  0
 41 42  2  0
 28 43  1  0
 43 44  1  0
 18 45  1  0
 45 46  1  0
 46  5  1  0
 15  6  1  0
 44 25  1  0
 42 33  1  0
  1 47  1  0
  1 48  1  0
  1 49  1  0
  4 50  1  0
  7 51  1  0
  8 52  1  0
 14 53  1  0
 15 54  1  0
 16 55  1  0
 16 56  1  0
 17 57  1  0
 17 58  1  0
 21 59  1  0
 21 60  1  0
 22 61  1  0
 22 62  1  0
 26 63  1  0
 26 64  1  0
 27 65  1  0
 27 66  1  0
 29 67  1  0
 31 68  1  0
 31 69  1  0
 31 70  1  0
 34 71  1  0
 35 72  1  0
 41 73  1  0
 42 74  1  0
 43 75  1  0
 43 76  1  0
 44 77  1  0
 44 78  1  0
 45 79  1  0
 45 80  1  0
 46 81  1  0
 46 82  1  0
M  END
>  <Binding energies>  (1) 
[-8.38]

>  <Ligand effiencies>  (1) 
[-0.17458333333333334]

>  <Interactions>  (1) 
["V-B:PRO:540:C:9849, V-B:GLU:543:CG:9875, V-B:ALA:541:CB:9860, V-B:GLU:543:CB:9874, V-B:TYR:539:C:9835, V-B:TYR:539:CD2:9842, V-B:TYR:539:CE2:9844, V-B:HIS:456:CE1:9037, V-A:TYR:484:CZ:4342, V-A:GLU:543:CG:4902, V-B:GLU:543:C:9870, V-A:GLU:543:CD:4903, V-B:GLU:543:CD:9876, H-A:ARG:545:NH1:4922, H-A:TYR:484:OH:4343, H-A:ARG:545:NE:4919, H-A:ARG:545:NH2:4923, H-A:GLY:454:N:4045, V-A:GLY:454:CA:4044, V-B:ASN:362:CB:8143, V-A:ARG:545:CZ:4921, V-B:PRO:540:CB:9853, H-B:ALA:541:N:9859, V-B:PRO:540:CA:9851, V-B:ARG:545:CG:9890, V-B:ARG:545:CD:9891, V-B:ASP:366:CG:8180, V-A:ARG:545:CD:4918, V-A:GLY:453:CA:4039, V-A:ARG:545:CG:4917, V-A:HIS:456:CD2:4063, V-A:GLY:453:C:4037, H-B:ASP:366:OD2:8182, V-B:LEU:363:CA:8152, V-B:ASN:362:C:8139, V-B:ASN:362:CA:8141"]

$$$$
RR29_Rahimova_2017
     RDKit          3D

 35 36  0  0  0  0  0  0  0  0999 V2000
  129.1920  120.8730   60.7950 C   0  0  0  0  0  0  0  0  0  0  0  0
  128.6870  122.1970   61.3500 C   0  0  0  0  0  0  0  0  0  0  0  0
  129.5510  122.7320   62.5130 C   0  0  0  0  0  0  0  0  0  0  0  0
  130.0680  124.1580   62.2310 C   0  0  0  0  0  0  0  0  0  0  0  0
  131.3720  124.4530   62.9580 C   0  0  0  0  0  0  0  0  0  0  0  0
  132.5940  124.3990   62.2590 C   0  0  0  0  0  0  0  0  0  0  0  0
  133.8070  124.6680   62.9090 C   0  0  0  0  0  0  0  0  0  0  0  0
  133.7550  124.9780   64.2640 C   0  0  0  0  0  0  0  0  0  0  0  0
  132.5720  125.0300   64.9460 C   0  0  0  0  0  0  0  0  0  0  0  0
  131.3540  124.7770   64.3260 C   0  0  0  0  0  0  0  0  0  0  0  0
  132.8130  125.3860   66.2360 O   0  0  0  0  0  0  0  0  0  0  0  0
  134.2070  125.3460   66.3860 C   0  0  0  0  0  0  0  0  0  0  0  0
  134.7740  125.3010   65.1040 O   0  0  0  0  0  0  0  0  0  0  0  0
  127.6360  122.7180   60.8340 N   0  0  0  0  0  0  0  0  0  0  0  0
  127.1280  123.8720   61.3900 N   0  0  0  0  0  0  0  0  0  0  0  0
  126.1230  124.5840   60.8550 C   0  0  0  0  0  0  0  0  0  0  0  0
  125.4750  124.2660   59.7340 N   0  0  0  0  0  0  0  0  0  0  0  0
  125.7450  125.6860   61.4860 N   0  0  0  0  0  0  0  0  0  0  0  0
  129.4485  120.2006   61.6269 H   0  0  0  0  0  0  0  0  0  0  0  0
  128.4071  120.4106   60.1784 H   0  0  0  0  0  0  0  0  0  0  0  0
  130.0855  121.0508   60.1784 H   0  0  0  0  0  0  0  0  0  0  0  0
  128.9438  122.7479   63.4301 H   0  0  0  0  0  0  0  0  0  0  0  0
  130.4208  122.0684   62.6274 H   0  0  0  0  0  0  0  0  0  0  0  0
  130.2336  124.2669   61.1490 H   0  0  0  0  0  0  0  0  0  0  0  0
  129.3113  124.8687   62.5947 H   0  0  0  0  0  0  0  0  0  0  0  0
  132.5966  124.1425   61.1893 H   0  0  0  0  0  0  0  0  0  0  0  0
  134.7640  124.6351   62.3676 H   0  0  0  0  0  0  0  0  0  0  0  0
  130.4087  124.8285   64.8862 H   0  0  0  0  0  0  0  0  0  0  0  0
  134.5524  126.2454   66.9168 H   0  0  0  0  0  0  0  0  0  0  0  0
  134.5059  124.4631   66.9700 H   0  0  0  0  0  0  0  0  0  0  0  0
  127.5700  124.1990   62.2370 H   0  0  0  0  0  0  0  0  0  0  0  0
  124.5550  124.6420   59.5550 H   0  0  0  0  0  0  0  0  0  0  0  0
  125.9060  123.6360   59.0720 H   0  0  0  0  0  0  0  0  0  0  0  0
  126.3770  126.1430   62.1280 H   0  0  0  0  0  0  0  0  0  0  0  0
  124.8270  126.0720   61.3190 H   0  0  0  0  0  0  0  0  0  0  0  0
  1  2  1  0
  2  3  1  0
  3  4  1  0
  4  5  1  0
  5  6  2  0
  6  7  1  0
  7  8  2  0
  8  9  1  0
  9 10  2  0
  9 11  1  0
 11 12  1  0
 12 13  1  0
  2 14  2  0
 14 15  1  0
 15 16  1  0
 16 17  1  0
 16 18  2  0
 10  5  1  0
 13  8  1  0
  1 19  1  0
  1 20  1  0
  1 21  1  0
  3 22  1  0
  3 23  1  0
  4 24  1  0
  4 25  1  0
  6 26  1  0
  7 27  1  0
 10 28  1  0
 12 29  1  0
 12 30  1  0
 15 31  1  0
 17 32  1  0
 17 33  1  0
 18 34  1  0
 18 35  1  0
M  CHG  1  18   1
M  END
>  <Binding energies>  (1) 
[-7.37]

>  <Ligand effiencies>  (1) 
[-0.3204347826086957]

>  <Interactions>  (1) 
["V-B:PRO:540:C:9849, V-B:ALA:541:CB:9860, V-B:ALA:541:CA:9858, V-B:TYR:539:C:9835, V-A:ASP:366:CG:3208, V-B:GLU:543:CD:9876, H-A:ARG:545:NH1:4922, H-A:TYR:484:OH:4343, H-A:ARG:545:NE:4919, H-A:GLY:454:N:4045, V-A:ARG:545:CZ:4921, V-B:PRO:540:CB:9853, H-B:ALA:541:N:9859, V-B:PRO:540:CA:9851, H-A:HIS:456:NE2:4065, H-B:GLU:543:OE2:9878, V-B:ASP:366:CG:8180, H-B:GLU:543:OE1:9877, V-A:ARG:545:CD:4918, V-A:ARG:545:CG:4917, V-A:HIS:456:CD2:4063, H-B:ASP:366:OD2:8182, H-B:ASP:366:OD1:8181"]

$$$$
RR29_Rahimova_2017-again1
     RDKit          3D

 34 35  0  0  0  0  0  0  0  0999 V2000
  129.7400  122.0210   60.0810 C   0  0  0  0  0  0  0  0  0  0  0  0
  128.6930  122.5930   61.0250 C   0  0  0  0  0  0  0  0  0  0  0  0
  129.2760  123.0810   62.3650 C   0  0  0  0  0  0  0  0  0  0  0  0
  129.8640  124.5030   62.2410 C   0  0  0  0  0  0  0  0  0  0  0  0
  131.2130  124.6300   62.9330 C   0  0  0  0  0  0  0  0  0  0  0  0
  132.4000  124.4460   62.1980 C   0  0  0  0  0  0  0  0  0  0  0  0
  133.6540  124.5600   62.8150 C   0  0  0  0  0  0  0  0  0  0  0  0
  133.6780  124.8520   64.1740 C   0  0  0  0  0  0  0  0  0  0  0  0
  132.5290  125.0300   64.8930 C   0  0  0  0  0  0  0  0  0  0  0  0
  131.2730  124.9320   64.3050 C   0  0  0  0  0  0  0  0  0  0  0  0
  132.8460  125.3340   66.1780 O   0  0  0  0  0  0  0  0  0  0  0  0
  134.2290  125.1270   66.2860 C   0  0  0  0  0  0  0  0  0  0  0  0
  134.7500  125.0400   64.9870 O   0  0  0  0  0  0  0  0  0  0  0  0
  127.4600  122.6070   60.6600 N   0  0  0  0  0  0  0  0  0  0  0  0
  126.5970  123.0750   61.5030 N   0  0  0  0  0  0  0  0  0  0  0  0
  125.6170  123.7550   61.0300 C   0  0  0  0  0  0  0  0  0  0  0  0
  125.3480  124.0730   59.6690 N   0  0  0  0  0  0  0  0  0  0  0  0
  124.6270  124.2980   61.8750 N   0  0  0  0  0  0  0  0  0  0  0  0
  130.5571  121.5746   60.6668 H   0  0  0  0  0  0  0  0  0  0  0  0
  129.2794  121.2492   59.4468 H   0  0  0  0  0  0  0  0  0  0  0  0
  130.1406  122.8256   59.4468 H   0  0  0  0  0  0  0  0  0  0  0  0
  128.4768  123.0892   63.1208 H   0  0  0  0  0  0  0  0  0  0  0  0
  130.0856  122.3969   62.6591 H   0  0  0  0  0  0  0  0  0  0  0  0
  129.9890  124.7428   61.1748 H   0  0  0  0  0  0  0  0  0  0  0  0
  129.1672  125.2001   62.7294 H   0  0  0  0  0  0  0  0  0  0  0  0
  132.3427  124.2096   61.1252 H   0  0  0  0  0  0  0  0  0  0  0  0
  134.5846  124.4234   62.2446 H   0  0  0  0  0  0  0  0  0  0  0  0
  130.3565  125.0856   64.8936 H   0  0  0  0  0  0  0  0  0  0  0  0
  134.6932  125.9691   66.8202 H   0  0  0  0  0  0  0  0  0  0  0  0
  134.4377  124.2043   66.8473 H   0  0  0  0  0  0  0  0  0  0  0  0
  125.9540  123.7720   58.9190 H   0  0  0  0  0  0  0  0  0  0  0  0
  124.5490  124.6200   59.3880 H   0  0  0  0  0  0  0  0  0  0  0  0
  124.6520  124.1800   62.8770 H   0  0  0  0  0  0  0  0  0  0  0  0
  123.8510  124.8390   61.5230 H   0  0  0  0  0  0  0  0  0  0  0  0
  1  2  1  0
  2  3  1  0
  3  4  1  0
  4  5  1  0
  5  6  2  0
  6  7  1  0
  7  8  2  0
  8  9  1  0
  9 10  2  0
  9 11  1  0
 11 12  1  0
 12 13  1  0
  2 14  2  0
 14 15  1  0
 15 16  2  0
 16 17  1  0
 16 18  1  0
 10  5  1  0
 13  8  1  0
  1 19  1  0
  1 20  1  0
  1 21  1  0
  3 22  1  0
  3 23  1  0
  4 24  1  0
  4 25  1  0
  6 26  1  0
  7 27  1  0
 10 28  1  0
 12 29  1  0
 12 30  1  0
 17 31  1  0
 17 32  1  0
 18 33  1  0
 18 34  1  0
M  END
>  <Binding energies>  (1) 
[-6.59]

>  <Ligand effiencies>  (1) 
[-0.29954545454545456]

>  <Interactions>  (1) 
["V-B:ALA:541:CB:9860, V-A:ASP:366:CG:3208, V-B:GLU:543:CD:9876, H-A:ARG:545:NH1:4922, H-A:TYR:484:OH:4343, H-A:ARG:545:NE:4919, H-A:GLY:454:N:4045, V-B:ASN:362:CB:8143, V-A:ARG:545:CZ:4921, V-B:PRO:540:CB:9853, H-B:ALA:541:N:9859, V-B:PRO:540:CA:9851, H-A:HIS:456:NE2:4065, H-B:GLU:543:OE2:9878, H-B:GLU:543:OE1:9877, V-B:ARG:545:CZ:9894, V-A:ARG:545:CD:4918, V-A:ARG:545:CG:4917, V-A:HIS:456:CD2:4063, H-B:ASP:366:OD2:8182, H-B:ALA:541:O:9857, H-B:ASP:366:OD1:8181"]

$$$$
RR2_Rahimova_2017
     RDKit          3D

 76 80  0  0  0  0  0  0  0  0999 V2000
  132.8420  130.9810   57.2840 C   0  0  0  0  0  0  0  0  0  0  0  0
  131.7210  131.6310   56.6980 O   0  0  0  0  0  0  0  0  0  0  0  0
  130.5910  131.8500   57.4650 C   0  0  0  0  0  0  0  0  0  0  0  0
  129.8900  133.0630   57.5140 C   0  0  0  0  0  0  0  0  0  0  0  0
  128.7630  133.1910   58.3200 C   0  0  0  0  0  0  0  0  0  0  0  0
  128.3110  132.1150   59.0960 C   0  0  0  0  0  0  0  0  0  0  0  0
  127.0840  132.2830   59.9710 C   0  0  0  0  0  0  0  0  0  0  0  0
  126.7960  133.3920   60.4340 O   0  0  0  0  0  0  0  0  0  0  0  0
  126.3670  131.1590   60.2040 N   0  0  0  0  0  0  0  0  0  0  0  0
  125.2850  131.2390   61.0740 N   0  0  0  0  0  0  0  0  0  0  0  0
  124.9930  130.1600   61.8290 C   0  0  0  0  0  0  0  0  0  0  0  0
  125.4940  129.0410   61.6840 O   0  0  0  0  0  0  0  0  0  0  0  0
  123.9720  130.3950   62.9500 C   0  0  0  0  0  0  0  0  0  0  0  0
  124.6800  130.9830   64.5320 S   0  0  0  0  0  0  0  0  0  0  0  0
  125.5470  129.5360   65.0590 C   0  0  0  0  0  0  0  0  0  0  0  0
  125.0070  128.6170   65.8180 N   0  0  0  0  0  0  0  0  0  0  0  0
  125.9860  127.6730   66.0920 N   0  0  0  0  0  0  0  0  0  0  0  0
  127.0760  128.0420   65.4620 C   0  0  0  0  0  0  0  0  0  0  0  0
  128.3510  127.2630   65.5010 C   0  0  0  0  0  0  0  0  0  0  0  0
  128.8930  126.8800   66.7310 C   0  0  0  0  0  0  0  0  0  0  0  0
  130.0840  126.1620   66.7780 C   0  0  0  0  0  0  0  0  0  0  0  0
  130.7360  125.8040   65.5920 C   0  0  0  0  0  0  0  0  0  0  0  0
  131.9440  125.0900   65.5800 N   0  0  0  0  0  0  0  0  0  0  0  0
  133.0310  124.9630   64.1790 S   0  0  0  0  0  0  0  0  0  0  0  0
  134.3510  124.6230   64.7210 O   0  0  0  0  0  0  0  0  0  0  0  0
  132.8440  126.1590   63.3480 O   0  0  0  0  0  0  0  0  0  0  0  0
  132.4600  123.5280   63.2710 C   0  0  0  0  0  0  0  0  0  0  0  0
  133.2770  122.9200   62.3150 C   0  0  0  0  0  0  0  0  0  0  0  0
  132.8090  121.8150   61.6100 C   0  0  0  0  0  0  0  0  0  0  0  0
  131.5290  121.3160   61.8630 C   0  0  0  0  0  0  0  0  0  0  0  0
  131.0150  120.1200   61.0820 C   0  0  0  0  0  0  0  0  0  0  0  0
  130.7130  121.9290   62.8160 C   0  0  0  0  0  0  0  0  0  0  0  0
  131.1790  123.0340   63.5210 C   0  0  0  0  0  0  0  0  0  0  0  0
  130.1920  126.1840   64.3650 C   0  0  0  0  0  0  0  0  0  0  0  0
  129.0050  126.9080   64.3170 C   0  0  0  0  0  0  0  0  0  0  0  0
  126.8670  129.2310   64.7830 N   0  0  0  0  0  0  0  0  0  0  0  0
  127.7900  129.9810   64.0250 C   0  0  0  0  0  0  0  0  0  0  0  0
  128.2000  131.2380   64.4730 C   0  0  0  0  0  0  0  0  0  0  0  0
  129.1150  131.9720   63.7230 C   0  0  0  0  0  0  0  0  0  0  0  0
  129.6240  131.4630   62.5270 C   0  0  0  0  0  0  0  0  0  0  0  0
  130.5250  132.2640   61.8530 O   0  0  0  0  0  0  0  0  0  0  0  0
  131.7820  131.7210   61.4610 C   0  0  0  0  0  0  0  0  0  0  0  0
  129.2060  130.1970   62.0840 C   0  0  0  0  0  0  0  0  0  0  0  0
  128.2930  129.4590   62.8320 C   0  0  0  0  0  0  0  0  0  0  0  0
  129.0140  130.9020   59.0370 C   0  0  0  0  0  0  0  0  0  0  0  0
  130.1410  130.7760   58.2290 C   0  0  0  0  0  0  0  0  0  0  0  0
  132.7613  131.0278   58.3800 H   0  0  0  0  0  0  0  0  0  0  0  0
  132.8653  129.9293   56.9626 H   0  0  0  0  0  0  0  0  0  0  0  0
  133.7664  131.4832   56.9626 H   0  0  0  0  0  0  0  0  0  0  0  0
  130.2325  133.9178   56.9123 H   0  0  0  0  0  0  0  0  0  0  0  0
  128.2207  134.1476   58.3484 H   0  0  0  0  0  0  0  0  0  0  0  0
  126.8060  130.2500   60.2360 H   0  0  0  0  0  0  0  0  0  0  0  0
  125.0600  132.1860   61.3460 H   0  0  0  0  0  0  0  0  0  0  0  0
  123.2483  131.1459   62.6002 H   0  0  0  0  0  0  0  0  0  0  0  0
  123.5181  129.4157   63.1620 H   0  0  0  0  0  0  0  0  0  0  0  0
  128.3765  127.1470   67.6648 H   0  0  0  0  0  0  0  0  0  0  0  0
  130.5141  125.8751   67.7490 H   0  0  0  0  0  0  0  0  0  0  0  0
  132.2290  124.6360   66.4350 H   0  0  0  0  0  0  0  0  0  0  0  0
  134.2858  123.3128   62.1202 H   0  0  0  0  0  0  0  0  0  0  0  0
  133.4470  121.3346   60.8536 H   0  0  0  0  0  0  0  0  0  0  0  0
  130.6802  119.3409   61.7827 H   0  0  0  0  0  0  0  0  0  0  0  0
  130.1710  120.4309   60.4487 H   0  0  0  0  0  0  0  0  0  0  0  0
  131.8214  119.7216   60.4487 H   0  0  0  0  0  0  0  0  0  0  0  0
  129.7029  121.5386   63.0090 H   0  0  0  0  0  0  0  0  0  0  0  0
  130.5391  123.5174   64.2739 H   0  0  0  0  0  0  0  0  0  0  0  0
  130.7041  125.9099   63.4308 H   0  0  0  0  0  0  0  0  0  0  0  0
  128.5801  127.2018   63.3458 H   0  0  0  0  0  0  0  0  0  0  0  0
  127.8022  131.6465   65.4137 H   0  0  0  0  0  0  0  0  0  0  0  0
  129.4397  132.9619   64.0761 H   0  0  0  0  0  0  0  0  0  0  0  0
  132.3676  131.4680   62.3571 H   0  0  0  0  0  0  0  0  0  0  0  0
  131.6184  130.8133   60.8616 H   0  0  0  0  0  0  0  0  0  0  0  0
  132.3308  132.4623   60.8616 H   0  0  0  0  0  0  0  0  0  0  0  0
  129.6016  129.7875   61.1428 H   0  0  0  0  0  0  0  0  0  0  0  0
  127.9688  128.4672   62.4840 H   0  0  0  0  0  0  0  0  0  0  0  0
  128.6720  130.0437   59.6339 H   0  0  0  0  0  0  0  0  0  0  0  0
  130.6814  129.8185   58.1938 H   0  0  0  0  0  0  0  0  0  0  0  0
  1  2  1  0
  2  3  1  0
  3  4  2  0
  4  5  1  0
  5  6  2  0
  6  7  1  0
  7  8  2  0
  7  9  1  0
  9 10  1  0
 10 11  1  0
 11 12  2  0
 11 13  1  0
 13 14  1  0
 14 15  1  0
 15 16  2  0
 16 17  1  0
 17 18  2  0
 18 19  1  0
 19 20  2  0
 20 21  1  0
 21 22  2  0
 22 23  1  0
 23 24  1  0
 24 25  2  0
 24 26  2  0
 24 27  1  0
 27 28  2  0
 28 29  1  0
 29 30  2  0
 30 31  1  0
 30 32  1  0
 32 33  2  0
 22 34  1  0
 34 35  2  0
 18 36  1  0
 36 37  1  0
 37 38  2  0
 38 39  1  0
 39 40  2  0
 40 41  1  0
 41 42  1  0
 40 43  1  0
 43 44  2  0
  6 45  1  0
 45 46  2  0
 46  3  1  0
 36 15  1  0
 44 37  1  0
 35 19  1  0
 33 27  1  0
  1 47  1  0
  1 48  1  0
  1 49  1  0
  4 50  1  0
  5 51  1  0
  9 52  1  0
 10 53  1  0
 13 54  1  0
 13 55  1  0
 20 56  1  0
 21 57  1  0
 23 58  1  0
 28 59  1  0
 29 60  1  0
 31 61  1  0
 31 62  1  0
 31 63  1  0
 32 64  1  0
 33 65  1  0
 34 66  1  0
 35 67  1  0
 38 68  1  0
 39 69  1  0
 42 70  1  0
 42 71  1  0
 42 72  1  0
 43 73  1  0
 44 74  1  0
 45 75  1  0
 46 76  1  0
M  END
>  <Binding energies>  (1) 
[-9.59]

>  <Ligand effiencies>  (1) 
[-0.1957142857142857]

>  <Interactions>  (1) 
["V-B:GLU:543:CG:9875, V-B:ALA:541:CB:9860, V-B:GLU:543:CB:9874, V-A:LEU:475:CD2:4254, V-A:ILE:369:CD1:3234, V-A:TYR:484:CZ:4342, V-A:GLU:543:CG:4902, H-B:TYR:484:OH:9315, V-A:GLU:543:CD:4903, V-B:GLU:543:CD:9876, H-A:TYR:484:OH:4343, H-A:ARG:545:NE:4919, H-A:ARG:545:NH2:4923, H-A:GLY:454:N:4045, V-A:ARG:545:CZ:4921, V-A:TYR:539:CE2:4871, H-A:ALA:541:N:4886, V-A:PRO:540:CA:4878, V-A:TYR:539:CD2:4869, V-A:TYR:539:C:4862, V-A:PRO:540:N:4879, V-A:ALA:541:CB:4887, V-A:LEU:363:CD1:3184, V-A:TYR:531:CE2:4788, V-A:TYR:539:CG:4867, V-A:TYR:531:CZ:4789, V-A:PRO:540:CB:4880, V-B:ARG:545:CZ:9894, V-A:TYR:539:CZ:4872, V-A:TYR:539:CE1:4870, V-A:TYR:539:CD1:4868, V-A:PRO:540:CD:4882, H-B:ARG:545:NH2:9896, H-B:ARG:545:NE:9892, H-B:GLY:454:N:9017, V-A:TYR:539:CA:4864"]

$$$$
RR30_Rahimova_2017
     RDKit          3D

 29 30  0  0  0  0  0  0  0  0999 V2000
  133.2260  122.7290   60.8680 C   0  0  0  0  0  0  0  0  0  0  0  0
  133.3660  124.2350   61.1290 C   0  0  0  0  0  0  0  0  0  0  0  0
  133.4540  124.5550   62.6050 C   0  0  0  0  0  0  0  0  0  0  0  0
  134.5260  124.6350   63.3540 N   0  0  0  0  0  0  0  0  0  0  0  0
  134.0750  124.9450   64.6350 N   0  0  0  0  0  0  0  0  0  0  0  0
  132.7710  125.0160   64.5520 C   0  0  0  0  0  0  0  0  0  0  0  0
  131.6290  125.3900   65.8430 S   0  0  0  0  0  0  0  0  0  0  0  0
  130.0620  125.0300   64.9890 C   0  0  0  0  0  0  0  0  0  0  0  0
  130.0760  123.6590   64.3080 C   0  0  0  0  0  0  0  0  0  0  0  0
  130.6110  122.7070   64.8810 O   0  0  0  0  0  0  0  0  0  0  0  0
  129.5140  123.6040   63.0800 N   0  0  0  0  0  0  0  0  0  0  0  0
  129.4110  122.4820   62.2710 C   0  0  0  0  0  0  0  0  0  0  0  0
  128.4590  122.1800   61.4160 N   0  0  0  0  0  0  0  0  0  0  0  0
  128.6880  120.9670   60.7780 N   0  0  0  0  0  0  0  0  0  0  0  0
  129.7990  120.3800   61.1590 C   0  0  0  0  0  0  0  0  0  0  0  0
  130.2620  119.0500   60.6110 C   0  0  0  0  0  0  0  0  0  0  0  0
  130.6730  121.2940   62.3580 S   0  0  0  0  0  0  0  0  0  0  0  0
  132.3100  124.7850   63.2960 O   0  0  0  0  0  0  0  0  0  0  0  0
  133.1762  122.1936   61.8276 H   0  0  0  0  0  0  0  0  0  0  0  0
  132.3064  122.5402   60.2947 H   0  0  0  0  0  0  0  0  0  0  0  0
  134.0950  122.3739   60.2947 H   0  0  0  0  0  0  0  0  0  0  0  0
  134.2789  124.5968   60.6333 H   0  0  0  0  0  0  0  0  0  0  0  0
  132.4692  124.7311   60.7295 H   0  0  0  0  0  0  0  0  0  0  0  0
  129.2445  125.0517   65.7247 H   0  0  0  0  0  0  0  0  0  0  0  0
  129.9194  125.7928   64.2093 H   0  0  0  0  0  0  0  0  0  0  0  0
  129.1330  124.4590   62.7000 H   0  0  0  0  0  0  0  0  0  0  0  0
  130.4980  118.3721   61.4445 H   0  0  0  0  0  0  0  0  0  0  0  0
  129.4643  118.6096   59.9948 H   0  0  0  0  0  0  0  0  0  0  0  0
  131.1607  119.2002   59.9948 H   0  0  0  0  0  0  0  0  0  0  0  0
  1  2  1  0
  2  3  1  0
  3  4  2  0
  4  5  1  0
  5  6  2  0
  6  7  1  0
  7  8  1  0
  8  9  1  0
  9 10  2  0
  9 11  1  0
 11 12  1  0
 12 13  2  0
 13 14  1  0
 14 15  2  0
 15 16  1  0
 15 17  1  0
  6 18  1  0
 18  3  1  0
 17 12  1  0
  1 19  1  0
  1 20  1  0
  1 21  1  0
  2 22  1  0
  2 23  1  0
  8 24  1  0
  8 25  1  0
 11 26  1  0
 16 27  1  0
 16 28  1  0
 16 29  1  0
M  END
>  <Binding energies>  (1) 
[-6.57]

>  <Ligand effiencies>  (1) 
[-0.34578947368421054]

>  <Interactions>  (1) 
["V-B:GLU:543:CG:9875, V-A:TRP:381:CZ2:3365, V-B:ALA:541:CB:9860, V-A:TRP:381:CH2:3367, V-B:TYR:539:CD2:9842, V-A:LEU:475:CD2:4254, V-A:ILE:369:CD1:3234, V-A:ASP:366:CG:3208, V-A:ASP:366:CB:3207, V-B:GLU:543:CD:9876, H-A:ARG:545:NH1:4922, H-A:TYR:484:OH:4343, H-A:ARG:545:NE:4919, H-A:GLY:454:N:4045, H-B:ALA:541:N:9859, H-A:HIS:456:NE2:4065, H-B:GLU:543:OE2:9878"]

$$$$
RR31_Rahimova_2017
     RDKit          3D

 44 45  0  0  0  0  0  0  0  0999 V2000
  134.4300  125.3380   65.8350 C   0  0  0  0  0  0  0  0  0  0  0  0
  133.3100  125.0170   64.8550 C   0  0  0  0  0  0  0  0  0  0  0  0
  133.6130  124.3490   63.6680 C   0  0  0  0  0  0  0  0  0  0  0  0
  132.6090  124.0380   62.7530 C   0  0  0  0  0  0  0  0  0  0  0  0
  131.2700  124.3780   63.0010 C   0  0  0  0  0  0  0  0  0  0  0  0
  130.2540  124.0820   62.0890 N   0  0  0  0  0  0  0  0  0  0  0  0
  129.4640  122.8390   62.1750 C   0  0  0  0  0  0  0  0  0  0  0  0
  128.6930  122.4910   60.8800 C   0  0  0  0  0  0  0  0  0  0  0  0
  127.8220  123.5980   60.4760 N   0  0  0  0  0  0  0  0  0  0  0  0
  127.0500  123.2840   59.2700 C   0  0  0  0  0  0  0  0  0  0  0  0
  125.6110  123.8370   59.3140 C   0  0  0  0  0  0  0  0  0  0  0  0
  125.0380  123.8550   60.7400 C   0  0  0  0  0  0  0  0  0  0  0  0
  125.6030  125.0490   61.5170 N   0  0  0  0  0  0  0  0  0  0  0  0
  128.6770  124.7580   60.2260 C   0  0  0  0  0  0  0  0  0  0  0  0
  129.4370  125.1660   61.5080 C   0  0  0  0  0  0  0  0  0  0  0  0
  130.9800  125.0570   64.1940 C   0  0  0  0  0  0  0  0  0  0  0  0
  131.9790  125.3760   65.1210 C   0  0  0  0  0  0  0  0  0  0  0  0
  131.5990  126.1180   66.3970 C   0  0  0  0  0  0  0  0  0  0  0  0
  134.0580  125.2314   66.8647 H   0  0  0  0  0  0  0  0  0  0  0  0
  135.2681  124.6439   65.6742 H   0  0  0  0  0  0  0  0  0  0  0  0
  134.7732  126.3707   65.6742 H   0  0  0  0  0  0  0  0  0  0  0  0
  134.6537  124.0653   63.4526 H   0  0  0  0  0  0  0  0  0  0  0  0
  132.8704  123.5170   61.8202 H   0  0  0  0  0  0  0  0  0  0  0  0
  130.1491  122.0091   62.4029 H   0  0  0  0  0  0  0  0  0  0  0  0
  128.7105  122.9953   62.9610 H   0  0  0  0  0  0  0  0  0  0  0  0
  129.4145  122.2882   60.0748 H   0  0  0  0  0  0  0  0  0  0  0  0
  128.0696  121.6048   61.0697 H   0  0  0  0  0  0  0  0  0  0  0  0
  127.5658  123.7181   58.4008 H   0  0  0  0  0  0  0  0  0  0  0  0
  126.9792  122.1885   59.2009 H   0  0  0  0  0  0  0  0  0  0  0  0
  125.6144  124.8643   58.9208 H   0  0  0  0  0  0  0  0  0  0  0  0
  124.9771  123.1764   58.7042 H   0  0  0  0  0  0  0  0  0  0  0  0
  123.9422  123.9378   60.6912 H   0  0  0  0  0  0  0  0  0  0  0  0
  125.3194  122.9240   61.2539 H   0  0  0  0  0  0  0  0  0  0  0  0
  125.3300  124.9930   62.4880 H   0  0  0  0  0  0  0  0  0  0  0  0
  125.2530  125.9140   61.1300 H   0  0  0  0  0  0  0  0  0  0  0  0
  126.6120  125.0540   61.4640 H   0  0  0  0  0  0  0  0  0  0  0  0
  129.4044  124.5071   59.4399 H   0  0  0  0  0  0  0  0  0  0  0  0
  128.0447  125.6000   59.9079 H   0  0  0  0  0  0  0  0  0  0  0  0
  130.1015  126.0078   61.2637 H   0  0  0  0  0  0  0  0  0  0  0  0
  128.6780  125.4316   62.2586 H   0  0  0  0  0  0  0  0  0  0  0  0
  129.9402  125.3463   64.4064 H   0  0  0  0  0  0  0  0  0  0  0  0
  131.9033  125.5237   67.2712 H   0  0  0  0  0  0  0  0  0  0  0  0
  132.1091  127.0923   66.4203 H   0  0  0  0  0  0  0  0  0  0  0  0
  130.5103  126.2735   66.4203 H   0  0  0  0  0  0  0  0  0  0  0  0
  1  2  1  0
  2  3  2  0
  3  4  1  0
  4  5  2  0
  5  6  1  0
  6  7  1  0
  7  8  1  0
  8  9  1  0
  9 10  1  0
 10 11  1  0
 11 12  1  0
 12 13  1  0
  9 14  1  0
 14 15  1  0
  5 16  1  0
 16 17  2  0
 17 18  1  0
 17  2  1  0
 15  6  1  0
  1 19  1  0
  1 20  1  0
  1 21  1  0
  3 22  1  0
  4 23  1  0
  7 24  1  0
  7 25  1  0
  8 26  1  0
  8 27  1  0
 10 28  1  0
 10 29  1  0
 11 30  1  0
 11 31  1  0
 12 32  1  0
 12 33  1  0
 13 34  1  0
 13 35  1  0
 13 36  1  0
 14 37  1  0
 14 38  1  0
 15 39  1  0
 15 40  1  0
 16 41  1  0
 18 42  1  0
 18 43  1  0
 18 44  1  0
M  CHG  1  13   1
M  END
>  <Binding energies>  (1) 
[-5.76]

>  <Ligand effiencies>  (1) 
[-0.2742857142857143]

>  <Interactions>  (1) 
["V-A:HIS:456:CE1:4064, V-B:ALA:541:CB:9860, V-B:GLU:543:CD:9876, V-A:GLY:454:CA:4044, V-A:ARG:545:CZ:4921, V-B:PRO:540:CB:9853, V-B:PRO:540:CA:9851, H-B:GLU:543:OE2:9878, H-B:GLU:543:OE1:9877, V-A:ARG:545:CD:4918, V-A:GLY:453:CA:4039, V-A:ARG:545:CG:4917, H-B:ASP:366:OD2:8182, V-B:PRO:540:N:9852, H-B:ASP:366:OD1:8181"]

$$$$
RR32_Rahimova_2017
     RDKit          3D

 37 39  0  0  0  0  0  0  0  0999 V2000
  131.6180  120.9390   60.8080 C   0  0  0  0  0  0  0  0  0  0  0  0
  131.0380  121.8860   59.7620 C   0  0  0  0  0  0  0  0  0  0  0  0
  129.6510  122.0060   59.6770 C   0  0  0  0  0  0  0  0  0  0  0  0
  129.0860  122.8630   58.7370 C   0  0  0  0  0  0  0  0  0  0  0  0
  127.7100  122.9790   58.6560 N   0  0  0  0  0  0  0  0  0  0  0  0
  127.0610  123.9590   59.5460 C   0  0  0  0  0  0  0  0  0  0  0  0
  125.5160  123.8860   59.5120 C   0  0  0  0  0  0  0  0  0  0  0  0
  125.0300  124.1010   58.1490 N   0  0  0  0  0  0  0  0  0  0  0  0
  123.5720  124.0640   58.1220 C   0  0  0  0  0  0  0  0  0  0  0  0
  125.5790  123.0440   57.3030 C   0  0  0  0  0  0  0  0  0  0  0  0
  127.1250  123.1010   57.3060 C   0  0  0  0  0  0  0  0  0  0  0  0
  129.8350  123.6020   57.8770 N   0  0  0  0  0  0  0  0  0  0  0  0
  131.1910  123.5040   57.9330 C   0  0  0  0  0  0  0  0  0  0  0  0
  131.9460  124.2840   57.0240 C   0  0  0  0  0  0  0  0  0  0  0  0
  133.3350  124.2240   57.0350 C   0  0  0  0  0  0  0  0  0  0  0  0
  133.9980  123.4010   57.9380 C   0  0  0  0  0  0  0  0  0  0  0  0
  133.2860  122.6220   58.8450 C   0  0  0  0  0  0  0  0  0  0  0  0
  131.8610  122.6500   58.8690 C   0  0  0  0  0  0  0  0  0  0  0  0
  131.3860  121.3178   61.8143 H   0  0  0  0  0  0  0  0  0  0  0  0
  131.1772  119.9391   60.6819 H   0  0  0  0  0  0  0  0  0  0  0  0
  132.7090  120.8773   60.6819 H   0  0  0  0  0  0  0  0  0  0  0  0
  129.0051  121.4246   60.3514 H   0  0  0  0  0  0  0  0  0  0  0  0
  127.3970  123.7712   60.5765 H   0  0  0  0  0  0  0  0  0  0  0  0
  127.3481  124.9605   59.1930 H   0  0  0  0  0  0  0  0  0  0  0  0
  125.1913  122.8948   59.8614 H   0  0  0  0  0  0  0  0  0  0  0  0
  125.1052  124.6683   60.1672 H   0  0  0  0  0  0  0  0  0  0  0  0
  123.1863  124.0542   59.1521 H   0  0  0  0  0  0  0  0  0  0  0  0
  123.1923  124.9528   57.5968 H   0  0  0  0  0  0  0  0  0  0  0  0
  123.2379  123.1571   57.5968 H   0  0  0  0  0  0  0  0  0  0  0  0
  125.2514  122.0662   57.6858 H   0  0  0  0  0  0  0  0  0  0  0  0
  125.2181  123.1865   56.2737 H   0  0  0  0  0  0  0  0  0  0  0  0
  127.5062  122.2775   56.6843 H   0  0  0  0  0  0  0  0  0  0  0  0
  127.4160  124.0859   56.9120 H   0  0  0  0  0  0  0  0  0  0  0  0
  131.4316  124.9400   56.3063 H   0  0  0  0  0  0  0  0  0  0  0  0
  133.9135  124.8322   56.3240 H   0  0  0  0  0  0  0  0  0  0  0  0
  135.0974  123.3651   57.9356 H   0  0  0  0  0  0  0  0  0  0  0  0
  133.8291  121.9772   59.5516 H   0  0  0  0  0  0  0  0  0  0  0  0
  1  2  1  0
  2  3  2  0
  3  4  1  0
  4  5  1  0
  5  6  1  0
  6  7  1  0
  7  8  1  0
  8  9  1  0
  8 10  1  0
 10 11  1  0
  4 12  2  0
 12 13  1  0
 13 14  2  0
 14 15  1  0
 15 16  2  0
 16 17  1  0
 17 18  2  0
 18  2  1  0
 11  5  1  0
 18 13  1  0
  1 19  1  0
  1 20  1  0
  1 21  1  0
  3 22  1  0
  6 23  1  0
  6 24  1  0
  7 25  1  0
  7 26  1  0
  9 27  1  0
  9 28  1  0
  9 29  1  0
 10 30  1  0
 10 31  1  0
 11 32  1  0
 11 33  1  0
 14 34  1  0
 15 35  1  0
 16 36  1  0
 17 37  1  0
M  END
>  <Binding energies>  (1) 
[-5.95]

>  <Ligand effiencies>  (1) 
[-0.33055555555555555]

>  <Interactions>  (1) 
["V-B:TYR:539:C:9835, V-B:TYR:539:CD2:9842, V-A:LEU:475:CD2:4254, V-B:TYR:539:CE2:9844, V-A:ILE:369:CD1:3234, V-B:TYR:539:CZ:9845, V-A:ASP:366:CA:3205, V-A:ILE:369:CB:3231, V-A:ASP:366:CB:3207, V-A:ASP:366:C:3203, V-A:ILE:369:CG2:3232, V-B:PRO:540:CB:9853, V-B:PRO:540:CA:9851, V-A:TYR:531:CZ:4789, V-B:ASP:366:CB:8179, V-B:ASP:366:CG:8180, V-B:LEU:363:CD1:8156, V-B:PRO:540:CD:9855, V-B:LEU:363:CA:8152, V-B:PRO:540:N:9852, V-B:LEU:363:CB:8154, V-B:MET:535:CE:9803, V-A:TYR:531:CE1:4787, V-B:LEU:363:CG:8155"]

$$$$
RR32_Rahimova_2017-again1
     RDKit          3D

 38 40  0  0  0  0  0  0  0  0999 V2000
  133.6140  122.4930   58.7220 C   0  0  0  0  0  0  0  0  0  0  0  0
  132.9260  122.7520   60.0550 C   0  0  0  0  0  0  0  0  0  0  0  0
  133.1570  123.9420   60.7460 C   0  0  0  0  0  0  0  0  0  0  0  0
  132.5200  124.1800   61.9690 C   0  0  0  0  0  0  0  0  0  0  0  0
  132.7450  125.3610   62.6840 N   0  0  0  0  0  0  0  0  0  0  0  0
  131.7640  126.4630   62.6330 C   0  0  0  0  0  0  0  0  0  0  0  0
  130.6360  126.3040   63.6800 C   0  0  0  0  0  0  0  0  0  0  0  0
  131.2680  126.3070   65.0860 N   0  0  0  0  0  0  0  0  0  0  0  0
  130.1880  126.1340   66.1710 C   0  0  0  0  0  0  0  0  0  0  0  0
  132.3070  125.1700   65.1640 C   0  0  0  0  0  0  0  0  0  0  0  0
  133.3450  125.3730   64.0350 C   0  0  0  0  0  0  0  0  0  0  0  0
  131.6880  123.2570   62.5250 N   0  0  0  0  0  0  0  0  0  0  0  0
  131.4410  122.0890   61.8730 C   0  0  0  0  0  0  0  0  0  0  0  0
  130.5590  121.1590   62.4740 C   0  0  0  0  0  0  0  0  0  0  0  0
  130.2750  119.9530   61.8400 C   0  0  0  0  0  0  0  0  0  0  0  0
  130.8550  119.6460   60.6130 C   0  0  0  0  0  0  0  0  0  0  0  0
  131.7280  120.5390   59.9980 C   0  0  0  0  0  0  0  0  0  0  0  0
  132.0410  121.7820   60.6140 C   0  0  0  0  0  0  0  0  0  0  0  0
  134.6296  122.1107   58.9018 H   0  0  0  0  0  0  0  0  0  0  0  0
  133.0383  121.7500   58.1505 H   0  0  0  0  0  0  0  0  0  0  0  0
  133.6712  123.4311   58.1505 H   0  0  0  0  0  0  0  0  0  0  0  0
  133.8416  124.6949   60.3283 H   0  0  0  0  0  0  0  0  0  0  0  0
  132.2889  127.4110   62.8218 H   0  0  0  0  0  0  0  0  0  0  0  0
  131.2983  126.4488   61.6366 H   0  0  0  0  0  0  0  0  0  0  0  0
  129.9265  127.1398   63.5906 H   0  0  0  0  0  0  0  0  0  0  0  0
  130.0967  125.3602   63.5118 H   0  0  0  0  0  0  0  0  0  0  0  0
  131.7450  127.1870   65.2210 H   0  0  0  0  0  0  0  0  0  0  0  0
  130.6521  126.2083   67.1655 H   0  0  0  0  0  0  0  0  0  0  0  0
  129.4283  126.9219   66.0611 H   0  0  0  0  0  0  0  0  0  0  0  0
  129.7124  125.1482   66.0611 H   0  0  0  0  0  0  0  0  0  0  0  0
  132.8120  125.1956   66.1409 H   0  0  0  0  0  0  0  0  0  0  0  0
  131.8088  124.1964   65.0464 H   0  0  0  0  0  0  0  0  0  0  0  0
  133.8430  126.3418   64.1879 H   0  0  0  0  0  0  0  0  0  0  0  0
  134.0526  124.5324   64.0862 H   0  0  0  0  0  0  0  0  0  0  0  0
  130.0967  121.3902   63.4450 H   0  0  0  0  0  0  0  0  0  0  0  0
  129.5866  119.2369   62.3126 H   0  0  0  0  0  0  0  0  0  0  0  0
  130.6214  118.6886   60.1244 H   0  0  0  0  0  0  0  0  0  0  0  0
  132.1791  120.2813   59.0284 H   0  0  0  0  0  0  0  0  0  0  0  0
  1  2  1  0
  2  3  2  0
  3  4  1  0
  4  5  1  0
  5  6  1  0
  6  7  1  0
  7  8  1  0
  8  9  1  0
  8 10  1  0
 10 11  1  0
  4 12  2  0
 12 13  1  0
 13 14  2  0
 14 15  1  0
 15 16  2  0
 16 17  1  0
 17 18  2  0
 18  2  1  0
 11  5  1  0
 18 13  1  0
  1 19  1  0
  1 20  1  0
  1 21  1  0
  3 22  1  0
  6 23  1  0
  6 24  1  0
  7 25  1  0
  7 26  1  0
  8 27  1  0
  9 28  1  0
  9 29  1  0
  9 30  1  0
 10 31  1  0
 10 32  1  0
 11 33  1  0
 11 34  1  0
 14 35  1  0
 15 36  1  0
 16 37  1  0
 17 38  1  0
M  CHG  1   8   1
M  END
>  <Binding energies>  (1) 
[-6.36]

>  <Ligand effiencies>  (1) 
[-0.33473684210526317]

>  <Interactions>  (1) 
["V-A:TRP:381:CZ2:3365, V-B:ALA:541:CB:9860, V-A:TRP:381:CH2:3367, V-B:TYR:539:CD2:9842, V-A:LEU:475:CD2:4254, V-B:TYR:539:CE2:9844, V-A:ILE:369:CD1:3234, V-A:ILE:369:CB:3231, V-A:ASP:366:CG:3208, V-A:GLU:543:CD:4903, V-A:ILE:369:CG2:3232, V-A:ARG:545:CZ:4921, H-A:GLU:543:OE2:4905, V-A:LEU:475:CD1:4253, H-A:GLU:543:OE1:4904, V-A:ILE:369:CG1:3233"]

$$$$
RR32_Rahimova_2017-again2
     RDKit          3D

 39 41  0  0  0  0  0  0  0  0999 V2000
  130.7610  120.1460   60.4000 C   0  0  0  0  0  0  0  0  0  0  0  0
  130.0290  121.3760   60.9210 C   0  0  0  0  0  0  0  0  0  0  0  0
  128.7460  121.6790   60.4560 C   0  0  0  0  0  0  0  0  0  0  0  0
  128.0600  122.8090   60.9190 C   0  0  0  0  0  0  0  0  0  0  0  0
  126.7310  123.1580   60.4820 N   0  0  0  0  0  0  0  0  0  0  0  0
  125.8390  123.9820   61.3400 C   0  0  0  0  0  0  0  0  0  0  0  0
  126.1130  125.4950   61.1260 C   0  0  0  0  0  0  0  0  0  0  0  0
  125.8740  125.8570   59.6400 N   0  0  0  0  0  0  0  0  0  0  0  0
  126.1920  127.3410   59.3760 C   0  0  0  0  0  0  0  0  0  0  0  0
  126.7170  124.9380   58.7240 C   0  0  0  0  0  0  0  0  0  0  0  0
  126.4080  123.4560   59.0630 C   0  0  0  0  0  0  0  0  0  0  0  0
  128.6720  123.5890   61.8330 N   0  0  0  0  0  0  0  0  0  0  0  0
  129.9290  123.3700   62.3480 C   0  0  0  0  0  0  0  0  0  0  0  0
  130.4790  124.2520   63.3040 C   0  0  0  0  0  0  0  0  0  0  0  0
  131.7520  123.9970   63.8070 C   0  0  0  0  0  0  0  0  0  0  0  0
  132.4770  122.8890   63.3760 C   0  0  0  0  0  0  0  0  0  0  0  0
  131.9460  122.0090   62.4330 C   0  0  0  0  0  0  0  0  0  0  0  0
  130.6480  122.2270   61.8890 C   0  0  0  0  0  0  0  0  0  0  0  0
  131.1186  119.5451   61.2491 H   0  0  0  0  0  0  0  0  0  0  0  0
  130.0747  119.5430   59.7873 H   0  0  0  0  0  0  0  0  0  0  0  0
  131.6183  120.4616   59.7873 H   0  0  0  0  0  0  0  0  0  0  0  0
  128.2682  121.0204   59.7157 H   0  0  0  0  0  0  0  0  0  0  0  0
  124.7914  123.7654   61.0840 H   0  0  0  0  0  0  0  0  0  0  0  0
  126.0347  123.7335   62.3936 H   0  0  0  0  0  0  0  0  0  0  0  0
  125.4345  126.0840   61.7607 H   0  0  0  0  0  0  0  0  0  0  0  0
  127.1553  125.7208   61.3956 H   0  0  0  0  0  0  0  0  0  0  0  0
  124.8990  125.6850   59.4340 H   0  0  0  0  0  0  0  0  0  0  0  0
  126.3049  127.8680   60.3349 H   0  0  0  0  0  0  0  0  0  0  0  0
  127.1273  127.4191   58.8023 H   0  0  0  0  0  0  0  0  0  0  0  0
  125.3709  127.7955   58.8023 H   0  0  0  0  0  0  0  0  0  0  0  0
  126.4636  125.1351   57.6719 H   0  0  0  0  0  0  0  0  0  0  0  0
  127.7867  125.1380   58.8843 H   0  0  0  0  0  0  0  0  0  0  0  0
  125.3394  123.2620   58.8885 H   0  0  0  0  0  0  0  0  0  0  0  0
  127.0256  122.8123   58.4195 H   0  0  0  0  0  0  0  0  0  0  0  0
  128.1650  124.3940   62.1690 H   0  0  0  0  0  0  0  0  0  0  0  0
  129.9094  125.1285   63.6466 H   0  0  0  0  0  0  0  0  0  0  0  0
  132.1894  124.6776   64.5523 H   0  0  0  0  0  0  0  0  0  0  0  0
  133.4817  122.7053   63.7846 H   0  0  0  0  0  0  0  0  0  0  0  0
  132.5349  121.1391   62.1067 H   0  0  0  0  0  0  0  0  0  0  0  0
  1  2  1  0
  2  3  2  0
  3  4  1  0
  4  5  1  0
  5  6  1  0
  6  7  1  0
  7  8  1  0
  8  9  1  0
  8 10  1  0
 10 11  1  0
  4 12  2  0
 12 13  1  0
 13 14  2  0
 14 15  1  0
 15 16  2  0
 16 17  1  0
 17 18  2  0
 18  2  1  0
 11  5  1  0
 18 13  1  0
  1 19  1  0
  1 20  1  0
  1 21  1  0
  3 22  1  0
  6 23  1  0
  6 24  1  0
  7 25  1  0
  7 26  1  0
  8 27  1  0
  9 28  1  0
  9 29  1  0
  9 30  1  0
 10 31  1  0
 10 32  1  0
 11 33  1  0
 11 34  1  0
 12 35  1  0
 14 36  1  0
 15 37  1  0
 16 38  1  0
 17 39  1  0
M  CHG  2   8   1  12   1
M  END
>  <Binding energies>  (1) 
[-6.7]

>  <Ligand effiencies>  (1) 
[-0.335]

>  <Interactions>  (1) 
["V-B:PRO:540:C:9849, V-B:ALA:541:CB:9860, V-A:TRP:381:CH2:3367, V-B:TYR:539:C:9835, V-B:TYR:539:CD2:9842, V-A:LEU:475:CD2:4254, V-B:TYR:539:CE2:9844, V-B:GLU:543:CD:9876, V-B:PRO:540:CB:9853, V-B:PRO:540:CA:9851, H-B:GLU:543:OE2:9878, V-B:ASP:366:CG:8180, H-B:ASP:366:OD2:8182, V-B:PRO:540:N:9852"]

$$$$
RR33_Rahimova_2017
     RDKit          3D

 36 37  0  0  0  0  0  0  0  0999 V2000
  126.6120  129.9040   74.6220 C   0  0  0  0  0  0  0  0  0  0  0  0
  128.0150  130.3030   74.1540 C   0  0  0  0  0  0  0  0  0  0  0  0
  128.7570  129.1190   73.8740 O   0  0  0  0  0  0  0  0  0  0  0  0
  128.9920  128.7620   72.5600 C   0  0  0  0  0  0  0  0  0  0  0  0
  127.9800  128.0460   71.9210 C   0  0  0  0  0  0  0  0  0  0  0  0
  128.1280  127.6390   70.5980 C   0  0  0  0  0  0  0  0  0  0  0  0
  129.2960  127.9440   69.8910 C   0  0  0  0  0  0  0  0  0  0  0  0
  129.4540  127.5060   68.4710 C   0  0  0  0  0  0  0  0  0  0  0  0
  130.2880  126.6080   67.9960 N   0  0  0  0  0  0  0  0  0  0  0  0
  130.0550  126.5680   66.6930 C   0  0  0  0  0  0  0  0  0  0  0  0
  130.8260  125.6270   65.7930 C   0  0  0  0  0  0  0  0  0  0  0  0
  132.1290  125.3210   66.3660 N   0  0  0  0  0  0  0  0  0  0  0  0
  133.1660  125.4020   65.3510 C   0  0  0  0  0  0  0  0  0  0  0  0
  129.0490  127.4710   66.3720 C   0  0  0  0  0  0  0  0  0  0  0  0
  128.3450  127.8860   65.1030 C   0  0  0  0  0  0  0  0  0  0  0  0
  128.6660  128.0740   67.5210 O   0  0  0  0  0  0  0  0  0  0  0  0
  130.3110  128.6660   70.5270 C   0  0  0  0  0  0  0  0  0  0  0  0
  130.1630  129.0720   71.8520 C   0  0  0  0  0  0  0  0  0  0  0  0
  126.5809  129.8952   75.7215 H   0  0  0  0  0  0  0  0  0  0  0  0
  125.8781  130.6290   74.2403 H   0  0  0  0  0  0  0  0  0  0  0  0
  126.3695  128.9013   74.2403 H   0  0  0  0  0  0  0  0  0  0  0  0
  127.9411  130.9173   73.2445 H   0  0  0  0  0  0  0  0  0  0  0  0
  128.5204  130.8854   74.9385 H   0  0  0  0  0  0  0  0  0  0  0  0
  127.0571  127.8008   72.4670 H   0  0  0  0  0  0  0  0  0  0  0  0
  127.3223  127.0746   70.1059 H   0  0  0  0  0  0  0  0  0  0  0  0
  130.2560  124.6939   65.6728 H   0  0  0  0  0  0  0  0  0  0  0  0
  130.9734  126.1119   64.8167 H   0  0  0  0  0  0  0  0  0  0  0  0
  132.1140  124.3850   66.7460 H   0  0  0  0  0  0  0  0  0  0  0  0
  134.1497  125.4788   65.8372 H   0  0  0  0  0  0  0  0  0  0  0  0
  133.1365  124.4988   64.7238 H   0  0  0  0  0  0  0  0  0  0  0  0
  132.9966  126.2897   64.7238 H   0  0  0  0  0  0  0  0  0  0  0  0
  127.4228  128.4296   65.3562 H   0  0  0  0  0  0  0  0  0  0  0  0
  129.0056  128.5391   64.5140 H   0  0  0  0  0  0  0  0  0  0  0  0
  128.0934  126.9917   64.5140 H   0  0  0  0  0  0  0  0  0  0  0  0
  131.2313  128.9148   69.9783 H   0  0  0  0  0  0  0  0  0  0  0  0
  130.9675  129.6378   72.3447 H   0  0  0  0  0  0  0  0  0  0  0  0
  1  2  1  0
  2  3  1  0
  3  4  1  0
  4  5  2  0
  5  6  1  0
  6  7  2  0
  7  8  1  0
  8  9  2  0
  9 10  1  0
 10 11  1  0
 11 12  1  0
 12 13  1  0
 10 14  2  0
 14 15  1  0
 14 16  1  0
  7 17  1  0
 17 18  2  0
 18  4  1  0
 16  8  1  0
  1 19  1  0
  1 20  1  0
  1 21  1  0
  2 22  1  0
  2 23  1  0
  5 24  1  0
  6 25  1  0
 11 26  1  0
 11 27  1  0
 12 28  1  0
 13 29  1  0
 13 30  1  0
 13 31  1  0
 15 32  1  0
 15 33  1  0
 15 34  1  0
 17 35  1  0
 18 36  1  0
M  END
>  <Binding energies>  (1) 
[-5.31]

>  <Ligand effiencies>  (1) 
[-0.2794736842105263]

>  <Interactions>  (1) 
["V-A:HIS:456:CE1:4064, H-B:LYS:547:NZ:9919, V-B:HIS:456:CE1:9037, V-B:GLU:543:CD:9876, H-A:TYR:484:OH:4343, V-A:ARG:545:CZ:4921, H-A:HIS:456:NE2:4065, V-A:GLY:544:C:4907, V-A:GLU:543:C:4897, V-B:HIS:456:CD2:9035, H-A:LYS:547:NZ:4946, V-B:HIS:456:CB:9032, V-A:ARG:545:CD:4918"]

$$$$
RR33_Rahimova_2017-again1
     RDKit          3D

 37 38  0  0  0  0  0  0  0  0999 V2000
  134.9520  125.0020   66.4060 C   0  0  0  0  0  0  0  0  0  0  0  0
  133.8310  125.3330   65.4170 C   0  0  0  0  0  0  0  0  0  0  0  0
  133.9760  124.5090   64.2650 O   0  0  0  0  0  0  0  0  0  0  0  0
  132.8800  124.2710   63.4580 C   0  0  0  0  0  0  0  0  0  0  0  0
  132.4150  125.3510   62.7060 C   0  0  0  0  0  0  0  0  0  0  0  0
  131.3160  125.2080   61.8630 C   0  0  0  0  0  0  0  0  0  0  0  0
  130.6630  123.9760   61.7610 C   0  0  0  0  0  0  0  0  0  0  0  0
  129.4830  123.8180   60.8560 C   0  0  0  0  0  0  0  0  0  0  0  0
  128.2300  124.1240   61.1100 N   0  0  0  0  0  0  0  0  0  0  0  0
  127.5600  123.8080   60.0120 C   0  0  0  0  0  0  0  0  0  0  0  0
  126.0590  124.0100   59.9230 C   0  0  0  0  0  0  0  0  0  0  0  0
  125.5400  124.5250   61.2750 N   0  0  0  0  0  0  0  0  0  0  0  0
  124.6520  123.5160   62.0170 C   0  0  0  0  0  0  0  0  0  0  0  0
  128.4370  123.2870   59.0680 C   0  0  0  0  0  0  0  0  0  0  0  0
  128.3090  122.7520   57.6630 C   0  0  0  0  0  0  0  0  0  0  0  0
  129.6740  123.2980   59.6160 O   0  0  0  0  0  0  0  0  0  0  0  0
  131.1260  122.8900   62.5120 C   0  0  0  0  0  0  0  0  0  0  0  0
  132.2250  123.0350   63.3540 C   0  0  0  0  0  0  0  0  0  0  0  0
  134.5780  125.1124   67.4345 H   0  0  0  0  0  0  0  0  0  0  0  0
  135.2873  123.9665   66.2470 H   0  0  0  0  0  0  0  0  0  0  0  0
  135.7960  125.6893   66.2470 H   0  0  0  0  0  0  0  0  0  0  0  0
  132.8551  125.1422   65.8873 H   0  0  0  0  0  0  0  0  0  0  0  0
  133.8892  126.3927   65.1277 H   0  0  0  0  0  0  0  0  0  0  0  0
  132.9216  126.3246   62.7800 H   0  0  0  0  0  0  0  0  0  0  0  0
  130.9604  126.0672   61.2754 H   0  0  0  0  0  0  0  0  0  0  0  0
  125.8322  124.7454   59.1370 H   0  0  0  0  0  0  0  0  0  0  0  0
  125.5704  123.0555   59.6776 H   0  0  0  0  0  0  0  0  0  0  0  0
  126.3290  124.7590   61.8600 H   0  0  0  0  0  0  0  0  0  0  0  0
  125.0100  125.3700   61.1150 H   0  0  0  0  0  0  0  0  0  0  0  0
  124.7711  123.6513   63.1021 H   0  0  0  0  0  0  0  0  0  0  0  0
  123.6001  123.6803   61.7402 H   0  0  0  0  0  0  0  0  0  0  0  0
  124.9486  122.4935   61.7402 H   0  0  0  0  0  0  0  0  0  0  0  0
  128.0532  121.6828   57.6997 H   0  0  0  0  0  0  0  0  0  0  0  0
  127.5168  123.3006   57.1325 H   0  0  0  0  0  0  0  0  0  0  0  0
  129.2637  122.8826   57.1325 H   0  0  0  0  0  0  0  0  0  0  0  0
  130.6190  121.9167   62.4367 H   0  0  0  0  0  0  0  0  0  0  0  0
  132.5817  122.1757   63.9409 H   0  0  0  0  0  0  0  0  0  0  0  0
  1  2  1  0
  2  3  1  0
  3  4  1  0
  4  5  2  0
  5  6  1  0
  6  7  2  0
  7  8  1  0
  8  9  2  0
  9 10  1  0
 10 11  1  0
 11 12  1  0
 12 13  1  0
 10 14  2  0
 14 15  1  0
 14 16  1  0
  7 17  1  0
 17 18  2  0
 18  4  1  0
 16  8  1  0
  1 19  1  0
  1 20  1  0
  1 21  1  0
  2 22  1  0
  2 23  1  0
  5 24  1  0
  6 25  1  0
 11 26  1  0
 11 27  1  0
 12 28  1  0
 12 29  1  0
 13 30  1  0
 13 31  1  0
 13 32  1  0
 15 33  1  0
 15 34  1  0
 15 35  1  0
 17 36  1  0
 18 37  1  0
M  CHG  1  12   1
M  END
>  <Binding energies>  (1) 
[-5.74]

>  <Ligand effiencies>  (1) 
[-0.28700000000000003]

>  <Interactions>  (1) 
["V-B:TYR:539:C:9835, V-A:ASP:366:CG:3208, V-B:GLU:543:CD:9876, H-A:TYR:484:OH:4343, H-A:GLY:454:N:4045, V-A:GLY:454:CA:4044, V-B:ASN:362:CB:8143, V-A:ARG:545:CZ:4921, V-B:PRO:540:CB:9853, V-B:PRO:540:CA:9851, H-B:GLU:543:OE2:9878, H-B:GLU:543:OE1:9877, V-A:ARG:545:CD:4918, V-A:GLY:453:CA:4039, V-A:ARG:545:CG:4917, V-A:HIS:456:CD2:4063, V-A:GLY:453:C:4037, H-B:ASP:366:OD2:8182"]

$$$$
RR3_Rahimova_2017
     RDKit          3D

 63 69  0  0  0  0  0  0  0  0999 V2000
  130.2670  118.5980   60.9560 C   0  0  0  0  0  0  0  0  0  0  0  0
  131.5040  119.2010   60.7550 C   0  0  0  0  0  0  0  0  0  0  0  0
  131.5960  120.5890   60.7160 C   0  0  0  0  0  0  0  0  0  0  0  0
  130.4570  121.3910   60.8760 C   0  0  0  0  0  0  0  0  0  0  0  0
  130.5580  122.8840   60.8350 C   0  0  0  0  0  0  0  0  0  0  0  0
  131.5690  123.5180   60.1010 C   0  0  0  0  0  0  0  0  0  0  0  0
  131.6650  124.9060   60.0650 C   0  0  0  0  0  0  0  0  0  0  0  0
  130.7530  125.6940   60.7710 C   0  0  0  0  0  0  0  0  0  0  0  0
  130.8530  127.1870   60.7420 C   0  0  0  0  0  0  0  0  0  0  0  0
  131.3470  127.7990   59.6710 N   0  0  0  0  0  0  0  0  0  0  0  0
  131.2720  129.0870   59.9070 C   0  0  0  0  0  0  0  0  0  0  0  0
  131.7080  130.1370   58.9910 C   0  0  0  0  0  0  0  0  0  0  0  0
  133.0200  130.5030   58.7420 C   0  0  0  0  0  0  0  0  0  0  0  0
  133.0620  131.5170   57.8220 N   0  0  0  0  0  0  0  0  0  0  0  0
  131.7830  131.8540   57.4370 C   0  0  0  0  0  0  0  0  0  0  0  0
  131.3260  132.8190   56.5320 C   0  0  0  0  0  0  0  0  0  0  0  0
  129.9460  132.9190   56.3580 C   0  0  0  0  0  0  0  0  0  0  0  0
  129.0580  132.1020   57.0480 C   0  0  0  0  0  0  0  0  0  0  0  0
  129.5130  131.1410   57.9490 C   0  0  0  0  0  0  0  0  0  0  0  0
  130.8960  130.9980   58.1620 C   0  0  0  0  0  0  0  0  0  0  0  0
  130.7330  129.3270   61.1410 N   0  0  0  0  0  0  0  0  0  0  0  0
  130.4680  128.1150   61.7250 C   0  0  0  0  0  0  0  0  0  0  0  0
  129.9260  127.9840   63.1100 C   0  0  0  0  0  0  0  0  0  0  0  0
  130.3750  126.9590   63.9440 C   0  0  0  0  0  0  0  0  0  0  0  0
  129.8630  126.8260   65.2300 C   0  0  0  0  0  0  0  0  0  0  0  0
  128.8930  127.7150   65.7150 C   0  0  0  0  0  0  0  0  0  0  0  0
  128.3290  127.5570   67.0920 C   0  0  0  0  0  0  0  0  0  0  0  0
  126.9680  127.2750   67.2850 C   0  0  0  0  0  0  0  0  0  0  0  0
  126.4450  127.1230   68.5670 C   0  0  0  0  0  0  0  0  0  0  0  0
  127.2800  127.2520   69.6730 C   0  0  0  0  0  0  0  0  0  0  0  0
  128.6320  127.5300   69.5050 C   0  0  0  0  0  0  0  0  0  0  0  0
  129.1520  127.6820   68.2220 C   0  0  0  0  0  0  0  0  0  0  0  0
  128.4620  128.7500   64.8740 C   0  0  0  0  0  0  0  0  0  0  0  0
  128.9730  128.8870   63.5860 C   0  0  0  0  0  0  0  0  0  0  0  0
  129.7330  125.0730   61.4950 C   0  0  0  0  0  0  0  0  0  0  0  0
  129.6400  123.6840   61.5290 C   0  0  0  0  0  0  0  0  0  0  0  0
  129.2200  120.7610   61.0760 C   0  0  0  0  0  0  0  0  0  0  0  0
  129.1230  119.3730   61.1170 C   0  0  0  0  0  0  0  0  0  0  0  0
  130.1927  117.5010   60.9879 H   0  0  0  0  0  0  0  0  0  0  0  0
  132.4055  118.5837   60.6274 H   0  0  0  0  0  0  0  0  0  0  0  0
  132.5757  121.0635   60.5575 H   0  0  0  0  0  0  0  0  0  0  0  0
  132.2976  122.9098   59.5450 H   0  0  0  0  0  0  0  0  0  0  0  0
  132.4627  125.3846   59.4779 H   0  0  0  0  0  0  0  0  0  0  0  0
  133.9015  130.0454   59.2148 H   0  0  0  0  0  0  0  0  0  0  0  0
  133.9290  131.9250   57.5030 H   0  0  0  0  0  0  0  0  0  0  0  0
  132.0235  133.4688   55.9831 H   0  0  0  0  0  0  0  0  0  0  0  0
  129.5489  133.6657   55.6547 H   0  0  0  0  0  0  0  0  0  0  0  0
  127.9769  132.2160   56.8799 H   0  0  0  0  0  0  0  0  0  0  0  0
  128.7984  130.5013   58.4877 H   0  0  0  0  0  0  0  0  0  0  0  0
  130.5840  130.2340   61.5590 H   0  0  0  0  0  0  0  0  0  0  0  0
  131.1373  126.2532   63.5824 H   0  0  0  0  0  0  0  0  0  0  0  0
  130.2239  126.0120   65.8759 H   0  0  0  0  0  0  0  0  0  0  0  0
  126.3057  127.1727   66.4127 H   0  0  0  0  0  0  0  0  0  0  0  0
  125.3763  126.9019   68.7048 H   0  0  0  0  0  0  0  0  0  0  0  0
  126.8679  127.1333   70.6860 H   0  0  0  0  0  0  0  0  0  0  0  0
  129.2883  127.6295   70.3821 H   0  0  0  0  0  0  0  0  0  0  0  0
  130.2218  127.9029   68.0926 H   0  0  0  0  0  0  0  0  0  0  0  0
  127.7088  129.4648   65.2369 H   0  0  0  0  0  0  0  0  0  0  0  0
  128.6253  129.7082   62.9421 H   0  0  0  0  0  0  0  0  0  0  0  0
  128.9994  125.6841   62.0412 H   0  0  0  0  0  0  0  0  0  0  0  0
  128.8351  123.2082   62.1084 H   0  0  0  0  0  0  0  0  0  0  0  0
  128.3141  121.3721   61.2022 H   0  0  0  0  0  0  0  0  0  0  0  0
  128.1468  118.8915   61.2759 H   0  0  0  0  0  0  0  0  0  0  0  0
  1  2  2  0
  2  3  1  0
  3  4  2  0
  4  5  1  0
  5  6  2  0
  6  7  1  0
  7  8  2  0
  8  9  1  0
  9 10  1  0
 10 11  2  0
 11 12  1  0
 12 13  2  0
 13 14  1  0
 14 15  1  0
 15 16  2  0
 16 17  1  0
 17 18  2  0
 18 19  1  0
 19 20  2  0
 11 21  1  0
 21 22  1  0
 22 23  1  0
 23 24  2  0
 24 25  1  0
 25 26  2  0
 26 27  1  0
 27 28  2  0
 28 29  1  0
 29 30  2  0
 30 31  1  0
 31 32  2  0
 26 33  1  0
 33 34  2  0
  8 35  1  0
 35 36  2  0
  4 37  1  0
 37 38  2  0
 38  1  1  0
 36  5  1  0
 22  9  2  0
 34 23  1  0
 20 12  1  0
 32 27  1  0
 20 15  1  0
  1 39  1  0
  2 40  1  0
  3 41  1  0
  6 42  1  0
  7 43  1  0
 13 44  1  0
 14 45  1  0
 16 46  1  0
 17 47  1  0
 18 48  1  0
 19 49  1  0
 21 50  1  0
 24 51  1  0
 25 52  1  0
 28 53  1  0
 29 54  1  0
 30 55  1  0
 31 56  1  0
 32 57  1  0
 33 58  1  0
 34 59  1  0
 35 60  1  0
 36 61  1  0
 37 62  1  0
 38 63  1  0
M  END
>  <Binding energies>  (1) 
[-8.8]

>  <Ligand effiencies>  (1) 
[-0.22000000000000003]

>  <Interactions>  (1) 
["V-B:PRO:540:C:9849, V-B:GLU:543:CG:9875, V-A:TRP:381:CZ3:3366, V-A:PRO:482:CG:4322, V-A:TRP:381:CZ2:3365, V-B:ALA:541:CB:9860, V-B:GLU:543:CB:9874, V-B:ALA:541:CA:9858, V-A:TRP:381:CH2:3367, V-B:TYR:539:C:9835, V-B:TYR:539:CD2:9842, V-A:LEU:475:CD2:4254, V-A:TRP:381:CE2:3362, V-A:PRO:482:CB:4321, V-A:ASP:366:CG:3208, V-B:HIS:456:CE1:9037, V-A:GLU:543:CG:4902, V-B:GLU:543:C:9870, V-A:GLU:543:CD:4903, V-B:GLU:543:CD:9876, H-A:GLU:543:OE2:4905, V-B:ARG:545:CG:9890, V-A:PRO:540:CA:4878, V-A:TYR:539:C:4862, V-A:PRO:540:N:4879, V-A:LEU:363:CD1:3184, V-A:LEU:363:CA:3180, H-A:TYR:531:OH:4790, V-A:PRO:540:CB:4880, V-B:GLY:544:C:9880, V-A:TYR:539:CZ:4872, V-A:TYR:539:CE1:4870, V-A:TYR:539:CD1:4868, V-A:PRO:540:CD:4882, V-A:PRO:540:CG:4881"]

$$$$
RR4_Rahimova_2017
     RDKit          3D

 66 70  0  0  0  0  0  0  0  0999 V2000
  128.0210  129.5870   74.8260 C   0  0  0  0  0  0  0  0  0  0  0  0
  129.1170  128.8990   74.2340 O   0  0  0  0  0  0  0  0  0  0  0  0
  129.1490  128.7360   72.8620 C   0  0  0  0  0  0  0  0  0  0  0  0
  127.9580  128.3490   72.2510 C   0  0  0  0  0  0  0  0  0  0  0  0
  127.8950  128.1620   70.8740 C   0  0  0  0  0  0  0  0  0  0  0  0
  129.0250  128.3530   70.0650 C   0  0  0  0  0  0  0  0  0  0  0  0
  128.9540  128.1490   68.5790 C   0  0  0  0  0  0  0  0  0  0  0  0
  127.9780  128.7490   67.7770 C   0  0  0  0  0  0  0  0  0  0  0  0
  127.9560  128.5300   66.3940 C   0  0  0  0  0  0  0  0  0  0  0  0
  126.9010  129.2270   65.5990 C   0  0  0  0  0  0  0  0  0  0  0  0
  125.5500  129.0280   65.8980 C   0  0  0  0  0  0  0  0  0  0  0  0
  124.5600  129.6820   65.1700 C   0  0  0  0  0  0  0  0  0  0  0  0
  124.9000  130.5520   64.1350 C   0  0  0  0  0  0  0  0  0  0  0  0
  123.8510  131.1570   63.4680 O   0  0  0  0  0  0  0  0  0  0  0  0
  124.1090  132.3040   62.6640 C   0  0  0  0  0  0  0  0  0  0  0  0
  126.2550  130.7600   63.8340 C   0  0  0  0  0  0  0  0  0  0  0  0
  127.2430  130.1040   64.5640 C   0  0  0  0  0  0  0  0  0  0  0  0
  128.9280  127.6660   65.8320 C   0  0  0  0  0  0  0  0  0  0  0  0
  128.9510  127.4040   64.3900 C   0  0  0  0  0  0  0  0  0  0  0  0
  128.9700  127.1970   63.2510 N   0  0  0  0  0  0  0  0  0  0  0  0
  129.8670  127.0700   66.7040 C   0  0  0  0  0  0  0  0  0  0  0  0
  131.1470  125.9520   66.1760 S   0  0  0  0  0  0  0  0  0  0  0  0
  130.3530  124.3790   65.7060 C   0  0  0  0  0  0  0  0  0  0  0  0
  130.7410  123.8600   64.3150 C   0  0  0  0  0  0  0  0  0  0  0  0
  131.0020  122.6670   64.1410 O   0  0  0  0  0  0  0  0  0  0  0  0
  130.7820  124.8060   63.3480 N   0  0  0  0  0  0  0  0  0  0  0  0
  131.0950  124.6530   61.9950 C   0  0  0  0  0  0  0  0  0  0  0  0
  129.9290  124.8820   60.7190 S   0  0  0  0  0  0  0  0  0  0  0  0
  131.1070  124.5070   59.4990 C   0  0  0  0  0  0  0  0  0  0  0  0
  132.3580  124.2110   60.0630 C   0  0  0  0  0  0  0  0  0  0  0  0
  132.3530  124.3100   61.4760 C   0  0  0  0  0  0  0  0  0  0  0  0
  133.5320  124.0710   62.3020 C   0  0  0  0  0  0  0  0  0  0  0  0
  134.4670  123.8800   62.9570 N   0  0  0  0  0  0  0  0  0  0  0  0
  133.5750  123.8850   59.1890 C   0  0  0  0  0  0  0  0  0  0  0  0
  133.3270  124.3180   57.7260 C   0  0  0  0  0  0  0  0  0  0  0  0
  131.9380  123.8900   57.2210 C   0  0  0  0  0  0  0  0  0  0  0  0
  130.8000  124.5730   58.0090 C   0  0  0  0  0  0  0  0  0  0  0  0
  129.8850  127.3240   68.0340 N   0  0  0  0  0  0  0  0  0  0  0  0
  130.2200  128.7460   70.6900 C   0  0  0  0  0  0  0  0  0  0  0  0
  130.2860  128.9340   72.0670 C   0  0  0  0  0  0  0  0  0  0  0  0
  128.1040  129.5349   75.9216 H   0  0  0  0  0  0  0  0  0  0  0  0
  128.0334  130.6397   74.5070 H   0  0  0  0  0  0  0  0  0  0  0  0
  127.0784  129.1183   74.5070 H   0  0  0  0  0  0  0  0  0  0  0  0
  127.0585  128.1897   72.8638 H   0  0  0  0  0  0  0  0  0  0  0  0
  126.9437  127.8595   70.4120 H   0  0  0  0  0  0  0  0  0  0  0  0
  127.2198  129.3996   68.2372 H   0  0  0  0  0  0  0  0  0  0  0  0
  125.2668  128.3488   66.7156 H   0  0  0  0  0  0  0  0  0  0  0  0
  123.5010  129.5110   65.4133 H   0  0  0  0  0  0  0  0  0  0  0  0
  124.3039  133.1704   63.3131 H   0  0  0  0  0  0  0  0  0  0  0  0
  124.9874  132.1166   62.0290 H   0  0  0  0  0  0  0  0  0  0  0  0
  123.2349  132.5108   62.0290 H   0  0  0  0  0  0  0  0  0  0  0  0
  126.5373  131.4430   63.0193 H   0  0  0  0  0  0  0  0  0  0  0  0
  128.3026  130.2771   64.3245 H   0  0  0  0  0  0  0  0  0  0  0  0
  130.6347  123.6171   66.4477 H   0  0  0  0  0  0  0  0  0  0  0  0
  129.2704  124.5719   65.6767 H   0  0  0  0  0  0  0  0  0  0  0  0
  130.5450  125.7470   63.6260 H   0  0  0  0  0  0  0  0  0  0  0  0
  134.4539  124.4187   59.5798 H   0  0  0  0  0  0  0  0  0  0  0  0
  133.7473  122.7988   59.2126 H   0  0  0  0  0  0  0  0  0  0  0  0
  133.4050  125.4134   57.6626 H   0  0  0  0  0  0  0  0  0  0  0  0
  134.0821  123.8259   57.0954 H   0  0  0  0  0  0  0  0  0  0  0  0
  131.8471  124.1616   56.1589 H   0  0  0  0  0  0  0  0  0  0  0  0
  131.8449  122.8032   57.3634 H   0  0  0  0  0  0  0  0  0  0  0  0
  130.7175  125.6247   57.6974 H   0  0  0  0  0  0  0  0  0  0  0  0
  129.8505  124.0561   57.8060 H   0  0  0  0  0  0  0  0  0  0  0  0
  131.1205  128.9082   70.0794 H   0  0  0  0  0  0  0  0  0  0  0  0
  131.2343  129.2392   72.5335 H   0  0  0  0  0  0  0  0  0  0  0  0
  1  2  1  0
  2  3  1  0
  3  4  2  0
  4  5  1  0
  5  6  2  0
  6  7  1  0
  7  8  2  0
  8  9  1  0
  9 10  1  0
 10 11  2  0
 11 12  1  0
 12 13  2  0
 13 14  1  0
 14 15  1  0
 13 16  1  0
 16 17  2  0
  9 18  2  0
 18 19  1  0
 19 20  3  0
 18 21  1  0
 21 22  1  0
 22 23  1  0
 23 24  1  0
 24 25  2  0
 24 26  1  0
 26 27  1  0
 27 28  1  0
 28 29  1  0
 29 30  2  0
 30 31  1  0
 31 32  1  0
 32 33  3  0
 30 34  1  0
 34 35  1  0
 35 36  1  0
 36 37  1  0
 21 38  2  0
  6 39  1  0
 39 40  2  0
 40  3  1  0
 38  7  1  0
 17 10  1  0
 31 27  2  0
 37 29  1  0
  1 41  1  0
  1 42  1  0
  1 43  1  0
  4 44  1  0
  5 45  1  0
  8 46  1  0
 11 47  1  0
 12 48  1  0
 15 49  1  0
 15 50  1  0
 15 51  1  0
 16 52  1  0
 17 53  1  0
 23 54  1  0
 23 55  1  0
 26 56  1  0
 34 57  1  0
 34 58  1  0
 35 59  1  0
 35 60  1  0
 36 61  1  0
 36 62  1  0
 37 63  1  0
 37 64  1  0
 39 65  1  0
 40 66  1  0
M  END
>  <Binding energies>  (1) 
[-9.93]

>  <Ligand effiencies>  (1) 
[-0.2421951219512195]

>  <Interactions>  (1) 
["V-B:GLU:543:CG:9875, V-A:HIS:456:CE1:4064, H-B:LYS:547:NZ:9919, V-B:TYR:539:CE2:9844, V-A:ILE:369:CD1:3234, V-B:TYR:539:CZ:9845, V-A:ASP:366:CA:3205, V-A:ASP:366:CG:3208, V-B:HIS:456:CE1:9037, V-A:ASP:366:CB:3207, V-A:ASP:366:C:3203, V-A:TYR:484:CZ:4342, V-A:TYR:484:CE1:4340, V-A:GLU:543:CD:4903, V-B:GLU:543:CD:9876, H-A:TYR:484:OH:4343, H-A:GLY:454:N:4045, H-A:HIS:456:NE2:4065, V-B:ARG:545:CG:9890, V-A:GLY:544:C:4907, V-A:GLU:543:C:4897, V-A:LYS:547:CE:4945, V-B:HIS:456:CD2:9035, V-B:HIS:456:CG:9033, V-B:ARG:545:CD:9891, V-A:TYR:531:CZ:4789, H-A:LYS:547:NZ:4946, H-B:GLU:543:OE2:9878, V-B:ARG:545:CZ:9894, V-B:LEU:475:CD2:9226, V-B:ILE:369:CD1:8206, H-B:GLY:454:N:9017"]

$$$$
RR5_Rahimova_2017
     RDKit          3D

 77 82  0  0  0  0  0  0  0  0999 V2000
  129.9960  122.3690   62.9670 O   0  0  0  0  0  0  0  0  0  0  0  0
  130.2300  123.4700   62.4710 C   0  0  0  0  0  0  0  0  0  0  0  0
  130.5180  124.6750   63.3870 C   0  0  0  0  0  0  0  0  0  0  0  0
  131.6670  124.4250   64.4280 C   0  0  2  0  0  0  0  0  0  0  0  0
  131.3180  124.7350   65.8290 N   0  0  0  0  0  0  0  0  0  0  0  0
  130.6600  125.9080   66.1710 C   0  0  0  0  0  0  0  0  0  0  0  0
  130.2560  126.7790   65.3970 O   0  0  0  0  0  0  0  0  0  0  0  0
  130.5430  125.9530   67.5100 O   0  0  0  0  0  0  0  0  0  0  0  0
  129.4120  125.3980   68.1760 C   0  0  0  0  0  0  0  0  0  0  0  0
  128.5210  126.5130   68.7660 C   0  0  0  0  0  0  0  0  0  0  0  0
  129.0700  127.1170   70.0460 C   0  0  0  0  0  0  0  0  0  0  0  0
  129.3860  126.4960   71.2590 C   0  0  0  0  0  0  0  0  0  0  0  0
  129.9070  127.2510   72.3110 C   0  0  0  0  0  0  0  0  0  0  0  0
  130.1100  128.6240   72.1560 C   0  0  0  0  0  0  0  0  0  0  0  0
  129.7930  129.2460   70.9470 C   0  0  0  0  0  0  0  0  0  0  0  0
  129.2720  128.4890   69.8960 C   0  0  0  0  0  0  0  0  0  0  0  0
  128.8480  128.8760   68.5410 C   0  0  0  0  0  0  0  0  0  0  0  0
  128.8330  130.1190   67.9030 C   0  0  0  0  0  0  0  0  0  0  0  0
  128.3510  130.2170   66.5970 C   0  0  0  0  0  0  0  0  0  0  0  0
  127.8900  129.0790   65.9320 C   0  0  0  0  0  0  0  0  0  0  0  0
  127.9110  127.8400   66.5720 C   0  0  0  0  0  0  0  0  0  0  0  0
  128.3950  127.7360   67.8780 C   0  0  0  0  0  0  0  0  0  0  0  0
  132.9500  125.1950   64.0270 C   0  0  0  0  0  0  0  0  0  0  0  0
  134.0570  124.7030   63.9480 O   0  0  0  0  0  0  0  0  0  0  0  0
  132.6380  126.4980   63.7590 O   0  0  0  0  0  0  0  0  0  0  0  0
  130.2890  123.7220   61.1440 N   0  0  0  0  0  0  0  0  0  0  0  0
  130.0890  122.8770   59.9280 C   0  0  0  0  0  0  0  0  0  0  0  0
  131.2220  123.3950   58.9790 C   0  0  0  0  0  0  0  0  0  0  0  0
  132.5670  123.4080   59.3830 C   0  0  0  0  0  0  0  0  0  0  0  0
  133.5670  123.8690   58.5310 C   0  0  0  0  0  0  0  0  0  0  0  0
  133.2360  124.3360   57.2630 C   0  0  0  0  0  0  0  0  0  0  0  0
  131.9130  124.3340   56.8370 C   0  0  0  0  0  0  0  0  0  0  0  0
  130.9160  123.8630   57.6860 C   0  0  0  0  0  0  0  0  0  0  0  0
  130.2970  121.3860   60.3560 C   0  0  0  0  0  0  0  0  0  0  0  0
  131.5620  120.7780   60.3220 C   0  0  0  0  0  0  0  0  0  0  0  0
  131.7210  119.4430   60.6880 C   0  0  0  0  0  0  0  0  0  0  0  0
  130.6160  118.7000   61.0910 C   0  0  0  0  0  0  0  0  0  0  0  0
  129.3540  119.2810   61.1360 C   0  0  0  0  0  0  0  0  0  0  0  0
  129.1980  120.6160   60.7780 C   0  0  0  0  0  0  0  0  0  0  0  0
  128.6530  123.2110   59.3990 C   0  0  0  0  0  0  0  0  0  0  0  0
  128.2130  122.7350   58.1500 C   0  0  0  0  0  0  0  0  0  0  0  0
  126.9400  123.0350   57.6720 C   0  0  0  0  0  0  0  0  0  0  0  0
  126.0800  123.8120   58.4380 C   0  0  0  0  0  0  0  0  0  0  0  0
  126.4810  124.2850   59.6820 C   0  0  0  0  0  0  0  0  0  0  0  0
  127.7540  123.9830   60.1570 C   0  0  0  0  0  0  0  0  0  0  0  0
  130.8031  125.5293   62.7555 H   0  0  0  0  0  0  0  0  0  0  0  0
  129.6006  124.8628   63.9642 H   0  0  0  0  0  0  0  0  0  0  0  0
  131.8421  123.3396   64.3942 H   0  0  0  0  0  0  0  0  0  0  0  0
  131.7190  124.1650   66.5590 H   0  0  0  0  0  0  0  0  0  0  0  0
  128.8236  124.8087   67.4573 H   0  0  0  0  0  0  0  0  0  0  0  0
  129.7658  124.7578   68.9975 H   0  0  0  0  0  0  0  0  0  0  0  0
  127.5704  125.9771   68.9042 H   0  0  0  0  0  0  0  0  0  0  0  0
  129.2243  125.4151   71.3835 H   0  0  0  0  0  0  0  0  0  0  0  0
  130.1583  126.7634   73.2645 H   0  0  0  0  0  0  0  0  0  0  0  0
  130.5201  129.2160   72.9874 H   0  0  0  0  0  0  0  0  0  0  0  0
  129.9529  130.3272   70.8231 H   0  0  0  0  0  0  0  0  0  0  0  0
  129.1987  131.0145   68.4267 H   0  0  0  0  0  0  0  0  0  0  0  0
  128.3342  131.1931   66.0902 H   0  0  0  0  0  0  0  0  0  0  0  0
  127.5101  129.1598   64.9029 H   0  0  0  0  0  0  0  0  0  0  0  0
  127.5462  126.9443   66.0479 H   0  0  0  0  0  0  0  0  0  0  0  0
  132.2220  126.9330   64.5060 H   0  0  0  0  0  0  0  0  0  0  0  0
  130.3950  124.6990   60.9140 H   0  0  0  0  0  0  0  0  0  0  0  0
  132.8344  123.0486   60.3876 H   0  0  0  0  0  0  0  0  0  0  0  0
  134.6167  123.8640   58.8598 H   0  0  0  0  0  0  0  0  0  0  0  0
  134.0256  124.7088   56.5940 H   0  0  0  0  0  0  0  0  0  0  0  0
  131.6552  124.7030   55.8333 H   0  0  0  0  0  0  0  0  0  0  0  0
  129.8713  123.8560   57.3416 H   0  0  0  0  0  0  0  0  0  0  0  0
  132.4376  121.3622   60.0028 H   0  0  0  0  0  0  0  0  0  0  0  0
  132.7174  118.9779   60.6584 H   0  0  0  0  0  0  0  0  0  0  0  0
  130.7419  117.6451   61.3761 H   0  0  0  0  0  0  0  0  0  0  0  0
  128.4833  118.6882   61.4530 H   0  0  0  0  0  0  0  0  0  0  0  0
  128.2002  121.0766   60.8256 H   0  0  0  0  0  0  0  0  0  0  0  0
  128.8867  122.1149   57.5404 H   0  0  0  0  0  0  0  0  0  0  0  0
  126.6162  122.6579   56.6907 H   0  0  0  0  0  0  0  0  0  0  0  0
  125.0765  124.0542   58.0581 H   0  0  0  0  0  0  0  0  0  0  0  0
  125.7954  124.8952   60.2883 H   0  0  0  0  0  0  0  0  0  0  0  0
  128.0632  124.3554   61.1448 H   0  0  0  0  0  0  0  0  0  0  0  0
  1  2  2  0
  2  3  1  0
  3  4  1  0
  4  5  1  0
  5  6  1  0
  6  7  2  0
  6  8  1  0
  8  9  1  0
  9 10  1  0
 10 11  1  0
 11 12  2  0
 12 13  1  0
 13 14  2  0
 14 15  1  0
 15 16  2  0
 16 17  1  0
 17 18  2  0
 18 19  1  0
 19 20  2  0
 20 21  1  0
 21 22  2  0
  4 23  1  0
 23 24  2  0
 23 25  1  0
  2 26  1  0
 26 27  1  0
 27 28  1  0
 28 29  2  0
 29 30  1  0
 30 31  2  0
 31 32  1  0
 32 33  2  0
 27 34  1  0
 34 35  2  0
 35 36  1  0
 36 37  2  0
 37 38  1  0
 38 39  2  0
 27 40  1  0
 40 41  2  0
 41 42  1  0
 42 43  2  0
 43 44  1  0
 44 45  2  0
 22 10  1  0
 33 28  1  0
 39 34  1  0
 45 40  1  0
 16 11  1  0
 22 17  1  0
  3 46  1  0
  3 47  1  0
  4 48  1  1
  5 49  1  0
  9 50  1  0
  9 51  1  0
 10 52  1  0
 12 53  1  0
 13 54  1  0
 14 55  1  0
 15 56  1  0
 18 57  1  0
 19 58  1  0
 20 59  1  0
 21 60  1  0
 25 61  1  0
 26 62  1  0
 29 63  1  0
 30 64  1  0
 31 65  1  0
 32 66  1  0
 33 67  1  0
 35 68  1  0
 36 69  1  0
 37 70  1  0
 38 71  1  0
 39 72  1  0
 41 73  1  0
 42 74  1  0
 43 75  1  0
 44 76  1  0
 45 77  1  0
M  END
>  <Binding energies>  (1) 
[-11.09]

>  <Ligand effiencies>  (1) 
[-0.23104166666666667]

>  <Interactions>  (1) 
["V-B:PRO:540:C:9849, V-B:GLU:543:CG:9875, V-A:TRP:381:CZ3:3366, V-A:HIS:456:CE1:4064, V-A:TRP:381:CZ2:3365, V-B:ALA:541:CB:9860, V-B:GLU:543:CB:9874, V-B:ALA:541:CA:9858, V-A:TRP:381:CH2:3367, V-B:TYR:539:C:9835, V-B:TYR:539:CD2:9842, V-A:LEU:475:CD2:4254, V-A:TRP:381:CE2:3362, V-A:GLU:543:CB:4901, V-A:PRO:482:CB:4321, V-B:TYR:539:CE2:9844, V-A:ILE:369:CD1:3234, V-B:TYR:539:CZ:9845, V-A:ASP:366:CA:3205, V-A:ASP:366:CG:3208, V-B:HIS:456:CE1:9037, V-A:ASP:366:CB:3207, V-A:ASP:366:C:3203, V-A:TYR:484:CZ:4342, V-A:GLU:543:CG:4902, V-B:GLU:543:C:9870, V-A:TYR:484:CE1:4340, V-B:GLU:543:CA:9872, V-A:GLU:543:CD:4903, H-A:TYR:484:OH:4343, H-A:ARG:545:NE:4919, H-A:ARG:545:NH2:4923, H-A:GLY:454:N:4045, V-A:ARG:545:CZ:4921, V-B:PRO:540:CB:9853, V-B:PRO:540:CA:9851, H-A:GLU:543:OE2:4905, H-A:HIS:456:NE2:4065, H-A:GLU:543:OE1:4904, V-A:GLU:543:C:4897, V-A:LYS:547:CE:4945, V-B:HIS:456:CD2:9035, V-B:TYR:484:CE1:9312, V-B:TYR:484:CZ:9314, V-A:TYR:531:CZ:4789, V-B:PRO:540:N:9852, V-A:TYR:531:CE1:4787, V-A:GLU:543:CA:4899"]

$$$$
RR5_Rahimova_2017-again1
     RDKit          3D

 76 81  0  0  0  0  0  0  0  0999 V2000
  130.2860  126.1920   60.6350 O   0  0  0  0  0  0  0  0  0  0  0  0
  130.8350  125.4240   61.4250 C   0  0  0  0  0  0  0  0  0  0  0  0
  131.3650  125.9840   62.7610 C   0  0  0  0  0  0  0  0  0  0  0  0
  131.6800  124.9430   63.8840 C   0  0  2  0  0  0  0  0  0  0  0  0
  131.3680  125.5400   65.1990 N   0  0  0  0  0  0  0  0  0  0  0  0
  130.5180  124.9140   66.1040 C   0  0  0  0  0  0  0  0  0  0  0  0
  129.9230  123.8460   65.9330 O   0  0  0  0  0  0  0  0  0  0  0  0
  130.4430  125.6660   67.2180 O   0  0  0  0  0  0  0  0  0  0  0  0
  130.9900  126.9800   67.2520 C   0  0  0  0  0  0  0  0  0  0  0  0
  129.8760  128.0100   67.5200 C   0  0  0  0  0  0  0  0  0  0  0  0
  128.7730  127.9970   66.4770 C   0  0  0  0  0  0  0  0  0  0  0  0
  128.8460  128.2220   65.1000 C   0  0  0  0  0  0  0  0  0  0  0  0
  127.6910  128.1440   64.3190 C   0  0  0  0  0  0  0  0  0  0  0  0
  126.4630  127.8460   64.9130 C   0  0  0  0  0  0  0  0  0  0  0  0
  126.3850  127.6260   66.2890 C   0  0  0  0  0  0  0  0  0  0  0  0
  127.5420  127.7030   67.0670 C   0  0  0  0  0  0  0  0  0  0  0  0
  127.7480  127.5320   68.5130 C   0  0  0  0  0  0  0  0  0  0  0  0
  126.8480  127.2430   69.5420 C   0  0  0  0  0  0  0  0  0  0  0  0
  127.3090  127.1470   70.8560 C   0  0  0  0  0  0  0  0  0  0  0  0
  128.6630  127.3380   71.1390 C   0  0  0  0  0  0  0  0  0  0  0  0
  129.5610  127.6260   70.1090 C   0  0  0  0  0  0  0  0  0  0  0  0
  129.1030  127.7200   68.7910 C   0  0  0  0  0  0  0  0  0  0  0  0
  133.1720  124.4240   63.8110 C   0  0  0  0  0  0  0  0  0  0  0  0
  133.3610  123.5080   62.9770 O   0  0  0  0  0  0  0  0  0  0  0  0
  134.0070  124.9970   64.5510 O   0  0  0  0  0  0  0  0  0  0  0  0
  130.8870  124.0880   61.2320 N   0  0  0  0  0  0  0  0  0  0  0  0
  130.4410  123.2830   60.0660 C   0  0  0  0  0  0  0  0  0  0  0  0
  130.5530  121.7600   60.3930 C   0  0  0  0  0  0  0  0  0  0  0  0
  131.7870  121.0900   60.3010 C   0  0  0  0  0  0  0  0  0  0  0  0
  131.8920  119.7360   60.6030 C   0  0  0  0  0  0  0  0  0  0  0  0
  130.7640  119.0300   61.0070 C   0  0  0  0  0  0  0  0  0  0  0  0
  129.5320  119.6690   61.1110 C   0  0  0  0  0  0  0  0  0  0  0  0
  129.4280  121.0240   60.8070 C   0  0  0  0  0  0  0  0  0  0  0  0
  128.9410  123.4630   59.6660 C   0  0  0  0  0  0  0  0  0  0  0  0
  128.4460  122.9260   58.4650 C   0  0  0  0  0  0  0  0  0  0  0  0
  127.1100  123.0860   58.1050 C   0  0  0  0  0  0  0  0  0  0  0  0
  126.2480  123.7820   58.9460 C   0  0  0  0  0  0  0  0  0  0  0  0
  126.7120  124.3150   60.1460 C   0  0  0  0  0  0  0  0  0  0  0  0
  128.0480  124.1530   60.5020 C   0  0  0  0  0  0  0  0  0  0  0  0
  131.4390  123.6770   58.9230 C   0  0  0  0  0  0  0  0  0  0  0  0
  130.9920  124.2350   57.7120 C   0  0  0  0  0  0  0  0  0  0  0  0
  131.8920  124.5970   56.7150 C   0  0  0  0  0  0  0  0  0  0  0  0
  133.2560  124.4200   56.9180 C   0  0  0  0  0  0  0  0  0  0  0  0
  133.7270  123.8920   58.1150 C   0  0  0  0  0  0  0  0  0  0  0  0
  132.8240  123.5300   59.1110 C   0  0  0  0  0  0  0  0  0  0  0  0
  132.2932  126.5341   62.5468 H   0  0  0  0  0  0  0  0  0  0  0  0
  130.5465  126.6008   63.1605 H   0  0  0  0  0  0  0  0  0  0  0  0
  131.0458  124.0568   63.7340 H   0  0  0  0  0  0  0  0  0  0  0  0
  131.8400  126.3930   65.4670 H   0  0  0  0  0  0  0  0  0  0  0  0
  131.7419  127.0406   68.0526 H   0  0  0  0  0  0  0  0  0  0  0  0
  131.4584  127.2004   66.2814 H   0  0  0  0  0  0  0  0  0  0  0  0
  130.4358  128.9566   67.5444 H   0  0  0  0  0  0  0  0  0  0  0  0
  129.8123  128.4603   64.6316 H   0  0  0  0  0  0  0  0  0  0  0  0
  127.7487  128.3176   63.2343 H   0  0  0  0  0  0  0  0  0  0  0  0
  125.5550  127.7845   64.2951 H   0  0  0  0  0  0  0  0  0  0  0  0
  125.4176  127.3933   66.7580 H   0  0  0  0  0  0  0  0  0  0  0  0
  125.7818  127.0919   69.3177 H   0  0  0  0  0  0  0  0  0  0  0  0
  126.6045  126.9205   71.6699 H   0  0  0  0  0  0  0  0  0  0  0  0
  129.0231  127.2614   72.1756 H   0  0  0  0  0  0  0  0  0  0  0  0
  130.6269  127.7787   70.3340 H   0  0  0  0  0  0  0  0  0  0  0  0
  131.4170  123.5640   61.9130 H   0  0  0  0  0  0  0  0  0  0  0  0
  132.6825  121.6454   59.9854 H   0  0  0  0  0  0  0  0  0  0  0  0
  132.8633  119.2259   60.5226 H   0  0  0  0  0  0  0  0  0  0  0  0
  130.8461  117.9594   61.2459 H   0  0  0  0  0  0  0  0  0  0  0  0
  128.6435  119.1057   61.4322 H   0  0  0  0  0  0  0  0  0  0  0  0
  128.4527  121.5257   60.8918 H   0  0  0  0  0  0  0  0  0  0  0  0
  129.1238  122.3712   57.7996 H   0  0  0  0  0  0  0  0  0  0  0  0
  126.7382  122.6638   57.1597 H   0  0  0  0  0  0  0  0  0  0  0  0
  125.1934  123.9122   58.6615 H   0  0  0  0  0  0  0  0  0  0  0  0
  126.0258  124.8616   60.8096 H   0  0  0  0  0  0  0  0  0  0  0  0
  128.4098  124.5718   61.4526 H   0  0  0  0  0  0  0  0  0  0  0  0
  129.9146  124.3875   57.5508 H   0  0  0  0  0  0  0  0  0  0  0  0
  131.5256  125.0220   55.7689 H   0  0  0  0  0  0  0  0  0  0  0  0
  133.9671  124.6994   56.1266 H   0  0  0  0  0  0  0  0  0  0  0  0
  134.8075  123.7610   58.2742 H   0  0  0  0  0  0  0  0  0  0  0  0
  133.2008  123.1223   60.0606 H   0  0  0  0  0  0  0  0  0  0  0  0
  1  2  2  0
  2  3  1  0
  3  4  1  0
  4  5  1  0
  5  6  1  0
  6  7  2  0
  6  8  1  0
  8  9  1  0
  9 10  1  0
 10 11  1  0
 11 12  2  0
 12 13  1  0
 13 14  2  0
 14 15  1  0
 15 16  2  0
 16 17  1  0
 17 18  2  0
 18 19  1  0
 19 20  2  0
 20 21  1  0
 21 22  2  0
  4 23  1  0
 23 24  2  0
 23 25  1  0
  2 26  1  0
 26 27  1  0
 27 28  1  0
 28 29  2  0
 29 30  1  0
 30 31  2  0
 31 32  1  0
 32 33  2  0
 27 34  1  0
 34 35  2  0
 35 36  1  0
 36 37  2  0
 37 38  1  0
 38 39  2  0
 27 40  1  0
 40 41  2  0
 41 42  1  0
 42 43  2  0
 43 44  1  0
 44 45  2  0
 22 10  1  0
 33 28  1  0
 39 34  1  0
 45 40  1  0
 16 11  1  0
 22 17  1  0
  3 46  1  0
  3 47  1  0
  4 48  1  6
  5 49  1  0
  9 50  1  0
  9 51  1  0
 10 52  1  0
 12 53  1  0
 13 54  1  0
 14 55  1  0
 15 56  1  0
 18 57  1  0
 19 58  1  0
 20 59  1  0
 21 60  1  0
 26 61  1  0
 29 62  1  0
 30 63  1  0
 31 64  1  0
 32 65  1  0
 33 66  1  0
 35 67  1  0
 36 68  1  0
 37 69  1  0
 38 70  1  0
 39 71  1  0
 41 72  1  0
 42 73  1  0
 43 74  1  0
 44 75  1  0
 45 76  1  0
M  CHG  1  25  -1
M  END
>  <Binding energies>  (1) 
[-10.56]

>  <Ligand effiencies>  (1) 
[-0.2246808510638298]

>  <Interactions>  (1) 
["V-B:PRO:540:C:9849, V-B:GLU:543:CG:9875, V-A:HIS:456:CE1:4064, V-A:TRP:381:CZ2:3365, V-B:ALA:541:CB:9860, V-B:GLU:543:CB:9874, V-B:ALA:541:CA:9858, V-A:TRP:381:CH2:3367, V-B:TYR:539:C:9835, V-B:TYR:539:CD2:9842, V-A:LEU:475:CD2:4254, V-A:GLU:543:CB:4901, V-B:TYR:539:CE2:9844, V-B:TYR:539:CZ:9845, V-A:ASP:366:CA:3205, V-A:ILE:369:CB:3231, V-A:ASP:366:CG:3208, V-B:HIS:456:CE1:9037, V-A:ASP:366:CB:3207, V-A:ASP:366:C:3203, V-A:TYR:484:CZ:4342, V-A:GLU:543:CG:4902, V-B:GLU:543:C:9870, V-A:GLU:543:CD:4903, V-B:GLU:543:CD:9876, H-A:ARG:545:NH1:4922, H-A:TYR:484:OH:4343, H-A:ARG:545:NE:4919, H-A:GLY:454:N:4045, V-B:PRO:540:CB:9853, V-B:PRO:540:CA:9851, H-A:HIS:456:NE2:4065, V-B:ARG:545:CG:9890, H-A:GLU:543:OE1:4904, V-B:HIS:456:CD2:9035, V-A:TYR:531:CZ:4789, V-B:GLY:544:C:9880, V-B:PRO:540:N:9852, V-A:TYR:531:CE1:4787"]

$$$$
RR6_Rahimova_2017
     RDKit          3D

 63 66  0  0  0  0  0  0  0  0999 V2000
  128.5070  131.5940   56.2830 C   0  0  0  0  0  0  0  0  0  0  0  0
  129.3890  132.4230   57.0280 O   0  0  0  0  0  0  0  0  0  0  0  0
  129.1920  132.6380   58.3540 C   0  0  0  0  0  0  0  0  0  0  0  0
  128.5930  133.6220   58.8010 O   0  0  0  0  0  0  0  0  0  0  0  0
  129.7720  131.5600   59.2240 C   0  0  0  0  0  0  0  0  0  0  0  0
  130.9900  131.7260   59.9000 C   0  0  0  0  0  0  0  0  0  0  0  0
  131.5060  130.7040   60.6930 C   0  0  0  0  0  0  0  0  0  0  0  0
  130.8110  129.4930   60.8200 C   0  0  0  0  0  0  0  0  0  0  0  0
  131.2550  128.3880   61.5710 N   0  0  0  0  0  0  0  0  0  0  0  0
  130.9850  127.0750   61.4020 C   0  0  0  0  0  0  0  0  0  0  0  0
  130.2800  126.5990   60.5120 O   0  0  0  0  0  0  0  0  0  0  0  0
  131.5750  126.1370   62.4610 C   0  0  0  0  0  0  0  0  0  0  0  0
  130.3240  125.3990   63.5650 S   0  0  0  0  0  0  0  0  0  0  0  0
  129.6970  126.7180   64.5840 C   0  0  0  0  0  0  0  0  0  0  0  0
  129.2500  127.7930   63.8920 N   0  0  0  0  0  0  0  0  0  0  0  0
  128.7210  128.8500   64.5580 C   0  0  0  0  0  0  0  0  0  0  0  0
  128.1930  129.9740   63.7150 C   0  0  0  0  0  0  0  0  0  0  0  0
  128.7590  131.2560   63.7840 C   0  0  0  0  0  0  0  0  0  0  0  0
  128.2600  132.3020   63.0120 C   0  0  0  0  0  0  0  0  0  0  0  0
  127.1870  132.0820   62.1490 C   0  0  0  0  0  0  0  0  0  0  0  0
  126.6410  133.2270   61.3160 C   0  0  0  0  0  0  0  0  0  0  0  0
  126.6130  130.8160   62.0640 C   0  0  0  0  0  0  0  0  0  0  0  0
  127.1160  129.7750   62.8370 C   0  0  0  0  0  0  0  0  0  0  0  0
  128.6430  128.8490   65.9540 C   0  0  0  0  0  0  0  0  0  0  0  0
  129.1030  127.7500   66.6940 C   0  0  0  0  0  0  0  0  0  0  0  0
  128.9730  127.8070   68.1800 C   0  0  0  0  0  0  0  0  0  0  0  0
  127.8360  127.2860   68.8060 C   0  0  0  0  0  0  0  0  0  0  0  0
  127.7140  127.3210   70.1930 C   0  0  0  0  0  0  0  0  0  0  0  0
  128.7250  127.8710   70.9800 C   0  0  0  0  0  0  0  0  0  0  0  0
  128.5180  127.8600   72.3460 O   0  0  0  0  0  0  0  0  0  0  0  0
  128.3780  129.0980   73.0350 C   0  0  0  0  0  0  0  0  0  0  0  0
  129.8700  128.3890   70.3560 C   0  0  0  0  0  0  0  0  0  0  0  0
  129.9890  128.3530   68.9700 C   0  0  0  0  0  0  0  0  0  0  0  0
  129.6530  126.6490   65.9910 C   0  0  0  0  0  0  0  0  0  0  0  0
  130.1790  125.4800   66.7040 C   0  0  0  0  0  0  0  0  0  0  0  0
  130.5920  124.5570   67.2660 N   0  0  0  0  0  0  0  0  0  0  0  0
  129.5910  129.3300   60.1630 C   0  0  0  0  0  0  0  0  0  0  0  0
  129.0780  130.3520   59.3680 C   0  0  0  0  0  0  0  0  0  0  0  0
  127.8834  131.0078   56.9740 H   0  0  0  0  0  0  0  0  0  0  0  0
  127.8624  132.2207   55.6492 H   0  0  0  0  0  0  0  0  0  0  0  0
  129.0926  130.9118   55.6492 H   0  0  0  0  0  0  0  0  0  0  0  0
  131.5426  132.6721   59.8028 H   0  0  0  0  0  0  0  0  0  0  0  0
  132.4605  130.8472   61.2206 H   0  0  0  0  0  0  0  0  0  0  0  0
  131.7800  128.6310   62.3980 H   0  0  0  0  0  0  0  0  0  0  0  0
  132.1075  125.3235   61.9465 H   0  0  0  0  0  0  0  0  0  0  0  0
  132.2428  126.7428   63.0911 H   0  0  0  0  0  0  0  0  0  0  0  0
  129.6094  131.4375   64.4578 H   0  0  0  0  0  0  0  0  0  0  0  0
  128.7124  133.3022   63.0830 H   0  0  0  0  0  0  0  0  0  0  0  0
  126.2641  134.0175   61.9816 H   0  0  0  0  0  0  0  0  0  0  0  0
  127.4423  133.6333   60.6813 H   0  0  0  0  0  0  0  0  0  0  0  0
  125.8209  132.8602   60.6813 H   0  0  0  0  0  0  0  0  0  0  0  0
  125.7639  130.6398   61.3872 H   0  0  0  0  0  0  0  0  0  0  0  0
  126.6611  128.7765   62.7589 H   0  0  0  0  0  0  0  0  0  0  0  0
  128.2170  129.7181   66.4767 H   0  0  0  0  0  0  0  0  0  0  0  0
  127.0320  126.8452   68.1983 H   0  0  0  0  0  0  0  0  0  0  0  0
  126.8123  126.9112   70.6716 H   0  0  0  0  0  0  0  0  0  0  0  0
  128.3983  128.9181   74.1200 H   0  0  0  0  0  0  0  0  0  0  0  0
  129.2062  129.7671   72.7587 H   0  0  0  0  0  0  0  0  0  0  0  0
  127.4213  129.5653   72.7587 H   0  0  0  0  0  0  0  0  0  0  0  0
  130.6761  128.8249   70.9643 H   0  0  0  0  0  0  0  0  0  0  0  0
  130.8923  128.7585   68.4908 H   0  0  0  0  0  0  0  0  0  0  0  0
  129.0314  128.3894   60.2735 H   0  0  0  0  0  0  0  0  0  0  0  0
  128.1190  130.2091   58.8484 H   0  0  0  0  0  0  0  0  0  0  0  0
  1  2  1  0
  2  3  1  0
  3  4  2  0
  3  5  1  0
  5  6  2  0
  6  7  1  0
  7  8  2  0
  8  9  1  0
  9 10  1  0
 10 11  2  0
 10 12  1  0
 12 13  1  0
 13 14  1  0
 14 15  2  0
 15 16  1  0
 16 17  1  0
 17 18  2  0
 18 19  1  0
 19 20  2  0
 20 21  1  0
 20 22  1  0
 22 23  2  0
 16 24  2  0
 24 25  1  0
 25 26  1  0
 26 27  2  0
 27 28  1  0
 28 29  2  0
 29 30  1  0
 30 31  1  0
 29 32  1  0
 32 33  2  0
 25 34  2  0
 34 35  1  0
 35 36  3  0
  8 37  1  0
 37 38  2  0
 38  5  1  0
 34 14  1  0
 23 17  1  0
 33 26  1  0
  1 39  1  0
  1 40  1  0
  1 41  1  0
  6 42  1  0
  7 43  1  0
  9 44  1  0
 12 45  1  0
 12 46  1  0
 18 47  1  0
 19 48  1  0
 21 49  1  0
 21 50  1  0
 21 51  1  0
 22 52  1  0
 23 53  1  0
 24 54  1  0
 27 55  1  0
 28 56  1  0
 31 57  1  0
 31 58  1  0
 31 59  1  0
 32 60  1  0
 33 61  1  0
 37 62  1  0
 38 63  1  0
M  END
>  <Binding energies>  (1) 
[-7.39]

>  <Ligand effiencies>  (1) 
[-0.18948717948717947]

>  <Interactions>  (1) 
["V-B:GLU:543:CG:9875, V-A:HIS:456:CE1:4064, H-B:LYS:547:NZ:9919, V-B:GLU:543:CB:9874, V-A:GLU:543:CB:4901, V-B:HIS:456:CE1:9037, V-A:GLU:543:CG:4902, V-A:GLU:543:CD:4903, V-B:GLU:543:CD:9876, H-A:ASP:366:OD2:3210, H-A:TYR:484:OH:4343, H-A:GLU:543:OE2:4905, H-A:HIS:456:NE2:4065, H-A:GLU:543:OE1:4904, V-B:HIS:456:CD2:9035, V-A:PRO:540:CA:4878, V-A:TYR:539:C:4862, V-A:PRO:540:N:4879, V-A:ALA:541:CB:4887, V-A:PRO:540:CB:4880, V-A:TYR:539:CZ:4872, V-A:TYR:539:CE1:4870, V-A:TYR:539:CD1:4868"]

$$$$
RR7_Rahimova_2017
     RDKit          3D

 80 86  0  0  0  0  0  0  0  0999 V2000
  124.0900  124.5160   57.8520 C   0  0  0  0  0  0  0  0  0  0  0  0
  125.3430  124.8750   57.2770 O   0  0  0  0  0  0  0  0  0  0  0  0
  126.5090  124.5140   57.9250 C   0  0  0  0  0  0  0  0  0  0  0  0
  127.5770  125.4050   57.8280 C   0  0  0  0  0  0  0  0  0  0  0  0
  128.7890  125.1300   58.4520 C   0  0  0  0  0  0  0  0  0  0  0  0
  128.9670  123.9460   59.1820 C   0  0  0  0  0  0  0  0  0  0  0  0
  130.3050  123.6260   59.9200 C   0  0  0  0  0  0  0  0  0  0  0  0
  130.3890  124.5510   61.0270 O   0  0  0  0  0  0  0  0  0  0  0  0
  129.2140  125.2230   61.4910 C   0  0  0  0  0  0  0  0  0  0  0  0
  129.6030  126.6230   61.9950 C   0  0  1  0  0  0  0  0  0  0  0  0
  129.3870  126.6290   63.4040 O   0  0  0  0  0  0  0  0  0  0  0  0
  130.5570  126.9210   64.1110 C   0  0  1  0  0  0  0  0  0  0  0  0
  130.5660  126.2120   65.3770 N   0  0  0  0  0  0  0  0  0  0  0  0
  131.1530  124.9930   65.6670 C   0  0  0  0  0  0  0  0  0  0  0  0
  130.9670  124.5570   66.8880 N   0  0  0  0  0  0  0  0  0  0  0  0
  130.1680  125.5110   67.4570 C   0  0  0  0  0  0  0  0  0  0  0  0
  129.6040  125.6240   68.7430 C   0  0  0  0  0  0  0  0  0  0  0  0
  129.8710  124.6160   69.6880 N   0  0  0  0  0  0  0  0  0  0  0  0
  129.6940  124.6380   71.0300 C   0  0  0  0  0  0  0  0  0  0  0  0
  129.2640  125.6090   71.6580 O   0  0  0  0  0  0  0  0  0  0  0  0
  130.0940  123.3760   71.7650 C   0  0  0  0  0  0  0  0  0  0  0  0
  129.1430  122.6930   72.5390 C   0  0  0  0  0  0  0  0  0  0  0  0
  129.4880  121.5280   73.2180 C   0  0  0  0  0  0  0  0  0  0  0  0
  130.7840  121.0330   73.1250 C   0  0  0  0  0  0  0  0  0  0  0  0
  131.7410  121.6930   72.3580 C   0  0  0  0  0  0  0  0  0  0  0  0
  131.3980  122.8590   71.6790 C   0  0  0  0  0  0  0  0  0  0  0  0
  128.8140  126.7020   69.0330 N   0  0  0  0  0  0  0  0  0  0  0  0
  128.6090  127.6200   68.0530 C   0  0  0  0  0  0  0  0  0  0  0  0
  129.1050  127.6120   66.7860 N   0  0  0  0  0  0  0  0  0  0  0  0
  129.8800  126.5490   66.5330 C   0  0  0  0  0  0  0  0  0  0  0  0
  131.6980  126.5640   63.1650 C   0  0  0  0  0  0  0  0  0  0  0  0
  131.0890  126.9790   61.8380 C   0  0  2  0  0  0  0  0  0  0  0  0
  131.2890  128.3560   61.5690 O   0  0  0  0  0  0  0  0  0  0  0  0
  130.3210  122.1960   60.5220 C   0  0  0  0  0  0  0  0  0  0  0  0
  130.3280  121.0730   59.6790 C   0  0  0  0  0  0  0  0  0  0  0  0
  130.3280  119.7860   60.2070 C   0  0  0  0  0  0  0  0  0  0  0  0
  130.3200  119.6080   61.5870 C   0  0  0  0  0  0  0  0  0  0  0  0
  130.3110  120.7070   62.4420 C   0  0  0  0  0  0  0  0  0  0  0  0
  130.3100  121.9940   61.9120 C   0  0  0  0  0  0  0  0  0  0  0  0
  131.5950  123.7310   59.0570 C   0  0  0  0  0  0  0  0  0  0  0  0
  131.5260  124.1770   57.7280 C   0  0  0  0  0  0  0  0  0  0  0  0
  132.6730  124.2650   56.9450 C   0  0  0  0  0  0  0  0  0  0  0  0
  133.9030  123.8970   57.4820 C   0  0  0  0  0  0  0  0  0  0  0  0
  133.9930  123.4390   58.7930 C   0  0  0  0  0  0  0  0  0  0  0  0
  132.8450  123.3520   59.5740 C   0  0  0  0  0  0  0  0  0  0  0  0
  127.8850  123.0600   59.2890 C   0  0  0  0  0  0  0  0  0  0  0  0
  126.6710  123.3350   58.6660 C   0  0  0  0  0  0  0  0  0  0  0  0
  124.1699  124.5389   58.9489 H   0  0  0  0  0  0  0  0  0  0  0  0
  123.3189  125.2294   57.5256 H   0  0  0  0  0  0  0  0  0  0  0  0
  123.8137  123.5025   57.5256 H   0  0  0  0  0  0  0  0  0  0  0  0
  127.4597  126.3348   57.2521 H   0  0  0  0  0  0  0  0  0  0  0  0
  129.6174  125.8493   58.3720 H   0  0  0  0  0  0  0  0  0  0  0  0
  128.4922  125.3155   60.6661 H   0  0  0  0  0  0  0  0  0  0  0  0
  128.7560  124.6478   62.3092 H   0  0  0  0  0  0  0  0  0  0  0  0
  129.0081  127.3356   61.4048 H   0  0  0  0  0  0  0  0  0  0  0  0
  130.6505  127.9785   64.3991 H   0  0  0  0  0  0  0  0  0  0  0  0
  131.7355  124.4291   64.9236 H   0  0  0  0  0  0  0  0  0  0  0  0
  130.2500  123.7660   69.2970 H   0  0  0  0  0  0  0  0  0  0  0  0
  128.1164  123.0817   72.6096 H   0  0  0  0  0  0  0  0  0  0  0  0
  128.7381  121.0008   73.8260 H   0  0  0  0  0  0  0  0  0  0  0  0
  131.0558  120.1122   73.6618 H   0  0  0  0  0  0  0  0  0  0  0  0
  132.7640  121.2945   72.2890 H   0  0  0  0  0  0  0  0  0  0  0  0
  132.1528  123.3792   71.0710 H   0  0  0  0  0  0  0  0  0  0  0  0
  127.9647  128.4721   68.3151 H   0  0  0  0  0  0  0  0  0  0  0  0
  132.6092  127.1370   63.3917 H   0  0  0  0  0  0  0  0  0  0  0  0
  132.0257  125.5151   63.2136 H   0  0  0  0  0  0  0  0  0  0  0  0
  131.5526  126.4702   60.9800 H   0  0  0  0  0  0  0  0  0  0  0  0
  131.7440  128.7510   62.3160 H   0  0  0  0  0  0  0  0  0  0  0  0
  130.3336  121.2127   58.5879 H   0  0  0  0  0  0  0  0  0  0  0  0
  130.3343  118.9136   59.5371 H   0  0  0  0  0  0  0  0  0  0  0  0
  130.3208  118.5909   62.0059 H   0  0  0  0  0  0  0  0  0  0  0  0
  130.3047  120.5586   63.5319 H   0  0  0  0  0  0  0  0  0  0  0  0
  130.3005  122.8615   62.5883 H   0  0  0  0  0  0  0  0  0  0  0  0
  130.5531  124.4605   57.3000 H   0  0  0  0  0  0  0  0  0  0  0  0
  132.6078  124.6235   55.9071 H   0  0  0  0  0  0  0  0  0  0  0  0
  134.8111  123.9687   56.8654 H   0  0  0  0  0  0  0  0  0  0  0  0
  134.9680  123.1469   59.2101 H   0  0  0  0  0  0  0  0  0  0  0  0
  132.9169  122.9824   60.6076 H   0  0  0  0  0  0  0  0  0  0  0  0
  127.9973  122.1349   59.8734 H   0  0  0  0  0  0  0  0  0  0  0  0
  125.8358  122.6247   58.7554 H   0  0  0  0  0  0  0  0  0  0  0  0
  1  2  1  0
  2  3  1  0
  3  4  2  0
  4  5  1  0
  5  6  2  0
  6  7  1  0
  7  8  1  0
  8  9  1  0
  9 10  1  0
 10 11  1  0
 11 12  1  0
 12 13  1  0
 13 14  1  0
 14 15  2  0
 15 16  1  0
 16 17  2  0
 17 18  1  0
 18 19  1  0
 19 20  2  0
 19 21  1  0
 21 22  2  0
 22 23  1  0
 23 24  2  0
 24 25  1  0
 25 26  2  0
 17 27  1  0
 27 28  2  0
 28 29  1  0
 29 30  2  0
 12 31  1  0
 31 32  1  0
 32 33  1  0
  7 34  1  0
 34 35  2  0
 35 36  1  0
 36 37  2  0
 37 38  1  0
 38 39  2  0
  7 40  1  0
 40 41  2  0
 41 42  1  0
 42 43  2  0
 43 44  1  0
 44 45  2  0
  6 46  1  0
 46 47  2  0
 47  3  1  0
 32 10  1  0
 39 34  1  0
 45 40  1  0
 30 13  1  0
 30 16  1  0
 26 21  1  0
  1 48  1  0
  1 49  1  0
  1 50  1  0
  4 51  1  0
  5 52  1  0
  9 53  1  0
  9 54  1  0
 10 55  1  6
 12 56  1  1
 14 57  1  0
 18 58  1  0
 22 59  1  0
 23 60  1  0
 24 61  1  0
 25 62  1  0
 26 63  1  0
 28 64  1  0
 31 65  1  0
 31 66  1  0
 32 67  1  6
 33 68  1  0
 35 69  1  0
 36 70  1  0
 37 71  1  0
 38 72  1  0
 39 73  1  0
 41 74  1  0
 42 75  1  0
 43 76  1  0
 44 77  1  0
 45 78  1  0
 46 79  1  0
 47 80  1  0
M  END
>  <Binding energies>  (1) 
[-9.4]

>  <Ligand effiencies>  (1) 
[-0.19183673469387755]

>  <Interactions>  (1) 
["H-B:GLU:543:O:9871, V-A:HIS:456:CE1:4064, H-B:LYS:547:NZ:9919, V-B:ALA:541:CB:9860, V-B:GLU:543:CB:9874, V-A:TRP:381:CH2:3367, V-B:TYR:539:CD2:9842, V-A:LEU:475:CD2:4254, V-B:TYR:539:CE2:9844, V-A:ILE:369:CD1:3234, V-B:TYR:539:CZ:9845, V-A:ASP:366:CA:3205, V-A:ILE:369:CB:3231, V-A:ASP:366:CG:3208, V-B:HIS:456:CE1:9037, V-A:ASP:366:CB:3207, V-A:ASP:366:C:3203, V-A:TYR:484:CZ:4342, V-B:GLU:543:C:9870, V-A:GLU:543:CD:4903, H-A:ASP:366:OD2:3210, V-A:ILE:369:CG2:3232, H-A:TYR:484:OH:4343, H-A:ARG:545:NH2:4923, V-A:ARG:545:CZ:4921, V-B:PRO:540:CB:9853, V-B:PRO:540:CA:9851, H-A:GLU:543:OE2:4905, H-A:HIS:456:NE2:4065, V-A:LEU:475:CD1:4253, H-A:GLU:543:OE1:4904, V-A:TYR:484:CG:4337, V-A:ASP:473:CG:4235, V-A:HIS:456:CG:4061, V-A:ASP:473:CB:4234, V-A:HIS:456:CB:4060, V-A:TYR:531:CZ:4789, V-B:ASP:366:CB:8179, V-B:ASP:366:CG:8180, V-A:HIS:456:CD2:4063, V-A:TYR:484:CB:4336, V-B:LEU:363:CD1:8156, V-B:LEU:363:CA:8152, V-B:PRO:540:N:9852, V-A:TYR:531:CE1:4787, H-B:TYR:531:OH:9763, V-A:ILE:369:CG1:3233, V-A:TYR:484:CD2:4339"]

$$$$
RR8_A_Rahimova_2017
     RDKit          3D

 73 77  0  0  0  0  0  0  0  0999 V2000
  128.4630  128.2220   66.5540 O   0  0  0  0  0  0  0  0  0  0  0  0
  128.9640  127.5350   67.4510 C   0  0  0  0  0  0  0  0  0  0  0  0
  129.7400  126.4270   67.2350 O   0  0  0  0  0  0  0  0  0  0  0  0
  130.6680  126.4810   66.1870 C   0  0  1  0  0  0  0  0  0  0  0  0
  131.7340  125.6000   66.3970 O   0  0  0  0  0  0  0  0  0  0  0  0
  132.1560  124.9810   65.1850 C   0  0  2  0  0  0  0  0  0  0  0  0
  133.6580  125.2510   64.9940 C   0  0  0  0  0  0  0  0  0  0  0  0
  134.0790  124.6580   63.7730 O   0  0  0  0  0  0  0  0  0  0  0  0
  133.5470  123.3590   63.5490 C   0  0  0  0  0  0  0  0  0  0  0  0
  133.3730  123.1230   62.0550 C   0  0  0  0  0  0  0  0  0  0  0  0
  133.4370  121.8250   61.5430 C   0  0  0  0  0  0  0  0  0  0  0  0
  133.2710  121.6060   60.1770 C   0  0  0  0  0  0  0  0  0  0  0  0
  133.0390  122.6870   59.3280 C   0  0  0  0  0  0  0  0  0  0  0  0
  132.9680  123.9840   59.8320 C   0  0  0  0  0  0  0  0  0  0  0  0
  133.1320  124.2020   61.1970 C   0  0  0  0  0  0  0  0  0  0  0  0
  131.2340  125.5930   64.1220 C   0  0  1  0  0  0  0  0  0  0  0  0
  130.8220  124.6550   63.1300 O   0  0  0  0  0  0  0  0  0  0  0  0
  130.0600  123.5510   63.6030 C   0  0  0  0  0  0  0  0  0  0  0  0
  130.0450  122.4440   62.5570 C   0  0  0  0  0  0  0  0  0  0  0  0
  129.4350  122.6690   61.3190 C   0  0  0  0  0  0  0  0  0  0  0  0
  129.4090  121.6590   60.3620 C   0  0  0  0  0  0  0  0  0  0  0  0
  129.9900  120.4240   60.6450 C   0  0  0  0  0  0  0  0  0  0  0  0
  130.5920  120.1890   61.8780 C   0  0  0  0  0  0  0  0  0  0  0  0
  130.6180  121.1990   62.8370 C   0  0  0  0  0  0  0  0  0  0  0  0
  129.9990  125.9840   64.9130 C   0  0  2  0  0  0  0  0  0  0  0  0
  129.2590  126.9890   64.2250 O   0  0  0  0  0  0  0  0  0  0  0  0
  129.9980  127.7650   63.2880 C   0  0  0  0  0  0  0  0  0  0  0  0
  129.9040  127.1370   61.9060 C   0  0  0  0  0  0  0  0  0  0  0  0
  130.9950  127.1890   61.0330 C   0  0  0  0  0  0  0  0  0  0  0  0
  130.9080  126.6040   59.7730 C   0  0  0  0  0  0  0  0  0  0  0  0
  129.7310  125.9650   59.3890 C   0  0  0  0  0  0  0  0  0  0  0  0
  128.6410  125.9040   60.2540 C   0  0  0  0  0  0  0  0  0  0  0  0
  128.7280  126.4890   61.5160 C   0  0  0  0  0  0  0  0  0  0  0  0
  128.7890  127.8440   68.9100 C   0  0  0  0  0  0  0  0  0  0  0  0
  127.7440  127.2910   69.6650 C   0  0  0  0  0  0  0  0  0  0  0  0
  127.6080  127.5980   71.0160 C   0  0  0  0  0  0  0  0  0  0  0  0
  128.5110  128.4650   71.6460 C   0  0  0  0  0  0  0  0  0  0  0  0
  128.3660  128.7900   73.0860 N   0  0  0  0  0  0  0  0  0  0  0  0
  127.2580  129.1060   73.5090 O   0  0  0  0  0  0  0  0  0  0  0  0
  129.3590  128.7310   73.8050 O   0  0  0  0  0  0  0  0  0  0  0  0
  129.5520  129.0180   70.8900 C   0  0  0  0  0  0  0  0  0  0  0  0
  129.6900  128.7120   69.5400 C   0  0  0  0  0  0  0  0  0  0  0  0
  131.0230  127.5202   66.1229 H   0  0  0  0  0  0  0  0  0  0  0  0
  132.0696  123.8850   65.1484 H   0  0  0  0  0  0  0  0  0  0  0  0
  133.8370  126.3358   64.9590 H   0  0  0  0  0  0  0  0  0  0  0  0
  134.2244  124.8206   65.8330 H   0  0  0  0  0  0  0  0  0  0  0  0
  134.2362  122.6064   63.9597 H   0  0  0  0  0  0  0  0  0  0  0  0
  132.5690  123.2766   64.0458 H   0  0  0  0  0  0  0  0  0  0  0  0
  133.6184  120.9757   62.2182 H   0  0  0  0  0  0  0  0  0  0  0  0
  133.3228  120.5851   59.7706 H   0  0  0  0  0  0  0  0  0  0  0  0
  132.9107  122.5143   58.2492 H   0  0  0  0  0  0  0  0  0  0  0  0
  132.7834  124.8311   59.1550 H   0  0  0  0  0  0  0  0  0  0  0  0
  133.0721  125.2231   61.6016 H   0  0  0  0  0  0  0  0  0  0  0  0
  131.7467  126.4095   63.5924 H   0  0  0  0  0  0  0  0  0  0  0  0
  130.5093  123.1691   64.5316 H   0  0  0  0  0  0  0  0  0  0  0  0
  129.0283  123.8799   63.7964 H   0  0  0  0  0  0  0  0  0  0  0  0
  128.9756  123.6445   61.1015 H   0  0  0  0  0  0  0  0  0  0  0  0
  128.9320  121.8345   59.3865 H   0  0  0  0  0  0  0  0  0  0  0  0
  129.9727  119.6273   59.8867 H   0  0  0  0  0  0  0  0  0  0  0  0
  131.0451  119.2102   62.0940 H   0  0  0  0  0  0  0  0  0  0  0  0
  131.0891  121.0176   63.8143 H   0  0  0  0  0  0  0  0  0  0  0  0
  129.2513  125.1953   65.0832 H   0  0  0  0  0  0  0  0  0  0  0  0
  129.5864  128.7845   63.2539 H   0  0  0  0  0  0  0  0  0  0  0  0
  131.0526  127.7995   63.5987 H   0  0  0  0  0  0  0  0  0  0  0  0
  131.9228  127.6926   61.3422 H   0  0  0  0  0  0  0  0  0  0  0  0
  131.7643  126.6460   59.0838 H   0  0  0  0  0  0  0  0  0  0  0  0
  129.6618  125.5040   58.3926 H   0  0  0  0  0  0  0  0  0  0  0  0
  127.7160  125.3966   59.9426 H   0  0  0  0  0  0  0  0  0  0  0  0
  127.8718  126.4409   62.2049 H   0  0  0  0  0  0  0  0  0  0  0  0
  127.0262  126.6092   69.1856 H   0  0  0  0  0  0  0  0  0  0  0  0
  126.7837  127.1557   71.5947 H   0  0  0  0  0  0  0  0  0  0  0  0
  130.2684  129.7018   71.3688 H   0  0  0  0  0  0  0  0  0  0  0  0
  130.5141  129.1557   68.9620 H   0  0  0  0  0  0  0  0  0  0  0  0
  1  2  2  0
  2  3  1  0
  3  4  1  0
  4  5  1  0
  5  6  1  0
  6  7  1  0
  7  8  1  0
  8  9  1  0
  9 10  1  0
 10 11  2  0
 11 12  1  0
 12 13  2  0
 13 14  1  0
 14 15  2  0
  6 16  1  0
 16 17  1  0
 17 18  1  0
 18 19  1  0
 19 20  2  0
 20 21  1  0
 21 22  2  0
 22 23  1  0
 23 24  2  0
 16 25  1  0
 25 26  1  0
 26 27  1  0
 27 28  1  0
 28 29  2  0
 29 30  1  0
 30 31  2  0
 31 32  1  0
 32 33  2  0
  2 34  1  0
 34 35  2  0
 35 36  1  0
 36 37  2  0
 37 38  1  0
 38 39  2  0
 38 40  1  0
 37 41  1  0
 41 42  2  0
 25  4  1  0
 33 28  1  0
 42 34  1  0
 15 10  1  0
 24 19  1  0
  4 43  1  6
  6 44  1  1
  7 45  1  0
  7 46  1  0
  9 47  1  0
  9 48  1  0
 11 49  1  0
 12 50  1  0
 13 51  1  0
 14 52  1  0
 15 53  1  0
 16 54  1  6
 18 55  1  0
 18 56  1  0
 20 57  1  0
 21 58  1  0
 22 59  1  0
 23 60  1  0
 24 61  1  0
 25 62  1  1
 27 63  1  0
 27 64  1  0
 29 65  1  0
 30 66  1  0
 31 67  1  0
 32 68  1  0
 33 69  1  0
 35 70  1  0
 36 71  1  0
 41 72  1  0
 42 73  1  0
M  CHG  2  38   1  40  -1
M  END
>  <Binding energies>  (1) 
[-8.75]

>  <Ligand effiencies>  (1) 
[-0.20833333333333334]

>  <Interactions>  (1) 
["V-B:GLU:543:CG:9875, V-A:HIS:456:CE1:4064, H-B:LYS:547:NZ:9919, V-B:ALA:541:CB:9860, V-B:TYR:539:CD2:9842, V-A:LEU:475:CD2:4254, V-A:GLU:543:CB:4901, V-B:TYR:539:CE2:9844, V-A:ILE:369:CD1:3234, V-A:ASP:366:CG:3208, V-B:HIS:456:CE1:9037, V-A:ASP:366:CB:3207, V-A:GLU:543:CD:4903, V-B:GLU:543:CD:9876, V-A:ILE:369:CG2:3232, H-A:TYR:484:OH:4343, H-A:GLY:454:N:4045, V-A:GLY:454:CA:4044, V-A:ARG:545:CZ:4921, H-A:HIS:456:NE2:4065, V-A:LEU:475:CD1:4253, V-B:HIS:456:CD2:9035, H-A:LYS:547:NZ:4946, V-A:ARG:545:CD:4918"]

$$$$
RR8_B_Rahimova_2017
     RDKit          3D

 73 77  0  0  0  0  0  0  0  0999 V2000
  128.7610  129.6550   67.2220 O   0  0  0  0  0  0  0  0  0  0  0  0
  129.4310  128.7650   67.7550 C   0  0  0  0  0  0  0  0  0  0  0  0
  130.2310  127.8880   67.0760 O   0  0  0  0  0  0  0  0  0  0  0  0
  129.9350  126.5160   67.1610 C   0  0  2  0  0  0  0  0  0  0  0  0
  131.0940  125.7330   67.2010 O   0  0  0  0  0  0  0  0  0  0  0  0
  131.4990  125.3310   65.8930 C   0  0  2  0  0  0  0  0  0  0  0  0
  132.9300  125.8270   65.6230 C   0  0  0  0  0  0  0  0  0  0  0  0
  133.2560  125.5940   64.2580 O   0  0  0  0  0  0  0  0  0  0  0  0
  133.4990  124.2360   63.9250 C   0  0  0  0  0  0  0  0  0  0  0  0
  133.1490  124.0080   62.4620 C   0  0  0  0  0  0  0  0  0  0  0  0
  132.4200  124.9760   61.7640 C   0  0  0  0  0  0  0  0  0  0  0  0
  132.0750  124.7640   60.4320 C   0  0  0  0  0  0  0  0  0  0  0  0
  132.4620  123.5830   59.8010 C   0  0  0  0  0  0  0  0  0  0  0  0
  133.1930  122.6170   60.4880 C   0  0  0  0  0  0  0  0  0  0  0  0
  133.5360  122.8280   61.8210 C   0  0  0  0  0  0  0  0  0  0  0  0
  130.4170  125.9020   64.9700 C   0  0  1  0  0  0  0  0  0  0  0  0
  130.1800  125.0010   63.8840 O   0  0  0  0  0  0  0  0  0  0  0  0
  129.9560  123.6290   64.2150 C   0  0  0  0  0  0  0  0  0  0  0  0
  129.9220  122.7340   62.9800 C   0  0  0  0  0  0  0  0  0  0  0  0
  130.6680  121.5530   62.9490 C   0  0  0  0  0  0  0  0  0  0  0  0
  130.6100  120.7220   61.8330 C   0  0  0  0  0  0  0  0  0  0  0  0
  129.8080  121.0780   60.7500 C   0  0  0  0  0  0  0  0  0  0  0  0
  129.0650  122.2560   60.7720 C   0  0  0  0  0  0  0  0  0  0  0  0
  129.1210  123.0860   61.8900 C   0  0  0  0  0  0  0  0  0  0  0  0
  129.2130  126.0700   65.8900 C   0  0  2  0  0  0  0  0  0  0  0  0
  128.3180  127.0470   65.3640 O   0  0  0  0  0  0  0  0  0  0  0  0
  127.1460  127.2820   66.1300 C   0  0  0  0  0  0  0  0  0  0  0  0
  126.2540  128.2340   65.3540 C   0  0  0  0  0  0  0  0  0  0  0  0
  125.2610  128.9650   66.0120 C   0  0  0  0  0  0  0  0  0  0  0  0
  124.4350  129.8210   65.2870 C   0  0  0  0  0  0  0  0  0  0  0  0
  124.6040  129.9420   63.9100 C   0  0  0  0  0  0  0  0  0  0  0  0
  125.5940  129.2170   63.2480 C   0  0  0  0  0  0  0  0  0  0  0  0
  126.4190  128.3620   63.9720 C   0  0  0  0  0  0  0  0  0  0  0  0
  129.4220  128.5050   69.2340 C   0  0  0  0  0  0  0  0  0  0  0  0
  130.5410  128.7720   70.0380 C   0  0  0  0  0  0  0  0  0  0  0  0
  130.5070  128.5140   71.4040 C   0  0  0  0  0  0  0  0  0  0  0  0
  129.3610  127.9730   71.9990 C   0  0  0  0  0  0  0  0  0  0  0  0
  129.3370  127.6730   73.4520 N   0  0  0  0  0  0  0  0  0  0  0  0
  129.8100  126.6080   73.8420 O   0  0  0  0  0  0  0  0  0  0  0  0
  128.8490  128.5020   74.2160 O   0  0  0  0  0  0  0  0  0  0  0  0
  128.2430  127.7120   71.1980 C   0  0  0  0  0  0  0  0  0  0  0  0
  128.2720  127.9770   69.8320 C   0  0  0  0  0  0  0  0  0  0  0  0
  129.3360  126.3845   68.0742 H   0  0  0  0  0  0  0  0  0  0  0  0
  131.5654  124.2439   65.7385 H   0  0  0  0  0  0  0  0  0  0  0  0
  132.9927  126.9040   65.8376 H   0  0  0  0  0  0  0  0  0  0  0  0
  133.6368  125.2860   66.2693 H   0  0  0  0  0  0  0  0  0  0  0  0
  134.5610  124.0013   64.0899 H   0  0  0  0  0  0  0  0  0  0  0  0
  132.8796  123.5841   64.5586 H   0  0  0  0  0  0  0  0  0  0  0  0
  132.1188  125.9061   62.2681 H   0  0  0  0  0  0  0  0  0  0  0  0
  131.5008  125.5235   59.8812 H   0  0  0  0  0  0  0  0  0  0  0  0
  132.1872  123.4122   58.7497 H   0  0  0  0  0  0  0  0  0  0  0  0
  133.4983  121.6906   59.9795 H   0  0  0  0  0  0  0  0  0  0  0  0
  134.1109  122.0668   62.3688 H   0  0  0  0  0  0  0  0  0  0  0  0
  130.6837  126.8562   64.4921 H   0  0  0  0  0  0  0  0  0  0  0  0
  130.7657  123.2880   64.8769 H   0  0  0  0  0  0  0  0  0  0  0  0
  128.9761  123.5576   64.7096 H   0  0  0  0  0  0  0  0  0  0  0  0
  131.3011  121.2796   63.8060 H   0  0  0  0  0  0  0  0  0  0  0  0
  131.1937  119.7900   61.8063 H   0  0  0  0  0  0  0  0  0  0  0  0
  129.7613  120.4216   59.8685 H   0  0  0  0  0  0  0  0  0  0  0  0
  128.4372  122.5297   59.9112 H   0  0  0  0  0  0  0  0  0  0  0  0
  128.5356  124.0170   61.9146 H   0  0  0  0  0  0  0  0  0  0  0  0
  128.5690  125.1898   66.0329 H   0  0  0  0  0  0  0  0  0  0  0  0
  126.6171  126.3329   66.3017 H   0  0  0  0  0  0  0  0  0  0  0  0
  127.4106  127.7188   67.1043 H   0  0  0  0  0  0  0  0  0  0  0  0
  125.1320  128.8646   67.0998 H   0  0  0  0  0  0  0  0  0  0  0  0
  123.6524  130.3991   65.8002 H   0  0  0  0  0  0  0  0  0  0  0  0
  123.9495  130.6167   63.3386 H   0  0  0  0  0  0  0  0  0  0  0  0
  125.7220  129.3203   62.1604 H   0  0  0  0  0  0  0  0  0  0  0  0
  127.2017  127.7863   63.4563 H   0  0  0  0  0  0  0  0  0  0  0  0
  131.4522  129.1887   69.5839 H   0  0  0  0  0  0  0  0  0  0  0  0
  131.3887  128.7370   72.0228 H   0  0  0  0  0  0  0  0  0  0  0  0
  127.3329  127.2935   71.6525 H   0  0  0  0  0  0  0  0  0  0  0  0
  127.3837  127.7697   69.2172 H   0  0  0  0  0  0  0  0  0  0  0  0
  1  2  2  0
  2  3  1  0
  3  4  1  0
  4  5  1  0
  5  6  1  0
  6  7  1  0
  7  8  1  0
  8  9  1  0
  9 10  1  0
 10 11  2  0
 11 12  1  0
 12 13  2  0
 13 14  1  0
 14 15  2  0
  6 16  1  0
 16 17  1  0
 17 18  1  0
 18 19  1  0
 19 20  2  0
 20 21  1  0
 21 22  2  0
 22 23  1  0
 23 24  2  0
 16 25  1  0
 25 26  1  0
 26 27  1  0
 27 28  1  0
 28 29  2  0
 29 30  1  0
 30 31  2  0
 31 32  1  0
 32 33  2  0
  2 34  1  0
 34 35  2  0
 35 36  1  0
 36 37  2  0
 37 38  1  0
 38 39  2  0
 38 40  1  0
 37 41  1  0
 41 42  2  0
 25  4  1  0
 33 28  1  0
 42 34  1  0
 15 10  1  0
 24 19  1  0
  4 43  1  1
  6 44  1  1
  7 45  1  0
  7 46  1  0
  9 47  1  0
  9 48  1  0
 11 49  1  0
 12 50  1  0
 13 51  1  0
 14 52  1  0
 15 53  1  0
 16 54  1  6
 18 55  1  0
 18 56  1  0
 20 57  1  0
 21 58  1  0
 22 59  1  0
 23 60  1  0
 24 61  1  0
 25 62  1  1
 27 63  1  0
 27 64  1  0
 29 65  1  0
 30 66  1  0
 31 67  1  0
 32 68  1  0
 33 69  1  0
 35 70  1  0
 36 71  1  0
 41 72  1  0
 42 73  1  0
M  CHG  2  38   1  40  -1
M  END
>  <Binding energies>  (1) 
[-8.59]

>  <Ligand effiencies>  (1) 
[-0.20452380952380952]

>  <Interactions>  (1) 
["V-B:GLU:543:CG:9875, V-A:HIS:456:CE1:4064, H-B:LYS:547:NZ:9919, V-B:ALA:541:CB:9860, V-B:GLU:543:CB:9874, V-A:LEU:475:CD2:4254, V-A:GLU:543:CB:4901, V-A:ILE:369:CD1:3234, V-A:ASP:366:CG:3208, V-B:HIS:456:CE1:9037, V-A:GLU:543:CG:4902, V-A:GLU:543:CD:4903, V-B:GLU:543:CD:9876, H-A:TYR:484:OH:4343, H-A:ARG:545:NE:4919, H-A:ARG:545:NH2:4923, V-A:GLY:454:CA:4044, V-A:ARG:545:CZ:4921, H-A:HIS:456:NE2:4065, V-A:LEU:475:CD1:4253, V-B:ARG:545:CG:9890, V-A:GLY:544:C:4907, V-A:GLU:543:C:4897, V-A:LYS:547:CE:4945, V-B:HIS:456:CD2:9035, V-B:ARG:545:CD:9891, H-A:LYS:547:NZ:4946, V-B:ARG:545:CZ:9894, V-A:ARG:545:CD:4918, V-A:ARG:545:CG:4917, V-B:LYS:547:CE:9918"]

$$$$
RR9_Rahimova_2017
     RDKit          3D

 64 68  0  0  0  0  0  0  0  0999 V2000
  130.5820  128.5690   72.3400 C   0  0  0  0  0  0  0  0  0  0  0  0
  129.3140  129.3060   71.8950 C   0  0  0  0  0  0  0  0  0  0  0  0
  128.5140  128.4160   71.1230 O   0  0  0  0  0  0  0  0  0  0  0  0
  129.0290  127.8770   69.9600 C   0  0  0  0  0  0  0  0  0  0  0  0
  129.8050  128.7240   69.1700 C   0  0  0  0  0  0  0  0  0  0  0  0
  130.3630  128.2690   67.9800 C   0  0  0  0  0  0  0  0  0  0  0  0
  130.1600  126.9510   67.5440 C   0  0  0  0  0  0  0  0  0  0  0  0
  130.7560  126.4560   66.2600 C   0  0  0  0  0  0  0  0  0  0  0  0
  130.1450  126.7070   65.0210 C   0  0  0  0  0  0  0  0  0  0  0  0
  130.7140  126.2520   63.8180 C   0  0  0  0  0  0  0  0  0  0  0  0
  130.0660  126.6390   62.5170 C   0  0  0  0  0  0  0  0  0  0  0  0
  129.4040  125.8180   61.8820 O   0  0  0  0  0  0  0  0  0  0  0  0
  130.2830  127.9050   62.1080 N   0  0  0  0  0  0  0  0  0  0  0  0
  129.8700  128.4760   60.8220 C   0  0  0  0  0  0  0  0  0  0  0  0
  130.9370  128.3090   59.7150 C   0  0  0  0  0  0  0  0  0  0  0  0
  132.0390  129.3630   59.7290 C   0  0  0  0  0  0  0  0  0  0  0  0
  132.6840  129.7190   58.5400 C   0  0  0  0  0  0  0  0  0  0  0  0
  133.6660  130.7060   58.5510 C   0  0  0  0  0  0  0  0  0  0  0  0
  134.0030  131.3310   59.7490 C   0  0  0  0  0  0  0  0  0  0  0  0
  133.3680  130.9780   60.9380 C   0  0  0  0  0  0  0  0  0  0  0  0
  132.3850  129.9910   60.9280 C   0  0  0  0  0  0  0  0  0  0  0  0
  131.9110  125.5030   63.9340 C   0  0  0  0  0  0  0  0  0  0  0  0
  132.8440  124.8060   63.0800 C   0  0  0  0  0  0  0  0  0  0  0  0
  132.7850  124.5650   61.6080 C   0  0  0  0  0  0  0  0  0  0  0  0
  132.0030  125.3880   60.7920 C   0  0  0  0  0  0  0  0  0  0  0  0
  131.9370  125.1520   59.4200 C   0  0  0  0  0  0  0  0  0  0  0  0
  132.6570  124.0950   58.8610 C   0  0  0  0  0  0  0  0  0  0  0  0
  132.5700  123.8260   57.3690 C   0  0  0  0  0  0  0  0  0  0  0  0
  133.4370  123.2710   59.6720 C   0  0  0  0  0  0  0  0  0  0  0  0
  133.5040  123.5090   61.0420 C   0  0  0  0  0  0  0  0  0  0  0  0
  133.8450  124.3270   63.7850 N   0  0  0  0  0  0  0  0  0  0  0  0
  133.6140  124.6110   65.0770 N   0  0  0  0  0  0  0  0  0  0  0  0
  132.4440  125.3170   65.2320 C   0  0  0  0  0  0  0  0  0  0  0  0
  131.9170  125.7530   66.3750 N   0  0  0  0  0  0  0  0  0  0  0  0
  129.3770  126.1060   68.3430 C   0  0  0  0  0  0  0  0  0  0  0  0
  128.8180  126.5580   69.5360 C   0  0  0  0  0  0  0  0  0  0  0  0
  130.6250  128.5440   73.4389 H   0  0  0  0  0  0  0  0  0  0  0  0
  130.5642  127.5405   71.9503 H   0  0  0  0  0  0  0  0  0  0  0  0
  131.4669  129.0935   71.9503 H   0  0  0  0  0  0  0  0  0  0  0  0
  128.7498  129.6382   72.7789 H   0  0  0  0  0  0  0  0  0  0  0  0
  129.5845  130.1850   71.2915 H   0  0  0  0  0  0  0  0  0  0  0  0
  129.9776  129.7619   69.4909 H   0  0  0  0  0  0  0  0  0  0  0  0
  130.9728  128.9529   67.3714 H   0  0  0  0  0  0  0  0  0  0  0  0
  129.2013  127.2714   64.9906 H   0  0  0  0  0  0  0  0  0  0  0  0
  130.7650  128.5320   62.7360 H   0  0  0  0  0  0  0  0  0  0  0  0
  128.9463  127.9750   60.4967 H   0  0  0  0  0  0  0  0  0  0  0  0
  129.7207  129.5551   60.9744 H   0  0  0  0  0  0  0  0  0  0  0  0
  131.4057  127.3214   59.8369 H   0  0  0  0  0  0  0  0  0  0  0  0
  130.4105  128.4223   58.7559 H   0  0  0  0  0  0  0  0  0  0  0  0
  132.4157  129.2197   57.5973 H   0  0  0  0  0  0  0  0  0  0  0  0
  134.1734  130.9908   57.6175 H   0  0  0  0  0  0  0  0  0  0  0  0
  134.7783  132.1113   59.7567 H   0  0  0  0  0  0  0  0  0  0  0  0
  133.6415  131.4762   61.8798 H   0  0  0  0  0  0  0  0  0  0  0  0
  131.8815  129.7063   61.8636 H   0  0  0  0  0  0  0  0  0  0  0  0
  131.4391  126.2229   61.2335 H   0  0  0  0  0  0  0  0  0  0  0  0
  131.3187  125.7975   58.7789 H   0  0  0  0  0  0  0  0  0  0  0  0
  132.2354  122.7915   57.2018 H   0  0  0  0  0  0  0  0  0  0  0  0
  131.8512  124.5222   56.9122 H   0  0  0  0  0  0  0  0  0  0  0  0
  133.5603  123.9694   56.9122 H   0  0  0  0  0  0  0  0  0  0  0  0
  133.9982  122.4346   59.2299 H   0  0  0  0  0  0  0  0  0  0  0  0
  134.1249  122.8638   61.6809 H   0  0  0  0  0  0  0  0  0  0  0  0
  134.2630  124.3160   65.7920 H   0  0  0  0  0  0  0  0  0  0  0  0
  129.2012  125.0686   68.0223 H   0  0  0  0  0  0  0  0  0  0  0  0
  128.2084  125.8769   70.1479 H   0  0  0  0  0  0  0  0  0  0  0  0
  1  2  1  0
  2  3  1  0
  3  4  1  0
  4  5  2  0
  5  6  1  0
  6  7  2  0
  7  8  1  0
  8  9  2  0
  9 10  1  0
 10 11  1  0
 11 12  2  0
 11 13  1  0
 13 14  1  0
 14 15  1  0
 15 16  1  0
 16 17  2  0
 17 18  1  0
 18 19  2  0
 19 20  1  0
 20 21  2  0
 10 22  2  0
 22 23  1  0
 23 24  1  0
 24 25  2  0
 25 26  1  0
 26 27  2  0
 27 28  1  0
 27 29  1  0
 29 30  2  0
 23 31  2  0
 31 32  1  0
 32 33  1  0
 33 34  2  0
  7 35  1  0
 35 36  2  0
 36  4  1  0
 34  8  1  0
 21 16  1  0
 33 22  1  0
 30 24  1  0
  1 37  1  0
  1 38  1  0
  1 39  1  0
  2 40  1  0
  2 41  1  0
  5 42  1  0
  6 43  1  0
  9 44  1  0
 13 45  1  0
 14 46  1  0
 14 47  1  0
 15 48  1  0
 15 49  1  0
 17 50  1  0
 18 51  1  0
 19 52  1  0
 20 53  1  0
 21 54  1  0
 25 55  1  0
 26 56  1  0
 28 57  1  0
 28 58  1  0
 28 59  1  0
 29 60  1  0
 30 61  1  0
 32 62  1  0
 35 63  1  0
 36 64  1  0
M  END
>  <Binding energies>  (1) 
[-8.89]

>  <Ligand effiencies>  (1) 
[-0.23394736842105265]

>  <Interactions>  (1) 
["V-A:HIS:456:CE1:4064, V-B:GLU:543:CB:9874, V-A:GLU:543:CB:4901, V-B:TYR:539:CE2:9844, V-A:ILE:369:CD1:3234, V-B:TYR:539:CZ:9845, V-A:ASP:366:CG:3208, V-A:ASP:366:CB:3207, V-A:GLU:543:CG:4902, V-B:GLU:543:C:9870, V-A:GLU:543:CD:4903, H-A:TYR:484:OH:4343, H-A:GLY:454:N:4045, V-A:GLY:454:CA:4044, H-A:GLU:543:OE2:4905, H-A:HIS:456:NE2:4065, H-A:GLU:543:OE1:4904, V-A:GLY:544:C:4907, V-A:GLU:543:C:4897, V-A:LYS:547:CE:4945, V-B:HIS:456:CD2:9035, V-A:LEU:363:CD1:3184, V-A:TYR:531:CE2:4788, V-A:ASN:362:C:3167, V-A:LEU:363:CA:3180, V-A:TYR:531:CZ:4789, V-A:PRO:540:CB:4880, V-A:LEU:363:CB:3182, V-A:ASN:362:CB:3171"]

$$$$
