1a_Grossjean_2025
     RDKit          3D

 26 27  0  0  0  0  0  0  0  0999 V2000
  126.1530  127.3240   73.3220 C   0  0  0  0  0  0  0  0  0  0  0  0
  127.0960  126.9250   74.4610 C   0  0  0  0  0  0  0  0  0  0  0  0
  128.0280  125.9600   73.9880 O   0  0  0  0  0  0  0  0  0  0  0  0
  129.1960  126.3390   73.4080 C   0  0  0  0  0  0  0  0  0  0  0  0
  130.0760  126.9700   74.0020 O   0  0  0  0  0  0  0  0  0  0  0  0
  129.3050  125.9280   71.9680 C   0  0  0  0  0  0  0  0  0  0  0  0
  128.8200  126.7880   70.9740 C   0  0  0  0  0  0  0  0  0  0  0  0
  128.9020  126.4340   69.6300 C   0  0  0  0  0  0  0  0  0  0  0  0
  129.4670  125.2150   69.2530 C   0  0  0  0  0  0  0  0  0  0  0  0
  129.4960  124.9590   67.8680 N   0  0  0  0  0  0  0  0  0  0  0  0
  129.9980  125.7000   66.8580 C   0  0  0  0  0  0  0  0  0  0  0  0
  130.5530  126.7930   66.9800 O   0  0  0  0  0  0  0  0  0  0  0  0
  129.8450  125.0950   65.4610 C   0  0  0  0  0  0  0  0  0  0  0  0
  129.9820  123.2830   65.4800 S   0  0  0  0  0  0  0  0  0  0  0  0
  130.7810  122.7920   63.9680 C   0  0  0  0  0  0  0  0  0  0  0  0
  129.9740  122.1070   63.1200 N   0  0  0  0  0  0  0  0  0  0  0  0
  130.4830  121.6800   61.9400 C   0  0  0  0  0  0  0  0  0  0  0  0
  129.5260  120.9100   61.0490 C   0  0  0  0  0  0  0  0  0  0  0  0
  131.8000  121.9240   61.5570 C   0  0  0  0  0  0  0  0  0  0  0  0
  132.6340  122.6480   62.4150 C   0  0  0  0  0  0  0  0  0  0  0  0
  134.0700  122.9170   61.9670 C   0  0  0  0  0  0  0  0  0  0  0  0
  132.1240  123.1070   63.6510 C   0  0  0  0  0  0  0  0  0  0  0  0
  132.9650  123.9080   64.5450 C   0  0  0  0  0  0  0  0  0  0  0  0
  133.6300  124.5410   65.2480 N   0  0  0  0  0  0  0  0  0  0  0  0
  129.9630  124.3510   70.2410 C   0  0  0  0  0  0  0  0  0  0  0  0
  129.8800  124.7070   71.5840 C   0  0  0  0  0  0  0  0  0  0  0  0
  1  2  1  0
  2  3  1  0
  3  4  1  0
  4  5  2  0
  4  6  1  0
  6  7  2  0
  7  8  1  0
  8  9  2  0
  9 10  1  0
 10 11  1  0
 11 12  2  0
 11 13  1  0
 13 14  1  0
 14 15  1  0
 15 16  2  0
 16 17  1  0
 17 18  1  0
 17 19  2  0
 19 20  1  0
 20 21  1  0
 20 22  2  0
 22 23  1  0
 23 24  3  0
  9 25  1  0
 25 26  2  0
 26  6  1  0
 22 15  1  0
M  END
>  <Binding energies>  (1) 
[-7.94]

>  <Ligand effiencies>  (1) 
[-0.2940740740740741]

>  <Interactions>  (1) 
["V-A:HIS:456:CE1:4069, V-A:TYR:484:CZ:4347, V-A:TYR:484:CE1:4345, V-B:HIS:456:CE1:9040, V-A:TYR:484:CD1:4343, V-A:HIS:456:CG:4066, H-B:LYS:547:NZ:9923, V-B:GLU:543:C:9874, V-A:HIS:456:CD2:4068, V-B:HIS:456:CD2:9039, V-B:HIS:456:CB:9036, V-B:HIS:456:CG:9037, H-A:LYS:547:NZ:4951, H-B:GLU:543:O:9875, V-B:GLU:543:CB:9878, V-B:ALA:541:CB:9864, H-A:TYR:484:OH:4348, V-A:ILE:369:CD1:3239, H-A:GLY:454:N:4050, V-A:LEU:475:CD1:4258, V-A:GLY:454:CA:4049, V-B:TYR:539:CD2:9846, H-A:HIS:456:NE2:4070, V-B:GLU:543:CA:9876, V-B:GLU:543:CG:9879, V-B:LYS:547:CD:9921"]

$$$$
1aa_Ghoteimi_2023
     RDKit          3D

 40 43  0  0  0  0  0  0  0  0999 V2000
  133.5290  130.7740   58.1760 C   0  0  0  0  0  0  0  0  0  0  0  0
  132.2370  130.7800   58.9970 C   0  0  0  0  0  0  0  0  0  0  0  0
  131.1380  131.0900   58.1490 O   0  0  0  0  0  0  0  0  0  0  0  0
  130.0910  131.8280   58.5990 C   0  0  0  0  0  0  0  0  0  0  0  0
  129.6020  132.7700   57.9680 O   0  0  0  0  0  0  0  0  0  0  0  0
  129.5860  131.3860   59.9420 C   0  0  0  0  0  0  0  0  0  0  0  0
  129.6040  132.2360   61.0580 C   0  0  0  0  0  0  0  0  0  0  0  0
  129.1280  131.7980   62.2920 C   0  0  0  0  0  0  0  0  0  0  0  0
  128.6220  130.4970   62.4300 C   0  0  0  0  0  0  0  0  0  0  0  0
  128.1170  129.9470   63.6230 N   0  0  0  0  0  0  0  0  0  0  0  0
  127.9830  130.4950   64.8530 C   0  0  0  0  0  0  0  0  0  0  0  0
  128.2980  131.6480   65.1480 O   0  0  0  0  0  0  0  0  0  0  0  0
  127.3900  129.6060   65.9580 C   0  0  0  0  0  0  0  0  0  0  0  0
  127.3670  128.2350   65.5410 O   0  0  0  0  0  0  0  0  0  0  0  0
  128.2120  127.3070   66.1340 C   0  0  0  0  0  0  0  0  0  0  0  0
  128.1350  127.1400   67.4830 N   0  0  0  0  0  0  0  0  0  0  0  0
  128.9550  126.2510   68.1020 C   0  0  0  0  0  0  0  0  0  0  0  0
  128.8060  126.1250   69.5910 C   0  0  0  0  0  0  0  0  0  0  0  0
  127.9730  126.9940   70.3100 C   0  0  0  0  0  0  0  0  0  0  0  0
  127.8350  126.8800   71.6900 C   0  0  0  0  0  0  0  0  0  0  0  0
  128.5230  125.8950   72.3950 C   0  0  0  0  0  0  0  0  0  0  0  0
  128.3250  125.8580   73.7620 O   0  0  0  0  0  0  0  0  0  0  0  0
  129.3920  126.2290   74.6280 C   0  0  0  0  0  0  0  0  0  0  0  0
  129.3550  125.0150   71.6900 C   0  0  0  0  0  0  0  0  0  0  0  0
  129.4910  125.1310   70.3100 C   0  0  0  0  0  0  0  0  0  0  0  0
  129.8680  125.4880   67.3630 C   0  0  0  0  0  0  0  0  0  0  0  0
  129.9590  125.6320   65.9720 C   0  0  0  0  0  0  0  0  0  0  0  0
  130.9450  124.7820   65.2410 C   0  0  0  0  0  0  0  0  0  0  0  0
  130.5310  123.5960   64.6260 C   0  0  0  0  0  0  0  0  0  0  0  0
  131.4420  122.8030   63.9330 C   0  0  0  0  0  0  0  0  0  0  0  0
  132.7810  123.1800   63.8360 C   0  0  0  0  0  0  0  0  0  0  0  0
  133.6120  122.3320   63.1300 O   0  0  0  0  0  0  0  0  0  0  0  0
  134.2450  122.8060   61.9470 C   0  0  0  0  0  0  0  0  0  0  0  0
  133.1990  124.3730   64.4450 C   0  0  0  0  0  0  0  0  0  0  0  0
  132.2870  125.1650   65.1370 C   0  0  0  0  0  0  0  0  0  0  0  0
  129.1130  126.5750   65.3430 C   0  0  0  0  0  0  0  0  0  0  0  0
  129.1680  126.8260   63.9020 C   0  0  0  0  0  0  0  0  0  0  0  0
  129.2100  127.0260   62.7630 N   0  0  0  0  0  0  0  0  0  0  0  0
  128.6050  129.6490   61.3220 C   0  0  0  0  0  0  0  0  0  0  0  0
  129.0820  130.0870   60.0900 C   0  0  0  0  0  0  0  0  0  0  0  0
  1  2  1  0
  2  3  1  0
  3  4  1  0
  4  5  2  0
  4  6  1  0
  6  7  2  0
  7  8  1  0
  8  9  2  0
  9 10  1  0
 10 11  1  0
 11 12  2  0
 11 13  1  0
 13 14  1  0
 14 15  1  0
 15 16  2  0
 16 17  1  0
 17 18  1  0
 18 19  2  0
 19 20  1  0
 20 21  2  0
 21 22  1  0
 22 23  1  0
 21 24  1  0
 24 25  2  0
 17 26  2  0
 26 27  1  0
 27 28  1  0
 28 29  2  0
 29 30  1  0
 30 31  2  0
 31 32  1  0
 32 33  1  0
 31 34  1  0
 34 35  2  0
 27 36  2  0
 36 37  1  0
 37 38  3  0
  9 39  1  0
 39 40  2  0
 40  6  1  0
 36 15  1  0
 25 18  1  0
 35 28  1  0
M  END
>  <Binding energies>  (2) 
[-7.86]

>  <Ligand effiencies>  (2) 
[-0.19170731707317074]

>  <Interactions>  (2) 
["V-A:HIS:456:CE1:4069, V-B:HIS:456:CE1:9040, H-B:LYS:547:NZ:9923, V-A:HIS:456:CD2:4068, V-A:GLU:543:CB:4906, V-A:GLU:543:CD:4908, V-B:GLU:543:CB:9878, V-A:ILE:369:CD1:3239, H-A:GLY:454:N:4050, V-B:GLU:543:CD:9880, V-A:LEU:475:CD1:4258, V-A:GLY:454:CA:4049, V-A:ASP:366:CB:3212, H-B:TYR:484:OH:9319, V-B:TYR:484:CZ:9318, V-A:PRO:540:CA:4883, V-A:PRO:540:CB:4885, V-A:LEU:363:CA:3185, V-A:ALA:541:CB:4892, V-A:LEU:363:CD1:3189, H-A:GLU:543:OE1:4909, V-A:PRO:540:C:4881, V-A:PRO:540:N:4884, V-A:LEU:363:CB:3187"]

$$$$
1b_Grossjean_2025
     RDKit          3D

 25 26  0  0  0  0  0  0  0  0999 V2000
  126.9650  126.6260   73.9120 C   0  0  0  0  0  0  0  0  0  0  0  0
  128.1910  125.9180   74.0440 O   0  0  0  0  0  0  0  0  0  0  0  0
  129.3150  126.3450   73.4150 C   0  0  0  0  0  0  0  0  0  0  0  0
  130.2160  126.9720   73.9810 O   0  0  0  0  0  0  0  0  0  0  0  0
  129.3590  125.9740   71.9600 C   0  0  0  0  0  0  0  0  0  0  0  0
  128.9420  126.8600   70.9550 C   0  0  0  0  0  0  0  0  0  0  0  0
  128.9950  126.4850   69.6160 C   0  0  0  0  0  0  0  0  0  0  0  0
  129.4630  125.2220   69.2520 C   0  0  0  0  0  0  0  0  0  0  0  0
  129.4700  124.9500   67.8700 N   0  0  0  0  0  0  0  0  0  0  0  0
  129.9030  125.7050   66.8370 C   0  0  0  0  0  0  0  0  0  0  0  0
  130.4020  126.8260   66.9300 O   0  0  0  0  0  0  0  0  0  0  0  0
  129.7530  125.0700   65.4540 C   0  0  0  0  0  0  0  0  0  0  0  0
  129.9070  123.2590   65.5100 S   0  0  0  0  0  0  0  0  0  0  0  0
  130.7090  122.7480   64.0060 C   0  0  0  0  0  0  0  0  0  0  0  0
  129.9210  122.0010   63.1930 N   0  0  0  0  0  0  0  0  0  0  0  0
  130.4310  121.5590   62.0190 C   0  0  0  0  0  0  0  0  0  0  0  0
  129.4880  120.7430   61.1550 C   0  0  0  0  0  0  0  0  0  0  0  0
  131.7370  121.8320   61.6170 C   0  0  0  0  0  0  0  0  0  0  0  0
  132.5640  122.5820   62.4590 C   0  0  0  0  0  0  0  0  0  0  0  0
  133.9970  122.8550   62.0040 C   0  0  0  0  0  0  0  0  0  0  0  0
  132.0540  123.0540   63.6890 C   0  0  0  0  0  0  0  0  0  0  0  0
  132.9150  123.8050   64.6060 C   0  0  0  0  0  0  0  0  0  0  0  0
  133.5970  124.3970   65.3280 N   0  0  0  0  0  0  0  0  0  0  0  0
  129.8810  124.3300   70.2510 C   0  0  0  0  0  0  0  0  0  0  0  0
  129.8290  124.7070   71.5900 C   0  0  0  0  0  0  0  0  0  0  0  0
  1  2  1  0
  2  3  1  0
  3  4  2  0
  3  5  1  0
  5  6  2  0
  6  7  1  0
  7  8  2  0
  8  9  1  0
  9 10  1  0
 10 11  2  0
 10 12  1  0
 12 13  1  0
 13 14  1  0
 14 15  2  0
 15 16  1  0
 16 17  1  0
 16 18  2  0
 18 19  1  0
 19 20  1  0
 19 21  2  0
 21 22  1  0
 22 23  3  0
  8 24  1  0
 24 25  2  0
 25  5  1  0
 21 14  1  0
M  END
>  <Binding energies>  (3) 
[-7.86]

>  <Ligand effiencies>  (3) 
[-0.30230769230769233]

>  <Interactions>  (3) 
["V-A:HIS:456:CE1:4069, V-A:TYR:484:CZ:4347, V-A:TYR:484:CE1:4345, V-B:HIS:456:CE1:9040, V-A:TYR:484:CD1:4343, V-A:HIS:456:CG:4066, H-B:LYS:547:NZ:9923, V-B:GLU:543:C:9874, V-A:HIS:456:CD2:4068, H-A:LYS:547:NZ:4951, H-B:GLU:543:O:9875, V-B:GLU:543:CB:9878, V-B:ALA:541:CB:9864, H-A:TYR:484:OH:4348, V-A:ILE:369:CD1:3239, H-A:GLY:454:N:4050, V-B:ALA:541:CA:9862, V-A:LEU:475:CD1:4258, V-A:GLY:454:CA:4049, V-B:TYR:539:CD2:9846, H-A:HIS:456:NE2:4070, V-B:GLU:543:CA:9876, V-B:GLU:543:CG:9879, V-B:LYS:547:CE:9922, V-B:LYS:547:CD:9921"]

$$$$
1c_Grossjean_2025
     RDKit          3D

 23 24  0  0  0  0  0  0  0  0999 V2000
  127.3280  126.8760   73.3830 C   0  0  0  0  0  0  0  0  0  0  0  0
  128.3040  125.8650   73.1520 O   0  0  0  0  0  0  0  0  0  0  0  0
  128.7190  125.6120   71.8590 C   0  0  0  0  0  0  0  0  0  0  0  0
  128.2730  126.4970   70.8780 C   0  0  0  0  0  0  0  0  0  0  0  0
  128.6380  126.3270   69.5460 C   0  0  0  0  0  0  0  0  0  0  0  0
  129.4700  125.2580   69.1780 C   0  0  0  0  0  0  0  0  0  0  0  0
  129.8910  124.9870   67.8620 N   0  0  0  0  0  0  0  0  0  0  0  0
  129.4390  125.4960   66.6960 C   0  0  0  0  0  0  0  0  0  0  0  0
  128.5500  126.3390   66.5810 O   0  0  0  0  0  0  0  0  0  0  0  0
  130.1230  124.9570   65.4370 C   0  0  0  0  0  0  0  0  0  0  0  0
  130.1260  123.1400   65.3930 S   0  0  0  0  0  0  0  0  0  0  0  0
  130.9640  122.6150   63.9110 C   0  0  0  0  0  0  0  0  0  0  0  0
  130.2470  121.7330   63.1700 N   0  0  0  0  0  0  0  0  0  0  0  0
  130.7830  121.2610   62.0200 C   0  0  0  0  0  0  0  0  0  0  0  0
  129.9190  120.2870   61.2410 C   0  0  0  0  0  0  0  0  0  0  0  0
  132.0460  121.6380   61.5700 C   0  0  0  0  0  0  0  0  0  0  0  0
  132.8040  122.5280   62.3380 C   0  0  0  0  0  0  0  0  0  0  0  0
  134.1930  122.9120   61.8320 C   0  0  0  0  0  0  0  0  0  0  0  0
  132.2650  123.0320   63.5450 C   0  0  0  0  0  0  0  0  0  0  0  0
  133.0660  123.9220   64.3890 C   0  0  0  0  0  0  0  0  0  0  0  0
  133.6980  124.6250   65.0560 N   0  0  0  0  0  0  0  0  0  0  0  0
  129.9090  124.3630   70.1550 C   0  0  0  0  0  0  0  0  0  0  0  0
  129.5410  124.5370   71.4870 C   0  0  0  0  0  0  0  0  0  0  0  0
  1  2  1  0
  2  3  1  0
  3  4  2  0
  4  5  1  0
  5  6  2  0
  6  7  1  0
  7  8  1  0
  8  9  2  0
  8 10  1  0
 10 11  1  0
 11 12  1  0
 12 13  2  0
 13 14  1  0
 14 15  1  0
 14 16  2  0
 16 17  1  0
 17 18  1  0
 17 19  2  0
 19 20  1  0
 20 21  3  0
  6 22  1  0
 22 23  2  0
 23  3  1  0
 19 12  1  0
M  END
>  <Binding energies>  (4) 
[-7.62]

>  <Ligand effiencies>  (4) 
[-0.3175]

>  <Interactions>  (4) 
["V-A:HIS:456:CE1:4069, V-A:TYR:484:CZ:4347, V-A:TYR:484:CE1:4345, V-B:HIS:456:CE1:9040, V-A:TYR:484:CD1:4343, V-A:HIS:456:CG:4066, H-B:LYS:547:NZ:9923, V-B:GLU:543:C:9874, V-A:HIS:456:CD2:4068, H-B:GLU:543:O:9875, V-B:GLU:543:CB:9878, V-B:ALA:541:CB:9864, H-A:TYR:484:OH:4348, V-A:ILE:369:CD1:3239, H-A:GLY:454:N:4050, V-A:LEU:475:CD1:4258, V-A:GLY:454:CA:4049, V-B:TYR:539:CD2:9846, H-A:HIS:456:ND1:4067"]

$$$$
1d_Grossjean_2025
     RDKit          3D

 21 22  0  0  0  0  0  0  0  0999 V2000
  129.1750  123.8910   61.7520 C   0  0  0  0  0  0  0  0  0  0  0  0
  130.1650  122.7580   61.5630 C   0  0  0  0  0  0  0  0  0  0  0  0
  129.7550  121.4900   61.1570 C   0  0  0  0  0  0  0  0  0  0  0  0
  130.7140  120.4860   60.9890 C   0  0  0  0  0  0  0  0  0  0  0  0
  130.2410  119.1080   60.5280 C   0  0  0  0  0  0  0  0  0  0  0  0
  132.0730  120.7790   61.2440 C   0  0  0  0  0  0  0  0  0  0  0  0
  133.1000  119.7570   61.0290 C   0  0  0  0  0  0  0  0  0  0  0  0
  133.9090  118.9470   60.8580 N   0  0  0  0  0  0  0  0  0  0  0  0
  132.3960  122.0870   61.6760 C   0  0  0  0  0  0  0  0  0  0  0  0
  134.0510  122.6270   62.0420 S   0  0  0  0  0  0  0  0  0  0  0  0
  133.9810  124.4180   62.3510 C   0  0  0  0  0  0  0  0  0  0  0  0
  133.2420  124.7510   63.6480 C   0  0  0  0  0  0  0  0  0  0  0  0
  133.8600  124.7350   64.7130 O   0  0  0  0  0  0  0  0  0  0  0  0
  131.9370  125.0670   63.5050 N   0  0  0  0  0  0  0  0  0  0  0  0
  130.9780  125.4020   64.4790 C   0  0  0  0  0  0  0  0  0  0  0  0
  130.0190  126.3400   64.0880 C   0  0  0  0  0  0  0  0  0  0  0  0
  129.0210  126.7370   64.9740 C   0  0  0  0  0  0  0  0  0  0  0  0
  128.9760  126.1890   66.2530 C   0  0  0  0  0  0  0  0  0  0  0  0
  129.9210  125.2470   66.6540 C   0  0  0  0  0  0  0  0  0  0  0  0
  130.9200  124.8490   65.7700 C   0  0  0  0  0  0  0  0  0  0  0  0
  131.4600  123.0600   61.8150 N   0  0  0  0  0  0  0  0  0  0  0  0
  1  2  1  0
  2  3  2  0
  3  4  1  0
  4  5  1  0
  4  6  2  0
  6  7  1  0
  7  8  3  0
  6  9  1  0
  9 10  1  0
 10 11  1  0
 11 12  1  0
 12 13  2  0
 12 14  1  0
 14 15  1  0
 15 16  2  0
 16 17  1  0
 17 18  2  0
 18 19  1  0
 19 20  2  0
  9 21  2  0
 21  2  1  0
 20 15  1  0
M  END
>  <Binding energies>  (5) 
[-6.07]

>  <Ligand effiencies>  (5) 
[-0.27590909090909094]

>  <Interactions>  (5) 
["V-A:HIS:456:CE1:4069, V-A:TYR:484:CZ:4347, V-A:TYR:484:CE1:4345, V-A:GLU:543:CD:4908, V-B:GLU:543:CB:9878, V-B:ALA:541:CB:9864, H-A:TYR:484:OH:4348, H-A:GLY:454:N:4050, V-B:GLU:543:CD:9880, V-A:ARG:545:CZ:4926, V-A:LEU:475:CD1:4258, V-B:TYR:539:CE2:9848, V-A:TRP:381:CH2:3372, V-B:TYR:539:CD2:9846, H-A:ARG:545:NE:4924, V-A:ASP:366:CG:3213, V-A:ILE:369:CG2:3237, V-A:TRP:381:CZ3:3371, V-A:PRO:482:CB:4326, V-A:TRP:381:CZ2:3370, V-A:PRO:482:CG:4327"]

$$$$
1e_Grossjean_2025
     RDKit          3D

 22 23  0  0  0  0  0  0  0  0999 V2000
  129.9330  124.1540   72.1270 C   0  0  0  0  0  0  0  0  0  0  0  0
  129.4680  125.0230   70.9740 C   0  0  0  0  0  0  0  0  0  0  0  0
  128.6710  126.1520   71.1850 C   0  0  0  0  0  0  0  0  0  0  0  0
  128.2790  126.9030   70.0760 C   0  0  0  0  0  0  0  0  0  0  0  0
  128.6860  126.5130   68.7990 C   0  0  0  0  0  0  0  0  0  0  0  0
  129.4880  125.3740   68.6590 C   0  0  0  0  0  0  0  0  0  0  0  0
  129.8560  125.0240   67.3470 N   0  0  0  0  0  0  0  0  0  0  0  0
  129.3000  125.4250   66.1830 C   0  0  0  0  0  0  0  0  0  0  0  0
  128.3350  126.1840   66.0850 O   0  0  0  0  0  0  0  0  0  0  0  0
  129.9280  124.8470   64.9130 C   0  0  0  0  0  0  0  0  0  0  0  0
  130.1030  123.0390   65.0020 S   0  0  0  0  0  0  0  0  0  0  0  0
  131.0300  122.4860   63.5850 C   0  0  0  0  0  0  0  0  0  0  0  0
  130.3850  121.5420   62.8530 N   0  0  0  0  0  0  0  0  0  0  0  0
  130.9920  121.0420   61.7520 C   0  0  0  0  0  0  0  0  0  0  0  0
  130.2080  119.9980   60.9810 C   0  0  0  0  0  0  0  0  0  0  0  0
  132.2610  121.4480   61.3440 C   0  0  0  0  0  0  0  0  0  0  0  0
  132.9460  122.4010   62.1040 C   0  0  0  0  0  0  0  0  0  0  0  0
  134.3440  122.8160   61.6460 C   0  0  0  0  0  0  0  0  0  0  0  0
  132.3330  122.9350   63.2600 C   0  0  0  0  0  0  0  0  0  0  0  0
  133.0600  123.8910   64.0990 C   0  0  0  0  0  0  0  0  0  0  0  0
  133.6370  124.6460   64.7600 N   0  0  0  0  0  0  0  0  0  0  0  0
  129.8720  124.6320   69.7390 N   0  0  0  0  0  0  0  0  0  0  0  0
  1  2  1  0
  2  3  2  0
  3  4  1  0
  4  5  2  0
  5  6  1  0
  6  7  1  0
  7  8  1  0
  8  9  2  0
  8 10  1  0
 10 11  1  0
 11 12  1  0
 12 13  2  0
 13 14  1  0
 14 15  1  0
 14 16  2  0
 16 17  1  0
 17 18  1  0
 17 19  2  0
 19 20  1  0
 20 21  3  0
  6 22  2  0
 22  2  1  0
 19 12  1  0
M  END
>  <Binding energies>  (6) 
[-7.06]

>  <Ligand effiencies>  (6) 
[-0.3069565217391304]

>  <Interactions>  (6) 
["V-A:HIS:456:CE1:4069, V-A:TYR:484:CZ:4347, V-A:TYR:484:CE1:4345, V-B:HIS:456:CE1:9040, V-B:GLU:543:C:9874, V-A:HIS:456:CD2:4068, H-B:GLU:543:O:9875, V-B:GLU:543:CB:9878, V-B:ALA:541:CB:9864, H-A:TYR:484:OH:4348, V-A:ILE:369:CD1:3239, H-A:GLY:454:N:4050, V-A:LEU:475:CD1:4258, V-A:GLY:454:CA:4049, V-B:TYR:539:CD2:9846, H-A:HIS:456:ND1:4067, H-A:HIS:456:NE2:4070, V-B:GLU:543:CG:9879, V-A:PRO:482:CG:4327"]

$$$$
1f_Grossjean_2025
     RDKit          3D

 21 22  0  0  0  0  0  0  0  0999 V2000
  129.9940  123.6860   65.6030 C   0  0  0  0  0  0  0  0  0  0  0  0
  129.5250  125.1260   65.6860 C   0  0  0  0  0  0  0  0  0  0  0  0
  129.1200  125.8270   64.5530 C   0  0  0  0  0  0  0  0  0  0  0  0
  128.7090  127.1570   64.6890 C   0  0  0  0  0  0  0  0  0  0  0  0
  128.2870  127.9120   63.4290 C   0  0  0  0  0  0  0  0  0  0  0  0
  128.7060  127.7530   65.9710 C   0  0  0  0  0  0  0  0  0  0  0  0
  128.3320  129.1620   66.1250 C   0  0  0  0  0  0  0  0  0  0  0  0
  128.0360  130.2740   66.2450 N   0  0  0  0  0  0  0  0  0  0  0  0
  129.1060  126.9570   67.0700 C   0  0  0  0  0  0  0  0  0  0  0  0
  129.1660  127.5340   68.7550 S   0  0  0  0  0  0  0  0  0  0  0  0
  127.8610  126.6800   69.7030 C   0  0  0  0  0  0  0  0  0  0  0  0
  128.3630  125.8590   70.9000 C   0  0  0  0  0  0  0  0  0  0  0  0
  128.1390  126.2340   72.0520 O   0  0  0  0  0  0  0  0  0  0  0  0
  129.0630  124.7540   70.5680 N   0  0  0  0  0  0  0  0  0  0  0  0
  129.6560  123.7830   71.3980 C   0  0  0  0  0  0  0  0  0  0  0  0
  130.7710  123.9880   72.2320 C   0  0  0  0  0  0  0  0  0  0  0  0
  131.2560  122.9320   73.0090 C   0  0  0  0  0  0  0  0  0  0  0  0
  130.6110  121.6970   72.9370 C   0  0  0  0  0  0  0  0  0  0  0  0
  129.5310  121.4760   72.1450 N   0  0  0  0  0  0  0  0  0  0  0  0
  129.0720  122.5110   71.3960 C   0  0  0  0  0  0  0  0  0  0  0  0
  129.5260  125.6750   66.9230 N   0  0  0  0  0  0  0  0  0  0  0  0
  1  2  1  0
  2  3  2  0
  3  4  1  0
  4  5  1  0
  4  6  2  0
  6  7  1  0
  7  8  3  0
  6  9  1  0
  9 10  1  0
 10 11  1  0
 11 12  1  0
 12 13  2  0
 12 14  1  0
 14 15  1  0
 15 16  2  0
 16 17  1  0
 17 18  2  0
 18 19  1  0
 19 20  2  0
  9 21  2  0
 21  2  1  0
 20 15  1  0
M  END
>  <Binding energies>  (7) 
[-6.43]

>  <Ligand effiencies>  (7) 
[-0.29227272727272724]

>  <Interactions>  (7) 
["V-A:TYR:484:CZ:4347, V-A:TYR:484:CE1:4345, V-B:HIS:456:CE1:9040, V-A:TYR:484:CG:4342, V-A:HIS:456:CB:4065, V-A:TYR:484:CD1:4343, V-A:HIS:456:CG:4066, V-A:TYR:484:CD2:4344, H-B:LYS:547:NZ:9923, V-B:GLU:543:C:9874, V-A:HIS:456:CD2:4068, H-B:GLU:543:O:9875, V-A:GLU:543:CG:4907, V-A:GLU:543:CB:4906, V-A:GLU:543:CD:4908, V-B:GLU:543:CB:9878, V-B:GLU:543:CD:9880, V-B:GLY:544:C:9884, H-B:TYR:484:OH:9319, H-A:HIS:456:NE2:4070, V-B:GLU:543:CA:9876, V-B:GLU:543:CG:9879, V-A:ASP:473:CB:4239, V-A:TYR:484:CB:4341, V-B:LYS:547:CE:9922, V-B:GLY:544:CA:9886"]

$$$$
1g_Grossjean_2025
     RDKit          3D

 22 23  0  0  0  0  0  0  0  0999 V2000
  129.3970  120.2800   60.9030 C   0  0  0  0  0  0  0  0  0  0  0  0
  130.3020  121.1830   61.7200 C   0  0  0  0  0  0  0  0  0  0  0  0
  129.8720  121.7630   62.9120 C   0  0  0  0  0  0  0  0  0  0  0  0
  130.7450  122.6000   63.6140 C   0  0  0  0  0  0  0  0  0  0  0  0
  130.2460  123.2370   64.9110 C   0  0  0  0  0  0  0  0  0  0  0  0
  132.0430  122.8310   63.1040 C   0  0  0  0  0  0  0  0  0  0  0  0
  132.9560  123.7450   63.7950 C   0  0  0  0  0  0  0  0  0  0  0  0
  133.6750  124.4680   64.3420 N   0  0  0  0  0  0  0  0  0  0  0  0
  132.4030  122.1800   61.9000 C   0  0  0  0  0  0  0  0  0  0  0  0
  133.9950  122.3500   61.1240 S   0  0  0  0  0  0  0  0  0  0  0  0
  133.9900  123.9280   60.2220 C   0  0  0  0  0  0  0  0  0  0  0  0
  132.9350  123.9510   59.1140 C   0  0  0  0  0  0  0  0  0  0  0  0
  133.2370  123.6140   57.9680 O   0  0  0  0  0  0  0  0  0  0  0  0
  131.7050  124.3580   59.4720 N   0  0  0  0  0  0  0  0  0  0  0  0
  130.5370  124.4020   58.5930 C   0  0  0  0  0  0  0  0  0  0  0  0
  129.2390  123.9440   59.2510 C   0  0  0  0  0  0  0  0  0  0  0  0
  129.0090  124.2130   60.6040 C   0  0  0  0  0  0  0  0  0  0  0  0
  127.8240  123.7960   61.2040 C   0  0  0  0  0  0  0  0  0  0  0  0
  126.8700  123.1150   60.4490 C   0  0  0  0  0  0  0  0  0  0  0  0
  127.0910  122.8480   59.1000 C   0  0  0  0  0  0  0  0  0  0  0  0
  128.2770  123.2640   58.4990 C   0  0  0  0  0  0  0  0  0  0  0  0
  131.5410  121.3880   61.2140 N   0  0  0  0  0  0  0  0  0  0  0  0
  1  2  1  0
  2  3  2  0
  3  4  1  0
  4  5  1  0
  4  6  2  0
  6  7  1  0
  7  8  3  0
  6  9  1  0
  9 10  1  0
 10 11  1  0
 11 12  1  0
 12 13  2  0
 12 14  1  0
 14 15  1  0
 15 16  1  0
 16 17  2  0
 17 18  1  0
 18 19  2  0
 19 20  1  0
 20 21  2  0
  9 22  2  0
 22  2  1  0
 21 16  1  0
M  END
>  <Binding energies>  (8) 
[-6.05]

>  <Ligand effiencies>  (8) 
[-0.26304347826086955]

>  <Interactions>  (8) 
["V-A:TYR:484:CZ:4347, V-A:TYR:484:CE1:4345, V-B:ALA:541:CB:9864, H-A:TYR:484:OH:4348, V-A:ILE:369:CD1:3239, H-A:GLY:454:N:4050, V-B:GLU:543:CD:9880, V-B:ALA:541:CA:9862, V-A:LEU:475:CD1:4258, V-B:TYR:539:CE2:9848, V-A:GLY:454:CA:4049, V-B:TYR:539:CD2:9846, V-A:ASP:366:CG:3213, V-A:ASP:366:CB:3212, H-B:TYR:539:OH:9850, V-A:ASP:366:CA:3210, V-B:TYR:539:CZ:9849, V-B:GLU:543:CG:9879, V-B:TYR:539:C:9839, V-B:PRO:540:CB:9857, V-B:PRO:540:N:9856, V-B:PRO:540:CA:9855, V-B:PRO:540:C:9853, V-A:PRO:482:CG:4327"]

$$$$
1h_Grossjean_2025
     RDKit          3D

 28 29  0  0  0  0  0  0  0  0999 V2000
  131.2350  123.1910   72.1880 C   0  0  0  0  0  0  0  0  0  0  0  0
  129.8460  123.4530   72.0210 O   0  0  0  0  0  0  0  0  0  0  0  0
  129.4470  124.5860   71.3350 C   0  0  0  0  0  0  0  0  0  0  0  0
  129.5590  124.7400   69.9450 C   0  0  0  0  0  0  0  0  0  0  0  0
  129.1480  125.9190   69.3210 C   0  0  0  0  0  0  0  0  0  0  0  0
  129.2550  126.0650   67.8060 C   0  0  0  0  0  0  0  0  0  0  0  0
  129.2360  124.7940   67.0830 N   0  0  0  0  0  0  0  0  0  0  0  0
  129.6340  124.6170   65.8100 C   0  0  0  0  0  0  0  0  0  0  0  0
  130.0910  125.5180   65.1060 O   0  0  0  0  0  0  0  0  0  0  0  0
  129.4890  123.2060   65.2400 C   0  0  0  0  0  0  0  0  0  0  0  0
  131.1000  122.3900   65.0260 S   0  0  0  0  0  0  0  0  0  0  0  0
  131.4250  122.2570   63.2750 C   0  0  0  0  0  0  0  0  0  0  0  0
  130.6360  121.3860   62.5930 N   0  0  0  0  0  0  0  0  0  0  0  0
  130.8270  121.2400   61.2610 C   0  0  0  0  0  0  0  0  0  0  0  0
  129.9040  120.2540   60.5690 C   0  0  0  0  0  0  0  0  0  0  0  0
  131.8020  121.9450   60.5590 C   0  0  0  0  0  0  0  0  0  0  0  0
  132.6220  122.8420   61.2500 C   0  0  0  0  0  0  0  0  0  0  0  0
  133.6830  123.6060   60.4610 C   0  0  0  0  0  0  0  0  0  0  0  0
  132.4400  123.0110   62.6420 C   0  0  0  0  0  0  0  0  0  0  0  0
  133.2870  123.9420   63.3930 C   0  0  0  0  0  0  0  0  0  0  0  0
  133.9560  124.6780   63.9860 N   0  0  0  0  0  0  0  0  0  0  0  0
  128.5850  126.9420   70.0840 C   0  0  0  0  0  0  0  0  0  0  0  0
  128.4550  126.8120   71.4760 C   0  0  0  0  0  0  0  0  0  0  0  0
  127.9090  127.7850   72.2950 O   0  0  0  0  0  0  0  0  0  0  0  0
  126.6590  127.5420   72.9310 C   0  0  0  0  0  0  0  0  0  0  0  0
  128.9000  125.6330   72.0910 C   0  0  0  0  0  0  0  0  0  0  0  0
  128.7740  125.4900   73.4520 O   0  0  0  0  0  0  0  0  0  0  0  0
  129.8840  125.9800   74.1900 C   0  0  0  0  0  0  0  0  0  0  0  0
  1  2  1  0
  2  3  1  0
  3  4  2  0
  4  5  1  0
  5  6  1  0
  6  7  1  0
  7  8  1  0
  8  9  2  0
  8 10  1  0
 10 11  1  0
 11 12  1  0
 12 13  2  0
 13 14  1  0
 14 15  1  0
 14 16  2  0
 16 17  1  0
 17 18  1  0
 17 19  2  0
 19 20  1  0
 20 21  3  0
  5 22  2  0
 22 23  1  0
 23 24  1  0
 24 25  1  0
 23 26  2  0
 26 27  1  0
 27 28  1  0
 26  3  1  0
 19 12  1  0
M  END
>  <Binding energies>  (9) 
[-7.27]

>  <Ligand effiencies>  (9) 
[-0.25068965517241376]

>  <Interactions>  (9) 
["V-A:HIS:456:CE1:4069, V-A:TYR:484:CZ:4347, V-A:TYR:484:CE1:4345, V-B:HIS:456:CE1:9040, V-A:TYR:484:CG:4342, V-A:HIS:456:CB:4065, V-A:HIS:456:CG:4066, V-A:TYR:484:CE2:4346, V-A:TYR:484:CD2:4344, H-B:LYS:547:NZ:9923, V-B:GLU:543:C:9874, V-A:HIS:456:CD2:4068, V-B:HIS:456:CD2:9039, V-B:HIS:456:CB:9036, V-B:HIS:456:CG:9037, H-B:GLU:543:O:9875, V-B:GLU:543:CB:9878, V-B:ALA:541:CB:9864, H-A:TYR:484:OH:4348, V-A:ILE:369:CD1:3239, H-A:GLY:454:N:4050, V-A:LEU:475:CD1:4258, V-B:TYR:539:CE2:9848, V-A:GLY:454:CA:4049, V-B:TYR:539:CD2:9846, H-A:ARG:545:NH2:4928, V-A:ASP:366:CG:3213, H-B:HIS:456:NE2:9041, V-B:GLU:543:CA:9876, V-B:GLU:543:CG:9879"]

$$$$
1i_Grossjean_2025
     RDKit          3D

 20 21  0  0  0  0  0  0  0  0999 V2000
  127.9390  130.5620   65.5530 C   0  0  0  0  0  0  0  0  0  0  0  0
  128.3340  129.1680   66.0030 C   0  0  0  0  0  0  0  0  0  0  0  0
  128.4920  128.1250   65.0930 C   0  0  0  0  0  0  0  0  0  0  0  0
  128.8680  126.8630   65.5650 C   0  0  0  0  0  0  0  0  0  0  0  0
  129.0520  125.7390   64.5460 C   0  0  0  0  0  0  0  0  0  0  0  0
  129.0710  126.6750   66.9520 C   0  0  0  0  0  0  0  0  0  0  0  0
  129.5130  125.3750   67.4610 C   0  0  0  0  0  0  0  0  0  0  0  0
  129.8640  124.3470   67.8620 N   0  0  0  0  0  0  0  0  0  0  0  0
  128.8630  127.7850   67.8050 C   0  0  0  0  0  0  0  0  0  0  0  0
  129.0720  127.7270   69.5710 S   0  0  0  0  0  0  0  0  0  0  0  0
  127.7990  126.6150   70.2390 C   0  0  0  0  0  0  0  0  0  0  0  0
  128.3640  125.6600   71.2930 C   0  0  0  0  0  0  0  0  0  0  0  0
  128.2210  125.9250   72.4870 O   0  0  0  0  0  0  0  0  0  0  0  0
  128.9920  124.5650   70.8090 N   0  0  0  0  0  0  0  0  0  0  0  0
  129.5940  123.5500   71.5390 C   0  0  0  0  0  0  0  0  0  0  0  0
  130.8500  123.6800   72.1300 C   0  0  0  0  0  0  0  0  0  0  0  0
  131.0810  122.4730   72.7480 C   0  0  0  0  0  0  0  0  0  0  0  0
  130.0200  121.6580   72.5390 O   0  0  0  0  0  0  0  0  0  0  0  0
  129.0840  122.3520   71.7700 N   0  0  0  0  0  0  0  0  0  0  0  0
  128.5190  129.0100   67.3350 N   0  0  0  0  0  0  0  0  0  0  0  0
  1  2  1  0
  2  3  2  0
  3  4  1  0
  4  5  1  0
  4  6  2  0
  6  7  1  0
  7  8  3  0
  6  9  1  0
  9 10  1  0
 10 11  1  0
 11 12  1  0
 12 13  2  0
 12 14  1  0
 14 15  1  0
 15 16  1  0
 16 17  2  0
 17 18  1  0
 18 19  1  0
  9 20  2  0
 20  2  1  0
 19 15  2  0
M  END
>  <Binding energies>  (10) 
[-7.06]

>  <Ligand effiencies>  (10) 
[-0.33619047619047615]

>  <Interactions>  (10) 
["V-A:HIS:456:CE1:4069, V-A:TYR:484:CE1:4345, V-B:HIS:456:CE1:9040, V-A:TYR:484:CG:4342, V-A:HIS:456:CB:4065, V-A:TYR:484:CD1:4343, V-A:HIS:456:CG:4066, V-A:TYR:484:CE2:4346, V-A:TYR:484:CD2:4344, H-B:LYS:547:NZ:9923, V-B:GLU:543:C:9874, V-A:HIS:456:CD2:4068, H-B:GLU:543:O:9875, V-A:GLU:543:CG:4907, V-A:GLU:543:CB:4906, V-A:GLU:543:CD:4908, V-B:GLU:543:CB:9878, H-A:TYR:484:OH:4348, V-B:GLU:543:CD:9880, V-B:GLY:544:C:9884, H-B:HIS:456:NE2:9041, H-A:HIS:456:NE2:4070, V-B:TYR:484:CE1:9316, V-B:TYR:484:CZ:9318, V-B:GLU:543:CG:9879, V-A:ASP:473:CB:4239, V-A:TYR:484:CB:4341, V-B:GLY:544:CA:9886"]

$$$$
1k_Grossjean_2025
     RDKit          3D

 25 25  0  0  0  0  0  0  0  0999 V2000
  130.9760  122.4640   72.7280 C   0  0  0  0  0  0  0  0  0  0  0  0
  129.6830  122.4350   72.1440 O   0  0  0  0  0  0  0  0  0  0  0  0
  129.5320  123.3400   71.0580 C   0  0  0  0  0  0  0  0  0  0  0  0
  129.7870  124.7720   71.5450 C   0  0  0  0  0  0  0  0  0  0  0  0
  128.6610  125.2290   72.2830 O   0  0  0  0  0  0  0  0  0  0  0  0
  128.0740  126.4120   71.7570 C   0  0  0  0  0  0  0  0  0  0  0  0
  127.9900  126.3030   70.2290 C   0  0  0  0  0  0  0  0  0  0  0  0
  126.6660  126.5980   69.8050 O   0  0  0  0  0  0  0  0  0  0  0  0
  126.4880  126.5280   68.3960 C   0  0  0  0  0  0  0  0  0  0  0  0
  127.7530  127.0520   67.6890 C   0  0  0  0  0  0  0  0  0  0  0  0
  128.1800  126.2360   66.5520 N   0  0  0  0  0  0  0  0  0  0  0  0
  129.3330  125.5480   66.4800 C   0  0  0  0  0  0  0  0  0  0  0  0
  130.1630  125.5300   67.3910 O   0  0  0  0  0  0  0  0  0  0  0  0
  129.5640  124.7750   65.1720 C   0  0  0  0  0  0  0  0  0  0  0  0
  130.1340  123.0500   65.3640 S   0  0  0  0  0  0  0  0  0  0  0  0
  130.9190  122.5200   63.8480 C   0  0  0  0  0  0  0  0  0  0  0  0
  130.1870  121.6870   63.0620 N   0  0  0  0  0  0  0  0  0  0  0  0
  130.7260  121.2400   61.9050 C   0  0  0  0  0  0  0  0  0  0  0  0
  129.8520  120.3080   61.0880 C   0  0  0  0  0  0  0  0  0  0  0  0
  132.0010  121.6050   61.4790 C   0  0  0  0  0  0  0  0  0  0  0  0
  132.7610  122.4680   62.2750 C   0  0  0  0  0  0  0  0  0  0  0  0
  134.1570  122.8560   61.7900 C   0  0  0  0  0  0  0  0  0  0  0  0
  132.2190  122.9430   63.4900 C   0  0  0  0  0  0  0  0  0  0  0  0
  132.9950  123.8450   64.3460 C   0  0  0  0  0  0  0  0  0  0  0  0
  133.6090  124.5570   65.0210 N   0  0  0  0  0  0  0  0  0  0  0  0
  1  2  1  0
  2  3  1  0
  3  4  1  0
  4  5  1  0
  5  6  1  0
  6  7  1  0
  7  8  1  0
  8  9  1  0
  9 10  1  0
 10 11  1  0
 11 12  1  0
 12 13  2  0
 12 14  1  0
 14 15  1  0
 15 16  1  0
 16 17  2  0
 17 18  1  0
 18 19  1  0
 18 20  2  0
 20 21  1  0
 21 22  1  0
 21 23  2  0
 23 24  1  0
 24 25  3  0
 23 16  1  0
M  END
>  <Binding energies>  (11) 
[-6.59]

>  <Ligand effiencies>  (11) 
[-0.25346153846153846]

>  <Interactions>  (11) 
["H-B:GLU:543:OE1:9881, V-A:TYR:484:CZ:4347, V-A:TYR:484:CE1:4345, V-B:HIS:456:CE1:9040, V-A:TYR:484:CG:4342, V-A:TYR:484:CD1:4343, V-A:HIS:456:CG:4066, V-A:TYR:484:CE2:4346, V-A:TYR:484:CD2:4344, H-B:LYS:547:NZ:9923, V-B:GLU:543:C:9874, V-A:HIS:456:CD2:4068, V-B:GLU:543:CB:9878, V-B:ALA:541:CB:9864, H-A:TYR:484:OH:4348, V-A:ILE:369:CD1:3239, H-A:GLY:454:N:4050, V-B:GLU:543:CD:9880, V-A:LEU:475:CD1:4258, V-A:GLY:454:CA:4049, V-B:TYR:539:CD2:9846, V-B:GLY:544:C:9884, H-A:HIS:456:NE2:4070, V-B:GLU:543:CG:9879, V-B:ARG:545:CG:9894, V-A:ASP:473:CB:4239, V-A:TYR:484:CB:4341, H-B:ARG:545:N:9892, V-B:ARG:545:CA:9891"]

$$$$
1l_Grossjean_2025
     RDKit          3D

 17 17  0  0  0  0  0  0  0  0999 V2000
  135.0920  125.0960   66.6950 C   0  0  0  0  0  0  0  0  0  0  0  0
  134.7390  125.4360   65.3620 O   0  0  0  0  0  0  0  0  0  0  0  0
  133.3530  125.5250   65.2440 N   0  0  0  0  0  0  0  0  0  0  0  0
  132.6910  124.5590   64.5790 C   0  0  0  0  0  0  0  0  0  0  0  0
  133.1960  123.4800   64.2580 O   0  0  0  0  0  0  0  0  0  0  0  0
  131.2260  124.8810   64.2490 C   0  0  0  0  0  0  0  0  0  0  0  0
  130.0000  124.1490   65.3860 S   0  0  0  0  0  0  0  0  0  0  0  0
  129.4790  125.4140   66.5310 C   0  0  0  0  0  0  0  0  0  0  0  0
  129.5160  125.0710   67.8460 N   0  0  0  0  0  0  0  0  0  0  0  0
  129.1320  125.9830   68.7700 C   0  0  0  0  0  0  0  0  0  0  0  0
  129.2010  125.5270   70.2150 C   0  0  0  0  0  0  0  0  0  0  0  0
  128.7020  127.2630   68.4290 C   0  0  0  0  0  0  0  0  0  0  0  0
  128.6610  127.6290   67.0790 C   0  0  0  0  0  0  0  0  0  0  0  0
  128.1860  129.0380   66.7280 C   0  0  0  0  0  0  0  0  0  0  0  0
  129.0560  126.6920   66.0990 C   0  0  0  0  0  0  0  0  0  0  0  0
  129.0230  127.0480   64.6760 C   0  0  0  0  0  0  0  0  0  0  0  0
  128.9960  127.3300   63.5550 N   0  0  0  0  0  0  0  0  0  0  0  0
  1  2  1  0
  2  3  1  0
  3  4  1  0
  4  5  2  0
  4  6  1  0
  6  7  1  0
  7  8  1  0
  8  9  2  0
  9 10  1  0
 10 11  1  0
 10 12  2  0
 12 13  1  0
 13 14  1  0
 13 15  2  0
 15 16  1  0
 16 17  3  0
 15  8  1  0
M  END
>  <Binding energies>  (12) 
[-5.83]

>  <Ligand effiencies>  (12) 
[-0.3238888888888889]

>  <Interactions>  (12) 
["V-A:HIS:456:CE1:4069, V-B:HIS:456:CE1:9040, V-A:HIS:456:CD2:4068, V-A:GLU:543:CB:4906, V-A:GLU:543:CD:4908, V-B:GLU:543:CB:9878, H-A:GLU:543:OE2:4910, H-A:TYR:484:OH:4348, H-A:GLY:454:N:4050, V-B:GLU:543:CD:9880, V-A:ARG:545:CZ:4926, V-A:GLY:453:C:4042, H-A:ARG:545:NH2:4928, H-A:ARG:545:NE:4924, V-A:GLY:453:CA:4044, V-A:ARG:545:CG:4922, V-A:ARG:545:CD:4923, H-A:ARG:545:NH1:4927, V-A:ILE:455:C:4052, V-A:ARG:545:CB:4921"]

$$$$
1m_Grossjean_2025
     RDKit          3D

 20 20  0  0  0  0  0  0  0  0999 V2000
  132.5960  122.7080   64.6060 C   0  0  0  0  0  0  0  0  0  0  0  0
  133.2940  123.8920   64.2460 O   0  0  0  0  0  0  0  0  0  0  0  0
  133.5980  124.8180   65.1780 C   0  0  0  0  0  0  0  0  0  0  0  0
  134.7390  125.1290   65.5350 O   0  0  0  0  0  0  0  0  0  0  0  0
  132.3290  125.4750   65.7590 C   0  0  0  0  0  0  0  0  0  0  0  0
  131.2850  125.6930   64.7460 N   0  0  0  0  0  0  0  0  0  0  0  0
  130.1550  124.9720   64.6140 C   0  0  0  0  0  0  0  0  0  0  0  0
  129.8800  124.0160   65.3420 O   0  0  0  0  0  0  0  0  0  0  0  0
  129.2190  125.4110   63.4820 C   0  0  0  0  0  0  0  0  0  0  0  0
  130.0030  125.5010   61.8350 S   0  0  0  0  0  0  0  0  0  0  0  0
  130.8700  123.9720   61.5550 C   0  0  0  0  0  0  0  0  0  0  0  0
  132.2190  124.1140   61.5040 N   0  0  0  0  0  0  0  0  0  0  0  0
  132.9830  123.0160   61.3010 C   0  0  0  0  0  0  0  0  0  0  0  0
  134.4810  123.2500   61.2760 C   0  0  0  0  0  0  0  0  0  0  0  0
  132.4400  121.7440   61.1300 C   0  0  0  0  0  0  0  0  0  0  0  0
  131.0500  121.5890   61.1540 C   0  0  0  0  0  0  0  0  0  0  0  0
  130.4780  120.1880   60.9480 C   0  0  0  0  0  0  0  0  0  0  0  0
  130.2320  122.7220   61.3630 C   0  0  0  0  0  0  0  0  0  0  0  0
  128.7730  122.5910   61.3420 C   0  0  0  0  0  0  0  0  0  0  0  0
  127.6210  122.4870   61.3260 N   0  0  0  0  0  0  0  0  0  0  0  0
  1  2  1  0
  2  3  1  0
  3  4  2  0
  3  5  1  0
  5  6  1  0
  6  7  1  0
  7  8  2  0
  7  9  1  0
  9 10  1  0
 10 11  1  0
 11 12  2  0
 12 13  1  0
 13 14  1  0
 13 15  2  0
 15 16  1  0
 16 17  1  0
 16 18  2  0
 18 19  1  0
 19 20  3  0
 18 11  1  0
M  END
>  <Binding energies>  (13) 
[-5.34]

>  <Ligand effiencies>  (13) 
[-0.2542857142857143]

>  <Interactions>  (13) 
["V-A:HIS:456:CE1:4069, V-A:TYR:484:CZ:4347, V-A:GLU:543:CD:4908, V-B:ALA:541:CB:9864, H-A:GLU:543:OE2:4910, H-A:TYR:484:OH:4348, V-A:ILE:369:CD1:3239, H-A:GLY:454:N:4050, V-B:GLU:543:CD:9880, V-A:ARG:545:CZ:4926, V-A:LEU:475:CD1:4258, V-B:TYR:539:CE2:9848, V-A:GLY:454:CA:4049, V-B:TYR:539:CD2:9846, H-A:ARG:545:NE:4924, V-B:GLU:543:CG:9879, H-B:ALA:541:N:9863, H-A:GLU:543:OE1:4909"]

$$$$
1n_Grossjean_2025
     RDKit          3D

 27 28  0  0  0  0  0  0  0  0999 V2000
  126.2260  126.9580   73.9000 C   0  0  0  0  0  0  0  0  0  0  0  0
  127.3900  126.9020   74.8940 C   0  0  0  0  0  0  0  0  0  0  0  0
  128.3110  125.8990   74.4860 O   0  0  0  0  0  0  0  0  0  0  0  0
  129.4580  126.2220   73.8350 C   0  0  0  0  0  0  0  0  0  0  0  0
  130.4730  126.6300   74.4070 O   0  0  0  0  0  0  0  0  0  0  0  0
  129.3730  126.0230   72.3490 C   0  0  0  0  0  0  0  0  0  0  0  0
  128.7940  126.9820   71.5030 C   0  0  0  0  0  0  0  0  0  0  0  0
  128.7280  126.7650   70.1300 C   0  0  0  0  0  0  0  0  0  0  0  0
  129.2290  125.5870   69.5750 C   0  0  0  0  0  0  0  0  0  0  0  0
  129.1050  125.4690   68.1760 N   0  0  0  0  0  0  0  0  0  0  0  0
  129.4400  126.3430   67.2030 C   0  0  0  0  0  0  0  0  0  0  0  0
  129.9440  127.4520   67.3820 O   0  0  0  0  0  0  0  0  0  0  0  0
  129.1550  125.8790   65.7690 C   0  0  0  0  0  0  0  0  0  0  0  0
  130.3450  125.1330   65.1260 C   0  0  0  0  0  0  0  0  0  0  0  0
  130.2210  123.3210   65.1880 S   0  0  0  0  0  0  0  0  0  0  0  0
  131.0840  122.6720   63.7730 C   0  0  0  0  0  0  0  0  0  0  0  0
  130.3670  121.7570   63.0730 N   0  0  0  0  0  0  0  0  0  0  0  0
  130.9190  121.2080   61.9650 C   0  0  0  0  0  0  0  0  0  0  0  0
  130.0560  120.2020   61.2280 C   0  0  0  0  0  0  0  0  0  0  0  0
  132.1960  121.5400   61.5180 C   0  0  0  0  0  0  0  0  0  0  0  0
  132.9510  122.4670   62.2450 C   0  0  0  0  0  0  0  0  0  0  0  0
  134.3530  122.8050   61.7430 C   0  0  0  0  0  0  0  0  0  0  0  0
  132.3970  123.0500   63.4070 C   0  0  0  0  0  0  0  0  0  0  0  0
  133.1890  123.9830   64.2110 C   0  0  0  0  0  0  0  0  0  0  0  0
  133.8160  124.7190   64.8460 N   0  0  0  0  0  0  0  0  0  0  0  0
  129.8180  124.6290   70.4120 C   0  0  0  0  0  0  0  0  0  0  0  0
  129.8860  124.8490   71.7850 C   0  0  0  0  0  0  0  0  0  0  0  0
  1  2  1  0
  2  3  1  0
  3  4  1  0
  4  5  2  0
  4  6  1  0
  6  7  2  0
  7  8  1  0
  8  9  2  0
  9 10  1  0
 10 11  1  0
 11 12  2  0
 11 13  1  0
 13 14  1  0
 14 15  1  0
 15 16  1  0
 16 17  2  0
 17 18  1  0
 18 19  1  0
 18 20  2  0
 20 21  1  0
 21 22  1  0
 21 23  2  0
 23 24  1  0
 24 25  3  0
  9 26  1  0
 26 27  2  0
 27  6  1  0
 23 16  1  0
M  END
>  <Binding energies>  (14) 
[-8.26]

>  <Ligand effiencies>  (14) 
[-0.295]

>  <Interactions>  (14) 
["V-A:HIS:456:CE1:4069, V-A:TYR:484:CZ:4347, V-A:TYR:484:CE1:4345, V-B:HIS:456:CE1:9040, V-A:HIS:456:CG:4066, H-B:LYS:547:NZ:9923, V-B:GLU:543:C:9874, V-A:HIS:456:CD2:4068, H-A:LYS:547:NZ:4951, H-B:GLU:543:O:9875, V-B:GLU:543:CB:9878, V-B:ALA:541:CB:9864, H-A:TYR:484:OH:4348, V-A:ILE:369:CD1:3239, H-A:GLY:454:N:4050, V-B:GLU:543:CD:9880, V-A:LEU:475:CD1:4258, V-A:GLY:454:CA:4049, V-B:TYR:539:CD2:9846, H-A:ARG:545:NE:4924, H-A:HIS:456:NE2:4070, V-B:GLU:543:CG:9879, V-B:LYS:547:CD:9921"]

$$$$
1q_Grossjean_2025
     RDKit          3D

 21 21  0  0  0  0  0  0  0  0999 V2000
  133.7970  123.6060   62.3440 C   0  0  0  0  0  0  0  0  0  0  0  0
  133.5500  123.3230   63.7130 O   0  0  0  0  0  0  0  0  0  0  0  0
  133.2280  124.3180   64.5750 C   0  0  0  0  0  0  0  0  0  0  0  0
  134.0280  125.0830   65.1180 O   0  0  0  0  0  0  0  0  0  0  0  0
  131.7180  124.4240   64.8770 C   0  0  0  0  0  0  0  0  0  0  0  0
  131.3690  125.6240   65.6530 N   0  0  0  0  0  0  0  0  0  0  0  0
  130.1780  125.8720   66.2300 C   0  0  0  0  0  0  0  0  0  0  0  0
  129.2240  125.0940   66.1680 O   0  0  0  0  0  0  0  0  0  0  0  0
  130.0670  127.1960   67.0010 C   0  0  0  0  0  0  0  0  0  0  0  0
  128.8320  127.2930   67.9180 C   0  0  0  0  0  0  0  0  0  0  0  0
  128.6470  125.8770   69.0420 S   0  0  0  0  0  0  0  0  0  0  0  0
  129.2850  126.3350   70.6410 C   0  0  0  0  0  0  0  0  0  0  0  0
  129.3750  127.6770   70.8210 N   0  0  0  0  0  0  0  0  0  0  0  0
  129.8490  128.1480   71.9980 C   0  0  0  0  0  0  0  0  0  0  0  0
  129.9360  129.6580   72.1180 C   0  0  0  0  0  0  0  0  0  0  0  0
  130.2400  127.3090   73.0400 C   0  0  0  0  0  0  0  0  0  0  0  0
  130.1280  125.9250   72.8760 C   0  0  0  0  0  0  0  0  0  0  0  0
  130.5460  125.0270   74.0400 C   0  0  0  0  0  0  0  0  0  0  0  0
  129.6330  125.4100   71.6560 C   0  0  0  0  0  0  0  0  0  0  0  0
  129.4560  123.9670   71.4880 C   0  0  0  0  0  0  0  0  0  0  0  0
  129.3170  122.8250   71.3590 N   0  0  0  0  0  0  0  0  0  0  0  0
  1  2  1  0
  2  3  1  0
  3  4  2  0
  3  5  1  0
  5  6  1  0
  6  7  1  0
  7  8  2  0
  7  9  1  0
  9 10  1  0
 10 11  1  0
 11 12  1  0
 12 13  2  0
 13 14  1  0
 14 15  1  0
 14 16  2  0
 16 17  1  0
 17 18  1  0
 17 19  2  0
 19 20  1  0
 20 21  3  0
 19 12  1  0
M  END
>  <Binding energies>  (15) 
[-5.88]

>  <Ligand effiencies>  (15) 
[-0.2672727272727273]

>  <Interactions>  (15) 
["V-A:HIS:456:CE1:4069, V-B:HIS:456:CE1:9040, H-B:LYS:547:NZ:9923, V-A:HIS:456:CD2:4068, V-B:HIS:456:CD2:9039, V-A:GLU:543:CG:4907, V-A:GLU:543:CD:4908, H-A:GLU:543:OE2:4910, H-A:TYR:484:OH:4348, H-A:GLY:454:N:4050, V-A:GLY:454:CA:4049, H-A:ARG:545:NE:4924, H-B:HIS:456:NE2:9041, H-A:HIS:456:NE2:4070, V-A:GLU:543:C:4902, V-A:LYS:547:CE:4950, V-A:GLY:544:CA:4914"]

$$$$
2a_Grossjean_2025
     RDKit          3D

 29 30  0  0  0  0  0  0  0  0999 V2000
  132.5870  126.5580   74.4190 C   0  0  0  0  0  0  0  0  0  0  0  0
  131.2340  125.8400   74.4110 C   0  0  0  0  0  0  0  0  0  0  0  0
  130.2420  126.7120   73.8830 O   0  0  0  0  0  0  0  0  0  0  0  0
  129.1160  126.2230   73.3020 C   0  0  0  0  0  0  0  0  0  0  0  0
  128.0560  126.0520   73.9100 O   0  0  0  0  0  0  0  0  0  0  0  0
  129.2850  125.9320   71.8380 C   0  0  0  0  0  0  0  0  0  0  0  0
  129.7940  124.7080   71.3790 C   0  0  0  0  0  0  0  0  0  0  0  0
  129.9400  124.4710   70.0160 C   0  0  0  0  0  0  0  0  0  0  0  0
  129.5880  125.4490   69.0850 C   0  0  0  0  0  0  0  0  0  0  0  0
  129.7900  125.1060   67.7350 N   0  0  0  0  0  0  0  0  0  0  0  0
  129.2280  125.6130   66.6170 C   0  0  0  0  0  0  0  0  0  0  0  0
  128.3720  126.4970   66.5850 O   0  0  0  0  0  0  0  0  0  0  0  0
  129.7200  125.0070   65.2980 C   0  0  0  0  0  0  0  0  0  0  0  0
  130.0170  123.2110   65.3950 S   0  0  0  0  0  0  0  0  0  0  0  0
  130.7440  122.6350   63.8640 C   0  0  0  0  0  0  0  0  0  0  0  0
  129.9310  121.8960   63.0670 N   0  0  0  0  0  0  0  0  0  0  0  0
  130.4180  121.4180   61.9010 C   0  0  0  0  0  0  0  0  0  0  0  0
  129.4580  120.5780   61.0780 C   0  0  0  0  0  0  0  0  0  0  0  0
  131.7210  121.6590   61.4760 C   0  0  0  0  0  0  0  0  0  0  0  0
  132.5770  122.4280   62.2790 C   0  0  0  0  0  0  0  0  0  0  0  0
  134.0160  122.6870   61.7950 C   0  0  0  0  0  0  0  0  0  0  0  0
  134.8590  121.8460   62.3940 F   0  0  0  0  0  0  0  0  0  0  0  0
  134.0910  122.5090   60.4750 F   0  0  0  0  0  0  0  0  0  0  0  0
  134.4330  123.9290   62.0560 F   0  0  0  0  0  0  0  0  0  0  0  0
  132.0800  122.9330   63.5080 C   0  0  0  0  0  0  0  0  0  0  0  0
  132.9320  123.7400   64.3880 C   0  0  0  0  0  0  0  0  0  0  0  0
  133.6040  124.3760   65.0820 N   0  0  0  0  0  0  0  0  0  0  0  0
  129.0710  126.6720   69.5360 C   0  0  0  0  0  0  0  0  0  0  0  0
  128.9220  126.9060   70.9000 C   0  0  0  0  0  0  0  0  0  0  0  0
  1  2  1  0
  2  3  1  0
  3  4  1  0
  4  5  2  0
  4  6  1  0
  6  7  2  0
  7  8  1  0
  8  9  2  0
  9 10  1  0
 10 11  1  0
 11 12  2  0
 11 13  1  0
 13 14  1  0
 14 15  1  0
 15 16  2  0
 16 17  1  0
 17 18  1  0
 17 19  2  0
 19 20  1  0
 20 21  1  0
 21 22  1  0
 21 23  1  0
 21 24  1  0
 20 25  2  0
 25 26  1  0
 26 27  3  0
  9 28  1  0
 28 29  2  0
 29  6  1  0
 25 15  1  0
M  END
>  <Binding energies>  (16) 
[-7.27]

>  <Ligand effiencies>  (16) 
[-0.24233333333333332]

>  <Interactions>  (16) 
["V-A:HIS:456:CE1:4069, V-A:TYR:484:CZ:4347, V-A:TYR:484:CE1:4345, V-B:HIS:456:CE1:9040, V-A:HIS:456:CB:4065, V-A:HIS:456:CG:4066, H-B:LYS:547:NZ:9923, V-A:HIS:456:CD2:4068, H-A:LYS:547:NZ:4951, H-B:GLU:543:O:9875, V-B:GLU:543:CB:9878, V-B:ALA:541:CB:9864, H-A:TYR:484:OH:4348, V-A:ILE:369:CD1:3239, H-A:GLY:454:N:4050, V-B:ALA:541:CA:9862, V-A:LEU:475:CD1:4258, V-A:GLY:454:CA:4049, V-A:GLY:453:C:4042, V-B:TYR:539:CD2:9846, V-A:ILE:369:CB:3236, H-A:HIS:456:ND1:4067, V-A:ILE:369:CG2:3237, V-B:GLU:543:CG:9879, V-A:GLY:453:CA:4044, V-A:ILE:369:CG1:3238, V-A:LYS:547:CE:4950, V-A:LYS:547:CD:4949"]

$$$$
2b_Grossjean_2025
     RDKit          3D

 28 29  0  0  0  0  0  0  0  0999 V2000
  126.9650  126.6810   73.9510 C   0  0  0  0  0  0  0  0  0  0  0  0
  128.1700  125.9400   74.0800 O   0  0  0  0  0  0  0  0  0  0  0  0
  129.3120  126.3510   73.4720 C   0  0  0  0  0  0  0  0  0  0  0  0
  130.2220  126.9420   74.0620 O   0  0  0  0  0  0  0  0  0  0  0  0
  129.3590  126.0170   72.0090 C   0  0  0  0  0  0  0  0  0  0  0  0
  128.9040  126.9110   71.0290 C   0  0  0  0  0  0  0  0  0  0  0  0
  128.9590  126.5700   69.6800 C   0  0  0  0  0  0  0  0  0  0  0  0
  129.4730  125.3360   69.2830 C   0  0  0  0  0  0  0  0  0  0  0  0
  129.4770  125.0920   67.8960 N   0  0  0  0  0  0  0  0  0  0  0  0
  129.8510  125.8980   66.8800 C   0  0  0  0  0  0  0  0  0  0  0  0
  130.2500  127.0570   66.9990 O   0  0  0  0  0  0  0  0  0  0  0  0
  129.7340  125.2820   65.4820 C   0  0  0  0  0  0  0  0  0  0  0  0
  129.9900  123.4770   65.4700 S   0  0  0  0  0  0  0  0  0  0  0  0
  130.6580  122.9660   63.8930 C   0  0  0  0  0  0  0  0  0  0  0  0
  129.7820  122.3650   63.0480 N   0  0  0  0  0  0  0  0  0  0  0  0
  130.2190  121.9480   61.8390 C   0  0  0  0  0  0  0  0  0  0  0  0
  129.1820  121.2760   60.9610 C   0  0  0  0  0  0  0  0  0  0  0  0
  131.5350  122.1160   61.4180 C   0  0  0  0  0  0  0  0  0  0  0  0
  132.4580  122.7410   62.2720 C   0  0  0  0  0  0  0  0  0  0  0  0
  133.9090  122.9230   61.7890 C   0  0  0  0  0  0  0  0  0  0  0  0
  134.7000  122.0200   62.3700 F   0  0  0  0  0  0  0  0  0  0  0  0
  133.9750  122.7680   60.4650 F   0  0  0  0  0  0  0  0  0  0  0  0
  134.4010  124.1310   62.0750 F   0  0  0  0  0  0  0  0  0  0  0  0
  132.0140  123.1780   63.5460 C   0  0  0  0  0  0  0  0  0  0  0  0
  132.9350  123.8310   64.4810 C   0  0  0  0  0  0  0  0  0  0  0  0
  133.6630  124.3470   65.2180 N   0  0  0  0  0  0  0  0  0  0  0  0
  129.9230  124.4330   70.2570 C   0  0  0  0  0  0  0  0  0  0  0  0
  129.8660  124.7740   71.6050 C   0  0  0  0  0  0  0  0  0  0  0  0
  1  2  1  0
  2  3  1  0
  3  4  2  0
  3  5  1  0
  5  6  2  0
  6  7  1  0
  7  8  2  0
  8  9  1  0
  9 10  1  0
 10 11  2  0
 10 12  1  0
 12 13  1  0
 13 14  1  0
 14 15  2  0
 15 16  1  0
 16 17  1  0
 16 18  2  0
 18 19  1  0
 19 20  1  0
 20 21  1  0
 20 22  1  0
 20 23  1  0
 19 24  2  0
 24 25  1  0
 25 26  3  0
  8 27  1  0
 27 28  2  0
 28  5  1  0
 24 14  1  0
M  END
>  <Binding energies>  (17) 
[-7.56]

>  <Ligand effiencies>  (17) 
[-0.26068965517241377]

>  <Interactions>  (17) 
["V-A:HIS:456:CE1:4069, V-A:TYR:484:CZ:4347, V-A:TYR:484:CE1:4345, V-B:HIS:456:CE1:9040, V-A:HIS:456:CG:4066, H-B:LYS:547:NZ:9923, V-B:GLU:543:C:9874, V-A:HIS:456:CD2:4068, H-A:LYS:547:NZ:4951, H-B:GLU:543:O:9875, V-B:GLU:543:CB:9878, V-B:ALA:541:CB:9864, H-A:TYR:484:OH:4348, V-A:ILE:369:CD1:3239, H-A:GLY:454:N:4050, V-A:LEU:475:CD1:4258, V-A:GLY:454:CA:4049, V-A:GLY:453:C:4042, V-B:TYR:539:CD2:9846, V-A:ASP:366:CG:3213, V-A:ILE:369:CB:3236, V-A:ILE:369:CG2:3237, H-A:HIS:456:NE2:4070, V-B:GLU:543:CG:9879, V-A:GLY:453:CA:4044, V-B:LYS:547:CE:9922, V-B:LYS:547:CD:9921"]

$$$$
2c_Grossjean_2025
     RDKit          3D

 26 27  0  0  0  0  0  0  0  0999 V2000
  127.1350  126.9910   73.5290 C   0  0  0  0  0  0  0  0  0  0  0  0
  128.1940  126.0700   73.2850 O   0  0  0  0  0  0  0  0  0  0  0  0
  128.5820  125.8180   71.9840 C   0  0  0  0  0  0  0  0  0  0  0  0
  129.3950  124.7040   71.7810 C   0  0  0  0  0  0  0  0  0  0  0  0
  129.8380  124.3700   70.5040 C   0  0  0  0  0  0  0  0  0  0  0  0
  129.4740  125.1640   69.4070 C   0  0  0  0  0  0  0  0  0  0  0  0
  129.8570  124.8960   68.0800 N   0  0  0  0  0  0  0  0  0  0  0  0
  129.3370  125.3920   66.9360 C   0  0  0  0  0  0  0  0  0  0  0  0
  128.3670  126.1490   66.8780 O   0  0  0  0  0  0  0  0  0  0  0  0
  130.0250  124.9090   65.6500 C   0  0  0  0  0  0  0  0  0  0  0  0
  130.0210  123.1000   65.3890 S   0  0  0  0  0  0  0  0  0  0  0  0
  130.7530  122.7270   63.8010 C   0  0  0  0  0  0  0  0  0  0  0  0
  129.9460  122.0840   62.9180 N   0  0  0  0  0  0  0  0  0  0  0  0
  130.4350  121.7620   61.7010 C   0  0  0  0  0  0  0  0  0  0  0  0
  129.4780  121.0300   60.7800 C   0  0  0  0  0  0  0  0  0  0  0  0
  131.7350  122.0710   61.3080 C   0  0  0  0  0  0  0  0  0  0  0  0
  132.5840  122.7420   62.1990 C   0  0  0  0  0  0  0  0  0  0  0  0
  134.0180  123.0790   61.7480 C   0  0  0  0  0  0  0  0  0  0  0  0
  134.8910  122.2900   62.3760 F   0  0  0  0  0  0  0  0  0  0  0  0
  134.1400  122.8980   60.4330 F   0  0  0  0  0  0  0  0  0  0  0  0
  134.3580  124.3430   62.0130 F   0  0  0  0  0  0  0  0  0  0  0  0
  132.0850  123.0820   63.4820 C   0  0  0  0  0  0  0  0  0  0  0  0
  132.9300  123.7820   64.4560 C   0  0  0  0  0  0  0  0  0  0  0  0
  133.5960  124.3350   65.2240 N   0  0  0  0  0  0  0  0  0  0  0  0
  128.6470  126.2710   69.6020 C   0  0  0  0  0  0  0  0  0  0  0  0
  128.2060  126.6010   70.8800 C   0  0  0  0  0  0  0  0  0  0  0  0
  1  2  1  0
  2  3  1  0
  3  4  2  0
  4  5  1  0
  5  6  2  0
  6  7  1  0
  7  8  1  0
  8  9  2  0
  8 10  1  0
 10 11  1  0
 11 12  1  0
 12 13  2  0
 13 14  1  0
 14 15  1  0
 14 16  2  0
 16 17  1  0
 17 18  1  0
 18 19  1  0
 18 20  1  0
 18 21  1  0
 17 22  2  0
 22 23  1  0
 23 24  3  0
  6 25  1  0
 25 26  2  0
 26  3  1  0
 22 12  1  0
M  END
>  <Binding energies>  (18) 
[-7.15]

>  <Ligand effiencies>  (18) 
[-0.26481481481481484]

>  <Interactions>  (18) 
["V-A:HIS:456:CE1:4069, V-A:TYR:484:CZ:4347, V-A:TYR:484:CE1:4345, V-B:HIS:456:CE1:9040, V-A:HIS:456:CG:4066, H-B:LYS:547:NZ:9923, V-B:GLU:543:C:9874, V-A:HIS:456:CD2:4068, H-B:GLU:543:O:9875, V-B:GLU:543:CB:9878, V-B:ALA:541:CB:9864, H-A:TYR:484:OH:4348, V-A:ILE:369:CD1:3239, H-A:GLY:454:N:4050, V-A:LEU:475:CD1:4258, V-B:TYR:539:CE2:9848, V-A:GLY:454:CA:4049, V-A:GLY:453:C:4042, V-B:TYR:539:CD2:9846, V-A:ASP:366:CG:3213, V-A:ILE:369:CB:3236, H-A:HIS:456:ND1:4067, V-A:ILE:369:CG2:3237, V-A:GLY:453:CA:4044"]

$$$$
2d_Ghoteimi_2023
     RDKit          3D

 38 42  0  0  0  0  0  0  0  0999 V2000
  130.7330  119.1190   61.2780 C   0  0  0  0  0  0  0  0  0  0  0  0
  129.4780  119.7340   61.0300 O   0  0  0  0  0  0  0  0  0  0  0  0
  129.4000  121.0580   60.7840 C   0  0  0  0  0  0  0  0  0  0  0  0
  128.3570  121.7150   60.7220 O   0  0  0  0  0  0  0  0  0  0  0  0
  130.7950  121.6730   60.5920 C   0  0  0  0  0  0  0  0  0  0  0  0
  131.5040  122.2110   62.1860 S   0  0  0  0  0  0  0  0  0  0  0  0
  131.0420  123.9090   62.4590 C   0  0  0  0  0  0  0  0  0  0  0  0
  130.6950  124.1690   63.7440 N   0  0  0  0  0  0  0  0  0  0  0  0
  130.3130  125.4230   64.0950 C   0  0  0  0  0  0  0  0  0  0  0  0
  129.9280  125.6290   65.5250 C   0  0  0  0  0  0  0  0  0  0  0  0
  129.3530  126.8350   65.9410 C   0  0  0  0  0  0  0  0  0  0  0  0
  128.9920  127.0340   67.2710 C   0  0  0  0  0  0  0  0  0  0  0  0
  129.1840  126.0290   68.2310 C   0  0  0  0  0  0  0  0  0  0  0  0
  128.8440  126.2200   69.5750 N   0  0  0  0  0  0  0  0  0  0  0  0
  127.4700  126.5780   69.9810 C   0  0  0  0  0  0  0  0  0  0  0  0
  127.3700  127.1060   71.4270 C   0  0  0  0  0  0  0  0  0  0  0  0
  127.9320  126.1630   72.3260 O   0  0  0  0  0  0  0  0  0  0  0  0
  129.3010  125.9260   72.0440 C   0  0  0  0  0  0  0  0  0  0  0  0
  129.4600  125.3690   70.6130 C   0  0  0  0  0  0  0  0  0  0  0  0
  129.7730  124.8280   67.8130 C   0  0  0  0  0  0  0  0  0  0  0  0
  130.1360  124.6300   66.4840 C   0  0  0  0  0  0  0  0  0  0  0  0
  130.2750  126.4550   63.1540 C   0  0  0  0  0  0  0  0  0  0  0  0
  130.6600  126.2210   61.8280 C   0  0  0  0  0  0  0  0  0  0  0  0
  130.6210  127.3780   60.8840 C   0  0  0  0  0  0  0  0  0  0  0  0
  131.3400  128.5400   61.1680 C   0  0  0  0  0  0  0  0  0  0  0  0
  131.3210  129.6190   60.2890 C   0  0  0  0  0  0  0  0  0  0  0  0
  130.5760  129.5670   59.0990 C   0  0  0  0  0  0  0  0  0  0  0  0
  130.5520  130.6330   58.1950 N   0  0  0  0  0  0  0  0  0  0  0  0
  131.7990  131.2380   57.6860 C   0  0  0  0  0  0  0  0  0  0  0  0
  131.5850  132.1380   56.4500 C   0  0  0  0  0  0  0  0  0  0  0  0
  130.6170  133.1360   56.7380 O   0  0  0  0  0  0  0  0  0  0  0  0
  129.3660  132.5660   57.0900 C   0  0  0  0  0  0  0  0  0  0  0  0
  129.5230  131.6800   58.3440 C   0  0  0  0  0  0  0  0  0  0  0  0
  129.8720  128.3890   58.8140 C   0  0  0  0  0  0  0  0  0  0  0  0
  129.8930  127.3100   59.6930 C   0  0  0  0  0  0  0  0  0  0  0  0
  131.0630  124.9120   61.4630 C   0  0  0  0  0  0  0  0  0  0  0  0
  131.4930  124.6220   60.0920 C   0  0  0  0  0  0  0  0  0  0  0  0
  131.8320  124.3970   59.0080 N   0  0  0  0  0  0  0  0  0  0  0  0
  1  2  1  0
  2  3  1  0
  3  4  2  0
  3  5  1  0
  5  6  1  0
  6  7  1  0
  7  8  2  0
  8  9  1  0
  9 10  1  0
 10 11  2  0
 11 12  1  0
 12 13  2  0
 13 14  1  0
 14 15  1  0
 15 16  1  0
 16 17  1  0
 17 18  1  0
 18 19  1  0
 13 20  1  0
 20 21  2  0
  9 22  2  0
 22 23  1  0
 23 24  1  0
 24 25  2  0
 25 26  1  0
 26 27  2  0
 27 28  1  0
 28 29  1  0
 29 30  1  0
 30 31  1  0
 31 32  1  0
 32 33  1  0
 27 34  1  0
 34 35  2  0
 23 36  2  0
 36 37  1  0
 37 38  3  0
 36  7  1  0
 21 10  1  0
 35 24  1  0
 19 14  1  0
 33 28  1  0
M  END
>  <Binding energies>  (19) 
[-8.28]

>  <Ligand effiencies>  (19) 
[-0.21789473684210525]

>  <Interactions>  (19) 
["V-A:HIS:456:CE1:4069, V-A:TYR:484:CZ:4347, V-A:TYR:484:CE1:4345, V-B:HIS:456:CE1:9040, H-B:LYS:547:NZ:9923, V-B:GLU:543:C:9874, V-A:HIS:456:CD2:4068, V-B:HIS:456:CD2:9039, V-B:HIS:456:CG:9037, V-A:GLU:543:CD:4908, V-B:ALA:541:CB:9864, V-A:LEU:475:CD1:4258, V-B:TYR:539:CE2:9848, V-A:TRP:381:CH2:3372, V-B:TYR:539:CD2:9846, V-A:ASP:366:CG:3213, V-B:GLY:544:C:9884, H-B:TYR:539:OH:9850, H-B:ALA:541:N:9863, V-A:PRO:482:CB:4326, V-A:TRP:381:CZ2:3370, V-A:PRO:482:CG:4327, V-A:PRO:540:CA:4883, V-A:PRO:540:CB:4885, V-A:TYR:539:CD2:4874, V-A:TYR:539:CE2:4876, V-A:TYR:539:C:4867, V-A:TYR:539:CZ:4877, V-A:TYR:539:CE1:4875, V-A:TYR:539:CD1:4873, V-A:TYR:539:CG:4872, V-A:PRO:540:N:4884, H-A:TYR:539:N:4870, V-A:PRO:540:CD:4887"]

$$$$
2d_Grossjean_2025
     RDKit          3D

 24 25  0  0  0  0  0  0  0  0999 V2000
  128.4260  124.1800   61.5540 C   0  0  0  0  0  0  0  0  0  0  0  0
  129.5180  123.1660   61.2730 C   0  0  0  0  0  0  0  0  0  0  0  0
  129.2620  121.7970   61.2790 C   0  0  0  0  0  0  0  0  0  0  0  0
  130.3040  120.8990   61.0080 C   0  0  0  0  0  0  0  0  0  0  0  0
  129.9990  119.3880   61.0090 C   0  0  0  0  0  0  0  0  0  0  0  0
  130.2760  118.8660   59.8140 F   0  0  0  0  0  0  0  0  0  0  0  0
  130.7400  118.7720   61.9320 F   0  0  0  0  0  0  0  0  0  0  0  0
  128.7200  119.1190   61.2780 F   0  0  0  0  0  0  0  0  0  0  0  0
  131.5960  121.4190   60.7410 C   0  0  0  0  0  0  0  0  0  0  0  0
  132.7080  120.5260   60.4070 C   0  0  0  0  0  0  0  0  0  0  0  0
  133.5850  119.8190   60.1410 N   0  0  0  0  0  0  0  0  0  0  0  0
  131.7690  122.8230   60.7810 C   0  0  0  0  0  0  0  0  0  0  0  0
  133.3270  123.6430   60.5020 S   0  0  0  0  0  0  0  0  0  0  0  0
  134.3360  123.5140   62.0160 C   0  0  0  0  0  0  0  0  0  0  0  0
  133.6550  124.1250   63.2440 C   0  0  0  0  0  0  0  0  0  0  0  0
  134.3120  124.8460   63.9950 O   0  0  0  0  0  0  0  0  0  0  0  0
  132.3600  123.7890   63.4210 N   0  0  0  0  0  0  0  0  0  0  0  0
  131.4710  124.1850   64.4380 C   0  0  0  0  0  0  0  0  0  0  0  0
  130.4170  123.3080   64.7050 C   0  0  0  0  0  0  0  0  0  0  0  0
  129.4810  123.6160   65.6890 C   0  0  0  0  0  0  0  0  0  0  0  0
  129.5940  124.8080   66.4010 C   0  0  0  0  0  0  0  0  0  0  0  0
  130.6330  125.6960   66.1340 C   0  0  0  0  0  0  0  0  0  0  0  0
  131.5710  125.3910   65.1520 C   0  0  0  0  0  0  0  0  0  0  0  0
  130.7450  123.6780   61.0240 N   0  0  0  0  0  0  0  0  0  0  0  0
  1  2  1  0
  2  3  2  0
  3  4  1  0
  4  5  1  0
  5  6  1  0
  5  7  1  0
  5  8  1  0
  4  9  2  0
  9 10  1  0
 10 11  3  0
  9 12  1  0
 12 13  1  0
 13 14  1  0
 14 15  1  0
 15 16  2  0
 15 17  1  0
 17 18  1  0
 18 19  2  0
 19 20  1  0
 20 21  2  0
 21 22  1  0
 22 23  2  0
 12 24  2  0
 24  2  1  0
 23 18  1  0
M  END
>  <Binding energies>  (20) 
[-5.64]

>  <Ligand effiencies>  (20) 
[-0.2256]

>  <Interactions>  (20) 
["V-A:HIS:456:CE1:4069, V-A:TYR:484:CZ:4347, V-A:TYR:484:CE1:4345, V-B:GLU:543:CB:9878, V-B:ALA:541:CB:9864, V-A:ILE:369:CD1:3239, H-A:GLY:454:N:4050, V-B:GLU:543:CD:9880, V-B:ALA:541:CA:9862, V-A:LEU:475:CD1:4258, V-B:TYR:539:CE2:9848, V-A:GLY:454:CA:4049, V-A:TRP:381:CH2:3372, V-A:GLY:453:C:4042, V-B:TYR:539:CD2:9846, H-A:ARG:545:NH2:4928, H-A:ARG:545:NE:4924, V-A:ILE:369:CG2:3237, V-B:GLU:543:CA:9876, V-B:GLU:543:CG:9879, V-B:TYR:539:C:9839, V-B:PRO:540:C:9853, V-A:TRP:381:CZ3:3371, V-A:PRO:482:CB:4326, V-A:TRP:381:CZ2:3370, V-A:PRO:482:CG:4327, H-A:ARG:545:NH1:4927, V-B:TYR:539:CG:9844, V-B:TYR:539:CB:9843, V-A:PRO:482:CD:4328"]

$$$$
2e_Grossjean_2025
     RDKit          3D

 25 26  0  0  0  0  0  0  0  0999 V2000
  134.7830  125.1160   66.5480 C   0  0  0  0  0  0  0  0  0  0  0  0
  133.7250  125.1470   65.4620 C   0  0  0  0  0  0  0  0  0  0  0  0
  132.3970  125.4780   65.7430 C   0  0  0  0  0  0  0  0  0  0  0  0
  131.4800  125.4970   64.6910 C   0  0  0  0  0  0  0  0  0  0  0  0
  131.9080  125.1870   63.3970 C   0  0  0  0  0  0  0  0  0  0  0  0
  133.2510  124.8550   63.1870 C   0  0  0  0  0  0  0  0  0  0  0  0
  133.6360  124.5950   61.8610 N   0  0  0  0  0  0  0  0  0  0  0  0
  134.3230  123.5320   61.3850 C   0  0  0  0  0  0  0  0  0  0  0  0
  134.6680  122.5570   62.0550 O   0  0  0  0  0  0  0  0  0  0  0  0
  134.7220  123.6040   59.9080 C   0  0  0  0  0  0  0  0  0  0  0  0
  133.2760  123.5080   58.8040 S   0  0  0  0  0  0  0  0  0  0  0  0
  131.9570  122.8560   59.8040 C   0  0  0  0  0  0  0  0  0  0  0  0
  132.0640  121.5350   60.0890 N   0  0  0  0  0  0  0  0  0  0  0  0
  131.0800  120.9480   60.8070 C   0  0  0  0  0  0  0  0  0  0  0  0
  131.2630  119.4700   61.0910 C   0  0  0  0  0  0  0  0  0  0  0  0
  129.9600  121.6440   61.2580 C   0  0  0  0  0  0  0  0  0  0  0  0
  129.8300  123.0100   60.9630 C   0  0  0  0  0  0  0  0  0  0  0  0
  128.5760  123.7600   61.4510 C   0  0  0  0  0  0  0  0  0  0  0  0
  127.6920  122.8970   61.9530 F   0  0  0  0  0  0  0  0  0  0  0  0
  128.9100  124.6380   62.3970 F   0  0  0  0  0  0  0  0  0  0  0  0
  127.9670  124.4350   60.4730 F   0  0  0  0  0  0  0  0  0  0  0  0
  130.8550  123.6400   60.2170 C   0  0  0  0  0  0  0  0  0  0  0  0
  130.7640  125.0570   59.8500 C   0  0  0  0  0  0  0  0  0  0  0  0
  130.6910  126.1760   59.5610 N   0  0  0  0  0  0  0  0  0  0  0  0
  134.1550  124.8420   64.2100 N   0  0  0  0  0  0  0  0  0  0  0  0
  1  2  1  0
  2  3  2  0
  3  4  1  0
  4  5  2  0
  5  6  1  0
  6  7  1  0
  7  8  1  0
  8  9  2  0
  8 10  1  0
 10 11  1  0
 11 12  1  0
 12 13  2  0
 13 14  1  0
 14 15  1  0
 14 16  2  0
 16 17  1  0
 17 18  1  0
 18 19  1  0
 18 20  1  0
 18 21  1  0
 17 22  2  0
 22 23  1  0
 23 24  3  0
  6 25  2  0
 25  2  1  0
 22 12  1  0
M  END
>  <Binding energies>  (21) 
[-5.9]

>  <Ligand effiencies>  (21) 
[-0.22692307692307695]

>  <Interactions>  (21) 
["V-A:HIS:456:CE1:4069, V-B:ALA:541:CB:9864, V-A:ILE:369:CD1:3239, H-A:GLY:454:N:4050, V-B:GLU:543:CD:9880, V-B:ALA:541:CA:9862, V-A:ARG:545:CZ:4926, V-A:LEU:475:CD1:4258, V-B:TYR:539:CE2:9848, V-A:TRP:381:CH2:3372, V-A:GLY:453:C:4042, V-B:TYR:539:CD2:9846, H-A:ARG:545:NH2:4928, H-A:ARG:545:NE:4924, H-A:ASP:366:OD2:3215, V-A:ASP:366:CG:3213, V-A:ASP:366:CB:3212, H-B:TYR:539:OH:9850, V-A:ILE:369:CB:3236, V-A:ILE:369:CG2:3237, V-A:ASP:366:CA:3210, V-B:GLU:543:CG:9879, V-A:GLY:453:CA:4044, V-A:TRP:381:CZ2:3370, V-A:ARG:545:CG:4922, V-A:ARG:545:CD:4923, H-A:ARG:545:NH1:4927, V-A:ILE:369:CG1:3238, V-A:ILE:455:C:4052, H-A:ASP:366:OD1:3214"]

$$$$
2f_Grossjean_2025
     RDKit          3D

 24 25  0  0  0  0  0  0  0  0999 V2000
  128.2920  124.1200   61.4820 C   0  0  0  0  0  0  0  0  0  0  0  0
  129.4230  123.1370   61.2440 C   0  0  0  0  0  0  0  0  0  0  0  0
  129.2010  121.7620   61.2120 C   0  0  0  0  0  0  0  0  0  0  0  0
  130.2810  120.8930   60.9970 C   0  0  0  0  0  0  0  0  0  0  0  0
  130.0170  119.3750   60.9780 C   0  0  0  0  0  0  0  0  0  0  0  0
  130.8160  118.7590   61.8510 F   0  0  0  0  0  0  0  0  0  0  0  0
  128.7480  119.1310   61.3070 F   0  0  0  0  0  0  0  0  0  0  0  0
  130.2350  118.8270   59.7810 F   0  0  0  0  0  0  0  0  0  0  0  0
  131.5730  121.4500   60.8100 C   0  0  0  0  0  0  0  0  0  0  0  0
  132.7410  120.5820   60.6390 C   0  0  0  0  0  0  0  0  0  0  0  0
  133.6630  119.8960   60.5020 N   0  0  0  0  0  0  0  0  0  0  0  0
  131.7000  122.8590   60.8320 C   0  0  0  0  0  0  0  0  0  0  0  0
  133.2380  123.7280   60.6040 S   0  0  0  0  0  0  0  0  0  0  0  0
  134.2310  123.5280   62.1230 C   0  0  0  0  0  0  0  0  0  0  0  0
  133.6020  124.1150   63.3940 C   0  0  0  0  0  0  0  0  0  0  0  0
  134.2850  124.7530   64.1960 O   0  0  0  0  0  0  0  0  0  0  0  0
  132.2850  123.8530   63.5400 N   0  0  0  0  0  0  0  0  0  0  0  0
  131.4040  124.2410   64.5670 C   0  0  0  0  0  0  0  0  0  0  0  0
  131.4580  125.4560   65.2740 C   0  0  0  0  0  0  0  0  0  0  0  0
  130.5160  125.7200   66.2700 C   0  0  0  0  0  0  0  0  0  0  0  0
  129.5370  124.7610   66.5330 C   0  0  0  0  0  0  0  0  0  0  0  0
  129.4580  123.5850   65.8610 N   0  0  0  0  0  0  0  0  0  0  0  0
  130.3810  123.3440   64.8950 C   0  0  0  0  0  0  0  0  0  0  0  0
  130.6480  123.6820   61.0640 N   0  0  0  0  0  0  0  0  0  0  0  0
  1  2  1  0
  2  3  2  0
  3  4  1  0
  4  5  1  0
  5  6  1  0
  5  7  1  0
  5  8  1  0
  4  9  2  0
  9 10  1  0
 10 11  3  0
  9 12  1  0
 12 13  1  0
 13 14  1  0
 14 15  1  0
 15 16  2  0
 15 17  1  0
 17 18  1  0
 18 19  2  0
 19 20  1  0
 20 21  2  0
 21 22  1  0
 22 23  2  0
 12 24  2  0
 24  2  1  0
 23 18  1  0
M  END
>  <Binding energies>  (22) 
[-5.46]

>  <Ligand effiencies>  (22) 
[-0.2184]

>  <Interactions>  (22) 
["V-A:HIS:456:CE1:4069, V-A:TYR:484:CZ:4347, V-A:TYR:484:CE1:4345, V-B:GLU:543:CB:9878, V-B:ALA:541:CB:9864, H-A:TYR:484:OH:4348, V-A:ILE:369:CD1:3239, H-A:GLY:454:N:4050, V-B:GLU:543:CD:9880, V-B:ALA:541:CA:9862, V-A:LEU:475:CD1:4258, V-B:TYR:539:CE2:9848, V-A:GLY:454:CA:4049, V-A:TRP:381:CH2:3372, V-A:GLY:453:C:4042, V-B:TYR:539:CD2:9846, H-A:ARG:545:NH2:4928, H-A:ARG:545:NE:4924, V-A:ILE:369:CG2:3237, V-B:GLU:543:CA:9876, V-B:GLU:543:CG:9879, V-B:TYR:539:C:9839, V-B:PRO:540:C:9853, V-A:TRP:381:CZ3:3371, V-A:PRO:482:CB:4326, V-A:TRP:381:CZ2:3370, V-A:PRO:482:CG:4327, H-A:ARG:545:NH1:4927, V-B:TYR:539:CG:9844, V-B:TYR:539:CB:9843, V-A:PRO:482:CD:4328"]

$$$$
2g_Grossjean_2025
     RDKit          3D

 25 26  0  0  0  0  0  0  0  0999 V2000
  128.6790  124.3110   61.2660 C   0  0  0  0  0  0  0  0  0  0  0  0
  129.7430  123.2320   61.2090 C   0  0  0  0  0  0  0  0  0  0  0  0
  129.4090  121.8820   61.1250 C   0  0  0  0  0  0  0  0  0  0  0  0
  130.4300  120.9200   61.0820 C   0  0  0  0  0  0  0  0  0  0  0  0
  130.0410  119.4310   60.9990 C   0  0  0  0  0  0  0  0  0  0  0  0
  130.2840  118.9570   59.7760 F   0  0  0  0  0  0  0  0  0  0  0  0
  130.7500  118.7290   61.8840 F   0  0  0  0  0  0  0  0  0  0  0  0
  128.7490  119.2200   61.2590 F   0  0  0  0  0  0  0  0  0  0  0  0
  131.7780  121.3600   61.1170 C   0  0  0  0  0  0  0  0  0  0  0  0
  132.8810  120.3950   61.1320 C   0  0  0  0  0  0  0  0  0  0  0  0
  133.7510  119.6320   61.1440 N   0  0  0  0  0  0  0  0  0  0  0  0
  132.0220  122.7540   61.1710 C   0  0  0  0  0  0  0  0  0  0  0  0
  133.6480  123.4770   61.1960 S   0  0  0  0  0  0  0  0  0  0  0  0
  133.6280  124.8290   62.4210 C   0  0  0  0  0  0  0  0  0  0  0  0
  133.0640  124.4420   63.7950 C   0  0  0  0  0  0  0  0  0  0  0  0
  133.7850  124.3830   64.7920 O   0  0  0  0  0  0  0  0  0  0  0  0
  131.7460  124.1730   63.8230 N   0  0  0  0  0  0  0  0  0  0  0  0
  130.9820  123.7910   65.0120 C   0  0  0  0  0  0  0  0  0  0  0  0
  130.2000  124.9350   65.6500 C   0  0  0  0  0  0  0  0  0  0  0  0
  129.8240  126.0370   64.8770 C   0  0  0  0  0  0  0  0  0  0  0  0
  129.0780  127.0650   65.4480 C   0  0  0  0  0  0  0  0  0  0  0  0
  128.7010  126.9830   66.7870 C   0  0  0  0  0  0  0  0  0  0  0  0
  129.0620  125.8800   67.5590 C   0  0  0  0  0  0  0  0  0  0  0  0
  129.8080  124.8520   66.9890 C   0  0  0  0  0  0  0  0  0  0  0  0
  131.0220  123.6680   61.2350 N   0  0  0  0  0  0  0  0  0  0  0  0
  1  2  1  0
  2  3  2  0
  3  4  1  0
  4  5  1  0
  5  6  1  0
  5  7  1  0
  5  8  1  0
  4  9  2  0
  9 10  1  0
 10 11  3  0
  9 12  1  0
 12 13  1  0
 13 14  1  0
 14 15  1  0
 15 16  2  0
 15 17  1  0
 17 18  1  0
 18 19  1  0
 19 20  2  0
 20 21  1  0
 21 22  2  0
 22 23  1  0
 23 24  2  0
 12 25  2  0
 25  2  1  0
 24 19  1  0
M  END
>  <Binding energies>  (23) 
[-5.77]

>  <Ligand effiencies>  (23) 
[-0.22192307692307692]

>  <Interactions>  (23) 
["V-A:HIS:456:CE1:4069, V-A:TYR:484:CZ:4347, V-A:TYR:484:CE1:4345, V-A:GLU:543:CD:4908, V-B:GLU:543:CB:9878, V-B:ALA:541:CB:9864, H-A:TYR:484:OH:4348, H-A:GLY:454:N:4050, V-B:ALA:541:CA:9862, V-A:ARG:545:CZ:4926, V-A:LEU:475:CD1:4258, V-B:TYR:539:CE2:9848, V-A:TRP:381:CH2:3372, V-B:TYR:539:CD2:9846, V-A:ASP:366:CG:3213, V-B:TYR:539:C:9839, V-B:PRO:540:C:9853, V-A:TRP:381:CZ3:3371, V-A:PRO:482:CB:4326, V-A:TRP:381:CZ2:3370, V-A:PRO:482:CG:4327, V-B:TYR:539:CG:9844, V-B:TYR:539:CB:9843, V-A:PRO:482:CD:4328"]

$$$$
2h_Grossjean_2025
     RDKit          3D

 31 32  0  0  0  0  0  0  0  0999 V2000
  132.2550  122.8860   73.6440 C   0  0  0  0  0  0  0  0  0  0  0  0
  131.4030  123.9790   73.9660 O   0  0  0  0  0  0  0  0  0  0  0  0
  130.6460  124.5670   72.9680 C   0  0  0  0  0  0  0  0  0  0  0  0
  130.1830  123.8860   71.8310 C   0  0  0  0  0  0  0  0  0  0  0  0
  129.4190  124.5450   70.8710 C   0  0  0  0  0  0  0  0  0  0  0  0
  129.1000  125.8950   71.0240 C   0  0  0  0  0  0  0  0  0  0  0  0
  128.2420  126.5910   69.9680 C   0  0  0  0  0  0  0  0  0  0  0  0
  128.5040  126.1310   68.6040 N   0  0  0  0  0  0  0  0  0  0  0  0
  128.7630  126.9330   67.5560 C   0  0  0  0  0  0  0  0  0  0  0  0
  128.7260  128.1630   67.6230 O   0  0  0  0  0  0  0  0  0  0  0  0
  129.1240  126.2180   66.2470 C   0  0  0  0  0  0  0  0  0  0  0  0
  130.5300  125.0610   66.3630 S   0  0  0  0  0  0  0  0  0  0  0  0
  130.7620  124.3700   64.7400 C   0  0  0  0  0  0  0  0  0  0  0  0
  129.6030  124.0550   64.1100 N   0  0  0  0  0  0  0  0  0  0  0  0
  129.6640  123.5050   62.8780 C   0  0  0  0  0  0  0  0  0  0  0  0
  128.3290  123.1710   62.2380 C   0  0  0  0  0  0  0  0  0  0  0  0
  130.8680  123.2530   62.2240 C   0  0  0  0  0  0  0  0  0  0  0  0
  132.0770  123.5910   62.8510 C   0  0  0  0  0  0  0  0  0  0  0  0
  133.4000  123.3140   62.1100 C   0  0  0  0  0  0  0  0  0  0  0  0
  133.1560  123.0710   60.8220 F   0  0  0  0  0  0  0  0  0  0  0  0
  134.2500  124.3410   62.1690 F   0  0  0  0  0  0  0  0  0  0  0  0
  134.0100  122.2550   62.6420 F   0  0  0  0  0  0  0  0  0  0  0  0
  132.0300  124.1760   64.1430 C   0  0  0  0  0  0  0  0  0  0  0  0
  133.2610  124.6010   64.8150 C   0  0  0  0  0  0  0  0  0  0  0  0
  134.2330  124.9390   65.3420 N   0  0  0  0  0  0  0  0  0  0  0  0
  129.5750  126.5950   72.1430 C   0  0  0  0  0  0  0  0  0  0  0  0
  129.2680  127.9250   72.2990 O   0  0  0  0  0  0  0  0  0  0  0  0
  130.2460  128.8180   71.7800 C   0  0  0  0  0  0  0  0  0  0  0  0
  130.3300  125.9240   73.1200 C   0  0  0  0  0  0  0  0  0  0  0  0
  130.7820  126.6010   74.2280 O   0  0  0  0  0  0  0  0  0  0  0  0
  132.1950  126.5890   74.3800 C   0  0  0  0  0  0  0  0  0  0  0  0
  1  2  1  0
  2  3  1  0
  3  4  2  0
  4  5  1  0
  5  6  2  0
  6  7  1  0
  7  8  1  0
  8  9  1  0
  9 10  2  0
  9 11  1  0
 11 12  1  0
 12 13  1  0
 13 14  2  0
 14 15  1  0
 15 16  1  0
 15 17  2  0
 17 18  1  0
 18 19  1  0
 19 20  1  0
 19 21  1  0
 19 22  1  0
 18 23  2  0
 23 24  1  0
 24 25  3  0
  6 26  1  0
 26 27  1  0
 27 28  1  0
 26 29  2  0
 29 30  1  0
 30 31  1  0
 29  3  1  0
 23 13  1  0
M  END
>  <Binding energies>  (24) 
[-6.45]

>  <Ligand effiencies>  (24) 
[-0.2015625]

>  <Interactions>  (24) 
["V-B:HIS:456:CE1:9040, V-A:HIS:456:CB:4065, V-A:HIS:456:CG:4066, H-B:LYS:547:NZ:9923, V-B:GLU:543:C:9874, V-A:HIS:456:CD2:4068, H-A:LYS:547:NZ:4951, H-B:GLU:543:O:9875, V-B:GLU:543:CB:9878, V-B:ALA:541:CB:9864, H-A:TYR:484:OH:4348, V-A:ILE:369:CD1:3239, H-A:GLY:454:N:4050, V-B:GLU:543:CD:9880, V-A:ARG:545:CZ:4926, V-A:LEU:475:CD1:4258, V-A:GLY:454:CA:4049, V-A:GLY:453:C:4042, H-A:ARG:545:NE:4924, V-A:ASP:366:CG:3213, H-B:HIS:456:NE2:9041, V-B:GLU:543:CG:9879, V-A:GLY:453:CA:4044, V-A:ASP:473:CG:4240, V-A:ASP:473:CB:4239, V-A:LYS:547:CE:4950, V-A:GLY:544:CA:4914, V-A:GLY:544:C:4912, V-A:LYS:547:CD:4949"]

$$$$
2i_Grossjean_2025
     RDKit          3D

 23 24  0  0  0  0  0  0  0  0999 V2000
  127.9720  130.5140   65.5840 C   0  0  0  0  0  0  0  0  0  0  0  0
  128.3890  129.1380   66.0690 C   0  0  0  0  0  0  0  0  0  0  0  0
  128.6220  128.0910   65.1810 C   0  0  0  0  0  0  0  0  0  0  0  0
  129.0090  126.8380   65.6780 C   0  0  0  0  0  0  0  0  0  0  0  0
  129.2610  125.6910   64.6820 C   0  0  0  0  0  0  0  0  0  0  0  0
  128.7500  124.5540   65.1560 F   0  0  0  0  0  0  0  0  0  0  0  0
  128.6880  125.9670   63.5100 F   0  0  0  0  0  0  0  0  0  0  0  0
  130.5600  125.4820   64.4530 F   0  0  0  0  0  0  0  0  0  0  0  0
  129.1490  126.6800   67.0810 C   0  0  0  0  0  0  0  0  0  0  0  0
  129.5520  125.3930   67.6550 C   0  0  0  0  0  0  0  0  0  0  0  0
  129.8700  124.3760   68.1090 N   0  0  0  0  0  0  0  0  0  0  0  0
  128.8910  127.7960   67.9100 C   0  0  0  0  0  0  0  0  0  0  0  0
  129.0280  127.7140   69.6880 S   0  0  0  0  0  0  0  0  0  0  0  0
  127.7910  126.5270   70.2960 C   0  0  0  0  0  0  0  0  0  0  0  0
  128.3690  125.5730   71.3430 C   0  0  0  0  0  0  0  0  0  0  0  0
  128.2270  125.8390   72.5380 O   0  0  0  0  0  0  0  0  0  0  0  0
  129.0300  124.4990   70.8600 N   0  0  0  0  0  0  0  0  0  0  0  0
  129.6520  123.5080   71.6010 C   0  0  0  0  0  0  0  0  0  0  0  0
  130.8900  123.5160   72.2600 C   0  0  0  0  0  0  0  0  0  0  0  0
  130.9900  122.2680   72.8310 C   0  0  0  0  0  0  0  0  0  0  0  0
  129.8750  121.5560   72.5400 O   0  0  0  0  0  0  0  0  0  0  0  0
  129.0350  122.3580   71.7640 N   0  0  0  0  0  0  0  0  0  0  0  0
  128.5190  129.0020   67.4070 N   0  0  0  0  0  0  0  0  0  0  0  0
  1  2  1  0
  2  3  2  0
  3  4  1  0
  4  5  1  0
  5  6  1  0
  5  7  1  0
  5  8  1  0
  4  9  2  0
  9 10  1  0
 10 11  3  0
  9 12  1  0
 12 13  1  0
 13 14  1  0
 14 15  1  0
 15 16  2  0
 15 17  1  0
 17 18  1  0
 18 19  1  0
 19 20  2  0
 20 21  1  0
 21 22  1  0
 12 23  2  0
 23  2  1  0
 22 18  2  0
M  END
>  <Binding energies>  (25) 
[-6.76]

>  <Ligand effiencies>  (25) 
[-0.2816666666666667]

>  <Interactions>  (25) 
["V-A:HIS:456:CE1:4069, V-A:TYR:484:CE1:4345, V-B:HIS:456:CE1:9040, V-A:TYR:484:CG:4342, V-A:HIS:456:CB:4065, V-A:TYR:484:CD1:4343, V-A:HIS:456:CG:4066, V-A:TYR:484:CE2:4346, V-A:TYR:484:CD2:4344, H-B:LYS:547:NZ:9923, V-B:GLU:543:C:9874, V-A:HIS:456:CD2:4068, H-B:GLU:543:O:9875, V-A:GLU:543:CG:4907, V-A:GLU:543:CB:4906, V-A:GLU:543:CD:4908, V-B:GLU:543:CB:9878, H-A:TYR:484:OH:4348, V-B:GLU:543:CD:9880, V-B:GLY:544:C:9884, H-B:HIS:456:NE2:9041, H-A:HIS:456:NE2:4070, V-B:GLU:543:CA:9876, V-B:TYR:484:CE1:9316, V-B:TYR:484:CZ:9318, V-B:GLU:543:CG:9879, V-A:ASP:473:CB:4239, V-A:TYR:484:CB:4341, V-B:GLY:544:CA:9886"]

$$$$
2k_Grossjean_2025
     RDKit          3D

 28 28  0  0  0  0  0  0  0  0999 V2000
  126.2360  119.1810   70.6600 C   0  0  0  0  0  0  0  0  0  0  0  0
  127.6130  119.5160   70.7410 O   0  0  0  0  0  0  0  0  0  0  0  0
  127.9340  120.3240   71.8650 C   0  0  0  0  0  0  0  0  0  0  0  0
  128.3450  121.7260   71.3950 C   0  0  0  0  0  0  0  0  0  0  0  0
  129.4890  122.1420   72.1260 O   0  0  0  0  0  0  0  0  0  0  0  0
  130.2390  123.1760   71.4980 C   0  0  0  0  0  0  0  0  0  0  0  0
  131.1070  123.8590   72.5620 C   0  0  0  0  0  0  0  0  0  0  0  0
  130.2420  124.5330   73.4630 O   0  0  0  0  0  0  0  0  0  0  0  0
  130.7820  125.7030   74.0580 C   0  0  0  0  0  0  0  0  0  0  0  0
  130.3420  126.9290   73.2370 C   0  0  0  0  0  0  0  0  0  0  0  0
  129.5010  126.5780   72.0890 N   0  0  0  0  0  0  0  0  0  0  0  0
  129.3300  127.3280   70.9840 C   0  0  0  0  0  0  0  0  0  0  0  0
  129.9000  128.4060   70.8020 O   0  0  0  0  0  0  0  0  0  0  0  0
  128.3480  126.7690   69.9450 C   0  0  0  0  0  0  0  0  0  0  0  0
  129.0990  125.7550   68.6240 S   0  0  0  0  0  0  0  0  0  0  0  0
  128.9690  126.6190   67.0650 C   0  0  0  0  0  0  0  0  0  0  0  0
  128.5590  127.9110   67.1400 N   0  0  0  0  0  0  0  0  0  0  0  0
  128.4340  128.6240   65.9980 C   0  0  0  0  0  0  0  0  0  0  0  0
  127.9600  130.0540   66.1650 C   0  0  0  0  0  0  0  0  0  0  0  0
  128.7210  128.0910   64.7450 C   0  0  0  0  0  0  0  0  0  0  0  0
  129.1540  126.7600   64.6440 C   0  0  0  0  0  0  0  0  0  0  0  0
  129.4720  126.1870   63.2490 C   0  0  0  0  0  0  0  0  0  0  0  0
  130.7560  125.8560   63.1070 F   0  0  0  0  0  0  0  0  0  0  0  0
  128.7480  125.0890   63.0300 F   0  0  0  0  0  0  0  0  0  0  0  0
  129.1840  127.0890   62.3090 F   0  0  0  0  0  0  0  0  0  0  0  0
  129.2820  125.9970   65.8320 C   0  0  0  0  0  0  0  0  0  0  0  0
  129.7270  124.6010   65.7860 C   0  0  0  0  0  0  0  0  0  0  0  0
  130.0790  123.4990   65.7480 N   0  0  0  0  0  0  0  0  0  0  0  0
  1  2  1  0
  2  3  1  0
  3  4  1  0
  4  5  1  0
  5  6  1  0
  6  7  1  0
  7  8  1  0
  8  9  1  0
  9 10  1  0
 10 11  1  0
 11 12  1  0
 12 13  2  0
 12 14  1  0
 14 15  1  0
 15 16  1  0
 16 17  2  0
 17 18  1  0
 18 19  1  0
 18 20  2  0
 20 21  1  0
 21 22  1  0
 22 23  1  0
 22 24  1  0
 22 25  1  0
 21 26  2  0
 26 27  1  0
 27 28  3  0
 26 16  1  0
M  END
>  <Binding energies>  (26) 
[-4.92]

>  <Ligand effiencies>  (26) 
[-0.1696551724137931]

>  <Interactions>  (26) 
["V-A:TYR:484:CZ:4347, V-A:TYR:484:CE1:4345, V-B:HIS:456:CE1:9040, V-A:TYR:484:CG:4342, V-A:HIS:456:CB:4065, V-A:TYR:484:CD1:4343, V-A:HIS:456:CG:4066, V-A:TYR:484:CE2:4346, V-A:TYR:484:CD2:4344, H-B:LYS:547:NZ:9923, V-B:GLU:543:C:9874, V-A:HIS:456:CD2:4068, H-B:GLY:544:O:9885, V-A:GLU:543:CB:4906, V-A:GLU:543:CD:4908, V-B:GLU:543:CB:9878, H-A:TYR:484:OH:4348, V-B:GLU:543:CD:9880, H-B:HIS:456:NE2:9041, H-A:HIS:456:NE2:4070, V-B:GLU:543:CA:9876, V-B:TYR:484:CE1:9316, V-B:TYR:484:CZ:9318, V-B:GLU:543:CG:9879, V-A:TYR:484:CB:4341, V-B:LYS:547:CE:9922, V-B:GLY:544:CA:9886, V-B:VAL:542:C:9866, H-A:TYR:484:N:4340, V-B:VAL:542:CG1:9871, H-A:SER:483:OG:4334"]

$$$$
3aa_Grossjean_2025
     RDKit          3D

 34 36  0  0  0  0  0  0  0  0999 V2000
  127.0320  128.0910   73.6560 C   0  0  0  0  0  0  0  0  0  0  0  0
  126.7480  126.6200   73.9740 C   0  0  0  0  0  0  0  0  0  0  0  0
  127.9780  125.9160   74.0990 O   0  0  0  0  0  0  0  0  0  0  0  0
  129.1170  126.3950   73.5380 C   0  0  0  0  0  0  0  0  0  0  0  0
  129.9110  127.1320   74.1310 O   0  0  0  0  0  0  0  0  0  0  0  0
  129.3100  125.9530   72.1150 C   0  0  0  0  0  0  0  0  0  0  0  0
  128.9440  126.7620   71.0290 C   0  0  0  0  0  0  0  0  0  0  0  0
  129.1410  126.3230   69.7230 C   0  0  0  0  0  0  0  0  0  0  0  0
  129.7110  125.0730   69.4750 C   0  0  0  0  0  0  0  0  0  0  0  0
  129.8700  124.7270   68.1180 N   0  0  0  0  0  0  0  0  0  0  0  0
  129.1490  125.1120   67.0410 C   0  0  0  0  0  0  0  0  0  0  0  0
  128.1660  125.8530   67.0680 O   0  0  0  0  0  0  0  0  0  0  0  0
  129.6190  124.5510   65.6990 C   0  0  0  0  0  0  0  0  0  0  0  0
  130.6030  125.7630   64.7670 S   0  0  0  0  0  0  0  0  0  0  0  0
  131.2870  124.9110   63.3640 C   0  0  0  0  0  0  0  0  0  0  0  0
  130.3710  124.6090   62.4130 N   0  0  0  0  0  0  0  0  0  0  0  0
  130.7600  123.9550   61.2870 C   0  0  0  0  0  0  0  0  0  0  0  0
  129.6910  123.6690   60.2760 C   0  0  0  0  0  0  0  0  0  0  0  0
  129.7060  124.3020   59.0230 C   0  0  0  0  0  0  0  0  0  0  0  0
  128.7160  124.0420   58.0780 C   0  0  0  0  0  0  0  0  0  0  0  0
  127.6980  123.1430   58.3750 C   0  0  0  0  0  0  0  0  0  0  0  0
  127.6630  122.5010   59.6080 C   0  0  0  0  0  0  0  0  0  0  0  0
  128.6540  122.7610   60.5500 C   0  0  0  0  0  0  0  0  0  0  0  0
  132.0970  123.5950   61.0910 C   0  0  0  0  0  0  0  0  0  0  0  0
  133.0610  123.8820   62.0700 C   0  0  0  0  0  0  0  0  0  0  0  0
  134.5210  123.4590   61.8220 C   0  0  0  0  0  0  0  0  0  0  0  0
  134.8120  122.2680   62.3500 F   0  0  0  0  0  0  0  0  0  0  0  0
  134.7620  123.3840   60.5130 F   0  0  0  0  0  0  0  0  0  0  0  0
  135.3510  124.3520   62.3640 F   0  0  0  0  0  0  0  0  0  0  0  0
  132.6470  124.5490   63.2490 C   0  0  0  0  0  0  0  0  0  0  0  0
  133.5990  124.8230   64.3300 C   0  0  0  0  0  0  0  0  0  0  0  0
  134.3500  125.0390   65.1840 N   0  0  0  0  0  0  0  0  0  0  0  0
  130.0670  124.2530   70.5560 C   0  0  0  0  0  0  0  0  0  0  0  0
  129.8680  124.6930   71.8600 C   0  0  0  0  0  0  0  0  0  0  0  0
  1  2  1  0
  2  3  1  0
  3  4  1  0
  4  5  2  0
  4  6  1  0
  6  7  2  0
  7  8  1  0
  8  9  2  0
  9 10  1  0
 10 11  1  0
 11 12  2  0
 11 13  1  0
 13 14  1  0
 14 15  1  0
 15 16  2  0
 16 17  1  0
 17 18  1  0
 18 19  2  0
 19 20  1  0
 20 21  2  0
 21 22  1  0
 22 23  2  0
 17 24  2  0
 24 25  1  0
 25 26  1  0
 26 27  1  0
 26 28  1  0
 26 29  1  0
 25 30  2  0
 30 31  1  0
 31 32  3  0
  9 33  1  0
 33 34  2  0
 34  6  1  0
 30 15  1  0
 23 18  1  0
M  END
>  <Binding energies>  (27) 
[-8.09]

>  <Ligand effiencies>  (27) 
[-0.23114285714285715]

>  <Interactions>  (27) 
["V-A:HIS:456:CE1:4069, V-A:TYR:484:CZ:4347, V-A:TYR:484:CE1:4345, V-A:TYR:484:CD1:4343, V-A:HIS:456:CG:4066, V-A:TYR:484:CE2:4346, H-B:LYS:547:NZ:9923, V-B:GLU:543:C:9874, V-A:HIS:456:CD2:4068, V-B:HIS:456:CD2:9039, V-B:HIS:456:CB:9036, V-B:HIS:456:CG:9037, H-A:LYS:547:NZ:4951, H-B:GLU:543:O:9875, V-B:GLU:543:CB:9878, H-A:TYR:484:OH:4348, V-A:ILE:369:CD1:3239, H-A:GLY:454:N:4050, V-A:ARG:545:CZ:4926, V-B:TYR:539:CE2:9848, V-A:GLY:454:CA:4049, V-A:GLY:453:C:4042, V-B:TYR:539:CD2:9846, H-A:ARG:545:NE:4924, V-A:ASP:366:CG:3213, V-A:ILE:369:CB:3236, H-A:HIS:456:ND1:4067, V-A:ILE:369:CG2:3237, V-B:TYR:539:CZ:9849, V-B:GLU:543:CA:9876, V-B:GLU:543:CG:9879, V-B:TYR:539:C:9839, V-B:PRO:540:N:9856, V-B:PRO:540:CA:9855, V-A:GLY:453:CA:4044, V-B:PRO:540:C:9853, V-B:LYS:547:CE:9922, V-A:ILE:369:CG1:3238, V-B:LYS:547:CD:9921"]

$$$$
3ad_Grossjean_2025
     RDKit          3D

 29 31  0  0  0  0  0  0  0  0999 V2000
  133.0920  124.5550   61.3590 N   0  0  0  0  0  0  0  0  0  0  0  0
  132.4400  124.8580   62.2670 C   0  0  0  0  0  0  0  0  0  0  0  0
  131.6180  125.2400   63.4190 C   0  0  0  0  0  0  0  0  0  0  0  0
  132.1180  125.1190   64.7380 C   0  0  0  0  0  0  0  0  0  0  0  0
  133.5460  124.6300   65.0450 C   0  0  0  0  0  0  0  0  0  0  0  0
  133.9820  125.0210   66.2440 F   0  0  0  0  0  0  0  0  0  0  0  0
  133.5860  123.2960   65.0180 F   0  0  0  0  0  0  0  0  0  0  0  0
  134.3990  125.1060   64.1360 F   0  0  0  0  0  0  0  0  0  0  0  0
  131.2740  125.4540   65.8080 C   0  0  0  0  0  0  0  0  0  0  0  0
  129.9680  125.8940   65.5680 C   0  0  0  0  0  0  0  0  0  0  0  0
  129.0200  126.2510   66.6740 C   0  0  0  0  0  0  0  0  0  0  0  0
  129.2800  125.8590   67.9960 C   0  0  0  0  0  0  0  0  0  0  0  0
  128.4050  126.1870   69.0280 C   0  0  0  0  0  0  0  0  0  0  0  0
  127.2520  126.9160   68.7490 C   0  0  0  0  0  0  0  0  0  0  0  0
  126.9730  127.3190   67.4480 C   0  0  0  0  0  0  0  0  0  0  0  0
  127.8520  126.9890   66.4190 C   0  0  0  0  0  0  0  0  0  0  0  0
  129.4910  126.0030   64.3020 N   0  0  0  0  0  0  0  0  0  0  0  0
  130.2940  125.7050   63.2530 C   0  0  0  0  0  0  0  0  0  0  0  0
  129.5080  125.9170   61.6710 S   0  0  0  0  0  0  0  0  0  0  0  0
  128.0070  124.8920   61.6720 C   0  0  0  0  0  0  0  0  0  0  0  0
  128.3260  123.4000   61.5550 C   0  0  0  0  0  0  0  0  0  0  0  0
  127.4020  122.5860   61.5850 O   0  0  0  0  0  0  0  0  0  0  0  0
  129.6350  123.0960   61.4240 N   0  0  0  0  0  0  0  0  0  0  0  0
  130.2590  121.8430   61.2820 C   0  0  0  0  0  0  0  0  0  0  0  0
  131.6550  121.8480   61.3640 C   0  0  0  0  0  0  0  0  0  0  0  0
  132.3720  120.6620   61.2320 C   0  0  0  0  0  0  0  0  0  0  0  0
  131.6930  119.4670   61.0130 C   0  0  0  0  0  0  0  0  0  0  0  0
  130.3040  119.4480   60.9220 C   0  0  0  0  0  0  0  0  0  0  0  0
  129.5830  120.6320   61.0530 C   0  0  0  0  0  0  0  0  0  0  0  0
  1  2  3  0
  2  3  1  0
  3  4  2  0
  4  5  1  0
  5  6  1  0
  5  7  1  0
  5  8  1  0
  4  9  1  0
  9 10  2  0
 10 11  1  0
 11 12  2  0
 12 13  1  0
 13 14  2  0
 14 15  1  0
 15 16  2  0
 10 17  1  0
 17 18  2  0
 18 19  1  0
 19 20  1  0
 20 21  1  0
 21 22  2  0
 21 23  1  0
 23 24  1  0
 24 25  2  0
 25 26  1  0
 26 27  2  0
 27 28  1  0
 28 29  2  0
 18  3  1  0
 29 24  1  0
 16 11  1  0
M  END
>  <Binding energies>  (28) 
[-7.18]

>  <Ligand effiencies>  (28) 
[-0.23933333333333331]

>  <Interactions>  (28) 
["V-A:HIS:456:CE1:4069, V-A:TYR:484:CZ:4347, V-B:HIS:456:CE1:9040, V-B:GLU:543:C:9874, V-B:GLU:543:CB:9878, V-B:ALA:541:CB:9864, V-B:GLU:543:CD:9880, V-A:ARG:545:CZ:4926, V-A:LEU:475:CD1:4258, V-A:GLY:454:CA:4049, V-A:TRP:381:CH2:3372, V-A:GLY:453:C:4042, V-B:TYR:539:CD2:9846, V-B:GLU:543:CG:9879, V-A:GLY:453:CA:4044, H-B:ALA:541:N:9863, V-B:ARG:545:CG:9894, V-A:PRO:482:CB:4326, V-A:TRP:381:CZ2:3370, V-A:ARG:545:CG:4922, V-A:PRO:482:CG:4327, V-A:ARG:545:CD:4923, V-A:GLY:454:C:4047"]

$$$$
3ai_Grossjean_2025
     RDKit          3D

 28 30  0  0  0  0  0  0  0  0999 V2000
  125.3830  129.1360   67.0700 N   0  0  0  0  0  0  0  0  0  0  0  0
  126.2790  128.4810   66.7430 C   0  0  0  0  0  0  0  0  0  0  0  0
  127.4150  127.6520   66.3290 C   0  0  0  0  0  0  0  0  0  0  0  0
  128.0400  127.8570   65.0740 C   0  0  0  0  0  0  0  0  0  0  0  0
  127.6080  128.9700   64.1010 C   0  0  0  0  0  0  0  0  0  0  0  0
  127.8050  130.1950   64.5950 F   0  0  0  0  0  0  0  0  0  0  0  0
  128.3020  128.8770   62.9660 F   0  0  0  0  0  0  0  0  0  0  0  0
  126.3080  128.8580   63.8230 F   0  0  0  0  0  0  0  0  0  0  0  0
  129.0930  127.0060   64.7030 C   0  0  0  0  0  0  0  0  0  0  0  0
  129.5080  125.9790   65.5570 C   0  0  0  0  0  0  0  0  0  0  0  0
  130.6180  125.0350   65.2080 C   0  0  0  0  0  0  0  0  0  0  0  0
  131.9580  125.4490   65.2760 C   0  0  0  0  0  0  0  0  0  0  0  0
  132.9950  124.5760   64.9580 C   0  0  0  0  0  0  0  0  0  0  0  0
  132.7040  123.2730   64.5660 C   0  0  0  0  0  0  0  0  0  0  0  0
  131.3860  122.8380   64.4920 C   0  0  0  0  0  0  0  0  0  0  0  0
  130.3520  123.7130   64.8120 C   0  0  0  0  0  0  0  0  0  0  0  0
  128.9000  125.7820   66.7550 N   0  0  0  0  0  0  0  0  0  0  0  0
  127.8970  126.6050   67.1460 C   0  0  0  0  0  0  0  0  0  0  0  0
  127.2390  126.2080   68.7520 S   0  0  0  0  0  0  0  0  0  0  0  0
  128.5020  126.6380   69.9970 C   0  0  0  0  0  0  0  0  0  0  0  0
  128.7210  125.5820   71.0910 C   0  0  0  0  0  0  0  0  0  0  0  0
  128.3850  125.8030   72.2570 O   0  0  0  0  0  0  0  0  0  0  0  0
  129.2970  124.4370   70.6620 N   0  0  0  0  0  0  0  0  0  0  0  0
  129.6070  123.3160   71.4200 C   0  0  0  0  0  0  0  0  0  0  0  0
  130.8120  123.1690   72.1070 C   0  0  0  0  0  0  0  0  0  0  0  0
  130.7280  121.9410   72.7200 C   0  0  0  0  0  0  0  0  0  0  0  0
  129.5350  121.3760   72.4200 O   0  0  0  0  0  0  0  0  0  0  0  0
  128.8330  122.2580   71.5960 N   0  0  0  0  0  0  0  0  0  0  0  0
  1  2  3  0
  2  3  1  0
  3  4  2  0
  4  5  1  0
  5  6  1  0
  5  7  1  0
  5  8  1  0
  4  9  1  0
  9 10  2  0
 10 11  1  0
 11 12  2  0
 12 13  1  0
 13 14  2  0
 14 15  1  0
 15 16  2  0
 10 17  1  0
 17 18  2  0
 18 19  1  0
 19 20  1  0
 20 21  1  0
 21 22  2  0
 21 23  1  0
 23 24  1  0
 24 25  1  0
 25 26  2  0
 26 27  1  0
 27 28  1  0
 18  3  1  0
 28 24  2  0
 16 11  1  0
M  END
>  <Binding energies>  (29) 
[-8.16]

>  <Ligand effiencies>  (29) 
[-0.2813793103448276]

>  <Interactions>  (29) 
["V-A:HIS:456:CE1:4069, V-A:TYR:484:CZ:4347, V-A:TYR:484:CE1:4345, V-B:HIS:456:CE1:9040, V-A:TYR:484:CG:4342, V-A:HIS:456:CB:4065, V-A:TYR:484:CD1:4343, V-A:HIS:456:CG:4066, V-A:TYR:484:CE2:4346, V-A:TYR:484:CD2:4344, H-B:LYS:547:NZ:9923, V-B:GLU:543:C:9874, V-A:HIS:456:CD2:4068, H-B:GLU:543:O:9875, V-A:GLU:543:CB:4906, V-A:GLU:543:CD:4908, V-B:GLU:543:CB:9878, V-B:GLU:543:CD:9880, V-A:LEU:475:CD1:4258, V-A:GLY:454:CA:4049, H-B:TYR:484:OH:9319, V-B:ARG:545:CG:9894, V-A:ASP:473:CB:4239, V-A:TYR:484:CB:4341"]

$$$$
3aj_Grossjean_2025
     RDKit          3D

 28 30  0  0  0  0  0  0  0  0999 V2000
  125.4540  128.9070   67.2820 N   0  0  0  0  0  0  0  0  0  0  0  0
  126.3700  128.2860   66.9460 C   0  0  0  0  0  0  0  0  0  0  0  0
  127.5320  127.5010   66.5180 C   0  0  0  0  0  0  0  0  0  0  0  0
  128.1990  127.7980   65.3050 C   0  0  0  0  0  0  0  0  0  0  0  0
  127.7850  128.9690   64.3920 C   0  0  0  0  0  0  0  0  0  0  0  0
  126.5060  128.9010   64.0130 F   0  0  0  0  0  0  0  0  0  0  0  0
  127.9550  130.1270   65.0310 F   0  0  0  0  0  0  0  0  0  0  0  0
  128.5290  128.9710   63.2860 F   0  0  0  0  0  0  0  0  0  0  0  0
  129.2770  126.9870   64.9170 C   0  0  0  0  0  0  0  0  0  0  0  0
  129.6750  125.9090   65.7150 C   0  0  0  0  0  0  0  0  0  0  0  0
  130.8110  125.0060   65.3430 C   0  0  0  0  0  0  0  0  0  0  0  0
  132.1350  125.4690   65.3830 C   0  0  0  0  0  0  0  0  0  0  0  0
  133.1980  124.6340   65.0430 C   0  0  0  0  0  0  0  0  0  0  0  0
  132.9460  123.3210   64.6560 C   0  0  0  0  0  0  0  0  0  0  0  0
  131.6430  122.8390   64.6090 C   0  0  0  0  0  0  0  0  0  0  0  0
  130.5850  123.6760   64.9520 C   0  0  0  0  0  0  0  0  0  0  0  0
  129.0270  125.6240   66.8740 N   0  0  0  0  0  0  0  0  0  0  0  0
  128.0000  126.4060   67.2820 C   0  0  0  0  0  0  0  0  0  0  0  0
  127.2900  125.8950   68.8310 S   0  0  0  0  0  0  0  0  0  0  0  0
  128.0090  126.9360   70.1470 C   0  0  0  0  0  0  0  0  0  0  0  0
  128.7820  126.1710   71.2310 C   0  0  0  0  0  0  0  0  0  0  0  0
  129.0890  126.7180   72.2920 O   0  0  0  0  0  0  0  0  0  0  0  0
  129.0780  124.8900   70.9150 N   0  0  0  0  0  0  0  0  0  0  0  0
  129.7590  123.9770   71.7090 C   0  0  0  0  0  0  0  0  0  0  0  0
  129.6550  122.6650   71.7020 N   0  0  0  0  0  0  0  0  0  0  0  0
  130.4560  122.1090   72.5890 C   0  0  0  0  0  0  0  0  0  0  0  0
  131.2370  122.9810   73.3440 C   0  0  0  0  0  0  0  0  0  0  0  0
  130.8930  124.6130   72.8570 S   0  0  0  0  0  0  0  0  0  0  0  0
  1  2  3  0
  2  3  1  0
  3  4  2  0
  4  5  1  0
  5  6  1  0
  5  7  1  0
  5  8  1  0
  4  9  1  0
  9 10  2  0
 10 11  1  0
 11 12  2  0
 12 13  1  0
 13 14  2  0
 14 15  1  0
 15 16  2  0
 10 17  1  0
 17 18  2  0
 18 19  1  0
 19 20  1  0
 20 21  1  0
 21 22  2  0
 21 23  1  0
 23 24  1  0
 24 25  2  0
 25 26  1  0
 26 27  2  0
 27 28  1  0
 18  3  1  0
 28 24  1  0
 16 11  1  0
M  END
>  <Binding energies>  (30) 
[-7.08]

>  <Ligand effiencies>  (30) 
[-0.24413793103448275]

>  <Interactions>  (30) 
["V-A:HIS:456:CE1:4069, V-A:TYR:484:CZ:4347, V-A:TYR:484:CE1:4345, V-B:HIS:456:CE1:9040, V-A:TYR:484:CG:4342, V-A:HIS:456:CB:4065, V-A:TYR:484:CD1:4343, V-A:HIS:456:CG:4066, V-A:TYR:484:CD2:4344, H-B:LYS:547:NZ:9923, V-A:HIS:456:CD2:4068, H-B:GLU:543:O:9875, V-A:GLU:543:CB:4906, V-A:GLU:543:CD:4908, V-B:GLU:543:CB:9878, V-B:GLU:543:CD:9880, V-A:LEU:475:CD1:4258, V-A:GLY:454:CA:4049, H-B:TYR:484:OH:9319, V-B:ARG:545:CG:9894, V-A:ASP:473:CB:4239, V-A:TYR:484:CB:4341"]

$$$$
3ak_Grossjean_2025
     RDKit          3D

 33 34  0  0  0  0  0  0  0  0999 V2000
  130.9800  122.4890   72.7730 C   0  0  0  0  0  0  0  0  0  0  0  0
  129.7220  122.6800   72.1440 O   0  0  0  0  0  0  0  0  0  0  0  0
  129.8090  123.3640   70.9020 C   0  0  0  0  0  0  0  0  0  0  0  0
  129.7120  124.8740   71.1550 C   0  0  0  0  0  0  0  0  0  0  0  0
  128.6340  125.1250   72.0510 O   0  0  0  0  0  0  0  0  0  0  0  0
  128.4440  126.4890   72.4160 C   0  0  0  0  0  0  0  0  0  0  0  0
  127.5930  127.2870   71.4120 C   0  0  0  0  0  0  0  0  0  0  0  0
  128.1540  127.1520   70.1140 O   0  0  0  0  0  0  0  0  0  0  0  0
  127.2730  126.5690   69.1630 C   0  0  0  0  0  0  0  0  0  0  0  0
  128.0770  125.8540   68.0620 C   0  0  0  0  0  0  0  0  0  0  0  0
  127.8540  126.4030   66.7230 N   0  0  0  0  0  0  0  0  0  0  0  0
  128.3210  127.5800   66.2640 C   0  0  0  0  0  0  0  0  0  0  0  0
  129.0210  128.3300   66.9440 O   0  0  0  0  0  0  0  0  0  0  0  0
  127.9650  128.0090   64.8300 C   0  0  0  0  0  0  0  0  0  0  0  0
  129.1710  127.5710   63.5230 S   0  0  0  0  0  0  0  0  0  0  0  0
  129.0830  125.8120   63.2280 C   0  0  0  0  0  0  0  0  0  0  0  0
  128.4320  125.4390   62.0980 N   0  0  0  0  0  0  0  0  0  0  0  0
  128.3070  124.1230   61.7900 C   0  0  0  0  0  0  0  0  0  0  0  0
  127.5740  123.8010   60.5220 C   0  0  0  0  0  0  0  0  0  0  0  0
  126.4170  124.5090   60.1620 C   0  0  0  0  0  0  0  0  0  0  0  0
  125.7340  124.2170   58.9840 C   0  0  0  0  0  0  0  0  0  0  0  0
  126.2030  123.2110   58.1460 C   0  0  0  0  0  0  0  0  0  0  0  0
  127.3490  122.4970   58.4770 C   0  0  0  0  0  0  0  0  0  0  0  0
  128.0300  122.7910   59.6550 C   0  0  0  0  0  0  0  0  0  0  0  0
  128.8570  123.1380   62.6170 C   0  0  0  0  0  0  0  0  0  0  0  0
  129.5360  123.4960   63.7910 C   0  0  0  0  0  0  0  0  0  0  0  0
  130.1250  122.3820   64.6780 C   0  0  0  0  0  0  0  0  0  0  0  0
  131.3700  122.6950   65.0370 F   0  0  0  0  0  0  0  0  0  0  0  0
  129.3840  122.2320   65.7760 F   0  0  0  0  0  0  0  0  0  0  0  0
  130.1710  121.1990   64.0620 F   0  0  0  0  0  0  0  0  0  0  0  0
  129.6540  124.8700   64.1110 C   0  0  0  0  0  0  0  0  0  0  0  0
  130.3530  125.3030   65.3260 C   0  0  0  0  0  0  0  0  0  0  0  0
  130.9030  125.6460   66.2850 N   0  0  0  0  0  0  0  0  0  0  0  0
  1  2  1  0
  2  3  1  0
  3  4  1  0
  4  5  1  0
  5  6  1  0
  6  7  1  0
  7  8  1  0
  8  9  1  0
  9 10  1  0
 10 11  1  0
 11 12  1  0
 12 13  2  0
 12 14  1  0
 14 15  1  0
 15 16  1  0
 16 17  2  0
 17 18  1  0
 18 19  1  0
 19 20  2  0
 20 21  1  0
 21 22  2  0
 22 23  1  0
 23 24  2  0
 18 25  2  0
 25 26  1  0
 26 27  1  0
 27 28  1  0
 27 29  1  0
 27 30  1  0
 26 31  2  0
 31 32  1  0
 32 33  3  0
 31 16  1  0
 24 19  1  0
M  END
>  <Binding energies>  (31) 
[-5.57]

>  <Ligand effiencies>  (31) 
[-0.1638235294117647]

>  <Interactions>  (31) 
["V-A:HIS:456:CE1:4069, H-B:GLU:543:OE1:9881, V-A:TYR:484:CZ:4347, V-A:TYR:484:CE1:4345, V-B:HIS:456:CE1:9040, V-A:TYR:484:CG:4342, V-A:TYR:484:CD1:4343, V-A:HIS:456:CG:4066, V-A:TYR:484:CE2:4346, V-A:TYR:484:CD2:4344, H-B:LYS:547:NZ:9923, V-B:GLU:543:C:9874, V-A:HIS:456:CD2:4068, V-B:HIS:456:CD2:9039, V-B:HIS:456:CG:9037, V-B:GLU:543:CB:9878, V-B:ALA:541:CB:9864, H-A:TYR:484:OH:4348, V-B:GLU:543:CD:9880, V-A:LEU:475:CD1:4258, V-B:TYR:539:CE2:9848, V-B:TYR:539:CD2:9846, V-B:GLY:544:C:9884, H-B:HIS:456:NE2:9041, V-B:GLU:543:CA:9876, V-B:GLU:543:CG:9879, V-B:TYR:539:C:9839, V-B:PRO:540:CB:9857, V-B:PRO:540:N:9856, V-B:PRO:540:CA:9855, V-A:ASP:473:CB:4239, V-A:TYR:484:CB:4341, V-A:LEU:475:CD2:4259, V-A:LEU:475:CG:4257"]

$$$$
3bk_Grossjean_2025
     RDKit          3D

 30 31  0  0  0  0  0  0  0  0999 V2000
  129.4130  119.8560   74.0340 C   0  0  0  0  0  0  0  0  0  0  0  0
  129.6160  121.0320   73.2660 O   0  0  0  0  0  0  0  0  0  0  0  0
  130.9530  121.5120   73.3080 C   0  0  0  0  0  0  0  0  0  0  0  0
  131.0430  122.8540   72.5660 C   0  0  0  0  0  0  0  0  0  0  0  0
  129.8240  123.0930   71.8770 O   0  0  0  0  0  0  0  0  0  0  0  0
  129.9830  123.8170   70.6640 C   0  0  0  0  0  0  0  0  0  0  0  0
  129.4760  125.2520   70.8610 C   0  0  0  0  0  0  0  0  0  0  0  0
  128.3930  125.4950   69.9730 O   0  0  0  0  0  0  0  0  0  0  0  0
  127.9730  126.8530   69.9380 C   0  0  0  0  0  0  0  0  0  0  0  0
  129.1140  127.7270   69.3980 C   0  0  0  0  0  0  0  0  0  0  0  0
  129.5640  127.2990   68.0720 N   0  0  0  0  0  0  0  0  0  0  0  0
  128.7660  127.0540   67.0190 C   0  0  0  0  0  0  0  0  0  0  0  0
  127.5410  127.1810   67.0450 O   0  0  0  0  0  0  0  0  0  0  0  0
  129.4590  126.6200   65.7250 C   0  0  0  0  0  0  0  0  0  0  0  0
  130.5590  125.1930   65.9870 S   0  0  0  0  0  0  0  0  0  0  0  0
  131.0930  124.5710   64.4010 C   0  0  0  0  0  0  0  0  0  0  0  0
  130.1050  124.2430   63.5290 N   0  0  0  0  0  0  0  0  0  0  0  0
  130.4170  123.7590   62.2980 C   0  0  0  0  0  0  0  0  0  0  0  0
  129.2670  123.4420   61.3910 C   0  0  0  0  0  0  0  0  0  0  0  0
  128.1310  124.2660   61.3570 C   0  0  0  0  0  0  0  0  0  0  0  0
  127.0570  123.9730   60.5200 C   0  0  0  0  0  0  0  0  0  0  0  0
  127.1050  122.8490   59.7030 C   0  0  0  0  0  0  0  0  0  0  0  0
  128.2210  122.0180   59.7140 C   0  0  0  0  0  0  0  0  0  0  0  0
  129.2930  122.3150   60.5510 C   0  0  0  0  0  0  0  0  0  0  0  0
  131.7520  123.5970   61.9090 C   0  0  0  0  0  0  0  0  0  0  0  0
  132.7830  123.9280   62.7940 C   0  0  0  0  0  0  0  0  0  0  0  0
  134.2250  123.7350   62.3290 C   0  0  0  0  0  0  0  0  0  0  0  0
  132.4580  124.4280   64.0730 C   0  0  0  0  0  0  0  0  0  0  0  0
  133.5170  124.7870   65.0210 C   0  0  0  0  0  0  0  0  0  0  0  0
  134.3540  125.0690   65.7700 N   0  0  0  0  0  0  0  0  0  0  0  0
  1  2  1  0
  2  3  1  0
  3  4  1  0
  4  5  1  0
  5  6  1  0
  6  7  1  0
  7  8  1  0
  8  9  1  0
  9 10  1  0
 10 11  1  0
 11 12  1  0
 12 13  2  0
 12 14  1  0
 14 15  1  0
 15 16  1  0
 16 17  2  0
 17 18  1  0
 18 19  1  0
 19 20  2  0
 20 21  1  0
 21 22  2  0
 22 23  1  0
 23 24  2  0
 18 25  2  0
 25 26  1  0
 26 27  1  0
 26 28  2  0
 28 29  1  0
 29 30  3  0
 28 16  1  0
 24 19  1  0
M  END
>  <Binding energies>  (32) 
[-6.47]

>  <Ligand effiencies>  (32) 
[-0.20870967741935484]

>  <Interactions>  (32) 
["V-A:HIS:456:CE1:4069, V-A:TYR:484:CZ:4347, V-A:TYR:484:CE1:4345, V-B:HIS:456:CE1:9040, V-A:TYR:484:CG:4342, V-A:HIS:456:CB:4065, V-A:TYR:484:CD1:4343, V-A:HIS:456:CG:4066, V-A:TYR:484:CE2:4346, V-A:TYR:484:CD2:4344, H-B:LYS:547:NZ:9923, V-A:HIS:456:CD2:4068, V-A:GLU:543:CD:4908, H-A:GLU:543:OE2:4910, H-A:TYR:484:OH:4348, H-A:GLY:454:N:4050, V-B:GLU:543:CD:9880, V-A:ARG:545:CZ:4926, V-B:TYR:539:CE2:9848, V-A:GLY:454:CA:4049, V-A:GLY:453:C:4042, V-B:TYR:539:CD2:9846, H-A:ARG:545:NE:4924, V-B:GLU:543:CG:9879, V-B:TYR:539:C:9839, V-B:PRO:540:CB:9857, V-B:PRO:540:N:9856, V-B:PRO:540:CA:9855, V-B:PRO:540:C:9853, V-A:ASP:473:CG:4240, V-A:ASP:473:CB:4239, V-A:TYR:484:CB:4341"]

$$$$
3cb_Grossjean_2025
     RDKit          3D

 30 32  0  0  0  0  0  0  0  0999 V2000
  127.2930  126.8290   74.5990 C   0  0  0  0  0  0  0  0  0  0  0  0
  128.3850  125.9230   74.5410 O   0  0  0  0  0  0  0  0  0  0  0  0
  129.5130  126.2300   73.8510 C   0  0  0  0  0  0  0  0  0  0  0  0
  130.5510  126.6280   74.3870 O   0  0  0  0  0  0  0  0  0  0  0  0
  129.3720  126.0380   72.3680 C   0  0  0  0  0  0  0  0  0  0  0  0
  128.7050  126.9690   71.5580 C   0  0  0  0  0  0  0  0  0  0  0  0
  128.5940  126.7630   70.1860 C   0  0  0  0  0  0  0  0  0  0  0  0
  129.1420  125.6240   69.5940 C   0  0  0  0  0  0  0  0  0  0  0  0
  128.9750  125.5180   68.1990 N   0  0  0  0  0  0  0  0  0  0  0  0
  129.3050  126.3850   67.2170 C   0  0  0  0  0  0  0  0  0  0  0  0
  129.8580  127.4720   67.3920 O   0  0  0  0  0  0  0  0  0  0  0  0
  128.9510  125.9070   65.8010 C   0  0  0  0  0  0  0  0  0  0  0  0
  129.5360  124.2290   65.3850 S   0  0  0  0  0  0  0  0  0  0  0  0
  131.1020  124.3890   64.5530 C   0  0  0  0  0  0  0  0  0  0  0  0
  132.1260  124.6980   65.3850 N   0  0  0  0  0  0  0  0  0  0  0  0
  133.3640  124.8440   64.8630 C   0  0  0  0  0  0  0  0  0  0  0  0
  134.4630  125.1770   65.8540 C   0  0  0  0  0  0  0  0  0  0  0  0
  133.6270  124.6950   63.5040 C   0  0  0  0  0  0  0  0  0  0  0  0
  132.5810  124.3920   62.6230 C   0  0  0  0  0  0  0  0  0  0  0  0
  132.9140  124.2480   61.1720 C   0  0  0  0  0  0  0  0  0  0  0  0
  132.1600  124.9270   60.2070 C   0  0  0  0  0  0  0  0  0  0  0  0
  132.4690  124.8090   58.8540 C   0  0  0  0  0  0  0  0  0  0  0  0
  133.5390  124.0100   58.4600 C   0  0  0  0  0  0  0  0  0  0  0  0
  134.3040  123.3340   59.4060 C   0  0  0  0  0  0  0  0  0  0  0  0
  133.9940  123.4560   60.7580 C   0  0  0  0  0  0  0  0  0  0  0  0
  131.2730  124.2480   63.1530 C   0  0  0  0  0  0  0  0  0  0  0  0
  130.1270  124.0230   62.2670 C   0  0  0  0  0  0  0  0  0  0  0  0
  129.2230  123.8460   61.5680 N   0  0  0  0  0  0  0  0  0  0  0  0
  129.8150  124.6900   70.3960 C   0  0  0  0  0  0  0  0  0  0  0  0
  129.9260  124.8980   71.7690 C   0  0  0  0  0  0  0  0  0  0  0  0
  1  2  1  0
  2  3  1  0
  3  4  2  0
  3  5  1  0
  5  6  2  0
  6  7  1  0
  7  8  2  0
  8  9  1  0
  9 10  1  0
 10 11  2  0
 10 12  1  0
 12 13  1  0
 13 14  1  0
 14 15  2  0
 15 16  1  0
 16 17  1  0
 16 18  2  0
 18 19  1  0
 19 20  1  0
 20 21  2  0
 21 22  1  0
 22 23  2  0
 23 24  1  0
 24 25  2  0
 19 26  2  0
 26 27  1  0
 27 28  3  0
  8 29  1  0
 29 30  2  0
 30  5  1  0
 26 14  1  0
 25 20  1  0
M  END
>  <Binding energies>  (33) 
[-8.14]

>  <Ligand effiencies>  (33) 
[-0.2625806451612903]

>  <Interactions>  (33) 
["V-A:HIS:456:CE1:4069, V-A:TYR:484:CZ:4347, V-A:TYR:484:CE1:4345, V-B:HIS:456:CE1:9040, V-A:HIS:456:CG:4066, H-B:LYS:547:NZ:9923, V-B:GLU:543:C:9874, V-A:HIS:456:CD2:4068, H-A:LYS:547:NZ:4951, H-B:GLU:543:O:9875, V-B:GLU:543:CB:9878, H-A:TYR:484:OH:4348, V-A:ILE:369:CD1:3239, V-B:GLU:543:CD:9880, V-A:ARG:545:CZ:4926, V-B:TYR:539:CE2:9848, V-A:GLY:453:C:4042, V-A:ASP:366:CG:3213, V-A:ASP:366:CB:3212, V-A:ILE:369:CB:3236, V-A:ILE:369:CG2:3237, V-A:ASP:366:CA:3210, H-A:HIS:456:NE2:4070, V-B:GLU:543:CG:9879, V-A:GLY:453:CA:4044, V-A:ARG:545:CG:4922, V-A:ARG:545:CD:4923, V-A:ILE:369:CG1:3238, V-B:LYS:547:CD:9921"]

$$$$
3ch_Grossjean_2025
     RDKit          3D

 32 34  0  0  0  0  0  0  0  0999 V2000
  131.5240  122.7880   72.5600 C   0  0  0  0  0  0  0  0  0  0  0  0
  130.1550  123.0700   72.2910 O   0  0  0  0  0  0  0  0  0  0  0  0
  129.8120  124.2560   71.6670 C   0  0  0  0  0  0  0  0  0  0  0  0
  129.7860  124.4310   70.2740 C   0  0  0  0  0  0  0  0  0  0  0  0
  129.4190  125.6620   69.7110 C   0  0  0  0  0  0  0  0  0  0  0  0
  129.3580  125.9320   68.3300 N   0  0  0  0  0  0  0  0  0  0  0  0
  129.6900  127.0540   67.6550 C   0  0  0  0  0  0  0  0  0  0  0  0
  130.1380  128.0840   68.1580 O   0  0  0  0  0  0  0  0  0  0  0  0
  129.5190  126.9850   66.1380 C   0  0  0  0  0  0  0  0  0  0  0  0
  129.1180  125.3070   65.5680 S   0  0  0  0  0  0  0  0  0  0  0  0
  130.6240  124.6410   64.8920 C   0  0  0  0  0  0  0  0  0  0  0  0
  131.7450  125.0640   65.5280 N   0  0  0  0  0  0  0  0  0  0  0  0
  132.9440  124.6210   65.0860 C   0  0  0  0  0  0  0  0  0  0  0  0
  134.1560  125.1360   65.8370 C   0  0  0  0  0  0  0  0  0  0  0  0
  133.0710  123.7520   64.0050 C   0  0  0  0  0  0  0  0  0  0  0  0
  131.9240  123.2980   63.3400 C   0  0  0  0  0  0  0  0  0  0  0  0
  132.1090  122.3750   62.1790 C   0  0  0  0  0  0  0  0  0  0  0  0
  133.0540  122.6710   61.1890 C   0  0  0  0  0  0  0  0  0  0  0  0
  133.2270  121.8190   60.1000 C   0  0  0  0  0  0  0  0  0  0  0  0
  132.4500  120.6680   59.9970 C   0  0  0  0  0  0  0  0  0  0  0  0
  131.5020  120.3630   60.9690 C   0  0  0  0  0  0  0  0  0  0  0  0
  131.3320  121.2170   62.0560 C   0  0  0  0  0  0  0  0  0  0  0  0
  130.6580  123.7380   63.8040 C   0  0  0  0  0  0  0  0  0  0  0  0
  129.4220  123.2230   63.2070 C   0  0  0  0  0  0  0  0  0  0  0  0
  128.4460  122.8170   62.7360 N   0  0  0  0  0  0  0  0  0  0  0  0
  129.0960  126.7260   70.5550 C   0  0  0  0  0  0  0  0  0  0  0  0
  129.1160  126.5760   71.9500 C   0  0  0  0  0  0  0  0  0  0  0  0
  128.8000  127.5870   72.8410 O   0  0  0  0  0  0  0  0  0  0  0  0
  127.4620  127.7130   73.3120 C   0  0  0  0  0  0  0  0  0  0  0  0
  129.4790  125.3370   72.4930 C   0  0  0  0  0  0  0  0  0  0  0  0
  129.4860  125.1720   73.8580 O   0  0  0  0  0  0  0  0  0  0  0  0
  130.7040  125.5560   74.4820 C   0  0  0  0  0  0  0  0  0  0  0  0
  1  2  1  0
  2  3  1  0
  3  4  2  0
  4  5  1  0
  5  6  1  0
  6  7  1  0
  7  8  2  0
  7  9  1  0
  9 10  1  0
 10 11  1  0
 11 12  2  0
 12 13  1  0
 13 14  1  0
 13 15  2  0
 15 16  1  0
 16 17  1  0
 17 18  2  0
 18 19  1  0
 19 20  2  0
 20 21  1  0
 21 22  2  0
 16 23  2  0
 23 24  1  0
 24 25  3  0
  5 26  2  0
 26 27  1  0
 27 28  1  0
 28 29  1  0
 27 30  2  0
 30 31  1  0
 31 32  1  0
 30  3  1  0
 23 11  1  0
 22 17  1  0
M  END
>  <Binding energies>  (34) 
[-7.77]

>  <Ligand effiencies>  (34) 
[-0.23545454545454544]

>  <Interactions>  (34) 
["V-A:HIS:456:CE1:4069, V-A:TYR:484:CZ:4347, V-A:TYR:484:CE1:4345, V-A:TYR:484:CG:4342, V-A:HIS:456:CB:4065, V-A:HIS:456:CG:4066, V-A:TYR:484:CE2:4346, V-A:TYR:484:CD2:4344, H-B:LYS:547:NZ:9923, V-A:HIS:456:CD2:4068, V-B:HIS:456:CD2:9039, V-B:HIS:456:CG:9037, H-B:GLU:543:O:9875, V-A:GLU:543:CD:4908, V-B:ALA:541:CB:9864, H-A:TYR:484:OH:4348, V-A:ILE:369:CD1:3239, V-A:ARG:545:CZ:4926, V-A:LEU:475:CD1:4258, V-B:TYR:539:CE2:9848, V-A:GLY:454:CA:4049, V-A:TRP:381:CH2:3372, V-B:TYR:539:CD2:9846, V-A:ILE:369:CG2:3237, H-A:HIS:456:NE2:4070, V-B:GLU:543:CG:9879, V-A:GLY:453:CA:4044, V-A:ASP:473:CB:4239, V-A:ARG:545:CG:4922, V-A:ARG:545:CD:4923"]

$$$$
3ci_Grossjean_2025
     RDKit          3D

 25 27  0  0  0  0  0  0  0  0999 V2000
  126.4400  129.4590   65.1980 C   0  0  0  0  0  0  0  0  0  0  0  0
  127.2400  128.3350   65.8290 C   0  0  0  0  0  0  0  0  0  0  0  0
  128.3230  127.7530   65.1760 C   0  0  0  0  0  0  0  0  0  0  0  0
  129.0420  126.7280   65.8070 C   0  0  0  0  0  0  0  0  0  0  0  0
  130.2060  126.1440   65.0750 C   0  0  0  0  0  0  0  0  0  0  0  0
  131.3500  125.7230   65.7670 C   0  0  0  0  0  0  0  0  0  0  0  0
  132.4350  125.1880   65.0790 C   0  0  0  0  0  0  0  0  0  0  0  0
  132.3850  125.0770   63.6930 C   0  0  0  0  0  0  0  0  0  0  0  0
  131.2600  125.4990   62.9890 C   0  0  0  0  0  0  0  0  0  0  0  0
  130.1760  126.0330   63.6800 C   0  0  0  0  0  0  0  0  0  0  0  0
  128.6270  126.3090   67.0960 C   0  0  0  0  0  0  0  0  0  0  0  0
  129.3140  125.2120   67.7870 C   0  0  0  0  0  0  0  0  0  0  0  0
  129.8580  124.3460   68.3310 N   0  0  0  0  0  0  0  0  0  0  0  0
  127.5180  126.9580   67.6900 C   0  0  0  0  0  0  0  0  0  0  0  0
  126.9230  126.5240   69.3200 S   0  0  0  0  0  0  0  0  0  0  0  0
  128.1710  126.9890   70.5660 C   0  0  0  0  0  0  0  0  0  0  0  0
  128.5500  125.8380   71.5040 C   0  0  0  0  0  0  0  0  0  0  0  0
  128.4100  125.9810   72.7200 O   0  0  0  0  0  0  0  0  0  0  0  0
  129.0380  124.7290   70.9050 N   0  0  0  0  0  0  0  0  0  0  0  0
  129.4270  123.5450   71.5170 C   0  0  0  0  0  0  0  0  0  0  0  0
  130.6590  123.3850   72.1510 C   0  0  0  0  0  0  0  0  0  0  0  0
  130.6570  122.0900   72.6160 C   0  0  0  0  0  0  0  0  0  0  0  0
  129.4830  121.5010   72.2810 O   0  0  0  0  0  0  0  0  0  0  0  0
  128.7130  122.4330   71.5830 N   0  0  0  0  0  0  0  0  0  0  0  0
  126.8370  127.9480   67.0590 N   0  0  0  0  0  0  0  0  0  0  0  0
  1  2  1  0
  2  3  2  0
  3  4  1  0
  4  5  1  0
  5  6  2  0
  6  7  1  0
  7  8  2  0
  8  9  1  0
  9 10  2  0
  4 11  2  0
 11 12  1  0
 12 13  3  0
 11 14  1  0
 14 15  1  0
 15 16  1  0
 16 17  1  0
 17 18  2  0
 17 19  1  0
 19 20  1  0
 20 21  1  0
 21 22  2  0
 22 23  1  0
 23 24  1  0
 14 25  2  0
 25  2  1  0
 10  5  1  0
 24 20  2  0
M  END
>  <Binding energies>  (35) 
[-7.94]

>  <Ligand effiencies>  (35) 
[-0.3053846153846154]

>  <Interactions>  (35) 
["V-A:HIS:456:CE1:4069, V-A:TYR:484:CE1:4345, V-B:HIS:456:CE1:9040, V-A:TYR:484:CG:4342, V-A:HIS:456:CB:4065, V-A:TYR:484:CD1:4343, V-A:HIS:456:CG:4066, V-A:TYR:484:CE2:4346, V-A:TYR:484:CD2:4344, H-B:LYS:547:NZ:9923, V-B:GLU:543:C:9874, V-A:HIS:456:CD2:4068, H-B:GLU:543:O:9875, V-A:GLU:543:CD:4908, V-B:GLU:543:CB:9878, H-A:TYR:484:OH:4348, V-B:GLU:543:CD:9880, V-A:ARG:545:CZ:4926, H-A:HIS:456:NE2:4070, V-B:GLU:543:CA:9876, V-A:ASP:473:CB:4239, V-A:TYR:484:CB:4341, H-B:ARG:545:N:9892"]

$$$$
3ck_Grossjean_2025
     RDKit          3D

 30 31  0  0  0  0  0  0  0  0999 V2000
  129.0030  127.1060   69.9440 C   0  0  0  0  0  0  0  0  0  0  0  0
  129.8330  128.1110   69.3850 O   0  0  0  0  0  0  0  0  0  0  0  0
  129.5160  128.4210   68.0350 C   0  0  0  0  0  0  0  0  0  0  0  0
  128.9060  127.1890   67.3550 C   0  0  0  0  0  0  0  0  0  0  0  0
  129.9420  126.2730   67.0240 O   0  0  0  0  0  0  0  0  0  0  0  0
  129.4780  125.0610   66.4450 C   0  0  0  0  0  0  0  0  0  0  0  0
  129.3860  125.2360   64.9240 C   0  0  0  0  0  0  0  0  0  0  0  0
  130.1920  124.2400   64.3100 O   0  0  0  0  0  0  0  0  0  0  0  0
  130.5100  123.1350   65.1420 C   0  0  0  0  0  0  0  0  0  0  0  0
  131.7990  122.4620   64.6340 C   0  0  0  0  0  0  0  0  0  0  0  0
  132.2920  123.0110   63.3670 N   0  0  0  0  0  0  0  0  0  0  0  0
  133.1950  124.0000   63.2400 C   0  0  0  0  0  0  0  0  0  0  0  0
  133.7380  124.5470   64.2010 O   0  0  0  0  0  0  0  0  0  0  0  0
  133.5230  124.4150   61.7960 C   0  0  0  0  0  0  0  0  0  0  0  0
  133.5670  123.0530   60.5810 S   0  0  0  0  0  0  0  0  0  0  0  0
  131.9910  122.2100   60.5890 C   0  0  0  0  0  0  0  0  0  0  0  0
  132.0070  120.9430   61.0750 N   0  0  0  0  0  0  0  0  0  0  0  0
  130.8510  120.2440   61.1070 C   0  0  0  0  0  0  0  0  0  0  0  0
  130.9470  118.8360   61.6600 C   0  0  0  0  0  0  0  0  0  0  0  0
  129.6420  120.7720   60.6600 C   0  0  0  0  0  0  0  0  0  0  0  0
  129.6030  122.0760   60.1490 C   0  0  0  0  0  0  0  0  0  0  0  0
  128.2900  122.5930   59.6590 C   0  0  0  0  0  0  0  0  0  0  0  0
  127.3700  123.1410   60.5610 C   0  0  0  0  0  0  0  0  0  0  0  0
  126.1380  123.6150   60.1130 C   0  0  0  0  0  0  0  0  0  0  0  0
  125.8210  123.5370   58.7600 C   0  0  0  0  0  0  0  0  0  0  0  0
  126.7230  122.9870   57.8520 C   0  0  0  0  0  0  0  0  0  0  0  0
  127.9520  122.5140   58.3020 C   0  0  0  0  0  0  0  0  0  0  0  0
  130.8080  122.8260   60.1210 C   0  0  0  0  0  0  0  0  0  0  0  0
  130.8190  124.2100   59.6350 C   0  0  0  0  0  0  0  0  0  0  0  0
  130.8270  125.3020   59.2520 N   0  0  0  0  0  0  0  0  0  0  0  0
  1  2  1  0
  2  3  1  0
  3  4  1  0
  4  5  1  0
  5  6  1  0
  6  7  1  0
  7  8  1  0
  8  9  1  0
  9 10  1  0
 10 11  1  0
 11 12  1  0
 12 13  2  0
 12 14  1  0
 14 15  1  0
 15 16  1  0
 16 17  2  0
 17 18  1  0
 18 19  1  0
 18 20  2  0
 20 21  1  0
 21 22  1  0
 22 23  2  0
 23 24  1  0
 24 25  2  0
 25 26  1  0
 26 27  2  0
 21 28  2  0
 28 29  1  0
 29 30  3  0
 28 16  1  0
 27 22  1  0
M  END
>  <Binding energies>  (36) 
[-5.93]

>  <Ligand effiencies>  (36) 
[-0.19129032258064516]

>  <Interactions>  (36) 
["V-A:HIS:456:CE1:4069, V-A:TYR:484:CZ:4347, V-A:TYR:484:CE1:4345, V-B:HIS:456:CE1:9040, V-A:HIS:456:CD2:4068, V-A:GLU:543:CG:4907, V-A:GLU:543:CB:4906, V-A:GLU:543:CD:4908, V-B:GLU:543:CB:9878, V-B:ALA:541:CB:9864, H-A:GLY:454:N:4050, V-B:GLU:543:CD:9880, V-A:LEU:475:CD1:4258, V-B:TYR:539:CE2:9848, V-A:TRP:381:CH2:3372, V-B:TYR:539:CD2:9846, V-A:ASP:366:CG:3213, H-B:HIS:456:NE2:9041, H-A:HIS:456:NE2:4070, V-B:TYR:539:CZ:9849, V-B:GLU:543:CA:9876, V-B:GLU:543:CG:9879, V-B:TYR:539:C:9839, V-B:PRO:540:CB:9857, V-B:PRO:540:N:9856, V-B:PRO:540:CA:9855, V-A:PRO:482:CB:4326, V-A:TRP:381:CZ2:3370, V-A:PRO:482:CG:4327, V-A:GLU:543:C:4902, V-A:LEU:475:CG:4257, V-B:TYR:539:CG:9844"]

$$$$
4aa_Grossjean_2025
     RDKit          3D

 26 28  0  0  0  0  0  0  0  0999 V2000
  125.4890  127.2900   73.6320 C   0  0  0  0  0  0  0  0  0  0  0  0
  126.6030  126.5830   74.4100 C   0  0  0  0  0  0  0  0  0  0  0  0
  127.5640  126.0680   73.4980 O   0  0  0  0  0  0  0  0  0  0  0  0
  128.4270  126.8930   72.8500 C   0  0  0  0  0  0  0  0  0  0  0  0
  128.8790  127.9300   73.3460 O   0  0  0  0  0  0  0  0  0  0  0  0
  128.7760  126.4200   71.4690 C   0  0  0  0  0  0  0  0  0  0  0  0
  129.4450  125.1990   71.3120 C   0  0  0  0  0  0  0  0  0  0  0  0
  129.7870  124.7350   70.0450 C   0  0  0  0  0  0  0  0  0  0  0  0
  129.4580  125.4770   68.9090 C   0  0  0  0  0  0  0  0  0  0  0  0
  129.8580  124.9190   67.6790 N   0  0  0  0  0  0  0  0  0  0  0  0
  129.4030  125.1540   66.4240 C   0  0  0  0  0  0  0  0  0  0  0  0
  128.4720  125.9150   66.1570 O   0  0  0  0  0  0  0  0  0  0  0  0
  130.0820  124.4080   65.3630 C   0  0  0  0  0  0  0  0  0  0  0  0
  129.4210  122.8740   64.7890 S   0  0  0  0  0  0  0  0  0  0  0  0
  130.7490  122.6670   63.6710 C   0  0  0  0  0  0  0  0  0  0  0  0
  130.8380  121.6040   62.8690 N   0  0  0  0  0  0  0  0  0  0  0  0
  131.9190  121.5630   62.0540 C   0  0  0  0  0  0  0  0  0  0  0  0
  132.0040  120.3430   61.1540 C   0  0  0  0  0  0  0  0  0  0  0  0
  132.9010  122.5500   62.0170 C   0  0  0  0  0  0  0  0  0  0  0  0
  132.8050  123.6650   62.8580 C   0  0  0  0  0  0  0  0  0  0  0  0
  133.9010  124.7160   62.7830 C   0  0  0  0  0  0  0  0  0  0  0  0
  131.6860  123.7420   63.7320 C   0  0  0  0  0  0  0  0  0  0  0  0
  131.2840  124.7180   64.7080 C   0  0  0  0  0  0  0  0  0  0  0  0
  132.0220  125.8480   64.9600 N   0  0  0  0  0  0  0  0  0  0  0  0
  128.7930  126.7020   69.0550 C   0  0  0  0  0  0  0  0  0  0  0  0
  128.4550  127.1660   70.3240 C   0  0  0  0  0  0  0  0  0  0  0  0
  1  2  1  0
  2  3  1  0
  3  4  1  0
  4  5  2  0
  4  6  1  0
  6  7  2  0
  7  8  1  0
  8  9  2  0
  9 10  1  0
 10 11  1  0
 11 12  2  0
 11 13  1  0
 13 14  1  0
 14 15  1  0
 15 16  2  0
 16 17  1  0
 17 18  1  0
 17 19  2  0
 19 20  1  0
 20 21  1  0
 20 22  2  0
 22 23  1  0
 23 24  1  0
  9 25  1  0
 25 26  2  0
 26  6  1  0
 23 13  2  0
 22 15  1  0
M  END
>  <Binding energies>  (37) 
[-7.68]

>  <Ligand effiencies>  (37) 
[-0.26482758620689656]

>  <Interactions>  (37) 
["V-A:HIS:456:CE1:4069, V-A:TYR:484:CZ:4347, V-A:TYR:484:CE1:4345, V-B:HIS:456:CE1:9040, V-A:HIS:456:CG:4066, H-B:LYS:547:NZ:9923, V-B:GLU:543:C:9874, V-A:HIS:456:CD2:4068, V-B:HIS:456:CB:9036, V-B:HIS:456:CG:9037, H-A:LYS:547:NZ:4951, H-B:GLU:543:O:9875, V-A:GLU:543:CD:4908, V-B:GLU:543:CB:9878, V-B:ALA:541:CB:9864, H-A:GLU:543:OE2:4910, H-A:TYR:484:OH:4348, V-A:ARG:545:CZ:4926, V-A:LEU:475:CD1:4258, H-A:HIS:456:ND1:4067, V-B:GLU:543:CA:9876, V-B:GLU:543:CG:9879, V-B:LYS:547:CE:9922, V-B:LYS:547:CD:9921"]

$$$$
4ab_Grossjean_2025
     RDKit          3D

 25 27  0  0  0  0  0  0  0  0999 V2000
  126.4280  126.6230   73.9900 C   0  0  0  0  0  0  0  0  0  0  0  0
  127.6210  125.9220   73.6710 O   0  0  0  0  0  0  0  0  0  0  0  0
  128.6830  126.5640   73.1210 C   0  0  0  0  0  0  0  0  0  0  0  0
  129.3480  127.4160   73.7200 O   0  0  0  0  0  0  0  0  0  0  0  0
  128.9660  126.1400   71.7090 C   0  0  0  0  0  0  0  0  0  0  0  0
  129.5790  124.9010   71.4770 C   0  0  0  0  0  0  0  0  0  0  0  0
  129.8560  124.4810   70.1790 C   0  0  0  0  0  0  0  0  0  0  0  0
  129.5190  125.2830   69.0890 C   0  0  0  0  0  0  0  0  0  0  0  0
  129.8510  124.7630   67.8230 N   0  0  0  0  0  0  0  0  0  0  0  0
  129.4110  125.1160   66.5910 C   0  0  0  0  0  0  0  0  0  0  0  0
  128.5610  125.9820   66.3800 O   0  0  0  0  0  0  0  0  0  0  0  0
  130.0020  124.3680   65.4790 C   0  0  0  0  0  0  0  0  0  0  0  0
  129.3270  122.8110   64.9940 S   0  0  0  0  0  0  0  0  0  0  0  0
  130.5440  122.6160   63.7530 C   0  0  0  0  0  0  0  0  0  0  0  0
  130.5810  121.5420   62.9630 N   0  0  0  0  0  0  0  0  0  0  0  0
  131.5770  121.5130   62.0440 C   0  0  0  0  0  0  0  0  0  0  0  0
  131.6050  120.2810   61.1600 C   0  0  0  0  0  0  0  0  0  0  0  0
  132.5240  122.5240   61.8950 C   0  0  0  0  0  0  0  0  0  0  0  0
  132.4820  123.6500   62.7260 C   0  0  0  0  0  0  0  0  0  0  0  0
  133.5390  124.7250   62.5260 C   0  0  0  0  0  0  0  0  0  0  0  0
  131.4540  123.7140   63.7060 C   0  0  0  0  0  0  0  0  0  0  0  0
  131.1260  124.6950   64.7040 C   0  0  0  0  0  0  0  0  0  0  0  0
  131.8570  125.8460   64.8680 N   0  0  0  0  0  0  0  0  0  0  0  0
  128.9100  126.5270   69.3110 C   0  0  0  0  0  0  0  0  0  0  0  0
  128.6360  126.9470   70.6100 C   0  0  0  0  0  0  0  0  0  0  0  0
  1  2  1  0
  2  3  1  0
  3  4  2  0
  3  5  1  0
  5  6  2  0
  6  7  1  0
  7  8  2  0
  8  9  1  0
  9 10  1  0
 10 11  2  0
 10 12  1  0
 12 13  1  0
 13 14  1  0
 14 15  2  0
 15 16  1  0
 16 17  1  0
 16 18  2  0
 18 19  1  0
 19 20  1  0
 19 21  2  0
 21 22  1  0
 22 23  1  0
  8 24  1  0
 24 25  2  0
 25  5  1  0
 22 12  2  0
 21 14  1  0
M  END
>  <Binding energies>  (38) 
[-7.49]

>  <Ligand effiencies>  (38) 
[-0.2675]

>  <Interactions>  (38) 
["V-A:HIS:456:CE1:4069, V-A:TYR:484:CZ:4347, V-A:TYR:484:CE1:4345, V-B:HIS:456:CE1:9040, V-A:HIS:456:CG:4066, H-B:LYS:547:NZ:9923, V-B:GLU:543:C:9874, V-A:HIS:456:CD2:4068, H-A:LYS:547:NZ:4951, H-B:GLU:543:O:9875, V-A:GLU:543:CD:4908, V-B:GLU:543:CB:9878, V-B:ALA:541:CB:9864, H-A:GLU:543:OE2:4910, H-A:TYR:484:OH:4348, V-A:ARG:545:CZ:4926, V-A:LEU:475:CD1:4258, V-A:TRP:381:CH2:3372, V-A:ASP:366:CG:3213, H-A:HIS:456:ND1:4067, V-B:GLU:543:CA:9876, V-B:GLU:543:CG:9879, V-B:LYS:547:CE:9922, V-B:LYS:547:CD:9921"]

$$$$
4ac_Grossjean_2025
     RDKit          3D

 23 25  0  0  0  0  0  0  0  0999 V2000
  127.0320  126.9210   73.4580 C   0  0  0  0  0  0  0  0  0  0  0  0
  127.9320  125.8490   73.1980 O   0  0  0  0  0  0  0  0  0  0  0  0
  128.4110  125.6680   71.9150 C   0  0  0  0  0  0  0  0  0  0  0  0
  129.3260  124.6320   71.7330 C   0  0  0  0  0  0  0  0  0  0  0  0
  129.8630  124.3720   70.4750 C   0  0  0  0  0  0  0  0  0  0  0  0
  129.4810  125.1430   69.3760 C   0  0  0  0  0  0  0  0  0  0  0  0
  130.0850  124.8170   68.1480 N   0  0  0  0  0  0  0  0  0  0  0  0
  129.7170  125.1660   66.8920 C   0  0  0  0  0  0  0  0  0  0  0  0
  128.7160  125.8360   66.6280 O   0  0  0  0  0  0  0  0  0  0  0  0
  130.5950  124.6840   65.8230 C   0  0  0  0  0  0  0  0  0  0  0  0
  132.1810  125.4140   65.5730 S   0  0  0  0  0  0  0  0  0  0  0  0
  132.5140  124.3450   64.2290 C   0  0  0  0  0  0  0  0  0  0  0  0
  133.6610  124.4010   63.5500 N   0  0  0  0  0  0  0  0  0  0  0  0
  133.7930  123.5170   62.5310 C   0  0  0  0  0  0  0  0  0  0  0  0
  135.1040  123.5960   61.7720 C   0  0  0  0  0  0  0  0  0  0  0  0
  132.8140  122.5900   62.1770 C   0  0  0  0  0  0  0  0  0  0  0  0
  131.6110  122.5350   62.8910 C   0  0  0  0  0  0  0  0  0  0  0  0
  130.5740  121.5070   62.4670 C   0  0  0  0  0  0  0  0  0  0  0  0
  131.4380  123.4450   63.9690 C   0  0  0  0  0  0  0  0  0  0  0  0
  130.3570  123.6580   64.8930 C   0  0  0  0  0  0  0  0  0  0  0  0
  129.2040  122.9160   64.8530 N   0  0  0  0  0  0  0  0  0  0  0  0
  128.5700  126.1950   69.5520 C   0  0  0  0  0  0  0  0  0  0  0  0
  128.0360  126.4520   70.8130 C   0  0  0  0  0  0  0  0  0  0  0  0
  1  2  1  0
  2  3  1  0
  3  4  2  0
  4  5  1  0
  5  6  2  0
  6  7  1  0
  7  8  1  0
  8  9  2  0
  8 10  1  0
 10 11  1  0
 11 12  1  0
 12 13  2  0
 13 14  1  0
 14 15  1  0
 14 16  2  0
 16 17  1  0
 17 18  1  0
 17 19  2  0
 19 20  1  0
 20 21  1  0
  6 22  1  0
 22 23  2  0
 23  3  1  0
 20 10  2  0
 19 12  1  0
M  END
>  <Binding energies>  (39) 
[-6.92]

>  <Ligand effiencies>  (39) 
[-0.26615384615384613]

>  <Interactions>  (39) 
["V-A:HIS:456:CE1:4069, V-A:TYR:484:CZ:4347, V-A:TYR:484:CE1:4345, V-B:HIS:456:CE1:9040, V-A:HIS:456:CG:4066, H-B:LYS:547:NZ:9923, V-B:GLU:543:C:9874, V-A:HIS:456:CD2:4068, H-B:GLU:543:O:9875, V-B:GLU:543:CB:9878, V-B:ALA:541:CB:9864, H-A:TYR:484:OH:4348, V-A:ILE:369:CD1:3239, H-A:GLY:454:N:4050, V-A:LEU:475:CD1:4258, V-A:GLY:454:CA:4049, V-A:GLY:453:C:4042, V-B:GLY:544:C:9884, H-A:HIS:456:ND1:4067, V-B:GLU:543:CA:9876, V-B:GLU:543:CG:9879, V-A:GLY:453:CA:4044"]

$$$$
4ad_Grossjean_2025
     RDKit          3D

 21 23  0  0  0  0  0  0  0  0999 V2000
  131.8070  120.4640   61.1680 C   0  0  0  0  0  0  0  0  0  0  0  0
  131.7490  121.6500   62.1120 C   0  0  0  0  0  0  0  0  0  0  0  0
  132.7290  122.6400   62.0820 C   0  0  0  0  0  0  0  0  0  0  0  0
  132.6560  123.7250   62.9650 C   0  0  0  0  0  0  0  0  0  0  0  0
  133.7500  124.7790   62.8960 C   0  0  0  0  0  0  0  0  0  0  0  0
  131.5630  123.7690   63.8720 C   0  0  0  0  0  0  0  0  0  0  0  0
  131.1850  124.7120   64.8900 C   0  0  0  0  0  0  0  0  0  0  0  0
  131.9210  125.8410   65.1500 N   0  0  0  0  0  0  0  0  0  0  0  0
  130.0090  124.3700   65.5770 C   0  0  0  0  0  0  0  0  0  0  0  0
  129.3530  125.0860   66.6720 C   0  0  0  0  0  0  0  0  0  0  0  0
  128.4000  125.8360   66.4500 O   0  0  0  0  0  0  0  0  0  0  0  0
  129.8590  124.8490   67.9080 N   0  0  0  0  0  0  0  0  0  0  0  0
  129.4890  125.4020   69.1480 C   0  0  0  0  0  0  0  0  0  0  0  0
  129.7690  124.6220   70.2740 C   0  0  0  0  0  0  0  0  0  0  0  0
  129.4500  125.0860   71.5470 C   0  0  0  0  0  0  0  0  0  0  0  0
  128.8580  126.3370   71.6970 C   0  0  0  0  0  0  0  0  0  0  0  0
  128.5860  127.1310   70.5850 C   0  0  0  0  0  0  0  0  0  0  0  0
  128.9030  126.6680   69.3100 C   0  0  0  0  0  0  0  0  0  0  0  0
  129.3340  122.8570   64.9690 S   0  0  0  0  0  0  0  0  0  0  0  0
  130.6270  122.6930   63.8030 C   0  0  0  0  0  0  0  0  0  0  0  0
  130.6940  121.6590   62.9620 N   0  0  0  0  0  0  0  0  0  0  0  0
  1  2  1  0
  2  3  2  0
  3  4  1  0
  4  5  1  0
  4  6  2  0
  6  7  1  0
  7  8  1  0
  7  9  2  0
  9 10  1  0
 10 11  2  0
 10 12  1  0
 12 13  1  0
 13 14  2  0
 14 15  1  0
 15 16  2  0
 16 17  1  0
 17 18  2  0
  9 19  1  0
 19 20  1  0
 20 21  2  0
 21  2  1  0
 20  6  1  0
 18 13  1  0
M  END
>  <Binding energies>  (40) 
[-6.46]

>  <Ligand effiencies>  (40) 
[-0.26916666666666667]

>  <Interactions>  (40) 
["V-A:HIS:456:CE1:4069, V-A:TYR:484:CZ:4347, V-A:TYR:484:CE1:4345, V-B:HIS:456:CE1:9040, V-A:HIS:456:CG:4066, V-B:GLU:543:C:9874, V-A:HIS:456:CD2:4068, H-B:GLU:543:O:9875, V-A:GLU:543:CD:4908, V-B:GLU:543:CB:9878, V-B:ALA:541:CB:9864, H-A:GLU:543:OE2:4910, H-A:TYR:484:OH:4348, V-A:ARG:545:CZ:4926, V-A:LEU:475:CD1:4258, H-A:HIS:456:ND1:4067, V-B:GLU:543:CA:9876, V-B:GLU:543:CG:9879"]

$$$$
4ae_Grossjean_2025
     RDKit          3D

 22 24  0  0  0  0  0  0  0  0999 V2000
  128.0630  119.9180   72.9120 C   0  0  0  0  0  0  0  0  0  0  0  0
  129.1360  120.9710   72.7140 C   0  0  0  0  0  0  0  0  0  0  0  0
  130.3090  120.9710   73.4740 C   0  0  0  0  0  0  0  0  0  0  0  0
  131.2490  121.9750   73.2420 C   0  0  0  0  0  0  0  0  0  0  0  0
  130.9970  122.9450   72.2700 C   0  0  0  0  0  0  0  0  0  0  0  0
  129.8060  122.8820   71.5390 C   0  0  0  0  0  0  0  0  0  0  0  0
  129.6000  123.8970   70.5890 N   0  0  0  0  0  0  0  0  0  0  0  0
  129.4990  125.2360   70.7860 C   0  0  0  0  0  0  0  0  0  0  0  0
  129.5730  125.7730   71.8920 O   0  0  0  0  0  0  0  0  0  0  0  0
  129.2870  126.0330   69.5760 C   0  0  0  0  0  0  0  0  0  0  0  0
  128.7320  127.7040   69.6970 S   0  0  0  0  0  0  0  0  0  0  0  0
  128.7060  127.8720   67.9570 C   0  0  0  0  0  0  0  0  0  0  0  0
  128.3360  129.0060   67.3630 N   0  0  0  0  0  0  0  0  0  0  0  0
  128.3550  129.0030   66.0080 C   0  0  0  0  0  0  0  0  0  0  0  0
  127.9230  130.3020   65.3520 C   0  0  0  0  0  0  0  0  0  0  0  0
  128.7340  127.9030   65.2410 C   0  0  0  0  0  0  0  0  0  0  0  0
  129.1230  126.7130   65.8680 C   0  0  0  0  0  0  0  0  0  0  0  0
  129.5250  125.5390   64.9880 C   0  0  0  0  0  0  0  0  0  0  0  0
  129.1150  126.6780   67.2880 C   0  0  0  0  0  0  0  0  0  0  0  0
  129.4420  125.6460   68.2350 C   0  0  0  0  0  0  0  0  0  0  0  0
  129.8650  124.4000   67.8450 N   0  0  0  0  0  0  0  0  0  0  0  0
  128.8780  121.9060   71.7640 N   0  0  0  0  0  0  0  0  0  0  0  0
  1  2  1  0
  2  3  2  0
  3  4  1  0
  4  5  2  0
  5  6  1  0
  6  7  1  0
  7  8  1  0
  8  9  2  0
  8 10  1  0
 10 11  1  0
 11 12  1  0
 12 13  2  0
 13 14  1  0
 14 15  1  0
 14 16  2  0
 16 17  1  0
 17 18  1  0
 17 19  2  0
 19 20  1  0
 20 21  1  0
  6 22  2  0
 22  2  1  0
 20 10  2  0
 19 12  1  0
M  END
>  <Binding energies>  (41) 
[-7.47]

>  <Ligand effiencies>  (41) 
[-0.2988]

>  <Interactions>  (41) 
["V-A:HIS:456:CE1:4069, V-A:TYR:484:CZ:4347, V-A:TYR:484:CE1:4345, V-B:HIS:456:CE1:9040, V-A:TYR:484:CG:4342, V-A:HIS:456:CB:4065, V-A:TYR:484:CD1:4343, V-A:HIS:456:CG:4066, V-A:TYR:484:CE2:4346, V-A:TYR:484:CD2:4344, H-B:LYS:547:NZ:9923, V-B:GLU:543:C:9874, V-A:HIS:456:CD2:4068, H-B:GLU:543:O:9875, V-A:GLU:543:CG:4907, V-A:GLU:543:CB:4906, V-A:GLU:543:CD:4908, V-B:GLU:543:CB:9878, H-A:TYR:484:OH:4348, V-B:GLU:543:CD:9880, H-B:HIS:456:NE2:9041, H-A:HIS:456:ND1:4067, H-A:HIS:456:NE2:4070, V-B:GLU:543:CA:9876, V-B:GLU:543:CG:9879, V-A:ASP:473:CG:4240, V-A:ASP:473:CB:4239, V-A:TYR:484:CB:4341, V-B:LYS:547:CE:9922"]

$$$$
4af_Grossjean_2025
     RDKit          3D

 21 23  0  0  0  0  0  0  0  0999 V2000
  127.9230  130.0960   64.3650 C   0  0  0  0  0  0  0  0  0  0  0  0
  128.3240  128.8600   65.1500 C   0  0  0  0  0  0  0  0  0  0  0  0
  128.6410  127.6690   64.5000 C   0  0  0  0  0  0  0  0  0  0  0  0
  129.0060  126.5410   65.2440 C   0  0  0  0  0  0  0  0  0  0  0  0
  129.3420  125.2640   64.4900 C   0  0  0  0  0  0  0  0  0  0  0  0
  129.0360  126.6620   66.6600 C   0  0  0  0  0  0  0  0  0  0  0  0
  129.3560  125.7280   67.7060 C   0  0  0  0  0  0  0  0  0  0  0  0
  129.7220  124.4320   67.4430 N   0  0  0  0  0  0  0  0  0  0  0  0
  129.2580  126.2640   68.9990 C   0  0  0  0  0  0  0  0  0  0  0  0
  129.4790  125.5950   70.2830 C   0  0  0  0  0  0  0  0  0  0  0  0
  129.4950  126.2410   71.3320 O   0  0  0  0  0  0  0  0  0  0  0  0
  129.6430  124.2520   70.2160 N   0  0  0  0  0  0  0  0  0  0  0  0
  129.9170  123.3300   71.2440 C   0  0  0  0  0  0  0  0  0  0  0  0
  131.0220  123.3830   72.1140 C   0  0  0  0  0  0  0  0  0  0  0  0
  131.1860  122.3930   73.0830 C   0  0  0  0  0  0  0  0  0  0  0  0
  130.2430  121.3670   73.1580 C   0  0  0  0  0  0  0  0  0  0  0  0
  129.1730  121.2890   72.3270 N   0  0  0  0  0  0  0  0  0  0  0  0
  129.0270  122.2590   71.3890 C   0  0  0  0  0  0  0  0  0  0  0  0
  128.7600  127.9570   68.9510 S   0  0  0  0  0  0  0  0  0  0  0  0
  128.6900  127.9350   67.2030 C   0  0  0  0  0  0  0  0  0  0  0  0
  128.3430  129.0120   66.4970 N   0  0  0  0  0  0  0  0  0  0  0  0
  1  2  1  0
  2  3  2  0
  3  4  1  0
  4  5  1  0
  4  6  2  0
  6  7  1  0
  7  8  1  0
  7  9  2  0
  9 10  1  0
 10 11  2  0
 10 12  1  0
 12 13  1  0
 13 14  2  0
 14 15  1  0
 15 16  2  0
 16 17  1  0
 17 18  2  0
  9 19  1  0
 19 20  1  0
 20 21  2  0
 21  2  1  0
 20  6  1  0
 18 13  1  0
M  END
>  <Binding energies>  (42) 
[-6.88]

>  <Ligand effiencies>  (42) 
[-0.2866666666666667]

>  <Interactions>  (42) 
["V-A:HIS:456:CE1:4069, V-A:TYR:484:CZ:4347, V-A:TYR:484:CE1:4345, V-B:HIS:456:CE1:9040, V-A:TYR:484:CG:4342, V-A:HIS:456:CB:4065, V-A:TYR:484:CD1:4343, V-A:HIS:456:CG:4066, V-A:TYR:484:CE2:4346, V-A:TYR:484:CD2:4344, H-B:LYS:547:NZ:9923, V-B:GLU:543:C:9874, V-A:HIS:456:CD2:4068, H-B:GLU:543:O:9875, V-A:GLU:543:CB:4906, V-A:GLU:543:CD:4908, V-B:GLU:543:CB:9878, H-A:TYR:484:OH:4348, V-B:GLU:543:CD:9880, H-A:HIS:456:NE2:4070, V-B:GLU:543:CA:9876, V-B:GLU:543:CG:9879, V-A:ASP:473:CB:4239, V-A:TYR:484:CB:4341, V-B:LYS:547:CE:9922, V-B:GLY:544:CA:9886"]

$$$$
4ag_Grossjean_2025
     RDKit          3D

 22 24  0  0  0  0  0  0  0  0999 V2000
  133.2220  125.9930   75.8310 C   0  0  0  0  0  0  0  0  0  0  0  0
  132.2340  125.6010   74.7480 C   0  0  0  0  0  0  0  0  0  0  0  0
  132.2020  124.3030   74.2420 C   0  0  0  0  0  0  0  0  0  0  0  0
  131.2820  123.9620   73.2440 C   0  0  0  0  0  0  0  0  0  0  0  0
  131.2850  122.5330   72.7250 C   0  0  0  0  0  0  0  0  0  0  0  0
  130.4020  124.9760   72.7800 C   0  0  0  0  0  0  0  0  0  0  0  0
  129.3590  124.9760   71.7900 C   0  0  0  0  0  0  0  0  0  0  0  0
  129.0310  123.8540   71.0700 N   0  0  0  0  0  0  0  0  0  0  0  0
  128.7230  126.2160   71.6340 C   0  0  0  0  0  0  0  0  0  0  0  0
  127.6240  126.5660   70.7340 C   0  0  0  0  0  0  0  0  0  0  0  0
  126.7320  127.3430   71.0810 O   0  0  0  0  0  0  0  0  0  0  0  0
  127.6400  125.9770   69.5190 N   0  0  0  0  0  0  0  0  0  0  0  0
  126.6620  126.2010   68.4560 C   0  0  0  0  0  0  0  0  0  0  0  0
  126.9910  127.3810   67.5490 C   0  0  0  0  0  0  0  0  0  0  0  0
  125.9580  128.1000   66.9410 C   0  0  0  0  0  0  0  0  0  0  0  0
  126.2540  129.1940   66.1320 C   0  0  0  0  0  0  0  0  0  0  0  0
  127.5820  129.5730   65.9440 C   0  0  0  0  0  0  0  0  0  0  0  0
  128.6150  128.8710   66.5600 C   0  0  0  0  0  0  0  0  0  0  0  0
  128.3190  127.7770   67.3690 C   0  0  0  0  0  0  0  0  0  0  0  0
  129.3970  127.4240   72.7270 S   0  0  0  0  0  0  0  0  0  0  0  0
  130.5340  126.2650   73.3790 C   0  0  0  0  0  0  0  0  0  0  0  0
  131.4090  126.5920   74.3320 N   0  0  0  0  0  0  0  0  0  0  0  0
  1  2  1  0
  2  3  2  0
  3  4  1  0
  4  5  1  0
  4  6  2  0
  6  7  1  0
  7  8  1  0
  7  9  2  0
  9 10  1  0
 10 11  2  0
 10 12  1  0
 12 13  1  0
 13 14  1  0
 14 15  2  0
 15 16  1  0
 16 17  2  0
 17 18  1  0
 18 19  2  0
  9 20  1  0
 20 21  1  0
 21 22  2  0
 22  2  1  0
 21  6  1  0
 19 14  1  0
M  END
>  <Binding energies>  (43) 
[-7.3]

>  <Ligand effiencies>  (43) 
[-0.292]

>  <Interactions>  (43) 
["V-B:HIS:456:CE1:9040, V-A:TYR:484:CG:4342, V-A:HIS:456:CB:4065, V-A:HIS:456:CG:4066, V-A:TYR:484:CE2:4346, V-A:TYR:484:CD2:4344, V-B:GLU:543:C:9874, V-A:HIS:456:CD2:4068, H-B:GLY:544:O:9885, H-A:LYS:547:NZ:4951, H-B:GLU:543:O:9875, V-A:GLU:543:CG:4907, V-A:GLU:543:CB:4906, V-A:GLU:543:CD:4908, V-B:GLU:543:CB:9878, V-B:GLY:544:C:9884, H-B:HIS:456:NE2:9041, V-B:GLU:543:CA:9876, V-B:ARG:545:CD:9895, V-B:ARG:545:CG:9894, V-A:ASP:473:CB:4239, V-A:TYR:484:CB:4341, V-A:LYS:547:CD:4949, V-A:VAL:458:CG2:4087, V-B:GLY:544:CA:9886, V-B:ARG:545:CA:9891"]

$$$$
4ah_Grossjean_2025
     RDKit          3D

 28 30  0  0  0  0  0  0  0  0999 V2000
  133.1010  126.8770   74.3930 C   0  0  0  0  0  0  0  0  0  0  0  0
  131.7090  126.6730   74.6070 O   0  0  0  0  0  0  0  0  0  0  0  0
  130.9720  125.9760   73.6660 C   0  0  0  0  0  0  0  0  0  0  0  0
  129.9070  126.5300   72.9380 C   0  0  0  0  0  0  0  0  0  0  0  0
  129.2060  125.7670   72.0040 C   0  0  0  0  0  0  0  0  0  0  0  0
  128.0820  126.3980   71.1900 C   0  0  0  0  0  0  0  0  0  0  0  0
  128.2830  126.3040   69.7440 N   0  0  0  0  0  0  0  0  0  0  0  0
  128.9960  127.1700   68.9950 C   0  0  0  0  0  0  0  0  0  0  0  0
  129.5310  128.1750   69.4690 O   0  0  0  0  0  0  0  0  0  0  0  0
  129.0670  126.8740   67.5650 C   0  0  0  0  0  0  0  0  0  0  0  0
  128.5690  128.0860   66.3830 S   0  0  0  0  0  0  0  0  0  0  0  0
  128.9000  126.9930   65.0570 C   0  0  0  0  0  0  0  0  0  0  0  0
  128.7130  127.3480   63.7860 N   0  0  0  0  0  0  0  0  0  0  0  0
  129.0100  126.4090   62.8550 C   0  0  0  0  0  0  0  0  0  0  0  0
  128.7870  126.8330   61.4150 C   0  0  0  0  0  0  0  0  0  0  0  0
  129.4840  125.1360   63.1630 C   0  0  0  0  0  0  0  0  0  0  0  0
  129.6770  124.7640   64.4990 C   0  0  0  0  0  0  0  0  0  0  0  0
  130.1960  123.3630   64.7850 C   0  0  0  0  0  0  0  0  0  0  0  0
  129.3750  125.7230   65.5040 C   0  0  0  0  0  0  0  0  0  0  0  0
  129.4490  125.6780   66.9400 C   0  0  0  0  0  0  0  0  0  0  0  0
  129.8670  124.5620   67.6190 N   0  0  0  0  0  0  0  0  0  0  0  0
  129.5870  124.4450   71.7710 C   0  0  0  0  0  0  0  0  0  0  0  0
  130.6450  123.8630   72.4870 C   0  0  0  0  0  0  0  0  0  0  0  0
  131.0650  122.5560   72.3180 O   0  0  0  0  0  0  0  0  0  0  0  0
  130.8620  121.6160   73.3690 C   0  0  0  0  0  0  0  0  0  0  0  0
  131.3250  124.6380   73.4370 C   0  0  0  0  0  0  0  0  0  0  0  0
  132.3750  124.0870   74.1330 O   0  0  0  0  0  0  0  0  0  0  0  0
  132.1360  123.9510   75.5270 C   0  0  0  0  0  0  0  0  0  0  0  0
  1  2  1  0
  2  3  1  0
  3  4  2  0
  4  5  1  0
  5  6  1  0
  6  7  1  0
  7  8  1  0
  8  9  2  0
  8 10  1  0
 10 11  1  0
 11 12  1  0
 12 13  2  0
 13 14  1  0
 14 15  1  0
 14 16  2  0
 16 17  1  0
 17 18  1  0
 17 19  2  0
 19 20  1  0
 20 21  1  0
  5 22  2  0
 22 23  1  0
 23 24  1  0
 24 25  1  0
 23 26  2  0
 26 27  1  0
 27 28  1  0
 26  3  1  0
 20 10  2  0
 19 12  1  0
M  END
>  <Binding energies>  (44) 
[-6.9]

>  <Ligand effiencies>  (44) 
[-0.22258064516129034]

>  <Interactions>  (44) 
["V-A:HIS:456:CE1:4069, V-A:TYR:484:CZ:4347, V-A:TYR:484:CE1:4345, V-B:HIS:456:CE1:9040, V-A:TYR:484:CG:4342, V-A:HIS:456:CB:4065, V-A:HIS:456:CG:4066, V-A:TYR:484:CD2:4344, H-B:LYS:547:NZ:9923, V-B:GLU:543:C:9874, V-A:HIS:456:CD2:4068, H-B:GLY:544:O:9885, H-A:LYS:547:NZ:4951, H-B:GLU:543:O:9875, V-A:GLU:543:CD:4908, V-B:GLU:543:CB:9878, H-A:TYR:484:OH:4348, V-B:GLU:543:CD:9880, V-B:GLY:544:C:9884, H-B:HIS:456:NE2:9041, H-A:HIS:456:ND1:4067, H-A:HIS:456:NE2:4070, V-B:GLU:543:CA:9876, V-B:GLU:543:CG:9879, V-A:ASP:473:CG:4240, V-A:ASP:473:CB:4239, V-A:TYR:484:CB:4341, V-A:LYS:547:CE:4950, V-A:LYS:547:CD:4949"]

$$$$
4ai_Grossjean_2025
     RDKit          3D

 20 22  0  0  0  0  0  0  0  0999 V2000
  127.9510  130.2120   64.9920 C   0  0  0  0  0  0  0  0  0  0  0  0
  128.3420  128.9230   65.6900 C   0  0  0  0  0  0  0  0  0  0  0  0
  128.6790  127.7850   64.9590 C   0  0  0  0  0  0  0  0  0  0  0  0
  129.0430  126.6080   65.6240 C   0  0  0  0  0  0  0  0  0  0  0  0
  129.4040  125.3940   64.7820 C   0  0  0  0  0  0  0  0  0  0  0  0
  129.0540  126.6260   67.0450 C   0  0  0  0  0  0  0  0  0  0  0  0
  129.3700  125.6210   68.0240 C   0  0  0  0  0  0  0  0  0  0  0  0
  129.7450  124.3490   67.6730 N   0  0  0  0  0  0  0  0  0  0  0  0
  129.2650  126.0650   69.3520 C   0  0  0  0  0  0  0  0  0  0  0  0
  129.5010  125.3120   70.5860 C   0  0  0  0  0  0  0  0  0  0  0  0
  129.5320  125.8850   71.6760 O   0  0  0  0  0  0  0  0  0  0  0  0
  129.6590  123.9740   70.4280 N   0  0  0  0  0  0  0  0  0  0  0  0
  129.8830  123.0280   71.4200 C   0  0  0  0  0  0  0  0  0  0  0  0
  131.0510  122.9840   72.1820 C   0  0  0  0  0  0  0  0  0  0  0  0
  130.8840  121.9180   73.0340 C   0  0  0  0  0  0  0  0  0  0  0  0
  129.6770  121.3490   72.8000 O   0  0  0  0  0  0  0  0  0  0  0  0
  129.0520  122.0620   71.7760 N   0  0  0  0  0  0  0  0  0  0  0  0
  128.7420  127.7490   69.4210 S   0  0  0  0  0  0  0  0  0  0  0  0
  128.6880  127.8540   67.6750 C   0  0  0  0  0  0  0  0  0  0  0  0
  128.3400  128.9760   67.0450 N   0  0  0  0  0  0  0  0  0  0  0  0
  1  2  1  0
  2  3  2  0
  3  4  1  0
  4  5  1  0
  4  6  2  0
  6  7  1  0
  7  8  1  0
  7  9  2  0
  9 10  1  0
 10 11  2  0
 10 12  1  0
 12 13  1  0
 13 14  1  0
 14 15  2  0
 15 16  1  0
 16 17  1  0
  9 18  1  0
 18 19  1  0
 19 20  2  0
 20  2  1  0
 19  6  1  0
 17 13  2  0
M  END
>  <Binding energies>  (45) 
[-7.64]

>  <Ligand effiencies>  (45) 
[-0.33217391304347826]

>  <Interactions>  (45) 
["V-A:HIS:456:CE1:4069, V-A:TYR:484:CZ:4347, V-A:TYR:484:CE1:4345, V-B:HIS:456:CE1:9040, V-A:TYR:484:CG:4342, V-A:HIS:456:CB:4065, V-A:TYR:484:CD1:4343, V-A:HIS:456:CG:4066, V-A:TYR:484:CE2:4346, V-A:TYR:484:CD2:4344, H-B:LYS:547:NZ:9923, V-B:GLU:543:C:9874, V-A:HIS:456:CD2:4068, H-B:GLU:543:O:9875, V-A:GLU:543:CB:4906, V-A:GLU:543:CD:4908, V-B:GLU:543:CB:9878, H-A:TYR:484:OH:4348, V-B:GLU:543:CD:9880, H-A:HIS:456:ND1:4067, H-A:HIS:456:NE2:4070, V-B:GLU:543:CA:9876, V-B:GLU:543:CG:9879, V-A:ASP:473:CB:4239, V-A:TYR:484:CB:4341"]

$$$$
4aj_Grossjean_2025
     RDKit          3D

 20 22  0  0  0  0  0  0  0  0999 V2000
  127.7820  130.1880   65.2500 C   0  0  0  0  0  0  0  0  0  0  0  0
  128.2450  128.9130   65.9320 C   0  0  0  0  0  0  0  0  0  0  0  0
  128.6230  127.7980   65.1870 C   0  0  0  0  0  0  0  0  0  0  0  0
  129.0420  126.6310   65.8360 C   0  0  0  0  0  0  0  0  0  0  0  0
  129.4440  125.4410   64.9790 C   0  0  0  0  0  0  0  0  0  0  0  0
  129.0660  126.6350   67.2570 C   0  0  0  0  0  0  0  0  0  0  0  0
  129.4300  125.6330   68.2230 C   0  0  0  0  0  0  0  0  0  0  0  0
  129.8560  124.3820   67.8550 N   0  0  0  0  0  0  0  0  0  0  0  0
  129.3150  126.0580   69.5550 C   0  0  0  0  0  0  0  0  0  0  0  0
  129.5900  125.3030   70.7790 C   0  0  0  0  0  0  0  0  0  0  0  0
  129.6410  125.8720   71.8720 O   0  0  0  0  0  0  0  0  0  0  0  0
  129.7650  123.9690   70.6130 N   0  0  0  0  0  0  0  0  0  0  0  0
  130.0240  123.0320   71.6040 C   0  0  0  0  0  0  0  0  0  0  0  0
  129.3450  121.9390   71.8790 N   0  0  0  0  0  0  0  0  0  0  0  0
  129.8800  121.2770   72.8880 C   0  0  0  0  0  0  0  0  0  0  0  0
  131.0210  121.8380   73.4560 C   0  0  0  0  0  0  0  0  0  0  0  0
  131.4050  123.3100   72.6150 S   0  0  0  0  0  0  0  0  0  0  0  0
  128.7300  127.7210   69.6460 S   0  0  0  0  0  0  0  0  0  0  0  0
  128.6570  127.8410   67.9020 C   0  0  0  0  0  0  0  0  0  0  0  0
  128.2560  128.9540   67.2870 N   0  0  0  0  0  0  0  0  0  0  0  0
  1  2  1  0
  2  3  2  0
  3  4  1  0
  4  5  1  0
  4  6  2  0
  6  7  1  0
  7  8  1  0
  7  9  2  0
  9 10  1  0
 10 11  2  0
 10 12  1  0
 12 13  1  0
 13 14  2  0
 14 15  1  0
 15 16  2  0
 16 17  1  0
  9 18  1  0
 18 19  1  0
 19 20  2  0
 20  2  1  0
 19  6  1  0
 17 13  1  0
M  END
>  <Binding energies>  (46) 
[-6.81]

>  <Ligand effiencies>  (46) 
[-0.2960869565217391]

>  <Interactions>  (46) 
["V-A:HIS:456:CE1:4069, V-A:TYR:484:CZ:4347, V-A:TYR:484:CE1:4345, V-B:HIS:456:CE1:9040, V-A:TYR:484:CG:4342, V-A:HIS:456:CB:4065, V-A:TYR:484:CD1:4343, V-A:HIS:456:CG:4066, V-A:TYR:484:CE2:4346, V-A:TYR:484:CD2:4344, H-B:LYS:547:NZ:9923, V-B:GLU:543:C:9874, V-A:HIS:456:CD2:4068, H-B:GLU:543:O:9875, V-A:GLU:543:CB:4906, V-A:GLU:543:CD:4908, V-B:GLU:543:CB:9878, H-A:TYR:484:OH:4348, V-B:GLU:543:CD:9880, H-B:HIS:456:NE2:9041, H-A:HIS:456:ND1:4067, H-A:HIS:456:NE2:4070, V-B:GLU:543:CA:9876, V-B:GLU:543:CG:9879, V-A:ASP:473:CG:4240, V-A:ASP:473:CB:4239, V-A:TYR:484:CB:4341, V-B:LYS:547:CE:9922"]

$$$$
4ak_Grossjean_2025
     RDKit          3D

 25 26  0  0  0  0  0  0  0  0999 V2000
  131.1240  122.9360   72.4460 C   0  0  0  0  0  0  0  0  0  0  0  0
  130.7840  123.8390   73.4860 O   0  0  0  0  0  0  0  0  0  0  0  0
  131.9160  124.4160   74.1270 C   0  0  0  0  0  0  0  0  0  0  0  0
  131.4550  125.5350   75.0700 C   0  0  0  0  0  0  0  0  0  0  0  0
  131.3890  126.7590   74.3510 O   0  0  0  0  0  0  0  0  0  0  0  0
  130.1550  126.9610   73.6740 C   0  0  0  0  0  0  0  0  0  0  0  0
  129.0100  126.4100   74.5320 C   0  0  0  0  0  0  0  0  0  0  0  0
  127.9780  125.9270   73.6830 O   0  0  0  0  0  0  0  0  0  0  0  0
  128.0830  126.3760   72.3380 C   0  0  0  0  0  0  0  0  0  0  0  0
  128.7590  125.2840   71.4890 C   0  0  0  0  0  0  0  0  0  0  0  0
  128.7830  125.5850   70.0580 N   0  0  0  0  0  0  0  0  0  0  0  0
  129.1230  126.7720   69.5160 C   0  0  0  0  0  0  0  0  0  0  0  0
  129.4760  127.7340   70.2000 O   0  0  0  0  0  0  0  0  0  0  0  0
  129.0580  126.8550   68.0580 C   0  0  0  0  0  0  0  0  0  0  0  0
  128.5420  128.3480   67.2740 S   0  0  0  0  0  0  0  0  0  0  0  0
  128.7500  127.6420   65.6870 C   0  0  0  0  0  0  0  0  0  0  0  0
  128.4940  128.3250   64.5710 N   0  0  0  0  0  0  0  0  0  0  0  0
  128.6950  127.6600   63.4070 C   0  0  0  0  0  0  0  0  0  0  0  0
  128.3990  128.4550   62.1490 C   0  0  0  0  0  0  0  0  0  0  0  0
  129.1420  126.3430   63.3340 C   0  0  0  0  0  0  0  0  0  0  0  0
  129.4110  125.6280   64.5080 C   0  0  0  0  0  0  0  0  0  0  0  0
  129.8930  124.1920   64.3770 C   0  0  0  0  0  0  0  0  0  0  0  0
  129.2110  126.2920   65.7480 C   0  0  0  0  0  0  0  0  0  0  0  0
  129.3830  125.8710   67.1120 C   0  0  0  0  0  0  0  0  0  0  0  0
  129.8240  124.6140   67.4410 N   0  0  0  0  0  0  0  0  0  0  0  0
  1  2  1  0
  2  3  1  0
  3  4  1  0
  4  5  1  0
  5  6  1  0
  6  7  1  0
  7  8  1  0
  8  9  1  0
  9 10  1  0
 10 11  1  0
 11 12  1  0
 12 13  2  0
 12 14  1  0
 14 15  1  0
 15 16  1  0
 16 17  2  0
 17 18  1  0
 18 19  1  0
 18 20  2  0
 20 21  1  0
 21 22  1  0
 21 23  2  0
 23 24  1  0
 24 25  1  0
 24 14  2  0
 23 16  1  0
M  END
>  <Binding energies>  (47) 
[-6.04]

>  <Ligand effiencies>  (47) 
[-0.21571428571428572]

>  <Interactions>  (47) 
["V-A:HIS:456:CE1:4069, V-A:TYR:484:CZ:4347, V-A:TYR:484:CE1:4345, V-B:HIS:456:CE1:9040, V-A:TYR:484:CG:4342, V-A:HIS:456:CB:4065, V-A:HIS:456:CG:4066, V-A:TYR:484:CE2:4346, V-A:TYR:484:CD2:4344, H-B:LYS:547:NZ:9923, V-B:GLU:543:C:9874, V-A:HIS:456:CD2:4068, H-A:LYS:547:NZ:4951, H-B:GLU:543:O:9875, V-A:GLU:543:CB:4906, V-A:GLU:543:CD:4908, V-B:GLU:543:CB:9878, H-A:TYR:484:OH:4348, V-B:GLU:543:CD:9880, H-B:HIS:456:NE2:9041, H-A:HIS:456:ND1:4067, H-A:HIS:456:NE2:4070, V-B:GLU:543:CA:9876, V-B:GLU:543:CG:9879"]

$$$$
4al_Grossjean_2025
     RDKit          3D

 16 17  0  0  0  0  0  0  0  0999 V2000
  127.1150  126.6180   73.6880 C   0  0  0  0  0  0  0  0  0  0  0  0
  128.3490  125.9200   73.7610 O   0  0  0  0  0  0  0  0  0  0  0  0
  129.4690  126.4220   73.1790 C   0  0  0  0  0  0  0  0  0  0  0  0
  130.4100  126.9160   73.8050 O   0  0  0  0  0  0  0  0  0  0  0  0
  129.4480  126.3170   71.7040 C   0  0  0  0  0  0  0  0  0  0  0  0
  129.5800  124.7360   70.9310 S   0  0  0  0  0  0  0  0  0  0  0  0
  129.4790  125.4580   69.3420 C   0  0  0  0  0  0  0  0  0  0  0  0
  129.5240  124.7240   68.2290 N   0  0  0  0  0  0  0  0  0  0  0  0
  129.4360  125.4070   67.0610 C   0  0  0  0  0  0  0  0  0  0  0  0
  129.4900  124.5530   65.8080 C   0  0  0  0  0  0  0  0  0  0  0  0
  129.3050  126.7920   66.9810 C   0  0  0  0  0  0  0  0  0  0  0  0
  129.2580  127.5590   68.1500 C   0  0  0  0  0  0  0  0  0  0  0  0
  129.1150  129.0660   68.0120 C   0  0  0  0  0  0  0  0  0  0  0  0
  129.3480  126.8780   69.3930 C   0  0  0  0  0  0  0  0  0  0  0  0
  129.3330  127.3390   70.7540 C   0  0  0  0  0  0  0  0  0  0  0  0
  129.2160  128.6650   71.0830 N   0  0  0  0  0  0  0  0  0  0  0  0
  1  2  1  0
  2  3  1  0
  3  4  2  0
  3  5  1  0
  5  6  1  0
  6  7  1  0
  7  8  2  0
  8  9  1  0
  9 10  1  0
  9 11  2  0
 11 12  1  0
 12 13  1  0
 12 14  2  0
 14 15  1  0
 15 16  1  0
 15  5  2  0
 14  7  1  0
M  END
>  <Binding energies>  (48) 
[-4.96]

>  <Ligand effiencies>  (48) 
[-0.27555555555555555]

>  <Interactions>  (48) 
["V-A:HIS:456:CE1:4069, V-A:TYR:484:CE1:4345, V-B:HIS:456:CE1:9040, H-B:LYS:547:NZ:9923, V-A:HIS:456:CD2:4068, V-B:HIS:456:CD2:9039, H-A:LYS:547:NZ:4951, V-A:GLU:543:CG:4907, V-A:GLU:543:CB:4906, V-A:GLU:543:CD:4908, V-B:GLU:543:CB:9878, H-A:TYR:484:OH:4348, H-B:HIS:456:ND1:9038, V-B:GLU:543:CA:9876, V-B:GLU:543:CG:9879, V-B:LYS:547:CE:9922, V-A:GLU:543:C:4902, V-A:GLU:543:CA:4904, H-A:GLU:543:O:4903, V-B:LYS:547:CD:9921"]

$$$$
4bc_Grossjean_2025
     RDKit          3D

 26 28  0  0  0  0  0  0  0  0999 V2000
  127.0380  126.9180   73.4220 C   0  0  0  0  0  0  0  0  0  0  0  0
  127.9430  125.8520   73.1590 O   0  0  0  0  0  0  0  0  0  0  0  0
  128.4170  125.6710   71.8740 C   0  0  0  0  0  0  0  0  0  0  0  0
  129.3300  124.6340   71.6870 C   0  0  0  0  0  0  0  0  0  0  0  0
  129.8620  124.3760   70.4260 C   0  0  0  0  0  0  0  0  0  0  0  0
  129.4800  125.1510   69.3300 C   0  0  0  0  0  0  0  0  0  0  0  0
  130.0810  124.8270   68.1000 N   0  0  0  0  0  0  0  0  0  0  0  0
  129.7190  125.1930   66.8460 C   0  0  0  0  0  0  0  0  0  0  0  0
  128.7270  125.8770   66.5890 O   0  0  0  0  0  0  0  0  0  0  0  0
  130.5930  124.7100   65.7720 C   0  0  0  0  0  0  0  0  0  0  0  0
  132.2020  125.3950   65.5630 S   0  0  0  0  0  0  0  0  0  0  0  0
  132.5180  124.3530   64.1960 C   0  0  0  0  0  0  0  0  0  0  0  0
  133.6780  124.3970   63.5410 N   0  0  0  0  0  0  0  0  0  0  0  0
  133.8050  123.5450   62.4990 C   0  0  0  0  0  0  0  0  0  0  0  0
  135.1360  123.6070   61.7710 C   0  0  0  0  0  0  0  0  0  0  0  0
  132.8090  122.6570   62.0980 C   0  0  0  0  0  0  0  0  0  0  0  0
  131.5850  122.6070   62.7830 C   0  0  0  0  0  0  0  0  0  0  0  0
  130.5180  121.6160   62.3030 C   0  0  0  0  0  0  0  0  0  0  0  0
  130.9130  120.8940   61.2530 F   0  0  0  0  0  0  0  0  0  0  0  0
  130.2210  120.7650   63.2850 F   0  0  0  0  0  0  0  0  0  0  0  0
  129.4180  122.2760   61.9430 F   0  0  0  0  0  0  0  0  0  0  0  0
  131.4190  123.4930   63.8890 C   0  0  0  0  0  0  0  0  0  0  0  0
  130.3330  123.7190   64.8120 C   0  0  0  0  0  0  0  0  0  0  0  0
  129.1530  123.0230   64.7500 N   0  0  0  0  0  0  0  0  0  0  0  0
  128.5710  126.2050   69.5120 C   0  0  0  0  0  0  0  0  0  0  0  0
  128.0420  126.4600   70.7740 C   0  0  0  0  0  0  0  0  0  0  0  0
  1  2  1  0
  2  3  1  0
  3  4  2  0
  4  5  1  0
  5  6  2  0
  6  7  1  0
  7  8  1  0
  8  9  2  0
  8 10  1  0
 10 11  1  0
 11 12  1  0
 12 13  2  0
 13 14  1  0
 14 15  1  0
 14 16  2  0
 16 17  1  0
 17 18  1  0
 18 19  1  0
 18 20  1  0
 18 21  1  0
 17 22  2  0
 22 23  1  0
 23 24  1  0
  6 25  1  0
 25 26  2  0
 26  3  1  0
 23 10  2  0
 22 12  1  0
M  END
>  <Binding energies>  (49) 
[-6.59]

>  <Ligand effiencies>  (49) 
[-0.22724137931034483]

>  <Interactions>  (49) 
["V-A:HIS:456:CE1:4069, V-A:TYR:484:CZ:4347, V-A:TYR:484:CE1:4345, V-B:HIS:456:CE1:9040, V-A:HIS:456:CG:4066, H-B:LYS:547:NZ:9923, V-B:GLU:543:C:9874, V-A:HIS:456:CD2:4068, H-B:GLU:543:O:9875, V-B:GLU:543:CB:9878, V-B:ALA:541:CB:9864, H-A:TYR:484:OH:4348, V-A:ILE:369:CD1:3239, H-A:GLY:454:N:4050, V-A:LEU:475:CD1:4258, V-A:GLY:454:CA:4049, V-A:GLY:453:C:4042, V-B:TYR:539:CD2:9846, V-B:GLY:544:C:9884, H-A:HIS:456:ND1:4067, V-B:GLU:543:CA:9876, V-B:GLU:543:CG:9879, V-A:GLY:453:CA:4044, V-A:LEU:475:CD2:4259, V-A:LEU:475:CG:4257"]

$$$$
4bf_Grossjean_2025
     RDKit          3D

 24 26  0  0  0  0  0  0  0  0999 V2000
  127.9910  130.0460   64.2490 C   0  0  0  0  0  0  0  0  0  0  0  0
  128.3760  128.8100   65.0420 C   0  0  0  0  0  0  0  0  0  0  0  0
  128.7090  127.6210   64.3980 C   0  0  0  0  0  0  0  0  0  0  0  0
  129.0590  126.4840   65.1430 C   0  0  0  0  0  0  0  0  0  0  0  0
  129.4150  125.1970   64.3920 C   0  0  0  0  0  0  0  0  0  0  0  0
  128.9980  124.0940   65.0190 F   0  0  0  0  0  0  0  0  0  0  0  0
  128.8500  125.2070   63.1850 F   0  0  0  0  0  0  0  0  0  0  0  0
  130.7390  125.1030   64.2580 F   0  0  0  0  0  0  0  0  0  0  0  0
  129.0570  126.6080   66.5650 C   0  0  0  0  0  0  0  0  0  0  0  0
  129.3520  125.6840   67.6310 C   0  0  0  0  0  0  0  0  0  0  0  0
  129.7300  124.3850   67.4010 N   0  0  0  0  0  0  0  0  0  0  0  0
  129.2220  126.2310   68.9180 C   0  0  0  0  0  0  0  0  0  0  0  0
  129.4120  125.5720   70.2150 C   0  0  0  0  0  0  0  0  0  0  0  0
  129.2730  126.2010   71.2640 O   0  0  0  0  0  0  0  0  0  0  0  0
  129.7260  124.2550   70.1560 N   0  0  0  0  0  0  0  0  0  0  0  0
  130.0180  123.3550   71.1990 C   0  0  0  0  0  0  0  0  0  0  0  0
  131.1460  123.4160   72.0360 C   0  0  0  0  0  0  0  0  0  0  0  0
  131.3240  122.4480   73.0270 C   0  0  0  0  0  0  0  0  0  0  0  0
  130.3690  121.4380   73.1540 C   0  0  0  0  0  0  0  0  0  0  0  0
  129.2760  121.3540   72.3550 N   0  0  0  0  0  0  0  0  0  0  0  0
  129.1170  122.3020   71.3960 C   0  0  0  0  0  0  0  0  0  0  0  0
  128.7230  127.9190   68.8450 S   0  0  0  0  0  0  0  0  0  0  0  0
  128.6970  127.8850   67.0980 C   0  0  0  0  0  0  0  0  0  0  0  0
  128.3660  128.9610   66.3860 N   0  0  0  0  0  0  0  0  0  0  0  0
  1  2  1  0
  2  3  2  0
  3  4  1  0
  4  5  1  0
  5  6  1  0
  5  7  1  0
  5  8  1  0
  4  9  2  0
  9 10  1  0
 10 11  1  0
 10 12  2  0
 12 13  1  0
 13 14  2  0
 13 15  1  0
 15 16  1  0
 16 17  2  0
 17 18  1  0
 18 19  2  0
 19 20  1  0
 20 21  2  0
 12 22  1  0
 22 23  1  0
 23 24  2  0
 24  2  1  0
 23  9  1  0
 21 16  1  0
M  END
>  <Binding energies>  (50) 
[-6.56]

>  <Ligand effiencies>  (50) 
[-0.24296296296296294]

>  <Interactions>  (50) 
["V-A:HIS:456:CE1:4069, V-A:TYR:484:CZ:4347, V-A:TYR:484:CE1:4345, V-B:HIS:456:CE1:9040, V-A:TYR:484:CG:4342, V-A:HIS:456:CB:4065, V-A:TYR:484:CD1:4343, V-A:HIS:456:CG:4066, V-A:TYR:484:CE2:4346, V-A:TYR:484:CD2:4344, H-B:LYS:547:NZ:9923, V-B:GLU:543:C:9874, V-A:HIS:456:CD2:4068, H-B:GLU:543:O:9875, V-A:GLU:543:CB:4906, V-A:GLU:543:CD:4908, V-B:GLU:543:CB:9878, H-A:TYR:484:OH:4348, V-B:GLU:543:CD:9880, H-A:HIS:456:NE2:4070, V-B:GLU:543:CA:9876, V-B:GLU:543:CG:9879, V-A:ASP:473:CB:4239, V-A:TYR:484:CB:4341, V-B:LYS:547:CE:9922, V-B:GLY:544:CA:9886"]

$$$$
4bh_Grossjean_2025
     RDKit          3D

 31 33  0  0  0  0  0  0  0  0999 V2000
  130.7650  121.5970   73.4010 C   0  0  0  0  0  0  0  0  0  0  0  0
  131.0580  122.5250   72.3620 O   0  0  0  0  0  0  0  0  0  0  0  0
  130.6520  123.8400   72.4920 C   0  0  0  0  0  0  0  0  0  0  0  0
  129.6030  124.4130   71.7560 C   0  0  0  0  0  0  0  0  0  0  0  0
  129.2490  125.7510   71.9360 C   0  0  0  0  0  0  0  0  0  0  0  0
  128.0770  126.3430   71.1620 C   0  0  0  0  0  0  0  0  0  0  0  0
  128.2510  126.2900   69.7100 N   0  0  0  0  0  0  0  0  0  0  0  0
  128.9630  127.1690   68.9750 C   0  0  0  0  0  0  0  0  0  0  0  0
  129.5180  128.1510   69.4710 O   0  0  0  0  0  0  0  0  0  0  0  0
  129.0050  126.9170   67.5340 C   0  0  0  0  0  0  0  0  0  0  0  0
  128.4760  128.1620   66.4060 S   0  0  0  0  0  0  0  0  0  0  0  0
  128.7800  127.1130   65.0410 C   0  0  0  0  0  0  0  0  0  0  0  0
  128.5590  127.5180   63.7910 N   0  0  0  0  0  0  0  0  0  0  0  0
  128.8350  126.6190   62.8180 C   0  0  0  0  0  0  0  0  0  0  0  0
  128.5740  127.1000   61.4010 C   0  0  0  0  0  0  0  0  0  0  0  0
  129.3220  125.3380   63.0620 C   0  0  0  0  0  0  0  0  0  0  0  0
  129.5550  124.9050   64.3770 C   0  0  0  0  0  0  0  0  0  0  0  0
  130.0950  123.4880   64.5960 C   0  0  0  0  0  0  0  0  0  0  0  0
  131.3660  123.4690   65.0030 F   0  0  0  0  0  0  0  0  0  0  0  0
  129.3690  122.8680   65.5260 F   0  0  0  0  0  0  0  0  0  0  0  0
  130.0300  122.7990   63.4560 F   0  0  0  0  0  0  0  0  0  0  0  0
  129.2730  125.8280   65.4270 C   0  0  0  0  0  0  0  0  0  0  0  0
  129.3770  125.7420   66.8630 C   0  0  0  0  0  0  0  0  0  0  0  0
  129.8110  124.6140   67.5100 N   0  0  0  0  0  0  0  0  0  0  0  0
  129.9290  126.5200   72.8820 C   0  0  0  0  0  0  0  0  0  0  0  0
  130.9870  125.9760   73.6270 C   0  0  0  0  0  0  0  0  0  0  0  0
  131.7120  126.6840   74.5690 O   0  0  0  0  0  0  0  0  0  0  0  0
  133.1110  126.8680   74.3770 C   0  0  0  0  0  0  0  0  0  0  0  0
  131.3420  124.6360   73.4170 C   0  0  0  0  0  0  0  0  0  0  0  0
  132.3650  124.0850   74.1530 O   0  0  0  0  0  0  0  0  0  0  0  0
  132.0830  123.9730   75.5410 C   0  0  0  0  0  0  0  0  0  0  0  0
  1  2  1  0
  2  3  1  0
  3  4  2  0
  4  5  1  0
  5  6  1  0
  6  7  1  0
  7  8  1  0
  8  9  2  0
  8 10  1  0
 10 11  1  0
 11 12  1  0
 12 13  2  0
 13 14  1  0
 14 15  1  0
 14 16  2  0
 16 17  1  0
 17 18  1  0
 18 19  1  0
 18 20  1  0
 18 21  1  0
 17 22  2  0
 22 23  1  0
 23 24  1  0
  5 25  2  0
 25 26  1  0
 26 27  1  0
 27 28  1  0
 26 29  2  0
 29 30  1  0
 30 31  1  0
 29  3  1  0
 23 10  2  0
 22 12  1  0
M  END
>  <Binding energies>  (51) 
[-6.7]

>  <Ligand effiencies>  (51) 
[-0.19705882352941176]

>  <Interactions>  (51) 
["V-A:HIS:456:CE1:4069, V-A:TYR:484:CZ:4347, V-A:TYR:484:CE1:4345, V-B:HIS:456:CE1:9040, V-A:TYR:484:CG:4342, V-A:HIS:456:CB:4065, V-A:HIS:456:CG:4066, V-A:TYR:484:CD2:4344, H-B:LYS:547:NZ:9923, V-B:GLU:543:C:9874, V-A:HIS:456:CD2:4068, H-B:GLY:544:O:9885, H-A:LYS:547:NZ:4951, H-B:GLU:543:O:9875, V-A:GLU:543:CD:4908, V-B:GLU:543:CB:9878, V-B:ALA:541:CB:9864, H-A:TYR:484:OH:4348, V-B:GLU:543:CD:9880, V-B:GLY:544:C:9884, H-B:HIS:456:NE2:9041, H-A:HIS:456:ND1:4067, H-A:HIS:456:NE2:4070, V-B:GLU:543:CA:9876, V-B:GLU:543:CG:9879, V-A:ASP:473:CG:4240, V-A:ASP:473:CB:4239, V-A:TYR:484:CB:4341, V-A:LYS:547:CE:4950, V-A:LYS:547:CD:4949"]

$$$$
4bi_Grossjean_2025
     RDKit          3D

 23 25  0  0  0  0  0  0  0  0999 V2000
  127.9640  130.2460   65.0260 C   0  0  0  0  0  0  0  0  0  0  0  0
  128.3580  128.9490   65.7080 C   0  0  0  0  0  0  0  0  0  0  0  0
  128.7040  127.8230   64.9650 C   0  0  0  0  0  0  0  0  0  0  0  0
  129.0710  126.6310   65.6100 C   0  0  0  0  0  0  0  0  0  0  0  0
  129.4520  125.4210   64.7500 C   0  0  0  0  0  0  0  0  0  0  0  0
  129.0040  124.2660   65.2460 F   0  0  0  0  0  0  0  0  0  0  0  0
  128.9380  125.5560   63.5280 F   0  0  0  0  0  0  0  0  0  0  0  0
  130.7800  125.3300   64.6620 F   0  0  0  0  0  0  0  0  0  0  0  0
  129.0650  126.6330   67.0370 C   0  0  0  0  0  0  0  0  0  0  0  0
  129.3710  125.6230   68.0200 C   0  0  0  0  0  0  0  0  0  0  0  0
  129.7520  124.3500   67.6820 N   0  0  0  0  0  0  0  0  0  0  0  0
  129.2490  126.0600   69.3500 C   0  0  0  0  0  0  0  0  0  0  0  0
  129.4670  125.3020   70.5850 C   0  0  0  0  0  0  0  0  0  0  0  0
  129.4190  125.8600   71.6830 O   0  0  0  0  0  0  0  0  0  0  0  0
  129.7000  123.9760   70.4210 N   0  0  0  0  0  0  0  0  0  0  0  0
  129.9250  123.0280   71.4100 C   0  0  0  0  0  0  0  0  0  0  0  0
  131.0940  122.9820   72.1690 C   0  0  0  0  0  0  0  0  0  0  0  0
  130.9250  121.9150   73.0220 C   0  0  0  0  0  0  0  0  0  0  0  0
  129.7170  121.3490   72.7900 O   0  0  0  0  0  0  0  0  0  0  0  0
  129.0930  122.0640   71.7650 N   0  0  0  0  0  0  0  0  0  0  0  0
  128.7250  127.7410   69.4220 S   0  0  0  0  0  0  0  0  0  0  0  0
  128.6900  127.8530   67.6780 C   0  0  0  0  0  0  0  0  0  0  0  0
  128.3440  128.9830   67.0610 N   0  0  0  0  0  0  0  0  0  0  0  0
  1  2  1  0
  2  3  2  0
  3  4  1  0
  4  5  1  0
  5  6  1  0
  5  7  1  0
  5  8  1  0
  4  9  2  0
  9 10  1  0
 10 11  1  0
 10 12  2  0
 12 13  1  0
 13 14  2  0
 13 15  1  0
 15 16  1  0
 16 17  1  0
 17 18  2  0
 18 19  1  0
 19 20  1  0
 12 21  1  0
 21 22  1  0
 22 23  2  0
 23  2  1  0
 22  9  1  0
 20 16  2  0
M  END
>  <Binding energies>  (52) 
[-7.35]

>  <Ligand effiencies>  (52) 
[-0.2826923076923077]

>  <Interactions>  (52) 
["V-A:HIS:456:CE1:4069, V-A:TYR:484:CZ:4347, V-A:TYR:484:CE1:4345, V-B:HIS:456:CE1:9040, V-A:TYR:484:CG:4342, V-A:HIS:456:CB:4065, V-A:TYR:484:CD1:4343, V-A:HIS:456:CG:4066, V-A:TYR:484:CE2:4346, V-A:TYR:484:CD2:4344, H-B:LYS:547:NZ:9923, V-B:GLU:543:C:9874, V-A:HIS:456:CD2:4068, H-B:GLU:543:O:9875, V-A:GLU:543:CB:4906, V-A:GLU:543:CD:4908, V-B:GLU:543:CB:9878, H-A:TYR:484:OH:4348, V-B:GLU:543:CD:9880, H-A:HIS:456:ND1:4067, H-A:HIS:456:NE2:4070, V-B:GLU:543:CA:9876, V-B:GLU:543:CG:9879, V-A:ASP:473:CB:4239, V-A:TYR:484:CB:4341"]

$$$$
4bj_Grossjean_2025
     RDKit          3D

 23 25  0  0  0  0  0  0  0  0999 V2000
  127.9730  130.2210   65.2290 C   0  0  0  0  0  0  0  0  0  0  0  0
  128.3910  128.9310   65.9110 C   0  0  0  0  0  0  0  0  0  0  0  0
  128.7640  127.8140   65.1670 C   0  0  0  0  0  0  0  0  0  0  0  0
  129.1430  126.6260   65.8110 C   0  0  0  0  0  0  0  0  0  0  0  0
  129.5430  125.4220   64.9500 C   0  0  0  0  0  0  0  0  0  0  0  0
  129.0940  124.2620   65.4330 F   0  0  0  0  0  0  0  0  0  0  0  0
  129.0470  125.5620   63.7210 F   0  0  0  0  0  0  0  0  0  0  0  0
  130.8720  125.3400   64.8820 F   0  0  0  0  0  0  0  0  0  0  0  0
  129.1280  126.6230   67.2370 C   0  0  0  0  0  0  0  0  0  0  0  0
  129.4400  125.6140   68.2210 C   0  0  0  0  0  0  0  0  0  0  0  0
  129.8440  124.3480   67.8810 N   0  0  0  0  0  0  0  0  0  0  0  0
  129.3010  126.0460   69.5490 C   0  0  0  0  0  0  0  0  0  0  0  0
  129.5220  125.2880   70.7830 C   0  0  0  0  0  0  0  0  0  0  0  0
  129.4370  125.8360   71.8840 O   0  0  0  0  0  0  0  0  0  0  0  0
  129.8050  123.9730   70.6160 N   0  0  0  0  0  0  0  0  0  0  0  0
  130.0440  123.0380   71.6140 C   0  0  0  0  0  0  0  0  0  0  0  0
  129.3940  121.9180   71.8460 N   0  0  0  0  0  0  0  0  0  0  0  0
  129.8970  121.2690   72.8760 C   0  0  0  0  0  0  0  0  0  0  0  0
  130.9840  121.8650   73.5080 C   0  0  0  0  0  0  0  0  0  0  0  0
  131.3570  123.3590   72.7010 S   0  0  0  0  0  0  0  0  0  0  0  0
  128.7530  127.7190   69.6230 S   0  0  0  0  0  0  0  0  0  0  0  0
  128.7290  127.8360   67.8790 C   0  0  0  0  0  0  0  0  0  0  0  0
  128.3680  128.9610   67.2640 N   0  0  0  0  0  0  0  0  0  0  0  0
  1  2  1  0
  2  3  2  0
  3  4  1  0
  4  5  1  0
  5  6  1  0
  5  7  1  0
  5  8  1  0
  4  9  2  0
  9 10  1  0
 10 11  1  0
 10 12  2  0
 12 13  1  0
 13 14  2  0
 13 15  1  0
 15 16  1  0
 16 17  2  0
 17 18  1  0
 18 19  2  0
 19 20  1  0
 12 21  1  0
 21 22  1  0
 22 23  2  0
 23  2  1  0
 22  9  1  0
 20 16  1  0
M  END
>  <Binding energies>  (53) 
[-6.54]

>  <Ligand effiencies>  (53) 
[-0.25153846153846154]

>  <Interactions>  (53) 
["V-A:HIS:456:CE1:4069, V-A:TYR:484:CZ:4347, V-A:TYR:484:CE1:4345, V-B:HIS:456:CE1:9040, V-A:TYR:484:CG:4342, V-A:HIS:456:CB:4065, V-A:TYR:484:CD1:4343, V-A:HIS:456:CG:4066, V-A:TYR:484:CE2:4346, V-A:TYR:484:CD2:4344, H-B:LYS:547:NZ:9923, V-B:GLU:543:C:9874, V-A:HIS:456:CD2:4068, H-B:GLU:543:O:9875, V-A:GLU:543:CG:4907, V-A:GLU:543:CB:4906, V-A:GLU:543:CD:4908, V-B:GLU:543:CB:9878, H-A:TYR:484:OH:4348, V-B:GLU:543:CD:9880, H-A:HIS:456:ND1:4067, H-A:HIS:456:NE2:4070, V-B:GLU:543:CA:9876, V-B:GLU:543:CG:9879, V-A:ASP:473:CG:4240, V-A:ASP:473:CB:4239, V-A:TYR:484:CB:4341, V-B:LYS:547:CE:9922"]

$$$$
4bk_Grossjean_2025
     RDKit          3D

 28 29  0  0  0  0  0  0  0  0999 V2000
  135.0990  127.2380   74.0470 C   0  0  0  0  0  0  0  0  0  0  0  0
  133.7210  126.9630   74.2440 O   0  0  0  0  0  0  0  0  0  0  0  0
  133.4760  125.7020   74.8530 C   0  0  0  0  0  0  0  0  0  0  0  0
  131.9750  125.3890   74.7980 C   0  0  0  0  0  0  0  0  0  0  0  0
  131.2370  126.5990   74.8960 O   0  0  0  0  0  0  0  0  0  0  0  0
  130.0320  126.5990   74.1420 C   0  0  0  0  0  0  0  0  0  0  0  0
  130.2320  127.4190   72.8600 C   0  0  0  0  0  0  0  0  0  0  0  0
  128.9900  127.9810   72.4640 O   0  0  0  0  0  0  0  0  0  0  0  0
  127.9800  127.0150   72.1970 C   0  0  0  0  0  0  0  0  0  0  0  0
  128.6130  125.7920   71.5110 C   0  0  0  0  0  0  0  0  0  0  0  0
  128.6640  125.8970   70.0520 N   0  0  0  0  0  0  0  0  0  0  0  0
  129.0690  126.9840   69.3630 C   0  0  0  0  0  0  0  0  0  0  0  0
  129.4620  128.0110   69.9200 O   0  0  0  0  0  0  0  0  0  0  0  0
  129.0240  126.8750   67.9040 C   0  0  0  0  0  0  0  0  0  0  0  0
  128.4960  128.2450   66.9310 S   0  0  0  0  0  0  0  0  0  0  0  0
  128.7530  127.3500   65.4520 C   0  0  0  0  0  0  0  0  0  0  0  0
  128.5080  127.8920   64.2600 N   0  0  0  0  0  0  0  0  0  0  0  0
  128.7470  127.1020   63.1870 C   0  0  0  0  0  0  0  0  0  0  0  0
  128.4630  127.7400   61.8400 C   0  0  0  0  0  0  0  0  0  0  0  0
  129.2200  125.7950   63.2790 C   0  0  0  0  0  0  0  0  0  0  0  0
  129.4780  125.2180   64.5320 C   0  0  0  0  0  0  0  0  0  0  0  0
  129.9940  123.7760   64.5810 C   0  0  0  0  0  0  0  0  0  0  0  0
  129.2860  122.9960   65.4020 F   0  0  0  0  0  0  0  0  0  0  0  0
  129.9350  123.2330   63.3660 F   0  0  0  0  0  0  0  0  0  0  0  0
  131.2560  123.7620   65.0080 F   0  0  0  0  0  0  0  0  0  0  0  0
  129.2380  126.0250   65.6840 C   0  0  0  0  0  0  0  0  0  0  0  0
  129.3870  125.7860   67.0980 C   0  0  0  0  0  0  0  0  0  0  0  0
  129.8400  124.5950   67.6050 N   0  0  0  0  0  0  0  0  0  0  0  0
  1  2  1  0
  2  3  1  0
  3  4  1  0
  4  5  1  0
  5  6  1  0
  6  7  1  0
  7  8  1  0
  8  9  1  0
  9 10  1  0
 10 11  1  0
 11 12  1  0
 12 13  2  0
 12 14  1  0
 14 15  1  0
 15 16  1  0
 16 17  2  0
 17 18  1  0
 18 19  1  0
 18 20  2  0
 20 21  1  0
 21 22  1  0
 22 23  1  0
 22 24  1  0
 22 25  1  0
 21 26  2  0
 26 27  1  0
 27 28  1  0
 27 14  2  0
 26 16  1  0
M  END
>  <Binding energies>  (54) 
[-5.86]

>  <Ligand effiencies>  (54) 
[-0.18903225806451615]

>  <Interactions>  (54) 
["V-A:HIS:456:CE1:4069, V-A:TYR:484:CZ:4347, V-A:TYR:484:CE1:4345, V-B:HIS:456:CE1:9040, V-A:HIS:456:CB:4065, V-B:GLU:543:C:9874, V-A:HIS:456:CD2:4068, H-B:GLY:544:O:9885, H-A:LYS:547:NZ:4951, H-B:GLU:543:O:9875, V-A:GLU:543:CB:4906, V-A:GLU:543:CD:4908, V-B:GLU:543:CB:9878, V-B:ALA:541:CB:9864, H-A:TYR:484:OH:4348, V-B:GLU:543:CD:9880, H-B:HIS:456:NE2:9041, H-A:HIS:456:ND1:4067, H-A:HIS:456:NE2:4070, V-B:GLU:543:CA:9876, V-B:GLU:543:CG:9879, V-A:LYS:547:CE:4950, V-A:LYS:547:CD:4949, V-A:VAL:458:CG2:4087, V-A:LYS:547:CG:4948, V-A:HIS:456:CA:4063, V-A:LYS:547:CB:4947, V-A:HIS:456:C:4061, V-A:VAL:457:C:4073, V-A:ARG:545:C:4917"]

$$$$
4cd_Grossjean_2025
     RDKit          3D

 29 32  0  0  0  0  0  0  0  0999 V2000
  129.7820  124.2360   66.9930 N   0  0  0  0  0  0  0  0  0  0  0  0
  129.4940  124.9120   65.8340 C   0  0  0  0  0  0  0  0  0  0  0  0
  129.6960  124.3670   64.5550 C   0  0  0  0  0  0  0  0  0  0  0  0
  130.2400  123.0540   64.1970 C   0  0  0  0  0  0  0  0  0  0  0  0
  130.5190  122.2310   65.0690 O   0  0  0  0  0  0  0  0  0  0  0  0
  130.3950  122.8320   62.8690 N   0  0  0  0  0  0  0  0  0  0  0  0
  130.9320  121.7150   62.2030 C   0  0  0  0  0  0  0  0  0  0  0  0
  132.2860  121.7950   61.8650 C   0  0  0  0  0  0  0  0  0  0  0  0
  132.9120  120.7340   61.2170 C   0  0  0  0  0  0  0  0  0  0  0  0
  132.1850  119.5870   60.9110 C   0  0  0  0  0  0  0  0  0  0  0  0
  130.8390  119.4880   61.2530 C   0  0  0  0  0  0  0  0  0  0  0  0
  130.2090  120.5480   61.9020 C   0  0  0  0  0  0  0  0  0  0  0  0
  129.2100  125.5020   63.2970 S   0  0  0  0  0  0  0  0  0  0  0  0
  128.7500  126.6950   64.4880 C   0  0  0  0  0  0  0  0  0  0  0  0
  128.2660  127.8820   64.1310 N   0  0  0  0  0  0  0  0  0  0  0  0
  127.9490  128.7500   65.1280 C   0  0  0  0  0  0  0  0  0  0  0  0
  127.4080  130.0810   64.6940 C   0  0  0  0  0  0  0  0  0  0  0  0
  128.2300  131.2190   64.6730 C   0  0  0  0  0  0  0  0  0  0  0  0
  127.7350  132.4560   64.2710 C   0  0  0  0  0  0  0  0  0  0  0  0
  126.4050  132.5740   63.8830 C   0  0  0  0  0  0  0  0  0  0  0  0
  125.5690  131.4630   63.8910 C   0  0  0  0  0  0  0  0  0  0  0  0
  126.0690  130.2270   64.2920 C   0  0  0  0  0  0  0  0  0  0  0  0
  128.1020  128.4140   66.4760 C   0  0  0  0  0  0  0  0  0  0  0  0
  128.6080  127.1620   66.8640 C   0  0  0  0  0  0  0  0  0  0  0  0
  128.7540  126.8610   68.3600 C   0  0  0  0  0  0  0  0  0  0  0  0
  129.8320  126.1270   68.6440 F   0  0  0  0  0  0  0  0  0  0  0  0
  128.8560  128.0020   69.0420 F   0  0  0  0  0  0  0  0  0  0  0  0
  127.6870  126.1860   68.7890 F   0  0  0  0  0  0  0  0  0  0  0  0
  128.9550  126.2500   65.8270 C   0  0  0  0  0  0  0  0  0  0  0  0
  1  2  1  0
  2  3  2  0
  3  4  1  0
  4  5  2  0
  4  6  1  0
  6  7  1  0
  7  8  2  0
  8  9  1  0
  9 10  2  0
 10 11  1  0
 11 12  2  0
  3 13  1  0
 13 14  1  0
 14 15  2  0
 15 16  1  0
 16 17  1  0
 17 18  2  0
 18 19  1  0
 19 20  2  0
 20 21  1  0
 21 22  2  0
 16 23  2  0
 23 24  1  0
 24 25  1  0
 25 26  1  0
 25 27  1  0
 25 28  1  0
 24 29  2  0
 29  2  1  0
 12  7  1  0
 29 14  1  0
 22 17  1  0
M  END
>  <Binding energies>  (55) 
[-7.23]

>  <Ligand effiencies>  (55) 
[-0.2259375]

>  <Interactions>  (55) 
["V-A:HIS:456:CE1:4069, V-A:TYR:484:CZ:4347, V-A:TYR:484:CE1:4345, V-B:HIS:456:CE1:9040, V-B:GLU:543:C:9874, V-A:HIS:456:CD2:4068, H-B:GLU:543:O:9875, V-A:GLU:543:CB:4906, V-A:GLU:543:CD:4908, V-B:GLU:543:CB:9878, V-B:ALA:541:CB:9864, H-A:TYR:484:OH:4348, V-B:GLU:543:CD:9880, V-A:LEU:475:CD1:4258, V-A:TRP:381:CH2:3372, V-B:TYR:539:CD2:9846, V-B:GLY:544:C:9884, H-A:HIS:456:ND1:4067, V-B:GLU:543:CA:9876, V-B:GLU:543:CG:9879, V-A:PRO:482:CB:4326, V-A:TRP:381:CZ2:3370, V-A:PRO:482:CG:4327, V-A:ALA:541:CB:4892, V-B:LEU:475:CD1:9229, V-B:LEU:475:CG:9228"]

$$$$
4cg_Grossjean_2025
     RDKit          3D

 30 33  0  0  0  0  0  0  0  0999 V2000
  129.8450  124.6690   67.7780 N   0  0  0  0  0  0  0  0  0  0  0  0
  129.3710  125.8730   67.3230 C   0  0  0  0  0  0  0  0  0  0  0  0
  129.0170  126.9290   68.1740 C   0  0  0  0  0  0  0  0  0  0  0  0
  129.1150  126.9990   69.6310 C   0  0  0  0  0  0  0  0  0  0  0  0
  129.5270  128.0120   70.2000 O   0  0  0  0  0  0  0  0  0  0  0  0
  128.7670  125.8810   70.3020 N   0  0  0  0  0  0  0  0  0  0  0  0
  128.7660  125.7310   71.7560 C   0  0  0  0  0  0  0  0  0  0  0  0
  129.8960  124.8490   72.2760 C   0  0  0  0  0  0  0  0  0  0  0  0
  130.5910  125.2190   73.4310 C   0  0  0  0  0  0  0  0  0  0  0  0
  131.6020  124.4000   73.9260 C   0  0  0  0  0  0  0  0  0  0  0  0
  131.9090  123.2100   73.2710 C   0  0  0  0  0  0  0  0  0  0  0  0
  131.2090  122.8270   72.1290 C   0  0  0  0  0  0  0  0  0  0  0  0
  130.1960  123.6440   71.6340 C   0  0  0  0  0  0  0  0  0  0  0  0
  128.4670  128.3320   67.2610 S   0  0  0  0  0  0  0  0  0  0  0  0
  128.6930  127.4870   65.7480 C   0  0  0  0  0  0  0  0  0  0  0  0
  128.4220  128.0670   64.5820 N   0  0  0  0  0  0  0  0  0  0  0  0
  128.6320  127.3350   63.4580 C   0  0  0  0  0  0  0  0  0  0  0  0
  128.3160  128.0170   62.1570 C   0  0  0  0  0  0  0  0  0  0  0  0
  127.0190  127.9760   61.6180 C   0  0  0  0  0  0  0  0  0  0  0  0
  126.7210  128.6060   60.4140 C   0  0  0  0  0  0  0  0  0  0  0  0
  127.7190  129.2890   59.7260 C   0  0  0  0  0  0  0  0  0  0  0  0
  129.0120  129.3430   60.2350 C   0  0  0  0  0  0  0  0  0  0  0  0
  129.3060  128.7120   61.4400 C   0  0  0  0  0  0  0  0  0  0  0  0
  129.0960  126.0150   63.5120 C   0  0  0  0  0  0  0  0  0  0  0  0
  129.3840  125.3930   64.7370 C   0  0  0  0  0  0  0  0  0  0  0  0
  129.8890  123.9450   64.7250 C   0  0  0  0  0  0  0  0  0  0  0  0
  129.2560  123.1630   65.6020 F   0  0  0  0  0  0  0  0  0  0  0  0
  129.7090  123.4160   63.5150 F   0  0  0  0  0  0  0  0  0  0  0  0
  131.1850  123.9170   65.0290 F   0  0  0  0  0  0  0  0  0  0  0  0
  129.1810  126.1580   65.9220 C   0  0  0  0  0  0  0  0  0  0  0  0
  1  2  1  0
  2  3  2  0
  3  4  1  0
  4  5  2  0
  4  6  1  0
  6  7  1  0
  7  8  1  0
  8  9  2  0
  9 10  1  0
 10 11  2  0
 11 12  1  0
 12 13  2  0
  3 14  1  0
 14 15  1  0
 15 16  2  0
 16 17  1  0
 17 18  1  0
 18 19  2  0
 19 20  1  0
 20 21  2  0
 21 22  1  0
 22 23  2  0
 17 24  2  0
 24 25  1  0
 25 26  1  0
 26 27  1  0
 26 28  1  0
 26 29  1  0
 25 30  2  0
 30  2  1  0
 13  8  1  0
 30 15  1  0
 23 18  1  0
M  END
>  <Binding energies>  (56) 
[-7.13]

>  <Ligand effiencies>  (56) 
[-0.21606060606060606]

>  <Interactions>  (56) 
["V-A:HIS:456:CE1:4069, V-A:TYR:484:CZ:4347, V-A:TYR:484:CE1:4345, V-B:HIS:456:CE1:9040, V-A:TYR:484:CG:4342, V-A:HIS:456:CB:4065, V-A:TYR:484:CD1:4343, V-A:HIS:456:CG:4066, V-A:TYR:484:CE2:4346, V-A:TYR:484:CD2:4344, V-B:GLU:543:C:9874, V-A:HIS:456:CD2:4068, H-B:GLY:544:O:9885, H-B:GLU:543:O:9875, V-A:GLU:543:CB:4906, V-A:GLU:543:CD:4908, V-B:GLU:543:CB:9878, V-B:ALA:541:CB:9864, H-A:TYR:484:OH:4348, V-B:GLU:543:CD:9880, H-B:HIS:456:NE2:9041, H-A:HIS:456:ND1:4067, H-A:HIS:456:NE2:4070, V-B:GLU:543:CA:9876, V-B:GLU:543:CG:9879, V-A:ASP:473:CB:4239"]

$$$$
4ch_Grossjean_2025
     RDKit          3D

 36 39  0  0  0  0  0  0  0  0999 V2000
  132.2290  126.4800   74.3930 C   0  0  0  0  0  0  0  0  0  0  0  0
  130.8300  126.6220   74.1700 O   0  0  0  0  0  0  0  0  0  0  0  0
  130.2560  126.0200   73.0650 C   0  0  0  0  0  0  0  0  0  0  0  0
  129.6860  126.7280   71.9940 C   0  0  0  0  0  0  0  0  0  0  0  0
  129.1250  126.0550   70.9080 C   0  0  0  0  0  0  0  0  0  0  0  0
  128.4860  126.8400   69.7690 C   0  0  0  0  0  0  0  0  0  0  0  0
  128.7110  126.2640   68.4420 N   0  0  0  0  0  0  0  0  0  0  0  0
  128.9190  126.9650   67.3080 C   0  0  0  0  0  0  0  0  0  0  0  0
  128.9660  128.1970   67.2900 O   0  0  0  0  0  0  0  0  0  0  0  0
  129.1230  126.1740   66.0940 C   0  0  0  0  0  0  0  0  0  0  0  0
  129.8350  124.5680   66.1970 S   0  0  0  0  0  0  0  0  0  0  0  0
  129.6990  124.3490   64.4690 C   0  0  0  0  0  0  0  0  0  0  0  0
  130.1130  123.2330   63.8750 N   0  0  0  0  0  0  0  0  0  0  0  0
  129.9610  123.1510   62.5270 C   0  0  0  0  0  0  0  0  0  0  0  0
  130.4440  121.8810   61.8870 C   0  0  0  0  0  0  0  0  0  0  0  0
  129.5340  120.9100   61.4400 C   0  0  0  0  0  0  0  0  0  0  0  0
  129.9750  119.7300   60.8460 C   0  0  0  0  0  0  0  0  0  0  0  0
  131.3380  119.5040   60.6920 C   0  0  0  0  0  0  0  0  0  0  0  0
  132.2620  120.4470   61.1300 C   0  0  0  0  0  0  0  0  0  0  0  0
  131.8160  121.6240   61.7240 C   0  0  0  0  0  0  0  0  0  0  0  0
  129.4100  124.1980   61.7820 C   0  0  0  0  0  0  0  0  0  0  0  0
  128.9710  125.3810   62.3970 C   0  0  0  0  0  0  0  0  0  0  0  0
  128.3760  126.4890   61.5210 C   0  0  0  0  0  0  0  0  0  0  0  0
  128.1480  126.0970   60.2650 F   0  0  0  0  0  0  0  0  0  0  0  0
  127.2130  126.8920   62.0300 F   0  0  0  0  0  0  0  0  0  0  0  0
  129.2160  127.5230   61.4690 F   0  0  0  0  0  0  0  0  0  0  0  0
  129.1140  125.4720   63.8120 C   0  0  0  0  0  0  0  0  0  0  0  0
  128.7830  126.4980   64.7710 C   0  0  0  0  0  0  0  0  0  0  0  0
  128.1980  127.6870   64.4160 N   0  0  0  0  0  0  0  0  0  0  0  0
  129.1150  124.6590   70.8940 C   0  0  0  0  0  0  0  0  0  0  0  0
  129.6770  123.9260   71.9520 C   0  0  0  0  0  0  0  0  0  0  0  0
  129.7040  122.5440   72.0030 O   0  0  0  0  0  0  0  0  0  0  0  0
  128.6520  121.8010   71.3960 C   0  0  0  0  0  0  0  0  0  0  0  0
  130.2500  124.6190   73.0280 C   0  0  0  0  0  0  0  0  0  0  0  0
  130.7900  123.9130   74.0760 O   0  0  0  0  0  0  0  0  0  0  0  0
  131.9720  123.1980   73.7450 C   0  0  0  0  0  0  0  0  0  0  0  0
  1  2  1  0
  2  3  1  0
  3  4  2  0
  4  5  1  0
  5  6  1  0
  6  7  1  0
  7  8  1  0
  8  9  2  0
  8 10  1  0
 10 11  1  0
 11 12  1  0
 12 13  2  0
 13 14  1  0
 14 15  1  0
 15 16  2  0
 16 17  1  0
 17 18  2  0
 18 19  1  0
 19 20  2  0
 14 21  2  0
 21 22  1  0
 22 23  1  0
 23 24  1  0
 23 25  1  0
 23 26  1  0
 22 27  2  0
 27 28  1  0
 28 29  1  0
  5 30  2  0
 30 31  1  0
 31 32  1  0
 32 33  1  0
 31 34  2  0
 34 35  1  0
 35 36  1  0
 34  3  1  0
 28 10  2  0
 27 12  1  0
 20 15  1  0
M  END
>  <Binding energies>  (57) 
[-7.2]

>  <Ligand effiencies>  (57) 
[-0.18461538461538463]

>  <Interactions>  (57) 
["V-A:HIS:456:CE1:4069, H-B:GLU:543:OE1:9881, V-A:TYR:484:CZ:4347, V-A:TYR:484:CE1:4345, V-B:HIS:456:CE1:9040, V-A:TYR:484:CG:4342, V-A:HIS:456:CB:4065, V-A:TYR:484:CD1:4343, H-B:LYS:547:NZ:9923, V-B:GLU:543:C:9874, V-A:HIS:456:CD2:4068, H-A:LYS:547:NZ:4951, H-B:GLU:543:O:9875, V-B:GLU:543:CB:9878, V-B:ALA:541:CB:9864, H-A:GLU:543:OE2:4910, V-B:GLU:543:CD:9880, V-B:ALA:541:CA:9862, V-A:LEU:475:CD1:4258, V-A:TRP:381:CH2:3372, V-B:TYR:539:CD2:9846, V-B:GLU:543:CA:9876, V-B:GLU:543:CG:9879, V-A:ASP:473:CG:4240, V-A:ASP:473:CB:4239, V-A:TYR:484:CB:4341, V-A:PRO:482:CB:4326, V-A:TRP:381:CZ2:3370, V-A:PRO:482:CG:4327, H-B:GLU:543:OE2:9882, V-B:LYS:547:CE:9922, H-A:GLU:543:OE1:4909, V-A:LYS:547:CE:4950, V-A:LYS:547:CD:4949, V-B:GLY:544:CA:9886"]

$$$$
4cj_Grossjean_2025
     RDKit          3D

 28 31  0  0  0  0  0  0  0  0999 V2000
  129.8670  124.3500   67.7630 N   0  0  0  0  0  0  0  0  0  0  0  0
  129.3220  125.5670   68.0860 C   0  0  0  0  0  0  0  0  0  0  0  0
  129.1270  125.9960   69.4090 C   0  0  0  0  0  0  0  0  0  0  0  0
  129.4480  125.2930   70.6530 C   0  0  0  0  0  0  0  0  0  0  0  0
  129.5300  125.9060   71.7210 O   0  0  0  0  0  0  0  0  0  0  0  0
  129.6490  123.9570   70.5330 N   0  0  0  0  0  0  0  0  0  0  0  0
  129.9630  123.0660   71.5510 C   0  0  0  0  0  0  0  0  0  0  0  0
  129.3430  121.9490   71.8640 N   0  0  0  0  0  0  0  0  0  0  0  0
  129.9160  121.3480   72.8880 C   0  0  0  0  0  0  0  0  0  0  0  0
  131.0300  121.9830   73.4290 C   0  0  0  0  0  0  0  0  0  0  0  0
  131.3360  123.4450   72.5400 S   0  0  0  0  0  0  0  0  0  0  0  0
  128.4210  127.6090   69.4570 S   0  0  0  0  0  0  0  0  0  0  0  0
  128.3890  127.6960   67.7120 C   0  0  0  0  0  0  0  0  0  0  0  0
  127.9260  128.7700   67.0780 N   0  0  0  0  0  0  0  0  0  0  0  0
  127.9480  128.7500   65.7210 C   0  0  0  0  0  0  0  0  0  0  0  0
  127.4300  129.9840   65.0380 C   0  0  0  0  0  0  0  0  0  0  0  0
  128.2260  131.1360   64.9380 C   0  0  0  0  0  0  0  0  0  0  0  0
  127.7500  132.2860   64.3110 C   0  0  0  0  0  0  0  0  0  0  0  0
  126.4660  132.2980   63.7750 C   0  0  0  0  0  0  0  0  0  0  0  0
  125.6570  131.1710   63.8630 C   0  0  0  0  0  0  0  0  0  0  0  0
  126.1370  130.0250   64.4890 C   0  0  0  0  0  0  0  0  0  0  0  0
  128.4110  127.6410   65.0060 C   0  0  0  0  0  0  0  0  0  0  0  0
  128.8990  126.5010   65.6640 C   0  0  0  0  0  0  0  0  0  0  0  0
  129.3950  125.3210   64.8190 C   0  0  0  0  0  0  0  0  0  0  0  0
  129.0510  124.1350   65.3230 F   0  0  0  0  0  0  0  0  0  0  0  0
  128.8800  125.3990   63.5920 F   0  0  0  0  0  0  0  0  0  0  0  0
  130.7260  125.3510   64.7400 F   0  0  0  0  0  0  0  0  0  0  0  0
  128.8990  126.5190   67.0880 C   0  0  0  0  0  0  0  0  0  0  0  0
  1  2  1  0
  2  3  2  0
  3  4  1  0
  4  5  2  0
  4  6  1  0
  6  7  1  0
  7  8  2  0
  8  9  1  0
  9 10  2  0
 10 11  1  0
  3 12  1  0
 12 13  1  0
 13 14  2  0
 14 15  1  0
 15 16  1  0
 16 17  2  0
 17 18  1  0
 18 19  2  0
 19 20  1  0
 20 21  2  0
 15 22  2  0
 22 23  1  0
 23 24  1  0
 24 25  1  0
 24 26  1  0
 24 27  1  0
 23 28  2  0
 28  2  1  0
 11  7  1  0
 28 13  1  0
 21 16  1  0
M  END
>  <Binding energies>  (58) 
[-7.6]

>  <Ligand effiencies>  (58) 
[-0.24516129032258063]

>  <Interactions>  (58) 
["V-A:HIS:456:CE1:4069, V-A:TYR:484:CZ:4347, V-A:TYR:484:CE1:4345, V-B:HIS:456:CE1:9040, V-A:TYR:484:CG:4342, V-A:HIS:456:CB:4065, V-A:TYR:484:CD1:4343, V-A:HIS:456:CG:4066, V-A:TYR:484:CE2:4346, V-A:TYR:484:CD2:4344, H-B:LYS:547:NZ:9923, V-B:GLU:543:C:9874, V-A:HIS:456:CD2:4068, H-B:GLU:543:O:9875, V-A:GLU:543:CB:4906, V-A:GLU:543:CD:4908, V-B:GLU:543:CB:9878, H-A:TYR:484:OH:4348, V-B:GLU:543:CD:9880, H-A:HIS:456:ND1:4067, H-A:HIS:456:NE2:4070, V-B:GLU:543:CA:9876, V-B:TYR:484:CE1:9316, V-B:GLU:543:CG:9879, V-A:ASP:473:CG:4240, V-A:ASP:473:CB:4239, V-A:TYR:484:CB:4341, V-B:LYS:547:CE:9922, V-A:ALA:541:CB:4892, V-B:LEU:475:CD1:9229"]

$$$$
4ck_Grossjean_2025
     RDKit          3D

 33 35  0  0  0  0  0  0  0  0999 V2000
  129.5980  132.2420   72.9180 C   0  0  0  0  0  0  0  0  0  0  0  0
  129.1440  131.1130   73.6480 O   0  0  0  0  0  0  0  0  0  0  0  0
  128.3290  131.4510   74.7620 C   0  0  0  0  0  0  0  0  0  0  0  0
  127.2320  130.3910   74.9190 C   0  0  0  0  0  0  0  0  0  0  0  0
  127.7720  129.1140   74.6080 O   0  0  0  0  0  0  0  0  0  0  0  0
  126.8190  128.2130   74.0600 C   0  0  0  0  0  0  0  0  0  0  0  0
  127.1050  126.8000   74.5840 C   0  0  0  0  0  0  0  0  0  0  0  0
  128.2170  126.2660   73.8780 O   0  0  0  0  0  0  0  0  0  0  0  0
  128.2180  126.5750   72.4900 C   0  0  0  0  0  0  0  0  0  0  0  0
  128.7910  125.3900   71.6990 C   0  0  0  0  0  0  0  0  0  0  0  0
  128.7750  125.6320   70.2560 N   0  0  0  0  0  0  0  0  0  0  0  0
  129.1010  126.7910   69.6460 C   0  0  0  0  0  0  0  0  0  0  0  0
  129.4840  127.7850   70.2650 O   0  0  0  0  0  0  0  0  0  0  0  0
  128.9840  126.8000   68.1870 C   0  0  0  0  0  0  0  0  0  0  0  0
  128.3710  128.2280   67.3580 S   0  0  0  0  0  0  0  0  0  0  0  0
  128.6030  127.4760   65.7980 C   0  0  0  0  0  0  0  0  0  0  0  0
  128.2970  128.1090   64.6690 N   0  0  0  0  0  0  0  0  0  0  0  0
  128.5110  127.4430   63.5040 C   0  0  0  0  0  0  0  0  0  0  0  0
  128.1730  128.1920   62.2470 C   0  0  0  0  0  0  0  0  0  0  0  0
  126.8850  128.1230   61.6930 C   0  0  0  0  0  0  0  0  0  0  0  0
  126.5650  128.8130   60.5260 C   0  0  0  0  0  0  0  0  0  0  0  0
  127.5340  129.5860   59.8950 C   0  0  0  0  0  0  0  0  0  0  0  0
  128.8170  129.6760   60.4250 C   0  0  0  0  0  0  0  0  0  0  0  0
  129.1310  128.9850   61.5920 C   0  0  0  0  0  0  0  0  0  0  0  0
  129.0390  126.1480   63.4790 C   0  0  0  0  0  0  0  0  0  0  0  0
  129.3640  125.4700   64.6650 C   0  0  0  0  0  0  0  0  0  0  0  0
  129.9360  124.0500   64.5650 C   0  0  0  0  0  0  0  0  0  0  0  0
  131.2160  123.9740   64.9330 F   0  0  0  0  0  0  0  0  0  0  0  0
  129.2440  123.2300   65.3550 F   0  0  0  0  0  0  0  0  0  0  0  0
  129.8560  123.6210   63.3060 F   0  0  0  0  0  0  0  0  0  0  0  0
  129.1420  126.1580   65.8920 C   0  0  0  0  0  0  0  0  0  0  0  0
  129.3570  125.8020   67.2740 C   0  0  0  0  0  0  0  0  0  0  0  0
  129.8760  124.5910   67.6560 N   0  0  0  0  0  0  0  0  0  0  0  0
  1  2  1  0
  2  3  1  0
  3  4  1  0
  4  5  1  0
  5  6  1  0
  6  7  1  0
  7  8  1  0
  8  9  1  0
  9 10  1  0
 10 11  1  0
 11 12  1  0
 12 13  2  0
 12 14  1  0
 14 15  1  0
 15 16  1  0
 16 17  2  0
 17 18  1  0
 18 19  1  0
 19 20  2  0
 20 21  1  0
 21 22  2  0
 22 23  1  0
 23 24  2  0
 18 25  2  0
 25 26  1  0
 26 27  1  0
 27 28  1  0
 27 29  1  0
 27 30  1  0
 26 31  2  0
 31 32  1  0
 32 33  1  0
 32 14  2  0
 31 16  1  0
 24 19  1  0
M  END
>  <Binding energies>  (59) 
[-6.38]

>  <Ligand effiencies>  (59) 
[-0.17722222222222223]

>  <Interactions>  (59) 
["V-A:HIS:456:CE1:4069, V-A:TYR:484:CZ:4347, V-A:TYR:484:CE1:4345, V-B:HIS:456:CE1:9040, H-B:LYS:547:NZ:9923, V-B:GLU:543:C:9874, V-A:HIS:456:CD2:4068, V-B:HIS:456:CD2:9039, V-B:HIS:456:CB:9036, V-B:HIS:456:CG:9037, H-A:LYS:547:NZ:4951, H-B:GLU:543:O:9875, V-A:GLU:543:CD:4908, V-B:GLU:543:CB:9878, V-B:ALA:541:CB:9864, H-A:TYR:484:OH:4348, V-B:GLU:543:CD:9880, H-B:HIS:456:NE2:9041, H-A:HIS:456:ND1:4067, H-A:HIS:456:NE2:4070, V-B:GLU:543:CA:9876, V-B:GLU:543:CG:9879, V-A:LYS:547:CE:4950, V-B:LYS:547:CD:9921, V-B:LYS:471:CE:9191"]

$$$$
4dd_Grossjean_2025
     RDKit          3D

 26 29  0  0  0  0  0  0  0  0999 V2000
  129.5900  124.8510   65.0100 C   0  0  0  0  0  0  0  0  0  0  0  0
  129.2370  125.7810   66.1610 C   0  0  0  0  0  0  0  0  0  0  0  0
  129.4780  125.3380   67.4670 C   0  0  0  0  0  0  0  0  0  0  0  0
  129.1750  126.1460   68.5690 C   0  0  0  0  0  0  0  0  0  0  0  0
  129.4170  125.6940   69.9790 C   0  0  0  0  0  0  0  0  0  0  0  0
  129.1680  126.5520   71.0620 C   0  0  0  0  0  0  0  0  0  0  0  0
  129.3870  126.1380   72.3730 C   0  0  0  0  0  0  0  0  0  0  0  0
  129.8630  124.8560   72.6210 C   0  0  0  0  0  0  0  0  0  0  0  0
  130.1170  123.9840   71.5670 C   0  0  0  0  0  0  0  0  0  0  0  0
  129.8940  124.4010   70.2570 C   0  0  0  0  0  0  0  0  0  0  0  0
  128.6260  127.3830   68.4230 N   0  0  0  0  0  0  0  0  0  0  0  0
  128.4020  127.8100   67.1810 C   0  0  0  0  0  0  0  0  0  0  0  0
  127.7190  129.3850   66.8490 S   0  0  0  0  0  0  0  0  0  0  0  0
  127.7880  129.1010   65.1090 C   0  0  0  0  0  0  0  0  0  0  0  0
  127.3370  130.1310   64.1710 C   0  0  0  0  0  0  0  0  0  0  0  0
  126.1390  130.2720   63.9220 O   0  0  0  0  0  0  0  0  0  0  0  0
  128.3190  130.8920   63.6280 N   0  0  0  0  0  0  0  0  0  0  0  0
  128.2320  131.9150   62.6670 C   0  0  0  0  0  0  0  0  0  0  0  0
  127.3800  132.9780   62.9810 C   0  0  0  0  0  0  0  0  0  0  0  0
  127.2370  134.0470   62.1010 C   0  0  0  0  0  0  0  0  0  0  0  0
  127.9530  134.0580   60.9070 C   0  0  0  0  0  0  0  0  0  0  0  0
  128.8150  133.0120   60.5870 C   0  0  0  0  0  0  0  0  0  0  0  0
  128.9600  131.9420   61.4650 C   0  0  0  0  0  0  0  0  0  0  0  0
  128.3150  127.8320   64.8250 C   0  0  0  0  0  0  0  0  0  0  0  0
  128.4800  127.3400   63.5540 N   0  0  0  0  0  0  0  0  0  0  0  0
  128.6770  127.0740   65.9940 C   0  0  0  0  0  0  0  0  0  0  0  0
  1  2  1  0
  2  3  2  0
  3  4  1  0
  4  5  1  0
  5  6  2  0
  6  7  1  0
  7  8  2  0
  8  9  1  0
  9 10  2  0
  4 11  2  0
 11 12  1  0
 12 13  1  0
 13 14  1  0
 14 15  1  0
 15 16  2  0
 15 17  1  0
 17 18  1  0
 18 19  2  0
 19 20  1  0
 20 21  2  0
 21 22  1  0
 22 23  2  0
 14 24  2  0
 24 25  1  0
 24 26  1  0
 26  2  1  0
 10  5  1  0
 26 12  2  0
 23 18  1  0
M  END
>  <Binding energies>  (60) 
[-7.25]

>  <Ligand effiencies>  (60) 
[-0.25]

>  <Interactions>  (60) 
["V-A:HIS:456:CE1:4069, H-B:GLU:543:OE1:9881, V-A:TYR:484:CZ:4347, V-A:TYR:484:CE1:4345, V-B:HIS:456:CE1:9040, V-A:HIS:456:CG:4066, V-B:GLU:543:C:9874, V-A:HIS:456:CD2:4068, V-A:GLU:543:CB:4906, V-A:GLU:543:CD:4908, V-B:GLU:543:CB:9878, H-A:GLU:543:OE2:4910, V-B:GLU:543:CD:9880, H-B:TYR:484:OH:9319, V-B:TYR:484:CZ:9318, V-B:GLU:543:CG:9879, V-A:PRO:540:CA:4883, H-B:GLU:543:OE2:9882, V-A:ALA:541:CB:4892, V-B:LEU:475:CD1:9229, V-A:TYR:539:CD2:4874, V-A:TYR:539:C:4867, H-A:GLU:543:OE1:4909, V-A:PRO:540:C:4881"]

$$$$
4dg_Grossjean_2025
     RDKit          3D

 27 30  0  0  0  0  0  0  0  0999 V2000
  129.8580  125.5770   64.5850 C   0  0  0  0  0  0  0  0  0  0  0  0
  129.4020  126.3950   65.7840 C   0  0  0  0  0  0  0  0  0  0  0  0
  129.4640  125.8020   67.0500 C   0  0  0  0  0  0  0  0  0  0  0  0
  129.0600  126.5020   68.1930 C   0  0  0  0  0  0  0  0  0  0  0  0
  129.1160  125.8930   69.5660 C   0  0  0  0  0  0  0  0  0  0  0  0
  128.4380  126.4830   70.6450 C   0  0  0  0  0  0  0  0  0  0  0  0
  128.4910  125.9240   71.9200 C   0  0  0  0  0  0  0  0  0  0  0  0
  129.2240  124.7630   72.1350 C   0  0  0  0  0  0  0  0  0  0  0  0
  129.9090  124.1590   71.0850 C   0  0  0  0  0  0  0  0  0  0  0  0
  129.8540  124.7210   69.8130 C   0  0  0  0  0  0  0  0  0  0  0  0
  128.6100  127.7850   68.1280 N   0  0  0  0  0  0  0  0  0  0  0  0
  128.5490  128.3510   66.9230 C   0  0  0  0  0  0  0  0  0  0  0  0
  127.9840  129.9890   66.6970 S   0  0  0  0  0  0  0  0  0  0  0  0
  128.2360  129.8820   64.9550 C   0  0  0  0  0  0  0  0  0  0  0  0
  127.8870  131.0090   64.0920 C   0  0  0  0  0  0  0  0  0  0  0  0
  126.8580  131.6630   64.2740 O   0  0  0  0  0  0  0  0  0  0  0  0
  128.7370  131.2560   63.0730 N   0  0  0  0  0  0  0  0  0  0  0  0
  128.6010  132.3400   62.1010 C   0  0  0  0  0  0  0  0  0  0  0  0
  129.3240  132.0700   60.7860 C   0  0  0  0  0  0  0  0  0  0  0  0
  128.7980  132.5670   59.5900 C   0  0  0  0  0  0  0  0  0  0  0  0
  129.4720  132.3480   58.3910 C   0  0  0  0  0  0  0  0  0  0  0  0
  130.6740  131.6440   58.3940 C   0  0  0  0  0  0  0  0  0  0  0  0
  131.2120  131.1610   59.5850 C   0  0  0  0  0  0  0  0  0  0  0  0
  130.5390  131.3800   60.7840 C   0  0  0  0  0  0  0  0  0  0  0  0
  128.7220  128.6190   64.5870 C   0  0  0  0  0  0  0  0  0  0  0  0
  128.9950  128.2530   63.2930 N   0  0  0  0  0  0  0  0  0  0  0  0
  128.9210  127.7270   65.6980 C   0  0  0  0  0  0  0  0  0  0  0  0
  1  2  1  0
  2  3  2  0
  3  4  1  0
  4  5  1  0
  5  6  2  0
  6  7  1  0
  7  8  2  0
  8  9  1  0
  9 10  2  0
  4 11  2  0
 11 12  1  0
 12 13  1  0
 13 14  1  0
 14 15  1  0
 15 16  2  0
 15 17  1  0
 17 18  1  0
 18 19  1  0
 19 20  2  0
 20 21  1  0
 21 22  2  0
 22 23  1  0
 23 24  2  0
 14 25  2  0
 25 26  1  0
 25 27  1  0
 27  2  1  0
 10  5  1  0
 27 12  2  0
 24 19  1  0
M  END
>  <Binding energies>  (61) 
[-7.43]

>  <Ligand effiencies>  (61) 
[-0.24766666666666665]

>  <Interactions>  (61) 
["V-A:HIS:456:CE1:4069, H-B:GLU:543:OE1:9881, V-A:TYR:484:CZ:4347, V-A:TYR:484:CE1:4345, V-B:HIS:456:CE1:9040, V-A:HIS:456:CG:4066, V-A:HIS:456:CD2:4068, V-A:GLU:543:CB:4906, V-A:GLU:543:CD:4908, V-B:GLU:543:CB:9878, H-A:GLU:543:OE2:4910, H-B:TYR:484:OH:9319, V-B:TYR:484:CE1:9316, V-B:TYR:484:CZ:9318, V-A:PRO:540:CA:4883, V-A:PRO:540:CB:4885, V-B:LYS:547:CE:9922, V-A:ALA:541:CB:4892, V-A:TYR:539:C:4867, H-A:GLU:543:OE1:4909, V-A:PRO:540:N:4884"]

$$$$
4dj_Grossjean_2025
     RDKit          3D

 25 28  0  0  0  0  0  0  0  0999 V2000
  129.2710  125.3230   64.8920 C   0  0  0  0  0  0  0  0  0  0  0  0
  128.8420  126.5170   65.7320 C   0  0  0  0  0  0  0  0  0  0  0  0
  128.3420  127.6440   65.0700 C   0  0  0  0  0  0  0  0  0  0  0  0
  127.9320  128.7760   65.7850 C   0  0  0  0  0  0  0  0  0  0  0  0
  127.3860  129.9970   65.1030 C   0  0  0  0  0  0  0  0  0  0  0  0
  126.0850  130.0060   64.5740 C   0  0  0  0  0  0  0  0  0  0  0  0
  125.5730  131.1350   63.9400 C   0  0  0  0  0  0  0  0  0  0  0  0
  126.3600  132.2760   63.8200 C   0  0  0  0  0  0  0  0  0  0  0  0
  127.6530  132.2940   64.3310 C   0  0  0  0  0  0  0  0  0  0  0  0
  128.1610  131.1640   64.9650 C   0  0  0  0  0  0  0  0  0  0  0  0
  127.9860  128.8250   67.1440 N   0  0  0  0  0  0  0  0  0  0  0  0
  128.4620  127.7530   67.7760 C   0  0  0  0  0  0  0  0  0  0  0  0
  128.5930  127.6850   69.5190 S   0  0  0  0  0  0  0  0  0  0  0  0
  129.2560  126.0500   69.4520 C   0  0  0  0  0  0  0  0  0  0  0  0
  129.6250  125.3510   70.6830 C   0  0  0  0  0  0  0  0  0  0  0  0
  129.8630  125.9790   71.7180 O   0  0  0  0  0  0  0  0  0  0  0  0
  129.6900  124.0000   70.5900 N   0  0  0  0  0  0  0  0  0  0  0  0
  130.0170  123.1080   71.6010 C   0  0  0  0  0  0  0  0  0  0  0  0
  129.4530  121.9490   71.8700 N   0  0  0  0  0  0  0  0  0  0  0  0
  130.0210  121.3630   72.9070 C   0  0  0  0  0  0  0  0  0  0  0  0
  131.0740  122.0500   73.5030 C   0  0  0  0  0  0  0  0  0  0  0  0
  131.3260  123.5460   72.6520 S   0  0  0  0  0  0  0  0  0  0  0  0
  129.3640  125.6030   68.1260 C   0  0  0  0  0  0  0  0  0  0  0  0
  129.8520  124.3690   67.7750 N   0  0  0  0  0  0  0  0  0  0  0  0
  128.9150  126.5570   67.1490 C   0  0  0  0  0  0  0  0  0  0  0  0
  1  2  1  0
  2  3  2  0
  3  4  1  0
  4  5  1  0
  5  6  2  0
  6  7  1  0
  7  8  2  0
  8  9  1  0
  9 10  2  0
  4 11  2  0
 11 12  1  0
 12 13  1  0
 13 14  1  0
 14 15  1  0
 15 16  2  0
 15 17  1  0
 17 18  1  0
 18 19  2  0
 19 20  1  0
 20 21  2  0
 21 22  1  0
 14 23  2  0
 23 24  1  0
 23 25  1  0
 25  2  1  0
 10  5  1  0
 25 12  2  0
 22 18  1  0
M  END
>  <Binding energies>  (62) 
[-7.94]

>  <Ligand effiencies>  (62) 
[-0.2835714285714286]

>  <Interactions>  (62) 
["V-A:HIS:456:CE1:4069, V-A:TYR:484:CZ:4347, V-A:TYR:484:CE1:4345, V-B:HIS:456:CE1:9040, V-A:TYR:484:CG:4342, V-A:HIS:456:CB:4065, V-A:TYR:484:CD1:4343, V-A:HIS:456:CG:4066, V-A:TYR:484:CE2:4346, V-A:TYR:484:CD2:4344, H-B:LYS:547:NZ:9923, V-B:GLU:543:C:9874, V-A:HIS:456:CD2:4068, H-B:GLU:543:O:9875, V-A:GLU:543:CB:4906, V-A:GLU:543:CD:4908, V-B:GLU:543:CB:9878, H-A:TYR:484:OH:4348, V-B:GLU:543:CD:9880, H-A:HIS:456:ND1:4067, H-A:HIS:456:NE2:4070, V-B:GLU:543:CA:9876, V-B:TYR:484:CE1:9316, V-B:TYR:484:CZ:9318, V-B:GLU:543:CG:9879, V-A:ASP:473:CG:4240, V-A:ASP:473:CB:4239, V-A:TYR:484:CB:4341, V-B:LYS:547:CE:9922, V-A:ALA:541:CB:4892, V-B:LEU:475:CD1:9229"]

$$$$
4ea_Grossjean_2025
     RDKit          3D

 31 34  0  0  0  0  0  0  0  0999 V2000
  130.3310  126.1980   74.1370 C   0  0  0  0  0  0  0  0  0  0  0  0
  128.8790  126.5530   74.4730 C   0  0  0  0  0  0  0  0  0  0  0  0
  128.0110  125.9240   73.5390 O   0  0  0  0  0  0  0  0  0  0  0  0
  127.5870  126.5750   72.4260 C   0  0  0  0  0  0  0  0  0  0  0  0
  126.6960  127.4310   72.4370 O   0  0  0  0  0  0  0  0  0  0  0  0
  128.3090  126.1510   71.1800 C   0  0  0  0  0  0  0  0  0  0  0  0
  128.0950  126.8610   69.9910 C   0  0  0  0  0  0  0  0  0  0  0  0
  128.7490  126.4930   68.8190 C   0  0  0  0  0  0  0  0  0  0  0  0
  129.6290  125.4100   68.8090 C   0  0  0  0  0  0  0  0  0  0  0  0
  130.2320  125.1300   67.5680 N   0  0  0  0  0  0  0  0  0  0  0  0
  129.7780  125.3280   66.3060 C   0  0  0  0  0  0  0  0  0  0  0  0
  128.6830  125.8200   66.0320 O   0  0  0  0  0  0  0  0  0  0  0  0
  130.6930  124.9090   65.2400 C   0  0  0  0  0  0  0  0  0  0  0  0
  132.4340  125.1390   65.4160 S   0  0  0  0  0  0  0  0  0  0  0  0
  132.7350  124.4320   63.8460 C   0  0  0  0  0  0  0  0  0  0  0  0
  133.9690  124.3070   63.3540 N   0  0  0  0  0  0  0  0  0  0  0  0
  134.0670  123.7420   62.1250 C   0  0  0  0  0  0  0  0  0  0  0  0
  135.4780  123.6100   61.5850 C   0  0  0  0  0  0  0  0  0  0  0  0
  132.9710  123.3030   61.3850 C   0  0  0  0  0  0  0  0  0  0  0  0
  131.6790  123.4350   61.9050 C   0  0  0  0  0  0  0  0  0  0  0  0
  130.5250  122.9640   61.1070 C   0  0  0  0  0  0  0  0  0  0  0  0
  130.0420  121.6620   61.2700 C   0  0  0  0  0  0  0  0  0  0  0  0
  128.9550  121.2190   60.5220 C   0  0  0  0  0  0  0  0  0  0  0  0
  128.3530  122.0780   59.6050 C   0  0  0  0  0  0  0  0  0  0  0  0
  128.8290  123.3750   59.4310 C   0  0  0  0  0  0  0  0  0  0  0  0
  129.9160  123.8170   60.1810 C   0  0  0  0  0  0  0  0  0  0  0  0
  131.5340  124.0240   63.1920 C   0  0  0  0  0  0  0  0  0  0  0  0
  130.3830  124.3080   64.0100 C   0  0  0  0  0  0  0  0  0  0  0  0
  129.1070  124.0100   63.6060 N   0  0  0  0  0  0  0  0  0  0  0  0
  129.8490  124.6930   69.9950 C   0  0  0  0  0  0  0  0  0  0  0  0
  129.1940  125.0630   71.1670 C   0  0  0  0  0  0  0  0  0  0  0  0
  1  2  1  0
  2  3  1  0
  3  4  1  0
  4  5  2  0
  4  6  1  0
  6  7  2  0
  7  8  1  0
  8  9  2  0
  9 10  1  0
 10 11  1  0
 11 12  2  0
 11 13  1  0
 13 14  1  0
 14 15  1  0
 15 16  2  0
 16 17  1  0
 17 18  1  0
 17 19  2  0
 19 20  1  0
 20 21  1  0
 21 22  2  0
 22 23  1  0
 23 24  2  0
 24 25  1  0
 25 26  2  0
 20 27  2  0
 27 28  1  0
 28 29  1  0
  9 30  1  0
 30 31  2  0
 31  6  1  0
 28 13  2  0
 27 15  1  0
 26 21  1  0
M  END
>  <Binding energies>  (63) 
[-7.79]

>  <Ligand effiencies>  (63) 
[-0.22911764705882354]

>  <Interactions>  (63) 
["V-A:HIS:456:CE1:4069, H-B:GLU:543:OE1:9881, V-A:TYR:484:CZ:4347, V-A:TYR:484:CE1:4345, V-B:HIS:456:CE1:9040, V-A:HIS:456:CG:4066, H-B:LYS:547:NZ:9923, V-A:HIS:456:CD2:4068, V-B:GLU:543:CB:9878, V-B:ALA:541:CB:9864, H-A:TYR:484:OH:4348, V-A:ILE:369:CD1:3239, H-A:GLY:454:N:4050, V-B:GLU:543:CD:9880, V-B:TYR:539:CE2:9848, V-A:GLY:453:C:4042, V-B:TYR:539:CD2:9846, V-B:GLY:544:C:9884, H-A:HIS:456:ND1:4067, V-B:GLU:543:CG:9879, V-B:TYR:539:C:9839, V-B:PRO:540:N:9856, V-B:PRO:540:CA:9855, V-A:GLY:453:CA:4044, V-B:PRO:540:C:9853, H-B:GLU:543:OE2:9882, V-A:ILE:369:CG1:3238"]

$$$$
4eb_Grossjean_2025
     RDKit          3D

 30 33  0  0  0  0  0  0  0  0999 V2000
  125.6680  127.3160   73.6560 C   0  0  0  0  0  0  0  0  0  0  0  0
  126.6950  127.3510   72.6760 O   0  0  0  0  0  0  0  0  0  0  0  0
  127.6980  126.4350   72.6820 C   0  0  0  0  0  0  0  0  0  0  0  0
  128.0800  125.8530   73.7010 O   0  0  0  0  0  0  0  0  0  0  0  0
  128.2960  126.2000   71.3250 C   0  0  0  0  0  0  0  0  0  0  0  0
  129.2750  125.2100   71.1710 C   0  0  0  0  0  0  0  0  0  0  0  0
  129.8480  124.9680   69.9260 C   0  0  0  0  0  0  0  0  0  0  0  0
  129.4560  125.7100   68.8100 C   0  0  0  0  0  0  0  0  0  0  0  0
  130.1020  125.3790   67.6030 N   0  0  0  0  0  0  0  0  0  0  0  0
  129.7350  125.6080   66.3190 C   0  0  0  0  0  0  0  0  0  0  0  0
  128.6990  126.1850   65.9860 O   0  0  0  0  0  0  0  0  0  0  0  0
  130.6690  125.1150   65.3040 C   0  0  0  0  0  0  0  0  0  0  0  0
  132.4040  125.3930   65.4770 S   0  0  0  0  0  0  0  0  0  0  0  0
  132.7370  124.5570   63.9780 C   0  0  0  0  0  0  0  0  0  0  0  0
  133.9790  124.4140   63.5110 N   0  0  0  0  0  0  0  0  0  0  0  0
  134.1010  123.7460   62.3390 C   0  0  0  0  0  0  0  0  0  0  0  0
  135.5230  123.5940   61.8270 C   0  0  0  0  0  0  0  0  0  0  0  0
  133.0240  123.2220   61.6280 C   0  0  0  0  0  0  0  0  0  0  0  0
  131.7220  123.3750   62.1220 C   0  0  0  0  0  0  0  0  0  0  0  0
  130.5860  122.8130   61.3550 C   0  0  0  0  0  0  0  0  0  0  0  0
  129.8970  123.6110   60.4360 C   0  0  0  0  0  0  0  0  0  0  0  0
  128.8290  123.0830   59.7140 C   0  0  0  0  0  0  0  0  0  0  0  0
  128.4510  121.7570   59.9130 C   0  0  0  0  0  0  0  0  0  0  0  0
  129.1300  120.9560   60.8280 C   0  0  0  0  0  0  0  0  0  0  0  0
  130.1970  121.4850   61.5490 C   0  0  0  0  0  0  0  0  0  0  0  0
  131.5510  124.0700   63.3500 C   0  0  0  0  0  0  0  0  0  0  0  0
  130.3870  124.4030   64.1280 C   0  0  0  0  0  0  0  0  0  0  0  0
  129.1200  124.0470   63.7380 N   0  0  0  0  0  0  0  0  0  0  0  0
  128.4760  126.7040   68.9550 C   0  0  0  0  0  0  0  0  0  0  0  0
  127.9040  126.9440   70.2010 C   0  0  0  0  0  0  0  0  0  0  0  0
  1  2  1  0
  2  3  1  0
  3  4  2  0
  3  5  1  0
  5  6  2  0
  6  7  1  0
  7  8  2  0
  8  9  1  0
  9 10  1  0
 10 11  2  0
 10 12  1  0
 12 13  1  0
 13 14  1  0
 14 15  2  0
 15 16  1  0
 16 17  1  0
 16 18  2  0
 18 19  1  0
 19 20  1  0
 20 21  2  0
 21 22  1  0
 22 23  2  0
 23 24  1  0
 24 25  2  0
 19 26  2  0
 26 27  1  0
 27 28  1  0
  8 29  1  0
 29 30  2  0
 30  5  1  0
 27 12  2  0
 26 14  1  0
 25 20  1  0
M  END
>  <Binding energies>  (64) 
[-8.02]

>  <Ligand effiencies>  (64) 
[-0.243030303030303]

>  <Interactions>  (64) 
["V-A:HIS:456:CE1:4069, H-B:GLU:543:OE1:9881, V-A:TYR:484:CZ:4347, V-A:TYR:484:CE1:4345, V-B:HIS:456:CE1:9040, V-A:HIS:456:CG:4066, H-B:LYS:547:NZ:9923, V-A:HIS:456:CD2:4068, V-B:HIS:456:CB:9036, V-B:HIS:456:CG:9037, V-B:GLU:543:CB:9878, V-B:ALA:541:CB:9864, H-A:TYR:484:OH:4348, V-A:ILE:369:CD1:3239, H-A:GLY:454:N:4050, V-B:GLU:543:CD:9880, V-B:ALA:541:CA:9862, V-B:TYR:539:CE2:9848, V-A:GLY:454:CA:4049, V-A:GLY:453:C:4042, V-B:TYR:539:CD2:9846, H-A:ARG:545:NH2:4928, V-B:GLY:544:C:9884, H-A:HIS:456:ND1:4067, V-B:GLU:543:CG:9879, V-B:TYR:539:C:9839, V-B:PRO:540:N:9856, V-B:PRO:540:CA:9855, V-A:GLY:453:CA:4044, V-B:PRO:540:C:9853, H-B:GLU:543:OE2:9882"]

$$$$
8b_Ghoteimi_2023
     RDKit          3D

 34 38  0  0  0  0  0  0  0  0999 V2000
  127.5710  134.0010   61.6370 C   0  0  0  0  0  0  0  0  0  0  0  0
  126.6830  133.4350   62.5960 O   0  0  0  0  0  0  0  0  0  0  0  0
  127.0390  132.2620   63.2330 C   0  0  0  0  0  0  0  0  0  0  0  0
  127.9190  132.3780   64.3070 C   0  0  0  0  0  0  0  0  0  0  0  0
  128.3330  131.2500   65.0080 C   0  0  0  0  0  0  0  0  0  0  0  0
  127.8770  129.9730   64.6530 C   0  0  0  0  0  0  0  0  0  0  0  0
  128.3200  128.7560   65.4020 C   0  0  0  0  0  0  0  0  0  0  0  0
  128.8820  127.6530   64.7500 C   0  0  0  0  0  0  0  0  0  0  0  0
  129.2890  126.5290   65.4730 C   0  0  0  0  0  0  0  0  0  0  0  0
  129.8710  125.3730   64.7510 C   0  0  0  0  0  0  0  0  0  0  0  0
  131.2020  125.0100   64.9630 C   0  0  0  0  0  0  0  0  0  0  0  0
  131.7440  123.9180   64.2910 C   0  0  0  0  0  0  0  0  0  0  0  0
  130.9680  123.1770   63.3980 C   0  0  0  0  0  0  0  0  0  0  0  0
  131.5890  122.1100   62.7780 O   0  0  0  0  0  0  0  0  0  0  0  0
  130.9110  121.4230   61.7320 C   0  0  0  0  0  0  0  0  0  0  0  0
  129.6310  123.5480   63.1840 C   0  0  0  0  0  0  0  0  0  0  0  0
  129.0900  124.6390   63.8570 C   0  0  0  0  0  0  0  0  0  0  0  0
  129.1230  126.5450   66.8840 C   0  0  0  0  0  0  0  0  0  0  0  0
  129.4290  125.5870   67.9150 C   0  0  0  0  0  0  0  0  0  0  0  0
  129.9970  124.3700   67.6390 N   0  0  0  0  0  0  0  0  0  0  0  0
  129.0940  126.0170   69.2080 C   0  0  0  0  0  0  0  0  0  0  0  0
  129.2690  125.3090   70.4780 C   0  0  0  0  0  0  0  0  0  0  0  0
  129.0290  125.8700   71.5500 O   0  0  0  0  0  0  0  0  0  0  0  0
  129.7050  124.0280   70.3740 N   0  0  0  0  0  0  0  0  0  0  0  0
  129.9500  123.1320   71.4060 C   0  0  0  0  0  0  0  0  0  0  0  0
  131.0890  123.1870   72.2070 C   0  0  0  0  0  0  0  0  0  0  0  0
  130.9560  122.1410   73.0910 C   0  0  0  0  0  0  0  0  0  0  0  0
  129.7950  121.4920   72.8390 O   0  0  0  0  0  0  0  0  0  0  0  0
  129.1640  122.1300   71.7690 N   0  0  0  0  0  0  0  0  0  0  0  0
  128.3880  127.6340   69.1790 S   0  0  0  0  0  0  0  0  0  0  0  0
  128.5450  127.7220   67.4400 C   0  0  0  0  0  0  0  0  0  0  0  0
  128.1540  128.7940   66.7510 N   0  0  0  0  0  0  0  0  0  0  0  0
  126.9900  129.8630   63.5730 C   0  0  0  0  0  0  0  0  0  0  0  0
  126.5740  130.9900   62.8690 C   0  0  0  0  0  0  0  0  0  0  0  0
  1  2  1  0
  2  3  1  0
  3  4  2  0
  4  5  1  0
  5  6  2  0
  6  7  1  0
  7  8  2  0
  8  9  1  0
  9 10  1  0
 10 11  2  0
 11 12  1  0
 12 13  2  0
 13 14  1  0
 14 15  1  0
 13 16  1  0
 16 17  2  0
  9 18  2  0
 18 19  1  0
 19 20  1  0
 19 21  2  0
 21 22  1  0
 22 23  2  0
 22 24  1  0
 24 25  1  0
 25 26  1  0
 26 27  2  0
 27 28  1  0
 28 29  1  0
 21 30  1  0
 30 31  1  0
 31 32  2  0
  6 33  1  0
 33 34  2  0
 34  3  1  0
 32  7  1  0
 17 10  1  0
 31 18  1  0
 29 25  2  0
M  END
>  <Binding energies>  (65) 
[-8.94]

>  <Ligand effiencies>  (65) 
[-0.2416216216216216]

>  <Interactions>  (65) 
["V-A:HIS:456:CE1:4069, V-A:TYR:484:CZ:4347, V-A:TYR:484:CE1:4345, V-B:HIS:456:CE1:9040, V-A:TYR:484:CG:4342, V-A:HIS:456:CB:4065, V-A:TYR:484:CD1:4343, V-A:HIS:456:CG:4066, V-A:TYR:484:CE2:4346, V-A:TYR:484:CD2:4344, H-B:LYS:547:NZ:9923, V-B:GLU:543:C:9874, V-A:HIS:456:CD2:4068, H-B:GLU:543:O:9875, V-A:GLU:543:CB:4906, V-A:GLU:543:CD:4908, V-B:GLU:543:CB:9878, H-A:TYR:484:OH:4348, V-B:GLU:543:CD:9880, V-A:LEU:475:CD1:4258, H-A:HIS:456:ND1:4067, V-B:GLU:543:CA:9876, V-B:TYR:484:CE1:9316, V-B:GLU:543:CG:9879, V-A:ASP:473:CB:4239, V-A:TYR:484:CB:4341, V-A:ALA:541:CB:4892, V-B:LEU:475:CD1:9229"]

$$$$
9d_Ghoteimi_2023
     RDKit          3D

 38 43  0  0  0  0  0  0  0  0999 V2000
  125.5380  131.5670   63.8950 C   0  0  0  0  0  0  0  0  0  0  0  0
  126.6560  132.4400   63.9650 O   0  0  0  0  0  0  0  0  0  0  0  0
  127.7070  132.1610   64.7800 C   0  0  0  0  0  0  0  0  0  0  0  0
  128.3330  133.0140   65.4150 O   0  0  0  0  0  0  0  0  0  0  0  0
  128.0320  130.7190   64.8280 C   0  0  0  0  0  0  0  0  0  0  0  0
  128.2920  129.8270   63.3280 S   0  0  0  0  0  0  0  0  0  0  0  0
  128.6230  128.3570   64.2140 C   0  0  0  0  0  0  0  0  0  0  0  0
  128.9510  127.2260   63.5900 N   0  0  0  0  0  0  0  0  0  0  0  0
  129.2060  126.1430   64.3700 C   0  0  0  0  0  0  0  0  0  0  0  0
  129.5970  124.8920   63.6490 C   0  0  0  0  0  0  0  0  0  0  0  0
  129.8380  123.7110   64.3580 C   0  0  0  0  0  0  0  0  0  0  0  0
  130.2040  122.5420   63.6980 C   0  0  0  0  0  0  0  0  0  0  0  0
  130.3300  122.5080   62.3000 C   0  0  0  0  0  0  0  0  0  0  0  0
  130.7140  121.3450   61.6230 N   0  0  0  0  0  0  0  0  0  0  0  0
  129.7240  120.5010   60.9230 C   0  0  0  0  0  0  0  0  0  0  0  0
  130.2550  119.1040   60.5390 C   0  0  0  0  0  0  0  0  0  0  0  0
  131.4450  119.2290   59.7790 O   0  0  0  0  0  0  0  0  0  0  0  0
  132.4630  119.8910   60.5120 C   0  0  0  0  0  0  0  0  0  0  0  0
  132.0010  121.3130   60.8980 C   0  0  0  0  0  0  0  0  0  0  0  0
  130.1020  123.6990   61.5950 C   0  0  0  0  0  0  0  0  0  0  0  0
  129.7390  124.8690   62.2570 C   0  0  0  0  0  0  0  0  0  0  0  0
  129.1020  126.1850   65.7620 C   0  0  0  0  0  0  0  0  0  0  0  0
  128.7390  127.3660   66.4210 C   0  0  0  0  0  0  0  0  0  0  0  0
  128.6160  127.3490   67.9020 C   0  0  0  0  0  0  0  0  0  0  0  0
  129.4840  128.0980   68.6990 C   0  0  0  0  0  0  0  0  0  0  0  0
  129.3520  128.0940   70.0850 C   0  0  0  0  0  0  0  0  0  0  0  0
  128.3380  127.3510   70.7100 C   0  0  0  0  0  0  0  0  0  0  0  0
  128.1910  127.3220   72.0990 N   0  0  0  0  0  0  0  0  0  0  0  0
  129.0220  126.3940   72.8890 C   0  0  0  0  0  0  0  0  0  0  0  0
  129.0480  126.7310   74.3950 C   0  0  0  0  0  0  0  0  0  0  0  0
  127.7240  126.7860   74.9050 O   0  0  0  0  0  0  0  0  0  0  0  0
  126.9480  127.7750   74.2450 C   0  0  0  0  0  0  0  0  0  0  0  0
  126.8670  127.4590   72.7360 C   0  0  0  0  0  0  0  0  0  0  0  0
  127.4730  126.6010   69.9000 C   0  0  0  0  0  0  0  0  0  0  0  0
  127.6060  126.6050   68.5150 C   0  0  0  0  0  0  0  0  0  0  0  0
  128.5080  128.5230   65.6260 C   0  0  0  0  0  0  0  0  0  0  0  0
  128.1880  129.8900   65.9460 C   0  0  0  0  0  0  0  0  0  0  0  0
  128.0690  130.3450   67.2330 N   0  0  0  0  0  0  0  0  0  0  0  0
  1  2  1  0
  2  3  1  0
  3  4  2  0
  3  5  1  0
  5  6  1  0
  6  7  1  0
  7  8  2  0
  8  9  1  0
  9 10  1  0
 10 11  2  0
 11 12  1  0
 12 13  2  0
 13 14  1  0
 14 15  1  0
 15 16  1  0
 16 17  1  0
 17 18  1  0
 18 19  1  0
 13 20  1  0
 20 21  2  0
  9 22  2  0
 22 23  1  0
 23 24  1  0
 24 25  2  0
 25 26  1  0
 26 27  2  0
 27 28  1  0
 28 29  1  0
 29 30  1  0
 30 31  1  0
 31 32  1  0
 32 33  1  0
 27 34  1  0
 34 35  2  0
 23 36  2  0
 36 37  1  0
 37 38  1  0
 37  5  2  0
 36  7  1  0
 21 10  1  0
 35 24  1  0
 19 14  1  0
 33 28  1  0
M  END
>  <Binding energies>  (66) 
[-7.84]

>  <Ligand effiencies>  (66) 
[-0.196]

>  <Interactions>  (66) 
["V-A:HIS:456:CE1:4069, V-B:HIS:456:CE1:9040, H-B:LYS:547:NZ:9923, V-B:GLU:543:C:9874, V-A:HIS:456:CD2:4068, V-B:HIS:456:CD2:9039, V-B:HIS:456:CB:9036, V-B:HIS:456:CG:9037, V-A:GLU:543:CG:4907, V-A:GLU:543:CB:4906, V-A:GLU:543:CD:4908, V-B:GLU:543:CB:9878, V-B:ALA:541:CB:9864, V-B:GLU:543:CD:9880, V-A:LEU:475:CD1:4258, V-B:TYR:539:CE2:9848, H-B:HIS:456:ND1:9038, V-A:TRP:381:CH2:3372, V-B:TYR:539:CD2:9846, V-B:GLY:544:C:9884, H-B:TYR:484:OH:9319, V-A:ILE:369:CG2:3237, V-B:TYR:484:CE1:9316, V-B:TYR:484:CZ:9318, V-B:GLU:543:CG:9879, V-A:TRP:381:CZ3:3371, V-A:PRO:482:CB:4326, V-A:TRP:381:CZ2:3370, V-A:PRO:482:CG:4327, V-A:ALA:541:CB:4892, V-B:LEU:475:CD1:9229, V-A:GLU:543:CA:4904, H-A:GLU:543:O:4903"]

$$$$
RR10_Rahimova_2017
     RDKit          3D

 34 38  0  0  0  0  0  0  0  0999 V2000
  126.6900  128.6400   66.3890 C   0  0  0  0  0  0  0  0  0  0  0  0
  126.7640  129.2210   64.9660 C   0  0  1  0  0  0  0  0  0  0  0  0
  127.9880  128.6850   64.1880 C   0  0  0  0  0  0  0  0  0  0  0  0
  128.0620  129.3070   62.7750 C   0  0  0  0  0  0  0  0  0  0  0  0
  126.7780  129.0380   61.9500 C   0  0  1  0  0  0  0  0  0  0  0  0
  126.6610  127.6120   61.6190 N   0  0  0  0  0  0  0  0  0  0  0  0
  126.5800  127.1040   60.3750 C   0  0  0  0  0  0  0  0  0  0  0  0
  126.6170  127.8030   59.3600 O   0  0  0  0  0  0  0  0  0  0  0  0
  126.4180  125.5730   60.2600 C   0  0  1  0  0  0  0  0  0  0  0  0
  125.6730  125.2330   58.9430 C   0  0  0  0  0  0  0  0  0  0  0  0
  125.5910  123.6960   58.7780 C   0  0  0  0  0  0  0  0  0  0  0  0
  126.9700  123.0110   58.9150 C   0  0  0  0  0  0  0  0  0  0  0  0
  127.6470  123.4390   60.1690 N   0  0  0  0  0  0  0  0  0  0  0  0
  129.0910  122.4990   60.5800 S   0  0  0  0  0  0  0  0  0  0  0  0
  130.2100  123.0070   59.7760 O   0  0  0  0  0  0  0  0  0  0  0  0
  128.7330  121.0760   60.5320 O   0  0  0  0  0  0  0  0  0  0  0  0
  129.4500  122.9190   62.2860 C   0  0  0  0  0  0  0  0  0  0  0  0
  130.1820  122.0240   63.0720 C   0  0  0  0  0  0  0  0  0  0  0  0
  130.4930  122.2900   64.4090 C   0  0  0  0  0  0  0  0  0  0  0  0
  130.0370  123.5050   64.9250 C   0  0  0  0  0  0  0  0  0  0  0  0
  130.1290  124.1120   66.1550 N   0  0  0  0  0  0  0  0  0  0  0  0
  129.4750  125.3250   66.0810 C   0  0  0  0  0  0  0  0  0  0  0  0
  129.3540  126.2760   67.2370 C   0  0  0  0  0  0  0  0  0  0  0  0
  128.7580  125.8620   68.4360 C   0  0  0  0  0  0  0  0  0  0  0  0
  128.6480  126.7410   69.5100 C   0  0  0  0  0  0  0  0  0  0  0  0
  129.1340  128.0410   69.3900 C   0  0  0  0  0  0  0  0  0  0  0  0
  129.7290  128.4670   68.2060 C   0  0  0  0  0  0  0  0  0  0  0  0
  129.8380  127.5870   67.1330 C   0  0  0  0  0  0  0  0  0  0  0  0
  128.9750  125.5420   64.8850 N   0  0  0  0  0  0  0  0  0  0  0  0
  129.3020  124.4340   64.1490 C   0  0  0  0  0  0  0  0  0  0  0  0
  129.0080  124.1400   62.8100 C   0  0  0  0  0  0  0  0  0  0  0  0
  127.8170  124.9100   60.2780 C   0  0  0  0  0  0  0  0  0  0  0  0
  125.5570  129.5650   62.7510 C   0  0  0  0  0  0  0  0  0  0  0  0
  125.4740  128.9390   64.1610 C   0  0  0  0  0  0  0  0  0  0  0  0
  2  1  1  1
  2  3  1  0
  3  4  1  0
  4  5  1  0
  5  6  1  1
  6  7  1  0
  7  8  2  0
  9  7  1  6
  9 10  1  0
 10 11  1  0
 11 12  1  0
 12 13  1  0
 13 14  1  0
 14 15  2  0
 14 16  2  0
 14 17  1  0
 17 18  2  0
 18 19  1  0
 19 20  2  0
 20 21  1  0
 21 22  1  0
 22 23  1  0
 23 24  2  0
 24 25  1  0
 25 26  2  0
 26 27  1  0
 27 28  2  0
 22 29  2  0
 29 30  1  0
 30 31  2  0
 13 32  1  0
  5 33  1  0
 33 34  1  0
 34  2  1  0
 32  9  1  0
 31 17  1  0
 30 20  1  0
 28 23  1  0
M  END
>  <Binding energies>  (67) 
[-8.73]

>  <Ligand effiencies>  (67) 
[-0.24250000000000002]

>  <Interactions>  (67) 
["V-A:HIS:456:CE1:4069, H-B:GLU:543:OE1:9881, V-A:TYR:484:CZ:4347, V-A:TYR:484:CE1:4345, V-B:HIS:456:CE1:9040, V-B:GLU:543:C:9874, H-B:GLU:543:O:9875, V-A:GLU:543:CG:4907, V-A:GLU:543:CB:4906, V-A:GLU:543:CD:4908, V-B:GLU:543:CB:9878, V-B:ALA:541:CB:9864, H-A:TYR:484:OH:4348, V-B:GLU:543:CD:9880, V-A:LEU:475:CD1:4258, V-B:TYR:539:CE2:9848, V-B:GLU:543:CG:9879, V-B:PRO:540:CB:9857, V-B:PRO:540:N:9856, V-B:PRO:540:CA:9855, H-B:ALA:541:N:9863, V-B:ARG:545:CZ:9898, H-B:GLU:543:OE2:9882, V-A:GLU:543:C:4902"]

$$$$
RR12_Rahimova_2017
     RDKit          3D

 26 28  0  0  0  0  0  0  0  0999 V2000
  133.0300  124.1970   74.8660 C   0  0  0  0  0  0  0  0  0  0  0  0
  131.7310  123.9010   74.1040 C   0  0  0  0  0  0  0  0  0  0  0  0
  131.8870  122.7490   73.0940 C   0  0  0  0  0  0  0  0  0  0  0  0
  130.5810  122.2140   72.7150 N   0  0  0  0  0  0  0  0  0  0  0  0
  129.7030  122.7220   71.7700 C   0  0  0  0  0  0  0  0  0  0  0  0
  129.9520  123.9950   70.9800 C   0  0  0  0  0  0  0  0  0  0  0  0
  129.0050  125.1370   71.3950 C   0  0  0  0  0  0  0  0  0  0  0  0
  129.1210  126.3690   70.4780 C   0  0  0  0  0  0  0  0  0  0  0  0
  129.0520  126.0530   69.0520 N   0  0  0  0  0  0  0  0  0  0  0  0
  129.4160  126.8830   68.0580 C   0  0  0  0  0  0  0  0  0  0  0  0
  129.8500  128.0210   68.2530 O   0  0  0  0  0  0  0  0  0  0  0  0
  129.2620  126.3260   66.6370 C   0  0  0  0  0  0  0  0  0  0  0  0
  129.1560  124.9020   66.6920 O   0  0  0  0  0  0  0  0  0  0  0  0
  129.8770  124.1350   65.7970 C   0  0  0  0  0  0  0  0  0  0  0  0
  131.0790  124.6800   65.3400 C   0  0  0  0  0  0  0  0  0  0  0  0
  131.8760  123.9800   64.4390 C   0  0  0  0  0  0  0  0  0  0  0  0
  131.4720  122.7250   63.9920 C   0  0  0  0  0  0  0  0  0  0  0  0
  130.2750  122.1670   64.4360 C   0  0  0  0  0  0  0  0  0  0  0  0
  129.4780  122.8690   65.3370 C   0  0  0  0  0  0  0  0  0  0  0  0
  128.6170  122.0030   71.6310 N   0  0  0  0  0  0  0  0  0  0  0  0
  128.7760  120.9550   72.4950 C   0  0  0  0  0  0  0  0  0  0  0  0
  127.9150  119.8750   72.7410 C   0  0  0  0  0  0  0  0  0  0  0  0
  128.3100  118.9190   73.6760 C   0  0  0  0  0  0  0  0  0  0  0  0
  129.5260  119.0270   74.3520 C   0  0  0  0  0  0  0  0  0  0  0  0
  130.4040  120.0900   74.1310 C   0  0  0  0  0  0  0  0  0  0  0  0
  130.0060  121.0500   73.1920 C   0  0  0  0  0  0  0  0  0  0  0  0
  1  2  1  0
  2  3  1  0
  3  4  1  0
  4  5  1  0
  5  6  1  0
  6  7  1  0
  7  8  1  0
  8  9  1  0
  9 10  1  0
 10 11  2  0
 10 12  1  0
 12 13  1  0
 13 14  1  0
 14 15  2  0
 15 16  1  0
 16 17  2  0
 17 18  1  0
 18 19  2  0
  5 20  2  0
 20 21  1  0
 21 22  2  0
 22 23  1  0
 23 24  2  0
 24 25  1  0
 25 26  2  0
 26  4  1  0
 19 14  1  0
 26 21  1  0
M  END
>  <Binding energies>  (68) 
[-6.31]

>  <Ligand effiencies>  (68) 
[-0.2337037037037037]

>  <Interactions>  (68) 
["V-A:HIS:456:CE1:4069, V-A:TYR:484:CZ:4347, V-A:TYR:484:CE1:4345, V-A:TYR:484:CG:4342, V-A:HIS:456:CB:4065, V-A:TYR:484:CD1:4343, V-A:HIS:456:CG:4066, V-A:TYR:484:CD2:4344, H-B:LYS:547:NZ:9923, V-A:HIS:456:CD2:4068, H-B:GLU:543:O:9875, V-B:GLU:543:CB:9878, V-B:ALA:541:CB:9864, V-A:LEU:475:CD1:4258, H-A:HIS:456:NE2:4070, V-B:GLU:543:CA:9876, V-B:GLU:543:CG:9879, V-A:ASP:473:CG:4240, V-A:ASP:473:CB:4239, V-A:TYR:484:CB:4341, V-B:LYS:547:CE:9922, V-A:TYR:484:C:4337"]

$$$$
RR13_Rahimova_2017
     RDKit          3D

 48 54  0  0  0  0  0  0  0  0999 V2000
  130.9560  131.3950   61.2460 Cl  0  0  0  0  0  0  0  0  0  0  0  0
  129.3060  131.9170   61.1820 C   0  0  0  0  0  0  0  0  0  0  0  0
  129.0310  133.1240   60.5360 C   0  0  0  0  0  0  0  0  0  0  0  0
  127.7270  133.6090   60.4700 C   0  0  0  0  0  0  0  0  0  0  0  0
  126.6880  132.8890   61.0530 C   0  0  0  0  0  0  0  0  0  0  0  0
  126.9550  131.6840   61.7000 C   0  0  0  0  0  0  0  0  0  0  0  0
  128.2620  131.1720   61.7670 C   0  0  0  0  0  0  0  0  0  0  0  0
  128.5350  129.8460   62.5110 C   0  0  1  0  0  0  0  0  0  0  0  0
  127.3760  129.4960   63.4570 C   0  0  0  0  0  0  0  0  0  0  0  0
  126.1010  129.7510   63.2650 N   0  0  0  0  0  0  0  0  0  0  0  0
  125.4420  129.2750   64.3940 N   0  0  0  0  0  0  0  0  0  0  0  0
  126.3540  128.7420   65.2850 N   0  0  0  0  0  0  0  0  0  0  0  0
  127.5420  128.9120   64.6940 N   0  0  0  0  0  0  0  0  0  0  0  0
  128.7590  128.4270   65.3340 C   0  0  0  0  0  0  0  0  0  0  0  0
  128.6710  126.9070   65.5670 C   0  0  0  0  0  0  0  0  0  0  0  0
  128.5440  126.5580   67.0410 C   0  0  0  0  0  0  0  0  0  0  0  0
  129.5680  125.8550   67.6820 C   0  0  0  0  0  0  0  0  0  0  0  0
  129.4480  125.5290   69.0310 C   0  0  0  0  0  0  0  0  0  0  0  0
  128.3050  125.9080   69.7330 C   0  0  0  0  0  0  0  0  0  0  0  0
  127.2810  126.6080   69.0990 C   0  0  0  0  0  0  0  0  0  0  0  0
  127.4000  126.9340   67.7500 C   0  0  0  0  0  0  0  0  0  0  0  0
  128.8860  128.7240   61.6070 N   0  0  0  0  0  0  0  0  0  0  0  0
  128.0060  127.5670   61.8540 C   0  0  0  0  0  0  0  0  0  0  0  0
  128.2770  126.4420   60.8280 C   0  0  0  0  0  0  0  0  0  0  0  0
  129.6660  125.9670   60.9350 N   0  0  0  0  0  0  0  0  0  0  0  0
  129.9480  124.8310   60.0250 C   0  0  1  0  0  0  0  0  0  0  0  0
  131.4320  124.4190   59.9140 C   0  0  0  0  0  0  0  0  0  0  0  0
  131.9620  123.6490   60.9580 C   0  0  0  0  0  0  0  0  0  0  0  0
  133.2880  123.2170   60.9340 C   0  0  0  0  0  0  0  0  0  0  0  0
  134.1090  123.5570   59.8620 C   0  0  0  0  0  0  0  0  0  0  0  0
  133.6070  124.3360   58.8240 C   0  0  0  0  0  0  0  0  0  0  0  0
  132.2810  124.7760   58.8400 C   0  0  0  0  0  0  0  0  0  0  0  0
  131.7710  125.7970   57.5370 Cl  0  0  0  0  0  0  0  0  0  0  0  0
  129.0810  123.6030   60.3110 C   0  0  0  0  0  0  0  0  0  0  0  0
  128.7320  122.6950   59.4290 N   0  0  0  0  0  0  0  0  0  0  0  0
  127.9690  121.7620   60.1230 N   0  0  0  0  0  0  0  0  0  0  0  0
  127.8780  122.1190   61.4520 N   0  0  0  0  0  0  0  0  0  0  0  0
  128.5900  123.2480   61.5500 N   0  0  0  0  0  0  0  0  0  0  0  0
  128.6990  123.9340   62.8330 C   0  0  0  0  0  0  0  0  0  0  0  0
  129.4800  123.0700   63.8400 C   0  0  0  0  0  0  0  0  0  0  0  0
  130.8740  123.6170   64.1050 C   0  0  0  0  0  0  0  0  0  0  0  0
  131.9310  122.7390   64.3630 C   0  0  0  0  0  0  0  0  0  0  0  0
  133.2080  123.2390   64.5990 C   0  0  0  0  0  0  0  0  0  0  0  0
  133.4250  124.6160   64.5780 C   0  0  0  0  0  0  0  0  0  0  0  0
  132.3750  125.4970   64.3210 C   0  0  0  0  0  0  0  0  0  0  0  0
  131.0980  124.9970   64.0840 C   0  0  0  0  0  0  0  0  0  0  0  0
  130.5420  127.1250   60.6820 C   0  0  0  0  0  0  0  0  0  0  0  0
  130.2730  128.2420   61.7170 C   0  0  0  0  0  0  0  0  0  0  0  0
  1  2  1  0
  2  3  2  0
  3  4  1  0
  4  5  2  0
  5  6  1  0
  6  7  2  0
  7  8  1  0
  8  9  1  0
  9 10  2  0
 10 11  1  0
 11 12  2  0
 12 13  1  0
 13 14  1  0
 14 15  1  0
 15 16  1  0
 16 17  2  0
 17 18  1  0
 18 19  2  0
 19 20  1  0
 20 21  2  0
  8 22  1  6
 22 23  1  0
 23 24  1  0
 24 25  1  0
 26 25  1  1
 26 27  1  0
 27 28  2  0
 28 29  1  0
 29 30  2  0
 30 31  1  0
 31 32  2  0
 32 33  1  0
 26 34  1  0
 34 35  2  0
 35 36  1  0
 36 37  2  0
 37 38  1  0
 38 39  1  0
 39 40  1  0
 40 41  1  0
 41 42  2  0
 42 43  1  0
 43 44  2  0
 44 45  1  0
 45 46  2  0
 25 47  1  0
 47 48  1  0
  7  2  1  0
 13  9  1  0
 21 16  1  0
 48 22  1  0
 32 27  1  0
 38 34  1  0
 46 41  1  0
M  END
>  <Binding energies>  (69) 
[-10.57]

>  <Ligand effiencies>  (69) 
[-0.22020833333333334]

>  <Interactions>  (69) 
["V-A:HIS:456:CE1:4069, V-A:TYR:484:CZ:4347, V-B:HIS:456:CE1:9040, V-B:GLU:543:C:9874, V-A:HIS:456:CD2:4068, V-A:GLU:543:CG:4907, V-A:GLU:543:CB:4906, V-A:GLU:543:CD:4908, V-B:GLU:543:CB:9878, V-B:ALA:541:CB:9864, V-A:ILE:369:CD1:3239, V-B:GLU:543:CD:9880, V-A:ARG:545:CZ:4926, V-A:LEU:475:CD1:4258, V-B:TYR:539:CE2:9848, V-A:GLY:454:CA:4049, V-A:ASP:366:CG:3213, V-B:GLY:544:C:9884, V-A:ASP:366:CB:3212, V-A:ILE:369:CB:3236, V-A:ILE:369:CG2:3237, V-A:ASP:366:CA:3210, V-B:GLU:543:CG:9879, H-B:ALA:541:N:9863, V-A:PRO:540:CA:4883, V-A:ALA:541:CB:4892, V-A:TYR:539:CD2:4874, V-A:TYR:539:CE2:4876, V-A:TYR:539:C:4867, H-B:ARG:545:NE:9896, V-A:PRO:540:C:4881, V-A:PRO:540:N:4884, H-B:ARG:545:NH2:9900"]

$$$$
RR14_Rahimova_2017
     RDKit          3D

 39 43  0  0  0  0  0  0  0  0999 V2000
  133.2620  125.0950   56.8260 C   0  0  0  0  0  0  0  0  0  0  0  0
  133.2140  124.0990   57.8410 O   0  0  0  0  0  0  0  0  0  0  0  0
  132.7740  124.4460   59.1040 C   0  0  0  0  0  0  0  0  0  0  0  0
  133.0490  123.5410   60.1300 C   0  0  0  0  0  0  0  0  0  0  0  0
  132.6230  123.7930   61.4300 C   0  0  0  0  0  0  0  0  0  0  0  0
  131.9080  124.9580   61.7170 C   0  0  0  0  0  0  0  0  0  0  0  0
  131.3840  125.2070   63.1260 C   0  0  0  0  0  0  0  0  0  0  0  0
  132.4260  125.1490   64.1500 N   0  0  0  0  0  0  0  0  0  0  0  0
  133.6370  124.6630   63.8560 N   0  0  0  0  0  0  0  0  0  0  0  0
  134.3410  124.7300   65.0420 N   0  0  0  0  0  0  0  0  0  0  0  0
  133.5340  125.2540   66.0470 N   0  0  0  0  0  0  0  0  0  0  0  0
  132.3740  125.4940   65.4830 C   0  0  0  0  0  0  0  0  0  0  0  0
  131.1520  126.0550   66.1970 C   0  0  0  0  0  0  0  0  0  0  0  0
  129.9160  125.3360   65.8470 N   0  0  0  0  0  0  0  0  0  0  0  0
  130.0210  123.8970   66.1220 C   0  0  0  0  0  0  0  0  0  0  0  0
  129.3940  123.0150   65.0220 C   0  0  0  0  0  0  0  0  0  0  0  0
  130.4320  122.3400   64.1010 C   0  0  0  0  0  0  0  0  0  0  0  0
  130.0550  122.3640   62.6840 N   0  0  0  0  0  0  0  0  0  0  0  0
  128.7510  123.0170   62.5150 C   0  0  0  0  0  0  0  0  0  0  0  0
  128.2990  123.0130   61.0390 C   0  0  0  0  0  0  0  0  0  0  0  0
  128.3080  121.6840   60.5280 O   0  0  0  0  0  0  0  0  0  0  0  0
  129.6000  121.0920   60.5890 C   0  0  0  0  0  0  0  0  0  0  0  0
  130.0900  121.0360   62.0520 C   0  0  0  0  0  0  0  0  0  0  0  0
  128.7720  125.9150   66.5650 C   0  0  0  0  0  0  0  0  0  0  0  0
  129.0490  126.3990   67.9870 C   0  0  0  0  0  0  0  0  0  0  0  0
  129.1070  125.5280   69.0240 C   0  0  0  0  0  0  0  0  0  0  0  0
  129.3330  125.9740   70.4140 C   0  0  0  0  0  0  0  0  0  0  0  0
  129.4190  125.0970   71.5080 C   0  0  0  0  0  0  0  0  0  0  0  0
  129.2830  123.5900   71.3370 C   0  0  0  0  0  0  0  0  0  0  0  0
  129.6380  125.6230   72.7850 C   0  0  0  0  0  0  0  0  0  0  0  0
  129.7710  126.9970   72.9750 C   0  0  0  0  0  0  0  0  0  0  0  0
  129.6890  127.8770   71.8920 C   0  0  0  0  0  0  0  0  0  0  0  0
  129.8410  129.3740   72.1330 C   0  0  0  0  0  0  0  0  0  0  0  0
  129.4690  127.3610   70.6060 C   0  0  0  0  0  0  0  0  0  0  0  0
  129.3770  128.2110   69.4840 N   0  0  0  0  0  0  0  0  0  0  0  0
  129.1700  127.8460   68.1940 C   0  0  0  0  0  0  0  0  0  0  0  0
  129.0950  128.6990   67.3090 O   0  0  0  0  0  0  0  0  0  0  0  0
  131.6540  125.8850   60.7030 C   0  0  0  0  0  0  0  0  0  0  0  0
  132.0800  125.6300   59.4030 C   0  0  0  0  0  0  0  0  0  0  0  0
  1  2  1  0
  2  3  1  0
  3  4  2  0
  4  5  1  0
  5  6  2  0
  6  7  1  0
  7  8  1  0
  8  9  1  0
  9 10  2  0
 10 11  1  0
 11 12  2  0
 12 13  1  0
 13 14  1  0
 14 15  1  0
 15 16  1  0
 16 17  1  0
 17 18  1  0
 18 19  1  0
 19 20  1  0
 20 21  1  0
 21 22  1  0
 22 23  1  0
 14 24  1  0
 24 25  1  0
 25 26  2  0
 26 27  1  0
 27 28  2  0
 28 29  1  0
 28 30  1  0
 30 31  2  0
 31 32  1  0
 32 33  1  0
 32 34  2  0
 34 35  1  0
 35 36  1  0
 36 37  2  0
  6 38  1  0
 38 39  2  0
 39  3  1  0
 12  8  1  0
 23 18  1  0
 36 25  1  0
 34 27  1  0
M  END
>  <Binding energies>  (70) 
[-10.27]

>  <Ligand effiencies>  (70) 
[-0.25675]

>  <Interactions>  (70) 
["V-A:HIS:456:CE1:4069, V-A:TYR:484:CZ:4347, V-A:TYR:484:CE1:4345, V-B:HIS:456:CE1:9040, V-A:TYR:484:CD1:4343, V-B:GLU:543:C:9874, V-A:HIS:456:CD2:4068, V-B:HIS:456:CD2:9039, V-A:GLU:543:CD:4908, V-B:GLU:543:CB:9878, V-B:ALA:541:CB:9864, H-A:TYR:484:OH:4348, H-A:GLY:454:N:4050, V-B:GLU:543:CD:9880, V-A:ARG:545:CZ:4926, V-A:LEU:475:CD1:4258, V-B:TYR:539:CE2:9848, V-B:TYR:539:CD2:9846, H-A:ARG:545:NH2:4928, H-A:ARG:545:NE:4924, V-A:ASP:366:CG:3213, V-A:ASP:366:CB:3212, H-B:TYR:539:OH:9850, V-A:ASP:366:CA:3210, V-A:ASP:366:C:3208, V-B:TYR:539:CZ:9849, V-B:GLU:543:CA:9876, V-B:GLU:543:CG:9879, H-B:ALA:541:N:9863, V-A:LYS:547:CE:4950, H-A:GLU:543:O:4903"]

$$$$
RR15_Rahimova_2017
     RDKit          3D

 45 49  0  0  0  0  0  0  0  0999 V2000
  130.4180  125.4270   74.4640 C   0  0  0  0  0  0  0  0  0  0  0  0
  129.1760  125.4730   73.7710 O   0  0  0  0  0  0  0  0  0  0  0  0
  129.1300  125.9920   72.4890 C   0  0  0  0  0  0  0  0  0  0  0  0
  129.1220  127.3670   72.2060 C   0  0  0  0  0  0  0  0  0  0  0  0
  129.0720  127.8230   70.8910 C   0  0  0  0  0  0  0  0  0  0  0  0
  129.0270  126.9220   69.8220 C   0  0  0  0  0  0  0  0  0  0  0  0
  128.9660  127.4140   68.4020 C   0  0  0  0  0  0  0  0  0  0  0  0
  129.2030  128.6750   68.0660 N   0  0  0  0  0  0  0  0  0  0  0  0
  129.0460  128.7410   66.6970 N   0  0  0  0  0  0  0  0  0  0  0  0
  128.7660  127.4830   66.3520 N   0  0  0  0  0  0  0  0  0  0  0  0
  128.3620  127.1250   64.9940 C   0  0  0  0  0  0  0  0  0  0  0  0
  129.3390  126.1780   64.2540 C   0  0  0  0  0  0  0  0  0  0  0  0
  129.9150  125.3060   64.9090 O   0  0  0  0  0  0  0  0  0  0  0  0
  129.5160  126.3080   62.9030 N   0  0  0  0  0  0  0  0  0  0  0  0
  128.3900  126.1460   61.9620 C   0  0  0  0  0  0  0  0  0  0  0  0
  128.5240  124.9110   61.0450 C   0  0  0  0  0  0  0  0  0  0  0  0
  127.6120  123.7200   61.4230 C   0  0  0  0  0  0  0  0  0  0  0  0
  128.3460  122.4870   61.7260 N   0  0  0  0  0  0  0  0  0  0  0  0
  128.7920  121.7600   60.5280 C   0  0  0  0  0  0  0  0  0  0  0  0
  129.6320  120.5190   60.9000 C   0  0  0  0  0  0  0  0  0  0  0  0
  130.7200  120.8960   61.7370 O   0  0  0  0  0  0  0  0  0  0  0  0
  130.2870  121.5080   62.9470 C   0  0  0  0  0  0  0  0  0  0  0  0
  129.4670  122.7780   62.6300 C   0  0  0  0  0  0  0  0  0  0  0  0
  130.7830  126.8050   62.2840 C   0  0  2  0  0  0  0  0  0  0  0  0
  130.5700  127.6550   60.9920 C   0  0  0  0  0  0  0  0  0  0  0  0
  130.3770  127.1160   59.9020 O   0  0  0  0  0  0  0  0  0  0  0  0
  130.5710  128.9880   61.1660 N   0  0  0  0  0  0  0  0  0  0  0  0
  130.2900  129.9740   60.1280 C   0  0  0  0  0  0  0  0  0  0  0  0
  131.1530  131.2370   60.3130 C   0  0  2  0  0  0  0  0  0  0  0  0
  132.6410  131.0770   59.9570 C   0  0  0  0  0  0  0  0  0  0  0  0
  133.3350  130.9250   61.2890 C   0  0  0  0  0  0  0  0  0  0  0  0
  132.4740  131.8080   62.1770 C   0  0  0  0  0  0  0  0  0  0  0  0
  131.1590  131.5140   61.7200 O   0  0  0  0  0  0  0  0  0  0  0  0
  131.8280  125.6960   62.2300 C   0  0  0  0  0  0  0  0  0  0  0  0
  132.5200  125.3850   63.4060 C   0  0  0  0  0  0  0  0  0  0  0  0
  133.4850  124.3820   63.4160 C   0  0  0  0  0  0  0  0  0  0  0  0
  133.7640  123.6800   62.2470 C   0  0  0  0  0  0  0  0  0  0  0  0
  134.7010  122.7050   62.2560 F   0  0  0  0  0  0  0  0  0  0  0  0
  133.0840  123.9750   61.0680 C   0  0  0  0  0  0  0  0  0  0  0  0
  132.1200  124.9790   61.0590 C   0  0  0  0  0  0  0  0  0  0  0  0
  128.6670  126.6330   67.3810 N   0  0  0  0  0  0  0  0  0  0  0  0
  129.0370  125.5500   70.1070 C   0  0  0  0  0  0  0  0  0  0  0  0
  129.0910  125.0740   71.4280 C   0  0  0  0  0  0  0  0  0  0  0  0
  129.1070  123.7310   71.7600 O   0  0  0  0  0  0  0  0  0  0  0  0
  130.3390  123.0180   71.7480 C   0  0  0  0  0  0  0  0  0  0  0  0
  1  2  1  0
  2  3  1  0
  3  4  2  0
  4  5  1  0
  5  6  2  0
  6  7  1  0
  7  8  1  0
  8  9  2  0
  9 10  1  0
 10 11  1  0
 11 12  1  0
 12 13  2  0
 12 14  1  0
 14 15  1  0
 15 16  1  0
 16 17  1  0
 17 18  1  0
 18 19  1  0
 19 20  1  0
 20 21  1  0
 21 22  1  0
 22 23  1  0
 24 14  1  6
 24 25  1  0
 25 26  2  0
 25 27  1  0
 27 28  1  0
 29 28  1  1
 29 30  1  0
 30 31  1  0
 31 32  1  0
 32 33  1  0
 24 34  1  0
 34 35  2  0
 35 36  1  0
 36 37  2  0
 37 38  1  0
 37 39  1  0
 39 40  2  0
 10 41  1  0
  6 42  1  0
 42 43  2  0
 43 44  1  0
 44 45  1  0
 43  3  1  0
 41  7  2  0
 23 18  1  0
 33 29  1  0
 40 34  1  0
M  END
>  <Binding energies>  (71) 
[-9.46]

>  <Ligand effiencies>  (71) 
[-0.2056521739130435]

>  <Interactions>  (71) 
["V-A:HIS:456:CE1:4069, V-A:TYR:484:CZ:4347, V-A:TYR:484:CE1:4345, V-B:HIS:456:CE1:9040, V-A:TYR:484:CG:4342, V-A:TYR:484:CD1:4343, V-A:TYR:484:CE2:4346, V-A:TYR:484:CD2:4344, H-B:LYS:547:NZ:9923, V-A:HIS:456:CD2:4068, V-B:HIS:456:CD2:9039, V-A:GLU:543:CD:4908, V-B:ALA:541:CB:9864, H-A:GLU:543:OE2:4910, V-A:ILE:369:CD1:3239, V-B:GLU:543:CD:9880, V-A:ARG:545:CZ:4926, V-A:LEU:475:CD1:4258, V-B:TYR:539:CE2:9848, V-A:GLY:454:CA:4049, V-A:GLY:453:C:4042, V-B:TYR:539:CD2:9846, V-A:ASP:366:CG:3213, H-B:HIS:456:NE2:9041, V-B:GLU:543:CG:9879, V-B:PRO:540:CA:9855, H-B:ALA:541:N:9863, V-A:PRO:540:CA:4883, V-A:ASN:362:CB:3176, V-A:PRO:540:CB:4885, H-A:GLU:543:OE1:4909, V-A:ALA:541:CA:4890, V-A:PRO:540:C:4881, V-A:ALA:541:C:4888, H-A:ALA:541:N:4891"]

$$$$
RR17_Rahimova_2017
     RDKit          3D

 38 41  0  0  0  0  0  0  0  0999 V2000
  134.6080  125.0980   66.5350 C   0  0  0  0  0  0  0  0  0  0  0  0
  133.6420  125.1010   65.3470 C   0  0  0  0  0  0  0  0  0  0  0  0
  134.3590  124.7310   64.1730 O   0  0  0  0  0  0  0  0  0  0  0  0
  133.6910  124.6640   62.9640 C   0  0  0  0  0  0  0  0  0  0  0  0
  134.3350  123.9780   61.9350 C   0  0  0  0  0  0  0  0  0  0  0  0
  133.7410  123.8580   60.6830 C   0  0  0  0  0  0  0  0  0  0  0  0
  132.4840  124.4270   60.4320 C   0  0  0  0  0  0  0  0  0  0  0  0
  131.8680  124.2810   59.0710 C   0  0  0  0  0  0  0  0  0  0  0  0
  132.5310  123.9810   58.0740 O   0  0  0  0  0  0  0  0  0  0  0  0
  130.3490  124.5400   58.9570 C   0  0  0  0  0  0  0  0  0  0  0  0
  129.3650  123.0470   59.3390 S   0  0  0  0  0  0  0  0  0  0  0  0
  129.2220  123.2180   61.0960 C   0  0  0  0  0  0  0  0  0  0  0  0
  128.4590  124.0880   61.7160 N   0  0  0  0  0  0  0  0  0  0  0  0
  128.6210  123.8980   63.0830 N   0  0  0  0  0  0  0  0  0  0  0  0
  129.4730  122.9170   63.2380 C   0  0  0  0  0  0  0  0  0  0  0  0
  129.9270  122.3720   64.5840 C   0  0  0  0  0  0  0  0  0  0  0  0
  130.6530  123.3430   65.3990 N   0  0  0  0  0  0  0  0  0  0  0  0
  130.0950  124.5500   65.8570 C   0  0  0  0  0  0  0  0  0  0  0  0
  130.0150  125.6060   64.9490 C   0  0  0  0  0  0  0  0  0  0  0  0
  129.4780  126.8300   65.3370 C   0  0  0  0  0  0  0  0  0  0  0  0
  129.0110  127.0120   66.6420 C   0  0  0  0  0  0  0  0  0  0  0  0
  128.4310  128.3640   67.0550 C   0  0  0  0  0  0  0  0  0  0  0  0
  127.1140  128.3050   67.2690 F   0  0  0  0  0  0  0  0  0  0  0  0
  129.0100  128.7970   68.1760 F   0  0  0  0  0  0  0  0  0  0  0  0
  128.6580  129.2510   66.0860 F   0  0  0  0  0  0  0  0  0  0  0  0
  129.0830  125.9520   67.5520 C   0  0  0  0  0  0  0  0  0  0  0  0
  129.6180  124.7280   67.1620 C   0  0  0  0  0  0  0  0  0  0  0  0
  129.9040  122.4460   62.0150 N   0  0  0  0  0  0  0  0  0  0  0  0
  130.8050  121.4000   61.7650 C   0  0  0  0  0  0  0  0  0  0  0  0
  130.3170  120.1420   61.4100 C   0  0  0  0  0  0  0  0  0  0  0  0
  131.2110  119.1040   61.1660 C   0  0  0  0  0  0  0  0  0  0  0  0
  132.5950  119.3200   61.2750 C   0  0  0  0  0  0  0  0  0  0  0  0
  133.5540  118.3510   61.0520 O   0  0  0  0  0  0  0  0  0  0  0  0
  134.4760  118.5200   59.9800 C   0  0  0  0  0  0  0  0  0  0  0  0
  133.0650  120.5850   61.6340 C   0  0  0  0  0  0  0  0  0  0  0  0
  132.1760  121.6290   61.8780 C   0  0  0  0  0  0  0  0  0  0  0  0
  131.8370  125.1160   61.4680 C   0  0  0  0  0  0  0  0  0  0  0  0
  132.4330  125.2340   62.7210 C   0  0  0  0  0  0  0  0  0  0  0  0
  1  2  1  0
  2  3  1  0
  3  4  1  0
  4  5  2  0
  5  6  1  0
  6  7  2  0
  7  8  1  0
  8  9  2  0
  8 10  1  0
 10 11  1  0
 11 12  1  0
 12 13  2  0
 13 14  1  0
 14 15  2  0
 15 16  1  0
 16 17  1  0
 17 18  1  0
 18 19  2  0
 19 20  1  0
 20 21  2  0
 21 22  1  0
 22 23  1  0
 22 24  1  0
 22 25  1  0
 21 26  1  0
 26 27  2  0
 15 28  1  0
 28 29  1  0
 29 30  2  0
 30 31  1  0
 31 32  2  0
 32 33  1  0
 33 34  1  0
 32 35  1  0
 35 36  2  0
  7 37  1  0
 37 38  2  0
 38  4  1  0
 28 12  1  0
 36 29  1  0
 27 18  1  0
M  END
>  <Binding energies>  (72) 
[-7.73]

>  <Ligand effiencies>  (72) 
[-0.19820512820512823]

>  <Interactions>  (72) 
["V-A:HIS:456:CE1:4069, V-A:TYR:484:CZ:4347, V-A:TYR:484:CE1:4345, V-B:HIS:456:CE1:9040, V-B:GLU:543:C:9874, V-A:GLU:543:CG:4907, V-A:GLU:543:CB:4906, V-A:GLU:543:CD:4908, V-B:GLU:543:CB:9878, V-B:ALA:541:CB:9864, H-A:TYR:484:OH:4348, V-A:ILE:369:CD1:3239, H-A:GLY:454:N:4050, V-A:ARG:545:CZ:4926, V-A:LEU:475:CD1:4258, V-B:TYR:539:CE2:9848, V-A:TRP:381:CH2:3372, H-A:ARG:545:NH2:4928, H-A:ARG:545:NE:4924, V-A:ASP:366:CG:3213, H-B:TYR:539:OH:9850, V-A:ILE:369:CG2:3237, V-B:TYR:539:CZ:9849, V-B:GLU:543:CA:9876, V-B:GLU:543:CG:9879, V-A:GLY:453:CA:4044, V-A:SER:385:CA:3407, V-A:SER:385:C:3405, V-A:PRO:482:CB:4326, V-A:TRP:381:CZ2:3370, V-A:ARG:545:CG:4922, V-A:PRO:482:CG:4327, V-A:ARG:545:CD:4923, H-A:ARG:545:NH1:4927, V-A:GLU:543:C:4902, V-A:ILE:455:C:4052"]

$$$$
RR19_Rahimova_2017
     RDKit          3D

 46 51  0  0  0  0  0  0  0  0999 V2000
  132.8070  124.1740   58.2340 O   0  0  0  0  0  0  0  0  0  0  0  0
  132.5710  124.6650   59.3410 C   0  0  0  0  0  0  0  0  0  0  0  0
  131.7340  125.7040   59.5900 N   0  0  0  0  0  0  0  0  0  0  0  0
  130.7890  126.3480   58.8290 C   0  0  0  0  0  0  0  0  0  0  0  0
  130.2100  125.8250   57.3270 S   0  0  0  0  0  0  0  0  0  0  0  0
  130.3930  127.4850   59.4890 N   0  0  0  0  0  0  0  0  0  0  0  0
  129.4080  128.3900   59.2620 C   0  0  0  0  0  0  0  0  0  0  0  0
  128.4850  128.2780   58.4520 O   0  0  0  0  0  0  0  0  0  0  0  0
  129.5240  129.6740   60.1210 C   0  0  2  0  0  0  0  0  0  0  0  0
  130.9400  130.3210   60.1390 C   0  0  0  0  0  0  0  0  0  0  0  0
  131.4350  130.8330   58.7960 C   0  0  0  0  0  0  0  0  0  0  0  0
  130.6480  131.7120   58.0200 C   0  0  0  0  0  0  0  0  0  0  0  0
  131.1490  132.2300   56.8340 C   0  0  0  0  0  0  0  0  0  0  0  0
  132.4330  131.9030   56.4130 C   0  0  0  0  0  0  0  0  0  0  0  0
  133.2300  131.0630   57.1810 C   0  0  0  0  0  0  0  0  0  0  0  0
  132.7480  130.5360   58.3710 C   0  0  0  0  0  0  0  0  0  0  0  0
  129.0070  129.4520   61.4990 N   0  0  0  0  0  0  0  0  0  0  0  0
  127.9730  130.1890   61.9960 C   0  0  0  0  0  0  0  0  0  0  0  0
  127.3710  131.1050   61.4330 O   0  0  0  0  0  0  0  0  0  0  0  0
  127.7210  129.6520   63.3560 C   0  0  0  0  0  0  0  0  0  0  0  0
  126.7890  130.0210   64.3260 C   0  0  0  0  0  0  0  0  0  0  0  0
  126.7720  129.3230   65.5390 C   0  0  0  0  0  0  0  0  0  0  0  0
  127.6760  128.2740   65.7630 C   0  0  0  0  0  0  0  0  0  0  0  0
  128.6020  127.9190   64.7750 C   0  0  0  0  0  0  0  0  0  0  0  0
  128.6030  128.6290   63.5740 C   0  0  0  0  0  0  0  0  0  0  0  0
  129.4430  128.4830   62.3590 C   0  0  0  0  0  0  0  0  0  0  0  0
  130.3350  127.6560   62.1680 O   0  0  0  0  0  0  0  0  0  0  0  0
  133.2760  124.0920   60.5990 C   0  0  2  0  0  0  0  0  0  0  0  0
  133.6700  122.5920   60.4730 C   0  0  0  0  0  0  0  0  0  0  0  0
  132.5280  121.6300   60.7420 C   0  0  0  0  0  0  0  0  0  0  0  0
  131.2230  121.9380   60.3000 C   0  0  0  0  0  0  0  0  0  0  0  0
  130.2000  121.0120   60.4570 C   0  0  0  0  0  0  0  0  0  0  0  0
  130.4590  119.7710   61.0230 C   0  0  0  0  0  0  0  0  0  0  0  0
  131.7470  119.4380   61.4270 C   0  0  0  0  0  0  0  0  0  0  0  0
  132.7830  120.3510   61.2800 C   0  0  0  0  0  0  0  0  0  0  0  0
  132.5350  124.3570   61.8650 N   0  0  0  0  0  0  0  0  0  0  0  0
  133.1830  124.5810   63.0430 C   0  0  0  0  0  0  0  0  0  0  0  0
  134.3990  124.5800   63.2370 O   0  0  0  0  0  0  0  0  0  0  0  0
  132.1120  124.8250   64.0410 C   0  0  0  0  0  0  0  0  0  0  0  0
  132.1820  125.1000   65.4080 C   0  0  0  0  0  0  0  0  0  0  0  0
  130.9890  125.2930   66.1140 C   0  0  0  0  0  0  0  0  0  0  0  0
  129.7560  125.2110   65.4530 C   0  0  0  0  0  0  0  0  0  0  0  0
  129.7080  124.9350   64.0820 C   0  0  0  0  0  0  0  0  0  0  0  0
  130.9090  124.7440   63.3960 C   0  0  0  0  0  0  0  0  0  0  0  0
  131.1750  124.4470   61.9680 C   0  0  0  0  0  0  0  0  0  0  0  0
  130.3470  124.3110   61.0670 O   0  0  0  0  0  0  0  0  0  0  0  0
  1  2  2  0
  2  3  1  0
  3  4  1  0
  4  5  2  0
  4  6  1  0
  6  7  1  0
  7  8  2  0
  7  9  1  0
  9 10  1  1
 10 11  1  0
 11 12  2  0
 12 13  1  0
 13 14  2  0
 14 15  1  0
 15 16  2  0
  9 17  1  0
 17 18  1  0
 18 19  2  0
 18 20  1  0
 20 21  2  0
 21 22  1  0
 22 23  2  0
 23 24  1  0
 24 25  2  0
 25 26  1  0
 26 27  2  0
  2 28  1  0
 28 29  1  6
 29 30  1  0
 30 31  2  0
 31 32  1  0
 32 33  2  0
 33 34  1  0
 34 35  2  0
 28 36  1  0
 36 37  1  0
 37 38  2  0
 37 39  1  0
 39 40  2  0
 40 41  1  0
 41 42  2  0
 42 43  1  0
 43 44  2  0
 44 45  1  0
 45 46  2  0
 16 11  1  0
 26 17  1  0
 35 30  1  0
 45 36  1  0
 25 20  1  0
 44 39  1  0
M  END
>  <Binding energies>  (73) 
[-9.63]

>  <Ligand effiencies>  (73) 
[-0.20062500000000003]

>  <Interactions>  (73) 
["V-A:HIS:456:CE1:4069, V-A:TYR:484:CZ:4347, V-A:GLU:543:CD:4908, V-B:GLU:543:CB:9878, V-A:ILE:369:CD1:3239, H-A:GLY:454:N:4050, V-B:GLU:543:CD:9880, V-A:ARG:545:CZ:4926, V-A:LEU:475:CD1:4258, V-B:TYR:539:CE2:9848, V-A:TRP:381:CH2:3372, V-B:TYR:539:CD2:9846, H-A:ARG:545:NH2:4928, H-A:ASP:366:OD2:3215, V-A:ASP:366:CG:3213, V-A:ASP:366:CB:3212, H-B:TYR:539:OH:9850, V-A:ILE:369:CG2:3237, V-B:GLU:543:CG:9879, V-A:PRO:482:CB:4326, V-A:TRP:381:CZ2:3370, V-A:PRO:482:CG:4327, V-A:PRO:540:CA:4883, V-A:PRO:540:CB:4885, V-A:LEU:363:CA:3185, V-A:TYR:539:C:4867, H-A:ARG:545:NH1:4927, V-A:LEU:363:CD1:3189, V-A:PRO:540:N:4884, H-A:ASP:366:OD1:3214, V-A:PRO:540:CD:4887"]

$$$$
RR1_Rahimova_2017
     RDKit          3D

 41 44  0  0  0  0  0  0  0  0999 V2000
  134.7270  118.4070   59.8310 C   0  0  0  0  0  0  0  0  0  0  0  0
  133.5940  118.5880   60.6730 O   0  0  0  0  0  0  0  0  0  0  0  0
  133.3360  119.8400   61.1970 C   0  0  0  0  0  0  0  0  0  0  0  0
  134.2840  120.6270   61.8710 C   0  0  0  0  0  0  0  0  0  0  0  0
  133.9300  121.8760   62.3720 C   0  0  0  0  0  0  0  0  0  0  0  0
  132.6320  122.3620   62.2050 C   0  0  0  0  0  0  0  0  0  0  0  0
  132.3590  123.6150   62.7880 N   0  0  0  0  0  0  0  0  0  0  0  0
  132.8270  124.1430   63.9390 C   0  0  0  0  0  0  0  0  0  0  0  0
  133.5540  123.5510   64.7380 O   0  0  0  0  0  0  0  0  0  0  0  0
  132.3760  125.5870   64.2100 C   0  0  0  0  0  0  0  0  0  0  0  0
  130.8040  125.7580   65.1250 S   0  0  0  0  0  0  0  0  0  0  0  0
  129.7090  125.6020   63.7540 C   0  0  0  0  0  0  0  0  0  0  0  0
  129.7090  124.5910   62.9230 N   0  0  0  0  0  0  0  0  0  0  0  0
  128.7310  124.8790   62.0710 C   0  0  0  0  0  0  0  0  0  0  0  0
  128.3600  123.9690   60.9350 C   0  0  0  0  0  0  0  0  0  0  0  0
  128.0460  124.4730   59.6620 C   0  0  0  0  0  0  0  0  0  0  0  0
  127.7020  123.6020   58.6260 C   0  0  0  0  0  0  0  0  0  0  0  0
  127.6800  122.2330   58.8890 C   0  0  0  0  0  0  0  0  0  0  0  0
  127.9780  121.7120   60.1060 N   0  0  0  0  0  0  0  0  0  0  0  0
  128.3110  122.5750   61.0990 C   0  0  0  0  0  0  0  0  0  0  0  0
  128.1040  126.0190   62.2940 N   0  0  0  0  0  0  0  0  0  0  0  0
  128.7330  126.4870   63.3760 N   0  0  0  0  0  0  0  0  0  0  0  0
  128.3220  127.7530   63.9850 C   0  0  0  0  0  0  0  0  0  0  0  0
  128.4480  127.8080   65.5170 C   0  0  0  0  0  0  0  0  0  0  0  0
  128.8390  128.8350   66.0840 O   0  0  0  0  0  0  0  0  0  0  0  0
  128.1080  126.6720   66.1560 N   0  0  0  0  0  0  0  0  0  0  0  0
  128.0550  126.6930   67.5430 N   0  0  0  0  0  0  0  0  0  0  0  0
  128.9440  125.9330   68.2190 C   0  0  0  0  0  0  0  0  0  0  0  0
  129.8640  125.3040   67.6860 O   0  0  0  0  0  0  0  0  0  0  0  0
  128.7730  125.9080   69.7250 C   0  0  0  0  0  0  0  0  0  0  0  0
  127.9390  126.8420   70.3490 C   0  0  0  0  0  0  0  0  0  0  0  0
  127.7770  126.8440   71.7300 C   0  0  0  0  0  0  0  0  0  0  0  0
  128.4530  125.9120   72.5340 C   0  0  0  0  0  0  0  0  0  0  0  0
  128.3470  125.8690   73.9130 O   0  0  0  0  0  0  0  0  0  0  0  0
  129.3740  126.4430   74.7140 C   0  0  0  0  0  0  0  0  0  0  0  0
  129.2990  124.9730   71.9290 C   0  0  0  0  0  0  0  0  0  0  0  0
  129.9570  124.0890   72.7670 O   0  0  0  0  0  0  0  0  0  0  0  0
  130.9640  123.2340   72.2380 C   0  0  0  0  0  0  0  0  0  0  0  0
  129.4480  124.9770   70.5310 C   0  0  0  0  0  0  0  0  0  0  0  0
  131.6820  121.5790   61.5310 C   0  0  0  0  0  0  0  0  0  0  0  0
  132.0410  120.3310   61.0310 C   0  0  0  0  0  0  0  0  0  0  0  0
  1  2  1  0
  2  3  1  0
  3  4  2  0
  4  5  1  0
  5  6  2  0
  6  7  1  0
  7  8  1  0
  8  9  2  0
  8 10  1  0
 10 11  1  0
 11 12  1  0
 12 13  2  0
 13 14  1  0
 14 15  1  0
 15 16  2  0
 16 17  1  0
 17 18  2  0
 18 19  1  0
 19 20  2  0
 14 21  2  0
 21 22  1  0
 22 23  1  0
 23 24  1  0
 24 25  2  0
 24 26  1  0
 26 27  1  0
 27 28  1  0
 28 29  2  0
 28 30  1  0
 30 31  2  0
 31 32  1  0
 32 33  2  0
 33 34  1  0
 34 35  1  0
 33 36  1  0
 36 37  1  0
 37 38  1  0
 36 39  2  0
  6 40  1  0
 40 41  2  0
 41  3  1  0
 22 12  1  0
 39 30  1  0
 20 15  1  0
M  END
>  <Binding energies>  (74) 
[-7.99]

>  <Ligand effiencies>  (74) 
[-0.1815909090909091]

>  <Interactions>  (74) 
["V-A:HIS:456:CE1:4069, H-B:GLU:543:OE1:9881, V-B:HIS:456:CE1:9040, V-A:TYR:484:CG:4342, V-A:HIS:456:CB:4065, V-A:HIS:456:CG:4066, V-A:TYR:484:CE2:4346, V-A:TYR:484:CD2:4344, H-B:LYS:547:NZ:9923, V-B:GLU:543:C:9874, V-A:HIS:456:CD2:4068, V-A:GLU:543:CD:4908, V-B:GLU:543:CB:9878, V-B:ALA:541:CB:9864, H-A:TYR:484:OH:4348, V-A:ILE:369:CD1:3239, H-A:GLY:454:N:4050, V-B:GLU:543:CD:9880, V-A:ARG:545:CZ:4926, V-A:LEU:475:CD1:4258, V-B:TYR:539:CE2:9848, V-A:GLY:454:CA:4049, V-A:TRP:381:CH2:3372, V-B:TYR:539:CD2:9846, V-B:GLY:544:C:9884, V-A:ILE:369:CG2:3237, H-A:HIS:456:NE2:4070, V-B:GLU:543:CG:9879, V-B:TYR:539:C:9839, V-B:PRO:540:N:9856, V-B:PRO:540:CA:9855, H-B:ALA:541:N:9863, V-A:SER:385:CA:3407, V-A:SER:385:C:3405, V-A:TRP:381:CZ2:3370"]

$$$$
RR22_Rahimova_2017
     RDKit          3D

 31 36  0  0  0  0  0  0  0  0999 V2000
  134.4450  125.0480   64.8610 O   0  0  0  0  0  0  0  0  0  0  0  0
  133.2630  125.0190   64.5250 C   0  0  0  0  0  0  0  0  0  0  0  0
  132.2420  125.8480   64.9570 N   0  0  0  0  0  0  0  0  0  0  0  0
  130.9230  125.7200   64.4180 C   0  0  1  0  0  0  0  0  0  0  0  0
  130.0720  125.5230   65.5510 O   0  0  0  0  0  0  0  0  0  0  0  0
  129.0510  126.4450   65.7820 C   0  0  0  0  0  0  0  0  0  0  0  0
  128.4900  126.4440   67.0590 C   0  0  0  0  0  0  0  0  0  0  0  0
  127.4370  127.3100   67.3540 C   0  0  0  0  0  0  0  0  0  0  0  0
  126.9420  128.1680   66.3710 C   0  0  0  0  0  0  0  0  0  0  0  0
  127.5030  128.1690   65.0930 C   0  0  0  0  0  0  0  0  0  0  0  0
  128.5750  127.3240   64.7900 C   0  0  0  0  0  0  0  0  0  0  0  0
  129.2230  127.2170   63.4280 C   0  0  1  0  0  0  0  0  0  0  0  0
  129.3280  128.3960   62.4820 C   0  0  0  0  0  0  0  0  0  0  0  0
  130.6190  128.0260   61.7450 C   0  0  0  0  0  0  0  0  0  0  0  0
  130.9970  128.6230   60.4490 C   0  0  0  0  0  0  0  0  0  0  0  0
  130.9810  127.8520   59.2770 C   0  0  0  0  0  0  0  0  0  0  0  0
  131.3370  128.4190   58.0570 C   0  0  0  0  0  0  0  0  0  0  0  0
  131.7100  129.7590   58.0000 C   0  0  0  0  0  0  0  0  0  0  0  0
  131.7310  130.5390   59.1540 C   0  0  0  0  0  0  0  0  0  0  0  0
  131.3740  129.9730   60.3750 C   0  0  0  0  0  0  0  0  0  0  0  0
  131.3030  127.1750   62.4120 N   0  0  0  0  0  0  0  0  0  0  0  0
  130.6090  126.9040   63.6030 N   0  0  0  0  0  0  0  0  0  0  0  0
  130.9040  124.4280   63.6150 C   0  0  0  0  0  0  0  0  0  0  0  0
  129.7600  123.8050   63.2470 C   0  0  0  0  0  0  0  0  0  0  0  0
  129.5980  122.5690   62.4570 C   0  0  0  0  0  0  0  0  0  0  0  0
  130.4140  121.4410   62.6220 C   0  0  0  0  0  0  0  0  0  0  0  0
  130.2030  120.3060   61.8380 C   0  0  0  0  0  0  0  0  0  0  0  0
  129.1750  120.3310   60.8960 C   0  0  0  0  0  0  0  0  0  0  0  0
  128.3760  121.4110   60.7070 N   0  0  0  0  0  0  0  0  0  0  0  0
  128.5970  122.5050   61.4810 C   0  0  0  0  0  0  0  0  0  0  0  0
  132.5500  123.8390   63.3390 S   0  0  0  0  0  0  0  0  0  0  0  0
  1  2  2  0
  2  3  1  0
  4  3  1  1
  4  5  1  0
  5  6  1  0
  6  7  2  0
  7  8  1  0
  8  9  2  0
  9 10  1  0
 10 11  2  0
 11 12  1  0
 12 13  1  1
 13 14  1  0
 14 15  1  0
 15 16  2  0
 16 17  1  0
 17 18  2  0
 18 19  1  0
 19 20  2  0
 14 21  2  0
 21 22  1  0
  4 23  1  0
 23 24  2  0
 24 25  1  0
 25 26  2  0
 26 27  1  0
 27 28  2  0
 28 29  1  0
 29 30  2  0
 23 31  1  0
 31  2  1  0
 22  4  1  0
 30 25  1  0
 11  6  1  0
 22 12  1  0
 20 15  1  0
M  END
>  <Binding energies>  (75) 
[-8.5]

>  <Ligand effiencies>  (75) 
[-0.265625]

>  <Interactions>  (75) 
["V-A:HIS:456:CE1:4069, V-B:HIS:456:CE1:9040, V-A:GLU:543:CD:4908, V-B:GLU:543:CB:9878, V-B:ALA:541:CB:9864, H-A:GLU:543:OE2:4910, H-A:GLY:454:N:4050, V-B:GLU:543:CD:9880, V-B:ALA:541:CA:9862, V-A:ARG:545:CZ:4926, V-A:LEU:475:CD1:4258, V-B:TYR:539:CD2:9846, H-A:ARG:545:NH2:4928, H-A:ARG:545:NE:4924, V-A:ASP:366:CG:3213, V-B:GLU:543:CG:9879, V-B:TYR:539:C:9839, H-B:ALA:541:N:9863, V-B:PRO:540:C:9853, V-A:PRO:482:CB:4326, V-A:PRO:482:CG:4327, V-A:PRO:540:CB:4885, H-A:ARG:545:NH1:4927"]

$$$$
RR24_Rahimova_2017
     RDKit          3D

 43 49  0  0  0  0  0  0  0  0999 V2000
  127.2910  127.3190   71.7870 C   0  0  0  0  0  0  0  0  0  0  0  0
  128.7900  127.4950   71.5060 C   0  0  2  0  0  0  0  0  0  0  0  0
  129.0990  127.8570   70.0230 C   0  0  0  0  0  0  0  0  0  0  0  0
  130.1180  128.4740   69.6970 O   0  0  0  0  0  0  0  0  0  0  0  0
  128.1180  127.4420   69.1690 O   0  0  0  0  0  0  0  0  0  0  0  0
  128.4250  127.1990   67.8490 C   0  0  0  0  0  0  0  0  0  0  0  0
  128.4440  125.8840   67.3810 C   0  0  0  0  0  0  0  0  0  0  0  0
  128.7420  125.6270   66.0460 C   0  0  0  0  0  0  0  0  0  0  0  0
  129.0150  126.6820   65.1720 C   0  0  0  0  0  0  0  0  0  0  0  0
  129.3630  126.3920   63.7070 C   0  0  1  0  0  0  0  0  0  0  0  0
  129.2410  127.6550   62.8230 C   0  0  0  0  0  0  0  0  0  0  0  0
  130.2230  128.0640   61.9980 C   0  0  0  0  0  0  0  0  0  0  0  0
  131.4120  127.3870   61.8830 N   0  0  0  0  0  0  0  0  0  0  0  0
  131.6590  126.2480   62.6130 C   0  0  0  0  0  0  0  0  0  0  0  0
  132.8770  125.6950   62.3770 N   0  0  0  0  0  0  0  0  0  0  0  0
  133.3290  124.6100   63.0640 C   0  0  0  0  0  0  0  0  0  0  0  0
  134.5320  124.3450   63.0470 O   0  0  0  0  0  0  0  0  0  0  0  0
  132.3690  124.0060   63.8610 N   0  0  0  0  0  0  0  0  0  0  0  0
  132.7820  122.7700   64.5580 C   0  0  0  0  0  0  0  0  0  0  0  0
  131.1060  124.4810   64.1700 C   0  0  0  0  0  0  0  0  0  0  0  0
  130.3190  123.9130   64.9330 O   0  0  0  0  0  0  0  0  0  0  0  0
  130.7560  125.7310   63.4860 C   0  0  0  0  0  0  0  0  0  0  0  0
  129.8350  129.2750   61.2940 C   0  0  0  0  0  0  0  0  0  0  0  0
  130.4840  130.0780   60.3550 C   0  0  0  0  0  0  0  0  0  0  0  0
  129.8290  131.2050   59.8530 C   0  0  0  0  0  0  0  0  0  0  0  0
  128.5370  131.5200   60.2870 C   0  0  0  0  0  0  0  0  0  0  0  0
  127.8930  130.7110   61.2270 C   0  0  0  0  0  0  0  0  0  0  0  0
  128.5530  129.5870   61.7260 C   0  0  0  0  0  0  0  0  0  0  0  0
  128.1140  128.5740   62.7090 C   0  0  0  0  0  0  0  0  0  0  0  0
  127.0520  128.4810   63.3210 O   0  0  0  0  0  0  0  0  0  0  0  0
  128.9770  128.0000   65.6390 C   0  0  0  0  0  0  0  0  0  0  0  0
  128.6770  128.2580   66.9730 C   0  0  0  0  0  0  0  0  0  0  0  0
  129.5910  126.3290   71.9850 N   0  0  0  0  0  0  0  0  0  0  0  0
  130.2760  126.3710   73.1620 C   0  0  0  0  0  0  0  0  0  0  0  0
  130.3450  127.3120   73.9550 O   0  0  0  0  0  0  0  0  0  0  0  0
  130.9240  125.0410   73.2890 C   0  0  0  0  0  0  0  0  0  0  0  0
  131.7480  124.5180   74.2860 C   0  0  0  0  0  0  0  0  0  0  0  0
  132.2220  123.2090   74.1440 C   0  0  0  0  0  0  0  0  0  0  0  0
  131.8690  122.4480   73.0220 C   0  0  0  0  0  0  0  0  0  0  0  0
  131.0420  122.9910   72.0330 C   0  0  0  0  0  0  0  0  0  0  0  0
  130.5810  124.2980   72.1920 C   0  0  0  0  0  0  0  0  0  0  0  0
  129.7040  125.1320   71.3330 C   0  0  0  0  0  0  0  0  0  0  0  0
  129.1840  124.8100   70.2630 O   0  0  0  0  0  0  0  0  0  0  0  0
  2  1  1  6
  2  3  1  0
  3  4  2  0
  3  5  1  0
  5  6  1  0
  6  7  2  0
  7  8  1  0
  8  9  2  0
 10  9  1  1
 10 11  1  0
 11 12  2  0
 12 13  1  0
 13 14  1  0
 14 15  1  0
 15 16  1  0
 16 17  2  0
 16 18  1  0
 18 19  1  0
 18 20  1  0
 20 21  2  0
 20 22  1  0
 12 23  1  0
 23 24  2  0
 24 25  1  0
 25 26  2  0
 26 27  1  0
 27 28  2  0
 28 29  1  0
 29 30  2  0
  9 31  1  0
 31 32  2  0
  2 33  1  0
 33 34  1  0
 34 35  2  0
 34 36  1  0
 36 37  2  0
 37 38  1  0
 38 39  2  0
 39 40  1  0
 40 41  2  0
 41 42  1  0
 42 43  2  0
 32  6  1  0
 42 33  1  0
 22 10  1  0
 28 23  1  0
 41 36  1  0
 29 11  1  0
 22 14  2  0
M  END
>  <Binding energies>  (76) 
[-9.71]

>  <Ligand effiencies>  (76) 
[-0.2157777777777778]

>  <Interactions>  (76) 
["V-A:HIS:456:CE1:4069, V-A:TYR:484:CZ:4347, V-B:HIS:456:CE1:9040, V-A:TYR:484:CG:4342, V-A:HIS:456:CB:4065, V-A:TYR:484:CD1:4343, V-A:HIS:456:CG:4066, V-A:TYR:484:CE2:4346, V-A:TYR:484:CD2:4344, V-B:GLU:543:C:9874, V-A:HIS:456:CD2:4068, V-B:HIS:456:CD2:9039, V-B:HIS:456:CG:9037, H-A:LYS:547:NZ:4951, V-A:GLU:543:CG:4907, V-A:GLU:543:CB:4906, V-A:GLU:543:CD:4908, V-B:GLU:543:CB:9878, H-A:TYR:484:OH:4348, H-A:GLY:454:N:4050, V-B:GLU:543:CD:9880, V-A:ARG:545:CZ:4926, V-A:LEU:475:CD1:4258, V-A:GLY:454:CA:4049, H-A:ASP:366:OD2:3215, V-A:ASP:366:CG:3213, V-B:GLY:544:C:9884, H-B:HIS:456:NE2:9041, H-A:HIS:456:NE2:4070, V-B:GLU:543:CA:9876, V-B:GLU:543:CG:9879, V-A:ASP:473:CG:4240, V-A:ASP:473:CB:4239, V-A:PRO:540:CA:4883, H-A:ASP:366:OD1:3214"]

$$$$
RR25_Rahimova_2017
     RDKit          3D

 39 44  0  0  0  0  0  0  0  0999 V2000
  129.9910  126.0700   67.5810 O   0  0  0  0  0  0  0  0  0  0  0  0
  129.6980  125.9140   66.3950 C   0  0  0  0  0  0  0  0  0  0  0  0
  130.2710  124.8370   65.7650 O   0  0  0  0  0  0  0  0  0  0  0  0
  129.8360  124.4120   64.5230 C   0  0  0  0  0  0  0  0  0  0  0  0
  130.0430  123.0690   64.2120 C   0  0  0  0  0  0  0  0  0  0  0  0
  129.6370  122.5740   62.9740 C   0  0  0  0  0  0  0  0  0  0  0  0
  129.0230  123.4130   62.0320 C   0  0  0  0  0  0  0  0  0  0  0  0
  128.5840  122.8820   60.7180 N   0  0  0  0  0  0  0  0  0  0  0  0
  129.3910  122.8630   59.7920 O   0  0  0  0  0  0  0  0  0  0  0  0
  127.4300  122.4800   60.6020 O   0  0  0  0  0  0  0  0  0  0  0  0
  128.8350  124.7650   62.3600 C   0  0  0  0  0  0  0  0  0  0  0  0
  129.2440  125.2790   63.5940 C   0  0  0  0  0  0  0  0  0  0  0  0
  129.0530  126.7290   63.9990 C   0  0  0  0  0  0  0  0  0  0  0  0
  128.7700  126.8120   65.5260 C   0  0  2  0  0  0  0  0  0  0  0  0
  128.6660  128.2920   65.9970 C   0  0  0  0  0  0  0  0  0  0  0  0
  129.3970  128.6140   66.9370 O   0  0  0  0  0  0  0  0  0  0  0  0
  127.9080  129.2160   65.3330 N   0  0  0  0  0  0  0  0  0  0  0  0
  126.8020  128.8410   64.4260 C   0  0  0  0  0  0  0  0  0  0  0  0
  126.7720  129.8240   63.2370 C   0  0  0  0  0  0  0  0  0  0  0  0
  126.6870  131.2140   63.6940 N   0  0  0  0  0  0  0  0  0  0  0  0
  126.5250  132.1430   62.5670 C   0  0  0  0  0  0  0  0  0  0  0  0
  127.7670  133.0480   62.3490 C   0  0  0  0  0  0  0  0  0  0  0  0
  128.6620  132.6720   61.2160 N   0  0  0  0  0  0  0  0  0  0  0  0
  129.8960  132.1760   61.5800 C   0  0  0  0  0  0  0  0  0  0  0  0
  130.2660  132.0770   62.7560 O   0  0  0  0  0  0  0  0  0  0  0  0
  130.7680  131.7370   60.4190 C   0  0  0  0  0  0  0  0  0  0  0  0
  132.0330  131.1930   60.6770 C   0  0  0  0  0  0  0  0  0  0  0  0
  132.8570  130.7720   59.6340 C   0  0  0  0  0  0  0  0  0  0  0  0
  132.4450  130.8770   58.3070 C   0  0  0  0  0  0  0  0  0  0  0  0
  131.1740  131.4200   57.9990 C   0  0  0  0  0  0  0  0  0  0  0  0
  130.6920  131.5540   56.6750 C   0  0  0  0  0  0  0  0  0  0  0  0
  129.4290  132.0950   56.4420 C   0  0  0  0  0  0  0  0  0  0  0  0
  128.6230  132.5120   57.4990 C   0  0  0  0  0  0  0  0  0  0  0  0
  129.0580  132.3990   58.8260 C   0  0  0  0  0  0  0  0  0  0  0  0
  130.3430  131.8480   59.0710 C   0  0  0  0  0  0  0  0  0  0  0  0
  128.1480  132.8570   59.9490 C   0  0  0  0  0  0  0  0  0  0  0  0
  127.0310  133.3390   59.7320 O   0  0  0  0  0  0  0  0  0  0  0  0
  127.8630  131.5450   64.5020 C   0  0  0  0  0  0  0  0  0  0  0  0
  127.9730  130.6350   65.7490 C   0  0  0  0  0  0  0  0  0  0  0  0
  1  2  2  0
  2  3  1  0
  3  4  1  0
  4  5  2  0
  5  6  1  0
  6  7  2  0
  7  8  1  0
  8  9  2  0
  8 10  1  0
  7 11  1  0
 11 12  2  0
 12 13  1  0
 13 14  1  0
 14 15  1  1
 15 16  2  0
 15 17  1  0
 17 18  1  0
 18 19  1  0
 19 20  1  0
 20 21  1  0
 21 22  1  0
 22 23  1  0
 23 24  1  0
 24 25  2  0
 24 26  1  0
 26 27  2  0
 27 28  1  0
 28 29  2  0
 29 30  1  0
 30 31  2  0
 31 32  1  0
 32 33  2  0
 33 34  1  0
 34 35  2  0
 34 36  1  0
 36 37  2  0
 20 38  1  0
 38 39  1  0
 14  2  1  0
 39 17  1  0
 12  4  1  0
 36 23  1  0
 35 26  1  0
 35 30  1  0
M  CHG  2   8   1  10  -1
M  END
>  <Binding energies>  (77) 
[-9.62]

>  <Ligand effiencies>  (77) 
[-0.24666666666666665]

>  <Interactions>  (77) 
["V-A:HIS:456:CE1:4069, V-A:GLU:543:CG:4907, V-A:GLU:543:CB:4906, V-A:GLU:543:CD:4908, V-B:GLU:543:CB:9878, V-B:ALA:541:CB:9864, H-A:TYR:484:OH:4348, V-B:GLU:543:CD:9880, H-B:TYR:484:OH:9319, H-A:HIS:456:NE2:4070, V-B:TYR:484:CE1:9316, V-B:TYR:484:CZ:9318, V-B:GLU:543:CG:9879, H-B:ALA:541:N:9863, V-A:PRO:540:CA:4883, V-A:PRO:540:CB:4885, V-A:ALA:541:CB:4892, V-B:LEU:475:CD1:9229, V-A:TYR:539:CD2:4874, V-A:TYR:539:CE2:4876, V-A:TYR:539:C:4867, V-A:TYR:539:CZ:4877, V-A:TYR:539:CE1:4875, V-A:ALA:541:CA:4890, V-A:PRO:540:C:4881, V-A:TYR:539:CD1:4873, V-A:TYR:539:CG:4872, V-A:PRO:540:N:4884, H-A:ALA:541:N:4891"]

$$$$
RR27_Rahimova_2017
     RDKit          3D

 39 44  0  0  0  0  0  0  0  0999 V2000
  133.8540  124.6130   62.2950 O   0  0  0  0  0  0  0  0  0  0  0  0
  132.9550  123.8000   62.5260 C   0  0  0  0  0  0  0  0  0  0  0  0
  132.2670  123.0970   61.3190 C   0  0  0  0  0  0  0  0  0  0  0  0
  132.4780  121.5720   61.3080 C   0  0  0  0  0  0  0  0  0  0  0  0
  131.4000  120.6760   61.2380 C   0  0  0  0  0  0  0  0  0  0  0  0
  131.6270  119.3030   61.2270 C   0  0  0  0  0  0  0  0  0  0  0  0
  132.9310  118.8190   61.2860 C   0  0  0  0  0  0  0  0  0  0  0  0
  134.0100  119.6950   61.3580 C   0  0  0  0  0  0  0  0  0  0  0  0
  133.7830  121.0680   61.3690 C   0  0  0  0  0  0  0  0  0  0  0  0
  132.5830  123.8070   59.9890 C   0  0  0  0  0  0  0  0  0  0  0  0
  131.8100  124.8780   59.5230 C   0  0  0  0  0  0  0  0  0  0  0  0
  132.1170  125.4900   58.3090 C   0  0  0  0  0  0  0  0  0  0  0  0
  133.1930  125.0290   57.5560 C   0  0  0  0  0  0  0  0  0  0  0  0
  133.9630  123.9580   58.0020 C   0  0  0  0  0  0  0  0  0  0  0  0
  133.6560  123.3470   59.2140 C   0  0  0  0  0  0  0  0  0  0  0  0
  132.6610  123.4000   63.7960 N   0  0  0  0  0  0  0  0  0  0  0  0
  131.4520  122.6410   64.1480 C   0  0  0  0  0  0  0  0  0  0  0  0
  130.3370  123.6760   64.4200 C   0  0  0  0  0  0  0  0  0  0  0  0
  130.7410  124.7280   65.5010 C   0  0  0  0  0  0  0  0  0  0  0  0
  129.7100  125.8490   65.7290 C   0  0  0  0  0  0  0  0  0  0  0  0
  129.6680  126.8350   64.7860 N   0  0  0  0  0  0  0  0  0  0  0  0
  128.7550  127.8360   64.9260 C   0  0  0  0  0  0  0  0  0  0  0  0
  128.6140  128.8770   64.0450 O   0  0  0  0  0  0  0  0  0  0  0  0
  127.8930  127.8140   66.0390 C   0  0  0  0  0  0  0  0  0  0  0  0
  126.8890  128.6320   66.4690 N   0  0  0  0  0  0  0  0  0  0  0  0
  126.4010  128.0990   67.6470 N   0  0  0  0  0  0  0  0  0  0  0  0
  127.0850  126.9710   67.9310 N   0  0  0  0  0  0  0  0  0  0  0  0
  126.7900  126.2110   69.1440 C   0  0  0  0  0  0  0  0  0  0  0  0
  127.8900  126.2830   70.1940 C   0  0  0  0  0  0  0  0  0  0  0  0
  128.1060  127.4660   70.9080 C   0  0  0  0  0  0  0  0  0  0  0  0
  129.1070  127.5280   71.8790 C   0  0  0  0  0  0  0  0  0  0  0  0
  129.8940  126.4070   72.1430 C   0  0  0  0  0  0  0  0  0  0  0  0
  129.6770  125.2200   71.4410 C   0  0  0  0  0  0  0  0  0  0  0  0
  130.6320  123.8240   71.7860 Cl  0  0  0  0  0  0  0  0  0  0  0  0
  128.6820  125.1600   70.4660 C   0  0  0  0  0  0  0  0  0  0  0  0
  128.0390  126.7480   66.9530 C   0  0  0  0  0  0  0  0  0  0  0  0
  128.9300  125.7590   66.8440 N   0  0  0  0  0  0  0  0  0  0  0  0
  132.1920  125.2570   65.2850 C   0  0  0  0  0  0  0  0  0  0  0  0
  133.2070  124.1350   64.9480 C   0  0  0  0  0  0  0  0  0  0  0  0
  1  2  2  0
  2  3  1  0
  3  4  1  0
  4  5  2  0
  5  6  1  0
  6  7  2  0
  7  8  1  0
  8  9  2  0
  3 10  1  0
 10 11  2  0
 11 12  1  0
 12 13  2  0
 13 14  1  0
 14 15  2  0
  2 16  1  0
 16 17  1  0
 17 18  1  0
 18 19  1  0
 19 20  1  0
 20 21  2  0
 21 22  1  0
 22 23  1  0
 22 24  2  0
 24 25  1  0
 25 26  2  0
 26 27  1  0
 27 28  1  0
 28 29  1  0
 29 30  2  0
 30 31  1  0
 31 32  2  0
 32 33  1  0
 33 34  1  0
 33 35  2  0
 27 36  1  0
 36 37  2  0
 19 38  1  0
 38 39  1  0
  9  4  1  0
 15 10  1  0
 39 16  1  0
 37 20  1  0
 36 24  1  0
 35 29  1  0
M  END
>  <Binding energies>  (78) 
[-9.79]

>  <Ligand effiencies>  (78) 
[-0.24474999999999997]

>  <Interactions>  (78) 
["V-A:HIS:456:CE1:4069, V-A:TYR:484:CZ:4347, V-B:HIS:456:CE1:9040, V-A:HIS:456:CB:4065, V-A:HIS:456:CG:4066, V-A:TYR:484:CE2:4346, V-A:TYR:484:CD2:4344, V-B:GLU:543:C:9874, V-A:HIS:456:CD2:4068, V-B:HIS:456:CD2:9039, V-B:HIS:456:CG:9037, V-A:GLU:543:CD:4908, V-B:GLU:543:CB:9878, H-A:GLU:543:OE2:4910, V-A:ILE:369:CD1:3239, V-A:LEU:475:CD1:4258, V-B:TYR:539:CE2:9848, V-A:GLY:454:CA:4049, V-A:TRP:381:CH2:3372, H-A:ARG:545:NH2:4928, V-A:ASP:366:CG:3213, V-B:GLY:544:C:9884, V-A:ASP:366:CB:3212, H-B:TYR:484:OH:9319, V-A:ILE:369:CB:3236, V-A:ILE:369:CG2:3237, V-A:ASP:366:CA:3210, V-A:ASP:366:C:3208, V-A:SER:385:CA:3407, V-A:SER:385:C:3405, V-B:ARG:545:CG:9894, V-A:TRP:381:CZ2:3370, H-A:GLU:543:OE1:4909, V-B:GLY:544:CA:9886, V-B:ARG:545:CA:9891"]

$$$$
RR28_Rahimova_2017
     RDKit          3D

 46 49  0  0  0  0  0  0  0  0999 V2000
  131.0300  126.7930   57.9350 C   0  0  0  0  0  0  0  0  0  0  0  0
  130.8000  126.1790   59.3110 C   0  0  0  0  0  0  0  0  0  0  0  0
  131.6940  125.5210   59.8390 O   0  0  0  0  0  0  0  0  0  0  0  0
  129.5950  126.4050   59.8720 N   0  0  0  0  0  0  0  0  0  0  0  0
  129.0910  125.9320   61.1810 C   0  0  0  0  0  0  0  0  0  0  0  0
  129.2630  124.3870   61.2400 C   0  0  0  0  0  0  0  0  0  0  0  0
  130.2130  123.8330   62.1130 C   0  0  0  0  0  0  0  0  0  0  0  0
  130.3970  122.4560   62.1890 C   0  0  0  0  0  0  0  0  0  0  0  0
  129.6360  121.6000   61.3920 C   0  0  0  0  0  0  0  0  0  0  0  0
  129.8550  120.0900   61.4850 C   0  0  0  0  0  0  0  0  0  0  0  0
  130.2600  119.7110   62.7000 F   0  0  0  0  0  0  0  0  0  0  0  0
  128.7260  119.4400   61.2060 F   0  0  0  0  0  0  0  0  0  0  0  0
  130.7880  119.7280   60.6040 F   0  0  0  0  0  0  0  0  0  0  0  0
  128.6880  122.1380   60.5170 C   0  0  0  0  0  0  0  0  0  0  0  0
  128.5050  123.5170   60.4420 C   0  0  0  0  0  0  0  0  0  0  0  0
  127.6130  126.4120   61.4080 C   0  0  0  0  0  0  0  0  0  0  0  0
  127.4810  127.9510   61.5370 C   0  0  0  0  0  0  0  0  0  0  0  0
  128.3280  128.3490   62.6740 N   0  0  0  0  0  0  0  0  0  0  0  0
  127.7940  128.4670   63.9200 C   0  0  0  0  0  0  0  0  0  0  0  0
  126.5780  128.4150   64.1180 O   0  0  0  0  0  0  0  0  0  0  0  0
  128.7240  128.8400   65.1000 C   0  0  0  0  0  0  0  0  0  0  0  0
  128.0190  129.1430   66.4500 C   0  0  0  0  0  0  0  0  0  0  0  0
  127.2870  127.9410   67.0930 C   0  0  0  0  0  0  0  0  0  0  0  0
  126.0760  127.8240   66.8880 O   0  0  0  0  0  0  0  0  0  0  0  0
  128.0050  126.9800   67.7410 N   0  0  0  0  0  0  0  0  0  0  0  0
  129.3510  127.2050   68.2810 C   0  0  0  0  0  0  0  0  0  0  0  0
  129.1660  127.8170   69.6870 C   0  0  0  0  0  0  0  0  0  0  0  0
  128.3000  126.9530   70.6690 C   0  0  0  0  0  0  0  0  0  0  0  0
  127.8650  127.7970   71.8030 N   0  0  0  0  0  0  0  0  0  0  0  0
  127.3500  127.4020   72.9840 C   0  0  0  0  0  0  0  0  0  0  0  0
  126.9730  128.5110   73.9620 C   0  0  0  0  0  0  0  0  0  0  0  0
  127.1740  126.2270   73.3010 O   0  0  0  0  0  0  0  0  0  0  0  0
  129.2240  125.8310   71.2450 C   0  0  0  0  0  0  0  0  0  0  0  0
  129.4100  124.5950   70.6030 C   0  0  0  0  0  0  0  0  0  0  0  0
  130.2430  123.6220   71.1490 C   0  0  0  0  0  0  0  0  0  0  0  0
  130.9090  123.8580   72.3530 C   0  0  0  0  0  0  0  0  0  0  0  0
  131.8300  122.8020   72.9630 C   0  0  0  0  0  0  0  0  0  0  0  0
  132.3670  123.2470   74.1010 F   0  0  0  0  0  0  0  0  0  0  0  0
  131.1210  121.7050   73.2270 F   0  0  0  0  0  0  0  0  0  0  0  0
  132.8260  122.4680   72.1410 F   0  0  0  0  0  0  0  0  0  0  0  0
  130.7280  125.0780   73.0070 C   0  0  0  0  0  0  0  0  0  0  0  0
  129.8950  126.0480   72.4590 C   0  0  0  0  0  0  0  0  0  0  0  0
  127.0480  126.3890   69.8910 C   0  0  0  0  0  0  0  0  0  0  0  0
  127.3130  125.8920   68.4440 C   0  0  0  0  0  0  0  0  0  0  0  0
  129.7600  128.1130   62.4440 C   0  0  0  0  0  0  0  0  0  0  0  0
  129.9530  126.5790   62.3150 C   0  0  0  0  0  0  0  0  0  0  0  0
  1  2  1  0
  2  3  2  0
  2  4  1  0
  4  5  1  0
  5  6  1  0
  6  7  2  0
  7  8  1  0
  8  9  2  0
  9 10  1  0
 10 11  1  0
 10 12  1  0
 10 13  1  0
  9 14  1  0
 14 15  2  0
  5 16  1  0
 16 17  1  0
 17 18  1  0
 18 19  1  0
 19 20  2  0
 19 21  1  0
 21 22  1  0
 22 23  1  0
 23 24  2  0
 23 25  1  0
 25 26  1  0
 26 27  1  0
 27 28  1  0
 28 29  1  0
 29 30  1  0
 30 31  1  0
 30 32  2  0
 28 33  1  0
 33 34  2  0
 34 35  1  0
 35 36  2  0
 36 37  1  0
 37 38  1  0
 37 39  1  0
 37 40  1  0
 36 41  1  0
 41 42  2  0
 28 43  1  0
 43 44  1  0
 18 45  1  0
 45 46  1  0
 46  5  1  0
 15  6  1  0
 44 25  1  0
 42 33  1  0
M  END
>  <Binding energies>  (79) 
[-7.7]

>  <Ligand effiencies>  (79) 
[-0.16041666666666668]

>  <Interactions>  (79) 
["V-A:HIS:456:CE1:4069, V-A:TYR:484:CZ:4347, V-A:TYR:484:CE1:4345, V-B:HIS:456:CE1:9040, V-A:TYR:484:CG:4342, V-A:HIS:456:CB:4065, V-A:TYR:484:CD1:4343, V-A:HIS:456:CG:4066, V-A:TYR:484:CE2:4346, V-A:TYR:484:CD2:4344, H-B:LYS:547:NZ:9923, V-B:GLU:543:C:9874, V-A:HIS:456:CD2:4068, V-B:HIS:456:CD2:9039, V-B:HIS:456:CB:9036, V-B:HIS:456:CG:9037, V-A:GLU:543:CG:4907, V-A:GLU:543:CB:4906, V-A:GLU:543:CD:4908, V-B:GLU:543:CB:9878, V-B:ALA:541:CB:9864, V-B:GLU:543:CD:9880, V-B:ALA:541:CA:9862, V-A:LEU:475:CD1:4258, V-B:TYR:539:CE2:9848, H-B:HIS:456:ND1:9038, V-A:TRP:381:CH2:3372, V-B:TYR:539:CD2:9846, V-B:GLY:544:C:9884, V-B:GLU:543:CA:9876, V-B:TYR:539:C:9839, V-B:PRO:540:CA:9855, V-B:PRO:540:C:9853, V-A:ASP:473:CG:4240, V-A:ASP:473:CB:4239, V-A:TYR:484:CB:4341, V-A:PRO:482:CB:4326, V-A:PRO:482:CG:4327, H-B:ARG:545:NE:9896, V-A:LEU:475:CD2:4259, V-A:LEU:475:CG:4257, V-B:GLY:544:CA:9886, V-B:ARG:545:CA:9891, H-B:ARG:545:NH2:9900, V-A:HIS:456:CA:4063, V-A:ASP:473:C:4235"]

$$$$
RR29_Rahimova_2017
     RDKit          3D

 18 19  0  0  0  0  0  0  0  0999 V2000
  126.4990  127.3430   67.3000 C   0  0  0  0  0  0  0  0  0  0  0  0
  127.9670  127.0210   67.0610 C   0  0  0  0  0  0  0  0  0  0  0  0
  128.8170  127.0900   68.3500 C   0  0  0  0  0  0  0  0  0  0  0  0
  127.9720  126.7950   69.6070 C   0  0  0  0  0  0  0  0  0  0  0  0
  128.7860  126.8980   70.8870 C   0  0  0  0  0  0  0  0  0  0  0  0
  129.4520  128.0990   71.2030 C   0  0  0  0  0  0  0  0  0  0  0  0
  130.2070  128.2160   72.3790 C   0  0  0  0  0  0  0  0  0  0  0  0
  130.2820  127.1030   73.2070 C   0  0  0  0  0  0  0  0  0  0  0  0
  129.6410  125.9340   72.9050 C   0  0  0  0  0  0  0  0  0  0  0  0
  128.8760  125.7930   71.7520 C   0  0  0  0  0  0  0  0  0  0  0  0
  129.8570  125.0330   73.8990 O   0  0  0  0  0  0  0  0  0  0  0  0
  130.8310  125.6090   74.7280 C   0  0  0  0  0  0  0  0  0  0  0  0
  130.9190  126.9700   74.4010 O   0  0  0  0  0  0  0  0  0  0  0  0
  128.3500  126.7460   65.8700 N   0  0  0  0  0  0  0  0  0  0  0  0
  129.6910  126.5380   65.6360 N   0  0  0  0  0  0  0  0  0  0  0  0
  130.3830  125.4890   66.1090 C   0  0  0  0  0  0  0  0  0  0  0  0
  129.8660  124.5040   66.8450 N   0  0  0  0  0  0  0  0  0  0  0  0
  131.6750  125.4230   65.8240 N   0  0  0  0  0  0  0  0  0  0  0  0
  1  2  1  0
  2  3  1  0
  3  4  1  0
  4  5  1  0
  5  6  2  0
  6  7  1  0
  7  8  2  0
  8  9  1  0
  9 10  2  0
  9 11  1  0
 11 12  1  0
 12 13  1  0
  2 14  2  0
 14 15  1  0
 15 16  1  0
 16 17  1  0
 16 18  2  0
 10  5  1  0
 13  8  1  0
M  CHG  1  18   1
M  END
>  <Binding energies>  (80) 
[-7.05]

>  <Ligand effiencies>  (80) 
[-0.3065217391304348]

>  <Interactions>  (80) 
["V-A:HIS:456:CE1:4069, V-A:TYR:484:CZ:4347, V-A:TYR:484:CE1:4345, V-B:HIS:456:CE1:9040, H-B:LYS:547:NZ:9923, V-A:HIS:456:CD2:4068, V-B:HIS:456:CD2:9039, H-A:LYS:547:NZ:4951, H-B:GLU:543:O:9875, V-A:GLU:543:CD:4908, V-B:GLU:543:CB:9878, H-A:GLU:543:OE2:4910, H-A:TYR:484:OH:4348, V-B:GLU:543:CA:9876, V-B:ARG:545:CG:9894, H-A:GLU:543:OE1:4909, V-A:LYS:547:CE:4950"]

$$$$
RR30_Rahimova_2017
     RDKit          3D

 18 19  0  0  0  0  0  0  0  0999 V2000
  129.1010  124.7420   71.4030 C   0  0  0  0  0  0  0  0  0  0  0  0
  128.4520  126.1310   71.3090 C   0  0  0  0  0  0  0  0  0  0  0  0
  128.9940  126.9400   70.1500 C   0  0  0  0  0  0  0  0  0  0  0  0
  129.5600  128.1200   70.1810 N   0  0  0  0  0  0  0  0  0  0  0  0
  129.8710  128.4290   68.8590 N   0  0  0  0  0  0  0  0  0  0  0  0
  129.4570  127.4150   68.1430 C   0  0  0  0  0  0  0  0  0  0  0  0
  129.5810  127.2090   66.3960 S   0  0  0  0  0  0  0  0  0  0  0  0
  129.2070  125.4320   66.2630 C   0  0  0  0  0  0  0  0  0  0  0  0
  130.2440  124.6840   65.4220 C   0  0  0  0  0  0  0  0  0  0  0  0
  130.1030  123.4750   65.2270 O   0  0  0  0  0  0  0  0  0  0  0  0
  131.2840  125.4220   64.9730 N   0  0  0  0  0  0  0  0  0  0  0  0
  132.3430  124.9690   64.2000 C   0  0  0  0  0  0  0  0  0  0  0  0
  133.6040  124.8360   64.5450 N   0  0  0  0  0  0  0  0  0  0  0  0
  134.3880  124.3510   63.5050 N   0  0  0  0  0  0  0  0  0  0  0  0
  133.7100  124.1280   62.4020 C   0  0  0  0  0  0  0  0  0  0  0  0
  134.3420  123.6030   61.1340 C   0  0  0  0  0  0  0  0  0  0  0  0
  132.0150  124.5020   62.5600 S   0  0  0  0  0  0  0  0  0  0  0  0
  128.8960  126.4330   68.8960 O   0  0  0  0  0  0  0  0  0  0  0  0
  1  2  1  0
  2  3  1  0
  3  4  2  0
  4  5  1  0
  5  6  2  0
  6  7  1  0
  7  8  1  0
  8  9  1  0
  9 10  2  0
  9 11  1  0
 11 12  1  0
 12 13  2  0
 13 14  1  0
 14 15  2  0
 15 16  1  0
 15 17  1  0
  6 18  1  0
 18  3  1  0
 17 12  1  0
M  END
>  <Binding energies>  (81) 
[-6.19]

>  <Ligand effiencies>  (81) 
[-0.3257894736842106]

>  <Interactions>  (81) 
["V-A:HIS:456:CE1:4069, V-B:HIS:456:CE1:9040, V-A:HIS:456:CD2:4068, V-B:GLU:543:CB:9878, H-A:GLU:543:OE2:4910, H-A:TYR:484:OH:4348, V-A:ILE:369:CD1:3239, H-A:GLY:454:N:4050, H-A:ARG:545:NH2:4928, H-A:ARG:545:NE:4924, V-A:ASP:366:CG:3213, H-B:HIS:456:NE2:9041, H-A:HIS:456:NE2:4070, V-B:GLU:543:CG:9879"]

$$$$
RR31_Rahimova_2017
     RDKit          3D

 18 19  0  0  0  0  0  0  0  0999 V2000
  133.2490  119.4950   60.1520 C   0  0  0  0  0  0  0  0  0  0  0  0
  132.7120  120.5160   61.1460 C   0  0  0  0  0  0  0  0  0  0  0  0
  133.5920  121.4320   61.7240 C   0  0  0  0  0  0  0  0  0  0  0  0
  133.1310  122.3810   62.6340 C   0  0  0  0  0  0  0  0  0  0  0  0
  131.7740  122.4490   62.9870 C   0  0  0  0  0  0  0  0  0  0  0  0
  131.2980  123.3880   63.9050 N   0  0  0  0  0  0  0  0  0  0  0  0
  131.9660  124.6870   64.1120 C   0  0  0  0  0  0  0  0  0  0  0  0
  131.5620  125.4030   65.4220 C   0  0  0  0  0  0  0  0  0  0  0  0
  130.1100  125.5820   65.4950 N   0  0  0  0  0  0  0  0  0  0  0  0
  129.6980  126.2900   66.7110 C   0  0  0  0  0  0  0  0  0  0  0  0
  129.0730  127.6700   66.4230 C   0  0  0  0  0  0  0  0  0  0  0  0
  128.4090  127.7310   65.0380 C   0  0  0  0  0  0  0  0  0  0  0  0
  129.4800  127.7310   63.9420 N   0  0  0  0  0  0  0  0  0  0  0  0
  129.5030  124.2510   65.4710 C   0  0  0  0  0  0  0  0  0  0  0  0
  129.8490  123.5150   64.1560 C   0  0  0  0  0  0  0  0  0  0  0  0
  130.9010  121.5170   62.4050 C   0  0  0  0  0  0  0  0  0  0  0  0
  131.3520  120.5580   61.4900 C   0  0  0  0  0  0  0  0  0  0  0  0
  130.3540  119.5720   60.8960 C   0  0  0  0  0  0  0  0  0  0  0  0
  1  2  1  0
  2  3  2  0
  3  4  1  0
  4  5  2  0
  5  6  1  0
  6  7  1  0
  7  8  1  0
  8  9  1  0
  9 10  1  0
 10 11  1  0
 11 12  1  0
 12 13  1  0
  9 14  1  0
 14 15  1  0
  5 16  1  0
 16 17  2  0
 17 18  1  0
 17  2  1  0
 15  6  1  0
M  CHG  1  13   1
M  END
>  <Binding energies>  (82) 
[-6.04]

>  <Ligand effiencies>  (82) 
[-0.2876190476190476]

>  <Interactions>  (82) 
["V-A:HIS:456:CE1:4069, V-A:TYR:484:CE1:4345, V-A:GLU:543:CD:4908, V-B:GLU:543:CB:9878, V-B:ALA:541:CB:9864, H-A:GLU:543:OE2:4910, V-A:ILE:369:CD1:3239, V-B:GLU:543:CD:9880, V-A:LEU:475:CD1:4258, V-A:GLY:454:CA:4049, V-A:TRP:381:CH2:3372, V-B:TYR:539:CD2:9846, V-A:ILE:369:CG2:3237, V-B:GLU:543:CA:9876, V-B:GLU:543:CG:9879, V-A:PRO:482:CB:4326, V-A:TRP:381:CZ2:3370, V-A:PRO:482:CG:4327, H-A:GLU:543:OE1:4909"]

$$$$
RR32_Rahimova_2017
     RDKit          3D

 18 20  0  0  0  0  0  0  0  0999 V2000
  127.1850  128.0800   66.4130 C   0  0  0  0  0  0  0  0  0  0  0  0
  128.2370  127.0560   66.8290 C   0  0  0  0  0  0  0  0  0  0  0  0
  129.1150  126.5800   65.8550 C   0  0  0  0  0  0  0  0  0  0  0  0
  130.0900  125.6470   66.1990 C   0  0  0  0  0  0  0  0  0  0  0  0
  130.9590  125.1770   65.2300 N   0  0  0  0  0  0  0  0  0  0  0  0
  132.3910  125.4790   65.4030 C   0  0  0  0  0  0  0  0  0  0  0  0
  133.2530  125.0720   64.1840 C   0  0  0  0  0  0  0  0  0  0  0  0
  133.1070  123.6410   63.9170 N   0  0  0  0  0  0  0  0  0  0  0  0
  133.9440  123.2510   62.7880 C   0  0  0  0  0  0  0  0  0  0  0  0
  131.7000  123.3790   63.6200 C   0  0  0  0  0  0  0  0  0  0  0  0
  130.8150  123.7640   64.8280 C   0  0  0  0  0  0  0  0  0  0  0  0
  130.2300  125.1660   67.4610 N   0  0  0  0  0  0  0  0  0  0  0  0
  129.3870  125.6100   68.4320 C   0  0  0  0  0  0  0  0  0  0  0  0
  129.5540  125.0900   69.7390 C   0  0  0  0  0  0  0  0  0  0  0  0
  128.7220  125.5070   70.7710 C   0  0  0  0  0  0  0  0  0  0  0  0
  127.7170  126.4370   70.5340 C   0  0  0  0  0  0  0  0  0  0  0  0
  127.5260  126.9680   69.2620 C   0  0  0  0  0  0  0  0  0  0  0  0
  128.3550  126.5700   68.1730 C   0  0  0  0  0  0  0  0  0  0  0  0
  1  2  1  0
  2  3  2  0
  3  4  1  0
  4  5  1  0
  5  6  1  0
  6  7  1  0
  7  8  1  0
  8  9  1  0
  8 10  1  0
 10 11  1  0
  4 12  2  0
 12 13  1  0
 13 14  2  0
 14 15  1  0
 15 16  2  0
 16 17  1  0
 17 18  2  0
 18  2  1  0
 11  5  1  0
 18 13  1  0
M  END
>  <Binding energies>  (83) 
[-5.53]

>  <Ligand effiencies>  (83) 
[-0.30722222222222223]

>  <Interactions>  (83) 
["V-A:HIS:456:CE1:4069, V-A:TYR:484:CZ:4347, V-A:TYR:484:CE1:4345, V-B:HIS:456:CE1:9040, V-B:GLU:543:C:9874, V-A:HIS:456:CD2:4068, V-B:GLU:543:CB:9878, H-A:TYR:484:OH:4348, H-A:GLY:454:N:4050, V-A:ARG:545:CZ:4926, V-A:GLY:454:CA:4049, V-A:GLY:453:C:4042, V-B:GLY:544:C:9884, H-A:HIS:456:NE2:4070"]

$$$$
RR5_Rahimova_2017
     RDKit          3D

 45 50  0  0  0  0  0  0  0  0999 V2000
  129.2210  123.2020   63.1190 O   0  0  0  0  0  0  0  0  0  0  0  0
  130.0400  124.0330   62.7310 C   0  0  0  0  0  0  0  0  0  0  0  0
  130.5820  125.0880   63.7150 C   0  0  0  0  0  0  0  0  0  0  0  0
  131.8520  125.8520   63.1970 C   0  0  2  0  0  0  0  0  0  0  0  0
  131.6520  126.6220   61.9530 N   0  0  0  0  0  0  0  0  0  0  0  0
  130.4740  127.3150   61.7080 C   0  0  0  0  0  0  0  0  0  0  0  0
  129.5090  127.4190   62.4690 O   0  0  0  0  0  0  0  0  0  0  0  0
  130.5480  127.8550   60.4790 O   0  0  0  0  0  0  0  0  0  0  0  0
  129.4730  127.7380   59.5510 C   0  0  0  0  0  0  0  0  0  0  0  0
  129.4500  128.9430   58.5840 C   0  0  0  0  0  0  0  0  0  0  0  0
  128.8560  130.2000   59.1920 C   0  0  0  0  0  0  0  0  0  0  0  0
  127.5890  130.4080   59.7470 C   0  0  0  0  0  0  0  0  0  0  0  0
  127.2580  131.6560   60.2770 C   0  0  0  0  0  0  0  0  0  0  0  0
  128.1870  132.6970   60.2520 C   0  0  0  0  0  0  0  0  0  0  0  0
  129.4520  132.4940   59.6960 C   0  0  0  0  0  0  0  0  0  0  0  0
  129.7800  131.2450   59.1660 C   0  0  0  0  0  0  0  0  0  0  0  0
  131.0120  130.7600   58.5230 C   0  0  0  0  0  0  0  0  0  0  0  0
  132.2180  131.4060   58.2420 C   0  0  0  0  0  0  0  0  0  0  0  0
  133.2380  130.7100   57.5920 C   0  0  0  0  0  0  0  0  0  0  0  0
  133.0540  129.3750   57.2260 C   0  0  0  0  0  0  0  0  0  0  0  0
  131.8490  128.7320   57.5130 C   0  0  0  0  0  0  0  0  0  0  0  0
  130.8260  129.4240   58.1660 C   0  0  0  0  0  0  0  0  0  0  0  0
  133.0450  124.8800   63.0210 C   0  0  0  0  0  0  0  0  0  0  0  0
  133.6400  124.3420   63.9340 O   0  0  0  0  0  0  0  0  0  0  0  0
  133.3080  124.7100   61.6920 O   0  0  0  0  0  0  0  0  0  0  0  0
  130.5510  124.0880   61.4800 N   0  0  0  0  0  0  0  0  0  0  0  0
  130.3220  123.2850   60.2410 C   0  0  0  0  0  0  0  0  0  0  0  0
  131.3640  123.9070   59.2520 C   0  0  0  0  0  0  0  0  0  0  0  0
  132.6880  123.4400   59.1920 C   0  0  0  0  0  0  0  0  0  0  0  0
  133.6060  123.9990   58.3070 C   0  0  0  0  0  0  0  0  0  0  0  0
  133.2180  125.0430   57.4750 C   0  0  0  0  0  0  0  0  0  0  0  0
  131.9150  125.5250   57.5120 C   0  0  0  0  0  0  0  0  0  0  0  0
  130.9950  124.9580   58.3890 C   0  0  0  0  0  0  0  0  0  0  0  0
  130.6380  121.7920   60.5880 C   0  0  0  0  0  0  0  0  0  0  0  0
  129.6460  120.7980   60.5440 C   0  0  0  0  0  0  0  0  0  0  0  0
  129.9460  119.4790   60.8750 C   0  0  0  0  0  0  0  0  0  0  0  0
  131.2390  119.1360   61.2560 C   0  0  0  0  0  0  0  0  0  0  0  0
  132.2390  120.1020   61.3030 C   0  0  0  0  0  0  0  0  0  0  0  0
  131.9400  121.4180   60.9640 C   0  0  0  0  0  0  0  0  0  0  0  0
  128.8400  123.5570   59.8140 C   0  0  0  0  0  0  0  0  0  0  0  0
  128.2520  122.8500   58.7500 C   0  0  0  0  0  0  0  0  0  0  0  0
  126.9380  123.0930   58.3600 C   0  0  0  0  0  0  0  0  0  0  0  0
  126.1840  124.0460   59.0350 C   0  0  0  0  0  0  0  0  0  0  0  0
  126.7320  124.7510   60.0990 C   0  0  0  0  0  0  0  0  0  0  0  0
  128.0470  124.5050   60.4860 C   0  0  0  0  0  0  0  0  0  0  0  0
  1  2  2  0
  2  3  1  0
  4  3  1  6
  4  5  1  0
  5  6  1  0
  6  7  2  0
  6  8  1  0
  8  9  1  0
  9 10  1  0
 10 11  1  0
 11 12  2  0
 12 13  1  0
 13 14  2  0
 14 15  1  0
 15 16  2  0
 16 17  1  0
 17 18  2  0
 18 19  1  0
 19 20  2  0
 20 21  1  0
 21 22  2  0
  4 23  1  0
 23 24  2  0
 23 25  1  0
  2 26  1  0
 26 27  1  0
 27 28  1  0
 28 29  2  0
 29 30  1  0
 30 31  2  0
 31 32  1  0
 32 33  2  0
 27 34  1  0
 34 35  2  0
 35 36  1  0
 36 37  2  0
 37 38  1  0
 38 39  2  0
 27 40  1  0
 40 41  2  0
 41 42  1  0
 42 43  2  0
 43 44  1  0
 44 45  2  0
 22 10  1  0
 33 28  1  0
 39 34  1  0
 45 40  1  0
 16 11  1  0
 22 17  1  0
M  END
>  <Binding energies>  (84) 
[-8.46]

>  <Ligand effiencies>  (84) 
[-0.17625000000000002]

>  <Interactions>  (84) 
["V-B:ALA:541:CB:9864, H-A:GLY:454:N:4050, V-A:ARG:545:CZ:4926, V-A:LEU:475:CD1:4258, V-B:TYR:539:CE2:9848, V-A:TRP:381:CH2:3372, V-B:TYR:539:CD2:9846, H-A:ARG:545:NH2:4928, H-A:ASP:366:OD2:3215, V-A:ASP:366:CG:3213, V-A:ASP:366:CB:3212, V-A:ILE:369:CB:3236, V-A:ILE:369:CG2:3237, V-A:ASP:366:CA:3210, V-A:ASP:366:C:3208, V-B:TYR:539:CZ:9849, V-B:PRO:540:N:9856, V-B:PRO:540:CA:9855, V-A:PRO:482:CB:4326, V-A:TRP:381:CZ2:3370, V-A:PRO:482:CG:4327, V-A:PRO:540:CA:4883, V-A:PRO:540:CB:4885, V-A:LEU:363:CA:3185, V-A:TYR:539:C:4867, V-A:LEU:363:CD1:3189, V-A:PRO:540:C:4881, V-A:PRO:540:N:4884, H-A:ASP:366:OD1:3214, V-A:TYR:531:CE2:4793, V-A:TYR:531:CZ:4794"]

$$$$
