1a_Ghoteimi_2023
     RDKit          3D

 40 43  0  0  0  0  0  0  0  0999 V2000
  133.6950  119.2160   61.2430 C   0  0  0  0  0  0  0  0  0  0  0  0
  133.0120  120.5030   60.7700 C   0  0  0  0  0  0  0  0  0  0  0  0
  131.7800  120.1780   60.1380 O   0  0  0  0  0  0  0  0  0  0  0  0
  130.6440  120.0060   60.8620 C   0  0  0  0  0  0  0  0  0  0  0  0
  130.2610  118.9080   61.2780 O   0  0  0  0  0  0  0  0  0  0  0  0
  129.9010  121.2870   61.1110 C   0  0  0  0  0  0  0  0  0  0  0  0
  130.0660  122.0230   62.2940 C   0  0  0  0  0  0  0  0  0  0  0  0
  129.3610  123.2060   62.4990 C   0  0  0  0  0  0  0  0  0  0  0  0
  128.4780  123.6780   61.5170 C   0  0  0  0  0  0  0  0  0  0  0  0
  127.7120  124.8560   61.6200 N   0  0  0  0  0  0  0  0  0  0  0  0
  128.0900  126.1470   61.4940 C   0  0  0  0  0  0  0  0  0  0  0  0
  129.2280  126.5380   61.2390 O   0  0  0  0  0  0  0  0  0  0  0  0
  126.9780  127.1780   61.6860 C   0  0  0  0  0  0  0  0  0  0  0  0
  127.4450  128.4550   62.8910 S   0  0  0  0  0  0  0  0  0  0  0  0
  128.3220  127.6140   64.1890 C   0  0  0  0  0  0  0  0  0  0  0  0
  129.3460  126.8450   63.7520 N   0  0  0  0  0  0  0  0  0  0  0  0
  130.1010  126.1530   64.6450 C   0  0  0  0  0  0  0  0  0  0  0  0
  131.2310  125.3390   64.0840 C   0  0  0  0  0  0  0  0  0  0  0  0
  131.7910  125.6360   62.8300 C   0  0  0  0  0  0  0  0  0  0  0  0
  132.8390  124.8810   62.3120 C   0  0  0  0  0  0  0  0  0  0  0  0
  133.3600  123.8060   63.0280 C   0  0  0  0  0  0  0  0  0  0  0  0
  134.4010  123.1140   62.4390 O   0  0  0  0  0  0  0  0  0  0  0  0
  134.9470  123.5930   61.2150 C   0  0  0  0  0  0  0  0  0  0  0  0
  132.8090  123.4940   64.2790 C   0  0  0  0  0  0  0  0  0  0  0  0
  131.7610  124.2510   64.7940 C   0  0  0  0  0  0  0  0  0  0  0  0
  129.8270  126.2260   66.0160 C   0  0  0  0  0  0  0  0  0  0  0  0
  128.7560  126.9950   66.4910 C   0  0  0  0  0  0  0  0  0  0  0  0
  128.5040  127.0010   67.9640 C   0  0  0  0  0  0  0  0  0  0  0  0
  129.3850  127.6430   68.8400 C   0  0  0  0  0  0  0  0  0  0  0  0
  129.1350  127.6560   70.2100 C   0  0  0  0  0  0  0  0  0  0  0  0
  127.9980  127.0380   70.7290 C   0  0  0  0  0  0  0  0  0  0  0  0
  127.8320  127.1030   72.0980 O   0  0  0  0  0  0  0  0  0  0  0  0
  126.5400  127.3740   72.6290 C   0  0  0  0  0  0  0  0  0  0  0  0
  127.1070  126.4000   69.8520 C   0  0  0  0  0  0  0  0  0  0  0  0
  127.3600  126.3870   68.4820 C   0  0  0  0  0  0  0  0  0  0  0  0
  127.9780  127.7180   65.5540 C   0  0  0  0  0  0  0  0  0  0  0  0
  126.8540  128.5520   65.9920 C   0  0  0  0  0  0  0  0  0  0  0  0
  125.9680  129.2110   66.3390 N   0  0  0  0  0  0  0  0  0  0  0  0
  128.3080  122.9470   60.3410 C   0  0  0  0  0  0  0  0  0  0  0  0
  129.0140  121.7640   60.1380 C   0  0  0  0  0  0  0  0  0  0  0  0
  1  2  1  0
  2  3  1  0
  3  4  1  0
  4  5  2  0
  4  6  1  0
  6  7  2  0
  7  8  1  0
  8  9  2  0
  9 10  1  0
 10 11  1  0
 11 12  2  0
 11 13  1  0
 13 14  1  0
 14 15  1  0
 15 16  2  0
 16 17  1  0
 17 18  1  0
 18 19  2  0
 19 20  1  0
 20 21  2  0
 21 22  1  0
 22 23  1  0
 21 24  1  0
 24 25  2  0
 17 26  2  0
 26 27  1  0
 27 28  1  0
 28 29  2  0
 29 30  1  0
 30 31  2  0
 31 32  1  0
 32 33  1  0
 31 34  1  0
 34 35  2  0
 27 36  2  0
 36 37  1  0
 37 38  3  0
  9 39  1  0
 39 40  2  0
 40  6  1  0
 36 15  1  0
 25 18  1  0
 35 28  1  0
M  END
>  <Binding energies>  (1) 
[-8.15]

>  <Ligand effiencies>  (1) 
[-0.19878048780487806]

>  <Interactions>  (1) 
["V-A:HIS:456:CE1:4069, H-B:GLU:543:OE1:9881, V-B:HIS:456:CE1:9040, V-B:GLU:543:C:9874, V-A:HIS:456:CD2:4068, V-B:HIS:456:CD2:9039, V-B:HIS:456:CB:9036, V-B:HIS:456:CG:9037, V-A:GLU:543:CD:4908, V-B:GLU:543:CB:9878, V-B:ALA:541:CB:9864, V-A:ILE:369:CD1:3239, H-A:GLY:454:N:4050, V-B:GLU:543:CD:9880, V-A:ARG:545:CZ:4926, V-A:LEU:475:CD1:4258, V-B:TYR:539:CE2:9848, V-A:GLY:454:CA:4049, V-A:TRP:381:CH2:3372, V-B:TYR:539:CD2:9846, V-A:ASP:366:CG:3213, V-B:GLY:544:C:9884, H-B:TYR:484:OH:9319, V-A:ILE:369:CG2:3237, V-B:GLU:543:CG:9879, V-A:SER:385:CA:3407, V-A:SER:385:C:3405, V-A:TRP:381:CZ2:3370, H-B:GLU:543:OE2:9882, V-B:ARG:545:CA:9891"]

$$$$
1b_Ghoteimi_2023
     RDKit          3D

 34 37  0  0  0  0  0  0  0  0999 V2000
  127.1630  126.6150   74.6490 C   0  0  0  0  0  0  0  0  0  0  0  0
  128.2030  125.8490   74.0520 O   0  0  0  0  0  0  0  0  0  0  0  0
  128.4020  125.9320   72.6870 C   0  0  0  0  0  0  0  0  0  0  0  0
  127.6300  126.8660   71.9990 C   0  0  0  0  0  0  0  0  0  0  0  0
  127.7610  127.0200   70.6220 C   0  0  0  0  0  0  0  0  0  0  0  0
  128.6720  126.2440   69.8900 C   0  0  0  0  0  0  0  0  0  0  0  0
  128.8090  126.4120   68.4030 C   0  0  0  0  0  0  0  0  0  0  0  0
  129.7010  125.6590   67.6310 C   0  0  0  0  0  0  0  0  0  0  0  0
  129.7880  125.8510   66.2460 C   0  0  0  0  0  0  0  0  0  0  0  0
  130.7660  125.0160   65.4870 C   0  0  0  0  0  0  0  0  0  0  0  0
  132.0840  125.4510   65.3190 C   0  0  0  0  0  0  0  0  0  0  0  0
  132.9970  124.6800   64.6050 C   0  0  0  0  0  0  0  0  0  0  0  0
  132.6110  123.4630   64.0420 C   0  0  0  0  0  0  0  0  0  0  0  0
  133.5830  122.7670   63.3500 O   0  0  0  0  0  0  0  0  0  0  0  0
  134.0270  123.2600   62.0910 C   0  0  0  0  0  0  0  0  0  0  0  0
  131.2870  123.0270   64.2020 C   0  0  0  0  0  0  0  0  0  0  0  0
  130.3760  123.8000   64.9160 C   0  0  0  0  0  0  0  0  0  0  0  0
  128.9420  126.8160   65.6450 C   0  0  0  0  0  0  0  0  0  0  0  0
  128.9260  126.9870   64.1900 C   0  0  0  0  0  0  0  0  0  0  0  0
  128.9130  127.1210   63.0400 N   0  0  0  0  0  0  0  0  0  0  0  0
  128.0800  127.5560   66.4840 C   0  0  0  0  0  0  0  0  0  0  0  0
  126.9560  128.8110   65.9070 S   0  0  0  0  0  0  0  0  0  0  0  0
  127.9190  130.3310   65.6060 C   0  0  0  0  0  0  0  0  0  0  0  0
  127.7890  130.9140   64.1910 C   0  0  0  0  0  0  0  0  0  0  0  0
  126.6940  130.9520   63.6240 O   0  0  0  0  0  0  0  0  0  0  0  0
  128.9480  131.3590   63.6560 N   0  0  0  0  0  0  0  0  0  0  0  0
  129.1300  131.9320   62.4030 C   0  0  0  0  0  0  0  0  0  0  0  0
  128.1310  132.6440   61.7390 C   0  0  0  0  0  0  0  0  0  0  0  0
  128.7030  133.0390   60.5510 C   0  0  0  0  0  0  0  0  0  0  0  0
  129.9810  132.5910   60.5050 O   0  0  0  0  0  0  0  0  0  0  0  0
  130.2390  131.8920   61.6840 N   0  0  0  0  0  0  0  0  0  0  0  0
  128.0060  127.3400   67.8200 N   0  0  0  0  0  0  0  0  0  0  0  0
  129.4430  125.3050   70.5930 C   0  0  0  0  0  0  0  0  0  0  0  0
  129.3140  125.1480   71.9690 C   0  0  0  0  0  0  0  0  0  0  0  0
  1  2  1  0
  2  3  1  0
  3  4  2  0
  4  5  1  0
  5  6  2  0
  6  7  1  0
  7  8  2  0
  8  9  1  0
  9 10  1  0
 10 11  2  0
 11 12  1  0
 12 13  2  0
 13 14  1  0
 14 15  1  0
 13 16  1  0
 16 17  2  0
  9 18  2  0
 18 19  1  0
 19 20  3  0
 18 21  1  0
 21 22  1  0
 22 23  1  0
 23 24  1  0
 24 25  2  0
 24 26  1  0
 26 27  1  0
 27 28  1  0
 28 29  2  0
 29 30  1  0
 30 31  1  0
 21 32  2  0
  6 33  1  0
 33 34  2  0
 34  3  1  0
 32  7  1  0
 17 10  1  0
 31 27  2  0
M  END
>  <Binding energies>  (2) 
[-9.47]

>  <Ligand effiencies>  (2) 
[-0.2705714285714286]

>  <Interactions>  (2) 
["V-A:HIS:456:CE1:4069, V-A:TYR:484:CE1:4345, V-B:HIS:456:CE1:9040, H-B:LYS:547:NZ:9923, V-A:HIS:456:CD2:4068, V-A:GLU:543:CB:4906, V-A:GLU:543:CD:4908, V-A:ILE:369:CD1:3239, H-A:GLY:454:N:4050, V-B:GLU:543:CD:9880, V-A:ARG:545:CZ:4926, V-A:LEU:475:CD1:4258, V-A:GLY:454:CA:4049, V-B:GLY:544:C:9884, H-B:TYR:484:OH:9319, V-B:TYR:484:CE1:9316, V-B:TYR:484:CZ:9318, V-A:PRO:540:CA:4883, V-B:LYS:547:CE:9922, V-A:ALA:541:CB:4892, V-A:TYR:539:C:4867, H-A:GLU:543:OE1:4909, V-A:PRO:540:C:4881, V-B:LYS:547:CD:9921, H-A:ALA:541:N:4891"]

$$$$
1c_Ghoteimi_2023
     RDKit          3D

 34 37  0  0  0  0  0  0  0  0999 V2000
  127.3000  126.6080   74.4750 C   0  0  0  0  0  0  0  0  0  0  0  0
  128.2530  125.8540   73.7340 O   0  0  0  0  0  0  0  0  0  0  0  0
  128.3830  126.0760   72.3760 C   0  0  0  0  0  0  0  0  0  0  0  0
  129.2090  125.2020   71.6760 C   0  0  0  0  0  0  0  0  0  0  0  0
  129.4000  125.3530   70.3050 C   0  0  0  0  0  0  0  0  0  0  0  0
  128.7700  126.3860   69.5940 C   0  0  0  0  0  0  0  0  0  0  0  0
  128.9770  126.5550   68.1160 C   0  0  0  0  0  0  0  0  0  0  0  0
  129.8810  125.7770   67.3850 C   0  0  0  0  0  0  0  0  0  0  0  0
  130.0210  125.9530   66.0030 C   0  0  0  0  0  0  0  0  0  0  0  0
  130.9540  125.0430   65.2760 C   0  0  0  0  0  0  0  0  0  0  0  0
  130.4960  123.8410   64.7310 C   0  0  0  0  0  0  0  0  0  0  0  0
  131.3720  122.9840   64.0730 C   0  0  0  0  0  0  0  0  0  0  0  0
  132.7220  123.3090   63.9510 C   0  0  0  0  0  0  0  0  0  0  0  0
  133.5180  122.3990   63.2820 O   0  0  0  0  0  0  0  0  0  0  0  0
  133.9610  122.7020   61.9630 C   0  0  0  0  0  0  0  0  0  0  0  0
  133.1880  124.5120   64.5030 C   0  0  0  0  0  0  0  0  0  0  0  0
  132.3100  125.3680   65.1610 C   0  0  0  0  0  0  0  0  0  0  0  0
  129.2480  126.9560   65.3710 C   0  0  0  0  0  0  0  0  0  0  0  0
  129.3720  127.2130   63.9320 C   0  0  0  0  0  0  0  0  0  0  0  0
  129.4710  127.4140   62.7970 N   0  0  0  0  0  0  0  0  0  0  0  0
  128.3430  127.6920   66.1650 C   0  0  0  0  0  0  0  0  0  0  0  0
  127.1910  128.8610   65.4770 S   0  0  0  0  0  0  0  0  0  0  0  0
  127.9960  130.4830   65.6790 C   0  0  0  0  0  0  0  0  0  0  0  0
  128.0320  131.2780   64.3700 C   0  0  0  0  0  0  0  0  0  0  0  0
  127.4980  132.3870   64.3170 O   0  0  0  0  0  0  0  0  0  0  0  0
  128.7090  130.6910   63.3580 N   0  0  0  0  0  0  0  0  0  0  0  0
  129.0210  131.2570   62.1320 C   0  0  0  0  0  0  0  0  0  0  0  0
  130.1450  131.8400   61.7740 N   0  0  0  0  0  0  0  0  0  0  0  0
  130.1070  132.2290   60.5150 C   0  0  0  0  0  0  0  0  0  0  0  0
  128.9320  131.9580   59.8220 C   0  0  0  0  0  0  0  0  0  0  0  0
  127.8190  131.1530   60.8870 S   0  0  0  0  0  0  0  0  0  0  0  0
  128.2080  127.4890   67.4970 N   0  0  0  0  0  0  0  0  0  0  0  0
  127.9350  127.2570   70.3080 C   0  0  0  0  0  0  0  0  0  0  0  0
  127.7420  127.1110   71.6790 C   0  0  0  0  0  0  0  0  0  0  0  0
  1  2  1  0
  2  3  1  0
  3  4  2  0
  4  5  1  0
  5  6  2  0
  6  7  1  0
  7  8  2  0
  8  9  1  0
  9 10  1  0
 10 11  2  0
 11 12  1  0
 12 13  2  0
 13 14  1  0
 14 15  1  0
 13 16  1  0
 16 17  2  0
  9 18  2  0
 18 19  1  0
 19 20  3  0
 18 21  1  0
 21 22  1  0
 22 23  1  0
 23 24  1  0
 24 25  2  0
 24 26  1  0
 26 27  1  0
 27 28  2  0
 28 29  1  0
 29 30  2  0
 30 31  1  0
 21 32  2  0
  6 33  1  0
 33 34  2  0
 34  3  1  0
 32  7  1  0
 17 10  1  0
 31 27  1  0
M  END
>  <Binding energies>  (3) 
[-8.42]

>  <Ligand effiencies>  (3) 
[-0.24057142857142857]

>  <Interactions>  (3) 
["V-A:HIS:456:CE1:4069, V-B:HIS:456:CE1:9040, H-B:LYS:547:NZ:9923, V-A:HIS:456:CD2:4068, V-B:HIS:456:CD2:9039, V-B:HIS:456:CG:9037, V-A:GLU:543:CB:4906, V-A:GLU:543:CD:4908, H-A:GLU:543:OE2:4910, V-A:ILE:369:CD1:3239, H-A:GLY:454:N:4050, V-A:LEU:475:CD1:4258, V-A:GLY:454:CA:4049, H-B:TYR:484:OH:9319, V-B:TYR:484:CE1:9316, V-B:TYR:484:CZ:9318, V-A:PRO:540:CA:4883, V-A:PRO:540:CB:4885, V-B:LYS:547:CE:9922, H-A:GLU:543:OE1:4909, V-A:PRO:540:C:4881, V-B:LYS:547:CD:9921, H-A:ALA:541:N:4891"]

$$$$
1d_Ghoteimi_2023
     RDKit          3D

 30 32  0  0  0  0  0  0  0  0999 V2000
  133.4610  124.5750   62.3020 C   0  0  0  0  0  0  0  0  0  0  0  0
  133.9430  124.1810   63.5770 O   0  0  0  0  0  0  0  0  0  0  0  0
  133.4600  124.7530   64.7000 C   0  0  0  0  0  0  0  0  0  0  0  0
  133.9830  124.7260   65.8150 O   0  0  0  0  0  0  0  0  0  0  0  0
  132.1340  125.4700   64.4600 C   0  0  0  0  0  0  0  0  0  0  0  0
  130.8550  124.5860   65.4030 S   0  0  0  0  0  0  0  0  0  0  0  0
  129.7950  125.8200   66.1240 C   0  0  0  0  0  0  0  0  0  0  0  0
  129.6380  125.6890   67.4630 N   0  0  0  0  0  0  0  0  0  0  0  0
  128.8510  126.5620   68.1420 C   0  0  0  0  0  0  0  0  0  0  0  0
  128.7360  126.3510   69.6240 C   0  0  0  0  0  0  0  0  0  0  0  0
  127.9650  127.2090   70.4240 C   0  0  0  0  0  0  0  0  0  0  0  0
  127.8640  127.0150   71.7980 C   0  0  0  0  0  0  0  0  0  0  0  0
  128.5320  125.9600   72.4170 C   0  0  0  0  0  0  0  0  0  0  0  0
  128.3780  125.8470   73.7850 O   0  0  0  0  0  0  0  0  0  0  0  0
  127.3790  126.6240   74.4370 C   0  0  0  0  0  0  0  0  0  0  0  0
  129.3060  125.0950   71.6320 C   0  0  0  0  0  0  0  0  0  0  0  0
  129.4030  125.2920   70.2570 C   0  0  0  0  0  0  0  0  0  0  0  0
  128.2040  127.6070   67.4720 C   0  0  0  0  0  0  0  0  0  0  0  0
  128.3350  127.7560   66.0860 C   0  0  0  0  0  0  0  0  0  0  0  0
  127.6100  128.8900   65.4340 C   0  0  0  0  0  0  0  0  0  0  0  0
  128.3160  130.0090   64.9820 C   0  0  0  0  0  0  0  0  0  0  0  0
  127.6480  131.0680   64.3740 C   0  0  0  0  0  0  0  0  0  0  0  0
  126.2650  131.0280   64.2000 C   0  0  0  0  0  0  0  0  0  0  0  0
  125.6860  132.1260   63.5930 O   0  0  0  0  0  0  0  0  0  0  0  0
  126.2210  132.6030   62.3630 C   0  0  0  0  0  0  0  0  0  0  0  0
  125.5540  129.9010   64.6400 C   0  0  0  0  0  0  0  0  0  0  0  0
  126.2250  128.8430   65.2470 C   0  0  0  0  0  0  0  0  0  0  0  0
  129.1370  126.8260   65.3800 C   0  0  0  0  0  0  0  0  0  0  0  0
  129.2270  126.8720   63.9180 C   0  0  0  0  0  0  0  0  0  0  0  0
  129.2960  126.9100   62.7630 N   0  0  0  0  0  0  0  0  0  0  0  0
  1  2  1  0
  2  3  1  0
  3  4  2  0
  3  5  1  0
  5  6  1  0
  6  7  1  0
  7  8  2  0
  8  9  1  0
  9 10  1  0
 10 11  2  0
 11 12  1  0
 12 13  2  0
 13 14  1  0
 14 15  1  0
 13 16  1  0
 16 17  2  0
  9 18  2  0
 18 19  1  0
 19 20  1  0
 20 21  2  0
 21 22  1  0
 22 23  2  0
 23 24  1  0
 24 25  1  0
 23 26  1  0
 26 27  2  0
 19 28  2  0
 28 29  1  0
 29 30  3  0
 28  7  1  0
 17 10  1  0
 27 20  1  0
M  END
>  <Binding energies>  (4) 
[-7.84]

>  <Ligand effiencies>  (4) 
[-0.2613333333333333]

>  <Interactions>  (4) 
["V-A:HIS:456:CE1:4069, V-B:HIS:456:CE1:9040, H-B:LYS:547:NZ:9923, V-A:HIS:456:CD2:4068, V-A:GLU:543:CG:4907, V-A:GLU:543:CB:4906, V-A:GLU:543:CD:4908, H-A:TYR:484:OH:4348, H-A:GLY:454:N:4050, V-B:GLU:543:CD:9880, V-A:ARG:545:CZ:4926, H-A:ARG:545:NE:4924, V-A:ASP:366:CG:3213, H-B:TYR:484:OH:9319, H-A:HIS:456:NE2:4070, V-B:LYS:547:CE:9922, V-B:LEU:475:CD1:9229, V-B:LYS:547:CD:9921"]

$$$$
1j_Grossjean_2025
     RDKit          3D

 20 21  0  0  0  0  0  0  0  0999 V2000
  127.9830  130.5730   65.6490 C   0  0  0  0  0  0  0  0  0  0  0  0
  128.3630  129.1760   66.1040 C   0  0  0  0  0  0  0  0  0  0  0  0
  128.5270  128.1330   65.1960 C   0  0  0  0  0  0  0  0  0  0  0  0
  128.8910  126.8690   65.6720 C   0  0  0  0  0  0  0  0  0  0  0  0
  129.0810  125.7440   64.6550 C   0  0  0  0  0  0  0  0  0  0  0  0
  129.0750  126.6800   67.0600 C   0  0  0  0  0  0  0  0  0  0  0  0
  129.5070  125.3780   67.5750 C   0  0  0  0  0  0  0  0  0  0  0  0
  129.8500  124.3490   67.9780 N   0  0  0  0  0  0  0  0  0  0  0  0
  128.8620  127.7900   67.9120 C   0  0  0  0  0  0  0  0  0  0  0  0
  129.0460  127.7320   69.6810 S   0  0  0  0  0  0  0  0  0  0  0  0
  127.8310  126.5430   70.3240 C   0  0  0  0  0  0  0  0  0  0  0  0
  128.4290  125.6380   71.4030 C   0  0  0  0  0  0  0  0  0  0  0  0
  128.2940  125.9410   72.5890 O   0  0  0  0  0  0  0  0  0  0  0  0
  129.0760  124.5420   70.9500 N   0  0  0  0  0  0  0  0  0  0  0  0
  129.7060  123.5750   71.7210 C   0  0  0  0  0  0  0  0  0  0  0  0
  129.4430  122.2860   71.7740 N   0  0  0  0  0  0  0  0  0  0  0  0
  130.2420  121.6640   72.6170 C   0  0  0  0  0  0  0  0  0  0  0  0
  131.1840  122.4530   73.2700 C   0  0  0  0  0  0  0  0  0  0  0  0
  131.0040  124.1000   72.7440 S   0  0  0  0  0  0  0  0  0  0  0  0
  128.5300  129.0170   67.4380 N   0  0  0  0  0  0  0  0  0  0  0  0
  1  2  1  0
  2  3  2  0
  3  4  1  0
  4  5  1  0
  4  6  2  0
  6  7  1  0
  7  8  3  0
  6  9  1  0
  9 10  1  0
 10 11  1  0
 11 12  1  0
 12 13  2  0
 12 14  1  0
 14 15  1  0
 15 16  2  0
 16 17  1  0
 17 18  2  0
 18 19  1  0
  9 20  2  0
 20  2  1  0
 19 15  1  0
M  END
>  <Binding energies>  (5) 
[-6.43]

>  <Ligand effiencies>  (5) 
[-0.3061904761904762]

>  <Interactions>  (5) 
["V-A:HIS:456:CE1:4069, V-A:TYR:484:CE1:4345, V-B:HIS:456:CE1:9040, V-A:TYR:484:CG:4342, V-A:HIS:456:CB:4065, V-A:TYR:484:CD1:4343, V-A:HIS:456:CG:4066, V-A:TYR:484:CD2:4344, H-B:LYS:547:NZ:9923, V-B:GLU:543:C:9874, V-A:HIS:456:CD2:4068, H-B:GLU:543:O:9875, V-A:GLU:543:CG:4907, V-A:GLU:543:CB:4906, V-A:GLU:543:CD:4908, V-B:GLU:543:CB:9878, H-A:TYR:484:OH:4348, V-B:GLU:543:CD:9880, V-B:GLY:544:C:9884, H-B:HIS:456:NE2:9041, H-A:HIS:456:NE2:4070, V-B:TYR:484:CE1:9316, V-B:TYR:484:CZ:9318, V-B:GLU:543:CG:9879, V-A:ASP:473:CG:4240, V-A:ASP:473:CB:4239, V-A:TYR:484:CB:4341"]

$$$$
1o_Grossjean_2025
     RDKit          3D

 26 27  0  0  0  0  0  0  0  0999 V2000
  127.1780  126.6730   74.4240 C   0  0  0  0  0  0  0  0  0  0  0  0
  128.3460  125.8660   74.4890 O   0  0  0  0  0  0  0  0  0  0  0  0
  129.4790  126.2220   73.8300 C   0  0  0  0  0  0  0  0  0  0  0  0
  130.4770  126.6820   74.3940 O   0  0  0  0  0  0  0  0  0  0  0  0
  129.4000  125.9970   72.3480 C   0  0  0  0  0  0  0  0  0  0  0  0
  128.8360  126.9450   71.4820 C   0  0  0  0  0  0  0  0  0  0  0  0
  128.7810  126.7070   70.1110 C   0  0  0  0  0  0  0  0  0  0  0  0
  129.2810  125.5180   69.5790 C   0  0  0  0  0  0  0  0  0  0  0  0
  129.1820  125.3840   68.1800 N   0  0  0  0  0  0  0  0  0  0  0  0
  129.3250  126.3130   67.2090 C   0  0  0  0  0  0  0  0  0  0  0  0
  129.6260  127.4920   67.3950 O   0  0  0  0  0  0  0  0  0  0  0  0
  129.1160  125.8080   65.7740 C   0  0  0  0  0  0  0  0  0  0  0  0
  130.3140  125.0040   65.2300 C   0  0  0  0  0  0  0  0  0  0  0  0
  130.0390  123.2080   65.1870 S   0  0  0  0  0  0  0  0  0  0  0  0
  130.9330  122.5330   63.8020 C   0  0  0  0  0  0  0  0  0  0  0  0
  130.2110  121.6430   63.0750 N   0  0  0  0  0  0  0  0  0  0  0  0
  130.7850  121.0700   61.9910 C   0  0  0  0  0  0  0  0  0  0  0  0
  129.9120  120.0970   61.2200 C   0  0  0  0  0  0  0  0  0  0  0  0
  132.0920  121.3470   61.5980 C   0  0  0  0  0  0  0  0  0  0  0  0
  132.8540  122.2430   62.3550 C   0  0  0  0  0  0  0  0  0  0  0  0
  134.2900  122.5190   61.9120 C   0  0  0  0  0  0  0  0  0  0  0  0
  132.2780  122.8510   63.4940 C   0  0  0  0  0  0  0  0  0  0  0  0
  133.0790  123.7460   64.3320 C   0  0  0  0  0  0  0  0  0  0  0  0
  133.7140  124.4530   64.9920 N   0  0  0  0  0  0  0  0  0  0  0  0
  129.8510  124.5670   70.4390 C   0  0  0  0  0  0  0  0  0  0  0  0
  129.9070  124.8080   71.8090 C   0  0  0  0  0  0  0  0  0  0  0  0
  1  2  1  0
  2  3  1  0
  3  4  2  0
  3  5  1  0
  5  6  2  0
  6  7  1  0
  7  8  2  0
  8  9  1  0
  9 10  1  0
 10 11  2  0
 10 12  1  0
 12 13  1  0
 13 14  1  0
 14 15  1  0
 15 16  2  0
 16 17  1  0
 17 18  1  0
 17 19  2  0
 19 20  1  0
 20 21  1  0
 20 22  2  0
 22 23  1  0
 23 24  3  0
  8 25  1  0
 25 26  2  0
 26  5  1  0
 22 15  1  0
M  END
>  <Binding energies>  (6) 
[-8.11]

>  <Ligand effiencies>  (6) 
[-0.30037037037037034]

>  <Interactions>  (6) 
["V-A:HIS:456:CE1:4069, V-A:TYR:484:CZ:4347, V-A:TYR:484:CE1:4345, V-B:HIS:456:CE1:9040, V-A:HIS:456:CG:4066, H-B:LYS:547:NZ:9923, V-B:GLU:543:C:9874, V-A:HIS:456:CD2:4068, H-A:LYS:547:NZ:4951, H-B:GLU:543:O:9875, V-B:GLU:543:CB:9878, V-B:ALA:541:CB:9864, H-A:TYR:484:OH:4348, V-A:ILE:369:CD1:3239, H-A:GLY:454:N:4050, V-B:GLU:543:CD:9880, V-A:LEU:475:CD1:4258, V-A:GLY:454:CA:4049, V-B:TYR:539:CD2:9846, H-A:HIS:456:NE2:4070, V-B:GLU:543:CG:9879, V-A:PRO:482:CB:4326, V-A:PRO:482:CG:4327, V-B:LYS:547:CE:9922, V-B:LYS:547:CD:9921"]

$$$$
1p_Grossjean_2025
     RDKit          3D

 21 22  0  0  0  0  0  0  0  0999 V2000
  130.3350  123.1260   65.0100 C   0  0  0  0  0  0  0  0  0  0  0  0
  129.8250  124.5310   65.2670 C   0  0  0  0  0  0  0  0  0  0  0  0
  129.3750  125.3440   64.2290 C   0  0  0  0  0  0  0  0  0  0  0  0
  128.9280  126.6370   64.5220 C   0  0  0  0  0  0  0  0  0  0  0  0
  128.4530  127.5160   63.3670 C   0  0  0  0  0  0  0  0  0  0  0  0
  128.9370  127.0830   65.8630 C   0  0  0  0  0  0  0  0  0  0  0  0
  128.5200  128.4480   66.1910 C   0  0  0  0  0  0  0  0  0  0  0  0
  128.1890  129.5270   66.4480 N   0  0  0  0  0  0  0  0  0  0  0  0
  129.3890  126.1820   66.8560 C   0  0  0  0  0  0  0  0  0  0  0  0
  129.4550  126.5770   68.5880 S   0  0  0  0  0  0  0  0  0  0  0  0
  127.7560  126.4600   69.2200 C   0  0  0  0  0  0  0  0  0  0  0  0
  127.6240  126.8030   70.7170 C   0  0  0  0  0  0  0  0  0  0  0  0
  128.2670  125.7610   71.6440 C   0  0  0  0  0  0  0  0  0  0  0  0
  128.2060  125.9140   72.8650 O   0  0  0  0  0  0  0  0  0  0  0  0
  128.8580  124.7130   71.0250 N   0  0  0  0  0  0  0  0  0  0  0  0
  129.5060  123.6410   71.6240 C   0  0  0  0  0  0  0  0  0  0  0  0
  130.7930  123.7280   72.1560 C   0  0  0  0  0  0  0  0  0  0  0  0
  131.0640  122.4720   72.6470 C   0  0  0  0  0  0  0  0  0  0  0  0
  129.9980  121.6680   72.4200 O   0  0  0  0  0  0  0  0  0  0  0  0
  129.0170  122.4200   71.7700 N   0  0  0  0  0  0  0  0  0  0  0  0
  129.8410  124.9370   66.5580 N   0  0  0  0  0  0  0  0  0  0  0  0
  1  2  1  0
  2  3  2  0
  3  4  1  0
  4  5  1  0
  4  6  2  0
  6  7  1  0
  7  8  3  0
  6  9  1  0
  9 10  1  0
 10 11  1  0
 11 12  1  0
 12 13  1  0
 13 14  2  0
 13 15  1  0
 15 16  1  0
 16 17  1  0
 17 18  2  0
 18 19  1  0
 19 20  1  0
  9 21  2  0
 21  2  1  0
 20 16  2  0
M  END
>  <Binding energies>  (7) 
[-7.15]

>  <Ligand effiencies>  (7) 
[-0.325]

>  <Interactions>  (7) 
["V-A:HIS:456:CE1:4069, V-A:TYR:484:CZ:4347, V-A:TYR:484:CE1:4345, V-B:HIS:456:CE1:9040, V-A:TYR:484:CG:4342, V-A:HIS:456:CB:4065, V-A:HIS:456:CG:4066, V-A:TYR:484:CE2:4346, V-A:TYR:484:CD2:4344, H-B:LYS:547:NZ:9923, V-B:GLU:543:C:9874, V-A:HIS:456:CD2:4068, H-B:GLU:543:O:9875, V-A:GLU:543:CB:4906, V-A:GLU:543:CD:4908, V-B:GLU:543:CB:9878, H-A:TYR:484:OH:4348, V-B:GLU:543:CD:9880, V-B:GLY:544:C:9884, H-B:TYR:484:OH:9319, H-A:HIS:456:NE2:4070, V-B:GLU:543:CG:9879, V-A:ASP:473:CB:4239, V-A:TYR:484:CB:4341, V-B:GLY:544:CA:9886"]

$$$$
2a_Ghoteimi_2023
     RDKit          3D

 48 53  0  0  0  0  0  0  0  0999 V2000
  130.8400  128.8760   57.0020 C   0  0  0  0  0  0  0  0  0  0  0  0
  132.1380  128.6840   57.7920 C   0  0  0  0  0  0  0  0  0  0  0  0
  133.0050  129.7840   57.5500 O   0  0  0  0  0  0  0  0  0  0  0  0
  132.5800  131.0630   57.7160 C   0  0  0  0  0  0  0  0  0  0  0  0
  132.8840  131.9860   56.9540 O   0  0  0  0  0  0  0  0  0  0  0  0
  131.6950  131.2420   58.9170 C   0  0  0  0  0  0  0  0  0  0  0  0
  132.1180  130.8940   60.2090 C   0  0  0  0  0  0  0  0  0  0  0  0
  131.2740  131.0750   61.3000 C   0  0  0  0  0  0  0  0  0  0  0  0
  129.9960  131.6080   61.1270 C   0  0  0  0  0  0  0  0  0  0  0  0
  129.2260  131.7430   62.2990 N   0  0  0  0  0  0  0  0  0  0  0  0
  127.9470  132.1490   62.4520 C   0  0  0  0  0  0  0  0  0  0  0  0
  127.2130  132.5370   61.5420 O   0  0  0  0  0  0  0  0  0  0  0  0
  127.4300  132.1460   63.8960 C   0  0  0  0  0  0  0  0  0  0  0  0
  126.3380  130.7460   64.3040 S   0  0  0  0  0  0  0  0  0  0  0  0
  127.4200  129.3720   64.6270 C   0  0  0  0  0  0  0  0  0  0  0  0
  127.5290  129.0580   65.9380 N   0  0  0  0  0  0  0  0  0  0  0  0
  128.3340  128.0320   66.3140 C   0  0  0  0  0  0  0  0  0  0  0  0
  128.4130  127.7480   67.7790 C   0  0  0  0  0  0  0  0  0  0  0  0
  129.4020  128.3340   68.5790 C   0  0  0  0  0  0  0  0  0  0  0  0
  129.4790  128.0570   69.9410 C   0  0  0  0  0  0  0  0  0  0  0  0
  128.5650  127.1900   70.5570 C   0  0  0  0  0  0  0  0  0  0  0  0
  128.6720  126.8980   71.9210 N   0  0  0  0  0  0  0  0  0  0  0  0
  129.5760  125.8380   72.4120 C   0  0  0  0  0  0  0  0  0  0  0  0
  129.8380  125.8990   73.9320 C   0  0  0  0  0  0  0  0  0  0  0  0
  128.6080  125.8850   74.6380 O   0  0  0  0  0  0  0  0  0  0  0  0
  127.8010  127.0000   74.2940 C   0  0  0  0  0  0  0  0  0  0  0  0
  127.4760  126.9750   72.7860 C   0  0  0  0  0  0  0  0  0  0  0  0
  127.5820  126.5970   69.7480 C   0  0  0  0  0  0  0  0  0  0  0  0
  127.5050  126.8750   68.3870 C   0  0  0  0  0  0  0  0  0  0  0  0
  129.0410  127.2860   65.3680 C   0  0  0  0  0  0  0  0  0  0  0  0
  128.9430  127.5930   64.0030 C   0  0  0  0  0  0  0  0  0  0  0  0
  129.7320  126.7580   63.0470 C   0  0  0  0  0  0  0  0  0  0  0  0
  129.4020  125.4150   62.8490 C   0  0  0  0  0  0  0  0  0  0  0  0
  130.1420  124.6240   61.9760 C   0  0  0  0  0  0  0  0  0  0  0  0
  131.2330  125.1530   61.2700 C   0  0  0  0  0  0  0  0  0  0  0  0
  132.0010  124.3720   60.4020 N   0  0  0  0  0  0  0  0  0  0  0  0
  132.7410  123.2110   60.9370 C   0  0  0  0  0  0  0  0  0  0  0  0
  133.2110  122.2300   59.8410 C   0  0  0  0  0  0  0  0  0  0  0  0
  133.9860  122.9190   58.8720 O   0  0  0  0  0  0  0  0  0  0  0  0
  133.2440  123.9530   58.2450 C   0  0  0  0  0  0  0  0  0  0  0  0
  132.7700  124.9770   59.2970 C   0  0  0  0  0  0  0  0  0  0  0  0
  131.5650  126.4990   61.4830 C   0  0  0  0  0  0  0  0  0  0  0  0
  130.8250  127.2900   62.3580 C   0  0  0  0  0  0  0  0  0  0  0  0
  128.1040  128.6640   63.6140 C   0  0  0  0  0  0  0  0  0  0  0  0
  127.9170  128.9970   62.1980 C   0  0  0  0  0  0  0  0  0  0  0  0
  127.7730  129.2590   61.0790 N   0  0  0  0  0  0  0  0  0  0  0  0
  129.5630  131.9510   59.8380 C   0  0  0  0  0  0  0  0  0  0  0  0
  130.4090  131.7710   58.7460 C   0  0  0  0  0  0  0  0  0  0  0  0
  1  2  1  0
  2  3  1  0
  3  4  1  0
  4  5  2  0
  4  6  1  0
  6  7  2  0
  7  8  1  0
  8  9  2  0
  9 10  1  0
 10 11  1  0
 11 12  2  0
 11 13  1  0
 13 14  1  0
 14 15  1  0
 15 16  2  0
 16 17  1  0
 17 18  1  0
 18 19  2  0
 19 20  1  0
 20 21  2  0
 21 22  1  0
 22 23  1  0
 23 24  1  0
 24 25  1  0
 25 26  1  0
 26 27  1  0
 21 28  1  0
 28 29  2  0
 17 30  2  0
 30 31  1  0
 31 32  1  0
 32 33  2  0
 33 34  1  0
 34 35  2  0
 35 36  1  0
 36 37  1  0
 37 38  1  0
 38 39  1  0
 39 40  1  0
 40 41  1  0
 35 42  1  0
 42 43  2  0
 31 44  2  0
 44 45  1  0
 45 46  3  0
  9 47  1  0
 47 48  2  0
 48  6  1  0
 44 15  1  0
 29 18  1  0
 43 32  1  0
 27 22  1  0
 41 36  1  0
M  END
>  <Binding energies>  (8) 
[-9.1]

>  <Ligand effiencies>  (8) 
[-0.18571428571428572]

>  <Interactions>  (8) 
["V-A:HIS:456:CE1:4069, V-B:HIS:456:CE1:9040, H-B:LYS:547:NZ:9923, V-A:HIS:456:CD2:4068, V-A:GLU:543:CB:4906, V-A:GLU:543:CD:4908, V-B:GLU:543:CB:9878, V-A:ILE:369:CD1:3239, V-B:GLU:543:CD:9880, V-B:TYR:539:CE2:9848, V-A:ASP:366:CG:3213, V-B:GLY:544:C:9884, V-A:ASP:366:CB:3212, H-B:TYR:484:OH:9319, V-A:ILE:369:CG2:3237, V-A:ASP:366:CA:3210, V-B:TYR:539:CZ:9849, V-A:PRO:540:CA:4883, V-A:PRO:540:CB:4885, V-A:ALA:541:CB:4892, V-B:LEU:475:CD1:9229, H-A:TYR:531:OH:4795, V-A:LEU:363:CD1:3189, H-A:GLU:543:OE1:4909, V-A:GLU:543:C:4902, V-A:PRO:540:N:4884"]

$$$$
2aa_Ghoteimi_2023
     RDKit          3D

 48 53  0  0  0  0  0  0  0  0999 V2000
  133.5980  129.4490   56.7950 C   0  0  0  0  0  0  0  0  0  0  0  0
  132.6480  130.6020   56.4570 C   0  0  0  0  0  0  0  0  0  0  0  0
  132.6370  131.5330   57.5310 O   0  0  0  0  0  0  0  0  0  0  0  0
  132.7780  131.1220   58.8180 C   0  0  0  0  0  0  0  0  0  0  0  0
  133.8640  131.0870   59.4060 O   0  0  0  0  0  0  0  0  0  0  0  0
  131.4790  130.7290   59.4610 C   0  0  0  0  0  0  0  0  0  0  0  0
  131.0540  129.3930   59.5150 C   0  0  0  0  0  0  0  0  0  0  0  0
  129.8460  129.0590   60.1210 C   0  0  0  0  0  0  0  0  0  0  0  0
  129.0360  130.0510   60.6770 C   0  0  0  0  0  0  0  0  0  0  0  0
  127.8390  129.6020   61.2680 N   0  0  0  0  0  0  0  0  0  0  0  0
  126.7120  130.2840   61.5650 C   0  0  0  0  0  0  0  0  0  0  0  0
  126.5240  131.4790   61.3280 O   0  0  0  0  0  0  0  0  0  0  0  0
  125.6110  129.4430   62.2250 C   0  0  0  0  0  0  0  0  0  0  0  0
  125.8430  129.3690   63.6360 O   0  0  0  0  0  0  0  0  0  0  0  0
  126.8990  128.6160   64.1300 C   0  0  0  0  0  0  0  0  0  0  0  0
  127.7640  128.0610   63.2360 N   0  0  0  0  0  0  0  0  0  0  0  0
  128.8090  127.3230   63.6860 C   0  0  0  0  0  0  0  0  0  0  0  0
  129.7140  126.7400   62.6460 C   0  0  0  0  0  0  0  0  0  0  0  0
  131.1010  126.7500   62.8190 C   0  0  0  0  0  0  0  0  0  0  0  0
  131.9480  126.2030   61.8580 C   0  0  0  0  0  0  0  0  0  0  0  0
  131.4350  125.6130   60.6920 C   0  0  0  0  0  0  0  0  0  0  0  0
  132.2720  125.0710   59.7090 N   0  0  0  0  0  0  0  0  0  0  0  0
  132.8160  123.7030   59.8310 C   0  0  0  0  0  0  0  0  0  0  0  0
  133.9790  123.4070   58.8620 C   0  0  0  0  0  0  0  0  0  0  0  0
  133.5810  123.6760   57.5280 O   0  0  0  0  0  0  0  0  0  0  0  0
  133.2130  125.0370   57.3610 C   0  0  0  0  0  0  0  0  0  0  0  0
  132.0260  125.3810   58.2860 C   0  0  0  0  0  0  0  0  0  0  0  0
  130.0440  125.6250   60.5120 C   0  0  0  0  0  0  0  0  0  0  0  0
  129.2000  126.1750   61.4730 C   0  0  0  0  0  0  0  0  0  0  0  0
  129.0070  127.1070   65.0530 C   0  0  0  0  0  0  0  0  0  0  0  0
  128.1260  127.6580   65.9930 C   0  0  0  0  0  0  0  0  0  0  0  0
  128.3740  127.3720   67.4390 C   0  0  0  0  0  0  0  0  0  0  0  0
  129.0000  128.3220   68.2490 C   0  0  0  0  0  0  0  0  0  0  0  0
  129.2520  128.0550   69.5920 C   0  0  0  0  0  0  0  0  0  0  0  0
  128.8980  126.8210   70.1600 C   0  0  0  0  0  0  0  0  0  0  0  0
  129.1370  126.5320   71.5060 N   0  0  0  0  0  0  0  0  0  0  0  0
  129.5330  125.1790   71.9430 C   0  0  0  0  0  0  0  0  0  0  0  0
  130.0910  125.1370   73.3820 C   0  0  0  0  0  0  0  0  0  0  0  0
  129.1530  125.7060   74.2830 O   0  0  0  0  0  0  0  0  0  0  0  0
  128.8730  127.0590   73.9600 C   0  0  0  0  0  0  0  0  0  0  0  0
  128.2820  127.1520   72.5380 C   0  0  0  0  0  0  0  0  0  0  0  0
  128.2640  125.8770   69.3410 C   0  0  0  0  0  0  0  0  0  0  0  0
  128.0110  126.1440   67.9990 C   0  0  0  0  0  0  0  0  0  0  0  0
  127.0520  128.4460   65.5180 C   0  0  0  0  0  0  0  0  0  0  0  0
  126.1120  129.1010   66.4290 C   0  0  0  0  0  0  0  0  0  0  0  0
  125.3690  129.6190   67.1500 N   0  0  0  0  0  0  0  0  0  0  0  0
  129.4570  131.3870   60.6340 C   0  0  0  0  0  0  0  0  0  0  0  0
  130.6670  131.7180   60.0300 C   0  0  0  0  0  0  0  0  0  0  0  0
  1  2  1  0
  2  3  1  0
  3  4  1  0
  4  5  2  0
  4  6  1  0
  6  7  2  0
  7  8  1  0
  8  9  2  0
  9 10  1  0
 10 11  1  0
 11 12  2  0
 11 13  1  0
 13 14  1  0
 14 15  1  0
 15 16  2  0
 16 17  1  0
 17 18  1  0
 18 19  2  0
 19 20  1  0
 20 21  2  0
 21 22  1  0
 22 23  1  0
 23 24  1  0
 24 25  1  0
 25 26  1  0
 26 27  1  0
 21 28  1  0
 28 29  2  0
 17 30  2  0
 30 31  1  0
 31 32  1  0
 32 33  2  0
 33 34  1  0
 34 35  2  0
 35 36  1  0
 36 37  1  0
 37 38  1  0
 38 39  1  0
 39 40  1  0
 40 41  1  0
 35 42  1  0
 42 43  2  0
 31 44  2  0
 44 45  1  0
 45 46  3  0
  9 47  1  0
 47 48  2  0
 48  6  1  0
 44 15  1  0
 29 18  1  0
 43 32  1  0
 27 22  1  0
 41 36  1  0
M  END
>  <Binding energies>  (9) 
[-7.94]

>  <Ligand effiencies>  (9) 
[-0.1620408163265306]

>  <Interactions>  (9) 
["V-B:HIS:456:CE1:9040, H-B:LYS:547:NZ:9923, V-B:GLU:543:C:9874, V-A:HIS:456:CD2:4068, V-A:GLU:543:CB:4906, V-A:GLU:543:CD:4908, V-B:GLU:543:CB:9878, V-A:ILE:369:CD1:3239, V-B:GLU:543:CD:9880, V-A:ARG:545:CZ:4926, V-B:TYR:539:CE2:9848, V-A:ASP:366:CG:3213, V-A:ASP:366:CB:3212, H-B:TYR:484:OH:9319, H-B:TYR:539:OH:9850, V-A:ILE:369:CB:3236, V-A:ILE:369:CG2:3237, V-A:ASP:366:CA:3210, V-A:ASP:366:C:3208, V-A:PRO:540:CA:4883, V-A:PRO:540:CB:4885, V-A:LEU:363:CD1:3189, V-A:PRO:540:C:4881, H-B:ARG:545:NH2:9900, V-A:TYR:531:CE2:4793, V-A:TYR:531:CZ:4794, H-A:LEU:363:N:3186"]

$$$$
2b_Ghoteimi_2023
     RDKit          3D

 42 47  0  0  0  0  0  0  0  0999 V2000
  129.4850  121.9020   65.2640 N   0  0  0  0  0  0  0  0  0  0  0  0
  129.5350  122.8400   64.5880 C   0  0  0  0  0  0  0  0  0  0  0  0
  129.5990  124.0310   63.7360 C   0  0  0  0  0  0  0  0  0  0  0  0
  129.4710  125.3260   64.2980 C   0  0  0  0  0  0  0  0  0  0  0  0
  129.2690  125.5820   65.7550 C   0  0  0  0  0  0  0  0  0  0  0  0
  129.9690  124.8360   66.7050 C   0  0  0  0  0  0  0  0  0  0  0  0
  129.7840  125.0700   68.0640 C   0  0  0  0  0  0  0  0  0  0  0  0
  128.8800  126.0470   68.5120 C   0  0  0  0  0  0  0  0  0  0  0  0
  128.6870  126.3090   69.8690 N   0  0  0  0  0  0  0  0  0  0  0  0
  127.3390  126.6820   70.3450 C   0  0  0  0  0  0  0  0  0  0  0  0
  127.3400  127.3040   71.7580 C   0  0  0  0  0  0  0  0  0  0  0  0
  127.9830  126.4320   72.6750 O   0  0  0  0  0  0  0  0  0  0  0  0
  129.3300  126.1810   72.3040 C   0  0  0  0  0  0  0  0  0  0  0  0
  129.3770  125.5220   70.9110 C   0  0  0  0  0  0  0  0  0  0  0  0
  128.1790  126.7880   67.5510 C   0  0  0  0  0  0  0  0  0  0  0  0
  128.3670  126.5570   66.1910 C   0  0  0  0  0  0  0  0  0  0  0  0
  129.5430  126.4340   63.4450 C   0  0  0  0  0  0  0  0  0  0  0  0
  129.7680  126.2590   62.0760 C   0  0  0  0  0  0  0  0  0  0  0  0
  129.8830  127.4100   61.1270 C   0  0  0  0  0  0  0  0  0  0  0  0
  130.9910  128.2640   61.1720 C   0  0  0  0  0  0  0  0  0  0  0  0
  131.1130  129.3270   60.2820 C   0  0  0  0  0  0  0  0  0  0  0  0
  130.1240  129.5840   59.3190 C   0  0  0  0  0  0  0  0  0  0  0  0
  130.2470  130.6310   58.3980 N   0  0  0  0  0  0  0  0  0  0  0  0
  129.2860  131.7530   58.4250 C   0  0  0  0  0  0  0  0  0  0  0  0
  129.2980  132.6090   57.1410 C   0  0  0  0  0  0  0  0  0  0  0  0
  130.6140  133.0710   56.8780 O   0  0  0  0  0  0  0  0  0  0  0  0
  131.5150  131.9940   56.6860 C   0  0  0  0  0  0  0  0  0  0  0  0
  131.5680  131.1160   57.9550 C   0  0  0  0  0  0  0  0  0  0  0  0
  129.0190  128.7220   59.2730 C   0  0  0  0  0  0  0  0  0  0  0  0
  128.9000  127.6570   60.1620 C   0  0  0  0  0  0  0  0  0  0  0  0
  129.8920  125.0180   61.5400 N   0  0  0  0  0  0  0  0  0  0  0  0
  129.7920  123.9310   62.3400 C   0  0  0  0  0  0  0  0  0  0  0  0
  129.9730  122.3880   61.4710 S   0  0  0  0  0  0  0  0  0  0  0  0
  131.7400  122.1720   61.0990 C   0  0  0  0  0  0  0  0  0  0  0  0
  132.6280  122.5480   62.2860 C   0  0  0  0  0  0  0  0  0  0  0  0
  133.3740  121.6980   62.7760 O   0  0  0  0  0  0  0  0  0  0  0  0
  132.5120  123.8230   62.7180 N   0  0  0  0  0  0  0  0  0  0  0  0
  133.2020  124.4240   63.7610 C   0  0  0  0  0  0  0  0  0  0  0  0
  132.6160  124.7160   64.9920 C   0  0  0  0  0  0  0  0  0  0  0  0
  133.6170  125.2970   65.7350 C   0  0  0  0  0  0  0  0  0  0  0  0
  134.7460  125.3520   64.9910 O   0  0  0  0  0  0  0  0  0  0  0  0
  134.4720  124.7940   63.7400 N   0  0  0  0  0  0  0  0  0  0  0  0
  1  2  3  0
  2  3  1  0
  3  4  2  0
  4  5  1  0
  5  6  2  0
  6  7  1  0
  7  8  2  0
  8  9  1  0
  9 10  1  0
 10 11  1  0
 11 12  1  0
 12 13  1  0
 13 14  1  0
  8 15  1  0
 15 16  2  0
  4 17  1  0
 17 18  2  0
 18 19  1  0
 19 20  2  0
 20 21  1  0
 21 22  2  0
 22 23  1  0
 23 24  1  0
 24 25  1  0
 25 26  1  0
 26 27  1  0
 27 28  1  0
 22 29  1  0
 29 30  2  0
 18 31  1  0
 31 32  2  0
 32 33  1  0
 33 34  1  0
 34 35  1  0
 35 36  2  0
 35 37  1  0
 37 38  1  0
 38 39  1  0
 39 40  2  0
 40 41  1  0
 41 42  1  0
 32  3  1  0
 42 38  2  0
 16  5  1  0
 30 19  1  0
 14  9  1  0
 28 23  1  0
M  END
>  <Binding energies>  (10) 
[-9.8]

>  <Ligand effiencies>  (10) 
[-0.22790697674418606]

>  <Interactions>  (10) 
["V-A:HIS:456:CE1:4069, V-A:TYR:484:CZ:4347, V-A:TYR:484:CE1:4345, V-B:HIS:456:CE1:9040, H-B:LYS:547:NZ:9923, V-B:GLU:543:C:9874, V-A:HIS:456:CD2:4068, V-B:HIS:456:CD2:9039, V-B:HIS:456:CG:9037, V-B:GLU:543:CB:9878, V-B:ALA:541:CB:9864, H-A:GLY:454:N:4050, V-B:GLU:543:CD:9880, V-A:ARG:545:CZ:4926, V-A:LEU:475:CD1:4258, H-A:ARG:545:NH2:4928, H-A:ARG:545:NE:4924, V-B:GLY:544:C:9884, V-B:GLU:543:CA:9876, V-B:GLU:543:CG:9879, V-A:ARG:545:CG:4922, V-A:ARG:545:CD:4923, V-A:PRO:540:CA:4883, V-A:PRO:540:CB:4885, V-A:TYR:539:CD2:4874, V-A:TYR:539:CE2:4876, V-A:TYR:539:C:4867, H-A:ARG:545:NH1:4927, V-A:TYR:539:CZ:4877, V-A:TYR:539:CE1:4875, V-A:TYR:539:CD1:4873, V-A:TYR:539:CG:4872, V-A:PRO:540:N:4884, H-A:TYR:539:N:4870, V-A:PRO:540:CD:4887"]

$$$$
2c_Ghoteimi_2023
     RDKit          3D

 42 47  0  0  0  0  0  0  0  0999 V2000
  127.3490  129.5140   60.4850 N   0  0  0  0  0  0  0  0  0  0  0  0
  127.5140  129.2000   61.5860 C   0  0  0  0  0  0  0  0  0  0  0  0
  127.7290  128.7990   62.9800 C   0  0  0  0  0  0  0  0  0  0  0  0
  128.7380  127.8610   63.3130 C   0  0  0  0  0  0  0  0  0  0  0  0
  129.6390  127.2160   62.3110 C   0  0  0  0  0  0  0  0  0  0  0  0
  130.4500  128.0010   61.4890 C   0  0  0  0  0  0  0  0  0  0  0  0
  131.2960  127.4080   60.5560 C   0  0  0  0  0  0  0  0  0  0  0  0
  131.3440  126.0130   60.4080 C   0  0  0  0  0  0  0  0  0  0  0  0
  132.2000  125.3960   59.4920 N   0  0  0  0  0  0  0  0  0  0  0  0
  132.7390  124.0560   59.7970 C   0  0  0  0  0  0  0  0  0  0  0  0
  133.9460  123.6700   58.9150 C   0  0  0  0  0  0  0  0  0  0  0  0
  133.5990  123.7760   57.5430 O   0  0  0  0  0  0  0  0  0  0  0  0
  133.2130  125.0980   57.2000 C   0  0  0  0  0  0  0  0  0  0  0  0
  131.9880  125.5220   58.0370 C   0  0  0  0  0  0  0  0  0  0  0  0
  130.5220  125.2340   61.2350 C   0  0  0  0  0  0  0  0  0  0  0  0
  129.6790  125.8270   62.1700 C   0  0  0  0  0  0  0  0  0  0  0  0
  128.9060  127.5130   64.6590 C   0  0  0  0  0  0  0  0  0  0  0  0
  128.1110  128.1010   65.6480 C   0  0  0  0  0  0  0  0  0  0  0  0
  128.2630  127.7770   67.0990 C   0  0  0  0  0  0  0  0  0  0  0  0
  129.2950  128.3440   67.8540 C   0  0  0  0  0  0  0  0  0  0  0  0
  129.4380  128.0490   69.2080 C   0  0  0  0  0  0  0  0  0  0  0  0
  128.5600  127.1660   69.8550 C   0  0  0  0  0  0  0  0  0  0  0  0
  128.6740  126.8800   71.2200 N   0  0  0  0  0  0  0  0  0  0  0  0
  127.5100  127.0650   72.1100 C   0  0  0  0  0  0  0  0  0  0  0  0
  127.8750  127.0870   73.6100 C   0  0  0  0  0  0  0  0  0  0  0  0
  128.5910  125.9120   73.9530 O   0  0  0  0  0  0  0  0  0  0  0  0
  129.7990  125.8060   73.2160 C   0  0  0  0  0  0  0  0  0  0  0  0
  129.4940  125.7500   71.7040 C   0  0  0  0  0  0  0  0  0  0  0  0
  127.5190  126.6100   69.0970 C   0  0  0  0  0  0  0  0  0  0  0  0
  127.3760  126.9060   67.7440 C   0  0  0  0  0  0  0  0  0  0  0  0
  127.1480  129.0020   65.3260 N   0  0  0  0  0  0  0  0  0  0  0  0
  126.9450  129.3310   64.0280 C   0  0  0  0  0  0  0  0  0  0  0  0
  125.6370  130.5130   63.7890 S   0  0  0  0  0  0  0  0  0  0  0  0
  126.4010  132.0660   63.2320 C   0  0  0  0  0  0  0  0  0  0  0  0
  127.9250  131.9580   63.1480 C   0  0  0  0  0  0  0  0  0  0  0  0
  128.5970  132.0810   64.1730 O   0  0  0  0  0  0  0  0  0  0  0  0
  128.4250  131.7350   61.9140 N   0  0  0  0  0  0  0  0  0  0  0  0
  129.7610  131.5820   61.5750 C   0  0  0  0  0  0  0  0  0  0  0  0
  130.8170  131.8520   62.3120 N   0  0  0  0  0  0  0  0  0  0  0  0
  131.9370  131.5790   61.6730 C   0  0  0  0  0  0  0  0  0  0  0  0
  131.8020  131.0740   60.3830 C   0  0  0  0  0  0  0  0  0  0  0  0
  130.1120  130.9540   59.9970 S   0  0  0  0  0  0  0  0  0  0  0  0
  1  2  3  0
  2  3  1  0
  3  4  2  0
  4  5  1  0
  5  6  2  0
  6  7  1  0
  7  8  2  0
  8  9  1  0
  9 10  1  0
 10 11  1  0
 11 12  1  0
 12 13  1  0
 13 14  1  0
  8 15  1  0
 15 16  2  0
  4 17  1  0
 17 18  2  0
 18 19  1  0
 19 20  2  0
 20 21  1  0
 21 22  2  0
 22 23  1  0
 23 24  1  0
 24 25  1  0
 25 26  1  0
 26 27  1  0
 27 28  1  0
 22 29  1  0
 29 30  2  0
 18 31  1  0
 31 32  2  0
 32 33  1  0
 33 34  1  0
 34 35  1  0
 35 36  2  0
 35 37  1  0
 37 38  1  0
 38 39  2  0
 39 40  1  0
 40 41  2  0
 41 42  1  0
 32  3  1  0
 42 38  1  0
 16  5  1  0
 30 19  1  0
 14  9  1  0
 28 23  1  0
M  END
>  <Binding energies>  (11) 
[-9.42]

>  <Ligand effiencies>  (11) 
[-0.21906976744186046]

>  <Interactions>  (11) 
["V-A:HIS:456:CE1:4069, V-B:HIS:456:CE1:9040, H-B:LYS:547:NZ:9923, V-B:GLU:543:C:9874, V-A:HIS:456:CD2:4068, V-B:HIS:456:CD2:9039, V-B:HIS:456:CG:9037, V-A:GLU:543:CG:4907, V-A:GLU:543:CB:4906, V-A:GLU:543:CD:4908, V-B:GLU:543:CB:9878, V-A:ASP:366:CG:3213, V-B:GLY:544:C:9884, V-A:ASP:366:CB:3212, H-B:TYR:484:OH:9319, H-B:TYR:539:OH:9850, V-A:ILE:369:CB:3236, V-A:ILE:369:CG2:3237, V-A:ASP:366:CA:3210, V-A:ASP:366:C:3208, V-A:PRO:540:CA:4883, V-A:PRO:540:CB:4885, V-A:ALA:541:CB:4892, V-B:LEU:475:CD1:9229, V-A:PRO:540:C:4881, H-A:ALA:541:N:4891"]

$$$$
2j_Grossjean_2025
     RDKit          3D

 23 24  0  0  0  0  0  0  0  0999 V2000
  127.9470  130.3890   65.4950 C   0  0  0  0  0  0  0  0  0  0  0  0
  128.3780  129.0360   66.0280 C   0  0  0  0  0  0  0  0  0  0  0  0
  128.7420  127.9980   65.1750 C   0  0  0  0  0  0  0  0  0  0  0  0
  129.1370  126.7650   65.7160 C   0  0  0  0  0  0  0  0  0  0  0  0
  129.5370  125.6270   64.7570 C   0  0  0  0  0  0  0  0  0  0  0  0
  129.0310  124.4710   65.1850 F   0  0  0  0  0  0  0  0  0  0  0  0
  129.0720  125.8770   63.5330 F   0  0  0  0  0  0  0  0  0  0  0  0
  130.8600  125.4760   64.6610 F   0  0  0  0  0  0  0  0  0  0  0  0
  129.1500  126.6180   67.1260 C   0  0  0  0  0  0  0  0  0  0  0  0
  129.5530  125.3520   67.7460 C   0  0  0  0  0  0  0  0  0  0  0  0
  129.8720  124.3530   68.2360 N   0  0  0  0  0  0  0  0  0  0  0  0
  128.7630  127.7260   67.9180 C   0  0  0  0  0  0  0  0  0  0  0  0
  128.7430  127.6550   69.7040 S   0  0  0  0  0  0  0  0  0  0  0  0
  127.8290  126.1580   70.2100 C   0  0  0  0  0  0  0  0  0  0  0  0
  128.4700  125.3690   71.3610 C   0  0  0  0  0  0  0  0  0  0  0  0
  128.3760  125.7660   72.5250 O   0  0  0  0  0  0  0  0  0  0  0  0
  129.1300  124.2520   70.9830 N   0  0  0  0  0  0  0  0  0  0  0  0
  129.7940  123.3590   71.8150 C   0  0  0  0  0  0  0  0  0  0  0  0
  129.5000  122.0980   72.0430 N   0  0  0  0  0  0  0  0  0  0  0  0
  130.3480  121.5470   72.8890 C   0  0  0  0  0  0  0  0  0  0  0  0
  131.3610  122.3720   73.3690 C   0  0  0  0  0  0  0  0  0  0  0  0
  131.1840  123.9520   72.6660 S   0  0  0  0  0  0  0  0  0  0  0  0
  128.3870  128.9110   67.3750 N   0  0  0  0  0  0  0  0  0  0  0  0
  1  2  1  0
  2  3  2  0
  3  4  1  0
  4  5  1  0
  5  6  1  0
  5  7  1  0
  5  8  1  0
  4  9  2  0
  9 10  1  0
 10 11  3  0
  9 12  1  0
 12 13  1  0
 13 14  1  0
 14 15  1  0
 15 16  2  0
 15 17  1  0
 17 18  1  0
 18 19  2  0
 19 20  1  0
 20 21  2  0
 21 22  1  0
 12 23  2  0
 23  2  1  0
 22 18  1  0
M  END
>  <Binding energies>  (12) 
[-6.15]

>  <Ligand effiencies>  (12) 
[-0.25625000000000003]

>  <Interactions>  (12) 
["V-A:HIS:456:CE1:4069, V-A:TYR:484:CE1:4345, V-B:HIS:456:CE1:9040, V-A:TYR:484:CG:4342, V-A:HIS:456:CB:4065, V-A:TYR:484:CD1:4343, V-A:HIS:456:CG:4066, V-A:TYR:484:CD2:4344, H-B:LYS:547:NZ:9923, V-B:GLU:543:C:9874, V-A:HIS:456:CD2:4068, H-B:GLU:543:O:9875, V-A:GLU:543:CG:4907, V-A:GLU:543:CB:4906, V-A:GLU:543:CD:4908, V-B:GLU:543:CB:9878, H-A:TYR:484:OH:4348, V-B:GLU:543:CD:9880, V-B:GLY:544:C:9884, H-B:HIS:456:NE2:9041, H-A:HIS:456:NE2:4070, V-B:GLU:543:CA:9876, V-B:TYR:484:CE1:9316, V-B:TYR:484:CZ:9318, V-B:GLU:543:CG:9879, V-A:ASP:473:CG:4240, V-A:ASP:473:CB:4239, V-A:TYR:484:CB:4341"]

$$$$
3ab_Grossjean_2025
     RDKit          3D

 33 35  0  0  0  0  0  0  0  0999 V2000
  126.8570  126.6380   74.3410 C   0  0  0  0  0  0  0  0  0  0  0  0
  128.0450  125.8840   74.5360 O   0  0  0  0  0  0  0  0  0  0  0  0
  129.2100  126.2490   73.9430 C   0  0  0  0  0  0  0  0  0  0  0  0
  130.2040  126.6260   74.5700 O   0  0  0  0  0  0  0  0  0  0  0  0
  129.1710  126.1470   72.4450 C   0  0  0  0  0  0  0  0  0  0  0  0
  128.7580  127.2190   71.6380 C   0  0  0  0  0  0  0  0  0  0  0  0
  128.7330  127.0960   70.2510 C   0  0  0  0  0  0  0  0  0  0  0  0
  129.1210  125.8910   69.6450 C   0  0  0  0  0  0  0  0  0  0  0  0
  129.1400  125.6570   68.2560 N   0  0  0  0  0  0  0  0  0  0  0  0
  129.3400  126.5170   67.2360 C   0  0  0  0  0  0  0  0  0  0  0  0
  129.5390  127.7270   67.3480 O   0  0  0  0  0  0  0  0  0  0  0  0
  129.3060  125.8960   65.8380 C   0  0  0  0  0  0  0  0  0  0  0  0
  130.1120  124.2670   65.7940 S   0  0  0  0  0  0  0  0  0  0  0  0
  130.7150  124.0130   64.1380 C   0  0  0  0  0  0  0  0  0  0  0  0
  129.7340  123.7800   63.2340 N   0  0  0  0  0  0  0  0  0  0  0  0
  130.0510  123.5740   61.9300 C   0  0  0  0  0  0  0  0  0  0  0  0
  128.9070  123.3250   60.9930 C   0  0  0  0  0  0  0  0  0  0  0  0
  129.1060  122.6480   59.7790 C   0  0  0  0  0  0  0  0  0  0  0  0
  128.0470  122.4140   58.9050 C   0  0  0  0  0  0  0  0  0  0  0  0
  126.7700  122.8560   59.2350 C   0  0  0  0  0  0  0  0  0  0  0  0
  126.5460  123.5330   60.4290 C   0  0  0  0  0  0  0  0  0  0  0  0
  127.6070  123.7650   61.2990 C   0  0  0  0  0  0  0  0  0  0  0  0
  131.3860  123.5790   61.5080 C   0  0  0  0  0  0  0  0  0  0  0  0
  132.4210  123.8000   62.4280 C   0  0  0  0  0  0  0  0  0  0  0  0
  133.8770  123.7920   61.9230 C   0  0  0  0  0  0  0  0  0  0  0  0
  134.5130  122.6510   62.1980 F   0  0  0  0  0  0  0  0  0  0  0  0
  133.9060  123.9560   60.6000 F   0  0  0  0  0  0  0  0  0  0  0  0
  134.5620  124.7830   62.4960 F   0  0  0  0  0  0  0  0  0  0  0  0
  132.0840  124.0160   63.7870 C   0  0  0  0  0  0  0  0  0  0  0  0
  133.1290  124.1950   64.7990 C   0  0  0  0  0  0  0  0  0  0  0  0
  133.9570  124.3350   65.5950 N   0  0  0  0  0  0  0  0  0  0  0  0
  129.5370  124.8260   70.4440 C   0  0  0  0  0  0  0  0  0  0  0  0
  129.5600  124.9510   71.8300 C   0  0  0  0  0  0  0  0  0  0  0  0
  1  2  1  0
  2  3  1  0
  3  4  2  0
  3  5  1  0
  5  6  2  0
  6  7  1  0
  7  8  2  0
  8  9  1  0
  9 10  1  0
 10 11  2  0
 10 12  1  0
 12 13  1  0
 13 14  1  0
 14 15  2  0
 15 16  1  0
 16 17  1  0
 17 18  2  0
 18 19  1  0
 19 20  2  0
 20 21  1  0
 21 22  2  0
 16 23  2  0
 23 24  1  0
 24 25  1  0
 25 26  1  0
 25 27  1  0
 25 28  1  0
 24 29  2  0
 29 30  1  0
 30 31  3  0
  8 32  1  0
 32 33  2  0
 33  5  1  0
 29 14  1  0
 22 17  1  0
M  END
>  <Binding energies>  (13) 
[-8.28]

>  <Ligand effiencies>  (13) 
[-0.24352941176470586]

>  <Interactions>  (13) 
["V-A:HIS:456:CE1:4069, V-B:HIS:456:CE1:9040, H-B:LYS:547:NZ:9923, V-B:GLU:543:C:9874, V-A:HIS:456:CD2:4068, H-A:LYS:547:NZ:4951, H-B:GLU:543:O:9875, V-B:GLU:543:CB:9878, H-A:TYR:484:OH:4348, V-A:ILE:369:CD1:3239, H-A:GLY:454:N:4050, V-B:GLU:543:CD:9880, V-A:ARG:545:CZ:4926, V-B:TYR:539:CE2:9848, V-A:GLY:454:CA:4049, V-A:GLY:453:C:4042, V-B:TYR:539:CD2:9846, V-A:ASP:366:CG:3213, V-B:GLU:543:CG:9879, V-B:TYR:539:C:9839, V-B:PRO:540:CB:9857, V-B:PRO:540:N:9856, V-B:PRO:540:CA:9855, V-A:GLY:453:CA:4044, V-B:PRO:540:C:9853, V-B:LYS:547:CE:9922, V-B:LYS:547:CD:9921"]

$$$$
3ac_Grossjean_2025
     RDKit          3D

 31 33  0  0  0  0  0  0  0  0999 V2000
  127.2610  126.7450   74.4950 C   0  0  0  0  0  0  0  0  0  0  0  0
  128.2270  125.9010   73.8770 O   0  0  0  0  0  0  0  0  0  0  0  0
  128.3700  125.9320   72.5030 C   0  0  0  0  0  0  0  0  0  0  0  0
  129.2470  125.0010   71.9470 C   0  0  0  0  0  0  0  0  0  0  0  0
  129.4520  124.9530   70.5720 C   0  0  0  0  0  0  0  0  0  0  0  0
  128.7880  125.8470   69.7300 C   0  0  0  0  0  0  0  0  0  0  0  0
  129.0440  125.7090   68.3530 N   0  0  0  0  0  0  0  0  0  0  0  0
  129.5510  126.6120   67.4860 C   0  0  0  0  0  0  0  0  0  0  0  0
  129.9310  127.7460   67.7820 O   0  0  0  0  0  0  0  0  0  0  0  0
  129.6480  126.1480   66.0330 C   0  0  0  0  0  0  0  0  0  0  0  0
  130.1280  124.3990   65.8990 S   0  0  0  0  0  0  0  0  0  0  0  0
  130.7600  124.1030   64.2590 C   0  0  0  0  0  0  0  0  0  0  0  0
  129.7870  123.8610   63.3480 N   0  0  0  0  0  0  0  0  0  0  0  0
  130.1160  123.6240   62.0520 C   0  0  0  0  0  0  0  0  0  0  0  0
  128.9800  123.3590   61.1100 C   0  0  0  0  0  0  0  0  0  0  0  0
  127.6480  123.4430   61.5490 C   0  0  0  0  0  0  0  0  0  0  0  0
  126.5890  123.2030   60.6780 C   0  0  0  0  0  0  0  0  0  0  0  0
  126.8480  122.8730   59.3510 C   0  0  0  0  0  0  0  0  0  0  0  0
  128.1570  122.7790   58.8920 C   0  0  0  0  0  0  0  0  0  0  0  0
  129.2130  123.0190   59.7660 C   0  0  0  0  0  0  0  0  0  0  0  0
  131.4530  123.6080   61.6440 C   0  0  0  0  0  0  0  0  0  0  0  0
  132.4820  123.8330   62.5710 C   0  0  0  0  0  0  0  0  0  0  0  0
  133.9420  123.8000   62.0800 C   0  0  0  0  0  0  0  0  0  0  0  0
  134.5560  122.6470   62.3550 F   0  0  0  0  0  0  0  0  0  0  0  0
  133.9880  123.9680   60.7570 F   0  0  0  0  0  0  0  0  0  0  0  0
  134.6380  124.7760   62.6640 F   0  0  0  0  0  0  0  0  0  0  0  0
  132.1340  124.0740   63.9240 C   0  0  0  0  0  0  0  0  0  0  0  0
  133.1740  124.2370   64.9410 C   0  0  0  0  0  0  0  0  0  0  0  0
  133.9970  124.3650   65.7450 N   0  0  0  0  0  0  0  0  0  0  0  0
  127.8980  126.7820   70.2800 C   0  0  0  0  0  0  0  0  0  0  0  0
  127.6950  126.8260   71.6570 C   0  0  0  0  0  0  0  0  0  0  0  0
  1  2  1  0
  2  3  1  0
  3  4  2  0
  4  5  1  0
  5  6  2  0
  6  7  1  0
  7  8  1  0
  8  9  2  0
  8 10  1  0
 10 11  1  0
 11 12  1  0
 12 13  2  0
 13 14  1  0
 14 15  1  0
 15 16  2  0
 16 17  1  0
 17 18  2  0
 18 19  1  0
 19 20  2  0
 14 21  2  0
 21 22  1  0
 22 23  1  0
 23 24  1  0
 23 25  1  0
 23 26  1  0
 22 27  2  0
 27 28  1  0
 28 29  3  0
  6 30  1  0
 30 31  2  0
 31  3  1  0
 27 12  1  0
 20 15  1  0
M  END
>  <Binding energies>  (14) 
[-7.96]

>  <Ligand effiencies>  (14) 
[-0.24875]

>  <Interactions>  (14) 
["V-A:HIS:456:CE1:4069, V-B:HIS:456:CE1:9040, H-B:LYS:547:NZ:9923, V-B:GLU:543:C:9874, V-A:HIS:456:CD2:4068, H-B:GLU:543:O:9875, V-B:GLU:543:CB:9878, V-B:ALA:541:CB:9864, H-A:TYR:484:OH:4348, V-A:ILE:369:CD1:3239, H-A:GLY:454:N:4050, V-B:GLU:543:CD:9880, V-A:ARG:545:CZ:4926, V-B:TYR:539:CE2:9848, V-A:GLY:454:CA:4049, V-A:GLY:453:C:4042, V-B:TYR:539:CD2:9846, V-A:ASP:366:CG:3213, V-B:GLY:544:C:9884, H-A:HIS:456:NE2:4070, V-B:GLU:543:CG:9879, V-B:PRO:540:CB:9857, V-B:PRO:540:N:9856, V-B:PRO:540:CA:9855, V-A:GLY:453:CA:4044, V-B:PRO:540:C:9853, V-B:LYS:547:CD:9921"]

$$$$
3af_Grossjean_2025
     RDKit          3D

 29 31  0  0  0  0  0  0  0  0999 V2000
  125.7240  129.1270   66.8940 N   0  0  0  0  0  0  0  0  0  0  0  0
  126.6020  128.4400   66.5840 C   0  0  0  0  0  0  0  0  0  0  0  0
  127.7130  127.5700   66.1890 C   0  0  0  0  0  0  0  0  0  0  0  0
  128.2920  127.6770   64.9010 C   0  0  0  0  0  0  0  0  0  0  0  0
  127.8360  128.7270   63.8680 C   0  0  0  0  0  0  0  0  0  0  0  0
  128.5380  128.6770   62.7340 F   0  0  0  0  0  0  0  0  0  0  0  0
  126.5540  128.5310   63.5570 F   0  0  0  0  0  0  0  0  0  0  0  0
  127.9780  129.9540   64.3700 F   0  0  0  0  0  0  0  0  0  0  0  0
  129.3180  126.7860   64.5500 C   0  0  0  0  0  0  0  0  0  0  0  0
  129.7510  125.8140   65.4580 C   0  0  0  0  0  0  0  0  0  0  0  0
  130.8290  124.8250   65.1290 C   0  0  0  0  0  0  0  0  0  0  0  0
  130.5230  123.4690   64.9330 C   0  0  0  0  0  0  0  0  0  0  0  0
  131.5190  122.5460   64.6240 C   0  0  0  0  0  0  0  0  0  0  0  0
  132.8380  122.9700   64.5060 C   0  0  0  0  0  0  0  0  0  0  0  0
  133.1680  124.3080   64.6920 C   0  0  0  0  0  0  0  0  0  0  0  0
  132.1690  125.2270   65.0000 C   0  0  0  0  0  0  0  0  0  0  0  0
  129.1910  125.7120   66.6900 N   0  0  0  0  0  0  0  0  0  0  0  0
  128.2150  126.5760   67.0610 C   0  0  0  0  0  0  0  0  0  0  0  0
  127.6150  126.2970   68.7140 S   0  0  0  0  0  0  0  0  0  0  0  0
  128.6840  127.2160   69.8630 C   0  0  0  0  0  0  0  0  0  0  0  0
  129.2040  126.3260   70.9910 C   0  0  0  0  0  0  0  0  0  0  0  0
  129.4440  126.8290   72.0890 O   0  0  0  0  0  0  0  0  0  0  0  0
  129.3680  125.0240   70.6730 N   0  0  0  0  0  0  0  0  0  0  0  0
  129.8300  123.9560   71.4660 C   0  0  0  0  0  0  0  0  0  0  0  0
  130.9540  123.9880   72.3120 C   0  0  0  0  0  0  0  0  0  0  0  0
  131.3010  122.8500   73.0440 C   0  0  0  0  0  0  0  0  0  0  0  0
  130.5150  121.7050   72.9110 C   0  0  0  0  0  0  0  0  0  0  0  0
  129.4270  121.6480   72.1040 N   0  0  0  0  0  0  0  0  0  0  0  0
  129.1030  122.7620   71.4000 C   0  0  0  0  0  0  0  0  0  0  0  0
  1  2  3  0
  2  3  1  0
  3  4  2  0
  4  5  1  0
  5  6  1  0
  5  7  1  0
  5  8  1  0
  4  9  1  0
  9 10  2  0
 10 11  1  0
 11 12  2  0
 12 13  1  0
 13 14  2  0
 14 15  1  0
 15 16  2  0
 10 17  1  0
 17 18  2  0
 18 19  1  0
 19 20  1  0
 20 21  1  0
 21 22  2  0
 21 23  1  0
 23 24  1  0
 24 25  2  0
 25 26  1  0
 26 27  2  0
 27 28  1  0
 28 29  2  0
 18  3  1  0
 29 24  1  0
 16 11  1  0
M  END
>  <Binding energies>  (15) 
[-7.64]

>  <Ligand effiencies>  (15) 
[-0.25466666666666665]

>  <Interactions>  (15) 
["V-A:HIS:456:CE1:4069, V-A:TYR:484:CZ:4347, V-A:TYR:484:CE1:4345, V-B:HIS:456:CE1:9040, V-A:TYR:484:CG:4342, V-A:HIS:456:CB:4065, V-A:TYR:484:CD1:4343, V-A:HIS:456:CG:4066, V-A:TYR:484:CD2:4344, H-B:LYS:547:NZ:9923, V-B:GLU:543:C:9874, V-A:HIS:456:CD2:4068, H-B:GLU:543:O:9875, V-A:GLU:543:CD:4908, V-B:GLU:543:CB:9878, V-B:GLU:543:CD:9880, V-A:LEU:475:CD1:4258, V-A:GLY:454:CA:4049, H-B:TYR:484:OH:9319, H-A:HIS:456:NE2:4070, V-A:ASP:473:CB:4239, V-A:TYR:484:CB:4341, V-B:LYS:547:CE:9922, V-B:GLY:544:CA:9886"]

$$$$
3ag_Grossjean_2025
     RDKit          3D

 30 32  0  0  0  0  0  0  0  0999 V2000
  132.8360  124.7490   61.2080 N   0  0  0  0  0  0  0  0  0  0  0  0
  132.2310  124.9950   62.1640 C   0  0  0  0  0  0  0  0  0  0  0  0
  131.4680  125.3050   63.3760 C   0  0  0  0  0  0  0  0  0  0  0  0
  132.0490  125.1470   64.6580 C   0  0  0  0  0  0  0  0  0  0  0  0
  133.5110  124.7050   64.8590 C   0  0  0  0  0  0  0  0  0  0  0  0
  134.3160  125.1120   63.8760 F   0  0  0  0  0  0  0  0  0  0  0  0
  133.9840  125.2080   66.0000 F   0  0  0  0  0  0  0  0  0  0  0  0
  133.5860  123.3740   64.9100 F   0  0  0  0  0  0  0  0  0  0  0  0
  131.2600  125.4060   65.7890 C   0  0  0  0  0  0  0  0  0  0  0  0
  129.9250  125.7990   65.6450 C   0  0  0  0  0  0  0  0  0  0  0  0
  129.0360  126.0850   66.8170 C   0  0  0  0  0  0  0  0  0  0  0  0
  127.8010  126.7270   66.6400 C   0  0  0  0  0  0  0  0  0  0  0  0
  126.9700  126.9970   67.7240 C   0  0  0  0  0  0  0  0  0  0  0  0
  127.3660  126.6260   69.0060 C   0  0  0  0  0  0  0  0  0  0  0  0
  128.5870  125.9910   69.2090 C   0  0  0  0  0  0  0  0  0  0  0  0
  129.4150  125.7240   68.1220 C   0  0  0  0  0  0  0  0  0  0  0  0
  129.3750  125.9620   64.4140 N   0  0  0  0  0  0  0  0  0  0  0  0
  130.1240  125.7360   63.3070 C   0  0  0  0  0  0  0  0  0  0  0  0
  129.2420  126.0010   61.7850 S   0  0  0  0  0  0  0  0  0  0  0  0
  127.9800  124.6990   61.6570 C   0  0  0  0  0  0  0  0  0  0  0  0
  128.5630  123.3050   61.8920 C   0  0  0  0  0  0  0  0  0  0  0  0
  128.4110  122.4240   61.0430 O   0  0  0  0  0  0  0  0  0  0  0  0
  129.2320  123.1230   63.0430 N   0  0  0  0  0  0  0  0  0  0  0  0
  129.8970  121.8870   63.4530 C   0  0  0  0  0  0  0  0  0  0  0  0
  130.7210  121.2290   62.3510 C   0  0  0  0  0  0  0  0  0  0  0  0
  131.9910  121.7250   62.0440 C   0  0  0  0  0  0  0  0  0  0  0  0
  132.7580  121.1080   61.0590 C   0  0  0  0  0  0  0  0  0  0  0  0
  132.2570  119.9930   60.3910 C   0  0  0  0  0  0  0  0  0  0  0  0
  130.9980  119.4840   60.7030 C   0  0  0  0  0  0  0  0  0  0  0  0
  130.2310  120.1000   61.6880 C   0  0  0  0  0  0  0  0  0  0  0  0
  1  2  3  0
  2  3  1  0
  3  4  2  0
  4  5  1  0
  5  6  1  0
  5  7  1  0
  5  8  1  0
  4  9  1  0
  9 10  2  0
 10 11  1  0
 11 12  2  0
 12 13  1  0
 13 14  2  0
 14 15  1  0
 15 16  2  0
 10 17  1  0
 17 18  2  0
 18 19  1  0
 19 20  1  0
 20 21  1  0
 21 22  2  0
 21 23  1  0
 23 24  1  0
 24 25  1  0
 25 26  2  0
 26 27  1  0
 27 28  2  0
 28 29  1  0
 29 30  2  0
 18  3  1  0
 30 25  1  0
 16 11  1  0
M  END
>  <Binding energies>  (16) 
[-6.69]

>  <Ligand effiencies>  (16) 
[-0.21580645161290324]

>  <Interactions>  (16) 
["V-A:HIS:456:CE1:4069, V-A:TYR:484:CZ:4347, V-B:HIS:456:CE1:9040, V-B:GLU:543:C:9874, V-B:GLU:543:CB:9878, V-B:ALA:541:CB:9864, V-B:GLU:543:CD:9880, V-A:ARG:545:CZ:4926, V-A:LEU:475:CD1:4258, V-B:TYR:539:CE2:9848, V-A:GLY:454:CA:4049, V-A:TRP:381:CH2:3372, V-A:GLY:453:C:4042, V-B:TYR:539:CD2:9846, V-B:GLY:544:C:9884, V-B:GLU:543:CG:9879, V-A:GLY:453:CA:4044, H-B:ALA:541:N:9863, V-B:ARG:545:CG:9894, V-A:PRO:482:CB:4326, V-A:TRP:381:CZ2:3370, V-A:ARG:545:CG:4922, V-A:PRO:482:CG:4327, V-A:ARG:545:CD:4923, V-A:GLY:454:C:4047"]

$$$$
3bc_Grossjean_2025
     RDKit          3D

 28 30  0  0  0  0  0  0  0  0999 V2000
  126.9040  126.7680   74.1660 C   0  0  0  0  0  0  0  0  0  0  0  0
  127.9870  126.0120   73.6350 O   0  0  0  0  0  0  0  0  0  0  0  0
  128.2360  126.0560   72.2760 C   0  0  0  0  0  0  0  0  0  0  0  0
  129.1330  125.1110   71.7780 C   0  0  0  0  0  0  0  0  0  0  0  0
  129.4480  125.0770   70.4220 C   0  0  0  0  0  0  0  0  0  0  0  0
  128.8710  125.9970   69.5440 C   0  0  0  0  0  0  0  0  0  0  0  0
  129.2390  125.8770   68.1900 N   0  0  0  0  0  0  0  0  0  0  0  0
  128.5590  126.2510   67.0860 C   0  0  0  0  0  0  0  0  0  0  0  0
  127.4660  126.8210   67.0950 O   0  0  0  0  0  0  0  0  0  0  0  0
  129.2720  125.9500   65.7600 C   0  0  0  0  0  0  0  0  0  0  0  0
  130.5570  124.6580   65.8470 S   0  0  0  0  0  0  0  0  0  0  0  0
  131.0790  124.2980   64.1840 C   0  0  0  0  0  0  0  0  0  0  0  0
  130.0540  124.0330   63.3370 N   0  0  0  0  0  0  0  0  0  0  0  0
  130.3110  123.7440   62.0340 C   0  0  0  0  0  0  0  0  0  0  0  0
  129.1250  123.4420   61.1680 C   0  0  0  0  0  0  0  0  0  0  0  0
  127.9460  124.1950   61.2790 C   0  0  0  0  0  0  0  0  0  0  0  0
  126.8410  123.9210   60.4780 C   0  0  0  0  0  0  0  0  0  0  0  0
  126.9000  122.8840   59.5530 C   0  0  0  0  0  0  0  0  0  0  0  0
  128.0550  122.1200   59.4240 C   0  0  0  0  0  0  0  0  0  0  0  0
  129.1580  122.3970   60.2280 C   0  0  0  0  0  0  0  0  0  0  0  0
  131.6230  123.7130   61.5500 C   0  0  0  0  0  0  0  0  0  0  0  0
  132.6900  124.0070   62.4070 C   0  0  0  0  0  0  0  0  0  0  0  0
  134.1050  123.9790   61.8310 C   0  0  0  0  0  0  0  0  0  0  0  0
  132.4260  124.3190   63.7580 C   0  0  0  0  0  0  0  0  0  0  0  0
  133.5230  124.6770   64.6600 C   0  0  0  0  0  0  0  0  0  0  0  0
  134.3910  124.9590   65.3710 N   0  0  0  0  0  0  0  0  0  0  0  0
  127.9570  126.9410   70.0340 C   0  0  0  0  0  0  0  0  0  0  0  0
  127.6460  126.9720   71.3910 C   0  0  0  0  0  0  0  0  0  0  0  0
  1  2  1  0
  2  3  1  0
  3  4  2  0
  4  5  1  0
  5  6  2  0
  6  7  1  0
  7  8  1  0
  8  9  2  0
  8 10  1  0
 10 11  1  0
 11 12  1  0
 12 13  2  0
 13 14  1  0
 14 15  1  0
 15 16  2  0
 16 17  1  0
 17 18  2  0
 18 19  1  0
 19 20  2  0
 14 21  2  0
 21 22  1  0
 22 23  1  0
 22 24  2  0
 24 25  1  0
 25 26  3  0
  6 27  1  0
 27 28  2  0
 28  3  1  0
 24 12  1  0
 20 15  1  0
M  END
>  <Binding energies>  (17) 
[-7.72]

>  <Ligand effiencies>  (17) 
[-0.26620689655172414]

>  <Interactions>  (17) 
["V-A:HIS:456:CE1:4069, V-B:HIS:456:CE1:9040, H-B:LYS:547:NZ:9923, V-A:HIS:456:CD2:4068, H-B:GLU:543:O:9875, V-B:GLU:543:CB:9878, H-A:TYR:484:OH:4348, H-A:GLY:454:N:4050, V-B:GLU:543:CD:9880, V-A:ARG:545:CZ:4926, V-B:TYR:539:CE2:9848, V-B:TYR:539:CD2:9846, H-A:ARG:545:NE:4924, V-A:ASP:366:CG:3213, V-B:GLY:544:C:9884, H-A:HIS:456:ND1:4067, V-B:GLU:543:CG:9879, V-B:TYR:539:C:9839, V-B:PRO:540:CB:9857, V-B:PRO:540:N:9856, V-B:PRO:540:CA:9855, V-B:PRO:540:C:9853, V-B:LYS:547:CD:9921"]

$$$$
3bd_Grossjean_2025
     RDKit          3D

 26 28  0  0  0  0  0  0  0  0999 V2000
  133.6260  124.8160   65.3580 C   0  0  0  0  0  0  0  0  0  0  0  0
  132.1750  125.1760   65.0450 C   0  0  0  0  0  0  0  0  0  0  0  0
  131.3180  125.4600   66.1150 C   0  0  0  0  0  0  0  0  0  0  0  0
  129.9800  125.7910   65.8700 C   0  0  0  0  0  0  0  0  0  0  0  0
  129.0110  126.1100   66.9690 C   0  0  0  0  0  0  0  0  0  0  0  0
  129.3310  125.8420   68.3090 C   0  0  0  0  0  0  0  0  0  0  0  0
  128.4350  126.1340   69.3340 C   0  0  0  0  0  0  0  0  0  0  0  0
  127.2010  126.7010   69.0310 C   0  0  0  0  0  0  0  0  0  0  0  0
  126.8580  126.9740   67.7110 C   0  0  0  0  0  0  0  0  0  0  0  0
  127.7560  126.6800   66.6900 C   0  0  0  0  0  0  0  0  0  0  0  0
  129.5010  125.8540   64.6000 N   0  0  0  0  0  0  0  0  0  0  0  0
  130.3170  125.5810   63.5510 C   0  0  0  0  0  0  0  0  0  0  0  0
  129.5630  125.6870   61.9360 S   0  0  0  0  0  0  0  0  0  0  0  0
  128.1940  124.4920   61.8740 C   0  0  0  0  0  0  0  0  0  0  0  0
  128.6810  123.0790   61.5520 C   0  0  0  0  0  0  0  0  0  0  0  0
  127.8610  122.2270   61.2080 O   0  0  0  0  0  0  0  0  0  0  0  0
  130.0090  122.8720   61.6890 N   0  0  0  0  0  0  0  0  0  0  0  0
  130.7530  121.7020   61.4450 C   0  0  0  0  0  0  0  0  0  0  0  0
  132.0770  121.8890   61.0400 C   0  0  0  0  0  0  0  0  0  0  0  0
  132.8880  120.7910   60.7670 C   0  0  0  0  0  0  0  0  0  0  0  0
  132.3720  119.5040   60.8880 C   0  0  0  0  0  0  0  0  0  0  0  0
  131.0490  119.3050   61.2760 C   0  0  0  0  0  0  0  0  0  0  0  0
  130.2360  120.4010   61.5520 C   0  0  0  0  0  0  0  0  0  0  0  0
  131.6730  125.2330   63.7270 C   0  0  0  0  0  0  0  0  0  0  0  0
  132.5450  124.9420   62.5850 C   0  0  0  0  0  0  0  0  0  0  0  0
  133.2350  124.7130   61.6840 N   0  0  0  0  0  0  0  0  0  0  0  0
  1  2  1  0
  2  3  2  0
  3  4  1  0
  4  5  1  0
  5  6  2  0
  6  7  1  0
  7  8  2  0
  8  9  1  0
  9 10  2  0
  4 11  2  0
 11 12  1  0
 12 13  1  0
 13 14  1  0
 14 15  1  0
 15 16  2  0
 15 17  1  0
 17 18  1  0
 18 19  2  0
 19 20  1  0
 20 21  2  0
 21 22  1  0
 22 23  2  0
 12 24  2  0
 24 25  1  0
 25 26  3  0
 24  2  1  0
 10  5  1  0
 23 18  1  0
M  END
>  <Binding energies>  (18) 
[-7.24]

>  <Ligand effiencies>  (18) 
[-0.26814814814814814]

>  <Interactions>  (18) 
["V-A:HIS:456:CE1:4069, V-B:HIS:456:CE1:9040, V-B:GLU:543:C:9874, V-B:GLU:543:CB:9878, V-B:ALA:541:CB:9864, V-A:ILE:369:CD1:3239, V-B:GLU:543:CD:9880, V-A:ARG:545:CZ:4926, V-A:LEU:475:CD1:4258, V-A:TRP:381:CH2:3372, H-A:ARG:545:NH2:4928, V-B:GLY:544:C:9884, V-A:ILE:369:CG2:3237, V-B:GLU:543:CG:9879, H-B:ALA:541:N:9863, V-B:ARG:545:CG:9894, V-A:PRO:482:CB:4326, V-A:TRP:381:CZ2:3370, V-A:PRO:482:CG:4327"]

$$$$
3be_Grossjean_2025
     RDKit          3D

 27 29  0  0  0  0  0  0  0  0999 V2000
  133.8490  120.6090   61.3500 C   0  0  0  0  0  0  0  0  0  0  0  0
  132.3390  120.6330   61.2160 C   0  0  0  0  0  0  0  0  0  0  0  0
  131.6090  119.4720   60.9530 C   0  0  0  0  0  0  0  0  0  0  0  0
  130.2220  119.5700   60.8400 C   0  0  0  0  0  0  0  0  0  0  0  0
  129.6040  120.8140   60.9920 C   0  0  0  0  0  0  0  0  0  0  0  0
  130.3950  121.9380   61.2580 C   0  0  0  0  0  0  0  0  0  0  0  0
  129.7140  123.1620   61.3890 N   0  0  0  0  0  0  0  0  0  0  0  0
  128.3870  123.3840   61.5050 C   0  0  0  0  0  0  0  0  0  0  0  0
  127.5270  122.5010   61.5060 O   0  0  0  0  0  0  0  0  0  0  0  0
  127.9910  124.8630   61.6420 C   0  0  0  0  0  0  0  0  0  0  0  0
  129.3880  126.0350   61.7190 S   0  0  0  0  0  0  0  0  0  0  0  0
  130.2500  125.7680   63.2530 C   0  0  0  0  0  0  0  0  0  0  0  0
  129.4910  126.0060   64.3510 N   0  0  0  0  0  0  0  0  0  0  0  0
  130.0220  125.8380   65.5910 C   0  0  0  0  0  0  0  0  0  0  0  0
  129.1210  126.1360   66.7530 C   0  0  0  0  0  0  0  0  0  0  0  0
  129.4790  125.7540   68.0550 C   0  0  0  0  0  0  0  0  0  0  0  0
  128.6460  126.0250   69.1370 C   0  0  0  0  0  0  0  0  0  0  0  0
  127.4390  126.6830   68.9300 C   0  0  0  0  0  0  0  0  0  0  0  0
  127.0590  127.0710   67.6500 C   0  0  0  0  0  0  0  0  0  0  0  0
  127.8950  126.7970   66.5700 C   0  0  0  0  0  0  0  0  0  0  0  0
  131.3480  125.4230   65.7530 C   0  0  0  0  0  0  0  0  0  0  0  0
  132.1370  125.1500   64.6310 C   0  0  0  0  0  0  0  0  0  0  0  0
  133.5740  124.6830   64.8560 C   0  0  0  0  0  0  0  0  0  0  0  0
  131.5840  125.3110   63.3420 C   0  0  0  0  0  0  0  0  0  0  0  0
  132.3750  124.9780   62.1550 C   0  0  0  0  0  0  0  0  0  0  0  0
  133.0010  124.7140   61.2180 N   0  0  0  0  0  0  0  0  0  0  0  0
  131.7530  121.8480   61.3660 N   0  0  0  0  0  0  0  0  0  0  0  0
  1  2  1  0
  2  3  2  0
  3  4  1  0
  4  5  2  0
  5  6  1  0
  6  7  1  0
  7  8  1  0
  8  9  2  0
  8 10  1  0
 10 11  1  0
 11 12  1  0
 12 13  2  0
 13 14  1  0
 14 15  1  0
 15 16  2  0
 16 17  1  0
 17 18  2  0
 18 19  1  0
 19 20  2  0
 14 21  2  0
 21 22  1  0
 22 23  1  0
 22 24  2  0
 24 25  1  0
 25 26  3  0
  6 27  2  0
 27  2  1  0
 24 12  1  0
 20 15  1  0
M  END
>  <Binding energies>  (19) 
[-7.33]

>  <Ligand effiencies>  (19) 
[-0.2617857142857143]

>  <Interactions>  (19) 
["V-A:HIS:456:CE1:4069, V-B:HIS:456:CE1:9040, V-B:GLU:543:C:9874, V-B:GLU:543:CB:9878, V-B:ALA:541:CB:9864, V-A:ILE:369:CD1:3239, V-B:GLU:543:CD:9880, V-A:ARG:545:CZ:4926, V-A:LEU:475:CD1:4258, V-A:GLY:454:CA:4049, V-A:TRP:381:CH2:3372, V-B:TYR:539:CD2:9846, V-B:GLY:544:C:9884, V-A:ILE:369:CG2:3237, V-B:GLU:543:CG:9879, H-B:ALA:541:N:9863, V-A:PRO:482:CB:4326, V-A:TRP:381:CZ2:3370, V-A:PRO:482:CG:4327"]

$$$$
3bf_Grossjean_2025
     RDKit          3D

 26 28  0  0  0  0  0  0  0  0999 V2000
  131.7020  126.2640   59.2610 C   0  0  0  0  0  0  0  0  0  0  0  0
  131.8640  125.1430   60.2840 C   0  0  0  0  0  0  0  0  0  0  0  0
  131.2640  125.3030   61.5380 C   0  0  0  0  0  0  0  0  0  0  0  0
  131.3750  124.2940   62.5000 C   0  0  0  0  0  0  0  0  0  0  0  0
  130.7380  124.3940   63.8530 C   0  0  0  0  0  0  0  0  0  0  0  0
  130.7980  125.5900   64.5860 C   0  0  0  0  0  0  0  0  0  0  0  0
  130.2090  125.6910   65.8440 C   0  0  0  0  0  0  0  0  0  0  0  0
  129.5490  124.5920   66.3860 C   0  0  0  0  0  0  0  0  0  0  0  0
  129.4760  123.3960   65.6810 C   0  0  0  0  0  0  0  0  0  0  0  0
  130.0680  123.2990   64.4240 C   0  0  0  0  0  0  0  0  0  0  0  0
  132.0630  123.1510   62.2360 N   0  0  0  0  0  0  0  0  0  0  0  0
  132.6710  122.9910   61.0340 C   0  0  0  0  0  0  0  0  0  0  0  0
  133.5270  121.4390   60.8690 S   0  0  0  0  0  0  0  0  0  0  0  0
  132.3290  120.1910   60.2900 C   0  0  0  0  0  0  0  0  0  0  0  0
  130.8660  120.4670   60.6660 C   0  0  0  0  0  0  0  0  0  0  0  0
  130.2380  119.6760   61.3720 O   0  0  0  0  0  0  0  0  0  0  0  0
  130.3720  121.6310   60.1900 N   0  0  0  0  0  0  0  0  0  0  0  0
  129.0810  122.1700   60.3420 C   0  0  0  0  0  0  0  0  0  0  0  0
  128.4020  122.5400   59.1760 C   0  0  0  0  0  0  0  0  0  0  0  0
  127.1120  123.0690   59.2590 C   0  0  0  0  0  0  0  0  0  0  0  0
  126.5300  123.2090   60.5190 C   0  0  0  0  0  0  0  0  0  0  0  0
  127.1600  122.8480   61.6660 N   0  0  0  0  0  0  0  0  0  0  0  0
  128.4140  122.3360   61.5690 C   0  0  0  0  0  0  0  0  0  0  0  0
  132.5840  123.9600   60.0100 C   0  0  0  0  0  0  0  0  0  0  0  0
  133.1780  123.7500   58.6870 C   0  0  0  0  0  0  0  0  0  0  0  0
  133.6480  123.5870   57.6410 N   0  0  0  0  0  0  0  0  0  0  0  0
  1  2  1  0
  2  3  2  0
  3  4  1  0
  4  5  1  0
  5  6  2  0
  6  7  1  0
  7  8  2  0
  8  9  1  0
  9 10  2  0
  4 11  2  0
 11 12  1  0
 12 13  1  0
 13 14  1  0
 14 15  1  0
 15 16  2  0
 15 17  1  0
 17 18  1  0
 18 19  2  0
 19 20  1  0
 20 21  2  0
 21 22  1  0
 22 23  2  0
 12 24  2  0
 24 25  1  0
 25 26  3  0
 24  2  1  0
 10  5  1  0
 23 18  1  0
M  END
>  <Binding energies>  (20) 
[-7.17]

>  <Ligand effiencies>  (20) 
[-0.26555555555555554]

>  <Interactions>  (20) 
["V-A:HIS:456:CE1:4069, V-A:TYR:484:CZ:4347, V-A:TYR:484:CE1:4345, V-B:GLU:543:CB:9878, V-B:ALA:541:CB:9864, V-B:ALA:541:CA:9862, V-B:TYR:539:CE2:9848, V-A:TRP:381:CH2:3372, V-B:TYR:539:CD2:9846, V-A:ASP:366:CG:3213, V-A:ASP:366:CB:3212, H-B:TYR:539:OH:9850, V-A:ILE:369:CG2:3237, V-B:TYR:539:CZ:9849, V-B:GLU:543:CA:9876, V-B:GLU:543:CG:9879, V-B:TYR:539:C:9839, V-B:PRO:540:CB:9857, V-B:PRO:540:N:9856, V-B:PRO:540:CA:9855, H-B:ALA:541:N:9863, V-B:PRO:540:C:9853"]

$$$$
3bg_Grossjean_2025
     RDKit          3D

 27 29  0  0  0  0  0  0  0  0999 V2000
  129.1170  124.9250   63.3840 C   0  0  0  0  0  0  0  0  0  0  0  0
  128.9710  123.7670   62.3990 C   0  0  0  0  0  0  0  0  0  0  0  0
  128.2140  123.9750   61.2420 C   0  0  0  0  0  0  0  0  0  0  0  0
  128.0600  122.9420   60.3080 C   0  0  0  0  0  0  0  0  0  0  0  0
  127.2690  123.1020   59.0390 C   0  0  0  0  0  0  0  0  0  0  0  0
  127.6010  122.3780   57.8820 C   0  0  0  0  0  0  0  0  0  0  0  0
  126.8600  122.5100   56.7120 C   0  0  0  0  0  0  0  0  0  0  0  0
  125.7710  123.3750   56.6770 C   0  0  0  0  0  0  0  0  0  0  0  0
  125.4270  124.1140   57.8030 C   0  0  0  0  0  0  0  0  0  0  0  0
  126.1720  123.9790   58.9710 C   0  0  0  0  0  0  0  0  0  0  0  0
  128.6590  121.7370   60.5070 N   0  0  0  0  0  0  0  0  0  0  0  0
  129.4010  121.5200   61.6230 C   0  0  0  0  0  0  0  0  0  0  0  0
  130.1610  119.9080   61.7460 S   0  0  0  0  0  0  0  0  0  0  0  0
  131.4850  119.8050   60.4970 C   0  0  0  0  0  0  0  0  0  0  0  0
  132.3830  121.0450   60.5140 C   0  0  0  0  0  0  0  0  0  0  0  0
  133.5910  120.9250   60.7170 O   0  0  0  0  0  0  0  0  0  0  0  0
  131.7730  122.2280   60.3230 N   0  0  0  0  0  0  0  0  0  0  0  0
  132.3990  123.5410   60.4790 C   0  0  0  0  0  0  0  0  0  0  0  0
  132.2920  124.3740   59.2070 C   0  0  0  0  0  0  0  0  0  0  0  0
  133.3340  124.3650   58.2740 C   0  0  0  0  0  0  0  0  0  0  0  0
  133.2410  125.1330   57.1180 C   0  0  0  0  0  0  0  0  0  0  0  0
  132.0990  125.8990   56.8890 C   0  0  0  0  0  0  0  0  0  0  0  0
  131.0480  125.8980   57.8030 C   0  0  0  0  0  0  0  0  0  0  0  0
  131.1420  125.1290   58.9610 C   0  0  0  0  0  0  0  0  0  0  0  0
  129.5800  122.5120   62.6090 C   0  0  0  0  0  0  0  0  0  0  0  0
  130.3860  122.2670   63.8080 C   0  0  0  0  0  0  0  0  0  0  0  0
  131.0220  122.0750   64.7550 N   0  0  0  0  0  0  0  0  0  0  0  0
  1  2  1  0
  2  3  2  0
  3  4  1  0
  4  5  1  0
  5  6  2  0
  6  7  1  0
  7  8  2  0
  8  9  1  0
  9 10  2  0
  4 11  2  0
 11 12  1  0
 12 13  1  0
 13 14  1  0
 14 15  1  0
 15 16  2  0
 15 17  1  0
 17 18  1  0
 18 19  1  0
 19 20  2  0
 20 21  1  0
 21 22  2  0
 22 23  1  0
 23 24  2  0
 12 25  2  0
 25 26  1  0
 26 27  3  0
 25  2  1  0
 10  5  1  0
 24 19  1  0
M  END
>  <Binding energies>  (21) 
[-7.03]

>  <Ligand effiencies>  (21) 
[-0.25107142857142856]

>  <Interactions>  (21) 
["V-B:ALA:541:CB:9864, H-A:TYR:484:OH:4348, V-B:GLU:543:CD:9880, V-A:LEU:475:CD1:4258, V-B:TYR:539:CE2:9848, V-A:TRP:381:CH2:3372, V-B:TYR:539:CD2:9846, V-A:ASP:366:CG:3213, V-A:ASP:366:CB:3212, V-A:ILE:369:CG2:3237, V-A:ASP:366:CA:3210, V-A:ASP:366:C:3208, V-B:TYR:539:CZ:9849, V-B:GLU:543:CG:9879, V-B:TYR:539:C:9839, V-B:PRO:540:N:9856, V-B:PRO:540:CA:9855, H-B:ALA:541:N:9863, V-A:TRP:381:CZ2:3370, V-B:PRO:540:CD:9859, V-B:TYR:539:CG:9844"]

$$$$
3ca_Grossjean_2025
     RDKit          3D

 31 33  0  0  0  0  0  0  0  0999 V2000
  125.9630  126.9620   74.0470 C   0  0  0  0  0  0  0  0  0  0  0  0
  127.1090  127.0150   75.0610 C   0  0  0  0  0  0  0  0  0  0  0  0
  128.0650  126.0090   74.7490 O   0  0  0  0  0  0  0  0  0  0  0  0
  129.2260  126.3170   74.1190 C   0  0  0  0  0  0  0  0  0  0  0  0
  130.2430  126.6930   74.7110 O   0  0  0  0  0  0  0  0  0  0  0  0
  129.1560  126.1480   72.6280 C   0  0  0  0  0  0  0  0  0  0  0  0
  128.6280  127.1830   71.8460 C   0  0  0  0  0  0  0  0  0  0  0  0
  128.5490  127.0570   70.4620 C   0  0  0  0  0  0  0  0  0  0  0  0
  128.9890  125.8920   69.8320 C   0  0  0  0  0  0  0  0  0  0  0  0
  128.8660  125.8690   68.4300 N   0  0  0  0  0  0  0  0  0  0  0  0
  129.3690  126.7170   67.5060 C   0  0  0  0  0  0  0  0  0  0  0  0
  130.0750  127.6950   67.7470 O   0  0  0  0  0  0  0  0  0  0  0  0
  129.0240  126.3800   66.0520 C   0  0  0  0  0  0  0  0  0  0  0  0
  129.4990  124.6850   65.5750 S   0  0  0  0  0  0  0  0  0  0  0  0
  131.1140  124.7010   64.8080 C   0  0  0  0  0  0  0  0  0  0  0  0
  132.1580  124.9480   65.6390 N   0  0  0  0  0  0  0  0  0  0  0  0
  133.4090  124.9540   65.1310 C   0  0  0  0  0  0  0  0  0  0  0  0
  134.5220  125.2190   66.1260 C   0  0  0  0  0  0  0  0  0  0  0  0
  133.6710  124.7330   63.7810 C   0  0  0  0  0  0  0  0  0  0  0  0
  132.6100  124.4940   62.8990 C   0  0  0  0  0  0  0  0  0  0  0  0
  132.9380  124.2750   61.4580 C   0  0  0  0  0  0  0  0  0  0  0  0
  133.9920  123.4270   61.0980 C   0  0  0  0  0  0  0  0  0  0  0  0
  134.3120  123.2240   59.7580 C   0  0  0  0  0  0  0  0  0  0  0  0
  133.5780  123.8740   58.7700 C   0  0  0  0  0  0  0  0  0  0  0  0
  132.5300  124.7270   59.1100 C   0  0  0  0  0  0  0  0  0  0  0  0
  132.2150  124.9270   60.4520 C   0  0  0  0  0  0  0  0  0  0  0  0
  131.2920  124.4670   63.4230 C   0  0  0  0  0  0  0  0  0  0  0  0
  130.1450  124.1710   62.5580 C   0  0  0  0  0  0  0  0  0  0  0  0
  129.2410  123.9370   61.8740 N   0  0  0  0  0  0  0  0  0  0  0  0
  129.5280  124.8530   70.6060 C   0  0  0  0  0  0  0  0  0  0  0  0
  129.6070  124.9820   71.9910 C   0  0  0  0  0  0  0  0  0  0  0  0
  1  2  1  0
  2  3  1  0
  3  4  1  0
  4  5  2  0
  4  6  1  0
  6  7  2  0
  7  8  1  0
  8  9  2  0
  9 10  1  0
 10 11  1  0
 11 12  2  0
 11 13  1  0
 13 14  1  0
 14 15  1  0
 15 16  2  0
 16 17  1  0
 17 18  1  0
 17 19  2  0
 19 20  1  0
 20 21  1  0
 21 22  2  0
 22 23  1  0
 23 24  2  0
 24 25  1  0
 25 26  2  0
 20 27  2  0
 27 28  1  0
 28 29  3  0
  9 30  1  0
 30 31  2  0
 31  6  1  0
 27 15  1  0
 26 21  1  0
M  END
>  <Binding energies>  (22) 
[-8.34]

>  <Ligand effiencies>  (22) 
[-0.260625]

>  <Interactions>  (22) 
["V-A:HIS:456:CE1:4069, V-B:HIS:456:CE1:9040, H-B:LYS:547:NZ:9923, V-B:GLU:543:C:9874, V-A:HIS:456:CD2:4068, H-A:LYS:547:NZ:4951, H-B:GLU:543:O:9875, V-B:GLU:543:CB:9878, H-A:TYR:484:OH:4348, V-A:ILE:369:CD1:3239, V-A:ARG:545:CZ:4926, V-B:TYR:539:CE2:9848, V-A:GLY:453:C:4042, V-A:ASP:366:CG:3213, V-A:ASP:366:CB:3212, V-A:ILE:369:CB:3236, V-A:ILE:369:CG2:3237, V-A:ASP:366:CA:3210, H-A:HIS:456:NE2:4070, V-A:GLY:453:CA:4044, V-A:ARG:545:CG:4922, V-A:ARG:545:CD:4923, V-A:ILE:369:CG1:3238, V-B:LYS:547:CD:9921"]

$$$$
3ce_Grossjean_2025
     RDKit          3D

 27 29  0  0  0  0  0  0  0  0999 V2000
  133.5280  120.5760   61.0540 C   0  0  0  0  0  0  0  0  0  0  0  0
  132.0130  120.5880   60.9930 C   0  0  0  0  0  0  0  0  0  0  0  0
  131.2750  119.4040   60.9200 C   0  0  0  0  0  0  0  0  0  0  0  0
  129.8840  119.4910   60.8780 C   0  0  0  0  0  0  0  0  0  0  0  0
  129.2690  120.7450   60.9080 C   0  0  0  0  0  0  0  0  0  0  0  0
  130.0680  121.8920   60.9710 C   0  0  0  0  0  0  0  0  0  0  0  0
  129.3960  123.1250   61.0180 N   0  0  0  0  0  0  0  0  0  0  0  0
  128.0650  123.3540   60.9540 C   0  0  0  0  0  0  0  0  0  0  0  0
  127.2020  122.4810   60.8470 O   0  0  0  0  0  0  0  0  0  0  0  0
  127.6400  124.8200   61.0340 C   0  0  0  0  0  0  0  0  0  0  0  0
  128.9830  125.8840   61.6400 S   0  0  0  0  0  0  0  0  0  0  0  0
  129.3220  125.3370   63.2970 C   0  0  0  0  0  0  0  0  0  0  0  0
  129.7620  124.0580   63.3760 N   0  0  0  0  0  0  0  0  0  0  0  0
  130.0650  123.5520   64.5940 C   0  0  0  0  0  0  0  0  0  0  0  0
  130.5650  122.1200   64.6080 C   0  0  0  0  0  0  0  0  0  0  0  0
  129.9280  124.2890   65.7670 C   0  0  0  0  0  0  0  0  0  0  0  0
  129.4490  125.6040   65.7090 C   0  0  0  0  0  0  0  0  0  0  0  0
  129.2950  126.3460   66.9960 C   0  0  0  0  0  0  0  0  0  0  0  0
  129.9530  127.5670   67.1870 C   0  0  0  0  0  0  0  0  0  0  0  0
  129.8200  128.2610   68.3870 C   0  0  0  0  0  0  0  0  0  0  0  0
  129.0320  127.7330   69.4050 C   0  0  0  0  0  0  0  0  0  0  0  0
  128.3790  126.5150   69.2350 C   0  0  0  0  0  0  0  0  0  0  0  0
  128.5130  125.8240   68.0340 C   0  0  0  0  0  0  0  0  0  0  0  0
  129.1390  126.1530   64.4390 C   0  0  0  0  0  0  0  0  0  0  0  0
  128.6480  127.5290   64.3140 C   0  0  0  0  0  0  0  0  0  0  0  0
  128.2610  128.6150   64.2170 N   0  0  0  0  0  0  0  0  0  0  0  0
  131.4310  121.8140   61.0200 N   0  0  0  0  0  0  0  0  0  0  0  0
  1  2  1  0
  2  3  2  0
  3  4  1  0
  4  5  2  0
  5  6  1  0
  6  7  1  0
  7  8  1  0
  8  9  2  0
  8 10  1  0
 10 11  1  0
 11 12  1  0
 12 13  2  0
 13 14  1  0
 14 15  1  0
 14 16  2  0
 16 17  1  0
 17 18  1  0
 18 19  2  0
 19 20  1  0
 20 21  2  0
 21 22  1  0
 22 23  2  0
 17 24  2  0
 24 25  1  0
 25 26  3  0
  6 27  2  0
 27  2  1  0
 24 12  1  0
 23 18  1  0
M  END
>  <Binding energies>  (23) 
[-7.36]

>  <Ligand effiencies>  (23) 
[-0.26285714285714284]

>  <Interactions>  (23) 
["V-A:HIS:456:CE1:4069, V-A:TYR:484:CZ:4347, V-A:TYR:484:CE1:4345, V-B:HIS:456:CE1:9040, V-B:GLU:543:C:9874, V-A:GLU:543:CG:4907, V-A:GLU:543:CB:4906, V-A:GLU:543:CD:4908, V-B:GLU:543:CB:9878, V-B:ALA:541:CB:9864, V-A:ILE:369:CD1:3239, V-B:GLU:543:CD:9880, V-B:ALA:541:CA:9862, V-A:LEU:475:CD1:4258, V-B:TYR:539:CE2:9848, V-A:TRP:381:CH2:3372, V-B:TYR:539:CD2:9846, V-A:ILE:369:CG2:3237, V-B:GLU:543:CA:9876, V-B:GLU:543:CG:9879, H-B:ALA:541:N:9863, V-A:PRO:482:CB:4326, V-A:TRP:381:CZ2:3370, V-A:PRO:482:CG:4327, V-A:GLU:543:C:4902, V-A:LEU:475:CD2:4259"]

$$$$
3cj_Grossjean_2025
     RDKit          3D

 25 27  0  0  0  0  0  0  0  0999 V2000
  126.4870  129.3800   65.3920 C   0  0  0  0  0  0  0  0  0  0  0  0
  127.2770  128.2620   66.0430 C   0  0  0  0  0  0  0  0  0  0  0  0
  128.3520  127.6570   65.3950 C   0  0  0  0  0  0  0  0  0  0  0  0
  129.0690  126.6420   66.0430 C   0  0  0  0  0  0  0  0  0  0  0  0
  130.2530  126.0680   65.3380 C   0  0  0  0  0  0  0  0  0  0  0  0
  131.4380  125.8050   66.0360 C   0  0  0  0  0  0  0  0  0  0  0  0
  132.5460  125.2820   65.3750 C   0  0  0  0  0  0  0  0  0  0  0  0
  132.4740  125.0260   64.0090 C   0  0  0  0  0  0  0  0  0  0  0  0
  131.3060  125.2920   63.2990 C   0  0  0  0  0  0  0  0  0  0  0  0
  130.1990  125.8140   63.9620 C   0  0  0  0  0  0  0  0  0  0  0  0
  128.6500  126.2390   67.3350 C   0  0  0  0  0  0  0  0  0  0  0  0
  129.3410  125.1630   68.0520 C   0  0  0  0  0  0  0  0  0  0  0  0
  129.8890  124.3150   68.6180 N   0  0  0  0  0  0  0  0  0  0  0  0
  127.5510  126.9110   67.9180 C   0  0  0  0  0  0  0  0  0  0  0  0
  127.0070  126.5970   69.5840 S   0  0  0  0  0  0  0  0  0  0  0  0
  128.4310  127.0360   70.6310 C   0  0  0  0  0  0  0  0  0  0  0  0
  128.7490  125.9380   71.6510 C   0  0  0  0  0  0  0  0  0  0  0  0
  128.0470  125.8230   72.6580 O   0  0  0  0  0  0  0  0  0  0  0  0
  129.7870  125.1350   71.3330 N   0  0  0  0  0  0  0  0  0  0  0  0
  130.1910  123.9970   72.0110 C   0  0  0  0  0  0  0  0  0  0  0  0
  129.8200  122.7530   71.7950 N   0  0  0  0  0  0  0  0  0  0  0  0
  130.4300  121.9190   72.6130 C   0  0  0  0  0  0  0  0  0  0  0  0
  131.3200  122.4850   73.5210 C   0  0  0  0  0  0  0  0  0  0  0  0
  131.3520  124.2070   73.2830 S   0  0  0  0  0  0  0  0  0  0  0  0
  126.8850  127.9100   67.2870 N   0  0  0  0  0  0  0  0  0  0  0  0
  1  2  1  0
  2  3  2  0
  3  4  1  0
  4  5  1  0
  5  6  2  0
  6  7  1  0
  7  8  2  0
  8  9  1  0
  9 10  2  0
  4 11  2  0
 11 12  1  0
 12 13  3  0
 11 14  1  0
 14 15  1  0
 15 16  1  0
 16 17  1  0
 17 18  2  0
 17 19  1  0
 19 20  1  0
 20 21  2  0
 21 22  1  0
 22 23  2  0
 23 24  1  0
 14 25  2  0
 25  2  1  0
 10  5  1  0
 24 20  1  0
M  END
>  <Binding energies>  (24) 
[-6.88]

>  <Ligand effiencies>  (24) 
[-0.2646153846153846]

>  <Interactions>  (24) 
["V-A:HIS:456:CE1:4069, V-A:TYR:484:CZ:4347, V-A:TYR:484:CE1:4345, V-B:HIS:456:CE1:9040, V-A:TYR:484:CG:4342, V-A:HIS:456:CB:4065, V-A:TYR:484:CD1:4343, V-A:HIS:456:CG:4066, V-A:TYR:484:CD2:4344, H-B:LYS:547:NZ:9923, V-B:GLU:543:C:9874, V-A:HIS:456:CD2:4068, H-B:GLU:543:O:9875, V-A:GLU:543:CD:4908, V-B:GLU:543:CB:9878, H-A:TYR:484:OH:4348, V-B:GLU:543:CD:9880, V-A:ARG:545:CZ:4926, H-A:HIS:456:ND1:4067, H-A:HIS:456:NE2:4070, V-A:ASP:473:CG:4240, V-A:ASP:473:CB:4239, V-A:TYR:484:CB:4341, H-B:ARG:545:N:9892"]

$$$$
4ba_Grossjean_2025
     RDKit          3D

 28 30  0  0  0  0  0  0  0  0999 V2000
  125.5220  127.0850   73.9510 C   0  0  0  0  0  0  0  0  0  0  0  0
  126.5830  127.3740   72.8720 C   0  0  0  0  0  0  0  0  0  0  0  0
  127.7520  126.3690   72.8180 C   0  0  0  0  0  0  0  0  0  0  0  0
  128.1560  125.8520   73.8610 O   0  0  0  0  0  0  0  0  0  0  0  0
  128.3450  126.0620   71.4740 C   0  0  0  0  0  0  0  0  0  0  0  0
  129.2870  125.0310   71.3580 C   0  0  0  0  0  0  0  0  0  0  0  0
  129.8550  124.7260   70.1240 C   0  0  0  0  0  0  0  0  0  0  0  0
  129.4910  125.4400   68.9820 C   0  0  0  0  0  0  0  0  0  0  0  0
  130.1320  125.0540   67.7890 N   0  0  0  0  0  0  0  0  0  0  0  0
  129.7380  125.2000   66.5000 C   0  0  0  0  0  0  0  0  0  0  0  0
  128.6620  125.6910   66.1570 O   0  0  0  0  0  0  0  0  0  0  0  0
  130.6830  124.7020   65.4980 C   0  0  0  0  0  0  0  0  0  0  0  0
  132.3220  125.3450   65.4270 S   0  0  0  0  0  0  0  0  0  0  0  0
  132.7060  124.3410   64.0490 C   0  0  0  0  0  0  0  0  0  0  0  0
  133.9100  124.3770   63.4790 N   0  0  0  0  0  0  0  0  0  0  0  0
  134.0890  123.5570   62.4190 C   0  0  0  0  0  0  0  0  0  0  0  0
  135.4640  123.6200   61.7780 C   0  0  0  0  0  0  0  0  0  0  0  0
  133.1050  122.7050   61.9240 C   0  0  0  0  0  0  0  0  0  0  0  0
  131.8350  122.6620   62.5210 C   0  0  0  0  0  0  0  0  0  0  0  0
  130.7860  121.7080   61.9420 C   0  0  0  0  0  0  0  0  0  0  0  0
  131.2620  120.9440   60.9570 F   0  0  0  0  0  0  0  0  0  0  0  0
  130.3380  120.8930   62.8980 F   0  0  0  0  0  0  0  0  0  0  0  0
  129.7640  122.4080   61.4470 F   0  0  0  0  0  0  0  0  0  0  0  0
  131.6110  123.5210   63.6380 C   0  0  0  0  0  0  0  0  0  0  0  0
  130.4640  123.7570   64.4810 C   0  0  0  0  0  0  0  0  0  0  0  0
  129.2680  123.1100   64.3000 N   0  0  0  0  0  0  0  0  0  0  0  0
  128.5530  126.4770   69.0900 C   0  0  0  0  0  0  0  0  0  0  0  0
  127.9860  126.7820   70.3250 C   0  0  0  0  0  0  0  0  0  0  0  0
  1  2  1  0
  2  3  1  0
  3  4  2  0
  3  5  1  0
  5  6  2  0
  6  7  1  0
  7  8  2  0
  8  9  1  0
  9 10  1  0
 10 11  2  0
 10 12  1  0
 12 13  1  0
 13 14  1  0
 14 15  2  0
 15 16  1  0
 16 17  1  0
 16 18  2  0
 18 19  1  0
 19 20  1  0
 20 21  1  0
 20 22  1  0
 20 23  1  0
 19 24  2  0
 24 25  1  0
 25 26  1  0
  8 27  1  0
 27 28  2  0
 28  5  1  0
 25 12  2  0
 24 14  1  0
M  END
>  <Binding energies>  (25) 
[-7.44]

>  <Ligand effiencies>  (25) 
[-0.24000000000000002]

>  <Interactions>  (25) 
["V-A:HIS:456:CE1:4069, V-A:TYR:484:CZ:4347, V-A:TYR:484:CE1:4345, V-B:HIS:456:CE1:9040, V-A:HIS:456:CG:4066, H-B:LYS:547:NZ:9923, V-B:GLU:543:C:9874, V-A:HIS:456:CD2:4068, V-B:HIS:456:CD2:9039, V-B:HIS:456:CB:9036, V-B:HIS:456:CG:9037, V-B:GLU:543:CB:9878, V-B:ALA:541:CB:9864, H-A:TYR:484:OH:4348, V-A:ILE:369:CD1:3239, H-A:GLY:454:N:4050, V-A:LEU:475:CD1:4258, V-B:TYR:539:CE2:9848, V-A:GLY:454:CA:4049, V-A:GLY:453:C:4042, V-B:TYR:539:CD2:9846, V-B:GLY:544:C:9884, H-A:HIS:456:ND1:4067, V-B:GLU:543:CA:9876, V-B:GLU:543:CG:9879, V-A:GLY:453:CA:4044, H-B:GLU:543:OE2:9882, V-B:LYS:547:CD:9921"]

$$$$
4bb_Grossjean_2025
     RDKit          3D

 27 29  0  0  0  0  0  0  0  0999 V2000
  128.3530  128.2630   73.3040 C   0  0  0  0  0  0  0  0  0  0  0  0
  128.5130  126.7630   73.0500 C   0  0  0  0  0  0  0  0  0  0  0  0
  128.3710  125.9940   74.0030 O   0  0  0  0  0  0  0  0  0  0  0  0
  128.8430  126.3090   71.6600 C   0  0  0  0  0  0  0  0  0  0  0  0
  129.5350  125.1050   71.4750 C   0  0  0  0  0  0  0  0  0  0  0  0
  129.8550  124.6620   70.1960 C   0  0  0  0  0  0  0  0  0  0  0  0
  129.4830  125.4080   69.0760 C   0  0  0  0  0  0  0  0  0  0  0  0
  129.8590  124.8680   67.8290 N   0  0  0  0  0  0  0  0  0  0  0  0
  129.3790  125.1260   66.5880 C   0  0  0  0  0  0  0  0  0  0  0  0
  128.4580  125.9070   66.3510 O   0  0  0  0  0  0  0  0  0  0  0  0
  130.0190  124.3760   65.5040 C   0  0  0  0  0  0  0  0  0  0  0  0
  129.3550  122.8290   64.9830 S   0  0  0  0  0  0  0  0  0  0  0  0
  130.6280  122.6260   63.8020 C   0  0  0  0  0  0  0  0  0  0  0  0
  130.6810  121.5540   63.0150 N   0  0  0  0  0  0  0  0  0  0  0  0
  131.7140  121.5090   62.1410 C   0  0  0  0  0  0  0  0  0  0  0  0
  131.7540  120.2790   61.2520 C   0  0  0  0  0  0  0  0  0  0  0  0
  132.6850  122.5010   62.0390 C   0  0  0  0  0  0  0  0  0  0  0  0
  132.6340  123.6330   62.8660 C   0  0  0  0  0  0  0  0  0  0  0  0
  133.7250  124.6990   62.7160 C   0  0  0  0  0  0  0  0  0  0  0  0
  134.2310  125.0950   63.8860 F   0  0  0  0  0  0  0  0  0  0  0  0
  134.7320  124.2130   61.9890 F   0  0  0  0  0  0  0  0  0  0  0  0
  133.2250  125.7760   62.1120 F   0  0  0  0  0  0  0  0  0  0  0  0
  131.5570  123.7120   63.7990 C   0  0  0  0  0  0  0  0  0  0  0  0
  131.1840  124.6950   64.7870 C   0  0  0  0  0  0  0  0  0  0  0  0
  131.9050  125.8420   64.9980 N   0  0  0  0  0  0  0  0  0  0  0  0
  128.7960  126.6180   69.2530 C   0  0  0  0  0  0  0  0  0  0  0  0
  128.4790  127.0610   70.5340 C   0  0  0  0  0  0  0  0  0  0  0  0
  1  2  1  0
  2  3  2  0
  2  4  1  0
  4  5  2  0
  5  6  1  0
  6  7  2  0
  7  8  1  0
  8  9  1  0
  9 10  2  0
  9 11  1  0
 11 12  1  0
 12 13  1  0
 13 14  2  0
 14 15  1  0
 15 16  1  0
 15 17  2  0
 17 18  1  0
 18 19  1  0
 19 20  1  0
 19 21  1  0
 19 22  1  0
 18 23  2  0
 23 24  1  0
 24 25  1  0
  7 26  1  0
 26 27  2  0
 27  4  1  0
 24 11  2  0
 23 13  1  0
M  END
>  <Binding energies>  (26) 
[-7.31]

>  <Ligand effiencies>  (26) 
[-0.24366666666666664]

>  <Interactions>  (26) 
["V-A:HIS:456:CE1:4069, V-A:TYR:484:CZ:4347, V-A:TYR:484:CE1:4345, V-B:HIS:456:CE1:9040, V-A:HIS:456:CG:4066, H-B:LYS:547:NZ:9923, V-B:GLU:543:C:9874, V-A:HIS:456:CD2:4068, V-B:HIS:456:CD2:9039, V-B:HIS:456:CG:9037, H-B:GLU:543:O:9875, V-A:GLU:543:CD:4908, V-B:GLU:543:CB:9878, V-B:ALA:541:CB:9864, H-A:GLU:543:OE2:4910, H-A:TYR:484:OH:4348, V-A:ILE:369:CD1:3239, V-A:ARG:545:CZ:4926, V-A:LEU:475:CD1:4258, V-A:GLY:453:C:4042, V-A:ASP:366:CG:3213, H-A:HIS:456:ND1:4067, V-B:GLU:543:CA:9876, V-B:GLU:543:CG:9879, V-A:GLY:453:CA:4044"]

$$$$
4bd_Grossjean_2025
     RDKit          3D

 24 26  0  0  0  0  0  0  0  0999 V2000
  128.5740  126.5930   61.2580 C   0  0  0  0  0  0  0  0  0  0  0  0
  128.8440  126.2260   62.7060 C   0  0  0  0  0  0  0  0  0  0  0  0
  129.2300  124.9360   63.0600 C   0  0  0  0  0  0  0  0  0  0  0  0
  129.4740  124.6100   64.4030 C   0  0  0  0  0  0  0  0  0  0  0  0
  129.8930  123.1760   64.7450 C   0  0  0  0  0  0  0  0  0  0  0  0
  129.1960  122.6560   65.7580 F   0  0  0  0  0  0  0  0  0  0  0  0
  129.7090  122.3870   63.6870 F   0  0  0  0  0  0  0  0  0  0  0  0
  131.1790  123.1530   65.0930 F   0  0  0  0  0  0  0  0  0  0  0  0
  129.3120  125.6490   65.3670 C   0  0  0  0  0  0  0  0  0  0  0  0
  129.4700  125.6920   66.8010 C   0  0  0  0  0  0  0  0  0  0  0  0
  129.8540  124.6010   67.5350 N   0  0  0  0  0  0  0  0  0  0  0  0
  129.1950  126.9470   67.3710 C   0  0  0  0  0  0  0  0  0  0  0  0
  129.2390  127.3370   68.7840 C   0  0  0  0  0  0  0  0  0  0  0  0
  129.8150  128.3680   69.1330 O   0  0  0  0  0  0  0  0  0  0  0  0
  128.6000  126.4990   69.6380 N   0  0  0  0  0  0  0  0  0  0  0  0
  128.4920  126.5620   71.0390 C   0  0  0  0  0  0  0  0  0  0  0  0
  129.4820  125.8900   71.7610 C   0  0  0  0  0  0  0  0  0  0  0  0
  129.4680  125.9030   73.1530 C   0  0  0  0  0  0  0  0  0  0  0  0
  128.4660  126.5960   73.8270 C   0  0  0  0  0  0  0  0  0  0  0  0
  127.4810  127.2810   73.1200 C   0  0  0  0  0  0  0  0  0  0  0  0
  127.4920  127.2700   71.7270 C   0  0  0  0  0  0  0  0  0  0  0  0
  128.7370  128.1200   66.1390 S   0  0  0  0  0  0  0  0  0  0  0  0
  128.9110  126.9280   64.8730 C   0  0  0  0  0  0  0  0  0  0  0  0
  128.6810  127.2330   63.5960 N   0  0  0  0  0  0  0  0  0  0  0  0
  1  2  1  0
  2  3  2  0
  3  4  1  0
  4  5  1  0
  5  6  1  0
  5  7  1  0
  5  8  1  0
  4  9  2  0
  9 10  1  0
 10 11  1  0
 10 12  2  0
 12 13  1  0
 13 14  2  0
 13 15  1  0
 15 16  1  0
 16 17  2  0
 17 18  1  0
 18 19  2  0
 19 20  1  0
 20 21  2  0
 12 22  1  0
 22 23  1  0
 23 24  2  0
 24  2  1  0
 23  9  1  0
 21 16  1  0
M  END
>  <Binding energies>  (27) 
[-6.08]

>  <Ligand effiencies>  (27) 
[-0.22518518518518518]

>  <Interactions>  (27) 
["V-A:HIS:456:CE1:4069, V-A:TYR:484:CZ:4347, V-A:TYR:484:CE1:4345, V-B:HIS:456:CE1:9040, V-A:TYR:484:CD1:4343, V-B:GLU:543:C:9874, V-A:HIS:456:CD2:4068, V-B:HIS:456:CD2:9039, V-B:HIS:456:CG:9037, H-B:GLU:543:O:9875, V-A:GLU:543:CB:4906, V-A:GLU:543:CD:4908, V-B:GLU:543:CB:9878, V-B:ALA:541:CB:9864, H-A:TYR:484:OH:4348, V-B:GLU:543:CD:9880, V-A:LEU:475:CD1:4258, H-B:HIS:456:NE2:9041, H-A:HIS:456:ND1:4067, H-A:HIS:456:NE2:4070, V-B:GLU:543:CA:9876, V-B:GLU:543:CG:9879"]

$$$$
4be_Grossjean_2025
     RDKit          3D

 25 27  0  0  0  0  0  0  0  0999 V2000
  128.0540  119.8850   72.8580 C   0  0  0  0  0  0  0  0  0  0  0  0
  129.1110  120.9640   72.7210 C   0  0  0  0  0  0  0  0  0  0  0  0
  130.2510  120.9780   73.5290 C   0  0  0  0  0  0  0  0  0  0  0  0
  131.1800  122.0030   73.3490 C   0  0  0  0  0  0  0  0  0  0  0  0
  130.9510  122.9790   72.3770 C   0  0  0  0  0  0  0  0  0  0  0  0
  129.7910  122.9020   71.5970 C   0  0  0  0  0  0  0  0  0  0  0  0
  129.6160  123.9180   70.6400 N   0  0  0  0  0  0  0  0  0  0  0  0
  129.5560  125.2610   70.8250 C   0  0  0  0  0  0  0  0  0  0  0  0
  129.6590  125.8070   71.9260 O   0  0  0  0  0  0  0  0  0  0  0  0
  129.3330  126.0540   69.6130 C   0  0  0  0  0  0  0  0  0  0  0  0
  128.7820  127.7240   69.7370 S   0  0  0  0  0  0  0  0  0  0  0  0
  128.7450  127.8870   67.9970 C   0  0  0  0  0  0  0  0  0  0  0  0
  128.3780  129.0280   67.4140 N   0  0  0  0  0  0  0  0  0  0  0  0
  128.3910  129.0340   66.0610 C   0  0  0  0  0  0  0  0  0  0  0  0
  127.9680  130.3410   65.4160 C   0  0  0  0  0  0  0  0  0  0  0  0
  128.7600  127.9390   65.2860 C   0  0  0  0  0  0  0  0  0  0  0  0
  129.1480  126.7350   65.8930 C   0  0  0  0  0  0  0  0  0  0  0  0
  129.5490  125.5570   64.9980 C   0  0  0  0  0  0  0  0  0  0  0  0
  129.1430  124.3780   65.4750 F   0  0  0  0  0  0  0  0  0  0  0  0
  129.0080  125.7050   63.7890 F   0  0  0  0  0  0  0  0  0  0  0  0
  130.8760  125.5080   64.8840 F   0  0  0  0  0  0  0  0  0  0  0  0
  129.1410  126.6930   67.3200 C   0  0  0  0  0  0  0  0  0  0  0  0
  129.4610  125.6580   68.2730 C   0  0  0  0  0  0  0  0  0  0  0  0
  129.8630  124.4020   67.8960 N   0  0  0  0  0  0  0  0  0  0  0  0
  128.8750  121.9050   71.7710 N   0  0  0  0  0  0  0  0  0  0  0  0
  1  2  1  0
  2  3  2  0
  3  4  1  0
  4  5  2  0
  5  6  1  0
  6  7  1  0
  7  8  1  0
  8  9  2  0
  8 10  1  0
 10 11  1  0
 11 12  1  0
 12 13  2  0
 13 14  1  0
 14 15  1  0
 14 16  2  0
 16 17  1  0
 17 18  1  0
 18 19  1  0
 18 20  1  0
 18 21  1  0
 17 22  2  0
 22 23  1  0
 23 24  1  0
  6 25  2  0
 25  2  1  0
 23 10  2  0
 22 12  1  0
M  END
>  <Binding energies>  (28) 
[-7.18]

>  <Ligand effiencies>  (28) 
[-0.2564285714285714]

>  <Interactions>  (28) 
["V-A:HIS:456:CE1:4069, V-A:TYR:484:CZ:4347, V-A:TYR:484:CE1:4345, V-B:HIS:456:CE1:9040, V-A:TYR:484:CG:4342, V-A:HIS:456:CB:4065, V-A:TYR:484:CD1:4343, V-A:HIS:456:CG:4066, V-A:TYR:484:CE2:4346, V-A:TYR:484:CD2:4344, H-B:LYS:547:NZ:9923, V-B:GLU:543:C:9874, V-A:HIS:456:CD2:4068, H-B:GLU:543:O:9875, V-A:GLU:543:CG:4907, V-A:GLU:543:CB:4906, V-A:GLU:543:CD:4908, V-B:GLU:543:CB:9878, H-A:TYR:484:OH:4348, V-B:GLU:543:CD:9880, H-B:HIS:456:NE2:9041, H-A:HIS:456:ND1:4067, H-A:HIS:456:NE2:4070, V-B:GLU:543:CA:9876, V-B:GLU:543:CG:9879, V-A:ASP:473:CG:4240, V-A:ASP:473:CB:4239, V-A:TYR:484:CB:4341, V-B:LYS:547:CE:9922"]

$$$$
4bg_Grossjean_2025
     RDKit          3D

 25 27  0  0  0  0  0  0  0  0999 V2000
  128.3480  127.7290   61.9300 C   0  0  0  0  0  0  0  0  0  0  0  0
  128.6750  127.1040   63.2740 C   0  0  0  0  0  0  0  0  0  0  0  0
  129.1650  125.8040   63.3610 C   0  0  0  0  0  0  0  0  0  0  0  0
  129.4580  125.2360   64.6120 C   0  0  0  0  0  0  0  0  0  0  0  0
  129.9950  123.8020   64.6580 C   0  0  0  0  0  0  0  0  0  0  0  0
  129.3570  123.0340   65.5440 F   0  0  0  0  0  0  0  0  0  0  0  0
  129.8560  123.2310   63.4610 F   0  0  0  0  0  0  0  0  0  0  0  0
  131.2840  123.8130   64.9940 F   0  0  0  0  0  0  0  0  0  0  0  0
  129.2320  126.0470   65.7640 C   0  0  0  0  0  0  0  0  0  0  0  0
  129.4040  125.8140   67.1770 C   0  0  0  0  0  0  0  0  0  0  0  0
  129.8580  124.6220   67.6840 N   0  0  0  0  0  0  0  0  0  0  0  0
  129.0760  126.9150   67.9830 C   0  0  0  0  0  0  0  0  0  0  0  0
  129.1020  127.0170   69.4420 C   0  0  0  0  0  0  0  0  0  0  0  0
  129.5000  128.0370   70.0070 O   0  0  0  0  0  0  0  0  0  0  0  0
  128.6300  125.9490   70.1170 N   0  0  0  0  0  0  0  0  0  0  0  0
  128.5740  125.8230   71.5730 C   0  0  0  0  0  0  0  0  0  0  0  0
  129.6740  124.9430   72.1520 C   0  0  0  0  0  0  0  0  0  0  0  0
  130.3460  125.3340   73.3140 C   0  0  0  0  0  0  0  0  0  0  0  0
  131.3250  124.5100   73.8620 C   0  0  0  0  0  0  0  0  0  0  0  0
  131.6200  123.2910   73.2560 C   0  0  0  0  0  0  0  0  0  0  0  0
  130.9420  122.8870   72.1080 C   0  0  0  0  0  0  0  0  0  0  0  0
  129.9640  123.7120   71.5580 C   0  0  0  0  0  0  0  0  0  0  0  0
  128.5030  128.2700   67.0140 S   0  0  0  0  0  0  0  0  0  0  0  0
  128.7330  127.3660   65.5360 C   0  0  0  0  0  0  0  0  0  0  0  0
  128.4550  127.8990   64.3460 N   0  0  0  0  0  0  0  0  0  0  0  0
  1  2  1  0
  2  3  2  0
  3  4  1  0
  4  5  1  0
  5  6  1  0
  5  7  1  0
  5  8  1  0
  4  9  2  0
  9 10  1  0
 10 11  1  0
 10 12  2  0
 12 13  1  0
 13 14  2  0
 13 15  1  0
 15 16  1  0
 16 17  1  0
 17 18  2  0
 18 19  1  0
 19 20  2  0
 20 21  1  0
 21 22  2  0
 12 23  1  0
 23 24  1  0
 24 25  2  0
 25  2  1  0
 24  9  1  0
 22 17  1  0
M  END
>  <Binding energies>  (29) 
[-6.92]

>  <Ligand effiencies>  (29) 
[-0.24714285714285714]

>  <Interactions>  (29) 
["V-A:HIS:456:CE1:4069, V-A:TYR:484:CZ:4347, V-A:TYR:484:CE1:4345, V-B:HIS:456:CE1:9040, V-A:TYR:484:CG:4342, V-A:HIS:456:CB:4065, V-A:TYR:484:CD1:4343, V-A:HIS:456:CG:4066, V-A:TYR:484:CE2:4346, V-A:TYR:484:CD2:4344, V-B:GLU:543:C:9874, V-A:HIS:456:CD2:4068, H-B:GLY:544:O:9885, H-B:GLU:543:O:9875, V-A:GLU:543:CB:4906, V-A:GLU:543:CD:4908, V-B:GLU:543:CB:9878, V-B:ALA:541:CB:9864, H-A:TYR:484:OH:4348, V-B:GLU:543:CD:9880, H-B:HIS:456:NE2:9041, H-A:HIS:456:ND1:4067, H-A:HIS:456:NE2:4070, V-B:GLU:543:CA:9876, V-B:GLU:543:CG:9879, V-A:ASP:473:CB:4239"]

$$$$
4ca_Grossjean_2025
     RDKit          3D

 34 37  0  0  0  0  0  0  0  0999 V2000
  125.8480  128.1540   74.7350 C   0  0  0  0  0  0  0  0  0  0  0  0
  125.8600  126.6680   74.3630 C   0  0  0  0  0  0  0  0  0  0  0  0
  127.1540  126.1310   74.6020 O   0  0  0  0  0  0  0  0  0  0  0  0
  128.2640  126.7140   74.0780 C   0  0  0  0  0  0  0  0  0  0  0  0
  129.0690  127.3680   74.7480 O   0  0  0  0  0  0  0  0  0  0  0  0
  128.4140  126.4810   72.6030 C   0  0  0  0  0  0  0  0  0  0  0  0
  129.3320  125.5230   72.1510 C   0  0  0  0  0  0  0  0  0  0  0  0
  129.4910  125.2820   70.7900 C   0  0  0  0  0  0  0  0  0  0  0  0
  128.7440  125.9950   69.8520 C   0  0  0  0  0  0  0  0  0  0  0  0
  128.9780  125.6640   68.5030 N   0  0  0  0  0  0  0  0  0  0  0  0
  129.0570  126.4620   67.4100 C   0  0  0  0  0  0  0  0  0  0  0  0
  128.9760  127.6900   67.4430 O   0  0  0  0  0  0  0  0  0  0  0  0
  129.2710  125.7640   66.1400 C   0  0  0  0  0  0  0  0  0  0  0  0
  130.0040  124.1610   66.1240 S   0  0  0  0  0  0  0  0  0  0  0  0
  129.8530  124.0620   64.3850 C   0  0  0  0  0  0  0  0  0  0  0  0
  130.2640  122.9890   63.7140 N   0  0  0  0  0  0  0  0  0  0  0  0
  130.0930  122.9960   62.3670 C   0  0  0  0  0  0  0  0  0  0  0  0
  130.5580  121.7680   61.6390 C   0  0  0  0  0  0  0  0  0  0  0  0
  131.8080  121.7400   60.9990 C   0  0  0  0  0  0  0  0  0  0  0  0
  132.2420  120.6060   60.3180 C   0  0  0  0  0  0  0  0  0  0  0  0
  131.4280  119.4790   60.2650 C   0  0  0  0  0  0  0  0  0  0  0  0
  130.1850  119.4800   60.8870 C   0  0  0  0  0  0  0  0  0  0  0  0
  129.7540  120.6160   61.5670 C   0  0  0  0  0  0  0  0  0  0  0  0
  129.5310  124.0890   61.6990 C   0  0  0  0  0  0  0  0  0  0  0  0
  129.0990  125.2270   62.3970 C   0  0  0  0  0  0  0  0  0  0  0  0
  128.4890  126.3880   61.6020 C   0  0  0  0  0  0  0  0  0  0  0  0
  129.1940  127.5160   61.6990 F   0  0  0  0  0  0  0  0  0  0  0  0
  128.4260  126.0670   60.3110 F   0  0  0  0  0  0  0  0  0  0  0  0
  127.2610  126.6470   62.0520 F   0  0  0  0  0  0  0  0  0  0  0  0
  129.2570  125.2230   63.8120 C   0  0  0  0  0  0  0  0  0  0  0  0
  128.9320  126.1800   64.8420 C   0  0  0  0  0  0  0  0  0  0  0  0
  128.3460  127.3900   64.5700 N   0  0  0  0  0  0  0  0  0  0  0  0
  127.8190  126.9520   70.2940 C   0  0  0  0  0  0  0  0  0  0  0  0
  127.6590  127.1920   71.6570 C   0  0  0  0  0  0  0  0  0  0  0  0
  1  2  1  0
  2  3  1  0
  3  4  1  0
  4  5  2  0
  4  6  1  0
  6  7  2  0
  7  8  1  0
  8  9  2  0
  9 10  1  0
 10 11  1  0
 11 12  2  0
 11 13  1  0
 13 14  1  0
 14 15  1  0
 15 16  2  0
 16 17  1  0
 17 18  1  0
 18 19  2  0
 19 20  1  0
 20 21  2  0
 21 22  1  0
 22 23  2  0
 17 24  2  0
 24 25  1  0
 25 26  1  0
 26 27  1  0
 26 28  1  0
 26 29  1  0
 25 30  2  0
 30 31  1  0
 31 32  1  0
  9 33  1  0
 33 34  2  0
 34  6  1  0
 31 13  2  0
 30 15  1  0
 23 18  1  0
M  END
>  <Binding energies>  (30) 
[-7.19]

>  <Ligand effiencies>  (30) 
[-0.19432432432432434]

>  <Interactions>  (30) 
["V-A:HIS:456:CE1:4069, H-B:GLU:543:OE1:9881, V-A:TYR:484:CZ:4347, V-A:TYR:484:CE1:4345, V-B:HIS:456:CE1:9040, H-B:LYS:547:NZ:9923, V-B:GLU:543:C:9874, V-A:HIS:456:CD2:4068, V-B:HIS:456:CD2:9039, V-B:HIS:456:CB:9036, V-B:HIS:456:CG:9037, H-A:LYS:547:NZ:4951, H-B:GLU:543:O:9875, V-B:GLU:543:CB:9878, V-B:ALA:541:CB:9864, H-A:GLU:543:OE2:4910, H-A:TYR:484:OH:4348, V-B:GLU:543:CD:9880, V-B:ALA:541:CA:9862, V-B:TYR:539:CE2:9848, V-A:TRP:381:CH2:3372, V-B:TYR:539:CD2:9846, V-B:GLY:544:C:9884, V-A:ILE:369:CG2:3237, V-B:GLU:543:CA:9876, V-B:GLU:543:CG:9879, V-A:TRP:381:CZ3:3371, V-A:PRO:482:CB:4326, V-A:TRP:381:CZ2:3370, V-A:PRO:482:CG:4327, H-B:GLU:543:OE2:9882, V-B:LYS:547:CE:9922, H-A:GLU:543:OE1:4909, V-B:LYS:547:CD:9921"]

$$$$
4cb_Grossjean_2025
     RDKit          3D

 33 36  0  0  0  0  0  0  0  0999 V2000
  126.3050  127.0260   73.9000 C   0  0  0  0  0  0  0  0  0  0  0  0
  127.4670  126.2150   74.0090 O   0  0  0  0  0  0  0  0  0  0  0  0
  128.6710  126.6560   73.5650 C   0  0  0  0  0  0  0  0  0  0  0  0
  129.4610  127.2990   74.2630 O   0  0  0  0  0  0  0  0  0  0  0  0
  128.9490  126.2830   72.1360 C   0  0  0  0  0  0  0  0  0  0  0  0
  128.6360  127.1940   71.1180 C   0  0  0  0  0  0  0  0  0  0  0  0
  128.8890  126.8810   69.7860 C   0  0  0  0  0  0  0  0  0  0  0  0
  129.4520  125.6520   69.4420 C   0  0  0  0  0  0  0  0  0  0  0  0
  129.6790  125.4460   68.0680 N   0  0  0  0  0  0  0  0  0  0  0  0
  130.1400  126.3010   67.1220 C   0  0  0  0  0  0  0  0  0  0  0  0
  130.5000  127.4560   67.3500 O   0  0  0  0  0  0  0  0  0  0  0  0
  130.2090  125.7520   65.7650 C   0  0  0  0  0  0  0  0  0  0  0  0
  128.7570  125.6570   64.7710 S   0  0  0  0  0  0  0  0  0  0  0  0
  129.6620  124.9960   63.4300 C   0  0  0  0  0  0  0  0  0  0  0  0
  129.0710  124.6850   62.2790 N   0  0  0  0  0  0  0  0  0  0  0  0
  129.8590  124.1860   61.2910 C   0  0  0  0  0  0  0  0  0  0  0  0
  129.1650  123.8510   60.0020 C   0  0  0  0  0  0  0  0  0  0  0  0
  128.2510  122.7870   59.9360 C   0  0  0  0  0  0  0  0  0  0  0  0
  127.6070  122.4670   58.7430 C   0  0  0  0  0  0  0  0  0  0  0  0
  127.8690  123.2100   57.5960 C   0  0  0  0  0  0  0  0  0  0  0  0
  128.7720  124.2680   57.6340 C   0  0  0  0  0  0  0  0  0  0  0  0
  129.4150  124.5820   58.8280 C   0  0  0  0  0  0  0  0  0  0  0  0
  131.2310  123.9830   61.4720 C   0  0  0  0  0  0  0  0  0  0  0  0
  131.8630  124.3040   62.6830 C   0  0  0  0  0  0  0  0  0  0  0  0
  133.3710  124.0570   62.8130 C   0  0  0  0  0  0  0  0  0  0  0  0
  134.0350  125.1140   63.2880 F   0  0  0  0  0  0  0  0  0  0  0  0
  133.5910  123.0410   63.6470 F   0  0  0  0  0  0  0  0  0  0  0  0
  133.8860  123.7670   61.6180 F   0  0  0  0  0  0  0  0  0  0  0  0
  131.0490  124.8430   63.7210 C   0  0  0  0  0  0  0  0  0  0  0  0
  131.3350  125.2890   65.0630 C   0  0  0  0  0  0  0  0  0  0  0  0
  132.5960  125.2600   65.6000 N   0  0  0  0  0  0  0  0  0  0  0  0
  129.7720  124.7350   70.4550 C   0  0  0  0  0  0  0  0  0  0  0  0
  129.5190  125.0500   71.7870 C   0  0  0  0  0  0  0  0  0  0  0  0
  1  2  1  0
  2  3  1  0
  3  4  2  0
  3  5  1  0
  5  6  2  0
  6  7  1  0
  7  8  2  0
  8  9  1  0
  9 10  1  0
 10 11  2  0
 10 12  1  0
 12 13  1  0
 13 14  1  0
 14 15  2  0
 15 16  1  0
 16 17  1  0
 17 18  2  0
 18 19  1  0
 19 20  2  0
 20 21  1  0
 21 22  2  0
 16 23  2  0
 23 24  1  0
 24 25  1  0
 25 26  1  0
 25 27  1  0
 25 28  1  0
 24 29  2  0
 29 30  1  0
 30 31  1  0
  8 32  1  0
 32 33  2  0
 33  5  1  0
 30 12  2  0
 29 14  1  0
 22 17  1  0
M  END
>  <Binding energies>  (31) 
[-6.93]

>  <Ligand effiencies>  (31) 
[-0.1925]

>  <Interactions>  (31) 
["V-A:HIS:456:CE1:4069, V-A:TYR:484:CE1:4345, V-B:HIS:456:CE1:9040, V-A:HIS:456:CG:4066, H-B:LYS:547:NZ:9923, V-A:HIS:456:CD2:4068, H-A:LYS:547:NZ:4951, H-B:GLU:543:O:9875, V-B:GLU:543:CB:9878, H-A:GLU:543:OE2:4910, H-A:TYR:484:OH:4348, V-B:GLU:543:CD:9880, V-A:ARG:545:CZ:4926, V-A:LEU:475:CD1:4258, V-B:TYR:539:CE2:9848, V-A:GLY:454:CA:4049, V-A:GLY:453:C:4042, V-B:TYR:539:CD2:9846, H-A:HIS:456:ND1:4067, H-A:HIS:456:NE2:4070, V-B:TYR:539:CZ:9849, V-B:GLU:543:CG:9879, V-B:TYR:539:C:9839, V-B:PRO:540:N:9856, V-B:PRO:540:CA:9855, V-A:GLY:453:CA:4044, V-B:LYS:547:CD:9921"]

$$$$
4cc_Grossjean_2025
     RDKit          3D

 31 34  0  0  0  0  0  0  0  0999 V2000
  126.0350  122.5270   56.4270 C   0  0  0  0  0  0  0  0  0  0  0  0
  127.2290  122.0690   57.0520 O   0  0  0  0  0  0  0  0  0  0  0  0
  127.5330  122.5060   58.3260 C   0  0  0  0  0  0  0  0  0  0  0  0
  127.0610  123.7700   58.6800 C   0  0  0  0  0  0  0  0  0  0  0  0
  127.3160  124.2940   59.9450 C   0  0  0  0  0  0  0  0  0  0  0  0
  128.0600  123.5620   60.8720 C   0  0  0  0  0  0  0  0  0  0  0  0
  128.2540  124.1660   62.1280 N   0  0  0  0  0  0  0  0  0  0  0  0
  129.3240  124.0960   62.9570 C   0  0  0  0  0  0  0  0  0  0  0  0
  130.3600  123.4830   62.6930 O   0  0  0  0  0  0  0  0  0  0  0  0
  129.1830  124.8110   64.2290 C   0  0  0  0  0  0  0  0  0  0  0  0
  129.6210  124.0240   65.7440 S   0  0  0  0  0  0  0  0  0  0  0  0
  129.1930  125.4500   66.6600 C   0  0  0  0  0  0  0  0  0  0  0  0
  129.3130  125.4860   67.9850 N   0  0  0  0  0  0  0  0  0  0  0  0
  128.9650  126.6410   68.6090 C   0  0  0  0  0  0  0  0  0  0  0  0
  129.1090  126.6510   70.1030 C   0  0  0  0  0  0  0  0  0  0  0  0
  129.3000  127.8570   70.7980 C   0  0  0  0  0  0  0  0  0  0  0  0
  129.4360  127.8740   72.1840 C   0  0  0  0  0  0  0  0  0  0  0  0
  129.3830  126.6820   72.8970 C   0  0  0  0  0  0  0  0  0  0  0  0
  129.1980  125.4730   72.2340 C   0  0  0  0  0  0  0  0  0  0  0  0
  129.0630  125.4600   70.8480 C   0  0  0  0  0  0  0  0  0  0  0  0
  128.4820  127.7470   67.9020 C   0  0  0  0  0  0  0  0  0  0  0  0
  128.3490  127.7180   66.5040 C   0  0  0  0  0  0  0  0  0  0  0  0
  127.8190  128.9680   65.7930 C   0  0  0  0  0  0  0  0  0  0  0  0
  128.4840  129.2550   64.6710 F   0  0  0  0  0  0  0  0  0  0  0  0
  126.5400  128.7920   65.4640 F   0  0  0  0  0  0  0  0  0  0  0  0
  127.9240  130.0240   66.6000 F   0  0  0  0  0  0  0  0  0  0  0  0
  128.7200  126.5150   65.8390 C   0  0  0  0  0  0  0  0  0  0  0  0
  128.7220  126.1190   64.4520 C   0  0  0  0  0  0  0  0  0  0  0  0
  128.3100  126.9520   63.4420 N   0  0  0  0  0  0  0  0  0  0  0  0
  128.5290  122.2850   60.5280 C   0  0  0  0  0  0  0  0  0  0  0  0
  128.2700  121.7650   59.2630 C   0  0  0  0  0  0  0  0  0  0  0  0
  1  2  1  0
  2  3  1  0
  3  4  2  0
  4  5  1  0
  5  6  2  0
  6  7  1  0
  7  8  1  0
  8  9  2  0
  8 10  1  0
 10 11  1  0
 11 12  1  0
 12 13  2  0
 13 14  1  0
 14 15  1  0
 15 16  2  0
 16 17  1  0
 17 18  2  0
 18 19  1  0
 19 20  2  0
 14 21  2  0
 21 22  1  0
 22 23  1  0
 23 24  1  0
 23 25  1  0
 23 26  1  0
 22 27  2  0
 27 28  1  0
 28 29  1  0
  6 30  1  0
 30 31  2  0
 31  3  1  0
 28 10  2  0
 27 12  1  0
 20 15  1  0
M  END
>  <Binding energies>  (32) 
[-6.91]

>  <Ligand effiencies>  (32) 
[-0.20323529411764707]

>  <Interactions>  (32) 
["V-A:HIS:456:CE1:4069, H-B:GLU:543:OE1:9881, V-A:TYR:484:CZ:4347, V-A:TYR:484:CE1:4345, V-B:HIS:456:CE1:9040, V-A:HIS:456:CD2:4068, V-A:GLU:543:CB:4906, V-A:GLU:543:CD:4908, V-B:GLU:543:CB:9878, V-B:GLU:543:CD:9880, V-B:TYR:539:CE2:9848, V-B:TYR:539:CD2:9846, H-A:HIS:456:NE2:4070, V-B:GLU:543:CA:9876, V-B:TYR:484:CE1:9316, V-B:TYR:484:CZ:9318, V-B:GLU:543:CG:9879, V-B:TYR:539:C:9839, V-B:PRO:540:N:9856, V-B:PRO:540:CA:9855, V-B:PRO:540:C:9853, H-B:GLU:543:OE2:9882, H-A:GLU:543:OE1:4909, H-B:TYR:539:N:9842, V-B:PRO:540:CD:9859, V-B:TYR:539:CG:9844, V-B:ILE:538:CB:9834"]

$$$$
4ce_Grossjean_2025
     RDKit          3D

 30 33  0  0  0  0  0  0  0  0999 V2000
  128.5460  119.8840   73.1610 C   0  0  0  0  0  0  0  0  0  0  0  0
  129.5080  121.0250   72.8900 C   0  0  0  0  0  0  0  0  0  0  0  0
  130.7130  121.1470   73.5870 C   0  0  0  0  0  0  0  0  0  0  0  0
  131.5530  122.2180   73.2780 C   0  0  0  0  0  0  0  0  0  0  0  0
  131.1740  123.1300   72.2920 C   0  0  0  0  0  0  0  0  0  0  0  0
  129.9500  122.9520   71.6350 C   0  0  0  0  0  0  0  0  0  0  0  0
  129.6360  123.8890   70.6350 N   0  0  0  0  0  0  0  0  0  0  0  0
  129.4670  125.2300   70.7510 C   0  0  0  0  0  0  0  0  0  0  0  0
  129.5900  125.8460   71.8100 O   0  0  0  0  0  0  0  0  0  0  0  0
  129.1200  125.9300   69.5120 C   0  0  0  0  0  0  0  0  0  0  0  0
  128.3800  127.5280   69.5740 S   0  0  0  0  0  0  0  0  0  0  0  0
  128.3510  127.6310   67.8300 C   0  0  0  0  0  0  0  0  0  0  0  0
  127.8670  128.7020   67.2060 N   0  0  0  0  0  0  0  0  0  0  0  0
  127.9010  128.6980   65.8470 C   0  0  0  0  0  0  0  0  0  0  0  0
  127.3530  129.9220   65.1750 C   0  0  0  0  0  0  0  0  0  0  0  0
  126.0450  129.9340   64.6650 C   0  0  0  0  0  0  0  0  0  0  0  0
  125.5320  131.0650   64.0330 C   0  0  0  0  0  0  0  0  0  0  0  0
  126.3220  132.2010   63.9050 C   0  0  0  0  0  0  0  0  0  0  0  0
  127.6220  132.2150   64.4000 C   0  0  0  0  0  0  0  0  0  0  0  0
  128.1320  131.0820   65.0290 C   0  0  0  0  0  0  0  0  0  0  0  0
  128.3990  127.6100   65.1230 C   0  0  0  0  0  0  0  0  0  0  0  0
  128.9070  126.4730   65.7710 C   0  0  0  0  0  0  0  0  0  0  0  0
  129.4400  125.3180   64.9170 C   0  0  0  0  0  0  0  0  0  0  0  0
  129.0660  124.1180   65.3660 F   0  0  0  0  0  0  0  0  0  0  0  0
  128.9870  125.4350   63.6680 F   0  0  0  0  0  0  0  0  0  0  0  0
  130.7720  125.3430   64.9060 F   0  0  0  0  0  0  0  0  0  0  0  0
  128.8910  126.4730   67.1960 C   0  0  0  0  0  0  0  0  0  0  0  0
  129.3220  125.5150   68.1850 C   0  0  0  0  0  0  0  0  0  0  0  0
  129.8810  124.3080   67.8530 N   0  0  0  0  0  0  0  0  0  0  0  0
  129.1250  121.9040   71.9280 N   0  0  0  0  0  0  0  0  0  0  0  0
  1  2  1  0
  2  3  2  0
  3  4  1  0
  4  5  2  0
  5  6  1  0
  6  7  1  0
  7  8  1  0
  8  9  2  0
  8 10  1  0
 10 11  1  0
 11 12  1  0
 12 13  2  0
 13 14  1  0
 14 15  1  0
 15 16  2  0
 16 17  1  0
 17 18  2  0
 18 19  1  0
 19 20  2  0
 14 21  2  0
 21 22  1  0
 22 23  1  0
 23 24  1  0
 23 25  1  0
 23 26  1  0
 22 27  2  0
 27 28  1  0
 28 29  1  0
  6 30  2  0
 30  2  1  0
 28 10  2  0
 27 12  1  0
 20 15  1  0
M  END
>  <Binding energies>  (33) 
[-8.01]

>  <Ligand effiencies>  (33) 
[-0.2427272727272727]

>  <Interactions>  (33) 
["V-A:HIS:456:CE1:4069, V-A:TYR:484:CZ:4347, V-A:TYR:484:CE1:4345, V-B:HIS:456:CE1:9040, V-A:TYR:484:CG:4342, V-A:HIS:456:CB:4065, V-A:TYR:484:CD1:4343, V-A:HIS:456:CG:4066, V-A:TYR:484:CE2:4346, V-A:TYR:484:CD2:4344, H-B:LYS:547:NZ:9923, V-B:GLU:543:C:9874, V-A:HIS:456:CD2:4068, H-B:GLU:543:O:9875, V-A:GLU:543:CB:4906, V-A:GLU:543:CD:4908, V-B:GLU:543:CB:9878, H-A:TYR:484:OH:4348, V-B:GLU:543:CD:9880, H-A:HIS:456:ND1:4067, H-A:HIS:456:NE2:4070, V-B:GLU:543:CA:9876, V-B:TYR:484:CE1:9316, V-B:TYR:484:CZ:9318, V-B:GLU:543:CG:9879, V-A:ASP:473:CG:4240, V-A:ASP:473:CB:4239, V-A:TYR:484:CB:4341, V-B:LYS:547:CE:9922, V-A:ALA:541:CB:4892, V-B:LEU:475:CD1:9229"]

$$$$
4cf_Grossjean_2025
     RDKit          3D

 29 32  0  0  0  0  0  0  0  0999 V2000
  129.8260  124.4940   67.4810 N   0  0  0  0  0  0  0  0  0  0  0  0
  129.4160  125.7780   67.7310 C   0  0  0  0  0  0  0  0  0  0  0  0
  129.2750  126.3040   69.0260 C   0  0  0  0  0  0  0  0  0  0  0  0
  129.4820  125.6320   70.3120 C   0  0  0  0  0  0  0  0  0  0  0  0
  129.4710  126.2740   71.3630 O   0  0  0  0  0  0  0  0  0  0  0  0
  129.6680  124.2910   70.2430 N   0  0  0  0  0  0  0  0  0  0  0  0
  129.9390  123.3680   71.2710 C   0  0  0  0  0  0  0  0  0  0  0  0
  131.0320  123.4300   72.1560 C   0  0  0  0  0  0  0  0  0  0  0  0
  131.1920  122.4370   73.1260 C   0  0  0  0  0  0  0  0  0  0  0  0
  130.2560  121.4050   73.1870 C   0  0  0  0  0  0  0  0  0  0  0  0
  129.1980  121.3190   72.3420 N   0  0  0  0  0  0  0  0  0  0  0  0
  129.0560  122.2910   71.4030 C   0  0  0  0  0  0  0  0  0  0  0  0
  128.7380  127.9810   68.9770 S   0  0  0  0  0  0  0  0  0  0  0  0
  128.7000  127.9650   67.2290 C   0  0  0  0  0  0  0  0  0  0  0  0
  128.3310  129.0380   66.5320 N   0  0  0  0  0  0  0  0  0  0  0  0
  128.3170  128.9230   65.1780 C   0  0  0  0  0  0  0  0  0  0  0  0
  127.8910  130.1460   64.4190 C   0  0  0  0  0  0  0  0  0  0  0  0
  128.0570  131.4260   64.9690 C   0  0  0  0  0  0  0  0  0  0  0  0
  127.6650  132.5660   64.2720 C   0  0  0  0  0  0  0  0  0  0  0  0
  127.1010  132.4390   63.0070 C   0  0  0  0  0  0  0  0  0  0  0  0
  126.9270  131.1830   62.4350 C   0  0  0  0  0  0  0  0  0  0  0  0
  127.3210  130.0470   63.1370 C   0  0  0  0  0  0  0  0  0  0  0  0
  128.6950  127.7420   64.5310 C   0  0  0  0  0  0  0  0  0  0  0  0
  129.0890  126.6070   65.2570 C   0  0  0  0  0  0  0  0  0  0  0  0
  129.4860  125.3440   64.4850 C   0  0  0  0  0  0  0  0  0  0  0  0
  129.0320  124.2210   65.0470 F   0  0  0  0  0  0  0  0  0  0  0  0
  128.9930  125.3980   63.2480 F   0  0  0  0  0  0  0  0  0  0  0  0
  130.8140  125.2490   64.4250 F   0  0  0  0  0  0  0  0  0  0  0  0
  129.0910  126.7100   66.6780 C   0  0  0  0  0  0  0  0  0  0  0  0
  1  2  1  0
  2  3  2  0
  3  4  1  0
  4  5  2  0
  4  6  1  0
  6  7  1  0
  7  8  2  0
  8  9  1  0
  9 10  2  0
 10 11  1  0
 11 12  2  0
  3 13  1  0
 13 14  1  0
 14 15  2  0
 15 16  1  0
 16 17  1  0
 17 18  2  0
 18 19  1  0
 19 20  2  0
 20 21  1  0
 21 22  2  0
 16 23  2  0
 23 24  1  0
 24 25  1  0
 25 26  1  0
 25 27  1  0
 25 28  1  0
 24 29  2  0
 29  2  1  0
 12  7  1  0
 29 14  1  0
 22 17  1  0
M  END
>  <Binding energies>  (34) 
[-7.62]

>  <Ligand effiencies>  (34) 
[-0.238125]

>  <Interactions>  (34) 
["V-A:HIS:456:CE1:4069, V-A:TYR:484:CZ:4347, V-A:TYR:484:CE1:4345, V-B:HIS:456:CE1:9040, V-A:TYR:484:CG:4342, V-A:HIS:456:CB:4065, V-A:TYR:484:CD1:4343, V-A:HIS:456:CG:4066, V-A:TYR:484:CE2:4346, V-A:TYR:484:CD2:4344, H-B:LYS:547:NZ:9923, V-B:GLU:543:C:9874, V-A:HIS:456:CD2:4068, H-B:GLU:543:O:9875, V-A:GLU:543:CB:4906, V-A:GLU:543:CD:4908, V-B:GLU:543:CB:9878, H-A:TYR:484:OH:4348, V-B:GLU:543:CD:9880, H-A:HIS:456:ND1:4067, H-A:HIS:456:NE2:4070, V-B:GLU:543:CA:9876, V-B:TYR:484:CE1:9316, V-B:TYR:484:CZ:9318, V-B:GLU:543:CG:9879, V-A:ASP:473:CB:4239, V-A:TYR:484:CB:4341, V-B:LYS:547:CE:9922, V-A:ALA:541:CB:4892, V-B:LEU:475:CD1:9229, V-B:GLY:544:CA:9886"]

$$$$
4ci_Grossjean_2025
     RDKit          3D

 28 31  0  0  0  0  0  0  0  0999 V2000
  129.8610  124.3750   67.6080 N   0  0  0  0  0  0  0  0  0  0  0  0
  129.3330  125.5990   67.9280 C   0  0  0  0  0  0  0  0  0  0  0  0
  129.1440  126.0340   69.2500 C   0  0  0  0  0  0  0  0  0  0  0  0
  129.4590  125.3310   70.4970 C   0  0  0  0  0  0  0  0  0  0  0  0
  129.5780  125.9510   71.5560 O   0  0  0  0  0  0  0  0  0  0  0  0
  129.6170  123.9880   70.3860 N   0  0  0  0  0  0  0  0  0  0  0  0
  129.9200  123.0860   71.3970 C   0  0  0  0  0  0  0  0  0  0  0  0
  131.0880  123.1540   72.1560 C   0  0  0  0  0  0  0  0  0  0  0  0
  131.0080  122.0980   73.0330 C   0  0  0  0  0  0  0  0  0  0  0  0
  129.8500  121.4270   72.8140 O   0  0  0  0  0  0  0  0  0  0  0  0
  129.1700  122.0630   71.7750 N   0  0  0  0  0  0  0  0  0  0  0  0
  128.4570  127.6560   69.2940 S   0  0  0  0  0  0  0  0  0  0  0  0
  128.4180  127.7360   67.5490 C   0  0  0  0  0  0  0  0  0  0  0  0
  127.9600  128.8120   66.9120 N   0  0  0  0  0  0  0  0  0  0  0  0
  127.9720  128.7840   65.5540 C   0  0  0  0  0  0  0  0  0  0  0  0
  127.4450  130.0090   64.8640 C   0  0  0  0  0  0  0  0  0  0  0  0
  126.1110  130.0730   64.4300 C   0  0  0  0  0  0  0  0  0  0  0  0
  125.6160  131.2070   63.7910 C   0  0  0  0  0  0  0  0  0  0  0  0
  126.4520  132.2970   63.5750 C   0  0  0  0  0  0  0  0  0  0  0  0
  127.7780  132.2600   63.9900 C   0  0  0  0  0  0  0  0  0  0  0  0
  128.2690  131.1230   64.6280 C   0  0  0  0  0  0  0  0  0  0  0  0
  128.4280  127.6680   64.8440 C   0  0  0  0  0  0  0  0  0  0  0  0
  128.9140  126.5290   65.5050 C   0  0  0  0  0  0  0  0  0  0  0  0
  129.3990  125.3430   64.6630 C   0  0  0  0  0  0  0  0  0  0  0  0
  128.9170  125.3520   63.4190 F   0  0  0  0  0  0  0  0  0  0  0  0
  130.7280  125.3670   64.5760 F   0  0  0  0  0  0  0  0  0  0  0  0
  129.0150  124.1990   65.2320 F   0  0  0  0  0  0  0  0  0  0  0  0
  128.9170  126.5530   66.9290 C   0  0  0  0  0  0  0  0  0  0  0  0
  1  2  1  0
  2  3  2  0
  3  4  1  0
  4  5  2  0
  4  6  1  0
  6  7  1  0
  7  8  1  0
  8  9  2  0
  9 10  1  0
 10 11  1  0
  3 12  1  0
 12 13  1  0
 13 14  2  0
 14 15  1  0
 15 16  1  0
 16 17  2  0
 17 18  1  0
 18 19  2  0
 19 20  1  0
 20 21  2  0
 15 22  2  0
 22 23  1  0
 23 24  1  0
 24 25  1  0
 24 26  1  0
 24 27  1  0
 23 28  2  0
 28  2  1  0
 11  7  2  0
 28 13  1  0
 21 16  1  0
M  END
>  <Binding energies>  (35) 
[-8.4]

>  <Ligand effiencies>  (35) 
[-0.2709677419354839]

>  <Interactions>  (35) 
["V-A:HIS:456:CE1:4069, V-A:TYR:484:CZ:4347, V-A:TYR:484:CE1:4345, V-B:HIS:456:CE1:9040, V-A:TYR:484:CG:4342, V-A:HIS:456:CB:4065, V-A:TYR:484:CD1:4343, V-A:HIS:456:CG:4066, V-A:TYR:484:CE2:4346, V-A:TYR:484:CD2:4344, H-B:LYS:547:NZ:9923, V-B:GLU:543:C:9874, V-A:HIS:456:CD2:4068, H-B:GLU:543:O:9875, V-A:GLU:543:CB:4906, V-A:GLU:543:CD:4908, V-B:GLU:543:CB:9878, H-A:TYR:484:OH:4348, V-B:GLU:543:CD:9880, H-A:HIS:456:ND1:4067, H-A:HIS:456:NE2:4070, V-B:GLU:543:CA:9876, V-B:GLU:543:CG:9879, V-A:ASP:473:CB:4239, V-A:TYR:484:CB:4341, V-A:ALA:541:CB:4892, V-B:LEU:475:CD1:9229"]

$$$$
8a_Ghoteimi_2023
     RDKit          3D

 40 44  0  0  0  0  0  0  0  0999 V2000
  128.4760  117.3890   74.7940 C   0  0  0  0  0  0  0  0  0  0  0  0
  127.8190  118.7530   75.0250 C   0  0  0  0  0  0  0  0  0  0  0  0
  128.8240  119.7550   75.1010 O   0  0  0  0  0  0  0  0  0  0  0  0
  129.8760  119.7600   74.2410 C   0  0  0  0  0  0  0  0  0  0  0  0
  130.7800  118.9190   74.2680 O   0  0  0  0  0  0  0  0  0  0  0  0
  129.8330  120.8930   73.2570 C   0  0  0  0  0  0  0  0  0  0  0  0
  128.7850  120.9540   72.3300 C   0  0  0  0  0  0  0  0  0  0  0  0
  128.7180  121.9910   71.4040 C   0  0  0  0  0  0  0  0  0  0  0  0
  129.6950  122.9880   71.3840 C   0  0  0  0  0  0  0  0  0  0  0  0
  129.5260  123.9840   70.4010 N   0  0  0  0  0  0  0  0  0  0  0  0
  129.3900  125.3270   70.5280 C   0  0  0  0  0  0  0  0  0  0  0  0
  129.3900  125.9250   71.6030 O   0  0  0  0  0  0  0  0  0  0  0  0
  129.2430  126.0610   69.2680 C   0  0  0  0  0  0  0  0  0  0  0  0
  128.6400  127.7180   69.2670 S   0  0  0  0  0  0  0  0  0  0  0  0
  128.7570  127.8100   67.5250 C   0  0  0  0  0  0  0  0  0  0  0  0
  128.3910  128.9020   66.8550 N   0  0  0  0  0  0  0  0  0  0  0  0
  128.5160  128.8670   65.5020 C   0  0  0  0  0  0  0  0  0  0  0  0
  128.0810  130.0960   64.7690 C   0  0  0  0  0  0  0  0  0  0  0  0
  128.2990  131.3730   65.3050 C   0  0  0  0  0  0  0  0  0  0  0  0
  127.8810  132.5120   64.6240 C   0  0  0  0  0  0  0  0  0  0  0  0
  127.2390  132.4060   63.3920 C   0  0  0  0  0  0  0  0  0  0  0  0
  126.8580  133.5900   62.7890 O   0  0  0  0  0  0  0  0  0  0  0  0
  127.3420  133.8910   61.4850 C   0  0  0  0  0  0  0  0  0  0  0  0
  127.0220  131.1330   62.8440 C   0  0  0  0  0  0  0  0  0  0  0  0
  127.4390  129.9950   63.5290 C   0  0  0  0  0  0  0  0  0  0  0  0
  129.0110  127.7490   64.8270 C   0  0  0  0  0  0  0  0  0  0  0  0
  129.4120  126.6060   65.5280 C   0  0  0  0  0  0  0  0  0  0  0  0
  129.9610  125.4560   64.7640 C   0  0  0  0  0  0  0  0  0  0  0  0
  131.2810  125.4820   64.3070 C   0  0  0  0  0  0  0  0  0  0  0  0
  131.8060  124.3990   63.6090 C   0  0  0  0  0  0  0  0  0  0  0  0
  131.0250  123.2700   63.3590 C   0  0  0  0  0  0  0  0  0  0  0  0
  131.6290  122.2440   62.6590 O   0  0  0  0  0  0  0  0  0  0  0  0
  132.8520  122.4950   61.9770 C   0  0  0  0  0  0  0  0  0  0  0  0
  129.7010  123.2390   63.8240 C   0  0  0  0  0  0  0  0  0  0  0  0
  129.1780  124.3240   64.5240 C   0  0  0  0  0  0  0  0  0  0  0  0
  129.2690  126.6120   66.9440 C   0  0  0  0  0  0  0  0  0  0  0  0
  129.5200  125.6230   67.9630 C   0  0  0  0  0  0  0  0  0  0  0  0
  129.9740  124.3610   67.6690 N   0  0  0  0  0  0  0  0  0  0  0  0
  130.7460  122.9380   72.3120 C   0  0  0  0  0  0  0  0  0  0  0  0
  130.8120  121.8990   73.2370 C   0  0  0  0  0  0  0  0  0  0  0  0
  1  2  1  0
  2  3  1  0
  3  4  1  0
  4  5  2  0
  4  6  1  0
  6  7  2  0
  7  8  1  0
  8  9  2  0
  9 10  1  0
 10 11  1  0
 11 12  2  0
 11 13  1  0
 13 14  1  0
 14 15  1  0
 15 16  2  0
 16 17  1  0
 17 18  1  0
 18 19  2  0
 19 20  1  0
 20 21  2  0
 21 22  1  0
 22 23  1  0
 21 24  1  0
 24 25  2  0
 17 26  2  0
 26 27  1  0
 27 28  1  0
 28 29  2  0
 29 30  1  0
 30 31  2  0
 31 32  1  0
 32 33  1  0
 31 34  1  0
 34 35  2  0
 27 36  2  0
 36 37  1  0
 37 38  1  0
  9 39  1  0
 39 40  2  0
 40  6  1  0
 37 13  2  0
 36 15  1  0
 25 18  1  0
 35 28  1  0
M  END
>  <Binding energies>  (36) 
[-7.72]

>  <Ligand effiencies>  (36) 
[-0.17953488372093024]

>  <Interactions>  (36) 
["V-A:HIS:456:CE1:4069, V-A:TYR:484:CZ:4347, V-A:TYR:484:CE1:4345, V-B:HIS:456:CE1:9040, V-A:TYR:484:CG:4342, V-A:TYR:484:CD1:4343, V-A:TYR:484:CE2:4346, V-A:TYR:484:CD2:4344, H-B:LYS:547:NZ:9923, V-B:GLU:543:C:9874, V-A:HIS:456:CD2:4068, H-B:GLU:543:O:9875, V-A:GLU:543:CG:4907, V-A:GLU:543:CB:4906, V-A:GLU:543:CD:4908, V-B:GLU:543:CB:9878, V-B:ALA:541:CB:9864, H-A:TYR:484:OH:4348, V-B:GLU:543:CD:9880, V-A:LEU:475:CD1:4258, H-A:HIS:456:ND1:4067, H-A:HIS:456:NE2:4070, V-B:GLU:543:CA:9876, V-B:TYR:484:CE1:9316, V-B:TYR:484:CZ:9318, V-B:GLU:543:CG:9879, V-A:ASP:473:CG:4240, V-A:ASP:473:CB:4239, V-A:TYR:484:CB:4341, V-B:LYS:547:CE:9922, V-A:ALA:541:CB:4892, V-B:LEU:475:CD1:9229, V-B:GLY:544:CA:9886, V-B:LEU:475:CD2:9230, V-A:TYR:484:C:4337, H-A:ASP:485:N:4354"]

$$$$
8c_Ghoteimi_2023
     RDKit          3D

 34 38  0  0  0  0  0  0  0  0999 V2000
  126.9780  126.6130   74.7920 C   0  0  0  0  0  0  0  0  0  0  0  0
  128.0180  125.8480   74.1930 O   0  0  0  0  0  0  0  0  0  0  0  0
  128.2730  126.0000   72.8430 C   0  0  0  0  0  0  0  0  0  0  0  0
  127.6000  127.0330   72.1930 C   0  0  0  0  0  0  0  0  0  0  0  0
  127.7930  127.2570   70.8340 C   0  0  0  0  0  0  0  0  0  0  0  0
  128.6670  126.4540   70.0870 C   0  0  0  0  0  0  0  0  0  0  0  0
  128.8760  126.6880   68.6240 C   0  0  0  0  0  0  0  0  0  0  0  0
  129.7240  125.8790   67.8620 C   0  0  0  0  0  0  0  0  0  0  0  0
  129.9000  126.1180   66.4950 C   0  0  0  0  0  0  0  0  0  0  0  0
  130.8110  125.2480   65.7180 C   0  0  0  0  0  0  0  0  0  0  0  0
  132.1870  125.4870   65.7220 C   0  0  0  0  0  0  0  0  0  0  0  0
  133.0430  124.6620   64.9990 C   0  0  0  0  0  0  0  0  0  0  0  0
  132.5400  123.5910   64.2600 C   0  0  0  0  0  0  0  0  0  0  0  0
  133.4640  122.8240   63.5750 O   0  0  0  0  0  0  0  0  0  0  0  0
  133.9610  123.2880   62.3260 C   0  0  0  0  0  0  0  0  0  0  0  0
  131.1560  123.3540   64.2530 C   0  0  0  0  0  0  0  0  0  0  0  0
  130.3010  124.1790   64.9780 C   0  0  0  0  0  0  0  0  0  0  0  0
  129.1900  127.2000   65.9090 C   0  0  0  0  0  0  0  0  0  0  0  0
  129.1330  127.7170   64.5670 C   0  0  0  0  0  0  0  0  0  0  0  0
  129.8490  127.1640   63.5350 N   0  0  0  0  0  0  0  0  0  0  0  0
  128.2850  128.8260   64.4200 C   0  0  0  0  0  0  0  0  0  0  0  0
  127.9880  129.5930   63.2080 C   0  0  0  0  0  0  0  0  0  0  0  0
  127.1350  129.2030   62.4090 O   0  0  0  0  0  0  0  0  0  0  0  0
  128.7120  130.7290   63.0480 N   0  0  0  0  0  0  0  0  0  0  0  0
  128.6250  131.6310   61.9970 C   0  0  0  0  0  0  0  0  0  0  0  0
  129.6100  132.1600   61.3030 N   0  0  0  0  0  0  0  0  0  0  0  0
  129.1620  132.9780   60.3720 C   0  0  0  0  0  0  0  0  0  0  0  0
  127.7810  133.1300   60.2980 C   0  0  0  0  0  0  0  0  0  0  0  0
  127.0380  132.1410   61.5200 S   0  0  0  0  0  0  0  0  0  0  0  0
  127.5280  129.2570   65.9550 S   0  0  0  0  0  0  0  0  0  0  0  0
  128.3510  127.9540   66.7800 C   0  0  0  0  0  0  0  0  0  0  0  0
  128.1840  127.7280   68.0830 N   0  0  0  0  0  0  0  0  0  0  0  0
  129.3420  125.4190   70.7480 C   0  0  0  0  0  0  0  0  0  0  0  0
  129.1500  125.1900   72.1070 C   0  0  0  0  0  0  0  0  0  0  0  0
  1  2  1  0
  2  3  1  0
  3  4  2  0
  4  5  1  0
  5  6  2  0
  6  7  1  0
  7  8  2  0
  8  9  1  0
  9 10  1  0
 10 11  2  0
 11 12  1  0
 12 13  2  0
 13 14  1  0
 14 15  1  0
 13 16  1  0
 16 17  2  0
  9 18  2  0
 18 19  1  0
 19 20  1  0
 19 21  2  0
 21 22  1  0
 22 23  2  0
 22 24  1  0
 24 25  1  0
 25 26  2  0
 26 27  1  0
 27 28  2  0
 28 29  1  0
 21 30  1  0
 30 31  1  0
 31 32  2  0
  6 33  1  0
 33 34  2  0
 34  3  1  0
 32  7  1  0
 17 10  1  0
 31 18  1  0
 29 25  1  0
M  END
>  <Binding energies>  (37) 
[-8.77]

>  <Ligand effiencies>  (37) 
[-0.23702702702702702]

>  <Interactions>  (37) 
["V-A:HIS:456:CE1:4069, V-B:HIS:456:CE1:9040, H-B:LYS:547:NZ:9923, V-A:HIS:456:CD2:4068, V-B:HIS:456:CD2:9039, V-B:HIS:456:CG:9037, V-A:GLU:543:CD:4908, H-A:GLU:543:OE2:4910, H-A:GLY:454:N:4050, V-A:GLY:454:CA:4049, V-A:PRO:540:CA:4883, V-B:LYS:547:CE:9922, V-A:ALA:541:CB:4892, V-A:TYR:539:CD2:4874, V-A:TYR:539:CE2:4876, V-A:TYR:539:C:4867, H-A:GLU:543:OE1:4909, V-A:PRO:540:C:4881, V-A:PRO:540:N:4884, V-B:LYS:547:CD:9921, H-A:ALA:541:N:4891"]

$$$$
8d_Ghoteimi_2023
     RDKit          3D

 30 33  0  0  0  0  0  0  0  0999 V2000
  126.6390  127.3460   61.2400 C   0  0  0  0  0  0  0  0  0  0  0  0
  127.6660  128.1810   61.7580 O   0  0  0  0  0  0  0  0  0  0  0  0
  127.4550  128.9380   62.8660 C   0  0  0  0  0  0  0  0  0  0  0  0
  126.9720  130.0720   62.8450 O   0  0  0  0  0  0  0  0  0  0  0  0
  127.8670  128.2590   64.1140 C   0  0  0  0  0  0  0  0  0  0  0  0
  127.1090  128.6970   65.6460 S   0  0  0  0  0  0  0  0  0  0  0  0
  128.0880  127.5330   66.5080 C   0  0  0  0  0  0  0  0  0  0  0  0
  127.9820  127.3630   67.8260 N   0  0  0  0  0  0  0  0  0  0  0  0
  128.7900  126.4300   68.3970 C   0  0  0  0  0  0  0  0  0  0  0  0
  128.6530  126.2620   69.8770 C   0  0  0  0  0  0  0  0  0  0  0  0
  127.7280  127.0190   70.6100 C   0  0  0  0  0  0  0  0  0  0  0  0
  127.6050  126.8600   71.9870 C   0  0  0  0  0  0  0  0  0  0  0  0
  128.4030  125.9410   72.6680 C   0  0  0  0  0  0  0  0  0  0  0  0
  128.2130  125.8500   74.0330 O   0  0  0  0  0  0  0  0  0  0  0  0
  127.2070  126.6470   74.6490 C   0  0  0  0  0  0  0  0  0  0  0  0
  129.3310  125.1780   71.9450 C   0  0  0  0  0  0  0  0  0  0  0  0
  129.4500  125.3400   70.5670 C   0  0  0  0  0  0  0  0  0  0  0  0
  129.7030  125.6780   67.6530 C   0  0  0  0  0  0  0  0  0  0  0  0
  129.8130  125.8540   66.2700 C   0  0  0  0  0  0  0  0  0  0  0  0
  130.7850  125.0360   65.5080 C   0  0  0  0  0  0  0  0  0  0  0  0
  132.1090  125.4590   65.3780 C   0  0  0  0  0  0  0  0  0  0  0  0
  133.0200  124.6940   64.6540 C   0  0  0  0  0  0  0  0  0  0  0  0
  132.6240  123.4980   64.0550 C   0  0  0  0  0  0  0  0  0  0  0  0
  133.5940  122.8070   63.3560 O   0  0  0  0  0  0  0  0  0  0  0  0
  134.0750  123.3380   62.1270 C   0  0  0  0  0  0  0  0  0  0  0  0
  131.2920  123.0730   64.1900 C   0  0  0  0  0  0  0  0  0  0  0  0
  130.3820  123.8390   64.9140 C   0  0  0  0  0  0  0  0  0  0  0  0
  128.9770  126.8210   65.6520 C   0  0  0  0  0  0  0  0  0  0  0  0
  128.8290  127.2570   64.2910 C   0  0  0  0  0  0  0  0  0  0  0  0
  129.5730  126.7350   63.2630 N   0  0  0  0  0  0  0  0  0  0  0  0
  1  2  1  0
  2  3  1  0
  3  4  2  0
  3  5  1  0
  5  6  1  0
  6  7  1  0
  7  8  2  0
  8  9  1  0
  9 10  1  0
 10 11  2  0
 11 12  1  0
 12 13  2  0
 13 14  1  0
 14 15  1  0
 13 16  1  0
 16 17  2  0
  9 18  2  0
 18 19  1  0
 19 20  1  0
 20 21  2  0
 21 22  1  0
 22 23  2  0
 23 24  1  0
 24 25  1  0
 23 26  1  0
 26 27  2  0
 19 28  2  0
 28 29  1  0
 29 30  1  0
 29  5  2  0
 28  7  1  0
 17 10  1  0
 27 20  1  0
M  END
>  <Binding energies>  (38) 
[-6.79]

>  <Ligand effiencies>  (38) 
[-0.2121875]

>  <Interactions>  (38) 
["V-A:HIS:456:CE1:4069, V-A:TYR:484:CE1:4345, V-B:HIS:456:CE1:9040, H-B:LYS:547:NZ:9923, V-A:HIS:456:CD2:4068, V-A:GLU:543:CD:4908, H-A:GLU:543:OE2:4910, V-A:ILE:369:CD1:3239, H-A:GLY:454:N:4050, V-B:GLU:543:CD:9880, V-A:ARG:545:CZ:4926, V-A:LEU:475:CD1:4258, V-A:GLY:454:CA:4049, V-B:GLY:544:C:9884, V-B:LYS:547:CE:9922, V-B:LYS:547:CD:9921"]

$$$$
9a_Ghoteimi_2023
     RDKit          3D

 48 54  0  0  0  0  0  0  0  0999 V2000
  128.5040  118.8540   73.6400 C   0  0  0  0  0  0  0  0  0  0  0  0
  128.7550  120.3640   73.7200 C   0  0  0  0  0  0  0  0  0  0  0  0
  130.1170  120.6000   74.0580 O   0  0  0  0  0  0  0  0  0  0  0  0
  130.6260  121.8580   74.0810 C   0  0  0  0  0  0  0  0  0  0  0  0
  131.0610  122.3980   75.1040 O   0  0  0  0  0  0  0  0  0  0  0  0
  130.6010  122.5330   72.7400 C   0  0  0  0  0  0  0  0  0  0  0  0
  129.3950  122.6050   72.0320 C   0  0  0  0  0  0  0  0  0  0  0  0
  129.3400  123.2230   70.7860 C   0  0  0  0  0  0  0  0  0  0  0  0
  130.4860  123.7830   70.2220 C   0  0  0  0  0  0  0  0  0  0  0  0
  130.3130  124.3800   68.9590 N   0  0  0  0  0  0  0  0  0  0  0  0
  129.3130  125.1680   68.4890 C   0  0  0  0  0  0  0  0  0  0  0  0
  128.3300  125.5060   69.1500 O   0  0  0  0  0  0  0  0  0  0  0  0
  129.4710  125.6200   67.1040 C   0  0  0  0  0  0  0  0  0  0  0  0
  128.8470  127.1920   66.6040 S   0  0  0  0  0  0  0  0  0  0  0  0
  129.4230  126.9520   64.9710 C   0  0  0  0  0  0  0  0  0  0  0  0
  129.2610  127.8800   64.0290 N   0  0  0  0  0  0  0  0  0  0  0  0
  129.7560  127.6000   62.7940 C   0  0  0  0  0  0  0  0  0  0  0  0
  129.5730  128.6600   61.7570 C   0  0  0  0  0  0  0  0  0  0  0  0
  128.3010  129.1760   61.4840 C   0  0  0  0  0  0  0  0  0  0  0  0
  128.1210  130.1640   60.5200 C   0  0  0  0  0  0  0  0  0  0  0  0
  129.2100  130.6840   59.8020 C   0  0  0  0  0  0  0  0  0  0  0  0
  129.0420  131.6630   58.8180 N   0  0  0  0  0  0  0  0  0  0  0  0
  128.8830  133.0900   59.1670 C   0  0  0  0  0  0  0  0  0  0  0  0
  128.3550  133.9590   58.0070 C   0  0  0  0  0  0  0  0  0  0  0  0
  129.1820  133.8040   56.8660 O   0  0  0  0  0  0  0  0  0  0  0  0
  129.2080  132.4560   56.4230 C   0  0  0  0  0  0  0  0  0  0  0  0
  129.7680  131.5460   57.5360 C   0  0  0  0  0  0  0  0  0  0  0  0
  130.4800  130.1530   60.0690 C   0  0  0  0  0  0  0  0  0  0  0  0
  130.6580  129.1630   61.0310 C   0  0  0  0  0  0  0  0  0  0  0  0
  130.3830  126.3870   62.5000 C   0  0  0  0  0  0  0  0  0  0  0  0
  130.5370  125.4010   63.4810 C   0  0  0  0  0  0  0  0  0  0  0  0
  131.1780  124.1150   63.1060 C   0  0  0  0  0  0  0  0  0  0  0  0
  130.6380  122.8990   63.5330 C   0  0  0  0  0  0  0  0  0  0  0  0
  131.2320  121.6950   63.1680 C   0  0  0  0  0  0  0  0  0  0  0  0
  132.3740  121.6730   62.3510 C   0  0  0  0  0  0  0  0  0  0  0  0
  132.9940  120.4770   61.9810 N   0  0  0  0  0  0  0  0  0  0  0  0
  134.0900  120.5100   60.9930 C   0  0  0  0  0  0  0  0  0  0  0  0
  134.9250  119.2130   60.9620 C   0  0  0  0  0  0  0  0  0  0  0  0
  134.0790  118.0950   60.7420 O   0  0  0  0  0  0  0  0  0  0  0  0
  133.1050  117.9640   61.7660 C   0  0  0  0  0  0  0  0  0  0  0  0
  132.2220  119.2290   61.8180 C   0  0  0  0  0  0  0  0  0  0  0  0
  132.9050  122.8990   61.9260 C   0  0  0  0  0  0  0  0  0  0  0  0
  132.3140  124.1030   62.2940 C   0  0  0  0  0  0  0  0  0  0  0  0
  130.0580  125.6880   64.7910 C   0  0  0  0  0  0  0  0  0  0  0  0
  130.0920  124.9570   66.0340 C   0  0  0  0  0  0  0  0  0  0  0  0
  130.6950  123.7310   66.1520 N   0  0  0  0  0  0  0  0  0  0  0  0
  131.6990  123.7190   70.9260 C   0  0  0  0  0  0  0  0  0  0  0  0
  131.7530  123.1000   72.1720 C   0  0  0  0  0  0  0  0  0  0  0  0
  1  2  1  0
  2  3  1  0
  3  4  1  0
  4  5  2  0
  4  6  1  0
  6  7  2  0
  7  8  1  0
  8  9  2  0
  9 10  1  0
 10 11  1  0
 11 12  2  0
 11 13  1  0
 13 14  1  0
 14 15  1  0
 15 16  2  0
 16 17  1  0
 17 18  1  0
 18 19  2  0
 19 20  1  0
 20 21  2  0
 21 22  1  0
 22 23  1  0
 23 24  1  0
 24 25  1  0
 25 26  1  0
 26 27  1  0
 21 28  1  0
 28 29  2  0
 17 30  2  0
 30 31  1  0
 31 32  1  0
 32 33  2  0
 33 34  1  0
 34 35  2  0
 35 36  1  0
 36 37  1  0
 37 38  1  0
 38 39  1  0
 39 40  1  0
 40 41  1  0
 35 42  1  0
 42 43  2  0
 31 44  2  0
 44 45  1  0
 45 46  1  0
  9 47  1  0
 47 48  2  0
 48  6  1  0
 45 13  2  0
 44 15  1  0
 29 18  1  0
 43 32  1  0
 27 22  1  0
 41 36  1  0
M  END
>  <Binding energies>  (39) 
[24.06]

>  <Ligand effiencies>  (39) 
[0.4717647058823529]

>  <Interactions>  (39) 
["V-A:HIS:456:CE1:4069, V-A:TYR:484:CZ:4347, V-A:TYR:484:CE1:4345, V-A:TYR:484:CG:4342, V-A:HIS:456:CB:4065, V-A:TYR:484:CD1:4343, V-A:HIS:456:CG:4066, V-A:TYR:484:CE2:4346, V-A:TYR:484:CD2:4344, H-B:LYS:547:NZ:9923, V-B:GLU:543:C:9874, V-A:HIS:456:CD2:4068, H-B:GLU:543:O:9875, V-A:GLU:543:CD:4908, V-B:GLU:543:CB:9878, H-A:TYR:484:OH:4348, V-A:ILE:369:CD1:3239, V-A:LEU:475:CD1:4258, V-A:TRP:381:CH2:3372, H-A:HIS:456:ND1:4067, V-A:ILE:369:CG2:3237, V-A:SER:385:CA:3407, V-A:SER:385:C:3405, V-A:ASP:473:CG:4240, V-A:ASP:473:CB:4239, V-A:TYR:484:CB:4341, V-A:TRP:381:CZ2:3370, V-A:PRO:540:CA:4883, V-B:LYS:547:CE:9922, V-A:TYR:539:CD2:4874, V-A:TYR:539:CE2:4876, V-A:TYR:539:C:4867, V-A:ILE:369:CG1:3238, V-A:SER:385:CB:3409, V-A:TYR:539:CZ:4877, V-A:TYR:539:CE1:4875, V-A:TYR:539:CD1:4873, V-A:TYR:539:CG:4872, V-A:LEU:475:CG:4257, V-B:GLY:544:CA:9886, V-A:PRO:540:N:4884, V-A:LEU:475:CB:4256, V-A:TYR:539:CA:4869, V-A:TYR:539:CB:4871, H-A:TYR:539:N:4870, V-A:TYR:484:C:4337"]

$$$$
9b_Ghoteimi_2023
     RDKit          3D

 42 48  0  0  0  0  0  0  0  0999 V2000
  129.4590  127.1740   62.2240 N   0  0  0  0  0  0  0  0  0  0  0  0
  129.0340  127.9210   63.2930 C   0  0  0  0  0  0  0  0  0  0  0  0
  128.5560  129.2360   63.1770 C   0  0  0  0  0  0  0  0  0  0  0  0
  128.3900  130.0440   61.9670 C   0  0  0  0  0  0  0  0  0  0  0  0
  127.2680  130.2560   61.5000 O   0  0  0  0  0  0  0  0  0  0  0  0
  129.5380  130.5180   61.4200 N   0  0  0  0  0  0  0  0  0  0  0  0
  129.6740  131.2940   60.2770 C   0  0  0  0  0  0  0  0  0  0  0  0
  128.6300  132.0430   59.7360 C   0  0  0  0  0  0  0  0  0  0  0  0
  129.1670  132.6590   58.6290 C   0  0  0  0  0  0  0  0  0  0  0  0
  130.4670  132.2990   58.5100 O   0  0  0  0  0  0  0  0  0  0  0  0
  130.7770  131.4340   59.5590 N   0  0  0  0  0  0  0  0  0  0  0  0
  128.1280  129.9000   64.7540 S   0  0  0  0  0  0  0  0  0  0  0  0
  128.6080  128.4240   65.5560 C   0  0  0  0  0  0  0  0  0  0  0  0
  128.5430  128.2960   66.8800 N   0  0  0  0  0  0  0  0  0  0  0  0
  128.9560  127.1140   67.4070 C   0  0  0  0  0  0  0  0  0  0  0  0
  128.8920  127.0040   68.8960 C   0  0  0  0  0  0  0  0  0  0  0  0
  129.3720  128.0310   69.7190 C   0  0  0  0  0  0  0  0  0  0  0  0
  129.3240  127.9170   71.1050 C   0  0  0  0  0  0  0  0  0  0  0  0
  128.8060  126.7670   71.7200 C   0  0  0  0  0  0  0  0  0  0  0  0
  128.7480  126.6390   73.1120 N   0  0  0  0  0  0  0  0  0  0  0  0
  129.7220  125.8100   73.8500 C   0  0  0  0  0  0  0  0  0  0  0  0
  129.7240  126.0590   75.3730 C   0  0  0  0  0  0  0  0  0  0  0  0
  128.4170  125.8900   75.8940 O   0  0  0  0  0  0  0  0  0  0  0  0
  127.5020  126.8040   75.3110 C   0  0  0  0  0  0  0  0  0  0  0  0
  127.4320  126.5830   73.7840 C   0  0  0  0  0  0  0  0  0  0  0  0
  128.3080  125.7510   70.8910 C   0  0  0  0  0  0  0  0  0  0  0  0
  128.3530  125.8660   69.5050 C   0  0  0  0  0  0  0  0  0  0  0  0
  129.4060  126.0580   66.6100 C   0  0  0  0  0  0  0  0  0  0  0  0
  129.4570  126.1810   65.2170 C   0  0  0  0  0  0  0  0  0  0  0  0
  129.9140  125.0190   64.4130 C   0  0  0  0  0  0  0  0  0  0  0  0
  131.1490  124.4240   64.6730 C   0  0  0  0  0  0  0  0  0  0  0  0
  131.5720  123.3240   63.9350 C   0  0  0  0  0  0  0  0  0  0  0  0
  130.7720  122.7880   62.9130 C   0  0  0  0  0  0  0  0  0  0  0  0
  131.1700  121.6740   62.1700 N   0  0  0  0  0  0  0  0  0  0  0  0
  130.1450  120.8430   61.5090 C   0  0  0  0  0  0  0  0  0  0  0  0
  130.6730  119.4580   61.0750 C   0  0  0  0  0  0  0  0  0  0  0  0
  131.8100  119.6120   60.2390 O   0  0  0  0  0  0  0  0  0  0  0  0
  132.8620  120.2950   60.9040 C   0  0  0  0  0  0  0  0  0  0  0  0
  132.3900  121.6990   61.3380 C   0  0  0  0  0  0  0  0  0  0  0  0
  129.5250  123.3830   62.6730 C   0  0  0  0  0  0  0  0  0  0  0  0
  129.1020  124.4840   63.4120 C   0  0  0  0  0  0  0  0  0  0  0  0
  129.0610  127.4230   64.6460 C   0  0  0  0  0  0  0  0  0  0  0  0
  1  2  1  0
  2  3  2  0
  3  4  1  0
  4  5  2  0
  4  6  1  0
  6  7  1  0
  7  8  1  0
  8  9  2  0
  9 10  1  0
 10 11  1  0
  3 12  1  0
 12 13  1  0
 13 14  2  0
 14 15  1  0
 15 16  1  0
 16 17  2  0
 17 18  1  0
 18 19  2  0
 19 20  1  0
 20 21  1  0
 21 22  1  0
 22 23  1  0
 23 24  1  0
 24 25  1  0
 19 26  1  0
 26 27  2  0
 15 28  2  0
 28 29  1  0
 29 30  1  0
 30 31  2  0
 31 32  1  0
 32 33  2  0
 33 34  1  0
 34 35  1  0
 35 36  1  0
 36 37  1  0
 37 38  1  0
 38 39  1  0
 33 40  1  0
 40 41  2  0
 29 42  2  0
 42  2  1  0
 11  7  2  0
 42 13  1  0
 27 16  1  0
 41 30  1  0
 25 20  1  0
 39 34  1  0
M  END
>  <Binding energies>  (40) 
[-8.37]

>  <Ligand effiencies>  (40) 
[-0.18599999999999997]

>  <Interactions>  (40) 
["V-A:HIS:456:CE1:4069, V-B:HIS:456:CE1:9040, H-B:LYS:547:NZ:9923, V-B:GLU:543:C:9874, V-A:HIS:456:CD2:4068, V-B:HIS:456:CD2:9039, V-A:GLU:543:CB:4906, V-A:GLU:543:CD:4908, V-B:GLU:543:CB:9878, V-B:ALA:541:CB:9864, H-A:GLU:543:OE2:4910, V-B:GLU:543:CD:9880, V-A:LEU:475:CD1:4258, V-A:TRP:381:CH2:3372, V-B:TYR:539:CD2:9846, V-B:GLY:544:C:9884, V-A:ILE:369:CG2:3237, V-B:GLU:543:CG:9879, V-A:PRO:482:CB:4326, V-A:TRP:381:CZ2:3370, V-A:PRO:482:CG:4327, V-A:PRO:540:CA:4883, V-B:LYS:547:CE:9922, V-A:TYR:539:CD2:4874, V-A:TYR:539:CE2:4876, V-A:TYR:539:C:4867, H-A:GLU:543:OE1:4909, V-A:PRO:540:N:4884, V-B:LYS:547:CD:9921"]

$$$$
9c_Ghoteimi_2023
     RDKit          3D

 42 48  0  0  0  0  0  0  0  0999 V2000
  129.6040  126.9210   62.1890 N   0  0  0  0  0  0  0  0  0  0  0  0
  129.1040  127.6780   63.2180 C   0  0  0  0  0  0  0  0  0  0  0  0
  128.5560  128.9570   63.0420 C   0  0  0  0  0  0  0  0  0  0  0  0
  128.3850  129.7150   61.7990 C   0  0  0  0  0  0  0  0  0  0  0  0
  127.3130  129.6950   61.1900 O   0  0  0  0  0  0  0  0  0  0  0  0
  129.4740  130.4100   61.3880 N   0  0  0  0  0  0  0  0  0  0  0  0
  129.5830  131.1910   60.2460 C   0  0  0  0  0  0  0  0  0  0  0  0
  128.7040  132.0420   59.7610 N   0  0  0  0  0  0  0  0  0  0  0  0
  129.1390  132.6080   58.6510 C   0  0  0  0  0  0  0  0  0  0  0  0
  130.4000  132.2150   58.2130 C   0  0  0  0  0  0  0  0  0  0  0  0
  131.0430  131.0410   59.3220 S   0  0  0  0  0  0  0  0  0  0  0  0
  128.0400  129.6470   64.5810 S   0  0  0  0  0  0  0  0  0  0  0  0
  128.5790  128.2300   65.4490 C   0  0  0  0  0  0  0  0  0  0  0  0
  128.4780  128.1430   66.7750 N   0  0  0  0  0  0  0  0  0  0  0  0
  128.9420  127.0050   67.3550 C   0  0  0  0  0  0  0  0  0  0  0  0
  128.8360  126.9430   68.8440 C   0  0  0  0  0  0  0  0  0  0  0  0
  128.0940  125.9380   69.4760 C   0  0  0  0  0  0  0  0  0  0  0  0
  127.9910  125.8890   70.8630 C   0  0  0  0  0  0  0  0  0  0  0  0
  128.6160  126.8540   71.6700 C   0  0  0  0  0  0  0  0  0  0  0  0
  128.5280  126.8150   73.0660 N   0  0  0  0  0  0  0  0  0  0  0  0
  129.5240  126.0890   73.8800 C   0  0  0  0  0  0  0  0  0  0  0  0
  129.4770  126.4390   75.3820 C   0  0  0  0  0  0  0  0  0  0  0  0
  128.1660  126.2350   75.8850 O   0  0  0  0  0  0  0  0  0  0  0  0
  127.2220  127.0590   75.2210 C   0  0  0  0  0  0  0  0  0  0  0  0
  127.2010  126.7330   73.7120 C   0  0  0  0  0  0  0  0  0  0  0  0
  129.3730  127.8470   71.0320 C   0  0  0  0  0  0  0  0  0  0  0  0
  129.4790  127.8920   69.6450 C   0  0  0  0  0  0  0  0  0  0  0  0
  129.4760  125.9520   66.6090 C   0  0  0  0  0  0  0  0  0  0  0  0
  129.5640  126.0300   65.2150 C   0  0  0  0  0  0  0  0  0  0  0  0
  130.1110  124.8720   64.4660 C   0  0  0  0  0  0  0  0  0  0  0  0
  131.4460  124.4950   64.6260 C   0  0  0  0  0  0  0  0  0  0  0  0
  131.9580  123.3990   63.9380 C   0  0  0  0  0  0  0  0  0  0  0  0
  131.1500  122.6510   63.0690 C   0  0  0  0  0  0  0  0  0  0  0  0
  131.6400  121.5400   62.3760 N   0  0  0  0  0  0  0  0  0  0  0  0
  130.6950  120.6770   61.6380 C   0  0  0  0  0  0  0  0  0  0  0  0
  131.2920  119.3040   61.2610 C   0  0  0  0  0  0  0  0  0  0  0  0
  132.4920  119.4820   60.5220 O   0  0  0  0  0  0  0  0  0  0  0  0
  133.4660  120.1950   61.2680 C   0  0  0  0  0  0  0  0  0  0  0  0
  132.9240  121.5900   61.6520 C   0  0  0  0  0  0  0  0  0  0  0  0
  129.8050  123.0260   62.9310 C   0  0  0  0  0  0  0  0  0  0  0  0
  129.2920  124.1220   63.6190 C   0  0  0  0  0  0  0  0  0  0  0  0
  129.1170  127.2280   64.5880 C   0  0  0  0  0  0  0  0  0  0  0  0
  1  2  1  0
  2  3  2  0
  3  4  1  0
  4  5  2  0
  4  6  1  0
  6  7  1  0
  7  8  2  0
  8  9  1  0
  9 10  2  0
 10 11  1  0
  3 12  1  0
 12 13  1  0
 13 14  2  0
 14 15  1  0
 15 16  1  0
 16 17  2  0
 17 18  1  0
 18 19  2  0
 19 20  1  0
 20 21  1  0
 21 22  1  0
 22 23  1  0
 23 24  1  0
 24 25  1  0
 19 26  1  0
 26 27  2  0
 15 28  2  0
 28 29  1  0
 29 30  1  0
 30 31  2  0
 31 32  1  0
 32 33  2  0
 33 34  1  0
 34 35  1  0
 35 36  1  0
 36 37  1  0
 37 38  1  0
 38 39  1  0
 33 40  1  0
 40 41  2  0
 29 42  2  0
 42  2  1  0
 11  7  1  0
 42 13  1  0
 27 16  1  0
 41 30  1  0
 25 20  1  0
 39 34  1  0
M  END
>  <Binding energies>  (41) 
[-8.44]

>  <Ligand effiencies>  (41) 
[-0.18755555555555553]

>  <Interactions>  (41) 
["V-A:HIS:456:CE1:4069, V-B:HIS:456:CE1:9040, H-B:LYS:547:NZ:9923, V-B:GLU:543:C:9874, V-A:HIS:456:CD2:4068, V-A:GLU:543:CB:4906, V-A:GLU:543:CD:4908, V-B:GLU:543:CB:9878, V-B:ALA:541:CB:9864, H-A:GLU:543:OE2:4910, V-A:ILE:369:CD1:3239, V-B:GLU:543:CD:9880, V-A:LEU:475:CD1:4258, V-A:TRP:381:CH2:3372, V-B:GLY:544:C:9884, V-A:ILE:369:CG2:3237, V-B:GLU:543:CG:9879, V-A:PRO:482:CB:4326, V-A:TRP:381:CZ2:3370, V-A:PRO:482:CG:4327, V-A:PRO:540:CA:4883, V-A:PRO:540:CB:4885, V-A:TYR:539:CD2:4874, V-A:TYR:539:CE2:4876, V-A:TYR:539:C:4867, H-A:GLU:543:OE1:4909, V-A:PRO:540:N:4884, V-B:LYS:547:CD:9921"]

$$$$
RR11_Rahimova_2017
     RDKit          3D

 33 38  0  0  0  0  0  0  0  0999 V2000
  131.5220  122.8770   74.7450 N   0  0  0  0  0  0  0  0  0  0  0  0
  130.9500  123.5070   73.6410 C   0  0  0  0  0  0  0  0  0  0  0  0
  130.6350  124.8630   73.7020 C   0  0  0  0  0  0  0  0  0  0  0  0
  130.0670  125.4920   72.5980 C   0  0  0  0  0  0  0  0  0  0  0  0
  129.8080  124.7720   71.4240 C   0  0  0  0  0  0  0  0  0  0  0  0
  129.2000  125.4520   70.2330 C   0  0  0  0  0  0  0  0  0  0  0  0
  129.8570  125.7510   69.1330 N   0  0  0  0  0  0  0  0  0  0  0  0
  128.9340  126.3420   68.3110 C   0  0  0  0  0  0  0  0  0  0  0  0
  129.0980  126.8450   67.0130 C   0  0  0  0  0  0  0  0  0  0  0  0
  127.9840  127.3920   66.3650 C   0  0  0  0  0  0  0  0  0  0  0  0
  128.1330  127.9520   64.9570 C   0  0  0  0  0  0  0  0  0  0  0  0
  128.6320  126.9180   63.9570 C   0  0  0  0  0  0  0  0  0  0  0  0
  128.1550  126.9460   62.6420 C   0  0  0  0  0  0  0  0  0  0  0  0
  128.5890  126.0250   61.6860 C   0  0  0  0  0  0  0  0  0  0  0  0
  129.5310  125.0630   62.0760 C   0  0  0  0  0  0  0  0  0  0  0  0
  130.1020  124.0580   61.3400 N   0  0  0  0  0  0  0  0  0  0  0  0
  130.9120  123.4360   62.1690 C   0  0  0  0  0  0  0  0  0  0  0  0
  131.7490  122.2440   61.8050 C   0  0  0  0  0  0  0  0  0  0  0  0
  131.1520  121.0910   61.2770 C   0  0  0  0  0  0  0  0  0  0  0  0
  131.9270  119.9820   60.9490 C   0  0  0  0  0  0  0  0  0  0  0  0
  133.3050  120.0170   61.1460 C   0  0  0  0  0  0  0  0  0  0  0  0
  134.0820  118.9050   60.8220 N   0  0  0  0  0  0  0  0  0  0  0  0
  133.9130  121.1580   61.6660 C   0  0  0  0  0  0  0  0  0  0  0  0
  133.1370  122.2660   61.9940 C   0  0  0  0  0  0  0  0  0  0  0  0
  130.8970  124.0030   63.4260 N   0  0  0  0  0  0  0  0  0  0  0  0
  130.0140  125.0560   63.4060 C   0  0  0  0  0  0  0  0  0  0  0  0
  129.5870  125.9780   64.3660 C   0  0  0  0  0  0  0  0  0  0  0  0
  126.7440  127.4580   67.0110 C   0  0  0  0  0  0  0  0  0  0  0  0
  126.5500  126.9700   68.3060 C   0  0  0  0  0  0  0  0  0  0  0  0
  127.6650  126.4120   68.9340 C   0  0  0  0  0  0  0  0  0  0  0  0
  127.8770  125.8350   70.1650 N   0  0  0  0  0  0  0  0  0  0  0  0
  130.1280  123.4080   71.3780 C   0  0  0  0  0  0  0  0  0  0  0  0
  130.6970  122.7780   72.4810 C   0  0  0  0  0  0  0  0  0  0  0  0
  1  2  1  0
  2  3  2  0
  3  4  1  0
  4  5  2  0
  5  6  1  0
  6  7  2  0
  7  8  1  0
  8  9  2  0
  9 10  1  0
 10 11  1  0
 11 12  1  0
 12 13  2  0
 13 14  1  0
 14 15  2  0
 15 16  1  0
 16 17  2  0
 17 18  1  0
 18 19  2  0
 19 20  1  0
 20 21  2  0
 21 22  1  0
 21 23  1  0
 23 24  2  0
 17 25  1  0
 25 26  1  0
 26 27  2  0
 10 28  2  0
 28 29  1  0
 29 30  2  0
 30 31  1  0
  5 32  1  0
 32 33  2  0
 33  2  1  0
 31  6  1  0
 30  8  1  0
 27 12  1  0
 26 15  1  0
 24 18  1  0
M  END
>  <Binding energies>  (42) 
[-7.7]

>  <Ligand effiencies>  (42) 
[-0.19743589743589743]

>  <Interactions>  (42) 
["V-A:HIS:456:CE1:4069, V-A:TYR:484:CZ:4347, V-A:TYR:484:CE1:4345, V-B:HIS:456:CE1:9040, V-A:TYR:484:CG:4342, V-A:TYR:484:CD1:4343, V-A:HIS:456:CG:4066, V-A:TYR:484:CE2:4346, V-A:TYR:484:CD2:4344, V-B:GLU:543:C:9874, V-A:HIS:456:CD2:4068, H-B:GLY:544:O:9885, H-B:GLU:543:O:9875, V-A:GLU:543:CD:4908, V-B:GLU:543:CB:9878, H-A:TYR:484:OH:4348, V-A:ILE:369:CD1:3239, V-B:GLU:543:CD:9880, V-A:LEU:475:CD1:4258, V-A:GLY:454:CA:4049, V-A:TRP:381:CH2:3372, V-B:TYR:539:CD2:9846, V-B:GLY:544:C:9884, V-A:ILE:369:CG2:3237, H-A:HIS:456:NE2:4070, V-A:SER:385:CA:3407, V-A:SER:385:C:3405, V-B:ARG:545:CG:9894, V-A:ASP:473:CG:4240, V-A:ASP:473:CB:4239, V-A:TRP:381:CZ2:3370, H-A:SER:385:O:3406, V-B:GLY:544:CA:9886, V-B:ARG:545:CA:9891, H-A:ASP:473:OD1:4241"]

$$$$
RR16_Rahimova_2017
     RDKit          3D

 44 49  0  0  0  0  0  0  0  0999 V2000
  128.6220  125.8900   74.0370 O   0  0  0  0  0  0  0  0  0  0  0  0
  129.6460  125.4950   73.0640 S   0  0  0  0  0  0  0  0  0  0  0  0
  129.9950  124.0830   72.8700 O   0  0  0  0  0  0  0  0  0  0  0  0
  131.1230  126.3750   73.4590 N   0  0  0  0  0  0  0  0  0  0  0  0
  132.3800  125.6540   73.7670 C   0  0  0  0  0  0  0  0  0  0  0  0
  133.3790  126.6330   74.4360 C   0  0  0  0  0  0  0  0  0  0  0  0
  134.7840  126.0940   74.7670 C   0  0  0  0  0  0  0  0  0  0  0  0
  134.7760  124.7940   75.5900 C   0  0  0  0  0  0  0  0  0  0  0  0
  134.4890  123.5020   74.8040 C   0  0  0  0  0  0  0  0  0  0  0  0
  133.0230  123.2200   74.4230 C   0  0  0  0  0  0  0  0  0  0  0  0
  132.0310  124.3890   74.5860 C   0  0  0  0  0  0  0  0  0  0  0  0
  129.1410  126.1600   71.4810 C   0  0  0  0  0  0  0  0  0  0  0  0
  128.9400  125.3100   70.3910 C   0  0  0  0  0  0  0  0  0  0  0  0
  128.6680  125.8500   69.1380 C   0  0  0  0  0  0  0  0  0  0  0  0
  128.5960  127.2350   68.9800 C   0  0  0  0  0  0  0  0  0  0  0  0
  128.3850  127.9370   67.3450 S   0  0  0  0  0  0  0  0  0  0  0  0
  129.2000  129.1570   67.2830 O   0  0  0  0  0  0  0  0  0  0  0  0
  126.9440  127.9940   67.0730 O   0  0  0  0  0  0  0  0  0  0  0  0
  129.1050  126.7320   66.2600 N   0  0  0  0  0  0  0  0  0  0  0  0
  128.8760  126.9900   64.8150 C   0  0  0  0  0  0  0  0  0  0  0  0
  129.2560  125.7510   63.9780 C   0  0  0  0  0  0  0  0  0  0  0  0
  130.6950  125.2690   64.2860 C   0  0  0  0  0  0  0  0  0  0  0  0
  131.0750  124.0120   63.4990 C   0  0  0  0  0  0  0  0  0  0  0  0
  130.4660  122.7870   63.8080 C   0  0  0  0  0  0  0  0  0  0  0  0
  130.7770  121.6180   63.1110 C   0  0  0  0  0  0  0  0  0  0  0  0
  130.1680  120.4300   63.4250 O   0  0  0  0  0  0  0  0  0  0  0  0
  131.7230  121.6940   62.0790 C   0  0  0  0  0  0  0  0  0  0  0  0
  132.2030  120.7390   61.2300 N   0  0  0  0  0  0  0  0  0  0  0  0
  133.0980  121.3500   60.3800 N   0  0  0  0  0  0  0  0  0  0  0  0
  133.1990  122.6470   60.7300 N   0  0  0  0  0  0  0  0  0  0  0  0
  134.0180  123.5580   59.9410 C   0  0  0  0  0  0  0  0  0  0  0  0
  133.1870  124.5010   59.0820 C   0  0  0  0  0  0  0  0  0  0  0  0
  133.5090  124.6890   57.7330 C   0  0  0  0  0  0  0  0  0  0  0  0
  132.7360  125.5350   56.9380 C   0  0  0  0  0  0  0  0  0  0  0  0
  131.6360  126.1960   57.4860 C   0  0  0  0  0  0  0  0  0  0  0  0
  131.3080  126.0110   58.8290 C   0  0  0  0  0  0  0  0  0  0  0  0
  129.9410  126.8180   59.5060 Cl  0  0  0  0  0  0  0  0  0  0  0  0
  132.0840  125.1670   59.6260 C   0  0  0  0  0  0  0  0  0  0  0  0
  132.3390  122.9320   61.7780 C   0  0  0  0  0  0  0  0  0  0  0  0
  132.0320  124.1040   62.4780 C   0  0  0  0  0  0  0  0  0  0  0  0
  130.9550  125.1260   65.8080 C   0  0  0  0  0  0  0  0  0  0  0  0
  130.5110  126.3800   66.5880 C   0  0  0  0  0  0  0  0  0  0  0  0
  128.7550  128.0820   70.0800 C   0  0  0  0  0  0  0  0  0  0  0  0
  129.0310  127.5430   71.3310 C   0  0  0  0  0  0  0  0  0  0  0  0
  1  2  2  0
  2  3  2  0
  2  4  1  0
  4  5  1  0
  5  6  1  0
  6  7  1  0
  7  8  1  0
  8  9  1  0
  9 10  1  0
 10 11  1  0
  2 12  1  0
 12 13  2  0
 13 14  1  0
 14 15  2  0
 15 16  1  0
 16 17  2  0
 16 18  2  0
 16 19  1  0
 19 20  1  0
 20 21  1  0
 21 22  1  0
 22 23  1  0
 23 24  2  0
 24 25  1  0
 25 26  1  0
 25 27  2  0
 27 28  1  0
 28 29  2  0
 29 30  1  0
 30 31  1  0
 31 32  1  0
 32 33  2  0
 33 34  1  0
 34 35  2  0
 35 36  1  0
 36 37  1  0
 36 38  2  0
 30 39  1  0
 39 40  2  0
 22 41  1  0
 41 42  1  0
 15 43  1  0
 43 44  2  0
 11  5  1  0
 44 12  1  0
 42 19  1  0
 40 23  1  0
 39 27  1  0
 38 32  1  0
M  END
>  <Binding energies>  (43) 
[-6.51]

>  <Ligand effiencies>  (43) 
[-0.135625]

>  <Interactions>  (43) 
["V-A:HIS:456:CE1:4069, V-A:TYR:484:CZ:4347, V-B:HIS:456:CE1:9040, V-A:HIS:456:CB:4065, V-A:HIS:456:CG:4066, H-B:LYS:547:NZ:9923, V-B:GLU:543:C:9874, V-A:HIS:456:CD2:4068, V-B:HIS:456:CD2:9039, H-A:LYS:547:NZ:4951, V-A:GLU:543:CD:4908, V-B:ALA:541:CB:9864, V-A:ILE:369:CD1:3239, V-B:GLU:543:CD:9880, V-A:LEU:475:CD1:4258, V-A:ASP:366:CG:3213, V-A:ASP:366:CB:3212, V-A:ILE:369:CB:3236, V-A:ILE:369:CG2:3237, V-A:ASP:366:CA:3210, V-A:ASP:366:C:3208, V-B:GLU:543:CG:9879, V-A:ASP:473:CG:4240, V-A:ASP:473:CB:4239, V-A:LYS:547:CE:4950, V-A:LYS:547:CD:4949, V-A:VAL:458:CG2:4087, H-A:GLY:544:O:4913, V-A:HIS:456:CA:4063, V-A:HIS:456:C:4061, V-A:VAL:457:C:4073"]

$$$$
RR18_Rahimova_2017
     RDKit          3D

 36 41  0  0  0  0  0  0  0  0999 V2000
  127.6210  122.7770   58.0620 C   0  0  0  0  0  0  0  0  0  0  0  0
  128.0340  123.9390   58.9300 C   0  0  0  0  0  0  0  0  0  0  0  0
  127.4060  124.6740   59.9220 C   0  0  0  0  0  0  0  0  0  0  0  0
  128.3210  125.6340   60.3530 C   0  0  0  0  0  0  0  0  0  0  0  0
  129.4750  125.4510   59.6090 C   0  0  0  0  0  0  0  0  0  0  0  0
  130.8360  126.1420   59.5800 C   0  0  1  0  0  0  0  0  0  0  0  0
  131.8120  125.4400   58.5890 C   0  0  0  0  0  0  0  0  0  0  0  0
  132.2610  124.0740   58.8360 C   0  0  0  0  0  0  0  0  0  0  0  0
  133.2240  123.5880   58.2410 O   0  0  0  0  0  0  0  0  0  0  0  0
  131.5410  123.4150   59.7740 N   0  0  0  0  0  0  0  0  0  0  0  0
  131.6630  122.0940   60.2570 C   0  0  0  0  0  0  0  0  0  0  0  0
  132.7670  121.2670   59.9830 C   0  0  0  0  0  0  0  0  0  0  0  0
  132.8230  119.9690   60.4860 C   0  0  0  0  0  0  0  0  0  0  0  0
  131.7780  119.4740   61.2600 C   0  0  0  0  0  0  0  0  0  0  0  0
  130.6730  120.2770   61.5290 C   0  0  0  0  0  0  0  0  0  0  0  0
  130.6030  121.5830   61.0330 C   0  0  0  0  0  0  0  0  0  0  0  0
  129.3680  122.4200   61.3530 C   0  0  0  0  0  0  0  0  0  0  0  0
  132.1500  126.0910   57.4440 C   0  0  0  0  0  0  0  0  0  0  0  0
  131.7930  127.3700   57.1440 N   0  0  0  0  0  0  0  0  0  0  0  0
  131.1600  128.0690   58.0120 C   0  0  0  0  0  0  0  0  0  0  0  0
  130.7700  129.7630   57.8300 S   0  0  0  0  0  0  0  0  0  0  0  0
  129.9950  129.8130   59.4440 C   0  0  0  0  0  0  0  0  0  0  0  0
  129.4070  130.9010   60.0520 C   0  0  0  0  0  0  0  0  0  0  0  0
  129.4410  132.2210   59.4060 C   0  0  0  0  0  0  0  0  0  0  0  0
  129.9160  132.5600   58.3230 O   0  0  0  0  0  0  0  0  0  0  0  0
  128.8500  133.0860   60.2360 N   0  0  0  0  0  0  0  0  0  0  0  0
  128.3800  132.4980   61.3710 C   0  0  0  0  0  0  0  0  0  0  0  0
  127.7050  133.1030   62.4310 C   0  0  0  0  0  0  0  0  0  0  0  0
  127.2770  132.3120   63.4940 C   0  0  0  0  0  0  0  0  0  0  0  0
  127.5210  130.9400   63.4750 C   0  0  0  0  0  0  0  0  0  0  0  0
  128.2000  130.3580   62.4010 C   0  0  0  0  0  0  0  0  0  0  0  0
  128.6620  131.1430   61.3280 C   0  0  0  0  0  0  0  0  0  0  0  0
  130.1020  128.4800   60.0380 C   0  0  0  0  0  0  0  0  0  0  0  0
  129.7300  128.1480   61.1590 O   0  0  0  0  0  0  0  0  0  0  0  0
  130.7060  127.5930   59.2000 N   0  0  0  0  0  0  0  0  0  0  0  0
  129.2920  124.4170   58.7440 O   0  0  0  0  0  0  0  0  0  0  0  0
  1  2  1  0
  2  3  2  0
  3  4  1  0
  4  5  2  0
  6  5  1  6
  6  7  1  0
  7  8  1  0
  8  9  2  0
  8 10  1  0
 10 11  1  0
 11 12  2  0
 12 13  1  0
 13 14  2  0
 14 15  1  0
 15 16  2  0
 16 17  1  0
  7 18  2  0
 18 19  1  0
 19 20  2  0
 20 21  1  0
 21 22  1  0
 22 23  2  0
 23 24  1  0
 24 25  2  0
 24 26  1  0
 26 27  1  0
 27 28  2  0
 28 29  1  0
 29 30  2  0
 30 31  1  0
 31 32  2  0
 22 33  1  0
 33 34  2  0
 33 35  1  0
  5 36  1  0
 36  2  1  0
 35  6  1  0
 16 11  1  0
 35 20  1  0
 32 23  1  0
 32 27  1  0
M  END
>  <Binding energies>  (44) 
[-8.35]

>  <Ligand effiencies>  (44) 
[-0.21973684210526315]

>  <Interactions>  (44) 
["V-B:ALA:541:CB:9864, V-A:LEU:475:CD1:4258, V-B:TYR:539:CE2:9848, V-A:TRP:381:CH2:3372, V-B:TYR:539:CD2:9846, V-A:ASP:366:CG:3213, V-A:ASP:366:CB:3212, H-B:TYR:539:OH:9850, V-A:ILE:369:CG2:3237, V-B:TYR:539:CZ:9849, V-B:TYR:539:C:9839, V-B:PRO:540:N:9856, V-B:PRO:540:CA:9855, V-A:TRP:381:CZ2:3370, V-A:PRO:540:CA:4883, V-A:ALA:541:CB:4892, V-B:LEU:475:CD1:9229, V-A:TYR:539:C:4867, H-A:TYR:531:OH:4795, V-A:PRO:540:C:4881, V-A:PRO:540:N:4884, H-A:TYR:539:O:4868"]

$$$$
RR20_Rahimova_2017
     RDKit          3D

 38 43  0  0  0  0  0  0  0  0999 V2000
  127.2090  122.7850   58.7030 C   0  0  0  0  0  0  0  0  0  0  0  0
  128.5270  122.5900   59.4300 C   0  0  0  0  0  0  0  0  0  0  0  0
  129.5040  123.5840   59.3750 C   0  0  0  0  0  0  0  0  0  0  0  0
  130.7100  123.4120   60.0480 C   0  0  0  0  0  0  0  0  0  0  0  0
  130.9550  122.2380   60.7710 C   0  0  0  0  0  0  0  0  0  0  0  0
  132.2640  122.0790   61.5130 C   0  0  0  0  0  0  0  0  0  0  0  0
  133.0150  121.1680   61.1560 O   0  0  0  0  0  0  0  0  0  0  0  0
  132.5690  122.9430   62.5240 N   0  0  0  0  0  0  0  0  0  0  0  0
  133.8090  123.7370   62.5140 C   0  0  0  0  0  0  0  0  0  0  0  0
  133.7240  124.6780   63.7030 C   0  0  0  0  0  0  0  0  0  0  0  0
  132.2750  124.6110   64.0800 C   0  0  0  0  0  0  0  0  0  0  0  0
  131.5860  125.3350   65.0540 C   0  0  0  0  0  0  0  0  0  0  0  0
  130.2610  125.0160   65.3750 C   0  0  0  0  0  0  0  0  0  0  0  0
  129.5140  125.8010   66.4170 C   0  0  0  0  0  0  0  0  0  0  0  0
  129.4340  125.3030   67.6410 N   0  0  0  0  0  0  0  0  0  0  0  0
  128.7810  126.0780   68.4690 C   0  0  0  0  0  0  0  0  0  0  0  0
  128.5200  125.8630   69.8140 N   0  0  0  0  0  0  0  0  0  0  0  0
  128.8200  126.6910   70.8440 C   0  0  0  0  0  0  0  0  0  0  0  0
  129.3630  127.7890   70.7100 O   0  0  0  0  0  0  0  0  0  0  0  0
  128.4330  126.2420   72.2740 C   0  0  0  0  0  0  0  0  0  0  0  0
  129.5010  125.4800   72.9470 N   0  0  0  0  0  0  0  0  0  0  0  0
  130.0370  124.4010   72.1040 C   0  0  0  0  0  0  0  0  0  0  0  0
  130.9500  123.4750   72.9400 C   0  0  0  0  0  0  0  0  0  0  0  0
  131.9320  124.2450   73.8230 C   0  0  0  0  0  0  0  0  0  0  0  0
  133.0070  123.5960   74.4410 C   0  0  0  0  0  0  0  0  0  0  0  0
  133.8790  124.2900   75.2770 C   0  0  0  0  0  0  0  0  0  0  0  0
  133.6860  125.6490   75.5030 C   0  0  0  0  0  0  0  0  0  0  0  0
  132.6260  126.3090   74.8870 C   0  0  0  0  0  0  0  0  0  0  0  0
  131.7420  125.6240   74.0460 C   0  0  0  0  0  0  0  0  0  0  0  0
  130.6130  126.3610   73.3240 C   0  0  0  0  0  0  0  0  0  0  0  0
  128.1840  127.5290   67.7650 S   0  0  0  0  0  0  0  0  0  0  0  0
  128.8660  127.0410   66.2320 C   0  0  0  0  0  0  0  0  0  0  0  0
  128.6800  127.9010   65.0010 C   0  0  0  0  0  0  0  0  0  0  0  0
  129.6630  123.9180   64.7360 C   0  0  0  0  0  0  0  0  0  0  0  0
  130.3560  123.1810   63.7760 C   0  0  0  0  0  0  0  0  0  0  0  0
  131.6520  123.5640   63.4030 C   0  0  0  0  0  0  0  0  0  0  0  0
  129.9580  121.2570   60.8460 C   0  0  0  0  0  0  0  0  0  0  0  0
  128.7500  121.4300   60.1740 C   0  0  0  0  0  0  0  0  0  0  0  0
  1  2  1  0
  2  3  2  0
  3  4  1  0
  4  5  2  0
  5  6  1  0
  6  7  2  0
  6  8  1  0
  8  9  1  0
  9 10  1  0
 10 11  1  0
 11 12  2  0
 12 13  1  0
 13 14  1  0
 14 15  1  0
 15 16  2  0
 16 17  1  0
 17 18  1  0
 18 19  2  0
 18 20  1  0
 20 21  1  0
 21 22  1  0
 22 23  1  0
 23 24  1  0
 24 25  2  0
 25 26  1  0
 26 27  2  0
 27 28  1  0
 28 29  2  0
 29 30  1  0
 16 31  1  0
 31 32  1  0
 32 33  1  0
 13 34  2  0
 34 35  1  0
 35 36  2  0
  5 37  1  0
 37 38  2  0
 38  2  1  0
 36  8  1  0
 36 11  1  0
 32 14  2  0
 30 21  1  0
 29 24  1  0
M  END
>  <Binding energies>  (45) 
[-10.69]

>  <Ligand effiencies>  (45) 
[-0.2741025641025641]

>  <Interactions>  (45) 
["V-A:HIS:456:CE1:4069, V-B:HIS:456:CE1:9040, V-A:HIS:456:CB:4065, V-A:HIS:456:CG:4066, H-B:LYS:547:NZ:9923, V-B:GLU:543:C:9874, V-A:HIS:456:CD2:4068, H-B:GLY:544:O:9885, H-B:GLU:543:O:9875, V-A:GLU:543:CD:4908, V-B:GLU:543:CB:9878, V-B:ALA:541:CB:9864, H-A:TYR:484:OH:4348, V-A:ARG:545:CZ:4926, V-A:LEU:475:CD1:4258, V-B:TYR:539:CE2:9848, V-A:GLY:454:CA:4049, V-B:TYR:539:CD2:9846, H-B:HIS:456:NE2:9041, H-A:HIS:456:NE2:4070, V-B:GLU:543:CG:9879, V-B:TYR:539:C:9839, V-B:PRO:540:N:9856, V-B:PRO:540:CA:9855, V-A:GLY:453:CA:4044, V-B:PRO:540:C:9853, V-A:ASP:473:CG:4240, V-A:ASP:473:CB:4239, V-A:LYS:547:CE:4950, V-A:LYS:547:CD:4949, V-A:VAL:458:CG2:4087, V-A:HIS:456:C:4061"]

$$$$
RR21_Rahimova_2017
     RDKit          3D

 40 45  0  0  0  0  0  0  0  0999 V2000
  127.9730  122.1770   58.8760 C   0  0  0  0  0  0  0  0  0  0  0  0
  127.7320  122.2850   60.2760 O   0  0  0  0  0  0  0  0  0  0  0  0
  127.8330  123.5210   60.8850 C   0  0  0  0  0  0  0  0  0  0  0  0
  127.2370  124.6950   60.3940 C   0  0  0  0  0  0  0  0  0  0  0  0
  127.3860  125.9050   61.0720 C   0  0  0  0  0  0  0  0  0  0  0  0
  128.1280  125.9720   62.2570 C   0  0  0  0  0  0  0  0  0  0  0  0
  128.2820  127.2720   62.9870 C   0  0  0  0  0  0  0  0  0  0  0  0
  127.8720  128.3920   62.4240 N   0  0  0  0  0  0  0  0  0  0  0  0
  128.1320  129.3780   63.2960 N   0  0  0  0  0  0  0  0  0  0  0  0
  127.7940  130.7270   63.0110 C   0  0  0  0  0  0  0  0  0  0  0  0
  128.6710  131.5490   62.2870 C   0  0  0  0  0  0  0  0  0  0  0  0
  128.3250  132.8690   62.0100 C   0  0  0  0  0  0  0  0  0  0  0  0
  127.1050  133.3720   62.4560 C   0  0  0  0  0  0  0  0  0  0  0  0
  126.2280  132.5670   63.1780 C   0  0  0  0  0  0  0  0  0  0  0  0
  126.5700  131.2470   63.4570 C   0  0  0  0  0  0  0  0  0  0  0  0
  128.7020  128.8660   64.4340 C   0  0  0  0  0  0  0  0  0  0  0  0
  128.8320  127.4950   64.2700 C   0  0  0  0  0  0  0  0  0  0  0  0
  129.3380  126.5200   65.2230 C   0  0  0  0  0  0  0  0  0  0  0  0
  129.1020  126.4470   66.5530 C   0  0  0  0  0  0  0  0  0  0  0  0
  128.1040  127.5340   67.5450 S   0  0  0  0  0  0  0  0  0  0  0  0
  128.4650  126.5520   68.9580 C   0  0  0  0  0  0  0  0  0  0  0  0
  128.0400  126.7180   70.1720 N   0  0  0  0  0  0  0  0  0  0  0  0
  128.4010  125.8380   71.2290 C   0  0  0  0  0  0  0  0  0  0  0  0
  128.0250  125.9150   72.3980 O   0  0  0  0  0  0  0  0  0  0  0  0
  129.3230  124.7270   70.8060 C   0  0  0  0  0  0  0  0  0  0  0  0
  129.7970  123.7250   71.8670 C   0  0  0  0  0  0  0  0  0  0  0  0
  130.7550  124.3110   72.9020 C   0  0  0  0  0  0  0  0  0  0  0  0
  131.7330  123.5020   73.4870 C   0  0  0  0  0  0  0  0  0  0  0  0
  132.6170  124.0400   74.4180 C   0  0  0  0  0  0  0  0  0  0  0  0
  132.5270  125.3900   74.7660 C   0  0  0  0  0  0  0  0  0  0  0  0
  133.5010  125.9740   75.7720 C   0  0  0  0  0  0  0  0  0  0  0  0
  131.5570  126.2030   74.1740 C   0  0  0  0  0  0  0  0  0  0  0  0
  130.6730  125.6650   73.2430 C   0  0  0  0  0  0  0  0  0  0  0  0
  129.7430  124.5770   69.5930 N   0  0  0  0  0  0  0  0  0  0  0  0
  129.3000  125.5110   68.6480 N   0  0  0  0  0  0  0  0  0  0  0  0
  129.6960  125.3890   67.3570 C   0  0  0  0  0  0  0  0  0  0  0  0
  130.4470  124.5030   66.9310 O   0  0  0  0  0  0  0  0  0  0  0  0
  128.7270  124.8060   62.7430 C   0  0  0  0  0  0  0  0  0  0  0  0
  128.5800  123.5950   62.0660 C   0  0  0  0  0  0  0  0  0  0  0  0
  129.1720  122.4830   62.5630 F   0  0  0  0  0  0  0  0  0  0  0  0
  1  2  1  0
  2  3  1  0
  3  4  2  0
  4  5  1  0
  5  6  2  0
  6  7  1  0
  7  8  2  0
  8  9  1  0
  9 10  1  0
 10 11  2  0
 11 12  1  0
 12 13  2  0
 13 14  1  0
 14 15  2  0
  9 16  1  0
 16 17  2  0
 17 18  1  0
 18 19  2  0
 19 20  1  0
 20 21  1  0
 21 22  2  0
 22 23  1  0
 23 24  2  0
 23 25  1  0
 25 26  1  0
 26 27  1  0
 27 28  2  0
 28 29  1  0
 29 30  2  0
 30 31  1  0
 30 32  1  0
 32 33  2  0
 25 34  2  0
 34 35  1  0
 35 36  1  0
 36 37  2  0
  6 38  1  0
 38 39  2  0
 39 40  1  0
 39  3  1  0
 17  7  1  0
 36 19  1  0
 15 10  1  0
 35 21  1  0
 33 27  1  0
M  END
>  <Binding energies>  (46) 
[-8.3]

>  <Ligand effiencies>  (46) 
[-0.20750000000000002]

>  <Interactions>  (46) 
["V-A:HIS:456:CE1:4069, V-A:TYR:484:CE1:4345, V-B:HIS:456:CE1:9040, V-A:HIS:456:CB:4065, V-A:HIS:456:CG:4066, H-B:LYS:547:NZ:9923, V-B:GLU:543:C:9874, V-A:HIS:456:CD2:4068, V-A:GLU:543:CD:4908, V-B:GLU:543:CB:9878, V-B:ALA:541:CB:9864, H-A:TYR:484:OH:4348, V-B:GLU:543:CD:9880, V-B:TYR:539:CE2:9848, V-B:TYR:539:CD2:9846, V-B:GLY:544:C:9884, H-A:HIS:456:NE2:4070, V-B:GLU:543:CG:9879, V-B:TYR:539:C:9839, V-B:PRO:540:N:9856, V-B:PRO:540:CA:9855, H-B:ALA:541:N:9863, V-A:ASP:473:CB:4239, V-A:ALA:541:CB:4892, V-B:LEU:475:CD1:9229, V-A:LYS:547:CD:4949, V-A:VAL:458:CG2:4087"]

$$$$
RR23_Rahimova_2017
     RDKit          3D

 39 44  0  0  0  0  0  0  0  0999 V2000
  133.4240  119.2770   60.9030 C   0  0  0  0  0  0  0  0  0  0  0  0
  132.2030  120.1620   61.0730 C   0  0  0  0  0  0  0  0  0  0  0  0
  130.9240  119.6130   60.9750 C   0  0  0  0  0  0  0  0  0  0  0  0
  129.8040  120.4250   61.1400 C   0  0  0  0  0  0  0  0  0  0  0  0
  129.9550  121.7930   61.3950 C   0  0  0  0  0  0  0  0  0  0  0  0
  128.7270  122.6520   61.5920 C   0  0  0  0  0  0  0  0  0  0  0  0
  127.6260  122.1000   61.5280 O   0  0  0  0  0  0  0  0  0  0  0  0
  128.8760  123.9870   61.8460 N   0  0  0  0  0  0  0  0  0  0  0  0
  128.2910  125.0080   60.9620 C   0  0  0  0  0  0  0  0  0  0  0  0
  128.5360  126.3480   61.6370 C   0  0  0  0  0  0  0  0  0  0  0  0
  128.9100  125.9550   63.0340 C   0  0  0  0  0  0  0  0  0  0  0  0
  129.1620  126.7690   64.1390 C   0  0  0  0  0  0  0  0  0  0  0  0
  129.6580  126.2160   65.3290 C   0  0  0  0  0  0  0  0  0  0  0  0
  129.9490  127.0760   66.5680 C   0  0  2  0  0  0  0  0  0  0  0  0
  129.8540  126.3150   67.7960 N   0  0  0  0  0  0  0  0  0  0  0  0
  129.4460  127.0300   68.7660 C   0  0  0  0  0  0  0  0  0  0  0  0
  129.2150  126.6470   70.0510 N   0  0  0  0  0  0  0  0  0  0  0  0
  129.2260  125.3960   70.5710 C   0  0  0  0  0  0  0  0  0  0  0  0
  129.4970  124.3650   69.9520 O   0  0  0  0  0  0  0  0  0  0  0  0
  128.8590  125.2960   72.0610 C   0  0  0  0  0  0  0  0  0  0  0  0
  130.0920  125.4090   72.8730 N   0  0  0  0  0  0  0  0  0  0  0  0
  130.4140  126.6940   73.2910 N   0  0  0  0  0  0  0  0  0  0  0  0
  131.4680  126.9280   74.0060 N   0  0  0  0  0  0  0  0  0  0  0  0
  132.3060  125.8730   74.3720 C   0  0  0  0  0  0  0  0  0  0  0  0
  133.4360  126.1590   75.1420 C   0  0  0  0  0  0  0  0  0  0  0  0
  134.2940  125.1260   75.5230 C   0  0  0  0  0  0  0  0  0  0  0  0
  134.0250  123.8110   75.1370 C   0  0  0  0  0  0  0  0  0  0  0  0
  132.8960  123.5230   74.3670 C   0  0  0  0  0  0  0  0  0  0  0  0
  132.0360  124.5590   73.9860 C   0  0  0  0  0  0  0  0  0  0  0  0
  130.8110  124.2680   73.1500 C   0  0  0  0  0  0  0  0  0  0  0  0
  130.5020  123.1400   72.7540 O   0  0  0  0  0  0  0  0  0  0  0  0
  129.1160  128.7520   68.4210 S   0  0  0  0  0  0  0  0  0  0  0  0
  129.1030  128.3670   66.6610 C   0  0  2  0  0  0  0  0  0  0  0  0
  127.6400  128.2720   66.1780 C   0  0  0  0  0  0  0  0  0  0  0  0
  129.9390  124.8450   65.3710 C   0  0  0  0  0  0  0  0  0  0  0  0
  129.7060  124.0340   64.2600 C   0  0  0  0  0  0  0  0  0  0  0  0
  129.1360  124.5790   63.1020 C   0  0  0  0  0  0  0  0  0  0  0  0
  131.2420  122.3310   61.5200 C   0  0  0  0  0  0  0  0  0  0  0  0
  132.3620  121.5190   61.3560 C   0  0  0  0  0  0  0  0  0  0  0  0
  1  2  1  0
  2  3  2  0
  3  4  1  0
  4  5  2  0
  5  6  1  0
  6  7  2  0
  6  8  1  0
  8  9  1  0
  9 10  1  0
 10 11  1  0
 11 12  2  0
 12 13  1  0
 14 13  1  6
 14 15  1  0
 15 16  2  0
 16 17  1  0
 17 18  1  0
 18 19  2  0
 18 20  1  0
 20 21  1  0
 21 22  1  0
 22 23  2  0
 23 24  1  0
 24 25  2  0
 25 26  1  0
 26 27  2  0
 27 28  1  0
 28 29  2  0
 29 30  1  0
 30 31  2  0
 16 32  1  0
 32 33  1  0
 33 34  1  1
 13 35  2  0
 35 36  1  0
 36 37  2  0
  5 38  1  0
 38 39  2  0
 39  2  1  0
 37  8  1  0
 37 11  1  0
 33 14  1  0
 30 21  1  0
 29 24  1  0
M  END
>  <Binding energies>  (47) 
[-10.91]

>  <Ligand effiencies>  (47) 
[-0.27275]

>  <Interactions>  (47) 
["V-A:HIS:456:CE1:4069, V-B:HIS:456:CE1:9040, V-A:HIS:456:CB:4065, V-A:HIS:456:CG:4066, H-B:LYS:547:NZ:9923, V-A:HIS:456:CD2:4068, H-A:LYS:547:NZ:4951, V-A:GLU:543:CG:4907, V-A:GLU:543:CB:4906, V-A:GLU:543:CD:4908, V-B:GLU:543:CB:9878, V-B:ALA:541:CB:9864, V-A:ILE:369:CD1:3239, V-B:GLU:543:CD:9880, V-A:LEU:475:CD1:4258, V-A:TRP:381:CH2:3372, V-B:TYR:539:CD2:9846, H-B:HIS:456:NE2:9041, V-A:ILE:369:CG2:3237, H-A:HIS:456:NE2:4070, V-B:GLU:543:CG:9879, H-B:ALA:541:N:9863, V-A:ASP:473:CG:4240, V-A:ASP:473:CB:4239, V-A:TRP:381:CZ2:3370, V-A:PRO:482:CG:4327, V-A:LYS:547:CD:4949, V-A:VAL:458:CG2:4087, V-A:HIS:456:C:4061"]

$$$$
RR26_Rahimova_2017
     RDKit          3D

 38 44  0  0  0  0  0  0  0  0999 V2000
  129.6450  126.7610   73.4840 C   0  0  0  0  0  0  0  0  0  0  0  0
  128.1550  126.9840   73.7080 C   0  0  0  0  0  0  0  0  0  0  0  0
  127.6840  127.0410   75.0250 C   0  0  0  0  0  0  0  0  0  0  0  0
  126.3380  127.2820   75.2890 C   0  0  0  0  0  0  0  0  0  0  0  0
  125.4490  127.4760   74.2360 C   0  0  0  0  0  0  0  0  0  0  0  0
  125.9050  127.4220   72.9210 C   0  0  0  0  0  0  0  0  0  0  0  0
  127.2560  127.1710   72.6350 C   0  0  0  0  0  0  0  0  0  0  0  0
  127.6620  127.1140   71.1910 C   0  0  0  0  0  0  0  0  0  0  0  0
  126.9510  126.4570   70.2780 N   0  0  0  0  0  0  0  0  0  0  0  0
  127.6410  126.6760   69.1900 C   0  0  0  0  0  0  0  0  0  0  0  0
  127.5070  126.2280   67.5300 S   0  0  0  0  0  0  0  0  0  0  0  0
  129.0150  127.1540   67.1830 C   0  0  0  0  0  0  0  0  0  0  0  0
  129.6390  127.3030   65.9930 C   0  0  0  0  0  0  0  0  0  0  0  0
  129.2480  126.7610   64.7020 C   0  0  0  0  0  0  0  0  0  0  0  0
  129.3330  125.4490   64.2620 C   0  0  0  0  0  0  0  0  0  0  0  0
  128.8100  125.3940   62.9950 N   0  0  0  0  0  0  0  0  0  0  0  0
  128.6790  124.2630   62.1480 C   0  0  0  0  0  0  0  0  0  0  0  0
  129.6180  123.2220   62.1890 C   0  0  0  0  0  0  0  0  0  0  0  0
  129.4790  122.1200   61.3500 C   0  0  0  0  0  0  0  0  0  0  0  0
  128.4010  122.0520   60.4720 C   0  0  0  0  0  0  0  0  0  0  0  0
  127.4590  123.0770   60.4240 C   0  0  0  0  0  0  0  0  0  0  0  0
  127.5960  124.1820   61.2590 C   0  0  0  0  0  0  0  0  0  0  0  0
  128.3720  126.6050   62.6200 N   0  0  0  0  0  0  0  0  0  0  0  0
  128.6300  127.4260   63.6190 C   0  0  0  0  0  0  0  0  0  0  0  0
  128.2660  128.8740   63.5070 C   0  0  0  0  0  0  0  0  0  0  0  0
  127.5560  129.5100   64.5370 C   0  0  0  0  0  0  0  0  0  0  0  0
  127.2090  130.8580   64.4410 C   0  0  0  0  0  0  0  0  0  0  0  0
  127.5700  131.5840   63.3080 C   0  0  0  0  0  0  0  0  0  0  0  0
  128.2960  130.9650   62.2790 C   0  0  0  0  0  0  0  0  0  0  0  0
  128.6360  129.6170   62.3750 C   0  0  0  0  0  0  0  0  0  0  0  0
  128.6370  131.6330   61.1190 O   0  0  0  0  0  0  0  0  0  0  0  0
  128.5950  133.0590   61.2310 C   0  0  0  0  0  0  0  0  0  0  0  0
  127.3090  133.5090   61.9680 C   0  0  0  0  0  0  0  0  0  0  0  0
  127.2500  132.9270   63.2750 O   0  0  0  0  0  0  0  0  0  0  0  0
  129.5730  127.7760   68.3800 C   0  0  0  0  0  0  0  0  0  0  0  0
  130.5860  128.4670   68.4970 O   0  0  0  0  0  0  0  0  0  0  0  0
  128.7180  127.4410   69.4420 N   0  0  0  0  0  0  0  0  0  0  0  0
  128.7410  127.7380   70.7440 N   0  0  0  0  0  0  0  0  0  0  0  0
  1  2  1  0
  2  3  2  0
  3  4  1  0
  4  5  2  0
  5  6  1  0
  6  7  2  0
  7  8  1  0
  8  9  1  0
  9 10  2  0
 10 11  1  0
 11 12  1  0
 12 13  2  0
 13 14  1  0
 14 15  2  0
 15 16  1  0
 16 17  1  0
 17 18  2  0
 18 19  1  0
 19 20  2  0
 20 21  1  0
 21 22  2  0
 16 23  1  0
 23 24  2  0
 24 25  1  0
 25 26  2  0
 26 27  1  0
 27 28  2  0
 28 29  1  0
 29 30  2  0
 29 31  1  0
 31 32  1  0
 32 33  1  0
 33 34  1  0
 12 35  1  0
 35 36  2  0
 35 37  1  0
 37 38  1  0
  7  2  1  0
 38  8  2  0
 37 10  1  0
 24 14  1  0
 30 25  1  0
 22 17  1  0
 34 28  1  0
M  END
>  <Binding energies>  (48) 
[-8.31]

>  <Ligand effiencies>  (48) 
[-0.21868421052631581]

>  <Interactions>  (48) 
["V-A:HIS:456:CE1:4069, V-B:HIS:456:CE1:9040, V-B:GLU:543:C:9874, V-B:HIS:456:CD2:9039, V-B:HIS:456:CB:9036, V-B:HIS:456:CG:9037, V-A:GLU:543:CG:4907, V-A:GLU:543:CD:4908, V-B:GLU:543:CB:9878, V-B:ALA:541:CB:9864, V-B:GLU:543:CD:9880, V-B:TYR:539:CD2:9846, V-B:GLY:544:C:9884, H-B:HIS:456:NE2:9041, H-A:HIS:456:NE2:4070, V-B:GLU:543:CA:9876, V-B:GLU:543:CG:9879, V-B:PRO:540:CA:9855, V-B:PRO:540:C:9853, V-A:PRO:540:CA:4883, V-A:ALA:541:CB:4892, V-B:LEU:475:CD1:9229, H-B:ARG:545:N:9892, V-B:LYS:547:CD:9921"]

$$$$
RR2_Rahimova_2017
     RDKit          3D

 46 50  0  0  0  0  0  0  0  0999 V2000
  134.0070  119.0870   60.7440 C   0  0  0  0  0  0  0  0  0  0  0  0
  132.7540  119.1290   60.0700 O   0  0  0  0  0  0  0  0  0  0  0  0
  131.8240  120.0850   60.4340 C   0  0  0  0  0  0  0  0  0  0  0  0
  132.1270  121.4330   60.6720 C   0  0  0  0  0  0  0  0  0  0  0  0
  131.1230  122.3240   61.0380 C   0  0  0  0  0  0  0  0  0  0  0  0
  129.7970  121.8920   61.1780 C   0  0  0  0  0  0  0  0  0  0  0  0
  128.7230  122.8820   61.5850 C   0  0  0  0  0  0  0  0  0  0  0  0
  127.5790  122.4900   61.8410 O   0  0  0  0  0  0  0  0  0  0  0  0
  129.1030  124.1800   61.6290 N   0  0  0  0  0  0  0  0  0  0  0  0
  128.1340  125.1380   61.9060 N   0  0  0  0  0  0  0  0  0  0  0  0
  128.2080  126.3230   61.2670 C   0  0  0  0  0  0  0  0  0  0  0  0
  129.1670  126.6990   60.5870 O   0  0  0  0  0  0  0  0  0  0  0  0
  126.9770  127.2280   61.4070 C   0  0  0  0  0  0  0  0  0  0  0  0
  127.3230  128.9160   62.0250 S   0  0  0  0  0  0  0  0  0  0  0  0
  127.0160  128.7010   63.7520 C   0  0  0  0  0  0  0  0  0  0  0  0
  126.0930  129.3640   64.4010 N   0  0  0  0  0  0  0  0  0  0  0  0
  126.1800  129.0010   65.7370 N   0  0  0  0  0  0  0  0  0  0  0  0
  127.1350  128.1070   65.8410 C   0  0  0  0  0  0  0  0  0  0  0  0
  127.5180  127.4610   67.1330 C   0  0  0  0  0  0  0  0  0  0  0  0
  128.8440  127.5140   67.5700 C   0  0  0  0  0  0  0  0  0  0  0  0
  129.2120  126.9090   68.7680 C   0  0  0  0  0  0  0  0  0  0  0  0
  128.2510  126.2580   69.5500 C   0  0  0  0  0  0  0  0  0  0  0  0
  128.5660  125.6220   70.7600 N   0  0  0  0  0  0  0  0  0  0  0  0
  128.8280  126.4590   72.3060 S   0  0  0  0  0  0  0  0  0  0  0  0
  127.6670  126.1340   73.1430 O   0  0  0  0  0  0  0  0  0  0  0  0
  129.1780  127.8540   72.0150 O   0  0  0  0  0  0  0  0  0  0  0  0
  130.2410  125.6460   73.0470 C   0  0  0  0  0  0  0  0  0  0  0  0
  131.0620  126.3270   73.9500 C   0  0  0  0  0  0  0  0  0  0  0  0
  132.1650  125.6820   74.5020 C   0  0  0  0  0  0  0  0  0  0  0  0
  132.4440  124.3570   74.1570 C   0  0  0  0  0  0  0  0  0  0  0  0
  133.6550  123.6600   74.7490 C   0  0  0  0  0  0  0  0  0  0  0  0
  131.6240  123.6800   73.2510 C   0  0  0  0  0  0  0  0  0  0  0  0
  130.5220  124.3240   72.6970 C   0  0  0  0  0  0  0  0  0  0  0  0
  126.9270  126.2080   69.1150 C   0  0  0  0  0  0  0  0  0  0  0  0
  126.5590  126.8080   67.9140 C   0  0  0  0  0  0  0  0  0  0  0  0
  127.7170  127.8700   64.6070 N   0  0  0  0  0  0  0  0  0  0  0  0
  128.7980  127.0200   64.2960 C   0  0  0  0  0  0  0  0  0  0  0  0
  129.8020  127.4570   63.4310 C   0  0  0  0  0  0  0  0  0  0  0  0
  130.8690  126.6150   63.1320 C   0  0  0  0  0  0  0  0  0  0  0  0
  130.9430  125.3370   63.6890 C   0  0  0  0  0  0  0  0  0  0  0  0
  132.0380  124.5740   63.3320 O   0  0  0  0  0  0  0  0  0  0  0  0
  133.2470  124.7030   64.0750 C   0  0  0  0  0  0  0  0  0  0  0  0
  129.9280  124.9060   64.5590 C   0  0  0  0  0  0  0  0  0  0  0  0
  128.8600  125.7450   64.8630 C   0  0  0  0  0  0  0  0  0  0  0  0
  129.5010  120.5420   60.9320 C   0  0  0  0  0  0  0  0  0  0  0  0
  130.5060  119.6530   60.5640 C   0  0  0  0  0  0  0  0  0  0  0  0
  1  2  1  0
  2  3  1  0
  3  4  2  0
  4  5  1  0
  5  6  2  0
  6  7  1  0
  7  8  2  0
  7  9  1  0
  9 10  1  0
 10 11  1  0
 11 12  2  0
 11 13  1  0
 13 14  1  0
 14 15  1  0
 15 16  2  0
 16 17  1  0
 17 18  2  0
 18 19  1  0
 19 20  2  0
 20 21  1  0
 21 22  2  0
 22 23  1  0
 23 24  1  0
 24 25  2  0
 24 26  2  0
 24 27  1  0
 27 28  2  0
 28 29  1  0
 29 30  2  0
 30 31  1  0
 30 32  1  0
 32 33  2  0
 22 34  1  0
 34 35  2  0
 18 36  1  0
 36 37  1  0
 37 38  2  0
 38 39  1  0
 39 40  2  0
 40 41  1  0
 41 42  1  0
 40 43  1  0
 43 44  2  0
  6 45  1  0
 45 46  2  0
 46  3  1  0
 36 15  1  0
 44 37  1  0
 35 19  1  0
 33 27  1  0
M  END
>  <Binding energies>  (49) 
[-9.34]

>  <Ligand effiencies>  (49) 
[-0.1906122448979592]

>  <Interactions>  (49) 
["V-A:HIS:456:CE1:4069, H-B:GLU:543:OE1:9881, V-B:HIS:456:CE1:9040, V-A:HIS:456:CB:4065, V-A:HIS:456:CG:4066, H-B:LYS:547:NZ:9923, V-B:GLU:543:C:9874, V-A:HIS:456:CD2:4068, H-B:GLY:544:O:9885, H-B:GLU:543:O:9875, V-A:GLU:543:CD:4908, V-B:GLU:543:CB:9878, V-B:ALA:541:CB:9864, V-A:ILE:369:CD1:3239, V-B:GLU:543:CD:9880, V-A:ARG:545:CZ:4926, V-A:LEU:475:CD1:4258, V-B:TYR:539:CE2:9848, V-A:TRP:381:CH2:3372, V-B:TYR:539:CD2:9846, V-B:GLY:544:C:9884, H-B:HIS:456:NE2:9041, H-B:TYR:484:OH:9319, V-A:ILE:369:CG2:3237, V-B:GLU:543:CG:9879, H-B:ALA:541:N:9863, V-A:SER:385:CA:3407, V-A:SER:385:C:3405, V-B:ARG:545:CG:9894, V-A:ASP:473:CG:4240, V-A:ASP:473:CB:4239, V-A:TRP:381:CZ2:3370, V-A:PRO:482:CG:4327, H-B:GLU:543:OE2:9882, V-B:ARG:545:CA:9891, H-B:ARG:545:NH2:9900, V-A:HIS:456:C:4061"]

$$$$
RR33_Rahimova_2017
     RDKit          3D

 18 19  0  0  0  0  0  0  0  0999 V2000
  125.8340  126.6400   74.2530 C   0  0  0  0  0  0  0  0  0  0  0  0
  127.3180  127.0160   74.2090 C   0  0  0  0  0  0  0  0  0  0  0  0
  128.0530  125.9170   73.6770 O   0  0  0  0  0  0  0  0  0  0  0  0
  128.3550  125.8930   72.3290 C   0  0  0  0  0  0  0  0  0  0  0  0
  127.7410  126.8620   71.5360 C   0  0  0  0  0  0  0  0  0  0  0  0
  127.9820  126.9140   70.1660 C   0  0  0  0  0  0  0  0  0  0  0  0
  128.8470  125.9930   69.5670 C   0  0  0  0  0  0  0  0  0  0  0  0
  129.1050  126.0490   68.0950 C   0  0  0  0  0  0  0  0  0  0  0  0
  129.7190  125.1540   67.3530 N   0  0  0  0  0  0  0  0  0  0  0  0
  129.7000  125.6470   66.1240 C   0  0  0  0  0  0  0  0  0  0  0  0
  130.3110  124.8810   64.9700 C   0  0  0  0  0  0  0  0  0  0  0  0
  130.6260  123.5170   65.3680 N   0  0  0  0  0  0  0  0  0  0  0  0
  129.5400  122.6170   65.0170 C   0  0  0  0  0  0  0  0  0  0  0  0
  129.0560  126.8780   66.1250 C   0  0  0  0  0  0  0  0  0  0  0  0
  128.7130  127.9100   65.0780 C   0  0  0  0  0  0  0  0  0  0  0  0
  128.6750  127.1330   67.3980 O   0  0  0  0  0  0  0  0  0  0  0  0
  129.4690  125.0230   70.3580 C   0  0  0  0  0  0  0  0  0  0  0  0
  129.2260  124.9700   71.7290 C   0  0  0  0  0  0  0  0  0  0  0  0
  1  2  1  0
  2  3  1  0
  3  4  1  0
  4  5  2  0
  5  6  1  0
  6  7  2  0
  7  8  1  0
  8  9  2  0
  9 10  1  0
 10 11  1  0
 11 12  1  0
 12 13  1  0
 10 14  2  0
 14 15  1  0
 14 16  1  0
  7 17  1  0
 17 18  2  0
 18  4  1  0
 16  8  1  0
M  END
>  <Binding energies>  (50) 
[-5.23]

>  <Ligand effiencies>  (50) 
[-0.2752631578947369]

>  <Interactions>  (50) 
["V-A:HIS:456:CE1:4069, V-A:TYR:484:CE1:4345, V-B:HIS:456:CE1:9040, H-B:LYS:547:NZ:9923, V-A:HIS:456:CD2:4068, V-A:GLU:543:CD:4908, V-B:GLU:543:CB:9878, V-B:ALA:541:CB:9864, H-A:TYR:484:OH:4348, V-B:GLY:544:C:9884, V-B:GLU:543:CA:9876, V-B:GLU:543:CG:9879, V-B:LYS:547:CE:9922, V-B:LYS:547:CD:9921"]

$$$$
RR3_Rahimova_2017
     RDKit          3D

 38 44  0  0  0  0  0  0  0  0999 V2000
  128.6820  127.7320   72.3440 C   0  0  0  0  0  0  0  0  0  0  0  0
  128.1070  126.5270   71.9540 C   0  0  0  0  0  0  0  0  0  0  0  0
  128.2250  126.1020   70.6340 C   0  0  0  0  0  0  0  0  0  0  0  0
  128.9180  126.8730   69.6890 C   0  0  0  0  0  0  0  0  0  0  0  0
  129.0450  126.4140   68.2690 C   0  0  0  0  0  0  0  0  0  0  0  0
  128.7250  127.2680   67.2050 C   0  0  0  0  0  0  0  0  0  0  0  0
  128.8400  126.8400   65.8850 C   0  0  0  0  0  0  0  0  0  0  0  0
  129.2720  125.5420   65.6000 C   0  0  0  0  0  0  0  0  0  0  0  0
  129.3930  125.0740   64.1830 C   0  0  0  0  0  0  0  0  0  0  0  0
  129.6820  123.8030   63.9260 N   0  0  0  0  0  0  0  0  0  0  0  0
  129.6790  123.6750   62.6210 C   0  0  0  0  0  0  0  0  0  0  0  0
  129.9490  122.4360   61.8970 C   0  0  0  0  0  0  0  0  0  0  0  0
  129.0040  121.6400   61.2710 C   0  0  0  0  0  0  0  0  0  0  0  0
  129.6090  120.5610   60.6820 N   0  0  0  0  0  0  0  0  0  0  0  0
  130.9680  120.6080   60.9020 C   0  0  0  0  0  0  0  0  0  0  0  0
  131.9880  119.7380   60.5020 C   0  0  0  0  0  0  0  0  0  0  0  0
  133.2870  120.0660   60.8900 C   0  0  0  0  0  0  0  0  0  0  0  0
  133.5640  121.2030   61.6400 C   0  0  0  0  0  0  0  0  0  0  0  0
  132.5480  122.0710   62.0380 C   0  0  0  0  0  0  0  0  0  0  0  0
  131.2200  121.7860   61.6730 C   0  0  0  0  0  0  0  0  0  0  0  0
  129.3930  124.8660   62.0130 N   0  0  0  0  0  0  0  0  0  0  0  0
  129.2230  125.8060   62.9960 C   0  0  0  0  0  0  0  0  0  0  0  0
  128.9550  127.2460   62.7030 C   0  0  0  0  0  0  0  0  0  0  0  0
  127.8040  127.8590   63.1990 C   0  0  0  0  0  0  0  0  0  0  0  0
  127.5450  129.1970   62.9170 C   0  0  0  0  0  0  0  0  0  0  0  0
  128.4310  129.9540   62.1380 C   0  0  0  0  0  0  0  0  0  0  0  0
  128.1390  131.3870   61.8210 C   0  0  0  0  0  0  0  0  0  0  0  0
  127.4770  132.2080   62.7460 C   0  0  0  0  0  0  0  0  0  0  0  0
  127.2090  133.5440   62.4520 C   0  0  0  0  0  0  0  0  0  0  0  0
  127.6030  134.0730   61.2270 C   0  0  0  0  0  0  0  0  0  0  0  0
  128.2620  133.2770   60.2960 C   0  0  0  0  0  0  0  0  0  0  0  0
  128.5270  131.9430   60.5920 C   0  0  0  0  0  0  0  0  0  0  0  0
  129.5930  129.3310   61.6610 C   0  0  0  0  0  0  0  0  0  0  0  0
  129.8550  127.9930   61.9410 C   0  0  0  0  0  0  0  0  0  0  0  0
  129.6060  124.6880   66.6530 C   0  0  0  0  0  0  0  0  0  0  0  0
  129.4890  125.1190   67.9720 C   0  0  0  0  0  0  0  0  0  0  0  0
  129.4880  128.0850   70.1050 C   0  0  0  0  0  0  0  0  0  0  0  0
  129.3730  128.5130   71.4250 C   0  0  0  0  0  0  0  0  0  0  0  0
  1  2  2  0
  2  3  1  0
  3  4  2  0
  4  5  1  0
  5  6  2  0
  6  7  1  0
  7  8  2  0
  8  9  1  0
  9 10  1  0
 10 11  2  0
 11 12  1  0
 12 13  2  0
 13 14  1  0
 14 15  1  0
 15 16  2  0
 16 17  1  0
 17 18  2  0
 18 19  1  0
 19 20  2  0
 11 21  1  0
 21 22  1  0
 22 23  1  0
 23 24  2  0
 24 25  1  0
 25 26  2  0
 26 27  1  0
 27 28  2  0
 28 29  1  0
 29 30  2  0
 30 31  1  0
 31 32  2  0
 26 33  1  0
 33 34  2  0
  8 35  1  0
 35 36  2  0
  4 37  1  0
 37 38  2  0
 38  1  1  0
 36  5  1  0
 22  9  2  0
 34 23  1  0
 20 12  1  0
 32 27  1  0
 20 15  1  0
M  END
>  <Binding energies>  (51) 
[-9.87]

>  <Ligand effiencies>  (51) 
[-0.24674999999999997]

>  <Interactions>  (51) 
["V-A:HIS:456:CE1:4069, V-A:TYR:484:CZ:4347, V-A:TYR:484:CE1:4345, V-B:HIS:456:CE1:9040, V-B:GLU:543:C:9874, V-A:HIS:456:CD2:4068, V-B:HIS:456:CD2:9039, V-A:GLU:543:CD:4908, V-B:GLU:543:CB:9878, V-B:ALA:541:CB:9864, V-A:ILE:369:CD1:3239, V-B:GLU:543:CD:9880, V-B:ALA:541:CA:9862, V-A:LEU:475:CD1:4258, V-B:TYR:539:CE2:9848, V-A:TRP:381:CH2:3372, H-B:TYR:539:O:9840, V-B:TYR:539:CD2:9846, V-B:GLY:544:C:9884, V-A:ILE:369:CG2:3237, V-B:GLU:543:CA:9876, V-B:GLU:543:CG:9879, V-A:TRP:381:CZ2:3370, V-A:PRO:540:CA:4883, V-A:ALA:541:CB:4892, V-B:LEU:475:CD1:9229, V-A:TYR:539:CD2:4874, V-A:TYR:539:CE2:4876, V-A:TYR:539:C:4867"]

$$$$
RR4_Rahimova_2017
     RDKit          3D

 40 44  0  0  0  0  0  0  0  0999 V2000
  129.3890  126.2530   74.7360 C   0  0  0  0  0  0  0  0  0  0  0  0
  128.3280  125.8710   73.8690 O   0  0  0  0  0  0  0  0  0  0  0  0
  128.5130  125.9470   72.5020 C   0  0  0  0  0  0  0  0  0  0  0  0
  127.8300  126.9610   71.8340 C   0  0  0  0  0  0  0  0  0  0  0  0
  127.9580  127.1160   70.4570 C   0  0  0  0  0  0  0  0  0  0  0  0
  128.7710  126.2560   69.7050 C   0  0  0  0  0  0  0  0  0  0  0  0
  128.9060  126.4240   68.2190 C   0  0  0  0  0  0  0  0  0  0  0  0
  129.8440  125.7200   67.4580 C   0  0  0  0  0  0  0  0  0  0  0  0
  129.9280  125.9090   66.0720 C   0  0  0  0  0  0  0  0  0  0  0  0
  130.9350  125.1000   65.3220 C   0  0  0  0  0  0  0  0  0  0  0  0
  130.5280  123.9960   64.5670 C   0  0  0  0  0  0  0  0  0  0  0  0
  131.4590  123.2440   63.8560 C   0  0  0  0  0  0  0  0  0  0  0  0
  132.8110  123.5830   63.8790 C   0  0  0  0  0  0  0  0  0  0  0  0
  133.6610  122.7810   63.1420 O   0  0  0  0  0  0  0  0  0  0  0  0
  133.9900  123.1570   61.8090 C   0  0  0  0  0  0  0  0  0  0  0  0
  133.2240  124.6940   64.6310 C   0  0  0  0  0  0  0  0  0  0  0  0
  132.2910  125.4450   65.3410 C   0  0  0  0  0  0  0  0  0  0  0  0
  129.0600  126.8510   65.4660 C   0  0  0  0  0  0  0  0  0  0  0  0
  129.1050  127.0870   64.0200 C   0  0  0  0  0  0  0  0  0  0  0  0
  129.1400  127.2730   62.8790 N   0  0  0  0  0  0  0  0  0  0  0  0
  128.1560  127.5490   66.2990 C   0  0  0  0  0  0  0  0  0  0  0  0
  127.0050  128.7740   65.7140 S   0  0  0  0  0  0  0  0  0  0  0  0
  127.9670  130.1180   64.9420 C   0  0  0  0  0  0  0  0  0  0  0  0
  127.6420  130.3660   63.4630 C   0  0  0  0  0  0  0  0  0  0  0  0
  126.4750  130.3450   63.0660 O   0  0  0  0  0  0  0  0  0  0  0  0
  128.7210  130.5850   62.6760 N   0  0  0  0  0  0  0  0  0  0  0  0
  128.7570  130.8410   61.3030 C   0  0  0  0  0  0  0  0  0  0  0  0
  127.3700  130.6440   60.2650 S   0  0  0  0  0  0  0  0  0  0  0  0
  128.2760  131.1370   58.8670 C   0  0  0  0  0  0  0  0  0  0  0  0
  129.6070  131.4400   59.1950 C   0  0  0  0  0  0  0  0  0  0  0  0
  129.8730  131.2860   60.5780 C   0  0  0  0  0  0  0  0  0  0  0  0
  131.1750  131.5560   61.1800 C   0  0  0  0  0  0  0  0  0  0  0  0
  132.2070  131.7700   61.6580 N   0  0  0  0  0  0  0  0  0  0  0  0
  130.6010  131.9370   58.1390 C   0  0  0  0  0  0  0  0  0  0  0  0
  129.8560  132.4150   56.8720 C   0  0  0  0  0  0  0  0  0  0  0  0
  128.7660  131.4230   56.4300 C   0  0  0  0  0  0  0  0  0  0  0  0
  127.6500  131.2810   57.4860 C   0  0  0  0  0  0  0  0  0  0  0  0
  128.0750  127.3230   67.6310 N   0  0  0  0  0  0  0  0  0  0  0  0
  129.4580  125.2400   70.3870 C   0  0  0  0  0  0  0  0  0  0  0  0
  129.3330  125.0820   71.7650 C   0  0  0  0  0  0  0  0  0  0  0  0
  1  2  1  0
  2  3  1  0
  3  4  2  0
  4  5  1  0
  5  6  2  0
  6  7  1  0
  7  8  2  0
  8  9  1  0
  9 10  1  0
 10 11  2  0
 11 12  1  0
 12 13  2  0
 13 14  1  0
 14 15  1  0
 13 16  1  0
 16 17  2  0
  9 18  2  0
 18 19  1  0
 19 20  3  0
 18 21  1  0
 21 22  1  0
 22 23  1  0
 23 24  1  0
 24 25  2  0
 24 26  1  0
 26 27  1  0
 27 28  1  0
 28 29  1  0
 29 30  2  0
 30 31  1  0
 31 32  1  0
 32 33  3  0
 30 34  1  0
 34 35  1  0
 35 36  1  0
 36 37  1  0
 21 38  2  0
  6 39  1  0
 39 40  2  0
 40  3  1  0
 38  7  1  0
 17 10  1  0
 31 27  2  0
 37 29  1  0
M  END
>  <Binding energies>  (52) 
[-10.41]

>  <Ligand effiencies>  (52) 
[-0.25390243902439025]

>  <Interactions>  (52) 
["V-A:HIS:456:CE1:4069, V-B:HIS:456:CE1:9040, H-B:LYS:547:NZ:9923, V-A:HIS:456:CD2:4068, V-A:GLU:543:CB:4906, V-A:GLU:543:CD:4908, V-A:ILE:369:CD1:3239, H-A:GLY:454:N:4050, V-B:GLU:543:CD:9880, V-A:ARG:545:CZ:4926, V-A:LEU:475:CD1:4258, V-A:GLY:454:CA:4049, H-B:TYR:484:OH:9319, V-A:PRO:540:CA:4883, V-A:PRO:540:CB:4885, V-A:TYR:539:CE2:4876, V-A:TYR:539:C:4867, H-A:GLU:543:OE1:4909, V-A:TYR:539:CZ:4877, V-A:TYR:539:CE1:4875, V-A:PRO:540:C:4881, V-A:TYR:539:CD1:4873, V-A:PRO:540:N:4884, H-A:ALA:541:N:4891"]

$$$$
RR6_Rahimova_2017
     RDKit          3D

 38 41  0  0  0  0  0  0  0  0999 V2000
  132.1930  130.9290   56.4300 C   0  0  0  0  0  0  0  0  0  0  0  0
  131.8570  131.9200   57.3910 O   0  0  0  0  0  0  0  0  0  0  0  0
  130.5650  132.2820   57.6000 C   0  0  0  0  0  0  0  0  0  0  0  0
  129.8720  132.8490   56.7480 O   0  0  0  0  0  0  0  0  0  0  0  0
  130.0620  131.9250   58.9680 C   0  0  0  0  0  0  0  0  0  0  0  0
  128.9930  132.6060   59.5690 C   0  0  0  0  0  0  0  0  0  0  0  0
  128.5540  132.2550   60.8430 C   0  0  0  0  0  0  0  0  0  0  0  0
  129.1830  131.2140   61.5430 C   0  0  0  0  0  0  0  0  0  0  0  0
  128.8390  130.7980   62.8420 N   0  0  0  0  0  0  0  0  0  0  0  0
  128.2220  131.4880   63.8270 C   0  0  0  0  0  0  0  0  0  0  0  0
  127.8270  132.6510   63.7440 O   0  0  0  0  0  0  0  0  0  0  0  0
  128.0740  130.7480   65.1600 C   0  0  0  0  0  0  0  0  0  0  0  0
  127.2740  129.1160   65.0090 S   0  0  0  0  0  0  0  0  0  0  0  0
  128.3820  127.9310   65.7430 C   0  0  0  0  0  0  0  0  0  0  0  0
  128.3570  127.9080   67.0970 N   0  0  0  0  0  0  0  0  0  0  0  0
  129.1370  127.0260   67.7710 C   0  0  0  0  0  0  0  0  0  0  0  0
  129.0040  127.0230   69.2650 C   0  0  0  0  0  0  0  0  0  0  0  0
  128.4030  125.9460   69.9350 C   0  0  0  0  0  0  0  0  0  0  0  0
  128.2680  125.9490   71.3210 C   0  0  0  0  0  0  0  0  0  0  0  0
  128.7370  127.0310   72.0650 C   0  0  0  0  0  0  0  0  0  0  0  0
  128.5790  127.0350   73.5750 C   0  0  0  0  0  0  0  0  0  0  0  0
  129.3380  128.1090   71.4190 C   0  0  0  0  0  0  0  0  0  0  0  0
  129.4710  128.1000   70.0350 C   0  0  0  0  0  0  0  0  0  0  0  0
  129.9790  126.1460   67.0830 C   0  0  0  0  0  0  0  0  0  0  0  0
  130.0260  126.1530   65.6820 C   0  0  0  0  0  0  0  0  0  0  0  0
  130.9330  125.1740   65.0110 C   0  0  0  0  0  0  0  0  0  0  0  0
  132.3080  125.4200   64.9470 C   0  0  0  0  0  0  0  0  0  0  0  0
  133.1630  124.5060   64.3370 C   0  0  0  0  0  0  0  0  0  0  0  0
  132.6630  123.3270   63.7870 C   0  0  0  0  0  0  0  0  0  0  0  0
  133.5850  122.4780   63.2050 O   0  0  0  0  0  0  0  0  0  0  0  0
  134.1270  122.8100   61.9320 C   0  0  0  0  0  0  0  0  0  0  0  0
  131.2850  123.0720   63.8540 C   0  0  0  0  0  0  0  0  0  0  0  0
  130.4330  123.9890   64.4640 C   0  0  0  0  0  0  0  0  0  0  0  0
  129.2090  127.0770   64.9850 C   0  0  0  0  0  0  0  0  0  0  0  0
  129.2310  127.1570   63.5210 C   0  0  0  0  0  0  0  0  0  0  0  0
  129.2480  127.2190   62.3660 N   0  0  0  0  0  0  0  0  0  0  0  0
  130.2350  130.5230   60.9420 C   0  0  0  0  0  0  0  0  0  0  0  0
  130.6750  130.8770   59.6690 C   0  0  0  0  0  0  0  0  0  0  0  0
  1  2  1  0
  2  3  1  0
  3  4  2  0
  3  5  1  0
  5  6  2  0
  6  7  1  0
  7  8  2  0
  8  9  1  0
  9 10  1  0
 10 11  2  0
 10 12  1  0
 12 13  1  0
 13 14  1  0
 14 15  2  0
 15 16  1  0
 16 17  1  0
 17 18  2  0
 18 19  1  0
 19 20  2  0
 20 21  1  0
 20 22  1  0
 22 23  2  0
 16 24  2  0
 24 25  1  0
 25 26  1  0
 26 27  2  0
 27 28  1  0
 28 29  2  0
 29 30  1  0
 30 31  1  0
 29 32  1  0
 32 33  2  0
 25 34  2  0
 34 35  1  0
 35 36  3  0
  8 37  1  0
 37 38  2  0
 38  5  1  0
 34 14  1  0
 23 17  1  0
 33 26  1  0
M  END
>  <Binding energies>  (53) 
[-8.84]

>  <Ligand effiencies>  (53) 
[-0.22666666666666666]

>  <Interactions>  (53) 
["V-A:HIS:456:CE1:4069, V-B:HIS:456:CE1:9040, V-B:GLU:543:C:9874, V-A:HIS:456:CD2:4068, V-B:HIS:456:CD2:9039, V-A:GLU:543:CB:4906, V-A:GLU:543:CD:4908, V-A:ILE:369:CD1:3239, H-A:GLY:454:N:4050, V-A:ARG:545:CZ:4926, V-A:LEU:475:CD1:4258, V-A:GLY:454:CA:4049, V-B:GLY:544:C:9884, V-A:PRO:540:CA:4883, V-A:PRO:540:CB:4885, V-A:ALA:541:CB:4892, V-A:TYR:539:C:4867, V-A:LEU:363:CD1:3189, H-A:GLU:543:OE1:4909, V-A:PRO:540:N:4884, V-A:TYR:531:CE2:4793, H-A:TYR:539:N:4870, V-A:PRO:540:CD:4887"]

$$$$
RR7_Rahimova_2017
     RDKit          3D

 47 53  0  0  0  0  0  0  0  0999 V2000
  134.5550  118.3660   59.9160 C   0  0  0  0  0  0  0  0  0  0  0  0
  133.5800  118.5850   60.9320 O   0  0  0  0  0  0  0  0  0  0  0  0
  132.7990  119.7240   60.8810 C   0  0  0  0  0  0  0  0  0  0  0  0
  133.4380  120.9300   61.1600 C   0  0  0  0  0  0  0  0  0  0  0  0
  132.7350  122.1300   61.1280 C   0  0  0  0  0  0  0  0  0  0  0  0
  131.3650  122.1500   60.8260 C   0  0  0  0  0  0  0  0  0  0  0  0
  130.5580  123.4830   60.7510 C   0  0  0  0  0  0  0  0  0  0  0  0
  130.7110  124.1250   62.0370 O   0  0  0  0  0  0  0  0  0  0  0  0
  130.6050  125.5480   62.1450 C   0  0  0  0  0  0  0  0  0  0  0  0
  129.1480  125.9190   62.4630 C   0  0  1  0  0  0  0  0  0  0  0  0
  128.8660  125.4070   63.7630 O   0  0  0  0  0  0  0  0  0  0  0  0
  128.4780  126.4160   64.6500 C   0  0  1  0  0  0  0  0  0  0  0  0
  128.9330  126.1030   65.9920 N   0  0  0  0  0  0  0  0  0  0  0  0
  130.0910  125.4460   66.3680 C   0  0  0  0  0  0  0  0  0  0  0  0
  130.2330  125.2530   67.6560 N   0  0  0  0  0  0  0  0  0  0  0  0
  129.0840  125.7670   68.1920 C   0  0  0  0  0  0  0  0  0  0  0  0
  128.6190  125.8540   69.5190 C   0  0  0  0  0  0  0  0  0  0  0  0
  129.4320  125.3540   70.5530 N   0  0  0  0  0  0  0  0  0  0  0  0
  129.1630  125.2550   71.8770 C   0  0  0  0  0  0  0  0  0  0  0  0
  128.1110  125.6270   72.4010 O   0  0  0  0  0  0  0  0  0  0  0  0
  130.2700  124.6700   72.7280 C   0  0  0  0  0  0  0  0  0  0  0  0
  130.7860  125.4140   73.8010 C   0  0  0  0  0  0  0  0  0  0  0  0
  131.8000  124.8930   74.6000 C   0  0  0  0  0  0  0  0  0  0  0  0
  132.3040  123.6240   74.3370 C   0  0  0  0  0  0  0  0  0  0  0  0
  131.8030  122.8680   73.2800 C   0  0  0  0  0  0  0  0  0  0  0  0
  130.7890  123.3890   72.4790 C   0  0  0  0  0  0  0  0  0  0  0  0
  127.3970  126.4160   69.7630 N   0  0  0  0  0  0  0  0  0  0  0  0
  126.6820  126.8660   68.6990 C   0  0  0  0  0  0  0  0  0  0  0  0
  127.0350  126.8360   67.3860 N   0  0  0  0  0  0  0  0  0  0  0  0
  128.2390  126.2870   67.1780 C   0  0  0  0  0  0  0  0  0  0  0  0
  129.0440  127.7050   64.0640 C   0  0  0  0  0  0  0  0  0  0  0  0
  128.8720  127.4250   62.5810 C   0  0  2  0  0  0  0  0  0  0  0  0
  127.5780  127.7750   62.1200 O   0  0  0  0  0  0  0  0  0  0  0  0
  131.1280  124.4590   59.6870 C   0  0  0  0  0  0  0  0  0  0  0  0
  130.3960  125.5950   59.3040 C   0  0  0  0  0  0  0  0  0  0  0  0
  130.8910  126.4690   58.3420 C   0  0  0  0  0  0  0  0  0  0  0  0
  132.1240  126.2150   57.7500 C   0  0  0  0  0  0  0  0  0  0  0  0
  132.8660  125.0950   58.1130 C   0  0  0  0  0  0  0  0  0  0  0  0
  132.3700  124.2210   59.0760 C   0  0  0  0  0  0  0  0  0  0  0  0
  129.0450  123.3410   60.4200 C   0  0  0  0  0  0  0  0  0  0  0  0
  128.6160  123.2450   59.0860 C   0  0  0  0  0  0  0  0  0  0  0  0
  127.2640  123.1270   58.7790 C   0  0  0  0  0  0  0  0  0  0  0  0
  126.3230  123.1130   59.8050 C   0  0  0  0  0  0  0  0  0  0  0  0
  126.7250  123.2200   61.1330 C   0  0  0  0  0  0  0  0  0  0  0  0
  128.0770  123.3380   61.4380 C   0  0  0  0  0  0  0  0  0  0  0  0
  130.7300  120.9340   60.5320 C   0  0  0  0  0  0  0  0  0  0  0  0
  131.4340  119.7340   60.5630 C   0  0  0  0  0  0  0  0  0  0  0  0
  1  2  1  0
  2  3  1  0
  3  4  2  0
  4  5  1  0
  5  6  2  0
  6  7  1  0
  7  8  1  0
  8  9  1  0
 10  9  1  1
 10 11  1  0
 11 12  1  0
 12 13  1  1
 13 14  1  0
 14 15  2  0
 15 16  1  0
 16 17  2  0
 17 18  1  0
 18 19  1  0
 19 20  2  0
 19 21  1  0
 21 22  2  0
 22 23  1  0
 23 24  2  0
 24 25  1  0
 25 26  2  0
 17 27  1  0
 27 28  2  0
 28 29  1  0
 29 30  2  0
 12 31  1  0
 31 32  1  0
 32 33  1  1
  7 34  1  0
 34 35  2  0
 35 36  1  0
 36 37  2  0
 37 38  1  0
 38 39  2  0
  7 40  1  0
 40 41  2  0
 41 42  1  0
 42 43  2  0
 43 44  1  0
 44 45  2  0
  6 46  1  0
 46 47  2  0
 47  3  1  0
 32 10  1  0
 39 34  1  0
 45 40  1  0
 30 13  1  0
 30 16  1  0
 26 21  1  0
M  END
>  <Binding energies>  (54) 
[-8.8]

>  <Ligand effiencies>  (54) 
[-0.1795918367346939]

>  <Interactions>  (54) 
["V-A:HIS:456:CE1:4069, H-B:GLU:543:OE1:9881, V-B:HIS:456:CE1:9040, V-A:HIS:456:CB:4065, V-A:HIS:456:CG:4066, V-A:TYR:484:CD2:4344, H-B:LYS:547:NZ:9923, V-B:GLU:543:C:9874, V-A:HIS:456:CD2:4068, H-B:GLU:543:O:9875, V-A:GLU:543:CD:4908, V-B:GLU:543:CB:9878, H-A:TYR:484:OH:4348, V-A:ILE:369:CD1:3239, V-B:GLU:543:CD:9880, V-A:LEU:475:CD1:4258, V-B:TYR:539:CE2:9848, V-A:TRP:381:CH2:3372, V-B:TYR:539:CD2:9846, V-A:ASP:366:CG:3213, V-B:GLY:544:C:9884, V-A:ASP:366:CB:3212, H-A:HIS:456:ND1:4067, V-A:ILE:369:CG2:3237, V-A:ASP:366:CA:3210, H-A:HIS:456:NE2:4070, V-B:GLU:543:CG:9879, V-B:PRO:540:CB:9857, V-B:PRO:540:N:9856, V-B:PRO:540:CA:9855, V-B:PRO:540:C:9853, V-A:SER:385:CA:3407, V-A:SER:385:C:3405, V-B:ARG:545:CG:9894, V-A:ASP:473:CG:4240, V-A:ASP:473:CB:4239, V-A:TRP:381:CZ2:3370, H-B:GLU:543:OE2:9882, V-B:ARG:545:CA:9891"]

$$$$
RR8_A_Rahimova_2017
     RDKit          3D

 42 46  0  0  0  0  0  0  0  0999 V2000
  127.9890  121.8650   59.4950 O   0  0  0  0  0  0  0  0  0  0  0  0
  128.6170  121.8220   60.5590 C   0  0  0  0  0  0  0  0  0  0  0  0
  128.2250  122.4430   61.7140 O   0  0  0  0  0  0  0  0  0  0  0  0
  129.0540  123.4530   62.2210 C   0  0  1  0  0  0  0  0  0  0  0  0
  128.4820  124.7190   62.0600 O   0  0  0  0  0  0  0  0  0  0  0  0
  128.7360  125.5610   63.1810 C   0  0  2  0  0  0  0  0  0  0  0  0
  129.4150  126.8490   62.6830 C   0  0  0  0  0  0  0  0  0  0  0  0
  130.6670  126.5120   62.1030 O   0  0  0  0  0  0  0  0  0  0  0  0
  130.8940  127.1060   60.8320 C   0  0  0  0  0  0  0  0  0  0  0  0
  131.6290  126.1270   59.9280 C   0  0  0  0  0  0  0  0  0  0  0  0
  131.7130  126.3740   58.5550 C   0  0  0  0  0  0  0  0  0  0  0  0
  132.3910  125.4820   57.7270 C   0  0  0  0  0  0  0  0  0  0  0  0
  132.9860  124.3470   58.2750 C   0  0  0  0  0  0  0  0  0  0  0  0
  132.9120  124.0970   59.6430 C   0  0  0  0  0  0  0  0  0  0  0  0
  132.2360  124.9890   60.4710 C   0  0  0  0  0  0  0  0  0  0  0  0
  129.5850  124.6850   64.1110 C   0  0  1  0  0  0  0  0  0  0  0  0
  129.2660  124.8570   65.4900 O   0  0  0  0  0  0  0  0  0  0  0  0
  128.8870  126.1730   65.8760 C   0  0  0  0  0  0  0  0  0  0  0  0
  128.4890  126.1900   67.3450 C   0  0  0  0  0  0  0  0  0  0  0  0
  127.2030  126.5970   67.7100 C   0  0  0  0  0  0  0  0  0  0  0  0
  126.8350  126.6230   69.0520 C   0  0  0  0  0  0  0  0  0  0  0  0
  127.7560  126.2460   70.0290 C   0  0  0  0  0  0  0  0  0  0  0  0
  129.0420  125.8460   69.6740 C   0  0  0  0  0  0  0  0  0  0  0  0
  129.4110  125.8210   68.3320 C   0  0  0  0  0  0  0  0  0  0  0  0
  129.1810  123.2730   63.7270 C   0  0  2  0  0  0  0  0  0  0  0  0
  130.1890  122.3410   64.1100 O   0  0  0  0  0  0  0  0  0  0  0  0
  131.2430  122.8650   64.9090 C   0  0  0  0  0  0  0  0  0  0  0  0
  132.4160  123.2610   64.0250 C   0  0  0  0  0  0  0  0  0  0  0  0
  132.9420  124.5550   64.0910 C   0  0  0  0  0  0  0  0  0  0  0  0
  134.0220  124.9100   63.2870 C   0  0  0  0  0  0  0  0  0  0  0  0
  134.5770  123.9690   62.4220 C   0  0  0  0  0  0  0  0  0  0  0  0
  134.0630  122.6760   62.3550 C   0  0  0  0  0  0  0  0  0  0  0  0
  132.9820  122.3200   63.1590 C   0  0  0  0  0  0  0  0  0  0  0  0
  129.9010  121.0610   60.7180 C   0  0  0  0  0  0  0  0  0  0  0  0
  131.1220  121.5570   60.2350 C   0  0  0  0  0  0  0  0  0  0  0  0
  132.2960  120.8270   60.3980 C   0  0  0  0  0  0  0  0  0  0  0  0
  132.2810  119.5840   61.0440 C   0  0  0  0  0  0  0  0  0  0  0  0
  133.5330  118.8080   61.2170 N   0  0  0  0  0  0  0  0  0  0  0  0
  134.5040  119.0930   60.5220 O   0  0  0  0  0  0  0  0  0  0  0  0
  133.5560  117.9070   62.0510 O   0  0  0  0  0  0  0  0  0  0  0  0
  131.0620  119.0890   61.5230 C   0  0  0  0  0  0  0  0  0  0  0  0
  129.8870  119.8170   61.3620 C   0  0  0  0  0  0  0  0  0  0  0  0
  1  2  2  0
  2  3  1  0
  4  3  1  1
  4  5  1  0
  5  6  1  0
  6  7  1  6
  7  8  1  0
  8  9  1  0
  9 10  1  0
 10 11  2  0
 11 12  1  0
 12 13  2  0
 13 14  1  0
 14 15  2  0
  6 16  1  0
 16 17  1  1
 17 18  1  0
 18 19  1  0
 19 20  2  0
 20 21  1  0
 21 22  2  0
 22 23  1  0
 23 24  2  0
 16 25  1  0
 25 26  1  6
 26 27  1  0
 27 28  1  0
 28 29  2  0
 29 30  1  0
 30 31  2  0
 31 32  1  0
 32 33  2  0
  2 34  1  0
 34 35  2  0
 35 36  1  0
 36 37  2  0
 37 38  1  0
 38 39  2  0
 38 40  1  0
 37 41  1  0
 41 42  2  0
 25  4  1  0
 33 28  1  0
 42 34  1  0
 15 10  1  0
 24 19  1  0
M  CHG  2  38   1  40  -1
M  END
>  <Binding energies>  (55) 
[-8.83]

>  <Ligand effiencies>  (55) 
[-0.21023809523809525]

>  <Interactions>  (55) 
["V-A:HIS:456:CE1:4069, V-A:TYR:484:CZ:4347, V-A:TYR:484:CE1:4345, V-B:HIS:456:CE1:9040, V-B:GLU:543:C:9874, V-B:GLU:543:CB:9878, V-B:ALA:541:CB:9864, V-A:ILE:369:CD1:3239, V-B:GLU:543:CD:9880, V-A:ARG:545:CZ:4926, V-A:LEU:475:CD1:4258, V-B:TYR:539:CE2:9848, V-A:GLY:454:CA:4049, V-A:TRP:381:CH2:3372, V-A:GLY:453:C:4042, V-B:TYR:539:CD2:9846, H-A:ARG:545:NH2:4928, V-A:ASP:366:CG:3213, V-B:GLY:544:C:9884, V-A:ASP:366:CB:3212, V-A:ILE:369:CG2:3237, V-A:ASP:366:CA:3210, V-B:TYR:539:CZ:9849, V-B:GLU:543:CG:9879, V-B:PRO:540:CA:9855, V-A:GLY:453:CA:4044, H-B:ALA:541:N:9863, V-B:PRO:540:C:9853, V-A:SER:385:CA:3407, V-A:SER:385:C:3405, V-A:PRO:482:CB:4326, V-A:TRP:381:CZ2:3370, V-A:PRO:482:CG:4327, V-B:ARG:545:CA:9891"]

$$$$
RR8_B_Rahimova_2017
     RDKit          3D

 42 46  0  0  0  0  0  0  0  0999 V2000
  128.5170  127.9540   65.9830 O   0  0  0  0  0  0  0  0  0  0  0  0
  128.7140  126.7610   66.2310 C   0  0  0  0  0  0  0  0  0  0  0  0
  128.7950  125.7780   65.2840 O   0  0  0  0  0  0  0  0  0  0  0  0
  129.8210  125.8630   64.3250 C   0  0  2  0  0  0  0  0  0  0  0  0
  129.5460  126.8300   63.3510 O   0  0  0  0  0  0  0  0  0  0  0  0
  128.8610  126.2650   62.2340 C   0  0  2  0  0  0  0  0  0  0  0  0
  127.5160  126.9870   62.0360 C   0  0  0  0  0  0  0  0  0  0  0  0
  127.2440  127.0960   60.6450 O   0  0  0  0  0  0  0  0  0  0  0  0
  126.2140  126.2410   60.1680 C   0  0  0  0  0  0  0  0  0  0  0  0
  126.8330  125.1240   59.3420 C   0  0  0  0  0  0  0  0  0  0  0  0
  126.1410  123.9210   59.1740 C   0  0  0  0  0  0  0  0  0  0  0  0
  126.7120  122.8840   58.4400 C   0  0  0  0  0  0  0  0  0  0  0  0
  127.9740  123.0560   57.8740 C   0  0  0  0  0  0  0  0  0  0  0  0
  128.6660  124.2540   58.0310 C   0  0  0  0  0  0  0  0  0  0  0  0
  128.0970  125.2900   58.7690 C   0  0  0  0  0  0  0  0  0  0  0  0
  128.7650  124.7710   62.5640 C   0  0  1  0  0  0  0  0  0  0  0  0
  128.8930  123.9990   61.3660 O   0  0  0  0  0  0  0  0  0  0  0  0
  128.5060  122.6250   61.4330 C   0  0  0  0  0  0  0  0  0  0  0  0
  129.6600  121.6820   61.1050 C   0  0  0  0  0  0  0  0  0  0  0  0
  129.5150  120.3050   61.2940 C   0  0  0  0  0  0  0  0  0  0  0  0
  130.5590  119.4450   60.9630 C   0  0  0  0  0  0  0  0  0  0  0  0
  131.7450  119.9650   60.4480 C   0  0  0  0  0  0  0  0  0  0  0  0
  131.8970  121.3370   60.2610 C   0  0  0  0  0  0  0  0  0  0  0  0
  130.8520  122.1980   60.5880 C   0  0  0  0  0  0  0  0  0  0  0  0
  129.9050  124.5490   63.5510 C   0  0  2  0  0  0  0  0  0  0  0  0
  129.6540  123.3940   64.3490 O   0  0  0  0  0  0  0  0  0  0  0  0
  130.7880  122.8370   64.9960 C   0  0  0  0  0  0  0  0  0  0  0  0
  132.0360  123.4100   64.3470 C   0  0  0  0  0  0  0  0  0  0  0  0
  132.6790  124.5170   64.9080 C   0  0  0  0  0  0  0  0  0  0  0  0
  133.8110  125.0460   64.2920 C   0  0  0  0  0  0  0  0  0  0  0  0
  134.2950  124.4670   63.1220 C   0  0  0  0  0  0  0  0  0  0  0  0
  133.6590  123.3620   62.5580 C   0  0  0  0  0  0  0  0  0  0  0  0
  132.5280  122.8330   63.1730 C   0  0  0  0  0  0  0  0  0  0  0  0
  128.8540  126.2240   67.6270 C   0  0  0  0  0  0  0  0  0  0  0  0
  129.7530  125.1930   67.9360 C   0  0  0  0  0  0  0  0  0  0  0  0
  129.8560  124.7100   69.2360 C   0  0  0  0  0  0  0  0  0  0  0  0
  129.0550  125.2360   70.2570 C   0  0  0  0  0  0  0  0  0  0  0  0
  129.1470  124.7010   71.6380 N   0  0  0  0  0  0  0  0  0  0  0  0
  129.5840  123.5650   71.8010 O   0  0  0  0  0  0  0  0  0  0  0  0
  128.7860  125.4150   72.5710 O   0  0  0  0  0  0  0  0  0  0  0  0
  128.1610  126.2690   69.9490 C   0  0  0  0  0  0  0  0  0  0  0  0
  128.0630  126.7590   68.6510 C   0  0  0  0  0  0  0  0  0  0  0  0
  1  2  2  0
  2  3  1  0
  4  3  1  1
  4  5  1  0
  5  6  1  0
  6  7  1  1
  7  8  1  0
  8  9  1  0
  9 10  1  0
 10 11  2  0
 11 12  1  0
 12 13  2  0
 13 14  1  0
 14 15  2  0
  6 16  1  0
 16 17  1  6
 17 18  1  0
 18 19  1  0
 19 20  2  0
 20 21  1  0
 21 22  2  0
 22 23  1  0
 23 24  2  0
 16 25  1  0
 25 26  1  1
 26 27  1  0
 27 28  1  0
 28 29  2  0
 29 30  1  0
 30 31  2  0
 31 32  1  0
 32 33  2  0
  2 34  1  0
 34 35  2  0
 35 36  1  0
 36 37  2  0
 37 38  1  0
 38 39  2  0
 38 40  1  0
 37 41  1  0
 41 42  2  0
 25  4  1  0
 33 28  1  0
 42 34  1  0
 15 10  1  0
 24 19  1  0
M  CHG  2  38   1  40  -1
M  END
>  <Binding energies>  (56) 
[-8.02]

>  <Ligand effiencies>  (56) 
[-0.19095238095238093]

>  <Interactions>  (56) 
["V-A:HIS:456:CE1:4069, V-A:TYR:484:CZ:4347, V-A:TYR:484:CE1:4345, V-B:HIS:456:CE1:9040, H-B:LYS:547:NZ:9923, V-B:GLU:543:C:9874, V-A:HIS:456:CD2:4068, V-B:GLU:543:CB:9878, V-B:ALA:541:CB:9864, V-B:GLU:543:CD:9880, V-B:ALA:541:CA:9862, V-A:ARG:545:CZ:4926, V-A:LEU:475:CD1:4258, V-B:TYR:539:CE2:9848, V-A:GLY:454:CA:4049, V-A:TRP:381:CH2:3372, V-A:GLY:453:C:4042, V-B:TYR:539:CD2:9846, V-B:GLY:544:C:9884, V-B:TYR:539:CZ:9849, V-B:GLU:543:CG:9879, V-B:TYR:539:C:9839, V-B:PRO:540:CB:9857, V-B:PRO:540:N:9856, V-B:PRO:540:CA:9855, V-A:GLY:453:CA:4044, V-A:PRO:482:CB:4326, V-A:TRP:381:CZ2:3370, V-A:PRO:482:CG:4327"]

$$$$
RR9_Rahimova_2017
     RDKit          3D

 36 40  0  0  0  0  0  0  0  0999 V2000
  126.2940  127.4430   73.0640 C   0  0  0  0  0  0  0  0  0  0  0  0
  127.3280  127.3530   71.9370 C   0  0  0  0  0  0  0  0  0  0  0  0
  126.6760  126.9040   70.7530 O   0  0  0  0  0  0  0  0  0  0  0  0
  127.4250  126.6570   69.6180 C   0  0  0  0  0  0  0  0  0  0  0  0
  128.6610  126.0420   69.8080 C   0  0  0  0  0  0  0  0  0  0  0  0
  129.4850  125.7570   68.7250 C   0  0  0  0  0  0  0  0  0  0  0  0
  129.0950  126.0790   67.4160 C   0  0  0  0  0  0  0  0  0  0  0  0
  129.9810  125.7780   66.2440 C   0  0  0  0  0  0  0  0  0  0  0  0
  129.4590  125.5910   64.9550 C   0  0  0  0  0  0  0  0  0  0  0  0
  130.2950  125.3220   63.8570 C   0  0  0  0  0  0  0  0  0  0  0  0
  129.6850  125.2330   62.4840 C   0  0  0  0  0  0  0  0  0  0  0  0
  129.4790  126.2530   61.8270 O   0  0  0  0  0  0  0  0  0  0  0  0
  129.3730  123.9920   62.0620 N   0  0  0  0  0  0  0  0  0  0  0  0
  128.6550  123.6590   60.8270 C   0  0  0  0  0  0  0  0  0  0  0  0
  128.3960  122.1430   60.6670 C   0  0  0  0  0  0  0  0  0  0  0  0
  129.6320  121.2650   60.8300 C   0  0  0  0  0  0  0  0  0  0  0  0
  129.4980  119.9350   61.2410 C   0  0  0  0  0  0  0  0  0  0  0  0
  130.6250  119.1260   61.3560 C   0  0  0  0  0  0  0  0  0  0  0  0
  131.8830  119.6500   61.0650 C   0  0  0  0  0  0  0  0  0  0  0  0
  132.0240  120.9760   60.6590 C   0  0  0  0  0  0  0  0  0  0  0  0
  130.8960  121.7860   60.5430 C   0  0  0  0  0  0  0  0  0  0  0  0
  131.6810  125.2180   64.1350 C   0  0  0  0  0  0  0  0  0  0  0  0
  132.9110  124.9350   63.4340 C   0  0  0  0  0  0  0  0  0  0  0  0
  133.1230  124.5420   62.0090 C   0  0  0  0  0  0  0  0  0  0  0  0
  132.3310  125.0980   61.0000 C   0  0  0  0  0  0  0  0  0  0  0  0
  132.5200  124.7180   59.6740 C   0  0  0  0  0  0  0  0  0  0  0  0
  133.5030  123.7820   59.3510 C   0  0  0  0  0  0  0  0  0  0  0  0
  133.6970  123.3530   57.9080 C   0  0  0  0  0  0  0  0  0  0  0  0
  134.2950  123.2220   60.3560 C   0  0  0  0  0  0  0  0  0  0  0  0
  134.1070  123.6060   61.6800 C   0  0  0  0  0  0  0  0  0  0  0  0
  133.9390  125.0420   64.2460 N   0  0  0  0  0  0  0  0  0  0  0  0
  133.4700  125.3240   65.4720 N   0  0  0  0  0  0  0  0  0  0  0  0
  132.0990  125.4310   65.4700 C   0  0  0  0  0  0  0  0  0  0  0  0
  131.3150  125.6970   66.5130 N   0  0  0  0  0  0  0  0  0  0  0  0
  127.8510  126.6990   67.2330 C   0  0  0  0  0  0  0  0  0  0  0  0
  127.0230  126.9850   68.3160 C   0  0  0  0  0  0  0  0  0  0  0  0
  1  2  1  0
  2  3  1  0
  3  4  1  0
  4  5  2  0
  5  6  1  0
  6  7  2  0
  7  8  1  0
  8  9  2  0
  9 10  1  0
 10 11  1  0
 11 12  2  0
 11 13  1  0
 13 14  1  0
 14 15  1  0
 15 16  1  0
 16 17  2  0
 17 18  1  0
 18 19  2  0
 19 20  1  0
 20 21  2  0
 10 22  2  0
 22 23  1  0
 23 24  1  0
 24 25  2  0
 25 26  1  0
 26 27  2  0
 27 28  1  0
 27 29  1  0
 29 30  2  0
 23 31  2  0
 31 32  1  0
 32 33  1  0
 33 34  2  0
  7 35  1  0
 35 36  2  0
 36  4  1  0
 34  8  1  0
 21 16  1  0
 33 22  1  0
 30 24  1  0
M  END
>  <Binding energies>  (57) 
[-8.72]

>  <Ligand effiencies>  (57) 
[-0.22947368421052633]

>  <Interactions>  (57) 
["V-A:HIS:456:CE1:4069, V-B:HIS:456:CE1:9040, V-B:HIS:456:CD2:9039, V-B:HIS:456:CB:9036, V-B:HIS:456:CG:9037, V-B:GLU:543:CB:9878, V-B:ALA:541:CB:9864, H-A:TYR:484:OH:4348, V-A:ILE:369:CD1:3239, H-A:GLY:454:N:4050, V-B:GLU:543:CD:9880, V-B:ALA:541:CA:9862, V-A:ARG:545:CZ:4926, V-A:LEU:475:CD1:4258, V-B:TYR:539:CE2:9848, V-A:TRP:381:CH2:3372, V-B:TYR:539:CD2:9846, H-A:ARG:545:NH2:4928, H-A:ARG:545:NE:4924, V-A:ASP:366:CG:3213, V-B:GLY:544:C:9884, V-A:ASP:366:CB:3212, V-A:ILE:369:CB:3236, H-A:HIS:456:ND1:4067, V-A:ILE:369:CG2:3237, V-A:ASP:366:CA:3210, H-A:HIS:456:NE2:4070, V-B:TYR:539:CZ:9849, V-B:GLU:543:CG:9879, V-B:PRO:540:CA:9855, V-A:PRO:482:CB:4326, V-A:TRP:381:CZ2:3370, V-A:PRO:482:CG:4327, V-A:ARG:545:CD:4923, H-A:ARG:545:NH1:4927, H-B:ARG:545:N:9892"]

$$$$
