1a_Grossjean_2025
     RDKit          3D

 26 27  0  0  0  0  0  0  0  0999 V2000
  124.5290  123.6770   58.7790 C   0  0  0  0  0  0  0  0  0  0  0  0
  125.5360  124.5910   58.0760 C   0  0  0  0  0  0  0  0  0  0  0  0
  125.9730  123.9770   56.8700 O   0  0  0  0  0  0  0  0  0  0  0  0
  126.7380  122.8550   56.8920 C   0  0  0  0  0  0  0  0  0  0  0  0
  126.3810  121.7800   56.4020 O   0  0  0  0  0  0  0  0  0  0  0  0
  128.0550  123.0490   57.5870 C   0  0  0  0  0  0  0  0  0  0  0  0
  128.3240  122.3250   58.7560 C   0  0  0  0  0  0  0  0  0  0  0  0
  129.5340  122.4850   59.4250 C   0  0  0  0  0  0  0  0  0  0  0  0
  130.4980  123.3720   58.9430 C   0  0  0  0  0  0  0  0  0  0  0  0
  131.6830  123.4570   59.7000 N   0  0  0  0  0  0  0  0  0  0  0  0
  132.9720  123.4000   59.3040 C   0  0  0  0  0  0  0  0  0  0  0  0
  133.3580  123.2580   58.1440 O   0  0  0  0  0  0  0  0  0  0  0  0
  134.0070  123.5270   60.4230 C   0  0  0  0  0  0  0  0  0  0  0  0
  134.2400  121.9650   61.3220 S   0  0  0  0  0  0  0  0  0  0  0  0
  132.6490  121.1810   61.4530 C   0  0  0  0  0  0  0  0  0  0  0  0
  131.7040  121.9540   62.0450 N   0  0  0  0  0  0  0  0  0  0  0  0
  130.4560  121.4530   62.2000 C   0  0  0  0  0  0  0  0  0  0  0  0
  129.4580  122.3690   62.8820 C   0  0  0  0  0  0  0  0  0  0  0  0
  130.0990  120.1780   61.7670 C   0  0  0  0  0  0  0  0  0  0  0  0
  131.0590  119.3800   61.1360 C   0  0  0  0  0  0  0  0  0  0  0  0
  130.6400  117.9920   60.6550 C   0  0  0  0  0  0  0  0  0  0  0  0
  132.3690  119.8840   60.9600 C   0  0  0  0  0  0  0  0  0  0  0  0
  133.3780  119.0860   60.2580 C   0  0  0  0  0  0  0  0  0  0  0  0
  134.1730  118.4540   59.7040 N   0  0  0  0  0  0  0  0  0  0  0  0
  130.2400  124.0950   57.7680 C   0  0  0  0  0  0  0  0  0  0  0  0
  129.0300  123.9340   57.1000 C   0  0  0  0  0  0  0  0  0  0  0  0
  1  2  1  0
  2  3  1  0
  3  4  1  0
  4  5  2  0
  4  6  1  0
  6  7  2  0
  7  8  1  0
  8  9  2  0
  9 10  1  0
 10 11  1  0
 11 12  2  0
 11 13  1  0
 13 14  1  0
 14 15  1  0
 15 16  2  0
 16 17  1  0
 17 18  1  0
 17 19  2  0
 19 20  1  0
 20 21  1  0
 20 22  2  0
 22 23  1  0
 23 24  3  0
  9 25  1  0
 25 26  2  0
 26  6  1  0
 22 15  1  0
M  END
>  <Binding energies>  (1) 
[-8.22]

>  <Ligand effiencies>  (1) 
[-0.30444444444444446]

>  <Interactions>  (1) 
["V-A:ASP:366:CG:3212, V-B:TYR:539:C:9839, V-B:PRO:540:CB:9857, V-A:LEU:475:CD1:4257, V-B:PRO:540:CA:9855, V-B:ALA:541:CB:9864, V-B:PRO:540:N:9856, H-B:TYR:531:OH:9767, H-B:TYR:539:N:9842, V-B:MET:535:CE:9807, V-B:LEU:363:CD1:8160, V-B:LEU:363:CA:8156, V-B:LEU:363:CB:8158, V-B:TYR:539:CE2:9848, V-B:TYR:539:CZ:9849, V-B:TYR:531:CE2:9765, V-A:ILE:369:CD1:3238, V-B:TYR:539:CD2:9846, V-A:ILE:369:CB:3235, V-A:ASP:366:CA:3209, V-A:ILE:369:CG2:3236, H-B:TYR:539:OH:9850, V-A:PRO:482:CG:4326, V-B:ALA:541:CA:9862, H-A:HIS:383:NE2:3393, H-A:SER:385:OG:3409, V-A:SER:385:CA:3406"]

$$$$
1aa_Ghoteimi_2023
     RDKit          3D

 40 43  0  0  0  0  0  0  0  0999 V2000
  129.8930  131.0400   54.5090 C   0  0  0  0  0  0  0  0  0  0  0  0
  128.5610  131.7720   54.6990 C   0  0  0  0  0  0  0  0  0  0  0  0
  127.4940  130.9290   54.2800 O   0  0  0  0  0  0  0  0  0  0  0  0
  127.3310  129.6900   54.8090 C   0  0  0  0  0  0  0  0  0  0  0  0
  127.5630  128.6480   54.1870 O   0  0  0  0  0  0  0  0  0  0  0  0
  126.8410  129.7090   56.2280 C   0  0  0  0  0  0  0  0  0  0  0  0
  125.4740  129.6590   56.5420 C   0  0  0  0  0  0  0  0  0  0  0  0
  125.0480  129.6780   57.8680 C   0  0  0  0  0  0  0  0  0  0  0  0
  125.9870  129.7450   58.9080 C   0  0  0  0  0  0  0  0  0  0  0  0
  125.6760  129.7710   60.2800 N   0  0  0  0  0  0  0  0  0  0  0  0
  124.5040  130.0230   60.9080 C   0  0  0  0  0  0  0  0  0  0  0  0
  123.4430  130.2830   60.3400 O   0  0  0  0  0  0  0  0  0  0  0  0
  124.5040  129.9770   62.4440 C   0  0  0  0  0  0  0  0  0  0  0  0
  125.6620  130.6430   62.9660 O   0  0  0  0  0  0  0  0  0  0  0  0
  126.3400  131.5770   62.1960 C   0  0  0  0  0  0  0  0  0  0  0  0
  127.5760  131.2460   61.7300 N   0  0  0  0  0  0  0  0  0  0  0  0
  128.2780  132.1400   60.9840 C   0  0  0  0  0  0  0  0  0  0  0  0
  129.6320  131.6980   60.5070 C   0  0  0  0  0  0  0  0  0  0  0  0
  129.9400  131.6670   59.1380 C   0  0  0  0  0  0  0  0  0  0  0  0
  131.1930  131.2560   58.6930 C   0  0  0  0  0  0  0  0  0  0  0  0
  132.1770  130.8660   59.5990 C   0  0  0  0  0  0  0  0  0  0  0  0
  133.3890  130.4730   59.0660 O   0  0  0  0  0  0  0  0  0  0  0  0
  133.4480  130.0610   57.7050 C   0  0  0  0  0  0  0  0  0  0  0  0
  131.8860  130.8970   60.9700 C   0  0  0  0  0  0  0  0  0  0  0  0
  130.6320  131.3090   61.4120 C   0  0  0  0  0  0  0  0  0  0  0  0
  127.7350  133.3920   60.6730 C   0  0  0  0  0  0  0  0  0  0  0  0
  126.4610  133.7530   61.1300 C   0  0  0  0  0  0  0  0  0  0  0  0
  125.9330  135.0990   60.7550 C   0  0  0  0  0  0  0  0  0  0  0  0
  126.7390  136.2330   60.8940 C   0  0  0  0  0  0  0  0  0  0  0  0
  126.2580  137.4900   60.5380 C   0  0  0  0  0  0  0  0  0  0  0  0
  124.9680  137.6380   60.0300 C   0  0  0  0  0  0  0  0  0  0  0  0
  124.5760  138.9220   59.7030 O   0  0  0  0  0  0  0  0  0  0  0  0
  125.5490  139.8450   59.2260 C   0  0  0  0  0  0  0  0  0  0  0  0
  124.1590  136.5010   59.8810 C   0  0  0  0  0  0  0  0  0  0  0  0
  124.6410  135.2460   60.2390 C   0  0  0  0  0  0  0  0  0  0  0  0
  125.7480  132.8220   61.9220 C   0  0  0  0  0  0  0  0  0  0  0  0
  124.4300  133.1260   62.4810 C   0  0  0  0  0  0  0  0  0  0  0  0
  123.3880  133.3650   62.9240 N   0  0  0  0  0  0  0  0  0  0  0  0
  127.3470  129.7970   58.5990 C   0  0  0  0  0  0  0  0  0  0  0  0
  127.7710  129.7790   57.2740 C   0  0  0  0  0  0  0  0  0  0  0  0
  1  2  1  0
  2  3  1  0
  3  4  1  0
  4  5  2  0
  4  6  1  0
  6  7  2  0
  7  8  1  0
  8  9  2  0
  9 10  1  0
 10 11  1  0
 11 12  2  0
 11 13  1  0
 13 14  1  0
 14 15  1  0
 15 16  2  0
 16 17  1  0
 17 18  1  0
 18 19  2  0
 19 20  1  0
 20 21  2  0
 21 22  1  0
 22 23  1  0
 21 24  1  0
 24 25  2  0
 17 26  2  0
 26 27  1  0
 27 28  1  0
 28 29  2  0
 29 30  1  0
 30 31  2  0
 31 32  1  0
 32 33  1  0
 31 34  1  0
 34 35  2  0
 27 36  2  0
 36 37  1  0
 37 38  3  0
  9 39  1  0
 39 40  2  0
 40  6  1  0
 36 15  1  0
 25 18  1  0
 35 28  1  0
M  END
>  <Binding energies>  (2) 
[-9.58]

>  <Ligand effiencies>  (2) 
[-0.23365853658536587]

>  <Interactions>  (2) 
["V-A:ALA:541:CB:4892, V-A:PRO:540:CB:4885, V-B:LEU:475:CD1:9229, V-A:TYR:539:CD1:4873, V-A:TYR:539:C:4867, V-A:PRO:540:CA:4883, V-B:GLY:454:CA:9020, V-A:TYR:539:CE1:4875, V-B:ASP:366:CG:8184, V-A:GLU:543:CD:4908, V-A:PRO:540:N:4884, V-A:ASP:366:CG:3212, V-B:TYR:531:CZ:9766, V-A:TYR:539:CE2:4876, V-B:ILE:369:CD1:8210, H-B:GLY:454:N:9021, V-A:TYR:539:CZ:4877, V-A:ILE:538:CA:4860, V-A:ILE:538:CG2:4863, H-B:LYS:534:NZ:9795, H-A:TYR:539:OH:4878, H-B:TYR:531:OH:9767, V-A:LEU:363:CD1:3188, V-B:TYR:531:CE1:9764, V-A:LEU:363:CA:3184, V-A:ASP:366:CB:3211, V-B:ASP:366:CB:8183, V-B:PRO:482:CB:9297, V-B:PRO:482:CG:9298, V-B:ILE:369:CG2:8208, H-B:SER:385:OG:8381, V-A:TYR:539:CB:4871, V-B:ASP:366:CA:8181, V-B:LEU:373:CD1:8251, V-B:SER:385:CB:8380, V-A:ILE:343:CG2:2991, V-B:HIS:383:CE1:8365, V-B:HIS:383:CD2:8363, V-B:SER:385:CA:8378, V-B:HIS:383:CG:8361"]

$$$$
1b_Grossjean_2025
     RDKit          3D

 25 26  0  0  0  0  0  0  0  0999 V2000
  125.1710  124.3260   57.9540 C   0  0  0  0  0  0  0  0  0  0  0  0
  125.9980  123.9610   56.8580 O   0  0  0  0  0  0  0  0  0  0  0  0
  126.7420  122.8260   56.8910 C   0  0  0  0  0  0  0  0  0  0  0  0
  126.3870  121.7640   56.3690 O   0  0  0  0  0  0  0  0  0  0  0  0
  128.0450  122.9910   57.6200 C   0  0  0  0  0  0  0  0  0  0  0  0
  128.4070  122.1600   58.6910 C   0  0  0  0  0  0  0  0  0  0  0  0
  129.6210  122.3400   59.3460 C   0  0  0  0  0  0  0  0  0  0  0  0
  130.4980  123.3490   58.9490 C   0  0  0  0  0  0  0  0  0  0  0  0
  131.6950  123.4400   59.6830 N   0  0  0  0  0  0  0  0  0  0  0  0
  132.9790  123.3810   59.2660 C   0  0  0  0  0  0  0  0  0  0  0  0
  133.3460  123.2350   58.1010 O   0  0  0  0  0  0  0  0  0  0  0  0
  134.0320  123.5240   60.3660 C   0  0  0  0  0  0  0  0  0  0  0  0
  134.2490  121.9850   61.3110 S   0  0  0  0  0  0  0  0  0  0  0  0
  132.6520  121.2090   61.4340 C   0  0  0  0  0  0  0  0  0  0  0  0
  131.7220  121.9700   62.0620 N   0  0  0  0  0  0  0  0  0  0  0  0
  130.4700  121.4760   62.2100 C   0  0  0  0  0  0  0  0  0  0  0  0
  129.4790  122.3880   62.9090 C   0  0  0  0  0  0  0  0  0  0  0  0
  130.1020  120.2120   61.7530 C   0  0  0  0  0  0  0  0  0  0  0  0
  131.0600  119.4110   61.1240 C   0  0  0  0  0  0  0  0  0  0  0  0
  130.6370  118.0230   60.6460 C   0  0  0  0  0  0  0  0  0  0  0  0
  132.3740  119.9060   60.9590 C   0  0  0  0  0  0  0  0  0  0  0  0
  133.4060  119.0680   60.3420 C   0  0  0  0  0  0  0  0  0  0  0  0
  134.2180  118.4040   59.8550 N   0  0  0  0  0  0  0  0  0  0  0  0
  130.1430  124.1850   57.8790 C   0  0  0  0  0  0  0  0  0  0  0  0
  128.9290  124.0030   57.2240 C   0  0  0  0  0  0  0  0  0  0  0  0
  1  2  1  0
  2  3  1  0
  3  4  2  0
  3  5  1  0
  5  6  2  0
  6  7  1  0
  7  8  2  0
  8  9  1  0
  9 10  1  0
 10 11  2  0
 10 12  1  0
 12 13  1  0
 13 14  1  0
 14 15  2  0
 15 16  1  0
 16 17  1  0
 16 18  2  0
 18 19  1  0
 19 20  1  0
 19 21  2  0
 21 22  1  0
 22 23  3  0
  8 24  1  0
 24 25  2  0
 25  5  1  0
 21 14  1  0
M  END
>  <Binding energies>  (3) 
[-8.0]

>  <Ligand effiencies>  (3) 
[-0.3076923076923077]

>  <Interactions>  (3) 
["V-A:ASP:366:CG:3212, V-B:TYR:539:C:9839, V-A:LEU:475:CD1:4257, V-B:PRO:540:CA:9855, V-B:ALA:541:CB:9864, V-B:PRO:540:N:9856, H-B:TYR:531:OH:9767, H-B:TYR:539:N:9842, V-B:MET:535:CE:9807, V-B:LEU:363:CD1:8160, V-B:TYR:539:CE2:9848, V-B:TYR:539:CZ:9849, V-B:TYR:531:CE2:9765, V-A:ILE:369:CD1:3238, V-B:TYR:539:CD2:9846, V-A:ILE:369:CB:3235, V-A:ASP:366:CA:3209, V-A:ILE:369:CG2:3236, H-B:TYR:539:OH:9850, V-A:PRO:482:CG:4326, V-B:ALA:541:CA:9862, H-A:HIS:383:NE2:3393, H-A:SER:385:OG:3409, V-A:SER:385:CA:3406"]

$$$$
1c_Grossjean_2025
     RDKit          3D

 23 24  0  0  0  0  0  0  0  0999 V2000
  125.2160  122.0090   55.1850 C   0  0  0  0  0  0  0  0  0  0  0  0
  126.3920  121.5190   55.8200 O   0  0  0  0  0  0  0  0  0  0  0  0
  126.8290  122.1210   56.9840 C   0  0  0  0  0  0  0  0  0  0  0  0
  128.1940  122.0310   57.2560 C   0  0  0  0  0  0  0  0  0  0  0  0
  128.7310  122.6070   58.4030 C   0  0  0  0  0  0  0  0  0  0  0  0
  127.8980  123.2940   59.2990 C   0  0  0  0  0  0  0  0  0  0  0  0
  128.3330  123.9030   60.4920 N   0  0  0  0  0  0  0  0  0  0  0  0
  128.1390  123.5180   61.7710 C   0  0  0  0  0  0  0  0  0  0  0  0
  127.5330  122.5080   62.1300 O   0  0  0  0  0  0  0  0  0  0  0  0
  128.7460  124.4380   62.8320 C   0  0  0  0  0  0  0  0  0  0  0  0
  129.7900  123.5230   64.0050 S   0  0  0  0  0  0  0  0  0  0  0  0
  130.8660  122.4470   63.0790 C   0  0  0  0  0  0  0  0  0  0  0  0
  130.2310  121.3660   62.5600 N   0  0  0  0  0  0  0  0  0  0  0  0
  130.9480  120.4750   61.8360 C   0  0  0  0  0  0  0  0  0  0  0  0
  130.1670  119.2980   61.2790 C   0  0  0  0  0  0  0  0  0  0  0  0
  132.3140  120.6160   61.6100 C   0  0  0  0  0  0  0  0  0  0  0  0
  132.9840  121.7130   62.1610 C   0  0  0  0  0  0  0  0  0  0  0  0
  134.4870  121.8370   61.9140 C   0  0  0  0  0  0  0  0  0  0  0  0
  132.2570  122.6560   62.9230 C   0  0  0  0  0  0  0  0  0  0  0  0
  132.9510  123.7820   63.5540 C   0  0  0  0  0  0  0  0  0  0  0  0
  133.4990  124.6710   64.0510 N   0  0  0  0  0  0  0  0  0  0  0  0
  126.5290  123.3760   59.0370 C   0  0  0  0  0  0  0  0  0  0  0  0
  125.9960  122.7980   57.8880 C   0  0  0  0  0  0  0  0  0  0  0  0
  1  2  1  0
  2  3  1  0
  3  4  2  0
  4  5  1  0
  5  6  2  0
  6  7  1  0
  7  8  1  0
  8  9  2  0
  8 10  1  0
 10 11  1  0
 11 12  1  0
 12 13  2  0
 13 14  1  0
 14 15  1  0
 14 16  2  0
 16 17  1  0
 17 18  1  0
 17 19  2  0
 19 20  1  0
 20 21  3  0
  6 22  1  0
 22 23  2  0
 23  3  1  0
 19 12  1  0
M  END
>  <Binding energies>  (4) 
[-7.82]

>  <Ligand effiencies>  (4) 
[-0.32583333333333336]

>  <Interactions>  (4) 
["V-B:TYR:539:C:9839, V-B:PRO:540:CB:9857, V-A:GLY:454:CA:4048, V-A:LEU:475:CD1:4257, V-B:GLU:543:CD:9880, V-B:PRO:540:CA:9855, H-B:ALA:541:N:9863, V-B:ALA:541:CB:9864, V-B:PRO:540:N:9856, V-B:GLU:543:CG:9879, H-B:TYR:539:N:9842, V-B:ILE:538:CG2:9835, V-B:MET:535:CE:9807, V-B:LEU:363:CD1:8160, V-B:PRO:540:CD:9859, V-B:ILE:538:CA:9832, V-B:TYR:539:CE2:9848, V-B:TYR:539:CZ:9849, H-A:GLY:454:N:4049, H-A:TYR:484:OH:4347, V-A:ILE:369:CD1:3238, H-A:ARG:545:NH2:4928, V-B:TYR:539:CD2:9846, V-B:ILE:538:CG1:9836, V-B:MET:535:CG:9805, V-B:ILE:538:CB:9834, V-B:TYR:539:CG:9844, V-B:TYR:539:CD1:9845, V-B:TYR:539:CA:9841, V-B:TYR:539:CE1:9847, V-A:ILE:369:CG2:3236, V-A:PRO:482:CG:4326"]

$$$$
1d_Grossjean_2025
     RDKit          3D

 21 22  0  0  0  0  0  0  0  0999 V2000
  126.0300  129.9960   57.6350 C   0  0  0  0  0  0  0  0  0  0  0  0
  127.1140  129.1470   57.0000 C   0  0  0  0  0  0  0  0  0  0  0  0
  127.6070  128.0050   57.6270 C   0  0  0  0  0  0  0  0  0  0  0  0
  128.6010  127.2540   56.9890 C   0  0  0  0  0  0  0  0  0  0  0  0
  129.1140  125.9970   57.6890 C   0  0  0  0  0  0  0  0  0  0  0  0
  129.0870  127.6780   55.7310 C   0  0  0  0  0  0  0  0  0  0  0  0
  130.0920  126.8820   55.0230 C   0  0  0  0  0  0  0  0  0  0  0  0
  130.8870  126.2510   54.4670 N   0  0  0  0  0  0  0  0  0  0  0  0
  128.5460  128.8640   55.1810 C   0  0  0  0  0  0  0  0  0  0  0  0
  129.0400  129.5420   53.6120 S   0  0  0  0  0  0  0  0  0  0  0  0
  129.3830  131.3090   53.8680 C   0  0  0  0  0  0  0  0  0  0  0  0
  129.9020  131.5980   55.2770 C   0  0  0  0  0  0  0  0  0  0  0  0
  129.4250  132.5390   55.9120 O   0  0  0  0  0  0  0  0  0  0  0  0
  130.8520  130.7510   55.7280 N   0  0  0  0  0  0  0  0  0  0  0  0
  131.5450  130.7420   56.9530 C   0  0  0  0  0  0  0  0  0  0  0  0
  130.7920  131.0910   58.0780 C   0  0  0  0  0  0  0  0  0  0  0  0
  131.3780  131.1080   59.3390 C   0  0  0  0  0  0  0  0  0  0  0  0
  132.7220  130.7680   59.4800 C   0  0  0  0  0  0  0  0  0  0  0  0
  133.4820  130.4100   58.3700 C   0  0  0  0  0  0  0  0  0  0  0  0
  132.8970  130.3930   57.1060 C   0  0  0  0  0  0  0  0  0  0  0  0
  127.5670  129.5730   55.7980 N   0  0  0  0  0  0  0  0  0  0  0  0
  1  2  1  0
  2  3  2  0
  3  4  1  0
  4  5  1  0
  4  6  2  0
  6  7  1  0
  7  8  3  0
  6  9  1  0
  9 10  1  0
 10 11  1  0
 11 12  1  0
 12 13  2  0
 12 14  1  0
 14 15  1  0
 15 16  2  0
 16 17  1  0
 17 18  2  0
 18 19  1  0
 19 20  2  0
  9 21  2  0
 21  2  1  0
 20 15  1  0
M  END
>  <Binding energies>  (5) 
[-7.34]

>  <Ligand effiencies>  (5) 
[-0.3336363636363636]

>  <Interactions>  (5) 
["V-A:PRO:540:CB:4885, V-A:PRO:540:CA:4883, V-A:TYR:539:CE1:4875, H-A:TYR:531:OH:4795, V-A:ASP:366:CG:3212, V-B:TYR:531:CZ:9766, V-A:ILE:538:CB:4862, V-A:TYR:539:CZ:4877, V-A:ILE:538:CA:4860, V-A:ILE:538:CG2:4863, H-A:TYR:539:N:4870, H-B:TYR:531:OH:9767, V-A:LEU:363:CD1:3188, V-A:LEU:363:CB:3186, V-A:LEU:363:CA:3184, V-A:ASP:366:CB:3211, H-B:TYR:539:OH:9850"]

$$$$
1e_Grossjean_2025
     RDKit          3D

 22 23  0  0  0  0  0  0  0  0999 V2000
  125.4390  122.2230   56.1480 C   0  0  0  0  0  0  0  0  0  0  0  0
  126.3260  123.0500   57.0600 C   0  0  0  0  0  0  0  0  0  0  0  0
  127.4450  122.4980   57.6900 C   0  0  0  0  0  0  0  0  0  0  0  0
  128.2130  123.3190   58.5160 C   0  0  0  0  0  0  0  0  0  0  0  0
  127.8490  124.6550   58.6930 C   0  0  0  0  0  0  0  0  0  0  0  0
  126.7190  125.1460   58.0280 C   0  0  0  0  0  0  0  0  0  0  0  0
  126.3960  126.4960   58.2540 N   0  0  0  0  0  0  0  0  0  0  0  0
  126.3870  127.1740   59.4230 C   0  0  0  0  0  0  0  0  0  0  0  0
  126.6630  126.6910   60.5220 O   0  0  0  0  0  0  0  0  0  0  0  0
  125.9700  128.6430   59.3360 C   0  0  0  0  0  0  0  0  0  0  0  0
  126.0830  129.2840   57.6390 S   0  0  0  0  0  0  0  0  0  0  0  0
  127.5500  130.2860   57.5040 C   0  0  0  0  0  0  0  0  0  0  0  0
  128.0330  130.7000   58.7030 N   0  0  0  0  0  0  0  0  0  0  0  0
  129.1450  131.4710   58.7280 C   0  0  0  0  0  0  0  0  0  0  0  0
  129.6290  131.8870   60.1040 C   0  0  0  0  0  0  0  0  0  0  0  0
  129.8090  131.8700   57.5700 C   0  0  0  0  0  0  0  0  0  0  0  0
  129.3060  131.4710   56.3280 C   0  0  0  0  0  0  0  0  0  0  0  0
  130.0420  131.9360   55.0720 C   0  0  0  0  0  0  0  0  0  0  0  0
  128.1440  130.6670   56.2770 C   0  0  0  0  0  0  0  0  0  0  0  0
  127.5710  130.2900   54.9820 C   0  0  0  0  0  0  0  0  0  0  0  0
  127.1200  129.9930   53.9580 N   0  0  0  0  0  0  0  0  0  0  0  0
  125.9600  124.3470   57.2210 N   0  0  0  0  0  0  0  0  0  0  0  0
  1  2  1  0
  2  3  2  0
  3  4  1  0
  4  5  2  0
  5  6  1  0
  6  7  1  0
  7  8  1  0
  8  9  2  0
  8 10  1  0
 10 11  1  0
 11 12  1  0
 12 13  2  0
 13 14  1  0
 14 15  1  0
 14 16  2  0
 16 17  1  0
 17 18  1  0
 17 19  2  0
 19 20  1  0
 20 21  3  0
  6 22  2  0
 22  2  1  0
 19 12  1  0
M  END
>  <Binding energies>  (6) 
[-7.54]

>  <Ligand effiencies>  (6) 
[-0.32782608695652177]

>  <Interactions>  (6) 
["V-A:PRO:540:C:4881, V-A:TYR:539:CD1:4873, V-A:TYR:539:C:4867, V-A:PRO:540:CA:4883, V-A:TYR:539:CE1:4875, V-B:ASP:366:CG:8184, V-A:PRO:540:N:4884, V-B:TYR:539:C:9839, V-B:PRO:540:CA:9855, V-B:PRO:540:N:9856, V-B:TYR:531:CZ:9766, V-A:ILE:538:CB:4862, V-A:TYR:539:CZ:4877, V-A:ILE:538:CA:4860, V-A:ILE:538:CG2:4863, H-B:LYS:534:NZ:9795, H-A:TYR:539:OH:4878, H-B:TYR:531:OH:9767, V-B:TYR:531:CE1:9764, V-B:MET:535:CE:9807, V-B:LEU:363:CD1:8160, V-B:ASP:366:CB:8183, V-B:PRO:540:CD:9859"]

$$$$
1f_Grossjean_2025
     RDKit          3D

 21 22  0  0  0  0  0  0  0  0999 V2000
  131.3830  126.4690   56.4410 C   0  0  0  0  0  0  0  0  0  0  0  0
  131.1590  127.6120   57.4130 C   0  0  0  0  0  0  0  0  0  0  0  0
  130.1190  127.5890   58.3390 C   0  0  0  0  0  0  0  0  0  0  0  0
  129.9540  128.6780   59.2020 C   0  0  0  0  0  0  0  0  0  0  0  0
  128.7960  128.6380   60.1960 C   0  0  0  0  0  0  0  0  0  0  0  0
  130.8500  129.7680   59.1190 C   0  0  0  0  0  0  0  0  0  0  0  0
  130.6600  130.9420   59.9750 C   0  0  0  0  0  0  0  0  0  0  0  0
  130.5080  131.8670   60.6530 N   0  0  0  0  0  0  0  0  0  0  0  0
  131.8940  129.6940   58.1670 C   0  0  0  0  0  0  0  0  0  0  0  0
  133.1150  130.9680   57.9180 S   0  0  0  0  0  0  0  0  0  0  0  0
  132.3840  132.2680   56.8650 C   0  0  0  0  0  0  0  0  0  0  0  0
  130.9880  131.9440   56.3130 C   0  0  0  0  0  0  0  0  0  0  0  0
  130.0530  132.7280   56.4800 O   0  0  0  0  0  0  0  0  0  0  0  0
  130.8970  130.7550   55.6810 N   0  0  0  0  0  0  0  0  0  0  0  0
  129.7890  130.1510   55.0560 C   0  0  0  0  0  0  0  0  0  0  0  0
  129.7100  128.8070   54.6480 C   0  0  0  0  0  0  0  0  0  0  0  0
  128.5420  128.3360   54.0410 C   0  0  0  0  0  0  0  0  0  0  0  0
  127.4800  129.2220   53.8600 C   0  0  0  0  0  0  0  0  0  0  0  0
  127.5280  130.5200   54.2490 N   0  0  0  0  0  0  0  0  0  0  0  0
  128.6700  130.9620   54.8370 C   0  0  0  0  0  0  0  0  0  0  0  0
  132.0300  128.6440   57.3180 N   0  0  0  0  0  0  0  0  0  0  0  0
  1  2  1  0
  2  3  2  0
  3  4  1  0
  4  5  1  0
  4  6  2  0
  6  7  1  0
  7  8  3  0
  6  9  1  0
  9 10  1  0
 10 11  1  0
 11 12  1  0
 12 13  2  0
 12 14  1  0
 14 15  1  0
 15 16  2  0
 16 17  1  0
 17 18  2  0
 18 19  1  0
 19 20  2  0
  9 21  2  0
 21  2  1  0
 20 15  1  0
M  END
>  <Binding energies>  (7) 
[-7.08]

>  <Ligand effiencies>  (7) 
[-0.32181818181818184]

>  <Interactions>  (7) 
["V-A:PRO:540:CB:4885, V-A:PRO:540:CA:4883, H-A:ALA:541:N:4891, H-A:TYR:531:OH:4795, V-A:PRO:540:N:4884, V-A:ASP:366:CG:3212, V-B:TYR:531:CZ:9766, V-A:TYR:539:CZ:4877, V-A:TYR:531:CZ:4794, V-B:LYS:534:CE:9794, H-A:TYR:539:N:4870, H-B:LYS:534:NZ:9795, H-A:TYR:539:OH:4878, V-A:LEU:363:CD1:3188, V-B:TYR:531:CE1:9764, V-A:PRO:540:CD:4887, V-A:PRO:540:CG:4886, V-A:ASP:366:CB:3211, V-B:LYS:534:CD:9793"]

$$$$
1g_Grossjean_2025
     RDKit          3D

 22 23  0  0  0  0  0  0  0  0999 V2000
  127.1990  128.0430   59.1640 C   0  0  0  0  0  0  0  0  0  0  0  0
  126.9520  126.6410   58.6420 C   0  0  0  0  0  0  0  0  0  0  0  0
  125.6960  126.0430   58.7210 C   0  0  0  0  0  0  0  0  0  0  0  0
  125.5320  124.7400   58.2370 C   0  0  0  0  0  0  0  0  0  0  0  0
  124.1490  124.1000   58.3490 C   0  0  0  0  0  0  0  0  0  0  0  0
  126.6390  124.0680   57.6730 C   0  0  0  0  0  0  0  0  0  0  0  0
  126.5030  122.6850   57.2070 C   0  0  0  0  0  0  0  0  0  0  0  0
  126.3940  121.5920   56.8420 N   0  0  0  0  0  0  0  0  0  0  0  0
  127.8710  124.7610   57.6100 C   0  0  0  0  0  0  0  0  0  0  0  0
  129.3600  124.0700   56.9250 S   0  0  0  0  0  0  0  0  0  0  0  0
  130.5630  125.4240   56.7740 C   0  0  0  0  0  0  0  0  0  0  0  0
  130.3540  126.2370   55.4950 C   0  0  0  0  0  0  0  0  0  0  0  0
  131.2250  126.2510   54.6240 O   0  0  0  0  0  0  0  0  0  0  0  0
  129.1960  126.9120   55.4010 N   0  0  0  0  0  0  0  0  0  0  0  0
  128.7650  127.7020   54.2480 C   0  0  0  0  0  0  0  0  0  0  0  0
  128.7900  129.2100   54.4750 C   0  0  0  0  0  0  0  0  0  0  0  0
  129.3490  130.0520   53.5080 C   0  0  0  0  0  0  0  0  0  0  0  0
  129.3720  131.4290   53.7150 C   0  0  0  0  0  0  0  0  0  0  0  0
  128.8320  131.9600   54.8850 C   0  0  0  0  0  0  0  0  0  0  0  0
  128.2700  131.1270   55.8490 C   0  0  0  0  0  0  0  0  0  0  0  0
  128.2480  129.7500   55.6440 C   0  0  0  0  0  0  0  0  0  0  0  0
  128.0260  126.0160   58.1030 N   0  0  0  0  0  0  0  0  0  0  0  0
  1  2  1  0
  2  3  2  0
  3  4  1  0
  4  5  1  0
  4  6  2  0
  6  7  1  0
  7  8  3  0
  6  9  1  0
  9 10  1  0
 10 11  1  0
 11 12  1  0
 12 13  2  0
 12 14  1  0
 14 15  1  0
 15 16  1  0
 16 17  2  0
 17 18  1  0
 18 19  2  0
 19 20  1  0
 20 21  2  0
  9 22  2  0
 22  2  1  0
 21 16  1  0
M  END
>  <Binding energies>  (8) 
[-7.38]

>  <Ligand effiencies>  (8) 
[-0.3208695652173913]

>  <Interactions>  (8) 
["V-A:TYR:539:CD1:4873, V-A:TYR:539:CE1:4875, H-A:TYR:531:OH:4795, V-B:ASP:366:CG:8184, V-B:PRO:540:CB:9857, V-B:PRO:540:CA:9855, V-B:PRO:540:N:9856, V-A:TYR:539:CE2:4876, V-A:ILE:538:CB:4862, V-A:TYR:539:CZ:4877, V-A:ILE:538:CA:4860, V-A:MET:535:CG:4833, V-B:LYS:534:CE:9794, V-A:ILE:538:CG2:4863, H-B:MET:535:SD:9806, H-B:TYR:531:OH:9767, H-B:TYR:539:N:9842, V-B:MET:535:CE:9807, V-B:LEU:363:CD1:8160, V-B:ASP:366:CB:8183, V-B:LEU:363:CA:8156, V-B:LEU:363:CB:8158, V-B:TYR:531:CE2:9765, H-B:TYR:539:OH:9850, V-A:MET:535:CB:4832"]

$$$$
1h_Grossjean_2025
     RDKit          3D

 28 29  0  0  0  0  0  0  0  0999 V2000
  127.4690  131.3540   59.9220 C   0  0  0  0  0  0  0  0  0  0  0  0
  128.3730  132.3020   59.3660 O   0  0  0  0  0  0  0  0  0  0  0  0
  129.6530  131.9010   59.0270 C   0  0  0  0  0  0  0  0  0  0  0  0
  130.1420  131.8710   57.7120 C   0  0  0  0  0  0  0  0  0  0  0  0
  131.4420  131.4410   57.4420 C   0  0  0  0  0  0  0  0  0  0  0  0
  131.9680  131.4350   56.0100 C   0  0  0  0  0  0  0  0  0  0  0  0
  131.0050  130.9430   55.0250 N   0  0  0  0  0  0  0  0  0  0  0  0
  129.8750  131.5740   54.6600 C   0  0  0  0  0  0  0  0  0  0  0  0
  129.5310  132.6690   55.1040 O   0  0  0  0  0  0  0  0  0  0  0  0
  128.9920  130.8560   53.6390 C   0  0  0  0  0  0  0  0  0  0  0  0
  129.0490  129.0500   53.8420 S   0  0  0  0  0  0  0  0  0  0  0  0
  128.4800  128.6590   55.4880 C   0  0  0  0  0  0  0  0  0  0  0  0
  127.4290  129.3930   55.9390 N   0  0  0  0  0  0  0  0  0  0  0  0
  126.9450  129.1450   57.1780 C   0  0  0  0  0  0  0  0  0  0  0  0
  125.7690  130.0030   57.6090 C   0  0  0  0  0  0  0  0  0  0  0  0
  127.4800  128.1680   58.0140 C   0  0  0  0  0  0  0  0  0  0  0  0
  128.5630  127.4060   57.5620 C   0  0  0  0  0  0  0  0  0  0  0  0
  129.1330  126.3380   58.4930 C   0  0  0  0  0  0  0  0  0  0  0  0
  129.0850  127.6480   56.2700 C   0  0  0  0  0  0  0  0  0  0  0  0
  130.2210  126.8680   55.7720 C   0  0  0  0  0  0  0  0  0  0  0  0
  131.1180  126.2510   55.3780 N   0  0  0  0  0  0  0  0  0  0  0  0
  132.2780  131.0720   58.4970 C   0  0  0  0  0  0  0  0  0  0  0  0
  131.8170  131.0980   59.8220 C   0  0  0  0  0  0  0  0  0  0  0  0
  132.5880  130.7440   60.9150 O   0  0  0  0  0  0  0  0  0  0  0  0
  133.1370  131.7640   61.7430 C   0  0  0  0  0  0  0  0  0  0  0  0
  130.4980  131.5040   60.0730 C   0  0  0  0  0  0  0  0  0  0  0  0
  130.0360  131.5410   61.3660 O   0  0  0  0  0  0  0  0  0  0  0  0
  129.7900  130.2600   61.9290 C   0  0  0  0  0  0  0  0  0  0  0  0
  1  2  1  0
  2  3  1  0
  3  4  2  0
  4  5  1  0
  5  6  1  0
  6  7  1  0
  7  8  1  0
  8  9  2  0
  8 10  1  0
 10 11  1  0
 11 12  1  0
 12 13  2  0
 13 14  1  0
 14 15  1  0
 14 16  2  0
 16 17  1  0
 17 18  1  0
 17 19  2  0
 19 20  1  0
 20 21  3  0
  5 22  2  0
 22 23  1  0
 23 24  1  0
 24 25  1  0
 23 26  2  0
 26 27  1  0
 27 28  1  0
 26  3  1  0
 19 12  1  0
M  END
>  <Binding energies>  (9) 
[-7.42]

>  <Ligand effiencies>  (9) 
[-0.2558620689655172]

>  <Interactions>  (9) 
["V-A:PRO:540:C:4881, V-A:PRO:540:CB:4885, V-A:TYR:539:CD1:4873, V-A:TYR:539:C:4867, V-A:PRO:540:CA:4883, H-A:ALA:541:N:4891, V-A:TYR:539:CE1:4875, H-A:TYR:531:OH:4795, V-A:GLU:543:CD:4908, V-A:PRO:540:N:4884, V-B:TYR:531:CZ:9766, V-A:ILE:538:CB:4862, V-A:TYR:539:CZ:4877, V-A:ILE:538:CA:4860, V-A:TYR:531:CZ:4794, V-B:LYS:534:CE:9794, V-A:ILE:538:CG2:4863, H-A:TYR:539:N:4870, H-B:TYR:531:OH:9767, V-A:LEU:363:CD1:3188, H-A:ARG:545:NH2:4928, H-B:TYR:539:OH:9850, V-A:ASN:362:CB:3175, V-A:TYR:531:CE2:4793, V-A:ALA:541:C:4888"]

$$$$
1i_Grossjean_2025
     RDKit          3D

 20 21  0  0  0  0  0  0  0  0999 V2000
  130.4150  126.7310   56.0130 C   0  0  0  0  0  0  0  0  0  0  0  0
  130.2820  127.8480   57.0320 C   0  0  0  0  0  0  0  0  0  0  0  0
  129.2620  127.8510   57.9810 C   0  0  0  0  0  0  0  0  0  0  0  0
  129.1940  128.9020   58.9020 C   0  0  0  0  0  0  0  0  0  0  0  0
  128.0770  128.8750   59.9440 C   0  0  0  0  0  0  0  0  0  0  0  0
  130.1570  129.9360   58.8430 C   0  0  0  0  0  0  0  0  0  0  0  0
  130.1340  131.0190   59.8290 C   0  0  0  0  0  0  0  0  0  0  0  0
  130.1150  131.8730   60.6100 N   0  0  0  0  0  0  0  0  0  0  0  0
  131.1420  129.8630   57.8300 C   0  0  0  0  0  0  0  0  0  0  0  0
  132.4250  131.0760   57.6100 S   0  0  0  0  0  0  0  0  0  0  0  0
  131.9910  132.0790   56.1570 C   0  0  0  0  0  0  0  0  0  0  0  0
  130.5710  131.7920   55.6630 C   0  0  0  0  0  0  0  0  0  0  0  0
  129.6860  132.6270   55.8520 O   0  0  0  0  0  0  0  0  0  0  0  0
  130.4020  130.6070   55.0350 N   0  0  0  0  0  0  0  0  0  0  0  0
  129.2270  130.1010   54.4990 C   0  0  0  0  0  0  0  0  0  0  0  0
  129.1550  128.8680   53.8520 C   0  0  0  0  0  0  0  0  0  0  0  0
  127.8390  128.7380   53.4740 C   0  0  0  0  0  0  0  0  0  0  0  0
  127.1530  129.8360   53.8710 O   0  0  0  0  0  0  0  0  0  0  0  0
  128.0440  130.6940   54.5180 N   0  0  0  0  0  0  0  0  0  0  0  0
  131.2110  128.8300   56.9540 N   0  0  0  0  0  0  0  0  0  0  0  0
  1  2  1  0
  2  3  2  0
  3  4  1  0
  4  5  1  0
  4  6  2  0
  6  7  1  0
  7  8  3  0
  6  9  1  0
  9 10  1  0
 10 11  1  0
 11 12  1  0
 12 13  2  0
 12 14  1  0
 14 15  1  0
 15 16  1  0
 16 17  2  0
 17 18  1  0
 18 19  1  0
  9 20  2  0
 20  2  1  0
 19 15  2  0
M  END
>  <Binding energies>  (10) 
[-7.38]

>  <Ligand effiencies>  (10) 
[-0.3514285714285714]

>  <Interactions>  (10) 
["V-A:PRO:540:CB:4885, V-A:PRO:540:CA:4883, H-A:ALA:541:N:4891, H-A:TYR:531:OH:4795, V-A:PRO:540:N:4884, V-B:TYR:531:CZ:9766, V-A:ILE:538:CB:4862, V-A:TYR:531:CZ:4794, V-A:MET:535:CG:4833, V-B:LYS:534:CE:9794, V-A:ILE:538:CG2:4863, H-A:TYR:539:N:4870, H-B:LYS:534:NZ:9795, H-A:TYR:539:OH:4878, V-A:LEU:363:CD1:3188, V-B:TYR:531:CE1:9764, V-A:PRO:540:CD:4887, V-B:LYS:534:CD:9793"]

$$$$
1k_Grossjean_2025
     RDKit          3D

 25 25  0  0  0  0  0  0  0  0999 V2000
  125.2860  121.8650   55.3080 C   0  0  0  0  0  0  0  0  0  0  0  0
  126.4160  121.4090   56.0330 O   0  0  0  0  0  0  0  0  0  0  0  0
  126.7640  122.2480   57.1260 C   0  0  0  0  0  0  0  0  0  0  0  0
  125.5170  123.0000   57.6120 C   0  0  0  0  0  0  0  0  0  0  0  0
  125.6270  124.3730   57.2590 O   0  0  0  0  0  0  0  0  0  0  0  0
  125.6660  125.2490   58.3780 C   0  0  0  0  0  0  0  0  0  0  0  0
  127.0170  125.9740   58.4100 C   0  0  0  0  0  0  0  0  0  0  0  0
  128.0660  125.0310   58.2300 O   0  0  0  0  0  0  0  0  0  0  0  0
  128.7090  125.1260   56.9650 C   0  0  0  0  0  0  0  0  0  0  0  0
  129.3300  126.5260   56.8060 C   0  0  0  0  0  0  0  0  0  0  0  0
  128.7710  127.3040   55.7000 N   0  0  0  0  0  0  0  0  0  0  0  0
  129.3550  127.4780   54.5010 C   0  0  0  0  0  0  0  0  0  0  0  0
  130.4440  126.9830   54.2060 O   0  0  0  0  0  0  0  0  0  0  0  0
  128.5750  128.3500   53.5050 C   0  0  0  0  0  0  0  0  0  0  0  0
  128.4390  130.1190   53.9400 S   0  0  0  0  0  0  0  0  0  0  0  0
  127.9960  130.2670   55.6650 C   0  0  0  0  0  0  0  0  0  0  0  0
  126.9270  129.5310   56.0680 N   0  0  0  0  0  0  0  0  0  0  0  0
  126.5320  129.6040   57.3590 C   0  0  0  0  0  0  0  0  0  0  0  0
  125.3270  128.7620   57.7290 C   0  0  0  0  0  0  0  0  0  0  0  0
  127.1830  130.3990   58.3000 C   0  0  0  0  0  0  0  0  0  0  0  0
  128.2890  131.1560   57.9010 C   0  0  0  0  0  0  0  0  0  0  0  0
  128.9890  132.0210   58.9470 C   0  0  0  0  0  0  0  0  0  0  0  0
  128.7160  131.0970   56.5550 C   0  0  0  0  0  0  0  0  0  0  0  0
  129.8700  131.8820   56.1070 C   0  0  0  0  0  0  0  0  0  0  0  0
  130.7810  132.5020   55.7540 N   0  0  0  0  0  0  0  0  0  0  0  0
  1  2  1  0
  2  3  1  0
  3  4  1  0
  4  5  1  0
  5  6  1  0
  6  7  1  0
  7  8  1  0
  8  9  1  0
  9 10  1  0
 10 11  1  0
 11 12  1  0
 12 13  2  0
 12 14  1  0
 14 15  1  0
 15 16  1  0
 16 17  2  0
 17 18  1  0
 18 19  1  0
 18 20  2  0
 20 21  1  0
 21 22  1  0
 21 23  2  0
 23 24  1  0
 24 25  3  0
 23 16  1  0
M  END
>  <Binding energies>  (11) 
[-7.17]

>  <Ligand effiencies>  (11) 
[-0.27576923076923077]

>  <Interactions>  (11) 
["V-A:TYR:539:CD1:4873, V-A:TYR:539:C:4867, V-A:PRO:540:CA:4883, V-A:TYR:539:CE1:4875, H-A:TYR:531:OH:4795, V-A:PRO:540:N:4884, V-B:TYR:539:C:9839, V-B:PRO:540:CB:9857, V-B:PRO:540:CA:9855, V-B:PRO:540:N:9856, V-B:TYR:531:CZ:9766, V-A:TYR:539:CZ:4877, H-A:TYR:539:N:4870, H-B:LYS:534:NZ:9795, H-A:TYR:539:OH:4878, H-B:TYR:531:OH:9767, V-B:TYR:531:CE1:9764, H-B:TYR:539:N:9842, V-B:ILE:538:CG2:9835, V-B:MET:535:CE:9807, V-B:LEU:363:CD1:8160, V-B:ASP:366:CB:8183, V-B:PRO:540:CD:9859, V-B:ILE:538:CA:9832, V-B:TYR:531:CE2:9765, V-B:ILE:538:CG1:9836, V-B:MET:535:CG:9805, V-B:ILE:538:CB:9834"]

$$$$
1l_Grossjean_2025
     RDKit          3D

 17 17  0  0  0  0  0  0  0  0999 V2000
  129.3660  127.5410   54.2350 C   0  0  0  0  0  0  0  0  0  0  0  0
  129.2030  128.7480   53.5030 O   0  0  0  0  0  0  0  0  0  0  0  0
  129.5870  129.8350   54.2870 N   0  0  0  0  0  0  0  0  0  0  0  0
  128.6990  130.8210   54.5160 C   0  0  0  0  0  0  0  0  0  0  0  0
  127.4930  130.7260   54.2700 O   0  0  0  0  0  0  0  0  0  0  0  0
  129.2870  132.0980   55.1330 C   0  0  0  0  0  0  0  0  0  0  0  0
  130.8990  131.8820   55.9640 S   0  0  0  0  0  0  0  0  0  0  0  0
  130.6040  131.7360   57.7180 C   0  0  0  0  0  0  0  0  0  0  0  0
  129.3930  132.1710   58.1510 N   0  0  0  0  0  0  0  0  0  0  0  0
  129.1030  132.0910   59.4720 C   0  0  0  0  0  0  0  0  0  0  0  0
  127.7320  132.5960   59.8780 C   0  0  0  0  0  0  0  0  0  0  0  0
  129.9980  131.5770   60.4070 C   0  0  0  0  0  0  0  0  0  0  0  0
  131.2480  131.1240   59.9730 C   0  0  0  0  0  0  0  0  0  0  0  0
  132.2140  130.5630   61.0160 C   0  0  0  0  0  0  0  0  0  0  0  0
  131.5710  131.2000   58.6000 C   0  0  0  0  0  0  0  0  0  0  0  0
  132.8740  130.7320   58.1170 C   0  0  0  0  0  0  0  0  0  0  0  0
  133.9030  130.3620   57.7370 N   0  0  0  0  0  0  0  0  0  0  0  0
  1  2  1  0
  2  3  1  0
  3  4  1  0
  4  5  2  0
  4  6  1  0
  6  7  1  0
  7  8  1  0
  8  9  2  0
  9 10  1  0
 10 11  1  0
 10 12  2  0
 12 13  1  0
 13 14  1  0
 13 15  2  0
 15 16  1  0
 16 17  3  0
 15  8  1  0
M  END
>  <Binding energies>  (12) 
[-6.54]

>  <Ligand effiencies>  (12) 
[-0.36333333333333334]

>  <Interactions>  (12) 
["V-A:PRO:540:CB:4885, V-A:TYR:539:CD1:4873, V-A:TYR:539:C:4867, V-A:PRO:540:CA:4883, V-A:TYR:539:CE1:4875, H-A:TYR:531:OH:4795, V-A:PRO:540:N:4884, V-A:ASP:366:CG:3212, V-A:MET:535:CE:4835, V-A:ILE:538:C:4858, V-A:ILE:538:CB:4862, V-A:ILE:538:CA:4860, V-A:ILE:538:CG2:4863, H-B:LYS:534:NZ:9795, H-A:TYR:539:OH:4878, V-A:LEU:363:CD1:3188"]

$$$$
1m_Grossjean_2025
     RDKit          3D

 20 20  0  0  0  0  0  0  0  0999 V2000
  129.4850  131.7700   54.7850 C   0  0  0  0  0  0  0  0  0  0  0  0
  128.6150  131.1330   53.8600 O   0  0  0  0  0  0  0  0  0  0  0  0
  128.1230  129.9030   54.1170 C   0  0  0  0  0  0  0  0  0  0  0  0
  126.9290  129.6250   54.2650 O   0  0  0  0  0  0  0  0  0  0  0  0
  129.2470  128.8500   54.1980 C   0  0  0  0  0  0  0  0  0  0  0  0
  128.8660  127.6700   54.9910 N   0  0  0  0  0  0  0  0  0  0  0  0
  129.6810  126.6520   55.3240 C   0  0  0  0  0  0  0  0  0  0  0  0
  130.8620  126.5940   54.9740 O   0  0  0  0  0  0  0  0  0  0  0  0
  129.0420  125.5430   56.1710 C   0  0  0  0  0  0  0  0  0  0  0  0
  128.1060  126.1370   57.6220 S   0  0  0  0  0  0  0  0  0  0  0  0
  126.8400  124.9400   57.9860 C   0  0  0  0  0  0  0  0  0  0  0  0
  126.5080  124.1600   56.9260 N   0  0  0  0  0  0  0  0  0  0  0  0
  125.5600  123.2090   57.0880 C   0  0  0  0  0  0  0  0  0  0  0  0
  125.2570  122.3640   55.8650 C   0  0  0  0  0  0  0  0  0  0  0  0
  124.8990  123.0040   58.2970 C   0  0  0  0  0  0  0  0  0  0  0  0
  125.2130  123.8200   59.3900 C   0  0  0  0  0  0  0  0  0  0  0  0
  124.4640  123.5880   60.7010 C   0  0  0  0  0  0  0  0  0  0  0  0
  126.2000  124.8210   59.2440 C   0  0  0  0  0  0  0  0  0  0  0  0
  126.5090  125.7180   60.3600 C   0  0  0  0  0  0  0  0  0  0  0  0
  126.7530  126.4260   61.2420 N   0  0  0  0  0  0  0  0  0  0  0  0
  1  2  1  0
  2  3  1  0
  3  4  2  0
  3  5  1  0
  5  6  1  0
  6  7  1  0
  7  8  2  0
  7  9  1  0
  9 10  1  0
 10 11  1  0
 11 12  2  0
 12 13  1  0
 13 14  1  0
 13 15  2  0
 15 16  1  0
 16 17  1  0
 16 18  2  0
 18 19  1  0
 19 20  3  0
 18 11  1  0
M  END
>  <Binding energies>  (13) 
[-6.68]

>  <Ligand effiencies>  (13) 
[-0.3180952380952381]

>  <Interactions>  (13) 
["H-A:TYR:531:OH:4795, V-B:ASP:366:CG:8184, V-B:PRO:540:CB:9857, V-B:PRO:540:CA:9855, V-A:ILE:538:CB:4862, V-A:ILE:538:CA:4860, V-B:LYS:534:CE:9794, V-A:ILE:538:CG2:4863, H-B:MET:535:SD:9806, H-B:LYS:534:NZ:9795, H-A:TYR:539:OH:4878, H-B:TYR:531:OH:9767, V-B:TYR:531:CE1:9764, V-B:ASN:362:C:8143, V-B:MET:535:CE:9807, V-B:LEU:363:CD1:8160, V-B:LEU:363:CA:8156, V-B:TYR:531:CE2:9765, H-B:ARG:545:NH2:9900, V-B:MET:535:CG:9805, V-B:PRO:540:CG:9858, V-B:ASN:362:CB:8147"]

$$$$
1n_Grossjean_2025
     RDKit          3D

 27 28  0  0  0  0  0  0  0  0999 V2000
  124.4740  123.7670   58.8090 C   0  0  0  0  0  0  0  0  0  0  0  0
  125.6080  124.5710   58.1660 C   0  0  0  0  0  0  0  0  0  0  0  0
  126.0150  123.9340   56.9610 O   0  0  0  0  0  0  0  0  0  0  0  0
  126.8470  122.8610   56.9820 C   0  0  0  0  0  0  0  0  0  0  0  0
  126.5390  121.7530   56.5320 O   0  0  0  0  0  0  0  0  0  0  0  0
  128.1840  123.1590   57.5970 C   0  0  0  0  0  0  0  0  0  0  0  0
  128.6970  122.4010   58.6620 C   0  0  0  0  0  0  0  0  0  0  0  0
  129.9390  122.7060   59.2110 C   0  0  0  0  0  0  0  0  0  0  0  0
  130.6890  123.7750   58.7170 C   0  0  0  0  0  0  0  0  0  0  0  0
  131.9280  123.9970   59.3490 N   0  0  0  0  0  0  0  0  0  0  0  0
  133.1670  123.6040   58.9840 C   0  0  0  0  0  0  0  0  0  0  0  0
  133.4410  122.9540   57.9750 O   0  0  0  0  0  0  0  0  0  0  0  0
  134.3010  124.0250   59.9270 C   0  0  0  0  0  0  0  0  0  0  0  0
  134.0240  123.6710   61.4040 C   0  0  0  0  0  0  0  0  0  0  0  0
  134.1790  121.9020   61.7970 S   0  0  0  0  0  0  0  0  0  0  0  0
  132.5550  121.1820   61.6910 C   0  0  0  0  0  0  0  0  0  0  0  0
  131.5780  121.9640   62.2140 N   0  0  0  0  0  0  0  0  0  0  0  0
  130.2990  121.5230   62.1740 C   0  0  0  0  0  0  0  0  0  0  0  0
  129.2610  122.4550   62.7680 C   0  0  0  0  0  0  0  0  0  0  0  0
  129.9450  120.2940   61.6210 C   0  0  0  0  0  0  0  0  0  0  0  0
  130.9470  119.4710   61.0960 C   0  0  0  0  0  0  0  0  0  0  0  0
  130.5370  118.1230   60.5080 C   0  0  0  0  0  0  0  0  0  0  0  0
  132.2910  119.9090   61.1330 C   0  0  0  0  0  0  0  0  0  0  0  0
  133.3610  119.0410   60.6370 C   0  0  0  0  0  0  0  0  0  0  0  0
  134.2060  118.3540   60.2450 N   0  0  0  0  0  0  0  0  0  0  0  0
  130.1870  124.5300   57.6470 C   0  0  0  0  0  0  0  0  0  0  0  0
  128.9460  124.2210   57.0960 C   0  0  0  0  0  0  0  0  0  0  0  0
  1  2  1  0
  2  3  1  0
  3  4  1  0
  4  5  2  0
  4  6  1  0
  6  7  2  0
  7  8  1  0
  8  9  2  0
  9 10  1  0
 10 11  1  0
 11 12  2  0
 11 13  1  0
 13 14  1  0
 14 15  1  0
 15 16  1  0
 16 17  2  0
 17 18  1  0
 18 19  1  0
 18 20  2  0
 20 21  1  0
 21 22  1  0
 21 23  2  0
 23 24  1  0
 24 25  3  0
  9 26  1  0
 26 27  2  0
 27  6  1  0
 23 16  1  0
M  END
>  <Binding energies>  (14) 
[-8.39]

>  <Ligand effiencies>  (14) 
[-0.29964285714285716]

>  <Interactions>  (14) 
["V-A:ASP:366:CG:3212, V-B:TYR:539:C:9839, V-B:PRO:540:CB:9857, V-A:LEU:475:CD1:4257, V-B:PRO:540:C:9853, V-B:PRO:540:CA:9855, V-B:ALA:541:CB:9864, V-B:PRO:540:N:9856, H-B:TYR:531:OH:9767, V-A:ASP:366:CB:3211, H-B:TYR:539:N:9842, V-B:MET:535:CE:9807, V-B:LEU:363:CD1:8160, V-B:LEU:363:CA:8156, V-B:LEU:363:CB:8158, V-B:TYR:539:CE2:9848, V-B:TYR:539:CZ:9849, V-B:TYR:531:CE2:9765, V-A:ILE:369:CD1:3238, V-B:TYR:539:CD2:9846, V-A:ILE:369:CB:3235, V-A:ASP:366:CA:3209, V-A:ILE:369:CG2:3236, H-B:TYR:539:OH:9850, V-A:PRO:482:CG:4326, V-B:ALA:541:CA:9862, H-A:HIS:383:NE2:3393, H-A:SER:385:OG:3409, V-A:SER:385:CA:3406"]

$$$$
1q_Grossjean_2025
     RDKit          3D

 21 21  0  0  0  0  0  0  0  0999 V2000
  128.9160  132.0730   54.6110 C   0  0  0  0  0  0  0  0  0  0  0  0
  128.8600  131.0490   53.6290 O   0  0  0  0  0  0  0  0  0  0  0  0
  128.2910  129.8510   53.9140 C   0  0  0  0  0  0  0  0  0  0  0  0
  127.0880  129.6550   54.0950 O   0  0  0  0  0  0  0  0  0  0  0  0
  129.3000  128.6900   54.0370 C   0  0  0  0  0  0  0  0  0  0  0  0
  128.8240  127.6050   54.9080 N   0  0  0  0  0  0  0  0  0  0  0  0
  129.5840  126.6270   55.4380 C   0  0  0  0  0  0  0  0  0  0  0  0
  130.7980  126.5370   55.2440 O   0  0  0  0  0  0  0  0  0  0  0  0
  128.8510  125.6150   56.3300 C   0  0  0  0  0  0  0  0  0  0  0  0
  129.7750  124.5900   57.0170 C   0  0  0  0  0  0  0  0  0  0  0  0
  128.9960  122.9680   57.2790 S   0  0  0  0  0  0  0  0  0  0  0  0
  128.1130  123.0060   58.8260 C   0  0  0  0  0  0  0  0  0  0  0  0
  128.8950  122.7300   59.9000 N   0  0  0  0  0  0  0  0  0  0  0  0
  128.3350  122.7270   61.1310 C   0  0  0  0  0  0  0  0  0  0  0  0
  129.2690  122.3920   62.2800 C   0  0  0  0  0  0  0  0  0  0  0  0
  126.9870  123.0070   61.3450 C   0  0  0  0  0  0  0  0  0  0  0  0
  126.1770  123.3180   60.2490 C   0  0  0  0  0  0  0  0  0  0  0  0
  124.7060  123.6400   60.5110 C   0  0  0  0  0  0  0  0  0  0  0  0
  126.7400  123.3300   58.9520 C   0  0  0  0  0  0  0  0  0  0  0  0
  125.9200  123.7100   57.8000 C   0  0  0  0  0  0  0  0  0  0  0  0
  125.2680  124.0100   56.8920 N   0  0  0  0  0  0  0  0  0  0  0  0
  1  2  1  0
  2  3  1  0
  3  4  2  0
  3  5  1  0
  5  6  1  0
  6  7  1  0
  7  8  2  0
  7  9  1  0
  9 10  1  0
 10 11  1  0
 11 12  1  0
 12 13  2  0
 13 14  1  0
 14 15  1  0
 14 16  2  0
 16 17  1  0
 17 18  1  0
 17 19  2  0
 19 20  1  0
 20 21  3  0
 19 12  1  0
M  END
>  <Binding energies>  (15) 
[-6.95]

>  <Ligand effiencies>  (15) 
[-0.3159090909090909]

>  <Interactions>  (15) 
["H-A:TYR:531:OH:4795, V-B:ASP:366:CG:8184, V-B:PRO:540:CB:9857, V-B:PRO:540:C:9853, V-B:PRO:540:CA:9855, V-B:ALA:541:CB:9864, V-A:TYR:539:CE2:4876, V-A:ILE:538:CB:4862, V-A:TYR:539:CZ:4877, V-A:ILE:538:CA:4860, V-B:LYS:534:CE:9794, V-A:ILE:538:CG2:4863, H-B:MET:535:SD:9806, H-B:LYS:534:NZ:9795, H-A:TYR:539:OH:4878, H-B:TYR:531:OH:9767, V-B:MET:535:CE:9807, V-B:TYR:539:CE2:9848, V-B:TYR:539:CZ:9849, H-B:TYR:539:OH:9850"]

$$$$
2a_Grossjean_2025
     RDKit          3D

 29 30  0  0  0  0  0  0  0  0999 V2000
  124.4890  123.6690   58.7860 C   0  0  0  0  0  0  0  0  0  0  0  0
  125.5380  124.5560   58.1080 C   0  0  0  0  0  0  0  0  0  0  0  0
  125.9620  123.9400   56.8970 O   0  0  0  0  0  0  0  0  0  0  0  0
  126.7120  122.8080   56.9130 C   0  0  0  0  0  0  0  0  0  0  0  0
  126.3550  121.7480   56.3900 O   0  0  0  0  0  0  0  0  0  0  0  0
  128.0300  122.9810   57.6130 C   0  0  0  0  0  0  0  0  0  0  0  0
  128.4190  122.1540   58.6770 C   0  0  0  0  0  0  0  0  0  0  0  0
  129.6460  122.3420   59.3050 C   0  0  0  0  0  0  0  0  0  0  0  0
  130.5060  123.3600   58.8890 C   0  0  0  0  0  0  0  0  0  0  0  0
  131.7130  123.4670   59.6040 N   0  0  0  0  0  0  0  0  0  0  0  0
  132.9800  123.5950   59.1540 C   0  0  0  0  0  0  0  0  0  0  0  0
  133.3200  123.6170   57.9710 O   0  0  0  0  0  0  0  0  0  0  0  0
  134.0570  123.7180   60.2380 C   0  0  0  0  0  0  0  0  0  0  0  0
  134.2460  122.2060   61.2410 S   0  0  0  0  0  0  0  0  0  0  0  0
  132.6540  121.4170   61.4500 C   0  0  0  0  0  0  0  0  0  0  0  0
  131.7060  122.1590   62.0770 N   0  0  0  0  0  0  0  0  0  0  0  0
  130.4830  121.6210   62.2800 C   0  0  0  0  0  0  0  0  0  0  0  0
  129.4870  122.5010   63.0110 C   0  0  0  0  0  0  0  0  0  0  0  0
  130.1500  120.3350   61.8640 C   0  0  0  0  0  0  0  0  0  0  0  0
  131.1110  119.5520   61.2060 C   0  0  0  0  0  0  0  0  0  0  0  0
  130.7270  118.1320   60.7510 C   0  0  0  0  0  0  0  0  0  0  0  0
  131.4380  117.2270   61.4230 F   0  0  0  0  0  0  0  0  0  0  0  0
  129.4290  117.9170   60.9750 F   0  0  0  0  0  0  0  0  0  0  0  0
  130.9470  117.9300   59.4490 F   0  0  0  0  0  0  0  0  0  0  0  0
  132.4000  120.1040   60.9890 C   0  0  0  0  0  0  0  0  0  0  0  0
  133.4430  119.3290   60.3100 C   0  0  0  0  0  0  0  0  0  0  0  0
  134.2670  118.7180   59.7730 N   0  0  0  0  0  0  0  0  0  0  0  0
  130.1280  124.1850   57.8200 C   0  0  0  0  0  0  0  0  0  0  0  0
  128.9010  123.9930   57.1900 C   0  0  0  0  0  0  0  0  0  0  0  0
  1  2  1  0
  2  3  1  0
  3  4  1  0
  4  5  2  0
  4  6  1  0
  6  7  2  0
  7  8  1  0
  8  9  2  0
  9 10  1  0
 10 11  1  0
 11 12  2  0
 11 13  1  0
 13 14  1  0
 14 15  1  0
 15 16  2  0
 16 17  1  0
 17 18  1  0
 17 19  2  0
 19 20  1  0
 20 21  1  0
 21 22  1  0
 21 23  1  0
 21 24  1  0
 20 25  2  0
 25 26  1  0
 26 27  3  0
  9 28  1  0
 28 29  2  0
 29  6  1  0
 25 15  1  0
M  END
>  <Binding energies>  (16) 
[-7.99]

>  <Ligand effiencies>  (16) 
[-0.26633333333333337]

>  <Interactions>  (16) 
["V-A:ASP:366:CG:3212, V-B:TYR:539:C:9839, V-B:PRO:540:CB:9857, V-A:LEU:475:CD1:4257, V-B:PRO:540:C:9853, V-B:PRO:540:CA:9855, V-B:ALA:541:CB:9864, V-B:PRO:540:N:9856, H-B:TYR:531:OH:9767, V-A:ASP:366:CB:3211, H-B:TYR:539:N:9842, V-B:MET:535:CE:9807, V-B:LEU:363:CD1:8160, V-B:LEU:363:CA:8156, V-B:LEU:363:CB:8158, V-B:TYR:539:CE2:9848, V-B:TYR:539:CZ:9849, V-B:TYR:531:CE2:9765, V-A:ILE:369:CD1:3238, V-B:TYR:539:CD2:9846, V-B:TYR:539:CG:9844, V-A:ILE:369:CB:3235, V-A:ASP:366:CA:3209, V-A:ILE:369:CG2:3236, H-B:TYR:539:OH:9850, V-A:PRO:482:CB:4325, V-A:PRO:482:CG:4326, V-B:ALA:541:CA:9862, V-B:TYR:539:CB:9843, H-A:HIS:383:NE2:3393, H-A:SER:385:OG:3409, V-A:HIS:383:CE1:3392, V-A:PRO:482:CD:4327"]

$$$$
2b_Grossjean_2025
     RDKit          3D

 28 29  0  0  0  0  0  0  0  0999 V2000
  125.1810  124.3300   58.0050 C   0  0  0  0  0  0  0  0  0  0  0  0
  125.9980  123.9690   56.9000 O   0  0  0  0  0  0  0  0  0  0  0  0
  126.7490  122.8380   56.9260 C   0  0  0  0  0  0  0  0  0  0  0  0
  126.3840  121.7670   56.4300 O   0  0  0  0  0  0  0  0  0  0  0  0
  128.0670  123.0170   57.6220 C   0  0  0  0  0  0  0  0  0  0  0  0
  128.4830  122.1640   58.6550 C   0  0  0  0  0  0  0  0  0  0  0  0
  129.7110  122.3590   59.2810 C   0  0  0  0  0  0  0  0  0  0  0  0
  130.5490  123.4020   58.8870 C   0  0  0  0  0  0  0  0  0  0  0  0
  131.7630  123.5120   59.5900 N   0  0  0  0  0  0  0  0  0  0  0  0
  133.0320  123.4650   59.1320 C   0  0  0  0  0  0  0  0  0  0  0  0
  133.3600  123.2830   57.9580 O   0  0  0  0  0  0  0  0  0  0  0  0
  134.1190  123.6410   60.1980 C   0  0  0  0  0  0  0  0  0  0  0  0
  134.2390  122.2230   61.3380 S   0  0  0  0  0  0  0  0  0  0  0  0
  132.6410  121.4420   61.5110 C   0  0  0  0  0  0  0  0  0  0  0  0
  131.6810  122.1900   62.1120 N   0  0  0  0  0  0  0  0  0  0  0  0
  130.4490  121.6600   62.2810 C   0  0  0  0  0  0  0  0  0  0  0  0
  129.4380  122.5550   62.9720 C   0  0  0  0  0  0  0  0  0  0  0  0
  130.1190  120.3760   61.8550 C   0  0  0  0  0  0  0  0  0  0  0  0
  131.0930  119.5870   61.2250 C   0  0  0  0  0  0  0  0  0  0  0  0
  130.7100  118.1710   60.7560 C   0  0  0  0  0  0  0  0  0  0  0  0
  131.4190  117.2610   61.4260 F   0  0  0  0  0  0  0  0  0  0  0  0
  129.4120  117.9510   60.9710 F   0  0  0  0  0  0  0  0  0  0  0  0
  130.9380  117.9780   59.4550 F   0  0  0  0  0  0  0  0  0  0  0  0
  132.3920  120.1280   61.0470 C   0  0  0  0  0  0  0  0  0  0  0  0
  133.4500  119.3460   60.4010 C   0  0  0  0  0  0  0  0  0  0  0  0
  134.2850  118.7290   59.8900 N   0  0  0  0  0  0  0  0  0  0  0  0
  130.1370  124.2650   57.8610 C   0  0  0  0  0  0  0  0  0  0  0  0
  128.9080  124.0700   57.2360 C   0  0  0  0  0  0  0  0  0  0  0  0
  1  2  1  0
  2  3  1  0
  3  4  2  0
  3  5  1  0
  5  6  2  0
  6  7  1  0
  7  8  2  0
  8  9  1  0
  9 10  1  0
 10 11  2  0
 10 12  1  0
 12 13  1  0
 13 14  1  0
 14 15  2  0
 15 16  1  0
 16 17  1  0
 16 18  2  0
 18 19  1  0
 19 20  1  0
 20 21  1  0
 20 22  1  0
 20 23  1  0
 19 24  2  0
 24 25  1  0
 25 26  3  0
  8 27  1  0
 27 28  2  0
 28  5  1  0
 24 14  1  0
M  END
>  <Binding energies>  (17) 
[-7.75]

>  <Ligand effiencies>  (17) 
[-0.2672413793103448]

>  <Interactions>  (17) 
["V-A:ASP:366:CG:3212, V-B:TYR:539:C:9839, V-A:LEU:475:CD1:4257, V-B:PRO:540:C:9853, V-B:PRO:540:CA:9855, V-B:ALA:541:CB:9864, V-B:PRO:540:N:9856, H-B:TYR:531:OH:9767, V-A:ASP:366:CB:3211, H-B:TYR:539:N:9842, V-B:MET:535:CE:9807, V-B:LEU:363:CD1:8160, V-B:TYR:539:CE2:9848, V-B:TYR:539:CZ:9849, V-B:TYR:531:CE2:9765, V-A:ILE:369:CD1:3238, V-B:TYR:539:CD2:9846, V-B:TYR:539:CG:9844, V-A:ILE:369:CB:3235, V-A:ASP:366:CA:3209, V-A:ILE:369:CG2:3236, H-B:TYR:539:OH:9850, V-A:PRO:482:CB:4325, V-A:PRO:482:CG:4326, V-B:ALA:541:CA:9862, V-B:TYR:539:CB:9843, H-A:HIS:383:NE2:3393, H-A:SER:385:OG:3409, V-A:HIS:383:CE1:3392, V-A:PRO:482:CD:4327"]

$$$$
2c_Grossjean_2025
     RDKit          3D

 26 27  0  0  0  0  0  0  0  0999 V2000
  133.0550  131.5250   61.7000 C   0  0  0  0  0  0  0  0  0  0  0  0
  133.6070  130.8540   60.5720 O   0  0  0  0  0  0  0  0  0  0  0  0
  132.8900  130.8190   59.3920 C   0  0  0  0  0  0  0  0  0  0  0  0
  133.5910  130.4390   58.2480 C   0  0  0  0  0  0  0  0  0  0  0  0
  132.9550  130.3740   57.0110 C   0  0  0  0  0  0  0  0  0  0  0  0
  131.5950  130.7040   56.9060 C   0  0  0  0  0  0  0  0  0  0  0  0
  130.8630  130.6520   55.7060 N   0  0  0  0  0  0  0  0  0  0  0  0
  130.0140  131.5700   55.1960 C   0  0  0  0  0  0  0  0  0  0  0  0
  129.6960  132.6190   55.7590 O   0  0  0  0  0  0  0  0  0  0  0  0
  129.4060  131.2020   53.8340 C   0  0  0  0  0  0  0  0  0  0  0  0
  128.9600  129.4430   53.6210 S   0  0  0  0  0  0  0  0  0  0  0  0
  128.5200  128.7460   55.2080 C   0  0  0  0  0  0  0  0  0  0  0  0
  127.5910  129.4380   55.9170 N   0  0  0  0  0  0  0  0  0  0  0  0
  127.2170  128.9750   57.1290 C   0  0  0  0  0  0  0  0  0  0  0  0
  126.1890  129.8120   57.8650 C   0  0  0  0  0  0  0  0  0  0  0  0
  127.7390  127.8070   57.6820 C   0  0  0  0  0  0  0  0  0  0  0  0
  128.6940  127.0720   56.9650 C   0  0  0  0  0  0  0  0  0  0  0  0
  129.2600  125.7820   57.5880 C   0  0  0  0  0  0  0  0  0  0  0  0
  130.5830  125.8830   57.7240 F   0  0  0  0  0  0  0  0  0  0  0  0
  128.7160  125.5750   58.7880 F   0  0  0  0  0  0  0  0  0  0  0  0
  129.0160  124.7000   56.8440 F   0  0  0  0  0  0  0  0  0  0  0  0
  129.1000  127.5500   55.6930 C   0  0  0  0  0  0  0  0  0  0  0  0
  130.0970  126.8230   54.8990 C   0  0  0  0  0  0  0  0  0  0  0  0
  130.8830  126.2480   54.2730 N   0  0  0  0  0  0  0  0  0  0  0  0
  130.8850  131.0700   58.0510 C   0  0  0  0  0  0  0  0  0  0  0  0
  131.5250  131.1320   59.2850 C   0  0  0  0  0  0  0  0  0  0  0  0
  1  2  1  0
  2  3  1  0
  3  4  2  0
  4  5  1  0
  5  6  2  0
  6  7  1  0
  7  8  1  0
  8  9  2  0
  8 10  1  0
 10 11  1  0
 11 12  1  0
 12 13  2  0
 13 14  1  0
 14 15  1  0
 14 16  2  0
 16 17  1  0
 17 18  1  0
 18 19  1  0
 18 20  1  0
 18 21  1  0
 17 22  2  0
 22 23  1  0
 23 24  3  0
  6 25  1  0
 25 26  2  0
 26  3  1  0
 22 12  1  0
M  END
>  <Binding energies>  (18) 
[-7.03]

>  <Ligand effiencies>  (18) 
[-0.26037037037037036]

>  <Interactions>  (18) 
["V-A:PRO:540:CB:4885, V-A:PRO:540:CA:4883, V-A:TYR:539:CE1:4875, H-A:TYR:531:OH:4795, V-A:ASP:366:CG:3212, V-B:TYR:531:CZ:9766, V-A:ILE:538:CB:4862, V-A:ILE:538:CA:4860, V-A:TYR:531:CZ:4794, V-B:LYS:534:CE:9794, V-A:ILE:538:CG2:4863, H-A:TYR:539:N:4870, H-B:TYR:531:OH:9767, V-A:LEU:363:CD1:3188, V-A:LEU:363:CB:3186, V-A:LEU:363:CA:3184, V-A:ASP:366:CB:3211, V-B:MET:535:CE:9807, H-B:TYR:539:OH:9850, V-A:ASN:362:CB:3175, H-A:LEU:363:N:3185"]

$$$$
2d_Ghoteimi_2023
     RDKit          3D

 38 42  0  0  0  0  0  0  0  0999 V2000
  122.6300  129.2550   66.9990 C   0  0  0  0  0  0  0  0  0  0  0  0
  123.9910  128.9130   67.2120 O   0  0  0  0  0  0  0  0  0  0  0  0
  124.9120  129.1370   66.2510 C   0  0  0  0  0  0  0  0  0  0  0  0
  124.6710  129.2990   65.0520 O   0  0  0  0  0  0  0  0  0  0  0  0
  126.3310  129.1760   66.8380 C   0  0  0  0  0  0  0  0  0  0  0  0
  127.5510  128.4970   65.6620 S   0  0  0  0  0  0  0  0  0  0  0  0
  127.1630  129.1120   64.0360 C   0  0  0  0  0  0  0  0  0  0  0  0
  127.0740  128.1340   63.1010 N   0  0  0  0  0  0  0  0  0  0  0  0
  126.7900  128.4590   61.8150 C   0  0  0  0  0  0  0  0  0  0  0  0
  126.7260  127.3300   60.8380 C   0  0  0  0  0  0  0  0  0  0  0  0
  127.0380  126.0250   61.2350 C   0  0  0  0  0  0  0  0  0  0  0  0
  126.9800  124.9680   60.3310 C   0  0  0  0  0  0  0  0  0  0  0  0
  126.5960  125.1760   58.9970 C   0  0  0  0  0  0  0  0  0  0  0  0
  126.5490  124.1280   58.0710 N   0  0  0  0  0  0  0  0  0  0  0  0
  127.4290  122.9490   58.1940 C   0  0  0  0  0  0  0  0  0  0  0  0
  127.5050  122.0980   56.9100 C   0  0  0  0  0  0  0  0  0  0  0  0
  126.2010  121.7140   56.5050 O   0  0  0  0  0  0  0  0  0  0  0  0
  125.3870  122.8430   56.2300 C   0  0  0  0  0  0  0  0  0  0  0  0
  125.2530  123.7210   57.4920 C   0  0  0  0  0  0  0  0  0  0  0  0
  126.2970  126.4870   58.6000 C   0  0  0  0  0  0  0  0  0  0  0  0
  126.3570  127.5440   59.5040 C   0  0  0  0  0  0  0  0  0  0  0  0
  126.5840  129.7880   61.4360 C   0  0  0  0  0  0  0  0  0  0  0  0
  126.6380  130.8140   62.3880 C   0  0  0  0  0  0  0  0  0  0  0  0
  126.3800  132.2070   61.9160 C   0  0  0  0  0  0  0  0  0  0  0  0
  127.4230  133.1320   61.8520 C   0  0  0  0  0  0  0  0  0  0  0  0
  127.1960  134.4290   61.4030 C   0  0  0  0  0  0  0  0  0  0  0  0
  125.9130  134.8400   61.0050 C   0  0  0  0  0  0  0  0  0  0  0  0
  125.6640  136.1340   60.5380 N   0  0  0  0  0  0  0  0  0  0  0  0
  124.3880  136.4840   59.8850 C   0  0  0  0  0  0  0  0  0  0  0  0
  124.1530  138.0050   59.7670 C   0  0  0  0  0  0  0  0  0  0  0  0
  125.2480  138.6140   59.1000 O   0  0  0  0  0  0  0  0  0  0  0  0
  126.4670  138.4090   59.7980 C   0  0  0  0  0  0  0  0  0  0  0  0
  126.7620  136.8970   59.9130 C   0  0  0  0  0  0  0  0  0  0  0  0
  124.8750  133.9000   61.0550 C   0  0  0  0  0  0  0  0  0  0  0  0
  125.1030  132.6020   61.5040 C   0  0  0  0  0  0  0  0  0  0  0  0
  126.9310  130.4730   63.7320 C   0  0  0  0  0  0  0  0  0  0  0  0
  126.9790  131.5090   64.7680 C   0  0  0  0  0  0  0  0  0  0  0  0
  127.0160  132.3300   65.5830 N   0  0  0  0  0  0  0  0  0  0  0  0
  1  2  1  0
  2  3  1  0
  3  4  2  0
  3  5  1  0
  5  6  1  0
  6  7  1  0
  7  8  2  0
  8  9  1  0
  9 10  1  0
 10 11  2  0
 11 12  1  0
 12 13  2  0
 13 14  1  0
 14 15  1  0
 15 16  1  0
 16 17  1  0
 17 18  1  0
 18 19  1  0
 13 20  1  0
 20 21  2  0
  9 22  2  0
 22 23  1  0
 23 24  1  0
 24 25  2  0
 25 26  1  0
 26 27  2  0
 27 28  1  0
 28 29  1  0
 29 30  1  0
 30 31  1  0
 31 32  1  0
 32 33  1  0
 27 34  1  0
 34 35  2  0
 23 36  2  0
 36 37  1  0
 37 38  3  0
 36  7  1  0
 21 10  1  0
 35 24  1  0
 19 14  1  0
 33 28  1  0
M  END
>  <Binding energies>  (19) 
[-9.44]

>  <Ligand effiencies>  (19) 
[-0.24842105263157893]

>  <Interactions>  (19) 
["V-B:ARG:545:CG:9894, V-A:ALA:541:CB:4892, V-B:TYR:484:CE2:9317, V-B:HIS:456:CE1:9041, V-B:LEU:475:CD1:9229, V-A:TYR:539:CD1:4873, V-A:TYR:539:C:4867, V-B:TYR:484:CZ:9318, V-B:GLY:454:CA:9020, V-B:ARG:545:CD:9895, V-B:ASP:366:CG:8184, V-B:ARG:545:CZ:9898, V-B:TYR:539:C:9839, V-B:PRO:540:CA:9855, V-B:PRO:540:N:9856, H-B:TYR:484:OH:9319, V-A:TYR:539:CG:4872, H-B:GLY:454:N:9021, H-B:TYR:539:N:9842, V-B:MET:535:CE:9807, V-B:LEU:363:CD1:8160, V-B:ASP:366:CB:8183, V-B:PRO:482:CG:9298, V-B:TYR:531:CE2:9765, V-B:ILE:369:CG2:8208, H-B:ARG:545:NH1:9899, H-B:ARG:545:NH2:9900, V-A:TYR:539:CA:4869, V-A:TYR:539:CB:4871, H-B:ARG:545:NE:9896, V-B:TYR:539:CG:9844, V-B:TYR:539:CD1:9845, V-B:TYR:539:CA:9841, V-B:LEU:373:CD1:8251, V-B:SER:385:CB:8380, V-A:VAL:344:CG1:3000, V-B:LEU:373:CD2:8252, V-B:VAL:384:C:8368, V-B:GLY:453:C:9013, H-B:HIS:456:ND1:9038, V-B:SER:385:CA:8378, V-B:GLY:453:CA:9015, V-B:ILE:455:C:9023, V-B:GLY:454:C:9018"]

$$$$
2d_Grossjean_2025
     RDKit          3D

 24 25  0  0  0  0  0  0  0  0999 V2000
  126.1020  130.0020   57.6270 C   0  0  0  0  0  0  0  0  0  0  0  0
  127.1690  129.1460   56.9720 C   0  0  0  0  0  0  0  0  0  0  0  0
  127.6950  128.0230   57.6070 C   0  0  0  0  0  0  0  0  0  0  0  0
  128.6770  127.2600   56.9580 C   0  0  0  0  0  0  0  0  0  0  0  0
  129.2400  126.0160   57.6720 C   0  0  0  0  0  0  0  0  0  0  0  0
  128.9580  124.9190   56.9680 F   0  0  0  0  0  0  0  0  0  0  0  0
  130.5640  126.1210   57.7980 F   0  0  0  0  0  0  0  0  0  0  0  0
  128.7330  125.8490   58.8960 F   0  0  0  0  0  0  0  0  0  0  0  0
  129.1090  127.6650   55.6690 C   0  0  0  0  0  0  0  0  0  0  0  0
  130.0970  126.8760   54.9300 C   0  0  0  0  0  0  0  0  0  0  0  0
  130.8770  126.2510   54.3470 N   0  0  0  0  0  0  0  0  0  0  0  0
  128.5360  128.8330   55.1120 C   0  0  0  0  0  0  0  0  0  0  0  0
  128.9840  129.5010   53.5210 S   0  0  0  0  0  0  0  0  0  0  0  0
  129.4570  131.2490   53.7310 C   0  0  0  0  0  0  0  0  0  0  0  0
  129.9090  131.5800   55.1570 C   0  0  0  0  0  0  0  0  0  0  0  0
  129.4460  132.5760   55.7150 O   0  0  0  0  0  0  0  0  0  0  0  0
  130.8260  130.7450   55.6870 N   0  0  0  0  0  0  0  0  0  0  0  0
  131.4280  130.7780   56.9590 C   0  0  0  0  0  0  0  0  0  0  0  0
  132.7710  130.3990   57.0120 C   0  0  0  0  0  0  0  0  0  0  0  0
  133.4520  130.3930   58.2260 C   0  0  0  0  0  0  0  0  0  0  0  0
  132.7850  130.7590   59.3930 C   0  0  0  0  0  0  0  0  0  0  0  0
  131.4420  131.1270   59.3550 C   0  0  0  0  0  0  0  0  0  0  0  0
  130.7590  131.1340   58.1430 C   0  0  0  0  0  0  0  0  0  0  0  0
  127.5730  129.5470   55.7450 N   0  0  0  0  0  0  0  0  0  0  0  0
  1  2  1  0
  2  3  2  0
  3  4  1  0
  4  5  1  0
  5  6  1  0
  5  7  1  0
  5  8  1  0
  4  9  2  0
  9 10  1  0
 10 11  3  0
  9 12  1  0
 12 13  1  0
 13 14  1  0
 14 15  1  0
 15 16  2  0
 15 17  1  0
 17 18  1  0
 18 19  2  0
 19 20  1  0
 20 21  2  0
 21 22  1  0
 22 23  2  0
 12 24  2  0
 24  2  1  0
 23 18  1  0
M  END
>  <Binding energies>  (20) 
[-6.99]

>  <Ligand effiencies>  (20) 
[-0.2796]

>  <Interactions>  (20) 
["V-A:PRO:540:CB:4885, V-A:PRO:540:CA:4883, V-A:TYR:539:CE1:4875, H-A:TYR:531:OH:4795, V-A:ASP:366:CG:3212, V-B:TYR:531:CZ:9766, V-A:ILE:538:CB:4862, V-A:TYR:539:CZ:4877, V-A:ILE:538:CA:4860, V-A:TYR:531:CZ:4794, V-B:LYS:534:CE:9794, V-A:ILE:538:CG2:4863, H-A:TYR:539:N:4870, H-B:LYS:534:NZ:9795, H-B:TYR:531:OH:9767, V-A:LEU:363:CD1:3188, V-A:LEU:363:CA:3184, V-A:ASP:366:CB:3211, V-B:MET:535:CE:9807, H-B:TYR:539:OH:9850"]

$$$$
2e_Grossjean_2025
     RDKit          3D

 25 26  0  0  0  0  0  0  0  0999 V2000
  130.5070  131.4010   60.5240 C   0  0  0  0  0  0  0  0  0  0  0  0
  131.3430  131.0770   59.3010 C   0  0  0  0  0  0  0  0  0  0  0  0
  132.7030  130.7720   59.4030 C   0  0  0  0  0  0  0  0  0  0  0  0
  133.4050  130.4720   58.2350 C   0  0  0  0  0  0  0  0  0  0  0  0
  132.7400  130.4860   57.0060 C   0  0  0  0  0  0  0  0  0  0  0  0
  131.3790  130.8100   56.9750 C   0  0  0  0  0  0  0  0  0  0  0  0
  130.7500  130.7650   55.7190 N   0  0  0  0  0  0  0  0  0  0  0  0
  129.8150  131.6070   55.2250 C   0  0  0  0  0  0  0  0  0  0  0  0
  129.4070  132.6220   55.7930 O   0  0  0  0  0  0  0  0  0  0  0  0
  129.2080  131.2120   53.8750 C   0  0  0  0  0  0  0  0  0  0  0  0
  129.1170  129.4040   53.6700 S   0  0  0  0  0  0  0  0  0  0  0  0
  128.5140  128.7790   55.2220 C   0  0  0  0  0  0  0  0  0  0  0  0
  127.5490  129.5360   55.8000 N   0  0  0  0  0  0  0  0  0  0  0  0
  127.0660  129.1570   57.0040 C   0  0  0  0  0  0  0  0  0  0  0  0
  125.9880  130.0480   57.5920 C   0  0  0  0  0  0  0  0  0  0  0  0
  127.5250  128.0260   57.6780 C   0  0  0  0  0  0  0  0  0  0  0  0
  128.5300  127.2380   57.0980 C   0  0  0  0  0  0  0  0  0  0  0  0
  129.0420  126.0030   57.8640 C   0  0  0  0  0  0  0  0  0  0  0  0
  128.8420  124.9010   57.1410 F   0  0  0  0  0  0  0  0  0  0  0  0
  130.3460  126.1290   58.1110 F   0  0  0  0  0  0  0  0  0  0  0  0
  128.4250  125.8320   59.0350 F   0  0  0  0  0  0  0  0  0  0  0  0
  129.0430  127.6190   55.8330 C   0  0  0  0  0  0  0  0  0  0  0  0
  130.1140  126.8540   55.1880 C   0  0  0  0  0  0  0  0  0  0  0  0
  130.9610  126.2500   54.6800 N   0  0  0  0  0  0  0  0  0  0  0  0
  130.6830  131.0960   58.1140 N   0  0  0  0  0  0  0  0  0  0  0  0
  1  2  1  0
  2  3  2  0
  3  4  1  0
  4  5  2  0
  5  6  1  0
  6  7  1  0
  7  8  1  0
  8  9  2  0
  8 10  1  0
 10 11  1  0
 11 12  1  0
 12 13  2  0
 13 14  1  0
 14 15  1  0
 14 16  2  0
 16 17  1  0
 17 18  1  0
 18 19  1  0
 18 20  1  0
 18 21  1  0
 17 22  2  0
 22 23  1  0
 23 24  3  0
  6 25  2  0
 25  2  1  0
 22 12  1  0
M  END
>  <Binding energies>  (21) 
[-7.06]

>  <Ligand effiencies>  (21) 
[-0.2715384615384615]

>  <Interactions>  (21) 
["V-A:PRO:540:CB:4885, V-A:PRO:540:CA:4883, V-A:TYR:539:CE1:4875, H-A:TYR:531:OH:4795, V-A:ASP:366:CG:3212, V-B:TYR:531:CZ:9766, V-A:ILE:538:CB:4862, V-A:TYR:539:CZ:4877, V-A:ILE:538:CA:4860, V-B:LYS:534:CE:9794, V-A:ILE:538:CG2:4863, H-A:TYR:539:N:4870, H-B:TYR:531:OH:9767, V-A:LEU:363:CD1:3188, V-A:LEU:363:CB:3186, V-A:LEU:363:CA:3184, V-A:ASP:366:CB:3211, V-B:MET:535:CE:9807, H-B:TYR:539:OH:9850"]

$$$$
2f_Grossjean_2025
     RDKit          3D

 24 25  0  0  0  0  0  0  0  0999 V2000
  126.3110  130.0020   57.7860 C   0  0  0  0  0  0  0  0  0  0  0  0
  127.3030  129.1160   57.0560 C   0  0  0  0  0  0  0  0  0  0  0  0
  127.7860  127.9390   57.6230 C   0  0  0  0  0  0  0  0  0  0  0  0
  128.7090  127.1580   56.9110 C   0  0  0  0  0  0  0  0  0  0  0  0
  129.2400  125.8660   57.5600 C   0  0  0  0  0  0  0  0  0  0  0  0
  128.9260  124.8110   56.8060 F   0  0  0  0  0  0  0  0  0  0  0  0
  130.5660  125.9300   57.6820 F   0  0  0  0  0  0  0  0  0  0  0  0
  128.7350  125.6520   58.7770 F   0  0  0  0  0  0  0  0  0  0  0  0
  129.1160  127.5940   55.6240 C   0  0  0  0  0  0  0  0  0  0  0  0
  130.1190  126.8430   54.8650 C   0  0  0  0  0  0  0  0  0  0  0  0
  130.9120  126.2490   54.2660 N   0  0  0  0  0  0  0  0  0  0  0  0
  128.5520  128.7890   55.1170 C   0  0  0  0  0  0  0  0  0  0  0  0
  128.9390  129.4770   53.5190 S   0  0  0  0  0  0  0  0  0  0  0  0
  129.4030  131.2270   53.7540 C   0  0  0  0  0  0  0  0  0  0  0  0
  129.9020  131.5850   55.1610 C   0  0  0  0  0  0  0  0  0  0  0  0
  129.4610  132.5720   55.7510 O   0  0  0  0  0  0  0  0  0  0  0  0
  130.8460  130.7520   55.6500 N   0  0  0  0  0  0  0  0  0  0  0  0
  131.5050  130.7780   56.8930 C   0  0  0  0  0  0  0  0  0  0  0  0
  132.8290  130.3600   57.1240 C   0  0  0  0  0  0  0  0  0  0  0  0
  133.3660  130.4440   58.4100 C   0  0  0  0  0  0  0  0  0  0  0  0
  132.5660  130.9480   59.4360 C   0  0  0  0  0  0  0  0  0  0  0  0
  131.2900  131.3650   59.2380 N   0  0  0  0  0  0  0  0  0  0  0  0
  130.7820  131.2780   57.9820 C   0  0  0  0  0  0  0  0  0  0  0  0
  127.6790  129.5430   55.8290 N   0  0  0  0  0  0  0  0  0  0  0  0
  1  2  1  0
  2  3  2  0
  3  4  1  0
  4  5  1  0
  5  6  1  0
  5  7  1  0
  5  8  1  0
  4  9  2  0
  9 10  1  0
 10 11  3  0
  9 12  1  0
 12 13  1  0
 13 14  1  0
 14 15  1  0
 15 16  2  0
 15 17  1  0
 17 18  1  0
 18 19  2  0
 19 20  1  0
 20 21  2  0
 21 22  1  0
 22 23  2  0
 12 24  2  0
 24  2  1  0
 23 18  1  0
M  END
>  <Binding energies>  (22) 
[-6.64]

>  <Ligand effiencies>  (22) 
[-0.2656]

>  <Interactions>  (22) 
["V-A:PRO:540:CB:4885, V-A:PRO:540:CA:4883, V-A:TYR:539:CE1:4875, H-A:TYR:531:OH:4795, V-A:PRO:540:N:4884, V-A:ASP:366:CG:3212, V-A:ILE:538:CB:4862, V-A:TYR:539:CZ:4877, V-A:ILE:538:CA:4860, V-A:TYR:531:CZ:4794, V-B:LYS:534:CE:9794, V-A:ILE:538:CG2:4863, H-A:TYR:539:N:4870, H-B:LYS:534:NZ:9795, H-B:TYR:531:OH:9767, V-A:LEU:363:CD1:3188, V-A:LEU:363:CA:3184, V-A:ASP:366:CB:3211, V-B:MET:535:CE:9807, H-B:TYR:539:OH:9850"]

$$$$
2g_Grossjean_2025
     RDKit          3D

 25 26  0  0  0  0  0  0  0  0999 V2000
  129.3260  131.8720   60.4290 C   0  0  0  0  0  0  0  0  0  0  0  0
  128.9130  131.4740   59.0250 C   0  0  0  0  0  0  0  0  0  0  0  0
  129.6330  131.8890   57.9080 C   0  0  0  0  0  0  0  0  0  0  0  0
  129.2060  131.5000   56.6290 C   0  0  0  0  0  0  0  0  0  0  0  0
  130.0100  131.9770   55.4030 C   0  0  0  0  0  0  0  0  0  0  0  0
  129.2140  132.6270   54.5530 F   0  0  0  0  0  0  0  0  0  0  0  0
  130.9860  132.7960   55.7950 F   0  0  0  0  0  0  0  0  0  0  0  0
  130.5730  130.9700   54.7320 F   0  0  0  0  0  0  0  0  0  0  0  0
  128.0510  130.6840   56.5180 C   0  0  0  0  0  0  0  0  0  0  0  0
  127.5300  130.2970   55.2040 C   0  0  0  0  0  0  0  0  0  0  0  0
  127.1200  129.9920   54.1660 N   0  0  0  0  0  0  0  0  0  0  0  0
  127.4010  130.2860   57.7110 C   0  0  0  0  0  0  0  0  0  0  0  0
  125.9580  129.2440   57.7560 S   0  0  0  0  0  0  0  0  0  0  0  0
  124.4980  130.3350   57.8620 C   0  0  0  0  0  0  0  0  0  0  0  0
  124.2550  130.9480   59.2480 C   0  0  0  0  0  0  0  0  0  0  0  0
  123.1980  130.7650   59.8550 O   0  0  0  0  0  0  0  0  0  0  0  0
  125.2640  131.6930   59.7360 N   0  0  0  0  0  0  0  0  0  0  0  0
  125.2700  132.3690   61.0340 C   0  0  0  0  0  0  0  0  0  0  0  0
  125.6740  133.8390   60.9760 C   0  0  0  0  0  0  0  0  0  0  0  0
  126.8750  134.2540   61.5580 C   0  0  0  0  0  0  0  0  0  0  0  0
  127.2640  135.5890   61.4730 C   0  0  0  0  0  0  0  0  0  0  0  0
  126.4570  136.5010   60.7970 C   0  0  0  0  0  0  0  0  0  0  0  0
  125.2650  136.0900   60.2030 C   0  0  0  0  0  0  0  0  0  0  0  0
  124.8750  134.7560   60.2880 C   0  0  0  0  0  0  0  0  0  0  0  0
  127.8150  130.6900   58.9380 N   0  0  0  0  0  0  0  0  0  0  0  0
  1  2  1  0
  2  3  2  0
  3  4  1  0
  4  5  1  0
  5  6  1  0
  5  7  1  0
  5  8  1  0
  4  9  2  0
  9 10  1  0
 10 11  3  0
  9 12  1  0
 12 13  1  0
 13 14  1  0
 14 15  1  0
 15 16  2  0
 15 17  1  0
 17 18  1  0
 18 19  1  0
 19 20  2  0
 20 21  1  0
 21 22  2  0
 22 23  1  0
 23 24  2  0
 12 25  2  0
 25  2  1  0
 24 19  1  0
M  END
>  <Binding energies>  (23) 
[-7.29]

>  <Ligand effiencies>  (23) 
[-0.2803846153846154]

>  <Interactions>  (23) 
["V-A:ALA:541:CB:4892, V-B:LEU:475:CD1:9229, V-A:TYR:539:CD1:4873, V-A:TYR:539:C:4867, V-A:PRO:540:CA:4883, V-A:TYR:539:CE1:4875, V-A:PRO:540:N:4884, V-A:TYR:539:CE2:4876, V-A:ILE:538:C:4858, V-A:ILE:538:CB:4862, V-A:TYR:539:CZ:4877, V-A:TYR:539:CD2:4874, V-A:ILE:538:CA:4860, V-A:TYR:531:CZ:4794, V-A:ILE:538:CG2:4863, H-B:LYS:534:NZ:9795, H-A:TYR:539:OH:4878, H-B:TYR:531:OH:9767, V-B:TYR:531:CE1:9764, V-A:PRO:540:CD:4887, V-B:ASP:366:CB:8183, V-B:PRO:482:CB:9297, V-B:PRO:482:CG:9298, V-B:ILE:369:CG2:8208, V-A:TYR:539:CA:4869, V-A:TYR:539:CB:4871, V-B:ASP:366:CA:8181, V-B:LEU:373:CD1:8251, V-B:SER:385:CB:8380, V-B:ASP:366:C:8179, V-B:ILE:369:CB:8207"]

$$$$
2h_Grossjean_2025
     RDKit          3D

 31 32  0  0  0  0  0  0  0  0999 V2000
  132.0060  132.4850   55.7330 C   0  0  0  0  0  0  0  0  0  0  0  0
  130.6630  132.8870   55.4870 O   0  0  0  0  0  0  0  0  0  0  0  0
  129.6230  132.0910   55.9340 C   0  0  0  0  0  0  0  0  0  0  0  0
  129.3070  131.9030   57.2890 C   0  0  0  0  0  0  0  0  0  0  0  0
  128.2380  131.0920   57.6630 C   0  0  0  0  0  0  0  0  0  0  0  0
  127.4620  130.4520   56.6950 C   0  0  0  0  0  0  0  0  0  0  0  0
  126.2830  129.5830   57.1280 C   0  0  0  0  0  0  0  0  0  0  0  0
  126.3990  129.0750   58.4950 N   0  0  0  0  0  0  0  0  0  0  0  0
  126.4240  127.7740   58.8340 C   0  0  0  0  0  0  0  0  0  0  0  0
  126.2670  126.8610   58.0210 O   0  0  0  0  0  0  0  0  0  0  0  0
  126.6730  127.4810   60.3200 C   0  0  0  0  0  0  0  0  0  0  0  0
  128.0210  128.4460   61.0810 S   0  0  0  0  0  0  0  0  0  0  0  0
  129.3110  128.5760   59.8620 C   0  0  0  0  0  0  0  0  0  0  0  0
  129.2990  127.5760   58.9460 N   0  0  0  0  0  0  0  0  0  0  0  0
  130.2490  127.5670   57.9850 C   0  0  0  0  0  0  0  0  0  0  0  0
  130.1790  126.4160   57.0000 C   0  0  0  0  0  0  0  0  0  0  0  0
  131.2360  128.5470   57.8930 C   0  0  0  0  0  0  0  0  0  0  0  0
  131.2520  129.6000   58.8190 C   0  0  0  0  0  0  0  0  0  0  0  0
  132.3460  130.6790   58.6960 C   0  0  0  0  0  0  0  0  0  0  0  0
  133.1720  130.3760   57.6940 F   0  0  0  0  0  0  0  0  0  0  0  0
  131.8490  131.8930   58.4510 F   0  0  0  0  0  0  0  0  0  0  0  0
  133.0470  130.7520   59.8280 F   0  0  0  0  0  0  0  0  0  0  0  0
  130.2580  129.6280   59.8300 C   0  0  0  0  0  0  0  0  0  0  0  0
  130.1950  130.7380   60.7850 C   0  0  0  0  0  0  0  0  0  0  0  0
  130.1460  131.6170   61.5360 N   0  0  0  0  0  0  0  0  0  0  0  0
  127.7810  130.6120   55.3380 C   0  0  0  0  0  0  0  0  0  0  0  0
  127.0240  129.9820   54.3780 O   0  0  0  0  0  0  0  0  0  0  0  0
  127.6520  128.8550   53.7810 C   0  0  0  0  0  0  0  0  0  0  0  0
  128.8480  131.4460   54.9620 C   0  0  0  0  0  0  0  0  0  0  0  0
  129.1510  131.6200   53.6330 O   0  0  0  0  0  0  0  0  0  0  0  0
  130.1610  130.7460   53.1480 C   0  0  0  0  0  0  0  0  0  0  0  0
  1  2  1  0
  2  3  1  0
  3  4  2  0
  4  5  1  0
  5  6  2  0
  6  7  1  0
  7  8  1  0
  8  9  1  0
  9 10  2  0
  9 11  1  0
 11 12  1  0
 12 13  1  0
 13 14  2  0
 14 15  1  0
 15 16  1  0
 15 17  2  0
 17 18  1  0
 18 19  1  0
 19 20  1  0
 19 21  1  0
 19 22  1  0
 18 23  2  0
 23 24  1  0
 24 25  3  0
  6 26  1  0
 26 27  1  0
 27 28  1  0
 26 29  2  0
 29 30  1  0
 30 31  1  0
 29  3  1  0
 23 13  1  0
M  END
>  <Binding energies>  (24) 
[-6.08]

>  <Ligand effiencies>  (24) 
[-0.19]

>  <Interactions>  (24) 
["V-A:PRO:540:CB:4885, V-A:TYR:539:CD1:4873, V-A:TYR:539:C:4867, V-A:PRO:540:CA:4883, H-A:ALA:541:N:4891, V-A:TYR:539:CE1:4875, V-B:ASP:366:CG:8184, V-A:PRO:540:N:4884, V-A:ASP:366:CG:3212, V-B:TYR:531:CZ:9766, V-A:ILE:538:CB:4862, V-A:TYR:539:CZ:4877, V-A:ILE:538:CA:4860, V-A:TYR:531:CZ:4794, V-A:MET:535:CG:4833, V-B:LYS:534:CE:9794, V-A:ILE:538:CG2:4863, H-A:TYR:539:N:4870, H-B:LYS:534:NZ:9795, H-A:TYR:539:OH:4878, H-B:TYR:531:OH:9767, V-A:LEU:363:CD1:3188, V-B:TYR:531:CE1:9764, V-A:PRO:540:CD:4887, V-A:LEU:363:CA:3184, V-A:PRO:540:CG:4886, V-A:ASP:366:CB:3211, V-B:ASP:366:CB:8183, V-B:LYS:534:CD:9793, V-A:MET:535:CB:4832, V-A:TYR:531:CE2:4793"]

$$$$
2i_Grossjean_2025
     RDKit          3D

 23 24  0  0  0  0  0  0  0  0999 V2000
  130.4790  126.7930   55.9650 C   0  0  0  0  0  0  0  0  0  0  0  0
  130.3500  127.8880   57.0070 C   0  0  0  0  0  0  0  0  0  0  0  0
  129.3560  127.8560   57.9800 C   0  0  0  0  0  0  0  0  0  0  0  0
  129.2800  128.8920   58.9230 C   0  0  0  0  0  0  0  0  0  0  0  0
  128.1730  128.8410   59.9930 C   0  0  0  0  0  0  0  0  0  0  0  0
  128.7170  128.7790   61.2100 F   0  0  0  0  0  0  0  0  0  0  0  0
  127.4110  129.9330   59.9160 F   0  0  0  0  0  0  0  0  0  0  0  0
  127.3710  127.7820   59.8570 F   0  0  0  0  0  0  0  0  0  0  0  0
  130.2280  129.9450   58.8500 C   0  0  0  0  0  0  0  0  0  0  0  0
  130.1960  131.0520   59.8110 C   0  0  0  0  0  0  0  0  0  0  0  0
  130.1710  131.9260   60.5690 N   0  0  0  0  0  0  0  0  0  0  0  0
  131.2030  129.8990   57.8270 C   0  0  0  0  0  0  0  0  0  0  0  0
  132.4400  131.1720   57.6330 S   0  0  0  0  0  0  0  0  0  0  0  0
  131.9440  132.2350   56.2440 C   0  0  0  0  0  0  0  0  0  0  0  0
  130.5680  131.8610   55.6900 C   0  0  0  0  0  0  0  0  0  0  0  0
  129.6210  132.6290   55.8690 O   0  0  0  0  0  0  0  0  0  0  0  0
  130.4930  130.6720   55.0540 N   0  0  0  0  0  0  0  0  0  0  0  0
  129.3640  130.1080   54.4850 C   0  0  0  0  0  0  0  0  0  0  0  0
  129.1900  128.8600   53.8690 C   0  0  0  0  0  0  0  0  0  0  0  0
  127.8660  128.8350   53.4970 C   0  0  0  0  0  0  0  0  0  0  0  0
  127.2770  129.9950   53.8730 O   0  0  0  0  0  0  0  0  0  0  0  0
  128.2390  130.7890   54.5030 N   0  0  0  0  0  0  0  0  0  0  0  0
  131.2590  128.8860   56.9250 N   0  0  0  0  0  0  0  0  0  0  0  0
  1  2  1  0
  2  3  2  0
  3  4  1  0
  4  5  1  0
  5  6  1  0
  5  7  1  0
  5  8  1  0
  4  9  2  0
  9 10  1  0
 10 11  3  0
  9 12  1  0
 12 13  1  0
 13 14  1  0
 14 15  1  0
 15 16  2  0
 15 17  1  0
 17 18  1  0
 18 19  1  0
 19 20  2  0
 20 21  1  0
 21 22  1  0
 12 23  2  0
 23  2  1  0
 22 18  2  0
M  END
>  <Binding energies>  (25) 
[-6.86]

>  <Ligand effiencies>  (25) 
[-0.28583333333333333]

>  <Interactions>  (25) 
["V-A:PRO:540:CB:4885, V-A:PRO:540:CA:4883, H-A:ALA:541:N:4891, H-A:TYR:531:OH:4795, V-A:PRO:540:N:4884, V-B:TYR:531:CZ:9766, V-A:ILE:538:CB:4862, V-A:ILE:538:CA:4860, V-A:TYR:531:CZ:4794, V-A:MET:535:CG:4833, V-B:LYS:534:CE:9794, V-A:ILE:538:CG2:4863, H-A:TYR:539:N:4870, H-B:LYS:534:NZ:9795, H-A:TYR:539:OH:4878, V-A:LEU:363:CD1:3188, V-B:TYR:531:CE1:9764, V-A:PRO:540:CD:4887, V-B:LYS:534:CD:9793"]

$$$$
2k_Grossjean_2025
     RDKit          3D

 28 28  0  0  0  0  0  0  0  0999 V2000
  125.2470  121.9360   55.3020 C   0  0  0  0  0  0  0  0  0  0  0  0
  126.3910  121.6810   56.1020 O   0  0  0  0  0  0  0  0  0  0  0  0
  126.2890  122.2030   57.4200 C   0  0  0  0  0  0  0  0  0  0  0  0
  126.9490  123.5870   57.4820 C   0  0  0  0  0  0  0  0  0  0  0  0
  125.9640  124.5800   57.2380 O   0  0  0  0  0  0  0  0  0  0  0  0
  125.4020  125.1480   58.4150 C   0  0  0  0  0  0  0  0  0  0  0  0
  126.4460  126.0740   59.0530 C   0  0  0  0  0  0  0  0  0  0  0  0
  127.1610  126.7100   58.0050 O   0  0  0  0  0  0  0  0  0  0  0  0
  128.5670  126.7780   58.1880 C   0  0  0  0  0  0  0  0  0  0  0  0
  129.2610  126.5200   56.8380 C   0  0  0  0  0  0  0  0  0  0  0  0
  128.6500  127.2600   55.7310 N   0  0  0  0  0  0  0  0  0  0  0  0
  129.1990  127.4440   54.5140 C   0  0  0  0  0  0  0  0  0  0  0  0
  130.2890  126.9730   54.1850 O   0  0  0  0  0  0  0  0  0  0  0  0
  128.3870  128.3110   53.5410 C   0  0  0  0  0  0  0  0  0  0  0  0
  128.2570  130.0770   53.9880 S   0  0  0  0  0  0  0  0  0  0  0  0
  127.7610  130.2210   55.7000 C   0  0  0  0  0  0  0  0  0  0  0  0
  126.6470  129.5290   56.0500 N   0  0  0  0  0  0  0  0  0  0  0  0
  126.2110  129.5960   57.3280 C   0  0  0  0  0  0  0  0  0  0  0  0
  124.9550  128.8060   57.6370 C   0  0  0  0  0  0  0  0  0  0  0  0
  126.8660  130.3380   58.3070 C   0  0  0  0  0  0  0  0  0  0  0  0
  128.0250  131.0550   57.9690 C   0  0  0  0  0  0  0  0  0  0  0  0
  128.7400  131.8670   59.0660 C   0  0  0  0  0  0  0  0  0  0  0  0
  129.7230  132.6310   58.5850 F   0  0  0  0  0  0  0  0  0  0  0  0
  127.8710  132.6720   59.6800 F   0  0  0  0  0  0  0  0  0  0  0  0
  129.2760  131.0430   59.9670 F   0  0  0  0  0  0  0  0  0  0  0  0
  128.4890  131.0000   56.6300 C   0  0  0  0  0  0  0  0  0  0  0  0
  129.6910  131.7320   56.2210 C   0  0  0  0  0  0  0  0  0  0  0  0
  130.6410  132.3100   55.8980 N   0  0  0  0  0  0  0  0  0  0  0  0
  1  2  1  0
  2  3  1  0
  3  4  1  0
  4  5  1  0
  5  6  1  0
  6  7  1  0
  7  8  1  0
  8  9  1  0
  9 10  1  0
 10 11  1  0
 11 12  1  0
 12 13  2  0
 12 14  1  0
 14 15  1  0
 15 16  1  0
 16 17  2  0
 17 18  1  0
 18 19  1  0
 18 20  2  0
 20 21  1  0
 21 22  1  0
 22 23  1  0
 22 24  1  0
 22 25  1  0
 21 26  2  0
 26 27  1  0
 27 28  3  0
 26 16  1  0
M  END
>  <Binding energies>  (26) 
[-6.54]

>  <Ligand effiencies>  (26) 
[-0.22551724137931034]

>  <Interactions>  (26) 
["V-A:PRO:540:CB:4885, V-A:TYR:539:CD1:4873, V-A:TYR:539:C:4867, V-A:PRO:540:CA:4883, V-A:TYR:539:CE1:4875, H-A:TYR:531:OH:4795, V-B:ASP:366:CG:8184, V-A:PRO:540:N:4884, V-B:TYR:539:C:9839, V-B:PRO:540:CB:9857, V-B:PRO:540:CA:9855, V-B:PRO:540:N:9856, V-B:TYR:531:CZ:9766, V-A:TYR:539:CZ:4877, H-A:TYR:539:N:4870, H-B:LYS:534:NZ:9795, H-A:TYR:539:OH:4878, H-B:TYR:531:OH:9767, V-B:TYR:531:CE1:9764, H-B:TYR:539:N:9842, V-B:ILE:538:CG2:9835, V-B:MET:535:CE:9807, V-B:LEU:363:CD1:8160, V-B:ASP:366:CB:8183, V-B:PRO:540:CD:9859, V-B:ILE:538:CA:9832, V-B:TYR:531:CE2:9765, V-A:TYR:539:CA:4869, V-B:ILE:538:CG1:9836, V-B:MET:535:CG:9805, V-B:ILE:538:CB:9834, V-B:ASP:366:CA:8181, V-B:ASP:366:C:8179"]

$$$$
3aa_Grossjean_2025
     RDKit          3D

 34 36  0  0  0  0  0  0  0  0999 V2000
  129.7760  132.1200   55.3810 C   0  0  0  0  0  0  0  0  0  0  0  0
  129.6630  131.2300   54.1390 C   0  0  0  0  0  0  0  0  0  0  0  0
  128.2920  130.9740   53.8630 O   0  0  0  0  0  0  0  0  0  0  0  0
  127.6150  130.0020   54.5260 C   0  0  0  0  0  0  0  0  0  0  0  0
  126.3850  129.9870   54.6420 O   0  0  0  0  0  0  0  0  0  0  0  0
  128.5120  128.9540   55.1210 C   0  0  0  0  0  0  0  0  0  0  0  0
  128.9810  129.0380   56.4400 C   0  0  0  0  0  0  0  0  0  0  0  0
  129.8070  128.0460   56.9620 C   0  0  0  0  0  0  0  0  0  0  0  0
  130.1760  126.9500   56.1800 C   0  0  0  0  0  0  0  0  0  0  0  0
  131.0110  126.0020   56.8050 N   0  0  0  0  0  0  0  0  0  0  0  0
  132.2040  125.5100   56.4040 C   0  0  0  0  0  0  0  0  0  0  0  0
  132.7840  125.8040   55.3580 O   0  0  0  0  0  0  0  0  0  0  0  0
  132.8490  124.4960   57.3500 C   0  0  0  0  0  0  0  0  0  0  0  0
  132.3610  124.7790   59.0780 S   0  0  0  0  0  0  0  0  0  0  0  0
  131.1520  123.5400   59.4880 C   0  0  0  0  0  0  0  0  0  0  0  0
  129.9630  123.7140   58.8630 N   0  0  0  0  0  0  0  0  0  0  0  0
  128.9490  122.8390   59.0890 C   0  0  0  0  0  0  0  0  0  0  0  0
  127.6700  123.0910   58.3490 C   0  0  0  0  0  0  0  0  0  0  0  0
  126.8760  124.2080   58.6550 C   0  0  0  0  0  0  0  0  0  0  0  0
  125.6870  124.4500   57.9710 C   0  0  0  0  0  0  0  0  0  0  0  0
  125.2750  123.5750   56.9710 C   0  0  0  0  0  0  0  0  0  0  0  0
  126.0450  122.4630   56.6480 C   0  0  0  0  0  0  0  0  0  0  0  0
  127.2350  122.2250   57.3310 C   0  0  0  0  0  0  0  0  0  0  0  0
  129.1170  121.7520   59.9520 C   0  0  0  0  0  0  0  0  0  0  0  0
  130.3350  121.5610   60.6250 C   0  0  0  0  0  0  0  0  0  0  0  0
  130.4770  120.3580   61.5770 C   0  0  0  0  0  0  0  0  0  0  0  0
  131.5720  119.6340   61.3370 F   0  0  0  0  0  0  0  0  0  0  0  0
  130.5460  120.7780   62.8410 F   0  0  0  0  0  0  0  0  0  0  0  0
  129.4240  119.5500   61.4480 F   0  0  0  0  0  0  0  0  0  0  0  0
  131.3830  122.4860   60.3990 C   0  0  0  0  0  0  0  0  0  0  0  0
  132.6550  122.3690   61.1170 C   0  0  0  0  0  0  0  0  0  0  0  0
  133.6600  122.2770   61.6840 N   0  0  0  0  0  0  0  0  0  0  0  0
  129.7220  126.8660   54.8560 C   0  0  0  0  0  0  0  0  0  0  0  0
  128.8980  127.8590   54.3360 C   0  0  0  0  0  0  0  0  0  0  0  0
  1  2  1  0
  2  3  1  0
  3  4  1  0
  4  5  2  0
  4  6  1  0
  6  7  2  0
  7  8  1  0
  8  9  2  0
  9 10  1  0
 10 11  1  0
 11 12  2  0
 11 13  1  0
 13 14  1  0
 14 15  1  0
 15 16  2  0
 16 17  1  0
 17 18  1  0
 18 19  2  0
 19 20  1  0
 20 21  2  0
 21 22  1  0
 22 23  2  0
 17 24  2  0
 24 25  1  0
 25 26  1  0
 26 27  1  0
 26 28  1  0
 26 29  1  0
 25 30  2  0
 30 31  1  0
 31 32  3  0
  9 33  1  0
 33 34  2  0
 34  6  1  0
 30 15  1  0
 23 18  1  0
M  END
>  <Binding energies>  (27) 
[-8.85]

>  <Ligand effiencies>  (27) 
[-0.25285714285714284]

>  <Interactions>  (27) 
["H-A:TYR:531:OH:4795, V-B:TYR:539:C:9839, V-A:LEU:475:CD1:4257, V-B:PRO:540:C:9853, V-B:PRO:540:CA:9855, V-B:ALA:541:CB:9864, V-B:PRO:540:N:9856, V-B:TYR:531:CZ:9766, V-A:ILE:538:C:4858, V-A:ILE:538:CB:4862, V-A:TYR:539:CZ:4877, V-A:ILE:538:CA:4860, V-B:LYS:534:CE:9794, V-A:ILE:538:CG2:4863, H-B:LYS:534:NZ:9795, H-A:TYR:539:OH:4878, H-B:TYR:531:OH:9767, V-B:TYR:531:CE1:9764, V-A:ASP:366:CB:3211, V-B:MET:535:CE:9807, V-B:LEU:363:CD1:8160, V-B:PRO:540:CD:9859, V-B:TYR:539:CE2:9848, V-B:TYR:539:CZ:9849, V-B:TYR:531:CE2:9765, V-B:TYR:539:CD2:9846, V-A:ASP:366:CA:3209, V-A:ASP:366:C:3207, H-B:TYR:539:OH:9850, V-B:ALA:541:CA:9862"]

$$$$
3ad_Grossjean_2025
     RDKit          3D

 29 31  0  0  0  0  0  0  0  0999 V2000
  131.0650  126.0230   54.2540 N   0  0  0  0  0  0  0  0  0  0  0  0
  130.3050  126.6150   54.8950 C   0  0  0  0  0  0  0  0  0  0  0  0
  129.3420  127.3620   55.7110 C   0  0  0  0  0  0  0  0  0  0  0  0
  128.8760  126.8390   56.9410 C   0  0  0  0  0  0  0  0  0  0  0  0
  129.3710  125.4990   57.5170 C   0  0  0  0  0  0  0  0  0  0  0  0
  130.7000  125.4350   57.6120 F   0  0  0  0  0  0  0  0  0  0  0  0
  128.8710  125.3170   58.7410 F   0  0  0  0  0  0  0  0  0  0  0  0
  128.9790  124.4910   56.7360 F   0  0  0  0  0  0  0  0  0  0  0  0
  127.9190  127.5720   57.6600 C   0  0  0  0  0  0  0  0  0  0  0  0
  127.4400  128.7890   57.1650 C   0  0  0  0  0  0  0  0  0  0  0  0
  126.4080  129.6050   57.8860 C   0  0  0  0  0  0  0  0  0  0  0  0
  125.0870  129.6670   57.4150 C   0  0  0  0  0  0  0  0  0  0  0  0
  124.1240  130.4210   58.0790 C   0  0  0  0  0  0  0  0  0  0  0  0
  124.4710  131.1260   59.2280 C   0  0  0  0  0  0  0  0  0  0  0  0
  125.7720  131.0770   59.7170 C   0  0  0  0  0  0  0  0  0  0  0  0
  126.7320  130.3210   59.0500 C   0  0  0  0  0  0  0  0  0  0  0  0
  127.8860  129.2830   55.9820 N   0  0  0  0  0  0  0  0  0  0  0  0
  128.8240  128.6040   55.2800 C   0  0  0  0  0  0  0  0  0  0  0  0
  129.2990  129.4050   53.7640 S   0  0  0  0  0  0  0  0  0  0  0  0
  129.2190  131.1980   54.0530 C   0  0  0  0  0  0  0  0  0  0  0  0
  129.7890  131.5890   55.4180 C   0  0  0  0  0  0  0  0  0  0  0  0
  129.3790  132.6120   55.9670 O   0  0  0  0  0  0  0  0  0  0  0  0
  130.7230  130.7510   55.9180 N   0  0  0  0  0  0  0  0  0  0  0  0
  131.4270  130.8100   57.1350 C   0  0  0  0  0  0  0  0  0  0  0  0
  130.6490  131.0340   58.2750 C   0  0  0  0  0  0  0  0  0  0  0  0
  131.2460  131.1140   59.5300 C   0  0  0  0  0  0  0  0  0  0  0  0
  132.6260  130.9740   59.6470 C   0  0  0  0  0  0  0  0  0  0  0  0
  133.4140  130.7570   58.5200 C   0  0  0  0  0  0  0  0  0  0  0  0
  132.8200  130.6770   57.2620 C   0  0  0  0  0  0  0  0  0  0  0  0
  1  2  3  0
  2  3  1  0
  3  4  2  0
  4  5  1  0
  5  6  1  0
  5  7  1  0
  5  8  1  0
  4  9  1  0
  9 10  2  0
 10 11  1  0
 11 12  2  0
 12 13  1  0
 13 14  2  0
 14 15  1  0
 15 16  2  0
 10 17  1  0
 17 18  2  0
 18 19  1  0
 19 20  1  0
 20 21  1  0
 21 22  2  0
 21 23  1  0
 23 24  1  0
 24 25  2  0
 25 26  1  0
 26 27  2  0
 27 28  1  0
 28 29  2  0
 18  3  1  0
 29 24  1  0
 16 11  1  0
M  END
>  <Binding energies>  (28) 
[-8.24]

>  <Ligand effiencies>  (28) 
[-0.27466666666666667]

>  <Interactions>  (28) 
["V-A:PRO:540:CB:4885, V-A:TYR:539:CD1:4873, V-A:PRO:540:CA:4883, V-A:TYR:539:CE1:4875, H-A:TYR:531:OH:4795, V-A:ASP:366:CG:3212, V-B:TYR:531:CZ:9766, V-A:TYR:539:CZ:4877, V-A:TYR:531:CZ:4794, V-A:ILE:538:CG2:4863, H-A:TYR:539:N:4870, H-B:TYR:531:OH:9767, V-A:LEU:363:CD1:3188, V-B:TYR:531:CE1:9764, V-A:LEU:363:CB:3186, V-A:LEU:363:CA:3184, V-A:ASP:366:CB:3211, V-B:MET:535:CE:9807, V-B:ASP:366:CB:8183, V-B:TYR:539:CZ:9849, V-B:ILE:369:CG2:8208, V-B:ASP:366:CA:8181, H-B:TYR:539:OH:9850, V-B:ASP:366:C:8179, V-B:ILE:369:CB:8207"]

$$$$
3ai_Grossjean_2025
     RDKit          3D

 28 30  0  0  0  0  0  0  0  0999 V2000
  123.8610  131.1190   59.4180 N   0  0  0  0  0  0  0  0  0  0  0  0
  125.0090  131.1400   59.5660 C   0  0  0  0  0  0  0  0  0  0  0  0
  126.4620  131.1670   59.7560 C   0  0  0  0  0  0  0  0  0  0  0  0
  127.0710  132.1750   60.5440 C   0  0  0  0  0  0  0  0  0  0  0  0
  126.2590  133.2600   61.2780 C   0  0  0  0  0  0  0  0  0  0  0  0
  125.4920  133.9780   60.4550 F   0  0  0  0  0  0  0  0  0  0  0  0
  125.4590  132.6950   62.1830 F   0  0  0  0  0  0  0  0  0  0  0  0
  127.0810  134.1080   61.8960 F   0  0  0  0  0  0  0  0  0  0  0  0
  128.4690  132.1860   60.6550 C   0  0  0  0  0  0  0  0  0  0  0  0
  129.2390  131.2210   59.9970 C   0  0  0  0  0  0  0  0  0  0  0  0
  130.7360  131.1920   60.0710 C   0  0  0  0  0  0  0  0  0  0  0  0
  131.3970  131.4340   61.2860 C   0  0  0  0  0  0  0  0  0  0  0  0
  132.7870  131.4040   61.3640 C   0  0  0  0  0  0  0  0  0  0  0  0
  133.5360  131.1290   60.2250 C   0  0  0  0  0  0  0  0  0  0  0  0
  132.9050  130.8830   59.0100 C   0  0  0  0  0  0  0  0  0  0  0  0
  131.5160  130.9130   58.9360 C   0  0  0  0  0  0  0  0  0  0  0  0
  128.6520  130.2630   59.2350 N   0  0  0  0  0  0  0  0  0  0  0  0
  127.3020  130.2170   59.1320 C   0  0  0  0  0  0  0  0  0  0  0  0
  126.7140  128.8810   58.1130 S   0  0  0  0  0  0  0  0  0  0  0  0
  126.2080  129.5830   56.5060 C   0  0  0  0  0  0  0  0  0  0  0  0
  127.2970  130.3800   55.7740 C   0  0  0  0  0  0  0  0  0  0  0  0
  127.1380  130.7390   54.6050 O   0  0  0  0  0  0  0  0  0  0  0  0
  128.4010  130.6350   56.5120 N   0  0  0  0  0  0  0  0  0  0  0  0
  129.5340  131.3350   56.1170 C   0  0  0  0  0  0  0  0  0  0  0  0
  130.5480  130.7690   55.3450 C   0  0  0  0  0  0  0  0  0  0  0  0
  131.4730  131.7730   55.1770 C   0  0  0  0  0  0  0  0  0  0  0  0
  131.0400  132.8870   55.8140 O   0  0  0  0  0  0  0  0  0  0  0  0
  129.8090  132.5960   56.4050 N   0  0  0  0  0  0  0  0  0  0  0  0
  1  2  3  0
  2  3  1  0
  3  4  2  0
  4  5  1  0
  5  6  1  0
  5  7  1  0
  5  8  1  0
  4  9  1  0
  9 10  2  0
 10 11  1  0
 11 12  2  0
 12 13  1  0
 13 14  2  0
 14 15  1  0
 15 16  2  0
 10 17  1  0
 17 18  2  0
 18 19  1  0
 19 20  1  0
 20 21  1  0
 21 22  2  0
 21 23  1  0
 23 24  1  0
 24 25  1  0
 25 26  2  0
 26 27  1  0
 27 28  1  0
 18  3  1  0
 28 24  2  0
 16 11  1  0
M  END
>  <Binding energies>  (29) 
[-8.45]

>  <Ligand effiencies>  (29) 
[-0.29137931034482756]

>  <Interactions>  (29) 
["V-A:ALA:541:CB:4892, V-A:PRO:540:C:4881, V-A:PRO:540:CB:4885, V-B:LEU:475:CD1:9229, V-A:TYR:539:CD1:4873, V-A:PRO:540:CA:4883, V-A:TYR:539:CE1:4875, V-A:GLU:543:CD:4908, V-A:ASP:366:CG:3212, V-B:TYR:531:CZ:9766, V-A:ILE:538:CB:4862, V-A:TYR:539:CZ:4877, V-A:ILE:538:CA:4860, V-A:ILE:538:CG2:4863, H-A:TYR:539:N:4870, H-B:LYS:534:NZ:9795, H-A:TYR:539:OH:4878, H-B:TYR:531:OH:9767, V-A:LEU:363:CD1:3188, V-B:TYR:531:CE1:9764, V-A:LEU:363:CA:3184, V-B:ILE:369:CG2:8208, V-A:ASN:362:C:3171, V-A:ASN:362:CB:3175, V-A:TYR:531:CE2:4793"]

$$$$
3aj_Grossjean_2025
     RDKit          3D

 28 30  0  0  0  0  0  0  0  0999 V2000
  130.8490  126.2510   54.0830 N   0  0  0  0  0  0  0  0  0  0  0  0
  130.1260  126.8360   54.7720 C   0  0  0  0  0  0  0  0  0  0  0  0
  129.2120  127.5750   55.6470 C   0  0  0  0  0  0  0  0  0  0  0  0
  128.8340  127.0510   56.9070 C   0  0  0  0  0  0  0  0  0  0  0  0
  129.3820  125.7170   57.4520 C   0  0  0  0  0  0  0  0  0  0  0  0
  130.7160  125.6830   57.4910 F   0  0  0  0  0  0  0  0  0  0  0  0
  128.9370  125.5130   58.6920 F   0  0  0  0  0  0  0  0  0  0  0  0
  128.9800  124.7080   56.6770 F   0  0  0  0  0  0  0  0  0  0  0  0
  127.9180  127.7740   57.6870 C   0  0  0  0  0  0  0  0  0  0  0  0
  127.3920  128.9840   57.2200 C   0  0  0  0  0  0  0  0  0  0  0  0
  126.4050  129.7910   58.0070 C   0  0  0  0  0  0  0  0  0  0  0  0
  125.0530  129.8310   57.6330 C   0  0  0  0  0  0  0  0  0  0  0  0
  124.1290  130.5760   58.3620 C   0  0  0  0  0  0  0  0  0  0  0  0
  124.5480  131.2940   59.4780 C   0  0  0  0  0  0  0  0  0  0  0  0
  125.8830  131.2690   59.8700 C   0  0  0  0  0  0  0  0  0  0  0  0
  126.8020  130.5220   59.1390 C   0  0  0  0  0  0  0  0  0  0  0  0
  127.7520  129.4780   56.0080 N   0  0  0  0  0  0  0  0  0  0  0  0
  128.6520  128.8100   55.2480 C   0  0  0  0  0  0  0  0  0  0  0  0
  129.0180  129.6200   53.7050 S   0  0  0  0  0  0  0  0  0  0  0  0
  129.3830  131.3710   54.0660 C   0  0  0  0  0  0  0  0  0  0  0  0
  130.0090  131.6340   55.4430 C   0  0  0  0  0  0  0  0  0  0  0  0
  129.6230  132.5740   56.1430 O   0  0  0  0  0  0  0  0  0  0  0  0
  130.9820  130.7650   55.7960 N   0  0  0  0  0  0  0  0  0  0  0  0
  131.7060  130.7670   56.9810 C   0  0  0  0  0  0  0  0  0  0  0  0
  133.0080  130.6530   57.1330 N   0  0  0  0  0  0  0  0  0  0  0  0
  133.3540  130.7000   58.4040 C   0  0  0  0  0  0  0  0  0  0  0  0
  132.3160  130.8550   59.3200 C   0  0  0  0  0  0  0  0  0  0  0  0
  130.8100  130.9410   58.4570 S   0  0  0  0  0  0  0  0  0  0  0  0
  1  2  3  0
  2  3  1  0
  3  4  2  0
  4  5  1  0
  5  6  1  0
  5  7  1  0
  5  8  1  0
  4  9  1  0
  9 10  2  0
 10 11  1  0
 11 12  2  0
 12 13  1  0
 13 14  2  0
 14 15  1  0
 15 16  2  0
 10 17  1  0
 17 18  2  0
 18 19  1  0
 19 20  1  0
 20 21  1  0
 21 22  2  0
 21 23  1  0
 23 24  1  0
 24 25  2  0
 25 26  1  0
 26 27  2  0
 27 28  1  0
 18  3  1  0
 28 24  1  0
 16 11  1  0
M  END
>  <Binding energies>  (30) 
[-7.69]

>  <Ligand effiencies>  (30) 
[-0.26517241379310347]

>  <Interactions>  (30) 
["V-A:PRO:540:CB:4885, V-A:TYR:539:CD1:4873, V-A:PRO:540:CA:4883, V-A:TYR:539:CE1:4875, H-A:TYR:531:OH:4795, V-A:ASP:366:CG:3212, V-A:MET:535:CE:4835, V-A:ILE:538:CB:4862, V-A:TYR:539:CZ:4877, V-A:ILE:538:CA:4860, V-A:TYR:531:CZ:4794, V-A:ILE:538:CG2:4863, H-A:TYR:539:N:4870, H-B:TYR:531:OH:9767, V-A:LEU:363:CD1:3188, V-A:LEU:363:CB:3186, V-A:LEU:363:CA:3184, V-A:ASP:366:CB:3211, V-B:MET:535:CE:9807, V-B:ASP:366:CB:8183, V-B:ILE:369:CG2:8208, V-B:ASP:366:CA:8181, H-B:TYR:539:OH:9850, V-B:ASP:366:C:8179, V-B:ILE:369:CB:8207"]

$$$$
3ak_Grossjean_2025
     RDKit          3D

 33 34  0  0  0  0  0  0  0  0999 V2000
  125.2470  125.2390   58.3530 C   0  0  0  0  0  0  0  0  0  0  0  0
  125.5360  124.4130   57.2350 O   0  0  0  0  0  0  0  0  0  0  0  0
  125.1370  123.0620   57.4140 C   0  0  0  0  0  0  0  0  0  0  0  0
  125.6610  122.2270   56.2390 C   0  0  0  0  0  0  0  0  0  0  0  0
  126.9630  121.7470   56.5560 O   0  0  0  0  0  0  0  0  0  0  0  0
  127.5140  122.2280   57.7800 C   0  0  0  0  0  0  0  0  0  0  0  0
  128.9920  122.6460   57.6730 C   0  0  0  0  0  0  0  0  0  0  0  0
  129.0950  124.0500   57.8640 O   0  0  0  0  0  0  0  0  0  0  0  0
  128.4520  124.8180   56.8540 C   0  0  0  0  0  0  0  0  0  0  0  0
  128.9420  126.2760   56.9030 C   0  0  0  0  0  0  0  0  0  0  0  0
  127.9300  127.2180   57.3850 N   0  0  0  0  0  0  0  0  0  0  0  0
  127.7560  127.6050   58.6630 C   0  0  0  0  0  0  0  0  0  0  0  0
  128.4680  127.2040   59.5840 O   0  0  0  0  0  0  0  0  0  0  0  0
  126.6210  128.5910   58.9910 C   0  0  0  0  0  0  0  0  0  0  0  0
  126.5990  130.1570   58.0430 S   0  0  0  0  0  0  0  0  0  0  0  0
  128.2350  130.4550   57.3910 C   0  0  0  0  0  0  0  0  0  0  0  0
  129.2170  130.6030   58.3150 N   0  0  0  0  0  0  0  0  0  0  0  0
  130.4930  130.8390   57.9180 C   0  0  0  0  0  0  0  0  0  0  0  0
  131.5140  130.9880   59.0060 C   0  0  0  0  0  0  0  0  0  0  0  0
  131.1240  131.2920   60.3190 C   0  0  0  0  0  0  0  0  0  0  0  0
  132.0670  131.4280   61.3350 C   0  0  0  0  0  0  0  0  0  0  0  0
  133.4180  131.2600   61.0480 C   0  0  0  0  0  0  0  0  0  0  0  0
  133.8310  130.9560   59.7560 C   0  0  0  0  0  0  0  0  0  0  0  0
  132.8850  130.8200   58.7440 C   0  0  0  0  0  0  0  0  0  0  0  0
  130.8180  130.9180   56.5590 C   0  0  0  0  0  0  0  0  0  0  0  0
  129.8220  130.7670   55.5830 C   0  0  0  0  0  0  0  0  0  0  0  0
  130.2190  130.8620   54.0960 C   0  0  0  0  0  0  0  0  0  0  0  0
  131.5150  131.1500   53.9870 F   0  0  0  0  0  0  0  0  0  0  0  0
  129.9810  129.7010   53.4850 F   0  0  0  0  0  0  0  0  0  0  0  0
  129.5410  131.8060   53.4390 F   0  0  0  0  0  0  0  0  0  0  0  0
  128.4920  130.5310   56.0050 C   0  0  0  0  0  0  0  0  0  0  0  0
  127.4100  130.3660   55.0280 C   0  0  0  0  0  0  0  0  0  0  0  0
  126.5550  130.2360   54.2580 N   0  0  0  0  0  0  0  0  0  0  0  0
  1  2  1  0
  2  3  1  0
  3  4  1  0
  4  5  1  0
  5  6  1  0
  6  7  1  0
  7  8  1  0
  8  9  1  0
  9 10  1  0
 10 11  1  0
 11 12  1  0
 12 13  2  0
 12 14  1  0
 14 15  1  0
 15 16  1  0
 16 17  2  0
 17 18  1  0
 18 19  1  0
 19 20  2  0
 20 21  1  0
 21 22  2  0
 22 23  1  0
 23 24  2  0
 18 25  2  0
 25 26  1  0
 26 27  1  0
 27 28  1  0
 27 29  1  0
 27 30  1  0
 26 31  2  0
 31 32  1  0
 32 33  3  0
 31 16  1  0
 24 19  1  0
M  END
>  <Binding energies>  (31) 
[-7.65]

>  <Ligand effiencies>  (31) 
[-0.225]

>  <Interactions>  (31) 
["V-A:PRO:540:C:4881, V-A:PRO:540:CB:4885, V-A:PRO:540:CA:4883, V-A:TYR:539:CE1:4875, V-B:ASP:366:CG:8184, V-A:ASP:366:CG:3212, V-B:TYR:539:C:9839, V-B:PRO:540:CB:9857, V-B:PRO:540:CA:9855, V-B:PRO:540:N:9856, V-B:TYR:531:CZ:9766, V-A:ILE:538:CB:4862, V-A:TYR:539:CZ:4877, V-A:ILE:538:CA:4860, V-A:TYR:531:CZ:4794, V-A:MET:535:CG:4833, V-B:LYS:534:CE:9794, V-A:ILE:538:CG2:4863, H-B:LYS:534:NZ:9795, H-A:TYR:539:OH:4878, H-B:TYR:531:OH:9767, V-B:TYR:531:CE1:9764, V-A:LEU:363:CB:3186, V-A:LEU:363:CA:3184, H-B:TYR:539:N:9842, V-B:MET:535:CE:9807, V-B:LEU:363:CD1:8160, V-B:ASP:366:CB:8183, V-B:PRO:540:CD:9859, V-B:TYR:539:CE2:9848, V-B:TYR:539:CZ:9849, V-B:TYR:531:CE2:9765, V-B:TYR:539:CD2:9846, V-B:TYR:539:CG:9844, V-B:TYR:539:CE1:9847, V-A:ASN:362:C:3171, V-A:ASN:362:CB:3175, V-A:MET:535:CB:4832, V-A:TYR:531:CE2:4793, V-A:VAL:537:C:4850"]

$$$$
3bk_Grossjean_2025
     RDKit          3D

 30 31  0  0  0  0  0  0  0  0999 V2000
  125.1930  121.8300   55.3590 C   0  0  0  0  0  0  0  0  0  0  0  0
  126.4820  121.5870   55.9020 O   0  0  0  0  0  0  0  0  0  0  0  0
  126.6100  121.9910   57.2580 C   0  0  0  0  0  0  0  0  0  0  0  0
  125.8170  123.2850   57.4880 C   0  0  0  0  0  0  0  0  0  0  0  0
  126.4910  124.3680   56.8630 O   0  0  0  0  0  0  0  0  0  0  0  0
  127.7040  124.7380   57.5050 C   0  0  0  0  0  0  0  0  0  0  0  0
  128.6130  125.4540   56.4980 C   0  0  0  0  0  0  0  0  0  0  0  0
  129.5340  126.2790   57.1980 O   0  0  0  0  0  0  0  0  0  0  0  0
  129.4550  127.6550   56.8480 C   0  0  0  0  0  0  0  0  0  0  0  0
  129.1280  127.7840   55.3530 C   0  0  0  0  0  0  0  0  0  0  0  0
  129.5160  129.0860   54.8070 N   0  0  0  0  0  0  0  0  0  0  0  0
  128.7080  129.9210   54.1320 C   0  0  0  0  0  0  0  0  0  0  0  0
  127.5190  129.6890   53.9060 O   0  0  0  0  0  0  0  0  0  0  0  0
  129.3300  131.2360   53.6570 C   0  0  0  0  0  0  0  0  0  0  0  0
  129.0140  132.5990   54.8220 S   0  0  0  0  0  0  0  0  0  0  0  0
  129.6680  132.1590   56.4230 C   0  0  0  0  0  0  0  0  0  0  0  0
  128.7790  132.1650   57.4490 N   0  0  0  0  0  0  0  0  0  0  0  0
  129.1880  131.8460   58.7050 C   0  0  0  0  0  0  0  0  0  0  0  0
  128.1390  131.8580   59.7750 C   0  0  0  0  0  0  0  0  0  0  0  0
  128.3100  132.6220   60.9410 C   0  0  0  0  0  0  0  0  0  0  0  0
  127.3400  132.6320   61.9400 C   0  0  0  0  0  0  0  0  0  0  0  0
  126.1830  131.8760   61.7880 C   0  0  0  0  0  0  0  0  0  0  0  0
  125.9870  131.1130   60.6410 C   0  0  0  0  0  0  0  0  0  0  0  0
  126.9580  131.1070   59.6430 C   0  0  0  0  0  0  0  0  0  0  0  0
  130.5210  131.5010   58.9600 C   0  0  0  0  0  0  0  0  0  0  0  0
  131.4510  131.4910   57.9140 C   0  0  0  0  0  0  0  0  0  0  0  0
  132.8950  131.1090   58.2360 C   0  0  0  0  0  0  0  0  0  0  0  0
  131.0270  131.8250   56.6110 C   0  0  0  0  0  0  0  0  0  0  0  0
  131.9780  131.8200   55.4960 C   0  0  0  0  0  0  0  0  0  0  0  0
  132.7290  131.8170   54.6150 N   0  0  0  0  0  0  0  0  0  0  0  0
  1  2  1  0
  2  3  1  0
  3  4  1  0
  4  5  1  0
  5  6  1  0
  6  7  1  0
  7  8  1  0
  8  9  1  0
  9 10  1  0
 10 11  1  0
 11 12  1  0
 12 13  2  0
 12 14  1  0
 14 15  1  0
 15 16  1  0
 16 17  2  0
 17 18  1  0
 18 19  1  0
 19 20  2  0
 20 21  1  0
 21 22  2  0
 22 23  1  0
 23 24  2  0
 18 25  2  0
 25 26  1  0
 26 27  1  0
 26 28  2  0
 28 29  1  0
 29 30  3  0
 28 16  1  0
 24 19  1  0
M  END
>  <Binding energies>  (32) 
[-8.26]

>  <Ligand effiencies>  (32) 
[-0.2664516129032258]

>  <Interactions>  (32) 
["V-A:ALA:541:CB:4892, V-A:PRO:540:CB:4885, V-A:TYR:539:CD1:4873, V-A:TYR:539:C:4867, V-A:PRO:540:CA:4883, V-A:TYR:539:CE1:4875, H-A:TYR:531:OH:4795, V-A:PRO:540:N:4884, V-B:TYR:539:C:9839, V-B:PRO:540:CB:9857, V-B:PRO:540:CA:9855, V-B:PRO:540:N:9856, V-A:ILE:538:CB:4862, V-A:ILE:538:CA:4860, V-B:LYS:534:CE:9794, V-A:ILE:538:CG2:4863, H-A:TYR:539:N:4870, H-B:LYS:534:NZ:9795, H-B:TYR:531:OH:9767, V-A:LEU:363:CD1:3188, V-A:LEU:363:CA:3184, H-B:TYR:539:N:9842, V-B:ILE:538:CG2:9835, V-B:MET:535:CE:9807, V-B:LEU:363:CD1:8160, V-B:PRO:540:CD:9859, V-B:ILE:538:CA:9832, V-B:ILE:538:CG1:9836, V-B:MET:535:CG:9805, V-B:ILE:538:CB:9834, V-B:TYR:539:CA:9841, V-A:TYR:531:CE2:4793"]

$$$$
3cb_Grossjean_2025
     RDKit          3D

 30 32  0  0  0  0  0  0  0  0999 V2000
  127.5010  122.5350   57.6640 C   0  0  0  0  0  0  0  0  0  0  0  0
  128.5630  123.0800   56.8960 O   0  0  0  0  0  0  0  0  0  0  0  0
  129.4110  123.9980   57.4270 C   0  0  0  0  0  0  0  0  0  0  0  0
  130.0640  123.8050   58.4560 O   0  0  0  0  0  0  0  0  0  0  0  0
  129.4740  125.2750   56.6370 C   0  0  0  0  0  0  0  0  0  0  0  0
  128.9150  126.4710   57.1120 C   0  0  0  0  0  0  0  0  0  0  0  0
  128.9930  127.6370   56.3560 C   0  0  0  0  0  0  0  0  0  0  0  0
  129.6250  127.6340   55.1120 C   0  0  0  0  0  0  0  0  0  0  0  0
  129.6490  128.8700   54.4350 N   0  0  0  0  0  0  0  0  0  0  0  0
  128.6790  129.4920   53.7300 C   0  0  0  0  0  0  0  0  0  0  0  0
  127.5360  129.0610   53.5690 O   0  0  0  0  0  0  0  0  0  0  0  0
  129.0970  130.8420   53.1260 C   0  0  0  0  0  0  0  0  0  0  0  0
  129.0610  132.2490   54.2890 S   0  0  0  0  0  0  0  0  0  0  0  0
  129.1350  131.5910   55.9420 C   0  0  0  0  0  0  0  0  0  0  0  0
  127.9730  131.0230   56.3490 N   0  0  0  0  0  0  0  0  0  0  0  0
  127.9110  130.4890   57.5890 C   0  0  0  0  0  0  0  0  0  0  0  0
  126.5850  129.8610   57.9710 C   0  0  0  0  0  0  0  0  0  0  0  0
  128.9920  130.5050   58.4660 C   0  0  0  0  0  0  0  0  0  0  0  0
  130.1980  131.1010   58.0740 C   0  0  0  0  0  0  0  0  0  0  0  0
  131.3260  131.0970   59.0540 C   0  0  0  0  0  0  0  0  0  0  0  0
  132.6250  130.7850   58.6310 C   0  0  0  0  0  0  0  0  0  0  0  0
  133.6850  130.7900   59.5340 C   0  0  0  0  0  0  0  0  0  0  0  0
  133.4500  131.1110   60.8680 C   0  0  0  0  0  0  0  0  0  0  0  0
  132.1680  131.4310   61.3040 C   0  0  0  0  0  0  0  0  0  0  0  0
  131.1100  131.4280   60.3980 C   0  0  0  0  0  0  0  0  0  0  0  0
  130.2740  131.6780   56.7790 C   0  0  0  0  0  0  0  0  0  0  0  0
  131.4790  132.3960   56.3510 C   0  0  0  0  0  0  0  0  0  0  0  0
  132.4290  132.9620   56.0130 N   0  0  0  0  0  0  0  0  0  0  0  0
  130.1900  126.4430   54.6320 C   0  0  0  0  0  0  0  0  0  0  0  0
  130.1120  125.2770   55.3890 C   0  0  0  0  0  0  0  0  0  0  0  0
  1  2  1  0
  2  3  1  0
  3  4  2  0
  3  5  1  0
  5  6  2  0
  6  7  1  0
  7  8  2  0
  8  9  1  0
  9 10  1  0
 10 11  2  0
 10 12  1  0
 12 13  1  0
 13 14  1  0
 14 15  2  0
 15 16  1  0
 16 17  1  0
 16 18  2  0
 18 19  1  0
 19 20  1  0
 20 21  2  0
 21 22  1  0
 22 23  2  0
 23 24  1  0
 24 25  2  0
 19 26  2  0
 26 27  1  0
 27 28  3  0
  8 29  1  0
 29 30  2  0
 30  5  1  0
 26 14  1  0
 25 20  1  0
M  END
>  <Binding energies>  (33) 
[-8.82]

>  <Ligand effiencies>  (33) 
[-0.2845161290322581]

>  <Interactions>  (33) 
["V-A:PRO:540:C:4881, V-A:PRO:540:CB:4885, V-A:TYR:539:CD1:4873, V-A:TYR:539:C:4867, V-A:PRO:540:CA:4883, V-A:TYR:539:CE1:4875, H-A:TYR:531:OH:4795, V-A:PRO:540:N:4884, V-A:ASP:366:CG:3212, V-B:TYR:539:C:9839, V-B:PRO:540:CA:9855, V-B:PRO:540:N:9856, V-A:MET:535:CE:4835, V-A:ILE:538:CB:4862, V-A:TYR:531:CZ:4794, V-A:MET:535:CG:4833, V-B:LYS:534:CE:9794, V-A:ILE:538:CG2:4863, H-A:TYR:539:N:4870, H-B:LYS:534:NZ:9795, H-A:TYR:539:OH:4878, H-B:TYR:531:OH:9767, V-A:LEU:363:CD1:3188, V-A:PRO:540:CD:4887, V-A:LEU:363:CB:3186, V-A:LEU:363:CA:3184, V-A:ASP:366:CB:3211, V-B:MET:535:CE:9807, V-B:TYR:539:CE2:9848, V-B:TYR:539:CZ:9849, H-B:TYR:539:OH:9850, V-A:ASN:362:C:3171, V-A:ASN:362:CB:3175, V-A:MET:535:CB:4832"]

$$$$
3ch_Grossjean_2025
     RDKit          3D

 32 34  0  0  0  0  0  0  0  0999 V2000
  131.4690  132.3050   56.0630 C   0  0  0  0  0  0  0  0  0  0  0  0
  130.0980  132.6340   56.2630 O   0  0  0  0  0  0  0  0  0  0  0  0
  129.1560  131.6240   56.3310 C   0  0  0  0  0  0  0  0  0  0  0  0
  128.7860  130.9750   57.5200 C   0  0  0  0  0  0  0  0  0  0  0  0
  127.8140  129.9630   57.5140 C   0  0  0  0  0  0  0  0  0  0  0  0
  127.3750  129.2610   58.6530 N   0  0  0  0  0  0  0  0  0  0  0  0
  126.1210  128.9300   59.0320 C   0  0  0  0  0  0  0  0  0  0  0  0
  125.0930  129.1900   58.4060 O   0  0  0  0  0  0  0  0  0  0  0  0
  126.0140  128.1320   60.3300 C   0  0  0  0  0  0  0  0  0  0  0  0
  126.1880  129.1860   61.8010 S   0  0  0  0  0  0  0  0  0  0  0  0
  127.3350  130.4710   61.3540 C   0  0  0  0  0  0  0  0  0  0  0  0
  126.7710  131.6990   61.2490 N   0  0  0  0  0  0  0  0  0  0  0  0
  127.5580  132.7440   60.9060 C   0  0  0  0  0  0  0  0  0  0  0  0
  126.8620  134.0880   60.8010 C   0  0  0  0  0  0  0  0  0  0  0  0
  128.9210  132.6070   60.6570 C   0  0  0  0  0  0  0  0  0  0  0  0
  129.5240  131.3470   60.7680 C   0  0  0  0  0  0  0  0  0  0  0  0
  130.9880  131.2460   60.4810 C   0  0  0  0  0  0  0  0  0  0  0  0
  131.9220  131.5360   61.4820 C   0  0  0  0  0  0  0  0  0  0  0  0
  133.2880  131.4530   61.2200 C   0  0  0  0  0  0  0  0  0  0  0  0
  133.7240  131.0810   59.9500 C   0  0  0  0  0  0  0  0  0  0  0  0
  132.8080  130.7960   58.9420 C   0  0  0  0  0  0  0  0  0  0  0  0
  131.4430  130.8810   59.2080 C   0  0  0  0  0  0  0  0  0  0  0  0
  128.7160  130.2440   61.1460 C   0  0  0  0  0  0  0  0  0  0  0  0
  129.3100  128.9230   61.3690 C   0  0  0  0  0  0  0  0  0  0  0  0
  129.7790  127.8790   61.5440 N   0  0  0  0  0  0  0  0  0  0  0  0
  127.2280  129.5910   56.3030 C   0  0  0  0  0  0  0  0  0  0  0  0
  127.5830  130.2230   55.1020 C   0  0  0  0  0  0  0  0  0  0  0  0
  127.0340  129.9070   53.8710 O   0  0  0  0  0  0  0  0  0  0  0  0
  127.5290  128.7830   53.1510 C   0  0  0  0  0  0  0  0  0  0  0  0
  128.5500  131.2360   55.1290 C   0  0  0  0  0  0  0  0  0  0  0  0
  128.8930  131.8760   53.9620 O   0  0  0  0  0  0  0  0  0  0  0  0
  129.7690  131.1290   53.1280 C   0  0  0  0  0  0  0  0  0  0  0  0
  1  2  1  0
  2  3  1  0
  3  4  2  0
  4  5  1  0
  5  6  1  0
  6  7  1  0
  7  8  2  0
  7  9  1  0
  9 10  1  0
 10 11  1  0
 11 12  2  0
 12 13  1  0
 13 14  1  0
 13 15  2  0
 15 16  1  0
 16 17  1  0
 17 18  2  0
 18 19  1  0
 19 20  2  0
 20 21  1  0
 21 22  2  0
 16 23  2  0
 23 24  1  0
 24 25  3  0
  5 26  2  0
 26 27  1  0
 27 28  1  0
 28 29  1  0
 27 30  2  0
 30 31  1  0
 31 32  1  0
 30  3  1  0
 23 11  1  0
 22 17  1  0
M  END
>  <Binding energies>  (34) 
[-8.44]

>  <Ligand effiencies>  (34) 
[-0.25575757575757574]

>  <Interactions>  (34) 
["V-A:ALA:541:CB:4892, V-A:PRO:540:C:4881, V-A:PRO:540:CB:4885, V-A:TYR:539:CD1:4873, V-A:TYR:539:C:4867, V-A:PRO:540:CA:4883, V-A:TYR:539:CE1:4875, V-B:ASP:366:CG:8184, V-A:GLU:543:CD:4908, V-A:PRO:540:N:4884, V-A:ASP:366:CG:3212, V-B:TYR:531:CZ:9766, V-A:ILE:538:CB:4862, V-A:TYR:539:CZ:4877, V-A:ILE:538:CA:4860, V-A:MET:535:CG:4833, V-B:LYS:534:CE:9794, V-A:ILE:538:CG2:4863, H-A:TYR:539:N:4870, H-B:LYS:534:NZ:9795, H-A:TYR:539:OH:4878, V-A:LEU:363:CD1:3188, V-B:TYR:531:CE1:9764, V-A:PRO:540:CD:4887, V-A:LEU:363:CA:3184, V-B:ASP:366:CB:8183, V-B:LYS:534:CD:9793, V-A:ASN:362:C:3171, V-A:ASN:362:CB:3175, V-A:MET:535:CB:4832, V-B:LYS:534:CG:9792"]

$$$$
3ci_Grossjean_2025
     RDKit          3D

 25 27  0  0  0  0  0  0  0  0999 V2000
  126.6040  129.6260   58.0230 C   0  0  0  0  0  0  0  0  0  0  0  0
  127.8850  130.3380   57.6330 C   0  0  0  0  0  0  0  0  0  0  0  0
  128.9820  130.3910   58.4880 C   0  0  0  0  0  0  0  0  0  0  0  0
  130.1500  131.0470   58.0750 C   0  0  0  0  0  0  0  0  0  0  0  0
  131.3080  131.0650   59.0200 C   0  0  0  0  0  0  0  0  0  0  0  0
  131.1260  131.3940   60.3690 C   0  0  0  0  0  0  0  0  0  0  0  0
  132.2100  131.4180   61.2440 C   0  0  0  0  0  0  0  0  0  0  0  0
  133.4830  131.1190   60.7690 C   0  0  0  0  0  0  0  0  0  0  0  0
  133.6830  130.7990   59.4290 C   0  0  0  0  0  0  0  0  0  0  0  0
  132.5970  130.7750   58.5580 C   0  0  0  0  0  0  0  0  0  0  0  0
  130.1680  131.6500   56.7920 C   0  0  0  0  0  0  0  0  0  0  0  0
  131.3470  132.3860   56.3230 C   0  0  0  0  0  0  0  0  0  0  0  0
  132.2780  132.9670   55.9550 N   0  0  0  0  0  0  0  0  0  0  0  0
  129.0100  131.5440   55.9840 C   0  0  0  0  0  0  0  0  0  0  0  0
  128.9290  132.2470   54.3410 S   0  0  0  0  0  0  0  0  0  0  0  0
  129.2900  130.9540   53.1080 C   0  0  0  0  0  0  0  0  0  0  0  0
  128.9070  129.5450   53.5750 C   0  0  0  0  0  0  0  0  0  0  0  0
  127.8550  129.0430   53.1750 O   0  0  0  0  0  0  0  0  0  0  0  0
  129.7750  128.9530   54.4260 N   0  0  0  0  0  0  0  0  0  0  0  0
  129.6820  127.6800   54.9720 C   0  0  0  0  0  0  0  0  0  0  0  0
  128.8190  127.3640   56.0210 C   0  0  0  0  0  0  0  0  0  0  0  0
  129.0280  126.0260   56.2650 C   0  0  0  0  0  0  0  0  0  0  0  0
  129.9670  125.5610   55.4060 O   0  0  0  0  0  0  0  0  0  0  0  0
  130.3750  126.6190   54.5930 N   0  0  0  0  0  0  0  0  0  0  0  0
  127.8900  130.9040   56.4060 N   0  0  0  0  0  0  0  0  0  0  0  0
  1  2  1  0
  2  3  2  0
  3  4  1  0
  4  5  1  0
  5  6  2  0
  6  7  1  0
  7  8  2  0
  8  9  1  0
  9 10  2  0
  4 11  2  0
 11 12  1  0
 12 13  3  0
 11 14  1  0
 14 15  1  0
 15 16  1  0
 16 17  1  0
 17 18  2  0
 17 19  1  0
 19 20  1  0
 20 21  1  0
 21 22  2  0
 22 23  1  0
 23 24  1  0
 14 25  2  0
 25  2  1  0
 10  5  1  0
 24 20  2  0
M  END
>  <Binding energies>  (35) 
[-8.39]

>  <Ligand effiencies>  (35) 
[-0.3226923076923077]

>  <Interactions>  (35) 
["V-A:PRO:540:C:4881, V-A:PRO:540:CB:4885, V-A:TYR:539:CD1:4873, V-A:TYR:539:C:4867, V-A:PRO:540:CA:4883, V-A:TYR:539:CE1:4875, H-A:TYR:531:OH:4795, V-A:PRO:540:N:4884, V-A:ASP:366:CG:3212, V-A:ILE:538:CB:4862, V-A:TYR:539:CZ:4877, V-A:TYR:531:CZ:4794, V-A:MET:535:CG:4833, V-B:LYS:534:CE:9794, V-A:ILE:538:CG2:4863, H-A:TYR:539:N:4870, H-B:LYS:534:NZ:9795, H-A:TYR:539:OH:4878, V-A:PRO:540:CD:4887, V-A:LEU:363:CB:3186, V-A:LEU:363:CA:3184, V-A:ASP:366:CB:3211, V-B:MET:535:CE:9807, H-B:TYR:539:OH:9850, V-A:ASN:362:C:3171, V-A:ASN:362:CB:3175, V-A:MET:535:CB:4832"]

$$$$
3ck_Grossjean_2025
     RDKit          3D

 30 31  0  0  0  0  0  0  0  0999 V2000
  132.3640  130.8990   58.7100 C   0  0  0  0  0  0  0  0  0  0  0  0
  131.8950  131.7810   57.7010 O   0  0  0  0  0  0  0  0  0  0  0  0
  132.1330  131.3100   56.3820 C   0  0  0  0  0  0  0  0  0  0  0  0
  131.0760  131.8860   55.4320 C   0  0  0  0  0  0  0  0  0  0  0  0
  130.1170  132.6190   56.1840 O   0  0  0  0  0  0  0  0  0  0  0  0
  128.7910  132.1200   56.0700 C   0  0  0  0  0  0  0  0  0  0  0  0
  128.4760  131.8700   54.5900 C   0  0  0  0  0  0  0  0  0  0  0  0
  127.4970  130.8450   54.5070 O   0  0  0  0  0  0  0  0  0  0  0  0
  127.9540  129.5540   54.8820 C   0  0  0  0  0  0  0  0  0  0  0  0
  127.5170  129.2520   56.3270 C   0  0  0  0  0  0  0  0  0  0  0  0
  126.2890  129.9440   56.7290 N   0  0  0  0  0  0  0  0  0  0  0  0
  125.5100  129.6160   57.7760 C   0  0  0  0  0  0  0  0  0  0  0  0
  125.7690  128.6890   58.5460 O   0  0  0  0  0  0  0  0  0  0  0  0
  124.2570  130.4860   57.9670 C   0  0  0  0  0  0  0  0  0  0  0  0
  123.9830  131.1030   59.6640 S   0  0  0  0  0  0  0  0  0  0  0  0
  125.5280  131.0590   60.5590 C   0  0  0  0  0  0  0  0  0  0  0  0
  126.6250  131.4310   59.8520 N   0  0  0  0  0  0  0  0  0  0  0  0
  127.8300  131.4180   60.4660 C   0  0  0  0  0  0  0  0  0  0  0  0
  129.0090  131.8420   59.6130 C   0  0  0  0  0  0  0  0  0  0  0  0
  127.9900  131.0370   61.7960 C   0  0  0  0  0  0  0  0  0  0  0  0
  126.8720  130.6430   62.5430 C   0  0  0  0  0  0  0  0  0  0  0  0
  127.0950  130.2210   63.9590 C   0  0  0  0  0  0  0  0  0  0  0  0
  127.5900  131.1350   64.8960 C   0  0  0  0  0  0  0  0  0  0  0  0
  127.8100  130.7450   66.2150 C   0  0  0  0  0  0  0  0  0  0  0  0
  127.5400  129.4350   66.6000 C   0  0  0  0  0  0  0  0  0  0  0  0
  127.0540  128.5110   65.6770 C   0  0  0  0  0  0  0  0  0  0  0  0
  126.8360  128.9040   64.3600 C   0  0  0  0  0  0  0  0  0  0  0  0
  125.6000  130.6650   61.9150 C   0  0  0  0  0  0  0  0  0  0  0  0
  124.3890  130.3030   62.6610 C   0  0  0  0  0  0  0  0  0  0  0  0
  123.4340  130.0180   63.2490 N   0  0  0  0  0  0  0  0  0  0  0  0
  1  2  1  0
  2  3  1  0
  3  4  1  0
  4  5  1  0
  5  6  1  0
  6  7  1  0
  7  8  1  0
  8  9  1  0
  9 10  1  0
 10 11  1  0
 11 12  1  0
 12 13  2  0
 12 14  1  0
 14 15  1  0
 15 16  1  0
 16 17  2  0
 17 18  1  0
 18 19  1  0
 18 20  2  0
 20 21  1  0
 21 22  1  0
 22 23  2  0
 23 24  1  0
 24 25  2  0
 25 26  1  0
 26 27  2  0
 21 28  2  0
 28 29  1  0
 29 30  3  0
 28 16  1  0
 27 22  1  0
M  END
>  <Binding energies>  (36) 
[-7.57]

>  <Ligand effiencies>  (36) 
[-0.24419354838709678]

>  <Interactions>  (36) 
["V-B:TYR:484:CE2:9317, V-B:HIS:456:CE1:9041, V-A:PRO:540:CB:4885, V-A:TYR:539:CD1:4873, V-A:TYR:539:C:4867, V-A:PRO:540:CA:4883, V-B:TYR:484:CZ:9318, V-A:GLU:543:CG:4907, V-A:TYR:539:CE1:4875, V-A:GLU:543:CB:4906, V-B:ASP:366:CG:8184, V-A:GLU:543:CD:4908, V-B:TYR:531:CZ:9766, V-A:TYR:539:CG:4872, V-A:TYR:539:CE2:4876, H-B:GLY:454:N:9021, V-A:ILE:538:CB:4862, V-A:TYR:539:CZ:4877, V-A:TYR:539:CD2:4874, V-A:ILE:538:CA:4860, V-A:ILE:538:CG2:4863, H-A:TYR:539:N:4870, H-B:LYS:534:NZ:9795, H-A:TYR:539:OH:4878, H-B:TYR:531:OH:9767, V-A:LEU:363:CD1:3188, V-B:TYR:531:CE1:9764, V-B:ASP:366:CB:8183, V-B:ILE:369:CG2:8208, H-B:ARG:545:NH1:9899, H-B:ARG:545:NH2:9900, V-B:ASP:366:CA:8181, V-B:ASP:366:C:8179"]

$$$$
4aa_Grossjean_2025
     RDKit          3D

 26 28  0  0  0  0  0  0  0  0999 V2000
  130.7780  127.0440   67.7020 C   0  0  0  0  0  0  0  0  0  0  0  0
  132.2040  127.1590   67.1530 C   0  0  0  0  0  0  0  0  0  0  0  0
  132.7580  125.8580   67.0020 O   0  0  0  0  0  0  0  0  0  0  0  0
  133.4360  125.5110   65.8780 C   0  0  0  0  0  0  0  0  0  0  0  0
  134.6680  125.5420   65.7890 O   0  0  0  0  0  0  0  0  0  0  0  0
  132.5390  125.0910   64.7500 C   0  0  0  0  0  0  0  0  0  0  0  0
  131.1500  125.1600   64.9190 C   0  0  0  0  0  0  0  0  0  0  0  0
  130.2910  124.7730   63.8940 C   0  0  0  0  0  0  0  0  0  0  0  0
  130.8020  124.3170   62.6780 C   0  0  0  0  0  0  0  0  0  0  0  0
  129.8460  123.9430   61.7140 N   0  0  0  0  0  0  0  0  0  0  0  0
  128.6950  123.2410   61.8520 C   0  0  0  0  0  0  0  0  0  0  0  0
  128.3060  122.7510   62.9130 O   0  0  0  0  0  0  0  0  0  0  0  0
  127.9190  123.0650   60.6230 C   0  0  0  0  0  0  0  0  0  0  0  0
  128.5810  122.1290   59.2790 S   0  0  0  0  0  0  0  0  0  0  0  0
  127.1620  122.4390   58.3040 C   0  0  0  0  0  0  0  0  0  0  0  0
  127.0380  121.9580   57.0660 N   0  0  0  0  0  0  0  0  0  0  0  0
  125.8910  122.2760   56.4170 C   0  0  0  0  0  0  0  0  0  0  0  0
  125.7720  121.7230   55.0080 C   0  0  0  0  0  0  0  0  0  0  0  0
  124.8760  123.0520   56.9720 C   0  0  0  0  0  0  0  0  0  0  0  0
  125.0090  123.5540   58.2710 C   0  0  0  0  0  0  0  0  0  0  0  0
  123.8730  124.3950   58.8340 C   0  0  0  0  0  0  0  0  0  0  0  0
  126.2000  123.2450   58.9830 C   0  0  0  0  0  0  0  0  0  0  0  0
  126.6590  123.5910   60.3020 C   0  0  0  0  0  0  0  0  0  0  0  0
  125.9140  124.3660   61.1560 N   0  0  0  0  0  0  0  0  0  0  0  0
  132.1910  124.2380   62.5010 C   0  0  0  0  0  0  0  0  0  0  0  0
  133.0490  124.6230   63.5290 C   0  0  0  0  0  0  0  0  0  0  0  0
  1  2  1  0
  2  3  1  0
  3  4  1  0
  4  5  2  0
  4  6  1  0
  6  7  2  0
  7  8  1  0
  8  9  2  0
  9 10  1  0
 10 11  1  0
 11 12  2  0
 11 13  1  0
 13 14  1  0
 14 15  1  0
 15 16  2  0
 16 17  1  0
 17 18  1  0
 17 19  2  0
 19 20  1  0
 20 21  1  0
 20 22  2  0
 22 23  1  0
 23 24  1  0
  9 25  1  0
 25 26  2  0
 26  6  1  0
 23 13  2  0
 22 15  1  0
M  END
>  <Binding energies>  (37) 
[-7.46]

>  <Ligand effiencies>  (37) 
[-0.25724137931034485]

>  <Interactions>  (37) 
["V-A:HIS:456:CE1:4069, V-A:GLU:543:CB:4906, V-B:ASP:366:CG:8184, V-A:GLU:543:CD:4908, H-B:ASP:366:OD1:8185, V-B:TYR:539:C:9839, H-B:GLU:543:OE1:9881, V-B:PRO:540:CB:9857, H-B:GLU:543:OE2:9882, V-A:ARG:545:CD:4923, V-A:ARG:545:CZ:4926, V-B:GLU:543:CD:9880, V-B:PRO:540:CA:9855, V-A:ARG:545:CG:4922, H-B:ALA:541:N:9863, V-B:PRO:540:N:9856, H-B:TYR:539:N:9842, V-B:ILE:538:CG2:9835, V-B:MET:535:CE:9807, V-B:LEU:363:CD1:8160, V-B:ASP:366:CB:8183, V-B:LEU:363:CA:8156, V-B:PRO:540:CD:9859, V-B:ILE:538:CA:9832, V-B:LEU:363:CB:8158, V-B:TYR:531:CE2:9765, H-A:GLY:454:N:4049, H-A:TYR:484:OH:4347, H-A:ARG:545:NE:4924, H-A:ARG:545:NH1:4927, V-B:TYR:539:CD2:9846, V-B:ILE:538:CG1:9836, V-B:MET:535:CG:9805, V-B:ILE:538:CB:9834, V-B:ILE:538:C:9830, V-B:LEU:363:CG:8159"]

$$$$
4ab_Grossjean_2025
     RDKit          3D

 25 27  0  0  0  0  0  0  0  0999 V2000
  124.5730  124.3900   57.6480 C   0  0  0  0  0  0  0  0  0  0  0  0
  125.2230  123.6860   56.5990 O   0  0  0  0  0  0  0  0  0  0  0  0
  126.2130  122.7950   56.8630 C   0  0  0  0  0  0  0  0  0  0  0  0
  126.3420  121.7230   56.2630 O   0  0  0  0  0  0  0  0  0  0  0  0
  127.1320  123.2390   57.9650 C   0  0  0  0  0  0  0  0  0  0  0  0
  126.7580  123.0180   59.2970 C   0  0  0  0  0  0  0  0  0  0  0  0
  127.5870  123.4200   60.3410 C   0  0  0  0  0  0  0  0  0  0  0  0
  128.8080  124.0410   60.0750 C   0  0  0  0  0  0  0  0  0  0  0  0
  129.5620  124.4120   61.2050 N   0  0  0  0  0  0  0  0  0  0  0  0
  129.1910  125.0850   62.3210 C   0  0  0  0  0  0  0  0  0  0  0  0
  128.0630  125.5420   62.5110 O   0  0  0  0  0  0  0  0  0  0  0  0
  130.2460  125.2700   63.3180 C   0  0  0  0  0  0  0  0  0  0  0  0
  131.8690  124.6390   63.0250 S   0  0  0  0  0  0  0  0  0  0  0  0
  132.4230  125.2050   64.5840 C   0  0  0  0  0  0  0  0  0  0  0  0
  133.6760  125.0180   64.9990 N   0  0  0  0  0  0  0  0  0  0  0  0
  133.9750  125.5030   66.2290 C   0  0  0  0  0  0  0  0  0  0  0  0
  135.4040  125.2750   66.6840 C   0  0  0  0  0  0  0  0  0  0  0  0
  133.0600  126.1670   67.0440 C   0  0  0  0  0  0  0  0  0  0  0  0
  131.7450  126.3610   66.6060 C   0  0  0  0  0  0  0  0  0  0  0  0
  130.7830  127.0890   67.5320 C   0  0  0  0  0  0  0  0  0  0  0  0
  131.3920  125.8620   65.3220 C   0  0  0  0  0  0  0  0  0  0  0  0
  130.1610  125.8800   64.5800 C   0  0  0  0  0  0  0  0  0  0  0  0
  129.0160  126.4500   65.0760 N   0  0  0  0  0  0  0  0  0  0  0  0
  129.1880  124.2710   58.7440 C   0  0  0  0  0  0  0  0  0  0  0  0
  128.3560  123.8710   57.7020 C   0  0  0  0  0  0  0  0  0  0  0  0
  1  2  1  0
  2  3  1  0
  3  4  2  0
  3  5  1  0
  5  6  2  0
  6  7  1  0
  7  8  2  0
  8  9  1  0
  9 10  1  0
 10 11  2  0
 10 12  1  0
 12 13  1  0
 13 14  1  0
 14 15  2  0
 15 16  1  0
 16 17  1  0
 16 18  2  0
 18 19  1  0
 19 20  1  0
 19 21  2  0
 21 22  1  0
 22 23  1  0
  8 24  1  0
 24 25  2  0
 25  5  1  0
 22 12  2  0
 21 14  1  0
M  END
>  <Binding energies>  (38) 
[-7.22]

>  <Ligand effiencies>  (38) 
[-0.25785714285714284]

>  <Interactions>  (38) 
["V-A:HIS:456:CE1:4069, V-A:GLU:543:CB:4906, V-A:GLU:543:CD:4908, V-A:GLY:453:C:4041, H-B:GLU:543:OE1:9881, V-B:PRO:540:CB:9857, H-B:GLU:543:OE2:9882, V-A:ARG:545:CD:4923, V-A:GLY:453:CA:4043, V-A:GLY:454:CA:4048, V-A:ILE:455:C:4051, V-A:ARG:545:CZ:4926, V-B:GLU:543:CD:9880, V-B:PRO:540:CA:9855, V-A:ARG:545:CG:4922, V-A:GLY:454:C:4046, V-B:PRO:540:N:9856, V-B:GLU:543:CG:9879, V-B:TYR:531:CZ:9766, H-B:TYR:531:OH:9767, H-B:TYR:539:N:9842, V-B:MET:535:CE:9807, V-B:LEU:363:CD1:8160, V-B:TYR:531:CE2:9765, H-A:GLY:454:N:4049, H-A:TYR:484:OH:4347, H-A:ARG:545:NE:4924, H-A:ARG:545:NH2:4928, H-A:GLU:543:OE1:4909, V-A:ILE:455:CA:4053"]

$$$$
4ac_Grossjean_2025
     RDKit          3D

 23 25  0  0  0  0  0  0  0  0999 V2000
  133.9300  125.4830   66.6550 C   0  0  0  0  0  0  0  0  0  0  0  0
  134.1380  125.3230   65.2550 O   0  0  0  0  0  0  0  0  0  0  0  0
  133.0610  125.0220   64.4440 C   0  0  0  0  0  0  0  0  0  0  0  0
  133.3560  124.4550   63.2040 C   0  0  0  0  0  0  0  0  0  0  0  0
  132.3360  124.1170   62.3180 C   0  0  0  0  0  0  0  0  0  0  0  0
  131.0030  124.3350   62.6670 C   0  0  0  0  0  0  0  0  0  0  0  0
  130.0420  123.9750   61.7040 N   0  0  0  0  0  0  0  0  0  0  0  0
  128.9450  123.1920   61.8390 C   0  0  0  0  0  0  0  0  0  0  0  0
  128.6310  122.6190   62.8850 O   0  0  0  0  0  0  0  0  0  0  0  0
  128.1240  123.0470   60.6340 C   0  0  0  0  0  0  0  0  0  0  0  0
  128.7270  122.1360   59.2480 S   0  0  0  0  0  0  0  0  0  0  0  0
  127.2610  122.4450   58.3470 C   0  0  0  0  0  0  0  0  0  0  0  0
  127.0810  121.9790   57.1100 N   0  0  0  0  0  0  0  0  0  0  0  0
  125.9000  122.2900   56.5230 C   0  0  0  0  0  0  0  0  0  0  0  0
  125.7150  121.7500   55.1170 C   0  0  0  0  0  0  0  0  0  0  0  0
  124.9060  123.0500   57.1360 C   0  0  0  0  0  0  0  0  0  0  0  0
  125.0980  123.5380   58.4340 C   0  0  0  0  0  0  0  0  0  0  0  0
  123.9840  124.3620   59.0600 C   0  0  0  0  0  0  0  0  0  0  0  0
  126.3240  123.2300   59.0830 C   0  0  0  0  0  0  0  0  0  0  0  0
  126.8410  123.5580   60.3840 C   0  0  0  0  0  0  0  0  0  0  0  0
  126.1280  124.3060   61.2870 N   0  0  0  0  0  0  0  0  0  0  0  0
  130.6980  124.9170   63.9060 C   0  0  0  0  0  0  0  0  0  0  0  0
  131.7210  125.2540   64.7890 C   0  0  0  0  0  0  0  0  0  0  0  0
  1  2  1  0
  2  3  1  0
  3  4  2  0
  4  5  1  0
  5  6  2  0
  6  7  1  0
  7  8  1  0
  8  9  2  0
  8 10  1  0
 10 11  1  0
 11 12  1  0
 12 13  2  0
 13 14  1  0
 14 15  1  0
 14 16  2  0
 16 17  1  0
 17 18  1  0
 17 19  2  0
 19 20  1  0
 20 21  1  0
  6 22  1  0
 22 23  2  0
 23  3  1  0
 20 10  2  0
 19 12  1  0
M  END
>  <Binding energies>  (39) 
[-7.26]

>  <Ligand effiencies>  (39) 
[-0.2792307692307692]

>  <Interactions>  (39) 
["V-B:ASP:366:CG:8184, H-B:ASP:366:OD1:8185, V-B:TYR:539:C:9839, H-B:GLU:543:OE1:9881, V-B:PRO:540:CB:9857, H-B:GLU:543:OE2:9882, V-A:ARG:545:CD:4923, V-A:ARG:545:CZ:4926, V-B:GLU:543:CD:9880, V-B:PRO:540:CA:9855, V-A:ARG:545:CG:4922, H-B:ALA:541:N:9863, V-B:PRO:540:N:9856, H-B:TYR:539:N:9842, V-B:ILE:538:CG2:9835, V-B:MET:535:CE:9807, V-B:LEU:363:CD1:8160, V-B:ASP:366:CB:8183, V-B:LEU:363:CA:8156, V-B:PRO:540:CD:9859, V-B:ILE:538:CA:9832, V-B:LEU:363:CB:8158, V-B:TYR:539:CE2:9848, V-B:TYR:531:CE2:9765, H-A:GLY:454:N:4049, H-A:TYR:484:OH:4347, H-A:ARG:545:NE:4924, H-A:ARG:545:NH1:4927, H-A:ARG:545:NH2:4928, V-B:TYR:539:CD2:9846, V-B:ILE:538:CG1:9836, V-B:MET:535:CG:9805, V-B:ILE:538:CB:9834, V-B:ILE:538:C:9830"]

$$$$
4ad_Grossjean_2025
     RDKit          3D

 21 23  0  0  0  0  0  0  0  0999 V2000
  124.7600  129.3370   65.6290 C   0  0  0  0  0  0  0  0  0  0  0  0
  125.3640  130.2980   64.6220 C   0  0  0  0  0  0  0  0  0  0  0  0
  126.7140  130.2270   64.2820 C   0  0  0  0  0  0  0  0  0  0  0  0
  127.2500  131.1260   63.3530 C   0  0  0  0  0  0  0  0  0  0  0  0
  128.7290  131.0110   63.0150 C   0  0  0  0  0  0  0  0  0  0  0  0
  126.3760  132.0930   62.7850 C   0  0  0  0  0  0  0  0  0  0  0  0
  126.5840  133.1420   61.8250 C   0  0  0  0  0  0  0  0  0  0  0  0
  127.8090  133.3770   61.2510 N   0  0  0  0  0  0  0  0  0  0  0  0
  125.4310  133.8890   61.5360 C   0  0  0  0  0  0  0  0  0  0  0  0
  125.2860  135.0280   60.6280 C   0  0  0  0  0  0  0  0  0  0  0  0
  124.8540  134.8680   59.4840 O   0  0  0  0  0  0  0  0  0  0  0  0
  125.6450  136.2300   61.1420 N   0  0  0  0  0  0  0  0  0  0  0  0
  125.6660  137.4970   60.5260 C   0  0  0  0  0  0  0  0  0  0  0  0
  125.6310  138.5960   61.3890 C   0  0  0  0  0  0  0  0  0  0  0  0
  125.6580  139.8910   60.8780 C   0  0  0  0  0  0  0  0  0  0  0  0
  125.7300  140.0880   59.5020 C   0  0  0  0  0  0  0  0  0  0  0  0
  125.7790  139.0010   58.6320 C   0  0  0  0  0  0  0  0  0  0  0  0
  125.7510  137.7050   59.1400 C   0  0  0  0  0  0  0  0  0  0  0  0
  124.0450  133.2990   62.4550 S   0  0  0  0  0  0  0  0  0  0  0  0
  125.0160  132.0620   63.2180 C   0  0  0  0  0  0  0  0  0  0  0  0
  124.5030  131.2050   64.1030 N   0  0  0  0  0  0  0  0  0  0  0  0
  1  2  1  0
  2  3  2  0
  3  4  1  0
  4  5  1  0
  4  6  2  0
  6  7  1  0
  7  8  1  0
  7  9  2  0
  9 10  1  0
 10 11  2  0
 10 12  1  0
 12 13  1  0
 13 14  2  0
 14 15  1  0
 15 16  2  0
 16 17  1  0
 17 18  2  0
  9 19  1  0
 19 20  1  0
 20 21  2  0
 21  2  1  0
 20  6  1  0
 18 13  1  0
M  END
>  <Binding energies>  (40) 
[-7.45]

>  <Ligand effiencies>  (40) 
[-0.3104166666666667]

>  <Interactions>  (40) 
["V-A:ALA:541:CB:4892, V-B:LEU:475:CD1:9229, V-A:TYR:539:CD1:4873, V-B:GLY:454:CA:9020, V-A:GLU:543:CG:4907, V-B:ARG:545:CD:9895, V-A:GLU:543:CD:4908, V-B:ARG:545:CZ:9898, H-B:TYR:484:OH:9319, V-A:TYR:539:CG:4872, V-B:ILE:369:CD1:8210, H-B:GLY:454:N:9021, V-B:PRO:482:CB:9297, V-B:PRO:482:CG:9298, V-B:ILE:369:CG2:8208, H-B:SER:385:OG:8381, V-A:TYR:539:CB:4871, H-A:TYR:539:O:4868, V-B:LEU:373:CD1:8251, V-B:SER:385:CB:8380, V-A:ILE:343:CG2:2991, V-B:HIS:383:CE1:8365, V-B:HIS:383:CD2:8363, V-A:VAL:344:CG1:3000, V-B:LEU:373:CD2:8252, V-B:HIS:383:CG:8361, V-A:ILE:343:CB:2990"]

$$$$
4ae_Grossjean_2025
     RDKit          3D

 22 24  0  0  0  0  0  0  0  0999 V2000
  126.1150  140.8830   62.0990 C   0  0  0  0  0  0  0  0  0  0  0  0
  125.9840  139.7110   61.1460 C   0  0  0  0  0  0  0  0  0  0  0  0
  125.8480  139.9000   59.7680 C   0  0  0  0  0  0  0  0  0  0  0  0
  125.7240  138.7750   58.9530 C   0  0  0  0  0  0  0  0  0  0  0  0
  125.7370  137.5020   59.5280 C   0  0  0  0  0  0  0  0  0  0  0  0
  125.8840  137.3830   60.9140 C   0  0  0  0  0  0  0  0  0  0  0  0
  125.8690  136.0780   61.4350 N   0  0  0  0  0  0  0  0  0  0  0  0
  125.4410  134.9330   60.8450 C   0  0  0  0  0  0  0  0  0  0  0  0
  124.9740  134.8820   59.7070 O   0  0  0  0  0  0  0  0  0  0  0  0
  125.5640  133.7230   61.6610 C   0  0  0  0  0  0  0  0  0  0  0  0
  124.2060  133.1680   62.6410 S   0  0  0  0  0  0  0  0  0  0  0  0
  125.1390  131.8250   63.2590 C   0  0  0  0  0  0  0  0  0  0  0  0
  124.6290  130.9530   64.1300 N   0  0  0  0  0  0  0  0  0  0  0  0
  125.4590  129.9620   64.5340 C   0  0  0  0  0  0  0  0  0  0  0  0
  124.8610  128.9850   65.5300 C   0  0  0  0  0  0  0  0  0  0  0  0
  126.7730  129.8210   64.0910 C   0  0  0  0  0  0  0  0  0  0  0  0
  127.3050  130.7370   63.1760 C   0  0  0  0  0  0  0  0  0  0  0  0
  128.7450  130.5440   62.7250 C   0  0  0  0  0  0  0  0  0  0  0  0
  126.4640  131.7930   62.7300 C   0  0  0  0  0  0  0  0  0  0  0  0
  126.6810  132.8860   61.8200 C   0  0  0  0  0  0  0  0  0  0  0  0
  127.8760  133.0770   61.1750 N   0  0  0  0  0  0  0  0  0  0  0  0
  125.9990  138.4800   61.7190 N   0  0  0  0  0  0  0  0  0  0  0  0
  1  2  1  0
  2  3  2  0
  3  4  1  0
  4  5  2  0
  5  6  1  0
  6  7  1  0
  7  8  1  0
  8  9  2  0
  8 10  1  0
 10 11  1  0
 11 12  1  0
 12 13  2  0
 13 14  1  0
 14 15  1  0
 14 16  2  0
 16 17  1  0
 17 18  1  0
 17 19  2  0
 19 20  1  0
 20 21  1  0
  6 22  2  0
 22  2  1  0
 20 10  2  0
 19 12  1  0
M  END
>  <Binding energies>  (41) 
[-7.25]

>  <Ligand effiencies>  (41) 
[-0.29]

>  <Interactions>  (41) 
["V-A:ALA:541:CB:4892, V-B:LEU:475:CD1:9229, V-A:TYR:539:CD1:4873, V-B:GLY:454:CA:9020, V-A:GLU:543:CG:4907, V-B:ARG:545:CD:9895, V-A:GLU:543:CD:4908, V-B:ARG:545:CZ:9898, H-B:TYR:484:OH:9319, V-A:TYR:539:CG:4872, V-B:ILE:369:CD1:8210, H-B:GLY:454:N:9021, V-B:PRO:482:CB:9297, V-B:PRO:482:CG:9298, V-B:ILE:369:CG2:8208, H-B:SER:385:OG:8381, V-A:TYR:539:CB:4871, H-A:TYR:539:O:4868, V-B:LEU:373:CD1:8251, V-B:SER:385:CB:8380, V-A:ILE:343:CG2:2991, V-B:HIS:383:CE1:8365, V-B:HIS:383:CD2:8363, V-A:VAL:344:CG1:3000, V-B:THR:477:CA:9241"]

$$$$
4af_Grossjean_2025
     RDKit          3D

 21 23  0  0  0  0  0  0  0  0999 V2000
  124.8990  129.6190   65.5110 C   0  0  0  0  0  0  0  0  0  0  0  0
  125.4370  130.5950   64.4800 C   0  0  0  0  0  0  0  0  0  0  0  0
  126.7890  130.6100   64.1440 C   0  0  0  0  0  0  0  0  0  0  0  0
  127.2640  131.5210   63.1920 C   0  0  0  0  0  0  0  0  0  0  0  0
  128.7470  131.5000   62.8600 C   0  0  0  0  0  0  0  0  0  0  0  0
  126.3260  132.4100   62.6000 C   0  0  0  0  0  0  0  0  0  0  0  0
  126.4640  133.4490   61.6150 C   0  0  0  0  0  0  0  0  0  0  0  0
  127.6720  133.7580   61.0410 N   0  0  0  0  0  0  0  0  0  0  0  0
  125.2620  134.1020   61.3030 C   0  0  0  0  0  0  0  0  0  0  0  0
  125.0430  135.2150   60.3760 C   0  0  0  0  0  0  0  0  0  0  0  0
  124.5310  135.0210   59.2730 O   0  0  0  0  0  0  0  0  0  0  0  0
  125.4250  136.4330   60.8330 N   0  0  0  0  0  0  0  0  0  0  0  0
  125.3970  137.6820   60.1840 C   0  0  0  0  0  0  0  0  0  0  0  0
  126.5240  138.4570   59.8560 C   0  0  0  0  0  0  0  0  0  0  0  0
  126.3550  139.6910   59.2260 C   0  0  0  0  0  0  0  0  0  0  0  0
  125.0590  140.1240   58.9410 C   0  0  0  0  0  0  0  0  0  0  0  0
  123.9560  139.4000   59.2540 N   0  0  0  0  0  0  0  0  0  0  0  0
  124.1360  138.2030   59.8660 C   0  0  0  0  0  0  0  0  0  0  0  0
  123.9170  133.4400   62.2350 S   0  0  0  0  0  0  0  0  0  0  0  0
  124.9710  132.2930   63.0300 C   0  0  0  0  0  0  0  0  0  0  0  0
  124.5150  131.4270   63.9360 N   0  0  0  0  0  0  0  0  0  0  0  0
  1  2  1  0
  2  3  2  0
  3  4  1  0
  4  5  1  0
  4  6  2  0
  6  7  1  0
  7  8  1  0
  7  9  2  0
  9 10  1  0
 10 11  2  0
 10 12  1  0
 12 13  1  0
 13 14  2  0
 14 15  1  0
 15 16  2  0
 16 17  1  0
 17 18  2  0
  9 19  1  0
 19 20  1  0
 20 21  2  0
 21  2  1  0
 20  6  1  0
 18 13  1  0
M  END
>  <Binding energies>  (42) 
[-7.1]

>  <Ligand effiencies>  (42) 
[-0.29583333333333334]

>  <Interactions>  (42) 
["V-A:ALA:541:CB:4892, V-B:LEU:475:CD1:9229, V-A:TYR:539:CD1:4873, V-A:TYR:539:C:4867, V-B:GLY:454:CA:9020, V-A:GLU:543:CG:4907, V-A:GLU:543:CD:4908, V-B:ARG:545:CZ:9898, V-B:ILE:369:CD1:8210, H-B:GLY:454:N:9021, V-B:PRO:482:CG:9298, V-B:ILE:369:CG2:8208, H-B:SER:385:OG:8381, V-A:TYR:539:CB:4871, H-A:TYR:539:O:4868, V-B:LEU:373:CD1:8251, V-B:SER:385:CB:8380, V-A:ILE:343:CG2:2991, V-B:HIS:383:CE1:8365, V-B:HIS:383:CD2:8363, V-A:VAL:344:CG1:3000, V-B:LEU:373:CD2:8252, V-B:VAL:384:C:8368, V-B:SER:385:CA:8378, V-B:HIS:383:CG:8361"]

$$$$
4ag_Grossjean_2025
     RDKit          3D

 22 24  0  0  0  0  0  0  0  0999 V2000
  123.7870  129.7830   63.4500 C   0  0  0  0  0  0  0  0  0  0  0  0
  124.7170  130.8750   62.9560 C   0  0  0  0  0  0  0  0  0  0  0  0
  126.1010  130.7180   63.0120 C   0  0  0  0  0  0  0  0  0  0  0  0
  126.9410  131.7370   62.5500 C   0  0  0  0  0  0  0  0  0  0  0  0
  128.4440  131.5180   62.6310 C   0  0  0  0  0  0  0  0  0  0  0  0
  126.3340  132.9130   62.0320 C   0  0  0  0  0  0  0  0  0  0  0  0
  126.8810  134.1260   61.4870 C   0  0  0  0  0  0  0  0  0  0  0  0
  128.2320  134.3370   61.3770 N   0  0  0  0  0  0  0  0  0  0  0  0
  125.9110  135.0570   61.0870 C   0  0  0  0  0  0  0  0  0  0  0  0
  126.1110  136.3760   60.4870 C   0  0  0  0  0  0  0  0  0  0  0  0
  127.2300  136.7600   60.1390 O   0  0  0  0  0  0  0  0  0  0  0  0
  125.0090  137.1440   60.3580 N   0  0  0  0  0  0  0  0  0  0  0  0
  124.9700  138.4800   59.7650 C   0  0  0  0  0  0  0  0  0  0  0  0
  125.7720  139.5220   60.5360 C   0  0  0  0  0  0  0  0  0  0  0  0
  125.5570  139.6920   61.9070 C   0  0  0  0  0  0  0  0  0  0  0  0
  126.3050  140.6260   62.6180 C   0  0  0  0  0  0  0  0  0  0  0  0
  127.2740  141.3800   61.9590 C   0  0  0  0  0  0  0  0  0  0  0  0
  127.5050  141.2050   60.5960 C   0  0  0  0  0  0  0  0  0  0  0  0
  126.7570  140.2700   59.8850 C   0  0  0  0  0  0  0  0  0  0  0  0
  124.2810  134.4450   61.3680 S   0  0  0  0  0  0  0  0  0  0  0  0
  124.9070  132.9510   62.0290 C   0  0  0  0  0  0  0  0  0  0  0  0
  124.1040  131.9810   62.4670 N   0  0  0  0  0  0  0  0  0  0  0  0
  1  2  1  0
  2  3  2  0
  3  4  1  0
  4  5  1  0
  4  6  2  0
  6  7  1  0
  7  8  1  0
  7  9  2  0
  9 10  1  0
 10 11  2  0
 10 12  1  0
 12 13  1  0
 13 14  1  0
 14 15  2  0
 15 16  1  0
 16 17  2  0
 17 18  1  0
 18 19  2  0
  9 20  1  0
 20 21  1  0
 21 22  2  0
 22  2  1  0
 21  6  1  0
 19 14  1  0
M  END
>  <Binding energies>  (43) 
[-7.68]

>  <Ligand effiencies>  (43) 
[-0.3072]

>  <Interactions>  (43) 
["V-A:ALA:541:CB:4892, V-A:PRO:540:C:4881, V-B:LEU:475:CD1:9229, V-A:TYR:539:CD1:4873, V-A:TYR:539:C:4867, V-A:PRO:540:CA:4883, V-B:ASP:366:CG:8184, V-A:GLU:543:CD:4908, V-B:ARG:545:CZ:9898, V-B:ILE:369:CD1:8210, H-B:GLY:454:N:9021, V-B:PRO:482:CB:9297, V-B:PRO:482:CG:9298, V-B:ILE:369:CG2:8208, H-B:SER:385:OG:8381, V-A:TYR:539:CB:4871, H-A:TYR:539:O:4868, V-B:LEU:373:CD1:8251, V-B:SER:385:CB:8380, V-A:ILE:343:CG2:2991, V-B:HIS:383:CE1:8365, V-B:HIS:383:CD2:8363, V-A:VAL:344:CG1:3000, V-B:GLY:453:C:9013, V-A:ALA:541:CA:4890, V-B:GLY:453:CA:9015, V-B:CYS:476:C:9235, V-B:PRO:482:CD:9299, V-B:THR:477:CA:9241, V-B:PRO:482:N:9296, V-B:PRO:482:CA:9295, H-B:VAL:384:O:8369"]

$$$$
4ah_Grossjean_2025
     RDKit          3D

 28 30  0  0  0  0  0  0  0  0999 V2000
  129.0780  130.1550   53.3950 C   0  0  0  0  0  0  0  0  0  0  0  0
  127.9760  130.7480   54.0720 O   0  0  0  0  0  0  0  0  0  0  0  0
  127.8300  130.5500   55.4340 C   0  0  0  0  0  0  0  0  0  0  0  0
  126.9520  129.6120   56.0010 C   0  0  0  0  0  0  0  0  0  0  0  0
  126.8560  129.4690   57.3850 C   0  0  0  0  0  0  0  0  0  0  0  0
  125.9320  128.4130   57.9810 C   0  0  0  0  0  0  0  0  0  0  0  0
  126.6390  127.2430   58.5020 N   0  0  0  0  0  0  0  0  0  0  0  0
  126.2220  125.9640   58.3920 C   0  0  0  0  0  0  0  0  0  0  0  0
  125.1540  125.6570   57.8590 O   0  0  0  0  0  0  0  0  0  0  0  0
  127.0950  124.9520   58.9850 C   0  0  0  0  0  0  0  0  0  0  0  0
  128.4460  124.2940   58.0590 S   0  0  0  0  0  0  0  0  0  0  0  0
  128.8830  123.2250   59.3730 C   0  0  0  0  0  0  0  0  0  0  0  0
  129.9210  122.3930   59.2910 N   0  0  0  0  0  0  0  0  0  0  0  0
  130.1540  121.6200   60.3790 C   0  0  0  0  0  0  0  0  0  0  0  0
  131.3380  120.6780   60.2620 C   0  0  0  0  0  0  0  0  0  0  0  0
  129.3800  121.6600   61.5370 C   0  0  0  0  0  0  0  0  0  0  0  0
  128.2890  122.5320   61.6210 C   0  0  0  0  0  0  0  0  0  0  0  0
  127.4740  122.5390   62.9050 C   0  0  0  0  0  0  0  0  0  0  0  0
  128.0130  123.3580   60.4970 C   0  0  0  0  0  0  0  0  0  0  0  0
  126.9940  124.3420   60.2440 C   0  0  0  0  0  0  0  0  0  0  0  0
  126.0260  124.6500   61.1660 N   0  0  0  0  0  0  0  0  0  0  0  0
  127.6620  130.2480   58.2160 C   0  0  0  0  0  0  0  0  0  0  0  0
  128.5450  131.1980   57.6780 C   0  0  0  0  0  0  0  0  0  0  0  0
  129.3610  132.0130   58.4410 O   0  0  0  0  0  0  0  0  0  0  0  0
  129.3510  131.8790   59.8590 C   0  0  0  0  0  0  0  0  0  0  0  0
  128.6140  131.3430   56.2850 C   0  0  0  0  0  0  0  0  0  0  0  0
  129.4870  132.2560   55.7440 O   0  0  0  0  0  0  0  0  0  0  0  0
  130.8550  131.8900   55.8620 C   0  0  0  0  0  0  0  0  0  0  0  0
  1  2  1  0
  2  3  1  0
  3  4  2  0
  4  5  1  0
  5  6  1  0
  6  7  1  0
  7  8  1  0
  8  9  2  0
  8 10  1  0
 10 11  1  0
 11 12  1  0
 12 13  2  0
 13 14  1  0
 14 15  1  0
 14 16  2  0
 16 17  1  0
 17 18  1  0
 17 19  2  0
 19 20  1  0
 20 21  1  0
  5 22  2  0
 22 23  1  0
 23 24  1  0
 24 25  1  0
 23 26  2  0
 26 27  1  0
 27 28  1  0
 26  3  1  0
 20 10  2  0
 19 12  1  0
M  END
>  <Binding energies>  (44) 
[-6.92]

>  <Ligand effiencies>  (44) 
[-0.2232258064516129]

>  <Interactions>  (44) 
["V-A:TYR:539:CD1:4873, V-A:TYR:539:C:4867, V-A:PRO:540:CA:4883, V-A:TYR:539:CE1:4875, H-B:ASP:366:OD1:8185, H-B:GLU:543:OE1:9881, H-B:GLU:543:OE2:9882, V-B:GLU:543:CD:9880, V-B:PRO:540:CA:9855, V-B:ALA:541:CB:9864, V-B:GLU:543:CG:9879, V-B:TYR:531:CZ:9766, V-A:ILE:538:CB:4862, V-A:TYR:539:CZ:4877, V-A:MET:535:CG:4833, V-B:LYS:534:CE:9794, V-A:ILE:538:CG2:4863, H-A:TYR:539:N:4870, H-B:LYS:534:NZ:9795, H-A:TYR:539:OH:4878, H-B:TYR:531:OH:9767, V-B:TYR:531:CE1:9764, V-B:ASP:366:CB:8183, V-B:TYR:539:CE2:9848, V-B:TYR:539:CD2:9846, V-B:ALA:541:CA:9862, V-A:MET:535:CB:4832, V-B:ALA:541:C:9860"]

$$$$
4ai_Grossjean_2025
     RDKit          3D

 20 22  0  0  0  0  0  0  0  0999 V2000
  124.7830  129.7180   65.2170 C   0  0  0  0  0  0  0  0  0  0  0  0
  125.3910  130.7170   64.2500 C   0  0  0  0  0  0  0  0  0  0  0  0
  126.7500  130.6820   63.9430 C   0  0  0  0  0  0  0  0  0  0  0  0
  127.2890  131.6090   63.0440 C   0  0  0  0  0  0  0  0  0  0  0  0
  128.7770  131.5290   62.7400 C   0  0  0  0  0  0  0  0  0  0  0  0
  126.4070  132.5650   62.4690 C   0  0  0  0  0  0  0  0  0  0  0  0
  126.6160  133.6350   61.5320 C   0  0  0  0  0  0  0  0  0  0  0  0
  127.8520  133.9160   61.0040 N   0  0  0  0  0  0  0  0  0  0  0  0
  125.4500  134.3480   61.2110 C   0  0  0  0  0  0  0  0  0  0  0  0
  125.3010  135.4920   60.3090 C   0  0  0  0  0  0  0  0  0  0  0  0
  124.8280  135.3470   59.1800 O   0  0  0  0  0  0  0  0  0  0  0  0
  125.7000  136.6870   60.8150 N   0  0  0  0  0  0  0  0  0  0  0  0
  125.6610  137.9250   60.1870 C   0  0  0  0  0  0  0  0  0  0  0  0
  124.4720  138.5690   59.8450 C   0  0  0  0  0  0  0  0  0  0  0  0
  124.8610  139.7460   59.2490 C   0  0  0  0  0  0  0  0  0  0  0  0
  126.2130  139.8090   59.2330 O   0  0  0  0  0  0  0  0  0  0  0  0
  126.7100  138.6500   59.8320 N   0  0  0  0  0  0  0  0  0  0  0  0
  124.0560  133.7190   62.0920 S   0  0  0  0  0  0  0  0  0  0  0  0
  125.0380  132.4950   62.8660 C   0  0  0  0  0  0  0  0  0  0  0  0
  124.5220  131.6140   63.7240 N   0  0  0  0  0  0  0  0  0  0  0  0
  1  2  1  0
  2  3  2  0
  3  4  1  0
  4  5  1  0
  4  6  2  0
  6  7  1  0
  7  8  1  0
  7  9  2  0
  9 10  1  0
 10 11  2  0
 10 12  1  0
 12 13  1  0
 13 14  1  0
 14 15  2  0
 15 16  1  0
 16 17  1  0
  9 18  1  0
 18 19  1  0
 19 20  2  0
 20  2  1  0
 19  6  1  0
 17 13  2  0
M  END
>  <Binding energies>  (45) 
[-6.85]

>  <Ligand effiencies>  (45) 
[-0.29782608695652174]

>  <Interactions>  (45) 
["V-A:ALA:541:CB:4892, V-B:LEU:475:CD1:9229, V-A:TYR:539:CD1:4873, V-A:TYR:539:C:4867, V-B:GLY:454:CA:9020, V-A:GLU:543:CG:4907, V-A:GLU:543:CD:4908, V-B:ARG:545:CZ:9898, V-B:ILE:369:CD1:8210, H-B:GLY:454:N:9021, V-B:PRO:482:CG:9298, V-B:ILE:369:CG2:8208, H-B:SER:385:OG:8381, H-A:TYR:539:O:4868, V-B:LEU:373:CD1:8251, V-B:SER:385:CB:8380, V-A:ILE:343:CG2:2991, V-B:HIS:383:CE1:8365, V-B:HIS:383:CD2:8363, V-B:LEU:373:CD2:8252, V-B:HIS:383:CG:8361"]

$$$$
4aj_Grossjean_2025
     RDKit          3D

 20 22  0  0  0  0  0  0  0  0999 V2000
  124.8650  129.5920   65.3040 C   0  0  0  0  0  0  0  0  0  0  0  0
  125.4090  130.6010   64.3090 C   0  0  0  0  0  0  0  0  0  0  0  0
  126.7600  130.6220   63.9740 C   0  0  0  0  0  0  0  0  0  0  0  0
  127.2410  131.5640   63.0580 C   0  0  0  0  0  0  0  0  0  0  0  0
  128.7250  131.5470   62.7260 C   0  0  0  0  0  0  0  0  0  0  0  0
  126.3090  132.4770   62.4950 C   0  0  0  0  0  0  0  0  0  0  0  0
  126.4530  133.5500   61.5480 C   0  0  0  0  0  0  0  0  0  0  0  0
  127.6630  133.8780   60.9930 N   0  0  0  0  0  0  0  0  0  0  0  0
  125.2520  134.2110   61.2490 C   0  0  0  0  0  0  0  0  0  0  0  0
  125.0360  135.3430   60.3450 C   0  0  0  0  0  0  0  0  0  0  0  0
  124.5840  135.1660   59.2120 O   0  0  0  0  0  0  0  0  0  0  0  0
  125.3520  136.5600   60.8510 N   0  0  0  0  0  0  0  0  0  0  0  0
  125.2320  137.7860   60.2110 C   0  0  0  0  0  0  0  0  0  0  0  0
  124.1270  138.4160   59.8750 N   0  0  0  0  0  0  0  0  0  0  0  0
  124.3850  139.5660   59.2820 C   0  0  0  0  0  0  0  0  0  0  0  0
  125.7300  139.8890   59.1250 C   0  0  0  0  0  0  0  0  0  0  0  0
  126.7000  138.6100   59.7960 S   0  0  0  0  0  0  0  0  0  0  0  0
  123.9030  133.5250   62.1560 S   0  0  0  0  0  0  0  0  0  0  0  0
  124.9510  132.3500   62.9180 C   0  0  0  0  0  0  0  0  0  0  0  0
  124.4900  131.4530   63.7920 N   0  0  0  0  0  0  0  0  0  0  0  0
  1  2  1  0
  2  3  2  0
  3  4  1  0
  4  5  1  0
  4  6  2  0
  6  7  1  0
  7  8  1  0
  7  9  2  0
  9 10  1  0
 10 11  2  0
 10 12  1  0
 12 13  1  0
 13 14  2  0
 14 15  1  0
 15 16  2  0
 16 17  1  0
  9 18  1  0
 18 19  1  0
 19 20  2  0
 20  2  1  0
 19  6  1  0
 17 13  1  0
M  END
>  <Binding energies>  (46) 
[-6.95]

>  <Ligand effiencies>  (46) 
[-0.3021739130434783]

>  <Interactions>  (46) 
["V-A:ALA:541:CB:4892, V-B:LEU:475:CD1:9229, V-A:TYR:539:CD1:4873, V-A:TYR:539:C:4867, V-B:GLY:454:CA:9020, V-A:GLU:543:CG:4907, V-A:GLU:543:CD:4908, V-B:ARG:545:CZ:9898, V-B:ILE:369:CD1:8210, H-B:GLY:454:N:9021, V-B:PRO:482:CG:9298, V-B:ILE:369:CG2:8208, H-B:SER:385:OG:8381, V-A:TYR:539:CB:4871, H-A:TYR:539:O:4868, V-B:LEU:373:CD1:8251, V-B:SER:385:CB:8380, V-A:ILE:343:CG2:2991, V-B:HIS:383:CE1:8365, V-B:HIS:383:CD2:8363, V-A:VAL:344:CG1:3000, V-B:LEU:373:CD2:8252, V-B:HIS:383:CG:8361"]

$$$$
4ak_Grossjean_2025
     RDKit          3D

 25 26  0  0  0  0  0  0  0  0999 V2000
  125.9850  138.1410   59.5070 C   0  0  0  0  0  0  0  0  0  0  0  0
  126.7350  136.9970   59.8850 O   0  0  0  0  0  0  0  0  0  0  0  0
  126.1410  136.2550   60.9430 C   0  0  0  0  0  0  0  0  0  0  0  0
  127.0950  135.1370   61.3820 C   0  0  0  0  0  0  0  0  0  0  0  0
  126.5190  133.8760   61.0670 O   0  0  0  0  0  0  0  0  0  0  0  0
  125.1030  133.9040   60.9490 C   0  0  0  0  0  0  0  0  0  0  0  0
  124.4840  133.0750   62.0810 C   0  0  0  0  0  0  0  0  0  0  0  0
  125.3200  131.9590   62.3570 O   0  0  0  0  0  0  0  0  0  0  0  0
  125.8290  131.9380   63.6840 C   0  0  0  0  0  0  0  0  0  0  0  0
  127.3680  131.9370   63.6380 C   0  0  0  0  0  0  0  0  0  0  0  0
  127.9140  131.8340   62.2840 N   0  0  0  0  0  0  0  0  0  0  0  0
  129.2190  131.6900   61.9780 C   0  0  0  0  0  0  0  0  0  0  0  0
  130.0950  131.6080   62.8420 O   0  0  0  0  0  0  0  0  0  0  0  0
  129.5430  131.6260   60.5540 C   0  0  0  0  0  0  0  0  0  0  0  0
  128.4120  132.2550   59.3560 S   0  0  0  0  0  0  0  0  0  0  0  0
  129.4930  131.8310   58.0470 C   0  0  0  0  0  0  0  0  0  0  0  0
  129.1820  132.0660   56.7710 N   0  0  0  0  0  0  0  0  0  0  0  0
  130.1060  131.6870   55.8550 C   0  0  0  0  0  0  0  0  0  0  0  0
  129.7340  131.9630   54.4090 C   0  0  0  0  0  0  0  0  0  0  0  0
  131.3200  131.0860   56.1810 C   0  0  0  0  0  0  0  0  0  0  0  0
  131.6440  130.8420   57.5200 C   0  0  0  0  0  0  0  0  0  0  0  0
  132.9780  130.1800   57.8260 C   0  0  0  0  0  0  0  0  0  0  0  0
  130.6990  131.2250   58.5100 C   0  0  0  0  0  0  0  0  0  0  0  0
  130.7040  131.1250   59.9450 C   0  0  0  0  0  0  0  0  0  0  0  0
  131.7560  130.5830   60.6390 N   0  0  0  0  0  0  0  0  0  0  0  0
  1  2  1  0
  2  3  1  0
  3  4  1  0
  4  5  1  0
  5  6  1  0
  6  7  1  0
  7  8  1  0
  8  9  1  0
  9 10  1  0
 10 11  1  0
 11 12  1  0
 12 13  2  0
 12 14  1  0
 14 15  1  0
 15 16  1  0
 16 17  2  0
 17 18  1  0
 18 19  1  0
 18 20  2  0
 20 21  1  0
 21 22  1  0
 21 23  2  0
 23 24  1  0
 24 25  1  0
 24 14  2  0
 23 16  1  0
M  END
>  <Binding energies>  (47) 
[-5.63]

>  <Ligand effiencies>  (47) 
[-0.20107142857142857]

>  <Interactions>  (47) 
["V-A:ALA:541:CB:4892, V-B:LEU:475:CD1:9229, V-A:TYR:539:CD1:4873, V-A:TYR:539:C:4867, V-A:PRO:540:CA:4883, H-A:ALA:541:N:4891, V-A:TYR:539:CE1:4875, H-A:GLU:543:OE2:4910, V-A:PRO:540:N:4884, V-A:ASP:366:CG:3212, V-B:ILE:369:CD1:8210, V-A:ILE:538:CB:4862, V-A:ILE:538:CA:4860, V-A:ILE:538:CG2:4863, H-A:TYR:539:N:4870, V-A:LEU:363:CD1:3188, H-A:ASP:366:OD2:3214, V-A:ASP:366:CB:3211, V-B:PRO:482:CB:9297, V-B:PRO:482:CG:9298, V-B:ILE:369:CG2:8208, V-A:TYR:539:CB:4871, V-B:LEU:373:CD1:8251, V-B:SER:385:CB:8380, V-A:ALA:541:CA:4890"]

$$$$
4al_Grossjean_2025
     RDKit          3D

 16 17  0  0  0  0  0  0  0  0999 V2000
  127.1200  129.7440   54.9590 C   0  0  0  0  0  0  0  0  0  0  0  0
  127.6780  130.9860   54.5560 O   0  0  0  0  0  0  0  0  0  0  0  0
  129.0170  131.2040   54.6240 C   0  0  0  0  0  0  0  0  0  0  0  0
  129.7380  131.3790   53.6390 O   0  0  0  0  0  0  0  0  0  0  0  0
  129.5290  131.2100   56.0120 C   0  0  0  0  0  0  0  0  0  0  0  0
  128.4260  131.5040   57.3580 S   0  0  0  0  0  0  0  0  0  0  0  0
  129.7290  131.3510   58.5130 C   0  0  0  0  0  0  0  0  0  0  0  0
  129.5270  131.4800   59.8250 N   0  0  0  0  0  0  0  0  0  0  0  0
  130.6220  131.3390   60.6140 C   0  0  0  0  0  0  0  0  0  0  0  0
  130.3700  131.4900   62.1020 C   0  0  0  0  0  0  0  0  0  0  0  0
  131.8990  131.0740   60.1250 C   0  0  0  0  0  0  0  0  0  0  0  0
  132.1080  130.9380   58.7480 C   0  0  0  0  0  0  0  0  0  0  0  0
  133.5190  130.6490   58.2620 C   0  0  0  0  0  0  0  0  0  0  0  0
  130.9840  131.0800   57.8910 C   0  0  0  0  0  0  0  0  0  0  0  0
  130.8390  131.0050   56.4630 C   0  0  0  0  0  0  0  0  0  0  0  0
  131.8950  130.7550   55.6250 N   0  0  0  0  0  0  0  0  0  0  0  0
  1  2  1  0
  2  3  1  0
  3  4  2  0
  3  5  1  0
  5  6  1  0
  6  7  1  0
  7  8  2  0
  8  9  1  0
  9 10  1  0
  9 11  2  0
 11 12  1  0
 12 13  1  0
 12 14  2  0
 14 15  1  0
 15 16  1  0
 15  5  2  0
 14  7  1  0
M  END
>  <Binding energies>  (48) 
[-5.49]

>  <Ligand effiencies>  (48) 
[-0.305]

>  <Interactions>  (48) 
["V-A:ALA:541:CB:4892, V-A:PRO:540:CB:4885, V-A:TYR:539:CD1:4873, V-A:PRO:540:CA:4883, V-A:GLU:543:CG:4907, V-A:TYR:539:CE1:4875, H-A:TYR:531:OH:4795, V-A:GLU:543:CD:4908, V-A:ASP:366:CG:3212, V-B:TYR:531:CZ:9766, V-A:TYR:539:CZ:4877, V-A:TYR:531:CZ:4794, H-B:LYS:534:NZ:9795, H-A:TYR:539:OH:4878, V-A:LEU:363:CD1:3188, V-B:TYR:531:CE1:9764, V-A:LEU:363:CB:3186, V-A:LEU:363:CA:3184, V-A:ASP:366:CB:3211, V-A:TYR:531:CE2:4793, V-A:ALA:541:CA:4890"]

$$$$
4bc_Grossjean_2025
     RDKit          3D

 26 28  0  0  0  0  0  0  0  0999 V2000
  124.2150  129.2570   66.2800 C   0  0  0  0  0  0  0  0  0  0  0  0
  123.4680  129.5710   65.1090 O   0  0  0  0  0  0  0  0  0  0  0  0
  124.1410  129.8140   63.9270 C   0  0  0  0  0  0  0  0  0  0  0  0
  125.4360  129.3060   63.8320 C   0  0  0  0  0  0  0  0  0  0  0  0
  126.1920  129.5020   62.6790 C   0  0  0  0  0  0  0  0  0  0  0  0
  125.6560  130.2040   61.5980 C   0  0  0  0  0  0  0  0  0  0  0  0
  126.4980  130.3650   60.4830 N   0  0  0  0  0  0  0  0  0  0  0  0
  126.3050  129.9750   59.1990 C   0  0  0  0  0  0  0  0  0  0  0  0
  125.3140  129.3540   58.8110 O   0  0  0  0  0  0  0  0  0  0  0  0
  127.3750  130.3360   58.2640 C   0  0  0  0  0  0  0  0  0  0  0  0
  128.6340  131.4680   58.7500 S   0  0  0  0  0  0  0  0  0  0  0  0
  129.4130  131.3430   57.1900 C   0  0  0  0  0  0  0  0  0  0  0  0
  130.5240  132.0240   56.9110 N   0  0  0  0  0  0  0  0  0  0  0  0
  131.0330  131.8470   55.6710 C   0  0  0  0  0  0  0  0  0  0  0  0
  132.3010  132.6270   55.3750 C   0  0  0  0  0  0  0  0  0  0  0  0
  130.4640  131.0130   54.7110 C   0  0  0  0  0  0  0  0  0  0  0  0
  129.2930  130.2940   54.9990 C   0  0  0  0  0  0  0  0  0  0  0  0
  128.7030  129.3910   53.9100 C   0  0  0  0  0  0  0  0  0  0  0  0
  128.8210  128.0910   54.1890 F   0  0  0  0  0  0  0  0  0  0  0  0
  127.4040  129.6530   53.7650 F   0  0  0  0  0  0  0  0  0  0  0  0
  129.3280  129.6100   52.7540 F   0  0  0  0  0  0  0  0  0  0  0  0
  128.7310  130.4570   56.3000 C   0  0  0  0  0  0  0  0  0  0  0  0
  127.5690  129.8940   56.9460 C   0  0  0  0  0  0  0  0  0  0  0  0
  126.7330  129.0050   56.3190 N   0  0  0  0  0  0  0  0  0  0  0  0
  124.3580  130.7300   61.6910 C   0  0  0  0  0  0  0  0  0  0  0  0
  123.6060  130.5330   62.8460 C   0  0  0  0  0  0  0  0  0  0  0  0
  1  2  1  0
  2  3  1  0
  3  4  2  0
  4  5  1  0
  5  6  2  0
  6  7  1  0
  7  8  1  0
  8  9  2  0
  8 10  1  0
 10 11  1  0
 11 12  1  0
 12 13  2  0
 13 14  1  0
 14 15  1  0
 14 16  2  0
 16 17  1  0
 17 18  1  0
 18 19  1  0
 18 20  1  0
 18 21  1  0
 17 22  2  0
 22 23  1  0
 23 24  1  0
  6 25  1  0
 25 26  2  0
 26  3  1  0
 23 10  2  0
 22 12  1  0
M  END
>  <Binding energies>  (49) 
[-6.56]

>  <Ligand effiencies>  (49) 
[-0.22620689655172413]

>  <Interactions>  (49) 
["V-B:ARG:545:CG:9894, V-B:HIS:456:CE1:9041, V-A:TYR:539:CD1:4873, V-B:GLY:454:CA:9020, V-B:ARG:545:CD:9895, V-A:TYR:539:CE1:4875, V-B:ASP:366:CG:8184, V-B:ARG:545:CZ:9898, V-B:TYR:531:CZ:9766, H-B:TYR:484:OH:9319, V-B:ILE:369:CD1:8210, H-B:GLY:454:N:9021, V-A:ILE:538:CB:4862, V-A:ILE:538:CA:4860, V-A:TYR:531:CZ:4794, V-A:MET:535:CG:4833, V-B:LYS:534:CE:9794, V-A:ILE:538:CG2:4863, H-A:TYR:539:N:4870, H-B:TYR:531:OH:9767, V-A:LEU:363:CD1:3188, V-B:TYR:531:CE1:9764, V-A:ILE:538:CG1:4864, V-A:PRO:540:CD:4887, V-A:ILE:538:CD1:4865, V-B:LYS:534:CD:9793, H-B:ARG:545:NH1:9899, H-B:ARG:545:NH2:9900, H-B:ARG:545:NE:9896, V-A:MET:535:CB:4832, V-B:GLY:453:C:9013, V-B:GLY:453:CA:9015"]

$$$$
4bf_Grossjean_2025
     RDKit          3D

 24 26  0  0  0  0  0  0  0  0999 V2000
  124.5300  129.6220   65.6120 C   0  0  0  0  0  0  0  0  0  0  0  0
  125.1980  130.4040   64.4950 C   0  0  0  0  0  0  0  0  0  0  0  0
  124.5620  131.4910   63.9010 C   0  0  0  0  0  0  0  0  0  0  0  0
  125.1890  132.2030   62.8670 C   0  0  0  0  0  0  0  0  0  0  0  0
  124.4490  133.3900   62.2420 C   0  0  0  0  0  0  0  0  0  0  0  0
  125.2040  134.4890   62.1550 F   0  0  0  0  0  0  0  0  0  0  0  0
  124.0560  133.0770   61.0070 F   0  0  0  0  0  0  0  0  0  0  0  0
  123.3820  133.6970   62.9800 F   0  0  0  0  0  0  0  0  0  0  0  0
  126.4860  131.7640   62.4650 C   0  0  0  0  0  0  0  0  0  0  0  0
  127.4140  132.2310   61.4660 C   0  0  0  0  0  0  0  0  0  0  0  0
  127.1500  133.3070   60.6560 N   0  0  0  0  0  0  0  0  0  0  0  0
  128.6070  131.4930   61.3990 C   0  0  0  0  0  0  0  0  0  0  0  0
  129.7420  131.6710   60.4880 C   0  0  0  0  0  0  0  0  0  0  0  0
  130.8750  131.8670   60.9280 O   0  0  0  0  0  0  0  0  0  0  0  0
  129.4450  131.5870   59.1680 N   0  0  0  0  0  0  0  0  0  0  0  0
  130.2820  131.7570   58.0490 C   0  0  0  0  0  0  0  0  0  0  0  0
  131.6520  131.4430   58.0000 C   0  0  0  0  0  0  0  0  0  0  0  0
  132.3730  131.6760   56.8270 C   0  0  0  0  0  0  0  0  0  0  0  0
  131.7070  132.2230   55.7300 C   0  0  0  0  0  0  0  0  0  0  0  0
  130.3880  132.5420   55.7540 N   0  0  0  0  0  0  0  0  0  0  0  0
  129.7010  132.3100   56.9010 C   0  0  0  0  0  0  0  0  0  0  0  0
  128.6130  130.1850   62.5790 S   0  0  0  0  0  0  0  0  0  0  0  0
  127.0260  130.6360   63.1570 C   0  0  0  0  0  0  0  0  0  0  0  0
  126.4270  129.9630   64.1390 N   0  0  0  0  0  0  0  0  0  0  0  0
  1  2  1  0
  2  3  2  0
  3  4  1  0
  4  5  1  0
  5  6  1  0
  5  7  1  0
  5  8  1  0
  4  9  2  0
  9 10  1  0
 10 11  1  0
 10 12  2  0
 12 13  1  0
 13 14  2  0
 13 15  1  0
 15 16  1  0
 16 17  2  0
 17 18  1  0
 18 19  2  0
 19 20  1  0
 20 21  2  0
 12 22  1  0
 22 23  1  0
 23 24  2  0
 24  2  1  0
 23  9  1  0
 21 16  1  0
M  END
>  <Binding energies>  (50) 
[-6.56]

>  <Ligand effiencies>  (50) 
[-0.24296296296296294]

>  <Interactions>  (50) 
["V-A:ALA:541:CB:4892, V-A:PRO:540:CB:4885, V-B:LEU:475:CD1:9229, V-A:TYR:539:CD1:4873, V-A:TYR:539:C:4867, V-A:PRO:540:CA:4883, H-A:ALA:541:N:4891, V-B:GLY:454:CA:9020, V-A:TYR:539:CE1:4875, V-A:GLU:543:CD:4908, V-B:ARG:545:CZ:9898, V-A:PRO:540:N:4884, V-B:ILE:369:CD1:8210, V-A:ILE:538:CB:4862, V-A:ILE:538:CG2:4863, H-A:TYR:539:N:4870, V-A:LEU:363:CD1:3188, V-A:PRO:540:CD:4887, V-B:ILE:369:CG2:8208, V-A:TYR:539:CA:4869, H-A:TYR:539:O:4868, V-B:ILE:369:CB:8207, V-B:ILE:369:CG1:8209, V-B:SER:385:C:8376"]

$$$$
4bh_Grossjean_2025
     RDKit          3D

 31 33  0  0  0  0  0  0  0  0999 V2000
  129.7520  130.7450   53.1190 C   0  0  0  0  0  0  0  0  0  0  0  0
  128.6410  131.4080   53.7110 O   0  0  0  0  0  0  0  0  0  0  0  0
  128.3440  131.1790   55.0420 C   0  0  0  0  0  0  0  0  0  0  0  0
  127.2760  130.3800   55.4810 C   0  0  0  0  0  0  0  0  0  0  0  0
  127.0320  130.1940   56.8420 C   0  0  0  0  0  0  0  0  0  0  0  0
  125.8970  129.2860   57.2980 C   0  0  0  0  0  0  0  0  0  0  0  0
  125.7380  129.2360   58.7520 N   0  0  0  0  0  0  0  0  0  0  0  0
  125.1180  130.1700   59.5040 C   0  0  0  0  0  0  0  0  0  0  0  0
  124.6500  131.2030   59.0230 O   0  0  0  0  0  0  0  0  0  0  0  0
  125.0720  129.9090   60.9430 C   0  0  0  0  0  0  0  0  0  0  0  0
  123.6650  130.3970   61.8820 S   0  0  0  0  0  0  0  0  0  0  0  0
  124.3950  129.8120   63.3590 C   0  0  0  0  0  0  0  0  0  0  0  0
  123.7620  129.8990   64.5290 N   0  0  0  0  0  0  0  0  0  0  0  0
  124.4270  129.4100   65.6010 C   0  0  0  0  0  0  0  0  0  0  0  0
  123.6900  129.5210   66.9240 C   0  0  0  0  0  0  0  0  0  0  0  0
  125.6950  128.8390   65.5330 C   0  0  0  0  0  0  0  0  0  0  0  0
  126.3670  128.7460   64.3030 C   0  0  0  0  0  0  0  0  0  0  0  0
  127.7600  128.1070   64.2770 C   0  0  0  0  0  0  0  0  0  0  0  0
  127.7940  126.9540   63.6040 F   0  0  0  0  0  0  0  0  0  0  0  0
  128.6240  128.9350   63.6920 F   0  0  0  0  0  0  0  0  0  0  0  0
  128.1640  127.8560   65.5220 F   0  0  0  0  0  0  0  0  0  0  0  0
  125.6950  129.2550   63.1530 C   0  0  0  0  0  0  0  0  0  0  0  0
  126.0600  129.3380   61.7600 C   0  0  0  0  0  0  0  0  0  0  0  0
  127.2640  128.8900   61.2790 N   0  0  0  0  0  0  0  0  0  0  0  0
  127.8800  130.7880   57.7790 C   0  0  0  0  0  0  0  0  0  0  0  0
  128.9510  131.5980   57.3700 C   0  0  0  0  0  0  0  0  0  0  0  0
  129.8200  132.2270   58.2430 O   0  0  0  0  0  0  0  0  0  0  0  0
  129.7930  131.8820   59.6240 C   0  0  0  0  0  0  0  0  0  0  0  0
  129.1680  131.7900   55.9980 C   0  0  0  0  0  0  0  0  0  0  0  0
  130.2240  132.5670   55.5830 O   0  0  0  0  0  0  0  0  0  0  0  0
  131.4980  131.9840   55.8220 C   0  0  0  0  0  0  0  0  0  0  0  0
  1  2  1  0
  2  3  1  0
  3  4  2  0
  4  5  1  0
  5  6  1  0
  6  7  1  0
  7  8  1  0
  8  9  2  0
  8 10  1  0
 10 11  1  0
 11 12  1  0
 12 13  2  0
 13 14  1  0
 14 15  1  0
 14 16  2  0
 16 17  1  0
 17 18  1  0
 18 19  1  0
 18 20  1  0
 18 21  1  0
 17 22  2  0
 22 23  1  0
 23 24  1  0
  5 25  2  0
 25 26  1  0
 26 27  1  0
 27 28  1  0
 26 29  2  0
 29 30  1  0
 30 31  1  0
 29  3  1  0
 23 10  2  0
 22 12  1  0
M  END
>  <Binding energies>  (51) 
[-6.79]

>  <Ligand effiencies>  (51) 
[-0.19970588235294118]

>  <Interactions>  (51) 
["V-B:ARG:545:CG:9894, V-B:HIS:456:CE1:9041, V-A:TYR:539:CD1:4873, V-A:TYR:539:C:4867, V-A:PRO:540:CA:4883, V-B:TYR:484:CZ:9318, V-B:GLY:454:CA:9020, V-A:GLU:543:CG:4907, V-B:ARG:545:CD:9895, V-A:TYR:539:CE1:4875, V-B:ASP:366:CG:8184, V-A:GLU:543:CD:4908, V-B:ARG:545:CZ:9898, V-A:PRO:540:N:4884, H-B:ASP:366:OD1:8185, V-B:GLU:543:CD:9880, V-B:TYR:531:CZ:9766, V-B:ILE:369:CD1:8210, H-B:GLY:454:N:9021, V-A:ILE:538:CB:4862, V-A:TYR:539:CZ:4877, V-A:MET:535:CG:4833, V-B:LYS:534:CE:9794, V-A:ILE:538:CG2:4863, H-A:TYR:539:N:4870, H-B:LYS:534:NZ:9795, V-A:LEU:363:CD1:3188, V-B:TYR:531:CE1:9764, V-B:ASP:366:CB:8183, H-B:ARG:545:NH1:9899, H-B:ARG:545:NH2:9900, V-A:MET:535:CB:4832"]

$$$$
4bi_Grossjean_2025
     RDKit          3D

 23 25  0  0  0  0  0  0  0  0999 V2000
  123.7180  129.6210   63.6580 C   0  0  0  0  0  0  0  0  0  0  0  0
  124.6770  130.6690   63.1250 C   0  0  0  0  0  0  0  0  0  0  0  0
  126.0530  130.4530   63.1320 C   0  0  0  0  0  0  0  0  0  0  0  0
  126.9290  131.4300   62.6300 C   0  0  0  0  0  0  0  0  0  0  0  0
  128.4340  131.1430   62.6520 C   0  0  0  0  0  0  0  0  0  0  0  0
  129.0420  131.4600   61.5060 F   0  0  0  0  0  0  0  0  0  0  0  0
  129.0150  131.8510   63.6200 F   0  0  0  0  0  0  0  0  0  0  0  0
  128.6430  129.8440   62.8690 F   0  0  0  0  0  0  0  0  0  0  0  0
  126.3470  132.6320   62.1280 C   0  0  0  0  0  0  0  0  0  0  0  0
  126.9100  133.8290   61.5530 C   0  0  0  0  0  0  0  0  0  0  0  0
  128.2600  134.0100   61.3930 N   0  0  0  0  0  0  0  0  0  0  0  0
  125.9550  134.7850   61.1680 C   0  0  0  0  0  0  0  0  0  0  0  0
  126.1740  136.1050   60.5700 C   0  0  0  0  0  0  0  0  0  0  0  0
  127.3070  136.4710   60.2500 O   0  0  0  0  0  0  0  0  0  0  0  0
  125.0580  136.8550   60.3890 N   0  0  0  0  0  0  0  0  0  0  0  0
  124.9740  138.1270   59.8380 C   0  0  0  0  0  0  0  0  0  0  0  0
  126.0760  138.9680   59.6930 C   0  0  0  0  0  0  0  0  0  0  0  0
  125.5780  140.1140   59.1160 C   0  0  0  0  0  0  0  0  0  0  0  0
  124.2450  139.9700   58.9250 O   0  0  0  0  0  0  0  0  0  0  0  0
  123.8740  138.7060   59.3870 N   0  0  0  0  0  0  0  0  0  0  0  0
  124.3210  134.2360   61.5320 S   0  0  0  0  0  0  0  0  0  0  0  0
  124.9220  132.7270   62.1780 C   0  0  0  0  0  0  0  0  0  0  0  0
  124.0950  131.7960   62.6540 N   0  0  0  0  0  0  0  0  0  0  0  0
  1  2  1  0
  2  3  2  0
  3  4  1  0
  4  5  1  0
  5  6  1  0
  5  7  1  0
  5  8  1  0
  4  9  2  0
  9 10  1  0
 10 11  1  0
 10 12  2  0
 12 13  1  0
 13 14  2  0
 13 15  1  0
 15 16  1  0
 16 17  1  0
 17 18  2  0
 18 19  1  0
 19 20  1  0
 12 21  1  0
 21 22  1  0
 22 23  2  0
 23  2  1  0
 22  9  1  0
 20 16  2  0
M  END
>  <Binding energies>  (52) 
[-6.0]

>  <Ligand effiencies>  (52) 
[-0.23076923076923078]

>  <Interactions>  (52) 
["V-A:ALA:541:CB:4892, V-A:PRO:540:C:4881, V-B:LEU:475:CD1:9229, V-A:TYR:539:CD1:4873, V-A:TYR:539:C:4867, V-A:PRO:540:CA:4883, V-A:GLU:543:CG:4907, V-B:ASP:366:CG:8184, V-A:GLU:543:CD:4908, V-B:ARG:545:CZ:9898, V-B:ILE:369:CD1:8210, H-B:GLY:454:N:9021, V-B:PRO:482:CG:9298, V-B:ILE:369:CG2:8208, H-B:SER:385:OG:8381, V-A:TYR:539:CB:4871, H-A:TYR:539:O:4868, V-B:LEU:373:CD1:8251, V-B:SER:385:CB:8380, V-A:ILE:343:CG2:2991, V-B:HIS:383:CE1:8365, V-B:HIS:383:CD2:8363, H-B:HIS:383:ND1:8362, V-A:VAL:344:CG1:3000, V-B:GLY:453:C:9013, V-A:ALA:541:CA:4890, V-B:HIS:383:CG:8361, V-B:GLY:453:CA:9015"]

$$$$
4bj_Grossjean_2025
     RDKit          3D

 23 25  0  0  0  0  0  0  0  0999 V2000
  124.8520  129.5890   65.4010 C   0  0  0  0  0  0  0  0  0  0  0  0
  125.3690  130.4910   64.2950 C   0  0  0  0  0  0  0  0  0  0  0  0
  126.6360  130.3040   63.7500 C   0  0  0  0  0  0  0  0  0  0  0  0
  127.1040  131.1500   62.7310 C   0  0  0  0  0  0  0  0  0  0  0  0
  128.5070  130.9060   62.1640 C   0  0  0  0  0  0  0  0  0  0  0  0
  129.0720  129.7900   62.6300 F   0  0  0  0  0  0  0  0  0  0  0  0
  128.4450  130.7990   60.8370 F   0  0  0  0  0  0  0  0  0  0  0  0
  129.3060  131.9230   62.4880 F   0  0  0  0  0  0  0  0  0  0  0  0
  126.2290  132.1880   62.2920 C   0  0  0  0  0  0  0  0  0  0  0  0
  126.3590  133.2260   61.2980 C   0  0  0  0  0  0  0  0  0  0  0  0
  127.4890  133.3860   60.5370 N   0  0  0  0  0  0  0  0  0  0  0  0
  125.2260  134.0470   61.1760 C   0  0  0  0  0  0  0  0  0  0  0  0
  125.0200  135.1900   60.2840 C   0  0  0  0  0  0  0  0  0  0  0  0
  124.5630  135.0310   59.1490 O   0  0  0  0  0  0  0  0  0  0  0  0
  125.3500  136.3990   60.8000 N   0  0  0  0  0  0  0  0  0  0  0  0
  125.2410  137.6320   60.1720 C   0  0  0  0  0  0  0  0  0  0  0  0
  124.1440  138.2720   59.8320 N   0  0  0  0  0  0  0  0  0  0  0  0
  124.4130  139.4260   59.2550 C   0  0  0  0  0  0  0  0  0  0  0  0
  125.7610  139.7440   59.1160 C   0  0  0  0  0  0  0  0  0  0  0  0
  126.7180  138.4530   59.7770 S   0  0  0  0  0  0  0  0  0  0  0  0
  123.9670  133.5710   62.3120 S   0  0  0  0  0  0  0  0  0  0  0  0
  124.9540  132.2680   62.9310 C   0  0  0  0  0  0  0  0  0  0  0  0
  124.5150  131.4640   63.8990 N   0  0  0  0  0  0  0  0  0  0  0  0
  1  2  1  0
  2  3  2  0
  3  4  1  0
  4  5  1  0
  5  6  1  0
  5  7  1  0
  5  8  1  0
  4  9  2  0
  9 10  1  0
 10 11  1  0
 10 12  2  0
 12 13  1  0
 13 14  2  0
 13 15  1  0
 15 16  1  0
 16 17  2  0
 17 18  1  0
 18 19  2  0
 19 20  1  0
 12 21  1  0
 21 22  1  0
 22 23  2  0
 23  2  1  0
 22  9  1  0
 20 16  1  0
M  END
>  <Binding energies>  (53) 
[-6.34]

>  <Ligand effiencies>  (53) 
[-0.24384615384615385]

>  <Interactions>  (53) 
["V-A:ALA:541:CB:4892, V-B:LEU:475:CD1:9229, V-A:TYR:539:CD1:4873, V-A:TYR:539:C:4867, V-B:GLY:454:CA:9020, V-A:GLU:543:CG:4907, V-A:TYR:539:CE1:4875, V-A:GLU:543:CD:4908, V-B:ARG:545:CZ:9898, V-B:ILE:369:CD1:8210, H-B:GLY:454:N:9021, V-B:PRO:482:CG:9298, V-B:ILE:369:CG2:8208, H-B:SER:385:OG:8381, V-A:TYR:539:CB:4871, H-A:TYR:539:O:4868, V-B:LEU:373:CD1:8251, V-B:SER:385:CB:8380, V-A:ILE:343:CG2:2991, V-B:HIS:383:CE1:8365, V-B:HIS:383:CD2:8363, V-A:VAL:344:CG1:3000, V-B:LEU:373:CD2:8252, V-A:ALA:541:CA:4890, V-B:HIS:383:CG:8361"]

$$$$
4bk_Grossjean_2025
     RDKit          3D

 28 29  0  0  0  0  0  0  0  0999 V2000
  132.4870  125.8750   55.9500 C   0  0  0  0  0  0  0  0  0  0  0  0
  131.4810  126.2000   55.0030 O   0  0  0  0  0  0  0  0  0  0  0  0
  130.1600  126.0630   55.5100 C   0  0  0  0  0  0  0  0  0  0  0  0
  129.7790  127.3250   56.2950 C   0  0  0  0  0  0  0  0  0  0  0  0
  128.9510  128.1500   55.4870 O   0  0  0  0  0  0  0  0  0  0  0  0
  129.0450  127.8730   54.0970 C   0  0  0  0  0  0  0  0  0  0  0  0
  127.8690  128.5330   53.3640 C   0  0  0  0  0  0  0  0  0  0  0  0
  128.0500  129.9420   53.3600 O   0  0  0  0  0  0  0  0  0  0  0  0
  129.2830  130.3620   52.7870 C   0  0  0  0  0  0  0  0  0  0  0  0
  130.1620  130.9970   53.8780 C   0  0  0  0  0  0  0  0  0  0  0  0
  129.5500  130.9860   55.2070 N   0  0  0  0  0  0  0  0  0  0  0  0
  129.8890  131.7990   56.2290 C   0  0  0  0  0  0  0  0  0  0  0  0
  130.7590  132.6650   56.1220 O   0  0  0  0  0  0  0  0  0  0  0  0
  129.1540  131.6030   57.4790 C   0  0  0  0  0  0  0  0  0  0  0  0
  129.8000  132.2320   58.9920 S   0  0  0  0  0  0  0  0  0  0  0  0
  128.4170  131.6410   59.8800 C   0  0  0  0  0  0  0  0  0  0  0  0
  128.3070  131.8190   61.1960 N   0  0  0  0  0  0  0  0  0  0  0  0
  127.1890  131.3180   61.7730 C   0  0  0  0  0  0  0  0  0  0  0  0
  127.0840  131.5350   63.2720 C   0  0  0  0  0  0  0  0  0  0  0  0
  126.1890  130.6500   61.0710 C   0  0  0  0  0  0  0  0  0  0  0  0
  126.3000  130.4570   59.6850 C   0  0  0  0  0  0  0  0  0  0  0  0
  125.1760  129.7120   58.9580 C   0  0  0  0  0  0  0  0  0  0  0  0
  125.5090  128.4640   58.6210 F   0  0  0  0  0  0  0  0  0  0  0  0
  124.1000  129.6410   59.7420 F   0  0  0  0  0  0  0  0  0  0  0  0
  124.8600  130.3560   57.8350 F   0  0  0  0  0  0  0  0  0  0  0  0
  127.4660  130.9740   59.0460 C   0  0  0  0  0  0  0  0  0  0  0  0
  127.9150  130.9740   57.6760 C   0  0  0  0  0  0  0  0  0  0  0  0
  127.1940  130.4040   56.6580 N   0  0  0  0  0  0  0  0  0  0  0  0
  1  2  1  0
  2  3  1  0
  3  4  1  0
  4  5  1  0
  5  6  1  0
  6  7  1  0
  7  8  1  0
  8  9  1  0
  9 10  1  0
 10 11  1  0
 11 12  1  0
 12 13  2  0
 12 14  1  0
 14 15  1  0
 15 16  1  0
 16 17  2  0
 17 18  1  0
 18 19  1  0
 18 20  2  0
 20 21  1  0
 21 22  1  0
 22 23  1  0
 22 24  1  0
 22 25  1  0
 21 26  2  0
 26 27  1  0
 27 28  1  0
 27 14  2  0
 26 16  1  0
M  END
>  <Binding energies>  (54) 
[-5.12]

>  <Ligand effiencies>  (54) 
[-0.16516129032258065]

>  <Interactions>  (54) 
["V-A:ALA:541:CB:4892, V-A:TYR:539:CD1:4873, V-A:TYR:539:C:4867, V-A:PRO:540:CA:4883, V-A:TYR:539:CE1:4875, H-A:TYR:531:OH:4795, V-B:ASP:366:CG:8184, V-A:PRO:540:N:4884, V-B:TYR:531:CZ:9766, V-A:MET:535:CE:4835, V-A:ILE:538:CB:4862, V-A:TYR:539:CZ:4877, V-A:TYR:531:CZ:4794, V-A:MET:535:CG:4833, V-B:LYS:534:CE:9794, V-A:ILE:538:CG2:4863, H-A:TYR:539:N:4870, H-B:LYS:534:NZ:9795, H-A:TYR:539:OH:4878, H-B:TYR:531:OH:9767, V-B:TYR:531:CE1:9764, V-A:ASP:366:CB:3211, V-B:MET:535:CE:9807, V-B:ASP:366:CB:8183, V-B:LYS:534:CD:9793, V-B:ASP:366:CA:8181, V-A:ASP:366:C:3207, H-B:TYR:539:OH:9850, V-A:TYR:531:CE1:4792, V-A:MET:535:CB:4832, V-A:ASN:370:CB:3244, V-B:ASP:366:C:8179"]

$$$$
4cd_Grossjean_2025
     RDKit          3D

 29 32  0  0  0  0  0  0  0  0999 V2000
  128.8540  129.3070   63.1880 N   0  0  0  0  0  0  0  0  0  0  0  0
  127.8970  130.2480   63.4710 C   0  0  0  0  0  0  0  0  0  0  0  0
  127.0720  130.1890   64.6050 C   0  0  0  0  0  0  0  0  0  0  0  0
  127.0370  129.1690   65.6580 C   0  0  0  0  0  0  0  0  0  0  0  0
  126.0070  128.5310   65.8790 O   0  0  0  0  0  0  0  0  0  0  0  0
  128.1980  128.9920   66.3340 N   0  0  0  0  0  0  0  0  0  0  0  0
  128.4830  128.1440   67.4200 C   0  0  0  0  0  0  0  0  0  0  0  0
  128.9970  128.7630   68.5620 C   0  0  0  0  0  0  0  0  0  0  0  0
  129.2990  128.0100   69.6940 C   0  0  0  0  0  0  0  0  0  0  0  0
  129.0790  126.6360   69.6860 C   0  0  0  0  0  0  0  0  0  0  0  0
  128.5540  126.0070   68.5600 C   0  0  0  0  0  0  0  0  0  0  0  0
  128.2520  126.7580   67.4260 C   0  0  0  0  0  0  0  0  0  0  0  0
  125.9670  131.5620   64.6600 S   0  0  0  0  0  0  0  0  0  0  0  0
  126.6110  132.1960   63.1650 C   0  0  0  0  0  0  0  0  0  0  0  0
  126.1410  133.3210   62.6280 N   0  0  0  0  0  0  0  0  0  0  0  0
  126.6950  133.7280   61.4560 C   0  0  0  0  0  0  0  0  0  0  0  0
  126.1440  134.9970   60.8750 C   0  0  0  0  0  0  0  0  0  0  0  0
  124.8180  135.0610   60.4150 C   0  0  0  0  0  0  0  0  0  0  0  0
  124.3000  136.2340   59.8750 C   0  0  0  0  0  0  0  0  0  0  0  0
  125.1030  137.3660   59.7870 C   0  0  0  0  0  0  0  0  0  0  0  0
  126.4180  137.3320   60.2370 C   0  0  0  0  0  0  0  0  0  0  0  0
  126.9320  136.1570   60.7780 C   0  0  0  0  0  0  0  0  0  0  0  0
  127.7290  133.0170   60.8400 C   0  0  0  0  0  0  0  0  0  0  0  0
  128.2340  131.8320   61.4000 C   0  0  0  0  0  0  0  0  0  0  0  0
  129.3660  131.1000   60.6700 C   0  0  0  0  0  0  0  0  0  0  0  0
  129.0470  129.8490   60.3290 F   0  0  0  0  0  0  0  0  0  0  0  0
  129.6770  131.7520   59.5500 F   0  0  0  0  0  0  0  0  0  0  0  0
  130.4420  131.0360   61.4550 F   0  0  0  0  0  0  0  0  0  0  0  0
  127.6530  131.3880   62.6220 C   0  0  0  0  0  0  0  0  0  0  0  0
  1  2  1  0
  2  3  2  0
  3  4  1  0
  4  5  2  0
  4  6  1  0
  6  7  1  0
  7  8  2  0
  8  9  1  0
  9 10  2  0
 10 11  1  0
 11 12  2  0
  3 13  1  0
 13 14  1  0
 14 15  2  0
 15 16  1  0
 16 17  1  0
 17 18  2  0
 18 19  1  0
 19 20  2  0
 20 21  1  0
 21 22  2  0
 16 23  2  0
 23 24  1  0
 24 25  1  0
 25 26  1  0
 25 27  1  0
 25 28  1  0
 24 29  2  0
 29  2  1  0
 12  7  1  0
 29 14  1  0
 22 17  1  0
M  END
>  <Binding energies>  (55) 
[-7.72]

>  <Ligand effiencies>  (55) 
[-0.24125]

>  <Interactions>  (55) 
["V-A:ALA:541:CB:4892, V-B:HIS:456:CE1:9041, V-A:GLU:543:C:4902, V-A:HIS:456:CE1:4069, V-B:LEU:475:CD1:9229, V-A:TYR:539:CD1:4873, V-A:TYR:539:C:4867, V-A:PRO:540:CA:4883, V-B:GLY:454:CA:9020, V-B:GLU:543:CB:9878, V-A:GLU:543:CG:4907, V-B:GLU:543:C:9874, V-A:GLU:543:CB:4906, V-A:GLU:543:CD:4908, H-A:GLU:543:OE2:4910, V-A:PRO:540:N:4884, V-B:GLU:543:CD:9880, V-B:PRO:482:CB:9297, V-B:PRO:482:CG:9298, V-B:ILE:369:CG2:8208, H-B:ARG:545:NH2:9900, V-A:TYR:539:CB:4871, H-A:GLU:543:OE1:4909, H-B:ARG:545:NE:9896, V-B:LEU:373:CD1:8251, V-B:SER:385:CB:8380, V-B:SER:385:CA:8378"]

$$$$
4cg_Grossjean_2025
     RDKit          3D

 30 33  0  0  0  0  0  0  0  0999 V2000
  128.0880  124.8330   56.5010 N   0  0  0  0  0  0  0  0  0  0  0  0
  129.4340  124.8730   56.7610 C   0  0  0  0  0  0  0  0  0  0  0  0
  130.3400  125.6280   56.0020 C   0  0  0  0  0  0  0  0  0  0  0  0
  130.0650  126.5190   54.8750 C   0  0  0  0  0  0  0  0  0  0  0  0
  130.8690  126.6490   53.9490 O   0  0  0  0  0  0  0  0  0  0  0  0
  128.9080  127.2110   54.9350 N   0  0  0  0  0  0  0  0  0  0  0  0
  128.4200  128.1370   53.9150 C   0  0  0  0  0  0  0  0  0  0  0  0
  128.6380  129.6030   54.2730 C   0  0  0  0  0  0  0  0  0  0  0  0
  128.4090  130.0390   55.5810 C   0  0  0  0  0  0  0  0  0  0  0  0
  128.6380  131.3710   55.9200 C   0  0  0  0  0  0  0  0  0  0  0  0
  129.1030  132.2580   54.9520 C   0  0  0  0  0  0  0  0  0  0  0  0
  129.3490  131.8260   53.6510 C   0  0  0  0  0  0  0  0  0  0  0  0
  129.1220  130.4940   53.3120 C   0  0  0  0  0  0  0  0  0  0  0  0
  131.9820  125.4710   56.6190 S   0  0  0  0  0  0  0  0  0  0  0  0
  131.4490  124.3770   57.8740 C   0  0  0  0  0  0  0  0  0  0  0  0
  132.3040  123.8560   58.7490 N   0  0  0  0  0  0  0  0  0  0  0  0
  131.7980  123.0190   59.6930 C   0  0  0  0  0  0  0  0  0  0  0  0
  132.7900  122.4460   60.6650 C   0  0  0  0  0  0  0  0  0  0  0  0
  133.0380  121.0640   60.7110 C   0  0  0  0  0  0  0  0  0  0  0  0
  133.9550  120.5280   61.6100 C   0  0  0  0  0  0  0  0  0  0  0  0
  134.6390  121.3690   62.4830 C   0  0  0  0  0  0  0  0  0  0  0  0
  134.4100  122.7400   62.4610 C   0  0  0  0  0  0  0  0  0  0  0  0
  133.4930  123.2720   61.5600 C   0  0  0  0  0  0  0  0  0  0  0  0
  130.4370  122.6970   59.7390 C   0  0  0  0  0  0  0  0  0  0  0  0
  129.5260  123.2400   58.8200 C   0  0  0  0  0  0  0  0  0  0  0  0
  128.0490  122.8440   58.9280 C   0  0  0  0  0  0  0  0  0  0  0  0
  127.2270  123.8940   58.9750 F   0  0  0  0  0  0  0  0  0  0  0  0
  127.7010  122.1110   57.8700 F   0  0  0  0  0  0  0  0  0  0  0  0
  127.8520  122.1350   60.0380 F   0  0  0  0  0  0  0  0  0  0  0  0
  130.0450  124.1310   57.8360 C   0  0  0  0  0  0  0  0  0  0  0  0
  1  2  1  0
  2  3  2  0
  3  4  1  0
  4  5  2  0
  4  6  1  0
  6  7  1  0
  7  8  1  0
  8  9  2  0
  9 10  1  0
 10 11  2  0
 11 12  1  0
 12 13  2  0
  3 14  1  0
 14 15  1  0
 15 16  2  0
 16 17  1  0
 17 18  1  0
 18 19  2  0
 19 20  1  0
 20 21  2  0
 21 22  1  0
 22 23  2  0
 17 24  2  0
 24 25  1  0
 25 26  1  0
 26 27  1  0
 26 28  1  0
 26 29  1  0
 25 30  2  0
 30  2  1  0
 13  8  1  0
 30 15  1  0
 23 18  1  0
M  END
>  <Binding energies>  (56) 
[-8.01]

>  <Ligand effiencies>  (56) 
[-0.2427272727272727]

>  <Interactions>  (56) 
["V-A:TYR:539:CD1:4873, V-A:TYR:539:CE1:4875, H-A:TYR:531:OH:4795, V-A:GLY:453:C:4041, V-B:TYR:539:C:9839, V-B:PRO:540:CB:9857, V-A:GLY:454:CA:4048, V-A:LEU:475:CD1:4257, V-B:PRO:540:C:9853, V-B:PRO:540:CA:9855, V-B:PRO:540:N:9856, V-B:TYR:531:CZ:9766, V-A:TYR:539:CE2:4876, V-A:ILE:538:C:4858, V-A:ILE:538:CB:4862, V-A:TYR:539:CZ:4877, V-A:TYR:539:CD2:4874, V-A:ILE:538:CA:4860, V-A:MET:535:CG:4833, V-B:LYS:534:CE:9794, V-A:ILE:538:CG2:4863, H-B:MET:535:SD:9806, H-B:TYR:531:OH:9767, V-B:TYR:531:CE1:9764, V-A:ASP:366:CB:3211, V-B:MET:535:CE:9807, V-B:TYR:539:CE2:9848, V-B:TYR:539:CZ:9849, V-A:ILE:369:CD1:3238, V-B:TYR:539:CD2:9846, V-A:ILE:369:CG2:3236, H-B:TYR:539:OH:9850, V-A:MET:535:CB:4832, V-A:SER:385:C:3404"]

$$$$
4ch_Grossjean_2025
     RDKit          3D

 36 39  0  0  0  0  0  0  0  0999 V2000
  127.8670  128.5700   53.3800 C   0  0  0  0  0  0  0  0  0  0  0  0
  127.2600  129.6910   54.0140 O   0  0  0  0  0  0  0  0  0  0  0  0
  127.7100  130.0920   55.2590 C   0  0  0  0  0  0  0  0  0  0  0  0
  127.2530  129.5480   56.4710 C   0  0  0  0  0  0  0  0  0  0  0  0
  127.7540  130.0000   57.6920 C   0  0  0  0  0  0  0  0  0  0  0  0
  127.2260  129.4170   58.9980 C   0  0  0  0  0  0  0  0  0  0  0  0
  127.9540  128.2370   59.4670 N   0  0  0  0  0  0  0  0  0  0  0  0
  129.1720  128.2470   60.0470 C   0  0  0  0  0  0  0  0  0  0  0  0
  129.7930  129.2890   60.2680 O   0  0  0  0  0  0  0  0  0  0  0  0
  129.7070  126.9430   60.4390 C   0  0  0  0  0  0  0  0  0  0  0  0
  129.1770  125.4860   59.6040 S   0  0  0  0  0  0  0  0  0  0  0  0
  130.2270  124.4900   60.5840 C   0  0  0  0  0  0  0  0  0  0  0  0
  130.2810  123.1710   60.4250 N   0  0  0  0  0  0  0  0  0  0  0  0
  131.1310  122.4800   61.2290 C   0  0  0  0  0  0  0  0  0  0  0  0
  131.1630  120.9920   61.0280 C   0  0  0  0  0  0  0  0  0  0  0  0
  130.1420  120.1760   61.5400 C   0  0  0  0  0  0  0  0  0  0  0  0
  130.1660  118.7950   61.3580 C   0  0  0  0  0  0  0  0  0  0  0  0
  131.2160  118.2100   60.6600 C   0  0  0  0  0  0  0  0  0  0  0  0
  132.2430  118.9940   60.1460 C   0  0  0  0  0  0  0  0  0  0  0  0
  132.2160  120.3740   60.3320 C   0  0  0  0  0  0  0  0  0  0  0  0
  131.9090  123.1180   62.2000 C   0  0  0  0  0  0  0  0  0  0  0  0
  131.8600  124.5100   62.3780 C   0  0  0  0  0  0  0  0  0  0  0  0
  132.7400  125.1440   63.4610 C   0  0  0  0  0  0  0  0  0  0  0  0
  132.1810  126.2140   64.0310 F   0  0  0  0  0  0  0  0  0  0  0  0
  132.9770  124.2570   64.4270 F   0  0  0  0  0  0  0  0  0  0  0  0
  133.8980  125.5350   62.9300 F   0  0  0  0  0  0  0  0  0  0  0  0
  130.9810  125.2440   61.5310 C   0  0  0  0  0  0  0  0  0  0  0  0
  130.6700  126.6480   61.4160 C   0  0  0  0  0  0  0  0  0  0  0  0
  131.2590  127.6070   62.2020 N   0  0  0  0  0  0  0  0  0  0  0  0
  128.7090  131.0170   57.7110 C   0  0  0  0  0  0  0  0  0  0  0  0
  129.1830  131.5810   56.5150 C   0  0  0  0  0  0  0  0  0  0  0  0
  130.1270  132.5890   56.4580 O   0  0  0  0  0  0  0  0  0  0  0  0
  131.5110  132.2530   56.4700 C   0  0  0  0  0  0  0  0  0  0  0  0
  128.6800  131.1040   55.2950 C   0  0  0  0  0  0  0  0  0  0  0  0
  129.1230  131.6570   54.1190 O   0  0  0  0  0  0  0  0  0  0  0  0
  130.1520  130.9120   53.4810 C   0  0  0  0  0  0  0  0  0  0  0  0
  1  2  1  0
  2  3  1  0
  3  4  2  0
  4  5  1  0
  5  6  1  0
  6  7  1  0
  7  8  1  0
  8  9  2  0
  8 10  1  0
 10 11  1  0
 11 12  1  0
 12 13  2  0
 13 14  1  0
 14 15  1  0
 15 16  2  0
 16 17  1  0
 17 18  2  0
 18 19  1  0
 19 20  2  0
 14 21  2  0
 21 22  1  0
 22 23  1  0
 23 24  1  0
 23 25  1  0
 23 26  1  0
 22 27  2  0
 27 28  1  0
 28 29  1  0
  5 30  2  0
 30 31  1  0
 31 32  1  0
 32 33  1  0
 31 34  2  0
 34 35  1  0
 35 36  1  0
 34  3  1  0
 28 10  2  0
 27 12  1  0
 20 15  1  0
M  END
>  <Binding energies>  (57) 
[-7.94]

>  <Ligand effiencies>  (57) 
[-0.2035897435897436]

>  <Interactions>  (57) 
["V-A:PRO:540:CB:4885, V-A:TYR:539:CD1:4873, V-A:PRO:540:CA:4883, V-A:TYR:539:CE1:4875, V-A:GLU:543:CD:4908, H-A:GLU:543:OE2:4910, V-A:PRO:540:N:4884, V-A:ASP:366:CG:3212, V-A:GLY:453:CA:4043, V-A:GLY:454:CA:4048, V-A:ARG:545:CZ:4926, V-B:ALA:541:CB:9864, V-B:TYR:531:CZ:9766, V-A:ILE:538:CB:4862, V-A:TYR:539:CZ:4877, V-A:TYR:531:CZ:4794, V-A:MET:535:CG:4833, V-B:LYS:534:CE:9794, V-A:ILE:538:CG2:4863, H-A:TYR:539:N:4870, H-B:LYS:534:NZ:9795, H-A:TYR:539:OH:4878, H-B:TYR:531:OH:9767, V-A:LEU:363:CD1:3188, V-B:TYR:531:CE1:9764, H-A:ASP:366:OD2:3214, V-A:PRO:540:CD:4887, V-B:TYR:539:CE2:9848, V-B:LYS:534:CD:9793, V-B:TYR:539:CD2:9846, H-A:GLU:543:OE1:4909, V-A:ILE:369:CG2:3236, V-A:PRO:482:CB:4325, V-A:PRO:482:CG:4326, V-B:ALA:541:CA:9862, V-A:MET:535:CB:4832, H-A:ASP:366:OD1:3213"]

$$$$
4cj_Grossjean_2025
     RDKit          3D

 28 31  0  0  0  0  0  0  0  0999 V2000
  128.7700  128.9290   63.2180 N   0  0  0  0  0  0  0  0  0  0  0  0
  127.8240  129.8810   63.5030 C   0  0  0  0  0  0  0  0  0  0  0  0
  126.9980  129.8290   64.6380 C   0  0  0  0  0  0  0  0  0  0  0  0
  126.9690  128.8210   65.7010 C   0  0  0  0  0  0  0  0  0  0  0  0
  125.8980  128.4510   66.1900 O   0  0  0  0  0  0  0  0  0  0  0  0
  128.1800  128.3540   66.0940 N   0  0  0  0  0  0  0  0  0  0  0  0
  128.4280  127.4030   67.0750 C   0  0  0  0  0  0  0  0  0  0  0  0
  127.8250  127.2660   68.2370 N   0  0  0  0  0  0  0  0  0  0  0  0
  128.3150  126.2490   68.9190 C   0  0  0  0  0  0  0  0  0  0  0  0
  129.3400  125.5340   68.3080 C   0  0  0  0  0  0  0  0  0  0  0  0
  129.6740  126.2400   66.7540 S   0  0  0  0  0  0  0  0  0  0  0  0
  125.9110  131.2140   64.6980 S   0  0  0  0  0  0  0  0  0  0  0  0
  126.5670  131.8500   63.2080 C   0  0  0  0  0  0  0  0  0  0  0  0
  126.1200  132.9870   62.6820 N   0  0  0  0  0  0  0  0  0  0  0  0
  126.6950  133.4070   61.5260 C   0  0  0  0  0  0  0  0  0  0  0  0
  126.1770  134.7010   60.9670 C   0  0  0  0  0  0  0  0  0  0  0  0
  126.9590  135.8660   61.0070 C   0  0  0  0  0  0  0  0  0  0  0  0
  126.4820  137.0700   60.4950 C   0  0  0  0  0  0  0  0  0  0  0  0
  125.2090  137.1260   59.9360 C   0  0  0  0  0  0  0  0  0  0  0  0
  124.4130  135.9880   59.8860 C   0  0  0  0  0  0  0  0  0  0  0  0
  124.8950  134.7860   60.3980 C   0  0  0  0  0  0  0  0  0  0  0  0
  127.6990  132.6690   60.8910 C   0  0  0  0  0  0  0  0  0  0  0  0
  128.1770  131.4660   61.4350 C   0  0  0  0  0  0  0  0  0  0  0  0
  129.2820  130.7090   60.6880 C   0  0  0  0  0  0  0  0  0  0  0  0
  130.4080  130.5940   61.3940 F   0  0  0  0  0  0  0  0  0  0  0  0
  128.8650  129.4770   60.3970 F   0  0  0  0  0  0  0  0  0  0  0  0
  129.5830  131.3500   59.5580 F   0  0  0  0  0  0  0  0  0  0  0  0
  127.5940  131.0270   62.6580 C   0  0  0  0  0  0  0  0  0  0  0  0
  1  2  1  0
  2  3  2  0
  3  4  1  0
  4  5  2  0
  4  6  1  0
  6  7  1  0
  7  8  2  0
  8  9  1  0
  9 10  2  0
 10 11  1  0
  3 12  1  0
 12 13  1  0
 13 14  2  0
 14 15  1  0
 15 16  1  0
 16 17  2  0
 17 18  1  0
 18 19  2  0
 19 20  1  0
 20 21  2  0
 15 22  2  0
 22 23  1  0
 23 24  1  0
 24 25  1  0
 24 26  1  0
 24 27  1  0
 23 28  2  0
 28  2  1  0
 11  7  1  0
 28 13  1  0
 21 16  1  0
M  END
>  <Binding energies>  (58) 
[-7.16]

>  <Ligand effiencies>  (58) 
[-0.2309677419354839]

>  <Interactions>  (58) 
["V-A:ALA:541:CB:4892, V-B:HIS:456:CE1:9041, V-A:HIS:456:CE1:4069, V-B:LEU:475:CD1:9229, V-A:TYR:539:CD1:4873, V-A:PRO:540:CA:4883, V-B:GLU:543:CB:9878, V-A:GLU:543:CG:4907, V-B:GLU:543:C:9874, V-A:TYR:539:CE1:4875, V-A:GLU:543:CD:4908, H-A:GLU:543:OE2:4910, H-B:TYR:484:OH:9319, V-B:PRO:482:CB:9297, V-B:PRO:482:CG:9298, V-B:ILE:369:CG2:8208, V-A:TYR:539:CB:4871, H-A:GLU:543:OE1:4909, H-B:ARG:545:NE:9896, V-A:TYR:484:CE2:4345, V-B:LEU:373:CD1:8251, V-B:SER:385:CB:8380"]

$$$$
4ck_Grossjean_2025
     RDKit          3D

 33 35  0  0  0  0  0  0  0  0999 V2000
  128.9170  131.7660   55.5700 C   0  0  0  0  0  0  0  0  0  0  0  0
  130.0080  132.6170   55.8870 O   0  0  0  0  0  0  0  0  0  0  0  0
  130.8210  132.1230   56.9430 C   0  0  0  0  0  0  0  0  0  0  0  0
  130.3630  130.7040   57.3060 C   0  0  0  0  0  0  0  0  0  0  0  0
  131.3270  130.1110   58.1640 O   0  0  0  0  0  0  0  0  0  0  0  0
  132.6200  130.0080   57.5810 C   0  0  0  0  0  0  0  0  0  0  0  0
  133.5770  130.9600   58.3100 C   0  0  0  0  0  0  0  0  0  0  0  0
  133.8230  130.4500   59.6130 O   0  0  0  0  0  0  0  0  0  0  0  0
  133.9420  131.4570   60.6110 C   0  0  0  0  0  0  0  0  0  0  0  0
  132.6430  131.5280   61.4280 C   0  0  0  0  0  0  0  0  0  0  0  0
  131.5870  130.6910   60.8570 N   0  0  0  0  0  0  0  0  0  0  0  0
  130.2610  130.9170   60.9540 C   0  0  0  0  0  0  0  0  0  0  0  0
  129.7940  131.9010   61.5300 O   0  0  0  0  0  0  0  0  0  0  0  0
  129.3950  129.9230   60.3190 C   0  0  0  0  0  0  0  0  0  0  0  0
  129.9460  128.2600   60.1350 S   0  0  0  0  0  0  0  0  0  0  0  0
  128.4250  127.7910   59.4140 C   0  0  0  0  0  0  0  0  0  0  0  0
  128.1990  126.5400   59.0210 N   0  0  0  0  0  0  0  0  0  0  0  0
  126.9870  126.2700   58.4700 C   0  0  0  0  0  0  0  0  0  0  0  0
  126.7570  124.8450   58.0540 C   0  0  0  0  0  0  0  0  0  0  0  0
  127.8370  124.0000   57.7540 C   0  0  0  0  0  0  0  0  0  0  0  0
  127.6300  122.6780   57.3650 C   0  0  0  0  0  0  0  0  0  0  0  0
  126.3350  122.1820   57.2710 C   0  0  0  0  0  0  0  0  0  0  0  0
  125.2470  122.9960   57.5670 C   0  0  0  0  0  0  0  0  0  0  0  0
  125.4580  124.3160   57.9560 C   0  0  0  0  0  0  0  0  0  0  0  0
  126.0050  127.2550   58.3250 C   0  0  0  0  0  0  0  0  0  0  0  0
  126.2330  128.5780   58.7350 C   0  0  0  0  0  0  0  0  0  0  0  0
  125.1140  129.6090   58.5430 C   0  0  0  0  0  0  0  0  0  0  0  0
  124.5140  129.9500   59.6840 F   0  0  0  0  0  0  0  0  0  0  0  0
  125.6140  130.7220   58.0060 F   0  0  0  0  0  0  0  0  0  0  0  0
  124.1790  129.1120   57.7330 F   0  0  0  0  0  0  0  0  0  0  0  0
  127.5020  128.8730   59.3120 C   0  0  0  0  0  0  0  0  0  0  0  0
  128.0830  130.0810   59.8460 C   0  0  0  0  0  0  0  0  0  0  0  0
  127.4110  131.2760   59.8820 N   0  0  0  0  0  0  0  0  0  0  0  0
  1  2  1  0
  2  3  1  0
  3  4  1  0
  4  5  1  0
  5  6  1  0
  6  7  1  0
  7  8  1  0
  8  9  1  0
  9 10  1  0
 10 11  1  0
 11 12  1  0
 12 13  2  0
 12 14  1  0
 14 15  1  0
 15 16  1  0
 16 17  2  0
 17 18  1  0
 18 19  1  0
 19 20  2  0
 20 21  1  0
 21 22  2  0
 22 23  1  0
 23 24  2  0
 18 25  2  0
 25 26  1  0
 26 27  1  0
 27 28  1  0
 27 29  1  0
 27 30  1  0
 26 31  2  0
 31 32  1  0
 32 33  1  0
 32 14  2  0
 31 16  1  0
 24 19  1  0
M  END
>  <Binding energies>  (59) 
[-5.86]

>  <Ligand effiencies>  (59) 
[-0.1627777777777778]

>  <Interactions>  (59) 
["V-A:PRO:540:C:4881, V-A:PRO:540:CB:4885, V-A:TYR:539:CD1:4873, V-A:TYR:539:C:4867, V-A:PRO:540:CA:4883, H-A:ALA:541:N:4891, V-A:TYR:539:CE1:4875, V-B:ASP:366:CG:8184, H-A:GLU:543:OE2:4910, V-A:PRO:540:N:4884, V-B:TYR:539:C:9839, V-B:PRO:540:CB:9857, V-B:PRO:540:CA:9855, V-B:PRO:540:N:9856, V-B:TYR:531:CZ:9766, V-A:TYR:539:CZ:4877, H-A:TYR:539:N:4870, V-A:LEU:363:CD1:3188, H-A:ASP:366:OD2:3214, V-A:PRO:540:CD:4887, V-A:LEU:363:CB:3186, V-A:LEU:363:CA:3184, V-A:ASP:366:CB:3211, V-B:MET:535:CE:9807, V-B:LEU:363:CD1:8160, V-B:ASP:366:CB:8183, V-B:PRO:540:CD:9859, V-B:TYR:531:CE2:9765, V-B:ASP:366:CA:8181, H-A:TYR:539:O:4868, V-A:ASN:362:C:3171, V-A:ASN:362:CB:3175, V-B:ASP:366:C:8179, V-A:ASN:362:CA:3173, H-A:LEU:363:N:3185"]

$$$$
4dd_Grossjean_2025
     RDKit          3D

 26 29  0  0  0  0  0  0  0  0999 V2000
  123.4200  130.2140   62.8990 C   0  0  0  0  0  0  0  0  0  0  0  0
  124.5830  131.1870   63.0130 C   0  0  0  0  0  0  0  0  0  0  0  0
  124.5700  132.3300   62.2030 C   0  0  0  0  0  0  0  0  0  0  0  0
  125.6110  133.2650   62.2610 C   0  0  0  0  0  0  0  0  0  0  0  0
  125.6250  134.4940   61.4020 C   0  0  0  0  0  0  0  0  0  0  0  0
  124.4940  134.8650   60.6560 C   0  0  0  0  0  0  0  0  0  0  0  0
  124.5000  136.0070   59.8590 C   0  0  0  0  0  0  0  0  0  0  0  0
  125.6430  136.7970   59.7950 C   0  0  0  0  0  0  0  0  0  0  0  0
  126.7770  136.4550   60.5230 C   0  0  0  0  0  0  0  0  0  0  0  0
  126.7660  135.3130   61.3210 C   0  0  0  0  0  0  0  0  0  0  0  0
  126.6790  133.1010   63.0880 N   0  0  0  0  0  0  0  0  0  0  0  0
  126.6900  132.0170   63.8640 C   0  0  0  0  0  0  0  0  0  0  0  0
  127.9920  131.6920   64.9860 S   0  0  0  0  0  0  0  0  0  0  0  0
  127.2190  130.1990   65.5230 C   0  0  0  0  0  0  0  0  0  0  0  0
  127.8410  129.3740   66.5600 C   0  0  0  0  0  0  0  0  0  0  0  0
  128.3120  129.8910   67.5750 O   0  0  0  0  0  0  0  0  0  0  0  0
  127.8450  128.0410   66.3170 N   0  0  0  0  0  0  0  0  0  0  0  0
  128.4020  126.9930   67.0730 C   0  0  0  0  0  0  0  0  0  0  0  0
  128.0380  126.9530   68.4220 C   0  0  0  0  0  0  0  0  0  0  0  0
  128.5260  125.9460   69.2510 C   0  0  0  0  0  0  0  0  0  0  0  0
  129.3720  124.9720   68.7280 C   0  0  0  0  0  0  0  0  0  0  0  0
  129.7330  124.9930   67.3840 C   0  0  0  0  0  0  0  0  0  0  0  0
  129.2470  125.9990   66.5520 C   0  0  0  0  0  0  0  0  0  0  0  0
  126.0110  129.9830   64.8420 C   0  0  0  0  0  0  0  0  0  0  0  0
  125.1990  128.8960   65.0540 N   0  0  0  0  0  0  0  0  0  0  0  0
  125.6840  131.0110   63.8900 C   0  0  0  0  0  0  0  0  0  0  0  0
  1  2  1  0
  2  3  2  0
  3  4  1  0
  4  5  1  0
  5  6  2  0
  6  7  1  0
  7  8  2  0
  8  9  1  0
  9 10  2  0
  4 11  2  0
 11 12  1  0
 12 13  1  0
 13 14  1  0
 14 15  1  0
 15 16  2  0
 15 17  1  0
 17 18  1  0
 18 19  2  0
 19 20  1  0
 20 21  2  0
 21 22  1  0
 22 23  2  0
 14 24  2  0
 24 25  1  0
 24 26  1  0
 26  2  1  0
 10  5  1  0
 26 12  2  0
 23 18  1  0
M  END
>  <Binding energies>  (60) 
[-8.04]

>  <Ligand effiencies>  (60) 
[-0.2772413793103448]

>  <Interactions>  (60) 
["V-A:ALA:541:CB:4892, V-B:TYR:484:CE2:9317, V-B:HIS:456:CE1:9041, V-A:HIS:456:CE1:4069, V-B:LEU:475:CD1:9229, V-A:TYR:539:CD1:4873, V-A:TYR:539:C:4867, V-B:GLY:454:CA:9020, V-B:GLU:543:CB:9878, V-A:GLU:543:CG:4907, V-B:GLU:543:C:9874, V-A:GLU:543:CB:4906, V-B:ASP:366:CG:8184, V-A:GLU:543:CD:4908, V-B:ARG:545:CZ:9898, H-B:GLU:543:OE2:9882, V-A:TYR:484:CZ:4346, V-B:GLU:543:CD:9880, V-B:GLU:543:CG:9879, V-A:TYR:539:CG:4872, V-B:ILE:369:CD1:8210, V-B:PRO:482:CB:9297, V-B:PRO:482:CG:9298, V-B:ILE:369:CG2:8208, V-A:TYR:539:CB:4871, H-A:GLU:543:OE1:4909, V-A:TYR:484:CE2:4345, V-B:LEU:373:CD1:8251, V-B:SER:385:CB:8380, V-B:GLY:453:C:9013, V-A:TYR:484:CD2:4343, V-B:GLU:543:CA:9876, V-B:GLY:453:CA:9015"]

$$$$
4dg_Grossjean_2025
     RDKit          3D

 27 30  0  0  0  0  0  0  0  0999 V2000
  123.4270  129.9950   63.2060 C   0  0  0  0  0  0  0  0  0  0  0  0
  124.5960  130.9650   63.2840 C   0  0  0  0  0  0  0  0  0  0  0  0
  124.5670  132.1010   62.4660 C   0  0  0  0  0  0  0  0  0  0  0  0
  125.6120  133.0320   62.4900 C   0  0  0  0  0  0  0  0  0  0  0  0
  125.6080  134.2610   61.6240 C   0  0  0  0  0  0  0  0  0  0  0  0
  124.5130  134.5560   60.7970 C   0  0  0  0  0  0  0  0  0  0  0  0
  124.5060  135.6910   59.9890 C   0  0  0  0  0  0  0  0  0  0  0  0
  125.5980  136.5510   59.9990 C   0  0  0  0  0  0  0  0  0  0  0  0
  126.6990  136.2820   60.8070 C   0  0  0  0  0  0  0  0  0  0  0  0
  126.7020  135.1460   61.6110 C   0  0  0  0  0  0  0  0  0  0  0  0
  126.6840  132.8880   63.3160 N   0  0  0  0  0  0  0  0  0  0  0  0
  126.7140  131.8070   64.0950 C   0  0  0  0  0  0  0  0  0  0  0  0
  128.0350  131.4960   65.1970 S   0  0  0  0  0  0  0  0  0  0  0  0
  127.2790  130.0010   65.7490 C   0  0  0  0  0  0  0  0  0  0  0  0
  127.9540  129.1580   66.7340 C   0  0  0  0  0  0  0  0  0  0  0  0
  128.5390  129.6450   67.7030 O   0  0  0  0  0  0  0  0  0  0  0  0
  127.9250  127.8310   66.4920 N   0  0  0  0  0  0  0  0  0  0  0  0
  128.5120  126.8010   67.3490 C   0  0  0  0  0  0  0  0  0  0  0  0
  129.9530  126.4610   66.9870 C   0  0  0  0  0  0  0  0  0  0  0  0
  130.2180  125.6410   65.8850 C   0  0  0  0  0  0  0  0  0  0  0  0
  131.5330  125.3540   65.5330 C   0  0  0  0  0  0  0  0  0  0  0  0
  132.5800  125.8960   66.2750 C   0  0  0  0  0  0  0  0  0  0  0  0
  132.3250  126.7260   67.3640 C   0  0  0  0  0  0  0  0  0  0  0  0
  131.0090  127.0150   67.7160 C   0  0  0  0  0  0  0  0  0  0  0  0
  126.0670  129.7670   65.0840 C   0  0  0  0  0  0  0  0  0  0  0  0
  125.2740  128.6700   65.3070 N   0  0  0  0  0  0  0  0  0  0  0  0
  125.7150  130.7930   64.1400 C   0  0  0  0  0  0  0  0  0  0  0  0
  1  2  1  0
  2  3  2  0
  3  4  1  0
  4  5  1  0
  5  6  2  0
  6  7  1  0
  7  8  2  0
  8  9  1  0
  9 10  2  0
  4 11  2  0
 11 12  1  0
 12 13  1  0
 13 14  1  0
 14 15  1  0
 15 16  2  0
 15 17  1  0
 17 18  1  0
 18 19  1  0
 19 20  2  0
 20 21  1  0
 21 22  2  0
 22 23  1  0
 23 24  2  0
 14 25  2  0
 25 26  1  0
 25 27  1  0
 27  2  1  0
 10  5  1  0
 27 12  2  0
 24 19  1  0
M  END
>  <Binding energies>  (61) 
[-8.43]

>  <Ligand effiencies>  (61) 
[-0.28099999999999997]

>  <Interactions>  (61) 
["V-A:ALA:541:CB:4892, V-B:TYR:484:CE2:9317, V-B:HIS:456:CE1:9041, V-A:HIS:456:CE1:4069, V-B:LEU:475:CD1:9229, V-A:TYR:539:CD1:4873, V-B:GLY:454:CA:9020, V-B:GLU:543:CB:9878, V-A:GLU:543:CG:4907, V-B:ARG:545:CD:9895, V-A:GLU:543:CB:4906, V-B:ASP:366:CG:8184, V-A:GLU:543:CD:4908, V-B:ARG:545:CZ:9898, H-B:GLU:543:OE2:9882, V-A:ARG:545:CD:4923, V-A:TYR:484:CZ:4346, V-A:ARG:545:CZ:4926, V-A:ARG:545:CG:4922, H-B:TYR:484:OH:9319, V-A:TYR:539:CG:4872, V-B:ILE:369:CD1:8210, V-B:PRO:482:CB:9297, V-B:PRO:482:CG:9298, V-B:ILE:369:CG2:8208, V-A:TYR:539:CB:4871, H-A:GLU:543:OE1:4909, V-B:LEU:373:CD1:8251, V-B:SER:385:CB:8380, V-B:GLY:453:C:9013, V-B:GLY:453:CA:9015"]

$$$$
4dj_Grossjean_2025
     RDKit          3D

 25 28  0  0  0  0  0  0  0  0999 V2000
  125.2760  129.2530   61.4940 C   0  0  0  0  0  0  0  0  0  0  0  0
  125.8070  130.5220   62.1420 C   0  0  0  0  0  0  0  0  0  0  0  0
  125.6490  131.7310   61.4540 C   0  0  0  0  0  0  0  0  0  0  0  0
  126.1180  132.9340   61.9960 C   0  0  0  0  0  0  0  0  0  0  0  0
  125.9580  134.2460   61.2820 C   0  0  0  0  0  0  0  0  0  0  0  0
  126.9690  135.2200   61.3290 C   0  0  0  0  0  0  0  0  0  0  0  0
  126.8280  136.4390   60.6710 C   0  0  0  0  0  0  0  0  0  0  0  0
  125.6640  136.7040   59.9560 C   0  0  0  0  0  0  0  0  0  0  0  0
  124.6450  135.7610   59.8960 C   0  0  0  0  0  0  0  0  0  0  0  0
  124.7910  134.5440   60.5540 C   0  0  0  0  0  0  0  0  0  0  0  0
  126.7260  132.9860   63.2120 N   0  0  0  0  0  0  0  0  0  0  0  0
  126.8780  131.8360   63.8680 C   0  0  0  0  0  0  0  0  0  0  0  0
  127.6490  131.7570   65.4360 S   0  0  0  0  0  0  0  0  0  0  0  0
  127.4170  130.0090   65.5140 C   0  0  0  0  0  0  0  0  0  0  0  0
  127.8890  129.2510   66.6740 C   0  0  0  0  0  0  0  0  0  0  0  0
  128.2190  129.8290   67.7130 O   0  0  0  0  0  0  0  0  0  0  0  0
  127.9410  127.9060   66.5100 N   0  0  0  0  0  0  0  0  0  0  0  0
  128.3520  126.9670   67.4450 C   0  0  0  0  0  0  0  0  0  0  0  0
  128.0590  126.9210   68.7270 N   0  0  0  0  0  0  0  0  0  0  0  0
  128.6230  125.8850   69.3170 C   0  0  0  0  0  0  0  0  0  0  0  0
  129.3950  125.0600   68.5060 C   0  0  0  0  0  0  0  0  0  0  0  0
  129.3750  125.6840   66.8830 S   0  0  0  0  0  0  0  0  0  0  0  0
  126.7710  129.5330   64.3630 C   0  0  0  0  0  0  0  0  0  0  0  0
  126.4650  128.2120   64.1510 N   0  0  0  0  0  0  0  0  0  0  0  0
  126.4500  130.5580   63.4070 C   0  0  0  0  0  0  0  0  0  0  0  0
  1  2  1  0
  2  3  2  0
  3  4  1  0
  4  5  1  0
  5  6  2  0
  6  7  1  0
  7  8  2  0
  8  9  1  0
  9 10  2  0
  4 11  2  0
 11 12  1  0
 12 13  1  0
 13 14  1  0
 14 15  1  0
 15 16  2  0
 15 17  1  0
 17 18  1  0
 18 19  2  0
 19 20  1  0
 20 21  2  0
 21 22  1  0
 14 23  2  0
 23 24  1  0
 23 25  1  0
 25  2  1  0
 10  5  1  0
 25 12  2  0
 22 18  1  0
M  END
>  <Binding energies>  (62) 
[-7.82]

>  <Ligand effiencies>  (62) 
[-0.2792857142857143]

>  <Interactions>  (62) 
["V-A:ALA:541:CB:4892, V-B:TYR:484:CE2:9317, V-B:HIS:456:CE1:9041, V-A:HIS:456:CE1:4069, V-B:LEU:475:CD1:9229, V-A:TYR:539:CD1:4873, V-B:TYR:484:CZ:9318, V-B:GLU:543:CB:9878, V-A:GLU:543:CG:4907, V-B:GLU:543:C:9874, V-A:TYR:539:CE1:4875, V-A:GLU:543:CB:4906, V-B:ASP:366:CG:8184, V-A:GLU:543:CD:4908, V-B:ARG:545:CZ:9898, H-B:GLU:543:OE1:9881, H-B:GLU:543:OE2:9882, V-A:TYR:484:CZ:4346, V-B:GLU:543:CD:9880, V-B:GLU:543:CG:9879, H-B:TYR:484:OH:9319, V-A:TYR:539:CG:4872, V-B:ASP:366:CB:8183, V-B:PRO:482:CB:9297, V-B:PRO:482:CG:9298, V-B:ILE:369:CG2:8208, V-A:TYR:539:CB:4871, H-A:GLU:543:OE1:4909, V-A:TYR:484:CE2:4345, V-B:LEU:373:CD1:8251, V-B:SER:385:CB:8380, V-B:GLU:543:CA:9876"]

$$$$
4ea_Grossjean_2025
     RDKit          3D

 31 34  0  0  0  0  0  0  0  0999 V2000
  124.0760  124.3960   58.5380 C   0  0  0  0  0  0  0  0  0  0  0  0
  124.9030  124.2230   57.2600 C   0  0  0  0  0  0  0  0  0  0  0  0
  125.0540  122.8380   56.9790 O   0  0  0  0  0  0  0  0  0  0  0  0
  126.2840  122.2630   56.9200 C   0  0  0  0  0  0  0  0  0  0  0  0
  126.6080  121.4390   56.0600 O   0  0  0  0  0  0  0  0  0  0  0  0
  127.2090  122.7310   58.0060 C   0  0  0  0  0  0  0  0  0  0  0  0
  126.7150  122.8790   59.3080 C   0  0  0  0  0  0  0  0  0  0  0  0
  127.5480  123.3110   60.3370 C   0  0  0  0  0  0  0  0  0  0  0  0
  128.8890  123.6040   60.0860 C   0  0  0  0  0  0  0  0  0  0  0  0
  129.6350  124.0320   61.2020 N   0  0  0  0  0  0  0  0  0  0  0  0
  129.4290  125.0700   62.0500 C   0  0  0  0  0  0  0  0  0  0  0  0
  128.4860  125.8570   61.9670 O   0  0  0  0  0  0  0  0  0  0  0  0
  130.4270  125.2130   63.1130 C   0  0  0  0  0  0  0  0  0  0  0  0
  132.1300  124.8730   62.7920 S   0  0  0  0  0  0  0  0  0  0  0  0
  132.5680  125.2600   64.4400 C   0  0  0  0  0  0  0  0  0  0  0  0
  133.8300  125.1910   64.8690 N   0  0  0  0  0  0  0  0  0  0  0  0
  134.0360  125.5160   66.1690 C   0  0  0  0  0  0  0  0  0  0  0  0
  135.4770  125.4300   66.6350 C   0  0  0  0  0  0  0  0  0  0  0  0
  133.0210  125.9050   67.0400 C   0  0  0  0  0  0  0  0  0  0  0  0
  131.7000  125.9760   66.5870 C   0  0  0  0  0  0  0  0  0  0  0  0
  130.6330  126.3910   67.5250 C   0  0  0  0  0  0  0  0  0  0  0  0
  129.6710  125.4690   67.9490 C   0  0  0  0  0  0  0  0  0  0  0  0
  128.6690  125.8570   68.8330 C   0  0  0  0  0  0  0  0  0  0  0  0
  128.6250  127.1720   69.2910 C   0  0  0  0  0  0  0  0  0  0  0  0
  129.5750  128.1010   68.8720 C   0  0  0  0  0  0  0  0  0  0  0  0
  130.5770  127.7100   67.9880 C   0  0  0  0  0  0  0  0  0  0  0  0
  131.4410  125.6430   65.2290 C   0  0  0  0  0  0  0  0  0  0  0  0
  130.2320  125.6070   64.4460 C   0  0  0  0  0  0  0  0  0  0  0  0
  129.0100  125.9330   64.9750 N   0  0  0  0  0  0  0  0  0  0  0  0
  129.3920  123.4580   58.7840 C   0  0  0  0  0  0  0  0  0  0  0  0
  128.5580  123.0260   57.7570 C   0  0  0  0  0  0  0  0  0  0  0  0
  1  2  1  0
  2  3  1  0
  3  4  1  0
  4  5  2  0
  4  6  1  0
  6  7  2  0
  7  8  1  0
  8  9  2  0
  9 10  1  0
 10 11  1  0
 11 12  2  0
 11 13  1  0
 13 14  1  0
 14 15  1  0
 15 16  2  0
 16 17  1  0
 17 18  1  0
 17 19  2  0
 19 20  1  0
 20 21  1  0
 21 22  2  0
 22 23  1  0
 23 24  2  0
 24 25  1  0
 25 26  2  0
 20 27  2  0
 27 28  1  0
 28 29  1  0
  9 30  1  0
 30 31  2  0
 31  6  1  0
 28 13  2  0
 27 15  1  0
 26 21  1  0
M  END
>  <Binding energies>  (63) 
[-9.11]

>  <Ligand effiencies>  (63) 
[-0.26794117647058824]

>  <Interactions>  (63) 
["V-B:HIS:456:CE1:9041, V-A:GLU:543:C:4902, V-A:HIS:456:CE1:4069, V-B:GLU:543:CB:9878, V-A:GLU:543:CG:4907, V-B:GLU:543:C:9874, V-A:GLU:543:CB:4906, V-B:ASP:366:CG:8184, V-A:GLU:543:CD:4908, V-A:GLY:453:C:4041, V-B:TYR:539:C:9839, V-B:PRO:540:CB:9857, H-B:GLU:543:OE2:9882, V-A:ARG:545:CD:4923, V-A:GLY:453:CA:4043, V-A:TYR:484:CZ:4346, V-A:GLY:454:CA:4048, V-A:ILE:455:C:4051, V-A:ARG:545:CZ:4926, V-B:GLU:543:CD:9880, V-B:PRO:540:CA:9855, V-A:ARG:545:CG:4922, V-B:PRO:540:N:9856, V-B:GLU:543:CG:9879, V-B:TYR:531:CZ:9766, H-B:TYR:539:N:9842, V-B:MET:535:CE:9807, V-B:LEU:363:CD1:8160, V-B:ASP:366:CB:8183, V-B:LEU:363:CA:8156, V-B:PRO:540:CD:9859, V-B:LEU:363:CB:8158, V-B:TYR:539:CE2:9848, V-B:TYR:539:CZ:9849, V-B:TYR:531:CE2:9765, H-A:GLY:454:N:4049, H-A:TYR:484:OH:4347, H-A:ARG:545:NE:4924, H-A:ARG:545:NH1:4927, H-A:ARG:545:NH2:4928, H-A:GLU:543:OE1:4909, V-A:TYR:484:CE2:4345, V-B:GLU:543:CA:9876, V-A:ARG:545:CB:4921"]

$$$$
4eb_Grossjean_2025
     RDKit          3D

 30 33  0  0  0  0  0  0  0  0999 V2000
  124.7970  124.6430   57.6110 C   0  0  0  0  0  0  0  0  0  0  0  0
  125.4060  123.8630   56.5920 O   0  0  0  0  0  0  0  0  0  0  0  0
  126.2390  122.8360   56.9010 C   0  0  0  0  0  0  0  0  0  0  0  0
  126.2270  121.7500   56.3150 O   0  0  0  0  0  0  0  0  0  0  0  0
  127.1780  123.1540   58.0300 C   0  0  0  0  0  0  0  0  0  0  0  0
  126.6810  123.2050   59.3390 C   0  0  0  0  0  0  0  0  0  0  0  0
  127.5250  123.4970   60.4050 C   0  0  0  0  0  0  0  0  0  0  0  0
  128.8810  123.7430   60.1880 C   0  0  0  0  0  0  0  0  0  0  0  0
  129.6390  124.0280   61.3410 N   0  0  0  0  0  0  0  0  0  0  0  0
  129.3420  123.8530   62.6520 C   0  0  0  0  0  0  0  0  0  0  0  0
  128.2830  123.3810   63.0670 O   0  0  0  0  0  0  0  0  0  0  0  0
  130.3880  124.2690   63.5910 C   0  0  0  0  0  0  0  0  0  0  0  0
  132.0870  123.9610   63.2270 S   0  0  0  0  0  0  0  0  0  0  0  0
  132.5930  124.7070   64.7260 C   0  0  0  0  0  0  0  0  0  0  0  0
  133.8790  124.7960   65.0700 N   0  0  0  0  0  0  0  0  0  0  0  0
  134.1370  125.3970   66.2570 C   0  0  0  0  0  0  0  0  0  0  0  0
  135.6060  125.4880   66.6290 C   0  0  0  0  0  0  0  0  0  0  0  0
  133.1520  125.9050   67.1000 C   0  0  0  0  0  0  0  0  0  0  0  0
  131.8040  125.8080   66.7350 C   0  0  0  0  0  0  0  0  0  0  0  0
  130.7670  126.3530   67.6420 C   0  0  0  0  0  0  0  0  0  0  0  0
  129.7560  125.5210   68.1320 C   0  0  0  0  0  0  0  0  0  0  0  0
  128.7810  126.0320   68.9860 C   0  0  0  0  0  0  0  0  0  0  0  0
  128.8170  127.3770   69.3470 C   0  0  0  0  0  0  0  0  0  0  0  0
  129.8190  128.2150   68.8610 C   0  0  0  0  0  0  0  0  0  0  0  0
  130.7930  127.7020   68.0080 C   0  0  0  0  0  0  0  0  0  0  0  0
  131.4900  125.1850   65.4960 C   0  0  0  0  0  0  0  0  0  0  0  0
  130.2450  124.9220   64.8250 C   0  0  0  0  0  0  0  0  0  0  0  0
  129.0340  125.2850   65.3600 N   0  0  0  0  0  0  0  0  0  0  0  0
  129.3890  123.6940   58.8810 C   0  0  0  0  0  0  0  0  0  0  0  0
  128.5430  123.4020   57.8150 C   0  0  0  0  0  0  0  0  0  0  0  0
  1  2  1  0
  2  3  1  0
  3  4  2  0
  3  5  1  0
  5  6  2  0
  6  7  1  0
  7  8  2  0
  8  9  1  0
  9 10  1  0
 10 11  2  0
 10 12  1  0
 12 13  1  0
 13 14  1  0
 14 15  2  0
 15 16  1  0
 16 17  1  0
 16 18  2  0
 18 19  1  0
 19 20  1  0
 20 21  2  0
 21 22  1  0
 22 23  2  0
 23 24  1  0
 24 25  2  0
 19 26  2  0
 26 27  1  0
 27 28  1  0
  8 29  1  0
 29 30  2  0
 30  5  1  0
 27 12  2  0
 26 14  1  0
 25 20  1  0
M  END
>  <Binding energies>  (64) 
[-9.01]

>  <Ligand effiencies>  (64) 
[-0.273030303030303]

>  <Interactions>  (64) 
["V-B:HIS:456:CE1:9041, V-A:GLU:543:C:4902, V-A:HIS:456:CE1:4069, V-B:GLU:543:CB:9878, V-A:GLU:543:CG:4907, V-B:GLU:543:C:9874, V-A:GLU:543:CB:4906, V-A:GLU:543:CD:4908, V-A:GLY:453:C:4041, V-B:PRO:540:CB:9857, H-B:GLU:543:OE2:9882, V-A:ARG:545:CD:4923, V-A:GLY:453:CA:4043, V-A:TYR:484:CZ:4346, V-A:GLY:454:CA:4048, V-A:ILE:455:C:4051, V-A:ARG:545:CZ:4926, V-B:GLU:543:CD:9880, V-B:PRO:540:CA:9855, V-A:ARG:545:CG:4922, V-B:GLU:543:CG:9879, V-B:TYR:531:CZ:9766, H-B:TYR:531:OH:9767, H-B:TYR:539:N:9842, V-B:MET:535:CE:9807, V-B:LEU:363:CD1:8160, V-B:TYR:539:CE2:9848, V-B:TYR:531:CE2:9765, H-A:GLY:454:N:4049, H-A:TYR:484:OH:4347, H-A:GLU:543:OE1:4909, V-A:TYR:484:CE2:4345, V-A:ARG:545:CB:4921, V-A:VAL:452:CG2:4039"]

$$$$
8b_Ghoteimi_2023
     RDKit          3D

 34 38  0  0  0  0  0  0  0  0999 V2000
  128.9950  131.7980   53.7430 C   0  0  0  0  0  0  0  0  0  0  0  0
  127.8320  131.1850   54.2890 O   0  0  0  0  0  0  0  0  0  0  0  0
  127.8910  130.6360   55.5550 C   0  0  0  0  0  0  0  0  0  0  0  0
  129.0680  130.8450   56.2710 C   0  0  0  0  0  0  0  0  0  0  0  0
  129.2190  130.3290   57.5540 C   0  0  0  0  0  0  0  0  0  0  0  0
  128.1920  129.5860   58.1560 C   0  0  0  0  0  0  0  0  0  0  0  0
  128.3490  129.0270   59.5340 C   0  0  0  0  0  0  0  0  0  0  0  0
  127.4300  129.3060   60.5520 C   0  0  0  0  0  0  0  0  0  0  0  0
  127.5990  128.7690   61.8320 C   0  0  0  0  0  0  0  0  0  0  0  0
  126.6130  129.0920   62.8890 C   0  0  0  0  0  0  0  0  0  0  0  0
  125.2450  129.0180   62.6210 C   0  0  0  0  0  0  0  0  0  0  0  0
  124.3200  129.3120   63.6190 C   0  0  0  0  0  0  0  0  0  0  0  0
  124.7460  129.6870   64.8940 C   0  0  0  0  0  0  0  0  0  0  0  0
  123.7570  129.9590   65.8210 O   0  0  0  0  0  0  0  0  0  0  0  0
  123.7410  129.2410   67.0500 C   0  0  0  0  0  0  0  0  0  0  0  0
  126.1220  129.7650   65.1590 C   0  0  0  0  0  0  0  0  0  0  0  0
  127.0460  129.4690   64.1610 C   0  0  0  0  0  0  0  0  0  0  0  0
  128.7220  127.9310   62.0630 C   0  0  0  0  0  0  0  0  0  0  0  0
  129.1900  127.2230   63.2260 C   0  0  0  0  0  0  0  0  0  0  0  0
  128.5280  127.2670   64.4270 N   0  0  0  0  0  0  0  0  0  0  0  0
  130.3700  126.4940   63.0120 C   0  0  0  0  0  0  0  0  0  0  0  0
  131.1140  125.6650   63.9620 C   0  0  0  0  0  0  0  0  0  0  0  0
  130.9110  124.4500   64.0300 O   0  0  0  0  0  0  0  0  0  0  0  0
  132.0110  126.3270   64.7350 N   0  0  0  0  0  0  0  0  0  0  0  0
  132.8460  125.7940   65.7070 C   0  0  0  0  0  0  0  0  0  0  0  0
  132.7100  126.0750   67.0650 C   0  0  0  0  0  0  0  0  0  0  0  0
  133.7170  125.3670   67.6800 C   0  0  0  0  0  0  0  0  0  0  0  0
  134.4210  124.6910   66.7420 O   0  0  0  0  0  0  0  0  0  0  0  0
  133.8590  124.9680   65.4940 N   0  0  0  0  0  0  0  0  0  0  0  0
  130.9330  126.6680   61.3480 S   0  0  0  0  0  0  0  0  0  0  0  0
  129.5880  127.7120   60.9530 C   0  0  0  0  0  0  0  0  0  0  0  0
  129.4290  128.2250   59.7330 N   0  0  0  0  0  0  0  0  0  0  0  0
  127.0100  129.3810   57.4320 C   0  0  0  0  0  0  0  0  0  0  0  0
  126.8570  129.8960   56.1480 C   0  0  0  0  0  0  0  0  0  0  0  0
  1  2  1  0
  2  3  1  0
  3  4  2  0
  4  5  1  0
  5  6  2  0
  6  7  1  0
  7  8  2  0
  8  9  1  0
  9 10  1  0
 10 11  2  0
 11 12  1  0
 12 13  2  0
 13 14  1  0
 14 15  1  0
 13 16  1  0
 16 17  2  0
  9 18  2  0
 18 19  1  0
 19 20  1  0
 19 21  2  0
 21 22  1  0
 22 23  2  0
 22 24  1  0
 24 25  1  0
 25 26  1  0
 26 27  2  0
 27 28  1  0
 28 29  1  0
 21 30  1  0
 30 31  1  0
 31 32  2  0
  6 33  1  0
 33 34  2  0
 34  3  1  0
 32  7  1  0
 17 10  1  0
 31 18  1  0
 29 25  2  0
M  END
>  <Binding energies>  (65) 
[-8.73]

>  <Ligand effiencies>  (65) 
[-0.23594594594594595]

>  <Interactions>  (65) 
["V-B:ARG:545:CG:9894, V-B:HIS:456:CE1:9041, V-A:HIS:456:CE1:4069, V-B:ARG:545:CD:9895, V-A:TYR:539:CE1:4875, V-B:ASP:366:CG:8184, V-A:GLU:543:CD:4908, V-B:ARG:545:CZ:9898, H-A:GLU:543:OE2:4910, V-A:ASP:366:CG:3212, H-B:GLU:543:OE1:9881, H-B:GLU:543:OE2:9882, V-A:ARG:545:CD:4923, V-A:TYR:484:CZ:4346, V-A:ILE:455:C:4051, V-A:ARG:545:CZ:4926, V-B:GLU:543:CD:9880, V-A:ARG:545:CG:4922, V-B:TYR:531:CZ:9766, H-B:TYR:484:OH:9319, H-B:GLY:454:N:9021, V-A:ILE:538:CB:4862, V-A:TYR:539:CZ:4877, V-A:ILE:538:CA:4860, V-B:LYS:534:CE:9794, V-A:ILE:538:CG2:4863, H-B:LYS:534:NZ:9795, H-A:TYR:539:OH:4878, V-B:TYR:531:CE1:9764, H-A:GLY:454:N:4049, H-A:TYR:484:OH:4347, H-A:ARG:545:NE:4924, H-A:GLU:543:OE1:4909, H-B:ARG:545:NE:9896, H-A:ILE:455:N:4054, V-A:TYR:484:CE1:4344"]

$$$$
9d_Ghoteimi_2023
     RDKit          3D

 38 43  0  0  0  0  0  0  0  0999 V2000
  125.6970  124.0040   61.0870 C   0  0  0  0  0  0  0  0  0  0  0  0
  126.6650  124.8450   60.4780 O   0  0  0  0  0  0  0  0  0  0  0  0
  126.3000  125.7720   59.5550 C   0  0  0  0  0  0  0  0  0  0  0  0
  125.9600  125.4990   58.4010 O   0  0  0  0  0  0  0  0  0  0  0  0
  126.3570  127.1570   60.0740 C   0  0  0  0  0  0  0  0  0  0  0  0
  126.1050  128.5160   58.9790 S   0  0  0  0  0  0  0  0  0  0  0  0
  126.2890  129.6570   60.2910 C   0  0  0  0  0  0  0  0  0  0  0  0
  126.1650  130.9690   60.0960 N   0  0  0  0  0  0  0  0  0  0  0  0
  126.3090  131.7710   61.1840 C   0  0  0  0  0  0  0  0  0  0  0  0
  126.1400  133.2370   60.9460 C   0  0  0  0  0  0  0  0  0  0  0  0
  127.1520  134.1350   61.3020 C   0  0  0  0  0  0  0  0  0  0  0  0
  127.0030  135.5030   61.0880 C   0  0  0  0  0  0  0  0  0  0  0  0
  125.8400  136.0220   60.4970 C   0  0  0  0  0  0  0  0  0  0  0  0
  125.6690  137.3950   60.2910 N   0  0  0  0  0  0  0  0  0  0  0  0
  126.7550  138.2300   59.7380 C   0  0  0  0  0  0  0  0  0  0  0  0
  126.5220  139.7460   59.9030 C   0  0  0  0  0  0  0  0  0  0  0  0
  125.2690  140.1080   59.3470 O   0  0  0  0  0  0  0  0  0  0  0  0
  124.2010  139.4350   59.9930 C   0  0  0  0  0  0  0  0  0  0  0  0
  124.3610  137.9080   59.8330 C   0  0  0  0  0  0  0  0  0  0  0  0
  124.8230  135.1190   60.1560 C   0  0  0  0  0  0  0  0  0  0  0  0
  124.9710  133.7510   60.3740 C   0  0  0  0  0  0  0  0  0  0  0  0
  126.6090  131.2630   62.4500 C   0  0  0  0  0  0  0  0  0  0  0  0
  126.7590  129.8860   62.6560 C   0  0  0  0  0  0  0  0  0  0  0  0
  127.1050  129.4010   64.0180 C   0  0  0  0  0  0  0  0  0  0  0  0
  126.5810  130.0250   65.1520 C   0  0  0  0  0  0  0  0  0  0  0  0
  126.8930  129.5550   66.4250 C   0  0  0  0  0  0  0  0  0  0  0  0
  127.7260  128.4380   66.5960 C   0  0  0  0  0  0  0  0  0  0  0  0
  128.0610  127.9530   67.8620 N   0  0  0  0  0  0  0  0  0  0  0  0
  129.0620  128.6810   68.6670 C   0  0  0  0  0  0  0  0  0  0  0  0
  129.0510  128.2810   70.1580 C   0  0  0  0  0  0  0  0  0  0  0  0
  129.2200  126.8770   70.2880 O   0  0  0  0  0  0  0  0  0  0  0  0
  128.1830  126.1620   69.6320 C   0  0  0  0  0  0  0  0  0  0  0  0
  128.1770  126.5060   68.1270 C   0  0  0  0  0  0  0  0  0  0  0  0
  128.2470  127.8200   65.4500 C   0  0  0  0  0  0  0  0  0  0  0  0
  127.9360  128.2910   64.1780 C   0  0  0  0  0  0  0  0  0  0  0  0
  126.5710  129.0260   61.5380 C   0  0  0  0  0  0  0  0  0  0  0  0
  126.5840  127.5940   61.3850 C   0  0  0  0  0  0  0  0  0  0  0  0
  126.7790  126.7340   62.4350 N   0  0  0  0  0  0  0  0  0  0  0  0
  1  2  1  0
  2  3  1  0
  3  4  2  0
  3  5  1  0
  5  6  1  0
  6  7  1  0
  7  8  2  0
  8  9  1  0
  9 10  1  0
 10 11  2  0
 11 12  1  0
 12 13  2  0
 13 14  1  0
 14 15  1  0
 15 16  1  0
 16 17  1  0
 17 18  1  0
 18 19  1  0
 13 20  1  0
 20 21  2  0
  9 22  2  0
 22 23  1  0
 23 24  1  0
 24 25  2  0
 25 26  1  0
 26 27  2  0
 27 28  1  0
 28 29  1  0
 29 30  1  0
 30 31  1  0
 31 32  1  0
 32 33  1  0
 27 34  1  0
 34 35  2  0
 23 36  2  0
 36 37  1  0
 37 38  1  0
 37  5  2  0
 36  7  1  0
 21 10  1  0
 35 24  1  0
 19 14  1  0
 33 28  1  0
M  END
>  <Binding energies>  (66) 
[-8.48]

>  <Ligand effiencies>  (66) 
[-0.21200000000000002]

>  <Interactions>  (66) 
["V-A:ALA:541:CB:4892, V-B:TYR:484:CE2:9317, V-B:HIS:456:CE1:9041, V-A:GLU:543:C:4902, V-A:HIS:456:CE1:4069, V-A:TYR:539:CD1:4873, V-B:TYR:484:CZ:9318, V-B:GLU:543:CB:9878, V-B:GLU:543:C:9874, V-A:TYR:539:CE1:4875, V-A:GLU:543:CB:4906, V-B:ASP:366:CG:8184, V-A:GLU:543:CD:4908, H-B:GLU:543:OE1:9881, H-B:GLU:543:OE2:9882, V-B:GLU:543:CD:9880, H-B:TYR:531:OH:9767, V-B:ASP:366:CB:8183, V-B:PRO:482:CB:9297, V-B:PRO:482:CG:9298, V-B:ILE:369:CG2:8208, V-A:TYR:539:CB:4871, V-B:LEU:373:CD1:8251, V-B:SER:385:CB:8380, V-A:ILE:343:CG2:2991, V-B:HIS:383:CE1:8365, V-B:HIS:383:CD2:8363, H-B:HIS:383:ND1:8362, V-A:VAL:344:CG1:3000, V-B:LEU:373:CD2:8252, V-B:VAL:384:C:8368, V-B:HIS:456:CD2:9039, V-B:SER:385:CA:8378, V-B:HIS:383:CG:8361"]

$$$$
RR10_Rahimova_2017
     RDKit          3D

 34 38  0  0  0  0  0  0  0  0999 V2000
  124.6990  135.0170   60.6870 C   0  0  0  0  0  0  0  0  0  0  0  0
  125.4800  133.7530   61.0850 C   0  0  1  0  0  0  0  0  0  0  0  0
  125.1580  132.5590   60.1560 C   0  0  0  0  0  0  0  0  0  0  0  0
  125.9270  131.2920   60.5950 C   0  0  0  0  0  0  0  0  0  0  0  0
  127.4600  131.5180   60.6190 C   0  0  1  0  0  0  0  0  0  0  0  0
  127.9810  131.7000   59.2570 N   0  0  0  0  0  0  0  0  0  0  0  0
  129.2450  132.0410   58.9440 C   0  0  0  0  0  0  0  0  0  0  0  0
  130.1220  132.2170   59.7930 O   0  0  0  0  0  0  0  0  0  0  0  0
  129.5640  132.2210   57.4460 C   0  0  1  0  0  0  0  0  0  0  0  0
  131.0920  132.4220   57.2660 C   0  0  0  0  0  0  0  0  0  0  0  0
  131.4270  132.5110   55.7570 C   0  0  0  0  0  0  0  0  0  0  0  0
  130.8500  131.3250   54.9510 C   0  0  0  0  0  0  0  0  0  0  0  0
  129.3970  131.1590   55.2280 N   0  0  0  0  0  0  0  0  0  0  0  0
  128.5670  130.0310   54.1430 S   0  0  0  0  0  0  0  0  0  0  0  0
  129.1630  130.1610   52.8070 O   0  0  0  0  0  0  0  0  0  0  0  0
  127.1210  130.2080   54.3280 O   0  0  0  0  0  0  0  0  0  0  0  0
  129.0040  128.4000   54.7450 C   0  0  0  0  0  0  0  0  0  0  0  0
  129.7600  127.5490   53.9320 C   0  0  0  0  0  0  0  0  0  0  0  0
  130.1310  126.2650   54.3410 C   0  0  0  0  0  0  0  0  0  0  0  0
  129.7100  125.8690   55.6130 C   0  0  0  0  0  0  0  0  0  0  0  0
  129.8610  124.7200   56.3520 N   0  0  0  0  0  0  0  0  0  0  0  0
  129.2180  124.9030   57.5590 C   0  0  0  0  0  0  0  0  0  0  0  0
  129.1570  123.8570   58.6340 C   0  0  0  0  0  0  0  0  0  0  0  0
  130.3300  123.2440   59.0960 C   0  0  0  0  0  0  0  0  0  0  0  0
  130.2750  122.2770   60.0960 C   0  0  0  0  0  0  0  0  0  0  0  0
  129.0450  121.9150   60.6390 C   0  0  0  0  0  0  0  0  0  0  0  0
  127.8710  122.5140   60.1920 C   0  0  0  0  0  0  0  0  0  0  0  0
  127.9270  123.4820   59.1920 C   0  0  0  0  0  0  0  0  0  0  0  0
  128.6690  126.0940   57.6480 N   0  0  0  0  0  0  0  0  0  0  0  0
  128.9530  126.7140   56.4600 C   0  0  0  0  0  0  0  0  0  0  0  0
  128.5970  127.9980   56.0230 C   0  0  0  0  0  0  0  0  0  0  0  0
  129.0860  130.9710   56.6670 C   0  0  0  0  0  0  0  0  0  0  0  0
  127.7670  132.7290   61.5410 C   0  0  0  0  0  0  0  0  0  0  0  0
  127.0070  134.0000   61.1010 C   0  0  0  0  0  0  0  0  0  0  0  0
  2  1  1  6
  2  3  1  0
  3  4  1  0
  4  5  1  0
  5  6  1  6
  6  7  1  0
  7  8  2  0
  9  7  1  1
  9 10  1  0
 10 11  1  0
 11 12  1  0
 12 13  1  0
 13 14  1  0
 14 15  2  0
 14 16  2  0
 14 17  1  0
 17 18  2  0
 18 19  1  0
 19 20  2  0
 20 21  1  0
 21 22  1  0
 22 23  1  0
 23 24  2  0
 24 25  1  0
 25 26  2  0
 26 27  1  0
 27 28  2  0
 22 29  2  0
 29 30  1  0
 30 31  2  0
 13 32  1  0
  5 33  1  0
 33 34  1  0
 34  2  1  0
 32  9  1  0
 31 17  1  0
 30 20  1  0
 28 23  1  0
M  END
>  <Binding energies>  (67) 
[-11.02]

>  <Ligand effiencies>  (67) 
[-0.3061111111111111]

>  <Interactions>  (67) 
["V-A:ALA:541:CB:4892, V-A:PRO:540:CB:4885, V-A:TYR:539:CD1:4873, V-A:TYR:539:C:4867, V-A:PRO:540:CA:4883, H-A:ALA:541:N:4891, V-A:TYR:539:CE1:4875, V-A:PRO:540:N:4884, V-B:PRO:540:CB:9857, V-B:PRO:540:C:9853, V-B:PRO:540:CA:9855, V-B:PRO:540:N:9856, V-A:MET:535:CE:4835, V-A:ILE:538:C:4858, V-A:ILE:538:CB:4862, V-A:ILE:538:CA:4860, V-A:TYR:531:CZ:4794, V-B:LYS:534:CE:9794, V-A:ILE:538:CG2:4863, H-B:LYS:534:NZ:9795, H-A:TYR:539:OH:4878, H-B:TYR:531:OH:9767, V-A:LEU:363:CD1:3188, V-A:PRO:540:CD:4887, V-B:MET:535:CE:9807, V-B:TYR:539:CE2:9848, V-B:TYR:539:CZ:9849, V-B:ILE:369:CG2:8208, V-A:TYR:539:CA:4869, V-B:TYR:539:CD2:9846, H-B:TYR:539:OH:9850, V-B:SER:385:CB:8380"]

$$$$
RR12_Rahimova_2017
     RDKit          3D

 26 28  0  0  0  0  0  0  0  0999 V2000
  126.3470  123.6340   57.2170 C   0  0  0  0  0  0  0  0  0  0  0  0
  127.8700  123.8090   57.3020 C   0  0  0  0  0  0  0  0  0  0  0  0
  128.3260  125.2230   56.8970 C   0  0  0  0  0  0  0  0  0  0  0  0
  129.7780  125.2750   56.7450 N   0  0  0  0  0  0  0  0  0  0  0  0
  130.4990  125.8750   55.7250 C   0  0  0  0  0  0  0  0  0  0  0  0
  129.8640  126.5640   54.5290 C   0  0  0  0  0  0  0  0  0  0  0  0
  129.1760  127.8870   54.9120 C   0  0  0  0  0  0  0  0  0  0  0  0
  129.3380  128.9760   53.8330 C   0  0  0  0  0  0  0  0  0  0  0  0
  129.4170  130.3330   54.3720 N   0  0  0  0  0  0  0  0  0  0  0  0
  128.3590  131.1210   54.6370 C   0  0  0  0  0  0  0  0  0  0  0  0
  127.1920  130.7730   54.4450 O   0  0  0  0  0  0  0  0  0  0  0  0
  128.6900  132.5060   55.2070 C   0  0  0  0  0  0  0  0  0  0  0  0
  130.0980  132.6110   55.4180 O   0  0  0  0  0  0  0  0  0  0  0  0
  130.6570  132.0510   56.5520 C   0  0  0  0  0  0  0  0  0  0  0  0
  131.9880  131.6390   56.4490 C   0  0  0  0  0  0  0  0  0  0  0  0
  132.6370  131.0670   57.5400 C   0  0  0  0  0  0  0  0  0  0  0  0
  131.9530  130.9050   58.7410 C   0  0  0  0  0  0  0  0  0  0  0  0
  130.6250  131.3080   58.8600 C   0  0  0  0  0  0  0  0  0  0  0  0
  129.9760  131.8790   57.7690 C   0  0  0  0  0  0  0  0  0  0  0  0
  131.7970  125.7780   55.8790 N   0  0  0  0  0  0  0  0  0  0  0  0
  131.9610  125.1100   57.0600 C   0  0  0  0  0  0  0  0  0  0  0  0
  133.1500  124.7470   57.7110 C   0  0  0  0  0  0  0  0  0  0  0  0
  133.0530  124.0670   58.9250 C   0  0  0  0  0  0  0  0  0  0  0  0
  131.8130  123.7530   59.4830 C   0  0  0  0  0  0  0  0  0  0  0  0
  130.6130  124.0990   58.8590 C   0  0  0  0  0  0  0  0  0  0  0  0
  130.7100  124.7810   57.6400 C   0  0  0  0  0  0  0  0  0  0  0  0
  1  2  1  0
  2  3  1  0
  3  4  1  0
  4  5  1  0
  5  6  1  0
  6  7  1  0
  7  8  1  0
  8  9  1  0
  9 10  1  0
 10 11  2  0
 10 12  1  0
 12 13  1  0
 13 14  1  0
 14 15  2  0
 15 16  1  0
 16 17  2  0
 17 18  1  0
 18 19  2  0
  5 20  2  0
 20 21  1  0
 21 22  2  0
 22 23  1  0
 23 24  2  0
 24 25  1  0
 25 26  2  0
 26  4  1  0
 19 14  1  0
 26 21  1  0
M  END
>  <Binding energies>  (68) 
[-7.65]

>  <Ligand effiencies>  (68) 
[-0.2833333333333333]

>  <Interactions>  (68) 
["V-A:PRO:540:CB:4885, V-A:TYR:539:CD1:4873, V-A:TYR:539:C:4867, V-A:PRO:540:CA:4883, V-A:TYR:539:CE1:4875, H-A:TYR:531:OH:4795, V-A:PRO:540:N:4884, V-A:ASP:366:CG:3212, V-A:MET:535:CE:4835, V-A:TYR:539:CG:4872, V-A:TYR:539:CE2:4876, V-A:ILE:538:C:4858, V-A:ILE:538:CB:4862, V-A:TYR:539:CZ:4877, V-A:TYR:539:CD2:4874, V-A:ILE:538:CA:4860, V-A:MET:535:CG:4833, H-A:TYR:539:N:4870, H-B:LYS:534:NZ:9795, H-A:TYR:539:OH:4878, V-A:LEU:363:CD1:3188, V-A:PRO:540:CD:4887, V-A:ASP:366:CB:3211, V-B:MET:535:CE:9807, V-B:TYR:539:CE2:9848, V-B:TYR:539:CZ:9849, V-A:ASP:366:CA:3209, V-A:ASP:366:C:3207, H-B:TYR:539:OH:9850"]

$$$$
RR13_Rahimova_2017
     RDKit          3D

 48 54  0  0  0  0  0  0  0  0999 V2000
  129.3860  122.6760   58.7840 Cl  0  0  0  0  0  0  0  0  0  0  0  0
  127.7830  122.8740   58.1590 C   0  0  0  0  0  0  0  0  0  0  0  0
  127.4120  122.0940   57.0620 C   0  0  0  0  0  0  0  0  0  0  0  0
  126.1450  122.2220   56.5000 C   0  0  0  0  0  0  0  0  0  0  0  0
  125.2390  123.1350   57.0320 C   0  0  0  0  0  0  0  0  0  0  0  0
  125.6010  123.9170   58.1270 C   0  0  0  0  0  0  0  0  0  0  0  0
  126.8710  123.7940   58.7150 C   0  0  0  0  0  0  0  0  0  0  0  0
  127.2570  124.6900   59.9120 C   0  0  1  0  0  0  0  0  0  0  0  0
  127.7470  123.8450   61.0980 C   0  0  0  0  0  0  0  0  0  0  0  0
  127.0860  122.8840   61.7040 N   0  0  0  0  0  0  0  0  0  0  0  0
  127.9170  122.4340   62.7260 N   0  0  0  0  0  0  0  0  0  0  0  0
  129.0910  123.1610   62.7360 N   0  0  0  0  0  0  0  0  0  0  0  0
  128.9520  124.0420   61.7380 N   0  0  0  0  0  0  0  0  0  0  0  0
  130.0310  124.9690   61.4180 C   0  0  0  0  0  0  0  0  0  0  0  0
  131.3630  124.2100   61.2720 C   0  0  0  0  0  0  0  0  0  0  0  0
  131.9660  124.3680   59.8850 C   0  0  0  0  0  0  0  0  0  0  0  0
  131.4980  125.3710   59.0310 C   0  0  0  0  0  0  0  0  0  0  0  0
  132.0460  125.5100   57.7580 C   0  0  0  0  0  0  0  0  0  0  0  0
  133.0580  124.6460   57.3440 C   0  0  0  0  0  0  0  0  0  0  0  0
  133.5270  123.6440   58.1900 C   0  0  0  0  0  0  0  0  0  0  0  0
  132.9800  123.5040   59.4630 C   0  0  0  0  0  0  0  0  0  0  0  0
  128.2080  125.7710   59.5580 N   0  0  0  0  0  0  0  0  0  0  0  0
  127.9820  126.9570   60.4050 C   0  0  0  0  0  0  0  0  0  0  0  0
  129.0530  128.0380   60.1330 C   0  0  0  0  0  0  0  0  0  0  0  0
  128.9970  128.4840   58.7310 N   0  0  0  0  0  0  0  0  0  0  0  0
  129.9530  129.5790   58.4460 C   0  0  1  0  0  0  0  0  0  0  0  0
  129.6850  130.3760   57.1500 C   0  0  0  0  0  0  0  0  0  0  0  0
  128.4400  130.1940   56.5320 C   0  0  0  0  0  0  0  0  0  0  0  0
  128.1060  130.8850   55.3680 C   0  0  0  0  0  0  0  0  0  0  0  0
  129.0180  131.7680   54.7990 C   0  0  0  0  0  0  0  0  0  0  0  0
  130.2660  131.9510   55.3870 C   0  0  0  0  0  0  0  0  0  0  0  0
  130.6130  131.2600   56.5510 C   0  0  0  0  0  0  0  0  0  0  0  0
  132.2130  131.5040   57.1670 Cl  0  0  0  0  0  0  0  0  0  0  0  0
  130.1370  130.5390   59.6240 C   0  0  0  0  0  0  0  0  0  0  0  0
  131.1550  130.5400   60.4540 N   0  0  0  0  0  0  0  0  0  0  0  0
  130.9180  131.5800   61.3470 N   0  0  0  0  0  0  0  0  0  0  0  0
  129.7380  132.2190   61.0270 N   0  0  0  0  0  0  0  0  0  0  0  0
  129.2840  131.5730   59.9470 N   0  0  0  0  0  0  0  0  0  0  0  0
  128.0210  131.9710   59.3350 C   0  0  0  0  0  0  0  0  0  0  0  0
  126.8650  131.1130   59.8820 C   0  0  0  0  0  0  0  0  0  0  0  0
  125.8990  131.9250   60.7300 C   0  0  0  0  0  0  0  0  0  0  0  0
  125.0780  131.2830   61.6610 C   0  0  0  0  0  0  0  0  0  0  0  0
  124.1990  132.0270   62.4430 C   0  0  0  0  0  0  0  0  0  0  0  0
  124.1430  133.4120   62.2910 C   0  0  0  0  0  0  0  0  0  0  0  0
  124.9600  134.0580   61.3650 C   0  0  0  0  0  0  0  0  0  0  0  0
  125.8400  133.3140   60.5830 C   0  0  0  0  0  0  0  0  0  0  0  0
  129.2290  127.2970   57.8880 C   0  0  0  0  0  0  0  0  0  0  0  0
  128.1490  126.2240   58.1570 C   0  0  0  0  0  0  0  0  0  0  0  0
  1  2  1  0
  2  3  2  0
  3  4  1  0
  4  5  2  0
  5  6  1  0
  6  7  2  0
  7  8  1  0
  8  9  1  0
  9 10  2  0
 10 11  1  0
 11 12  2  0
 12 13  1  0
 13 14  1  0
 14 15  1  0
 15 16  1  0
 16 17  2  0
 17 18  1  0
 18 19  2  0
 19 20  1  0
 20 21  2  0
  8 22  1  6
 22 23  1  0
 23 24  1  0
 24 25  1  0
 26 25  1  1
 26 27  1  0
 27 28  2  0
 28 29  1  0
 29 30  2  0
 30 31  1  0
 31 32  2  0
 32 33  1  0
 26 34  1  0
 34 35  2  0
 35 36  1  0
 36 37  2  0
 37 38  1  0
 38 39  1  0
 39 40  1  0
 40 41  1  0
 41 42  2  0
 42 43  1  0
 43 44  2  0
 44 45  1  0
 45 46  2  0
 25 47  1  0
 47 48  1  0
  7  2  1  0
 13  9  1  0
 21 16  1  0
 48 22  1  0
 32 27  1  0
 38 34  1  0
 46 41  1  0
M  END
>  <Binding energies>  (69) 
[-13.16]

>  <Ligand effiencies>  (69) 
[-0.27416666666666667]

>  <Interactions>  (69) 
["V-A:PRO:540:CB:4885, V-B:LEU:475:CD1:9229, V-A:TYR:539:CD1:4873, V-A:PRO:540:CA:4883, H-A:ALA:541:N:4891, V-B:GLY:454:CA:9020, V-A:TYR:539:CE1:4875, V-A:ASP:366:CG:3212, V-B:TYR:539:C:9839, V-B:PRO:540:CB:9857, V-B:PRO:540:CA:9855, H-B:ALA:541:N:9863, V-B:PRO:540:N:9856, V-B:ILE:369:CD1:8210, V-A:ILE:538:CB:4862, V-A:TYR:539:CZ:4877, V-A:ILE:538:CA:4860, V-A:ILE:538:CG2:4863, V-A:LEU:363:CD1:3188, V-A:ASP:366:CB:3211, V-B:MET:535:CE:9807, V-B:LEU:363:CD1:8160, V-B:PRO:540:CD:9859, V-B:TYR:539:CE2:9848, V-B:TYR:539:CZ:9849, V-B:TYR:531:CE2:9765, V-B:ILE:369:CG2:8208, V-B:TYR:539:CD2:9846, V-B:TYR:539:CA:9841, V-A:ILE:369:CB:3235, V-A:ASP:366:CA:3209, V-A:ASP:366:C:3207, V-A:ILE:369:CG2:3236"]

$$$$
RR14_Rahimova_2017
     RDKit          3D

 39 43  0  0  0  0  0  0  0  0999 V2000
  125.5150  137.5720   59.8170 C   0  0  0  0  0  0  0  0  0  0  0  0
  125.2030  136.2100   59.5450 O   0  0  0  0  0  0  0  0  0  0  0  0
  125.4650  135.2540   60.5070 C   0  0  0  0  0  0  0  0  0  0  0  0
  126.7540  135.2460   61.0420 C   0  0  0  0  0  0  0  0  0  0  0  0
  127.1180  134.3040   61.9990 C   0  0  0  0  0  0  0  0  0  0  0  0
  126.1920  133.3520   62.4290 C   0  0  0  0  0  0  0  0  0  0  0  0
  126.6060  132.2780   63.4280 C   0  0  0  0  0  0  0  0  0  0  0  0
  125.6890  131.1390   63.4670 N   0  0  0  0  0  0  0  0  0  0  0  0
  124.5040  131.2470   64.0780 N   0  0  0  0  0  0  0  0  0  0  0  0
  123.9280  129.9980   63.9490 N   0  0  0  0  0  0  0  0  0  0  0  0
  124.7850  129.1440   63.2620 N   0  0  0  0  0  0  0  0  0  0  0  0
  125.8520  129.8580   62.9860 C   0  0  0  0  0  0  0  0  0  0  0  0
  127.0860  129.3440   62.2580 C   0  0  0  0  0  0  0  0  0  0  0  0
  126.9900  129.5140   60.7980 N   0  0  0  0  0  0  0  0  0  0  0  0
  125.7120  129.0190   60.2710 C   0  0  0  0  0  0  0  0  0  0  0  0
  125.8760  127.9540   59.1650 C   0  0  0  0  0  0  0  0  0  0  0  0
  126.8920  126.8470   59.5170 C   0  0  0  0  0  0  0  0  0  0  0  0
  126.5560  125.5440   58.9330 N   0  0  0  0  0  0  0  0  0  0  0  0
  127.5570  125.1610   57.9300 C   0  0  0  0  0  0  0  0  0  0  0  0
  127.2050  123.8170   57.2570 C   0  0  0  0  0  0  0  0  0  0  0  0
  125.8900  123.8710   56.7150 O   0  0  0  0  0  0  0  0  0  0  0  0
  124.9070  124.1310   57.7090 C   0  0  0  0  0  0  0  0  0  0  0  0
  125.1880  125.4850   58.3940 C   0  0  0  0  0  0  0  0  0  0  0  0
  127.1830  130.9260   60.4390 C   0  0  0  0  0  0  0  0  0  0  0  0
  128.0660  131.1950   59.2230 C   0  0  0  0  0  0  0  0  0  0  0  0
  127.6890  130.7970   57.9840 C   0  0  0  0  0  0  0  0  0  0  0  0
  128.5430  131.0090   56.7970 C   0  0  0  0  0  0  0  0  0  0  0  0
  128.1760  130.6270   55.4950 C   0  0  0  0  0  0  0  0  0  0  0  0
  126.8410  129.9530   55.2080 C   0  0  0  0  0  0  0  0  0  0  0  0
  129.0570  130.8760   54.4400 C   0  0  0  0  0  0  0  0  0  0  0  0
  130.2850  131.4940   54.6680 C   0  0  0  0  0  0  0  0  0  0  0  0
  130.6590  131.8790   55.9590 C   0  0  0  0  0  0  0  0  0  0  0  0
  132.0070  132.5550   56.1760 C   0  0  0  0  0  0  0  0  0  0  0  0
  129.7820  131.6350   57.0270 C   0  0  0  0  0  0  0  0  0  0  0  0
  130.1170  132.0030   58.3470 N   0  0  0  0  0  0  0  0  0  0  0  0
  129.3670  131.8290   59.4630 C   0  0  0  0  0  0  0  0  0  0  0  0
  129.7910  132.1860   60.5620 O   0  0  0  0  0  0  0  0  0  0  0  0
  124.8910  133.3690   61.9220 C   0  0  0  0  0  0  0  0  0  0  0  0
  124.5290  134.3110   60.9630 C   0  0  0  0  0  0  0  0  0  0  0  0
  1  2  1  0
  2  3  1  0
  3  4  2  0
  4  5  1  0
  5  6  2  0
  6  7  1  0
  7  8  1  0
  8  9  1  0
  9 10  2  0
 10 11  1  0
 11 12  2  0
 12 13  1  0
 13 14  1  0
 14 15  1  0
 15 16  1  0
 16 17  1  0
 17 18  1  0
 18 19  1  0
 19 20  1  0
 20 21  1  0
 21 22  1  0
 22 23  1  0
 14 24  1  0
 24 25  1  0
 25 26  2  0
 26 27  1  0
 27 28  2  0
 28 29  1  0
 28 30  1  0
 30 31  2  0
 31 32  1  0
 32 33  1  0
 32 34  2  0
 34 35  1  0
 35 36  1  0
 36 37  2  0
  6 38  1  0
 38 39  2  0
 39  3  1  0
 12  8  1  0
 23 18  1  0
 36 25  1  0
 34 27  1  0
M  END
>  <Binding energies>  (70) 
[-10.43]

>  <Ligand effiencies>  (70) 
[-0.26075]

>  <Interactions>  (70) 
["V-A:ALA:541:CB:4892, V-A:PRO:540:CB:4885, V-B:LEU:475:CD1:9229, V-A:TYR:539:CD1:4873, V-A:TYR:539:C:4867, V-A:PRO:540:CA:4883, H-A:ALA:541:N:4891, V-A:TYR:539:CE1:4875, V-B:ASP:366:CG:8184, V-A:PRO:540:N:4884, V-B:TYR:531:CZ:9766, H-B:TYR:484:OH:9319, H-B:GLY:454:N:9021, V-A:ILE:538:CB:4862, V-A:TYR:539:CZ:4877, V-A:ILE:538:CA:4860, V-A:ILE:538:CG2:4863, H-B:TYR:531:OH:9767, V-A:LEU:363:CD1:3188, V-B:TYR:531:CE1:9764, V-A:PRO:540:CD:4887, V-A:PRO:540:CG:4886, V-B:MET:535:CE:9807, V-B:LEU:363:CD1:8160, V-B:ASP:366:CB:8183, V-B:PRO:482:CG:9298, V-B:TYR:531:CE2:9765, V-B:ILE:369:CG2:8208, H-B:SER:385:OG:8381, H-B:ARG:545:NH1:9899, H-B:ARG:545:NH2:9900, V-A:TYR:539:CB:4871, H-A:TYR:539:O:4868, V-B:LEU:373:CD1:8251, V-B:SER:385:CB:8380"]

$$$$
RR15_Rahimova_2017
     RDKit          3D

 45 49  0  0  0  0  0  0  0  0999 V2000
  132.1660  132.9790   55.9120 C   0  0  0  0  0  0  0  0  0  0  0  0
  130.8200  132.5790   56.1520 O   0  0  0  0  0  0  0  0  0  0  0  0
  130.5100  131.8960   57.3150 C   0  0  0  0  0  0  0  0  0  0  0  0
  129.4420  132.2410   58.1580 C   0  0  0  0  0  0  0  0  0  0  0  0
  129.1850  131.5120   59.3160 C   0  0  0  0  0  0  0  0  0  0  0  0
  129.9860  130.4200   59.6670 C   0  0  0  0  0  0  0  0  0  0  0  0
  129.7120  129.6370   60.9210 C   0  0  0  0  0  0  0  0  0  0  0  0
  129.0120  130.1230   61.9370 N   0  0  0  0  0  0  0  0  0  0  0  0
  128.9840  129.1290   62.8930 N   0  0  0  0  0  0  0  0  0  0  0  0
  129.6480  128.1240   62.3200 N   0  0  0  0  0  0  0  0  0  0  0  0
  130.0010  126.9100   63.0550 C   0  0  0  0  0  0  0  0  0  0  0  0
  130.1180  125.6350   62.1840 C   0  0  0  0  0  0  0  0  0  0  0  0
  130.9950  125.6000   61.3170 O   0  0  0  0  0  0  0  0  0  0  0  0
  129.2790  124.5780   62.4130 N   0  0  0  0  0  0  0  0  0  0  0  0
  129.5550  123.5970   63.4820 C   0  0  0  0  0  0  0  0  0  0  0  0
  130.7080  122.6260   63.1470 C   0  0  0  0  0  0  0  0  0  0  0  0
  130.5160  121.8160   61.8430 C   0  0  0  0  0  0  0  0  0  0  0  0
  131.2350  120.5390   61.8310 N   0  0  0  0  0  0  0  0  0  0  0  0
  130.4120  119.4050   61.3850 C   0  0  0  0  0  0  0  0  0  0  0  0
  131.2380  118.1030   61.3090 C   0  0  0  0  0  0  0  0  0  0  0  0
  132.3820  118.2950   60.4840 O   0  0  0  0  0  0  0  0  0  0  0  0
  133.2360  119.3240   60.9710 C   0  0  0  0  0  0  0  0  0  0  0  0
  132.4650  120.6610   61.0360 C   0  0  0  0  0  0  0  0  0  0  0  0
  127.9440  124.4310   61.7570 C   0  0  2  0  0  0  0  0  0  0  0  0
  127.8330  123.1960   60.8090 C   0  0  0  0  0  0  0  0  0  0  0  0
  127.1670  122.2100   61.1250 O   0  0  0  0  0  0  0  0  0  0  0  0
  128.4720  123.3080   59.6310 N   0  0  0  0  0  0  0  0  0  0  0  0
  128.4260  122.3300   58.5500 C   0  0  0  0  0  0  0  0  0  0  0  0
  127.6490  122.8770   57.3380 C   0  0  2  0  0  0  0  0  0  0  0  0
  126.5090  123.8560   57.6720 C   0  0  0  0  0  0  0  0  0  0  0  0
  125.2530  123.0250   57.5650 C   0  0  0  0  0  0  0  0  0  0  0  0
  125.6240  122.0630   56.4500 C   0  0  0  0  0  0  0  0  0  0  0  0
  126.9800  121.7510   56.7520 O   0  0  0  0  0  0  0  0  0  0  0  0
  127.4570  125.7720   61.2220 C   0  0  0  0  0  0  0  0  0  0  0  0
  126.7720  126.6220   62.0990 C   0  0  0  0  0  0  0  0  0  0  0  0
  126.3030  127.8590   61.6650 C   0  0  0  0  0  0  0  0  0  0  0  0
  126.5180  128.2570   60.3490 C   0  0  0  0  0  0  0  0  0  0  0  0
  126.0640  129.4590   59.9280 F   0  0  0  0  0  0  0  0  0  0  0  0
  127.1980  127.4250   59.4630 C   0  0  0  0  0  0  0  0  0  0  0  0
  127.6660  126.1880   59.8970 C   0  0  0  0  0  0  0  0  0  0  0  0
  130.1530  128.4070   61.1140 N   0  0  0  0  0  0  0  0  0  0  0  0
  131.0500  130.0760   58.8230 C   0  0  0  0  0  0  0  0  0  0  0  0
  131.3200  130.8000   57.6490 C   0  0  0  0  0  0  0  0  0  0  0  0
  132.3550  130.4980   56.7820 O   0  0  0  0  0  0  0  0  0  0  0  0
  133.4390  129.6940   57.2350 C   0  0  0  0  0  0  0  0  0  0  0  0
  1  2  1  0
  2  3  1  0
  3  4  2  0
  4  5  1  0
  5  6  2  0
  6  7  1  0
  7  8  1  0
  8  9  2  0
  9 10  1  0
 10 11  1  0
 11 12  1  0
 12 13  2  0
 12 14  1  0
 14 15  1  0
 15 16  1  0
 16 17  1  0
 17 18  1  0
 18 19  1  0
 19 20  1  0
 20 21  1  0
 21 22  1  0
 22 23  1  0
 24 14  1  6
 24 25  1  0
 25 26  2  0
 25 27  1  0
 27 28  1  0
 29 28  1  1
 29 30  1  0
 30 31  1  0
 31 32  1  0
 32 33  1  0
 24 34  1  0
 34 35  2  0
 35 36  1  0
 36 37  2  0
 37 38  1  0
 37 39  1  0
 39 40  2  0
 10 41  1  0
  6 42  1  0
 42 43  2  0
 43 44  1  0
 44 45  1  0
 43  3  1  0
 41  7  2  0
 23 18  1  0
 33 29  1  0
 40 34  1  0
M  END
>  <Binding energies>  (71) 
[-8.93]

>  <Ligand effiencies>  (71) 
[-0.1941304347826087]

>  <Interactions>  (71) 
["V-A:PRO:540:CB:4885, V-A:TYR:539:CD1:4873, V-A:TYR:539:C:4867, V-A:PRO:540:CA:4883, V-A:TYR:539:CE1:4875, H-A:TYR:531:OH:4795, V-B:ASP:366:CG:8184, V-A:GLU:543:CD:4908, V-A:PRO:540:N:4884, V-A:ASP:366:CG:3212, V-B:TYR:539:C:9839, V-B:PRO:540:CB:9857, V-A:LEU:475:CD1:4257, V-B:GLU:543:CD:9880, V-B:PRO:540:CA:9855, H-B:ALA:541:N:9863, V-B:ALA:541:CB:9864, V-B:PRO:540:N:9856, V-B:GLU:543:CG:9879, V-A:ILE:538:CB:4862, V-A:ILE:538:CA:4860, V-A:TYR:531:CZ:4794, V-A:ILE:538:CG2:4863, H-A:TYR:539:N:4870, V-A:LEU:363:CD1:3188, V-A:PRO:540:CD:4887, V-A:LEU:363:CA:3184, V-A:PRO:540:CG:4886, V-A:ASP:366:CB:3211, H-B:TYR:539:N:9842, V-B:MET:535:CE:9807, V-B:LEU:363:CD1:8160, V-B:PRO:540:CD:9859, V-B:TYR:539:CE2:9848, V-B:TYR:539:CD2:9846, V-A:ILE:369:CG2:3236, V-A:PRO:482:CB:4325, V-A:PRO:482:CG:4326, H-A:HIS:383:NE2:3393, H-A:SER:385:OG:3409"]

$$$$
RR17_Rahimova_2017
     RDKit          3D

 38 41  0  0  0  0  0  0  0  0999 V2000
  127.9520  128.8010   53.2860 C   0  0  0  0  0  0  0  0  0  0  0  0
  127.1840  129.6150   54.3320 C   0  0  0  0  0  0  0  0  0  0  0  0
  127.8490  130.8610   54.5220 O   0  0  0  0  0  0  0  0  0  0  0  0
  128.9660  130.9160   55.3350 C   0  0  0  0  0  0  0  0  0  0  0  0
  129.2210  129.7910   56.1190 C   0  0  0  0  0  0  0  0  0  0  0  0
  130.3210  129.7550   56.9700 C   0  0  0  0  0  0  0  0  0  0  0  0
  131.1930  130.8500   57.0560 C   0  0  0  0  0  0  0  0  0  0  0  0
  132.3720  130.7810   57.9820 C   0  0  0  0  0  0  0  0  0  0  0  0
  133.5060  130.4910   57.5880 O   0  0  0  0  0  0  0  0  0  0  0  0
  132.1090  131.0760   59.4750 C   0  0  0  0  0  0  0  0  0  0  0  0
  130.8850  129.9270   60.1990 S   0  0  0  0  0  0  0  0  0  0  0  0
  129.5850  131.0670   60.5800 C   0  0  0  0  0  0  0  0  0  0  0  0
  129.7470  132.2520   61.1210 N   0  0  0  0  0  0  0  0  0  0  0  0
  128.4930  132.8360   61.2500 N   0  0  0  0  0  0  0  0  0  0  0  0
  127.6200  131.9830   60.7780 C   0  0  0  0  0  0  0  0  0  0  0  0
  126.1190  132.2280   60.7170 C   0  0  0  0  0  0  0  0  0  0  0  0
  125.6810  133.3970   61.4760 N   0  0  0  0  0  0  0  0  0  0  0  0
  125.6070  134.6940   60.9390 C   0  0  0  0  0  0  0  0  0  0  0  0
  126.7680  135.4660   60.9620 C   0  0  0  0  0  0  0  0  0  0  0  0
  126.7630  136.7610   60.4520 C   0  0  0  0  0  0  0  0  0  0  0  0
  125.5940  137.2990   59.9060 C   0  0  0  0  0  0  0  0  0  0  0  0
  125.6040  138.7240   59.3550 C   0  0  0  0  0  0  0  0  0  0  0  0
  126.4930  139.5010   59.9790 F   0  0  0  0  0  0  0  0  0  0  0  0
  125.9040  138.7190   58.0560 F   0  0  0  0  0  0  0  0  0  0  0  0
  124.3950  139.2620   59.5130 F   0  0  0  0  0  0  0  0  0  0  0  0
  124.4310  136.5230   59.8740 C   0  0  0  0  0  0  0  0  0  0  0  0
  124.4360  135.2290   60.3840 C   0  0  0  0  0  0  0  0  0  0  0  0
  128.2450  130.8320   60.3460 N   0  0  0  0  0  0  0  0  0  0  0  0
  127.6550  129.6960   59.7710 C   0  0  0  0  0  0  0  0  0  0  0  0
  127.8170  128.4530   60.3810 C   0  0  0  0  0  0  0  0  0  0  0  0
  127.2350  127.3260   59.8080 C   0  0  0  0  0  0  0  0  0  0  0  0
  126.4880  127.4400   58.6240 C   0  0  0  0  0  0  0  0  0  0  0  0
  125.8750  126.3790   57.9850 O   0  0  0  0  0  0  0  0  0  0  0  0
  125.6160  125.1840   58.7160 C   0  0  0  0  0  0  0  0  0  0  0  0
  126.3380  128.6930   58.0250 C   0  0  0  0  0  0  0  0  0  0  0  0
  126.9180  129.8240   58.5940 C   0  0  0  0  0  0  0  0  0  0  0  0
  130.9360  131.9800   56.2660 C   0  0  0  0  0  0  0  0  0  0  0  0
  129.8350  132.0140   55.4140 C   0  0  0  0  0  0  0  0  0  0  0  0
  1  2  1  0
  2  3  1  0
  3  4  1  0
  4  5  2  0
  5  6  1  0
  6  7  2  0
  7  8  1  0
  8  9  2  0
  8 10  1  0
 10 11  1  0
 11 12  1  0
 12 13  2  0
 13 14  1  0
 14 15  2  0
 15 16  1  0
 16 17  1  0
 17 18  1  0
 18 19  2  0
 19 20  1  0
 20 21  2  0
 21 22  1  0
 22 23  1  0
 22 24  1  0
 22 25  1  0
 21 26  1  0
 26 27  2  0
 15 28  1  0
 28 29  1  0
 29 30  2  0
 30 31  1  0
 31 32  2  0
 32 33  1  0
 33 34  1  0
 32 35  1  0
 35 36  2  0
  7 37  1  0
 37 38  2  0
 38  4  1  0
 28 12  1  0
 36 29  1  0
 27 18  1  0
M  END
>  <Binding energies>  (72) 
[-8.9]

>  <Ligand effiencies>  (72) 
[-0.22820512820512823]

>  <Interactions>  (72) 
["V-A:PRO:540:CB:4885, V-B:LEU:475:CD1:9229, V-A:TYR:539:CD1:4873, V-A:PRO:540:CA:4883, H-A:ALA:541:N:4891, V-A:TYR:539:CE1:4875, V-B:ASP:366:CG:8184, V-A:PRO:540:N:4884, V-B:TYR:531:CZ:9766, V-A:TYR:539:CG:4872, V-A:ILE:538:CB:4862, V-A:ILE:538:CA:4860, V-B:LYS:534:CE:9794, V-A:ILE:538:CG2:4863, H-B:LYS:534:NZ:9795, H-A:TYR:539:OH:4878, H-B:TYR:531:OH:9767, V-A:LEU:363:CD1:3188, V-B:TYR:531:CE1:9764, V-B:ASP:366:CB:8183, V-B:PRO:482:CB:9297, V-B:PRO:482:CG:9298, V-B:LYS:534:CD:9793, V-B:ILE:369:CG2:8208, V-A:TYR:539:CB:4871, V-B:LEU:373:CD1:8251, V-B:SER:385:CB:8380, V-A:ILE:343:CG2:2991, V-B:HIS:383:CE1:8365, V-B:HIS:383:CD2:8363, V-A:VAL:344:CG1:3000, V-B:LEU:373:CD2:8252, V-B:SER:385:CA:8378, V-B:HIS:383:CG:8361, V-A:ILE:343:CB:2990, V-B:LEU:373:CG:8250, V-A:ILE:343:CG1:2992"]

$$$$
RR19_Rahimova_2017
     RDKit          3D

 46 51  0  0  0  0  0  0  0  0999 V2000
  133.1160  123.6830   59.9220 O   0  0  0  0  0  0  0  0  0  0  0  0
  132.8170  124.4410   60.8500 C   0  0  0  0  0  0  0  0  0  0  0  0
  131.9700  125.4990   60.7730 N   0  0  0  0  0  0  0  0  0  0  0  0
  131.0720  125.9120   59.8190 C   0  0  0  0  0  0  0  0  0  0  0  0
  130.5790  125.0100   58.4740 S   0  0  0  0  0  0  0  0  0  0  0  0
  130.6420  127.1760   60.1380 N   0  0  0  0  0  0  0  0  0  0  0  0
  129.6740  127.9790   59.6290 C   0  0  0  0  0  0  0  0  0  0  0  0
  128.7980  127.6500   58.8250 O   0  0  0  0  0  0  0  0  0  0  0  0
  129.7440  129.4430   60.1300 C   0  0  2  0  0  0  0  0  0  0  0  0
  131.1480  130.1050   60.0190 C   0  0  0  0  0  0  0  0  0  0  0  0
  131.4610  130.7370   58.6730 C   0  0  0  0  0  0  0  0  0  0  0  0
  132.5180  130.2510   57.8720 C   0  0  0  0  0  0  0  0  0  0  0  0
  132.7390  130.7900   56.6120 C   0  0  0  0  0  0  0  0  0  0  0  0
  131.9120  131.7950   56.1240 C   0  0  0  0  0  0  0  0  0  0  0  0
  130.8500  132.2620   56.8890 C   0  0  0  0  0  0  0  0  0  0  0  0
  130.6110  131.7360   58.1510 C   0  0  0  0  0  0  0  0  0  0  0  0
  129.1860  129.5710   61.5050 N   0  0  0  0  0  0  0  0  0  0  0  0
  129.0490  130.7890   62.1030 C   0  0  0  0  0  0  0  0  0  0  0  0
  129.3690  131.8870   61.6440 O   0  0  0  0  0  0  0  0  0  0  0  0
  128.4270  130.5140   63.4220 C   0  0  0  0  0  0  0  0  0  0  0  0
  128.0610  131.3750   64.4580 C   0  0  0  0  0  0  0  0  0  0  0  0
  127.4770  130.8300   65.6060 C   0  0  0  0  0  0  0  0  0  0  0  0
  127.2660  129.4480   65.7040 C   0  0  0  0  0  0  0  0  0  0  0  0
  127.6400  128.6020   64.6540 C   0  0  0  0  0  0  0  0  0  0  0  0
  128.2220  129.1650   63.5180 C   0  0  0  0  0  0  0  0  0  0  0  0
  128.7060  128.5400   62.2620 C   0  0  0  0  0  0  0  0  0  0  0  0
  128.6710  127.3450   61.9650 O   0  0  0  0  0  0  0  0  0  0  0  0
  133.4480  124.2230   62.2510 C   0  0  2  0  0  0  0  0  0  0  0  0
  133.9590  122.7730   62.4930 C   0  0  0  0  0  0  0  0  0  0  0  0
  132.9980  121.6950   62.0260 C   0  0  0  0  0  0  0  0  0  0  0  0
  131.6490  121.7210   62.4400 C   0  0  0  0  0  0  0  0  0  0  0  0
  130.7490  120.7930   61.9300 C   0  0  0  0  0  0  0  0  0  0  0  0
  131.1640  119.8560   60.9940 C   0  0  0  0  0  0  0  0  0  0  0  0
  132.4790  119.8440   60.5470 C   0  0  0  0  0  0  0  0  0  0  0  0
  133.3950  120.7620   61.0450 C   0  0  0  0  0  0  0  0  0  0  0  0
  132.5790  124.6900   63.3690 N   0  0  0  0  0  0  0  0  0  0  0  0
  133.1030  125.1430   64.5420 C   0  0  0  0  0  0  0  0  0  0  0  0
  134.2940  125.2160   64.8490 O   0  0  0  0  0  0  0  0  0  0  0  0
  131.9350  125.5310   65.3710 C   0  0  0  0  0  0  0  0  0  0  0  0
  131.8630  126.0520   66.6640 C   0  0  0  0  0  0  0  0  0  0  0  0
  130.6030  126.3320   67.2050 C   0  0  0  0  0  0  0  0  0  0  0  0
  129.4440  126.0930   66.4550 C   0  0  0  0  0  0  0  0  0  0  0  0
  129.5370  125.5720   65.1590 C   0  0  0  0  0  0  0  0  0  0  0  0
  130.8030  125.2970   64.6390 C   0  0  0  0  0  0  0  0  0  0  0  0
  131.2160  124.7540   63.3220 C   0  0  0  0  0  0  0  0  0  0  0  0
  130.4840  124.4310   62.3860 O   0  0  0  0  0  0  0  0  0  0  0  0
  1  2  2  0
  2  3  1  0
  3  4  1  0
  4  5  2  0
  4  6  1  0
  6  7  1  0
  7  8  2  0
  7  9  1  0
  9 10  1  1
 10 11  1  0
 11 12  2  0
 12 13  1  0
 13 14  2  0
 14 15  1  0
 15 16  2  0
  9 17  1  0
 17 18  1  0
 18 19  2  0
 18 20  1  0
 20 21  2  0
 21 22  1  0
 22 23  2  0
 23 24  1  0
 24 25  2  0
 25 26  1  0
 26 27  2  0
  2 28  1  0
 28 29  1  1
 29 30  1  0
 30 31  2  0
 31 32  1  0
 32 33  2  0
 33 34  1  0
 34 35  2  0
 28 36  1  0
 36 37  1  0
 37 38  2  0
 37 39  1  0
 39 40  2  0
 40 41  1  0
 41 42  2  0
 42 43  1  0
 43 44  2  0
 44 45  1  0
 45 46  2  0
 16 11  1  0
 26 17  1  0
 35 30  1  0
 45 36  1  0
 25 20  1  0
 44 39  1  0
M  END
>  <Binding energies>  (73) 
[-11.59]

>  <Ligand effiencies>  (73) 
[-0.24145833333333333]

>  <Interactions>  (73) 
["V-A:ALA:541:CB:4892, V-B:TYR:484:CE2:9317, V-A:PRO:540:CB:4885, V-A:HIS:456:CE1:4069, V-A:TYR:539:C:4867, V-A:PRO:540:CA:4883, H-A:ALA:541:N:4891, V-B:TYR:484:CZ:9318, V-B:GLU:543:CB:9878, V-A:GLU:543:CG:4907, V-A:GLU:543:CD:4908, V-A:PRO:540:N:4884, V-A:ASP:366:CG:3212, V-A:GLY:453:C:4041, V-A:GLY:454:CA:4048, V-A:LEU:475:CD1:4257, V-A:ARG:545:CZ:4926, V-B:GLU:543:CD:9880, V-B:ALA:541:CB:9864, V-B:GLU:543:CG:9879, V-A:ILE:538:CB:4862, V-A:TYR:531:CZ:4794, V-A:LEU:363:CD1:3188, H-A:ASP:366:OD2:3214, V-A:PRO:540:CD:4887, V-A:ASP:366:CB:3211, H-A:GLY:454:N:4049, H-A:TYR:484:OH:4347, H-A:ARG:545:NE:4924, V-A:ILE:369:CD1:3238, H-A:ARG:545:NH1:4927, H-A:ARG:545:NH2:4928, V-B:TYR:539:CD2:9846, V-A:ILE:369:CG2:3236, V-A:TYR:531:CE2:4793, H-A:ASP:366:OD1:3213"]

$$$$
RR1_Rahimova_2017
     RDKit          3D

 41 44  0  0  0  0  0  0  0  0999 V2000
  125.2060  121.7520   55.7250 C   0  0  0  0  0  0  0  0  0  0  0  0
  126.5550  121.6840   56.1730 O   0  0  0  0  0  0  0  0  0  0  0  0
  126.8970  122.2760   57.3730 C   0  0  0  0  0  0  0  0  0  0  0  0
  126.0020  122.9840   58.1900 C   0  0  0  0  0  0  0  0  0  0  0  0
  126.4410  123.5550   59.3820 C   0  0  0  0  0  0  0  0  0  0  0  0
  127.7720  123.4230   59.7800 C   0  0  0  0  0  0  0  0  0  0  0  0
  128.1280  124.0740   60.9770 N   0  0  0  0  0  0  0  0  0  0  0  0
  128.1040  123.6080   62.2440 C   0  0  0  0  0  0  0  0  0  0  0  0
  127.6780  122.5010   62.5760 O   0  0  0  0  0  0  0  0  0  0  0  0
  128.6570  124.5830   63.2950 C   0  0  0  0  0  0  0  0  0  0  0  0
  129.6530  123.8220   64.6240 S   0  0  0  0  0  0  0  0  0  0  0  0
  130.6520  122.7830   63.6100 C   0  0  0  0  0  0  0  0  0  0  0  0
  130.2270  121.6840   63.0390 N   0  0  0  0  0  0  0  0  0  0  0  0
  131.2900  121.2400   62.3750 C   0  0  0  0  0  0  0  0  0  0  0  0
  131.2550  119.9860   61.5480 C   0  0  0  0  0  0  0  0  0  0  0  0
  130.1050  119.1830   61.4810 C   0  0  0  0  0  0  0  0  0  0  0  0
  130.1030  118.0220   60.7060 C   0  0  0  0  0  0  0  0  0  0  0  0
  131.2620  117.6860   60.0090 C   0  0  0  0  0  0  0  0  0  0  0  0
  132.3910  118.4390   60.0520 N   0  0  0  0  0  0  0  0  0  0  0  0
  132.3720  119.5650   60.8100 C   0  0  0  0  0  0  0  0  0  0  0  0
  132.3770  121.9790   62.4880 N   0  0  0  0  0  0  0  0  0  0  0  0
  131.9700  122.9720   63.2840 N   0  0  0  0  0  0  0  0  0  0  0  0
  132.8840  124.0530   63.6520 C   0  0  0  0  0  0  0  0  0  0  0  0
  132.2190  125.4240   63.8640 C   0  0  0  0  0  0  0  0  0  0  0  0
  132.5770  126.1660   64.7850 O   0  0  0  0  0  0  0  0  0  0  0  0
  131.2430  125.7240   62.9850 N   0  0  0  0  0  0  0  0  0  0  0  0
  130.6990  127.0000   63.0220 N   0  0  0  0  0  0  0  0  0  0  0  0
  130.0230  127.4300   61.9340 C   0  0  0  0  0  0  0  0  0  0  0  0
  129.7710  126.7230   60.9520 O   0  0  0  0  0  0  0  0  0  0  0  0
  129.5440  128.8660   61.9840 C   0  0  0  0  0  0  0  0  0  0  0  0
  128.5640  129.2440   62.9080 C   0  0  0  0  0  0  0  0  0  0  0  0
  128.1010  130.5540   62.9620 C   0  0  0  0  0  0  0  0  0  0  0  0
  128.6020  131.5300   62.0860 C   0  0  0  0  0  0  0  0  0  0  0  0
  128.1760  132.8460   62.0790 O   0  0  0  0  0  0  0  0  0  0  0  0
  127.1940  133.2600   61.1360 C   0  0  0  0  0  0  0  0  0  0  0  0
  129.5790  131.1700   61.1480 C   0  0  0  0  0  0  0  0  0  0  0  0
  130.0260  132.1650   60.2940 O   0  0  0  0  0  0  0  0  0  0  0  0
  129.6960  132.1040   58.9110 C   0  0  0  0  0  0  0  0  0  0  0  0
  130.0440  129.8440   61.1080 C   0  0  0  0  0  0  0  0  0  0  0  0
  128.6690  122.7150   58.9670 C   0  0  0  0  0  0  0  0  0  0  0  0
  128.2270  122.1450   57.7760 C   0  0  0  0  0  0  0  0  0  0  0  0
  1  2  1  0
  2  3  1  0
  3  4  2  0
  4  5  1  0
  5  6  2  0
  6  7  1  0
  7  8  1  0
  8  9  2  0
  8 10  1  0
 10 11  1  0
 11 12  1  0
 12 13  2  0
 13 14  1  0
 14 15  1  0
 15 16  2  0
 16 17  1  0
 17 18  2  0
 18 19  1  0
 19 20  2  0
 14 21  2  0
 21 22  1  0
 22 23  1  0
 23 24  1  0
 24 25  2  0
 24 26  1  0
 26 27  1  0
 27 28  1  0
 28 29  2  0
 28 30  1  0
 30 31  2  0
 31 32  1  0
 32 33  2  0
 33 34  1  0
 34 35  1  0
 33 36  1  0
 36 37  1  0
 37 38  1  0
 36 39  2  0
  6 40  1  0
 40 41  2  0
 41  3  1  0
 22 12  1  0
 39 30  1  0
 20 15  1  0
M  END
>  <Binding energies>  (74) 
[-9.41]

>  <Ligand effiencies>  (74) 
[-0.21386363636363637]

>  <Interactions>  (74) 
["V-A:ALA:541:CB:4892, V-A:TYR:539:CD1:4873, V-A:TYR:539:C:4867, V-A:PRO:540:CA:4883, H-A:ALA:541:N:4891, V-A:GLU:543:CD:4908, H-A:GLU:543:OE2:4910, V-A:PRO:540:N:4884, V-B:TYR:539:C:9839, V-B:PRO:540:CB:9857, V-A:LEU:475:CD1:4257, V-A:ARG:545:CZ:4926, V-B:PRO:540:C:9853, V-B:GLU:543:CD:9880, V-B:PRO:540:CA:9855, H-B:ALA:541:N:9863, V-B:ALA:541:CB:9864, V-B:PRO:540:N:9856, V-B:GLU:543:CG:9879, H-B:TYR:539:N:9842, V-B:ILE:538:CG2:9835, V-B:MET:535:CE:9807, V-B:LEU:363:CD1:8160, V-B:PRO:540:CD:9859, V-B:ILE:538:CA:9832, V-B:TYR:539:CE2:9848, V-B:TYR:539:CZ:9849, H-A:TYR:484:OH:4347, H-A:ARG:545:NE:4924, H-A:ARG:545:NH2:4928, V-B:TYR:539:CD2:9846, V-B:ILE:538:CG1:9836, V-B:ILE:538:CB:9834, H-A:GLU:543:OE1:4909, V-B:TYR:539:CG:9844, V-A:PRO:482:CB:4325, V-A:PRO:482:CG:4326, V-B:ALA:541:CA:9862, V-B:TYR:539:CB:9843, H-A:HIS:383:NE2:3393, V-A:HIS:383:CE1:3392"]

$$$$
RR22_Rahimova_2017
     RDKit          3D

 31 36  0  0  0  0  0  0  0  0999 V2000
  123.7250  129.6670   55.7520 O   0  0  0  0  0  0  0  0  0  0  0  0
  124.6290  129.6720   56.5840 C   0  0  0  0  0  0  0  0  0  0  0  0
  124.5230  129.4600   57.9480 N   0  0  0  0  0  0  0  0  0  0  0  0
  125.6900  129.4390   58.7750 C   0  0  1  0  0  0  0  0  0  0  0  0
  125.4510  130.4220   59.7860 O   0  0  0  0  0  0  0  0  0  0  0  0
  125.4440  130.0140   61.1200 C   0  0  0  0  0  0  0  0  0  0  0  0
  124.8550  130.8870   62.0350 C   0  0  0  0  0  0  0  0  0  0  0  0
  124.8470  130.5650   63.3930 C   0  0  0  0  0  0  0  0  0  0  0  0
  125.4330  129.3780   63.8330 C   0  0  0  0  0  0  0  0  0  0  0  0
  126.0220  128.5050   62.9180 C   0  0  0  0  0  0  0  0  0  0  0  0
  126.0170  128.8020   61.5510 C   0  0  0  0  0  0  0  0  0  0  0  0
  126.6650  127.9460   60.4870 C   0  0  1  0  0  0  0  0  0  0  0  0
  126.7500  126.4370   60.5960 C   0  0  0  0  0  0  0  0  0  0  0  0
  126.7190  126.0650   59.1100 C   0  0  0  0  0  0  0  0  0  0  0  0
  127.1580  124.7480   58.6080 C   0  0  0  0  0  0  0  0  0  0  0  0
  126.2460  123.8790   57.9910 C   0  0  0  0  0  0  0  0  0  0  0  0
  126.6660  122.6390   57.5180 C   0  0  0  0  0  0  0  0  0  0  0  0
  127.9980  122.2610   57.6570 C   0  0  0  0  0  0  0  0  0  0  0  0
  128.9160  123.1120   58.2660 C   0  0  0  0  0  0  0  0  0  0  0  0
  128.4980  124.3530   58.7390 C   0  0  0  0  0  0  0  0  0  0  0  0
  126.2470  127.0230   58.4040 N   0  0  0  0  0  0  0  0  0  0  0  0
  125.9130  128.0740   59.2750 N   0  0  0  0  0  0  0  0  0  0  0  0
  126.8390  129.9490   57.9190 C   0  0  0  0  0  0  0  0  0  0  0  0
  128.0090  130.3890   58.4410 C   0  0  0  0  0  0  0  0  0  0  0  0
  129.2030  130.8870   57.7310 C   0  0  0  0  0  0  0  0  0  0  0  0
  130.4910  130.3770   57.9450 C   0  0  0  0  0  0  0  0  0  0  0  0
  131.5750  130.8990   57.2370 C   0  0  0  0  0  0  0  0  0  0  0  0
  131.3410  131.9310   56.3290 C   0  0  0  0  0  0  0  0  0  0  0  0
  130.1070  132.4500   56.1070 N   0  0  0  0  0  0  0  0  0  0  0  0
  129.0660  131.9280   56.8050 C   0  0  0  0  0  0  0  0  0  0  0  0
  126.3830  129.9730   56.2090 S   0  0  0  0  0  0  0  0  0  0  0  0
  1  2  2  0
  2  3  1  0
  4  3  1  6
  4  5  1  0
  5  6  1  0
  6  7  2  0
  7  8  1  0
  8  9  2  0
  9 10  1  0
 10 11  2  0
 11 12  1  0
 12 13  1  1
 13 14  1  0
 14 15  1  0
 15 16  2  0
 16 17  1  0
 17 18  2  0
 18 19  1  0
 19 20  2  0
 14 21  2  0
 21 22  1  0
  4 23  1  0
 23 24  2  0
 24 25  1  0
 25 26  2  0
 26 27  1  0
 27 28  2  0
 28 29  1  0
 29 30  2  0
 23 31  1  0
 31  2  1  0
 22  4  1  0
 30 25  1  0
 11  6  1  0
 22 12  1  0
 20 15  1  0
M  END
>  <Binding energies>  (75) 
[-9.2]

>  <Ligand effiencies>  (75) 
[-0.2875]

>  <Interactions>  (75) 
["V-A:TYR:539:CD1:4873, V-A:TYR:539:C:4867, V-A:TYR:539:CE1:4875, V-B:ASP:366:CG:8184, V-B:ARG:545:CZ:9898, V-A:PRO:540:N:4884, V-B:TYR:539:C:9839, V-B:PRO:540:CB:9857, V-B:PRO:540:CA:9855, V-B:PRO:540:N:9856, V-B:TYR:531:CZ:9766, V-A:TYR:539:CG:4872, H-B:ASP:366:OD2:8186, V-A:TYR:539:CZ:4877, H-A:TYR:539:N:4870, H-A:TYR:539:OH:4878, H-B:TYR:531:OH:9767, V-B:TYR:531:CE1:9764, V-A:PRO:540:CD:4887, V-B:MET:535:CE:9807, V-B:ASP:366:CB:8183, V-B:TYR:539:CE2:9848, V-B:TYR:539:CZ:9849, V-B:TYR:539:CD2:9846, V-B:ASP:366:CA:8181, V-B:TYR:539:CG:9844, V-B:ASP:366:C:8179, V-B:TYR:531:CD1:9762, H-B:ASP:366:O:8180"]

$$$$
RR24_Rahimova_2017
     RDKit          3D

 43 49  0  0  0  0  0  0  0  0999 V2000
  128.6280  132.5360   55.0190 C   0  0  0  0  0  0  0  0  0  0  0  0
  129.5220  131.2900   55.0860 C   0  0  2  0  0  0  0  0  0  0  0  0
  128.7530  129.9660   54.8010 C   0  0  0  0  0  0  0  0  0  0  0  0
  127.5200  129.9030   54.8390 O   0  0  0  0  0  0  0  0  0  0  0  0
  129.5920  128.9200   54.5410 O   0  0  0  0  0  0  0  0  0  0  0  0
  129.5530  127.8030   55.3440 C   0  0  0  0  0  0  0  0  0  0  0  0
  130.1120  126.6090   54.8830 C   0  0  0  0  0  0  0  0  0  0  0  0
  130.0880  125.4750   55.6900 C   0  0  0  0  0  0  0  0  0  0  0  0
  129.5140  125.5320   56.9630 C   0  0  0  0  0  0  0  0  0  0  0  0
  129.4730  124.2740   57.8400 C   0  0  1  0  0  0  0  0  0  0  0  0
  130.7110  124.1720   58.7610 C   0  0  0  0  0  0  0  0  0  0  0  0
  130.6170  123.9620   60.0870 C   0  0  0  0  0  0  0  0  0  0  0  0
  129.4070  123.8250   60.7220 N   0  0  0  0  0  0  0  0  0  0  0  0
  128.2230  123.8970   60.0280 C   0  0  0  0  0  0  0  0  0  0  0  0
  127.1180  123.7330   60.8000 N   0  0  0  0  0  0  0  0  0  0  0  0
  125.8570  123.8500   60.3020 C   0  0  0  0  0  0  0  0  0  0  0  0
  124.9150  124.0100   61.0800 O   0  0  0  0  0  0  0  0  0  0  0  0
  125.8020  123.9430   58.9200 N   0  0  0  0  0  0  0  0  0  0  0  0
  124.4520  123.9810   58.3210 C   0  0  0  0  0  0  0  0  0  0  0  0
  126.8580  124.1160   58.0420 C   0  0  0  0  0  0  0  0  0  0  0  0
  126.7300  124.2440   56.8210 O   0  0  0  0  0  0  0  0  0  0  0  0
  128.1750  124.1120   58.6870 C   0  0  0  0  0  0  0  0  0  0  0  0
  131.9350  123.9110   60.6970 C   0  0  0  0  0  0  0  0  0  0  0  0
  132.3680  123.7250   62.0110 C   0  0  0  0  0  0  0  0  0  0  0  0
  133.7390  123.7280   62.2830 C   0  0  0  0  0  0  0  0  0  0  0  0
  134.6620  123.9120   61.2490 C   0  0  0  0  0  0  0  0  0  0  0  0
  134.2210  124.0970   59.9360 C   0  0  0  0  0  0  0  0  0  0  0  0
  132.8510  124.0950   59.6700 C   0  0  0  0  0  0  0  0  0  0  0  0
  132.1200  124.2630   58.3960 C   0  0  0  0  0  0  0  0  0  0  0  0
  132.5530  124.4410   57.2590 O   0  0  0  0  0  0  0  0  0  0  0  0
  128.9710  126.7340   57.4300 C   0  0  0  0  0  0  0  0  0  0  0  0
  128.9970  127.8690   56.6240 C   0  0  0  0  0  0  0  0  0  0  0  0
  130.3060  131.2300   56.3560 N   0  0  0  0  0  0  0  0  0  0  0  0
  131.6680  131.2100   56.3520 C   0  0  0  0  0  0  0  0  0  0  0  0
  132.4140  131.2290   55.3710 O   0  0  0  0  0  0  0  0  0  0  0  0
  132.0660  131.1610   57.7810 C   0  0  0  0  0  0  0  0  0  0  0  0
  133.3280  131.1230   58.3770 C   0  0  0  0  0  0  0  0  0  0  0  0
  133.4060  131.0840   59.7740 C   0  0  0  0  0  0  0  0  0  0  0  0
  132.2390  131.0850   60.5470 C   0  0  0  0  0  0  0  0  0  0  0  0
  130.9840  131.1240   59.9310 C   0  0  0  0  0  0  0  0  0  0  0  0
  130.9250  131.1620   58.5370 C   0  0  0  0  0  0  0  0  0  0  0  0
  129.7660  131.2100   57.6120 C   0  0  0  0  0  0  0  0  0  0  0  0
  128.5720  131.2340   57.9140 O   0  0  0  0  0  0  0  0  0  0  0  0
  2  1  1  1
  2  3  1  0
  3  4  2  0
  3  5  1  0
  5  6  1  0
  6  7  2  0
  7  8  1  0
  8  9  2  0
 10  9  1  1
 10 11  1  0
 11 12  2  0
 12 13  1  0
 13 14  1  0
 14 15  1  0
 15 16  1  0
 16 17  2  0
 16 18  1  0
 18 19  1  0
 18 20  1  0
 20 21  2  0
 20 22  1  0
 12 23  1  0
 23 24  2  0
 24 25  1  0
 25 26  2  0
 26 27  1  0
 27 28  2  0
 28 29  1  0
 29 30  2  0
  9 31  1  0
 31 32  2  0
  2 33  1  0
 33 34  1  0
 34 35  2  0
 34 36  1  0
 36 37  2  0
 37 38  1  0
 38 39  2  0
 39 40  1  0
 40 41  2  0
 41 42  1  0
 42 43  2  0
 32  6  1  0
 42 33  1  0
 22 10  1  0
 28 23  1  0
 41 36  1  0
 29 11  1  0
 22 14  2  0
M  END
>  <Binding energies>  (76) 
[-11.22]

>  <Ligand effiencies>  (76) 
[-0.24933333333333335]

>  <Interactions>  (76) 
["V-A:PRO:540:CB:4885, V-A:TYR:539:CD1:4873, V-A:PRO:540:CA:4883, V-A:TYR:539:CE1:4875, H-A:TYR:531:OH:4795, V-A:ASP:366:CG:3212, H-B:GLU:543:OE1:9881, V-B:PRO:540:CB:9857, V-B:PRO:540:CA:9855, V-A:TYR:539:CG:4872, V-A:TYR:539:CE2:4876, V-A:ILE:538:C:4858, V-A:ILE:538:CB:4862, V-A:TYR:539:CZ:4877, V-A:TYR:539:CD2:4874, V-A:ILE:538:CA:4860, H-B:LYS:534:NZ:9795, H-A:TYR:539:OH:4878, H-B:TYR:531:OH:9767, V-A:LEU:363:CD1:3188, V-A:LEU:363:CB:3186, V-A:LEU:363:CA:3184, V-A:ASP:366:CB:3211, V-B:MET:535:CE:9807, V-B:LEU:363:CD1:8160, V-B:LEU:363:CA:8156, V-B:LEU:363:CB:8158, V-B:TYR:539:CE2:9848, V-B:TYR:539:CZ:9849, V-B:TYR:531:CE2:9765, H-B:ARG:545:NH2:9900, V-A:ILE:369:CD1:3238, V-A:ILE:369:CB:3235, V-A:ASP:366:CA:3209, V-A:ILE:369:CG2:3236, H-B:TYR:539:OH:9850, V-A:ASN:362:C:3171"]

$$$$
RR25_Rahimova_2017
     RDKit          3D

 39 44  0  0  0  0  0  0  0  0999 V2000
  123.5640  129.5510   64.4430 O   0  0  0  0  0  0  0  0  0  0  0  0
  124.7080  129.5140   64.8970 C   0  0  0  0  0  0  0  0  0  0  0  0
  124.8720  128.8260   66.0740 O   0  0  0  0  0  0  0  0  0  0  0  0
  126.1280  128.5020   66.5510 C   0  0  0  0  0  0  0  0  0  0  0  0
  126.2140  127.3880   67.3850 C   0  0  0  0  0  0  0  0  0  0  0  0
  127.4490  127.0090   67.9080 C   0  0  0  0  0  0  0  0  0  0  0  0
  128.6100  127.7380   67.6120 C   0  0  0  0  0  0  0  0  0  0  0  0
  129.9240  127.3270   68.1640 N   0  0  0  0  0  0  0  0  0  0  0  0
  130.3460  126.2030   67.9050 O   0  0  0  0  0  0  0  0  0  0  0  0
  130.5430  128.1260   68.8610 O   0  0  0  0  0  0  0  0  0  0  0  0
  128.4990  128.8640   66.7810 C   0  0  0  0  0  0  0  0  0  0  0  0
  127.2680  129.2630   66.2530 C   0  0  0  0  0  0  0  0  0  0  0  0
  127.0990  130.4650   65.3430 C   0  0  0  0  0  0  0  0  0  0  0  0
  125.9830  130.1780   64.2990 C   0  0  2  0  0  0  0  0  0  0  0  0
  125.7120  131.4260   63.4090 C   0  0  0  0  0  0  0  0  0  0  0  0
  126.1460  132.5000   63.8360 O   0  0  0  0  0  0  0  0  0  0  0  0
  125.1430  131.3270   62.1700 N   0  0  0  0  0  0  0  0  0  0  0  0
  124.3420  130.1580   61.7470 C   0  0  0  0  0  0  0  0  0  0  0  0
  124.6170  129.8740   60.2560 C   0  0  0  0  0  0  0  0  0  0  0  0
  124.3710  131.0600   59.4310 N   0  0  0  0  0  0  0  0  0  0  0  0
  124.5030  130.7570   57.9990 C   0  0  0  0  0  0  0  0  0  0  0  0
  125.5570  129.6550   57.7120 C   0  0  0  0  0  0  0  0  0  0  0  0
  126.9040  130.1320   57.2810 N   0  0  0  0  0  0  0  0  0  0  0  0
  127.7840  130.4110   58.3050 C   0  0  0  0  0  0  0  0  0  0  0  0
  127.4850  130.3140   59.5000 O   0  0  0  0  0  0  0  0  0  0  0  0
  129.1690  130.8320   57.8500 C   0  0  0  0  0  0  0  0  0  0  0  0
  130.1510  131.1140   58.8070 C   0  0  0  0  0  0  0  0  0  0  0  0
  131.4360  131.4960   58.4240 C   0  0  0  0  0  0  0  0  0  0  0  0
  131.7800  131.6030   57.0780 C   0  0  0  0  0  0  0  0  0  0  0  0
  130.8200  131.3280   56.0750 C   0  0  0  0  0  0  0  0  0  0  0  0
  131.1030  131.4160   54.6910 C   0  0  0  0  0  0  0  0  0  0  0  0
  130.1110  131.1270   53.7550 C   0  0  0  0  0  0  0  0  0  0  0  0
  128.8320  130.7510   54.1600 C   0  0  0  0  0  0  0  0  0  0  0  0
  128.5070  130.6500   55.5190 C   0  0  0  0  0  0  0  0  0  0  0  0
  129.5120  130.9410   56.4780 C   0  0  0  0  0  0  0  0  0  0  0  0
  127.1060  130.2280   55.9200 C   0  0  0  0  0  0  0  0  0  0  0  0
  126.2330  129.9780   55.0830 O   0  0  0  0  0  0  0  0  0  0  0  0
  125.2670  132.1440   59.8390 C   0  0  0  0  0  0  0  0  0  0  0  0
  125.0520  132.5360   61.3200 C   0  0  0  0  0  0  0  0  0  0  0  0
  1  2  2  0
  2  3  1  0
  3  4  1  0
  4  5  2  0
  5  6  1  0
  6  7  2  0
  7  8  1  0
  8  9  2  0
  8 10  1  0
  7 11  1  0
 11 12  2  0
 12 13  1  0
 13 14  1  0
 14 15  1  1
 15 16  2  0
 15 17  1  0
 17 18  1  0
 18 19  1  0
 19 20  1  0
 20 21  1  0
 21 22  1  0
 22 23  1  0
 23 24  1  0
 24 25  2  0
 24 26  1  0
 26 27  2  0
 27 28  1  0
 28 29  2  0
 29 30  1  0
 30 31  2  0
 31 32  1  0
 32 33  2  0
 33 34  1  0
 34 35  2  0
 34 36  1  0
 36 37  2  0
 20 38  1  0
 38 39  1  0
 14  2  1  0
 39 17  1  0
 12  4  1  0
 36 23  1  0
 35 26  1  0
 35 30  1  0
M  CHG  2   8   1  10  -1
M  END
>  <Binding energies>  (77) 
[-10.46]

>  <Ligand effiencies>  (77) 
[-0.2682051282051282]

>  <Interactions>  (77) 
["V-B:ARG:545:CG:9894, V-B:TYR:484:CE2:9317, V-B:HIS:456:CE1:9041, V-A:PRO:540:CB:4885, V-A:HIS:456:CE1:4069, V-B:LEU:475:CD1:9229, V-A:TYR:539:CD1:4873, V-A:PRO:540:CA:4883, V-B:GLU:543:CB:9878, V-A:GLU:543:CG:4907, V-B:ARG:545:CD:9895, V-A:TYR:539:CE1:4875, V-A:GLU:543:CB:4906, V-B:ASP:366:CG:8184, V-A:GLU:543:CD:4908, V-B:ARG:545:CZ:9898, V-A:PRO:540:N:4884, V-B:GLU:543:CD:9880, H-B:TYR:484:OH:9319, H-B:GLY:454:N:9021, V-A:ILE:538:CB:4862, V-A:TYR:539:CZ:4877, V-A:ILE:538:CA:4860, V-A:TYR:531:CZ:4794, V-A:MET:535:CG:4833, V-B:LYS:534:CE:9794, V-A:ILE:538:CG2:4863, H-B:LYS:534:NZ:9795, H-A:TYR:539:OH:4878, H-B:TYR:531:OH:9767, V-A:LEU:363:CD1:3188, V-B:TYR:531:CE1:9764, V-A:PRO:540:CD:4887, V-B:ASP:366:CB:8183, V-B:ILE:369:CG2:8208, H-B:ARG:545:NH1:9899, H-B:ARG:545:NH2:9900, H-B:ARG:545:NE:9896, V-B:ASP:366:CA:8181, V-A:MET:535:CB:4832, V-A:TYR:531:CE2:4793, V-B:ASP:366:C:8179"]

$$$$
RR27_Rahimova_2017
     RDKit          3D

 39 44  0  0  0  0  0  0  0  0999 V2000
  129.1370  122.8350   58.5660 O   0  0  0  0  0  0  0  0  0  0  0  0
  129.4670  123.8220   59.2300 C   0  0  0  0  0  0  0  0  0  0  0  0
  128.6790  124.1280   60.5370 C   0  0  0  0  0  0  0  0  0  0  0  0
  129.2770  123.4420   61.7790 C   0  0  0  0  0  0  0  0  0  0  0  0
  129.2060  124.0250   63.0540 C   0  0  0  0  0  0  0  0  0  0  0  0
  129.7550  123.3760   64.1560 C   0  0  0  0  0  0  0  0  0  0  0  0
  130.3790  122.1430   63.9890 C   0  0  0  0  0  0  0  0  0  0  0  0
  130.4610  121.5540   62.7310 C   0  0  0  0  0  0  0  0  0  0  0  0
  129.9110  122.2030   61.6290 C   0  0  0  0  0  0  0  0  0  0  0  0
  127.1630  123.9260   60.3510 C   0  0  0  0  0  0  0  0  0  0  0  0
  126.5220  124.2240   59.1410 C   0  0  0  0  0  0  0  0  0  0  0  0
  125.1470  124.0400   59.0110 C   0  0  0  0  0  0  0  0  0  0  0  0
  124.4090  123.5650   60.0910 C   0  0  0  0  0  0  0  0  0  0  0  0
  125.0310  123.2750   61.3030 C   0  0  0  0  0  0  0  0  0  0  0  0
  126.4030  123.4600   61.4320 C   0  0  0  0  0  0  0  0  0  0  0  0
  130.5810  124.5460   58.9290 N   0  0  0  0  0  0  0  0  0  0  0  0
  130.8780  125.8610   59.5180 C   0  0  0  0  0  0  0  0  0  0  0  0
  130.1820  126.9160   58.6300 C   0  0  0  0  0  0  0  0  0  0  0  0
  130.5950  126.8080   57.1280 C   0  0  0  0  0  0  0  0  0  0  0  0
  129.8460  127.7640   56.1810 C   0  0  0  0  0  0  0  0  0  0  0  0
  129.1670  127.1860   55.1470 N   0  0  0  0  0  0  0  0  0  0  0  0
  128.4650  127.9850   54.2960 C   0  0  0  0  0  0  0  0  0  0  0  0
  127.7440  127.5240   53.2270 O   0  0  0  0  0  0  0  0  0  0  0  0
  128.4700  129.3760   54.5170 C   0  0  0  0  0  0  0  0  0  0  0  0
  127.8870  130.4320   53.8800 N   0  0  0  0  0  0  0  0  0  0  0  0
  128.2610  131.5780   54.5570 N   0  0  0  0  0  0  0  0  0  0  0  0
  129.0510  131.2320   55.5960 N   0  0  0  0  0  0  0  0  0  0  0  0
  129.6140  132.2560   56.4720 C   0  0  0  0  0  0  0  0  0  0  0  0
  130.7210  131.7420   57.3830 C   0  0  0  0  0  0  0  0  0  0  0  0
  132.0030  131.5160   56.8730 C   0  0  0  0  0  0  0  0  0  0  0  0
  133.0210  131.0550   57.7100 C   0  0  0  0  0  0  0  0  0  0  0  0
  132.7630  130.8240   59.0610 C   0  0  0  0  0  0  0  0  0  0  0  0
  131.4880  131.0570   59.5780 C   0  0  0  0  0  0  0  0  0  0  0  0
  131.1740  130.7970   61.2560 Cl  0  0  0  0  0  0  0  0  0  0  0  0
  130.4690  131.5100   58.7400 C   0  0  0  0  0  0  0  0  0  0  0  0
  129.2190  129.8570   55.6130 C   0  0  0  0  0  0  0  0  0  0  0  0
  129.9210  129.0970   56.4570 N   0  0  0  0  0  0  0  0  0  0  0  0
  130.6050  125.3290   56.6320 C   0  0  0  0  0  0  0  0  0  0  0  0
  131.2630  124.3530   57.6390 C   0  0  0  0  0  0  0  0  0  0  0  0
  1  2  2  0
  2  3  1  0
  3  4  1  0
  4  5  2  0
  5  6  1  0
  6  7  2  0
  7  8  1  0
  8  9  2  0
  3 10  1  0
 10 11  2  0
 11 12  1  0
 12 13  2  0
 13 14  1  0
 14 15  2  0
  2 16  1  0
 16 17  1  0
 17 18  1  0
 18 19  1  0
 19 20  1  0
 20 21  2  0
 21 22  1  0
 22 23  1  0
 22 24  2  0
 24 25  1  0
 25 26  2  0
 26 27  1  0
 27 28  1  0
 28 29  1  0
 29 30  2  0
 30 31  1  0
 31 32  2  0
 32 33  1  0
 33 34  1  0
 33 35  2  0
 27 36  1  0
 36 37  2  0
 19 38  1  0
 38 39  1  0
  9  4  1  0
 15 10  1  0
 39 16  1  0
 37 20  1  0
 36 24  1  0
 35 29  1  0
M  END
>  <Binding energies>  (78) 
[-10.8]

>  <Ligand effiencies>  (78) 
[-0.27]

>  <Interactions>  (78) 
["V-A:PRO:540:CB:4885, V-A:TYR:539:CD1:4873, V-A:TYR:539:C:4867, V-A:PRO:540:CA:4883, V-A:TYR:539:CE1:4875, H-A:TYR:531:OH:4795, V-B:ASP:366:CG:8184, V-A:GLU:543:CD:4908, V-A:PRO:540:N:4884, V-A:ASP:366:CG:3212, V-B:PRO:540:CB:9857, V-A:LEU:475:CD1:4257, V-B:GLU:543:CD:9880, V-B:PRO:540:CA:9855, V-B:ALA:541:CB:9864, V-B:GLU:543:CG:9879, V-B:TYR:531:CZ:9766, V-A:TYR:539:CG:4872, H-B:MET:535:SD:9806, H-B:LYS:534:NZ:9795, H-A:TYR:539:OH:4878, H-B:TYR:531:OH:9767, V-A:LEU:363:CD1:3188, V-B:TYR:531:CE1:9764, V-A:LEU:363:CA:3184, V-B:LEU:363:CA:8156, V-B:TYR:539:CE2:9848, V-B:TYR:539:CZ:9849, V-A:TYR:539:CA:4869, V-B:ASN:362:CB:8147"]

$$$$
RR28_Rahimova_2017
     RDKit          3D

 46 49  0  0  0  0  0  0  0  0999 V2000
  130.9460  121.8870   61.5750 C   0  0  0  0  0  0  0  0  0  0  0  0
  129.6030  122.5790   61.3730 C   0  0  0  0  0  0  0  0  0  0  0  0
  128.5730  122.0320   61.7620 O   0  0  0  0  0  0  0  0  0  0  0  0
  129.6360  123.7810   60.7620 N   0  0  0  0  0  0  0  0  0  0  0  0
  128.5010  124.6710   60.4290 C   0  0  0  0  0  0  0  0  0  0  0  0
  127.6780  124.0030   59.2900 C   0  0  0  0  0  0  0  0  0  0  0  0
  128.3000  123.0670   58.4490 C   0  0  0  0  0  0  0  0  0  0  0  0
  127.5960  122.4530   57.4180 C   0  0  0  0  0  0  0  0  0  0  0  0
  126.2520  122.7610   57.2020 C   0  0  0  0  0  0  0  0  0  0  0  0
  125.4970  122.0800   56.0620 C   0  0  0  0  0  0  0  0  0  0  0  0
  124.5500  121.2500   56.5060 F   0  0  0  0  0  0  0  0  0  0  0  0
  124.9120  122.9920   55.2840 F   0  0  0  0  0  0  0  0  0  0  0  0
  126.3570  121.3760   55.3260 F   0  0  0  0  0  0  0  0  0  0  0  0
  125.6210  123.6920   58.0320 C   0  0  0  0  0  0  0  0  0  0  0  0
  126.3260  124.3060   59.0640 C   0  0  0  0  0  0  0  0  0  0  0  0
  129.0160  126.1110   60.0750 C   0  0  0  0  0  0  0  0  0  0  0  0
  129.6690  126.8420   61.2760 C   0  0  0  0  0  0  0  0  0  0  0  0
  128.6430  126.9110   62.3290 N   0  0  0  0  0  0  0  0  0  0  0  0
  127.8440  128.0070   62.4400 C   0  0  0  0  0  0  0  0  0  0  0  0
  128.0500  129.0350   61.7920 O   0  0  0  0  0  0  0  0  0  0  0  0
  126.7440  128.0230   63.5300 C   0  0  0  0  0  0  0  0  0  0  0  0
  126.6810  129.3010   64.4110 C   0  0  0  0  0  0  0  0  0  0  0  0
  125.4240  130.1790   64.2040 C   0  0  0  0  0  0  0  0  0  0  0  0
  124.3250  129.6910   64.4840 O   0  0  0  0  0  0  0  0  0  0  0  0
  125.5650  131.4900   63.8580 N   0  0  0  0  0  0  0  0  0  0  0  0
  126.7710  132.0320   63.2210 C   0  0  0  0  0  0  0  0  0  0  0  0
  126.6120  131.7950   61.7040 C   0  0  0  0  0  0  0  0  0  0  0  0
  125.3150  132.4120   61.0750 C   0  0  0  0  0  0  0  0  0  0  0  0
  125.0750  131.7940   59.7540 N   0  0  0  0  0  0  0  0  0  0  0  0
  124.9840  130.4830   59.4530 C   0  0  0  0  0  0  0  0  0  0  0  0
  124.7470  130.1400   57.9860 C   0  0  0  0  0  0  0  0  0  0  0  0
  125.0820  129.5770   60.2810 O   0  0  0  0  0  0  0  0  0  0  0  0
  125.5860  133.9340   60.8410 C   0  0  0  0  0  0  0  0  0  0  0  0
  126.7910  134.5570   61.2060 C   0  0  0  0  0  0  0  0  0  0  0  0
  126.9930  135.9160   60.9790 C   0  0  0  0  0  0  0  0  0  0  0  0
  125.9940  136.6880   60.3830 C   0  0  0  0  0  0  0  0  0  0  0  0
  126.2020  138.1790   60.1230 C   0  0  0  0  0  0  0  0  0  0  0  0
  127.4170  138.4030   59.6180 F   0  0  0  0  0  0  0  0  0  0  0  0
  125.2920  138.6020   59.2460 F   0  0  0  0  0  0  0  0  0  0  0  0
  126.0800  138.9050   61.2360 F   0  0  0  0  0  0  0  0  0  0  0  0
  124.7880  136.0850   60.0210 C   0  0  0  0  0  0  0  0  0  0  0  0
  124.5900  134.7270   60.2490 C   0  0  0  0  0  0  0  0  0  0  0  0
  124.0960  132.1400   62.0400 C   0  0  0  0  0  0  0  0  0  0  0  0
  124.3800  132.3030   63.5570 C   0  0  0  0  0  0  0  0  0  0  0  0
  128.2590  125.5930   62.8550 C   0  0  0  0  0  0  0  0  0  0  0  0
  127.5890  124.8170   61.6910 C   0  0  0  0  0  0  0  0  0  0  0  0
  1  2  1  0
  2  3  2  0
  2  4  1  0
  4  5  1  0
  5  6  1  0
  6  7  2  0
  7  8  1  0
  8  9  2  0
  9 10  1  0
 10 11  1  0
 10 12  1  0
 10 13  1  0
  9 14  1  0
 14 15  2  0
  5 16  1  0
 16 17  1  0
 17 18  1  0
 18 19  1  0
 19 20  2  0
 19 21  1  0
 21 22  1  0
 22 23  1  0
 23 24  2  0
 23 25  1  0
 25 26  1  0
 26 27  1  0
 27 28  1  0
 28 29  1  0
 29 30  1  0
 30 31  1  0
 30 32  2  0
 28 33  1  0
 33 34  2  0
 34 35  1  0
 35 36  2  0
 36 37  1  0
 37 38  1  0
 37 39  1  0
 37 40  1  0
 36 41  1  0
 41 42  2  0
 28 43  1  0
 43 44  1  0
 18 45  1  0
 45 46  1  0
 46  5  1  0
 15  6  1  0
 44 25  1  0
 42 33  1  0
M  END
>  <Binding energies>  (79) 
[-10.27]

>  <Ligand effiencies>  (79) 
[-0.21395833333333333]

>  <Interactions>  (79) 
["V-A:ALA:541:CB:4892, V-B:LEU:475:CD1:9229, V-A:TYR:539:CD1:4873, V-A:TYR:539:C:4867, V-B:GLY:454:CA:9020, V-A:TYR:539:CE1:4875, V-B:TYR:539:C:9839, V-B:PRO:540:CB:9857, V-B:GLU:543:CD:9880, V-B:PRO:540:CA:9855, H-B:ALA:541:N:9863, V-B:PRO:540:N:9856, V-B:TYR:531:CZ:9766, V-B:ILE:369:CD1:8210, H-B:GLY:454:N:9021, V-A:TYR:539:CZ:4877, V-B:ILE:538:CG2:9835, V-B:MET:535:CE:9807, V-B:LEU:363:CD1:8160, V-B:ASP:366:CB:8183, V-B:PRO:540:CD:9859, V-B:ILE:538:CA:9832, V-B:PRO:482:CB:9297, V-B:PRO:482:CG:9298, V-B:TYR:531:CE2:9765, V-B:ILE:369:CG2:8208, H-B:ARG:545:NH1:9899, H-B:ARG:545:NH2:9900, V-A:TYR:539:CA:4869, V-A:TYR:539:CB:4871, V-B:ILE:538:CG1:9836, V-B:MET:535:CG:9805, V-B:ILE:538:CB:9834, V-B:ILE:538:C:9830, V-B:ASP:366:CA:8181, V-B:TYR:539:CD1:9845, V-B:TYR:539:CA:9841, V-B:LEU:373:CD1:8251, V-B:SER:385:CB:8380, V-A:ILE:343:CG2:2991, V-A:VAL:344:CG1:3000, V-B:LEU:373:CD2:8252, V-B:PRO:540:CG:9858, V-B:TYR:531:CD2:9763, V-B:ASP:366:C:8179, V-B:PRO:482:CD:9299, V-B:LEU:363:CG:8159, V-B:LEU:363:CD2:8161"]

$$$$
RR29_Rahimova_2017
     RDKit          3D

 18 19  0  0  0  0  0  0  0  0999 V2000
  126.3680  126.6890   59.5380 C   0  0  0  0  0  0  0  0  0  0  0  0
  126.7190  126.4320   60.9960 C   0  0  0  0  0  0  0  0  0  0  0  0
  126.5510  124.9520   61.4040 C   0  0  0  0  0  0  0  0  0  0  0  0
  127.7560  124.0970   60.9590 C   0  0  0  0  0  0  0  0  0  0  0  0
  127.5070  123.3940   59.6330 C   0  0  0  0  0  0  0  0  0  0  0  0
  128.5840  122.8290   58.9230 C   0  0  0  0  0  0  0  0  0  0  0  0
  128.3760  122.1750   57.7000 C   0  0  0  0  0  0  0  0  0  0  0  0
  127.0750  122.1190   57.2150 C   0  0  0  0  0  0  0  0  0  0  0  0
  126.0260  122.6670   57.8990 C   0  0  0  0  0  0  0  0  0  0  0  0
  126.2010  123.3110   59.1180 C   0  0  0  0  0  0  0  0  0  0  0  0
  124.8740  122.4360   57.2150 O   0  0  0  0  0  0  0  0  0  0  0  0
  125.2680  121.9110   55.9750 C   0  0  0  0  0  0  0  0  0  0  0  0
  126.6130  121.5260   56.0820 O   0  0  0  0  0  0  0  0  0  0  0  0
  127.0940  127.4200   61.7200 N   0  0  0  0  0  0  0  0  0  0  0  0
  127.3300  127.2060   63.0610 N   0  0  0  0  0  0  0  0  0  0  0  0
  128.5460  127.2600   63.6280 C   0  0  0  0  0  0  0  0  0  0  0  0
  129.6770  127.5430   62.9800 N   0  0  0  0  0  0  0  0  0  0  0  0
  128.6320  127.0140   64.9270 N   0  0  0  0  0  0  0  0  0  0  0  0
  1  2  1  0
  2  3  1  0
  3  4  1  0
  4  5  1  0
  5  6  2  0
  6  7  1  0
  7  8  2  0
  8  9  1  0
  9 10  2  0
  9 11  1  0
 11 12  1  0
 12 13  1  0
  2 14  2  0
 14 15  1  0
 15 16  1  0
 16 17  1  0
 16 18  2  0
 10  5  1  0
 13  8  1  0
M  CHG  1  18   1
M  END
>  <Binding energies>  (80) 
[-7.63]

>  <Ligand effiencies>  (80) 
[-0.3317391304347826]

>  <Interactions>  (80) 
["V-B:ASP:366:CG:8184, V-A:GLU:543:CD:4908, H-A:GLU:543:OE2:4910, V-B:TYR:539:C:9839, H-B:GLU:543:OE1:9881, V-B:PRO:540:CB:9857, H-B:GLU:543:OE2:9882, V-B:GLU:543:CD:9880, V-B:PRO:540:CA:9855, V-B:PRO:540:N:9856, H-B:TYR:539:N:9842, V-B:ILE:538:CG2:9835, V-B:MET:535:CE:9807, V-B:LEU:363:CD1:8160, V-B:ASP:366:CB:8183, V-B:PRO:540:CD:9859, V-B:TYR:539:CE2:9848, V-B:TYR:539:CZ:9849, V-B:TYR:539:CD2:9846, H-A:GLU:543:OE1:4909, V-B:TYR:539:CG:9844, V-B:TYR:539:CA:9841"]

$$$$
RR30_Rahimova_2017
     RDKit          3D

 18 19  0  0  0  0  0  0  0  0999 V2000
  127.8780  132.5440   60.0930 C   0  0  0  0  0  0  0  0  0  0  0  0
  128.6920  131.7260   61.1050 C   0  0  0  0  0  0  0  0  0  0  0  0
  130.1160  131.5020   60.6480 C   0  0  0  0  0  0  0  0  0  0  0  0
  131.2080  131.4940   61.3720 N   0  0  0  0  0  0  0  0  0  0  0  0
  132.2540  131.2560   60.4840 N   0  0  0  0  0  0  0  0  0  0  0  0
  131.7060  131.1500   59.3000 C   0  0  0  0  0  0  0  0  0  0  0  0
  132.5150  130.8320   57.7660 S   0  0  0  0  0  0  0  0  0  0  0  0
  131.8700  132.2190   56.7790 C   0  0  0  0  0  0  0  0  0  0  0  0
  130.5610  131.8650   56.0680 C   0  0  0  0  0  0  0  0  0  0  0  0
  129.5810  132.5990   56.2090 O   0  0  0  0  0  0  0  0  0  0  0  0
  130.5720  130.7210   55.3460 N   0  0  0  0  0  0  0  0  0  0  0  0
  129.5130  130.1940   54.6220 C   0  0  0  0  0  0  0  0  0  0  0  0
  128.3120  130.7000   54.4510 N   0  0  0  0  0  0  0  0  0  0  0  0
  127.5060  129.8910   53.6610 N   0  0  0  0  0  0  0  0  0  0  0  0
  128.1070  128.7980   53.2520 C   0  0  0  0  0  0  0  0  0  0  0  0
  127.4350  127.7590   52.3830 C   0  0  0  0  0  0  0  0  0  0  0  0
  129.7510  128.6750   53.8170 S   0  0  0  0  0  0  0  0  0  0  0  0
  130.3560  131.2900   59.3300 O   0  0  0  0  0  0  0  0  0  0  0  0
  1  2  1  0
  2  3  1  0
  3  4  2  0
  4  5  1  0
  5  6  2  0
  6  7  1  0
  7  8  1  0
  8  9  1  0
  9 10  2  0
  9 11  1  0
 11 12  1  0
 12 13  2  0
 13 14  1  0
 14 15  2  0
 15 16  1  0
 15 17  1  0
  6 18  1  0
 18  3  1  0
 17 12  1  0
M  END
>  <Binding energies>  (81) 
[-7.05]

>  <Ligand effiencies>  (81) 
[-0.37105263157894736]

>  <Interactions>  (81) 
["V-A:PRO:540:CB:4885, V-A:TYR:539:CD1:4873, V-A:TYR:539:C:4867, V-A:PRO:540:CA:4883, H-A:ALA:541:N:4891, V-A:TYR:539:CE1:4875, H-A:TYR:531:OH:4795, V-A:PRO:540:N:4884, V-B:TYR:531:CZ:9766, V-A:MET:535:CE:4835, V-A:ILE:538:CB:4862, V-A:TYR:531:CZ:4794, V-A:MET:535:CG:4833, V-B:LYS:534:CE:9794, H-A:TYR:539:N:4870, H-B:LYS:534:NZ:9795, V-A:LEU:363:CD1:3188, V-B:TYR:531:CE1:9764, V-A:PRO:540:CD:4887, V-A:PRO:540:CG:4886, V-B:LYS:534:CD:9793, V-B:MET:535:CG:9805, V-B:LYS:534:CG:9792, V-B:TYR:531:CD1:9762, V-B:LYS:534:CB:9791"]

$$$$
RR31_Rahimova_2017
     RDKit          3D

 18 19  0  0  0  0  0  0  0  0999 V2000
  124.9230  135.4170   60.2230 C   0  0  0  0  0  0  0  0  0  0  0  0
  125.1600  134.3190   61.2510 C   0  0  0  0  0  0  0  0  0  0  0  0
  124.1260  133.4320   61.5510 C   0  0  0  0  0  0  0  0  0  0  0  0
  124.3120  132.4150   62.4850 C   0  0  0  0  0  0  0  0  0  0  0  0
  125.5420  132.2490   63.1410 C   0  0  0  0  0  0  0  0  0  0  0  0
  125.7420  131.2410   64.0870 N   0  0  0  0  0  0  0  0  0  0  0  0
  124.8700  130.0520   64.1590 C   0  0  0  0  0  0  0  0  0  0  0  0
  124.9760  129.2710   65.4900 C   0  0  0  0  0  0  0  0  0  0  0  0
  126.3620  128.8790   65.7580 N   0  0  0  0  0  0  0  0  0  0  0  0
  126.4890  128.1060   66.9970 C   0  0  0  0  0  0  0  0  0  0  0  0
  127.8820  128.2310   67.6450 C   0  0  0  0  0  0  0  0  0  0  0  0
  128.8490  127.1360   67.1650 C   0  0  0  0  0  0  0  0  0  0  0  0
  128.6330  126.8650   65.6720 N   0  0  0  0  0  0  0  0  0  0  0  0
  127.1510  130.1060   65.8600 C   0  0  0  0  0  0  0  0  0  0  0  0
  127.1070  130.8990   64.5340 C   0  0  0  0  0  0  0  0  0  0  0  0
  126.5710  133.1530   62.8370 C   0  0  0  0  0  0  0  0  0  0  0  0
  126.3960  134.1800   61.9020 C   0  0  0  0  0  0  0  0  0  0  0  0
  127.5520  135.1310   61.6190 C   0  0  0  0  0  0  0  0  0  0  0  0
  1  2  1  0
  2  3  2  0
  3  4  1  0
  4  5  2  0
  5  6  1  0
  6  7  1  0
  7  8  1  0
  8  9  1  0
  9 10  1  0
 10 11  1  0
 11 12  1  0
 12 13  1  0
  9 14  1  0
 14 15  1  0
  5 16  1  0
 16 17  2  0
 17 18  1  0
 17  2  1  0
 15  6  1  0
M  CHG  1  13   1
M  END
>  <Binding energies>  (82) 
[-7.05]

>  <Ligand effiencies>  (82) 
[-0.3357142857142857]

>  <Interactions>  (82) 
["V-B:ARG:545:CG:9894, V-A:ALA:541:CB:4892, V-B:TYR:484:CE2:9317, V-B:HIS:456:CE1:9041, V-B:LEU:475:CD1:9229, V-A:TYR:539:CD1:4873, V-B:TYR:484:CZ:9318, V-B:GLY:454:CA:9020, V-A:GLU:543:CG:4907, V-B:ARG:545:CZ:9898, H-B:GLU:543:OE2:9882, V-B:GLU:543:CD:9880, H-B:TYR:484:OH:9319, V-B:ILE:369:CD1:8210, V-B:PRO:482:CB:9297, V-B:PRO:482:CG:9298, V-B:ILE:369:CG2:8208, H-A:GLU:543:OE1:4909, V-B:LEU:373:CD1:8251, V-B:SER:385:CB:8380, V-A:ALA:541:CA:4890"]

$$$$
RR32_Rahimova_2017
     RDKit          3D

 18 20  0  0  0  0  0  0  0  0999 V2000
  130.2220  131.3420   56.7290 C   0  0  0  0  0  0  0  0  0  0  0  0
  130.1730  131.5180   58.2430 C   0  0  0  0  0  0  0  0  0  0  0  0
  128.9620  131.8950   58.8250 C   0  0  0  0  0  0  0  0  0  0  0  0
  128.8790  132.0620   60.2040 C   0  0  0  0  0  0  0  0  0  0  0  0
  127.6760  132.4350   60.7770 N   0  0  0  0  0  0  0  0  0  0  0  0
  127.4580  133.8740   61.0140 C   0  0  0  0  0  0  0  0  0  0  0  0
  126.1710  134.1730   61.8180 C   0  0  0  0  0  0  0  0  0  0  0  0
  125.0030  133.6320   61.1230 N   0  0  0  0  0  0  0  0  0  0  0  0
  123.7860  133.9410   61.8660 C   0  0  0  0  0  0  0  0  0  0  0  0
  125.1740  132.1850   61.0120 C   0  0  0  0  0  0  0  0  0  0  0  0
  126.4480  131.8560   60.1980 C   0  0  0  0  0  0  0  0  0  0  0  0
  129.9410  131.8750   61.0290 N   0  0  0  0  0  0  0  0  0  0  0  0
  131.1370  131.5100   60.4920 C   0  0  0  0  0  0  0  0  0  0  0  0
  132.2280  131.3250   61.3760 C   0  0  0  0  0  0  0  0  0  0  0  0
  133.4730  130.9530   60.8820 C   0  0  0  0  0  0  0  0  0  0  0  0
  133.6620  130.7570   59.5200 C   0  0  0  0  0  0  0  0  0  0  0  0
  132.6110  130.9310   58.6240 C   0  0  0  0  0  0  0  0  0  0  0  0
  131.3170  131.3130   59.0840 C   0  0  0  0  0  0  0  0  0  0  0  0
  1  2  1  0
  2  3  2  0
  3  4  1  0
  4  5  1  0
  5  6  1  0
  6  7  1  0
  7  8  1  0
  8  9  1  0
  8 10  1  0
 10 11  1  0
  4 12  2  0
 12 13  1  0
 13 14  2  0
 14 15  1  0
 15 16  2  0
 16 17  1  0
 17 18  2  0
 18  2  1  0
 11  5  1  0
 18 13  1  0
M  END
>  <Binding energies>  (83) 
[-6.66]

>  <Ligand effiencies>  (83) 
[-0.37]

>  <Interactions>  (83) 
["V-A:ALA:541:CB:4892, V-A:PRO:540:C:4881, V-A:PRO:540:CB:4885, V-B:LEU:475:CD1:9229, V-A:TYR:539:CD1:4873, V-A:TYR:539:C:4867, V-A:PRO:540:CA:4883, H-A:ALA:541:N:4891, V-A:TYR:539:CE1:4875, V-A:GLU:543:CD:4908, V-A:PRO:540:N:4884, V-A:ASP:366:CG:3212, V-B:ILE:369:CD1:8210, V-A:LEU:363:CA:3184, V-A:ASP:366:CB:3211, V-B:ILE:369:CG2:8208, V-A:ASN:362:C:3171, V-A:ASN:362:CB:3175, V-B:ILE:369:CG1:8209"]

$$$$
RR5_Rahimova_2017
     RDKit          3D

 45 50  0  0  0  0  0  0  0  0999 V2000
  127.8880  131.5870   58.5110 O   0  0  0  0  0  0  0  0  0  0  0  0
  127.8890  130.4940   59.0770 C   0  0  0  0  0  0  0  0  0  0  0  0
  126.8430  130.1990   60.1690 C   0  0  0  0  0  0  0  0  0  0  0  0
  125.7620  129.1400   59.7490 C   0  0  2  0  0  0  0  0  0  0  0  0
  126.1310  127.7350   60.0150 N   0  0  0  0  0  0  0  0  0  0  0  0
  127.2260  127.4060   60.8020 C   0  0  0  0  0  0  0  0  0  0  0  0
  127.9710  128.1930   61.3930 O   0  0  0  0  0  0  0  0  0  0  0  0
  127.3590  126.0690   60.8070 O   0  0  0  0  0  0  0  0  0  0  0  0
  126.5720  125.2470   61.6650 C   0  0  0  0  0  0  0  0  0  0  0  0
  126.5200  123.7960   61.1390 C   0  0  0  0  0  0  0  0  0  0  0  0
  126.1530  123.6930   59.6700 C   0  0  0  0  0  0  0  0  0  0  0  0
  125.0120  124.1520   59.0040 C   0  0  0  0  0  0  0  0  0  0  0  0
  124.8910  123.9670   57.6260 C   0  0  0  0  0  0  0  0  0  0  0  0
  125.9030  123.3230   56.9120 C   0  0  0  0  0  0  0  0  0  0  0  0
  127.0420  122.8620   57.5760 C   0  0  0  0  0  0  0  0  0  0  0  0
  127.1610  123.0470   58.9540 C   0  0  0  0  0  0  0  0  0  0  0  0
  128.2260  122.6630   59.8940 C   0  0  0  0  0  0  0  0  0  0  0  0
  129.4330  121.9900   59.6900 C   0  0  0  0  0  0  0  0  0  0  0  0
  130.2690  121.7280   60.7770 C   0  0  0  0  0  0  0  0  0  0  0  0
  129.9000  122.1380   62.0600 C   0  0  0  0  0  0  0  0  0  0  0  0
  128.6950  122.8130   62.2580 C   0  0  0  0  0  0  0  0  0  0  0  0
  127.8570  123.0810   61.1730 C   0  0  0  0  0  0  0  0  0  0  0  0
  125.3810  129.3050   58.2570 C   0  0  0  0  0  0  0  0  0  0  0  0
  125.0810  130.3580   57.7320 O   0  0  0  0  0  0  0  0  0  0  0  0
  125.4560  128.0950   57.6270 O   0  0  0  0  0  0  0  0  0  0  0  0
  128.7370  129.4810   58.7950 N   0  0  0  0  0  0  0  0  0  0  0  0
  129.8720  129.3270   57.8360 C   0  0  0  0  0  0  0  0  0  0  0  0
  131.0630  129.9540   58.6360 C   0  0  0  0  0  0  0  0  0  0  0  0
  130.9370  130.2940   59.9930 C   0  0  0  0  0  0  0  0  0  0  0  0
  132.0030  130.8490   60.6950 C   0  0  0  0  0  0  0  0  0  0  0  0
  133.2110  131.0850   60.0490 C   0  0  0  0  0  0  0  0  0  0  0  0
  133.3650  130.7580   58.7060 C   0  0  0  0  0  0  0  0  0  0  0  0
  132.3020  130.1930   58.0080 C   0  0  0  0  0  0  0  0  0  0  0  0
  130.0620  127.7950   57.5770 C   0  0  0  0  0  0  0  0  0  0  0  0
  131.3060  127.2560   57.2140 C   0  0  0  0  0  0  0  0  0  0  0  0
  131.4470  125.8920   56.9690 C   0  0  0  0  0  0  0  0  0  0  0  0
  130.3460  125.0510   57.0820 C   0  0  0  0  0  0  0  0  0  0  0  0
  129.1030  125.5600   57.4440 C   0  0  0  0  0  0  0  0  0  0  0  0
  128.9660  126.9220   57.6970 C   0  0  0  0  0  0  0  0  0  0  0  0
  129.4860  130.1610   56.5680 C   0  0  0  0  0  0  0  0  0  0  0  0
  128.6300  129.6300   55.5850 C   0  0  0  0  0  0  0  0  0  0  0  0
  128.2890  130.3630   54.4520 C   0  0  0  0  0  0  0  0  0  0  0  0
  128.7940  131.6470   54.2830 C   0  0  0  0  0  0  0  0  0  0  0  0
  129.6300  132.2040   55.2430 C   0  0  0  0  0  0  0  0  0  0  0  0
  129.9690  131.4680   56.3750 C   0  0  0  0  0  0  0  0  0  0  0  0
  1  2  2  0
  2  3  1  0
  4  3  1  6
  4  5  1  0
  5  6  1  0
  6  7  2  0
  6  8  1  0
  8  9  1  0
  9 10  1  0
 10 11  1  0
 11 12  2  0
 12 13  1  0
 13 14  2  0
 14 15  1  0
 15 16  2  0
 16 17  1  0
 17 18  2  0
 18 19  1  0
 19 20  2  0
 20 21  1  0
 21 22  2  0
  4 23  1  0
 23 24  2  0
 23 25  1  0
  2 26  1  0
 26 27  1  0
 27 28  1  0
 28 29  2  0
 29 30  1  0
 30 31  2  0
 31 32  1  0
 32 33  2  0
 27 34  1  0
 34 35  2  0
 35 36  1  0
 36 37  2  0
 37 38  1  0
 38 39  2  0
 27 40  1  0
 40 41  2  0
 41 42  1  0
 42 43  2  0
 43 44  1  0
 44 45  2  0
 22 10  1  0
 33 28  1  0
 39 34  1  0
 45 40  1  0
 16 11  1  0
 22 17  1  0
M  END
>  <Binding energies>  (84) 
[-10.37]

>  <Ligand effiencies>  (84) 
[-0.21604166666666666]

>  <Interactions>  (84) 
["V-A:PRO:540:CB:4885, V-A:PRO:540:CA:4883, V-A:TYR:539:CE1:4875, V-B:ASP:366:CG:8184, V-A:ASP:366:CG:3212, H-B:ASP:366:OD1:8185, V-B:TYR:539:C:9839, V-B:PRO:540:CB:9857, V-B:GLU:543:CD:9880, V-B:PRO:540:CA:9855, V-B:ALA:541:CB:9864, V-B:PRO:540:N:9856, V-A:ILE:538:C:4858, V-A:ILE:538:CB:4862, V-A:TYR:539:CZ:4877, V-A:ILE:538:CA:4860, V-A:ILE:538:CG2:4863, H-A:TYR:539:OH:4878, H-B:TYR:531:OH:9767, V-A:LEU:363:CD1:3188, V-A:LEU:363:CB:3186, V-A:LEU:363:CA:3184, V-A:ASP:366:CB:3211, V-B:MET:535:CE:9807, V-B:LEU:363:CD1:8160, V-B:ASP:366:CB:8183, V-B:TYR:539:CE2:9848, V-B:TYR:539:CZ:9849, V-B:TYR:531:CE2:9765, V-B:TYR:539:CD2:9846, V-A:ASN:362:C:3171"]

$$$$
