1a_Ghoteimi_2023
     RDKit          3D

 40 43  0  0  0  0  0  0  0  0999 V2000
  125.6460  139.8910   61.7500 C   0  0  0  0  0  0  0  0  0  0  0  0
  125.5310  139.5770   60.2550 C   0  0  0  0  0  0  0  0  0  0  0  0
  125.9510  138.2390   60.0210 O   0  0  0  0  0  0  0  0  0  0  0  0
  125.0790  137.2030   60.1190 C   0  0  0  0  0  0  0  0  0  0  0  0
  123.8750  137.2990   59.8600 O   0  0  0  0  0  0  0  0  0  0  0  0
  125.7250  135.9250   60.5720 C   0  0  0  0  0  0  0  0  0  0  0  0
  126.9190  135.9170   61.3090 C   0  0  0  0  0  0  0  0  0  0  0  0
  127.4970  134.7170   61.7120 C   0  0  0  0  0  0  0  0  0  0  0  0
  126.8850  133.4960   61.3870 C   0  0  0  0  0  0  0  0  0  0  0  0
  127.3830  132.2270   61.7380 N   0  0  0  0  0  0  0  0  0  0  0  0
  128.6080  131.6930   61.5410 C   0  0  0  0  0  0  0  0  0  0  0  0
  129.5590  132.2610   61.0060 O   0  0  0  0  0  0  0  0  0  0  0  0
  128.7900  130.2620   62.0480 C   0  0  0  0  0  0  0  0  0  0  0  0
  127.3500  129.2230   61.6630 S   0  0  0  0  0  0  0  0  0  0  0  0
  127.9870  127.5950   61.3390 C   0  0  0  0  0  0  0  0  0  0  0  0
  129.0360  127.2490   62.1230 N   0  0  0  0  0  0  0  0  0  0  0  0
  129.6120  126.0260   61.9790 C   0  0  0  0  0  0  0  0  0  0  0  0
  130.7560  125.7100   62.9000 C   0  0  0  0  0  0  0  0  0  0  0  0
  130.6250  125.8290   64.2930 C   0  0  0  0  0  0  0  0  0  0  0  0
  131.6870  125.5340   65.1440 C   0  0  0  0  0  0  0  0  0  0  0  0
  132.9110  125.1140   64.6300 C   0  0  0  0  0  0  0  0  0  0  0  0
  133.9080  124.8410   65.5480 O   0  0  0  0  0  0  0  0  0  0  0  0
  133.8910  125.5030   66.8070 C   0  0  0  0  0  0  0  0  0  0  0  0
  133.0590  124.9940   63.2410 C   0  0  0  0  0  0  0  0  0  0  0  0
  131.9950  125.2900   62.3940 C   0  0  0  0  0  0  0  0  0  0  0  0
  129.1320  125.1210   61.0260 C   0  0  0  0  0  0  0  0  0  0  0  0
  128.0650  125.4650   60.1860 C   0  0  0  0  0  0  0  0  0  0  0  0
  127.6270  124.4610   59.1700 C   0  0  0  0  0  0  0  0  0  0  0  0
  128.5550  123.8470   58.3220 C   0  0  0  0  0  0  0  0  0  0  0  0
  128.1410  122.9010   57.3890 C   0  0  0  0  0  0  0  0  0  0  0  0
  126.7960  122.5440   57.2890 C   0  0  0  0  0  0  0  0  0  0  0  0
  126.4790  121.5980   56.3350 O   0  0  0  0  0  0  0  0  0  0  0  0
  125.2780  121.7420   55.5850 C   0  0  0  0  0  0  0  0  0  0  0  0
  125.8640  123.1520   58.1430 C   0  0  0  0  0  0  0  0  0  0  0  0
  126.2800  124.0990   59.0760 C   0  0  0  0  0  0  0  0  0  0  0  0
  127.4670  126.7390   60.3450 C   0  0  0  0  0  0  0  0  0  0  0  0
  126.3360  127.1500   59.5060 C   0  0  0  0  0  0  0  0  0  0  0  0
  125.4440  127.4740   58.8440 N   0  0  0  0  0  0  0  0  0  0  0  0
  125.7000  133.5000   60.6510 C   0  0  0  0  0  0  0  0  0  0  0  0
  125.1230  134.7020   60.2480 C   0  0  0  0  0  0  0  0  0  0  0  0
  1  2  1  0
  2  3  1  0
  3  4  1  0
  4  5  2  0
  4  6  1  0
  6  7  2  0
  7  8  1  0
  8  9  2  0
  9 10  1  0
 10 11  1  0
 11 12  2  0
 11 13  1  0
 13 14  1  0
 14 15  1  0
 15 16  2  0
 16 17  1  0
 17 18  1  0
 18 19  2  0
 19 20  1  0
 20 21  2  0
 21 22  1  0
 22 23  1  0
 21 24  1  0
 24 25  2  0
 17 26  2  0
 26 27  1  0
 27 28  1  0
 28 29  2  0
 29 30  1  0
 30 31  2  0
 31 32  1  0
 32 33  1  0
 31 34  1  0
 34 35  2  0
 27 36  2  0
 36 37  1  0
 37 38  3  0
  9 39  1  0
 39 40  2  0
 40  6  1  0
 36 15  1  0
 25 18  1  0
 35 28  1  0
M  END
>  <Binding energies>  (1) 
[-10.23]

>  <Ligand effiencies>  (1) 
[-0.24951219512195122]

>  <Interactions>  (1) 
["V-A:ALA:541:CB:4892, V-B:LEU:475:CD1:9229, V-A:TYR:539:CD1:4873, H-A:ALA:541:N:4891, V-A:TYR:539:CE1:4875, V-B:ASP:366:CG:8184, V-A:GLU:543:CD:4908, V-A:ASP:366:CG:3212, V-B:TYR:539:C:9839, V-B:PRO:540:CB:9857, V-A:ARG:545:CD:4923, V-A:TYR:484:CZ:4346, V-A:ARG:545:CZ:4926, V-B:PRO:540:CA:9855, V-A:ARG:545:CG:4922, V-B:PRO:540:N:9856, H-B:TYR:531:OH:9767, H-B:TYR:539:N:9842, V-B:ILE:538:CG2:9835, V-B:MET:535:CE:9807, V-B:LEU:363:CD1:8160, V-B:ASP:366:CB:8183, V-B:PRO:540:CD:9859, V-B:ILE:538:CA:9832, V-B:TYR:539:CE2:9848, V-B:PRO:482:CB:9297, V-B:PRO:482:CG:9298, V-B:TYR:539:CZ:9849, V-B:ILE:369:CG2:8208, H-B:SER:385:OG:8381, H-A:GLY:454:N:4049, H-A:TYR:484:OH:4347, H-A:ARG:545:NE:4924, V-B:ILE:538:CG1:9836, V-B:ILE:538:CB:9834, V-B:LEU:373:CD1:8251, V-B:SER:385:CB:8380, V-B:HIS:383:CE1:8365, V-B:HIS:383:CD2:8363, V-A:ALA:541:CA:4890"]

$$$$
1b_Ghoteimi_2023
     RDKit          3D

 34 37  0  0  0  0  0  0  0  0999 V2000
  126.8300  134.8220   61.7060 C   0  0  0  0  0  0  0  0  0  0  0  0
  127.1320  133.5850   62.3420 O   0  0  0  0  0  0  0  0  0  0  0  0
  127.7860  132.6010   61.6260 C   0  0  0  0  0  0  0  0  0  0  0  0
  127.6350  132.6320   60.2410 C   0  0  0  0  0  0  0  0  0  0  0  0
  128.2550  131.6810   59.4370 C   0  0  0  0  0  0  0  0  0  0  0  0
  129.0500  130.6680   59.9950 C   0  0  0  0  0  0  0  0  0  0  0  0
  129.7170  129.6400   59.1240 C   0  0  0  0  0  0  0  0  0  0  0  0
  129.2300  128.3380   58.9740 C   0  0  0  0  0  0  0  0  0  0  0  0
  129.8870  127.4190   58.1470 C   0  0  0  0  0  0  0  0  0  0  0  0
  129.3130  126.0440   58.0390 C   0  0  0  0  0  0  0  0  0  0  0  0
  127.9910  125.8620   57.6240 C   0  0  0  0  0  0  0  0  0  0  0  0
  127.4480  124.5840   57.5300 C   0  0  0  0  0  0  0  0  0  0  0  0
  128.2150  123.4630   57.8520 C   0  0  0  0  0  0  0  0  0  0  0  0
  127.5940  122.2350   57.7300 O   0  0  0  0  0  0  0  0  0  0  0  0
  126.4570  122.1130   56.8800 C   0  0  0  0  0  0  0  0  0  0  0  0
  129.5400  123.6410   58.2770 C   0  0  0  0  0  0  0  0  0  0  0  0
  130.0780  124.9210   58.3700 C   0  0  0  0  0  0  0  0  0  0  0  0
  131.0490  127.8440   57.4560 C   0  0  0  0  0  0  0  0  0  0  0  0
  131.7170  126.9510   56.5050 C   0  0  0  0  0  0  0  0  0  0  0  0
  132.2450  126.2450   55.7540 N   0  0  0  0  0  0  0  0  0  0  0  0
  131.4990  129.1660   57.6680 C   0  0  0  0  0  0  0  0  0  0  0  0
  132.9410  129.8680   56.8930 S   0  0  0  0  0  0  0  0  0  0  0  0
  132.4190  131.3590   55.9820 C   0  0  0  0  0  0  0  0  0  0  0  0
  130.9000  131.5470   55.8590 C   0  0  0  0  0  0  0  0  0  0  0  0
  130.3680  132.6090   56.1900 O   0  0  0  0  0  0  0  0  0  0  0  0
  130.2370  130.4730   55.3740 N   0  0  0  0  0  0  0  0  0  0  0  0
  128.8690  130.3580   55.1550 C   0  0  0  0  0  0  0  0  0  0  0  0
  127.9770  129.9130   56.1290 C   0  0  0  0  0  0  0  0  0  0  0  0
  126.7420  129.9430   55.5240 C   0  0  0  0  0  0  0  0  0  0  0  0
  126.8830  130.3870   54.2520 O   0  0  0  0  0  0  0  0  0  0  0  0
  128.2350  130.6460   54.0300 N   0  0  0  0  0  0  0  0  0  0  0  0
  130.8360  130.0390   58.4640 N   0  0  0  0  0  0  0  0  0  0  0  0
  129.1940  130.6450   61.3910 C   0  0  0  0  0  0  0  0  0  0  0  0
  128.5740  131.5940   62.1980 C   0  0  0  0  0  0  0  0  0  0  0  0
  1  2  1  0
  2  3  1  0
  3  4  2  0
  4  5  1  0
  5  6  2  0
  6  7  1  0
  7  8  2  0
  8  9  1  0
  9 10  1  0
 10 11  2  0
 11 12  1  0
 12 13  2  0
 13 14  1  0
 14 15  1  0
 13 16  1  0
 16 17  2  0
  9 18  2  0
 18 19  1  0
 19 20  3  0
 18 21  1  0
 21 22  1  0
 22 23  1  0
 23 24  1  0
 24 25  2  0
 24 26  1  0
 26 27  1  0
 27 28  1  0
 28 29  2  0
 29 30  1  0
 30 31  1  0
 21 32  2  0
  6 33  1  0
 33 34  2  0
 34  3  1  0
 32  7  1  0
 17 10  1  0
 31 27  2  0
M  END
>  <Binding energies>  (2) 
[-9.15]

>  <Ligand effiencies>  (2) 
[-0.26142857142857145]

>  <Interactions>  (2) 
["V-A:ALA:541:CB:4892, V-B:LEU:475:CD1:9229, V-A:TYR:539:CD1:4873, V-A:TYR:539:CE1:4875, H-A:TYR:531:OH:4795, V-B:TYR:539:C:9839, V-B:PRO:540:CB:9857, V-B:PRO:540:CA:9855, V-B:PRO:540:N:9856, V-B:TYR:531:CZ:9766, V-A:ILE:538:CB:4862, V-A:TYR:539:CZ:4877, V-A:TYR:531:CZ:4794, H-A:TYR:539:N:4870, H-B:LYS:534:NZ:9795, H-A:TYR:539:OH:4878, V-A:LEU:363:CD1:3188, V-B:TYR:531:CE1:9764, V-A:ASP:366:CB:3211, V-B:MET:535:CE:9807, V-B:PRO:540:CD:9859, V-B:TYR:539:CE2:9848, V-B:TYR:539:CZ:9849, H-B:TYR:539:OH:9850, V-A:TYR:531:CE2:4793"]

$$$$
1c_Ghoteimi_2023
     RDKit          3D

 34 37  0  0  0  0  0  0  0  0999 V2000
  133.7170  125.5010   66.6010 C   0  0  0  0  0  0  0  0  0  0  0  0
  133.8990  124.9780   65.2900 O   0  0  0  0  0  0  0  0  0  0  0  0
  132.9580  125.2520   64.3170 C   0  0  0  0  0  0  0  0  0  0  0  0
  131.7430  125.7760   64.7510 C   0  0  0  0  0  0  0  0  0  0  0  0
  130.7360  126.0800   63.8390 C   0  0  0  0  0  0  0  0  0  0  0  0
  130.9140  125.8670   62.4630 C   0  0  0  0  0  0  0  0  0  0  0  0
  129.8290  126.1880   61.4770 C   0  0  0  0  0  0  0  0  0  0  0  0
  129.3000  125.2370   60.5970 C   0  0  0  0  0  0  0  0  0  0  0  0
  128.2700  125.5770   59.7130 C   0  0  0  0  0  0  0  0  0  0  0  0
  127.7080  124.4960   58.8500 C   0  0  0  0  0  0  0  0  0  0  0  0
  128.5530  123.6770   58.0950 C   0  0  0  0  0  0  0  0  0  0  0  0
  128.0270  122.6840   57.2750 C   0  0  0  0  0  0  0  0  0  0  0  0
  126.6480  122.4930   57.1900 C   0  0  0  0  0  0  0  0  0  0  0  0
  126.2150  121.4840   56.3510 O   0  0  0  0  0  0  0  0  0  0  0  0
  125.2430  121.7790   55.3540 C   0  0  0  0  0  0  0  0  0  0  0  0
  125.7960  123.3170   57.9410 C   0  0  0  0  0  0  0  0  0  0  0  0
  126.3250  124.3100   58.7610 C   0  0  0  0  0  0  0  0  0  0  0  0
  127.7970  126.9110   59.7100 C   0  0  0  0  0  0  0  0  0  0  0  0
  126.7430  127.3390   58.7850 C   0  0  0  0  0  0  0  0  0  0  0  0
  125.9100  127.6750   58.0540 N   0  0  0  0  0  0  0  0  0  0  0  0
  128.3620  127.8140   60.6350 C   0  0  0  0  0  0  0  0  0  0  0  0
  127.7500  129.4700   60.8590 S   0  0  0  0  0  0  0  0  0  0  0  0
  129.1250  130.3730   61.6420 C   0  0  0  0  0  0  0  0  0  0  0  0
  129.9750  131.1330   60.6190 C   0  0  0  0  0  0  0  0  0  0  0  0
  130.9070  131.8400   61.0060 O   0  0  0  0  0  0  0  0  0  0  0  0
  129.6440  130.9240   59.3260 N   0  0  0  0  0  0  0  0  0  0  0  0
  130.3400  131.3620   58.2100 C   0  0  0  0  0  0  0  0  0  0  0  0
  129.9010  132.1270   57.2330 N   0  0  0  0  0  0  0  0  0  0  0  0
  130.8510  132.3790   56.3540 C   0  0  0  0  0  0  0  0  0  0  0  0
  132.0950  131.8130   56.6120 C   0  0  0  0  0  0  0  0  0  0  0  0
  132.0070  130.9010   58.0890 S   0  0  0  0  0  0  0  0  0  0  0  0
  129.3430  127.4570   61.4980 N   0  0  0  0  0  0  0  0  0  0  0  0
  132.1440  125.3450   62.0360 C   0  0  0  0  0  0  0  0  0  0  0  0
  133.1530  125.0390   62.9450 C   0  0  0  0  0  0  0  0  0  0  0  0
  1  2  1  0
  2  3  1  0
  3  4  2  0
  4  5  1  0
  5  6  2  0
  6  7  1  0
  7  8  2  0
  8  9  1  0
  9 10  1  0
 10 11  2  0
 11 12  1  0
 12 13  2  0
 13 14  1  0
 14 15  1  0
 13 16  1  0
 16 17  2  0
  9 18  2  0
 18 19  1  0
 19 20  3  0
 18 21  1  0
 21 22  1  0
 22 23  1  0
 23 24  1  0
 24 25  2  0
 24 26  1  0
 26 27  1  0
 27 28  2  0
 28 29  1  0
 29 30  2  0
 30 31  1  0
 21 32  2  0
  6 33  1  0
 33 34  2  0
 34  3  1  0
 32  7  1  0
 17 10  1  0
 31 27  1  0
M  END
>  <Binding energies>  (3) 
[-8.59]

>  <Ligand effiencies>  (3) 
[-0.2454285714285714]

>  <Interactions>  (3) 
["V-A:PRO:540:CB:4885, V-A:TYR:539:C:4867, V-A:PRO:540:CA:4883, H-A:ALA:541:N:4891, V-A:GLU:543:CD:4908, V-A:PRO:540:N:4884, V-A:ASP:366:CG:3212, V-B:TYR:539:C:9839, V-B:PRO:540:CB:9857, V-A:ARG:545:CD:4923, V-A:TYR:484:CZ:4346, V-A:ARG:545:CZ:4926, V-B:PRO:540:CA:9855, V-A:ARG:545:CG:4922, V-B:PRO:540:N:9856, V-A:ILE:538:CB:4862, H-A:TYR:539:N:4870, H-B:TYR:531:OH:9767, V-A:LEU:363:CD1:3188, V-A:PRO:540:CD:4887, H-B:TYR:539:N:9842, V-B:ILE:538:CG2:9835, V-B:MET:535:CE:9807, V-B:LEU:363:CD1:8160, V-B:PRO:540:CD:9859, V-B:ILE:538:CA:9832, V-B:TYR:539:CE2:9848, V-B:TYR:539:CZ:9849, H-A:GLY:454:N:4049, H-A:TYR:484:OH:4347, H-A:ARG:545:NE:4924, V-B:ILE:538:CG1:9836, V-B:MET:535:CG:9805, V-B:ILE:538:CB:9834"]

$$$$
1d_Ghoteimi_2023
     RDKit          3D

 30 32  0  0  0  0  0  0  0  0999 V2000
  131.9430  132.3870   55.8950 C   0  0  0  0  0  0  0  0  0  0  0  0
  130.8540  132.6660   56.7620 O   0  0  0  0  0  0  0  0  0  0  0  0
  129.6080  132.2510   56.4520 C   0  0  0  0  0  0  0  0  0  0  0  0
  128.9560  132.5800   55.4600 O   0  0  0  0  0  0  0  0  0  0  0  0
  129.0410  131.2910   57.4940 C   0  0  0  0  0  0  0  0  0  0  0  0
  129.9950  131.5180   59.0240 S   0  0  0  0  0  0  0  0  0  0  0  0
  128.8240  131.8500   60.3230 C   0  0  0  0  0  0  0  0  0  0  0  0
  128.1180  132.9910   60.1430 N   0  0  0  0  0  0  0  0  0  0  0  0
  127.1920  133.3670   61.0610 C   0  0  0  0  0  0  0  0  0  0  0  0
  126.4490  134.6420   60.7830 C   0  0  0  0  0  0  0  0  0  0  0  0
  125.1300  134.6270   60.3010 C   0  0  0  0  0  0  0  0  0  0  0  0
  124.4460  135.8090   60.0390 C   0  0  0  0  0  0  0  0  0  0  0  0
  125.0560  137.0440   60.2460 C   0  0  0  0  0  0  0  0  0  0  0  0
  124.3030  138.1650   59.9550 O   0  0  0  0  0  0  0  0  0  0  0  0
  124.9590  139.3420   59.4970 C   0  0  0  0  0  0  0  0  0  0  0  0
  126.3730  137.0760   60.7270 C   0  0  0  0  0  0  0  0  0  0  0  0
  127.0540  135.8910   60.9900 C   0  0  0  0  0  0  0  0  0  0  0  0
  126.9500  132.5800   62.1930 C   0  0  0  0  0  0  0  0  0  0  0  0
  127.6760  131.4030   62.4120 C   0  0  0  0  0  0  0  0  0  0  0  0
  127.3720  130.6140   63.6450 C   0  0  0  0  0  0  0  0  0  0  0  0
  126.6780  129.4030   63.5520 C   0  0  0  0  0  0  0  0  0  0  0  0
  126.3920  128.6630   64.6960 C   0  0  0  0  0  0  0  0  0  0  0  0
  126.7960  129.1140   65.9520 C   0  0  0  0  0  0  0  0  0  0  0  0
  126.4620  128.3180   67.0310 O   0  0  0  0  0  0  0  0  0  0  0  0
  127.3780  127.3210   67.4700 C   0  0  0  0  0  0  0  0  0  0  0  0
  127.5040  130.3220   66.0490 C   0  0  0  0  0  0  0  0  0  0  0  0
  127.7900  131.0590   64.9040 C   0  0  0  0  0  0  0  0  0  0  0  0
  128.6600  131.0300   61.4630 C   0  0  0  0  0  0  0  0  0  0  0  0
  129.5200  129.8660   61.6940 C   0  0  0  0  0  0  0  0  0  0  0  0
  130.1990  128.9470   61.8770 N   0  0  0  0  0  0  0  0  0  0  0  0
  1  2  1  0
  2  3  1  0
  3  4  2  0
  3  5  1  0
  5  6  1  0
  6  7  1  0
  7  8  2  0
  8  9  1  0
  9 10  1  0
 10 11  2  0
 11 12  1  0
 12 13  2  0
 13 14  1  0
 14 15  1  0
 13 16  1  0
 16 17  2  0
  9 18  2  0
 18 19  1  0
 19 20  1  0
 20 21  2  0
 21 22  1  0
 22 23  2  0
 23 24  1  0
 24 25  1  0
 23 26  1  0
 26 27  2  0
 19 28  2  0
 28 29  1  0
 29 30  3  0
 28  7  1  0
 17 10  1  0
 27 20  1  0
M  END
>  <Binding energies>  (4) 
[-7.95]

>  <Ligand effiencies>  (4) 
[-0.265]

>  <Interactions>  (4) 
["V-A:ALA:541:CB:4892, V-B:TYR:484:CE2:9317, V-B:HIS:456:CE1:9041, V-B:LEU:475:CD1:9229, V-A:TYR:539:CD1:4873, V-A:TYR:539:C:4867, V-B:TYR:484:CZ:9318, V-B:GLU:543:CB:9878, V-A:GLU:543:CG:4907, V-A:TYR:539:CE1:4875, V-A:GLU:543:CD:4908, V-B:ARG:545:CZ:9898, V-A:PRO:540:N:4884, V-B:GLU:543:CD:9880, V-A:TYR:539:CG:4872, V-A:ILE:538:CB:4862, V-A:ILE:538:CG2:4863, H-A:TYR:539:N:4870, V-A:LEU:363:CD1:3188, V-A:PRO:540:CD:4887, V-B:PRO:482:CB:9297, V-B:PRO:482:CG:9298, V-B:ILE:369:CG2:8208, H-B:SER:385:OG:8381, V-A:TYR:539:CA:4869, V-A:TYR:539:CB:4871, V-B:LEU:373:CD1:8251, V-B:SER:385:CB:8380, V-A:ILE:343:CG2:2991, V-B:HIS:383:CE1:8365, V-B:HIS:383:CD2:8363, V-B:LEU:373:CD2:8252"]

$$$$
1j_Grossjean_2025
     RDKit          3D

 20 21  0  0  0  0  0  0  0  0999 V2000
  126.0100  130.0110   57.7070 C   0  0  0  0  0  0  0  0  0  0  0  0
  127.1090  129.1610   57.0970 C   0  0  0  0  0  0  0  0  0  0  0  0
  127.5600  127.9980   57.7170 C   0  0  0  0  0  0  0  0  0  0  0  0
  128.5670  127.2470   57.1020 C   0  0  0  0  0  0  0  0  0  0  0  0
  129.0320  125.9650   57.7930 C   0  0  0  0  0  0  0  0  0  0  0  0
  129.1070  127.6910   55.8740 C   0  0  0  0  0  0  0  0  0  0  0  0
  130.1260  126.8920   55.1870 C   0  0  0  0  0  0  0  0  0  0  0  0
  130.9290  126.2590   54.6460 N   0  0  0  0  0  0  0  0  0  0  0  0
  128.6080  128.8980   55.3300 C   0  0  0  0  0  0  0  0  0  0  0  0
  129.1740  129.6030   53.7980 S   0  0  0  0  0  0  0  0  0  0  0  0
  129.4690  131.3740   54.0810 C   0  0  0  0  0  0  0  0  0  0  0  0
  130.1110  131.6390   55.4440 C   0  0  0  0  0  0  0  0  0  0  0  0
  129.7370  132.6040   56.1110 O   0  0  0  0  0  0  0  0  0  0  0  0
  131.0670  130.7600   55.8180 N   0  0  0  0  0  0  0  0  0  0  0  0
  131.8000  130.7850   56.9960 C   0  0  0  0  0  0  0  0  0  0  0  0
  133.0960  130.6100   57.1450 N   0  0  0  0  0  0  0  0  0  0  0  0
  133.4540  130.7010   58.4100 C   0  0  0  0  0  0  0  0  0  0  0  0
  132.4340  130.9580   59.3220 C   0  0  0  0  0  0  0  0  0  0  0  0
  130.9280  131.0860   58.4640 S   0  0  0  0  0  0  0  0  0  0  0  0
  127.6160  129.6070   55.9240 N   0  0  0  0  0  0  0  0  0  0  0  0
  1  2  1  0
  2  3  2  0
  3  4  1  0
  4  5  1  0
  4  6  2  0
  6  7  1  0
  7  8  3  0
  6  9  1  0
  9 10  1  0
 10 11  1  0
 11 12  1  0
 12 13  2  0
 12 14  1  0
 14 15  1  0
 15 16  2  0
 16 17  1  0
 17 18  2  0
 18 19  1  0
  9 20  2  0
 20  2  1  0
 19 15  1  0
M  END
>  <Binding energies>  (5) 
[-6.76]

>  <Ligand effiencies>  (5) 
[-0.3219047619047619]

>  <Interactions>  (5) 
["V-A:PRO:540:CB:4885, V-A:PRO:540:CA:4883, V-A:TYR:539:CE1:4875, H-A:TYR:531:OH:4795, V-A:ASP:366:CG:3212, V-B:TYR:531:CZ:9766, V-A:ILE:538:CB:4862, V-A:TYR:539:CZ:4877, V-A:ILE:538:CA:4860, V-A:TYR:531:CZ:4794, V-A:ILE:538:CG2:4863, H-A:TYR:539:N:4870, H-B:TYR:531:OH:9767, V-A:LEU:363:CD1:3188, V-A:LEU:363:CB:3186, V-A:LEU:363:CA:3184, V-A:ASP:366:CB:3211, H-B:TYR:539:OH:9850"]

$$$$
1o_Grossjean_2025
     RDKit          3D

 26 27  0  0  0  0  0  0  0  0999 V2000
  124.9720  124.2550   57.9890 C   0  0  0  0  0  0  0  0  0  0  0  0
  125.8990  124.0090   56.9410 O   0  0  0  0  0  0  0  0  0  0  0  0
  126.6800  122.8980   56.9450 C   0  0  0  0  0  0  0  0  0  0  0  0
  126.3160  121.8090   56.4920 O   0  0  0  0  0  0  0  0  0  0  0  0
  128.0340  123.1260   57.5540 C   0  0  0  0  0  0  0  0  0  0  0  0
  128.6050  122.2160   58.4550 C   0  0  0  0  0  0  0  0  0  0  0  0
  129.8640  122.4550   59.0000 C   0  0  0  0  0  0  0  0  0  0  0  0
  130.5740  123.6080   58.6620 C   0  0  0  0  0  0  0  0  0  0  0  0
  131.8400  123.7470   59.2630 N   0  0  0  0  0  0  0  0  0  0  0  0
  133.0560  123.8990   58.6950 C   0  0  0  0  0  0  0  0  0  0  0  0
  133.2680  123.9920   57.4860 O   0  0  0  0  0  0  0  0  0  0  0  0
  134.2360  123.9900   59.6730 C   0  0  0  0  0  0  0  0  0  0  0  0
  133.8330  123.7450   61.1410 C   0  0  0  0  0  0  0  0  0  0  0  0
  133.9820  122.0120   61.6680 S   0  0  0  0  0  0  0  0  0  0  0  0
  132.3790  121.2440   61.5390 C   0  0  0  0  0  0  0  0  0  0  0  0
  131.3690  122.0200   62.0050 N   0  0  0  0  0  0  0  0  0  0  0  0
  130.1030  121.5440   61.9500 C   0  0  0  0  0  0  0  0  0  0  0  0
  129.0250  122.4740   62.4750 C   0  0  0  0  0  0  0  0  0  0  0  0
  129.7960  120.2820   61.4460 C   0  0  0  0  0  0  0  0  0  0  0  0
  130.8320  119.4630   60.9860 C   0  0  0  0  0  0  0  0  0  0  0  0
  130.4720  118.0780   60.4510 C   0  0  0  0  0  0  0  0  0  0  0  0
  132.1630  119.9370   61.0370 C   0  0  0  0  0  0  0  0  0  0  0  0
  133.2670  119.0710   60.6170 C   0  0  0  0  0  0  0  0  0  0  0  0
  134.1370  118.3860   60.2820 N   0  0  0  0  0  0  0  0  0  0  0  0
  130.0100  124.5210   57.7570 C   0  0  0  0  0  0  0  0  0  0  0  0
  128.7520  124.2790   57.2130 C   0  0  0  0  0  0  0  0  0  0  0  0
  1  2  1  0
  2  3  1  0
  3  4  2  0
  3  5  1  0
  5  6  2  0
  6  7  1  0
  7  8  2  0
  8  9  1  0
  9 10  1  0
 10 11  2  0
 10 12  1  0
 12 13  1  0
 13 14  1  0
 14 15  1  0
 15 16  2  0
 16 17  1  0
 17 18  1  0
 17 19  2  0
 19 20  1  0
 20 21  1  0
 20 22  2  0
 22 23  1  0
 23 24  3  0
  8 25  1  0
 25 26  2  0
 26  5  1  0
 22 15  1  0
M  END
>  <Binding energies>  (6) 
[-8.07]

>  <Ligand effiencies>  (6) 
[-0.2988888888888889]

>  <Interactions>  (6) 
["V-A:ASP:366:CG:3212, V-B:TYR:539:C:9839, V-A:LEU:475:CD1:4257, V-B:PRO:540:C:9853, V-B:PRO:540:CA:9855, V-B:ALA:541:CB:9864, V-B:PRO:540:N:9856, H-B:TYR:531:OH:9767, V-A:ASP:366:CB:3211, H-B:TYR:539:N:9842, V-B:MET:535:CE:9807, V-B:LEU:363:CD1:8160, V-B:TYR:539:CE2:9848, V-B:TYR:539:CZ:9849, V-B:TYR:531:CE2:9765, V-A:ILE:369:CD1:3238, V-B:TYR:539:CD2:9846, V-A:ILE:369:CB:3235, V-A:ASP:366:CA:3209, V-A:ASP:366:C:3207, V-A:ILE:369:CG2:3236, H-B:TYR:539:OH:9850, V-A:PRO:482:CG:4326, V-B:ALA:541:CA:9862, H-A:HIS:383:NE2:3393, H-A:SER:385:OG:3409, V-A:SER:385:CA:3406"]

$$$$
1p_Grossjean_2025
     RDKit          3D

 21 22  0  0  0  0  0  0  0  0999 V2000
  127.9330  133.3560   61.1890 C   0  0  0  0  0  0  0  0  0  0  0  0
  128.3960  132.2500   60.2600 C   0  0  0  0  0  0  0  0  0  0  0  0
  127.4870  131.4150   59.6110 C   0  0  0  0  0  0  0  0  0  0  0  0
  127.9710  130.4030   58.7760 C   0  0  0  0  0  0  0  0  0  0  0  0
  126.9580  129.4900   58.0880 C   0  0  0  0  0  0  0  0  0  0  0  0
  129.3660  130.2570   58.6040 C   0  0  0  0  0  0  0  0  0  0  0  0
  129.8990  129.1750   57.7740 C   0  0  0  0  0  0  0  0  0  0  0  0
  130.3190  128.3200   57.1160 N   0  0  0  0  0  0  0  0  0  0  0  0
  130.2140  131.1640   59.2830 C   0  0  0  0  0  0  0  0  0  0  0  0
  131.9880  131.1270   59.1690 S   0  0  0  0  0  0  0  0  0  0  0  0
  132.4000  131.0300   57.4020 C   0  0  0  0  0  0  0  0  0  0  0  0
  131.8080  132.1770   56.5620 C   0  0  0  0  0  0  0  0  0  0  0  0
  130.4080  131.8720   56.0060 C   0  0  0  0  0  0  0  0  0  0  0  0
  129.4760  132.6400   56.2530 O   0  0  0  0  0  0  0  0  0  0  0  0
  130.3100  130.7540   55.2520 N   0  0  0  0  0  0  0  0  0  0  0  0
  129.1710  130.2550   54.6350 C   0  0  0  0  0  0  0  0  0  0  0  0
  129.1420  129.0320   53.9630 C   0  0  0  0  0  0  0  0  0  0  0  0
  127.8510  128.9060   53.5040 C   0  0  0  0  0  0  0  0  0  0  0  0
  127.1400  129.9960   53.8770 O   0  0  0  0  0  0  0  0  0  0  0  0
  127.9880  130.8440   54.5920 N   0  0  0  0  0  0  0  0  0  0  0  0
  129.7350  132.1300   60.1080 N   0  0  0  0  0  0  0  0  0  0  0  0
  1  2  1  0
  2  3  2  0
  3  4  1  0
  4  5  1  0
  4  6  2  0
  6  7  1  0
  7  8  3  0
  6  9  1  0
  9 10  1  0
 10 11  1  0
 11 12  1  0
 12 13  1  0
 13 14  2  0
 13 15  1  0
 15 16  1  0
 16 17  1  0
 17 18  2  0
 18 19  1  0
 19 20  1  0
  9 21  2  0
 21  2  1  0
 20 16  2  0
M  END
>  <Binding energies>  (7) 
[-7.71]

>  <Ligand effiencies>  (7) 
[-0.35045454545454546]

>  <Interactions>  (7) 
["V-A:ALA:541:CB:4892, V-A:PRO:540:CB:4885, V-A:TYR:539:CD1:4873, V-A:PRO:540:CA:4883, H-A:ALA:541:N:4891, V-A:TYR:539:CE1:4875, H-A:TYR:531:OH:4795, V-A:PRO:540:N:4884, V-B:TYR:531:CZ:9766, V-A:ILE:538:CB:4862, V-A:MET:535:CG:4833, V-B:LYS:534:CE:9794, H-A:TYR:539:N:4870, H-B:LYS:534:NZ:9795, H-A:TYR:539:OH:4878, V-A:LEU:363:CD1:3188, V-B:TYR:531:CE1:9764, V-A:PRO:540:CD:4887, V-B:LYS:534:CD:9793"]

$$$$
2a_Ghoteimi_2023
     RDKit          3D

 48 53  0  0  0  0  0  0  0  0999 V2000
  125.4400  138.9480   59.1640 C   0  0  0  0  0  0  0  0  0  0  0  0
  126.0220  138.1620   60.3420 C   0  0  0  0  0  0  0  0  0  0  0  0
  126.0180  136.7740   60.0310 O   0  0  0  0  0  0  0  0  0  0  0  0
  124.9130  136.0120   60.2360 C   0  0  0  0  0  0  0  0  0  0  0  0
  123.7730  136.3690   59.9210 O   0  0  0  0  0  0  0  0  0  0  0  0
  125.2160  134.6890   60.8780 C   0  0  0  0  0  0  0  0  0  0  0  0
  124.2070  133.8720   61.4080 C   0  0  0  0  0  0  0  0  0  0  0  0
  124.5220  132.6500   61.9950 C   0  0  0  0  0  0  0  0  0  0  0  0
  125.8480  132.2170   62.0620 C   0  0  0  0  0  0  0  0  0  0  0  0
  126.0520  130.9690   62.6810 N   0  0  0  0  0  0  0  0  0  0  0  0
  125.3010  130.3260   63.6010 C   0  0  0  0  0  0  0  0  0  0  0  0
  124.2760  130.7730   64.1170 O   0  0  0  0  0  0  0  0  0  0  0  0
  125.8320  128.9530   64.0320 C   0  0  0  0  0  0  0  0  0  0  0  0
  127.4570  128.5190   63.3300 S   0  0  0  0  0  0  0  0  0  0  0  0
  128.2160  127.4310   64.5140 C   0  0  0  0  0  0  0  0  0  0  0  0
  128.7670  126.3230   63.9650 N   0  0  0  0  0  0  0  0  0  0  0  0
  129.3690  125.4100   64.7680 C   0  0  0  0  0  0  0  0  0  0  0  0
  129.9460  124.2070   64.0940 C   0  0  0  0  0  0  0  0  0  0  0  0
  129.9350  122.9520   64.7150 C   0  0  0  0  0  0  0  0  0  0  0  0
  130.4850  121.8380   64.0870 C   0  0  0  0  0  0  0  0  0  0  0  0
  131.0600  121.9340   62.8120 C   0  0  0  0  0  0  0  0  0  0  0  0
  131.6350  120.8120   62.2070 N   0  0  0  0  0  0  0  0  0  0  0  0
  132.8520  120.9240   61.3770 C   0  0  0  0  0  0  0  0  0  0  0  0
  133.5420  119.5720   61.0970 C   0  0  0  0  0  0  0  0  0  0  0  0
  132.6170  118.6630   60.5230 O   0  0  0  0  0  0  0  0  0  0  0  0
  131.5230  118.4190   61.3920 C   0  0  0  0  0  0  0  0  0  0  0  0
  130.7700  119.7350   61.6810 C   0  0  0  0  0  0  0  0  0  0  0  0
  131.0800  123.1970   62.1990 C   0  0  0  0  0  0  0  0  0  0  0  0
  130.5280  124.3110   62.8260 C   0  0  0  0  0  0  0  0  0  0  0  0
  129.4420  125.6000   66.1510 C   0  0  0  0  0  0  0  0  0  0  0  0
  128.8790  126.7400   66.7410 C   0  0  0  0  0  0  0  0  0  0  0  0
  128.9880  126.8770   68.2250 C   0  0  0  0  0  0  0  0  0  0  0  0
  129.5930  128.0050   68.7840 C   0  0  0  0  0  0  0  0  0  0  0  0
  129.7170  128.1330   70.1650 C   0  0  0  0  0  0  0  0  0  0  0  0
  129.2360  127.1370   71.0280 C   0  0  0  0  0  0  0  0  0  0  0  0
  129.3670  127.2380   72.4160 N   0  0  0  0  0  0  0  0  0  0  0  0
  129.0100  128.5040   73.0870 C   0  0  0  0  0  0  0  0  0  0  0  0
  128.8270  128.3550   74.6120 C   0  0  0  0  0  0  0  0  0  0  0  0
  129.9940  127.7910   75.1900 O   0  0  0  0  0  0  0  0  0  0  0  0
  130.2750  126.5070   74.6550 C   0  0  0  0  0  0  0  0  0  0  0  0
  130.4930  126.6050   73.1310 C   0  0  0  0  0  0  0  0  0  0  0  0
  128.6410  126.0020   70.4590 C   0  0  0  0  0  0  0  0  0  0  0  0
  128.5180  125.8740   69.0780 C   0  0  0  0  0  0  0  0  0  0  0  0
  128.2500  127.6910   65.9020 C   0  0  0  0  0  0  0  0  0  0  0  0
  127.6920  128.9300   66.4550 C   0  0  0  0  0  0  0  0  0  0  0  0
  127.2510  129.9060   66.8940 N   0  0  0  0  0  0  0  0  0  0  0  0
  126.8630  133.0330   61.5420 C   0  0  0  0  0  0  0  0  0  0  0  0
  126.5460  134.2540   60.9530 C   0  0  0  0  0  0  0  0  0  0  0  0
  1  2  1  0
  2  3  1  0
  3  4  1  0
  4  5  2  0
  4  6  1  0
  6  7  2  0
  7  8  1  0
  8  9  2  0
  9 10  1  0
 10 11  1  0
 11 12  2  0
 11 13  1  0
 13 14  1  0
 14 15  1  0
 15 16  2  0
 16 17  1  0
 17 18  1  0
 18 19  2  0
 19 20  1  0
 20 21  2  0
 21 22  1  0
 22 23  1  0
 23 24  1  0
 24 25  1  0
 25 26  1  0
 26 27  1  0
 21 28  1  0
 28 29  2  0
 17 30  2  0
 30 31  1  0
 31 32  1  0
 32 33  2  0
 33 34  1  0
 34 35  2  0
 35 36  1  0
 36 37  1  0
 37 38  1  0
 38 39  1  0
 39 40  1  0
 40 41  1  0
 35 42  1  0
 42 43  2  0
 31 44  2  0
 44 45  1  0
 45 46  3  0
  9 47  1  0
 47 48  2  0
 48  6  1  0
 44 15  1  0
 29 18  1  0
 43 32  1  0
 27 22  1  0
 41 36  1  0
M  END
>  <Binding energies>  (8) 
[-10.98]

>  <Ligand effiencies>  (8) 
[-0.22408163265306125]

>  <Interactions>  (8) 
["V-A:ALA:541:CB:4892, V-B:HIS:456:CE1:9041, V-A:GLU:543:C:4902, V-A:HIS:456:CE1:4069, V-B:LEU:475:CD1:9229, V-A:TYR:539:CD1:4873, V-B:GLU:543:CB:9878, V-A:GLU:543:CG:4907, V-B:GLU:543:C:9874, V-A:GLU:543:CB:4906, V-A:GLU:543:CD:4908, V-B:ARG:545:CZ:9898, V-A:TYR:484:CZ:4346, V-A:LEU:475:CD1:4257, V-B:GLU:543:CD:9880, V-B:ALA:541:CB:9864, V-B:GLU:543:CG:9879, H-B:TYR:484:OH:9319, V-B:ILE:369:CD1:8210, H-B:GLY:454:N:9021, V-B:PRO:482:CG:9298, V-B:ILE:369:CG2:8208, H-B:SER:385:OG:8381, V-A:ILE:369:CG2:3236, V-A:TYR:484:CE2:4345, V-A:PRO:482:CB:4325, V-A:PRO:482:CG:4326, V-B:LEU:373:CD1:8251, V-B:SER:385:CB:8380, V-A:ILE:343:CG2:2991, V-B:LEU:373:CD2:8252, H-A:HIS:383:NE2:3393, H-A:SER:385:OG:3409, V-A:SER:385:CA:3406, V-B:HIS:456:CD2:9039, V-A:SER:385:C:3404, V-A:HIS:456:CD2:4067, V-A:HIS:456:CG:4065, V-B:GLU:543:CA:9876, H-A:LYS:547:NZ:4951, V-A:LEU:475:CD2:4258"]

$$$$
2aa_Ghoteimi_2023
     RDKit          3D

 48 53  0  0  0  0  0  0  0  0999 V2000
  129.7370  131.0230   53.7050 C   0  0  0  0  0  0  0  0  0  0  0  0
  129.2310  131.5970   55.0320 C   0  0  0  0  0  0  0  0  0  0  0  0
  130.1130  132.6240   55.4680 O   0  0  0  0  0  0  0  0  0  0  0  0
  131.1710  132.3460   56.2730 C   0  0  0  0  0  0  0  0  0  0  0  0
  132.3470  132.4710   55.9180 O   0  0  0  0  0  0  0  0  0  0  0  0
  130.7670  131.8860   57.6450 C   0  0  0  0  0  0  0  0  0  0  0  0
  129.5220  132.2160   58.2000 C   0  0  0  0  0  0  0  0  0  0  0  0
  129.1750  131.7710   59.4720 C   0  0  0  0  0  0  0  0  0  0  0  0
  130.0660  130.9970   60.2180 C   0  0  0  0  0  0  0  0  0  0  0  0
  129.6120  130.5990   61.4910 N   0  0  0  0  0  0  0  0  0  0  0  0
  128.3520  130.4510   61.9520 C   0  0  0  0  0  0  0  0  0  0  0  0
  127.3290  130.6240   61.2870 O   0  0  0  0  0  0  0  0  0  0  0  0
  128.2570  130.0100   63.4190 C   0  0  0  0  0  0  0  0  0  0  0  0
  127.5910  128.7450   63.4980 O   0  0  0  0  0  0  0  0  0  0  0  0
  128.1880  127.6840   64.1660 C   0  0  0  0  0  0  0  0  0  0  0  0
  128.2960  127.7600   65.5220 N   0  0  0  0  0  0  0  0  0  0  0  0
  128.8710  126.7390   66.2060 C   0  0  0  0  0  0  0  0  0  0  0  0
  128.9590  126.8950   67.6910 C   0  0  0  0  0  0  0  0  0  0  0  0
  128.8470  125.7840   68.5340 C   0  0  0  0  0  0  0  0  0  0  0  0
  128.9350  125.9220   69.9170 C   0  0  0  0  0  0  0  0  0  0  0  0
  129.1530  127.1760   70.5080 C   0  0  0  0  0  0  0  0  0  0  0  0
  129.2310  127.3340   71.8970 N   0  0  0  0  0  0  0  0  0  0  0  0
  130.0230  126.4090   72.7340 C   0  0  0  0  0  0  0  0  0  0  0  0
  129.7130  126.5140   74.2420 C   0  0  0  0  0  0  0  0  0  0  0  0
  129.8710  127.8540   74.6780 O   0  0  0  0  0  0  0  0  0  0  0  0
  128.9900  128.7310   73.9930 C   0  0  0  0  0  0  0  0  0  0  0  0
  129.2790  128.6920   72.4770 C   0  0  0  0  0  0  0  0  0  0  0  0
  129.2430  128.2890   69.6610 C   0  0  0  0  0  0  0  0  0  0  0  0
  129.1520  128.1510   68.2780 C   0  0  0  0  0  0  0  0  0  0  0  0
  129.3700  125.6150   65.5410 C   0  0  0  0  0  0  0  0  0  0  0  0
  129.2820  125.5170   64.1470 C   0  0  0  0  0  0  0  0  0  0  0  0
  129.8570  124.3030   63.4910 C   0  0  0  0  0  0  0  0  0  0  0  0
  129.0230  123.3940   62.8350 C   0  0  0  0  0  0  0  0  0  0  0  0
  129.5500  122.2510   62.2390 C   0  0  0  0  0  0  0  0  0  0  0  0
  130.9250  121.9770   62.2940 C   0  0  0  0  0  0  0  0  0  0  0  0
  131.4760  120.8380   61.6990 N   0  0  0  0  0  0  0  0  0  0  0  0
  130.7990  119.5290   61.7730 C   0  0  0  0  0  0  0  0  0  0  0  0
  131.3600  118.4910   60.7780 C   0  0  0  0  0  0  0  0  0  0  0  0
  132.7600  118.3480   60.9630 O   0  0  0  0  0  0  0  0  0  0  0  0
  133.4430  119.5740   60.7510 C   0  0  0  0  0  0  0  0  0  0  0  0
  132.9380  120.6400   61.7450 C   0  0  0  0  0  0  0  0  0  0  0  0
  131.7540  122.8990   62.9470 C   0  0  0  0  0  0  0  0  0  0  0  0
  131.2290  124.0410   63.5430 C   0  0  0  0  0  0  0  0  0  0  0  0
  128.6610  126.5740   63.4430 C   0  0  0  0  0  0  0  0  0  0  0  0
  128.4800  126.5350   61.9900 C   0  0  0  0  0  0  0  0  0  0  0  0
  128.3370  126.5030   60.8420 N   0  0  0  0  0  0  0  0  0  0  0  0
  131.3100  130.6580   59.6670 C   0  0  0  0  0  0  0  0  0  0  0  0
  131.6530  131.1010   58.3930 C   0  0  0  0  0  0  0  0  0  0  0  0
  1  2  1  0
  2  3  1  0
  3  4  1  0
  4  5  2  0
  4  6  1  0
  6  7  2  0
  7  8  1  0
  8  9  2  0
  9 10  1  0
 10 11  1  0
 11 12  2  0
 11 13  1  0
 13 14  1  0
 14 15  1  0
 15 16  2  0
 16 17  1  0
 17 18  1  0
 18 19  2  0
 19 20  1  0
 20 21  2  0
 21 22  1  0
 22 23  1  0
 23 24  1  0
 24 25  1  0
 25 26  1  0
 26 27  1  0
 21 28  1  0
 28 29  2  0
 17 30  2  0
 30 31  1  0
 31 32  1  0
 32 33  2  0
 33 34  1  0
 34 35  2  0
 35 36  1  0
 36 37  1  0
 37 38  1  0
 38 39  1  0
 39 40  1  0
 40 41  1  0
 35 42  1  0
 42 43  2  0
 31 44  2  0
 44 45  1  0
 45 46  3  0
  9 47  1  0
 47 48  2  0
 48  6  1  0
 44 15  1  0
 29 18  1  0
 43 32  1  0
 27 22  1  0
 41 36  1  0
M  END
>  <Binding energies>  (9) 
[-10.38]

>  <Ligand effiencies>  (9) 
[-0.21183673469387757]

>  <Interactions>  (9) 
["V-B:HIS:456:CE1:9041, V-A:GLU:543:C:4902, V-A:PRO:540:CB:4885, V-A:HIS:456:CE1:4069, V-A:TYR:539:CD1:4873, V-A:TYR:539:C:4867, V-A:PRO:540:CA:4883, V-B:GLU:543:CB:9878, V-A:GLU:543:CG:4907, V-B:GLU:543:C:9874, V-A:TYR:539:CE1:4875, V-A:GLU:543:CB:4906, V-A:GLU:543:CD:4908, H-A:GLU:543:OE2:4910, V-A:PRO:540:N:4884, V-A:LEU:475:CD1:4257, V-B:GLU:543:CD:9880, V-B:ALA:541:CB:9864, V-B:GLU:543:CG:9879, V-A:ILE:538:CB:4862, V-A:ILE:538:CA:4860, V-A:MET:535:CG:4833, V-A:ILE:538:CG2:4863, H-A:TYR:539:N:4870, V-A:PRO:540:CD:4887, V-B:TYR:539:CD2:9846, H-A:GLU:543:OE1:4909, V-A:ILE:369:CG2:3236, V-A:PRO:482:CG:4326, V-A:MET:535:CB:4832, H-A:HIS:383:NE2:3393, H-A:SER:385:OG:3409, V-B:HIS:456:CD2:9039, V-A:HIS:456:CD2:4067, V-A:HIS:456:CG:4065, V-B:GLU:543:CA:9876, H-A:LYS:547:NZ:4951"]

$$$$
2b_Ghoteimi_2023
     RDKit          3D

 42 47  0  0  0  0  0  0  0  0999 V2000
  126.5790  126.4770   61.8530 N   0  0  0  0  0  0  0  0  0  0  0  0
  126.4740  127.6240   61.7490 C   0  0  0  0  0  0  0  0  0  0  0  0
  126.3420  129.0790   61.6220 C   0  0  0  0  0  0  0  0  0  0  0  0
  126.5970  129.9240   62.7310 C   0  0  0  0  0  0  0  0  0  0  0  0
  127.0080  129.4260   64.0780 C   0  0  0  0  0  0  0  0  0  0  0  0
  126.5910  130.0920   65.2320 C   0  0  0  0  0  0  0  0  0  0  0  0
  126.9730  129.6320   66.4890 C   0  0  0  0  0  0  0  0  0  0  0  0
  127.7970  128.5040   66.6260 C   0  0  0  0  0  0  0  0  0  0  0  0
  128.1830  128.0170   67.8760 N   0  0  0  0  0  0  0  0  0  0  0  0
  128.1600  126.5610   68.1180 C   0  0  0  0  0  0  0  0  0  0  0  0
  128.2350  126.1880   69.6140 C   0  0  0  0  0  0  0  0  0  0  0  0
  129.3740  126.7880   70.2110 O   0  0  0  0  0  0  0  0  0  0  0  0
  129.3340  128.2040   70.1120 C   0  0  0  0  0  0  0  0  0  0  0  0
  129.2980  128.6250   68.6280 C   0  0  0  0  0  0  0  0  0  0  0  0
  128.2130  127.8450   65.4610 C   0  0  0  0  0  0  0  0  0  0  0  0
  127.8280  128.3020   64.2040 C   0  0  0  0  0  0  0  0  0  0  0  0
  126.4630  131.3080   62.5610 C   0  0  0  0  0  0  0  0  0  0  0  0
  126.1170  131.8360   61.3140 C   0  0  0  0  0  0  0  0  0  0  0  0
  125.9900  133.3070   61.0710 C   0  0  0  0  0  0  0  0  0  0  0  0
  126.9930  134.1880   61.4910 C   0  0  0  0  0  0  0  0  0  0  0  0
  126.8890  135.5560   61.2540 C   0  0  0  0  0  0  0  0  0  0  0  0
  125.7710  136.0970   60.5990 C   0  0  0  0  0  0  0  0  0  0  0  0
  125.6670  137.4660   60.3270 N   0  0  0  0  0  0  0  0  0  0  0  0
  126.8150  138.1890   59.7420 C   0  0  0  0  0  0  0  0  0  0  0  0
  126.7030  139.7250   59.8610 C   0  0  0  0  0  0  0  0  0  0  0  0
  125.4790  140.1680   59.2950 O   0  0  0  0  0  0  0  0  0  0  0  0
  124.3630  139.6020   59.9610 C   0  0  0  0  0  0  0  0  0  0  0  0
  124.4050  138.0630   59.8490 C   0  0  0  0  0  0  0  0  0  0  0  0
  124.7720  135.2090   60.1740 C   0  0  0  0  0  0  0  0  0  0  0  0
  124.8780  133.8410   60.4090 C   0  0  0  0  0  0  0  0  0  0  0  0
  125.8750  131.0250   60.2520 N   0  0  0  0  0  0  0  0  0  0  0  0
  125.9660  129.6830   60.4020 C   0  0  0  0  0  0  0  0  0  0  0  0
  125.6110  128.7750   58.9120 S   0  0  0  0  0  0  0  0  0  0  0  0
  127.0940  127.8110   58.4910 C   0  0  0  0  0  0  0  0  0  0  0  0
  127.9700  128.5240   57.4600 C   0  0  0  0  0  0  0  0  0  0  0  0
  129.1430  128.7800   57.7380 O   0  0  0  0  0  0  0  0  0  0  0  0
  127.3620  128.8290   56.2930 N   0  0  0  0  0  0  0  0  0  0  0  0
  127.9230  129.4610   55.1920 C   0  0  0  0  0  0  0  0  0  0  0  0
  129.1430  129.0800   54.6360 C   0  0  0  0  0  0  0  0  0  0  0  0
  129.3400  129.9390   53.5810 C   0  0  0  0  0  0  0  0  0  0  0  0
  128.2930  130.7940   53.5050 O   0  0  0  0  0  0  0  0  0  0  0  0
  127.3990  130.4800   54.5310 N   0  0  0  0  0  0  0  0  0  0  0  0
  1  2  3  0
  2  3  1  0
  3  4  2  0
  4  5  1  0
  5  6  2  0
  6  7  1  0
  7  8  2  0
  8  9  1  0
  9 10  1  0
 10 11  1  0
 11 12  1  0
 12 13  1  0
 13 14  1  0
  8 15  1  0
 15 16  2  0
  4 17  1  0
 17 18  2  0
 18 19  1  0
 19 20  2  0
 20 21  1  0
 21 22  2  0
 22 23  1  0
 23 24  1  0
 24 25  1  0
 25 26  1  0
 26 27  1  0
 27 28  1  0
 22 29  1  0
 29 30  2  0
 18 31  1  0
 31 32  2  0
 32 33  1  0
 33 34  1  0
 34 35  1  0
 35 36  2  0
 35 37  1  0
 37 38  1  0
 38 39  1  0
 39 40  2  0
 40 41  1  0
 41 42  1  0
 32  3  1  0
 42 38  2  0
 16  5  1  0
 30 19  1  0
 14  9  1  0
 28 23  1  0
M  END
>  <Binding energies>  (10) 
[-10.95]

>  <Ligand effiencies>  (10) 
[-0.25465116279069766]

>  <Interactions>  (10) 
["V-A:ALA:541:CB:4892, V-B:TYR:484:CE2:9317, V-B:HIS:456:CE1:9041, V-A:GLU:543:C:4902, V-A:HIS:456:CE1:4069, V-B:LEU:475:CD1:9229, V-A:TYR:539:CD1:4873, V-B:TYR:484:CZ:9318, V-B:GLU:543:CB:9878, V-B:GLU:543:C:9874, V-A:TYR:539:CE1:4875, V-A:GLU:543:CB:4906, V-B:ASP:366:CG:8184, V-A:GLU:543:CD:4908, V-B:TYR:531:CZ:9766, V-A:MET:535:CG:4833, V-B:LYS:534:CE:9794, H-B:LYS:534:NZ:9795, H-A:TYR:539:OH:4878, H-B:TYR:531:OH:9767, V-B:TYR:531:CE1:9764, V-B:PRO:482:CB:9297, V-B:PRO:482:CG:9298, V-B:ILE:369:CG2:8208, H-B:ARG:545:NH2:9900, V-A:TYR:539:CB:4871, V-A:MET:535:CB:4832, V-B:LEU:373:CD1:8251, V-B:SER:385:CB:8380, V-A:ILE:343:CG2:2991, V-B:HIS:383:CE1:8365, V-B:HIS:383:CD2:8363, H-B:HIS:383:ND1:8362, V-A:VAL:344:CG1:3000, V-B:VAL:384:C:8368, V-A:GLU:543:CA:4904, V-B:SER:385:CA:8378, V-B:HIS:383:CG:8361"]

$$$$
2c_Ghoteimi_2023
     RDKit          3D

 42 47  0  0  0  0  0  0  0  0999 V2000
  127.1510  126.9780   62.6650 N   0  0  0  0  0  0  0  0  0  0  0  0
  127.0180  128.0920   62.3840 C   0  0  0  0  0  0  0  0  0  0  0  0
  126.8520  129.5030   62.0210 C   0  0  0  0  0  0  0  0  0  0  0  0
  127.4000  130.0070   60.8150 C   0  0  0  0  0  0  0  0  0  0  0  0
  128.1710  129.1780   59.8410 C   0  0  0  0  0  0  0  0  0  0  0  0
  127.5270  128.6000   58.7450 C   0  0  0  0  0  0  0  0  0  0  0  0
  128.2400  127.8300   57.8310 C   0  0  0  0  0  0  0  0  0  0  0  0
  129.6150  127.6030   57.9940 C   0  0  0  0  0  0  0  0  0  0  0  0
  130.3540  126.8500   57.0770 N   0  0  0  0  0  0  0  0  0  0  0  0
  129.8820  126.7460   55.6820 C   0  0  0  0  0  0  0  0  0  0  0  0
  130.5530  125.5980   54.8970 C   0  0  0  0  0  0  0  0  0  0  0  0
  131.9650  125.7360   54.9460 O   0  0  0  0  0  0  0  0  0  0  0  0
  132.4500  125.6940   56.2790 C   0  0  0  0  0  0  0  0  0  0  0  0
  131.8290  126.8430   57.1010 C   0  0  0  0  0  0  0  0  0  0  0  0
  130.2530  128.1840   59.0990 C   0  0  0  0  0  0  0  0  0  0  0  0
  129.5400  128.9570   60.0120 C   0  0  0  0  0  0  0  0  0  0  0  0
  127.2110  131.3620   60.5120 C   0  0  0  0  0  0  0  0  0  0  0  0
  126.4750  132.1840   61.3710 C   0  0  0  0  0  0  0  0  0  0  0  0
  126.2310  133.6310   61.0840 C   0  0  0  0  0  0  0  0  0  0  0  0
  127.1900  134.5950   61.4080 C   0  0  0  0  0  0  0  0  0  0  0  0
  126.9710  135.9440   61.1380 C   0  0  0  0  0  0  0  0  0  0  0  0
  125.7760  136.3800   60.5430 C   0  0  0  0  0  0  0  0  0  0  0  0
  125.5500  137.7270   60.2420 N   0  0  0  0  0  0  0  0  0  0  0  0
  126.6180  138.5280   59.6090 C   0  0  0  0  0  0  0  0  0  0  0  0
  126.3800  140.0510   59.6900 C   0  0  0  0  0  0  0  0  0  0  0  0
  125.1130  140.3740   59.1410 O   0  0  0  0  0  0  0  0  0  0  0  0
  124.0620  139.7350   59.8470 C   0  0  0  0  0  0  0  0  0  0  0  0
  124.2310  138.2030   59.7770 C   0  0  0  0  0  0  0  0  0  0  0  0
  124.8230  135.4070   60.2080 C   0  0  0  0  0  0  0  0  0  0  0  0
  125.0440  134.0590   60.4770 C   0  0  0  0  0  0  0  0  0  0  0  0
  125.9500  131.6980   62.5240 N   0  0  0  0  0  0  0  0  0  0  0  0
  126.1450  130.3990   62.8550 C   0  0  0  0  0  0  0  0  0  0  0  0
  125.3980  129.9380   64.4010 S   0  0  0  0  0  0  0  0  0  0  0  0
  126.6910  130.0160   65.6770 C   0  0  0  0  0  0  0  0  0  0  0  0
  126.9520  128.6510   66.3140 C   0  0  0  0  0  0  0  0  0  0  0  0
  125.9970  127.9600   66.6750 O   0  0  0  0  0  0  0  0  0  0  0  0
  128.2510  128.3040   66.4380 N   0  0  0  0  0  0  0  0  0  0  0  0
  128.7470  127.1200   66.9640 C   0  0  0  0  0  0  0  0  0  0  0  0
  129.3800  126.1570   66.3290 N   0  0  0  0  0  0  0  0  0  0  0  0
  129.7160  125.1780   67.1450 C   0  0  0  0  0  0  0  0  0  0  0  0
  129.3510  125.3360   68.4790 C   0  0  0  0  0  0  0  0  0  0  0  0
  128.5250  126.8540   68.6630 S   0  0  0  0  0  0  0  0  0  0  0  0
  1  2  3  0
  2  3  1  0
  3  4  2  0
  4  5  1  0
  5  6  2  0
  6  7  1  0
  7  8  2  0
  8  9  1  0
  9 10  1  0
 10 11  1  0
 11 12  1  0
 12 13  1  0
 13 14  1  0
  8 15  1  0
 15 16  2  0
  4 17  1  0
 17 18  2  0
 18 19  1  0
 19 20  2  0
 20 21  1  0
 21 22  2  0
 22 23  1  0
 23 24  1  0
 24 25  1  0
 25 26  1  0
 26 27  1  0
 27 28  1  0
 22 29  1  0
 29 30  2  0
 18 31  1  0
 31 32  2  0
 32 33  1  0
 33 34  1  0
 34 35  1  0
 35 36  2  0
 35 37  1  0
 37 38  1  0
 38 39  2  0
 39 40  1  0
 40 41  2  0
 41 42  1  0
 32  3  1  0
 42 38  1  0
 16  5  1  0
 30 19  1  0
 14  9  1  0
 28 23  1  0
M  END
>  <Binding energies>  (11) 
[-10.45]

>  <Ligand effiencies>  (11) 
[-0.24302325581395348]

>  <Interactions>  (11) 
["V-A:ALA:541:CB:4892, V-B:TYR:484:CE2:9317, V-B:HIS:456:CE1:9041, V-A:HIS:456:CE1:4069, V-A:TYR:539:CD1:4873, V-B:TYR:484:CZ:9318, V-B:GLU:543:CB:9878, V-A:GLU:543:CG:4907, V-B:GLU:543:C:9874, V-A:TYR:539:CE1:4875, H-A:TYR:531:OH:4795, V-A:GLU:543:CD:4908, V-A:ASP:366:CG:3212, V-A:TYR:484:CZ:4346, V-B:GLU:543:CG:9879, V-A:ASP:366:CB:3211, V-B:MET:535:CE:9807, V-B:PRO:482:CB:9297, V-B:PRO:482:CG:9298, V-B:ILE:369:CG2:8208, H-B:ARG:545:NH2:9900, V-A:TYR:539:CB:4871, H-A:GLU:543:OE1:4909, H-B:ARG:545:NE:9896, V-A:ASP:366:C:3207, H-B:TYR:539:OH:9850, V-A:TYR:531:CE1:4792, V-A:TYR:484:CE2:4345, V-B:LEU:373:CD1:8251, V-B:SER:385:CB:8380, V-A:ILE:343:CG2:2991, V-B:HIS:383:CE1:8365, V-B:HIS:383:CD2:8363, H-B:HIS:383:ND1:8362, V-A:VAL:344:CG1:3000, V-B:LEU:373:CD2:8252, V-B:VAL:384:C:8368, V-B:SER:385:CA:8378, V-B:HIS:383:CG:8361, V-B:GLU:543:CA:9876"]

$$$$
2j_Grossjean_2025
     RDKit          3D

 23 24  0  0  0  0  0  0  0  0999 V2000
  126.2950  130.0130   57.8020 C   0  0  0  0  0  0  0  0  0  0  0  0
  127.3020  129.1380   57.0790 C   0  0  0  0  0  0  0  0  0  0  0  0
  127.7440  127.9340   57.6210 C   0  0  0  0  0  0  0  0  0  0  0  0
  128.6740  127.1580   56.9130 C   0  0  0  0  0  0  0  0  0  0  0  0
  129.1510  125.8280   57.5280 C   0  0  0  0  0  0  0  0  0  0  0  0
  128.8440  124.8150   56.7160 F   0  0  0  0  0  0  0  0  0  0  0  0
  130.4730  125.8550   57.7050 F   0  0  0  0  0  0  0  0  0  0  0  0
  128.5920  125.5770   58.7130 F   0  0  0  0  0  0  0  0  0  0  0  0
  129.1360  127.6320   55.6600 C   0  0  0  0  0  0  0  0  0  0  0  0
  130.1080  126.8630   54.8770 C   0  0  0  0  0  0  0  0  0  0  0  0
  130.8750  126.2550   54.2590 N   0  0  0  0  0  0  0  0  0  0  0  0
  128.6340  128.8670   55.1850 C   0  0  0  0  0  0  0  0  0  0  0  0
  129.1440  129.5600   53.6190 S   0  0  0  0  0  0  0  0  0  0  0  0
  129.6670  131.2870   53.8970 C   0  0  0  0  0  0  0  0  0  0  0  0
  130.1810  131.5850   55.3130 C   0  0  0  0  0  0  0  0  0  0  0  0
  129.7310  132.5340   55.9590 O   0  0  0  0  0  0  0  0  0  0  0  0
  131.1440  130.7460   55.7550 N   0  0  0  0  0  0  0  0  0  0  0  0
  131.7780  130.7870   56.9900 C   0  0  0  0  0  0  0  0  0  0  0  0
  133.0620  130.6560   57.2420 N   0  0  0  0  0  0  0  0  0  0  0  0
  133.3160  130.7510   58.5330 C   0  0  0  0  0  0  0  0  0  0  0  0
  132.2180  130.9630   59.3620 C   0  0  0  0  0  0  0  0  0  0  0  0
  130.7810  131.0420   58.3860 S   0  0  0  0  0  0  0  0  0  0  0  0
  127.7320  129.6020   55.8840 N   0  0  0  0  0  0  0  0  0  0  0  0
  1  2  1  0
  2  3  2  0
  3  4  1  0
  4  5  1  0
  5  6  1  0
  5  7  1  0
  5  8  1  0
  4  9  2  0
  9 10  1  0
 10 11  3  0
  9 12  1  0
 12 13  1  0
 13 14  1  0
 14 15  1  0
 15 16  2  0
 15 17  1  0
 17 18  1  0
 18 19  2  0
 19 20  1  0
 20 21  2  0
 21 22  1  0
 12 23  2  0
 23  2  1  0
 22 18  1  0
M  END
>  <Binding energies>  (12) 
[-6.34]

>  <Ligand effiencies>  (12) 
[-0.26416666666666666]

>  <Interactions>  (12) 
["V-A:PRO:540:CB:4885, V-A:PRO:540:CA:4883, V-A:TYR:539:CE1:4875, H-A:TYR:531:OH:4795, V-A:ASP:366:CG:3212, V-A:ILE:538:CB:4862, V-A:TYR:539:CZ:4877, V-A:ILE:538:CA:4860, V-A:TYR:531:CZ:4794, V-A:ILE:538:CG2:4863, H-A:TYR:539:N:4870, H-B:TYR:531:OH:9767, V-A:LEU:363:CD1:3188, V-A:LEU:363:CB:3186, V-A:LEU:363:CA:3184, V-A:ASP:366:CB:3211, V-B:MET:535:CE:9807, H-B:TYR:539:OH:9850"]

$$$$
3ab_Grossjean_2025
     RDKit          3D

 33 35  0  0  0  0  0  0  0  0999 V2000
  129.0910  131.8960   54.3300 C   0  0  0  0  0  0  0  0  0  0  0  0
  127.8610  131.2460   54.6180 O   0  0  0  0  0  0  0  0  0  0  0  0
  127.6680  129.9410   54.2970 C   0  0  0  0  0  0  0  0  0  0  0  0
  126.8160  129.5580   53.4900 O   0  0  0  0  0  0  0  0  0  0  0  0
  128.5980  129.0090   55.0180 C   0  0  0  0  0  0  0  0  0  0  0  0
  129.1300  129.3180   56.2790 C   0  0  0  0  0  0  0  0  0  0  0  0
  129.9890  128.4330   56.9250 C   0  0  0  0  0  0  0  0  0  0  0  0
  130.3350  127.2170   56.3150 C   0  0  0  0  0  0  0  0  0  0  0  0
  131.1880  126.2480   56.8770 N   0  0  0  0  0  0  0  0  0  0  0  0
  132.2000  125.5540   56.3150 C   0  0  0  0  0  0  0  0  0  0  0  0
  132.5640  125.6430   55.1420 O   0  0  0  0  0  0  0  0  0  0  0  0
  132.9270  124.5830   57.2470 C   0  0  0  0  0  0  0  0  0  0  0  0
  132.4580  124.8240   58.9870 S   0  0  0  0  0  0  0  0  0  0  0  0
  131.2700  123.5630   59.4000 C   0  0  0  0  0  0  0  0  0  0  0  0
  130.0670  123.7370   58.8050 N   0  0  0  0  0  0  0  0  0  0  0  0
  129.0670  122.8450   59.0270 C   0  0  0  0  0  0  0  0  0  0  0  0
  127.7660  123.1070   58.3280 C   0  0  0  0  0  0  0  0  0  0  0  0
  127.2960  122.2350   57.3330 C   0  0  0  0  0  0  0  0  0  0  0  0
  126.0890  122.4740   56.6820 C   0  0  0  0  0  0  0  0  0  0  0  0
  125.3330  123.5920   57.0170 C   0  0  0  0  0  0  0  0  0  0  0  0
  125.7770  124.4740   57.9960 C   0  0  0  0  0  0  0  0  0  0  0  0
  126.9850  124.2320   58.6450 C   0  0  0  0  0  0  0  0  0  0  0  0
  129.2580  121.7550   59.8840 C   0  0  0  0  0  0  0  0  0  0  0  0
  130.4890  121.5640   60.5280 C   0  0  0  0  0  0  0  0  0  0  0  0
  130.6560  120.3550   61.4680 C   0  0  0  0  0  0  0  0  0  0  0  0
  130.7830  120.7080   62.7490 F   0  0  0  0  0  0  0  0  0  0  0  0
  129.5940  119.5530   61.3790 F   0  0  0  0  0  0  0  0  0  0  0  0
  131.7470  119.6640   61.1310 F   0  0  0  0  0  0  0  0  0  0  0  0
  131.5290  122.4970   60.2900 C   0  0  0  0  0  0  0  0  0  0  0  0
  132.8160  122.3760   60.9810 C   0  0  0  0  0  0  0  0  0  0  0  0
  133.8310  122.2780   61.5280 N   0  0  0  0  0  0  0  0  0  0  0  0
  129.8040  126.9050   55.0630 C   0  0  0  0  0  0  0  0  0  0  0  0
  128.9460  127.7910   54.4190 C   0  0  0  0  0  0  0  0  0  0  0  0
  1  2  1  0
  2  3  1  0
  3  4  2  0
  3  5  1  0
  5  6  2  0
  6  7  1  0
  7  8  2  0
  8  9  1  0
  9 10  1  0
 10 11  2  0
 10 12  1  0
 12 13  1  0
 13 14  1  0
 14 15  2  0
 15 16  1  0
 16 17  1  0
 17 18  2  0
 18 19  1  0
 19 20  2  0
 20 21  1  0
 21 22  2  0
 16 23  2  0
 23 24  1  0
 24 25  1  0
 25 26  1  0
 25 27  1  0
 25 28  1  0
 24 29  2  0
 29 30  1  0
 30 31  3  0
  8 32  1  0
 32 33  2  0
 33  5  1  0
 29 14  1  0
 22 17  1  0
M  END
>  <Binding energies>  (13) 
[-8.44]

>  <Ligand effiencies>  (13) 
[-0.24823529411764705]

>  <Interactions>  (13) 
["H-A:TYR:531:OH:4795, V-B:TYR:539:C:9839, V-A:LEU:475:CD1:4257, V-B:PRO:540:C:9853, V-B:PRO:540:CA:9855, V-B:ALA:541:CB:9864, V-B:PRO:540:N:9856, V-B:TYR:531:CZ:9766, V-A:ILE:538:CB:4862, V-A:ILE:538:CA:4860, V-B:LYS:534:CE:9794, V-A:ILE:538:CG2:4863, H-B:LYS:534:NZ:9795, H-A:TYR:539:OH:4878, H-B:TYR:531:OH:9767, V-B:TYR:531:CE1:9764, V-A:ASP:366:CB:3211, V-B:MET:535:CE:9807, V-B:LEU:363:CD1:8160, V-B:PRO:540:CD:9859, V-B:TYR:539:CE2:9848, V-B:TYR:539:CZ:9849, V-B:TYR:531:CE2:9765, V-B:TYR:539:CD2:9846, V-A:ASP:366:CA:3209, V-A:ASP:366:C:3207, H-B:TYR:539:OH:9850, V-B:ALA:541:CA:9862"]

$$$$
3ac_Grossjean_2025
     RDKit          3D

 31 33  0  0  0  0  0  0  0  0999 V2000
  132.9220  131.4680   61.6570 C   0  0  0  0  0  0  0  0  0  0  0  0
  133.5940  130.8440   60.5670 O   0  0  0  0  0  0  0  0  0  0  0  0
  132.9680  130.7750   59.3380 C   0  0  0  0  0  0  0  0  0  0  0  0
  131.6220  131.1380   59.3040 C   0  0  0  0  0  0  0  0  0  0  0  0
  130.9090  131.1040   58.1100 C   0  0  0  0  0  0  0  0  0  0  0  0
  131.5320  130.6950   56.9290 C   0  0  0  0  0  0  0  0  0  0  0  0
  130.7350  130.7130   55.7690 N   0  0  0  0  0  0  0  0  0  0  0  0
  129.7690  131.5860   55.4130 C   0  0  0  0  0  0  0  0  0  0  0  0
  129.4390  132.5840   56.0560 O   0  0  0  0  0  0  0  0  0  0  0  0
  129.0540  131.2780   54.0970 C   0  0  0  0  0  0  0  0  0  0  0  0
  128.9010  129.4900   53.7990 S   0  0  0  0  0  0  0  0  0  0  0  0
  128.5360  128.6820   55.3450 C   0  0  0  0  0  0  0  0  0  0  0  0
  127.6840  129.3880   56.1270 N   0  0  0  0  0  0  0  0  0  0  0  0
  127.3080  128.8950   57.3350 C   0  0  0  0  0  0  0  0  0  0  0  0
  126.3680  129.7410   58.1420 C   0  0  0  0  0  0  0  0  0  0  0  0
  126.8480  130.5620   59.1760 C   0  0  0  0  0  0  0  0  0  0  0  0
  125.9820  131.3540   59.9240 C   0  0  0  0  0  0  0  0  0  0  0  0
  124.6190  131.3350   59.6490 C   0  0  0  0  0  0  0  0  0  0  0  0
  124.1160  130.5270   58.6350 C   0  0  0  0  0  0  0  0  0  0  0  0
  124.9860  129.7360   57.8890 C   0  0  0  0  0  0  0  0  0  0  0  0
  127.8030  127.6710   57.7950 C   0  0  0  0  0  0  0  0  0  0  0  0
  128.7040  126.9310   57.0150 C   0  0  0  0  0  0  0  0  0  0  0  0
  129.2300  125.5890   57.5620 C   0  0  0  0  0  0  0  0  0  0  0  0
  128.7400  125.2940   58.7680 F   0  0  0  0  0  0  0  0  0  0  0  0
  128.8920  124.5920   56.7420 F   0  0  0  0  0  0  0  0  0  0  0  0
  130.5590  125.6320   57.6650 F   0  0  0  0  0  0  0  0  0  0  0  0
  129.0990  127.4520   55.7570 C   0  0  0  0  0  0  0  0  0  0  0  0
  130.0950  126.7540   54.9420 C   0  0  0  0  0  0  0  0  0  0  0  0
  130.8830  126.2020   54.2990 N   0  0  0  0  0  0  0  0  0  0  0  0
  132.8880  130.3350   56.9530 C   0  0  0  0  0  0  0  0  0  0  0  0
  133.5980  130.3710   58.1500 C   0  0  0  0  0  0  0  0  0  0  0  0
  1  2  1  0
  2  3  1  0
  3  4  2  0
  4  5  1  0
  5  6  2  0
  6  7  1  0
  7  8  1  0
  8  9  2  0
  8 10  1  0
 10 11  1  0
 11 12  1  0
 12 13  2  0
 13 14  1  0
 14 15  1  0
 15 16  2  0
 16 17  1  0
 17 18  2  0
 18 19  1  0
 19 20  2  0
 14 21  2  0
 21 22  1  0
 22 23  1  0
 23 24  1  0
 23 25  1  0
 23 26  1  0
 22 27  2  0
 27 28  1  0
 28 29  3  0
  6 30  1  0
 30 31  2  0
 31  3  1  0
 27 12  1  0
 20 15  1  0
M  END
>  <Binding energies>  (14) 
[-8.42]

>  <Ligand effiencies>  (14) 
[-0.263125]

>  <Interactions>  (14) 
["V-A:PRO:540:CB:4885, V-A:TYR:539:CD1:4873, V-A:PRO:540:CA:4883, V-A:TYR:539:CE1:4875, H-A:TYR:531:OH:4795, V-A:ASP:366:CG:3212, V-A:ILE:538:CA:4860, V-A:TYR:531:CZ:4794, V-A:ILE:538:CG2:4863, H-A:TYR:539:N:4870, H-B:TYR:531:OH:9767, V-A:LEU:363:CD1:3188, V-A:LEU:363:CB:3186, V-A:LEU:363:CA:3184, V-A:ASP:366:CB:3211, V-B:MET:535:CE:9807, V-B:ASP:366:CB:8183, V-B:ILE:369:CG2:8208, V-B:ASP:366:CA:8181, H-B:TYR:539:OH:9850, V-A:ASN:362:CB:3175, V-B:ASP:366:C:8179, V-B:ILE:369:CB:8207, H-A:LEU:363:N:3185"]

$$$$
3af_Grossjean_2025
     RDKit          3D

 29 31  0  0  0  0  0  0  0  0999 V2000
  126.6890  130.0640   54.2500 N   0  0  0  0  0  0  0  0  0  0  0  0
  127.4840  130.2660   55.0660 C   0  0  0  0  0  0  0  0  0  0  0  0
  128.4920  130.5210   56.0990 C   0  0  0  0  0  0  0  0  0  0  0  0
  129.8120  130.8910   55.7440 C   0  0  0  0  0  0  0  0  0  0  0  0
  130.2550  131.0940   54.2820 C   0  0  0  0  0  0  0  0  0  0  0  0
  130.1430  129.9840   53.5480 F   0  0  0  0  0  0  0  0  0  0  0  0
  129.5050  132.0340   53.7050 F   0  0  0  0  0  0  0  0  0  0  0  0
  131.5330  131.4720   54.2380 F   0  0  0  0  0  0  0  0  0  0  0  0
  130.7560  131.0720   56.7670 C   0  0  0  0  0  0  0  0  0  0  0  0
  130.3930  130.8870   58.1040 C   0  0  0  0  0  0  0  0  0  0  0  0
  131.3650  131.0490   59.2340 C   0  0  0  0  0  0  0  0  0  0  0  0
  130.9160  131.3520   60.5300 C   0  0  0  0  0  0  0  0  0  0  0  0
  131.8140  131.5010   61.5840 C   0  0  0  0  0  0  0  0  0  0  0  0
  133.1770  131.3470   61.3550 C   0  0  0  0  0  0  0  0  0  0  0  0
  133.6490  131.0440   60.0820 C   0  0  0  0  0  0  0  0  0  0  0  0
  132.7470  130.8950   59.0310 C   0  0  0  0  0  0  0  0  0  0  0  0
  129.1280  130.5290   58.4400 N   0  0  0  0  0  0  0  0  0  0  0  0
  128.1920  130.3710   57.4720 C   0  0  0  0  0  0  0  0  0  0  0  0
  126.5910  129.9170   58.1060 S   0  0  0  0  0  0  0  0  0  0  0  0
  126.4960  128.1010   58.1470 C   0  0  0  0  0  0  0  0  0  0  0  0
  127.8830  127.4590   58.1400 C   0  0  0  0  0  0  0  0  0  0  0  0
  128.3670  127.0680   59.2020 O   0  0  0  0  0  0  0  0  0  0  0  0
  128.4790  127.3820   56.9300 N   0  0  0  0  0  0  0  0  0  0  0  0
  129.7410  126.8630   56.5820 C   0  0  0  0  0  0  0  0  0  0  0  0
  130.7790  126.5550   57.4810 C   0  0  0  0  0  0  0  0  0  0  0  0
  131.9850  126.0460   56.9960 C   0  0  0  0  0  0  0  0  0  0  0  0
  132.1260  125.8570   55.6210 C   0  0  0  0  0  0  0  0  0  0  0  0
  131.1420  126.1450   54.7340 N   0  0  0  0  0  0  0  0  0  0  0  0
  129.9750  126.6390   55.2210 C   0  0  0  0  0  0  0  0  0  0  0  0
  1  2  3  0
  2  3  1  0
  3  4  2  0
  4  5  1  0
  5  6  1  0
  5  7  1  0
  5  8  1  0
  4  9  1  0
  9 10  2  0
 10 11  1  0
 11 12  2  0
 12 13  1  0
 13 14  2  0
 14 15  1  0
 15 16  2  0
 10 17  1  0
 17 18  2  0
 18 19  1  0
 19 20  1  0
 20 21  1  0
 21 22  2  0
 21 23  1  0
 23 24  1  0
 24 25  2  0
 25 26  1  0
 26 27  2  0
 27 28  1  0
 28 29  2  0
 18  3  1  0
 29 24  1  0
 16 11  1  0
M  END
>  <Binding energies>  (15) 
[-8.07]

>  <Ligand effiencies>  (15) 
[-0.269]

>  <Interactions>  (15) 
["V-A:PRO:540:C:4881, V-A:PRO:540:CB:4885, V-A:PRO:540:CA:4883, V-A:TYR:539:CE1:4875, H-A:TYR:531:OH:4795, V-A:GLU:543:CD:4908, V-A:ASP:366:CG:3212, V-B:TYR:531:CZ:9766, V-A:ILE:538:CB:4862, V-A:TYR:539:CZ:4877, V-A:ILE:538:CA:4860, V-A:TYR:531:CZ:4794, V-A:MET:535:CG:4833, V-A:ILE:538:CG2:4863, H-B:LYS:534:NZ:9795, H-A:TYR:539:OH:4878, H-B:TYR:531:OH:9767, V-B:TYR:531:CE1:9764, V-A:LEU:363:CA:3184, V-A:ASP:366:CB:3211, H-B:TYR:539:OH:9850, V-A:TYR:531:CE1:4792, V-A:ASN:362:C:3171, V-A:ASN:362:CB:3175, V-A:MET:535:CB:4832, V-A:TYR:531:CE2:4793, V-A:ASN:370:CB:3244, V-A:VAL:537:C:4850"]

$$$$
3ag_Grossjean_2025
     RDKit          3D

 30 32  0  0  0  0  0  0  0  0999 V2000
  131.2330  125.8840   54.6280 N   0  0  0  0  0  0  0  0  0  0  0  0
  130.4560  126.4970   55.2300 C   0  0  0  0  0  0  0  0  0  0  0  0
  129.4740  127.2700   55.9940 C   0  0  0  0  0  0  0  0  0  0  0  0
  129.0830  126.8620   57.2930 C   0  0  0  0  0  0  0  0  0  0  0  0
  129.6960  125.6370   57.9990 C   0  0  0  0  0  0  0  0  0  0  0  0
  131.0270  125.6900   58.0670 F   0  0  0  0  0  0  0  0  0  0  0  0
  129.2330  125.5550   59.2470 F   0  0  0  0  0  0  0  0  0  0  0  0
  129.3750  124.5210   57.3440 F   0  0  0  0  0  0  0  0  0  0  0  0
  128.1000  127.6060   57.9630 C   0  0  0  0  0  0  0  0  0  0  0  0
  127.5140  128.7180   57.3490 C   0  0  0  0  0  0  0  0  0  0  0  0
  126.4590  129.5460   58.0160 C   0  0  0  0  0  0  0  0  0  0  0  0
  126.7460  130.2690   59.1850 C   0  0  0  0  0  0  0  0  0  0  0  0
  125.7710  131.0400   59.8100 C   0  0  0  0  0  0  0  0  0  0  0  0
  124.4890  131.0990   59.2730 C   0  0  0  0  0  0  0  0  0  0  0  0
  124.1760  130.3900   58.1170 C   0  0  0  0  0  0  0  0  0  0  0  0
  125.1540  129.6200   57.4960 C   0  0  0  0  0  0  0  0  0  0  0  0
  127.9000  129.1140   56.1080 N   0  0  0  0  0  0  0  0  0  0  0  0
  128.8620  128.4220   55.4510 C   0  0  0  0  0  0  0  0  0  0  0  0
  129.2410  129.0840   53.8430 S   0  0  0  0  0  0  0  0  0  0  0  0
  128.8560  130.8600   53.8850 C   0  0  0  0  0  0  0  0  0  0  0  0
  129.7550  131.6240   54.8580 C   0  0  0  0  0  0  0  0  0  0  0  0
  129.3280  132.6310   55.4270 O   0  0  0  0  0  0  0  0  0  0  0  0
  130.9910  131.1300   55.0430 N   0  0  0  0  0  0  0  0  0  0  0  0
  131.9980  131.6790   55.9510 C   0  0  0  0  0  0  0  0  0  0  0  0
  131.7540  131.3510   57.4200 C   0  0  0  0  0  0  0  0  0  0  0  0
  132.8330  131.0240   58.2460 C   0  0  0  0  0  0  0  0  0  0  0  0
  132.6180  130.7540   59.5950 C   0  0  0  0  0  0  0  0  0  0  0  0
  131.3280  130.8210   60.1160 C   0  0  0  0  0  0  0  0  0  0  0  0
  130.2500  131.1620   59.3010 C   0  0  0  0  0  0  0  0  0  0  0  0
  130.4640  131.4330   57.9520 C   0  0  0  0  0  0  0  0  0  0  0  0
  1  2  3  0
  2  3  1  0
  3  4  2  0
  4  5  1  0
  5  6  1  0
  5  7  1  0
  5  8  1  0
  4  9  1  0
  9 10  2  0
 10 11  1  0
 11 12  2  0
 12 13  1  0
 13 14  2  0
 14 15  1  0
 15 16  2  0
 10 17  1  0
 17 18  2  0
 18 19  1  0
 19 20  1  0
 20 21  1  0
 21 22  2  0
 21 23  1  0
 23 24  1  0
 24 25  1  0
 25 26  2  0
 26 27  1  0
 27 28  2  0
 28 29  1  0
 29 30  2  0
 18  3  1  0
 30 25  1  0
 16 11  1  0
M  END
>  <Binding energies>  (16) 
[-8.44]

>  <Ligand effiencies>  (16) 
[-0.272258064516129]

>  <Interactions>  (16) 
["V-A:PRO:540:CB:4885, V-A:PRO:540:CA:4883, V-A:TYR:539:CE1:4875, H-A:TYR:531:OH:4795, V-A:PRO:540:N:4884, V-A:ASP:366:CG:3212, V-B:TYR:531:CZ:9766, V-A:ILE:538:CB:4862, V-A:TYR:539:CZ:4877, V-A:ILE:538:CA:4860, V-A:TYR:531:CZ:4794, V-B:LYS:534:CE:9794, V-A:ILE:538:CG2:4863, H-A:TYR:539:N:4870, H-B:TYR:531:OH:9767, V-A:LEU:363:CD1:3188, V-B:MET:535:CE:9807, V-B:ASP:366:CB:8183, V-B:TYR:539:CZ:9849, V-B:ILE:369:CG2:8208, V-B:ASP:366:CA:8181, H-B:TYR:539:OH:9850, V-A:TYR:531:CE2:4793, V-B:ASP:366:C:8179, V-B:ILE:369:CB:8207"]

$$$$
3bc_Grossjean_2025
     RDKit          3D

 28 30  0  0  0  0  0  0  0  0999 V2000
  132.7480  131.4840   61.6300 C   0  0  0  0  0  0  0  0  0  0  0  0
  133.4810  130.9220   60.5470 O   0  0  0  0  0  0  0  0  0  0  0  0
  132.8850  130.8350   59.3030 C   0  0  0  0  0  0  0  0  0  0  0  0
  131.5310  131.1660   59.2390 C   0  0  0  0  0  0  0  0  0  0  0  0
  130.8430  131.1070   58.0290 C   0  0  0  0  0  0  0  0  0  0  0  0
  131.5020  130.7070   56.8650 C   0  0  0  0  0  0  0  0  0  0  0  0
  130.7290  130.6910   55.6890 N   0  0  0  0  0  0  0  0  0  0  0  0
  129.7870  131.5660   55.2770 C   0  0  0  0  0  0  0  0  0  0  0  0
  129.4690  132.5920   55.8820 O   0  0  0  0  0  0  0  0  0  0  0  0
  129.1350  131.2190   53.9310 C   0  0  0  0  0  0  0  0  0  0  0  0
  128.7280  129.4560   53.6980 S   0  0  0  0  0  0  0  0  0  0  0  0
  128.5060  128.7310   55.3080 C   0  0  0  0  0  0  0  0  0  0  0  0
  127.5980  129.3810   56.0780 N   0  0  0  0  0  0  0  0  0  0  0  0
  127.3300  128.9310   57.3320 C   0  0  0  0  0  0  0  0  0  0  0  0
  126.3290  129.7180   58.1250 C   0  0  0  0  0  0  0  0  0  0  0  0
  126.6590  130.2270   59.3900 C   0  0  0  0  0  0  0  0  0  0  0  0
  125.7350  130.9590   60.1330 C   0  0  0  0  0  0  0  0  0  0  0  0
  124.4640  131.1880   59.6180 C   0  0  0  0  0  0  0  0  0  0  0  0
  124.1100  130.6920   58.3680 C   0  0  0  0  0  0  0  0  0  0  0  0
  125.0370  129.9600   57.6290 C   0  0  0  0  0  0  0  0  0  0  0  0
  127.9790  127.8040   57.8450 C   0  0  0  0  0  0  0  0  0  0  0  0
  128.9020  127.1090   57.0550 C   0  0  0  0  0  0  0  0  0  0  0  0
  129.5730  125.8730   57.6510 C   0  0  0  0  0  0  0  0  0  0  0  0
  129.1750  127.5670   55.7480 C   0  0  0  0  0  0  0  0  0  0  0  0
  130.0990  126.8270   54.8860 C   0  0  0  0  0  0  0  0  0  0  0  0
  130.8310  126.2410   54.2080 N   0  0  0  0  0  0  0  0  0  0  0  0
  132.8660  130.3860   56.9190 C   0  0  0  0  0  0  0  0  0  0  0  0
  133.5500  130.4460   58.1310 C   0  0  0  0  0  0  0  0  0  0  0  0
  1  2  1  0
  2  3  1  0
  3  4  2  0
  4  5  1  0
  5  6  2  0
  6  7  1  0
  7  8  1  0
  8  9  2  0
  8 10  1  0
 10 11  1  0
 11 12  1  0
 12 13  2  0
 13 14  1  0
 14 15  1  0
 15 16  2  0
 16 17  1  0
 17 18  2  0
 18 19  1  0
 19 20  2  0
 14 21  2  0
 21 22  1  0
 22 23  1  0
 22 24  2  0
 24 25  1  0
 25 26  3  0
  6 27  1  0
 27 28  2  0
 28  3  1  0
 24 12  1  0
 20 15  1  0
M  END
>  <Binding energies>  (17) 
[-8.75]

>  <Ligand effiencies>  (17) 
[-0.3017241379310345]

>  <Interactions>  (17) 
["V-A:PRO:540:C:4881, V-A:PRO:540:CB:4885, V-A:PRO:540:CA:4883, V-A:TYR:539:CE1:4875, H-A:TYR:531:OH:4795, V-A:ASP:366:CG:3212, V-A:ILE:538:CB:4862, V-A:TYR:539:CZ:4877, V-A:ILE:538:CA:4860, V-A:TYR:531:CZ:4794, V-B:LYS:534:CE:9794, V-A:ILE:538:CG2:4863, H-A:TYR:539:N:4870, H-B:LYS:534:NZ:9795, H-B:TYR:531:OH:9767, V-A:LEU:363:CD1:3188, V-A:LEU:363:CB:3186, V-A:LEU:363:CA:3184, V-A:ASP:366:CB:3211, V-B:ASP:366:CB:8183, V-B:ILE:369:CG2:8208, V-B:ASP:366:CA:8181, H-B:TYR:539:OH:9850, V-A:ASN:362:CB:3175, V-B:ASP:366:C:8179, V-B:ILE:369:CB:8207, H-A:LEU:363:N:3185"]

$$$$
3bd_Grossjean_2025
     RDKit          3D

 26 28  0  0  0  0  0  0  0  0999 V2000
  129.4060  125.8410   57.6010 C   0  0  0  0  0  0  0  0  0  0  0  0
  128.8180  127.1200   57.0080 C   0  0  0  0  0  0  0  0  0  0  0  0
  127.9110  127.8530   57.7810 C   0  0  0  0  0  0  0  0  0  0  0  0
  127.3470  129.0280   57.2720 C   0  0  0  0  0  0  0  0  0  0  0  0
  126.3730  129.8630   58.0490 C   0  0  0  0  0  0  0  0  0  0  0  0
  126.7870  130.5820   59.1820 C   0  0  0  0  0  0  0  0  0  0  0  0
  125.8870  131.3570   59.9080 C   0  0  0  0  0  0  0  0  0  0  0  0
  124.5550  131.4240   59.5110 C   0  0  0  0  0  0  0  0  0  0  0  0
  124.1190  130.7190   58.3950 C   0  0  0  0  0  0  0  0  0  0  0  0
  125.0210  129.9450   57.6710 C   0  0  0  0  0  0  0  0  0  0  0  0
  127.6800  129.4800   56.0340 N   0  0  0  0  0  0  0  0  0  0  0  0
  128.5580  128.7810   55.2700 C   0  0  0  0  0  0  0  0  0  0  0  0
  128.9020  129.4730   53.6600 S   0  0  0  0  0  0  0  0  0  0  0  0
  129.2000  131.2550   53.8650 C   0  0  0  0  0  0  0  0  0  0  0  0
  129.7550  131.5880   55.2500 C   0  0  0  0  0  0  0  0  0  0  0  0
  129.3140  132.5670   55.8520 O   0  0  0  0  0  0  0  0  0  0  0  0
  130.7220  130.7620   55.7080 N   0  0  0  0  0  0  0  0  0  0  0  0
  131.4010  130.7920   56.9400 C   0  0  0  0  0  0  0  0  0  0  0  0
  132.7480  130.4200   56.9090 C   0  0  0  0  0  0  0  0  0  0  0  0
  133.5000  130.4100   58.0810 C   0  0  0  0  0  0  0  0  0  0  0  0
  132.9020  130.7620   59.2880 C   0  0  0  0  0  0  0  0  0  0  0  0
  131.5560  131.1210   59.3340 C   0  0  0  0  0  0  0  0  0  0  0  0
  130.8030  131.1330   58.1640 C   0  0  0  0  0  0  0  0  0  0  0  0
  129.1570  127.5840   55.7190 C   0  0  0  0  0  0  0  0  0  0  0  0
  130.1050  126.8400   54.8840 C   0  0  0  0  0  0  0  0  0  0  0  0
  130.8540  126.2530   54.2270 N   0  0  0  0  0  0  0  0  0  0  0  0
  1  2  1  0
  2  3  2  0
  3  4  1  0
  4  5  1  0
  5  6  2  0
  6  7  1  0
  7  8  2  0
  8  9  1  0
  9 10  2  0
  4 11  2  0
 11 12  1  0
 12 13  1  0
 13 14  1  0
 14 15  1  0
 15 16  2  0
 15 17  1  0
 17 18  1  0
 18 19  2  0
 19 20  1  0
 20 21  2  0
 21 22  1  0
 22 23  2  0
 12 24  2  0
 24 25  1  0
 25 26  3  0
 24  2  1  0
 10  5  1  0
 23 18  1  0
M  END
>  <Binding energies>  (18) 
[-8.63]

>  <Ligand effiencies>  (18) 
[-0.31962962962962965]

>  <Interactions>  (18) 
["V-A:PRO:540:CB:4885, V-A:TYR:539:CD1:4873, V-A:PRO:540:CA:4883, V-A:TYR:539:CE1:4875, H-A:TYR:531:OH:4795, V-A:ASP:366:CG:3212, V-A:ILE:538:CB:4862, V-A:TYR:539:CZ:4877, V-A:ILE:538:CA:4860, V-A:TYR:531:CZ:4794, V-B:LYS:534:CE:9794, V-A:ILE:538:CG2:4863, H-A:TYR:539:N:4870, H-B:TYR:531:OH:9767, V-A:LEU:363:CD1:3188, V-A:LEU:363:CB:3186, V-A:LEU:363:CA:3184, V-A:ASP:366:CB:3211, V-B:ASP:366:CB:8183, V-B:ILE:369:CG2:8208, V-B:ASP:366:CA:8181, H-B:TYR:539:OH:9850, V-B:ASP:366:C:8179, V-B:ILE:369:CB:8207"]

$$$$
3be_Grossjean_2025
     RDKit          3D

 27 29  0  0  0  0  0  0  0  0999 V2000
  130.4760  131.3790   60.7340 C   0  0  0  0  0  0  0  0  0  0  0  0
  131.3270  131.1130   59.5070 C   0  0  0  0  0  0  0  0  0  0  0  0
  132.7050  130.9080   59.6030 C   0  0  0  0  0  0  0  0  0  0  0  0
  133.4250  130.6720   58.4310 C   0  0  0  0  0  0  0  0  0  0  0  0
  132.7560  130.6450   57.2050 C   0  0  0  0  0  0  0  0  0  0  0  0
  131.3730  130.8540   57.1800 C   0  0  0  0  0  0  0  0  0  0  0  0
  130.7600  130.8250   55.9130 N   0  0  0  0  0  0  0  0  0  0  0  0
  129.8390  131.6690   55.4000 C   0  0  0  0  0  0  0  0  0  0  0  0
  129.3690  132.6390   55.9980 O   0  0  0  0  0  0  0  0  0  0  0  0
  129.3930  131.3400   53.9670 C   0  0  0  0  0  0  0  0  0  0  0  0
  128.9400  129.5960   53.6770 S   0  0  0  0  0  0  0  0  0  0  0  0
  128.6250  128.8370   55.2550 C   0  0  0  0  0  0  0  0  0  0  0  0
  127.7240  129.5110   56.0120 N   0  0  0  0  0  0  0  0  0  0  0  0
  127.3860  129.0410   57.2420 C   0  0  0  0  0  0  0  0  0  0  0  0
  126.3940  129.8520   58.0210 C   0  0  0  0  0  0  0  0  0  0  0  0
  126.8040  130.6310   59.1150 C   0  0  0  0  0  0  0  0  0  0  0  0
  125.8880  131.3840   59.8430 C   0  0  0  0  0  0  0  0  0  0  0  0
  124.5440  131.3700   59.4870 C   0  0  0  0  0  0  0  0  0  0  0  0
  124.1100  130.6060   58.4090 C   0  0  0  0  0  0  0  0  0  0  0  0
  125.0300  129.8530   57.6830 C   0  0  0  0  0  0  0  0  0  0  0  0
  127.9590  127.8670   57.7430 C   0  0  0  0  0  0  0  0  0  0  0  0
  128.8710  127.1470   56.9650 C   0  0  0  0  0  0  0  0  0  0  0  0
  129.4580  125.8620   57.5470 C   0  0  0  0  0  0  0  0  0  0  0  0
  129.2140  127.6250   55.6820 C   0  0  0  0  0  0  0  0  0  0  0  0
  130.1250  126.8590   54.8300 C   0  0  0  0  0  0  0  0  0  0  0  0
  130.8450  126.2510   54.1570 N   0  0  0  0  0  0  0  0  0  0  0  0
  130.6640  131.0890   58.3230 N   0  0  0  0  0  0  0  0  0  0  0  0
  1  2  1  0
  2  3  2  0
  3  4  1  0
  4  5  2  0
  5  6  1  0
  6  7  1  0
  7  8  1  0
  8  9  2  0
  8 10  1  0
 10 11  1  0
 11 12  1  0
 12 13  2  0
 13 14  1  0
 14 15  1  0
 15 16  2  0
 16 17  1  0
 17 18  2  0
 18 19  1  0
 19 20  2  0
 14 21  2  0
 21 22  1  0
 22 23  1  0
 22 24  2  0
 24 25  1  0
 25 26  3  0
  6 27  2  0
 27  2  1  0
 24 12  1  0
 20 15  1  0
M  END
>  <Binding energies>  (19) 
[-8.78]

>  <Ligand effiencies>  (19) 
[-0.31357142857142856]

>  <Interactions>  (19) 
["V-A:PRO:540:CB:4885, V-A:TYR:539:CD1:4873, V-A:PRO:540:CA:4883, V-A:TYR:539:CE1:4875, H-A:TYR:531:OH:4795, V-A:ASP:366:CG:3212, V-A:ILE:538:CB:4862, V-A:TYR:539:CZ:4877, V-A:ILE:538:CA:4860, V-A:TYR:531:CZ:4794, V-A:ILE:538:CG2:4863, H-A:TYR:539:N:4870, H-B:LYS:534:NZ:9795, H-B:TYR:531:OH:9767, V-A:LEU:363:CD1:3188, V-A:LEU:363:CB:3186, V-A:LEU:363:CA:3184, V-A:ASP:366:CB:3211, V-B:ASP:366:CB:8183, V-B:ILE:369:CG2:8208, V-B:ASP:366:CA:8181, H-B:TYR:539:OH:9850, V-B:ASP:366:C:8179, V-B:ILE:369:CB:8207"]

$$$$
3bf_Grossjean_2025
     RDKit          3D

 26 28  0  0  0  0  0  0  0  0999 V2000
  129.4250  125.9000   57.5510 C   0  0  0  0  0  0  0  0  0  0  0  0
  128.8120  127.1650   56.9540 C   0  0  0  0  0  0  0  0  0  0  0  0
  127.9100  127.8930   57.7360 C   0  0  0  0  0  0  0  0  0  0  0  0
  127.3370  129.0660   57.2330 C   0  0  0  0  0  0  0  0  0  0  0  0
  126.3810  129.9030   58.0290 C   0  0  0  0  0  0  0  0  0  0  0  0
  125.0200  129.9550   57.6900 C   0  0  0  0  0  0  0  0  0  0  0  0
  124.1260  130.7300   58.4240 C   0  0  0  0  0  0  0  0  0  0  0  0
  124.5850  131.4680   59.5110 C   0  0  0  0  0  0  0  0  0  0  0  0
  125.9290  131.4350   59.8670 C   0  0  0  0  0  0  0  0  0  0  0  0
  126.8190  130.6600   59.1290 C   0  0  0  0  0  0  0  0  0  0  0  0
  127.6440  129.5140   55.9870 N   0  0  0  0  0  0  0  0  0  0  0  0
  128.4970  128.8050   55.2070 C   0  0  0  0  0  0  0  0  0  0  0  0
  128.7750  129.5370   53.6080 S   0  0  0  0  0  0  0  0  0  0  0  0
  129.3320  131.2560   53.8620 C   0  0  0  0  0  0  0  0  0  0  0  0
  129.8220  131.5800   55.2810 C   0  0  0  0  0  0  0  0  0  0  0  0
  129.3600  132.5390   55.9020 O   0  0  0  0  0  0  0  0  0  0  0  0
  130.7480  130.7250   55.7660 N   0  0  0  0  0  0  0  0  0  0  0  0
  131.4020  130.7440   57.0120 C   0  0  0  0  0  0  0  0  0  0  0  0
  132.7510  130.3760   57.0310 C   0  0  0  0  0  0  0  0  0  0  0  0
  133.4590  130.3880   58.2340 C   0  0  0  0  0  0  0  0  0  0  0  0
  132.7920  130.7780   59.3960 C   0  0  0  0  0  0  0  0  0  0  0  0
  131.4870  131.1500   59.4050 N   0  0  0  0  0  0  0  0  0  0  0  0
  130.8120  131.1330   58.2270 C   0  0  0  0  0  0  0  0  0  0  0  0
  129.1270  127.6240   55.6560 C   0  0  0  0  0  0  0  0  0  0  0  0
  130.1070  126.9040   54.8390 C   0  0  0  0  0  0  0  0  0  0  0  0
  130.8800  126.3330   54.1930 N   0  0  0  0  0  0  0  0  0  0  0  0
  1  2  1  0
  2  3  2  0
  3  4  1  0
  4  5  1  0
  5  6  2  0
  6  7  1  0
  7  8  2  0
  8  9  1  0
  9 10  2  0
  4 11  2  0
 11 12  1  0
 12 13  1  0
 13 14  1  0
 14 15  1  0
 15 16  2  0
 15 17  1  0
 17 18  1  0
 18 19  2  0
 19 20  1  0
 20 21  2  0
 21 22  1  0
 22 23  2  0
 12 24  2  0
 24 25  1  0
 25 26  3  0
 24  2  1  0
 10  5  1  0
 23 18  1  0
M  END
>  <Binding energies>  (20) 
[-8.24]

>  <Ligand effiencies>  (20) 
[-0.30518518518518517]

>  <Interactions>  (20) 
["V-A:PRO:540:CB:4885, V-A:TYR:539:CD1:4873, V-A:PRO:540:CA:4883, V-A:TYR:539:CE1:4875, H-A:TYR:531:OH:4795, V-A:ASP:366:CG:3212, V-A:ILE:538:CB:4862, V-A:TYR:539:CZ:4877, V-A:ILE:538:CA:4860, V-A:TYR:531:CZ:4794, V-B:LYS:534:CE:9794, V-A:ILE:538:CG2:4863, H-A:TYR:539:N:4870, H-B:LYS:534:NZ:9795, H-B:TYR:531:OH:9767, V-A:LEU:363:CD1:3188, V-A:LEU:363:CB:3186, V-A:LEU:363:CA:3184, V-A:ASP:366:CB:3211, V-B:ASP:366:CB:8183, V-B:ILE:369:CG2:8208, V-B:ASP:366:CA:8181, V-B:ASP:366:C:8179, V-B:ILE:369:CB:8207"]

$$$$
3bg_Grossjean_2025
     RDKit          3D

 27 29  0  0  0  0  0  0  0  0999 V2000
  129.5650  125.5130   57.8720 C   0  0  0  0  0  0  0  0  0  0  0  0
  128.9810  126.7500   57.1930 C   0  0  0  0  0  0  0  0  0  0  0  0
  127.9930  127.4720   57.8700 C   0  0  0  0  0  0  0  0  0  0  0  0
  127.4360  128.6180   57.2860 C   0  0  0  0  0  0  0  0  0  0  0  0
  126.3790  129.4450   57.9650 C   0  0  0  0  0  0  0  0  0  0  0  0
  125.1200  129.6380   57.3740 C   0  0  0  0  0  0  0  0  0  0  0  0
  124.1330  130.3880   58.0070 C   0  0  0  0  0  0  0  0  0  0  0  0
  124.3920  130.9630   59.2470 C   0  0  0  0  0  0  0  0  0  0  0  0
  125.6330  130.7990   59.8500 C   0  0  0  0  0  0  0  0  0  0  0  0
  126.6180  130.0500   59.2120 C   0  0  0  0  0  0  0  0  0  0  0  0
  127.8600  129.0480   56.0680 N   0  0  0  0  0  0  0  0  0  0  0  0
  128.8210  128.3600   55.3980 C   0  0  0  0  0  0  0  0  0  0  0  0
  129.3120  129.0500   53.8260 S   0  0  0  0  0  0  0  0  0  0  0  0
  128.9080  130.8270   53.8300 C   0  0  0  0  0  0  0  0  0  0  0  0
  129.7550  131.6020   54.8440 C   0  0  0  0  0  0  0  0  0  0  0  0
  129.3080  132.6250   55.3630 O   0  0  0  0  0  0  0  0  0  0  0  0
  130.9830  131.1140   55.0950 N   0  0  0  0  0  0  0  0  0  0  0  0
  132.0190  131.7850   55.8800 C   0  0  0  0  0  0  0  0  0  0  0  0
  131.9340  131.4220   57.3570 C   0  0  0  0  0  0  0  0  0  0  0  0
  133.0940  131.0910   58.0660 C   0  0  0  0  0  0  0  0  0  0  0  0
  133.0150  130.7500   59.4120 C   0  0  0  0  0  0  0  0  0  0  0  0
  131.7770  130.7530   60.0530 C   0  0  0  0  0  0  0  0  0  0  0  0
  130.6200  131.1010   59.3600 C   0  0  0  0  0  0  0  0  0  0  0  0
  130.6990  131.4410   58.0120 C   0  0  0  0  0  0  0  0  0  0  0  0
  129.4090  127.1910   55.9230 C   0  0  0  0  0  0  0  0  0  0  0  0
  130.4470  126.4600   55.1920 C   0  0  0  0  0  0  0  0  0  0  0  0
  131.2680  125.8810   54.6160 N   0  0  0  0  0  0  0  0  0  0  0  0
  1  2  1  0
  2  3  2  0
  3  4  1  0
  4  5  1  0
  5  6  2  0
  6  7  1  0
  7  8  2  0
  8  9  1  0
  9 10  2  0
  4 11  2  0
 11 12  1  0
 12 13  1  0
 13 14  1  0
 14 15  1  0
 15 16  2  0
 15 17  1  0
 17 18  1  0
 18 19  1  0
 19 20  2  0
 20 21  1  0
 21 22  2  0
 22 23  1  0
 23 24  2  0
 12 25  2  0
 25 26  1  0
 26 27  3  0
 25  2  1  0
 10  5  1  0
 24 19  1  0
M  END
>  <Binding energies>  (21) 
[-8.97]

>  <Ligand effiencies>  (21) 
[-0.3203571428571429]

>  <Interactions>  (21) 
["V-A:PRO:540:CB:4885, V-A:PRO:540:CA:4883, V-A:TYR:539:CE1:4875, H-A:TYR:531:OH:4795, V-A:PRO:540:N:4884, V-A:ASP:366:CG:3212, V-B:TYR:531:CZ:9766, V-A:ILE:538:CB:4862, V-A:TYR:539:CZ:4877, V-A:ILE:538:CA:4860, V-A:TYR:531:CZ:4794, V-B:LYS:534:CE:9794, V-A:ILE:538:CG2:4863, H-A:TYR:539:N:4870, H-B:TYR:531:OH:9767, V-A:LEU:363:CD1:3188, V-B:TYR:531:CE1:9764, V-A:LEU:363:CB:3186, V-A:LEU:363:CA:3184, V-B:ASP:366:CB:8183, V-B:ILE:369:CG2:8208, V-B:ASP:366:CA:8181, H-B:TYR:539:OH:9850, V-A:TYR:531:CE2:4793, V-B:ASP:366:C:8179, V-B:ILE:369:CB:8207"]

$$$$
3ca_Grossjean_2025
     RDKit          3D

 31 33  0  0  0  0  0  0  0  0999 V2000
  126.7170  122.1400   56.8990 C   0  0  0  0  0  0  0  0  0  0  0  0
  127.8330  122.6400   57.8210 C   0  0  0  0  0  0  0  0  0  0  0  0
  128.8970  123.1620   57.0350 O   0  0  0  0  0  0  0  0  0  0  0  0
  129.7180  124.1280   57.5190 C   0  0  0  0  0  0  0  0  0  0  0  0
  130.3820  124.0020   58.5530 O   0  0  0  0  0  0  0  0  0  0  0  0
  129.7440  125.3670   56.6690 C   0  0  0  0  0  0  0  0  0  0  0  0
  129.3680  126.5920   57.2340 C   0  0  0  0  0  0  0  0  0  0  0  0
  129.3810  127.7570   56.4720 C   0  0  0  0  0  0  0  0  0  0  0  0
  129.7640  127.7200   55.1300 C   0  0  0  0  0  0  0  0  0  0  0  0
  129.7430  128.9540   54.4520 N   0  0  0  0  0  0  0  0  0  0  0  0
  128.7590  129.5180   53.7190 C   0  0  0  0  0  0  0  0  0  0  0  0
  127.6460  129.0300   53.5240 O   0  0  0  0  0  0  0  0  0  0  0  0
  129.0940  130.8870   53.1180 C   0  0  0  0  0  0  0  0  0  0  0  0
  129.0680  132.2360   54.3450 S   0  0  0  0  0  0  0  0  0  0  0  0
  129.1130  131.5550   55.9970 C   0  0  0  0  0  0  0  0  0  0  0  0
  127.9710  130.9530   56.4160 N   0  0  0  0  0  0  0  0  0  0  0  0
  127.9390  130.3970   57.6470 C   0  0  0  0  0  0  0  0  0  0  0  0
  126.6350  129.7290   58.0340 C   0  0  0  0  0  0  0  0  0  0  0  0
  129.0300  130.4310   58.5120 C   0  0  0  0  0  0  0  0  0  0  0  0
  130.2140  131.0620   58.1100 C   0  0  0  0  0  0  0  0  0  0  0  0
  131.3530  131.0850   59.0770 C   0  0  0  0  0  0  0  0  0  0  0  0
  131.1300  131.4180   60.4190 C   0  0  0  0  0  0  0  0  0  0  0  0
  132.1860  131.4510   61.3250 C   0  0  0  0  0  0  0  0  0  0  0  0
  133.4750  131.1540   60.8900 C   0  0  0  0  0  0  0  0  0  0  0  0
  133.7160  130.8270   59.5580 C   0  0  0  0  0  0  0  0  0  0  0  0
  132.6570  130.7960   58.6550 C   0  0  0  0  0  0  0  0  0  0  0  0
  130.2660  131.6340   56.8140 C   0  0  0  0  0  0  0  0  0  0  0  0
  131.4950  132.2630   56.3190 C   0  0  0  0  0  0  0  0  0  0  0  0
  132.4660  132.7590   55.9290 N   0  0  0  0  0  0  0  0  0  0  0  0
  130.1500  126.4980   54.5580 C   0  0  0  0  0  0  0  0  0  0  0  0
  130.1380  125.3350   55.3230 C   0  0  0  0  0  0  0  0  0  0  0  0
  1  2  1  0
  2  3  1  0
  3  4  1  0
  4  5  2  0
  4  6  1  0
  6  7  2  0
  7  8  1  0
  8  9  2  0
  9 10  1  0
 10 11  1  0
 11 12  2  0
 11 13  1  0
 13 14  1  0
 14 15  1  0
 15 16  2  0
 16 17  1  0
 17 18  1  0
 17 19  2  0
 19 20  1  0
 20 21  1  0
 21 22  2  0
 22 23  1  0
 23 24  2  0
 24 25  1  0
 25 26  2  0
 20 27  2  0
 27 28  1  0
 28 29  3  0
  9 30  1  0
 30 31  2  0
 31  6  1  0
 27 15  1  0
 26 21  1  0
M  END
>  <Binding energies>  (22) 
[-9.04]

>  <Ligand effiencies>  (22) 
[-0.2825]

>  <Interactions>  (22) 
["V-A:PRO:540:C:4881, V-A:PRO:540:CB:4885, V-A:TYR:539:CD1:4873, V-A:PRO:540:CA:4883, V-A:TYR:539:CE1:4875, H-A:TYR:531:OH:4795, V-A:PRO:540:N:4884, V-A:ASP:366:CG:3212, V-B:TYR:539:C:9839, V-B:PRO:540:CB:9857, V-B:PRO:540:CA:9855, V-B:PRO:540:N:9856, V-A:MET:535:CE:4835, V-A:ILE:538:CB:4862, V-A:TYR:531:CZ:4794, V-A:MET:535:CG:4833, V-B:LYS:534:CE:9794, V-A:ILE:538:CG2:4863, H-A:TYR:539:N:4870, H-B:LYS:534:NZ:9795, H-A:TYR:539:OH:4878, H-B:TYR:531:OH:9767, V-A:LEU:363:CD1:3188, V-A:PRO:540:CD:4887, V-A:LEU:363:CB:3186, V-A:LEU:363:CA:3184, V-A:ASP:366:CB:3211, V-B:MET:535:CE:9807, V-B:PRO:540:CD:9859, V-B:TYR:539:CE2:9848, V-B:TYR:539:CZ:9849, H-B:TYR:539:OH:9850, V-A:ASN:362:C:3171, V-A:ASN:362:CB:3175, V-A:MET:535:CB:4832"]

$$$$
3ce_Grossjean_2025
     RDKit          3D

 27 29  0  0  0  0  0  0  0  0999 V2000
  132.2950  125.1650   56.8590 C   0  0  0  0  0  0  0  0  0  0  0  0
  130.9710  125.8660   56.6260 C   0  0  0  0  0  0  0  0  0  0  0  0
  129.7890  125.4120   57.2180 C   0  0  0  0  0  0  0  0  0  0  0  0
  128.6100  126.1120   56.9680 C   0  0  0  0  0  0  0  0  0  0  0  0
  128.6370  127.2380   56.1410 C   0  0  0  0  0  0  0  0  0  0  0  0
  129.8530  127.6330   55.5720 C   0  0  0  0  0  0  0  0  0  0  0  0
  129.8250  128.7830   54.7650 N   0  0  0  0  0  0  0  0  0  0  0  0
  128.8770  129.1580   53.8780 C   0  0  0  0  0  0  0  0  0  0  0  0
  127.8470  128.5270   53.6350 O   0  0  0  0  0  0  0  0  0  0  0  0
  129.1360  130.4760   53.1480 C   0  0  0  0  0  0  0  0  0  0  0  0
  128.8480  131.9140   54.2210 S   0  0  0  0  0  0  0  0  0  0  0  0
  128.9680  131.3060   55.8870 C   0  0  0  0  0  0  0  0  0  0  0  0
  127.8380  130.7100   56.3400 N   0  0  0  0  0  0  0  0  0  0  0  0
  127.8330  130.1990   57.5920 C   0  0  0  0  0  0  0  0  0  0  0  0
  126.5410  129.5350   58.0290 C   0  0  0  0  0  0  0  0  0  0  0  0
  128.9370  130.2720   58.4370 C   0  0  0  0  0  0  0  0  0  0  0  0
  130.1060  130.9070   57.9970 C   0  0  0  0  0  0  0  0  0  0  0  0
  131.2560  130.9840   58.9470 C   0  0  0  0  0  0  0  0  0  0  0  0
  132.5520  130.6840   58.5100 C   0  0  0  0  0  0  0  0  0  0  0  0
  133.6270  130.7470   59.3920 C   0  0  0  0  0  0  0  0  0  0  0  0
  133.4110  131.1040   60.7200 C   0  0  0  0  0  0  0  0  0  0  0  0
  132.1270  131.3950   61.1730 C   0  0  0  0  0  0  0  0  0  0  0  0
  131.0530  131.3320   60.2890 C   0  0  0  0  0  0  0  0  0  0  0  0
  130.1320  131.4380   56.6830 C   0  0  0  0  0  0  0  0  0  0  0  0
  131.3320  132.1000   56.1620 C   0  0  0  0  0  0  0  0  0  0  0  0
  132.2800  132.6220   55.7520 N   0  0  0  0  0  0  0  0  0  0  0  0
  131.0130  126.9560   55.8190 N   0  0  0  0  0  0  0  0  0  0  0  0
  1  2  1  0
  2  3  2  0
  3  4  1  0
  4  5  2  0
  5  6  1  0
  6  7  1  0
  7  8  1  0
  8  9  2  0
  8 10  1  0
 10 11  1  0
 11 12  1  0
 12 13  2  0
 13 14  1  0
 14 15  1  0
 14 16  2  0
 16 17  1  0
 17 18  1  0
 18 19  2  0
 19 20  1  0
 20 21  2  0
 21 22  1  0
 22 23  2  0
 17 24  2  0
 24 25  1  0
 25 26  3  0
  6 27  2  0
 27  2  1  0
 24 12  1  0
 23 18  1  0
M  END
>  <Binding energies>  (23) 
[-8.52]

>  <Ligand effiencies>  (23) 
[-0.30428571428571427]

>  <Interactions>  (23) 
["V-A:PRO:540:C:4881, V-A:PRO:540:CB:4885, V-A:PRO:540:CA:4883, V-A:TYR:539:CE1:4875, H-A:TYR:531:OH:4795, V-A:PRO:540:N:4884, V-A:ASP:366:CG:3212, V-A:ILE:538:CB:4862, V-A:TYR:531:CZ:4794, V-A:MET:535:CG:4833, V-B:LYS:534:CE:9794, V-A:ILE:538:CG2:4863, H-B:LYS:534:NZ:9795, H-A:TYR:539:OH:4878, H-B:TYR:531:OH:9767, V-A:PRO:540:CD:4887, V-A:LEU:363:CB:3186, V-A:LEU:363:CA:3184, V-A:ASP:366:CB:3211, V-B:TYR:539:CZ:9849, V-A:ASP:366:C:3207, V-A:ASN:362:C:3171, V-A:ASN:362:CB:3175, V-A:MET:535:CB:4832"]

$$$$
3cj_Grossjean_2025
     RDKit          3D

 25 27  0  0  0  0  0  0  0  0999 V2000
  126.5540  129.6380   57.9670 C   0  0  0  0  0  0  0  0  0  0  0  0
  127.8190  130.3590   57.5450 C   0  0  0  0  0  0  0  0  0  0  0  0
  128.9410  130.4080   58.3710 C   0  0  0  0  0  0  0  0  0  0  0  0
  130.0970  131.0660   57.9300 C   0  0  0  0  0  0  0  0  0  0  0  0
  131.2940  131.0370   58.8200 C   0  0  0  0  0  0  0  0  0  0  0  0
  131.1760  131.3410   60.1820 C   0  0  0  0  0  0  0  0  0  0  0  0
  132.2970  131.3270   61.0090 C   0  0  0  0  0  0  0  0  0  0  0  0
  133.5420  131.0140   60.4740 C   0  0  0  0  0  0  0  0  0  0  0  0
  133.6780  130.7180   59.1200 C   0  0  0  0  0  0  0  0  0  0  0  0
  132.5560  130.7330   58.2950 C   0  0  0  0  0  0  0  0  0  0  0  0
  130.0730  131.6940   56.6610 C   0  0  0  0  0  0  0  0  0  0  0  0
  131.2420  132.4220   56.1570 C   0  0  0  0  0  0  0  0  0  0  0  0
  132.1660  132.9960   55.7590 N   0  0  0  0  0  0  0  0  0  0  0  0
  128.8950  131.5900   55.8880 C   0  0  0  0  0  0  0  0  0  0  0  0
  128.7770  132.2160   54.2250 S   0  0  0  0  0  0  0  0  0  0  0  0
  129.2790  130.8220   53.1650 C   0  0  0  0  0  0  0  0  0  0  0  0
  128.8720  129.4730   53.7660 C   0  0  0  0  0  0  0  0  0  0  0  0
  127.7740  128.9890   53.4840 O   0  0  0  0  0  0  0  0  0  0  0  0
  129.7990  128.8870   54.5540 N   0  0  0  0  0  0  0  0  0  0  0  0
  129.7340  127.6180   55.1050 C   0  0  0  0  0  0  0  0  0  0  0  0
  130.3990  126.5430   54.7380 N   0  0  0  0  0  0  0  0  0  0  0  0
  130.1110  125.5120   55.5070 C   0  0  0  0  0  0  0  0  0  0  0  0
  129.1910  125.7400   56.5260 C   0  0  0  0  0  0  0  0  0  0  0  0
  128.6790  127.4000   56.4640 S   0  0  0  0  0  0  0  0  0  0  0  0
  127.7930  130.9260   56.3180 N   0  0  0  0  0  0  0  0  0  0  0  0
  1  2  1  0
  2  3  2  0
  3  4  1  0
  4  5  1  0
  5  6  2  0
  6  7  1  0
  7  8  2  0
  8  9  1  0
  9 10  2  0
  4 11  2  0
 11 12  1  0
 12 13  3  0
 11 14  1  0
 14 15  1  0
 15 16  1  0
 16 17  1  0
 17 18  2  0
 17 19  1  0
 19 20  1  0
 20 21  2  0
 21 22  1  0
 22 23  2  0
 23 24  1  0
 14 25  2  0
 25  2  1  0
 10  5  1  0
 24 20  1  0
M  END
>  <Binding energies>  (24) 
[-8.41]

>  <Ligand effiencies>  (24) 
[-0.32346153846153847]

>  <Interactions>  (24) 
["V-A:PRO:540:C:4881, V-A:PRO:540:CB:4885, V-A:TYR:539:CD1:4873, V-A:TYR:539:C:4867, V-A:PRO:540:CA:4883, V-A:TYR:539:CE1:4875, H-A:TYR:531:OH:4795, V-A:PRO:540:N:4884, V-A:ASP:366:CG:3212, V-A:ILE:538:CB:4862, V-A:TYR:539:CZ:4877, V-A:ILE:538:CA:4860, V-A:TYR:531:CZ:4794, V-A:MET:535:CG:4833, V-B:LYS:534:CE:9794, V-A:ILE:538:CG2:4863, H-A:TYR:539:N:4870, H-B:LYS:534:NZ:9795, H-A:TYR:539:OH:4878, H-B:TYR:531:OH:9767, V-A:LEU:363:CD1:3188, V-A:PRO:540:CD:4887, V-A:LEU:363:CB:3186, V-A:LEU:363:CA:3184, V-A:ASP:366:CB:3211, V-B:MET:535:CE:9807, V-A:ASN:362:C:3171, V-A:ASN:362:CB:3175, V-A:MET:535:CB:4832"]

$$$$
4ba_Grossjean_2025
     RDKit          3D

 28 30  0  0  0  0  0  0  0  0999 V2000
  125.2460  121.7510   54.8310 C   0  0  0  0  0  0  0  0  0  0  0  0
  125.9990  121.8110   56.1740 C   0  0  0  0  0  0  0  0  0  0  0  0
  125.9660  123.1810   56.8820 C   0  0  0  0  0  0  0  0  0  0  0  0
  125.1650  124.0400   56.5060 O   0  0  0  0  0  0  0  0  0  0  0  0
  126.9240  123.4040   58.0160 C   0  0  0  0  0  0  0  0  0  0  0  0
  126.5050  124.1310   59.1370 C   0  0  0  0  0  0  0  0  0  0  0  0
  127.3730  124.3530   60.2030 C   0  0  0  0  0  0  0  0  0  0  0  0
  128.6740  123.8510   60.1720 C   0  0  0  0  0  0  0  0  0  0  0  0
  129.4690  124.1430   61.2970 N   0  0  0  0  0  0  0  0  0  0  0  0
  129.3810  123.6830   62.5700 C   0  0  0  0  0  0  0  0  0  0  0  0
  128.5020  122.9180   62.9690 O   0  0  0  0  0  0  0  0  0  0  0  0
  130.4080  124.1810   63.4870 C   0  0  0  0  0  0  0  0  0  0  0  0
  132.1080  123.8220   63.1920 S   0  0  0  0  0  0  0  0  0  0  0  0
  132.5860  124.6620   64.6480 C   0  0  0  0  0  0  0  0  0  0  0  0
  133.8640  124.7480   65.0130 N   0  0  0  0  0  0  0  0  0  0  0  0
  134.1110  125.4220   66.1590 C   0  0  0  0  0  0  0  0  0  0  0  0
  135.5730  125.4990   66.5610 C   0  0  0  0  0  0  0  0  0  0  0  0
  133.1200  126.0120   66.9390 C   0  0  0  0  0  0  0  0  0  0  0  0
  131.7710  125.9270   66.5600 C   0  0  0  0  0  0  0  0  0  0  0  0
  130.7170  126.5940   67.4490 C   0  0  0  0  0  0  0  0  0  0  0  0
  131.2110  127.5890   68.1880 F   0  0  0  0  0  0  0  0  0  0  0  0
  129.7430  127.1030   66.6930 F   0  0  0  0  0  0  0  0  0  0  0  0
  130.1990  125.6940   68.2860 F   0  0  0  0  0  0  0  0  0  0  0  0
  131.4760  125.2160   65.3580 C   0  0  0  0  0  0  0  0  0  0  0  0
  130.2420  124.9150   64.6730 C   0  0  0  0  0  0  0  0  0  0  0  0
  129.0180  125.3160   65.1440 N   0  0  0  0  0  0  0  0  0  0  0  0
  129.1040  123.1280   59.0490 C   0  0  0  0  0  0  0  0  0  0  0  0
  128.2350  122.9060   57.9840 C   0  0  0  0  0  0  0  0  0  0  0  0
  1  2  1  0
  2  3  1  0
  3  4  2  0
  3  5  1  0
  5  6  2  0
  6  7  1  0
  7  8  2  0
  8  9  1  0
  9 10  1  0
 10 11  2  0
 10 12  1  0
 12 13  1  0
 13 14  1  0
 14 15  2  0
 15 16  1  0
 16 17  1  0
 16 18  2  0
 18 19  1  0
 19 20  1  0
 20 21  1  0
 20 22  1  0
 20 23  1  0
 19 24  2  0
 24 25  1  0
 25 26  1  0
  8 27  1  0
 27 28  2  0
 28  5  1  0
 25 12  2  0
 24 14  1  0
M  END
>  <Binding energies>  (25) 
[-7.02]

>  <Ligand effiencies>  (25) 
[-0.2264516129032258]

>  <Interactions>  (25) 
["V-A:HIS:456:CE1:4069, V-B:GLU:543:CB:9878, V-A:GLU:543:CB:4906, V-A:GLU:543:CD:4908, V-A:GLY:453:C:4041, V-B:TYR:539:C:9839, H-B:GLU:543:OE1:9881, H-B:GLU:543:OE2:9882, V-A:ARG:545:CD:4923, V-A:GLY:453:CA:4043, V-A:TYR:484:CZ:4346, V-A:GLY:454:CA:4048, V-A:ILE:455:C:4051, V-A:ARG:545:CZ:4926, V-B:GLU:543:CD:9880, V-A:ARG:545:CG:4922, V-B:PRO:540:N:9856, V-B:GLU:543:CG:9879, H-B:TYR:531:OH:9767, V-B:ILE:538:CG2:9835, V-B:MET:535:CE:9807, V-B:LEU:363:CD1:8160, V-B:PRO:540:CD:9859, V-B:ILE:538:CA:9832, V-B:TYR:539:CE2:9848, V-B:TYR:531:CE2:9765, H-A:GLY:454:N:4049, H-A:TYR:484:OH:4347, V-B:ILE:538:CG1:9836, V-B:MET:535:CG:9805, V-B:ILE:538:CB:9834, V-B:MET:535:CB:9804, V-B:ILE:538:C:9830, V-A:TYR:484:CE2:4345, V-A:ARG:545:CB:4921"]

$$$$
4bb_Grossjean_2025
     RDKit          3D

 27 29  0  0  0  0  0  0  0  0999 V2000
  125.2620  123.5090   56.3350 C   0  0  0  0  0  0  0  0  0  0  0  0
  126.3260  122.4770   56.7170 C   0  0  0  0  0  0  0  0  0  0  0  0
  126.3790  121.4310   56.0680 O   0  0  0  0  0  0  0  0  0  0  0  0
  127.2390  122.7900   57.8640 C   0  0  0  0  0  0  0  0  0  0  0  0
  126.7310  123.4550   58.9860 C   0  0  0  0  0  0  0  0  0  0  0  0
  127.5570  123.7570   60.0640 C   0  0  0  0  0  0  0  0  0  0  0  0
  128.9050  123.3940   60.0450 C   0  0  0  0  0  0  0  0  0  0  0  0
  129.6510  123.7520   61.1860 N   0  0  0  0  0  0  0  0  0  0  0  0
  129.4410  123.4540   62.4920 C   0  0  0  0  0  0  0  0  0  0  0  0
  128.4830  122.8030   62.9080 O   0  0  0  0  0  0  0  0  0  0  0  0
  130.4370  123.9940   63.4220 C   0  0  0  0  0  0  0  0  0  0  0  0
  132.1480  123.6380   63.1960 S   0  0  0  0  0  0  0  0  0  0  0  0
  132.5740  124.5440   64.6290 C   0  0  0  0  0  0  0  0  0  0  0  0
  133.8400  124.6620   65.0250 N   0  0  0  0  0  0  0  0  0  0  0  0
  134.0450  125.3870   66.1490 C   0  0  0  0  0  0  0  0  0  0  0  0
  135.4950  125.5110   66.5820 C   0  0  0  0  0  0  0  0  0  0  0  0
  133.0240  125.9890   66.8790 C   0  0  0  0  0  0  0  0  0  0  0  0
  131.6890  125.8680   66.4670 C   0  0  0  0  0  0  0  0  0  0  0  0
  130.6000  126.5490   67.3030 C   0  0  0  0  0  0  0  0  0  0  0  0
  130.0340  125.7280   68.1910 F   0  0  0  0  0  0  0  0  0  0  0  0
  131.1240  127.5710   67.9800 F   0  0  0  0  0  0  0  0  0  0  0  0
  129.6330  127.0000   66.5040 F   0  0  0  0  0  0  0  0  0  0  0  0
  131.4370  125.1100   65.2840 C   0  0  0  0  0  0  0  0  0  0  0  0
  130.2290  124.7730   64.5720 C   0  0  0  0  0  0  0  0  0  0  0  0
  128.9880  125.1880   64.9840 N   0  0  0  0  0  0  0  0  0  0  0  0
  129.4240  122.7340   58.9210 C   0  0  0  0  0  0  0  0  0  0  0  0
  128.5950  122.4340   57.8430 C   0  0  0  0  0  0  0  0  0  0  0  0
  1  2  1  0
  2  3  2  0
  2  4  1  0
  4  5  2  0
  5  6  1  0
  6  7  2  0
  7  8  1  0
  8  9  1  0
  9 10  2  0
  9 11  1  0
 11 12  1  0
 12 13  1  0
 13 14  2  0
 14 15  1  0
 15 16  1  0
 15 17  2  0
 17 18  1  0
 18 19  1  0
 19 20  1  0
 19 21  1  0
 19 22  1  0
 18 23  2  0
 23 24  1  0
 24 25  1  0
  7 26  1  0
 26 27  2  0
 27  4  1  0
 24 11  2  0
 23 13  1  0
M  END
>  <Binding energies>  (26) 
[-7.23]

>  <Ligand effiencies>  (26) 
[-0.24100000000000002]

>  <Interactions>  (26) 
["V-A:HIS:456:CE1:4069, V-B:GLU:543:CB:9878, V-A:GLU:543:CB:4906, V-A:GLU:543:CD:4908, V-A:GLY:453:C:4041, V-B:TYR:539:C:9839, H-B:GLU:543:OE1:9881, V-B:PRO:540:CB:9857, H-B:GLU:543:OE2:9882, V-A:ARG:545:CD:4923, V-A:GLY:453:CA:4043, V-A:TYR:484:CZ:4346, V-A:GLY:454:CA:4048, V-A:ILE:455:C:4051, V-A:ARG:545:CZ:4926, V-B:GLU:543:CD:9880, V-B:PRO:540:CA:9855, V-A:ARG:545:CG:4922, H-B:ALA:541:N:9863, V-B:PRO:540:N:9856, V-B:GLU:543:CG:9879, V-B:TYR:531:CZ:9766, H-B:TYR:539:N:9842, V-B:MET:535:CE:9807, V-B:LEU:363:CD1:8160, V-B:PRO:540:CD:9859, V-B:TYR:539:CE2:9848, V-B:TYR:539:CZ:9849, V-B:TYR:531:CE2:9765, H-A:GLY:454:N:4049, H-A:TYR:484:OH:4347, V-B:TYR:539:CD2:9846, V-B:MET:535:CG:9805, V-B:TYR:539:CG:9844, V-A:TYR:484:CE2:4345, V-A:ARG:545:CB:4921"]

$$$$
4bd_Grossjean_2025
     RDKit          3D

 24 26  0  0  0  0  0  0  0  0999 V2000
  124.8490  129.5670   65.4620 C   0  0  0  0  0  0  0  0  0  0  0  0
  125.3860  130.4950   64.3880 C   0  0  0  0  0  0  0  0  0  0  0  0
  126.6950  130.3780   63.9270 C   0  0  0  0  0  0  0  0  0  0  0  0
  127.1800  131.2450   62.9350 C   0  0  0  0  0  0  0  0  0  0  0  0
  128.6280  131.0800   62.4620 C   0  0  0  0  0  0  0  0  0  0  0  0
  128.7980  131.4070   61.1790 F   0  0  0  0  0  0  0  0  0  0  0  0
  129.4310  131.8630   63.1820 F   0  0  0  0  0  0  0  0  0  0  0  0
  129.0070  129.8100   62.6030 F   0  0  0  0  0  0  0  0  0  0  0  0
  126.2790  132.2310   62.4320 C   0  0  0  0  0  0  0  0  0  0  0  0
  126.4130  133.2670   61.4380 C   0  0  0  0  0  0  0  0  0  0  0  0
  127.5730  133.4750   60.7390 N   0  0  0  0  0  0  0  0  0  0  0  0
  125.2530  134.0380   61.2530 C   0  0  0  0  0  0  0  0  0  0  0  0
  125.0450  135.1710   60.3450 C   0  0  0  0  0  0  0  0  0  0  0  0
  124.5160  135.0060   59.2460 O   0  0  0  0  0  0  0  0  0  0  0  0
  125.4600  136.3750   60.8130 N   0  0  0  0  0  0  0  0  0  0  0  0
  125.4430  137.6330   60.1840 C   0  0  0  0  0  0  0  0  0  0  0  0
  124.1800  138.1470   59.8760 C   0  0  0  0  0  0  0  0  0  0  0  0
  124.0580  139.3900   59.2620 C   0  0  0  0  0  0  0  0  0  0  0  0
  125.2000  140.1270   58.9620 C   0  0  0  0  0  0  0  0  0  0  0  0
  126.4640  139.6330   59.2760 C   0  0  0  0  0  0  0  0  0  0  0  0
  126.5900  138.3890   59.8900 C   0  0  0  0  0  0  0  0  0  0  0  0
  123.9510  133.4950   62.3080 S   0  0  0  0  0  0  0  0  0  0  0  0
  124.9640  132.2450   62.9910 C   0  0  0  0  0  0  0  0  0  0  0  0
  124.5090  131.4190   63.9320 N   0  0  0  0  0  0  0  0  0  0  0  0
  1  2  1  0
  2  3  2  0
  3  4  1  0
  4  5  1  0
  5  6  1  0
  5  7  1  0
  5  8  1  0
  4  9  2  0
  9 10  1  0
 10 11  1  0
 10 12  2  0
 12 13  1  0
 13 14  2  0
 13 15  1  0
 15 16  1  0
 16 17  2  0
 17 18  1  0
 18 19  2  0
 19 20  1  0
 20 21  2  0
 12 22  1  0
 22 23  1  0
 23 24  2  0
 24  2  1  0
 23  9  1  0
 21 16  1  0
M  END
>  <Binding energies>  (27) 
[-6.95]

>  <Ligand effiencies>  (27) 
[-0.2574074074074074]

>  <Interactions>  (27) 
["V-A:ALA:541:CB:4892, V-B:LEU:475:CD1:9229, V-A:TYR:539:CD1:4873, V-A:TYR:539:C:4867, V-B:GLY:454:CA:9020, V-A:GLU:543:CG:4907, V-A:GLU:543:CD:4908, V-B:ARG:545:CZ:9898, V-B:ILE:369:CD1:8210, H-B:GLY:454:N:9021, V-B:PRO:482:CG:9298, V-B:ILE:369:CG2:8208, H-B:SER:385:OG:8381, V-A:TYR:539:CB:4871, H-A:TYR:539:O:4868, V-B:LEU:373:CD1:8251, V-B:SER:385:CB:8380, V-A:ILE:343:CG2:2991, V-B:HIS:383:CE1:8365, V-B:HIS:383:CD2:8363, V-A:VAL:344:CG1:3000, V-B:LEU:373:CD2:8252, V-B:VAL:384:C:8368, V-B:SER:385:CA:8378, V-A:ALA:541:CA:4890, V-B:HIS:383:CG:8361"]

$$$$
4be_Grossjean_2025
     RDKit          3D

 25 27  0  0  0  0  0  0  0  0999 V2000
  126.0640  140.8430   62.1270 C   0  0  0  0  0  0  0  0  0  0  0  0
  126.0130  139.6880   61.1450 C   0  0  0  0  0  0  0  0  0  0  0  0
  125.9690  139.9030   59.7660 C   0  0  0  0  0  0  0  0  0  0  0  0
  125.9200  138.7930   58.9220 C   0  0  0  0  0  0  0  0  0  0  0  0
  125.9170  137.5090   59.4710 C   0  0  0  0  0  0  0  0  0  0  0  0
  125.9700  137.3640   60.8620 C   0  0  0  0  0  0  0  0  0  0  0  0
  125.9570  136.0460   61.3520 N   0  0  0  0  0  0  0  0  0  0  0  0
  125.4340  134.9310   60.7830 C   0  0  0  0  0  0  0  0  0  0  0  0
  124.8680  134.9200   59.6870 O   0  0  0  0  0  0  0  0  0  0  0  0
  125.5600  133.7030   61.5730 C   0  0  0  0  0  0  0  0  0  0  0  0
  124.2600  133.2100   62.6570 S   0  0  0  0  0  0  0  0  0  0  0  0
  125.1630  131.8070   63.1750 C   0  0  0  0  0  0  0  0  0  0  0  0
  124.6670  130.9530   64.0690 N   0  0  0  0  0  0  0  0  0  0  0  0
  125.4580  129.9030   64.3900 C   0  0  0  0  0  0  0  0  0  0  0  0
  124.8770  128.9430   65.4120 C   0  0  0  0  0  0  0  0  0  0  0  0
  126.7200  129.6890   63.8420 C   0  0  0  0  0  0  0  0  0  0  0  0
  127.2470  130.5840   62.8990 C   0  0  0  0  0  0  0  0  0  0  0  0
  128.6390  130.3040   62.3200 C   0  0  0  0  0  0  0  0  0  0  0  0
  128.6430  130.2250   60.9870 F   0  0  0  0  0  0  0  0  0  0  0  0
  129.4750  131.2840   62.6630 F   0  0  0  0  0  0  0  0  0  0  0  0
  129.0990  129.1460   62.7920 F   0  0  0  0  0  0  0  0  0  0  0  0
  126.4400  131.7050   62.5410 C   0  0  0  0  0  0  0  0  0  0  0  0
  126.6420  132.8110   61.6380 C   0  0  0  0  0  0  0  0  0  0  0  0
  127.7890  132.9690   60.9030 N   0  0  0  0  0  0  0  0  0  0  0  0
  126.0120  138.4460   61.6940 N   0  0  0  0  0  0  0  0  0  0  0  0
  1  2  1  0
  2  3  2  0
  3  4  1  0
  4  5  2  0
  5  6  1  0
  6  7  1  0
  7  8  1  0
  8  9  2  0
  8 10  1  0
 10 11  1  0
 11 12  1  0
 12 13  2  0
 13 14  1  0
 14 15  1  0
 14 16  2  0
 16 17  1  0
 17 18  1  0
 18 19  1  0
 18 20  1  0
 18 21  1  0
 17 22  2  0
 22 23  1  0
 23 24  1  0
  6 25  2  0
 25  2  1  0
 23 10  2  0
 22 12  1  0
M  END
>  <Binding energies>  (28) 
[-6.7]

>  <Ligand effiencies>  (28) 
[-0.2392857142857143]

>  <Interactions>  (28) 
["V-A:ALA:541:CB:4892, V-B:LEU:475:CD1:9229, V-A:TYR:539:CD1:4873, V-B:GLY:454:CA:9020, V-A:GLU:543:CG:4907, V-B:ARG:545:CD:9895, V-A:GLU:543:CD:4908, V-B:ARG:545:CZ:9898, H-B:TYR:484:OH:9319, V-A:TYR:539:CG:4872, V-B:ILE:369:CD1:8210, H-B:GLY:454:N:9021, V-B:PRO:482:CB:9297, V-B:PRO:482:CG:9298, V-B:ILE:369:CG2:8208, H-B:SER:385:OG:8381, V-A:TYR:539:CB:4871, H-A:TYR:539:O:4868, V-B:LEU:373:CD1:8251, V-B:SER:385:CB:8380, V-A:ILE:343:CG2:2991, V-B:HIS:383:CE1:8365, V-B:HIS:383:CD2:8363, V-A:VAL:344:CG1:3000, V-B:CYS:476:C:9235, V-B:THR:477:CA:9241"]

$$$$
4bg_Grossjean_2025
     RDKit          3D

 25 27  0  0  0  0  0  0  0  0999 V2000
  123.7510  129.6570   63.5890 C   0  0  0  0  0  0  0  0  0  0  0  0
  124.6950  130.7200   63.0570 C   0  0  0  0  0  0  0  0  0  0  0  0
  126.0730  130.5200   63.0570 C   0  0  0  0  0  0  0  0  0  0  0  0
  126.9350  131.5140   62.5670 C   0  0  0  0  0  0  0  0  0  0  0  0
  128.4440  131.2490   62.5870 C   0  0  0  0  0  0  0  0  0  0  0  0
  128.7450  129.9530   62.6950 F   0  0  0  0  0  0  0  0  0  0  0  0
  128.9950  131.6940   61.4570 F   0  0  0  0  0  0  0  0  0  0  0  0
  128.9990  131.8760   63.6240 F   0  0  0  0  0  0  0  0  0  0  0  0
  126.3370  132.7130   62.0780 C   0  0  0  0  0  0  0  0  0  0  0  0
  126.8830  133.9260   61.5190 C   0  0  0  0  0  0  0  0  0  0  0  0
  128.2310  134.1320   61.3670 N   0  0  0  0  0  0  0  0  0  0  0  0
  125.9140  134.8670   61.1380 C   0  0  0  0  0  0  0  0  0  0  0  0
  126.1120  136.2010   60.5720 C   0  0  0  0  0  0  0  0  0  0  0  0
  127.2380  136.6330   60.3210 O   0  0  0  0  0  0  0  0  0  0  0  0
  124.9900  136.9030   60.3090 N   0  0  0  0  0  0  0  0  0  0  0  0
  124.9450  138.2570   59.7590 C   0  0  0  0  0  0  0  0  0  0  0  0
  125.7830  139.2610   60.5400 C   0  0  0  0  0  0  0  0  0  0  0  0
  126.7600  140.0190   59.8860 C   0  0  0  0  0  0  0  0  0  0  0  0
  127.4980  140.9630   60.5950 C   0  0  0  0  0  0  0  0  0  0  0  0
  127.2480  141.1580   61.9520 C   0  0  0  0  0  0  0  0  0  0  0  0
  126.2640  140.4190   62.6060 C   0  0  0  0  0  0  0  0  0  0  0  0
  125.5270  139.4730   61.8970 C   0  0  0  0  0  0  0  0  0  0  0  0
  124.2880  134.2950   61.4980 S   0  0  0  0  0  0  0  0  0  0  0  0
  124.9100  132.7880   62.1280 C   0  0  0  0  0  0  0  0  0  0  0  0
  124.0970  131.8430   62.5970 N   0  0  0  0  0  0  0  0  0  0  0  0
  1  2  1  0
  2  3  2  0
  3  4  1  0
  4  5  1  0
  5  6  1  0
  5  7  1  0
  5  8  1  0
  4  9  2  0
  9 10  1  0
 10 11  1  0
 10 12  2  0
 12 13  1  0
 13 14  2  0
 13 15  1  0
 15 16  1  0
 16 17  1  0
 17 18  2  0
 18 19  1  0
 19 20  2  0
 20 21  1  0
 21 22  2  0
 12 23  1  0
 23 24  1  0
 24 25  2  0
 25  2  1  0
 24  9  1  0
 22 17  1  0
M  END
>  <Binding energies>  (29) 
[-7.15]

>  <Ligand effiencies>  (29) 
[-0.2553571428571429]

>  <Interactions>  (29) 
["V-A:ALA:541:CB:4892, V-A:PRO:540:C:4881, V-B:LEU:475:CD1:9229, V-A:TYR:539:CD1:4873, V-A:TYR:539:C:4867, V-A:PRO:540:CA:4883, V-A:GLU:543:CG:4907, V-B:ASP:366:CG:8184, V-A:GLU:543:CD:4908, V-B:ARG:545:CZ:9898, V-B:ILE:369:CD1:8210, H-B:GLY:454:N:9021, V-B:PRO:482:CB:9297, V-B:PRO:482:CG:9298, V-B:ILE:369:CG2:8208, H-B:SER:385:OG:8381, V-A:TYR:539:CB:4871, H-A:TYR:539:O:4868, V-B:LEU:373:CD1:8251, V-B:SER:385:CB:8380, V-A:ILE:343:CG2:2991, V-B:HIS:383:CE1:8365, V-A:VAL:344:CG1:3000, V-B:GLY:453:C:9013, V-A:ALA:541:CA:4890, V-B:GLY:453:CA:9015, V-B:CYS:476:C:9235, V-B:PRO:482:CD:9299, V-B:THR:477:CA:9241, V-B:PRO:482:N:9296, V-B:PRO:482:CA:9295"]

$$$$
4ca_Grossjean_2025
     RDKit          3D

 34 37  0  0  0  0  0  0  0  0999 V2000
  127.8200  131.4310   72.3170 C   0  0  0  0  0  0  0  0  0  0  0  0
  128.6750  130.1880   72.5860 C   0  0  0  0  0  0  0  0  0  0  0  0
  128.6360  129.3330   71.4510 O   0  0  0  0  0  0  0  0  0  0  0  0
  129.3710  128.1910   71.4070 C   0  0  0  0  0  0  0  0  0  0  0  0
  129.9620  127.7250   72.3860 O   0  0  0  0  0  0  0  0  0  0  0  0
  129.3890  127.5510   70.0490 C   0  0  0  0  0  0  0  0  0  0  0  0
  128.6920  126.3520   69.8490 C   0  0  0  0  0  0  0  0  0  0  0  0
  128.6870  125.7370   68.6000 C   0  0  0  0  0  0  0  0  0  0  0  0
  129.3830  126.3010   67.5310 C   0  0  0  0  0  0  0  0  0  0  0  0
  129.3030  125.6000   66.3110 N   0  0  0  0  0  0  0  0  0  0  0  0
  130.2890  125.1170   65.5160 C   0  0  0  0  0  0  0  0  0  0  0  0
  131.4890  125.1830   65.7840 O   0  0  0  0  0  0  0  0  0  0  0  0
  129.8370  124.4700   64.2820 C   0  0  0  0  0  0  0  0  0  0  0  0
  128.5820  125.2190   63.2980 S   0  0  0  0  0  0  0  0  0  0  0  0
  128.6820  123.9370   62.1140 C   0  0  0  0  0  0  0  0  0  0  0  0
  127.9140  123.9350   61.0280 N   0  0  0  0  0  0  0  0  0  0  0  0
  128.0720  122.9040   60.1570 C   0  0  0  0  0  0  0  0  0  0  0  0
  127.1990  122.9350   58.9360 C   0  0  0  0  0  0  0  0  0  0  0  0
  127.4830  122.1210   57.8280 C   0  0  0  0  0  0  0  0  0  0  0  0
  126.6800  122.1500   56.6910 C   0  0  0  0  0  0  0  0  0  0  0  0
  125.5770  122.9960   56.6450 C   0  0  0  0  0  0  0  0  0  0  0  0
  125.2740  123.8150   57.7280 C   0  0  0  0  0  0  0  0  0  0  0  0
  126.0790  123.7840   58.8630 C   0  0  0  0  0  0  0  0  0  0  0  0
  128.9840  121.8700   60.3940 C   0  0  0  0  0  0  0  0  0  0  0  0
  129.7950  121.8610   61.5390 C   0  0  0  0  0  0  0  0  0  0  0  0
  130.7760  120.6990   61.7340 C   0  0  0  0  0  0  0  0  0  0  0  0
  130.7230  119.7990   60.7500 F   0  0  0  0  0  0  0  0  0  0  0  0
  132.0230  121.1640   61.7830 F   0  0  0  0  0  0  0  0  0  0  0  0
  130.4980  120.0600   62.8710 F   0  0  0  0  0  0  0  0  0  0  0  0
  129.6500  122.9460   62.4500 C   0  0  0  0  0  0  0  0  0  0  0  0
  130.2970  123.2790   63.6960 C   0  0  0  0  0  0  0  0  0  0  0  0
  131.2750  122.4960   64.2550 N   0  0  0  0  0  0  0  0  0  0  0  0
  130.0790  127.5030   67.7200 C   0  0  0  0  0  0  0  0  0  0  0  0
  130.0820  128.1190   68.9690 C   0  0  0  0  0  0  0  0  0  0  0  0
  1  2  1  0
  2  3  1  0
  3  4  1  0
  4  5  2  0
  4  6  1  0
  6  7  2  0
  7  8  1  0
  8  9  2  0
  9 10  1  0
 10 11  1  0
 11 12  2  0
 11 13  1  0
 13 14  1  0
 14 15  1  0
 15 16  2  0
 16 17  1  0
 17 18  1  0
 18 19  2  0
 19 20  1  0
 20 21  2  0
 21 22  1  0
 22 23  2  0
 17 24  2  0
 24 25  1  0
 25 26  1  0
 26 27  1  0
 26 28  1  0
 26 29  1  0
 25 30  2  0
 30 31  1  0
 31 32  1  0
  9 33  1  0
 33 34  2  0
 34  6  1  0
 31 13  2  0
 30 15  1  0
 23 18  1  0
M  END
>  <Binding energies>  (30) 
[-7.83]

>  <Ligand effiencies>  (30) 
[-0.21162162162162163]

>  <Interactions>  (30) 
["V-B:TYR:484:CE2:9317, V-B:HIS:456:CE1:9041, V-A:GLU:543:C:4902, V-A:HIS:456:CE1:4069, V-B:GLU:543:CB:9878, V-B:GLU:543:C:9874, V-A:GLU:543:CB:4906, V-A:GLU:543:CD:4908, V-B:TYR:539:C:9839, V-B:PRO:540:CB:9857, H-B:GLU:543:OE2:9882, V-A:TYR:484:CZ:4346, V-A:LEU:475:CD1:4257, V-B:GLU:543:CD:9880, V-B:PRO:540:CA:9855, V-B:ALA:541:CB:9864, V-B:PRO:540:N:9856, V-B:GLU:543:CG:9879, V-B:MET:535:CE:9807, V-B:LEU:363:CD1:8160, V-B:PRO:540:CD:9859, V-B:TYR:531:CE2:9765, H-A:TYR:484:OH:4347, V-B:TYR:539:CD2:9846, V-B:ALA:541:CA:9862, V-B:TYR:484:CD2:9315, V-B:TYR:484:CB:9312, V-B:HIS:456:CD2:9039, V-B:HIS:456:CG:9037, V-B:TYR:484:CG:9313, V-B:TYR:484:CD1:9314, V-B:GLU:543:CA:9876, V-A:LEU:475:CD2:4258"]

$$$$
4cb_Grossjean_2025
     RDKit          3D

 33 36  0  0  0  0  0  0  0  0999 V2000
  124.9550  121.9290   54.9950 C   0  0  0  0  0  0  0  0  0  0  0  0
  125.6000  121.3790   56.1350 O   0  0  0  0  0  0  0  0  0  0  0  0
  126.7740  121.8900   56.5870 C   0  0  0  0  0  0  0  0  0  0  0  0
  127.8650  121.3350   56.4260 O   0  0  0  0  0  0  0  0  0  0  0  0
  126.6140  123.2010   57.3040 C   0  0  0  0  0  0  0  0  0  0  0  0
  127.7480  123.9800   57.5650 C   0  0  0  0  0  0  0  0  0  0  0  0
  127.6320  125.2030   58.2200 C   0  0  0  0  0  0  0  0  0  0  0  0
  126.3830  125.6680   58.6330 C   0  0  0  0  0  0  0  0  0  0  0  0
  126.3800  126.9220   59.2730 N   0  0  0  0  0  0  0  0  0  0  0  0
  126.4190  127.2290   60.5930 C   0  0  0  0  0  0  0  0  0  0  0  0
  126.5170  126.3950   61.4950 O   0  0  0  0  0  0  0  0  0  0  0  0
  126.3560  128.6590   60.9050 C   0  0  0  0  0  0  0  0  0  0  0  0
  126.0770  129.8350   59.6220 S   0  0  0  0  0  0  0  0  0  0  0  0
  126.0980  131.1570   60.7650 C   0  0  0  0  0  0  0  0  0  0  0  0
  125.9250  132.4170   60.3750 N   0  0  0  0  0  0  0  0  0  0  0  0
  125.9470  133.3750   61.3380 C   0  0  0  0  0  0  0  0  0  0  0  0
  125.7420  134.7860   60.8670 C   0  0  0  0  0  0  0  0  0  0  0  0
  126.7670  135.7380   60.9860 C   0  0  0  0  0  0  0  0  0  0  0  0
  126.5830  137.0490   60.5550 C   0  0  0  0  0  0  0  0  0  0  0  0
  125.3670  137.4280   59.9970 C   0  0  0  0  0  0  0  0  0  0  0  0
  124.3330  136.5050   59.8710 C   0  0  0  0  0  0  0  0  0  0  0  0
  124.5210  135.1970   60.3050 C   0  0  0  0  0  0  0  0  0  0  0  0
  126.1650  133.0640   62.6840 C   0  0  0  0  0  0  0  0  0  0  0  0
  126.3530  131.7390   63.1060 C   0  0  0  0  0  0  0  0  0  0  0  0
  126.5850  131.4690   64.5980 C   0  0  0  0  0  0  0  0  0  0  0  0
  127.6660  130.7210   64.8310 F   0  0  0  0  0  0  0  0  0  0  0  0
  126.7520  132.6230   65.2440 F   0  0  0  0  0  0  0  0  0  0  0  0
  125.5360  130.8250   65.1090 F   0  0  0  0  0  0  0  0  0  0  0  0
  126.3150  130.7250   62.1070 C   0  0  0  0  0  0  0  0  0  0  0  0
  126.4540  129.2890   62.1570 C   0  0  0  0  0  0  0  0  0  0  0  0
  126.6640  128.6060   63.3270 N   0  0  0  0  0  0  0  0  0  0  0  0
  125.2420  124.8950   58.3730 C   0  0  0  0  0  0  0  0  0  0  0  0
  125.3600  123.6740   57.7160 C   0  0  0  0  0  0  0  0  0  0  0  0
  1  2  1  0
  2  3  1  0
  3  4  2  0
  3  5  1  0
  5  6  2  0
  6  7  1  0
  7  8  2  0
  8  9  1  0
  9 10  1  0
 10 11  2  0
 10 12  1  0
 12 13  1  0
 13 14  1  0
 14 15  2  0
 15 16  1  0
 16 17  1  0
 17 18  2  0
 18 19  1  0
 19 20  2  0
 20 21  1  0
 21 22  2  0
 16 23  2  0
 23 24  1  0
 24 25  1  0
 25 26  1  0
 25 27  1  0
 25 28  1  0
 24 29  2  0
 29 30  1  0
 30 31  1  0
  8 32  1  0
 32 33  2  0
 33  5  1  0
 30 12  2  0
 29 14  1  0
 22 17  1  0
M  END
>  <Binding energies>  (31) 
[-7.78]

>  <Ligand effiencies>  (31) 
[-0.21611111111111111]

>  <Interactions>  (31) 
["V-A:ALA:541:CB:4892, V-B:TYR:484:CE2:9317, V-B:LEU:475:CD1:9229, V-A:TYR:539:CD1:4873, V-B:TYR:484:CZ:9318, V-B:GLY:454:CA:9020, V-A:GLU:543:CG:4907, V-B:ASP:366:CG:8184, V-A:GLU:543:CD:4908, V-B:TYR:539:C:9839, V-B:PRO:540:CB:9857, H-B:GLU:543:OE2:9882, V-B:PRO:540:CA:9855, V-B:PRO:540:N:9856, H-B:TYR:531:OH:9767, H-B:TYR:539:N:9842, V-B:ILE:538:CG2:9835, V-B:MET:535:CE:9807, V-B:LEU:363:CD1:8160, V-B:ASP:366:CB:8183, V-B:PRO:540:CD:9859, V-B:ILE:538:CA:9832, V-B:PRO:482:CB:9297, V-B:PRO:482:CG:9298, V-B:TYR:531:CE2:9765, V-B:ILE:369:CG2:8208, H-B:ARG:545:NH2:9900, V-A:TYR:539:CB:4871, V-B:ILE:538:CG1:9836, V-B:MET:535:CG:9805, V-B:ILE:538:CB:9834, V-B:TYR:539:CA:9841, V-B:LEU:373:CD1:8251, V-B:SER:385:CB:8380, V-B:SER:385:CA:8378, V-B:LEU:475:CD2:9230, V-B:LEU:475:CG:9228"]

$$$$
4cc_Grossjean_2025
     RDKit          3D

 31 34  0  0  0  0  0  0  0  0999 V2000
  125.2720  121.3830   55.4000 C   0  0  0  0  0  0  0  0  0  0  0  0
  126.1800  121.4190   56.4960 O   0  0  0  0  0  0  0  0  0  0  0  0
  126.3550  122.6030   57.1880 C   0  0  0  0  0  0  0  0  0  0  0  0
  125.2380  123.4290   57.2990 C   0  0  0  0  0  0  0  0  0  0  0  0
  125.3170  124.6420   57.9800 C   0  0  0  0  0  0  0  0  0  0  0  0
  126.5240  125.0490   58.5510 C   0  0  0  0  0  0  0  0  0  0  0  0
  126.5050  126.2810   59.2310 N   0  0  0  0  0  0  0  0  0  0  0  0
  126.4830  126.5230   60.5640 C   0  0  0  0  0  0  0  0  0  0  0  0
  126.5190  125.6420   61.4250 O   0  0  0  0  0  0  0  0  0  0  0  0
  126.4160  127.9370   60.9460 C   0  0  0  0  0  0  0  0  0  0  0  0
  126.2550  129.1840   59.7110 S   0  0  0  0  0  0  0  0  0  0  0  0
  126.2420  130.4440   60.9220 C   0  0  0  0  0  0  0  0  0  0  0  0
  126.1320  131.7280   60.5870 N   0  0  0  0  0  0  0  0  0  0  0  0
  126.1210  132.6350   61.5980 C   0  0  0  0  0  0  0  0  0  0  0  0
  125.9990  134.0740   61.1900 C   0  0  0  0  0  0  0  0  0  0  0  0
  124.8220  134.5530   60.5910 C   0  0  0  0  0  0  0  0  0  0  0  0
  124.7020  135.8870   60.2090 C   0  0  0  0  0  0  0  0  0  0  0  0
  125.7610  136.7630   60.4190 C   0  0  0  0  0  0  0  0  0  0  0  0
  126.9400  136.3140   61.0070 C   0  0  0  0  0  0  0  0  0  0  0  0
  127.0560  134.9790   61.3870 C   0  0  0  0  0  0  0  0  0  0  0  0
  126.2380  132.2500   62.9370 C   0  0  0  0  0  0  0  0  0  0  0  0
  126.3570  130.8990   63.3010 C   0  0  0  0  0  0  0  0  0  0  0  0
  126.4750  130.5480   64.7890 C   0  0  0  0  0  0  0  0  0  0  0  0
  127.5230  129.7680   65.0620 F   0  0  0  0  0  0  0  0  0  0  0  0
  126.6100  131.6630   65.5060 F   0  0  0  0  0  0  0  0  0  0  0  0
  125.3810  129.9000   65.1870 F   0  0  0  0  0  0  0  0  0  0  0  0
  126.3600  129.9380   62.2500 C   0  0  0  0  0  0  0  0  0  0  0  0
  126.4620  128.5000   62.2320 C   0  0  0  0  0  0  0  0  0  0  0  0
  126.5890  127.7520   63.3750 N   0  0  0  0  0  0  0  0  0  0  0  0
  127.6500  124.2170   58.4530 C   0  0  0  0  0  0  0  0  0  0  0  0
  127.5650  123.0060   57.7730 C   0  0  0  0  0  0  0  0  0  0  0  0
  1  2  1  0
  2  3  1  0
  3  4  2  0
  4  5  1  0
  5  6  2  0
  6  7  1  0
  7  8  1  0
  8  9  2  0
  8 10  1  0
 10 11  1  0
 11 12  1  0
 12 13  2  0
 13 14  1  0
 14 15  1  0
 15 16  2  0
 16 17  1  0
 17 18  2  0
 18 19  1  0
 19 20  2  0
 14 21  2  0
 21 22  1  0
 22 23  1  0
 23 24  1  0
 23 25  1  0
 23 26  1  0
 22 27  2  0
 27 28  1  0
 28 29  1  0
  6 30  1  0
 30 31  2  0
 31  3  1  0
 28 10  2  0
 27 12  1  0
 20 15  1  0
M  END
>  <Binding energies>  (32) 
[-7.45]

>  <Ligand effiencies>  (32) 
[-0.21911764705882353]

>  <Interactions>  (32) 
["V-A:ALA:541:CB:4892, V-B:TYR:484:CE2:9317, V-B:LEU:475:CD1:9229, V-A:TYR:539:CD1:4873, V-B:TYR:484:CZ:9318, V-A:GLU:543:CG:4907, V-B:ASP:366:CG:8184, V-A:GLU:543:CD:4908, V-B:ARG:545:CZ:9898, V-B:TYR:539:C:9839, H-B:GLU:543:OE1:9881, V-B:PRO:540:CB:9857, H-B:GLU:543:OE2:9882, V-B:GLU:543:CD:9880, V-B:PRO:540:CA:9855, V-B:PRO:540:N:9856, V-B:TYR:531:CZ:9766, H-B:TYR:531:OH:9767, H-B:TYR:539:N:9842, V-B:ILE:538:CG2:9835, V-B:MET:535:CE:9807, V-B:LEU:363:CD1:8160, V-B:PRO:540:CD:9859, V-B:ILE:538:CA:9832, V-B:PRO:482:CB:9297, V-B:PRO:482:CG:9298, V-B:TYR:531:CE2:9765, V-B:ILE:369:CG2:8208, H-B:ARG:545:NH2:9900, V-A:TYR:539:CB:4871, V-B:ILE:538:CG1:9836, V-B:ILE:538:CB:9834, V-B:ILE:538:C:9830, V-B:LEU:373:CD1:8251, V-B:SER:385:CB:8380"]

$$$$
4ce_Grossjean_2025
     RDKit          3D

 30 33  0  0  0  0  0  0  0  0999 V2000
  129.3460  128.2270   70.9690 C   0  0  0  0  0  0  0  0  0  0  0  0
  129.0790  127.6720   69.5830 C   0  0  0  0  0  0  0  0  0  0  0  0
  129.1130  126.2990   69.3270 C   0  0  0  0  0  0  0  0  0  0  0  0
  128.8490  125.8590   68.0290 C   0  0  0  0  0  0  0  0  0  0  0  0
  128.5580  126.7910   67.0310 C   0  0  0  0  0  0  0  0  0  0  0  0
  128.5460  128.1530   67.3550 C   0  0  0  0  0  0  0  0  0  0  0  0
  128.2230  129.0400   66.3130 N   0  0  0  0  0  0  0  0  0  0  0  0
  127.0130  129.2850   65.7500 C   0  0  0  0  0  0  0  0  0  0  0  0
  125.9680  128.7400   66.1110 O   0  0  0  0  0  0  0  0  0  0  0  0
  127.0120  130.2620   64.6590 C   0  0  0  0  0  0  0  0  0  0  0  0
  125.8880  131.6190   64.6850 S   0  0  0  0  0  0  0  0  0  0  0  0
  126.5360  132.2420   63.1870 C   0  0  0  0  0  0  0  0  0  0  0  0
  126.0620  133.3560   62.6360 N   0  0  0  0  0  0  0  0  0  0  0  0
  126.6400  133.7720   61.4780 C   0  0  0  0  0  0  0  0  0  0  0  0
  126.0870  135.0340   60.8860 C   0  0  0  0  0  0  0  0  0  0  0  0
  126.8820  136.1870   60.7860 C   0  0  0  0  0  0  0  0  0  0  0  0
  126.3730  137.3640   60.2440 C   0  0  0  0  0  0  0  0  0  0  0  0
  125.0580  137.4040   59.7920 C   0  0  0  0  0  0  0  0  0  0  0  0
  124.2490  136.2770   59.8800 C   0  0  0  0  0  0  0  0  0  0  0  0
  124.7610  135.1020   60.4250 C   0  0  0  0  0  0  0  0  0  0  0  0
  127.6750  133.0540   60.8690 C   0  0  0  0  0  0  0  0  0  0  0  0
  128.1780  131.8740   61.4390 C   0  0  0  0  0  0  0  0  0  0  0  0
  129.3140  131.1390   60.7200 C   0  0  0  0  0  0  0  0  0  0  0  0
  130.4380  131.0800   61.4380 F   0  0  0  0  0  0  0  0  0  0  0  0
  128.9440  129.8850   60.4550 F   0  0  0  0  0  0  0  0  0  0  0  0
  129.6030  131.7620   59.5780 F   0  0  0  0  0  0  0  0  0  0  0  0
  127.5910  131.4380   62.6610 C   0  0  0  0  0  0  0  0  0  0  0  0
  127.8400  130.3100   63.5250 C   0  0  0  0  0  0  0  0  0  0  0  0
  128.8030  129.3710   63.2590 N   0  0  0  0  0  0  0  0  0  0  0  0
  128.7990  128.5900   68.6230 N   0  0  0  0  0  0  0  0  0  0  0  0
  1  2  1  0
  2  3  2  0
  3  4  1  0
  4  5  2  0
  5  6  1  0
  6  7  1  0
  7  8  1  0
  8  9  2  0
  8 10  1  0
 10 11  1  0
 11 12  1  0
 12 13  2  0
 13 14  1  0
 14 15  1  0
 15 16  2  0
 16 17  1  0
 17 18  2  0
 18 19  1  0
 19 20  2  0
 14 21  2  0
 21 22  1  0
 22 23  1  0
 23 24  1  0
 23 25  1  0
 23 26  1  0
 22 27  2  0
 27 28  1  0
 28 29  1  0
  6 30  2  0
 30  2  1  0
 28 10  2  0
 27 12  1  0
 20 15  1  0
M  END
>  <Binding energies>  (33) 
[-7.74]

>  <Ligand effiencies>  (33) 
[-0.23454545454545456]

>  <Interactions>  (33) 
["V-A:ALA:541:CB:4892, V-B:HIS:456:CE1:9041, V-A:HIS:456:CE1:4069, V-B:LEU:475:CD1:9229, V-A:TYR:539:CD1:4873, V-A:TYR:539:C:4867, V-A:PRO:540:CA:4883, V-B:TYR:484:CZ:9318, V-B:GLY:454:CA:9020, V-B:GLU:543:CB:9878, V-A:GLU:543:CG:4907, V-A:GLU:543:CB:4906, V-A:GLU:543:CD:4908, H-A:GLU:543:OE2:4910, V-A:PRO:540:N:4884, V-B:GLU:543:CD:9880, V-B:GLU:543:CG:9879, H-B:TYR:484:OH:9319, V-B:PRO:482:CB:9297, V-B:PRO:482:CG:9298, V-B:ILE:369:CG2:8208, V-A:TYR:539:CB:4871, H-A:GLU:543:OE1:4909, H-B:ARG:545:NE:9896, V-B:LEU:373:CD1:8251, V-B:SER:385:CB:8380, V-B:HIS:456:CD2:9039, V-B:SER:385:CA:8378"]

$$$$
4cf_Grossjean_2025
     RDKit          3D

 29 32  0  0  0  0  0  0  0  0999 V2000
  128.6830  129.0430   63.2840 N   0  0  0  0  0  0  0  0  0  0  0  0
  127.8000  130.0450   63.6000 C   0  0  0  0  0  0  0  0  0  0  0  0
  127.0450  130.0600   64.7840 C   0  0  0  0  0  0  0  0  0  0  0  0
  127.0040  129.0610   65.8550 C   0  0  0  0  0  0  0  0  0  0  0  0
  125.9590  128.4630   66.1160 O   0  0  0  0  0  0  0  0  0  0  0  0
  128.1780  128.8520   66.4990 N   0  0  0  0  0  0  0  0  0  0  0  0
  128.4660  128.0100   67.5900 C   0  0  0  0  0  0  0  0  0  0  0  0
  128.3000  126.6120   67.6100 C   0  0  0  0  0  0  0  0  0  0  0  0
  128.6110  125.8960   68.7680 C   0  0  0  0  0  0  0  0  0  0  0  0
  129.0800  126.5960   69.8810 C   0  0  0  0  0  0  0  0  0  0  0  0
  129.2430  127.9430   69.8900 N   0  0  0  0  0  0  0  0  0  0  0  0
  128.9340  128.6250   68.7570 C   0  0  0  0  0  0  0  0  0  0  0  0
  126.0230  131.4930   64.8670 S   0  0  0  0  0  0  0  0  0  0  0  0
  126.6060  132.0550   63.3180 C   0  0  0  0  0  0  0  0  0  0  0  0
  126.1640  133.1880   62.7780 N   0  0  0  0  0  0  0  0  0  0  0  0
  126.6640  133.5340   61.5630 C   0  0  0  0  0  0  0  0  0  0  0  0
  126.1410  134.8120   60.9760 C   0  0  0  0  0  0  0  0  0  0  0  0
  124.8570  134.8710   60.4140 C   0  0  0  0  0  0  0  0  0  0  0  0
  124.3640  136.0540   59.8680 C   0  0  0  0  0  0  0  0  0  0  0  0
  125.1520  137.1990   59.8790 C   0  0  0  0  0  0  0  0  0  0  0  0
  126.4280  137.1700   60.4330 C   0  0  0  0  0  0  0  0  0  0  0  0
  126.9160  135.9860   60.9780 C   0  0  0  0  0  0  0  0  0  0  0  0
  127.6220  132.7540   60.9090 C   0  0  0  0  0  0  0  0  0  0  0  0
  128.0980  131.5590   61.4720 C   0  0  0  0  0  0  0  0  0  0  0  0
  129.1450  130.7500   60.6970 C   0  0  0  0  0  0  0  0  0  0  0  0
  129.5230  131.3340   59.5580 F   0  0  0  0  0  0  0  0  0  0  0  0
  130.2370  130.5930   61.4450 F   0  0  0  0  0  0  0  0  0  0  0  0
  128.6500  129.5520   60.3850 F   0  0  0  0  0  0  0  0  0  0  0  0
  127.5680  131.1770   62.7370 C   0  0  0  0  0  0  0  0  0  0  0  0
  1  2  1  0
  2  3  2  0
  3  4  1  0
  4  5  2  0
  4  6  1  0
  6  7  1  0
  7  8  2  0
  8  9  1  0
  9 10  2  0
 10 11  1  0
 11 12  2  0
  3 13  1  0
 13 14  1  0
 14 15  2  0
 15 16  1  0
 16 17  1  0
 17 18  2  0
 18 19  1  0
 19 20  2  0
 20 21  1  0
 21 22  2  0
 16 23  2  0
 23 24  1  0
 24 25  1  0
 25 26  1  0
 25 27  1  0
 25 28  1  0
 24 29  2  0
 29  2  1  0
 12  7  1  0
 29 14  1  0
 22 17  1  0
M  END
>  <Binding energies>  (34) 
[-7.37]

>  <Ligand effiencies>  (34) 
[-0.2303125]

>  <Interactions>  (34) 
["V-A:ALA:541:CB:4892, V-B:HIS:456:CE1:9041, V-A:GLU:543:C:4902, V-A:HIS:456:CE1:4069, V-B:LEU:475:CD1:9229, V-A:TYR:539:CD1:4873, V-A:PRO:540:CA:4883, V-B:TYR:484:CZ:9318, V-B:GLY:454:CA:9020, V-B:GLU:543:CB:9878, V-A:GLU:543:CG:4907, V-B:GLU:543:C:9874, V-A:TYR:539:CE1:4875, V-A:GLU:543:CB:4906, V-A:GLU:543:CD:4908, H-A:GLU:543:OE2:4910, V-B:GLU:543:CD:9880, V-B:GLU:543:CG:9879, H-B:TYR:484:OH:9319, V-B:PRO:482:CB:9297, V-B:PRO:482:CG:9298, V-B:ILE:369:CG2:8208, V-A:TYR:539:CB:4871, H-A:GLU:543:OE1:4909, H-B:ARG:545:NE:9896, V-B:LEU:373:CD1:8251, V-B:SER:385:CB:8380, V-B:GLU:543:CA:9876"]

$$$$
4ci_Grossjean_2025
     RDKit          3D

 28 31  0  0  0  0  0  0  0  0999 V2000
  131.8260  123.6440   58.2050 N   0  0  0  0  0  0  0  0  0  0  0  0
  131.0970  124.0530   59.2910 C   0  0  0  0  0  0  0  0  0  0  0  0
  129.7070  124.2540   59.2530 C   0  0  0  0  0  0  0  0  0  0  0  0
  128.7880  124.0710   58.1260 C   0  0  0  0  0  0  0  0  0  0  0  0
  128.7070  124.9200   57.2360 O   0  0  0  0  0  0  0  0  0  0  0  0
  128.0520  122.9320   58.1530 N   0  0  0  0  0  0  0  0  0  0  0  0
  127.1100  122.5120   57.2220 C   0  0  0  0  0  0  0  0  0  0  0  0
  125.9520  123.2310   56.9310 C   0  0  0  0  0  0  0  0  0  0  0  0
  125.2990  122.4880   55.9760 C   0  0  0  0  0  0  0  0  0  0  0  0
  126.0260  121.3770   55.7050 O   0  0  0  0  0  0  0  0  0  0  0  0
  127.1720  121.4040   56.5020 N   0  0  0  0  0  0  0  0  0  0  0  0
  129.0950  124.7680   60.8230 S   0  0  0  0  0  0  0  0  0  0  0  0
  130.7000  124.7200   61.5150 C   0  0  0  0  0  0  0  0  0  0  0  0
  130.9170  125.0340   62.7900 N   0  0  0  0  0  0  0  0  0  0  0  0
  132.1970  124.9640   63.2390 C   0  0  0  0  0  0  0  0  0  0  0  0
  132.4110  125.3280   64.6800 C   0  0  0  0  0  0  0  0  0  0  0  0
  131.3600  125.8440   65.4560 C   0  0  0  0  0  0  0  0  0  0  0  0
  131.5520  126.1820   66.7940 C   0  0  0  0  0  0  0  0  0  0  0  0
  132.8040  126.0110   67.3750 C   0  0  0  0  0  0  0  0  0  0  0  0
  133.8630  125.5070   66.6300 C   0  0  0  0  0  0  0  0  0  0  0  0
  133.6670  125.1710   65.2930 C   0  0  0  0  0  0  0  0  0  0  0  0
  133.2540  124.5960   62.3990 C   0  0  0  0  0  0  0  0  0  0  0  0
  133.0360  124.2630   61.0530 C   0  0  0  0  0  0  0  0  0  0  0  0
  134.2410  123.8690   60.1900 C   0  0  0  0  0  0  0  0  0  0  0  0
  135.3970  124.3480   60.6540 F   0  0  0  0  0  0  0  0  0  0  0  0
  134.3480  122.5410   60.1490 F   0  0  0  0  0  0  0  0  0  0  0  0
  134.0820  124.3370   58.9520 F   0  0  0  0  0  0  0  0  0  0  0  0
  131.6960  124.3210   60.5760 C   0  0  0  0  0  0  0  0  0  0  0  0
  1  2  1  0
  2  3  2  0
  3  4  1  0
  4  5  2  0
  4  6  1  0
  6  7  1  0
  7  8  1  0
  8  9  2  0
  9 10  1  0
 10 11  1  0
  3 12  1  0
 12 13  1  0
 13 14  2  0
 14 15  1  0
 15 16  1  0
 16 17  2  0
 17 18  1  0
 18 19  2  0
 19 20  1  0
 20 21  2  0
 15 22  2  0
 22 23  1  0
 23 24  1  0
 24 25  1  0
 24 26  1  0
 24 27  1  0
 23 28  2  0
 28  2  1  0
 11  7  2  0
 28 13  1  0
 21 16  1  0
M  END
>  <Binding energies>  (35) 
[-7.65]

>  <Ligand effiencies>  (35) 
[-0.24677419354838712]

>  <Interactions>  (35) 
["V-A:HIS:456:CE1:4069, V-A:ASP:366:CG:3212, V-B:TYR:539:C:9839, V-A:ARG:545:CD:4923, V-A:TYR:484:CZ:4346, V-A:GLY:454:CA:4048, V-A:ARG:545:CZ:4926, V-B:PRO:540:CA:9855, V-A:ARG:545:CG:4922, V-B:PRO:540:N:9856, H-B:TYR:531:OH:9767, V-A:ASP:366:CB:3211, H-B:TYR:539:N:9842, V-B:MET:535:CE:9807, V-B:LEU:363:CD1:8160, H-B:TYR:539:O:9840, V-B:TYR:539:CE2:9848, V-B:TYR:539:CZ:9849, V-B:TYR:531:CE2:9765, V-A:ILE:369:CD1:3238, V-B:MET:535:CG:9805, V-A:ILE:369:CB:3235, V-A:ASP:366:CA:3209, V-A:ASP:366:C:3207, V-A:ILE:369:CG2:3236, H-B:TYR:539:OH:9850, V-A:ILE:369:CG1:3237, V-A:CYS:365:C:3203"]

$$$$
8a_Ghoteimi_2023
     RDKit          3D

 40 44  0  0  0  0  0  0  0  0999 V2000
  127.9000  130.9660   71.8720 C   0  0  0  0  0  0  0  0  0  0  0  0
  128.9490  130.2480   72.7250 C   0  0  0  0  0  0  0  0  0  0  0  0
  128.7000  128.8480   72.7020 O   0  0  0  0  0  0  0  0  0  0  0  0
  129.6310  127.9790   72.2280 C   0  0  0  0  0  0  0  0  0  0  0  0
  130.5940  127.5850   72.8930 O   0  0  0  0  0  0  0  0  0  0  0  0
  129.3750  127.5490   70.8120 C   0  0  0  0  0  0  0  0  0  0  0  0
  129.5770  128.4650   69.7720 C   0  0  0  0  0  0  0  0  0  0  0  0
  129.3480  128.0980   68.4500 C   0  0  0  0  0  0  0  0  0  0  0  0
  128.9110  126.8100   68.1370 C   0  0  0  0  0  0  0  0  0  0  0  0
  128.7070  126.5530   66.7670 N   0  0  0  0  0  0  0  0  0  0  0  0
  129.5940  126.2240   65.7950 C   0  0  0  0  0  0  0  0  0  0  0  0
  130.8040  126.0920   65.9760 O   0  0  0  0  0  0  0  0  0  0  0  0
  129.0140  126.0180   64.4650 C   0  0  0  0  0  0  0  0  0  0  0  0
  129.0630  124.4260   63.7080 S   0  0  0  0  0  0  0  0  0  0  0  0
  128.2470  125.0270   62.2820 C   0  0  0  0  0  0  0  0  0  0  0  0
  127.9880  124.2390   61.2400 N   0  0  0  0  0  0  0  0  0  0  0  0
  127.3550  124.8070   60.1790 C   0  0  0  0  0  0  0  0  0  0  0  0
  127.0920  123.9100   59.0130 C   0  0  0  0  0  0  0  0  0  0  0  0
  125.8650  123.9430   58.3360 C   0  0  0  0  0  0  0  0  0  0  0  0
  125.6220  123.0970   57.2580 C   0  0  0  0  0  0  0  0  0  0  0  0
  126.5970  122.2000   56.8270 C   0  0  0  0  0  0  0  0  0  0  0  0
  126.2680  121.3980   55.7510 O   0  0  0  0  0  0  0  0  0  0  0  0
  125.1560  121.7540   54.9370 C   0  0  0  0  0  0  0  0  0  0  0  0
  127.8310  122.1630   57.4930 C   0  0  0  0  0  0  0  0  0  0  0  0
  128.0700  123.0080   58.5740 C   0  0  0  0  0  0  0  0  0  0  0  0
  126.9790  126.1520   60.1680 C   0  0  0  0  0  0  0  0  0  0  0  0
  127.2340  126.9790   61.2680 C   0  0  0  0  0  0  0  0  0  0  0  0
  126.7840  128.3930   61.2160 C   0  0  0  0  0  0  0  0  0  0  0  0
  125.6910  128.8110   61.9790 C   0  0  0  0  0  0  0  0  0  0  0  0
  125.2790  130.1400   61.9490 C   0  0  0  0  0  0  0  0  0  0  0  0
  125.9530  131.0750   61.1630 C   0  0  0  0  0  0  0  0  0  0  0  0
  125.4740  132.3700   61.1970 O   0  0  0  0  0  0  0  0  0  0  0  0
  124.4220  132.6980   62.0960 C   0  0  0  0  0  0  0  0  0  0  0  0
  127.0570  130.6590   60.4020 C   0  0  0  0  0  0  0  0  0  0  0  0
  127.4680  129.3290   60.4350 C   0  0  0  0  0  0  0  0  0  0  0  0
  127.9160  126.4110   62.3800 C   0  0  0  0  0  0  0  0  0  0  0  0
  128.3830  126.9560   63.6310 C   0  0  0  0  0  0  0  0  0  0  0  0
  128.2340  128.2800   63.9600 N   0  0  0  0  0  0  0  0  0  0  0  0
  128.7100  125.8830   69.1720 C   0  0  0  0  0  0  0  0  0  0  0  0
  128.9400  126.2530   70.4950 C   0  0  0  0  0  0  0  0  0  0  0  0
  1  2  1  0
  2  3  1  0
  3  4  1  0
  4  5  2  0
  4  6  1  0
  6  7  2  0
  7  8  1  0
  8  9  2  0
  9 10  1  0
 10 11  1  0
 11 12  2  0
 11 13  1  0
 13 14  1  0
 14 15  1  0
 15 16  2  0
 16 17  1  0
 17 18  1  0
 18 19  2  0
 19 20  1  0
 20 21  2  0
 21 22  1  0
 22 23  1  0
 21 24  1  0
 24 25  2  0
 17 26  2  0
 26 27  1  0
 27 28  1  0
 28 29  2  0
 29 30  1  0
 30 31  2  0
 31 32  1  0
 32 33  1  0
 31 34  1  0
 34 35  2  0
 27 36  2  0
 36 37  1  0
 37 38  1  0
  9 39  1  0
 39 40  2  0
 40  6  1  0
 37 13  2  0
 36 15  1  0
 25 18  1  0
 35 28  1  0
M  END
>  <Binding energies>  (36) 
[-8.37]

>  <Ligand effiencies>  (36) 
[-0.19465116279069766]

>  <Interactions>  (36) 
["V-B:TYR:484:CE2:9317, V-B:HIS:456:CE1:9041, V-A:GLU:543:C:4902, V-A:HIS:456:CE1:4069, V-B:LEU:475:CD1:9229, V-B:GLU:543:CB:9878, V-B:GLU:543:C:9874, V-A:GLU:543:CB:4906, V-B:ASP:366:CG:8184, V-A:GLU:543:CD:4908, H-A:GLU:543:OE2:4910, V-B:TYR:539:C:9839, V-B:PRO:540:CB:9857, H-B:GLU:543:OE2:9882, V-B:GLU:543:CD:9880, V-B:PRO:540:CA:9855, V-B:PRO:540:N:9856, V-B:GLU:543:CG:9879, V-B:ILE:369:CD1:8210, H-B:TYR:539:N:9842, V-B:ILE:538:CG2:9835, V-B:MET:535:CE:9807, V-B:LEU:363:CD1:8160, V-B:PRO:540:CD:9859, V-B:ILE:538:CA:9832, V-B:TYR:539:CE2:9848, V-B:ILE:369:CG2:8208, H-A:TYR:484:OH:4347, V-B:TYR:539:CD2:9846, V-B:ILE:538:CG1:9836, V-B:MET:535:CG:9805, V-B:ILE:538:CB:9834, H-A:GLU:543:OE1:4909, V-B:ILE:538:C:9830, V-B:TYR:539:CG:9844, V-B:TYR:484:CD2:9315, V-B:HIS:456:CD2:9039, V-B:HIS:456:CG:9037, V-B:TYR:484:CG:9313, H-A:HIS:456:ND1:4066"]

$$$$
8c_Ghoteimi_2023
     RDKit          3D

 34 38  0  0  0  0  0  0  0  0999 V2000
  125.1900  138.9850   59.4200 C   0  0  0  0  0  0  0  0  0  0  0  0
  125.6500  138.3180   60.5900 O   0  0  0  0  0  0  0  0  0  0  0  0
  125.6830  136.9360   60.6090 C   0  0  0  0  0  0  0  0  0  0  0  0
  126.7100  136.3470   61.3430 C   0  0  0  0  0  0  0  0  0  0  0  0
  126.8230  134.9620   61.4160 C   0  0  0  0  0  0  0  0  0  0  0  0
  125.9090  134.1280   60.7560 C   0  0  0  0  0  0  0  0  0  0  0  0
  126.0270  132.6390   60.8270 C   0  0  0  0  0  0  0  0  0  0  0  0
  125.9740  131.9520   62.0440 C   0  0  0  0  0  0  0  0  0  0  0  0
  126.0840  130.5580   62.0830 C   0  0  0  0  0  0  0  0  0  0  0  0
  126.0320  129.8630   63.3890 C   0  0  0  0  0  0  0  0  0  0  0  0
  127.1530  129.1790   63.8670 C   0  0  0  0  0  0  0  0  0  0  0  0
  127.1060  128.5340   65.0990 C   0  0  0  0  0  0  0  0  0  0  0  0
  125.9420  128.5590   65.8690 C   0  0  0  0  0  0  0  0  0  0  0  0
  125.9870  127.8940   67.0790 O   0  0  0  0  0  0  0  0  0  0  0  0
  127.2190  127.3300   67.5160 C   0  0  0  0  0  0  0  0  0  0  0  0
  124.8150  129.2430   65.3850 C   0  0  0  0  0  0  0  0  0  0  0  0
  124.8640  129.8890   64.1530 C   0  0  0  0  0  0  0  0  0  0  0  0
  126.2450  129.8670   60.8530 C   0  0  0  0  0  0  0  0  0  0  0  0
  126.3840  128.4710   60.5290 C   0  0  0  0  0  0  0  0  0  0  0  0
  126.3780  127.4900   61.4890 N   0  0  0  0  0  0  0  0  0  0  0  0
  126.5230  128.2170   59.1560 C   0  0  0  0  0  0  0  0  0  0  0  0
  126.6790  126.9280   58.4780 C   0  0  0  0  0  0  0  0  0  0  0  0
  127.7200  126.6540   57.8770 O   0  0  0  0  0  0  0  0  0  0  0  0
  125.6150  126.0920   58.5650 N   0  0  0  0  0  0  0  0  0  0  0  0
  125.5050  124.8210   58.0190 C   0  0  0  0  0  0  0  0  0  0  0  0
  126.1000  124.3490   56.9450 N   0  0  0  0  0  0  0  0  0  0  0  0
  125.7670  123.0940   56.7190 C   0  0  0  0  0  0  0  0  0  0  0  0
  124.8790  122.5200   57.6230 C   0  0  0  0  0  0  0  0  0  0  0  0
  124.4630  123.6980   58.8320 S   0  0  0  0  0  0  0  0  0  0  0  0
  126.4810  129.7140   58.2230 S   0  0  0  0  0  0  0  0  0  0  0  0
  126.2810  130.6670   59.6750 C   0  0  0  0  0  0  0  0  0  0  0  0
  126.1780  131.9960   59.6370 N   0  0  0  0  0  0  0  0  0  0  0  0
  124.8770  134.7280   60.0210 C   0  0  0  0  0  0  0  0  0  0  0  0
  124.7620  136.1130   59.9450 C   0  0  0  0  0  0  0  0  0  0  0  0
  1  2  1  0
  2  3  1  0
  3  4  2  0
  4  5  1  0
  5  6  2  0
  6  7  1  0
  7  8  2  0
  8  9  1  0
  9 10  1  0
 10 11  2  0
 11 12  1  0
 12 13  2  0
 13 14  1  0
 14 15  1  0
 13 16  1  0
 16 17  2  0
  9 18  2  0
 18 19  1  0
 19 20  1  0
 19 21  2  0
 21 22  1  0
 22 23  2  0
 22 24  1  0
 24 25  1  0
 25 26  2  0
 26 27  1  0
 27 28  2  0
 28 29  1  0
 21 30  1  0
 30 31  1  0
 31 32  2  0
  6 33  1  0
 33 34  2  0
 34  3  1  0
 32  7  1  0
 17 10  1  0
 31 18  1  0
 29 25  1  0
M  END
>  <Binding energies>  (37) 
[-8.62]

>  <Ligand effiencies>  (37) 
[-0.23297297297297295]

>  <Interactions>  (37) 
["V-A:ALA:541:CB:4892, V-B:HIS:456:CE1:9041, V-B:LEU:475:CD1:9229, V-A:TYR:539:CD1:4873, V-B:GLU:543:CB:9878, V-A:TYR:539:CE1:4875, V-B:ASP:366:CG:8184, V-B:ARG:545:CZ:9898, H-B:ASP:366:OD1:8185, V-B:PRO:540:CB:9857, V-B:GLU:543:CD:9880, V-B:PRO:540:CA:9855, V-B:PRO:540:N:9856, V-B:TYR:531:CZ:9766, H-B:ASP:366:OD2:8186, H-B:TYR:531:OH:9767, V-B:MET:535:CE:9807, V-B:LEU:363:CD1:8160, V-B:ASP:366:CB:8183, V-B:LEU:363:CA:8156, V-B:PRO:540:CD:9859, V-B:LEU:363:CB:8158, V-B:PRO:482:CB:9297, V-B:PRO:482:CG:9298, V-B:TYR:531:CE2:9765, V-B:ILE:369:CG2:8208, H-B:SER:385:OG:8381, H-B:ARG:545:NE:9896, V-B:LEU:373:CD1:8251, V-B:SER:385:CB:8380, V-A:ILE:343:CG2:2991, V-B:LEU:373:CD2:8252, V-B:PRO:540:CG:9858, V-B:LEU:363:CG:8159"]

$$$$
8d_Ghoteimi_2023
     RDKit          3D

 30 33  0  0  0  0  0  0  0  0999 V2000
  132.2050  131.5380   61.3610 C   0  0  0  0  0  0  0  0  0  0  0  0
  130.7870  131.5000   61.4490 O   0  0  0  0  0  0  0  0  0  0  0  0
  130.0280  131.2700   60.3470 C   0  0  0  0  0  0  0  0  0  0  0  0
  129.5990  132.1590   59.6060 O   0  0  0  0  0  0  0  0  0  0  0  0
  129.7620  129.8330   60.1200 C   0  0  0  0  0  0  0  0  0  0  0  0
  128.5940  129.3360   58.8940 S   0  0  0  0  0  0  0  0  0  0  0  0
  128.8710  127.6480   59.2590 C   0  0  0  0  0  0  0  0  0  0  0  0
  128.2280  126.6740   58.6140 N   0  0  0  0  0  0  0  0  0  0  0  0
  128.5190  125.3960   58.9740 C   0  0  0  0  0  0  0  0  0  0  0  0
  127.7810  124.3230   58.2380 C   0  0  0  0  0  0  0  0  0  0  0  0
  126.4170  124.4550   57.9400 C   0  0  0  0  0  0  0  0  0  0  0  0
  125.7350  123.4540   57.2560 C   0  0  0  0  0  0  0  0  0  0  0  0
  126.3960  122.2950   56.8520 C   0  0  0  0  0  0  0  0  0  0  0  0
  125.6400  121.3550   56.1780 O   0  0  0  0  0  0  0  0  0  0  0  0
  124.9090  121.7510   55.0220 C   0  0  0  0  0  0  0  0  0  0  0  0
  127.7600  122.1520   57.1430 C   0  0  0  0  0  0  0  0  0  0  0  0
  128.4390  123.1570   57.8270 C   0  0  0  0  0  0  0  0  0  0  0  0
  129.4430  125.0960   59.9800 C   0  0  0  0  0  0  0  0  0  0  0  0
  130.1190  126.1170   60.6550 C   0  0  0  0  0  0  0  0  0  0  0  0
  131.0980  125.7670   61.7100 C   0  0  0  0  0  0  0  0  0  0  0  0
  130.8340  126.0790   63.0450 C   0  0  0  0  0  0  0  0  0  0  0  0
  131.7580  125.7580   64.0350 C   0  0  0  0  0  0  0  0  0  0  0  0
  132.9540  125.1190   63.7080 C   0  0  0  0  0  0  0  0  0  0  0  0
  133.8110  124.8400   64.7550 O   0  0  0  0  0  0  0  0  0  0  0  0
  133.6130  125.4900   66.0060 C   0  0  0  0  0  0  0  0  0  0  0  0
  133.2160  124.8030   62.3650 C   0  0  0  0  0  0  0  0  0  0  0  0
  132.2910  125.1250   61.3750 C   0  0  0  0  0  0  0  0  0  0  0  0
  129.8330  127.4600   60.2920 C   0  0  0  0  0  0  0  0  0  0  0  0
  130.3240  128.7250   60.7650 C   0  0  0  0  0  0  0  0  0  0  0  0
  131.2580  128.8280   61.7650 N   0  0  0  0  0  0  0  0  0  0  0  0
  1  2  1  0
  2  3  1  0
  3  4  2  0
  3  5  1  0
  5  6  1  0
  6  7  1  0
  7  8  2  0
  8  9  1  0
  9 10  1  0
 10 11  2  0
 11 12  1  0
 12 13  2  0
 13 14  1  0
 14 15  1  0
 13 16  1  0
 16 17  2  0
  9 18  2  0
 18 19  1  0
 19 20  1  0
 20 21  2  0
 21 22  1  0
 22 23  2  0
 23 24  1  0
 24 25  1  0
 23 26  1  0
 26 27  2  0
 19 28  2  0
 28 29  1  0
 29 30  1  0
 29  5  2  0
 28  7  1  0
 17 10  1  0
 27 20  1  0
M  END
>  <Binding energies>  (38) 
[-7.82]

>  <Ligand effiencies>  (38) 
[-0.244375]

>  <Interactions>  (38) 
["V-A:PRO:540:C:4881, V-A:PRO:540:CB:4885, V-A:PRO:540:CA:4883, H-A:ALA:541:N:4891, V-A:GLU:543:CD:4908, H-A:GLU:543:OE2:4910, V-A:ASP:366:CG:3212, V-B:TYR:539:C:9839, V-B:PRO:540:CB:9857, V-A:ARG:545:CD:4923, V-A:ARG:545:CZ:4926, V-B:PRO:540:CA:9855, V-A:ARG:545:CG:4922, V-B:PRO:540:N:9856, H-A:ASP:366:OD2:3214, H-B:TYR:539:N:9842, V-B:ILE:538:CG2:9835, V-B:MET:535:CE:9807, V-B:LEU:363:CD1:8160, V-B:PRO:540:CD:9859, V-B:ILE:538:CA:9832, V-B:TYR:539:CE2:9848, V-B:TYR:539:CZ:9849, V-B:TYR:531:CE2:9765, H-A:GLY:454:N:4049, H-A:TYR:484:OH:4347, H-A:ARG:545:NH2:4928, V-B:TYR:539:CD2:9846, V-B:ILE:538:CG1:9836, V-B:MET:535:CG:9805, V-B:ILE:538:CB:9834, H-A:GLU:543:OE1:4909, V-B:TYR:539:CG:9844, V-B:TYR:539:CD1:9845, V-B:TYR:539:CA:9841, V-B:TYR:539:CE1:9847, H-A:ASP:366:OD1:3213"]

$$$$
9a_Ghoteimi_2023
     RDKit          3D

 48 54  0  0  0  0  0  0  0  0999 V2000
  126.3290  139.0560   59.1060 C   0  0  0  0  0  0  0  0  0  0  0  0
  125.2410  138.3780   59.9450 C   0  0  0  0  0  0  0  0  0  0  0  0
  125.5050  136.9820   60.0230 O   0  0  0  0  0  0  0  0  0  0  0  0
  124.5030  136.0900   60.2330 C   0  0  0  0  0  0  0  0  0  0  0  0
  123.3280  136.2980   59.9120 O   0  0  0  0  0  0  0  0  0  0  0  0
  124.9630  134.8260   60.9010 C   0  0  0  0  0  0  0  0  0  0  0  0
  126.2400  134.3270   60.6170 C   0  0  0  0  0  0  0  0  0  0  0  0
  126.6950  133.1570   61.2190 C   0  0  0  0  0  0  0  0  0  0  0  0
  125.8850  132.4630   62.1180 C   0  0  0  0  0  0  0  0  0  0  0  0
  126.4480  131.2940   62.6650 N   0  0  0  0  0  0  0  0  0  0  0  0
  126.4130  130.8110   63.9320 C   0  0  0  0  0  0  0  0  0  0  0  0
  125.8360  131.3660   64.8680 O   0  0  0  0  0  0  0  0  0  0  0  0
  127.1170  129.5420   64.1380 C   0  0  0  0  0  0  0  0  0  0  0  0
  127.4410  128.4720   62.7730 S   0  0  0  0  0  0  0  0  0  0  0  0
  128.2460  127.3190   63.8110 C   0  0  0  0  0  0  0  0  0  0  0  0
  128.7820  126.1990   63.3270 N   0  0  0  0  0  0  0  0  0  0  0  0
  129.3960  125.3740   64.2170 C   0  0  0  0  0  0  0  0  0  0  0  0
  129.9990  124.1300   63.6510 C   0  0  0  0  0  0  0  0  0  0  0  0
  129.2750  123.3300   62.7600 C   0  0  0  0  0  0  0  0  0  0  0  0
  129.8290  122.1700   62.2270 C   0  0  0  0  0  0  0  0  0  0  0  0
  131.1350  121.7730   62.5540 C   0  0  0  0  0  0  0  0  0  0  0  0
  131.6990  120.6000   62.0420 N   0  0  0  0  0  0  0  0  0  0  0  0
  130.8580  119.4790   61.5750 C   0  0  0  0  0  0  0  0  0  0  0  0
  131.6300  118.1560   61.3890 C   0  0  0  0  0  0  0  0  0  0  0  0
  132.7370  118.3550   60.5260 O   0  0  0  0  0  0  0  0  0  0  0  0
  133.6390  119.3160   61.0510 C   0  0  0  0  0  0  0  0  0  0  0  0
  132.9250  120.6730   61.2190 C   0  0  0  0  0  0  0  0  0  0  0  0
  131.8520  122.5700   63.4590 C   0  0  0  0  0  0  0  0  0  0  0  0
  131.2960  123.7280   63.9940 C   0  0  0  0  0  0  0  0  0  0  0  0
  129.4470  125.6570   65.5840 C   0  0  0  0  0  0  0  0  0  0  0  0
  128.8680  126.8230   66.0990 C   0  0  0  0  0  0  0  0  0  0  0  0
  128.9190  127.0570   67.5640 C   0  0  0  0  0  0  0  0  0  0  0  0
  128.2710  126.1890   68.4470 C   0  0  0  0  0  0  0  0  0  0  0  0
  128.3310  126.4030   69.8210 C   0  0  0  0  0  0  0  0  0  0  0  0
  129.0570  127.4810   70.3510 C   0  0  0  0  0  0  0  0  0  0  0  0
  129.1230  127.7220   71.7260 N   0  0  0  0  0  0  0  0  0  0  0  0
  129.1050  129.1160   72.2130 C   0  0  0  0  0  0  0  0  0  0  0  0
  128.8000  129.2310   73.7220 C   0  0  0  0  0  0  0  0  0  0  0  0
  129.7200  128.4460   74.4650 O   0  0  0  0  0  0  0  0  0  0  0  0
  129.6480  127.0750   74.1080 C   0  0  0  0  0  0  0  0  0  0  0  0
  129.9750  126.9020   72.6090 C   0  0  0  0  0  0  0  0  0  0  0  0
  129.7060  128.3450   69.4560 C   0  0  0  0  0  0  0  0  0  0  0  0
  129.6420  128.1330   68.0820 C   0  0  0  0  0  0  0  0  0  0  0  0
  128.2510  127.7190   65.1790 C   0  0  0  0  0  0  0  0  0  0  0  0
  127.6190  129.0060   65.3340 C   0  0  0  0  0  0  0  0  0  0  0  0
  127.5350  129.6470   66.5430 N   0  0  0  0  0  0  0  0  0  0  0  0
  124.6050  132.9580   62.4120 C   0  0  0  0  0  0  0  0  0  0  0  0
  124.1510  134.1280   61.8080 C   0  0  0  0  0  0  0  0  0  0  0  0
  1  2  1  0
  2  3  1  0
  3  4  1  0
  4  5  2  0
  4  6  1  0
  6  7  2  0
  7  8  1  0
  8  9  2  0
  9 10  1  0
 10 11  1  0
 11 12  2  0
 11 13  1  0
 13 14  1  0
 14 15  1  0
 15 16  2  0
 16 17  1  0
 17 18  1  0
 18 19  2  0
 19 20  1  0
 20 21  2  0
 21 22  1  0
 22 23  1  0
 23 24  1  0
 24 25  1  0
 25 26  1  0
 26 27  1  0
 21 28  1  0
 28 29  2  0
 17 30  2  0
 30 31  1  0
 31 32  1  0
 32 33  2  0
 33 34  1  0
 34 35  2  0
 35 36  1  0
 36 37  1  0
 37 38  1  0
 38 39  1  0
 39 40  1  0
 40 41  1  0
 35 42  1  0
 42 43  2  0
 31 44  2  0
 44 45  1  0
 45 46  1  0
  9 47  1  0
 47 48  2  0
 48  6  1  0
 45 13  2  0
 44 15  1  0
 29 18  1  0
 43 32  1  0
 27 22  1  0
 41 36  1  0
M  END
>  <Binding energies>  (39) 
[-10.63]

>  <Ligand effiencies>  (39) 
[-0.2084313725490196]

>  <Interactions>  (39) 
["V-B:TYR:484:CE2:9317, V-B:HIS:456:CE1:9041, V-A:GLU:543:C:4902, V-A:HIS:456:CE1:4069, V-B:LEU:475:CD1:9229, V-A:TYR:539:CD1:4873, V-B:TYR:484:CZ:9318, V-B:GLU:543:CB:9878, V-A:GLU:543:CG:4907, V-B:GLU:543:C:9874, V-A:TYR:539:CE1:4875, V-A:GLU:543:CB:4906, V-A:GLU:543:CD:4908, V-A:LEU:475:CD1:4257, V-B:GLU:543:CD:9880, V-B:ALA:541:CB:9864, V-B:GLU:543:CG:9879, H-B:TYR:484:OH:9319, V-B:ILE:369:CD1:8210, V-B:ILE:369:CG2:8208, H-B:SER:385:OG:8381, V-A:TYR:539:CB:4871, H-A:GLU:543:OE1:4909, V-A:ILE:369:CG2:3236, V-A:PRO:482:CB:4325, V-A:PRO:482:CG:4326, V-B:LEU:373:CD1:8251, V-B:SER:385:CB:8380, V-A:ILE:343:CG2:2991, V-A:VAL:344:CG1:3000, H-A:HIS:383:NE2:3393, H-A:SER:385:OG:3409, V-A:SER:385:CA:3406, V-B:HIS:456:CD2:9039, V-B:SER:385:CA:8378, V-A:SER:385:C:3404, H-A:LYS:547:NZ:4951"]

$$$$
9b_Ghoteimi_2023
     RDKit          3D

 42 48  0  0  0  0  0  0  0  0999 V2000
  127.0060  126.6420   62.6570 N   0  0  0  0  0  0  0  0  0  0  0  0
  126.6210  127.4660   61.6300 C   0  0  0  0  0  0  0  0  0  0  0  0
  126.3220  127.0050   60.3380 C   0  0  0  0  0  0  0  0  0  0  0  0
  126.3270  125.6280   59.8360 C   0  0  0  0  0  0  0  0  0  0  0  0
  126.3230  124.6740   60.6160 O   0  0  0  0  0  0  0  0  0  0  0  0
  126.3420  125.5010   58.4850 N   0  0  0  0  0  0  0  0  0  0  0  0
  126.3620  124.3260   57.7450 C   0  0  0  0  0  0  0  0  0  0  0  0
  127.3400  123.3450   57.9010 C   0  0  0  0  0  0  0  0  0  0  0  0
  127.0040  122.3590   57.0020 C   0  0  0  0  0  0  0  0  0  0  0  0
  125.8820  122.7290   56.3390 O   0  0  0  0  0  0  0  0  0  0  0  0
  125.4850  123.9770   56.8180 N   0  0  0  0  0  0  0  0  0  0  0  0
  125.8960  128.3390   59.2670 S   0  0  0  0  0  0  0  0  0  0  0  0
  126.1390  129.5040   60.5470 C   0  0  0  0  0  0  0  0  0  0  0  0
  125.9860  130.8100   60.3400 N   0  0  0  0  0  0  0  0  0  0  0  0
  126.2160  131.6330   61.3970 C   0  0  0  0  0  0  0  0  0  0  0  0
  126.0570  133.0950   61.1330 C   0  0  0  0  0  0  0  0  0  0  0  0
  124.8830  133.6050   60.5650 C   0  0  0  0  0  0  0  0  0  0  0  0
  124.7460  134.9660   60.3080 C   0  0  0  0  0  0  0  0  0  0  0  0
  125.7840  135.8660   60.5960 C   0  0  0  0  0  0  0  0  0  0  0  0
  125.6600  137.2370   60.3450 N   0  0  0  0  0  0  0  0  0  0  0  0
  124.3980  137.8160   59.8420 C   0  0  0  0  0  0  0  0  0  0  0  0
  124.3290  139.3530   59.9550 C   0  0  0  0  0  0  0  0  0  0  0  0
  125.4480  139.9370   59.3090 O   0  0  0  0  0  0  0  0  0  0  0  0
  126.6670  139.5170   59.8990 C   0  0  0  0  0  0  0  0  0  0  0  0
  126.8090  137.9830   59.7900 C   0  0  0  0  0  0  0  0  0  0  0  0
  126.9490  135.3520   61.1820 C   0  0  0  0  0  0  0  0  0  0  0  0
  127.0850  133.9920   61.4440 C   0  0  0  0  0  0  0  0  0  0  0  0
  126.5710  131.1470   62.6580 C   0  0  0  0  0  0  0  0  0  0  0  0
  126.7130  129.7730   62.8850 C   0  0  0  0  0  0  0  0  0  0  0  0
  127.0620  129.3060   64.2510 C   0  0  0  0  0  0  0  0  0  0  0  0
  127.9060  128.2090   64.4260 C   0  0  0  0  0  0  0  0  0  0  0  0
  128.2510  127.7800   65.7040 C   0  0  0  0  0  0  0  0  0  0  0  0
  127.7600  128.4370   66.8430 C   0  0  0  0  0  0  0  0  0  0  0  0
  128.1050  128.0340   68.1350 N   0  0  0  0  0  0  0  0  0  0  0  0
  128.2900  126.5970   68.4180 C   0  0  0  0  0  0  0  0  0  0  0  0
  128.2690  126.2670   69.9260 C   0  0  0  0  0  0  0  0  0  0  0  0
  129.2450  127.0420   70.6060 O   0  0  0  0  0  0  0  0  0  0  0  0
  129.0080  128.4340   70.4570 C   0  0  0  0  0  0  0  0  0  0  0  0
  129.0420  128.8190   68.9630 C   0  0  0  0  0  0  0  0  0  0  0  0
  126.9270  129.5500   66.6540 C   0  0  0  0  0  0  0  0  0  0  0  0
  126.5820  129.9790   65.3750 C   0  0  0  0  0  0  0  0  0  0  0  0
  126.5110  128.8950   61.7830 C   0  0  0  0  0  0  0  0  0  0  0  0
  1  2  1  0
  2  3  2  0
  3  4  1  0
  4  5  2  0
  4  6  1  0
  6  7  1  0
  7  8  1  0
  8  9  2  0
  9 10  1  0
 10 11  1  0
  3 12  1  0
 12 13  1  0
 13 14  2  0
 14 15  1  0
 15 16  1  0
 16 17  2  0
 17 18  1  0
 18 19  2  0
 19 20  1  0
 20 21  1  0
 21 22  1  0
 22 23  1  0
 23 24  1  0
 24 25  1  0
 19 26  1  0
 26 27  2  0
 15 28  2  0
 28 29  1  0
 29 30  1  0
 30 31  2  0
 31 32  1  0
 32 33  2  0
 33 34  1  0
 34 35  1  0
 35 36  1  0
 36 37  1  0
 37 38  1  0
 38 39  1  0
 33 40  1  0
 40 41  2  0
 29 42  2  0
 42  2  1  0
 11  7  2  0
 42 13  1  0
 27 16  1  0
 41 30  1  0
 25 20  1  0
 39 34  1  0
M  END
>  <Binding energies>  (40) 
[-10.37]

>  <Ligand effiencies>  (40) 
[-0.23044444444444442]

>  <Interactions>  (40) 
["V-A:ALA:541:CB:4892, V-B:TYR:484:CE2:9317, V-B:HIS:456:CE1:9041, V-A:GLU:543:C:4902, V-A:HIS:456:CE1:4069, V-A:TYR:539:CD1:4873, V-B:TYR:484:CZ:9318, V-B:GLU:543:CB:9878, V-B:GLU:543:C:9874, V-A:TYR:539:CE1:4875, V-A:GLU:543:CB:4906, V-B:ASP:366:CG:8184, V-A:GLU:543:CD:4908, V-B:TYR:539:C:9839, H-B:GLU:543:OE1:9881, H-B:GLU:543:OE2:9882, V-B:GLU:543:CD:9880, V-B:PRO:540:CA:9855, V-B:PRO:540:N:9856, H-B:TYR:531:OH:9767, V-B:MET:535:CE:9807, V-B:ASP:366:CB:8183, V-B:PRO:482:CB:9297, V-B:PRO:482:CG:9298, V-B:ILE:369:CG2:8208, V-A:TYR:539:CB:4871, V-B:LEU:373:CD1:8251, V-B:SER:385:CB:8380, V-A:ILE:343:CG2:2991, V-B:HIS:383:CE1:8365, V-B:HIS:383:CD2:8363, H-B:HIS:383:ND1:8362, V-A:VAL:344:CG1:3000, V-B:LEU:373:CD2:8252, V-B:VAL:384:C:8368, V-B:HIS:456:CD2:9039, V-A:GLU:543:CA:4904, V-B:SER:385:CA:8378, V-B:HIS:383:CG:8361"]

$$$$
9c_Ghoteimi_2023
     RDKit          3D

 42 48  0  0  0  0  0  0  0  0999 V2000
  126.8560  127.3990   63.6460 N   0  0  0  0  0  0  0  0  0  0  0  0
  126.8220  128.7030   64.0710 C   0  0  0  0  0  0  0  0  0  0  0  0
  126.8810  129.0780   65.4220 C   0  0  0  0  0  0  0  0  0  0  0  0
  127.0050  128.2200   66.6040 C   0  0  0  0  0  0  0  0  0  0  0  0
  126.0450  127.5620   67.0100 O   0  0  0  0  0  0  0  0  0  0  0  0
  128.2250  128.2170   67.1950 N   0  0  0  0  0  0  0  0  0  0  0  0
  128.6020  127.5090   68.3270 C   0  0  0  0  0  0  0  0  0  0  0  0
  128.5990  126.2050   68.5040 N   0  0  0  0  0  0  0  0  0  0  0  0
  129.0180  125.8790   69.7110 C   0  0  0  0  0  0  0  0  0  0  0  0
  129.3720  126.9340   70.5470 C   0  0  0  0  0  0  0  0  0  0  0  0
  129.1410  128.4310   69.6940 S   0  0  0  0  0  0  0  0  0  0  0  0
  126.7830  130.8290   65.6030 S   0  0  0  0  0  0  0  0  0  0  0  0
  126.6450  131.0460   63.8750 C   0  0  0  0  0  0  0  0  0  0  0  0
  126.5020  132.2540   63.3310 N   0  0  0  0  0  0  0  0  0  0  0  0
  126.3860  132.3120   61.9790 C   0  0  0  0  0  0  0  0  0  0  0  0
  126.2060  133.6770   61.3980 C   0  0  0  0  0  0  0  0  0  0  0  0
  127.1780  134.6700   61.5650 C   0  0  0  0  0  0  0  0  0  0  0  0
  127.0010  135.9420   61.0300 C   0  0  0  0  0  0  0  0  0  0  0  0
  125.8370  136.2720   60.3170 C   0  0  0  0  0  0  0  0  0  0  0  0
  125.6470  137.5450   59.7670 N   0  0  0  0  0  0  0  0  0  0  0  0
  126.7140  138.5660   59.8040 C   0  0  0  0  0  0  0  0  0  0  0  0
  126.4660  139.7610   58.8600 C   0  0  0  0  0  0  0  0  0  0  0  0
  125.2010  140.3410   59.1350 O   0  0  0  0  0  0  0  0  0  0  0  0
  124.1500  139.4090   58.9360 C   0  0  0  0  0  0  0  0  0  0  0  0
  124.3270  138.1990   59.8780 C   0  0  0  0  0  0  0  0  0  0  0  0
  124.8750  135.2680   60.1360 C   0  0  0  0  0  0  0  0  0  0  0  0
  125.0550  133.9940   60.6690 C   0  0  0  0  0  0  0  0  0  0  0  0
  126.4420  131.1700   61.1750 C   0  0  0  0  0  0  0  0  0  0  0  0
  126.6140  129.9020   61.7400 C   0  0  0  0  0  0  0  0  0  0  0  0
  126.6980  128.7230   60.8420 C   0  0  0  0  0  0  0  0  0  0  0  0
  125.7260  128.5140   59.8620 C   0  0  0  0  0  0  0  0  0  0  0  0
  125.8110  127.4190   59.0060 C   0  0  0  0  0  0  0  0  0  0  0  0
  126.8690  126.5030   59.1100 C   0  0  0  0  0  0  0  0  0  0  0  0
  126.9800  125.4020   58.2540 N   0  0  0  0  0  0  0  0  0  0  0  0
  128.2330  124.6200   58.2460 C   0  0  0  0  0  0  0  0  0  0  0  0
  128.3710  123.7050   57.0100 C   0  0  0  0  0  0  0  0  0  0  0  0
  127.2430  122.8480   56.9120 O   0  0  0  0  0  0  0  0  0  0  0  0
  126.0360  123.5820   56.7820 C   0  0  0  0  0  0  0  0  0  0  0  0
  125.8390  124.5000   58.0090 C   0  0  0  0  0  0  0  0  0  0  0  0
  127.8500  126.7350   60.0850 C   0  0  0  0  0  0  0  0  0  0  0  0
  127.7660  127.8300   60.9410 C   0  0  0  0  0  0  0  0  0  0  0  0
  126.7020  129.8130   63.1590 C   0  0  0  0  0  0  0  0  0  0  0  0
  1  2  1  0
  2  3  2  0
  3  4  1  0
  4  5  2  0
  4  6  1  0
  6  7  1  0
  7  8  2  0
  8  9  1  0
  9 10  2  0
 10 11  1  0
  3 12  1  0
 12 13  1  0
 13 14  2  0
 14 15  1  0
 15 16  1  0
 16 17  2  0
 17 18  1  0
 18 19  2  0
 19 20  1  0
 20 21  1  0
 21 22  1  0
 22 23  1  0
 23 24  1  0
 24 25  1  0
 19 26  1  0
 26 27  2  0
 15 28  2  0
 28 29  1  0
 29 30  1  0
 30 31  2  0
 31 32  1  0
 32 33  2  0
 33 34  1  0
 34 35  1  0
 35 36  1  0
 36 37  1  0
 37 38  1  0
 38 39  1  0
 33 40  1  0
 40 41  2  0
 29 42  2  0
 42  2  1  0
 11  7  1  0
 42 13  1  0
 27 16  1  0
 41 30  1  0
 25 20  1  0
 39 34  1  0
M  END
>  <Binding energies>  (41) 
[-9.58]

>  <Ligand effiencies>  (41) 
[-0.21288888888888888]

>  <Interactions>  (41) 
["V-A:ALA:541:CB:4892, V-B:TYR:484:CE2:9317, V-B:HIS:456:CE1:9041, V-A:GLU:543:C:4902, V-A:HIS:456:CE1:4069, V-B:LEU:475:CD1:9229, V-A:TYR:539:CD1:4873, V-B:TYR:484:CZ:9318, V-B:GLU:543:CB:9878, V-B:GLU:543:C:9874, V-A:TYR:539:CE1:4875, V-B:ASP:366:CG:8184, V-B:ARG:545:CZ:9898, H-B:GLU:543:OE1:9881, H-B:GLU:543:OE2:9882, V-B:GLU:543:CD:9880, V-B:TYR:531:CZ:9766, V-B:MET:535:CE:9807, V-B:LEU:363:CD1:8160, V-B:ASP:366:CB:8183, V-B:PRO:482:CB:9297, V-B:PRO:482:CG:9298, V-B:TYR:539:CZ:9849, V-B:TYR:531:CE2:9765, V-B:ILE:369:CG2:8208, V-A:TYR:539:CB:4871, H-A:GLU:543:OE1:4909, H-B:ARG:545:NE:9896, V-B:LEU:373:CD1:8251, V-B:SER:385:CB:8380, V-A:ILE:343:CG2:2991, V-B:HIS:383:CE1:8365, V-B:HIS:383:CD2:8363, H-B:HIS:383:ND1:8362, V-A:VAL:344:CG1:3000, V-B:LEU:373:CD2:8252, V-B:VAL:384:C:8368, V-B:SER:385:CA:8378, V-B:HIS:383:CG:8361, V-A:ILE:343:CB:2990, V-B:LEU:373:CG:8250"]

$$$$
RR11_Rahimova_2017
     RDKit          3D

 33 38  0  0  0  0  0  0  0  0999 V2000
  133.6300  123.6260   57.7500 N   0  0  0  0  0  0  0  0  0  0  0  0
  133.1470  124.0140   58.9980 C   0  0  0  0  0  0  0  0  0  0  0  0
  133.9730  123.9310   60.1180 C   0  0  0  0  0  0  0  0  0  0  0  0
  133.4900  124.3220   61.3630 C   0  0  0  0  0  0  0  0  0  0  0  0
  132.1800  124.7980   61.5020 C   0  0  0  0  0  0  0  0  0  0  0  0
  131.6630  125.2230   62.8450 C   0  0  0  0  0  0  0  0  0  0  0  0
  130.4100  125.5330   63.0940 N   0  0  0  0  0  0  0  0  0  0  0  0
  130.3730  125.8470   64.4280 C   0  0  0  0  0  0  0  0  0  0  0  0
  129.2830  126.2400   65.2160 C   0  0  0  0  0  0  0  0  0  0  0  0
  129.5000  126.4910   66.5760 C   0  0  0  0  0  0  0  0  0  0  0  0
  128.3350  126.9250   67.4550 C   0  0  0  0  0  0  0  0  0  0  0  0
  127.3800  127.8770   66.7490 C   0  0  0  0  0  0  0  0  0  0  0  0
  126.0070  127.7930   67.0080 C   0  0  0  0  0  0  0  0  0  0  0  0
  125.0930  128.6490   66.3910 C   0  0  0  0  0  0  0  0  0  0  0  0
  125.5860  129.6120   65.5010 C   0  0  0  0  0  0  0  0  0  0  0  0
  124.9040  130.5520   64.7730 N   0  0  0  0  0  0  0  0  0  0  0  0
  125.8250  131.2010   64.0930 C   0  0  0  0  0  0  0  0  0  0  0  0
  125.5410  132.3220   63.1360 C   0  0  0  0  0  0  0  0  0  0  0  0
  126.5920  133.0010   62.5050 C   0  0  0  0  0  0  0  0  0  0  0  0
  126.3300  134.0480   61.6250 C   0  0  0  0  0  0  0  0  0  0  0  0
  125.0130  134.4240   61.3700 C   0  0  0  0  0  0  0  0  0  0  0  0
  124.7490  135.4750   60.4920 N   0  0  0  0  0  0  0  0  0  0  0  0
  123.9590  133.7550   61.9860 C   0  0  0  0  0  0  0  0  0  0  0  0
  124.2220  132.7090   62.8660 C   0  0  0  0  0  0  0  0  0  0  0  0
  127.0920  130.7230   64.3560 N   0  0  0  0  0  0  0  0  0  0  0  0
  126.9780  129.6930   65.2590 C   0  0  0  0  0  0  0  0  0  0  0  0
  127.8990  128.8430   65.8760 C   0  0  0  0  0  0  0  0  0  0  0  0
  130.7810  126.3760   67.1260 C   0  0  0  0  0  0  0  0  0  0  0  0
  131.8890  125.9920   66.3660 C   0  0  0  0  0  0  0  0  0  0  0  0
  131.6550  125.7290   65.0150 C   0  0  0  0  0  0  0  0  0  0  0  0
  132.4550  125.3300   63.9690 N   0  0  0  0  0  0  0  0  0  0  0  0
  131.3600  124.8740   60.3680 C   0  0  0  0  0  0  0  0  0  0  0  0
  131.8410  124.4850   59.1210 C   0  0  0  0  0  0  0  0  0  0  0  0
  1  2  1  0
  2  3  2  0
  3  4  1  0
  4  5  2  0
  5  6  1  0
  6  7  2  0
  7  8  1  0
  8  9  2  0
  9 10  1  0
 10 11  1  0
 11 12  1  0
 12 13  2  0
 13 14  1  0
 14 15  2  0
 15 16  1  0
 16 17  2  0
 17 18  1  0
 18 19  2  0
 19 20  1  0
 20 21  2  0
 21 22  1  0
 21 23  1  0
 23 24  2  0
 17 25  1  0
 25 26  1  0
 26 27  2  0
 10 28  2  0
 28 29  1  0
 29 30  2  0
 30 31  1  0
  5 32  1  0
 32 33  2  0
 33  2  1  0
 31  6  1  0
 30  8  1  0
 27 12  1  0
 26 15  1  0
 24 18  1  0
M  END
>  <Binding energies>  (42) 
[-8.96]

>  <Ligand effiencies>  (42) 
[-0.22974358974358977]

>  <Interactions>  (42) 
["V-B:ARG:545:CG:9894, V-A:ALA:541:CB:4892, V-B:HIS:456:CE1:9041, V-A:HIS:456:CE1:4069, V-B:LEU:475:CD1:9229, V-A:TYR:539:CD1:4873, V-B:GLY:454:CA:9020, V-B:GLU:543:CB:9878, V-A:GLU:543:CG:4907, V-B:ARG:545:CD:9895, V-A:GLU:543:CD:4908, V-B:ARG:545:CZ:9898, V-A:ASP:366:CG:3212, V-A:ARG:545:CZ:4926, V-B:GLU:543:CD:9880, V-B:GLU:543:CG:9879, H-B:TYR:484:OH:9319, V-B:ILE:369:CD1:8210, H-B:GLY:454:N:9021, V-A:ASP:366:CB:3211, V-B:TYR:539:CE2:9848, V-B:TYR:539:CZ:9849, V-B:ILE:369:CG2:8208, H-B:SER:385:OG:8381, V-A:ILE:369:CD1:3238, V-A:ILE:369:CB:3235, V-A:ASP:366:CA:3209, V-A:ASP:366:C:3207, V-A:ILE:369:CG2:3236, H-B:TYR:539:OH:9850, H-A:ASP:366:O:3208, V-B:LEU:373:CD1:8251, V-B:SER:385:CB:8380"]

$$$$
RR16_Rahimova_2017
     RDKit          3D

 44 49  0  0  0  0  0  0  0  0999 V2000
  133.1630  122.4840   64.0930 O   0  0  0  0  0  0  0  0  0  0  0  0
  133.6480  123.0780   62.8420 S   0  0  0  0  0  0  0  0  0  0  0  0
  134.8880  122.6040   62.2150 O   0  0  0  0  0  0  0  0  0  0  0  0
  133.7950  124.8180   63.1010 N   0  0  0  0  0  0  0  0  0  0  0  0
  132.9790  125.5060   64.1290 C   0  0  0  0  0  0  0  0  0  0  0  0
  131.4810  125.1860   63.8880 C   0  0  0  0  0  0  0  0  0  0  0  0
  130.6390  124.7810   65.1130 C   0  0  0  0  0  0  0  0  0  0  0  0
  130.5360  125.8740   66.1900 C   0  0  0  0  0  0  0  0  0  0  0  0
  131.6850  125.9160   67.2140 C   0  0  0  0  0  0  0  0  0  0  0  0
  133.1150  126.0820   66.6620 C   0  0  0  0  0  0  0  0  0  0  0  0
  133.5290  125.1280   65.5240 C   0  0  0  0  0  0  0  0  0  0  0  0
  132.3290  122.9150   61.6440 C   0  0  0  0  0  0  0  0  0  0  0  0
  132.4770  123.4390   60.3580 C   0  0  0  0  0  0  0  0  0  0  0  0
  131.3990  123.4140   59.4770 C   0  0  0  0  0  0  0  0  0  0  0  0
  130.1820  122.8660   59.8850 C   0  0  0  0  0  0  0  0  0  0  0  0
  128.7550  122.9600   58.8050 S   0  0  0  0  0  0  0  0  0  0  0  0
  127.5580  122.8990   59.6530 O   0  0  0  0  0  0  0  0  0  0  0  0
  128.9530  121.9800   57.7290 O   0  0  0  0  0  0  0  0  0  0  0  0
  128.8530  124.5840   58.0970 N   0  0  0  0  0  0  0  0  0  0  0  0
  129.6620  124.6660   56.8530 C   0  0  0  0  0  0  0  0  0  0  0  0
  129.9480  126.1380   56.4910 C   0  0  0  0  0  0  0  0  0  0  0  0
  128.6480  126.9760   56.4240 C   0  0  0  0  0  0  0  0  0  0  0  0
  128.9140  128.4510   56.1110 C   0  0  0  0  0  0  0  0  0  0  0  0
  127.9260  129.2180   55.4790 C   0  0  0  0  0  0  0  0  0  0  0  0
  128.1230  130.5680   55.1830 C   0  0  0  0  0  0  0  0  0  0  0  0
  127.1430  131.3030   54.5680 O   0  0  0  0  0  0  0  0  0  0  0  0
  129.3490  131.1510   55.5370 C   0  0  0  0  0  0  0  0  0  0  0  0
  129.8090  132.4280   55.3920 N   0  0  0  0  0  0  0  0  0  0  0  0
  131.0730  132.4780   55.9380 N   0  0  0  0  0  0  0  0  0  0  0  0
  131.3990  131.2440   56.3700 N   0  0  0  0  0  0  0  0  0  0  0  0
  132.6550  131.0210   57.0730 C   0  0  0  0  0  0  0  0  0  0  0  0
  132.5000  131.0820   58.5860 C   0  0  0  0  0  0  0  0  0  0  0  0
  133.6310  131.0410   59.4100 C   0  0  0  0  0  0  0  0  0  0  0  0
  133.4920  131.1180   60.7960 C   0  0  0  0  0  0  0  0  0  0  0  0
  132.2240  131.2390   61.3660 C   0  0  0  0  0  0  0  0  0  0  0  0
  131.0940  131.2820   60.5510 C   0  0  0  0  0  0  0  0  0  0  0  0
  129.5250  131.4420   61.2520 Cl  0  0  0  0  0  0  0  0  0  0  0  0
  131.2310  131.2000   59.1630 C   0  0  0  0  0  0  0  0  0  0  0  0
  130.3450  130.3680   56.1670 C   0  0  0  0  0  0  0  0  0  0  0  0
  130.1500  129.0150   56.4610 C   0  0  0  0  0  0  0  0  0  0  0  0
  127.7550  126.7790   57.6770 C   0  0  0  0  0  0  0  0  0  0  0  0
  127.5470  125.2880   58.0070 C   0  0  0  0  0  0  0  0  0  0  0  0
  130.0490  122.3050   61.1570 C   0  0  0  0  0  0  0  0  0  0  0  0
  131.1240  122.3330   62.0390 C   0  0  0  0  0  0  0  0  0  0  0  0
  1  2  2  0
  2  3  2  0
  2  4  1  0
  4  5  1  0
  5  6  1  0
  6  7  1  0
  7  8  1  0
  8  9  1  0
  9 10  1  0
 10 11  1  0
  2 12  1  0
 12 13  2  0
 13 14  1  0
 14 15  2  0
 15 16  1  0
 16 17  2  0
 16 18  2  0
 16 19  1  0
 19 20  1  0
 20 21  1  0
 21 22  1  0
 22 23  1  0
 23 24  2  0
 24 25  1  0
 25 26  1  0
 25 27  2  0
 27 28  1  0
 28 29  2  0
 29 30  1  0
 30 31  1  0
 31 32  1  0
 32 33  2  0
 33 34  1  0
 34 35  2  0
 35 36  1  0
 36 37  1  0
 36 38  2  0
 30 39  1  0
 39 40  2  0
 22 41  1  0
 41 42  1  0
 15 43  1  0
 43 44  2  0
 11  5  1  0
 44 12  1  0
 42 19  1  0
 40 23  1  0
 39 27  1  0
 38 32  1  0
M  END
>  <Binding energies>  (43) 
[-12.12]

>  <Ligand effiencies>  (43) 
[-0.2525]

>  <Interactions>  (43) 
["V-A:ALA:541:CB:4892, V-A:PRO:540:C:4881, V-A:PRO:540:CB:4885, V-A:HIS:456:CE1:4069, V-A:PRO:540:CA:4883, V-A:TYR:539:CE1:4875, V-A:GLU:543:CD:4908, V-A:ASP:366:CG:3212, V-A:GLY:453:C:4041, V-A:ARG:545:CD:4923, V-A:TYR:484:CZ:4346, V-A:GLY:454:CA:4048, V-A:ARG:545:CZ:4926, V-A:ARG:545:CG:4922, V-B:TYR:531:CZ:9766, V-A:TYR:539:CZ:4877, H-A:TYR:539:N:4870, H-B:LYS:534:NZ:9795, H-A:TYR:539:OH:4878, V-A:LEU:363:CD1:3188, V-B:TYR:531:CE1:9764, V-A:LEU:363:CB:3186, V-A:LEU:363:CA:3184, V-B:MET:535:CE:9807, V-B:TYR:539:CE2:9848, V-B:TYR:539:CZ:9849, H-A:GLY:454:N:4049, H-A:TYR:484:OH:4347, H-A:ARG:545:NH1:4927, H-A:ARG:545:NH2:4928, V-A:ASN:362:C:3171, V-A:ASN:362:CB:3175, H-A:ASP:366:OD1:3213, H-B:ASN:370:OD1:8218"]

$$$$
RR18_Rahimova_2017
     RDKit          3D

 36 41  0  0  0  0  0  0  0  0999 V2000
  132.7910  125.5100   56.1480 C   0  0  0  0  0  0  0  0  0  0  0  0
  132.4850  124.9240   57.5040 C   0  0  0  0  0  0  0  0  0  0  0  0
  133.1160  123.9990   58.3200 C   0  0  0  0  0  0  0  0  0  0  0  0
  132.3310  123.8720   59.4660 C   0  0  0  0  0  0  0  0  0  0  0  0
  131.2500  124.7250   59.3090 C   0  0  0  0  0  0  0  0  0  0  0  0
  130.0410  125.0710   60.1750 C   0  0  1  0  0  0  0  0  0  0  0  0
  129.9880  124.1920   61.4600 C   0  0  0  0  0  0  0  0  0  0  0  0
  129.7850  122.7500   61.3600 C   0  0  0  0  0  0  0  0  0  0  0  0
  128.6590  122.2550   61.2930 O   0  0  0  0  0  0  0  0  0  0  0  0
  130.9310  122.0300   61.3330 N   0  0  0  0  0  0  0  0  0  0  0  0
  131.1300  120.6340   61.2640 C   0  0  0  0  0  0  0  0  0  0  0  0
  130.0850  119.6960   61.3520 C   0  0  0  0  0  0  0  0  0  0  0  0
  130.3510  118.3300   61.2840 C   0  0  0  0  0  0  0  0  0  0  0  0
  131.6580  117.8790   61.1340 C   0  0  0  0  0  0  0  0  0  0  0  0
  132.7040  118.7960   61.0570 C   0  0  0  0  0  0  0  0  0  0  0  0
  132.4540  120.1700   61.1230 C   0  0  0  0  0  0  0  0  0  0  0  0
  133.6350  121.1320   61.0380 C   0  0  0  0  0  0  0  0  0  0  0  0
  130.2360  124.7820   62.6580 C   0  0  0  0  0  0  0  0  0  0  0  0
  130.4150  126.1200   62.8440 N   0  0  0  0  0  0  0  0  0  0  0  0
  130.2680  126.9190   61.8520 C   0  0  0  0  0  0  0  0  0  0  0  0
  130.3170  128.6620   61.9670 S   0  0  0  0  0  0  0  0  0  0  0  0
  129.9950  128.8390   60.2140 C   0  0  0  0  0  0  0  0  0  0  0  0
  129.8780  130.0150   59.5030 C   0  0  0  0  0  0  0  0  0  0  0  0
  129.9370  131.3100   60.1960 C   0  0  0  0  0  0  0  0  0  0  0  0
  130.1080  131.5630   61.3880 O   0  0  0  0  0  0  0  0  0  0  0  0
  129.7430  132.2620   59.2790 N   0  0  0  0  0  0  0  0  0  0  0  0
  129.5910  131.7640   58.0200 C   0  0  0  0  0  0  0  0  0  0  0  0
  129.3880  132.4760   56.8380 C   0  0  0  0  0  0  0  0  0  0  0  0
  129.2880  131.7740   55.6400 C   0  0  0  0  0  0  0  0  0  0  0  0
  129.4020  130.3850   55.6430 C   0  0  0  0  0  0  0  0  0  0  0  0
  129.6040  129.6950   56.8410 C   0  0  0  0  0  0  0  0  0  0  0  0
  129.6840  130.3840   58.0650 C   0  0  0  0  0  0  0  0  0  0  0  0
  129.8570  127.5000   59.6420 C   0  0  0  0  0  0  0  0  0  0  0  0
  129.5810  127.2280   58.4780 O   0  0  0  0  0  0  0  0  0  0  0  0
  130.0500  126.5240   60.5710 N   0  0  0  0  0  0  0  0  0  0  0  0
  131.3510  125.3610   58.1110 O   0  0  0  0  0  0  0  0  0  0  0  0
  1  2  1  0
  2  3  2  0
  3  4  1  0
  4  5  2  0
  6  5  1  1
  6  7  1  0
  7  8  1  0
  8  9  2  0
  8 10  1  0
 10 11  1  0
 11 12  2  0
 12 13  1  0
 13 14  2  0
 14 15  1  0
 15 16  2  0
 16 17  1  0
  7 18  2  0
 18 19  1  0
 19 20  2  0
 20 21  1  0
 21 22  1  0
 22 23  2  0
 23 24  1  0
 24 25  2  0
 24 26  1  0
 26 27  1  0
 27 28  2  0
 28 29  1  0
 29 30  2  0
 30 31  1  0
 31 32  2  0
 22 33  1  0
 33 34  2  0
 33 35  1  0
  5 36  1  0
 36  2  1  0
 35  6  1  0
 16 11  1  0
 35 20  1  0
 32 23  1  0
 32 27  1  0
M  END
>  <Binding energies>  (44) 
[-9.31]

>  <Ligand effiencies>  (44) 
[-0.24500000000000002]

>  <Interactions>  (44) 
["V-A:PRO:540:C:4881, V-A:TYR:539:CD1:4873, V-A:TYR:539:C:4867, V-A:PRO:540:CA:4883, H-A:ALA:541:N:4891, V-A:TYR:539:CE1:4875, V-A:GLU:543:CD:4908, V-A:PRO:540:N:4884, V-A:LEU:475:CD1:4257, V-B:PRO:540:C:9853, H-B:ALA:541:N:9863, V-B:ALA:541:CB:9864, V-A:TYR:539:CG:4872, V-A:ASP:366:CB:3211, V-B:TYR:539:CE2:9848, V-B:TYR:539:CZ:9849, V-A:TYR:539:CA:4869, V-A:ILE:369:CD1:3238, H-A:TYR:539:O:4868, V-A:ASP:366:CA:3209, V-A:ASP:366:C:3207, V-A:ILE:369:CG2:3236, V-A:TYR:531:CE1:4792, V-A:PRO:482:CB:4325, V-A:PRO:482:CG:4326, V-B:ALA:541:CA:9862, V-A:ASN:370:CB:3244"]

$$$$
RR20_Rahimova_2017
     RDKit          3D

 38 43  0  0  0  0  0  0  0  0999 V2000
  125.0270  140.0980   59.1550 C   0  0  0  0  0  0  0  0  0  0  0  0
  125.3250  138.6640   59.5520 C   0  0  0  0  0  0  0  0  0  0  0  0
  126.6340  138.2830   59.8490 C   0  0  0  0  0  0  0  0  0  0  0  0
  126.9080  136.9700   60.2220 C   0  0  0  0  0  0  0  0  0  0  0  0
  125.8780  136.0240   60.2900 C   0  0  0  0  0  0  0  0  0  0  0  0
  126.1940  134.6080   60.7180 C   0  0  0  0  0  0  0  0  0  0  0  0
  127.1280  134.0350   60.1520 O   0  0  0  0  0  0  0  0  0  0  0  0
  125.4560  134.0290   61.7090 N   0  0  0  0  0  0  0  0  0  0  0  0
  123.9880  134.1350   61.7420 C   0  0  0  0  0  0  0  0  0  0  0  0
  123.5190  133.2490   62.8830 C   0  0  0  0  0  0  0  0  0  0  0  0
  124.7270  132.4110   63.1730 C   0  0  0  0  0  0  0  0  0  0  0  0
  124.8680  131.3530   64.0710 C   0  0  0  0  0  0  0  0  0  0  0  0
  126.1270  130.7940   64.3230 C   0  0  0  0  0  0  0  0  0  0  0  0
  126.2780  129.6480   65.2840 C   0  0  0  0  0  0  0  0  0  0  0  0
  127.4800  129.1150   65.4440 N   0  0  0  0  0  0  0  0  0  0  0  0
  127.4980  128.1400   66.3170 C   0  0  0  0  0  0  0  0  0  0  0  0
  128.5820  127.3770   66.7220 N   0  0  0  0  0  0  0  0  0  0  0  0
  128.6970  126.6700   67.8730 C   0  0  0  0  0  0  0  0  0  0  0  0
  127.8110  126.5960   68.7260 O   0  0  0  0  0  0  0  0  0  0  0  0
  130.0080  125.8870   68.1170 C   0  0  0  0  0  0  0  0  0  0  0  0
  130.8980  125.8720   66.9410 N   0  0  0  0  0  0  0  0  0  0  0  0
  132.2920  125.5680   67.2960 C   0  0  0  0  0  0  0  0  0  0  0  0
  133.2180  125.8260   66.0860 C   0  0  0  0  0  0  0  0  0  0  0  0
  132.6720  125.2450   64.7810 C   0  0  0  0  0  0  0  0  0  0  0  0
  133.4800  125.1410   63.6440 C   0  0  0  0  0  0  0  0  0  0  0  0
  132.9710  124.6480   62.4450 C   0  0  0  0  0  0  0  0  0  0  0  0
  131.6410  124.2480   62.3700 C   0  0  0  0  0  0  0  0  0  0  0  0
  130.8270  124.3380   63.4980 C   0  0  0  0  0  0  0  0  0  0  0  0
  131.3250  124.8330   64.7080 C   0  0  0  0  0  0  0  0  0  0  0  0
  130.4490  124.8770   65.9600 C   0  0  0  0  0  0  0  0  0  0  0  0
  125.9700  127.7890   67.0230 S   0  0  0  0  0  0  0  0  0  0  0  0
  125.2540  129.0550   66.0540 C   0  0  0  0  0  0  0  0  0  0  0  0
  123.7670  129.3260   66.1220 C   0  0  0  0  0  0  0  0  0  0  0  0
  127.2480  131.3590   63.6960 C   0  0  0  0  0  0  0  0  0  0  0  0
  127.1130  132.4300   62.8120 C   0  0  0  0  0  0  0  0  0  0  0  0
  125.8380  132.9230   62.5030 C   0  0  0  0  0  0  0  0  0  0  0  0
  124.5620  136.4210   60.0190 C   0  0  0  0  0  0  0  0  0  0  0  0
  124.2870  137.7350   59.6470 C   0  0  0  0  0  0  0  0  0  0  0  0
  1  2  1  0
  2  3  2  0
  3  4  1  0
  4  5  2  0
  5  6  1  0
  6  7  2  0
  6  8  1  0
  8  9  1  0
  9 10  1  0
 10 11  1  0
 11 12  2  0
 12 13  1  0
 13 14  1  0
 14 15  1  0
 15 16  2  0
 16 17  1  0
 17 18  1  0
 18 19  2  0
 18 20  1  0
 20 21  1  0
 21 22  1  0
 22 23  1  0
 23 24  1  0
 24 25  2  0
 25 26  1  0
 26 27  2  0
 27 28  1  0
 28 29  2  0
 29 30  1  0
 16 31  1  0
 31 32  1  0
 32 33  1  0
 13 34  2  0
 34 35  1  0
 35 36  2  0
  5 37  1  0
 37 38  2  0
 38  2  1  0
 36  8  1  0
 36 11  1  0
 32 14  2  0
 30 21  1  0
 29 24  1  0
M  END
>  <Binding energies>  (45) 
[-10.89]

>  <Ligand effiencies>  (45) 
[-0.2792307692307692]

>  <Interactions>  (45) 
["V-B:ARG:545:CG:9894, V-A:ALA:541:CB:4892, V-B:HIS:456:CE1:9041, V-A:HIS:456:CE1:4069, V-B:LEU:475:CD1:9229, V-A:TYR:539:CD1:4873, V-A:TYR:539:C:4867, V-B:GLY:454:CA:9020, V-B:GLU:543:CB:9878, V-B:ARG:545:CD:9895, V-B:ARG:545:CZ:9898, V-A:ASP:366:CG:3212, H-B:GLU:543:OE2:9882, V-A:ARG:545:CD:4923, V-A:TYR:484:CZ:4346, V-A:ARG:545:CZ:4926, V-B:GLU:543:CD:9880, V-A:ARG:545:CG:4922, V-A:TYR:539:CG:4872, V-B:ILE:369:CD1:8210, V-B:PRO:482:CB:9297, V-B:PRO:482:CG:9298, V-B:ILE:369:CG2:8208, V-A:TYR:539:CB:4871, H-A:TYR:484:OH:4347, H-A:GLU:543:OE1:4909, V-A:TYR:484:CE2:4345, V-B:LEU:373:CD1:8251, V-B:SER:385:CB:8380, V-A:ILE:343:CG2:2991, V-B:HIS:383:CE1:8365, V-B:HIS:383:CD2:8363, V-A:VAL:344:CG1:3000, V-B:LEU:373:CD2:8252, V-B:GLY:453:C:9013, V-B:SER:385:CA:8378, V-B:HIS:383:CG:8361, V-B:GLY:453:CA:9015, V-B:LEU:373:CG:8250"]

$$$$
RR21_Rahimova_2017
     RDKit          3D

 40 45  0  0  0  0  0  0  0  0999 V2000
  124.5450  129.9370   62.7040 C   0  0  0  0  0  0  0  0  0  0  0  0
  124.5700  130.2100   64.1020 O   0  0  0  0  0  0  0  0  0  0  0  0
  125.4780  129.5450   64.9040 C   0  0  0  0  0  0  0  0  0  0  0  0
  126.8370  129.3790   64.5890 C   0  0  0  0  0  0  0  0  0  0  0  0
  127.6890  128.6960   65.4560 C   0  0  0  0  0  0  0  0  0  0  0  0
  127.2080  128.1660   66.6590 C   0  0  0  0  0  0  0  0  0  0  0  0
  128.1260  127.4370   67.5920 C   0  0  0  0  0  0  0  0  0  0  0  0
  128.1810  127.7840   68.8630 N   0  0  0  0  0  0  0  0  0  0  0  0
  129.0730  126.9700   69.4460 N   0  0  0  0  0  0  0  0  0  0  0  0
  129.3620  127.0590   70.8330 C   0  0  0  0  0  0  0  0  0  0  0  0
  128.9170  126.0710   71.7240 C   0  0  0  0  0  0  0  0  0  0  0  0
  129.2110  126.1680   73.0820 C   0  0  0  0  0  0  0  0  0  0  0  0
  129.9490  127.2510   73.5530 C   0  0  0  0  0  0  0  0  0  0  0  0
  130.3950  128.2400   72.6790 C   0  0  0  0  0  0  0  0  0  0  0  0
  130.1020  128.1460   71.3210 C   0  0  0  0  0  0  0  0  0  0  0  0
  129.5770  126.0830   68.5280 C   0  0  0  0  0  0  0  0  0  0  0  0
  128.9960  126.3610   67.3000 C   0  0  0  0  0  0  0  0  0  0  0  0
  129.1830  125.6610   66.0390 C   0  0  0  0  0  0  0  0  0  0  0  0
  130.3360  125.4340   65.3690 C   0  0  0  0  0  0  0  0  0  0  0  0
  131.9800  125.9340   65.8250 S   0  0  0  0  0  0  0  0  0  0  0  0
  132.6050  125.1440   64.3840 C   0  0  0  0  0  0  0  0  0  0  0  0
  133.8400  125.0550   63.9980 N   0  0  0  0  0  0  0  0  0  0  0  0
  134.2150  124.3730   62.8080 C   0  0  0  0  0  0  0  0  0  0  0  0
  135.3610  124.2260   62.3850 O   0  0  0  0  0  0  0  0  0  0  0  0
  133.0530  123.7920   62.0490 C   0  0  0  0  0  0  0  0  0  0  0  0
  133.3330  123.0490   60.7360 C   0  0  0  0  0  0  0  0  0  0  0  0
  132.7680  121.6320   60.6830 C   0  0  0  0  0  0  0  0  0  0  0  0
  133.6260  120.5320   60.7650 C   0  0  0  0  0  0  0  0  0  0  0  0
  133.1080  119.2400   60.7330 C   0  0  0  0  0  0  0  0  0  0  0  0
  131.7310  119.0430   60.6210 C   0  0  0  0  0  0  0  0  0  0  0  0
  131.1700  117.6330   60.5990 C   0  0  0  0  0  0  0  0  0  0  0  0
  130.8690  120.1410   60.5500 C   0  0  0  0  0  0  0  0  0  0  0  0
  131.3870  121.4330   60.5820 C   0  0  0  0  0  0  0  0  0  0  0  0
  131.8260  123.8940   62.4430 N   0  0  0  0  0  0  0  0  0  0  0  0
  131.6000  124.5840   63.6410 N   0  0  0  0  0  0  0  0  0  0  0  0
  130.3330  124.7040   64.1090 C   0  0  0  0  0  0  0  0  0  0  0  0
  129.3280  124.2510   63.5470 O   0  0  0  0  0  0  0  0  0  0  0  0
  125.8540  128.3250   66.9710 C   0  0  0  0  0  0  0  0  0  0  0  0
  124.9990  129.0080   66.1040 C   0  0  0  0  0  0  0  0  0  0  0  0
  123.6940  129.1460   66.4350 F   0  0  0  0  0  0  0  0  0  0  0  0
  1  2  1  0
  2  3  1  0
  3  4  2  0
  4  5  1  0
  5  6  2  0
  6  7  1  0
  7  8  2  0
  8  9  1  0
  9 10  1  0
 10 11  2  0
 11 12  1  0
 12 13  2  0
 13 14  1  0
 14 15  2  0
  9 16  1  0
 16 17  2  0
 17 18  1  0
 18 19  2  0
 19 20  1  0
 20 21  1  0
 21 22  2  0
 22 23  1  0
 23 24  2  0
 23 25  1  0
 25 26  1  0
 26 27  1  0
 27 28  2  0
 28 29  1  0
 29 30  2  0
 30 31  1  0
 30 32  1  0
 32 33  2  0
 25 34  2  0
 34 35  1  0
 35 36  1  0
 36 37  2  0
  6 38  1  0
 38 39  2  0
 39 40  1  0
 39  3  1  0
 17  7  1  0
 36 19  1  0
 15 10  1  0
 35 21  1  0
 33 27  1  0
M  END
>  <Binding energies>  (46) 
[-11.02]

>  <Ligand effiencies>  (46) 
[-0.27549999999999997]

>  <Interactions>  (46) 
["V-B:ARG:545:CG:9894, V-B:HIS:456:CE1:9041, V-A:GLU:543:C:4902, V-A:HIS:456:CE1:4069, V-B:GLU:543:CB:9878, V-B:ARG:545:CD:9895, V-B:ASP:366:CG:8184, V-A:GLU:543:CD:4908, V-B:ARG:545:CZ:9898, V-A:GLY:453:C:4041, V-A:GLY:453:CA:4043, V-A:LEU:475:CD1:4257, V-A:ARG:545:CZ:4926, V-B:GLU:543:CD:9880, V-B:GLU:543:CG:9879, H-B:GLY:454:N:9021, V-B:TYR:539:CE2:9848, H-A:GLY:454:N:4049, H-A:ARG:545:NH1:4927, H-A:ARG:545:NH2:4928, V-B:TYR:539:CD2:9846, V-A:ILE:369:CG2:3236, V-A:PRO:482:CG:4326, V-B:HIS:456:CD2:9039, V-A:LYS:547:CE:4950, V-A:HIS:383:CE1:3392"]

$$$$
RR23_Rahimova_2017
     RDKit          3D

 39 44  0  0  0  0  0  0  0  0999 V2000
  128.4460  129.2150   67.7880 C   0  0  0  0  0  0  0  0  0  0  0  0
  127.4330  129.5550   66.7100 C   0  0  0  0  0  0  0  0  0  0  0  0
  126.2900  128.7700   66.5540 C   0  0  0  0  0  0  0  0  0  0  0  0
  125.3570  129.0880   65.5700 C   0  0  0  0  0  0  0  0  0  0  0  0
  125.5650  130.1860   64.7270 C   0  0  0  0  0  0  0  0  0  0  0  0
  124.5300  130.5270   63.6790 C   0  0  0  0  0  0  0  0  0  0  0  0
  123.4350  129.9640   63.7540 O   0  0  0  0  0  0  0  0  0  0  0  0
  124.8320  131.4420   62.7110 N   0  0  0  0  0  0  0  0  0  0  0  0
  124.5320  132.8720   62.8820 C   0  0  0  0  0  0  0  0  0  0  0  0
  125.1380  133.5830   61.6830 C   0  0  0  0  0  0  0  0  0  0  0  0
  126.0610  132.5490   61.1130 C   0  0  0  0  0  0  0  0  0  0  0  0
  126.9560  132.6610   60.0490 C   0  0  0  0  0  0  0  0  0  0  0  0
  127.6210  131.5260   59.5600 C   0  0  0  0  0  0  0  0  0  0  0  0
  128.6150  131.6050   58.3900 C   0  0  2  0  0  0  0  0  0  0  0  0
  128.5750  130.4200   57.5600 N   0  0  0  0  0  0  0  0  0  0  0  0
  129.7140  130.1570   57.0570 C   0  0  0  0  0  0  0  0  0  0  0  0
  130.0540  129.1130   56.2540 N   0  0  0  0  0  0  0  0  0  0  0  0
  129.3080  128.0350   55.9120 C   0  0  0  0  0  0  0  0  0  0  0  0
  128.1400  127.8350   56.2530 O   0  0  0  0  0  0  0  0  0  0  0  0
  130.0140  126.9940   55.0280 C   0  0  0  0  0  0  0  0  0  0  0  0
  130.8980  126.1600   55.8730 N   0  0  0  0  0  0  0  0  0  0  0  0
  132.2300  126.1160   55.4810 N   0  0  0  0  0  0  0  0  0  0  0  0
  133.1050  125.4220   56.1360 N   0  0  0  0  0  0  0  0  0  0  0  0
  132.7140  124.6980   57.2640 C   0  0  0  0  0  0  0  0  0  0  0  0
  133.6820  123.9580   57.9470 C   0  0  0  0  0  0  0  0  0  0  0  0
  133.3220  123.2250   59.0780 C   0  0  0  0  0  0  0  0  0  0  0  0
  132.0000  123.2290   59.5270 C   0  0  0  0  0  0  0  0  0  0  0  0
  131.0300  123.9670   58.8460 C   0  0  0  0  0  0  0  0  0  0  0  0
  131.3920  124.7050   57.7120 C   0  0  0  0  0  0  0  0  0  0  0  0
  130.3570  125.5070   56.9580 C   0  0  0  0  0  0  0  0  0  0  0  0
  129.1650  125.5600   57.2750 O   0  0  0  0  0  0  0  0  0  0  0  0
  131.0530  131.2740   57.4510 S   0  0  0  0  0  0  0  0  0  0  0  0
  130.0680  131.9280   58.8100 C   0  0  2  0  0  0  0  0  0  0  0  0
  130.5610  131.3060   60.1330 C   0  0  0  0  0  0  0  0  0  0  0  0
  127.3330  130.2790   60.1250 C   0  0  0  0  0  0  0  0  0  0  0  0
  126.4220  130.1630   61.1750 C   0  0  0  0  0  0  0  0  0  0  0  0
  125.8230  131.3110   61.7120 C   0  0  0  0  0  0  0  0  0  0  0  0
  126.7010  130.9860   64.9080 C   0  0  0  0  0  0  0  0  0  0  0  0
  127.6330  130.6680   65.8920 C   0  0  0  0  0  0  0  0  0  0  0  0
  1  2  1  0
  2  3  2  0
  3  4  1  0
  4  5  2  0
  5  6  1  0
  6  7  2  0
  6  8  1  0
  8  9  1  0
  9 10  1  0
 10 11  1  0
 11 12  2  0
 12 13  1  0
 14 13  1  1
 14 15  1  0
 15 16  2  0
 16 17  1  0
 17 18  1  0
 18 19  2  0
 18 20  1  0
 20 21  1  0
 21 22  1  0
 22 23  2  0
 23 24  1  0
 24 25  2  0
 25 26  1  0
 26 27  2  0
 27 28  1  0
 28 29  2  0
 29 30  1  0
 30 31  2  0
 16 32  1  0
 32 33  1  0
 33 34  1  1
 13 35  2  0
 35 36  1  0
 36 37  2  0
  5 38  1  0
 38 39  2  0
 39  2  1  0
 37  8  1  0
 37 11  1  0
 33 14  1  0
 30 21  1  0
 29 24  1  0
M  END
>  <Binding energies>  (47) 
[-10.61]

>  <Ligand effiencies>  (47) 
[-0.26525]

>  <Interactions>  (47) 
["V-B:TYR:484:CE2:9317, V-B:HIS:456:CE1:9041, V-A:PRO:540:CB:4885, V-B:LEU:475:CD1:9229, V-A:TYR:539:CD1:4873, V-A:TYR:539:C:4867, V-A:PRO:540:CA:4883, V-B:TYR:484:CZ:9318, V-B:GLY:454:CA:9020, V-A:GLU:543:CG:4907, V-A:TYR:539:CE1:4875, V-A:GLU:543:CB:4906, H-A:TYR:531:OH:4795, V-A:GLU:543:CD:4908, V-B:ARG:545:CZ:9898, V-A:PRO:540:N:4884, V-B:ILE:369:CD1:8210, H-B:GLY:454:N:9021, H-B:TYR:531:OH:9767, V-A:ASP:366:CB:3211, V-B:TYR:539:CE2:9848, V-B:TYR:539:CZ:9849, V-B:ILE:369:CG2:8208, H-B:ARG:545:NH1:9899, H-B:ARG:545:NH2:9900, V-A:ILE:369:CB:3235, V-A:ASP:366:CA:3209, V-A:ASP:366:C:3207, V-A:ILE:369:CG2:3236, H-B:TYR:539:OH:9850"]

$$$$
RR26_Rahimova_2017
     RDKit          3D

 38 44  0  0  0  0  0  0  0  0999 V2000
  124.1540  124.7370   58.1830 C   0  0  0  0  0  0  0  0  0  0  0  0
  125.4590  124.0060   57.8950 C   0  0  0  0  0  0  0  0  0  0  0  0
  125.3920  122.7000   57.3990 C   0  0  0  0  0  0  0  0  0  0  0  0
  126.5530  121.9980   57.0810 C   0  0  0  0  0  0  0  0  0  0  0  0
  127.7950  122.6020   57.2480 C   0  0  0  0  0  0  0  0  0  0  0  0
  127.8750  123.9030   57.7400 C   0  0  0  0  0  0  0  0  0  0  0  0
  126.7180  124.6220   58.0750 C   0  0  0  0  0  0  0  0  0  0  0  0
  126.8940  126.0120   58.6130 C   0  0  0  0  0  0  0  0  0  0  0  0
  125.8670  126.8360   58.8060 N   0  0  0  0  0  0  0  0  0  0  0  0
  126.4590  127.8990   59.2810 C   0  0  0  0  0  0  0  0  0  0  0  0
  125.9560  129.4620   59.8100 S   0  0  0  0  0  0  0  0  0  0  0  0
  127.6750  129.8630   60.1820 C   0  0  0  0  0  0  0  0  0  0  0  0
  128.1660  131.0210   60.6770 C   0  0  0  0  0  0  0  0  0  0  0  0
  127.4330  132.2240   61.0370 C   0  0  0  0  0  0  0  0  0  0  0  0
  127.2080  133.3530   60.2650 C   0  0  0  0  0  0  0  0  0  0  0  0
  126.4330  134.2170   60.9970 N   0  0  0  0  0  0  0  0  0  0  0  0
  125.9460  135.4950   60.6180 C   0  0  0  0  0  0  0  0  0  0  0  0
  126.7940  136.6120   60.6050 C   0  0  0  0  0  0  0  0  0  0  0  0
  126.3020  137.8600   60.2340 C   0  0  0  0  0  0  0  0  0  0  0  0
  124.9640  137.9960   59.8730 C   0  0  0  0  0  0  0  0  0  0  0  0
  124.1120  136.8940   59.8790 C   0  0  0  0  0  0  0  0  0  0  0  0
  124.6000  135.6450   60.2520 C   0  0  0  0  0  0  0  0  0  0  0  0
  126.1320  133.6770   62.1880 N   0  0  0  0  0  0  0  0  0  0  0  0
  126.7220  132.4990   62.2280 C   0  0  0  0  0  0  0  0  0  0  0  0
  126.5860  131.6370   63.4450 C   0  0  0  0  0  0  0  0  0  0  0  0
  127.7050  131.3570   64.2450 C   0  0  0  0  0  0  0  0  0  0  0  0
  127.5890  130.5510   65.3800 C   0  0  0  0  0  0  0  0  0  0  0  0
  126.3490  130.0180   65.7230 C   0  0  0  0  0  0  0  0  0  0  0  0
  125.2200  130.3060   64.9420 C   0  0  0  0  0  0  0  0  0  0  0  0
  125.3390  131.1050   63.8060 C   0  0  0  0  0  0  0  0  0  0  0  0
  123.9800  129.7640   65.2190 O   0  0  0  0  0  0  0  0  0  0  0  0
  123.8410  129.2750   66.5570 C   0  0  0  0  0  0  0  0  0  0  0  0
  125.0900  128.4600   66.9710 C   0  0  0  0  0  0  0  0  0  0  0  0
  126.2690  129.2670   66.8790 O   0  0  0  0  0  0  0  0  0  0  0  0
  128.5810  128.7610   59.8730 C   0  0  0  0  0  0  0  0  0  0  0  0
  129.8060  128.7020   60.0010 O   0  0  0  0  0  0  0  0  0  0  0  0
  127.7880  127.7150   59.3770 N   0  0  0  0  0  0  0  0  0  0  0  0
  128.0850  126.4850   58.9480 N   0  0  0  0  0  0  0  0  0  0  0  0
  1  2  1  0
  2  3  2  0
  3  4  1  0
  4  5  2  0
  5  6  1  0
  6  7  2  0
  7  8  1  0
  8  9  1  0
  9 10  2  0
 10 11  1  0
 11 12  1  0
 12 13  2  0
 13 14  1  0
 14 15  2  0
 15 16  1  0
 16 17  1  0
 17 18  2  0
 18 19  1  0
 19 20  2  0
 20 21  1  0
 21 22  2  0
 16 23  1  0
 23 24  2  0
 24 25  1  0
 25 26  2  0
 26 27  1  0
 27 28  2  0
 28 29  1  0
 29 30  2  0
 29 31  1  0
 31 32  1  0
 32 33  1  0
 33 34  1  0
 12 35  1  0
 35 36  2  0
 35 37  1  0
 37 38  1  0
  7  2  1  0
 38  8  2  0
 37 10  1  0
 24 14  1  0
 30 25  1  0
 22 17  1  0
 34 28  1  0
M  END
>  <Binding energies>  (48) 
[-10.08]

>  <Ligand effiencies>  (48) 
[-0.26526315789473687]

>  <Interactions>  (48) 
["V-B:ARG:545:CG:9894, V-A:ALA:541:CB:4892, V-B:TYR:484:CE2:9317, V-B:HIS:456:CE1:9041, V-B:LEU:475:CD1:9229, V-A:TYR:539:CD1:4873, V-A:TYR:539:C:4867, V-B:TYR:484:CZ:9318, V-B:GLY:454:CA:9020, V-A:GLU:543:CG:4907, V-B:ARG:545:CD:9895, V-A:TYR:539:CE1:4875, V-B:ASP:366:CG:8184, V-A:GLU:543:CD:4908, V-B:ARG:545:CZ:9898, V-B:TYR:539:C:9839, V-B:PRO:540:CB:9857, V-B:PRO:540:CA:9855, V-B:PRO:540:N:9856, H-B:TYR:484:OH:9319, H-B:GLY:454:N:9021, H-B:TYR:531:OH:9767, V-B:MET:535:CE:9807, V-B:LEU:363:CD1:8160, V-B:ASP:366:CB:8183, V-B:LEU:363:CA:8156, V-B:PRO:540:CD:9859, V-B:PRO:482:CB:9297, V-B:PRO:482:CG:9298, V-B:TYR:531:CE2:9765, V-B:ILE:369:CG2:8208, H-B:ARG:545:NH1:9899, H-B:ARG:545:NH2:9900, V-A:TYR:539:CB:4871, H-B:ARG:545:NE:9896, V-B:LEU:373:CD1:8251, V-B:SER:385:CB:8380, V-B:SER:385:CA:8378"]

$$$$
RR2_Rahimova_2017
     RDKit          3D

 46 50  0  0  0  0  0  0  0  0999 V2000
  124.7430  123.3460   60.9650 C   0  0  0  0  0  0  0  0  0  0  0  0
  125.1480  123.0280   59.6380 O   0  0  0  0  0  0  0  0  0  0  0  0
  126.0680  123.8410   59.0010 C   0  0  0  0  0  0  0  0  0  0  0  0
  127.1840  123.3700   58.2950 C   0  0  0  0  0  0  0  0  0  0  0  0
  128.0590  124.2660   57.6880 C   0  0  0  0  0  0  0  0  0  0  0  0
  127.8440  125.6480   57.7730 C   0  0  0  0  0  0  0  0  0  0  0  0
  128.8160  126.6020   57.1080 C   0  0  0  0  0  0  0  0  0  0  0  0
  129.5990  127.2710   57.7920 O   0  0  0  0  0  0  0  0  0  0  0  0
  128.7480  126.6690   55.7580 N   0  0  0  0  0  0  0  0  0  0  0  0
  129.5530  127.5950   55.1040 N   0  0  0  0  0  0  0  0  0  0  0  0
  129.0860  128.1610   53.9730 C   0  0  0  0  0  0  0  0  0  0  0  0
  128.0750  127.7950   53.3670 O   0  0  0  0  0  0  0  0  0  0  0  0
  129.8910  129.3590   53.4510 C   0  0  0  0  0  0  0  0  0  0  0  0
  129.2240  131.0000   53.9100 S   0  0  0  0  0  0  0  0  0  0  0  0
  127.9270  130.5270   55.0140 C   0  0  0  0  0  0  0  0  0  0  0  0
  126.7130  130.2510   54.6110 N   0  0  0  0  0  0  0  0  0  0  0  0
  125.9470  129.9940   55.7400 N   0  0  0  0  0  0  0  0  0  0  0  0
  126.7360  130.0950   56.7830 C   0  0  0  0  0  0  0  0  0  0  0  0
  126.2760  129.8700   58.1870 C   0  0  0  0  0  0  0  0  0  0  0  0
  125.0250  130.3420   58.5920 C   0  0  0  0  0  0  0  0  0  0  0  0
  124.5900  130.1430   59.8990 C   0  0  0  0  0  0  0  0  0  0  0  0
  125.3980  129.4550   60.8110 C   0  0  0  0  0  0  0  0  0  0  0  0
  125.0170  129.2350   62.1430 N   0  0  0  0  0  0  0  0  0  0  0  0
  125.3390  130.3540   63.4860 S   0  0  0  0  0  0  0  0  0  0  0  0
  126.6480  129.9710   64.0260 O   0  0  0  0  0  0  0  0  0  0  0  0
  124.1500  130.3860   64.3460 O   0  0  0  0  0  0  0  0  0  0  0  0
  125.5460  131.9590   62.7190 C   0  0  0  0  0  0  0  0  0  0  0  0
  124.4360  132.7400   62.3900 C   0  0  0  0  0  0  0  0  0  0  0  0
  124.6180  133.9780   61.7790 C   0  0  0  0  0  0  0  0  0  0  0  0
  125.9080  134.4370   61.5040 C   0  0  0  0  0  0  0  0  0  0  0  0
  126.1050  135.7810   60.8250 C   0  0  0  0  0  0  0  0  0  0  0  0
  127.0170  133.6530   61.8310 C   0  0  0  0  0  0  0  0  0  0  0  0
  126.8360  132.4140   62.4400 C   0  0  0  0  0  0  0  0  0  0  0  0
  126.6460  128.9820   60.4040 C   0  0  0  0  0  0  0  0  0  0  0  0
  127.0840  129.1850   59.0990 C   0  0  0  0  0  0  0  0  0  0  0  0
  128.0200  130.4390   56.3910 N   0  0  0  0  0  0  0  0  0  0  0  0
  129.1470  130.6880   57.2010 C   0  0  0  0  0  0  0  0  0  0  0  0
  129.0520  131.5760   58.2730 C   0  0  0  0  0  0  0  0  0  0  0  0
  130.1680  131.8130   59.0720 C   0  0  0  0  0  0  0  0  0  0  0  0
  131.3790  131.1720   58.8090 C   0  0  0  0  0  0  0  0  0  0  0  0
  132.4290  131.4710   59.6550 O   0  0  0  0  0  0  0  0  0  0  0  0
  132.4460  130.9160   60.9670 C   0  0  0  0  0  0  0  0  0  0  0  0
  131.4650  130.2790   57.7280 C   0  0  0  0  0  0  0  0  0  0  0  0
  130.3520  130.0370   56.9280 C   0  0  0  0  0  0  0  0  0  0  0  0
  126.7210  126.1110   58.4760 C   0  0  0  0  0  0  0  0  0  0  0  0
  125.8460  125.2140   59.0820 C   0  0  0  0  0  0  0  0  0  0  0  0
  1  2  1  0
  2  3  1  0
  3  4  2  0
  4  5  1  0
  5  6  2  0
  6  7  1  0
  7  8  2  0
  7  9  1  0
  9 10  1  0
 10 11  1  0
 11 12  2  0
 11 13  1  0
 13 14  1  0
 14 15  1  0
 15 16  2  0
 16 17  1  0
 17 18  2  0
 18 19  1  0
 19 20  2  0
 20 21  1  0
 21 22  2  0
 22 23  1  0
 23 24  1  0
 24 25  2  0
 24 26  2  0
 24 27  1  0
 27 28  2  0
 28 29  1  0
 29 30  2  0
 30 31  1  0
 30 32  1  0
 32 33  2  0
 22 34  1  0
 34 35  2  0
 18 36  1  0
 36 37  1  0
 37 38  2  0
 38 39  1  0
 39 40  2  0
 40 41  1  0
 41 42  1  0
 40 43  1  0
 43 44  2  0
  6 45  1  0
 45 46  2  0
 46  3  1  0
 36 15  1  0
 44 37  1  0
 35 19  1  0
 33 27  1  0
M  END
>  <Binding energies>  (49) 
[-10.94]

>  <Ligand effiencies>  (49) 
[-0.22326530612244896]

>  <Interactions>  (49) 
["V-A:ALA:541:CB:4892, V-A:PRO:540:CB:4885, V-B:LEU:475:CD1:9229, V-A:TYR:539:CD1:4873, V-A:TYR:539:C:4867, V-A:PRO:540:CA:4883, V-B:GLY:454:CA:9020, V-A:TYR:539:CE1:4875, H-A:TYR:531:OH:4795, V-B:ASP:366:CG:8184, V-A:PRO:540:N:4884, H-B:ASP:366:OD1:8185, V-B:PRO:540:CB:9857, V-B:PRO:540:CA:9855, V-A:MET:535:CE:4835, H-B:TYR:484:OH:9319, V-B:ILE:369:CD1:8210, H-B:ASP:366:OD2:8186, H-B:GLY:454:N:9021, V-A:TYR:539:CZ:4877, V-A:TYR:531:CZ:4794, V-A:MET:535:CG:4833, H-B:MET:535:SD:9806, H-B:LYS:534:NZ:9795, H-A:TYR:539:OH:4878, H-B:TYR:531:OH:9767, V-B:MET:535:CE:9807, V-B:ASP:366:CB:8183, V-B:PRO:482:CG:9298, V-B:ILE:369:CG2:8208, V-B:ASP:366:CA:8181, V-A:MET:535:CB:4832, V-B:ASN:362:CB:8147"]

$$$$
RR33_Rahimova_2017
     RDKit          3D

 18 19  0  0  0  0  0  0  0  0999 V2000
  125.1930  139.7570   60.9730 C   0  0  0  0  0  0  0  0  0  0  0  0
  125.3150  139.1940   59.5540 C   0  0  0  0  0  0  0  0  0  0  0  0
  124.5990  137.9650   59.4860 O   0  0  0  0  0  0  0  0  0  0  0  0
  125.1670  136.8190   60.0090 C   0  0  0  0  0  0  0  0  0  0  0  0
  126.4680  136.9370   60.4960 C   0  0  0  0  0  0  0  0  0  0  0  0
  127.1250  135.8360   61.0380 C   0  0  0  0  0  0  0  0  0  0  0  0
  126.4860  134.5940   61.1020 C   0  0  0  0  0  0  0  0  0  0  0  0
  127.1920  133.4120   61.6830 C   0  0  0  0  0  0  0  0  0  0  0  0
  128.3450  132.9020   61.3110 N   0  0  0  0  0  0  0  0  0  0  0  0
  128.5500  131.8740   62.1190 C   0  0  0  0  0  0  0  0  0  0  0  0
  129.8020  131.0310   62.0030 C   0  0  0  0  0  0  0  0  0  0  0  0
  130.6520  131.5210   60.9290 N   0  0  0  0  0  0  0  0  0  0  0  0
  132.0490  131.5010   61.3310 C   0  0  0  0  0  0  0  0  0  0  0  0
  127.4870  131.7580   63.0070 C   0  0  0  0  0  0  0  0  0  0  0  0
  127.1320  130.8290   64.1410 C   0  0  0  0  0  0  0  0  0  0  0  0
  126.6140  132.7520   62.7210 O   0  0  0  0  0  0  0  0  0  0  0  0
  125.1790  134.4720   60.6180 C   0  0  0  0  0  0  0  0  0  0  0  0
  124.5230  135.5740   60.0740 C   0  0  0  0  0  0  0  0  0  0  0  0
  1  2  1  0
  2  3  1  0
  3  4  1  0
  4  5  2  0
  5  6  1  0
  6  7  2  0
  7  8  1  0
  8  9  2  0
  9 10  1  0
 10 11  1  0
 11 12  1  0
 12 13  1  0
 10 14  2  0
 14 15  1  0
 14 16  1  0
  7 17  1  0
 17 18  2  0
 18  4  1  0
 16  8  1  0
M  END
>  <Binding energies>  (50) 
[-5.48]

>  <Ligand effiencies>  (50) 
[-0.28842105263157897]

>  <Interactions>  (50) 
["V-A:ALA:541:CB:4892, V-A:PRO:540:C:4881, V-A:PRO:540:CB:4885, V-A:TYR:539:CD1:4873, V-A:TYR:539:C:4867, V-A:PRO:540:CA:4883, H-A:ALA:541:N:4891, V-A:TYR:539:CE1:4875, V-A:GLU:543:CD:4908, V-B:PRO:482:CB:9297, V-B:PRO:482:CG:9298, V-B:ILE:369:CG2:8208, H-B:SER:385:OG:8381, V-A:TYR:539:CB:4871, H-A:TYR:539:O:4868, V-B:LEU:373:CD1:8251, V-B:SER:385:CB:8380, V-A:ILE:343:CG2:2991, V-B:HIS:383:CE1:8365, V-B:HIS:383:CD2:8363"]

$$$$
RR3_Rahimova_2017
     RDKit          3D

 38 44  0  0  0  0  0  0  0  0999 V2000
  125.2840  140.1340   59.1330 C   0  0  0  0  0  0  0  0  0  0  0  0
  126.5460  139.5920   59.3540 C   0  0  0  0  0  0  0  0  0  0  0  0
  126.6630  138.2880   59.8280 C   0  0  0  0  0  0  0  0  0  0  0  0
  125.5240  137.5110   60.0850 C   0  0  0  0  0  0  0  0  0  0  0  0
  125.6520  136.1080   60.5930 C   0  0  0  0  0  0  0  0  0  0  0  0
  126.8520  135.6520   61.1560 C   0  0  0  0  0  0  0  0  0  0  0  0
  126.9710  134.3470   61.6250 C   0  0  0  0  0  0  0  0  0  0  0  0
  125.8930  133.4630   61.5340 C   0  0  0  0  0  0  0  0  0  0  0  0
  126.0160  132.0570   62.0320 C   0  0  0  0  0  0  0  0  0  0  0  0
  125.7070  131.7690   63.2910 N   0  0  0  0  0  0  0  0  0  0  0  0
  125.8650  130.4740   63.4290 C   0  0  0  0  0  0  0  0  0  0  0  0
  125.6350  129.7240   64.6600 C   0  0  0  0  0  0  0  0  0  0  0  0
  124.4610  129.7120   65.3940 C   0  0  0  0  0  0  0  0  0  0  0  0
  124.5930  128.8940   66.4860 N   0  0  0  0  0  0  0  0  0  0  0  0
  125.8550  128.3440   66.5080 C   0  0  0  0  0  0  0  0  0  0  0  0
  126.4500  127.4600   67.4150 C   0  0  0  0  0  0  0  0  0  0  0  0
  127.7680  127.0820   67.1590 C   0  0  0  0  0  0  0  0  0  0  0  0
  128.4670  127.5580   66.0550 C   0  0  0  0  0  0  0  0  0  0  0  0
  127.8740  128.4380   65.1510 C   0  0  0  0  0  0  0  0  0  0  0  0
  126.5460  128.8520   65.3630 C   0  0  0  0  0  0  0  0  0  0  0  0
  126.2860  129.9060   62.2580 N   0  0  0  0  0  0  0  0  0  0  0  0
  126.4180  130.9080   61.3310 C   0  0  0  0  0  0  0  0  0  0  0  0
  126.9200  130.6680   59.9450 C   0  0  0  0  0  0  0  0  0  0  0  0
  128.1020  131.2720   59.5140 C   0  0  0  0  0  0  0  0  0  0  0  0
  128.5660  131.0610   58.2190 C   0  0  0  0  0  0  0  0  0  0  0  0
  127.8620  130.2410   57.3260 C   0  0  0  0  0  0  0  0  0  0  0  0
  128.3530  130.0330   55.9280 C   0  0  0  0  0  0  0  0  0  0  0  0
  128.8870  131.0980   55.1870 C   0  0  0  0  0  0  0  0  0  0  0  0
  129.3480  130.9030   53.8870 C   0  0  0  0  0  0  0  0  0  0  0  0
  129.2800  129.6370   53.3140 C   0  0  0  0  0  0  0  0  0  0  0  0
  128.7560  128.5670   54.0310 C   0  0  0  0  0  0  0  0  0  0  0  0
  128.2940  128.7650   55.3290 C   0  0  0  0  0  0  0  0  0  0  0  0
  126.6850  129.6270   57.7770 C   0  0  0  0  0  0  0  0  0  0  0  0
  126.2180  129.8350   59.0710 C   0  0  0  0  0  0  0  0  0  0  0  0
  124.6890  133.9120   60.9880 C   0  0  0  0  0  0  0  0  0  0  0  0
  124.5730  135.2180   60.5190 C   0  0  0  0  0  0  0  0  0  0  0  0
  124.2630  138.0790   59.8560 C   0  0  0  0  0  0  0  0  0  0  0  0
  124.1410  139.3820   59.3820 C   0  0  0  0  0  0  0  0  0  0  0  0
  1  2  2  0
  2  3  1  0
  3  4  2  0
  4  5  1  0
  5  6  2  0
  6  7  1  0
  7  8  2  0
  8  9  1  0
  9 10  1  0
 10 11  2  0
 11 12  1  0
 12 13  2  0
 13 14  1  0
 14 15  1  0
 15 16  2  0
 16 17  1  0
 17 18  2  0
 18 19  1  0
 19 20  2  0
 11 21  1  0
 21 22  1  0
 22 23  1  0
 23 24  2  0
 24 25  1  0
 25 26  2  0
 26 27  1  0
 27 28  2  0
 28 29  1  0
 29 30  2  0
 30 31  1  0
 31 32  2  0
 26 33  1  0
 33 34  2  0
  8 35  1  0
 35 36  2  0
  4 37  1  0
 37 38  2  0
 38  1  1  0
 36  5  1  0
 22  9  2  0
 34 23  1  0
 20 12  1  0
 32 27  1  0
 20 15  1  0
M  END
>  <Binding energies>  (51) 
[-11.02]

>  <Ligand effiencies>  (51) 
[-0.27549999999999997]

>  <Interactions>  (51) 
["V-B:ARG:545:CG:9894, V-A:ALA:541:CB:4892, V-B:HIS:456:CE1:9041, V-B:LEU:475:CD1:9229, V-A:TYR:539:CD1:4873, V-B:GLY:454:CA:9020, V-B:GLU:543:CB:9878, V-B:ARG:545:CD:9895, V-A:TYR:539:CE1:4875, V-A:GLU:543:CD:4908, V-B:ARG:545:CZ:9898, V-B:GLU:543:CD:9880, V-B:TYR:531:CZ:9766, H-B:TYR:484:OH:9319, V-A:MET:535:CG:4833, V-B:LYS:534:CE:9794, V-A:ILE:538:CG2:4863, V-B:TYR:531:CE1:9764, V-B:PRO:482:CB:9297, V-B:PRO:482:CG:9298, V-B:ILE:369:CG2:8208, V-A:TYR:539:CB:4871, V-A:MET:535:CB:4832, V-B:LEU:373:CD1:8251, V-B:SER:385:CB:8380, V-A:ILE:343:CG2:2991, V-B:HIS:383:CE1:8365, V-B:HIS:383:CD2:8363, V-A:VAL:344:CG1:3000, V-B:LEU:373:CD2:8252, V-B:VAL:384:C:8368, V-B:SER:385:CA:8378, H-B:ILE:455:O:9024, V-B:HIS:383:CG:8361"]

$$$$
RR4_Rahimova_2017
     RDKit          3D

 40 44  0  0  0  0  0  0  0  0999 V2000
  123.7650  130.9210   62.4470 C   0  0  0  0  0  0  0  0  0  0  0  0
  123.6790  131.2910   61.0760 O   0  0  0  0  0  0  0  0  0  0  0  0
  124.5300  130.6980   60.1630 C   0  0  0  0  0  0  0  0  0  0  0  0
  125.7170  130.1700   60.6660 C   0  0  0  0  0  0  0  0  0  0  0  0
  126.6330  129.5520   59.8210 C   0  0  0  0  0  0  0  0  0  0  0  0
  126.3920  129.4470   58.4430 C   0  0  0  0  0  0  0  0  0  0  0  0
  127.3840  128.7820   57.5330 C   0  0  0  0  0  0  0  0  0  0  0  0
  128.2400  127.7620   57.9620 C   0  0  0  0  0  0  0  0  0  0  0  0
  129.1460  127.1690   57.0740 C   0  0  0  0  0  0  0  0  0  0  0  0
  130.0090  126.0680   57.5970 C   0  0  0  0  0  0  0  0  0  0  0  0
  131.3780  126.2780   57.7870 C   0  0  0  0  0  0  0  0  0  0  0  0
  132.1880  125.2610   58.2840 C   0  0  0  0  0  0  0  0  0  0  0  0
  131.6450  124.0180   58.6080 C   0  0  0  0  0  0  0  0  0  0  0  0
  132.5240  123.0700   59.0960 O   0  0  0  0  0  0  0  0  0  0  0  0
  133.7470  123.4960   59.6880 C   0  0  0  0  0  0  0  0  0  0  0  0
  130.2710  123.8030   58.4240 C   0  0  0  0  0  0  0  0  0  0  0  0
  129.4630  124.8230   57.9260 C   0  0  0  0  0  0  0  0  0  0  0  0
  129.1940  127.6460   55.7400 C   0  0  0  0  0  0  0  0  0  0  0  0
  130.1220  127.0600   54.7690 C   0  0  0  0  0  0  0  0  0  0  0  0
  130.8550  126.5980   54.0030 N   0  0  0  0  0  0  0  0  0  0  0  0
  128.3200  128.6980   55.3830 C   0  0  0  0  0  0  0  0  0  0  0  0
  128.2520  129.4280   53.7600 S   0  0  0  0  0  0  0  0  0  0  0  0
  129.2210  130.9730   53.8030 C   0  0  0  0  0  0  0  0  0  0  0  0
  129.6810  131.3970   55.2040 C   0  0  0  0  0  0  0  0  0  0  0  0
  129.2120  132.4040   55.7400 O   0  0  0  0  0  0  0  0  0  0  0  0
  130.6220  130.5970   55.7580 N   0  0  0  0  0  0  0  0  0  0  0  0
  131.2340  130.7130   57.0080 C   0  0  0  0  0  0  0  0  0  0  0  0
  132.9300  130.3990   57.2670 S   0  0  0  0  0  0  0  0  0  0  0  0
  132.7950  130.7570   58.9610 C   0  0  0  0  0  0  0  0  0  0  0  0
  131.4810  131.1030   59.3120 C   0  0  0  0  0  0  0  0  0  0  0  0
  130.6020  131.0930   58.2020 C   0  0  0  0  0  0  0  0  0  0  0  0
  129.1860  131.4350   58.2950 C   0  0  0  0  0  0  0  0  0  0  0  0
  128.0630  131.7050   58.3690 N   0  0  0  0  0  0  0  0  0  0  0  0
  131.1130  131.5000   60.7470 C   0  0  0  0  0  0  0  0  0  0  0  0
  132.3810  131.8400   61.5620 C   0  0  0  0  0  0  0  0  0  0  0  0
  133.4960  130.7980   61.3630 C   0  0  0  0  0  0  0  0  0  0  0  0
  133.9930  130.7540   59.9020 C   0  0  0  0  0  0  0  0  0  0  0  0
  127.4320  129.2320   56.2530 N   0  0  0  0  0  0  0  0  0  0  0  0
  125.1910  129.9800   57.9460 C   0  0  0  0  0  0  0  0  0  0  0  0
  124.2720  130.5980   58.7890 C   0  0  0  0  0  0  0  0  0  0  0  0
  1  2  1  0
  2  3  1  0
  3  4  2  0
  4  5  1  0
  5  6  2  0
  6  7  1  0
  7  8  2  0
  8  9  1  0
  9 10  1  0
 10 11  2  0
 11 12  1  0
 12 13  2  0
 13 14  1  0
 14 15  1  0
 13 16  1  0
 16 17  2  0
  9 18  2  0
 18 19  1  0
 19 20  3  0
 18 21  1  0
 21 22  1  0
 22 23  1  0
 23 24  1  0
 24 25  2  0
 24 26  1  0
 26 27  1  0
 27 28  1  0
 28 29  1  0
 29 30  2  0
 30 31  1  0
 31 32  1  0
 32 33  3  0
 30 34  1  0
 34 35  1  0
 35 36  1  0
 36 37  1  0
 21 38  2  0
  6 39  1  0
 39 40  2  0
 40  3  1  0
 38  7  1  0
 17 10  1  0
 31 27  2  0
 37 29  1  0
M  END
>  <Binding energies>  (52) 
[-10.91]

>  <Ligand effiencies>  (52) 
[-0.26609756097560977]

>  <Interactions>  (52) 
["V-A:PRO:540:C:4881, V-A:PRO:540:CB:4885, V-A:TYR:539:CD1:4873, V-A:PRO:540:CA:4883, V-A:TYR:539:CE1:4875, H-A:TYR:531:OH:4795, V-B:ASP:366:CG:8184, V-A:ASP:366:CG:3212, V-B:TYR:531:CZ:9766, V-B:ILE:369:CD1:8210, V-A:TYR:539:CZ:4877, V-A:TYR:531:CZ:4794, V-B:LYS:534:CE:9794, V-A:ILE:538:CG2:4863, H-A:TYR:539:N:4870, H-B:LYS:534:NZ:9795, H-B:TYR:531:OH:9767, V-A:LEU:363:CD1:3188, V-B:TYR:531:CE1:9764, V-A:LEU:363:CB:3186, V-A:LEU:363:CA:3184, V-A:ASP:366:CB:3211, V-B:ASP:366:CB:8183, V-B:TYR:539:CE2:9848, V-B:TYR:539:CZ:9849, V-B:ILE:369:CG2:8208, V-A:ILE:369:CD1:3238, V-B:ASP:366:CA:8181, V-A:ILE:369:CB:3235, V-A:ASP:366:CA:3209, V-A:ILE:369:CG2:3236, V-A:ASN:362:C:3171, V-A:ASN:362:CB:3175, V-B:ASP:366:C:8179, V-A:ALA:541:CA:4890, V-A:ALA:541:C:4888, V-A:ASN:362:CA:3173"]

$$$$
RR6_Rahimova_2017
     RDKit          3D

 38 41  0  0  0  0  0  0  0  0999 V2000
  127.8800  128.5020   53.6300 C   0  0  0  0  0  0  0  0  0  0  0  0
  127.0620  129.6270   53.9200 O   0  0  0  0  0  0  0  0  0  0  0  0
  127.4300  130.5350   54.8610 C   0  0  0  0  0  0  0  0  0  0  0  0
  128.0670  131.5610   54.6030 O   0  0  0  0  0  0  0  0  0  0  0  0
  126.9850  130.1670   56.2470 C   0  0  0  0  0  0  0  0  0  0  0  0
  125.7140  129.6300   56.5020 C   0  0  0  0  0  0  0  0  0  0  0  0
  125.3280  129.3070   57.8010 C   0  0  0  0  0  0  0  0  0  0  0  0
  126.2090  129.5200   58.8710 C   0  0  0  0  0  0  0  0  0  0  0  0
  125.9120  129.2560   60.2200 N   0  0  0  0  0  0  0  0  0  0  0  0
  124.8410  129.6380   60.9510 C   0  0  0  0  0  0  0  0  0  0  0  0
  123.8940  130.3050   60.5360 O   0  0  0  0  0  0  0  0  0  0  0  0
  124.8740  129.2400   62.4310 C   0  0  0  0  0  0  0  0  0  0  0  0
  126.2120  130.0420   63.3760 S   0  0  0  0  0  0  0  0  0  0  0  0
  126.8700  131.3330   62.3410 C   0  0  0  0  0  0  0  0  0  0  0  0
  128.0980  131.0680   61.8330 N   0  0  0  0  0  0  0  0  0  0  0  0
  128.6910  131.9650   61.0050 C   0  0  0  0  0  0  0  0  0  0  0  0
  130.0230  131.5690   60.4370 C   0  0  0  0  0  0  0  0  0  0  0  0
  131.0940  131.2290   61.2770 C   0  0  0  0  0  0  0  0  0  0  0  0
  132.3330  130.8740   60.7500 C   0  0  0  0  0  0  0  0  0  0  0  0
  132.5230  130.8480   59.3690 C   0  0  0  0  0  0  0  0  0  0  0  0
  133.8780  130.4700   58.8000 C   0  0  0  0  0  0  0  0  0  0  0  0
  131.4710  131.1790   58.5180 C   0  0  0  0  0  0  0  0  0  0  0  0
  130.2350  131.5320   59.0500 C   0  0  0  0  0  0  0  0  0  0  0  0
  128.0550  133.1670   60.6790 C   0  0  0  0  0  0  0  0  0  0  0  0
  126.7860  133.4660   61.1950 C   0  0  0  0  0  0  0  0  0  0  0  0
  126.1570  134.7580   60.7920 C   0  0  0  0  0  0  0  0  0  0  0  0
  126.8730  135.9540   60.9070 C   0  0  0  0  0  0  0  0  0  0  0  0
  126.2990  137.1620   60.5180 C   0  0  0  0  0  0  0  0  0  0  0  0
  125.0050  137.1980   60.0010 C   0  0  0  0  0  0  0  0  0  0  0  0
  124.5200  138.4400   59.6400 O   0  0  0  0  0  0  0  0  0  0  0  0
  125.4360  139.4530   59.2410 C   0  0  0  0  0  0  0  0  0  0  0  0
  124.2850  136.0000   59.8780 C   0  0  0  0  0  0  0  0  0  0  0  0
  124.8620  134.7940   60.2680 C   0  0  0  0  0  0  0  0  0  0  0  0
  126.1730  132.5250   62.0590 C   0  0  0  0  0  0  0  0  0  0  0  0
  124.8600  132.7870   62.6570 C   0  0  0  0  0  0  0  0  0  0  0  0
  123.8230  132.9930   63.1270 N   0  0  0  0  0  0  0  0  0  0  0  0
  127.4800  130.0380   58.6190 C   0  0  0  0  0  0  0  0  0  0  0  0
  127.8630  130.3630   57.3200 C   0  0  0  0  0  0  0  0  0  0  0  0
  1  2  1  0
  2  3  1  0
  3  4  2  0
  3  5  1  0
  5  6  2  0
  6  7  1  0
  7  8  2  0
  8  9  1  0
  9 10  1  0
 10 11  2  0
 10 12  1  0
 12 13  1  0
 13 14  1  0
 14 15  2  0
 15 16  1  0
 16 17  1  0
 17 18  2  0
 18 19  1  0
 19 20  2  0
 20 21  1  0
 20 22  1  0
 22 23  2  0
 16 24  2  0
 24 25  1  0
 25 26  1  0
 26 27  2  0
 27 28  1  0
 28 29  2  0
 29 30  1  0
 30 31  1  0
 29 32  1  0
 32 33  2  0
 25 34  2  0
 34 35  1  0
 35 36  3  0
  8 37  1  0
 37 38  2  0
 38  5  1  0
 34 14  1  0
 23 17  1  0
 33 26  1  0
M  END
>  <Binding energies>  (53) 
[-10.14]

>  <Ligand effiencies>  (53) 
[-0.26]

>  <Interactions>  (53) 
["V-A:ALA:541:CB:4892, V-A:PRO:540:CB:4885, V-B:LEU:475:CD1:9229, V-A:TYR:539:CD1:4873, V-A:TYR:539:C:4867, V-A:PRO:540:CA:4883, V-B:GLY:454:CA:9020, V-A:TYR:539:CE1:4875, V-B:ASP:366:CG:8184, V-A:GLU:543:CD:4908, V-B:ARG:545:CZ:9898, V-A:PRO:540:N:4884, V-A:ASP:366:CG:3212, V-B:TYR:531:CZ:9766, H-B:GLY:454:N:9021, V-A:TYR:539:CZ:4877, V-B:LYS:534:CE:9794, H-B:LYS:534:NZ:9795, H-A:TYR:539:OH:4878, H-B:TYR:531:OH:9767, V-A:LEU:363:CD1:3188, V-B:TYR:531:CE1:9764, V-A:LEU:363:CB:3186, V-A:LEU:363:CA:3184, V-A:ASP:366:CB:3211, V-B:ASP:366:CB:8183, V-B:PRO:482:CB:9297, V-B:PRO:482:CG:9298, V-B:LYS:534:CD:9793, V-B:ILE:369:CG2:8208, H-B:SER:385:OG:8381, V-A:TYR:539:CB:4871, V-A:ASN:362:C:3171, V-B:LEU:373:CD1:8251, V-B:SER:385:CB:8380, V-A:ILE:343:CG2:2991, V-B:HIS:383:CE1:8365, V-B:HIS:383:CD2:8363, V-B:SER:385:CA:8378"]

$$$$
RR7_Rahimova_2017
     RDKit          3D

 47 53  0  0  0  0  0  0  0  0999 V2000
  126.2120  138.3960   59.4500 C   0  0  0  0  0  0  0  0  0  0  0  0
  125.4870  137.6500   60.4230 O   0  0  0  0  0  0  0  0  0  0  0  0
  125.8540  136.3430   60.6800 C   0  0  0  0  0  0  0  0  0  0  0  0
  124.9390  135.3560   60.3190 C   0  0  0  0  0  0  0  0  0  0  0  0
  125.2240  134.0110   60.5340 C   0  0  0  0  0  0  0  0  0  0  0  0
  126.4320  133.6210   61.1300 C   0  0  0  0  0  0  0  0  0  0  0  0
  126.7920  132.1190   61.3530 C   0  0  0  0  0  0  0  0  0  0  0  0
  125.8450  131.3530   60.5750 O   0  0  0  0  0  0  0  0  0  0  0  0
  126.0960  129.9720   60.2960 C   0  0  0  0  0  0  0  0  0  0  0  0
  126.2850  129.7940   58.7800 C   0  0  1  0  0  0  0  0  0  0  0  0
  127.2930  128.8030   58.6040 O   0  0  0  0  0  0  0  0  0  0  0  0
  126.8280  127.7080   57.8690 C   0  0  1  0  0  0  0  0  0  0  0  0
  127.4720  126.4900   58.3240 N   0  0  0  0  0  0  0  0  0  0  0  0
  128.6930  126.3590   58.9620 C   0  0  0  0  0  0  0  0  0  0  0  0
  129.0600  125.1290   59.2230 N   0  0  0  0  0  0  0  0  0  0  0  0
  128.0530  124.3680   58.6930 C   0  0  0  0  0  0  0  0  0  0  0  0
  127.8570  122.9750   58.6310 C   0  0  0  0  0  0  0  0  0  0  0  0
  128.8240  122.1300   59.2080 N   0  0  0  0  0  0  0  0  0  0  0  0
  128.9760  121.7710   60.5050 C   0  0  0  0  0  0  0  0  0  0  0  0
  128.2580  122.1700   61.4250 O   0  0  0  0  0  0  0  0  0  0  0  0
  130.1360  120.8430   60.7960 C   0  0  0  0  0  0  0  0  0  0  0  0
  129.8920  119.5860   61.3700 C   0  0  0  0  0  0  0  0  0  0  0  0
  130.9440  118.7150   61.6400 C   0  0  0  0  0  0  0  0  0  0  0  0
  132.2480  119.0920   61.3350 C   0  0  0  0  0  0  0  0  0  0  0  0
  132.5110  120.3330   60.7620 C   0  0  0  0  0  0  0  0  0  0  0  0
  131.4590  121.2060   60.4920 C   0  0  0  0  0  0  0  0  0  0  0  0
  126.7410  122.4840   58.0110 N   0  0  0  0  0  0  0  0  0  0  0  0
  125.8680  123.3780   57.4780 C   0  0  0  0  0  0  0  0  0  0  0  0
  125.9560  124.7350   57.4850 N   0  0  0  0  0  0  0  0  0  0  0  0
  127.0550  125.1860   58.1040 C   0  0  0  0  0  0  0  0  0  0  0  0
  125.3120  127.7330   58.0290 C   0  0  0  0  0  0  0  0  0  0  0  0
  125.0650  129.2310   58.0360 C   0  0  2  0  0  0  0  0  0  0  0  0
  124.9420  129.7560   56.7250 O   0  0  0  0  0  0  0  0  0  0  0  0
  128.2060  131.7650   60.8200 C   0  0  0  0  0  0  0  0  0  0  0  0
  128.5840  132.1280   59.5170 C   0  0  0  0  0  0  0  0  0  0  0  0
  129.8430  131.8040   59.0250 C   0  0  0  0  0  0  0  0  0  0  0  0
  130.7410  131.1110   59.8310 C   0  0  0  0  0  0  0  0  0  0  0  0
  130.3890  130.7410   61.1250 C   0  0  0  0  0  0  0  0  0  0  0  0
  129.1280  131.0640   61.6170 C   0  0  0  0  0  0  0  0  0  0  0  0
  126.7680  131.6290   62.8290 C   0  0  0  0  0  0  0  0  0  0  0  0
  126.0200  130.4960   63.1890 C   0  0  0  0  0  0  0  0  0  0  0  0
  125.9840  130.0560   64.5080 C   0  0  0  0  0  0  0  0  0  0  0  0
  126.6900  130.7510   65.4860 C   0  0  0  0  0  0  0  0  0  0  0  0
  127.4260  131.8840   65.1540 C   0  0  0  0  0  0  0  0  0  0  0  0
  127.4610  132.3220   63.8340 C   0  0  0  0  0  0  0  0  0  0  0  0
  127.3560  134.6170   61.4780 C   0  0  0  0  0  0  0  0  0  0  0  0
  127.0720  135.9620   61.2620 C   0  0  0  0  0  0  0  0  0  0  0  0
  1  2  1  0
  2  3  1  0
  3  4  2  0
  4  5  1  0
  5  6  2  0
  6  7  1  0
  7  8  1  0
  8  9  1  0
 10  9  1  1
 10 11  1  0
 11 12  1  0
 12 13  1  1
 13 14  1  0
 14 15  2  0
 15 16  1  0
 16 17  2  0
 17 18  1  0
 18 19  1  0
 19 20  2  0
 19 21  1  0
 21 22  2  0
 22 23  1  0
 23 24  2  0
 24 25  1  0
 25 26  2  0
 17 27  1  0
 27 28  2  0
 28 29  1  0
 29 30  2  0
 12 31  1  0
 31 32  1  0
 32 33  1  6
  7 34  1  0
 34 35  2  0
 35 36  1  0
 36 37  2  0
 37 38  1  0
 38 39  2  0
  7 40  1  0
 40 41  2  0
 41 42  1  0
 42 43  2  0
 43 44  1  0
 44 45  2  0
  6 46  1  0
 46 47  2  0
 47  3  1  0
 32 10  1  0
 39 34  1  0
 45 40  1  0
 30 13  1  0
 30 16  1  0
 26 21  1  0
M  END
>  <Binding energies>  (54) 
[-11.49]

>  <Ligand effiencies>  (54) 
[-0.23448979591836736]

>  <Interactions>  (54) 
["V-A:ALA:541:CB:4892, V-B:TYR:484:CE2:9317, V-B:LEU:475:CD1:9229, V-A:TYR:539:CD1:4873, V-A:TYR:539:C:4867, V-A:PRO:540:CA:4883, V-B:TYR:484:CZ:9318, V-A:GLU:543:CG:4907, V-A:TYR:539:CE1:4875, V-B:ASP:366:CG:8184, V-A:PRO:540:N:4884, V-B:TYR:539:C:9839, V-B:PRO:540:CB:9857, V-A:LEU:475:CD1:4257, V-B:PRO:540:C:9853, V-B:PRO:540:CA:9855, H-B:ALA:541:N:9863, V-B:ALA:541:CB:9864, V-B:PRO:540:N:9856, V-B:TYR:531:CZ:9766, H-A:TYR:539:OH:4878, H-B:TYR:531:OH:9767, V-B:MET:535:CE:9807, V-B:LEU:363:CD1:8160, H-B:TYR:539:O:9840, V-B:ASP:366:CB:8183, V-B:TYR:539:CE2:9848, V-B:PRO:482:CB:9297, V-B:PRO:482:CG:9298, V-B:TYR:531:CE2:9765, V-B:ILE:369:CG2:8208, H-B:SER:385:OG:8381, V-A:TYR:539:CB:4871, V-B:TYR:539:CD2:9846, V-B:ASP:366:CA:8181, V-A:ILE:369:CG2:3236, V-A:PRO:482:CB:4325, V-A:PRO:482:CG:4326, V-B:ALA:541:CA:9862, V-B:LEU:373:CD1:8251, V-B:SER:385:CB:8380, V-A:VAL:344:CG1:3000, H-B:ASP:366:O:8180"]

$$$$
RR8_A_Rahimova_2017
     RDKit          3D

 42 46  0  0  0  0  0  0  0  0999 V2000
  131.9810  131.5530   60.2620 O   0  0  0  0  0  0  0  0  0  0  0  0
  130.7910  131.2640   60.0980 C   0  0  0  0  0  0  0  0  0  0  0  0
  129.9490  130.8590   61.0990 O   0  0  0  0  0  0  0  0  0  0  0  0
  129.2350  131.8490   61.7850 C   0  0  1  0  0  0  0  0  0  0  0  0
  128.7590  132.8380   60.9180 O   0  0  0  0  0  0  0  0  0  0  0  0
  127.4590  133.2870   61.2880 C   0  0  2  0  0  0  0  0  0  0  0  0
  127.5040  134.8130   61.4780 C   0  0  0  0  0  0  0  0  0  0  0  0
  126.1760  135.2950   61.6350 O   0  0  0  0  0  0  0  0  0  0  0  0
  125.4850  135.4960   60.4090 C   0  0  0  0  0  0  0  0  0  0  0  0
  125.4980  136.9740   60.0460 C   0  0  0  0  0  0  0  0  0  0  0  0
  126.7150  137.6370   59.8690 C   0  0  0  0  0  0  0  0  0  0  0  0
  126.7300  138.9880   59.5310 C   0  0  0  0  0  0  0  0  0  0  0  0
  125.5270  139.6720   59.3670 C   0  0  0  0  0  0  0  0  0  0  0  0
  124.3090  139.0170   59.5370 C   0  0  0  0  0  0  0  0  0  0  0  0
  124.2940  137.6660   59.8730 C   0  0  0  0  0  0  0  0  0  0  0  0
  127.1370  132.4740   62.5490 C   0  0  1  0  0  0  0  0  0  0  0  0
  125.7750  132.0590   62.6160 O   0  0  0  0  0  0  0  0  0  0  0  0
  124.9770  132.3750   61.4810 C   0  0  0  0  0  0  0  0  0  0  0  0
  125.0560  131.2480   60.4600 C   0  0  0  0  0  0  0  0  0  0  0  0
  125.6740  130.0420   60.8050 C   0  0  0  0  0  0  0  0  0  0  0  0
  125.7580  129.0110   59.8750 C   0  0  0  0  0  0  0  0  0  0  0  0
  125.2270  129.1880   58.5980 C   0  0  0  0  0  0  0  0  0  0  0  0
  124.6170  130.3880   58.2430 C   0  0  0  0  0  0  0  0  0  0  0  0
  124.5330  131.4210   59.1740 C   0  0  0  0  0  0  0  0  0  0  0  0
  127.9820  131.2240   62.3850 C   0  0  2  0  0  0  0  0  0  0  0  0
  128.2020  130.5970   63.6460 O   0  0  0  0  0  0  0  0  0  0  0  0
  127.7440  129.2540   63.7550 C   0  0  0  0  0  0  0  0  0  0  0  0
  126.6110  129.1740   64.7670 C   0  0  0  0  0  0  0  0  0  0  0  0
  125.3570  129.7140   64.4640 C   0  0  0  0  0  0  0  0  0  0  0  0
  124.3200  129.6290   65.3900 C   0  0  0  0  0  0  0  0  0  0  0  0
  124.5380  129.0010   66.6140 C   0  0  0  0  0  0  0  0  0  0  0  0
  125.7830  128.4550   66.9210 C   0  0  0  0  0  0  0  0  0  0  0  0
  126.8200  128.5400   65.9950 C   0  0  0  0  0  0  0  0  0  0  0  0
  130.1110  131.3340   58.7620 C   0  0  0  0  0  0  0  0  0  0  0  0
  128.8070  130.8510   58.5670 C   0  0  0  0  0  0  0  0  0  0  0  0
  128.2040  130.9290   57.3150 C   0  0  0  0  0  0  0  0  0  0  0  0
  128.8860  131.4880   56.2260 C   0  0  0  0  0  0  0  0  0  0  0  0
  128.2410  131.5720   54.8940 N   0  0  0  0  0  0  0  0  0  0  0  0
  127.4650  130.6820   54.5580 O   0  0  0  0  0  0  0  0  0  0  0  0
  128.5040  132.5300   54.1720 O   0  0  0  0  0  0  0  0  0  0  0  0
  130.1870  131.9680   56.4220 C   0  0  0  0  0  0  0  0  0  0  0  0
  130.7920  131.8910   57.6720 C   0  0  0  0  0  0  0  0  0  0  0  0
  1  2  2  0
  2  3  1  0
  4  3  1  6
  4  5  1  0
  5  6  1  0
  6  7  1  1
  7  8  1  0
  8  9  1  0
  9 10  1  0
 10 11  2  0
 11 12  1  0
 12 13  2  0
 13 14  1  0
 14 15  2  0
  6 16  1  0
 16 17  1  6
 17 18  1  0
 18 19  1  0
 19 20  2  0
 20 21  1  0
 21 22  2  0
 22 23  1  0
 23 24  2  0
 16 25  1  0
 25 26  1  1
 26 27  1  0
 27 28  1  0
 28 29  2  0
 29 30  1  0
 30 31  2  0
 31 32  1  0
 32 33  2  0
  2 34  1  0
 34 35  2  0
 35 36  1  0
 36 37  2  0
 37 38  1  0
 38 39  2  0
 38 40  1  0
 37 41  1  0
 41 42  2  0
 25  4  1  0
 33 28  1  0
 42 34  1  0
 15 10  1  0
 24 19  1  0
M  CHG  2  38   1  40  -1
M  END
>  <Binding energies>  (55) 
[-11.22]

>  <Ligand effiencies>  (55) 
[-0.2671428571428572]

>  <Interactions>  (55) 
["V-B:ARG:545:CG:9894, V-A:ALA:541:CB:4892, V-B:HIS:456:CE1:9041, V-A:PRO:540:CB:4885, V-B:LEU:475:CD1:9229, V-A:TYR:539:CD1:4873, V-A:TYR:539:C:4867, V-A:PRO:540:CA:4883, H-A:ALA:541:N:4891, V-B:GLY:454:CA:9020, V-B:ARG:545:CD:9895, V-A:TYR:539:CE1:4875, V-B:ASP:366:CG:8184, V-A:GLU:543:CD:4908, V-B:ARG:545:CZ:9898, V-A:PRO:540:N:4884, V-A:TYR:539:CE2:4876, V-A:TYR:539:CZ:4877, H-A:TYR:539:N:4870, H-B:LYS:534:NZ:9795, H-A:TYR:539:OH:4878, V-A:PRO:540:CD:4887, V-B:ASP:366:CB:8183, V-B:PRO:482:CB:9297, V-B:PRO:482:CG:9298, V-B:ILE:369:CG2:8208, H-B:SER:385:OG:8381, V-A:TYR:539:CB:4871, V-B:ASP:366:CA:8181, V-B:LEU:373:CD1:8251, V-B:SER:385:CB:8380, V-A:ILE:343:CG2:2991, V-B:HIS:383:CE1:8365, V-B:HIS:383:CD2:8363, V-A:VAL:344:CG1:3000, V-B:LEU:373:CD2:8252, V-B:VAL:384:C:8368, V-B:ASP:366:C:8179, V-B:SER:385:CA:8378, V-A:ALA:541:CA:4890, V-B:ILE:369:CB:8207"]

$$$$
RR8_B_Rahimova_2017
     RDKit          3D

 42 46  0  0  0  0  0  0  0  0999 V2000
  128.3270  128.6760   62.6340 O   0  0  0  0  0  0  0  0  0  0  0  0
  127.4790  129.5570   62.8140 C   0  0  0  0  0  0  0  0  0  0  0  0
  127.3940  130.7080   62.0810 O   0  0  0  0  0  0  0  0  0  0  0  0
  127.5180  131.9360   62.7560 C   0  0  2  0  0  0  0  0  0  0  0  0
  126.2830  132.4010   63.2230 O   0  0  0  0  0  0  0  0  0  0  0  0
  125.6510  133.2520   62.2680 C   0  0  2  0  0  0  0  0  0  0  0  0
  124.2720  132.6740   61.9000 C   0  0  0  0  0  0  0  0  0  0  0  0
  124.3270  132.1350   60.5850 O   0  0  0  0  0  0  0  0  0  0  0  0
  124.0780  130.7400   60.4990 C   0  0  0  0  0  0  0  0  0  0  0  0
  124.8910  130.1550   59.3550 C   0  0  0  0  0  0  0  0  0  0  0  0
  124.4140  130.2530   58.0440 C   0  0  0  0  0  0  0  0  0  0  0  0
  125.1410  129.6980   56.9940 C   0  0  0  0  0  0  0  0  0  0  0  0
  126.3460  129.0480   57.2590 C   0  0  0  0  0  0  0  0  0  0  0  0
  126.8300  128.9520   58.5610 C   0  0  0  0  0  0  0  0  0  0  0  0
  126.1010  129.5040   59.6120 C   0  0  0  0  0  0  0  0  0  0  0  0
  126.6570  133.3420   61.1150 C   0  0  1  0  0  0  0  0  0  0  0  0
  126.6200  134.6510   60.5400 O   0  0  0  0  0  0  0  0  0  0  0  0
  125.3310  135.2310   60.3240 C   0  0  0  0  0  0  0  0  0  0  0  0
  125.4110  136.7260   60.0340 C   0  0  0  0  0  0  0  0  0  0  0  0
  126.6550  137.3510   59.9110 C   0  0  0  0  0  0  0  0  0  0  0  0
  126.7250  138.7090   59.6130 C   0  0  0  0  0  0  0  0  0  0  0  0
  125.5500  139.4400   59.4450 C   0  0  0  0  0  0  0  0  0  0  0  0
  124.3060  138.8250   59.5710 C   0  0  0  0  0  0  0  0  0  0  0  0
  124.2360  137.4650   59.8640 C   0  0  0  0  0  0  0  0  0  0  0  0
  127.9900  133.0100   61.7770 C   0  0  2  0  0  0  0  0  0  0  0  0
  128.9220  132.5360   60.8080 O   0  0  0  0  0  0  0  0  0  0  0  0
  128.3580  132.0560   59.5980 C   0  0  0  0  0  0  0  0  0  0  0  0
  129.4830  131.8420   58.6010 C   0  0  0  0  0  0  0  0  0  0  0  0
  129.3030  132.1620   57.2530 C   0  0  0  0  0  0  0  0  0  0  0  0
  130.3360  131.9430   56.3440 C   0  0  0  0  0  0  0  0  0  0  0  0
  131.5420  131.4050   56.7860 C   0  0  0  0  0  0  0  0  0  0  0  0
  131.7290  131.0850   58.1300 C   0  0  0  0  0  0  0  0  0  0  0  0
  130.6980  131.3040   59.0380 C   0  0  0  0  0  0  0  0  0  0  0  0
  126.4430  129.4900   63.8990 C   0  0  0  0  0  0  0  0  0  0  0  0
  126.7820  129.1950   65.2280 C   0  0  0  0  0  0  0  0  0  0  0  0
  125.8010  129.1310   66.2100 C   0  0  0  0  0  0  0  0  0  0  0  0
  124.4550  129.3500   65.8890 C   0  0  0  0  0  0  0  0  0  0  0  0
  123.4060  129.2550   66.9340 N   0  0  0  0  0  0  0  0  0  0  0  0
  122.2290  129.2320   66.5860 O   0  0  0  0  0  0  0  0  0  0  0  0
  123.7520  129.1980   68.1120 O   0  0  0  0  0  0  0  0  0  0  0  0
  124.1180  129.6500   64.5630 C   0  0  0  0  0  0  0  0  0  0  0  0
  125.1000  129.7210   63.5810 C   0  0  0  0  0  0  0  0  0  0  0  0
  1  2  2  0
  2  3  1  0
  4  3  1  6
  4  5  1  0
  5  6  1  0
  6  7  1  6
  7  8  1  0
  8  9  1  0
  9 10  1  0
 10 11  2  0
 11 12  1  0
 12 13  2  0
 13 14  1  0
 14 15  2  0
  6 16  1  0
 16 17  1  1
 17 18  1  0
 18 19  1  0
 19 20  2  0
 20 21  1  0
 21 22  2  0
 22 23  1  0
 23 24  2  0
 16 25  1  0
 25 26  1  6
 26 27  1  0
 27 28  1  0
 28 29  2  0
 29 30  1  0
 30 31  2  0
 31 32  1  0
 32 33  2  0
  2 34  1  0
 34 35  2  0
 35 36  1  0
 36 37  2  0
 37 38  1  0
 38 39  2  0
 38 40  1  0
 37 41  1  0
 41 42  2  0
 25  4  1  0
 33 28  1  0
 42 34  1  0
 15 10  1  0
 24 19  1  0
M  CHG  2  38   1  40  -1
M  END
>  <Binding energies>  (56) 
[-11.11]

>  <Ligand effiencies>  (56) 
[-0.2645238095238095]

>  <Interactions>  (56) 
["V-B:ARG:545:CG:9894, V-A:ALA:541:CB:4892, V-B:HIS:456:CE1:9041, V-A:PRO:540:CB:4885, V-B:LEU:475:CD1:9229, V-A:TYR:539:CD1:4873, V-A:TYR:539:C:4867, V-A:PRO:540:CA:4883, H-A:ALA:541:N:4891, V-B:GLY:454:CA:9020, V-B:ARG:545:CD:9895, V-A:TYR:539:CE1:4875, V-B:ASP:366:CG:8184, V-B:ARG:545:CZ:9898, V-A:PRO:540:N:4884, V-B:TYR:531:CZ:9766, H-B:TYR:484:OH:9319, V-A:TYR:539:CG:4872, V-B:ILE:369:CD1:8210, H-B:GLY:454:N:9021, V-A:TYR:539:CZ:4877, V-B:TYR:531:CE1:9764, V-B:ASP:366:CB:8183, V-B:PRO:482:CG:9298, V-B:ILE:369:CG2:8208, H-B:ARG:545:NH1:9899, V-A:TYR:539:CA:4869, V-A:TYR:539:CB:4871, H-B:ARG:545:NE:9896, V-B:ASP:366:CA:8181, V-B:LEU:373:CD1:8251, V-B:SER:385:CB:8380, V-A:ILE:343:CG2:2991, V-B:HIS:383:CE1:8365, V-B:HIS:383:CD2:8363, V-A:VAL:344:CG1:3000, V-B:LEU:373:CD2:8252, V-B:VAL:384:C:8368, V-B:ASP:366:C:8179, H-B:ILE:455:N:9026, H-B:HIS:456:ND1:9038, V-B:SER:385:CA:8378, V-A:ALA:541:CA:4890, V-B:GLY:453:CA:9015, H-B:GLY:453:N:9016"]

$$$$
RR9_Rahimova_2017
     RDKit          3D

 36 40  0  0  0  0  0  0  0  0999 V2000
  129.1650  122.1560   60.1120 C   0  0  0  0  0  0  0  0  0  0  0  0
  129.3890  121.9570   61.6140 C   0  0  0  0  0  0  0  0  0  0  0  0
  128.2760  122.5020   62.3180 O   0  0  0  0  0  0  0  0  0  0  0  0
  128.0070  123.8530   62.2200 C   0  0  0  0  0  0  0  0  0  0  0  0
  126.8740  124.2120   61.4930 C   0  0  0  0  0  0  0  0  0  0  0  0
  126.5250  125.5500   61.3390 C   0  0  0  0  0  0  0  0  0  0  0  0
  127.3010  126.5690   61.9090 C   0  0  0  0  0  0  0  0  0  0  0  0
  126.9330  128.0140   61.7420 C   0  0  0  0  0  0  0  0  0  0  0  0
  127.8590  128.9610   61.2790 C   0  0  0  0  0  0  0  0  0  0  0  0
  127.5040  130.3120   61.1120 C   0  0  0  0  0  0  0  0  0  0  0  0
  128.5110  131.2580   60.5160 C   0  0  0  0  0  0  0  0  0  0  0  0
  129.2210  131.9520   61.2450 O   0  0  0  0  0  0  0  0  0  0  0  0
  128.5520  131.2970   59.1700 N   0  0  0  0  0  0  0  0  0  0  0  0
  129.3500  132.2250   58.3610 C   0  0  0  0  0  0  0  0  0  0  0  0
  130.3760  131.5090   57.4530 C   0  0  0  0  0  0  0  0  0  0  0  0
  129.8570  131.1520   56.0640 C   0  0  0  0  0  0  0  0  0  0  0  0
  129.5290  132.1640   55.1560 C   0  0  0  0  0  0  0  0  0  0  0  0
  129.0890  131.8340   53.8770 C   0  0  0  0  0  0  0  0  0  0  0  0
  128.9730  130.4950   53.5110 C   0  0  0  0  0  0  0  0  0  0  0  0
  129.2930  129.4810   54.4130 C   0  0  0  0  0  0  0  0  0  0  0  0
  129.7350  129.8110   55.6920 C   0  0  0  0  0  0  0  0  0  0  0  0
  126.1780  130.6610   61.4690 C   0  0  0  0  0  0  0  0  0  0  0  0
  125.3440  131.8380   61.5300 C   0  0  0  0  0  0  0  0  0  0  0  0
  125.6940  133.2640   61.2650 C   0  0  0  0  0  0  0  0  0  0  0  0
  124.8820  134.0470   60.4390 C   0  0  0  0  0  0  0  0  0  0  0  0
  125.2190  135.3730   60.1800 C   0  0  0  0  0  0  0  0  0  0  0  0
  126.3690  135.9220   60.7490 C   0  0  0  0  0  0  0  0  0  0  0  0
  126.7470  137.3620   60.4520 C   0  0  0  0  0  0  0  0  0  0  0  0
  127.1840  135.1450   61.5730 C   0  0  0  0  0  0  0  0  0  0  0  0
  126.8440  133.8200   61.8330 C   0  0  0  0  0  0  0  0  0  0  0  0
  124.1240  131.5190   61.9030 N   0  0  0  0  0  0  0  0  0  0  0  0
  124.1000  130.2000   62.1530 N   0  0  0  0  0  0  0  0  0  0  0  0
  125.3260  129.6240   61.9180 C   0  0  0  0  0  0  0  0  0  0  0  0
  125.6510  128.3410   62.0690 N   0  0  0  0  0  0  0  0  0  0  0  0
  128.4410  126.2000   62.6380 C   0  0  0  0  0  0  0  0  0  0  0  0
  128.7920  124.8620   62.7950 C   0  0  0  0  0  0  0  0  0  0  0  0
  1  2  1  0
  2  3  1  0
  3  4  1  0
  4  5  2  0
  5  6  1  0
  6  7  2  0
  7  8  1  0
  8  9  2  0
  9 10  1  0
 10 11  1  0
 11 12  2  0
 11 13  1  0
 13 14  1  0
 14 15  1  0
 15 16  1  0
 16 17  2  0
 17 18  1  0
 18 19  2  0
 19 20  1  0
 20 21  2  0
 10 22  2  0
 22 23  1  0
 23 24  1  0
 24 25  2  0
 25 26  1  0
 26 27  2  0
 27 28  1  0
 27 29  1  0
 29 30  2  0
 23 31  2  0
 31 32  1  0
 32 33  1  0
 33 34  2  0
  7 35  1  0
 35 36  2  0
 36  4  1  0
 34  8  1  0
 21 16  1  0
 33 22  1  0
 30 24  1  0
M  END
>  <Binding energies>  (57) 
[-9.41]

>  <Ligand effiencies>  (57) 
[-0.24763157894736842]

>  <Interactions>  (57) 
["V-A:ALA:541:CB:4892, V-B:LEU:475:CD1:9229, V-A:TYR:539:CD1:4873, V-A:TYR:539:C:4867, V-A:PRO:540:CA:4883, H-A:ALA:541:N:4891, V-A:TYR:539:CE1:4875, V-B:ASP:366:CG:8184, V-A:PRO:540:N:4884, V-B:GLU:543:CD:9880, V-B:PRO:540:CA:9855, H-B:ALA:541:N:9863, V-B:ALA:541:CB:9864, V-B:ILE:369:CD1:8210, H-B:ASP:366:OD2:8186, V-A:ILE:538:C:4858, V-A:ILE:538:CB:4862, V-A:ILE:538:CA:4860, V-A:MET:535:CG:4833, V-B:LYS:534:CE:9794, V-A:ILE:538:CG2:4863, V-B:PRO:482:CB:9297, V-B:PRO:482:CG:9298, V-B:ILE:369:CG2:8208, H-B:ARG:545:NH2:9900, V-A:TYR:539:CB:4871, V-A:MET:535:CB:4832, V-B:LEU:373:CD1:8251"]

$$$$
