lig1.pdb
 OpenBabel06022617073D

 42 44  0  0  1  0  0  0  0  0999 V2000
  156.5630  135.0390   60.1760 C   0  0  0  0  0  0  0  0  0  0  0  0
  150.9430  129.1970   57.9390 N   0  0  0  0  0  0  0  0  0  0  0  0
  157.5660  135.4630   61.1070 O   0  0  0  0  0  0  0  0  0  0  0  0
  155.5120  134.1990   60.9260 C   0  0  1  0  0  0  0  0  0  0  0  0
  151.7220  130.4470   59.8290 N   0  0  0  0  0  0  0  0  0  0  0  0
  154.4740  133.7760   60.0310 O   0  0  0  0  0  0  0  0  0  0  0  0
  156.0340  132.8740   61.5310 C   0  0  1  0  0  0  0  0  0  0  0  0
  152.0830  129.0780   56.0580 N   0  3  0  0  0  0  0  0  0  0  0  0
  156.8580  133.0960   62.6790 O   0  0  0  0  0  0  0  0  0  0  0  0
  154.6690  132.2020   61.8480 C   0  0  1  0  0  0  0  0  0  0  0  0
  154.3130  130.6850   57.4200 N   0  3  0  0  0  0  0  0  0  0  0  0
  154.0720  132.7500   63.0300 O   0  0  0  0  0  0  0  0  0  0  0  0
  153.8740  132.5660   60.5560 C   0  0  2  0  0  0  0  0  0  0  0  0
  153.8630  131.5610   59.5010 N   0  0  1  0  0  0  0  0  0  0  0  0
  150.8350  129.6660   59.1910 C   0  0  0  0  0  0  0  0  0  0  0  0
  152.8320  130.7410   59.1520 C   0  0  2  0  0  0  0  0  0  0  0  0
  153.0780  130.2670   57.9080 C   0  0  1  0  0  0  0  0  0  0  0  0
  152.0700  129.5000   57.3210 C   0  0  1  0  0  0  0  0  0  0  0  0
  154.7570  131.4520   58.4250 C   0  0  0  0  0  0  0  0  0  0  0  0
  150.8830  128.1890   57.9500 H   0  0  0  0  0  0  0  0  0  0  0  0
  151.2900  131.3310   60.0570 H   0  0  0  0  0  0  0  0  0  0  0  0
  155.0730  134.8040   61.7190 H   0  0  0  0  0  0  0  0  0  0  0  0
  156.5750  132.3000   60.7790 H   0  0  0  0  0  0  0  0  0  0  0  0
  154.7830  131.1220   61.9390 H   0  0  0  0  0  0  0  0  0  0  0  0
  152.8430  132.7850   60.8350 H   0  0  0  0  0  0  0  0  0  0  0  0
  153.3440  129.8860   59.5940 H   0  0  0  0  0  0  0  0  0  0  0  0
  153.5340  129.3700   58.3270 H   0  0  0  0  0  0  0  0  0  0  0  0
  152.5370  128.5760   57.6630 H   0  0  0  0  0  0  0  0  0  0  0  0
  157.9850  134.6930   61.4990 H   0  0  0  0  0  0  0  0  0  0  0  0
  156.9210  132.2860   63.1900 H   0  0  0  0  0  0  0  0  0  0  0  0
  154.6580  132.6130   63.7780 H   0  0  0  0  0  0  0  0  0  0  0  0
  154.9880  132.4470   58.0450 H   0  0  0  0  0  0  0  0  0  0  0  0
  155.7090  131.0610   58.7840 H   0  0  0  0  0  0  0  0  0  0  0  0
  157.0240  134.4320   59.3970 H   0  0  0  0  0  0  0  0  0  0  0  0
  156.0830  135.9130   59.7370 H   0  0  0  0  0  0  0  0  0  0  0  0
  152.9610  129.3310   55.6270 H   0  0  0  0  0  0  0  0  0  0  0  0
  151.9750  128.0740   56.0370 H   0  0  0  0  0  0  0  0  0  0  0  0
  151.3230  129.5080   55.5510 H   0  0  0  0  0  0  0  0  0  0  0  0
  154.1690  131.2600   56.6020 H   0  0  0  0  0  0  0  0  0  0  0  0
  154.9190  129.8830   57.3220 H   0  0  0  0  0  0  0  0  0  0  0  0
  150.5850  128.8310   59.8460 H   0  0  0  0  0  0  0  0  0  0  0  0
  149.8470  130.1130   59.3020 H   0  0  0  0  0  0  0  0  0  0  0  0
  1  4  1  0  0  0  0
  1  3  1  0  0  0  0
  2 20  1  0  0  0  0
  2 15  1  0  0  0  0
  3 29  1  0  0  0  0
  4  7  1  1  0  0  0
  4 22  1  0  0  0  0
  5 21  1  0  0  0  0
  6 13  1  0  0  0  0
  6  4  1  0  0  0  0
  7 10  1  1  0  0  0
  7  9  1  0  0  0  0
  8 18  1  0  0  0  0
  9 30  1  0  0  0  0
 10 13  1  6  0  0  0
 10 24  1  0  0  0  0
 10 12  1  0  0  0  0
 11 17  1  0  0  0  0
 11 19  1  0  0  0  0
 12 31  1  0  0  0  0
 13 25  1  1  0  0  0
 14 16  1  6  0  0  0
 14 13  1  0  0  0  0
 15 42  1  0  0  0  0
 15  5  1  0  0  0  0
 15 41  1  0  0  0  0
 16 17  1  6  0  0  0
 16 26  1  0  0  0  0
 16  5  1  0  0  0  0
 17 18  1  6  0  0  0
 17 27  1  0  0  0  0
 18 28  1  1  0  0  0
 18  2  1  0  0  0  0
 19 33  1  0  0  0  0
 19 14  1  0  0  0  0
 23  7  1  0  0  0  0
 32 19  1  0  0  0  0
 34  1  1  0  0  0  0
 35  1  1  0  0  0  0
 36  8  1  0  0  0  0
 37  8  1  0  0  0  0
 38  8  1  0  0  0  0
 39 11  1  0  0  0  0
 40 11  1  0  0  0  0
M  CHG  2   8   1  11   1
M  END
$$$$
