1a_Ghoteimi_2023
     RDKit          3D

 40 43  0  0  0  0  0  0  0  0999 V2000
  134.0150  123.3270   61.5740 C   0  0  0  0  0  0  0  0  0  0  0  0
  133.9460  124.7460   62.1470 C   0  0  0  0  0  0  0  0  0  0  0  0
  133.8050  124.6770   63.5610 O   0  0  0  0  0  0  0  0  0  0  0  0
  132.6490  125.0460   64.1700 C   0  0  0  0  0  0  0  0  0  0  0  0
  132.5830  125.3890   65.3540 O   0  0  0  0  0  0  0  0  0  0  0  0
  131.4580  125.0010   63.2560 C   0  0  0  0  0  0  0  0  0  0  0  0
  130.9650  123.7940   62.7390 C   0  0  0  0  0  0  0  0  0  0  0  0
  129.8600  123.7840   61.8920 C   0  0  0  0  0  0  0  0  0  0  0  0
  129.2240  124.9870   61.5480 C   0  0  0  0  0  0  0  0  0  0  0  0
  128.1070  125.0940   60.6980 N   0  0  0  0  0  0  0  0  0  0  0  0
  127.0240  124.2940   60.5880 C   0  0  0  0  0  0  0  0  0  0  0  0
  126.8070  123.2850   61.2590 O   0  0  0  0  0  0  0  0  0  0  0  0
  126.0000  124.7150   59.5330 C   0  0  0  0  0  0  0  0  0  0  0  0
  126.7990  125.4590   58.0800 S   0  0  0  0  0  0  0  0  0  0  0  0
  127.2930  127.0950   58.5700 C   0  0  0  0  0  0  0  0  0  0  0  0
  126.6850  127.5390   59.6960 N   0  0  0  0  0  0  0  0  0  0  0  0
  126.9790  128.7740   60.1800 C   0  0  0  0  0  0  0  0  0  0  0  0
  126.2790  129.1860   61.4430 C   0  0  0  0  0  0  0  0  0  0  0  0
  126.7760  128.8210   62.7050 C   0  0  0  0  0  0  0  0  0  0  0  0
  126.1250  129.2050   63.8740 C   0  0  0  0  0  0  0  0  0  0  0  0
  124.9570  129.9620   63.8200 C   0  0  0  0  0  0  0  0  0  0  0  0
  124.3800  130.2990   65.0290 O   0  0  0  0  0  0  0  0  0  0  0  0
  124.7180  129.5510   66.1920 C   0  0  0  0  0  0  0  0  0  0  0  0
  124.4460  130.3300   62.5670 C   0  0  0  0  0  0  0  0  0  0  0  0
  125.0990  129.9440   61.4010 C   0  0  0  0  0  0  0  0  0  0  0  0
  127.9060  129.5940   59.5250 C   0  0  0  0  0  0  0  0  0  0  0  0
  128.5300  129.1660   58.3450 C   0  0  0  0  0  0  0  0  0  0  0  0
  129.4840  130.1070   57.6830 C   0  0  0  0  0  0  0  0  0  0  0  0
  129.0380  131.0250   56.7260 C   0  0  0  0  0  0  0  0  0  0  0  0
  129.9310  131.9080   56.1250 C   0  0  0  0  0  0  0  0  0  0  0  0
  131.2820  131.8960   56.4710 C   0  0  0  0  0  0  0  0  0  0  0  0
  132.0910  132.8080   55.8240 O   0  0  0  0  0  0  0  0  0  0  0  0
  133.4900  132.5590   55.7420 C   0  0  0  0  0  0  0  0  0  0  0  0
  131.7310  130.9820   57.4370 C   0  0  0  0  0  0  0  0  0  0  0  0
  130.8360  130.0990   58.0370 C   0  0  0  0  0  0  0  0  0  0  0  0
  128.2220  127.8770   57.8490 C   0  0  0  0  0  0  0  0  0  0  0  0
  128.8540  127.3680   56.6280 C   0  0  0  0  0  0  0  0  0  0  0  0
  129.3540  126.9670   55.6640 N   0  0  0  0  0  0  0  0  0  0  0  0
  129.7150  126.1890   62.0570 C   0  0  0  0  0  0  0  0  0  0  0  0
  130.8200  126.1980   62.9050 C   0  0  0  0  0  0  0  0  0  0  0  0
  1  2  1  0
  2  3  1  0
  3  4  1  0
  4  5  2  0
  4  6  1  0
  6  7  2  0
  7  8  1  0
  8  9  2  0
  9 10  1  0
 10 11  1  0
 11 12  2  0
 11 13  1  0
 13 14  1  0
 14 15  1  0
 15 16  2  0
 16 17  1  0
 17 18  1  0
 18 19  2  0
 19 20  1  0
 20 21  2  0
 21 22  1  0
 22 23  1  0
 21 24  1  0
 24 25  2  0
 17 26  2  0
 26 27  1  0
 27 28  1  0
 28 29  2  0
 29 30  1  0
 30 31  2  0
 31 32  1  0
 32 33  1  0
 31 34  1  0
 34 35  2  0
 27 36  2  0
 36 37  1  0
 37 38  3  0
  9 39  1  0
 39 40  2  0
 40  6  1  0
 36 15  1  0
 25 18  1  0
 35 28  1  0
M  END
>  <Binding energies>  (1) 
[-8.56]

>  <Ligand effiencies>  (1) 
[-0.20878048780487807]

>  <Interactions>  (1) 
["V-B:ASP:366:CG:8185, V-A:ARG:545:CZ:4924, V-A:GLY:453:CA:4042, V-B:GLU:543:CD:9880, H-B:ALA:541:N:9863, V-B:ARG:545:CZ:9898, V-A:PRO:540:N:4882, V-A:PRO:540:CB:4883, H-B:TYR:484:OH:9320, V-B:HIS:456:CE1:9042, V-A:PRO:540:CD:4885, V-A:ILE:538:CB:4860, V-A:PRO:540:CG:4884, V-A:ILE:538:CG2:4861, V-A:LEU:363:CD1:3187, V-A:TYR:531:CE2:4791, V-B:ARG:545:CG:9894, H-A:TYR:539:N:4868, H-B:ARG:545:NE:9896, H-A:TYR:484:OH:4346, V-B:ARG:545:CD:9895, H-A:GLY:454:N:4048, H-A:ARG:545:NE:4922, H-B:GLY:454:N:9022, V-A:ILE:369:CD1:3237, V-A:ILE:538:CD1:4863, V-A:GLY:454:CA:4047, V-A:GLY:453:C:4040"]

$$$$
1b_Ghoteimi_2023
     RDKit          3D

 34 37  0  0  0  0  0  0  0  0999 V2000
  133.1280  124.5620   58.0370 C   0  0  0  0  0  0  0  0  0  0  0  0
  132.6530  125.2890   56.9090 O   0  0  0  0  0  0  0  0  0  0  0  0
  131.4770  126.0050   57.0160 C   0  0  0  0  0  0  0  0  0  0  0  0
  131.2340  126.6300   58.2380 C   0  0  0  0  0  0  0  0  0  0  0  0
  130.0740  127.3720   58.4380 C   0  0  0  0  0  0  0  0  0  0  0  0
  129.1210  127.5150   57.4190 C   0  0  0  0  0  0  0  0  0  0  0  0
  127.8680  128.3160   57.6400 C   0  0  0  0  0  0  0  0  0  0  0  0
  127.3840  128.6370   58.9130 C   0  0  0  0  0  0  0  0  0  0  0  0
  126.2130  129.3900   59.0640 C   0  0  0  0  0  0  0  0  0  0  0  0
  125.7520  129.6910   60.4520 C   0  0  0  0  0  0  0  0  0  0  0  0
  126.2490  128.9590   61.5350 C   0  0  0  0  0  0  0  0  0  0  0  0
  125.8170  129.2300   62.8300 C   0  0  0  0  0  0  0  0  0  0  0  0
  124.8770  130.2330   63.0680 C   0  0  0  0  0  0  0  0  0  0  0  0
  124.5060  130.4310   64.3850 O   0  0  0  0  0  0  0  0  0  0  0  0
  125.1170  129.6460   65.4030 C   0  0  0  0  0  0  0  0  0  0  0  0
  124.3700  130.9650   61.9840 C   0  0  0  0  0  0  0  0  0  0  0  0
  124.8040  130.6910   60.6910 C   0  0  0  0  0  0  0  0  0  0  0  0
  125.5380  129.8280   57.8980 C   0  0  0  0  0  0  0  0  0  0  0  0
  124.3630  130.6990   58.0010 C   0  0  0  0  0  0  0  0  0  0  0  0
  123.4350  131.3860   58.0840 N   0  0  0  0  0  0  0  0  0  0  0  0
  126.0680  129.4520   56.6440 C   0  0  0  0  0  0  0  0  0  0  0  0
  125.3510  129.9040   55.0780 S   0  0  0  0  0  0  0  0  0  0  0  0
  126.6990  130.0180   53.8540 C   0  0  0  0  0  0  0  0  0  0  0  0
  127.8140  131.0130   54.2070 C   0  0  0  0  0  0  0  0  0  0  0  0
  127.9400  132.0660   53.5780 O   0  0  0  0  0  0  0  0  0  0  0  0
  128.6090  130.6300   55.2310 N   0  0  0  0  0  0  0  0  0  0  0  0
  129.6880  131.3250   55.7640 C   0  0  0  0  0  0  0  0  0  0  0  0
  130.5580  130.7750   56.7040 C   0  0  0  0  0  0  0  0  0  0  0  0
  131.4720  131.7690   56.9700 C   0  0  0  0  0  0  0  0  0  0  0  0
  131.1690  132.8600   56.2260 O   0  0  0  0  0  0  0  0  0  0  0  0
  130.0360  132.5660   55.4660 N   0  0  0  0  0  0  0  0  0  0  0  0
  127.2110  128.7340   56.5270 N   0  0  0  0  0  0  0  0  0  0  0  0
  129.3740  126.8810   56.1930 C   0  0  0  0  0  0  0  0  0  0  0  0
  130.5320  126.1360   55.9900 C   0  0  0  0  0  0  0  0  0  0  0  0
  1  2  1  0
  2  3  1  0
  3  4  2  0
  4  5  1  0
  5  6  2  0
  6  7  1  0
  7  8  2  0
  8  9  1  0
  9 10  1  0
 10 11  2  0
 11 12  1  0
 12 13  2  0
 13 14  1  0
 14 15  1  0
 13 16  1  0
 16 17  2  0
  9 18  2  0
 18 19  1  0
 19 20  3  0
 18 21  1  0
 21 22  1  0
 22 23  1  0
 23 24  1  0
 24 25  2  0
 24 26  1  0
 26 27  1  0
 27 28  1  0
 28 29  2  0
 29 30  1  0
 30 31  1  0
 21 32  2  0
  6 33  1  0
 33 34  2  0
 34  3  1  0
 32  7  1  0
 17 10  1  0
 31 27  2  0
M  END
>  <Binding energies>  (2) 
[-8.96]

>  <Ligand effiencies>  (2) 
[-0.256]

>  <Interactions>  (2) 
["V-B:ASP:366:CG:8185, V-B:TYR:539:CZ:9849, V-B:TYR:539:CE2:9848, V-B:ARG:545:CZ:9898, V-A:TYR:539:CE2:4874, V-A:ASP:366:CG:3211, V-A:TYR:539:CZ:4875, V-A:PRO:540:CA:4881, V-A:PRO:540:N:4882, V-A:TYR:539:CE1:4873, V-A:PRO:540:CB:4883, H-B:TYR:531:OH:9767, H-B:TYR:484:OH:9320, V-B:HIS:456:CE1:9042, V-A:PRO:540:CD:4885, V-B:ASP:366:CB:8184, V-B:ARG:545:CG:9894, H-A:TYR:539:N:4868, V-B:ASP:366:CA:8182, V-B:ARG:545:CD:9895, V-A:ASP:366:CB:3210, H-B:GLY:454:N:9022, H-A:TYR:539:OH:4876, V-B:MET:535:CE:9807, H-B:ASN:370:ND2:8220, H-B:TYR:539:OH:9850, V-A:ASP:366:CA:3208"]

$$$$
1c_Ghoteimi_2023
     RDKit          3D

 34 37  0  0  0  0  0  0  0  0999 V2000
  123.8860  133.3230   61.7880 C   0  0  0  0  0  0  0  0  0  0  0  0
  123.3740  132.7110   60.6090 O   0  0  0  0  0  0  0  0  0  0  0  0
  124.1940  131.8790   59.8690 C   0  0  0  0  0  0  0  0  0  0  0  0
  125.5360  131.8360   60.2370 C   0  0  0  0  0  0  0  0  0  0  0  0
  126.4330  131.0270   59.5460 C   0  0  0  0  0  0  0  0  0  0  0  0
  126.0150  130.2380   58.4630 C   0  0  0  0  0  0  0  0  0  0  0  0
  126.9810  129.3680   57.7120 C   0  0  0  0  0  0  0  0  0  0  0  0
  127.3540  128.0940   58.1550 C   0  0  0  0  0  0  0  0  0  0  0  0
  128.2380  127.3090   57.4050 C   0  0  0  0  0  0  0  0  0  0  0  0
  128.5400  125.9340   57.9030 C   0  0  0  0  0  0  0  0  0  0  0  0
  129.7120  125.6790   58.6220 C   0  0  0  0  0  0  0  0  0  0  0  0
  130.0020  124.3930   59.0670 C   0  0  0  0  0  0  0  0  0  0  0  0
  129.1310  123.3380   58.7980 C   0  0  0  0  0  0  0  0  0  0  0  0
  129.5000  122.0950   59.2780 O   0  0  0  0  0  0  0  0  0  0  0  0
  129.6000  121.8960   60.6840 C   0  0  0  0  0  0  0  0  0  0  0  0
  127.9570  123.5880   58.0710 C   0  0  0  0  0  0  0  0  0  0  0  0
  127.6690  124.8760   57.6270 C   0  0  0  0  0  0  0  0  0  0  0  0
  128.7660  127.8450   56.2080 C   0  0  0  0  0  0  0  0  0  0  0  0
  129.7230  127.0860   55.3950 C   0  0  0  0  0  0  0  0  0  0  0  0
  130.4770  126.4850   54.7550 N   0  0  0  0  0  0  0  0  0  0  0  0
  128.3340  129.1280   55.8110 C   0  0  0  0  0  0  0  0  0  0  0  0
  128.7830  129.8540   54.2490 S   0  0  0  0  0  0  0  0  0  0  0  0
  128.9180  131.6390   54.5870 C   0  0  0  0  0  0  0  0  0  0  0  0
  129.9110  131.9410   55.7150 C   0  0  0  0  0  0  0  0  0  0  0  0
  129.6620  132.8390   56.5200 O   0  0  0  0  0  0  0  0  0  0  0  0
  130.9960  131.1360   55.7580 N   0  0  0  0  0  0  0  0  0  0  0  0
  131.9580  131.0950   56.7540 C   0  0  0  0  0  0  0  0  0  0  0  0
  133.2660  131.1400   56.6170 N   0  0  0  0  0  0  0  0  0  0  0  0
  133.8750  131.1190   57.7870 C   0  0  0  0  0  0  0  0  0  0  0  0
  133.0530  131.0570   58.9080 C   0  0  0  0  0  0  0  0  0  0  0  0
  131.3930  131.0220   58.3920 S   0  0  0  0  0  0  0  0  0  0  0  0
  127.4600  129.8620   56.5400 N   0  0  0  0  0  0  0  0  0  0  0  0
  124.6600  130.2850   58.1060 C   0  0  0  0  0  0  0  0  0  0  0  0
  123.7590  131.0930   58.7930 C   0  0  0  0  0  0  0  0  0  0  0  0
  1  2  1  0
  2  3  1  0
  3  4  2  0
  4  5  1  0
  5  6  2  0
  6  7  1  0
  7  8  2  0
  8  9  1  0
  9 10  1  0
 10 11  2  0
 11 12  1  0
 12 13  2  0
 13 14  1  0
 14 15  1  0
 13 16  1  0
 16 17  2  0
  9 18  2  0
 18 19  1  0
 19 20  3  0
 18 21  1  0
 21 22  1  0
 22 23  1  0
 23 24  1  0
 24 25  2  0
 24 26  1  0
 26 27  1  0
 27 28  2  0
 28 29  1  0
 29 30  2  0
 30 31  1  0
 21 32  2  0
  6 33  1  0
 33 34  2  0
 34  3  1  0
 32  7  1  0
 17 10  1  0
 31 27  1  0
M  END
>  <Binding energies>  (3) 
[-7.78]

>  <Ligand effiencies>  (3) 
[-0.22228571428571428]

>  <Interactions>  (3) 
["V-B:ALA:541:CB:9864, V-B:ASP:366:CG:8185, V-B:TYR:539:CD2:9846, V-B:TYR:539:CE2:9848, V-A:TYR:539:CE2:4874, V-A:ASP:366:CG:3211, V-A:TYR:539:CZ:4875, V-A:PRO:540:CA:4881, V-A:TYR:539:CD1:4871, V-B:LEU:475:CD2:9231, V-A:TYR:539:CE1:4873, V-B:ILE:369:CG2:8209, V-A:PRO:540:CB:4883, V-B:TYR:539:C:9839, V-A:LEU:363:CA:3183, V-A:LEU:363:CB:3185, V-B:ASP:366:CB:8184, H-A:TYR:539:N:4868, V-B:ASP:366:CA:8182, V-B:ILE:369:CD1:8211, V-A:ASP:366:CB:3210, H-A:TYR:531:OH:4793, V-A:ILE:538:CA:4858, V-A:TYR:531:CZ:4792"]

$$$$
1d_Ghoteimi_2023
     RDKit          3D

 30 32  0  0  0  0  0  0  0  0999 V2000
  124.1050  124.2970   57.5470 C   0  0  0  0  0  0  0  0  0  0  0  0
  124.6310  123.1770   56.8510 O   0  0  0  0  0  0  0  0  0  0  0  0
  125.9250  123.1540   56.4690 C   0  0  0  0  0  0  0  0  0  0  0  0
  126.3540  122.8000   55.3700 O   0  0  0  0  0  0  0  0  0  0  0  0
  126.8650  123.6240   57.5760 C   0  0  0  0  0  0  0  0  0  0  0  0
  128.5510  123.6270   56.8970 S   0  0  0  0  0  0  0  0  0  0  0  0
  129.5000  124.7780   57.8660 C   0  0  0  0  0  0  0  0  0  0  0  0
  129.5420  126.0270   57.3430 N   0  0  0  0  0  0  0  0  0  0  0  0
  130.2360  127.0050   57.9790 C   0  0  0  0  0  0  0  0  0  0  0  0
  130.2260  128.3620   57.3360 C   0  0  0  0  0  0  0  0  0  0  0  0
  130.8430  129.4640   57.9510 C   0  0  0  0  0  0  0  0  0  0  0  0
  130.8280  130.7220   57.3560 C   0  0  0  0  0  0  0  0  0  0  0  0
  130.1950  130.9200   56.1310 C   0  0  0  0  0  0  0  0  0  0  0  0
  130.2270  132.2020   55.6180 O   0  0  0  0  0  0  0  0  0  0  0  0
  129.3740  132.5340   54.5280 C   0  0  0  0  0  0  0  0  0  0  0  0
  129.5750  129.8300   55.5050 C   0  0  0  0  0  0  0  0  0  0  0  0
  129.5930  128.5730   56.1020 C   0  0  0  0  0  0  0  0  0  0  0  0
  130.9030  126.7400   59.1800 C   0  0  0  0  0  0  0  0  0  0  0  0
  130.8900  125.4540   59.7360 C   0  0  0  0  0  0  0  0  0  0  0  0
  131.6300  125.2390   61.0170 C   0  0  0  0  0  0  0  0  0  0  0  0
  131.0720  125.6540   62.2300 C   0  0  0  0  0  0  0  0  0  0  0  0
  131.7560  125.4560   63.4270 C   0  0  0  0  0  0  0  0  0  0  0  0
  133.0050  124.8370   63.4360 C   0  0  0  0  0  0  0  0  0  0  0  0
  133.6120  124.6890   64.6680 O   0  0  0  0  0  0  0  0  0  0  0  0
  133.1130  125.4220   65.7820 C   0  0  0  0  0  0  0  0  0  0  0  0
  133.5630  124.4070   62.2220 C   0  0  0  0  0  0  0  0  0  0  0  0
  132.8770  124.6050   61.0270 C   0  0  0  0  0  0  0  0  0  0  0  0
  130.1860  124.4320   59.0520 C   0  0  0  0  0  0  0  0  0  0  0  0
  130.2250  123.0470   59.5330 C   0  0  0  0  0  0  0  0  0  0  0  0
  130.2560  121.9550   59.9120 N   0  0  0  0  0  0  0  0  0  0  0  0
  1  2  1  0
  2  3  1  0
  3  4  2  0
  3  5  1  0
  5  6  1  0
  6  7  1  0
  7  8  2  0
  8  9  1  0
  9 10  1  0
 10 11  2  0
 11 12  1  0
 12 13  2  0
 13 14  1  0
 14 15  1  0
 13 16  1  0
 16 17  2  0
  9 18  2  0
 18 19  1  0
 19 20  1  0
 20 21  2  0
 21 22  1  0
 22 23  2  0
 23 24  1  0
 24 25  1  0
 23 26  1  0
 26 27  2  0
 19 28  2  0
 28 29  1  0
 29 30  3  0
 28  7  1  0
 17 10  1  0
 27 20  1  0
M  END
>  <Binding energies>  (4) 
[-7.57]

>  <Ligand effiencies>  (4) 
[-0.25233333333333335]

>  <Interactions>  (4) 
["V-A:HIS:456:CE1:4068, V-A:ARG:545:CZ:4924, V-B:TYR:539:CD2:9846, V-B:PRO:540:CA:9855, V-B:TYR:539:CE2:9848, V-A:ASP:366:CG:3211, V-A:TYR:539:CD1:4871, V-A:TYR:539:CE1:4873, V-B:PRO:540:CB:9857, V-B:PRO:540:CD:9859, V-B:PRO:540:N:9856, V-B:TYR:539:C:9839, H-B:TYR:539:N:9842, V-A:ILE:538:CB:4860, H-A:TYR:539:N:4868, H-A:TYR:484:OH:4346, V-A:ARG:545:CD:4921, H-A:GLY:454:N:4048, V-A:ARG:545:CG:4920, H-A:ARG:545:NE:4922, V-B:TYR:531:CE2:9765, V-A:ILE:538:CA:4858, V-B:TYR:531:CZ:9766, V-A:ILE:538:C:4856"]

$$$$
1j_Grossjean_2025
     RDKit          3D

 20 21  0  0  0  0  0  0  0  0999 V2000
  129.7420  122.0580   73.7870 C   0  0  0  0  0  0  0  0  0  0  0  0
  130.7510  123.1820   73.9290 C   0  0  0  0  0  0  0  0  0  0  0  0
  131.9040  123.0350   74.6980 C   0  0  0  0  0  0  0  0  0  0  0  0
  132.8040  124.1010   74.7830 C   0  0  0  0  0  0  0  0  0  0  0  0
  134.0700  123.9090   75.6180 C   0  0  0  0  0  0  0  0  0  0  0  0
  132.5210  125.3020   74.0950 C   0  0  0  0  0  0  0  0  0  0  0  0
  133.4760  126.4120   74.1270 C   0  0  0  0  0  0  0  0  0  0  0  0
  134.2330  127.2870   74.1530 N   0  0  0  0  0  0  0  0  0  0  0  0
  131.3140  125.3720   73.3590 C   0  0  0  0  0  0  0  0  0  0  0  0
  130.7970  126.8040   72.4370 S   0  0  0  0  0  0  0  0  0  0  0  0
  128.9820  126.7790   72.3500 C   0  0  0  0  0  0  0  0  0  0  0  0
  128.3600  128.0220   72.9900 C   0  0  0  0  0  0  0  0  0  0  0  0
  128.9620  129.0950   72.9360 O   0  0  0  0  0  0  0  0  0  0  0  0
  127.1580  127.8340   73.5780 N   0  0  0  0  0  0  0  0  0  0  0  0
  126.3960  128.7940   74.2290 C   0  0  0  0  0  0  0  0  0  0  0  0
  126.7940  129.9560   74.7030 N   0  0  0  0  0  0  0  0  0  0  0  0
  125.7990  130.6160   75.2610 C   0  0  0  0  0  0  0  0  0  0  0  0
  124.5570  129.9880   75.2470 C   0  0  0  0  0  0  0  0  0  0  0  0
  124.7120  128.4490   74.4550 S   0  0  0  0  0  0  0  0  0  0  0  0
  130.4570  124.3250   73.2660 N   0  0  0  0  0  0  0  0  0  0  0  0
  1  2  1  0
  2  3  2  0
  3  4  1  0
  4  5  1  0
  4  6  2  0
  6  7  1  0
  7  8  3  0
  6  9  1  0
  9 10  1  0
 10 11  1  0
 11 12  1  0
 12 13  2  0
 12 14  1  0
 14 15  1  0
 15 16  2  0
 16 17  1  0
 17 18  2  0
 18 19  1  0
  9 20  2  0
 20  2  1  0
 19 15  1  0
M  END
>  <Binding energies>  (5) 
[-8.1]

>  <Ligand effiencies>  (5) 
[-0.3857142857142857]

>  <Interactions>  (5) 
["V-A:HIS:456:CB:4063, V-A:HIS:456:CG:4064, V-B:HIS:456:C:9033, V-A:LYS:547:CD:4947, H-A:LYS:547:NZ:4949, V-B:LYS:471:CE:9192, H-B:LYS:547:NZ:9923, V-B:HIS:456:CA:9035, V-A:VAL:458:CG2:4085, V-A:HIS:456:CD2:4066, V-A:LYS:471:CE:4218, V-B:HIS:456:CG:9038, V-B:VAL:457:C:9045, V-B:LYS:547:CD:9921, V-B:VAL:458:CG2:9059, V-B:LYS:547:CE:9922, V-A:HIS:456:C:4059, V-A:LYS:547:CE:4948, V-A:LYS:471:CD:4217, V-A:LYS:471:CG:4216, V-A:ASP:473:CG:4238, V-B:HIS:456:CB:9037, V-B:GLY:544:C:9884, H-B:GLY:544:O:9885"]

$$$$
1o_Grossjean_2025
     RDKit          3D

 26 27  0  0  0  0  0  0  0  0999 V2000
  132.2840  132.1250   56.1890 C   0  0  0  0  0  0  0  0  0  0  0  0
  131.0600  132.5440   55.6030 O   0  0  0  0  0  0  0  0  0  0  0  0
  129.8670  132.1560   56.1230 C   0  0  0  0  0  0  0  0  0  0  0  0
  129.1690  132.8800   56.8390 O   0  0  0  0  0  0  0  0  0  0  0  0
  129.4780  130.7570   55.7380 C   0  0  0  0  0  0  0  0  0  0  0  0
  128.5640  130.4980   54.7070 C   0  0  0  0  0  0  0  0  0  0  0  0
  128.2270  129.1890   54.3730 C   0  0  0  0  0  0  0  0  0  0  0  0
  128.7890  128.1150   55.0640 C   0  0  0  0  0  0  0  0  0  0  0  0
  128.3850  126.8340   54.6390 N   0  0  0  0  0  0  0  0  0  0  0  0
  129.1300  125.7770   54.2460 C   0  0  0  0  0  0  0  0  0  0  0  0
  130.3610  125.7420   54.2350 O   0  0  0  0  0  0  0  0  0  0  0  0
  128.3390  124.5340   53.8160 C   0  0  0  0  0  0  0  0  0  0  0  0
  128.0920  123.5380   54.9680 C   0  0  0  0  0  0  0  0  0  0  0  0
  126.4010  123.5820   55.6310 S   0  0  0  0  0  0  0  0  0  0  0  0
  126.4930  123.6170   57.4100 C   0  0  0  0  0  0  0  0  0  0  0  0
  127.7160  123.2840   57.8940 N   0  0  0  0  0  0  0  0  0  0  0  0
  127.9090  123.2840   59.2340 C   0  0  0  0  0  0  0  0  0  0  0  0
  129.3050  122.9150   59.6990 C   0  0  0  0  0  0  0  0  0  0  0  0
  126.8980  123.6010   60.1380 C   0  0  0  0  0  0  0  0  0  0  0  0
  125.6260  123.9210   59.6510 C   0  0  0  0  0  0  0  0  0  0  0  0
  124.5310  124.2510   60.6640 C   0  0  0  0  0  0  0  0  0  0  0  0
  125.4000  123.9230   58.2560 C   0  0  0  0  0  0  0  0  0  0  0  0
  124.0600  124.1980   57.7310 C   0  0  0  0  0  0  0  0  0  0  0  0
  123.0020  124.4160   57.3180 N   0  0  0  0  0  0  0  0  0  0  0  0
  129.7080  128.3670   56.0940 C   0  0  0  0  0  0  0  0  0  0  0  0
  130.0450  129.6760   56.4250 C   0  0  0  0  0  0  0  0  0  0  0  0
  1  2  1  0
  2  3  1  0
  3  4  2  0
  3  5  1  0
  5  6  2  0
  6  7  1  0
  7  8  2  0
  8  9  1  0
  9 10  1  0
 10 11  2  0
 10 12  1  0
 12 13  1  0
 13 14  1  0
 14 15  1  0
 15 16  2  0
 16 17  1  0
 17 18  1  0
 17 19  2  0
 19 20  1  0
 20 21  1  0
 20 22  2  0
 22 23  1  0
 23 24  3  0
  8 25  1  0
 25 26  2  0
 26  5  1  0
 22 15  1  0
M  END
>  <Binding energies>  (6) 
[-8.52]

>  <Ligand effiencies>  (6) 
[-0.31555555555555553]

>  <Interactions>  (6) 
["V-B:ASP:366:CG:8185, V-B:TYR:539:CD2:9846, V-B:PRO:540:CA:9855, V-B:TYR:539:CE2:9848, V-A:PRO:540:CA:4881, V-A:PRO:540:N:4882, V-A:TYR:539:C:4865, V-A:PRO:540:CB:4883, V-B:PRO:540:CB:9857, V-B:PRO:540:N:9856, V-B:TYR:539:C:9839, V-B:TYR:539:CE1:9847, V-B:TYR:539:CD1:9845, H-B:TYR:531:OH:9767, H-B:TYR:539:N:9842, V-B:ASN:362:CB:8148, V-A:PRO:540:CD:4885, V-A:ILE:538:CB:4860, V-A:ILE:538:CG2:4861, H-A:TYR:539:N:4868, V-B:LEU:363:CA:8157, V-B:TYR:531:CE2:9765, V-B:PRO:540:C:9853, V-A:MET:535:CE:4833, H-B:MET:535:SD:9806"]

$$$$
1p_Grossjean_2025
     RDKit          3D

 21 22  0  0  0  0  0  0  0  0999 V2000
  125.4520  123.9490   62.1300 C   0  0  0  0  0  0  0  0  0  0  0  0
  125.6410  123.8210   60.6300 C   0  0  0  0  0  0  0  0  0  0  0  0
  124.5980  124.0740   59.7400 C   0  0  0  0  0  0  0  0  0  0  0  0
  124.8260  123.9280   58.3670 C   0  0  0  0  0  0  0  0  0  0  0  0
  123.6650  124.1960   57.4120 C   0  0  0  0  0  0  0  0  0  0  0  0
  126.1070  123.5370   57.9170 C   0  0  0  0  0  0  0  0  0  0  0  0
  126.3560  123.3300   56.4900 C   0  0  0  0  0  0  0  0  0  0  0  0
  126.5530  123.1680   55.3600 N   0  0  0  0  0  0  0  0  0  0  0  0
  127.1120  123.3230   58.8900 C   0  0  0  0  0  0  0  0  0  0  0  0
  128.7770  122.8380   58.4960 S   0  0  0  0  0  0  0  0  0  0  0  0
  129.8630  123.6610   59.6960 C   0  0  0  0  0  0  0  0  0  0  0  0
  129.8410  123.0190   61.0970 C   0  0  0  0  0  0  0  0  0  0  0  0
  131.1010  123.3110   61.9260 C   0  0  0  0  0  0  0  0  0  0  0  0
  132.1850  122.8470   61.5670 O   0  0  0  0  0  0  0  0  0  0  0  0
  130.9160  124.0910   63.0140 N   0  0  0  0  0  0  0  0  0  0  0  0
  131.8800  124.5040   63.9250 C   0  0  0  0  0  0  0  0  0  0  0  0
  131.5770  125.2250   65.0800 C   0  0  0  0  0  0  0  0  0  0  0  0
  132.7880  125.4330   65.7010 C   0  0  0  0  0  0  0  0  0  0  0  0
  133.7690  124.8690   64.9580 O   0  0  0  0  0  0  0  0  0  0  0  0
  133.1810  124.2840   63.8340 N   0  0  0  0  0  0  0  0  0  0  0  0
  126.8760  123.4470   60.2210 N   0  0  0  0  0  0  0  0  0  0  0  0
  1  2  1  0
  2  3  2  0
  3  4  1  0
  4  5  1  0
  4  6  2  0
  6  7  1  0
  7  8  3  0
  6  9  1  0
  9 10  1  0
 10 11  1  0
 11 12  1  0
 12 13  1  0
 13 14  2  0
 13 15  1  0
 15 16  1  0
 16 17  1  0
 17 18  2  0
 18 19  1  0
 19 20  1  0
  9 21  2  0
 21  2  1  0
 20 16  2  0
M  END
>  <Binding energies>  (7) 
[-8.24]

>  <Ligand effiencies>  (7) 
[-0.37454545454545457]

>  <Interactions>  (7) 
["V-B:ALA:541:CB:9864, V-B:ASP:366:CG:8185, V-A:HIS:456:CE1:4068, H-B:GLU:543:OE1:9881, V-A:ARG:545:CZ:4924, V-B:GLU:543:CD:9880, V-B:PRO:540:CA:9855, H-B:ALA:541:N:9863, V-B:ARG:545:CZ:9898, V-B:PRO:540:CB:9857, V-B:PRO:540:N:9856, V-B:TYR:539:C:9839, H-B:TYR:539:N:9842, V-B:ASN:362:CB:8148, H-A:TYR:484:OH:4346, V-A:ARG:545:CD:4921, H-A:GLY:454:N:4048, V-A:ARG:545:CG:4920, H-A:ARG:545:NE:4922, V-B:LEU:363:CA:8157, V-B:LEU:363:CD1:8161, V-B:TYR:531:CE2:9765, V-B:TYR:531:CZ:9766, V-B:PRO:540:C:9853, V-B:ALA:541:C:9860"]

$$$$
2a_Ghoteimi_2023
     RDKit          3D

 48 53  0  0  0  0  0  0  0  0999 V2000
  130.5100  131.2660   54.6770 C   0  0  0  0  0  0  0  0  0  0  0  0
  129.5680  132.0710   55.5760 C   0  0  0  0  0  0  0  0  0  0  0  0
  130.2860  132.5450   56.7080 O   0  0  0  0  0  0  0  0  0  0  0  0
  130.4370  131.7760   57.8160 C   0  0  0  0  0  0  0  0  0  0  0  0
  131.4500  131.1070   58.0460 O   0  0  0  0  0  0  0  0  0  0  0  0
  129.2530  131.8250   58.7380 C   0  0  0  0  0  0  0  0  0  0  0  0
  129.3490  132.3230   60.0460 C   0  0  0  0  0  0  0  0  0  0  0  0
  128.2320  132.3560   60.8740 C   0  0  0  0  0  0  0  0  0  0  0  0
  126.9960  131.8970   60.4150 C   0  0  0  0  0  0  0  0  0  0  0  0
  125.9350  131.9730   61.3370 N   0  0  0  0  0  0  0  0  0  0  0  0
  124.6740  132.4300   61.1710 C   0  0  0  0  0  0  0  0  0  0  0  0
  124.2320  132.9280   60.1350 O   0  0  0  0  0  0  0  0  0  0  0  0
  123.7770  132.3330   62.4110 C   0  0  0  0  0  0  0  0  0  0  0  0
  123.3080  130.6330   62.8720 S   0  0  0  0  0  0  0  0  0  0  0  0
  124.8300  129.8100   63.2800 C   0  0  0  0  0  0  0  0  0  0  0  0
  125.5740  129.4670   62.2030 N   0  0  0  0  0  0  0  0  0  0  0  0
  126.7540  128.8240   62.3840 C   0  0  0  0  0  0  0  0  0  0  0  0
  127.5170  128.4680   61.1490 C   0  0  0  0  0  0  0  0  0  0  0  0
  126.8570  128.0880   59.9730 C   0  0  0  0  0  0  0  0  0  0  0  0
  127.5730  127.7460   58.8300 C   0  0  0  0  0  0  0  0  0  0  0  0
  128.9740  127.7790   58.8140 C   0  0  0  0  0  0  0  0  0  0  0  0
  129.6800  127.4040   57.6660 N   0  0  0  0  0  0  0  0  0  0  0  0
  129.0750  127.5020   56.3230 C   0  0  0  0  0  0  0  0  0  0  0  0
  130.0950  127.3980   55.1700 C   0  0  0  0  0  0  0  0  0  0  0  0
  130.8550  126.2070   55.2990 O   0  0  0  0  0  0  0  0  0  0  0  0
  131.5770  126.1830   56.5200 C   0  0  0  0  0  0  0  0  0  0  0  0
  130.6030  126.2500   57.7150 C   0  0  0  0  0  0  0  0  0  0  0  0
  129.6310  128.1490   59.9990 C   0  0  0  0  0  0  0  0  0  0  0  0
  128.9160  128.4930   61.1420 C   0  0  0  0  0  0  0  0  0  0  0  0
  127.2230  128.5210   63.6660 C   0  0  0  0  0  0  0  0  0  0  0  0
  126.4700  128.8670   64.7970 C   0  0  0  0  0  0  0  0  0  0  0  0
  127.0270  128.5080   66.1360 C   0  0  0  0  0  0  0  0  0  0  0  0
  128.2380  129.0580   66.5640 C   0  0  0  0  0  0  0  0  0  0  0  0
  128.7740  128.7150   67.8010 C   0  0  0  0  0  0  0  0  0  0  0  0
  128.1150  127.8130   68.6500 C   0  0  0  0  0  0  0  0  0  0  0  0
  128.6450  127.4410   69.8880 N   0  0  0  0  0  0  0  0  0  0  0  0
  128.0050  127.9300   71.1260 C   0  0  0  0  0  0  0  0  0  0  0  0
  128.4350  127.1470   72.3850 C   0  0  0  0  0  0  0  0  0  0  0  0
  129.8490  127.1630   72.5080 O   0  0  0  0  0  0  0  0  0  0  0  0
  130.4810  126.5680   71.3860 C   0  0  0  0  0  0  0  0  0  0  0  0
  130.1020  127.3320   70.1000 C   0  0  0  0  0  0  0  0  0  0  0  0
  126.9060  127.2570   68.2080 C   0  0  0  0  0  0  0  0  0  0  0  0
  126.3700  127.5980   66.9700 C   0  0  0  0  0  0  0  0  0  0  0  0
  125.2370  129.5370   64.6050 C   0  0  0  0  0  0  0  0  0  0  0  0
  124.4320  129.9740   65.7510 C   0  0  0  0  0  0  0  0  0  0  0  0
  123.7980  130.3160   66.6560 N   0  0  0  0  0  0  0  0  0  0  0  0
  126.8930  131.3900   59.1110 C   0  0  0  0  0  0  0  0  0  0  0  0
  128.0120  131.3590   58.2830 C   0  0  0  0  0  0  0  0  0  0  0  0
  1  2  1  0
  2  3  1  0
  3  4  1  0
  4  5  2  0
  4  6  1  0
  6  7  2  0
  7  8  1  0
  8  9  2  0
  9 10  1  0
 10 11  1  0
 11 12  2  0
 11 13  1  0
 13 14  1  0
 14 15  1  0
 15 16  2  0
 16 17  1  0
 17 18  1  0
 18 19  2  0
 19 20  1  0
 20 21  2  0
 21 22  1  0
 22 23  1  0
 23 24  1  0
 24 25  1  0
 25 26  1  0
 26 27  1  0
 21 28  1  0
 28 29  2  0
 17 30  2  0
 30 31  1  0
 31 32  1  0
 32 33  2  0
 33 34  1  0
 34 35  2  0
 35 36  1  0
 36 37  1  0
 37 38  1  0
 38 39  1  0
 39 40  1  0
 40 41  1  0
 35 42  1  0
 42 43  2  0
 31 44  2  0
 44 45  1  0
 45 46  3  0
  9 47  1  0
 47 48  2  0
 48  6  1  0
 44 15  1  0
 29 18  1  0
 43 32  1  0
 27 22  1  0
 41 36  1  0
M  END
>  <Binding energies>  (8) 
[-8.59]

>  <Ligand effiencies>  (8) 
[-0.17530612244897958]

>  <Interactions>  (8) 
["H-B:ARG:545:NH2:9900, V-B:ASP:366:CG:8185, V-A:HIS:456:CE1:4068, V-B:GLU:543:CD:9880, V-B:ARG:545:CZ:9898, V-A:TYR:539:CD2:4872, V-A:TYR:539:CE2:4874, V-A:GLU:543:CD:4906, V-A:PRO:540:CA:4881, V-A:ALA:541:CB:4890, V-A:TYR:539:CD1:4871, V-A:PRO:540:N:4882, V-A:TYR:539:CE1:4873, V-A:TYR:539:C:4865, V-B:HIS:456:CD2:9040, V-A:GLY:544:C:4910, V-A:HIS:456:CG:4064, V-A:HIS:456:CD2:4066, V-B:HIS:456:CG:9038, V-B:LYS:547:CE:9922, H-B:HIS:456:ND1:9039, V-B:GLY:544:C:9884, V-B:GLY:544:CA:9886, V-B:GLU:543:C:9874, H-B:TYR:484:OH:9320, V-B:HIS:456:CE1:9042, V-A:GLU:543:CB:4904, V-B:TYR:484:CZ:9319, V-A:ILE:538:CB:4860, V-A:ILE:538:CG2:4861, V-B:ARG:545:CG:9894, H-A:TYR:539:N:4868, V-A:GLU:543:C:4900, V-A:GLU:543:CG:4905, V-B:GLU:543:CG:9879, V-B:ILE:369:CD1:8211, V-B:ARG:545:CD:9895, V-A:ASP:366:CB:3210, H-A:TYR:531:OH:4793, H-B:GLY:454:N:9022, V-A:MET:535:CG:4831, V-A:ILE:538:CA:4858, V-A:TYR:531:CZ:4792, V-A:PRO:540:C:4879, V-B:GLY:454:CA:9021, V-A:GLU:543:CA:4902, V-A:TYR:531:CE1:4790, H-B:ILE:455:N:9027"]

$$$$
2aa_Ghoteimi_2023
     RDKit          3D

 48 53  0  0  0  0  0  0  0  0999 V2000
  132.5410  131.9320   56.1000 C   0  0  0  0  0  0  0  0  0  0  0  0
  131.6410  131.0950   57.0160 C   0  0  0  0  0  0  0  0  0  0  0  0
  130.6420  131.9300   57.5850 O   0  0  0  0  0  0  0  0  0  0  0  0
  129.4580  132.1390   56.9530 C   0  0  0  0  0  0  0  0  0  0  0  0
  129.3700  132.5650   55.7960 O   0  0  0  0  0  0  0  0  0  0  0  0
  128.2650  131.7850   57.7940 C   0  0  0  0  0  0  0  0  0  0  0  0
  128.1350  132.2310   59.1180 C   0  0  0  0  0  0  0  0  0  0  0  0
  127.0160  131.8900   59.8720 C   0  0  0  0  0  0  0  0  0  0  0  0
  126.0100  131.0910   59.3230 C   0  0  0  0  0  0  0  0  0  0  0  0
  124.9220  130.8100   60.1730 N   0  0  0  0  0  0  0  0  0  0  0  0
  124.3670  131.5650   61.1450 C   0  0  0  0  0  0  0  0  0  0  0  0
  124.7250  132.7040   61.4500 O   0  0  0  0  0  0  0  0  0  0  0  0
  123.1890  130.9020   61.8730 C   0  0  0  0  0  0  0  0  0  0  0  0
  123.5930  130.5140   63.1900 O   0  0  0  0  0  0  0  0  0  0  0  0
  124.8040  129.8630   63.3840 C   0  0  0  0  0  0  0  0  0  0  0  0
  125.5280  129.5160   62.2830 N   0  0  0  0  0  0  0  0  0  0  0  0
  126.7170  128.8820   62.4370 C   0  0  0  0  0  0  0  0  0  0  0  0
  127.4540  128.5290   61.1830 C   0  0  0  0  0  0  0  0  0  0  0  0
  126.7940  127.9080   60.1180 C   0  0  0  0  0  0  0  0  0  0  0  0
  127.4730  127.5830   58.9460 C   0  0  0  0  0  0  0  0  0  0  0  0
  128.8370  127.8790   58.7920 C   0  0  0  0  0  0  0  0  0  0  0  0
  129.5370  127.5480   57.6270 N   0  0  0  0  0  0  0  0  0  0  0  0
  130.2800  126.2760   57.5100 C   0  0  0  0  0  0  0  0  0  0  0  0
  131.2670  126.2380   56.3240 C   0  0  0  0  0  0  0  0  0  0  0  0
  130.5870  126.5400   55.1170 O   0  0  0  0  0  0  0  0  0  0  0  0
  130.0080  127.8360   55.1570 C   0  0  0  0  0  0  0  0  0  0  0  0
  128.9830  127.9210   56.3090 C   0  0  0  0  0  0  0  0  0  0  0  0
  129.4990  128.4820   59.8710 C   0  0  0  0  0  0  0  0  0  0  0  0
  128.8190  128.8040   61.0430 C   0  0  0  0  0  0  0  0  0  0  0  0
  127.2070  128.5620   63.7070 C   0  0  0  0  0  0  0  0  0  0  0  0
  126.4770  128.8970   64.8540 C   0  0  0  0  0  0  0  0  0  0  0  0
  127.0390  128.5060   66.1830 C   0  0  0  0  0  0  0  0  0  0  0  0
  128.2560  129.0370   66.6170 C   0  0  0  0  0  0  0  0  0  0  0  0
  128.7950  128.6620   67.8450 C   0  0  0  0  0  0  0  0  0  0  0  0
  128.1380  127.7340   68.6680 C   0  0  0  0  0  0  0  0  0  0  0  0
  128.6590  127.3450   69.9060 N   0  0  0  0  0  0  0  0  0  0  0  0
  128.0200  127.7550   71.1710 C   0  0  0  0  0  0  0  0  0  0  0  0
  128.5120  126.9540   72.3950 C   0  0  0  0  0  0  0  0  0  0  0  0
  129.9260  127.0370   72.4920 O   0  0  0  0  0  0  0  0  0  0  0  0
  130.5610  126.5090   71.3380 C   0  0  0  0  0  0  0  0  0  0  0  0
  130.1240  127.2980   70.0870 C   0  0  0  0  0  0  0  0  0  0  0  0
  126.9140  127.2120   68.2270 C   0  0  0  0  0  0  0  0  0  0  0  0
  126.3750  127.5870   67.0000 C   0  0  0  0  0  0  0  0  0  0  0  0
  125.2490  129.5790   64.6870 C   0  0  0  0  0  0  0  0  0  0  0  0
  124.4430  130.0120   65.8310 C   0  0  0  0  0  0  0  0  0  0  0  0
  123.8070  130.3550   66.7350 N   0  0  0  0  0  0  0  0  0  0  0  0
  126.1300  130.6480   57.9990 C   0  0  0  0  0  0  0  0  0  0  0  0
  127.2490  130.9930   57.2460 C   0  0  0  0  0  0  0  0  0  0  0  0
  1  2  1  0
  2  3  1  0
  3  4  1  0
  4  5  2  0
  4  6  1  0
  6  7  2  0
  7  8  1  0
  8  9  2  0
  9 10  1  0
 10 11  1  0
 11 12  2  0
 11 13  1  0
 13 14  1  0
 14 15  1  0
 15 16  2  0
 16 17  1  0
 17 18  1  0
 18 19  2  0
 19 20  1  0
 20 21  2  0
 21 22  1  0
 22 23  1  0
 23 24  1  0
 24 25  1  0
 25 26  1  0
 26 27  1  0
 21 28  1  0
 28 29  2  0
 17 30  2  0
 30 31  1  0
 31 32  1  0
 32 33  2  0
 33 34  1  0
 34 35  2  0
 35 36  1  0
 36 37  1  0
 37 38  1  0
 38 39  1  0
 39 40  1  0
 40 41  1  0
 35 42  1  0
 42 43  2  0
 31 44  2  0
 44 45  1  0
 45 46  3  0
  9 47  1  0
 47 48  2  0
 48  6  1  0
 44 15  1  0
 29 18  1  0
 43 32  1  0
 27 22  1  0
 41 36  1  0
M  END
>  <Binding energies>  (9) 
[-8.33]

>  <Ligand effiencies>  (9) 
[-0.17]

>  <Interactions>  (9) 
["H-B:ARG:545:NH2:9900, V-B:ASP:366:CG:8185, V-A:HIS:456:CE1:4068, H-B:ASP:366:OD2:8187, V-B:GLU:543:CD:9880, V-B:ARG:545:CZ:9898, V-A:TYR:539:CD2:4872, V-A:TYR:539:CE2:4874, V-A:GLU:543:CD:4906, V-A:TYR:539:CZ:4875, V-A:PRO:540:N:4882, V-A:TYR:539:CG:4870, V-A:TYR:539:CE1:4873, V-A:TYR:539:C:4865, V-A:PRO:540:CB:4883, V-B:HIS:456:CD2:9040, V-A:GLY:544:C:4910, V-A:HIS:456:CG:4064, V-A:HIS:456:CD2:4066, V-B:LYS:547:CE:9922, H-B:HIS:456:ND1:9039, V-B:GLY:544:C:9884, V-B:GLY:544:CA:9886, V-B:GLU:543:C:9874, H-B:TYR:484:OH:9320, V-B:HIS:456:CE1:9042, V-A:GLU:543:CB:4904, V-B:TYR:484:CZ:9319, V-A:PRO:540:CD:4885, V-A:ILE:538:CB:4860, V-A:ILE:538:CG2:4861, V-A:TYR:531:CE2:4791, V-B:ARG:545:CG:9894, H-A:TYR:539:N:4868, V-A:GLU:543:C:4900, V-A:GLU:543:CG:4905, V-B:GLU:543:CG:9879, V-B:ILE:369:CD1:8211, V-B:ARG:545:CD:9895, H-A:TYR:531:OH:4793, H-B:GLY:454:N:9022, H-B:ASP:366:OD1:8186, V-A:TYR:531:CZ:4792, H-B:ARG:545:NH1:9899, V-A:GLU:543:CA:4902, V-B:GLY:453:C:9014, V-B:GLY:453:CA:9016, V-A:TYR:531:CE1:4790, H-B:ILE:455:N:9027"]

$$$$
2b_Ghoteimi_2023
     RDKit          3D

 42 47  0  0  0  0  0  0  0  0999 V2000
  123.4310  129.5510   66.4850 N   0  0  0  0  0  0  0  0  0  0  0  0
  124.2180  129.6660   65.6440 C   0  0  0  0  0  0  0  0  0  0  0  0
  125.2190  129.8080   64.5830 C   0  0  0  0  0  0  0  0  0  0  0  0
  126.5640  129.4180   64.8040 C   0  0  0  0  0  0  0  0  0  0  0  0
  127.0620  128.8480   66.0910 C   0  0  0  0  0  0  0  0  0  0  0  0
  126.3370  127.8520   66.7480 C   0  0  0  0  0  0  0  0  0  0  0  0
  126.7960  127.3180   67.9480 C   0  0  0  0  0  0  0  0  0  0  0  0
  127.9850  127.7780   68.5350 C   0  0  0  0  0  0  0  0  0  0  0  0
  128.4720  127.2490   69.7310 N   0  0  0  0  0  0  0  0  0  0  0  0
  129.9320  127.1820   69.9460 C   0  0  0  0  0  0  0  0  0  0  0  0
  130.3370  126.2500   71.1080 C   0  0  0  0  0  0  0  0  0  0  0  0
  129.6620  126.6300   72.2970 O   0  0  0  0  0  0  0  0  0  0  0  0
  128.2520  126.5580   72.1470 C   0  0  0  0  0  0  0  0  0  0  0  0
  127.7960  127.5060   71.0180 C   0  0  0  0  0  0  0  0  0  0  0  0
  128.7040  128.7810   67.8700 C   0  0  0  0  0  0  0  0  0  0  0  0
  128.2480  129.3120   66.6670 C   0  0  0  0  0  0  0  0  0  0  0  0
  127.4830  129.5680   63.7590 C   0  0  0  0  0  0  0  0  0  0  0  0
  127.0690  130.0610   62.5180 C   0  0  0  0  0  0  0  0  0  0  0  0
  128.0040  130.2120   61.3600 C   0  0  0  0  0  0  0  0  0  0  0  0
  127.7930  131.2050   60.3970 C   0  0  0  0  0  0  0  0  0  0  0  0
  128.6680  131.3610   59.3250 C   0  0  0  0  0  0  0  0  0  0  0  0
  129.7820  130.5220   59.1690 C   0  0  0  0  0  0  0  0  0  0  0  0
  130.6870  130.6870   58.1150 N   0  0  0  0  0  0  0  0  0  0  0  0
  130.2460  131.3290   56.8600 C   0  0  0  0  0  0  0  0  0  0  0  0
  131.2060  131.0930   55.6740 C   0  0  0  0  0  0  0  0  0  0  0  0
  132.5190  131.5060   56.0230 O   0  0  0  0  0  0  0  0  0  0  0  0
  133.0160  130.7750   57.1320 C   0  0  0  0  0  0  0  0  0  0  0  0
  132.1090  130.9970   58.3610 C   0  0  0  0  0  0  0  0  0  0  0  0
  129.9940  129.5330   60.1410 C   0  0  0  0  0  0  0  0  0  0  0  0
  129.1200  129.3790   61.2140 C   0  0  0  0  0  0  0  0  0  0  0  0
  125.7810  130.4320   62.3070 N   0  0  0  0  0  0  0  0  0  0  0  0
  124.8810  130.3280   63.3130 C   0  0  0  0  0  0  0  0  0  0  0  0
  123.2440  130.8630   62.8640 S   0  0  0  0  0  0  0  0  0  0  0  0
  123.4030  132.4650   62.0200 C   0  0  0  0  0  0  0  0  0  0  0  0
  123.8190  132.3060   60.5570 C   0  0  0  0  0  0  0  0  0  0  0  0
  124.1450  133.3040   59.9100 O   0  0  0  0  0  0  0  0  0  0  0  0
  123.7870  131.0440   60.0770 N   0  0  0  0  0  0  0  0  0  0  0  0
  124.1230  130.6210   58.7990 C   0  0  0  0  0  0  0  0  0  0  0  0
  125.3040  129.9390   58.5090 C   0  0  0  0  0  0  0  0  0  0  0  0
  125.2580  129.7030   57.1550 C   0  0  0  0  0  0  0  0  0  0  0  0
  124.1080  130.2150   56.6550 O   0  0  0  0  0  0  0  0  0  0  0  0
  123.3950  130.7940   57.7080 N   0  0  0  0  0  0  0  0  0  0  0  0
  1  2  3  0
  2  3  1  0
  3  4  2  0
  4  5  1  0
  5  6  2  0
  6  7  1  0
  7  8  2  0
  8  9  1  0
  9 10  1  0
 10 11  1  0
 11 12  1  0
 12 13  1  0
 13 14  1  0
  8 15  1  0
 15 16  2  0
  4 17  1  0
 17 18  2  0
 18 19  1  0
 19 20  2  0
 20 21  1  0
 21 22  2  0
 22 23  1  0
 23 24  1  0
 24 25  1  0
 25 26  1  0
 26 27  1  0
 27 28  1  0
 22 29  1  0
 29 30  2  0
 18 31  1  0
 31 32  2  0
 32 33  1  0
 33 34  1  0
 34 35  1  0
 35 36  2  0
 35 37  1  0
 37 38  1  0
 38 39  1  0
 39 40  2  0
 40 41  1  0
 41 42  1  0
 32  3  1  0
 42 38  2  0
 16  5  1  0
 30 19  1  0
 14  9  1  0
 28 23  1  0
M  END
>  <Binding energies>  (10) 
[-8.24]

>  <Ligand effiencies>  (10) 
[-0.1916279069767442]

>  <Interactions>  (10) 
["V-B:ASP:366:CG:8185, V-A:HIS:456:CE1:4068, V-B:GLU:543:CD:9880, V-B:ARG:545:CZ:9898, V-A:TYR:539:CE2:4874, V-A:GLU:543:CD:4906, V-A:TYR:539:CZ:4875, V-A:PRO:540:CA:4881, V-B:ILE:369:CG2:8209, V-A:PRO:540:CB:4883, V-B:HIS:456:CD2:9040, V-A:GLY:544:C:4910, V-A:HIS:456:CG:4064, H-B:LYS:547:NZ:9923, V-A:HIS:456:CD2:4066, V-B:LYS:547:CE:9922, V-B:GLY:544:C:9884, V-B:GLY:544:CA:9886, V-B:GLU:543:C:9874, H-B:TYR:531:OH:9767, H-B:TYR:484:OH:9320, V-B:HIS:456:CE1:9042, V-A:GLU:543:CB:4904, V-A:TYR:531:CE2:4791, V-B:ASP:366:CB:8184, V-B:ARG:545:CG:9894, V-A:GLU:543:C:4900, H-B:ARG:545:NE:9896, V-A:GLU:543:CG:4905, V-B:GLU:543:CG:9879, V-B:ASP:366:CA:8182, V-B:ILE:369:CD1:8211, V-B:ILE:369:CB:8208, V-B:ARG:545:CD:9895, H-A:TYR:531:OH:4793, H-B:GLY:454:N:9022, H-B:ASP:366:OD1:8186, H-A:TYR:539:OH:4876, V-A:TYR:531:CZ:4792, V-B:GLY:454:CA:9021, V-A:GLU:543:CA:4902"]

$$$$
2c_Ghoteimi_2023
     RDKit          3D

 42 47  0  0  0  0  0  0  0  0999 V2000
  123.4170  129.5520   66.4000 N   0  0  0  0  0  0  0  0  0  0  0  0
  124.2090  129.6660   65.5640 C   0  0  0  0  0  0  0  0  0  0  0  0
  125.2160  129.8080   64.5080 C   0  0  0  0  0  0  0  0  0  0  0  0
  126.5610  129.4240   64.7380 C   0  0  0  0  0  0  0  0  0  0  0  0
  127.0570  128.8640   66.0310 C   0  0  0  0  0  0  0  0  0  0  0  0
  126.3290  127.8730   66.6920 C   0  0  0  0  0  0  0  0  0  0  0  0
  126.7870  127.3420   67.8950 C   0  0  0  0  0  0  0  0  0  0  0  0
  127.9790  127.7980   68.4780 C   0  0  0  0  0  0  0  0  0  0  0  0
  128.4670  127.2660   69.6740 N   0  0  0  0  0  0  0  0  0  0  0  0
  129.9220  127.2750   69.9280 C   0  0  0  0  0  0  0  0  0  0  0  0
  130.3470  126.3300   71.0720 C   0  0  0  0  0  0  0  0  0  0  0  0
  129.6240  126.6400   72.2540 O   0  0  0  0  0  0  0  0  0  0  0  0
  128.2250  126.4980   72.0660 C   0  0  0  0  0  0  0  0  0  0  0  0
  127.7440  127.4460   70.9480 C   0  0  0  0  0  0  0  0  0  0  0  0
  128.7010  128.7970   67.8090 C   0  0  0  0  0  0  0  0  0  0  0  0
  128.2440  129.3250   66.6050 C   0  0  0  0  0  0  0  0  0  0  0  0
  127.4850  129.5760   63.6960 C   0  0  0  0  0  0  0  0  0  0  0  0
  127.0760  130.0700   62.4530 C   0  0  0  0  0  0  0  0  0  0  0  0
  128.0190  130.2350   61.3050 C   0  0  0  0  0  0  0  0  0  0  0  0
  128.5040  129.1200   60.6140 C   0  0  0  0  0  0  0  0  0  0  0  0
  129.3790  129.2670   59.5400 C   0  0  0  0  0  0  0  0  0  0  0  0
  129.8100  130.5370   59.1240 C   0  0  0  0  0  0  0  0  0  0  0  0
  130.6680  130.7040   58.0320 N   0  0  0  0  0  0  0  0  0  0  0  0
  130.1560  131.2930   56.7780 C   0  0  0  0  0  0  0  0  0  0  0  0
  131.0800  131.0630   55.5630 C   0  0  0  0  0  0  0  0  0  0  0  0
  132.3850  131.5400   55.8480 O   0  0  0  0  0  0  0  0  0  0  0  0
  132.9540  130.8640   56.9580 C   0  0  0  0  0  0  0  0  0  0  0  0
  132.0850  131.0820   58.2150 C   0  0  0  0  0  0  0  0  0  0  0  0
  129.3110  131.6520   59.8120 C   0  0  0  0  0  0  0  0  0  0  0  0
  128.4360  131.5040   60.8850 C   0  0  0  0  0  0  0  0  0  0  0  0
  125.7870  130.4350   62.2350 N   0  0  0  0  0  0  0  0  0  0  0  0
  124.8810  130.3270   63.2370 C   0  0  0  0  0  0  0  0  0  0  0  0
  123.2470  130.8590   62.7800 S   0  0  0  0  0  0  0  0  0  0  0  0
  123.4230  132.3770   61.7950 C   0  0  0  0  0  0  0  0  0  0  0  0
  124.2010  132.1350   60.5010 C   0  0  0  0  0  0  0  0  0  0  0  0
  125.0700  132.9390   60.1590 O   0  0  0  0  0  0  0  0  0  0  0  0
  123.8580  131.0250   59.8140 N   0  0  0  0  0  0  0  0  0  0  0  0
  124.4210  130.5760   58.6280 C   0  0  0  0  0  0  0  0  0  0  0  0
  123.8150  130.3430   57.4840 N   0  0  0  0  0  0  0  0  0  0  0  0
  124.6620  129.9290   56.5620 C   0  0  0  0  0  0  0  0  0  0  0  0
  125.9930  129.8180   56.9550 C   0  0  0  0  0  0  0  0  0  0  0  0
  126.1300  130.2840   58.6240 S   0  0  0  0  0  0  0  0  0  0  0  0
  1  2  3  0
  2  3  1  0
  3  4  2  0
  4  5  1  0
  5  6  2  0
  6  7  1  0
  7  8  2  0
  8  9  1  0
  9 10  1  0
 10 11  1  0
 11 12  1  0
 12 13  1  0
 13 14  1  0
  8 15  1  0
 15 16  2  0
  4 17  1  0
 17 18  2  0
 18 19  1  0
 19 20  2  0
 20 21  1  0
 21 22  2  0
 22 23  1  0
 23 24  1  0
 24 25  1  0
 25 26  1  0
 26 27  1  0
 27 28  1  0
 22 29  1  0
 29 30  2  0
 18 31  1  0
 31 32  2  0
 32 33  1  0
 33 34  1  0
 34 35  1  0
 35 36  2  0
 35 37  1  0
 37 38  1  0
 38 39  2  0
 39 40  1  0
 40 41  2  0
 41 42  1  0
 32  3  1  0
 42 38  1  0
 16  5  1  0
 30 19  1  0
 14  9  1  0
 28 23  1  0
M  END
>  <Binding energies>  (11) 
[-7.76]

>  <Ligand effiencies>  (11) 
[-0.18046511627906978]

>  <Interactions>  (11) 
["V-B:ASP:366:CG:8185, V-A:HIS:456:CE1:4068, V-B:GLU:543:CD:9880, V-B:ARG:545:CZ:9898, V-A:TYR:539:CE2:4874, V-A:GLU:543:CD:4906, V-A:TYR:539:CZ:4875, V-A:PRO:540:CA:4881, V-B:ILE:369:CG2:8209, V-A:PRO:540:CB:4883, V-B:HIS:456:CD2:9040, V-A:GLY:544:C:4910, V-A:HIS:456:CG:4064, H-B:LYS:547:NZ:9923, V-A:HIS:456:CD2:4066, V-B:LYS:547:CE:9922, V-B:GLY:544:C:9884, V-B:GLY:544:CA:9886, V-B:GLU:543:C:9874, H-B:TYR:484:OH:9320, V-B:HIS:456:CE1:9042, V-A:GLU:543:CB:4904, V-A:TYR:531:CE2:4791, V-B:ASP:366:CB:8184, V-B:ARG:545:CG:9894, V-A:GLU:543:C:4900, H-B:ARG:545:NE:9896, V-A:GLU:543:CG:4905, V-B:GLU:543:CG:9879, V-B:ASP:366:CA:8182, V-B:ILE:369:CD1:8211, V-B:ARG:545:CD:9895, H-A:TYR:531:OH:4793, H-B:GLY:454:N:9022, H-B:ASP:366:OD1:8186, H-A:TYR:539:OH:4876, V-B:TYR:531:CZ:9766, V-A:TYR:531:CZ:4792, V-B:GLY:454:CA:9021, V-A:GLU:543:CA:4902, V-B:TYR:531:CE1:9764, V-B:GLY:453:CA:9016"]

$$$$
2j_Grossjean_2025
     RDKit          3D

 23 24  0  0  0  0  0  0  0  0999 V2000
  128.9940  132.6090   73.4650 C   0  0  0  0  0  0  0  0  0  0  0  0
  128.0230  131.4840   73.7710 C   0  0  0  0  0  0  0  0  0  0  0  0
  126.9610  131.6570   74.6550 C   0  0  0  0  0  0  0  0  0  0  0  0
  126.0870  130.5880   74.9030 C   0  0  0  0  0  0  0  0  0  0  0  0
  124.9170  130.7980   75.8840 C   0  0  0  0  0  0  0  0  0  0  0  0
  125.2450  130.3350   77.0900 F   0  0  0  0  0  0  0  0  0  0  0  0
  124.6300  132.0970   75.9820 F   0  0  0  0  0  0  0  0  0  0  0  0
  123.8040  130.1690   75.5010 F   0  0  0  0  0  0  0  0  0  0  0  0
  126.3190  129.3570   74.2400 C   0  0  0  0  0  0  0  0  0  0  0  0
  125.4390  128.2060   74.4620 C   0  0  0  0  0  0  0  0  0  0  0  0
  124.7430  127.2980   74.6370 N   0  0  0  0  0  0  0  0  0  0  0  0
  127.4230  129.2690   73.3580 C   0  0  0  0  0  0  0  0  0  0  0  0
  127.8100  127.7690   72.4680 S   0  0  0  0  0  0  0  0  0  0  0  0
  129.6190  127.6830   72.2450 C   0  0  0  0  0  0  0  0  0  0  0  0
  130.2850  126.4340   72.8420 C   0  0  0  0  0  0  0  0  0  0  0  0
  129.7180  125.3400   72.8060 O   0  0  0  0  0  0  0  0  0  0  0  0
  131.4980  126.6500   73.3970 N   0  0  0  0  0  0  0  0  0  0  0  0
  132.3140  125.7030   74.0020 C   0  0  0  0  0  0  0  0  0  0  0  0
  131.9650  124.5370   74.5010 N   0  0  0  0  0  0  0  0  0  0  0  0
  133.0010  123.8910   74.9980 C   0  0  0  0  0  0  0  0  0  0  0  0
  134.2300  124.5380   74.9080 C   0  0  0  0  0  0  0  0  0  0  0  0
  134.0040  126.0750   74.1280 S   0  0  0  0  0  0  0  0  0  0  0  0
  128.2560  130.3160   73.1300 N   0  0  0  0  0  0  0  0  0  0  0  0
  1  2  1  0
  2  3  2  0
  3  4  1  0
  4  5  1  0
  5  6  1  0
  5  7  1  0
  5  8  1  0
  4  9  2  0
  9 10  1  0
 10 11  3  0
  9 12  1  0
 12 13  1  0
 13 14  1  0
 14 15  1  0
 15 16  2  0
 15 17  1  0
 17 18  1  0
 18 19  2  0
 19 20  1  0
 20 21  2  0
 21 22  1  0
 12 23  2  0
 23  2  1  0
 22 18  1  0
M  END
>  <Binding energies>  (12) 
[-7.56]

>  <Ligand effiencies>  (12) 
[-0.315]

>  <Interactions>  (12) 
["V-A:HIS:456:CB:4063, V-B:HIS:456:CD2:9040, V-A:GLY:544:C:4910, V-A:HIS:456:CG:4064, V-B:HIS:456:C:9033, H-A:LYS:547:NZ:4949, V-B:LYS:471:CE:9192, H-B:LYS:547:NZ:9923, V-B:HIS:456:CA:9035, V-A:VAL:458:CG2:4085, V-A:HIS:456:CD2:4066, V-A:LYS:471:CE:4218, V-B:VAL:457:CA:9047, V-A:VAL:457:C:4071, V-B:HIS:456:CG:9038, V-B:VAL:457:C:9045, V-B:LYS:547:CD:9921, V-B:VAL:458:CG2:9059, V-B:ASP:473:CG:9212, V-B:LYS:547:CE:9922, V-A:HIS:456:C:4059, V-A:LYS:547:CE:4948, V-B:LYS:471:CG:9190, V-B:HIS:456:CB:9037, V-B:LYS:471:CD:9191, V-A:HIS:456:CA:4061, V-B:LYS:471:CB:9189, V-B:ASP:473:CB:9211, H-A:GLY:544:O:4911"]

$$$$
3ab_Grossjean_2025
     RDKit          3D

 33 35  0  0  0  0  0  0  0  0999 V2000
  129.0000  132.2130   58.0930 C   0  0  0  0  0  0  0  0  0  0  0  0
  129.3510  132.8380   56.8660 O   0  0  0  0  0  0  0  0  0  0  0  0
  129.8620  132.1160   55.8360 C   0  0  0  0  0  0  0  0  0  0  0  0
  130.7370  132.5390   55.0760 O   0  0  0  0  0  0  0  0  0  0  0  0
  129.2570  130.7470   55.7140 C   0  0  0  0  0  0  0  0  0  0  0  0
  129.9520  129.5900   56.0980 C   0  0  0  0  0  0  0  0  0  0  0  0
  129.3660  128.3330   55.9750 C   0  0  0  0  0  0  0  0  0  0  0  0
  128.0650  128.2110   55.4600 C   0  0  0  0  0  0  0  0  0  0  0  0
  127.3740  126.9960   55.2970 N   0  0  0  0  0  0  0  0  0  0  0  0
  127.8490  125.7390   55.1670 C   0  0  0  0  0  0  0  0  0  0  0  0
  129.0390  125.4220   55.1550 O   0  0  0  0  0  0  0  0  0  0  0  0
  126.7870  124.6480   55.0230 C   0  0  0  0  0  0  0  0  0  0  0  0
  127.3690  123.0400   55.6410 S   0  0  0  0  0  0  0  0  0  0  0  0
  127.5010  123.1640   57.4120 C   0  0  0  0  0  0  0  0  0  0  0  0
  128.7120  122.7930   57.8910 N   0  0  0  0  0  0  0  0  0  0  0  0
  128.9550  122.8430   59.2270 C   0  0  0  0  0  0  0  0  0  0  0  0
  130.3210  122.4180   59.6760 C   0  0  0  0  0  0  0  0  0  0  0  0
  130.5300  121.1500   60.2410 C   0  0  0  0  0  0  0  0  0  0  0  0
  131.7960  120.7490   60.6590 C   0  0  0  0  0  0  0  0  0  0  0  0
  132.8750  121.6170   60.5190 C   0  0  0  0  0  0  0  0  0  0  0  0
  132.6950  122.8800   59.9670 C   0  0  0  0  0  0  0  0  0  0  0  0
  131.4280  123.2760   59.5500 C   0  0  0  0  0  0  0  0  0  0  0  0
  127.9590  123.2550   60.1200 C   0  0  0  0  0  0  0  0  0  0  0  0
  126.6910  123.6250   59.6500 C   0  0  0  0  0  0  0  0  0  0  0  0
  125.6220  124.0670   60.6680 C   0  0  0  0  0  0  0  0  0  0  0  0
  125.8330  123.5690   61.8880 F   0  0  0  0  0  0  0  0  0  0  0  0
  125.6110  125.3960   60.7760 F   0  0  0  0  0  0  0  0  0  0  0  0
  124.4170  123.6560   60.2680 F   0  0  0  0  0  0  0  0  0  0  0  0
  126.4440  123.5730   58.2550 C   0  0  0  0  0  0  0  0  0  0  0  0
  125.1200  123.8950   57.7170 C   0  0  0  0  0  0  0  0  0  0  0  0
  124.0730  124.1500   57.2940 N   0  0  0  0  0  0  0  0  0  0  0  0
  127.3690  129.3600   55.0820 C   0  0  0  0  0  0  0  0  0  0  0  0
  127.9580  130.6150   55.2050 C   0  0  0  0  0  0  0  0  0  0  0  0
  1  2  1  0
  2  3  1  0
  3  4  2  0
  3  5  1  0
  5  6  2  0
  6  7  1  0
  7  8  2  0
  8  9  1  0
  9 10  1  0
 10 11  2  0
 10 12  1  0
 12 13  1  0
 13 14  1  0
 14 15  2  0
 15 16  1  0
 16 17  1  0
 17 18  2  0
 18 19  1  0
 19 20  2  0
 20 21  1  0
 21 22  2  0
 16 23  2  0
 23 24  1  0
 24 25  1  0
 25 26  1  0
 25 27  1  0
 25 28  1  0
 24 29  2  0
 29 30  1  0
 30 31  3  0
  8 32  1  0
 32 33  2  0
 33  5  1  0
 29 14  1  0
 22 17  1  0
M  END
>  <Binding energies>  (13) 
[-8.94]

>  <Ligand effiencies>  (13) 
[-0.26294117647058823]

>  <Interactions>  (13) 
["V-B:ASP:366:CG:8185, V-B:GLU:543:CD:9880, V-B:TYR:539:CD2:9846, V-B:PRO:540:CA:9855, V-B:TYR:539:CE2:9848, V-A:TYR:539:CD2:4872, V-A:TYR:539:CE2:4874, V-A:TYR:539:CZ:4875, V-A:PRO:540:N:4882, V-A:TYR:539:CG:4870, V-A:TYR:539:CE1:4873, V-A:TYR:539:C:4865, V-B:PRO:540:CB:9857, V-B:PRO:540:N:9856, V-B:TYR:539:C:9839, H-B:TYR:531:OH:9767, H-B:TYR:539:N:9842, V-B:ASN:362:CB:8148, H-A:TYR:539:N:4868, V-A:LEU:475:CD2:4257, V-A:TRP:381:CH2:3370, V-A:ILE:369:CG2:3235, V-A:ILE:538:CA:4858, V-B:PRO:540:C:9853, V-B:ALA:541:C:9860, V-B:ALA:541:CA:9862, H-B:MET:535:SD:9806"]

$$$$
3ac_Grossjean_2025
     RDKit          3D

 31 33  0  0  0  0  0  0  0  0999 V2000
  132.2600  131.0500   61.8280 C   0  0  0  0  0  0  0  0  0  0  0  0
  133.1810  131.1220   60.7430 O   0  0  0  0  0  0  0  0  0  0  0  0
  132.7060  131.0460   59.4480 C   0  0  0  0  0  0  0  0  0  0  0  0
  131.3220  130.9640   59.2970 C   0  0  0  0  0  0  0  0  0  0  0  0
  130.7510  130.8890   58.0300 C   0  0  0  0  0  0  0  0  0  0  0  0
  131.5600  130.8840   56.8920 C   0  0  0  0  0  0  0  0  0  0  0  0
  130.8910  130.8250   55.6560 N   0  0  0  0  0  0  0  0  0  0  0  0
  129.8810  131.5950   55.1970 C   0  0  0  0  0  0  0  0  0  0  0  0
  129.3830  132.5480   55.7980 O   0  0  0  0  0  0  0  0  0  0  0  0
  129.3430  131.2220   53.8150 C   0  0  0  0  0  0  0  0  0  0  0  0
  128.0230  129.9740   53.9040 S   0  0  0  0  0  0  0  0  0  0  0  0
  127.9160  129.3730   55.5790 C   0  0  0  0  0  0  0  0  0  0  0  0
  127.0490  130.0790   56.3440 N   0  0  0  0  0  0  0  0  0  0  0  0
  126.8570  129.7330   57.6430 C   0  0  0  0  0  0  0  0  0  0  0  0
  125.8860  130.5700   58.4220 C   0  0  0  0  0  0  0  0  0  0  0  0
  124.5160  130.5530   58.1160 C   0  0  0  0  0  0  0  0  0  0  0  0
  123.6090  131.3220   58.8390 C   0  0  0  0  0  0  0  0  0  0  0  0
  124.0620  132.1250   59.8810 C   0  0  0  0  0  0  0  0  0  0  0  0
  125.4140  132.1640   60.2020 C   0  0  0  0  0  0  0  0  0  0  0  0
  126.3180  131.3930   59.4760 C   0  0  0  0  0  0  0  0  0  0  0  0
  127.5580  128.6650   58.2110 C   0  0  0  0  0  0  0  0  0  0  0  0
  128.4780  127.9330   57.4480 C   0  0  0  0  0  0  0  0  0  0  0  0
  129.2330  126.7660   58.1150 C   0  0  0  0  0  0  0  0  0  0  0  0
  128.8530  126.5590   59.3780 F   0  0  0  0  0  0  0  0  0  0  0  0
  129.0180  125.6330   57.4450 F   0  0  0  0  0  0  0  0  0  0  0  0
  130.5420  127.0210   58.1250 F   0  0  0  0  0  0  0  0  0  0  0  0
  128.6800  128.3000   56.0940 C   0  0  0  0  0  0  0  0  0  0  0  0
  129.6850  127.6150   55.2790 C   0  0  0  0  0  0  0  0  0  0  0  0
  130.4810  127.0730   54.6360 N   0  0  0  0  0  0  0  0  0  0  0  0
  132.9530  130.9730   57.0360 C   0  0  0  0  0  0  0  0  0  0  0  0
  133.5210  131.0500   58.3050 C   0  0  0  0  0  0  0  0  0  0  0  0
  1  2  1  0
  2  3  1  0
  3  4  2  0
  4  5  1  0
  5  6  2  0
  6  7  1  0
  7  8  1  0
  8  9  2  0
  8 10  1  0
 10 11  1  0
 11 12  1  0
 12 13  2  0
 13 14  1  0
 14 15  1  0
 15 16  2  0
 16 17  1  0
 17 18  2  0
 18 19  1  0
 19 20  2  0
 14 21  2  0
 21 22  1  0
 22 23  1  0
 23 24  1  0
 23 25  1  0
 23 26  1  0
 22 27  2  0
 27 28  1  0
 28 29  3  0
  6 30  1  0
 30 31  2  0
 31  3  1  0
 27 12  1  0
 20 15  1  0
M  END
>  <Binding energies>  (14) 
[-7.44]

>  <Ligand effiencies>  (14) 
[-0.2325]

>  <Interactions>  (14) 
["V-B:ASP:366:CG:8185, V-A:ARG:545:CZ:4924, H-A:ARG:545:NH2:4926, V-A:TYR:539:CE2:4874, V-A:ASP:366:CG:3211, V-A:GLU:543:CD:4906, V-A:TYR:539:CZ:4875, V-A:PRO:540:CA:4881, V-B:ILE:369:CG2:8209, V-A:PRO:540:CB:4883, V-A:LEU:363:CA:3183, V-A:TYR:531:CE2:4791, V-B:ASP:366:CB:8184, H-A:TYR:539:N:4868, V-B:ASP:366:CA:8182, V-B:ILE:369:CD1:8211, V-B:ILE:369:CB:8208, H-A:TYR:531:OH:4793, V-A:MET:535:CG:4831, V-A:ILE:538:CA:4858, H-A:TYR:539:OH:4876, V-A:MET:535:CB:4830, V-A:TYR:531:CZ:4792, V-A:ASN:362:CB:3174"]

$$$$
3af_Grossjean_2025
     RDKit          3D

 29 31  0  0  0  0  0  0  0  0999 V2000
  133.7650  127.3050   74.2910 N   0  0  0  0  0  0  0  0  0  0  0  0
  133.0100  126.4450   74.1180 C   0  0  0  0  0  0  0  0  0  0  0  0
  132.0550  125.3550   73.9000 C   0  0  0  0  0  0  0  0  0  0  0  0
  132.2620  124.0850   74.4920 C   0  0  0  0  0  0  0  0  0  0  0  0
  133.4520  123.7850   75.4250 C   0  0  0  0  0  0  0  0  0  0  0  0
  134.5860  124.3600   75.0200 F   0  0  0  0  0  0  0  0  0  0  0  0
  133.1900  124.2320   76.6540 F   0  0  0  0  0  0  0  0  0  0  0  0
  133.6700  122.4700   75.4790 F   0  0  0  0  0  0  0  0  0  0  0  0
  131.3490  123.0570   74.2100 C   0  0  0  0  0  0  0  0  0  0  0  0
  130.2630  123.2900   73.3600 C   0  0  0  0  0  0  0  0  0  0  0  0
  129.2680  122.2240   73.0100 C   0  0  0  0  0  0  0  0  0  0  0  0
  128.6030  121.5050   74.0170 C   0  0  0  0  0  0  0  0  0  0  0  0
  127.6760  120.5150   73.6980 C   0  0  0  0  0  0  0  0  0  0  0  0
  127.4030  120.2310   72.3650 C   0  0  0  0  0  0  0  0  0  0  0  0
  128.0460  120.9300   71.3480 C   0  0  0  0  0  0  0  0  0  0  0  0
  128.9710  121.9190   71.6710 C   0  0  0  0  0  0  0  0  0  0  0  0
  130.0710  124.5080   72.7920 N   0  0  0  0  0  0  0  0  0  0  0  0
  130.9260  125.5220   73.0680 C   0  0  0  0  0  0  0  0  0  0  0  0
  130.5030  127.0440   72.2440 S   0  0  0  0  0  0  0  0  0  0  0  0
  128.6910  127.1310   72.1180 C   0  0  0  0  0  0  0  0  0  0  0  0
  128.1290  128.3550   72.8400 C   0  0  0  0  0  0  0  0  0  0  0  0
  128.7370  129.4230   72.7700 O   0  0  0  0  0  0  0  0  0  0  0  0
  126.9800  128.1490   73.5200 N   0  0  0  0  0  0  0  0  0  0  0  0
  126.2160  129.0510   74.2870 C   0  0  0  0  0  0  0  0  0  0  0  0
  126.6840  130.2540   74.8460 C   0  0  0  0  0  0  0  0  0  0  0  0
  125.8130  131.0550   75.5890 C   0  0  0  0  0  0  0  0  0  0  0  0
  124.4940  130.6310   75.7570 C   0  0  0  0  0  0  0  0  0  0  0  0
  124.0190  129.4770   75.2280 N   0  0  0  0  0  0  0  0  0  0  0  0
  124.8770  128.7100   74.5080 C   0  0  0  0  0  0  0  0  0  0  0  0
  1  2  3  0
  2  3  1  0
  3  4  2  0
  4  5  1  0
  5  6  1  0
  5  7  1  0
  5  8  1  0
  4  9  1  0
  9 10  2  0
 10 11  1  0
 11 12  2  0
 12 13  1  0
 13 14  2  0
 14 15  1  0
 15 16  2  0
 10 17  1  0
 17 18  2  0
 18 19  1  0
 19 20  1  0
 20 21  1  0
 21 22  2  0
 21 23  1  0
 23 24  1  0
 24 25  2  0
 25 26  1  0
 26 27  2  0
 27 28  1  0
 28 29  2  0
 18  3  1  0
 29 24  1  0
 16 11  1  0
M  END
>  <Binding energies>  (15) 
[-9.07]

>  <Ligand effiencies>  (15) 
[-0.30233333333333334]

>  <Interactions>  (15) 
["V-A:HIS:456:CB:4063, V-B:HIS:456:CD2:9040, V-A:HIS:456:CG:4064, V-B:HIS:456:C:9033, V-A:LYS:547:CD:4947, H-A:LYS:547:NZ:4949, V-B:LYS:471:CE:9192, H-B:LYS:547:NZ:9923, V-B:HIS:456:CA:9035, V-A:VAL:458:CG2:4085, V-A:HIS:456:CD2:4066, V-A:LYS:471:CE:4218, V-A:VAL:457:C:4071, V-B:HIS:456:CG:9038, V-B:VAL:458:CG2:9059, V-B:LYS:547:CE:9922, V-A:HIS:456:C:4059, V-A:LYS:547:CE:4948, V-B:LYS:471:CG:9190, V-A:LYS:471:CD:4217, V-A:LYS:471:CG:4216, V-A:ASP:473:CG:4238, V-B:HIS:456:CB:9037, V-B:LYS:471:CD:9191, V-A:VAL:457:CA:4073, V-B:GLY:544:C:9884, V-A:HIS:456:CA:4061, V-B:GLY:544:CA:9886, V-B:GLU:543:C:9874, V-B:GLU:543:CA:9876, V-A:TYR:484:CB:4339, V-A:TYR:484:CD1:4341, V-A:TYR:484:CG:4340, V-A:ASP:473:CB:4237, H-B:GLY:544:O:9885, H-B:VAL:458:N:9056, H-B:VAL:457:N:9048"]

$$$$
3ag_Grossjean_2025
     RDKit          3D

 30 32  0  0  0  0  0  0  0  0999 V2000
  126.7320  123.1850   61.4580 N   0  0  0  0  0  0  0  0  0  0  0  0
  126.8500  123.9780   60.6230 C   0  0  0  0  0  0  0  0  0  0  0  0
  127.0020  124.9830   59.5670 C   0  0  0  0  0  0  0  0  0  0  0  0
  128.1030  125.8740   59.5690 C   0  0  0  0  0  0  0  0  0  0  0  0
  129.2240  125.8080   60.6250 C   0  0  0  0  0  0  0  0  0  0  0  0
  130.2690  126.5790   60.3190 F   0  0  0  0  0  0  0  0  0  0  0  0
  128.7580  126.2140   61.8070 F   0  0  0  0  0  0  0  0  0  0  0  0
  129.6720  124.5580   60.7430 F   0  0  0  0  0  0  0  0  0  0  0  0
  128.1760  126.8530   58.5670 C   0  0  0  0  0  0  0  0  0  0  0  0
  127.1710  126.9490   57.5980 C   0  0  0  0  0  0  0  0  0  0  0  0
  127.1970  127.9770   56.5080 C   0  0  0  0  0  0  0  0  0  0  0  0
  128.1020  127.8670   55.4400 C   0  0  0  0  0  0  0  0  0  0  0  0
  128.1310  128.8180   54.4240 C   0  0  0  0  0  0  0  0  0  0  0  0
  127.2520  129.8960   54.4620 C   0  0  0  0  0  0  0  0  0  0  0  0
  126.3480  130.0300   55.5110 C   0  0  0  0  0  0  0  0  0  0  0  0
  126.3230  129.0780   56.5250 C   0  0  0  0  0  0  0  0  0  0  0  0
  126.1230  126.0850   57.5920 N   0  0  0  0  0  0  0  0  0  0  0  0
  126.0430  125.1190   58.5390 C   0  0  0  0  0  0  0  0  0  0  0  0
  124.6080  124.0800   58.3740 S   0  0  0  0  0  0  0  0  0  0  0  0
  124.3000  123.8600   56.5960 C   0  0  0  0  0  0  0  0  0  0  0  0
  125.5620  123.4470   55.8370 C   0  0  0  0  0  0  0  0  0  0  0  0
  126.1690  122.4250   56.1650 O   0  0  0  0  0  0  0  0  0  0  0  0
  125.9390  124.2460   54.8240 N   0  0  0  0  0  0  0  0  0  0  0  0
  127.0880  124.0210   53.9480 C   0  0  0  0  0  0  0  0  0  0  0  0
  128.4090  124.5370   54.5100 C   0  0  0  0  0  0  0  0  0  0  0  0
  128.7030  124.3620   55.8650 C   0  0  0  0  0  0  0  0  0  0  0  0
  129.9200  124.8040   56.3750 C   0  0  0  0  0  0  0  0  0  0  0  0
  130.8440  125.4120   55.5270 C   0  0  0  0  0  0  0  0  0  0  0  0
  130.5640  125.5760   54.1720 C   0  0  0  0  0  0  0  0  0  0  0  0
  129.3470  125.1330   53.6610 C   0  0  0  0  0  0  0  0  0  0  0  0
  1  2  3  0
  2  3  1  0
  3  4  2  0
  4  5  1  0
  5  6  1  0
  5  7  1  0
  5  8  1  0
  4  9  1  0
  9 10  2  0
 10 11  1  0
 11 12  2  0
 12 13  1  0
 13 14  2  0
 14 15  1  0
 15 16  2  0
 10 17  1  0
 17 18  2  0
 18 19  1  0
 19 20  1  0
 20 21  1  0
 21 22  2  0
 21 23  1  0
 23 24  1  0
 24 25  1  0
 25 26  2  0
 26 27  1  0
 27 28  2  0
 28 29  1  0
 29 30  2  0
 18  3  1  0
 30 25  1  0
 16 11  1  0
M  END
>  <Binding energies>  (16) 
[-7.69]

>  <Ligand effiencies>  (16) 
[-0.24806451612903227]

>  <Interactions>  (16) 
["V-B:GLU:543:CD:9880, V-B:PRO:540:CA:9855, V-B:TYR:539:CZ:9849, H-B:ALA:541:N:9863, V-B:TYR:539:CE2:9848, V-A:TYR:539:CZ:4875, V-B:MET:535:CB:9804, V-B:ILE:538:CA:9832, V-B:MET:535:CG:9805, V-B:PRO:540:CB:9857, V-B:ILE:538:CB:9834, V-B:TYR:539:CE1:9847, H-B:TYR:531:OH:9767, V-B:ILE:538:CG2:9835, H-B:TYR:539:N:9842, V-B:LEU:363:CD1:8161, V-B:TYR:531:CE2:9765, V-B:TYR:531:CZ:9766, V-B:MET:535:CE:9807, V-A:MET:535:CE:4833, H-B:MET:535:SD:9806, V-A:TYR:531:CE1:4790"]

$$$$
3bc_Grossjean_2025
     RDKit          3D

 28 30  0  0  0  0  0  0  0  0999 V2000
  128.1190  123.1520   53.7940 C   0  0  0  0  0  0  0  0  0  0  0  0
  127.3310  122.8070   54.9280 O   0  0  0  0  0  0  0  0  0  0  0  0
  126.9970  123.7900   55.8400 C   0  0  0  0  0  0  0  0  0  0  0  0
  127.4230  125.0840   55.5430 C   0  0  0  0  0  0  0  0  0  0  0  0
  127.1340  126.1410   56.4030 C   0  0  0  0  0  0  0  0  0  0  0  0
  126.4200  125.9130   57.5810 C   0  0  0  0  0  0  0  0  0  0  0  0
  126.1660  127.0440   58.3800 N   0  0  0  0  0  0  0  0  0  0  0  0
  127.0390  127.9220   58.9170 C   0  0  0  0  0  0  0  0  0  0  0  0
  128.2600  127.8880   58.7500 O   0  0  0  0  0  0  0  0  0  0  0  0
  126.3960  129.0380   59.7520 C   0  0  0  0  0  0  0  0  0  0  0  0
  126.8540  130.7350   59.2630 S   0  0  0  0  0  0  0  0  0  0  0  0
  127.6330  130.6490   57.6650 C   0  0  0  0  0  0  0  0  0  0  0  0
  128.9600  130.9260   57.6900 N   0  0  0  0  0  0  0  0  0  0  0  0
  129.6790  130.8940   56.5380 C   0  0  0  0  0  0  0  0  0  0  0  0
  131.1360  131.2330   56.6480 C   0  0  0  0  0  0  0  0  0  0  0  0
  131.9100  130.7360   57.7070 C   0  0  0  0  0  0  0  0  0  0  0  0
  133.2630  131.0470   57.8160 C   0  0  0  0  0  0  0  0  0  0  0  0
  133.8610  131.8640   56.8620 C   0  0  0  0  0  0  0  0  0  0  0  0
  133.1160  132.3730   55.8040 C   0  0  0  0  0  0  0  0  0  0  0  0
  131.7630  132.0600   55.7000 C   0  0  0  0  0  0  0  0  0  0  0  0
  129.0700  130.5790   55.3190 C   0  0  0  0  0  0  0  0  0  0  0  0
  127.7070  130.2670   55.2800 C   0  0  0  0  0  0  0  0  0  0  0  0
  127.0870  129.9120   53.9290 C   0  0  0  0  0  0  0  0  0  0  0  0
  126.9580  130.2890   56.4770 C   0  0  0  0  0  0  0  0  0  0  0  0
  125.5420  129.9190   56.4670 C   0  0  0  0  0  0  0  0  0  0  0  0
  124.4220  129.6280   56.4570 N   0  0  0  0  0  0  0  0  0  0  0  0
  125.9770  124.6170   57.8810 C   0  0  0  0  0  0  0  0  0  0  0  0
  126.2670  123.5630   57.0180 C   0  0  0  0  0  0  0  0  0  0  0  0
  1  2  1  0
  2  3  1  0
  3  4  2  0
  4  5  1  0
  5  6  2  0
  6  7  1  0
  7  8  1  0
  8  9  2  0
  8 10  1  0
 10 11  1  0
 11 12  1  0
 12 13  2  0
 13 14  1  0
 14 15  1  0
 15 16  2  0
 16 17  1  0
 17 18  2  0
 18 19  1  0
 19 20  2  0
 14 21  2  0
 21 22  1  0
 22 23  1  0
 22 24  2  0
 24 25  1  0
 25 26  3  0
  6 27  1  0
 27 28  2  0
 28  3  1  0
 24 12  1  0
 20 15  1  0
M  END
>  <Binding energies>  (17) 
[-8.12]

>  <Ligand effiencies>  (17) 
[-0.27999999999999997]

>  <Interactions>  (17) 
["V-B:ASP:366:CG:8185, H-B:ASP:366:OD2:8187, V-B:PRO:540:CA:9855, V-A:TYR:539:CE2:4874, V-A:ASP:366:CG:3211, V-A:TYR:539:CZ:4875, V-A:PRO:540:CA:4881, V-A:PRO:540:N:4882, V-A:PRO:540:CB:4883, V-B:ILE:538:CA:9832, V-B:PRO:540:N:9856, V-B:TYR:539:C:9839, V-B:TYR:539:CE1:9847, V-B:TYR:539:CD1:9845, H-B:TYR:531:OH:9767, H-B:TYR:539:N:9842, V-A:LEU:363:CA:3183, V-A:PRO:540:CD:4885, V-A:ILE:538:CB:4860, V-A:PRO:540:CG:4884, V-A:ILE:538:CG2:4861, V-A:LEU:363:CD1:3187, V-A:TYR:531:CE2:4791, V-A:LEU:363:CB:3185, H-B:ASP:366:OD1:8186, V-B:VAL:537:C:9822, V-A:ILE:538:CA:4858, H-A:TYR:539:OH:4876, V-B:MET:535:CE:9807, V-B:TYR:531:CE1:9764"]

$$$$
3bd_Grossjean_2025
     RDKit          3D

 26 28  0  0  0  0  0  0  0  0999 V2000
  133.7970  123.7260   75.4940 C   0  0  0  0  0  0  0  0  0  0  0  0
  132.5830  123.9960   74.6070 C   0  0  0  0  0  0  0  0  0  0  0  0
  131.7030  122.9380   74.3500 C   0  0  0  0  0  0  0  0  0  0  0  0
  130.5810  123.1440   73.5390 C   0  0  0  0  0  0  0  0  0  0  0  0
  129.5970  122.0570   73.2260 C   0  0  0  0  0  0  0  0  0  0  0  0
  129.2280  121.1200   74.2050 C   0  0  0  0  0  0  0  0  0  0  0  0
  128.3160  120.1070   73.9210 C   0  0  0  0  0  0  0  0  0  0  0  0
  127.7590  120.0160   72.6490 C   0  0  0  0  0  0  0  0  0  0  0  0
  128.1100  120.9290   71.6610 C   0  0  0  0  0  0  0  0  0  0  0  0
  129.0220  121.9400   71.9490 C   0  0  0  0  0  0  0  0  0  0  0  0
  130.3240  124.3670   73.0060 N   0  0  0  0  0  0  0  0  0  0  0  0
  131.1660  125.4040   73.2450 C   0  0  0  0  0  0  0  0  0  0  0  0
  130.7230  126.9540   72.4770 S   0  0  0  0  0  0  0  0  0  0  0  0
  128.9170  126.9810   72.2660 C   0  0  0  0  0  0  0  0  0  0  0  0
  128.2760  128.1810   72.9650 C   0  0  0  0  0  0  0  0  0  0  0  0
  128.8810  129.2530   72.9880 O   0  0  0  0  0  0  0  0  0  0  0  0
  127.0700  127.9540   73.5280 N   0  0  0  0  0  0  0  0  0  0  0  0
  126.2280  128.8530   74.2100 C   0  0  0  0  0  0  0  0  0  0  0  0
  126.8040  130.0690   74.5870 C   0  0  0  0  0  0  0  0  0  0  0  0
  126.0510  131.0180   75.2730 C   0  0  0  0  0  0  0  0  0  0  0  0
  124.7230  130.7470   75.5930 C   0  0  0  0  0  0  0  0  0  0  0  0
  124.1420  129.5320   75.2350 C   0  0  0  0  0  0  0  0  0  0  0  0
  124.8920  128.5820   74.5470 C   0  0  0  0  0  0  0  0  0  0  0  0
  132.3200  125.2640   74.0460 C   0  0  0  0  0  0  0  0  0  0  0  0
  133.2220  126.3920   74.2980 C   0  0  0  0  0  0  0  0  0  0  0  0
  133.9330  127.2820   74.4980 N   0  0  0  0  0  0  0  0  0  0  0  0
  1  2  1  0
  2  3  2  0
  3  4  1  0
  4  5  1  0
  5  6  2  0
  6  7  1  0
  7  8  2  0
  8  9  1  0
  9 10  2  0
  4 11  2  0
 11 12  1  0
 12 13  1  0
 13 14  1  0
 14 15  1  0
 15 16  2  0
 15 17  1  0
 17 18  1  0
 18 19  2  0
 19 20  1  0
 20 21  2  0
 21 22  1  0
 22 23  2  0
 12 24  2  0
 24 25  1  0
 25 26  3  0
 24  2  1  0
 10  5  1  0
 23 18  1  0
M  END
>  <Binding energies>  (18) 
[-9.8]

>  <Ligand effiencies>  (18) 
[-0.362962962962963]

>  <Interactions>  (18) 
["V-A:HIS:456:CB:4063, V-B:HIS:456:CD2:9040, V-A:HIS:456:CG:4064, V-B:HIS:456:C:9033, V-A:LYS:547:CD:4947, H-A:LYS:547:NZ:4949, V-B:LYS:471:CE:9192, H-B:LYS:547:NZ:9923, V-B:HIS:456:CA:9035, V-A:VAL:458:CG2:4085, V-A:HIS:456:CD2:4066, V-A:LYS:471:CE:4218, V-B:VAL:457:CA:9047, V-B:HIS:456:CG:9038, V-B:VAL:457:C:9045, V-B:VAL:458:CG2:9059, V-B:LYS:547:CE:9922, V-A:HIS:456:C:4059, V-A:LYS:547:CE:4948, V-B:LYS:471:CG:9190, V-A:LYS:471:CD:4217, V-A:LYS:471:CG:4216, V-A:ASP:473:CG:4238, V-B:HIS:456:CB:9037, V-B:LYS:471:CD:9191, V-B:GLY:544:C:9884, V-B:GLY:544:CA:9886, V-B:GLU:543:C:9874, V-A:TYR:484:CB:4339, H-B:GLY:544:O:9885"]

$$$$
3be_Grossjean_2025
     RDKit          3D

 27 29  0  0  0  0  0  0  0  0999 V2000
  130.3260  134.4190   71.3660 C   0  0  0  0  0  0  0  0  0  0  0  0
  129.5940  133.4160   72.2360 C   0  0  0  0  0  0  0  0  0  0  0  0
  128.8720  133.8150   73.3640 C   0  0  0  0  0  0  0  0  0  0  0  0
  128.2260  132.8360   74.1190 C   0  0  0  0  0  0  0  0  0  0  0  0
  128.3140  131.4960   73.7320 C   0  0  0  0  0  0  0  0  0  0  0  0
  129.0510  131.1650   72.5890 C   0  0  0  0  0  0  0  0  0  0  0  0
  129.1100  129.7990   72.2590 N   0  0  0  0  0  0  0  0  0  0  0  0
  128.4640  128.7610   72.8330 C   0  0  0  0  0  0  0  0  0  0  0  0
  127.6900  128.8600   73.7870 O   0  0  0  0  0  0  0  0  0  0  0  0
  128.7610  127.3910   72.2030 C   0  0  0  0  0  0  0  0  0  0  0  0
  130.5310  126.9830   72.0300 S   0  0  0  0  0  0  0  0  0  0  0  0
  130.8410  125.4760   72.9240 C   0  0  0  0  0  0  0  0  0  0  0  0
  129.9750  124.4770   72.6210 N   0  0  0  0  0  0  0  0  0  0  0  0
  130.0970  123.2670   73.2280 C   0  0  0  0  0  0  0  0  0  0  0  0
  129.0910  122.2210   72.8480 C   0  0  0  0  0  0  0  0  0  0  0  0
  128.2440  121.6550   73.8140 C   0  0  0  0  0  0  0  0  0  0  0  0
  127.3100  120.6830   73.4680 C   0  0  0  0  0  0  0  0  0  0  0  0
  127.2100  120.2610   72.1470 C   0  0  0  0  0  0  0  0  0  0  0  0
  128.0390  120.8030   71.1710 C   0  0  0  0  0  0  0  0  0  0  0  0
  128.9720  121.7750   71.5210 C   0  0  0  0  0  0  0  0  0  0  0  0
  131.1070  123.0350   74.1680 C   0  0  0  0  0  0  0  0  0  0  0  0
  132.0230  124.0470   74.4740 C   0  0  0  0  0  0  0  0  0  0  0  0
  133.1190  123.7420   75.4940 C   0  0  0  0  0  0  0  0  0  0  0  0
  131.9070  125.3000   73.8350 C   0  0  0  0  0  0  0  0  0  0  0  0
  132.8870  126.3550   74.0990 C   0  0  0  0  0  0  0  0  0  0  0  0
  133.6640  127.1870   74.3100 N   0  0  0  0  0  0  0  0  0  0  0  0
  129.6880  132.1190   71.8480 N   0  0  0  0  0  0  0  0  0  0  0  0
  1  2  1  0
  2  3  2  0
  3  4  1  0
  4  5  2  0
  5  6  1  0
  6  7  1  0
  7  8  1  0
  8  9  2  0
  8 10  1  0
 10 11  1  0
 11 12  1  0
 12 13  2  0
 13 14  1  0
 14 15  1  0
 15 16  2  0
 16 17  1  0
 17 18  2  0
 18 19  1  0
 19 20  2  0
 14 21  2  0
 21 22  1  0
 22 23  1  0
 22 24  2  0
 24 25  1  0
 25 26  3  0
  6 27  2  0
 27  2  1  0
 24 12  1  0
 20 15  1  0
M  END
>  <Binding energies>  (19) 
[-8.89]

>  <Ligand effiencies>  (19) 
[-0.3175]

>  <Interactions>  (19) 
["V-A:HIS:456:CB:4063, V-B:HIS:456:CD2:9040, V-A:HIS:456:CG:4064, V-A:LYS:547:CD:4947, H-A:LYS:547:NZ:4949, H-B:LYS:547:NZ:9923, V-A:VAL:458:CG2:4085, V-A:HIS:456:CD2:4066, V-A:LYS:471:CE:4218, V-B:ASP:473:CG:9212, V-B:LYS:547:CE:9922, V-A:LYS:547:CE:4948, V-A:LYS:471:CD:4217, V-A:LYS:471:CG:4216, V-B:GLY:544:CA:9886, V-B:GLU:543:C:9874, V-B:GLU:543:CA:9876, V-A:TYR:484:CB:4339, V-A:TYR:484:CD1:4341, V-A:TYR:484:CG:4340, V-A:GLU:543:C:4900, V-B:TYR:484:CG:9314, V-A:GLY:544:CA:4912, H-B:HIS:456:NE2:9043, V-B:TYR:484:CB:9313, H-A:GLU:543:O:4901, H-A:GLY:544:O:4911, V-A:GLU:543:CA:4902, V-B:TYR:484:CD1:9315, H-A:GLY:544:N:4913"]

$$$$
3bf_Grossjean_2025
     RDKit          3D

 26 28  0  0  0  0  0  0  0  0999 V2000
  124.9060  130.8760   75.8300 C   0  0  0  0  0  0  0  0  0  0  0  0
  126.0670  130.6210   74.8710 C   0  0  0  0  0  0  0  0  0  0  0  0
  126.9260  131.6850   74.5780 C   0  0  0  0  0  0  0  0  0  0  0  0
  128.0110  131.4910   73.7160 C   0  0  0  0  0  0  0  0  0  0  0  0
  128.9810  132.5840   73.3800 C   0  0  0  0  0  0  0  0  0  0  0  0
  129.3850  132.8000   72.0530 C   0  0  0  0  0  0  0  0  0  0  0  0
  130.2850  133.8120   71.7340 C   0  0  0  0  0  0  0  0  0  0  0  0
  130.7960  134.6250   72.7410 C   0  0  0  0  0  0  0  0  0  0  0  0
  130.4130  134.4310   74.0630 C   0  0  0  0  0  0  0  0  0  0  0  0
  129.5130  133.4160   74.3790 C   0  0  0  0  0  0  0  0  0  0  0  0
  128.2450  130.2760   73.1530 N   0  0  0  0  0  0  0  0  0  0  0  0
  127.4070  129.2410   73.4070 C   0  0  0  0  0  0  0  0  0  0  0  0
  127.8660  127.7330   72.5810 S   0  0  0  0  0  0  0  0  0  0  0  0
  129.6830  127.7090   72.4150 C   0  0  0  0  0  0  0  0  0  0  0  0
  130.3720  126.4560   72.9770 C   0  0  0  0  0  0  0  0  0  0  0  0
  129.8220  125.3550   72.9180 O   0  0  0  0  0  0  0  0  0  0  0  0
  131.6020  126.6730   73.4910 N   0  0  0  0  0  0  0  0  0  0  0  0
  132.4850  125.7540   74.0870 C   0  0  0  0  0  0  0  0  0  0  0  0
  131.9500  124.5280   74.4960 C   0  0  0  0  0  0  0  0  0  0  0  0
  132.7770  123.5680   75.0820 C   0  0  0  0  0  0  0  0  0  0  0  0
  134.1320  123.8620   75.2390 C   0  0  0  0  0  0  0  0  0  0  0  0
  134.6800  125.0380   74.8430 N   0  0  0  0  0  0  0  0  0  0  0  0
  133.8630  125.9620   74.2740 C   0  0  0  0  0  0  0  0  0  0  0  0
  126.3040  129.3600   74.2820 C   0  0  0  0  0  0  0  0  0  0  0  0
  125.4460  128.2200   74.6140 C   0  0  0  0  0  0  0  0  0  0  0  0
  124.7660  127.3200   74.8750 N   0  0  0  0  0  0  0  0  0  0  0  0
  1  2  1  0
  2  3  2  0
  3  4  1  0
  4  5  1  0
  5  6  2  0
  6  7  1  0
  7  8  2  0
  8  9  1  0
  9 10  2  0
  4 11  2  0
 11 12  1  0
 12 13  1  0
 13 14  1  0
 14 15  1  0
 15 16  2  0
 15 17  1  0
 17 18  1  0
 18 19  2  0
 19 20  1  0
 20 21  2  0
 21 22  1  0
 22 23  2  0
 12 24  2  0
 24 25  1  0
 25 26  3  0
 24  2  1  0
 10  5  1  0
 23 18  1  0
M  END
>  <Binding energies>  (20) 
[-9.59]

>  <Ligand effiencies>  (20) 
[-0.35518518518518516]

>  <Interactions>  (20) 
["V-A:HIS:456:CB:4063, V-B:HIS:456:CD2:9040, V-A:GLY:544:C:4910, V-A:HIS:456:CG:4064, V-B:HIS:456:C:9033, V-A:LYS:547:CD:4947, H-A:LYS:547:NZ:4949, V-B:LYS:471:CE:9192, H-B:LYS:547:NZ:9923, V-A:VAL:458:CG2:4085, V-A:HIS:456:CD2:4066, V-A:LYS:471:CE:4218, V-A:VAL:457:C:4071, V-B:HIS:456:CG:9038, V-B:LYS:547:CD:9921, V-B:VAL:458:CG2:9059, V-B:ASP:473:CG:9212, V-B:LYS:547:CE:9922, V-A:HIS:456:C:4059, V-A:LYS:547:CE:4948, V-B:LYS:471:CG:9190, V-A:LYS:471:CD:4217, V-A:LYS:471:CG:4216, V-B:HIS:456:CB:9037, V-B:LYS:471:CD:9191, V-A:HIS:456:CA:4061, V-A:GLU:543:C:4900, V-A:GLY:544:CA:4912, V-B:TYR:484:CB:9313, H-A:GLY:544:O:4911, H-A:VAL:458:N:4082, H-A:VAL:457:N:4074"]

$$$$
3bg_Grossjean_2025
     RDKit          3D

 27 29  0  0  0  0  0  0  0  0999 V2000
  127.8750  123.2090   54.4560 C   0  0  0  0  0  0  0  0  0  0  0  0
  128.1730  123.9250   55.7720 C   0  0  0  0  0  0  0  0  0  0  0  0
  127.2920  123.7360   56.8420 C   0  0  0  0  0  0  0  0  0  0  0  0
  127.5320  124.3670   58.0700 C   0  0  0  0  0  0  0  0  0  0  0  0
  126.6320  124.1970   59.2620 C   0  0  0  0  0  0  0  0  0  0  0  0
  127.1550  124.1720   60.5660 C   0  0  0  0  0  0  0  0  0  0  0  0
  126.3230  124.0330   61.6740 C   0  0  0  0  0  0  0  0  0  0  0  0
  124.9490  123.9120   61.4950 C   0  0  0  0  0  0  0  0  0  0  0  0
  124.4050  123.9210   60.2160 C   0  0  0  0  0  0  0  0  0  0  0  0
  125.2410  124.0590   59.1110 C   0  0  0  0  0  0  0  0  0  0  0  0
  128.6290  125.1530   58.2390 N   0  0  0  0  0  0  0  0  0  0  0  0
  129.4960  125.3450   57.2110 C   0  0  0  0  0  0  0  0  0  0  0  0
  130.9120  126.3710   57.5750 S   0  0  0  0  0  0  0  0  0  0  0  0
  132.3760  125.6210   56.7900 C   0  0  0  0  0  0  0  0  0  0  0  0
  133.0600  124.6060   57.7100 C   0  0  0  0  0  0  0  0  0  0  0  0
  133.9940  123.9250   57.2860 O   0  0  0  0  0  0  0  0  0  0  0  0
  132.5670  124.5020   58.9560 N   0  0  0  0  0  0  0  0  0  0  0  0
  132.9420  123.4810   59.9350 C   0  0  0  0  0  0  0  0  0  0  0  0
  131.8120  122.4870   60.1780 C   0  0  0  0  0  0  0  0  0  0  0  0
  132.1030  121.1390   60.4110 C   0  0  0  0  0  0  0  0  0  0  0  0
  131.0710  120.2300   60.6230 C   0  0  0  0  0  0  0  0  0  0  0  0
  129.7490  120.6730   60.6140 C   0  0  0  0  0  0  0  0  0  0  0  0
  129.4520  122.0170   60.4030 C   0  0  0  0  0  0  0  0  0  0  0  0
  130.4860  122.9270   60.1900 C   0  0  0  0  0  0  0  0  0  0  0  0
  129.3020  124.7530   55.9460 C   0  0  0  0  0  0  0  0  0  0  0  0
  130.2460  124.9640   54.8460 C   0  0  0  0  0  0  0  0  0  0  0  0
  130.9910  125.1300   53.9770 N   0  0  0  0  0  0  0  0  0  0  0  0
  1  2  1  0
  2  3  2  0
  3  4  1  0
  4  5  1  0
  5  6  2  0
  6  7  1  0
  7  8  2  0
  8  9  1  0
  9 10  2  0
  4 11  2  0
 11 12  1  0
 12 13  1  0
 13 14  1  0
 14 15  1  0
 15 16  2  0
 15 17  1  0
 17 18  1  0
 18 19  1  0
 19 20  2  0
 20 21  1  0
 21 22  2  0
 22 23  1  0
 23 24  2  0
 12 25  2  0
 25 26  1  0
 26 27  3  0
 25  2  1  0
 10  5  1  0
 24 19  1  0
M  END
>  <Binding energies>  (21) 
[-8.32]

>  <Ligand effiencies>  (21) 
[-0.29714285714285715]

>  <Interactions>  (21) 
["V-B:ALA:541:CB:9864, V-B:GLU:543:CD:9880, V-B:TYR:539:CD2:9846, V-B:PRO:540:CA:9855, V-B:TYR:539:CZ:9849, V-B:TYR:539:CE2:9848, V-A:ASP:366:CG:3211, V-B:ILE:538:CA:9832, V-B:PRO:540:CB:9857, V-B:TYR:539:C:9839, V-B:TYR:539:CE1:9847, V-B:TYR:539:CD1:9845, V-B:ASN:362:CB:8148, V-A:LEU:475:CD2:4257, V-A:TRP:381:CZ2:3368, V-A:TRP:381:CH2:3370, V-A:ASP:366:CB:3210, H-A:ASP:366:OD1:3212, V-B:ILE:538:C:9830, H-A:ASN:370:ND2:3246, H-B:TYR:539:OH:9850, V-A:ASP:366:CA:3208, V-A:TYR:531:CE1:4790"]

$$$$
3ca_Grossjean_2025
     RDKit          3D

 31 33  0  0  0  0  0  0  0  0999 V2000
  133.6750  131.7980   56.8680 C   0  0  0  0  0  0  0  0  0  0  0  0
  132.6750  132.0550   55.7370 C   0  0  0  0  0  0  0  0  0  0  0  0
  131.5740  132.8030   56.2390 O   0  0  0  0  0  0  0  0  0  0  0  0
  130.4000  132.1990   56.5530 C   0  0  0  0  0  0  0  0  0  0  0  0
  129.3130  132.5310   56.0700 O   0  0  0  0  0  0  0  0  0  0  0  0
  130.5550  131.0790   57.5430 C   0  0  0  0  0  0  0  0  0  0  0  0
  130.8700  129.7960   57.0800 C   0  0  0  0  0  0  0  0  0  0  0  0
  131.0200  128.7380   57.9720 C   0  0  0  0  0  0  0  0  0  0  0  0
  130.8490  128.9390   59.3430 C   0  0  0  0  0  0  0  0  0  0  0  0
  131.0240  127.8030   60.1560 N   0  0  0  0  0  0  0  0  0  0  0  0
  130.1010  126.9710   60.6850 C   0  0  0  0  0  0  0  0  0  0  0  0
  128.8850  127.0600   60.5200 O   0  0  0  0  0  0  0  0  0  0  0  0
  130.6620  125.8260   61.5340 C   0  0  0  0  0  0  0  0  0  0  0  0
  130.5490  124.2010   60.7130 S   0  0  0  0  0  0  0  0  0  0  0  0
  129.6950  124.3680   59.1510 C   0  0  0  0  0  0  0  0  0  0  0  0
  130.4510  124.7990   58.1100 N   0  0  0  0  0  0  0  0  0  0  0  0
  129.8760  124.9280   56.8950 C   0  0  0  0  0  0  0  0  0  0  0  0
  130.7910  125.3960   55.7800 C   0  0  0  0  0  0  0  0  0  0  0  0
  128.5300  124.6520   56.6700 C   0  0  0  0  0  0  0  0  0  0  0  0
  127.7230  124.2240   57.7320 C   0  0  0  0  0  0  0  0  0  0  0  0
  126.2820  123.9530   57.4460 C   0  0  0  0  0  0  0  0  0  0  0  0
  125.9200  123.1530   56.3550 C   0  0  0  0  0  0  0  0  0  0  0  0
  124.5790  122.9020   56.0750 C   0  0  0  0  0  0  0  0  0  0  0  0
  123.5920  123.4560   56.8860 C   0  0  0  0  0  0  0  0  0  0  0  0
  123.9340  124.2600   57.9710 C   0  0  0  0  0  0  0  0  0  0  0  0
  125.2760  124.5090   58.2470 C   0  0  0  0  0  0  0  0  0  0  0  0
  128.3190  124.0670   59.0100 C   0  0  0  0  0  0  0  0  0  0  0  0
  127.5370  123.5730   60.1480 C   0  0  0  0  0  0  0  0  0  0  0  0
  126.9190  123.1830   61.0450 N   0  0  0  0  0  0  0  0  0  0  0  0
  130.5410  130.2230   59.8160 C   0  0  0  0  0  0  0  0  0  0  0  0
  130.3940  131.2810   58.9220 C   0  0  0  0  0  0  0  0  0  0  0  0
  1  2  1  0
  2  3  1  0
  3  4  1  0
  4  5  2  0
  4  6  1  0
  6  7  2  0
  7  8  1  0
  8  9  2  0
  9 10  1  0
 10 11  1  0
 11 12  2  0
 11 13  1  0
 13 14  1  0
 14 15  1  0
 15 16  2  0
 16 17  1  0
 17 18  1  0
 17 19  2  0
 19 20  1  0
 20 21  1  0
 21 22  2  0
 22 23  1  0
 23 24  2  0
 24 25  1  0
 25 26  2  0
 20 27  2  0
 27 28  1  0
 28 29  3  0
  9 30  1  0
 30 31  2  0
 31  6  1  0
 27 15  1  0
 26 21  1  0
M  END
>  <Binding energies>  (22) 
[-9.18]

>  <Ligand effiencies>  (22) 
[-0.286875]

>  <Interactions>  (22) 
["V-B:ASP:366:CG:8185, V-B:PRO:540:CA:9855, V-B:TYR:539:CZ:9849, H-B:ALA:541:N:9863, V-B:TYR:539:CE2:9848, V-A:ASP:366:CG:3211, H-A:ASP:366:OD2:3213, V-A:PRO:540:CA:4881, V-A:PRO:540:N:4882, V-A:TYR:539:C:4865, V-A:PRO:540:CB:4883, V-B:PRO:540:CB:9857, V-B:PRO:540:CD:9859, V-B:PRO:540:N:9856, V-B:TYR:539:C:9839, V-B:ILE:538:CB:9834, V-B:ILE:538:CG2:9835, V-A:LEU:363:CA:3183, V-A:PRO:540:CD:4885, V-A:ILE:538:CB:4860, V-A:PRO:540:CG:4884, V-A:ILE:538:CG2:4861, V-A:LEU:363:CD1:3187, V-A:TYR:531:CE2:4791, V-A:LEU:363:CB:3185, H-A:TYR:539:N:4868, H-A:ASP:366:OD1:3212, V-B:LEU:363:CA:8157, V-B:LEU:363:CD1:8161, V-B:LEU:363:CB:8159, V-B:PRO:540:CG:9858, V-B:TYR:531:CE2:9765, V-A:TYR:531:CZ:4792"]

$$$$
3ce_Grossjean_2025
     RDKit          3D

 27 29  0  0  0  0  0  0  0  0999 V2000
  123.4940  129.9230   66.7480 C   0  0  0  0  0  0  0  0  0  0  0  0
  124.4850  129.8510   65.6010 C   0  0  0  0  0  0  0  0  0  0  0  0
  125.8260  129.5230   65.8140 C   0  0  0  0  0  0  0  0  0  0  0  0
  126.6780  129.4660   64.7110 C   0  0  0  0  0  0  0  0  0  0  0  0
  126.1760  129.7350   63.4360 C   0  0  0  0  0  0  0  0  0  0  0  0
  124.8240  130.0680   63.2950 C   0  0  0  0  0  0  0  0  0  0  0  0
  124.3700  130.3110   61.9870 N   0  0  0  0  0  0  0  0  0  0  0  0
  124.1080  131.5000   61.4000 C   0  0  0  0  0  0  0  0  0  0  0  0
  124.2390  132.5990   61.9420 O   0  0  0  0  0  0  0  0  0  0  0  0
  123.6240  131.4320   59.9520 C   0  0  0  0  0  0  0  0  0  0  0  0
  124.6000  130.2600   58.9640 S   0  0  0  0  0  0  0  0  0  0  0  0
  126.1810  131.0350   58.7170 C   0  0  0  0  0  0  0  0  0  0  0  0
  126.5990  131.7810   59.7690 N   0  0  0  0  0  0  0  0  0  0  0  0
  127.8000  132.3990   59.6870 C   0  0  0  0  0  0  0  0  0  0  0  0
  128.2120  133.2050   60.9040 C   0  0  0  0  0  0  0  0  0  0  0  0
  128.6130  132.3110   58.5600 C   0  0  0  0  0  0  0  0  0  0  0  0
  128.1860  131.5660   57.4530 C   0  0  0  0  0  0  0  0  0  0  0  0
  129.0820  131.5220   56.2580 C   0  0  0  0  0  0  0  0  0  0  0  0
  128.5530  131.7100   54.9750 C   0  0  0  0  0  0  0  0  0  0  0  0
  129.3800  131.6640   53.8560 C   0  0  0  0  0  0  0  0  0  0  0  0
  130.7420  131.4220   54.0140 C   0  0  0  0  0  0  0  0  0  0  0  0
  131.2820  131.2230   55.2820 C   0  0  0  0  0  0  0  0  0  0  0  0
  130.4530  131.2700   56.3990 C   0  0  0  0  0  0  0  0  0  0  0  0
  126.9360  130.9030   57.5280 C   0  0  0  0  0  0  0  0  0  0  0  0
  126.4440  130.0970   56.4060 C   0  0  0  0  0  0  0  0  0  0  0  0
  126.0560  129.4610   55.5200 N   0  0  0  0  0  0  0  0  0  0  0  0
  123.9820  130.1190   64.3690 N   0  0  0  0  0  0  0  0  0  0  0  0
  1  2  1  0
  2  3  2  0
  3  4  1  0
  4  5  2  0
  5  6  1  0
  6  7  1  0
  7  8  1  0
  8  9  2  0
  8 10  1  0
 10 11  1  0
 11 12  1  0
 12 13  2  0
 13 14  1  0
 14 15  1  0
 14 16  2  0
 16 17  1  0
 17 18  1  0
 18 19  2  0
 19 20  1  0
 20 21  2  0
 21 22  1  0
 22 23  2  0
 17 24  2  0
 24 25  1  0
 25 26  3  0
  6 27  2  0
 27  2  1  0
 24 12  1  0
 23 18  1  0
M  END
>  <Binding energies>  (23) 
[-9.65]

>  <Ligand effiencies>  (23) 
[-0.34464285714285714]

>  <Interactions>  (23) 
["V-B:ASP:366:CG:8185, H-B:ASP:366:OD2:8187, V-B:ARG:545:CZ:9898, V-A:TYR:539:CD2:4872, V-A:TYR:539:CE2:4874, V-A:GLU:543:CD:4906, V-A:TYR:539:CZ:4875, V-A:ALA:541:CB:4890, V-A:TYR:539:CD1:4871, V-A:TYR:539:CG:4870, V-A:TYR:539:CE1:4873, V-B:ILE:369:CG2:8209, V-A:TYR:539:C:4865, H-B:TYR:531:OH:9767, H-B:TYR:484:OH:9320, V-B:HIS:456:CE1:9042, V-A:ILE:538:CB:4860, V-A:ILE:538:CG2:4861, V-A:TYR:531:CE2:4791, V-B:ARG:545:CG:9894, H-B:ARG:545:NE:9896, V-B:ILE:369:CD1:8211, V-B:ILE:369:CB:8208, V-B:ARG:545:CD:9895, H-B:GLY:454:N:9022, H-B:ASP:366:OD1:8186, V-A:MET:535:CG:4831, V-A:ILE:538:CA:4858, H-A:TYR:539:OH:4876, V-A:MET:535:CB:4830, V-A:TYR:531:CZ:4792, H-B:ARG:545:NH1:9899, V-B:GLY:454:CA:9021, V-B:GLY:453:C:9014, V-B:GLY:453:CA:9016, V-B:ILE:455:C:9024, V-B:ARG:545:CB:9893"]

$$$$
3cj_Grossjean_2025
     RDKit          3D

 25 27  0  0  0  0  0  0  0  0999 V2000
  127.7410  132.6830   60.7580 C   0  0  0  0  0  0  0  0  0  0  0  0
  128.1420  132.1230   59.4070 C   0  0  0  0  0  0  0  0  0  0  0  0
  129.4620  132.1640   58.9640 C   0  0  0  0  0  0  0  0  0  0  0  0
  129.7920  131.6130   57.7170 C   0  0  0  0  0  0  0  0  0  0  0  0
  131.2280  131.6200   57.3120 C   0  0  0  0  0  0  0  0  0  0  0  0
  132.2000  131.0320   58.1290 C   0  0  0  0  0  0  0  0  0  0  0  0
  133.5420  131.0520   57.7560 C   0  0  0  0  0  0  0  0  0  0  0  0
  133.9160  131.6660   56.5650 C   0  0  0  0  0  0  0  0  0  0  0  0
  132.9620  132.2630   55.7460 C   0  0  0  0  0  0  0  0  0  0  0  0
  131.6200  132.2430   56.1210 C   0  0  0  0  0  0  0  0  0  0  0  0
  128.7530  131.0580   56.9300 C   0  0  0  0  0  0  0  0  0  0  0  0
  129.0300  130.4930   55.6050 C   0  0  0  0  0  0  0  0  0  0  0  0
  129.2490  130.0450   54.5600 N   0  0  0  0  0  0  0  0  0  0  0  0
  127.4430  131.0550   57.4600 C   0  0  0  0  0  0  0  0  0  0  0  0
  126.0730  130.2720   56.6350 S   0  0  0  0  0  0  0  0  0  0  0  0
  124.9240  129.8130   57.9720 C   0  0  0  0  0  0  0  0  0  0  0  0
  124.2680  131.0430   58.6080 C   0  0  0  0  0  0  0  0  0  0  0  0
  123.2770  131.5460   58.0750 O   0  0  0  0  0  0  0  0  0  0  0  0
  124.8290  131.4660   59.7610 N   0  0  0  0  0  0  0  0  0  0  0  0
  124.3510  132.4630   60.5960 C   0  0  0  0  0  0  0  0  0  0  0  0
  124.2640  133.7520   60.3490 N   0  0  0  0  0  0  0  0  0  0  0  0
  123.7290  134.4030   61.3630 C   0  0  0  0  0  0  0  0  0  0  0  0
  123.3710  133.6370   62.4680 C   0  0  0  0  0  0  0  0  0  0  0  0
  123.7600  131.9720   62.1520 S   0  0  0  0  0  0  0  0  0  0  0  0
  127.1460  131.5690   58.6800 N   0  0  0  0  0  0  0  0  0  0  0  0
  1  2  1  0
  2  3  2  0
  3  4  1  0
  4  5  1  0
  5  6  2  0
  6  7  1  0
  7  8  2  0
  8  9  1  0
  9 10  2  0
  4 11  2  0
 11 12  1  0
 12 13  3  0
 11 14  1  0
 14 15  1  0
 15 16  1  0
 16 17  1  0
 17 18  2  0
 17 19  1  0
 19 20  1  0
 20 21  2  0
 21 22  1  0
 22 23  2  0
 23 24  1  0
 14 25  2  0
 25  2  1  0
 10  5  1  0
 24 20  1  0
M  END
>  <Binding energies>  (24) 
[-8.34]

>  <Ligand effiencies>  (24) 
[-0.32076923076923075]

>  <Interactions>  (24) 
["V-B:ASP:366:CG:8185, V-A:TYR:539:CD2:4872, V-A:TYR:539:CE2:4874, V-A:ASP:366:CG:3211, V-A:TYR:539:CZ:4875, V-A:PRO:540:CA:4881, V-A:ALA:541:CB:4890, V-B:LEU:475:CD2:9231, V-A:PRO:540:N:4882, V-B:ILE:369:CG2:8209, V-A:TYR:539:C:4865, V-A:PRO:540:CB:4883, V-A:LEU:363:CA:3183, V-A:PRO:540:CD:4885, V-A:ILE:538:CB:4860, V-A:ILE:538:CG2:4861, V-A:LEU:363:CD1:3187, V-A:TYR:531:CE2:4791, V-A:LEU:363:CB:3185, V-B:ASP:366:CB:8184, V-B:ASP:366:CA:8182, V-B:ILE:369:CD1:8211, V-A:ILE:538:CA:4858, H-A:TYR:539:OH:4876, V-A:TYR:531:CZ:4792, V-B:GLY:454:CA:9021"]

$$$$
4ba_Grossjean_2025
     RDKit          3D

 28 30  0  0  0  0  0  0  0  0999 V2000
  130.0790  127.2880   72.6670 C   0  0  0  0  0  0  0  0  0  0  0  0
  129.3110  128.4610   72.0290 C   0  0  0  0  0  0  0  0  0  0  0  0
  128.3620  128.0730   70.8770 C   0  0  0  0  0  0  0  0  0  0  0  0
  127.1430  128.1020   71.0580 O   0  0  0  0  0  0  0  0  0  0  0  0
  128.9810  127.6770   69.5680 C   0  0  0  0  0  0  0  0  0  0  0  0
  128.1530  127.2970   68.5030 C   0  0  0  0  0  0  0  0  0  0  0  0
  128.7000  126.9230   67.2790 C   0  0  0  0  0  0  0  0  0  0  0  0
  130.0830  126.9260   67.0910 C   0  0  0  0  0  0  0  0  0  0  0  0
  130.5280  126.5220   65.8180 N   0  0  0  0  0  0  0  0  0  0  0  0
  131.6650  125.8780   65.4550 C   0  0  0  0  0  0  0  0  0  0  0  0
  132.5610  125.5620   66.2390 O   0  0  0  0  0  0  0  0  0  0  0  0
  131.7880  125.5860   64.0250 C   0  0  0  0  0  0  0  0  0  0  0  0
  133.1900  124.7080   63.4180 S   0  0  0  0  0  0  0  0  0  0  0  0
  132.6140  124.8340   61.7730 C   0  0  0  0  0  0  0  0  0  0  0  0
  133.3020  124.3170   60.7550 N   0  0  0  0  0  0  0  0  0  0  0  0
  132.7570  124.4790   59.5270 C   0  0  0  0  0  0  0  0  0  0  0  0
  133.5620  123.8910   58.3820 C   0  0  0  0  0  0  0  0  0  0  0  0
  131.5510  125.1330   59.2960 C   0  0  0  0  0  0  0  0  0  0  0  0
  130.8210  125.6790   60.3640 C   0  0  0  0  0  0  0  0  0  0  0  0
  129.4970  126.3890   60.0600 C   0  0  0  0  0  0  0  0  0  0  0  0
  128.4550  125.8390   60.6850 F   0  0  0  0  0  0  0  0  0  0  0  0
  129.5670  127.6630   60.4460 F   0  0  0  0  0  0  0  0  0  0  0  0
  129.2500  126.3380   58.7510 F   0  0  0  0  0  0  0  0  0  0  0  0
  131.3720  125.5320   61.6720 C   0  0  0  0  0  0  0  0  0  0  0  0
  130.9290  125.9580   62.9780 C   0  0  0  0  0  0  0  0  0  0  0  0
  129.7680  126.6630   63.1720 N   0  0  0  0  0  0  0  0  0  0  0  0
  130.9190  127.2990   68.1540 C   0  0  0  0  0  0  0  0  0  0  0  0
  130.3700  127.6710   69.3790 C   0  0  0  0  0  0  0  0  0  0  0  0
  1  2  1  0
  2  3  1  0
  3  4  2  0
  3  5  1  0
  5  6  2  0
  6  7  1  0
  7  8  2  0
  8  9  1  0
  9 10  1  0
 10 11  2  0
 10 12  1  0
 12 13  1  0
 13 14  1  0
 14 15  2  0
 15 16  1  0
 16 17  1  0
 16 18  2  0
 18 19  1  0
 19 20  1  0
 20 21  1  0
 20 22  1  0
 20 23  1  0
 19 24  2  0
 24 25  1  0
 25 26  1  0
  8 27  1  0
 27 28  2  0
 28  5  1  0
 25 12  2  0
 24 14  1  0
M  END
>  <Binding energies>  (25) 
[-7.1]

>  <Ligand effiencies>  (25) 
[-0.22903225806451613]

>  <Interactions>  (25) 
["V-A:HIS:456:CE1:4068, H-B:GLU:543:OE1:9881, V-A:ARG:545:CZ:4924, V-B:GLU:543:CD:9880, V-B:GLU:543:CB:9878, V-B:TYR:539:CZ:9849, H-B:GLU:543:OE2:9882, V-B:TYR:539:CE2:9848, H-A:GLU:543:OE2:4908, H-A:GLU:543:OE1:4907, V-A:ASP:366:CG:3211, V-A:GLU:543:CD:4906, V-B:HIS:456:CD2:9040, V-A:GLY:544:C:4910, H-A:HIS:456:ND1:4065, V-A:LYS:547:CE:4948, H-B:HIS:456:ND1:9039, V-B:GLU:543:C:9874, V-B:HIS:456:CE1:9042, V-A:GLU:543:C:4900, V-A:GLU:543:CG:4905, V-B:GLU:543:CG:9879, H-A:TYR:484:OH:4346, V-A:ARG:545:CD:4921, V-A:ARG:545:CG:4920, H-A:ARG:545:NE:4922, V-A:GLY:544:CA:4912, V-A:ASP:366:CB:3210, V-A:ILE:369:CG2:3235, V-A:ILE:369:CB:3234, V-A:ASP:366:CA:3208"]

$$$$
4bb_Grossjean_2025
     RDKit          3D

 27 29  0  0  0  0  0  0  0  0999 V2000
  129.4980  128.5130   72.0450 C   0  0  0  0  0  0  0  0  0  0  0  0
  128.3880  128.0880   71.0820 C   0  0  0  0  0  0  0  0  0  0  0  0
  127.2270  128.0960   71.4950 O   0  0  0  0  0  0  0  0  0  0  0  0
  128.7710  127.6750   69.6930 C   0  0  0  0  0  0  0  0  0  0  0  0
  130.1030  127.3370   69.4190 C   0  0  0  0  0  0  0  0  0  0  0  0
  130.4850  126.9510   68.1380 C   0  0  0  0  0  0  0  0  0  0  0  0
  129.5450  126.8880   67.1080 C   0  0  0  0  0  0  0  0  0  0  0  0
  130.0410  126.4880   65.8510 N   0  0  0  0  0  0  0  0  0  0  0  0
  130.6430  125.3320   65.4790 C   0  0  0  0  0  0  0  0  0  0  0  0
  130.8890  124.4030   66.2470 O   0  0  0  0  0  0  0  0  0  0  0  0
  131.0280  125.2550   64.0670 C   0  0  0  0  0  0  0  0  0  0  0  0
  132.3060  124.1560   63.5560 S   0  0  0  0  0  0  0  0  0  0  0  0
  132.1630  124.6860   61.8960 C   0  0  0  0  0  0  0  0  0  0  0  0
  132.9300  124.1750   60.9340 N   0  0  0  0  0  0  0  0  0  0  0  0
  132.7270  124.6660   59.6900 C   0  0  0  0  0  0  0  0  0  0  0  0
  133.6100  124.0690   58.6090 C   0  0  0  0  0  0  0  0  0  0  0  0
  131.7860  125.6460   59.3870 C   0  0  0  0  0  0  0  0  0  0  0  0
  130.9750  126.1870   60.3960 C   0  0  0  0  0  0  0  0  0  0  0  0
  129.9530  127.2630   60.0150 C   0  0  0  0  0  0  0  0  0  0  0  0
  129.9710  127.5630   58.7140 F   0  0  0  0  0  0  0  0  0  0  0  0
  128.7230  126.8420   60.3110 F   0  0  0  0  0  0  0  0  0  0  0  0
  130.2070  128.3860   60.6870 F   0  0  0  0  0  0  0  0  0  0  0  0
  131.1630  125.6920   61.7220 C   0  0  0  0  0  0  0  0  0  0  0  0
  130.5350  125.9990   62.9820 C   0  0  0  0  0  0  0  0  0  0  0  0
  129.5380  126.9330   63.1050 N   0  0  0  0  0  0  0  0  0  0  0  0
  128.2110  127.2320   67.3730 C   0  0  0  0  0  0  0  0  0  0  0  0
  127.8300  127.6200   68.6550 C   0  0  0  0  0  0  0  0  0  0  0  0
  1  2  1  0
  2  3  2  0
  2  4  1  0
  4  5  2  0
  5  6  1  0
  6  7  2  0
  7  8  1  0
  8  9  1  0
  9 10  2  0
  9 11  1  0
 11 12  1  0
 12 13  1  0
 13 14  2  0
 14 15  1  0
 15 16  1  0
 15 17  2  0
 17 18  1  0
 18 19  1  0
 19 20  1  0
 19 21  1  0
 19 22  1  0
 18 23  2  0
 23 24  1  0
 24 25  1  0
  7 26  1  0
 26 27  2  0
 27  4  1  0
 24 11  2  0
 23 13  1  0
M  END
>  <Binding energies>  (26) 
[-6.78]

>  <Ligand effiencies>  (26) 
[-0.226]

>  <Interactions>  (26) 
["V-A:HIS:456:CE1:4068, H-B:GLU:543:OE1:9881, V-B:GLU:543:CD:9880, V-B:GLU:543:CB:9878, H-B:GLU:543:OE2:9882, V-B:TYR:539:CE2:9848, H-A:GLU:543:OE2:4908, H-A:GLU:543:OE1:4907, V-A:ASP:366:CG:3211, V-A:GLU:543:CD:4906, V-B:HIS:456:CD2:9040, V-A:GLY:544:C:4910, V-A:LYS:547:CE:4948, H-B:HIS:456:ND1:9039, V-B:HIS:456:CE1:9042, V-A:GLU:543:C:4900, V-A:GLU:543:CG:4905, V-B:GLU:543:CG:9879, H-A:TYR:484:OH:4346, V-A:GLY:544:CA:4912, V-A:ASP:366:CB:3210, V-A:ILE:369:CG2:3235, V-A:ASP:366:CA:3208"]

$$$$
4bd_Grossjean_2025
     RDKit          3D

 24 26  0  0  0  0  0  0  0  0999 V2000
  132.3820  137.9690   70.7650 C   0  0  0  0  0  0  0  0  0  0  0  0
  131.6190  137.0820   71.7320 C   0  0  0  0  0  0  0  0  0  0  0  0
  131.4010  137.4760   73.0490 C   0  0  0  0  0  0  0  0  0  0  0  0
  130.6960  136.6450   73.9330 C   0  0  0  0  0  0  0  0  0  0  0  0
  130.4840  137.1200   75.3740 C   0  0  0  0  0  0  0  0  0  0  0  0
  131.0300  136.3030   76.2780 F   0  0  0  0  0  0  0  0  0  0  0  0
  131.0340  138.3220   75.5400 F   0  0  0  0  0  0  0  0  0  0  0  0
  129.1800  137.1910   75.6390 F   0  0  0  0  0  0  0  0  0  0  0  0
  130.2210  135.4010   73.4210 C   0  0  0  0  0  0  0  0  0  0  0  0
  129.4770  134.3150   74.0120 C   0  0  0  0  0  0  0  0  0  0  0  0
  129.0610  134.3290   75.3170 N   0  0  0  0  0  0  0  0  0  0  0  0
  129.2200  133.2500   73.1320 C   0  0  0  0  0  0  0  0  0  0  0  0
  128.5130  131.9940   73.4020 C   0  0  0  0  0  0  0  0  0  0  0  0
  128.9610  130.9220   72.9940 O   0  0  0  0  0  0  0  0  0  0  0  0
  127.3720  132.1130   74.1250 N   0  0  0  0  0  0  0  0  0  0  0  0
  126.4520  131.1220   74.5130 C   0  0  0  0  0  0  0  0  0  0  0  0
  126.7450  129.8180   74.1010 C   0  0  0  0  0  0  0  0  0  0  0  0
  125.9010  128.7660   74.4430 C   0  0  0  0  0  0  0  0  0  0  0  0
  124.7640  129.0140   75.2070 C   0  0  0  0  0  0  0  0  0  0  0  0
  124.4670  130.3060   75.6360 C   0  0  0  0  0  0  0  0  0  0  0  0
  125.3090  131.3610   75.2940 C   0  0  0  0  0  0  0  0  0  0  0  0
  129.8910  133.5660   71.5340 S   0  0  0  0  0  0  0  0  0  0  0  0
  130.5120  135.1160   72.0510 C   0  0  0  0  0  0  0  0  0  0  0  0
  131.1820  135.9090   71.2160 N   0  0  0  0  0  0  0  0  0  0  0  0
  1  2  1  0
  2  3  2  0
  3  4  1  0
  4  5  1  0
  5  6  1  0
  5  7  1  0
  5  8  1  0
  4  9  2  0
  9 10  1  0
 10 11  1  0
 10 12  2  0
 12 13  1  0
 13 14  2  0
 13 15  1  0
 15 16  1  0
 16 17  2  0
 17 18  1  0
 18 19  2  0
 19 20  1  0
 20 21  2  0
 12 22  1  0
 22 23  1  0
 23 24  2  0
 24  2  1  0
 23  9  1  0
 21 16  1  0
M  END
>  <Binding energies>  (27) 
[-6.9]

>  <Ligand effiencies>  (27) 
[-0.2555555555555556]

>  <Interactions>  (27) 
["V-B:HIS:456:CD2:9040, V-B:HIS:456:C:9033, H-A:LYS:547:NZ:4949, V-B:LYS:471:CE:9192, V-B:HIS:456:CG:9038, V-B:VAL:457:C:9045, V-B:VAL:458:CG2:9059, V-B:ASP:473:CG:9212, V-A:LYS:547:CE:4948, V-B:HIS:456:CB:9037, V-B:LYS:471:CD:9191, V-A:GLU:543:C:4900, V-B:TYR:484:CG:9314, V-A:GLY:544:CA:4912, V-B:TYR:484:CB:9313, V-A:GLU:543:CA:4902, V-B:TYR:484:CD1:9315, H-B:ASP:473:OD2:9214, H-B:TYR:484:N:9312, V-A:VAL:542:CG1:4897, V-B:SER:483:CB:9305"]

$$$$
4be_Grossjean_2025
     RDKit          3D

 25 27  0  0  0  0  0  0  0  0999 V2000
  126.5940  127.6780   74.2120 C   0  0  0  0  0  0  0  0  0  0  0  0
  126.2460  129.1130   74.5590 C   0  0  0  0  0  0  0  0  0  0  0  0
  125.0960  129.4290   75.2870 C   0  0  0  0  0  0  0  0  0  0  0  0
  124.8370  130.7710   75.5690 C   0  0  0  0  0  0  0  0  0  0  0  0
  125.7230  131.7530   75.1200 C   0  0  0  0  0  0  0  0  0  0  0  0
  126.8600  131.3670   74.4010 C   0  0  0  0  0  0  0  0  0  0  0  0
  127.7080  132.4040   73.9720 N   0  0  0  0  0  0  0  0  0  0  0  0
  128.7840  132.3390   73.1490 C   0  0  0  0  0  0  0  0  0  0  0  0
  129.1870  131.2970   72.6270 O   0  0  0  0  0  0  0  0  0  0  0  0
  129.4800  133.6080   72.9210 C   0  0  0  0  0  0  0  0  0  0  0  0
  130.2200  133.9440   71.3570 S   0  0  0  0  0  0  0  0  0  0  0  0
  130.8010  135.4950   71.9150 C   0  0  0  0  0  0  0  0  0  0  0  0
  131.4970  136.3030   71.1170 N   0  0  0  0  0  0  0  0  0  0  0  0
  131.8920  137.4790   71.6600 C   0  0  0  0  0  0  0  0  0  0  0  0
  132.6860  138.3840   70.7360 C   0  0  0  0  0  0  0  0  0  0  0  0
  131.6060  137.8610   72.9680 C   0  0  0  0  0  0  0  0  0  0  0  0
  130.8730  137.0140   73.8130 C   0  0  0  0  0  0  0  0  0  0  0  0
  130.5810  137.4790   75.2440 C   0  0  0  0  0  0  0  0  0  0  0  0
  131.1290  138.6630   75.5290 F   0  0  0  0  0  0  0  0  0  0  0  0
  129.2650  137.5980   75.4200 F   0  0  0  0  0  0  0  0  0  0  0  0
  131.0640  136.5940   76.1140 F   0  0  0  0  0  0  0  0  0  0  0  0
  130.4460  135.7640   73.2730 C   0  0  0  0  0  0  0  0  0  0  0  0
  129.6990  134.6600   73.8240 C   0  0  0  0  0  0  0  0  0  0  0  0
  129.2390  134.6490   75.1160 N   0  0  0  0  0  0  0  0  0  0  0  0
  127.1170  130.0560   74.1180 N   0  0  0  0  0  0  0  0  0  0  0  0
  1  2  1  0
  2  3  2  0
  3  4  1  0
  4  5  2  0
  5  6  1  0
  6  7  1  0
  7  8  1  0
  8  9  2  0
  8 10  1  0
 10 11  1  0
 11 12  1  0
 12 13  2  0
 13 14  1  0
 14 15  1  0
 14 16  2  0
 16 17  1  0
 17 18  1  0
 18 19  1  0
 18 20  1  0
 18 21  1  0
 17 22  2  0
 22 23  1  0
 23 24  1  0
  6 25  2  0
 25  2  1  0
 23 10  2  0
 22 12  1  0
M  END
>  <Binding energies>  (28) 
[-6.87]

>  <Ligand effiencies>  (28) 
[-0.24535714285714286]

>  <Interactions>  (28) 
["V-B:HIS:456:CD2:9040, V-B:HIS:456:C:9033, H-A:LYS:547:NZ:4949, V-B:LYS:471:CE:9192, V-B:HIS:456:CG:9038, V-B:LYS:547:CD:9921, V-B:VAL:458:CG2:9059, V-B:ASP:473:CG:9212, V-B:LYS:547:CE:9922, V-A:LYS:547:CE:4948, V-B:LYS:471:CG:9190, V-B:HIS:456:CB:9037, V-B:LYS:471:CD:9191, V-B:GLY:544:C:9884, V-B:ASP:473:CB:9211, V-A:GLU:543:C:4900, V-B:TYR:484:CG:9314, V-A:GLY:544:CA:4912, V-B:LYS:547:CG:9920, V-B:TYR:484:CB:9313, V-A:GLU:543:CA:4902, V-B:TYR:484:CD1:9315, H-B:ASP:473:OD2:9214, H-B:TYR:484:N:9312, V-A:VAL:542:CG1:4897, V-B:SER:483:CB:9305, V-B:PRO:486:CD:9338"]

$$$$
4bg_Grossjean_2025
     RDKit          3D

 25 27  0  0  0  0  0  0  0  0999 V2000
  134.2510  120.1200   60.6580 C   0  0  0  0  0  0  0  0  0  0  0  0
  133.2250  121.2060   60.9290 C   0  0  0  0  0  0  0  0  0  0  0  0
  133.5830  122.3850   61.5770 C   0  0  0  0  0  0  0  0  0  0  0  0
  132.6230  123.3790   61.8270 C   0  0  0  0  0  0  0  0  0  0  0  0
  133.0630  124.6590   62.5440 C   0  0  0  0  0  0  0  0  0  0  0  0
  134.3900  124.7750   62.6370 F   0  0  0  0  0  0  0  0  0  0  0  0
  132.6150  125.7240   61.8790 F   0  0  0  0  0  0  0  0  0  0  0  0
  132.5730  124.6740   63.7830 F   0  0  0  0  0  0  0  0  0  0  0  0
  131.2900  123.1220   61.3880 C   0  0  0  0  0  0  0  0  0  0  0  0
  130.0660  123.8810   61.4700 C   0  0  0  0  0  0  0  0  0  0  0  0
  129.9950  125.1140   62.0680 N   0  0  0  0  0  0  0  0  0  0  0  0
  128.9620  123.2510   60.8770 C   0  0  0  0  0  0  0  0  0  0  0  0
  127.5760  123.7160   60.8050 C   0  0  0  0  0  0  0  0  0  0  0  0
  126.7840  123.5200   61.7270 O   0  0  0  0  0  0  0  0  0  0  0  0
  127.2400  124.3990   59.6910 N   0  0  0  0  0  0  0  0  0  0  0  0
  125.9150  124.9430   59.3960 C   0  0  0  0  0  0  0  0  0  0  0  0
  125.2690  124.3390   58.1570 C   0  0  0  0  0  0  0  0  0  0  0  0
  126.0660  123.7890   57.1470 C   0  0  0  0  0  0  0  0  0  0  0  0
  125.4720  123.2030   56.0330 C   0  0  0  0  0  0  0  0  0  0  0  0
  124.0830  123.1540   55.9370 C   0  0  0  0  0  0  0  0  0  0  0  0
  123.2820  123.6840   56.9460 C   0  0  0  0  0  0  0  0  0  0  0  0
  123.8760  124.2720   58.0600 C   0  0  0  0  0  0  0  0  0  0  0  0
  129.3950  121.6720   60.2280 S   0  0  0  0  0  0  0  0  0  0  0  0
  131.0570  121.8750   60.7280 C   0  0  0  0  0  0  0  0  0  0  0  0
  131.9730  120.9340   60.4970 N   0  0  0  0  0  0  0  0  0  0  0  0
  1  2  1  0
  2  3  2  0
  3  4  1  0
  4  5  1  0
  5  6  1  0
  5  7  1  0
  5  8  1  0
  4  9  2  0
  9 10  1  0
 10 11  1  0
 10 12  2  0
 12 13  1  0
 13 14  2  0
 13 15  1  0
 15 16  1  0
 16 17  1  0
 17 18  2  0
 18 19  1  0
 19 20  2  0
 20 21  1  0
 21 22  2  0
 12 23  1  0
 23 24  1  0
 24 25  2  0
 25  2  1  0
 24  9  1  0
 22 17  1  0
M  END
>  <Binding energies>  (29) 
[-7.12]

>  <Ligand effiencies>  (29) 
[-0.2542857142857143]

>  <Interactions>  (29) 
["V-B:ALA:541:CB:9864, V-B:ASP:366:CG:8185, H-B:GLU:543:OE1:9881, V-A:ARG:545:CZ:4924, V-A:GLY:453:CA:4042, V-B:GLU:543:CD:9880, V-B:TYR:539:CD2:9846, V-B:PRO:540:CA:9855, H-B:GLU:543:OE2:9882, H-B:ALA:541:N:9863, V-B:TYR:539:CE2:9848, V-A:ASP:366:CG:3211, V-B:ILE:538:CA:9832, V-B:PRO:540:CB:9857, V-B:PRO:540:CD:9859, V-B:PRO:540:N:9856, V-B:TYR:539:C:9839, V-B:ILE:538:CB:9834, V-B:ILE:538:CG2:9835, V-A:LEU:475:CD2:4257, V-A:TRP:381:CH2:3370, V-B:LEU:363:CA:8157, V-B:LEU:363:CD1:8161, V-B:LEU:363:CB:8159, V-A:ILE:369:CG2:3235, V-A:ILE:369:CD1:3237, V-B:TYR:531:CE2:9765, V-B:TYR:531:CZ:9766, V-A:GLY:454:CA:4047, V-A:GLY:453:C:4040, V-A:SER:385:C:3403, V-A:SER:385:CB:3407, V-A:SER:385:CA:3405"]

$$$$
4ca_Grossjean_2025
     RDKit          3D

 34 37  0  0  0  0  0  0  0  0999 V2000
  129.3990  125.7470   72.1720 C   0  0  0  0  0  0  0  0  0  0  0  0
  130.4980  126.8080   72.2820 C   0  0  0  0  0  0  0  0  0  0  0  0
  130.0300  128.0330   71.7340 O   0  0  0  0  0  0  0  0  0  0  0  0
  128.9070  128.0770   70.9710 C   0  0  0  0  0  0  0  0  0  0  0  0
  127.8030  128.4200   71.4060 O   0  0  0  0  0  0  0  0  0  0  0  0
  129.1430  127.6700   69.5460 C   0  0  0  0  0  0  0  0  0  0  0  0
  130.4550  127.6240   69.0560 C   0  0  0  0  0  0  0  0  0  0  0  0
  130.7060  127.2460   67.7400 C   0  0  0  0  0  0  0  0  0  0  0  0
  129.6540  126.9140   66.8860 C   0  0  0  0  0  0  0  0  0  0  0  0
  130.0220  126.5370   65.5800 N   0  0  0  0  0  0  0  0  0  0  0  0
  131.0060  125.7070   65.1550 C   0  0  0  0  0  0  0  0  0  0  0  0
  131.7490  125.0750   65.9060 O   0  0  0  0  0  0  0  0  0  0  0  0
  131.1330  125.5790   63.7010 C   0  0  0  0  0  0  0  0  0  0  0  0
  130.1290  126.5600   62.6350 S   0  0  0  0  0  0  0  0  0  0  0  0
  130.8890  125.8770   61.2180 C   0  0  0  0  0  0  0  0  0  0  0  0
  130.5350  126.2520   59.9910 N   0  0  0  0  0  0  0  0  0  0  0  0
  131.1910  125.6770   58.9510 C   0  0  0  0  0  0  0  0  0  0  0  0
  130.7750  126.1280   57.5810 C   0  0  0  0  0  0  0  0  0  0  0  0
  131.0250  125.3290   56.4540 C   0  0  0  0  0  0  0  0  0  0  0  0
  130.6470  125.7450   55.1800 C   0  0  0  0  0  0  0  0  0  0  0  0
  130.0110  126.9710   55.0140 C   0  0  0  0  0  0  0  0  0  0  0  0
  129.7530  127.7840   56.1130 C   0  0  0  0  0  0  0  0  0  0  0  0
  130.1330  127.3640   57.3850 C   0  0  0  0  0  0  0  0  0  0  0  0
  132.1840  124.7110   59.1470 C   0  0  0  0  0  0  0  0  0  0  0  0
  132.5620  124.3050   60.4360 C   0  0  0  0  0  0  0  0  0  0  0  0
  133.6600  123.2440   60.5780 C   0  0  0  0  0  0  0  0  0  0  0  0
  133.2190  122.1020   61.1090 F   0  0  0  0  0  0  0  0  0  0  0  0
  134.1680  122.9560   59.3800 F   0  0  0  0  0  0  0  0  0  0  0  0
  134.6300  123.7020   61.3690 F   0  0  0  0  0  0  0  0  0  0  0  0
  131.8920  124.9150   61.5350 C   0  0  0  0  0  0  0  0  0  0  0  0
  132.0110  124.7670   62.9650 C   0  0  0  0  0  0  0  0  0  0  0  0
  132.9040  123.9050   63.5490 N   0  0  0  0  0  0  0  0  0  0  0  0
  128.3380  126.9510   67.3690 C   0  0  0  0  0  0  0  0  0  0  0  0
  128.0880  127.3270   68.6860 C   0  0  0  0  0  0  0  0  0  0  0  0
  1  2  1  0
  2  3  1  0
  3  4  1  0
  4  5  2  0
  4  6  1  0
  6  7  2  0
  7  8  1  0
  8  9  2  0
  9 10  1  0
 10 11  1  0
 11 12  2  0
 11 13  1  0
 13 14  1  0
 14 15  1  0
 15 16  2  0
 16 17  1  0
 17 18  1  0
 18 19  2  0
 19 20  1  0
 20 21  2  0
 21 22  1  0
 22 23  2  0
 17 24  2  0
 24 25  1  0
 25 26  1  0
 26 27  1  0
 26 28  1  0
 26 29  1  0
 25 30  2  0
 30 31  1  0
 31 32  1  0
  9 33  1  0
 33 34  2  0
 34  6  1  0
 31 13  2  0
 30 15  1  0
 23 18  1  0
M  END
>  <Binding energies>  (30) 
[-6.92]

>  <Ligand effiencies>  (30) 
[-0.18702702702702703]

>  <Interactions>  (30) 
["V-A:HIS:456:CE1:4068, H-B:GLU:543:OE1:9881, V-A:GLY:453:CA:4042, V-B:GLU:543:CD:9880, V-B:GLU:543:CB:9878, V-B:TYR:539:CZ:9849, H-B:GLU:543:OE2:9882, V-B:TYR:539:CE2:9848, H-A:GLU:543:OE2:4908, H-A:GLU:543:OE1:4907, V-A:ASP:366:CG:3211, V-A:GLU:543:CD:4906, V-B:HIS:456:CD2:9040, V-A:GLY:544:C:4910, V-A:HIS:456:CD2:4066, V-B:LYS:547:CE:9922, H-B:HIS:456:ND1:9039, V-B:GLY:544:CA:9886, V-B:GLU:543:C:9874, V-B:HIS:456:CE1:9042, V-A:GLU:543:C:4900, V-A:GLU:543:CG:4905, V-B:GLU:543:CG:9879, H-A:TYR:484:OH:4346, V-A:ARG:545:CG:4920, V-A:LEU:475:CD2:4257, V-A:ILE:369:CG2:3235, V-A:ILE:369:CD1:3237, V-A:ILE:369:CB:3234, V-A:GLY:454:CA:4047, V-A:GLY:453:C:4040, V-A:TYR:531:CE1:4790, V-A:ILE:369:CG1:3236"]

$$$$
4cb_Grossjean_2025
     RDKit          3D

 33 36  0  0  0  0  0  0  0  0999 V2000
  130.2890  126.9370   72.4300 C   0  0  0  0  0  0  0  0  0  0  0  0
  129.7380  128.0840   71.7980 O   0  0  0  0  0  0  0  0  0  0  0  0
  128.6150  127.9930   71.0410 C   0  0  0  0  0  0  0  0  0  0  0  0
  127.4790  128.1950   71.4810 O   0  0  0  0  0  0  0  0  0  0  0  0
  128.8910  127.6230   69.6110 C   0  0  0  0  0  0  0  0  0  0  0  0
  130.2070  127.3440   69.2190 C   0  0  0  0  0  0  0  0  0  0  0  0
  130.4930  126.9900   67.9030 C   0  0  0  0  0  0  0  0  0  0  0  0
  129.4740  126.9140   66.9530 C   0  0  0  0  0  0  0  0  0  0  0  0
  129.8740  126.5330   65.6580 N   0  0  0  0  0  0  0  0  0  0  0  0
  130.8820  125.7180   65.2600 C   0  0  0  0  0  0  0  0  0  0  0  0
  131.6230  125.1070   66.0310 O   0  0  0  0  0  0  0  0  0  0  0  0
  131.0380  125.5780   63.8100 C   0  0  0  0  0  0  0  0  0  0  0  0
  130.0270  126.5190   62.7150 S   0  0  0  0  0  0  0  0  0  0  0  0
  130.8300  125.8430   61.3180 C   0  0  0  0  0  0  0  0  0  0  0  0
  130.4870  126.1930   60.0810 N   0  0  0  0  0  0  0  0  0  0  0  0
  131.1760  125.6210   59.0590 C   0  0  0  0  0  0  0  0  0  0  0  0
  130.7700  126.0400   57.6760 C   0  0  0  0  0  0  0  0  0  0  0  0
  131.2430  125.3500   56.5490 C   0  0  0  0  0  0  0  0  0  0  0  0
  130.8730  125.7360   55.2630 C   0  0  0  0  0  0  0  0  0  0  0  0
  130.0210  126.8210   55.0860 C   0  0  0  0  0  0  0  0  0  0  0  0
  129.5400  127.5250   56.1850 C   0  0  0  0  0  0  0  0  0  0  0  0
  129.9140  127.1360   57.4680 C   0  0  0  0  0  0  0  0  0  0  0  0
  132.1910  124.6850   59.2850 C   0  0  0  0  0  0  0  0  0  0  0  0
  132.5580  124.3070   60.5850 C   0  0  0  0  0  0  0  0  0  0  0  0
  133.6810  123.2760   60.7610 C   0  0  0  0  0  0  0  0  0  0  0  0
  134.6690  123.7090   61.5470 F   0  0  0  0  0  0  0  0  0  0  0  0
  133.1910  122.1660   61.3110 F   0  0  0  0  0  0  0  0  0  0  0  0
  134.2140  122.9830   59.5750 F   0  0  0  0  0  0  0  0  0  0  0  0
  131.8530  124.9120   61.6650 C   0  0  0  0  0  0  0  0  0  0  0  0
  131.9530  124.7850   63.0980 C   0  0  0  0  0  0  0  0  0  0  0  0
  132.8630  123.9590   63.7070 N   0  0  0  0  0  0  0  0  0  0  0  0
  128.1540  127.1880   67.3390 C   0  0  0  0  0  0  0  0  0  0  0  0
  127.8690  127.5400   68.6550 C   0  0  0  0  0  0  0  0  0  0  0  0
  1  2  1  0
  2  3  1  0
  3  4  2  0
  3  5  1  0
  5  6  2  0
  6  7  1  0
  7  8  2  0
  8  9  1  0
  9 10  1  0
 10 11  2  0
 10 12  1  0
 12 13  1  0
 13 14  1  0
 14 15  2  0
 15 16  1  0
 16 17  1  0
 17 18  2  0
 18 19  1  0
 19 20  2  0
 20 21  1  0
 21 22  2  0
 16 23  2  0
 23 24  1  0
 24 25  1  0
 25 26  1  0
 25 27  1  0
 25 28  1  0
 24 29  2  0
 29 30  1  0
 30 31  1  0
  8 32  1  0
 32 33  2  0
 33  5  1  0
 30 12  2  0
 29 14  1  0
 22 17  1  0
M  END
>  <Binding energies>  (31) 
[-6.73]

>  <Ligand effiencies>  (31) 
[-0.18694444444444447]

>  <Interactions>  (31) 
["V-A:HIS:456:CE1:4068, H-B:GLU:543:OE1:9881, V-A:GLY:453:CA:4042, V-B:GLU:543:CD:9880, V-B:GLU:543:CB:9878, V-B:TYR:539:CZ:9849, H-B:GLU:543:OE2:9882, H-A:GLU:543:OE2:4908, V-A:ASP:366:CG:3211, V-A:GLU:543:CD:4906, V-B:HIS:456:CD2:9040, V-A:GLY:544:C:4910, V-A:LYS:547:CE:4948, H-B:HIS:456:ND1:9039, V-B:GLU:543:C:9874, V-B:HIS:456:CE1:9042, V-A:GLU:543:C:4900, V-A:GLU:543:CG:4905, V-B:GLU:543:CG:9879, H-A:TYR:484:OH:4346, V-A:ARG:545:CG:4920, V-A:LEU:475:CD2:4257, V-A:ILE:369:CG2:3235, V-A:ILE:369:CD1:3237, V-A:ILE:369:CB:3234, V-A:GLY:454:CA:4047, V-A:GLY:453:C:4040, V-A:TYR:531:CE1:4790, V-A:ILE:369:CG1:3236"]

$$$$
4cc_Grossjean_2025
     RDKit          3D

 31 34  0  0  0  0  0  0  0  0999 V2000
  124.0470  127.4970   74.1250 C   0  0  0  0  0  0  0  0  0  0  0  0
  124.6150  128.2090   75.2190 O   0  0  0  0  0  0  0  0  0  0  0  0
  125.3770  129.3330   74.9700 C   0  0  0  0  0  0  0  0  0  0  0  0
  126.4870  129.1620   74.1430 C   0  0  0  0  0  0  0  0  0  0  0  0
  127.3140  130.2380   73.8330 C   0  0  0  0  0  0  0  0  0  0  0  0
  127.0460  131.5040   74.3570 C   0  0  0  0  0  0  0  0  0  0  0  0
  127.9270  132.5330   73.9760 N   0  0  0  0  0  0  0  0  0  0  0  0
  128.8520  132.5470   72.9860 C   0  0  0  0  0  0  0  0  0  0  0  0
  129.0370  131.6120   72.2050 O   0  0  0  0  0  0  0  0  0  0  0  0
  129.6480  133.7730   72.8850 C   0  0  0  0  0  0  0  0  0  0  0  0
  130.7060  134.0340   71.5000 S   0  0  0  0  0  0  0  0  0  0  0  0
  131.2140  135.5860   72.1230 C   0  0  0  0  0  0  0  0  0  0  0  0
  132.0880  136.3460   71.4670 N   0  0  0  0  0  0  0  0  0  0  0  0
  132.4140  137.5400   72.0240 C   0  0  0  0  0  0  0  0  0  0  0  0
  133.4040  138.3740   71.2630 C   0  0  0  0  0  0  0  0  0  0  0  0
  133.0390  139.6270   70.7450 C   0  0  0  0  0  0  0  0  0  0  0  0
  133.9510  140.4050   70.0370 C   0  0  0  0  0  0  0  0  0  0  0  0
  135.2460  139.9390   69.8350 C   0  0  0  0  0  0  0  0  0  0  0  0
  135.6320  138.6990   70.3340 C   0  0  0  0  0  0  0  0  0  0  0  0
  134.7170  137.9240   71.0410 C   0  0  0  0  0  0  0  0  0  0  0  0
  131.8750  137.9580   73.2450 C   0  0  0  0  0  0  0  0  0  0  0  0
  130.9540  137.1640   73.9460 C   0  0  0  0  0  0  0  0  0  0  0  0
  130.3980  137.6860   75.2760 C   0  0  0  0  0  0  0  0  0  0  0  0
  130.8190  138.9180   75.5720 F   0  0  0  0  0  0  0  0  0  0  0  0
  129.0670  137.7210   75.2260 F   0  0  0  0  0  0  0  0  0  0  0  0
  130.7800  136.8850   76.2700 F   0  0  0  0  0  0  0  0  0  0  0  0
  130.5970  135.9130   73.3660 C   0  0  0  0  0  0  0  0  0  0  0  0
  129.7090  134.8540   73.7800 C   0  0  0  0  0  0  0  0  0  0  0  0
  128.9870  134.9050   74.9460 N   0  0  0  0  0  0  0  0  0  0  0  0
  125.9240  131.6870   75.1790 C   0  0  0  0  0  0  0  0  0  0  0  0
  125.0990  130.6080   75.4850 C   0  0  0  0  0  0  0  0  0  0  0  0
  1  2  1  0
  2  3  1  0
  3  4  2  0
  4  5  1  0
  5  6  2  0
  6  7  1  0
  7  8  1  0
  8  9  2  0
  8 10  1  0
 10 11  1  0
 11 12  1  0
 12 13  2  0
 13 14  1  0
 14 15  1  0
 15 16  2  0
 16 17  1  0
 17 18  2  0
 18 19  1  0
 19 20  2  0
 14 21  2  0
 21 22  1  0
 22 23  1  0
 23 24  1  0
 23 25  1  0
 23 26  1  0
 22 27  2  0
 27 28  1  0
 28 29  1  0
  6 30  1  0
 30 31  2  0
 31  3  1  0
 28 10  2  0
 27 12  1  0
 20 15  1  0
M  END
>  <Binding energies>  (32) 
[-6.34]

>  <Ligand effiencies>  (32) 
[-0.1864705882352941]

>  <Interactions>  (32) 
["V-B:HIS:456:CD2:9040, V-B:HIS:456:C:9033, V-B:LYS:471:CE:9192, V-B:HIS:456:CG:9038, V-B:VAL:457:C:9045, V-B:LYS:547:CD:9921, V-B:VAL:458:CG2:9059, V-B:ASP:473:CG:9212, V-B:HIS:456:CB:9037, V-B:GLY:544:C:9884, V-B:ASP:473:CB:9211, V-A:GLU:543:C:4900, V-A:GLY:544:CA:4912, V-B:LYS:547:CG:9920, V-B:TYR:484:CB:9313, V-B:LYS:547:CB:9919, V-A:GLU:543:CA:4902, V-B:ARG:545:C:9889, H-A:GLY:544:N:4913, H-B:ASP:473:OD2:9214, H-B:ASP:473:OD1:9213, V-A:ARG:356:CD:3117, V-A:VAL:542:CG1:4897, V-B:SER:483:CB:9305, V-B:TYR:484:C:9309, V-B:PRO:486:CD:9338"]

$$$$
4ce_Grossjean_2025
     RDKit          3D

 30 33  0  0  0  0  0  0  0  0999 V2000
  126.6990  127.7090   74.1650 C   0  0  0  0  0  0  0  0  0  0  0  0
  126.3500  129.1430   74.5160 C   0  0  0  0  0  0  0  0  0  0  0  0
  125.1760  129.4620   75.2050 C   0  0  0  0  0  0  0  0  0  0  0  0
  124.9240  130.8020   75.5010 C   0  0  0  0  0  0  0  0  0  0  0  0
  125.8410  131.7800   75.1080 C   0  0  0  0  0  0  0  0  0  0  0  0
  126.9940  131.3910   74.4160 C   0  0  0  0  0  0  0  0  0  0  0  0
  127.8900  132.4180   74.0690 N   0  0  0  0  0  0  0  0  0  0  0  0
  128.9440  132.3730   73.2160 C   0  0  0  0  0  0  0  0  0  0  0  0
  129.2680  131.3680   72.5810 O   0  0  0  0  0  0  0  0  0  0  0  0
  129.7020  133.6200   73.0850 C   0  0  0  0  0  0  0  0  0  0  0  0
  130.7340  133.8860   71.6820 S   0  0  0  0  0  0  0  0  0  0  0  0
  131.1750  135.4770   72.2520 C   0  0  0  0  0  0  0  0  0  0  0  0
  132.0050  136.2560   71.5630 N   0  0  0  0  0  0  0  0  0  0  0  0
  132.2770  137.4840   72.0790 C   0  0  0  0  0  0  0  0  0  0  0  0
  133.2100  138.3390   71.2750 C   0  0  0  0  0  0  0  0  0  0  0  0
  134.5300  137.9250   71.0290 C   0  0  0  0  0  0  0  0  0  0  0  0
  135.4040  138.7170   70.2890 C   0  0  0  0  0  0  0  0  0  0  0  0
  134.9690  139.9370   69.7820 C   0  0  0  0  0  0  0  0  0  0  0  0
  133.6680  140.3710   70.0120 C   0  0  0  0  0  0  0  0  0  0  0  0
  132.7980  139.5770   70.7540 C   0  0  0  0  0  0  0  0  0  0  0  0
  131.7330  137.9130   73.2940 C   0  0  0  0  0  0  0  0  0  0  0  0
  130.8610  137.0970   74.0320 C   0  0  0  0  0  0  0  0  0  0  0  0
  130.2990  137.6300   75.3540 C   0  0  0  0  0  0  0  0  0  0  0  0
  130.7060  138.8700   75.6340 F   0  0  0  0  0  0  0  0  0  0  0  0
  128.9670  137.6500   75.3020 F   0  0  0  0  0  0  0  0  0  0  0  0
  130.6890  136.8460   76.3580 F   0  0  0  0  0  0  0  0  0  0  0  0
  130.5560  135.8140   73.4920 C   0  0  0  0  0  0  0  0  0  0  0  0
  129.7190  134.7300   73.9460 C   0  0  0  0  0  0  0  0  0  0  0  0
  129.0040  134.7840   75.1140 N   0  0  0  0  0  0  0  0  0  0  0  0
  127.2500  130.0820   74.1270 N   0  0  0  0  0  0  0  0  0  0  0  0
  1  2  1  0
  2  3  2  0
  3  4  1  0
  4  5  2  0
  5  6  1  0
  6  7  1  0
  7  8  1  0
  8  9  2  0
  8 10  1  0
 10 11  1  0
 11 12  1  0
 12 13  2  0
 13 14  1  0
 14 15  1  0
 15 16  2  0
 16 17  1  0
 17 18  2  0
 18 19  1  0
 19 20  2  0
 14 21  2  0
 21 22  1  0
 22 23  1  0
 23 24  1  0
 23 25  1  0
 23 26  1  0
 22 27  2  0
 27 28  1  0
 28 29  1  0
  6 30  2  0
 30  2  1  0
 28 10  2  0
 27 12  1  0
 20 15  1  0
M  END
>  <Binding energies>  (33) 
[-6.97]

>  <Ligand effiencies>  (33) 
[-0.2112121212121212]

>  <Interactions>  (33) 
["V-B:HIS:456:CD2:9040, V-B:HIS:456:C:9033, H-A:LYS:547:NZ:4949, V-B:LYS:471:CE:9192, V-B:HIS:456:CG:9038, V-B:LYS:547:CD:9921, V-B:VAL:458:CG2:9059, V-B:ASP:473:CG:9212, V-B:LYS:547:CE:9922, V-A:LYS:547:CE:4948, V-B:LYS:471:CG:9190, V-B:HIS:456:CB:9037, V-B:LYS:471:CD:9191, V-B:GLY:544:C:9884, V-B:ASP:473:CB:9211, V-A:GLU:543:C:4900, V-A:GLY:544:CA:4912, V-B:TYR:484:CB:9313, V-A:GLU:543:CA:4902, H-A:GLY:544:N:4913, H-B:ASP:473:OD2:9214, H-B:ASP:473:OD1:9213, V-A:ARG:356:CD:3117, V-A:VAL:542:CG1:4897, V-B:SER:483:CB:9305, V-B:TYR:484:C:9309, V-B:PRO:486:CD:9338"]

$$$$
4cf_Grossjean_2025
     RDKit          3D

 29 32  0  0  0  0  0  0  0  0999 V2000
  128.9910  134.0830   75.7150 N   0  0  0  0  0  0  0  0  0  0  0  0
  129.4680  134.2130   74.4360 C   0  0  0  0  0  0  0  0  0  0  0  0
  129.2670  133.2470   73.4370 C   0  0  0  0  0  0  0  0  0  0  0  0
  128.5830  131.9550   73.5400 C   0  0  0  0  0  0  0  0  0  0  0  0
  129.0450  130.9550   72.9880 O   0  0  0  0  0  0  0  0  0  0  0  0
  127.4470  131.9560   74.2790 N   0  0  0  0  0  0  0  0  0  0  0  0
  126.5380  130.9110   74.5320 C   0  0  0  0  0  0  0  0  0  0  0  0
  126.6870  129.5780   74.1040 C   0  0  0  0  0  0  0  0  0  0  0  0
  125.7000  128.6390   74.4120 C   0  0  0  0  0  0  0  0  0  0  0  0
  124.5860  129.0560   75.1400 C   0  0  0  0  0  0  0  0  0  0  0  0
  124.4150  130.3350   75.5590 N   0  0  0  0  0  0  0  0  0  0  0  0
  125.3820  131.2370   75.2500 C   0  0  0  0  0  0  0  0  0  0  0  0
  130.0080  133.7400   71.9160 S   0  0  0  0  0  0  0  0  0  0  0  0
  130.5870  135.2270   72.6290 C   0  0  0  0  0  0  0  0  0  0  0  0
  131.2920  136.1080   71.9220 N   0  0  0  0  0  0  0  0  0  0  0  0
  131.7120  137.2280   72.5680 C   0  0  0  0  0  0  0  0  0  0  0  0
  132.5110  138.1990   71.7480 C   0  0  0  0  0  0  0  0  0  0  0  0
  132.0270  139.4910   71.4930 C   0  0  0  0  0  0  0  0  0  0  0  0
  132.7620  140.3990   70.7350 C   0  0  0  0  0  0  0  0  0  0  0  0
  133.9980  140.0240   70.2200 C   0  0  0  0  0  0  0  0  0  0  0  0
  134.5040  138.7500   70.4590 C   0  0  0  0  0  0  0  0  0  0  0  0
  133.7650  137.8470   71.2180 C   0  0  0  0  0  0  0  0  0  0  0  0
  131.4020  137.4680   73.9090 C   0  0  0  0  0  0  0  0  0  0  0  0
  130.6550  136.5480   74.6620 C   0  0  0  0  0  0  0  0  0  0  0  0
  130.3560  136.8720   76.1300 C   0  0  0  0  0  0  0  0  0  0  0  0
  130.8030  135.9400   76.9750 F   0  0  0  0  0  0  0  0  0  0  0  0
  130.9360  138.0240   76.4650 F   0  0  0  0  0  0  0  0  0  0  0  0
  129.0390  136.9740   76.3110 F   0  0  0  0  0  0  0  0  0  0  0  0
  130.2250  135.3610   74.0010 C   0  0  0  0  0  0  0  0  0  0  0  0
  1  2  1  0
  2  3  2  0
  3  4  1  0
  4  5  2  0
  4  6  1  0
  6  7  1  0
  7  8  2  0
  8  9  1  0
  9 10  2  0
 10 11  1  0
 11 12  2  0
  3 13  1  0
 13 14  1  0
 14 15  2  0
 15 16  1  0
 16 17  1  0
 17 18  2  0
 18 19  1  0
 19 20  2  0
 20 21  1  0
 21 22  2  0
 16 23  2  0
 23 24  1  0
 24 25  1  0
 25 26  1  0
 25 27  1  0
 25 28  1  0
 24 29  2  0
 29  2  1  0
 12  7  1  0
 29 14  1  0
 22 17  1  0
M  END
>  <Binding energies>  (34) 
[-6.52]

>  <Ligand effiencies>  (34) 
[-0.20375]

>  <Interactions>  (34) 
["V-B:HIS:456:CD2:9040, V-B:HIS:456:C:9033, H-A:LYS:547:NZ:4949, V-B:LYS:471:CE:9192, V-B:HIS:456:CG:9038, V-B:VAL:457:C:9045, V-B:VAL:458:CG2:9059, V-B:ASP:473:CG:9212, V-A:LYS:547:CE:4948, V-B:HIS:456:CB:9037, V-A:GLU:543:C:4900, V-A:GLY:544:CA:4912, V-B:TYR:484:CB:9313, H-B:ASP:473:OD2:9214, H-B:ASP:473:OD1:9213, V-A:VAL:542:CG1:4897, V-B:SER:483:CB:9305"]

$$$$
4ci_Grossjean_2025
     RDKit          3D

 28 31  0  0  0  0  0  0  0  0999 V2000
  124.9050  129.8400   58.8890 N   0  0  0  0  0  0  0  0  0  0  0  0
  126.0850  130.2790   59.4310 C   0  0  0  0  0  0  0  0  0  0  0  0
  126.2470  130.5600   60.7980 C   0  0  0  0  0  0  0  0  0  0  0  0
  125.2620  130.4430   61.8770 C   0  0  0  0  0  0  0  0  0  0  0  0
  124.0650  130.6500   61.6610 O   0  0  0  0  0  0  0  0  0  0  0  0
  125.7650  130.1120   63.0930 N   0  0  0  0  0  0  0  0  0  0  0  0
  125.0640  129.9400   64.2790 C   0  0  0  0  0  0  0  0  0  0  0  0
  125.6790  129.6260   65.4900 C   0  0  0  0  0  0  0  0  0  0  0  0
  124.6540  129.5420   66.4030 C   0  0  0  0  0  0  0  0  0  0  0  0
  123.4800  129.7940   65.7740 O   0  0  0  0  0  0  0  0  0  0  0  0
  123.7530  130.0440   64.4290 N   0  0  0  0  0  0  0  0  0  0  0  0
  127.8900  131.0900   61.1490 S   0  0  0  0  0  0  0  0  0  0  0  0
  128.3450  130.9410   59.4670 C   0  0  0  0  0  0  0  0  0  0  0  0
  129.5770  131.2270   59.0530 N   0  0  0  0  0  0  0  0  0  0  0  0
  129.8390  131.0770   57.7280 C   0  0  0  0  0  0  0  0  0  0  0  0
  131.2360  131.4120   57.2900 C   0  0  0  0  0  0  0  0  0  0  0  0
  132.3480  130.9510   58.0140 C   0  0  0  0  0  0  0  0  0  0  0  0
  133.6460  131.2560   57.6130 C   0  0  0  0  0  0  0  0  0  0  0  0
  133.8510  132.0320   56.4770 C   0  0  0  0  0  0  0  0  0  0  0  0
  132.7690  132.5060   55.7430 C   0  0  0  0  0  0  0  0  0  0  0  0
  131.4730  132.1990   56.1490 C   0  0  0  0  0  0  0  0  0  0  0  0
  128.8560  130.6590   56.8250 C   0  0  0  0  0  0  0  0  0  0  0  0
  127.5530  130.3550   57.2520 C   0  0  0  0  0  0  0  0  0  0  0  0
  126.5260  129.9020   56.2070 C   0  0  0  0  0  0  0  0  0  0  0  0
  125.2830  130.2990   56.4880 F   0  0  0  0  0  0  0  0  0  0  0  0
  126.8450  130.4060   55.0160 F   0  0  0  0  0  0  0  0  0  0  0  0
  126.5140  128.5710   56.1340 F   0  0  0  0  0  0  0  0  0  0  0  0
  127.2730  130.4960   58.6410 C   0  0  0  0  0  0  0  0  0  0  0  0
  1  2  1  0
  2  3  2  0
  3  4  1  0
  4  5  2  0
  4  6  1  0
  6  7  1  0
  7  8  1  0
  8  9  2  0
  9 10  1  0
 10 11  1  0
  3 12  1  0
 12 13  1  0
 13 14  2  0
 14 15  1  0
 15 16  1  0
 16 17  2  0
 17 18  1  0
 18 19  2  0
 19 20  1  0
 20 21  2  0
 15 22  2  0
 22 23  1  0
 23 24  1  0
 24 25  1  0
 24 26  1  0
 24 27  1  0
 23 28  2  0
 28  2  1  0
 11  7  2  0
 28 13  1  0
 21 16  1  0
M  END
>  <Binding energies>  (35) 
[-7.05]

>  <Ligand effiencies>  (35) 
[-0.22741935483870968]

>  <Interactions>  (35) 
["V-B:ASP:366:CG:8185, H-B:ASP:366:OD2:8187, H-A:GLU:543:OE1:4907, V-B:ARG:545:CZ:9898, V-A:TYR:539:CE2:4874, V-A:TYR:539:CZ:4875, V-A:PRO:540:CA:4881, V-A:PRO:540:N:4882, V-A:TYR:539:CE1:4873, V-A:TYR:539:C:4865, V-A:PRO:540:CB:4883, H-B:TYR:531:OH:9767, H-B:TYR:484:OH:9320, V-B:HIS:456:CE1:9042, V-B:TYR:484:CZ:9319, V-A:LEU:363:CA:3183, V-A:PRO:540:CD:4885, V-A:ILE:538:CB:4860, V-A:PRO:540:CG:4884, V-A:ILE:538:CG2:4861, V-A:LEU:363:CD1:3187, V-A:TYR:531:CE2:4791, V-A:LEU:363:CB:3185, V-B:ASP:366:CB:8184, V-B:ARG:545:CG:9894, H-B:ARG:545:NE:9896, V-B:ARG:545:CD:9895, H-B:GLY:454:N:9022, H-B:ASP:366:OD1:8186, V-A:ILE:538:CA:4858, V-B:TYR:531:CZ:9766, V-A:LEU:363:CG:3186, H-B:ARG:545:NH1:9899"]

$$$$
8a_Ghoteimi_2023
     RDKit          3D

 40 44  0  0  0  0  0  0  0  0999 V2000
  134.0240  121.0230   60.9310 C   0  0  0  0  0  0  0  0  0  0  0  0
  133.0220  120.5080   59.8940 C   0  0  0  0  0  0  0  0  0  0  0  0
  132.2170  119.4920   60.4780 O   0  0  0  0  0  0  0  0  0  0  0  0
  130.9160  119.7250   60.7950 C   0  0  0  0  0  0  0  0  0  0  0  0
  130.0800  118.8270   60.9370 O   0  0  0  0  0  0  0  0  0  0  0  0
  130.5940  121.1830   60.9500 C   0  0  0  0  0  0  0  0  0  0  0  0
  129.8910  121.8390   59.9320 C   0  0  0  0  0  0  0  0  0  0  0  0
  129.5790  123.1910   60.0450 C   0  0  0  0  0  0  0  0  0  0  0  0
  129.9630  123.9160   61.1750 C   0  0  0  0  0  0  0  0  0  0  0  0
  129.5980  125.2760   61.1770 N   0  0  0  0  0  0  0  0  0  0  0  0
  129.6930  126.2080   62.1570 C   0  0  0  0  0  0  0  0  0  0  0  0
  130.1470  125.9890   63.2810 O   0  0  0  0  0  0  0  0  0  0  0  0
  129.2170  127.5460   61.7950 C   0  0  0  0  0  0  0  0  0  0  0  0
  127.7500  128.1970   62.5250 S   0  0  0  0  0  0  0  0  0  0  0  0
  127.8950  129.6800   61.6100 C   0  0  0  0  0  0  0  0  0  0  0  0
  126.9940  130.6570   61.7110 N   0  0  0  0  0  0  0  0  0  0  0  0
  127.1990  131.7650   60.9500 C   0  0  0  0  0  0  0  0  0  0  0  0
  126.1650  132.8390   61.0640 C   0  0  0  0  0  0  0  0  0  0  0  0
  126.4930  134.1850   60.8460 C   0  0  0  0  0  0  0  0  0  0  0  0
  125.5290  135.1820   60.9640 C   0  0  0  0  0  0  0  0  0  0  0  0
  124.2150  134.8600   61.3010 C   0  0  0  0  0  0  0  0  0  0  0  0
  123.3270  135.9150   61.3980 O   0  0  0  0  0  0  0  0  0  0  0  0
  122.5910  136.3100   60.2450 C   0  0  0  0  0  0  0  0  0  0  0  0
  123.8750  133.5170   61.5150 C   0  0  0  0  0  0  0  0  0  0  0  0
  124.8430  132.5220   61.3980 C   0  0  0  0  0  0  0  0  0  0  0  0
  128.3010  131.8960   60.1030 C   0  0  0  0  0  0  0  0  0  0  0  0
  129.2580  130.8800   60.0060 C   0  0  0  0  0  0  0  0  0  0  0  0
  130.4270  131.0830   59.1140 C   0  0  0  0  0  0  0  0  0  0  0  0
  130.2370  131.4350   57.7760 C   0  0  0  0  0  0  0  0  0  0  0  0
  131.3310  131.6470   56.9410 C   0  0  0  0  0  0  0  0  0  0  0  0
  132.6320  131.5170   57.4290 C   0  0  0  0  0  0  0  0  0  0  0  0
  133.6540  131.7470   56.5290 O   0  0  0  0  0  0  0  0  0  0  0  0
  133.3730  132.4470   55.3230 C   0  0  0  0  0  0  0  0  0  0  0  0
  132.8250  131.1720   58.7760 C   0  0  0  0  0  0  0  0  0  0  0  0
  131.7290  130.9620   59.6090 C   0  0  0  0  0  0  0  0  0  0  0  0
  129.0520  129.7000   60.7760 C   0  0  0  0  0  0  0  0  0  0  0  0
  129.7790  128.4600   60.8890 C   0  0  0  0  0  0  0  0  0  0  0  0
  130.9100  128.1990   60.1570 N   0  0  0  0  0  0  0  0  0  0  0  0
  130.6640  123.2650   62.2020 C   0  0  0  0  0  0  0  0  0  0  0  0
  130.9750  121.9120   62.0870 C   0  0  0  0  0  0  0  0  0  0  0  0
  1  2  1  0
  2  3  1  0
  3  4  1  0
  4  5  2  0
  4  6  1  0
  6  7  2  0
  7  8  1  0
  8  9  2  0
  9 10  1  0
 10 11  1  0
 11 12  2  0
 11 13  1  0
 13 14  1  0
 14 15  1  0
 15 16  2  0
 16 17  1  0
 17 18  1  0
 18 19  2  0
 19 20  1  0
 20 21  2  0
 21 22  1  0
 22 23  1  0
 21 24  1  0
 24 25  2  0
 17 26  2  0
 26 27  1  0
 27 28  1  0
 28 29  2  0
 29 30  1  0
 30 31  2  0
 31 32  1  0
 32 33  1  0
 31 34  1  0
 34 35  2  0
 27 36  2  0
 36 37  1  0
 37 38  1  0
  9 39  1  0
 39 40  2  0
 40  6  1  0
 37 13  2  0
 36 15  1  0
 25 18  1  0
 35 28  1  0
M  END
>  <Binding energies>  (36) 
[-5.77]

>  <Ligand effiencies>  (36) 
[-0.1341860465116279]

>  <Interactions>  (36) 
["V-B:ALA:541:CB:9864, V-B:GLU:543:CD:9880, V-B:TYR:539:CD2:9846, V-B:TYR:539:CE2:9848, V-A:TYR:539:CD2:4872, V-A:TYR:539:CE2:4874, V-A:ASP:366:CG:3211, H-A:ASP:366:OD2:3213, V-A:GLU:543:CD:4906, V-A:PRO:540:CA:4881, V-B:LEU:475:CD2:9231, V-B:TRP:381:CZ3:8343, V-B:TRP:381:CH2:8344, V-A:PRO:540:N:4882, V-B:TRP:381:CZ2:8342, V-B:ILE:369:CG2:8209, V-A:PRO:540:CB:4883, V-A:PRO:540:CD:4885, V-A:ILE:538:CB:4860, V-A:ILE:538:CG2:4861, V-A:LEU:363:CD1:3187, V-A:TYR:531:CE2:4791, V-B:ILE:369:CD1:8211, V-B:ILE:369:CB:8208, V-A:LEU:475:CD2:4257, V-A:TRP:381:CZ2:3368, V-A:TRP:381:CH2:3370, H-A:TYR:531:OH:4793, H-A:ASP:366:OD1:3212, V-A:ILE:369:CG2:3235, V-A:ILE:369:CD1:3237, V-A:ILE:538:CD1:4863, V-A:ILE:538:CG1:4862, V-B:SER:385:C:8377, V-B:SER:385:CA:8379, V-B:SER:385:CB:8381"]

$$$$
8c_Ghoteimi_2023
     RDKit          3D

 34 38  0  0  0  0  0  0  0  0999 V2000
  134.5780  125.0140   66.6420 C   0  0  0  0  0  0  0  0  0  0  0  0
  134.1720  124.3530   65.4490 O   0  0  0  0  0  0  0  0  0  0  0  0
  133.0960  124.8490   64.7370 C   0  0  0  0  0  0  0  0  0  0  0  0
  133.2210  124.8640   63.3490 C   0  0  0  0  0  0  0  0  0  0  0  0
  132.1880  125.3490   62.5520 C   0  0  0  0  0  0  0  0  0  0  0  0
  131.0010  125.8300   63.1230 C   0  0  0  0  0  0  0  0  0  0  0  0
  129.8880  126.3550   62.2720 C   0  0  0  0  0  0  0  0  0  0  0  0
  129.2940  125.5770   61.2730 C   0  0  0  0  0  0  0  0  0  0  0  0
  128.2540  126.0920   60.4930 C   0  0  0  0  0  0  0  0  0  0  0  0
  127.6520  125.2450   59.4380 C   0  0  0  0  0  0  0  0  0  0  0  0
  128.3620  124.9690   58.2670 C   0  0  0  0  0  0  0  0  0  0  0  0
  127.7990  124.1650   57.2800 C   0  0  0  0  0  0  0  0  0  0  0  0
  126.5210  123.6290   57.4450 C   0  0  0  0  0  0  0  0  0  0  0  0
  126.0440  122.8410   56.4150 O   0  0  0  0  0  0  0  0  0  0  0  0
  124.8160  123.1890   55.7860 C   0  0  0  0  0  0  0  0  0  0  0  0
  125.8070  123.9120   58.6200 C   0  0  0  0  0  0  0  0  0  0  0  0
  126.3720  124.7150   59.6070 C   0  0  0  0  0  0  0  0  0  0  0  0
  127.8190  127.4190   60.7500 C   0  0  0  0  0  0  0  0  0  0  0  0
  126.7990  128.2440   60.1580 C   0  0  0  0  0  0  0  0  0  0  0  0
  126.0030  127.8040   59.1300 N   0  0  0  0  0  0  0  0  0  0  0  0
  126.7000  129.5230   60.7270 C   0  0  0  0  0  0  0  0  0  0  0  0
  125.7800  130.6080   60.3780 C   0  0  0  0  0  0  0  0  0  0  0  0
  125.0150  130.5010   59.4180 O   0  0  0  0  0  0  0  0  0  0  0  0
  125.8450  131.7040   61.1740 N   0  0  0  0  0  0  0  0  0  0  0  0
  125.0870  132.8610   61.0640 C   0  0  0  0  0  0  0  0  0  0  0  0
  125.2810  133.8800   60.2540 N   0  0  0  0  0  0  0  0  0  0  0  0
  124.3620  134.8100   60.4170 C   0  0  0  0  0  0  0  0  0  0  0  0
  123.3920  134.5560   61.3820 C   0  0  0  0  0  0  0  0  0  0  0  0
  123.7120  133.0090   62.1090 S   0  0  0  0  0  0  0  0  0  0  0  0
  127.8760  129.7360   62.0240 S   0  0  0  0  0  0  0  0  0  0  0  0
  128.4920  128.1160   61.7950 C   0  0  0  0  0  0  0  0  0  0  0  0
  129.4860  127.6270   62.5380 N   0  0  0  0  0  0  0  0  0  0  0  0
  130.8820  125.8080   64.5200 C   0  0  0  0  0  0  0  0  0  0  0  0
  131.9130  125.3250   65.3200 C   0  0  0  0  0  0  0  0  0  0  0  0
  1  2  1  0
  2  3  1  0
  3  4  2  0
  4  5  1  0
  5  6  2  0
  6  7  1  0
  7  8  2  0
  8  9  1  0
  9 10  1  0
 10 11  2  0
 11 12  1  0
 12 13  2  0
 13 14  1  0
 14 15  1  0
 13 16  1  0
 16 17  2  0
  9 18  2  0
 18 19  1  0
 19 20  1  0
 19 21  2  0
 21 22  1  0
 22 23  2  0
 22 24  1  0
 24 25  1  0
 25 26  2  0
 26 27  1  0
 27 28  2  0
 28 29  1  0
 21 30  1  0
 30 31  1  0
 31 32  2  0
  6 33  1  0
 33 34  2  0
 34  3  1  0
 32  7  1  0
 17 10  1  0
 31 18  1  0
 29 25  1  0
M  END
>  <Binding energies>  (37) 
[-6.53]

>  <Ligand effiencies>  (37) 
[-0.1764864864864865]

>  <Interactions>  (37) 
["V-B:ASP:366:CG:8185, V-A:HIS:456:CE1:4068, H-B:ASP:366:OD2:8187, V-A:ARG:545:CZ:4924, V-B:GLU:543:CD:9880, V-B:PRO:540:CA:9855, V-A:TYR:539:CD2:4872, V-A:TYR:539:CE2:4874, V-A:GLU:543:CD:4906, V-B:LEU:475:CD2:9231, V-B:TRP:381:CH2:8344, V-B:TRP:381:CZ2:8342, V-B:ILE:369:CG2:8209, V-B:ILE:538:CA:9832, V-B:PRO:540:CB:9857, V-B:PRO:540:CD:9859, V-B:PRO:540:N:9856, V-B:TYR:539:C:9839, V-B:ILE:538:CB:9834, H-B:TYR:531:OH:9767, V-B:ILE:538:CG2:9835, H-B:TYR:539:N:9842, V-B:ASP:366:CB:8184, H-A:TYR:484:OH:4346, V-A:ARG:545:CD:4921, V-B:ILE:369:CD1:8211, H-A:GLY:454:N:4048, V-A:ARG:545:CG:4920, H-B:ASP:366:OD1:8186, V-B:TYR:531:CE2:9765, V-B:GLY:454:CA:9021, V-A:ARG:545:CB:4919, V-A:GLY:453:C:4040, V-B:SER:385:C:8377, V-A:ILE:455:C:4050, H-A:ILE:455:N:4053"]

$$$$
8d_Ghoteimi_2023
     RDKit          3D

 30 33  0  0  0  0  0  0  0  0999 V2000
  127.0940  123.8110   54.7520 C   0  0  0  0  0  0  0  0  0  0  0  0
  126.4600  122.7810   55.4980 O   0  0  0  0  0  0  0  0  0  0  0  0
  125.8040  123.0610   56.6530 C   0  0  0  0  0  0  0  0  0  0  0  0
  124.6140  122.8050   56.8500 O   0  0  0  0  0  0  0  0  0  0  0  0
  126.6680  123.7110   57.6630 C   0  0  0  0  0  0  0  0  0  0  0  0
  128.0260  122.8250   58.3600 S   0  0  0  0  0  0  0  0  0  0  0  0
  128.4580  124.1950   59.3570 C   0  0  0  0  0  0  0  0  0  0  0  0
  129.4970  124.1580   60.1920 N   0  0  0  0  0  0  0  0  0  0  0  0
  129.7460  125.2800   60.9200 C   0  0  0  0  0  0  0  0  0  0  0  0
  130.9140  125.2100   61.8520 C   0  0  0  0  0  0  0  0  0  0  0  0
  130.8010  125.6180   63.1890 C   0  0  0  0  0  0  0  0  0  0  0  0
  131.8910  125.5520   64.0510 C   0  0  0  0  0  0  0  0  0  0  0  0
  133.1220  125.0770   63.6020 C   0  0  0  0  0  0  0  0  0  0  0  0
  134.1480  125.0460   64.5270 O   0  0  0  0  0  0  0  0  0  0  0  0
  133.8310  125.0390   65.9150 C   0  0  0  0  0  0  0  0  0  0  0  0
  133.2470  124.6650   62.2670 C   0  0  0  0  0  0  0  0  0  0  0  0
  132.1540  124.7320   61.4080 C   0  0  0  0  0  0  0  0  0  0  0  0
  128.9540  126.4270   60.8170 C   0  0  0  0  0  0  0  0  0  0  0  0
  127.8660  126.4670   59.9400 C   0  0  0  0  0  0  0  0  0  0  0  0
  127.0520  127.7010   59.8470 C   0  0  0  0  0  0  0  0  0  0  0  0
  126.9510  128.3860   58.6350 C   0  0  0  0  0  0  0  0  0  0  0  0
  126.1920  129.5500   58.5500 C   0  0  0  0  0  0  0  0  0  0  0  0
  125.5230  130.0440   59.6700 C   0  0  0  0  0  0  0  0  0  0  0  0
  124.7960  131.2050   59.4920 O   0  0  0  0  0  0  0  0  0  0  0  0
  123.4240  131.1160   59.1250 C   0  0  0  0  0  0  0  0  0  0  0  0
  125.6230  129.3500   60.8880 C   0  0  0  0  0  0  0  0  0  0  0  0
  126.3820  128.1870   60.9710 C   0  0  0  0  0  0  0  0  0  0  0  0
  127.5900  125.3080   59.1670 C   0  0  0  0  0  0  0  0  0  0  0  0
  126.5770  125.0030   58.1950 C   0  0  0  0  0  0  0  0  0  0  0  0
  125.6080  125.9020   57.8300 N   0  0  0  0  0  0  0  0  0  0  0  0
  1  2  1  0
  2  3  1  0
  3  4  2  0
  3  5  1  0
  5  6  1  0
  6  7  1  0
  7  8  2  0
  8  9  1  0
  9 10  1  0
 10 11  2  0
 11 12  1  0
 12 13  2  0
 13 14  1  0
 14 15  1  0
 13 16  1  0
 16 17  2  0
  9 18  2  0
 18 19  1  0
 19 20  1  0
 20 21  2  0
 21 22  1  0
 22 23  2  0
 23 24  1  0
 24 25  1  0
 23 26  1  0
 26 27  2  0
 19 28  2  0
 28 29  1  0
 29 30  1  0
 29  5  2  0
 28  7  1  0
 17 10  1  0
 27 20  1  0
M  END
>  <Binding energies>  (38) 
[-7.06]

>  <Ligand effiencies>  (38) 
[-0.220625]

>  <Interactions>  (38) 
["V-B:ASP:366:CG:8185, V-A:HIS:456:CE1:4068, H-B:ASP:366:OD2:8187, V-A:ARG:545:CZ:4924, V-B:GLU:543:CD:9880, V-B:TYR:539:CD2:9846, V-B:PRO:540:CA:9855, V-B:ILE:369:CG2:8209, V-B:ILE:538:CA:9832, V-B:PRO:540:CB:9857, V-B:PRO:540:CD:9859, V-B:PRO:540:N:9856, V-B:TYR:539:C:9839, H-B:TYR:531:OH:9767, H-B:TYR:539:N:9842, V-B:ASP:366:CB:8184, V-B:ASP:366:CA:8182, H-A:TYR:484:OH:4346, V-A:ARG:545:CD:4921, V-B:ILE:369:CD1:8211, V-B:ILE:369:CB:8208, H-A:ARG:545:NH1:4925, H-A:GLY:454:N:4048, V-A:ARG:545:CG:4920, H-A:ARG:545:NE:4922, V-A:TYR:484:CZ:4345"]

$$$$
9a_Ghoteimi_2023
     RDKit          3D

 48 54  0  0  0  0  0  0  0  0999 V2000
  125.5770  129.9000   55.2200 C   0  0  0  0  0  0  0  0  0  0  0  0
  125.4380  130.2710   56.7000 C   0  0  0  0  0  0  0  0  0  0  0  0
  124.0630  130.2600   57.0640 O   0  0  0  0  0  0  0  0  0  0  0  0
  123.6100  130.9920   58.1130 C   0  0  0  0  0  0  0  0  0  0  0  0
  122.7340  131.8580   58.0120 O   0  0  0  0  0  0  0  0  0  0  0  0
  124.2840  130.6510   59.4110 C   0  0  0  0  0  0  0  0  0  0  0  0
  125.2430  129.6300   59.4360 C   0  0  0  0  0  0  0  0  0  0  0  0
  125.8840  129.2890   60.6240 C   0  0  0  0  0  0  0  0  0  0  0  0
  125.5830  129.9600   61.8090 C   0  0  0  0  0  0  0  0  0  0  0  0
  126.2920  129.5310   62.9470 N   0  0  0  0  0  0  0  0  0  0  0  0
  126.5120  130.1540   64.1320 C   0  0  0  0  0  0  0  0  0  0  0  0
  126.0910  131.2770   64.4120 O   0  0  0  0  0  0  0  0  0  0  0  0
  127.3020  129.3910   65.1030 C   0  0  0  0  0  0  0  0  0  0  0  0
  127.1110  129.6830   66.8320 S   0  0  0  0  0  0  0  0  0  0  0  0
  128.2980  128.4580   67.2160 C   0  0  0  0  0  0  0  0  0  0  0  0
  128.6130  128.1620   68.4760 N   0  0  0  0  0  0  0  0  0  0  0  0
  129.5400  127.1850   68.6670 C   0  0  0  0  0  0  0  0  0  0  0  0
  129.8700  126.8620   70.0880 C   0  0  0  0  0  0  0  0  0  0  0  0
  131.1990  126.8550   70.5250 C   0  0  0  0  0  0  0  0  0  0  0  0
  131.5160  126.5560   71.8480 C   0  0  0  0  0  0  0  0  0  0  0  0
  130.5130  126.2650   72.7860 C   0  0  0  0  0  0  0  0  0  0  0  0
  130.8170  125.9450   74.1130 N   0  0  0  0  0  0  0  0  0  0  0  0
  131.3970  124.6360   74.4770 C   0  0  0  0  0  0  0  0  0  0  0  0
  131.3270  124.3220   75.9860 C   0  0  0  0  0  0  0  0  0  0  0  0
  131.9270  125.3700   76.7300 O   0  0  0  0  0  0  0  0  0  0  0  0
  131.2670  126.6070   76.5110 C   0  0  0  0  0  0  0  0  0  0  0  0
  131.3430  126.9880   75.0180 C   0  0  0  0  0  0  0  0  0  0  0  0
  129.1830  126.2590   72.3390 C   0  0  0  0  0  0  0  0  0  0  0  0
  128.8680  126.5550   71.0160 C   0  0  0  0  0  0  0  0  0  0  0  0
  130.1640  126.5320   67.6020 C   0  0  0  0  0  0  0  0  0  0  0  0
  129.8500  126.8540   66.2770 C   0  0  0  0  0  0  0  0  0  0  0  0
  130.5710  126.1550   65.1820 C   0  0  0  0  0  0  0  0  0  0  0  0
  130.0650  126.1610   63.8800 C   0  0  0  0  0  0  0  0  0  0  0  0
  130.7480  125.5170   62.8530 C   0  0  0  0  0  0  0  0  0  0  0  0
  131.9670  124.8630   63.0980 C   0  0  0  0  0  0  0  0  0  0  0  0
  132.6650  124.2000   62.0860 N   0  0  0  0  0  0  0  0  0  0  0  0
  132.4980  124.6430   60.6870 C   0  0  0  0  0  0  0  0  0  0  0  0
  133.5880  124.0980   59.7390 C   0  0  0  0  0  0  0  0  0  0  0  0
  133.6370  122.6820   59.8190 O   0  0  0  0  0  0  0  0  0  0  0  0
  133.9410  122.2410   61.1330 C   0  0  0  0  0  0  0  0  0  0  0  0
  132.8610  122.7370   62.1190 C   0  0  0  0  0  0  0  0  0  0  0  0
  132.4660  124.8660   64.4080 C   0  0  0  0  0  0  0  0  0  0  0  0
  131.7810  125.5060   65.4360 C   0  0  0  0  0  0  0  0  0  0  0  0
  128.8560  127.8490   66.0540 C   0  0  0  0  0  0  0  0  0  0  0  0
  128.2500  128.3860   64.8600 C   0  0  0  0  0  0  0  0  0  0  0  0
  128.5700  127.9350   63.6050 N   0  0  0  0  0  0  0  0  0  0  0  0
  124.6250  130.9870   61.7930 C   0  0  0  0  0  0  0  0  0  0  0  0
  123.9840  131.3260   60.6040 C   0  0  0  0  0  0  0  0  0  0  0  0
  1  2  1  0
  2  3  1  0
  3  4  1  0
  4  5  2  0
  4  6  1  0
  6  7  2  0
  7  8  1  0
  8  9  2  0
  9 10  1  0
 10 11  1  0
 11 12  2  0
 11 13  1  0
 13 14  1  0
 14 15  1  0
 15 16  2  0
 16 17  1  0
 17 18  1  0
 18 19  2  0
 19 20  1  0
 20 21  2  0
 21 22  1  0
 22 23  1  0
 23 24  1  0
 24 25  1  0
 25 26  1  0
 26 27  1  0
 21 28  1  0
 28 29  2  0
 17 30  2  0
 30 31  1  0
 31 32  1  0
 32 33  2  0
 33 34  1  0
 34 35  2  0
 35 36  1  0
 36 37  1  0
 37 38  1  0
 38 39  1  0
 39 40  1  0
 40 41  1  0
 35 42  1  0
 42 43  2  0
 31 44  2  0
 44 45  1  0
 45 46  1  0
  9 47  1  0
 47 48  2  0
 48  6  1  0
 45 13  2  0
 44 15  1  0
 29 18  1  0
 43 32  1  0
 27 22  1  0
 41 36  1  0
M  END
>  <Binding energies>  (39) 
[-1.34]

>  <Ligand effiencies>  (39) 
[-0.02627450980392157]

>  <Interactions>  (39) 
["V-B:ASP:366:CG:8185, V-A:HIS:456:CE1:4068, H-B:GLU:543:OE1:9881, V-A:ARG:545:CZ:4924, V-B:GLU:543:CD:9880, V-B:GLU:543:CB:9878, H-B:GLU:543:OE2:9882, H-A:GLU:543:OE2:4908, H-A:GLU:543:OE1:4907, V-B:ARG:545:CZ:9898, V-A:TYR:539:CE2:4874, V-A:ASP:366:CG:3211, V-A:GLU:543:CD:4906, V-A:TYR:539:CZ:4875, V-B:ILE:369:CG2:8209, V-A:HIS:456:CB:4063, V-A:GLY:544:C:4910, V-A:HIS:456:CG:4064, V-A:LYS:547:CD:4947, H-B:LYS:547:NZ:9923, V-A:HIS:456:CD2:4066, V-A:LYS:471:CE:4218, V-B:LYS:547:CE:9922, V-A:LYS:547:CE:4948, V-A:LYS:471:CD:4217, V-B:GLY:544:C:9884, V-B:GLY:544:CA:9886, V-B:GLU:543:C:9874, H-B:TYR:484:OH:9320, V-B:HIS:456:CE1:9042, V-A:GLU:543:CB:4904, V-B:TYR:484:CZ:9319, V-B:ASP:366:CB:8184, V-A:GLU:543:CG:4905, V-B:GLU:543:CG:9879, V-B:ASP:366:CA:8182, V-B:ILE:369:CD1:8211, V-A:LEU:475:CD2:4257, V-A:ILE:369:CG2:3235, V-A:ILE:369:CD1:3237, H-A:TYR:539:OH:4876, V-B:TYR:531:CZ:9766, V-A:ARG:545:CA:4917, V-B:TYR:531:CE1:9764, V-A:GLY:454:CA:4047, V-B:ASP:366:C:8180, H-B:ASN:370:N:8216"]

$$$$
9b_Ghoteimi_2023
     RDKit          3D

 42 48  0  0  0  0  0  0  0  0999 V2000
  129.2290  126.9040   63.4320 N   0  0  0  0  0  0  0  0  0  0  0  0
  129.7420  126.5430   64.6520 C   0  0  0  0  0  0  0  0  0  0  0  0
  130.7630  125.5930   64.8110 C   0  0  0  0  0  0  0  0  0  0  0  0
  131.4820  124.8430   63.7790 C   0  0  0  0  0  0  0  0  0  0  0  0
  132.6270  125.1630   63.4510 O   0  0  0  0  0  0  0  0  0  0  0  0
  130.8010  123.8060   63.2310 N   0  0  0  0  0  0  0  0  0  0  0  0
  131.2330  122.9420   62.2330 C   0  0  0  0  0  0  0  0  0  0  0  0
  130.3630  122.3040   61.3500 C   0  0  0  0  0  0  0  0  0  0  0  0
  131.1730  121.5520   60.5300 C   0  0  0  0  0  0  0  0  0  0  0  0
  132.4640  121.7280   60.9010 O   0  0  0  0  0  0  0  0  0  0  0  0
  132.4890  122.6110   61.9810 N   0  0  0  0  0  0  0  0  0  0  0  0
  131.1510  125.3530   66.5150 S   0  0  0  0  0  0  0  0  0  0  0  0
  129.9340  126.5080   67.0020 C   0  0  0  0  0  0  0  0  0  0  0  0
  129.6980  126.7750   68.2850 N   0  0  0  0  0  0  0  0  0  0  0  0
  128.7180  127.6770   68.5570 C   0  0  0  0  0  0  0  0  0  0  0  0
  128.4600  127.9430   70.0050 C   0  0  0  0  0  0  0  0  0  0  0  0
  127.1560  127.9650   70.5160 C   0  0  0  0  0  0  0  0  0  0  0  0
  126.9210  128.2270   71.8620 C   0  0  0  0  0  0  0  0  0  0  0  0
  127.9800  128.4920   72.7450 C   0  0  0  0  0  0  0  0  0  0  0  0
  127.7590  128.7540   74.1020 N   0  0  0  0  0  0  0  0  0  0  0  0
  127.4090  127.6750   75.0470 C   0  0  0  0  0  0  0  0  0  0  0  0
  127.5440  128.0770   76.5300 C   0  0  0  0  0  0  0  0  0  0  0  0
  126.7800  129.2430   76.7870 O   0  0  0  0  0  0  0  0  0  0  0  0
  127.2220  130.3390   76.0020 C   0  0  0  0  0  0  0  0  0  0  0  0
  127.0820  130.0060   74.5000 C   0  0  0  0  0  0  0  0  0  0  0  0
  129.2840  128.4480   72.2320 C   0  0  0  0  0  0  0  0  0  0  0  0
  129.5200  128.1810   70.8860 C   0  0  0  0  0  0  0  0  0  0  0  0
  127.9990  128.3250   67.5500 C   0  0  0  0  0  0  0  0  0  0  0  0
  128.2570  128.0620   66.2000 C   0  0  0  0  0  0  0  0  0  0  0  0
  127.4860  128.8000   65.1670 C   0  0  0  0  0  0  0  0  0  0  0  0
  127.8880  128.7690   63.8310 C   0  0  0  0  0  0  0  0  0  0  0  0
  127.1560  129.4430   62.8590 C   0  0  0  0  0  0  0  0  0  0  0  0
  126.0020  130.1680   63.1950 C   0  0  0  0  0  0  0  0  0  0  0  0
  125.2440  130.8390   62.2330 N   0  0  0  0  0  0  0  0  0  0  0  0
  125.0260  132.2920   62.3690 C   0  0  0  0  0  0  0  0  0  0  0  0
  123.8700  132.8190   61.4910 C   0  0  0  0  0  0  0  0  0  0  0  0
  124.0950  132.4700   60.1340 O   0  0  0  0  0  0  0  0  0  0  0  0
  124.1750  131.0640   59.9580 C   0  0  0  0  0  0  0  0  0  0  0  0
  125.3340  130.4910   60.8010 C   0  0  0  0  0  0  0  0  0  0  0  0
  125.5980  130.1770   64.5380 C   0  0  0  0  0  0  0  0  0  0  0  0
  126.3300  129.5020   65.5120 C   0  0  0  0  0  0  0  0  0  0  0  0
  129.2560  127.0960   65.8920 C   0  0  0  0  0  0  0  0  0  0  0  0
  1  2  1  0
  2  3  2  0
  3  4  1  0
  4  5  2  0
  4  6  1  0
  6  7  1  0
  7  8  1  0
  8  9  2  0
  9 10  1  0
 10 11  1  0
  3 12  1  0
 12 13  1  0
 13 14  2  0
 14 15  1  0
 15 16  1  0
 16 17  2  0
 17 18  1  0
 18 19  2  0
 19 20  1  0
 20 21  1  0
 21 22  1  0
 22 23  1  0
 23 24  1  0
 24 25  1  0
 19 26  1  0
 26 27  2  0
 15 28  2  0
 28 29  1  0
 29 30  1  0
 30 31  2  0
 31 32  1  0
 32 33  2  0
 33 34  1  0
 34 35  1  0
 35 36  1  0
 36 37  1  0
 37 38  1  0
 38 39  1  0
 33 40  1  0
 40 41  2  0
 29 42  2  0
 42  2  1  0
 11  7  2  0
 42 13  1  0
 27 16  1  0
 41 30  1  0
 25 20  1  0
 39 34  1  0
M  END
>  <Binding energies>  (40) 
[-1.91]

>  <Ligand effiencies>  (40) 
[-0.042444444444444444]

>  <Interactions>  (40) 
["V-B:ALA:541:CB:9864, V-B:ASP:366:CG:8185, V-A:HIS:456:CE1:4068, H-B:GLU:543:OE1:9881, V-B:GLU:543:CD:9880, V-B:TYR:539:CD2:9846, V-B:GLU:543:CB:9878, H-B:GLU:543:OE2:9882, V-B:TYR:539:CE2:9848, H-A:GLU:543:OE2:4908, H-A:ARG:545:NH2:4926, H-A:GLU:543:OE1:4907, V-B:ARG:545:CZ:9898, V-A:GLU:543:CD:4906, V-B:LEU:475:CD2:9231, V-B:ILE:369:CG2:8209, V-B:HIS:456:CD2:9040, V-A:GLY:544:C:4910, H-A:LYS:547:NZ:4949, V-B:LYS:471:CE:9192, V-B:HIS:456:CG:9038, V-B:LYS:547:CD:9921, V-B:LYS:547:CE:9922, V-A:LYS:547:CE:4948, V-B:HIS:456:CB:9037, V-B:GLY:544:C:9884, V-B:HIS:456:CE1:9042, V-A:GLU:543:CB:4904, V-A:GLU:543:C:4900, V-A:GLU:543:CG:4905, V-B:GLU:543:CG:9879, V-B:ILE:369:CD1:8211, H-A:ARG:545:NE:4922, V-A:TYR:484:CZ:4345, V-A:GLY:544:CA:4912, V-A:LEU:475:CD2:4257, V-B:ARG:545:CA:9891"]

$$$$
9c_Ghoteimi_2023
     RDKit          3D

 42 48  0  0  0  0  0  0  0  0999 V2000
  129.2360  126.8990   63.4000 N   0  0  0  0  0  0  0  0  0  0  0  0
  129.7510  126.5490   64.6220 C   0  0  0  0  0  0  0  0  0  0  0  0
  130.7830  125.6120   64.7870 C   0  0  0  0  0  0  0  0  0  0  0  0
  131.5080  124.8610   63.7570 C   0  0  0  0  0  0  0  0  0  0  0  0
  132.6320  125.2110   63.3950 O   0  0  0  0  0  0  0  0  0  0  0  0
  130.8520  123.7870   63.2510 N   0  0  0  0  0  0  0  0  0  0  0  0
  131.3040  122.9230   62.2640 C   0  0  0  0  0  0  0  0  0  0  0  0
  130.6220  122.4130   61.2610 N   0  0  0  0  0  0  0  0  0  0  0  0
  131.3720  121.6230   60.5170 C   0  0  0  0  0  0  0  0  0  0  0  0
  132.6980  121.4780   60.9140 C   0  0  0  0  0  0  0  0  0  0  0  0
  132.9670  122.4340   62.3410 S   0  0  0  0  0  0  0  0  0  0  0  0
  131.1730  125.3860   66.4910 S   0  0  0  0  0  0  0  0  0  0  0  0
  129.9440  126.5310   66.9720 C   0  0  0  0  0  0  0  0  0  0  0  0
  129.7070  126.8040   68.2540 N   0  0  0  0  0  0  0  0  0  0  0  0
  128.7180  127.6960   68.5210 C   0  0  0  0  0  0  0  0  0  0  0  0
  128.4580  127.9680   69.9680 C   0  0  0  0  0  0  0  0  0  0  0  0
  127.1580  127.9590   70.4850 C   0  0  0  0  0  0  0  0  0  0  0  0
  126.9210  128.2210   71.8300 C   0  0  0  0  0  0  0  0  0  0  0  0
  127.9770  128.5160   72.7080 C   0  0  0  0  0  0  0  0  0  0  0  0
  127.7560  128.7760   74.0650 N   0  0  0  0  0  0  0  0  0  0  0  0
  127.3700  127.7000   75.0010 C   0  0  0  0  0  0  0  0  0  0  0  0
  127.5110  128.0860   76.4880 C   0  0  0  0  0  0  0  0  0  0  0  0
  126.7790  129.2730   76.7510 O   0  0  0  0  0  0  0  0  0  0  0  0
  127.2580  130.3600   75.9760 C   0  0  0  0  0  0  0  0  0  0  0  0
  127.1140  130.0430   74.4710 C   0  0  0  0  0  0  0  0  0  0  0  0
  129.2790  128.5050   72.1880 C   0  0  0  0  0  0  0  0  0  0  0  0
  129.5150  128.2380   70.8430 C   0  0  0  0  0  0  0  0  0  0  0  0
  127.9910  128.3310   67.5110 C   0  0  0  0  0  0  0  0  0  0  0  0
  128.2520  128.0630   66.1620 C   0  0  0  0  0  0  0  0  0  0  0  0
  127.4750  128.7870   65.1250 C   0  0  0  0  0  0  0  0  0  0  0  0
  127.8840  128.7600   63.7910 C   0  0  0  0  0  0  0  0  0  0  0  0
  127.1480  129.4230   62.8130 C   0  0  0  0  0  0  0  0  0  0  0  0
  125.9830  130.1320   63.1440 C   0  0  0  0  0  0  0  0  0  0  0  0
  125.2220  130.7960   62.1770 N   0  0  0  0  0  0  0  0  0  0  0  0
  124.9710  132.2430   62.3270 C   0  0  0  0  0  0  0  0  0  0  0  0
  123.8210  132.7570   61.4340 C   0  0  0  0  0  0  0  0  0  0  0  0
  124.0770  132.4300   60.0760 O   0  0  0  0  0  0  0  0  0  0  0  0
  124.1870  131.0280   59.8870 C   0  0  0  0  0  0  0  0  0  0  0  0
  125.3430  130.4670   60.7430 C   0  0  0  0  0  0  0  0  0  0  0  0
  125.5700  130.1350   64.4850 C   0  0  0  0  0  0  0  0  0  0  0  0
  126.3060  129.4720   65.4630 C   0  0  0  0  0  0  0  0  0  0  0  0
  129.2610  127.1050   65.8580 C   0  0  0  0  0  0  0  0  0  0  0  0
  1  2  1  0
  2  3  2  0
  3  4  1  0
  4  5  2  0
  4  6  1  0
  6  7  1  0
  7  8  2  0
  8  9  1  0
  9 10  2  0
 10 11  1  0
  3 12  1  0
 12 13  1  0
 13 14  2  0
 14 15  1  0
 15 16  1  0
 16 17  2  0
 17 18  1  0
 18 19  2  0
 19 20  1  0
 20 21  1  0
 21 22  1  0
 22 23  1  0
 23 24  1  0
 24 25  1  0
 19 26  1  0
 26 27  2  0
 15 28  2  0
 28 29  1  0
 29 30  1  0
 30 31  2  0
 31 32  1  0
 32 33  2  0
 33 34  1  0
 34 35  1  0
 35 36  1  0
 36 37  1  0
 37 38  1  0
 38 39  1  0
 33 40  1  0
 40 41  2  0
 29 42  2  0
 42  2  1  0
 11  7  1  0
 42 13  1  0
 27 16  1  0
 41 30  1  0
 25 20  1  0
 39 34  1  0
M  END
>  <Binding energies>  (41) 
[-1.89]

>  <Ligand effiencies>  (41) 
[-0.041999999999999996]

>  <Interactions>  (41) 
["V-B:ASP:366:CG:8185, V-A:HIS:456:CE1:4068, H-B:GLU:543:OE1:9881, V-B:GLU:543:CD:9880, V-B:TYR:539:CD2:9846, V-B:GLU:543:CB:9878, H-B:GLU:543:OE2:9882, V-B:TYR:539:CE2:9848, H-A:GLU:543:OE2:4908, H-A:ARG:545:NH2:4926, H-A:GLU:543:OE1:4907, V-B:ARG:545:CZ:9898, V-A:GLU:543:CD:4906, V-B:LEU:475:CD2:9231, V-B:ILE:369:CG2:8209, V-B:HIS:456:CD2:9040, V-A:GLY:544:C:4910, H-A:LYS:547:NZ:4949, V-B:LYS:471:CE:9192, V-B:HIS:456:CG:9038, V-B:LYS:547:CD:9921, V-B:LYS:547:CE:9922, V-A:LYS:547:CE:4948, V-B:HIS:456:CB:9037, V-B:GLY:544:C:9884, V-B:HIS:456:CE1:9042, V-A:GLU:543:CB:4904, V-A:GLU:543:C:4900, V-A:GLU:543:CG:4905, V-B:GLU:543:CG:9879, V-B:ILE:369:CD1:8211, H-A:ARG:545:NE:4922, V-A:TYR:484:CZ:4345, V-A:GLY:544:CA:4912, V-A:LEU:475:CD2:4257, V-A:GLY:454:CA:4047, V-B:ARG:545:CA:9891"]

$$$$
RR11_Rahimova_2017
     RDKit          3D

 33 38  0  0  0  0  0  0  0  0999 V2000
  133.5140  132.2140   55.4380 N   0  0  0  0  0  0  0  0  0  0  0  0
  132.3290  131.9820   56.1340 C   0  0  0  0  0  0  0  0  0  0  0  0
  132.3750  131.5640   57.4620 C   0  0  0  0  0  0  0  0  0  0  0  0
  131.1920  131.3350   58.1580 C   0  0  0  0  0  0  0  0  0  0  0  0
  129.9510  131.5220   57.5330 C   0  0  0  0  0  0  0  0  0  0  0  0
  128.6770  131.2810   58.2850 C   0  0  0  0  0  0  0  0  0  0  0  0
  128.6150  130.9650   59.5610 N   0  0  0  0  0  0  0  0  0  0  0  0
  127.2780  130.8510   59.8410 C   0  0  0  0  0  0  0  0  0  0  0  0
  126.6510  130.5380   61.0550 C   0  0  0  0  0  0  0  0  0  0  0  0
  125.2520  130.4990   61.0910 C   0  0  0  0  0  0  0  0  0  0  0  0
  124.5430  130.1570   62.3940 C   0  0  0  0  0  0  0  0  0  0  0  0
  125.4830  130.1270   63.5910 C   0  0  0  0  0  0  0  0  0  0  0  0
  126.2500  131.2580   63.8930 C   0  0  0  0  0  0  0  0  0  0  0  0
  127.1200  131.2820   64.9850 C   0  0  0  0  0  0  0  0  0  0  0  0
  127.2050  130.1360   65.7870 C   0  0  0  0  0  0  0  0  0  0  0  0
  127.9780  129.9080   66.8960 N   0  0  0  0  0  0  0  0  0  0  0  0
  127.6910  128.6800   67.2720 C   0  0  0  0  0  0  0  0  0  0  0  0
  128.3160  127.9840   68.4470 C   0  0  0  0  0  0  0  0  0  0  0  0
  129.6770  127.6530   68.4360 C   0  0  0  0  0  0  0  0  0  0  0  0
  130.2550  126.9990   69.5210 C   0  0  0  0  0  0  0  0  0  0  0  0
  129.4740  126.6710   70.6260 C   0  0  0  0  0  0  0  0  0  0  0  0
  130.0500  126.0110   71.7120 N   0  0  0  0  0  0  0  0  0  0  0  0
  128.1200  126.9970   70.6540 C   0  0  0  0  0  0  0  0  0  0  0  0
  127.5440  127.6510   69.5680 C   0  0  0  0  0  0  0  0  0  0  0  0
  126.7510  128.0950   66.4510 N   0  0  0  0  0  0  0  0  0  0  0  0
  126.4140  129.0050   65.4770 C   0  0  0  0  0  0  0  0  0  0  0  0
  125.5380  128.9760   64.3890 C   0  0  0  0  0  0  0  0  0  0  0  0
  124.5020  130.7420   59.9350 C   0  0  0  0  0  0  0  0  0  0  0  0
  125.0970  131.0510   58.7090 C   0  0  0  0  0  0  0  0  0  0  0  0
  126.4930  131.1020   58.6910 C   0  0  0  0  0  0  0  0  0  0  0  0
  127.4240  131.3710   57.7150 N   0  0  0  0  0  0  0  0  0  0  0  0
  129.9190  131.9420   56.1960 C   0  0  0  0  0  0  0  0  0  0  0  0
  131.1020  132.1710   55.4980 C   0  0  0  0  0  0  0  0  0  0  0  0
  1  2  1  0
  2  3  2  0
  3  4  1  0
  4  5  2  0
  5  6  1  0
  6  7  2  0
  7  8  1  0
  8  9  2  0
  9 10  1  0
 10 11  1  0
 11 12  1  0
 12 13  2  0
 13 14  1  0
 14 15  2  0
 15 16  1  0
 16 17  2  0
 17 18  1  0
 18 19  2  0
 19 20  1  0
 20 21  2  0
 21 22  1  0
 21 23  1  0
 23 24  2  0
 17 25  1  0
 25 26  1  0
 26 27  2  0
 10 28  2  0
 28 29  1  0
 29 30  2  0
 30 31  1  0
  5 32  1  0
 32 33  2  0
 33  2  1  0
 31  6  1  0
 30  8  1  0
 27 12  1  0
 26 15  1  0
 24 18  1  0
M  END
>  <Binding energies>  (42) 
[-6.58]

>  <Ligand effiencies>  (42) 
[-0.1687179487179487]

>  <Interactions>  (42) 
["V-B:ASP:366:CG:8185, V-A:HIS:456:CE1:4068, V-B:GLU:543:CD:9880, H-B:GLU:543:OE2:9882, V-B:ARG:545:CZ:9898, V-A:TYR:539:CD2:4872, V-A:TYR:539:CE2:4874, V-A:GLU:543:CD:4906, V-A:TYR:539:CZ:4875, V-A:PRO:540:CA:4881, V-A:PRO:540:N:4882, V-A:TYR:539:C:4865, V-A:PRO:540:CB:4883, V-B:HIS:456:CD2:9040, V-A:GLY:544:C:4910, V-A:HIS:456:CG:4064, V-A:HIS:456:CD2:4066, V-B:GLY:544:C:9884, V-B:GLY:544:CA:9886, V-B:GLU:543:C:9874, H-B:TYR:484:OH:9320, V-B:HIS:456:CE1:9042, V-A:GLU:543:CB:4904, V-B:TYR:484:CZ:9319, V-B:TYR:484:CE1:9317, V-A:PRO:540:CD:4885, V-A:ILE:538:CB:4860, V-A:ILE:538:CG2:4861, V-A:LEU:363:CD1:3187, V-A:TYR:531:CE2:4791, V-B:ASP:366:CB:8184, V-B:ARG:545:CG:9894, H-A:HIS:456:NE2:4069, H-B:GLU:543:O:9875, V-A:GLU:543:C:4900, V-A:GLU:543:CG:4905, V-B:GLU:543:CG:9879, V-B:ARG:545:CD:9895, H-A:TYR:531:OH:4793, V-A:ILE:538:CA:4858, H-A:TYR:539:OH:4876, H-A:GLY:544:O:4911, V-A:TYR:531:CZ:4792, V-A:ILE:538:CD1:4863, V-A:ILE:538:C:4856"]

$$$$
RR16_Rahimova_2017
     RDKit          3D

 44 49  0  0  0  0  0  0  0  0999 V2000
  134.5540  122.7730   61.7800 O   0  0  0  0  0  0  0  0  0  0  0  0
  133.7110  123.9320   62.0970 S   0  0  0  0  0  0  0  0  0  0  0  0
  134.2730  125.1070   62.7730 O   0  0  0  0  0  0  0  0  0  0  0  0
  132.3450  123.3510   63.0510 N   0  0  0  0  0  0  0  0  0  0  0  0
  131.4900  122.2450   62.5610 C   0  0  0  0  0  0  0  0  0  0  0  0
  130.0020  122.6770   62.6420 C   0  0  0  0  0  0  0  0  0  0  0  0
  129.2560  122.8950   61.3110 C   0  0  0  0  0  0  0  0  0  0  0  0
  128.9040  121.5930   60.5720 C   0  0  0  0  0  0  0  0  0  0  0  0
  129.8140  120.3880   60.8670 C   0  0  0  0  0  0  0  0  0  0  0  0
  131.3210  120.5570   60.5900 C   0  0  0  0  0  0  0  0  0  0  0  0
  131.9900  121.8230   61.1600 C   0  0  0  0  0  0  0  0  0  0  0  0
  132.9800  124.4780   60.5590 C   0  0  0  0  0  0  0  0  0  0  0  0
  131.9440  125.4150   60.5640 C   0  0  0  0  0  0  0  0  0  0  0  0
  131.3020  125.7390   59.3720 C   0  0  0  0  0  0  0  0  0  0  0  0
  131.6990  125.1270   58.1820 C   0  0  0  0  0  0  0  0  0  0  0  0
  130.7850  125.4350   56.6720 S   0  0  0  0  0  0  0  0  0  0  0  0
  130.0820  124.1930   56.3230 O   0  0  0  0  0  0  0  0  0  0  0  0
  131.7100  126.0570   55.7170 O   0  0  0  0  0  0  0  0  0  0  0  0
  129.5740  126.6460   57.1380 N   0  0  0  0  0  0  0  0  0  0  0  0
  129.2210  127.6080   56.0620 C   0  0  0  0  0  0  0  0  0  0  0  0
  128.4170  128.7920   56.6390 C   0  0  0  0  0  0  0  0  0  0  0  0
  127.1870  128.3110   57.4490 C   0  0  0  0  0  0  0  0  0  0  0  0
  126.4020  129.4690   58.0690 C   0  0  0  0  0  0  0  0  0  0  0  0
  125.0620  129.6720   57.7110 C   0  0  0  0  0  0  0  0  0  0  0  0
  124.3060  130.7100   58.2570 C   0  0  0  0  0  0  0  0  0  0  0  0
  122.9950  130.8900   57.8980 O   0  0  0  0  0  0  0  0  0  0  0  0
  124.9230  131.5600   59.1880 C   0  0  0  0  0  0  0  0  0  0  0  0
  124.4380  132.6270   59.8870 N   0  0  0  0  0  0  0  0  0  0  0  0
  125.4540  133.0910   60.6930 N   0  0  0  0  0  0  0  0  0  0  0  0
  126.5550  132.3510   60.4590 N   0  0  0  0  0  0  0  0  0  0  0  0
  127.7650  132.5690   61.2410 C   0  0  0  0  0  0  0  0  0  0  0  0
  129.0260  132.1450   60.5020 C   0  0  0  0  0  0  0  0  0  0  0  0
  129.0600  132.1640   59.1030 C   0  0  0  0  0  0  0  0  0  0  0  0
  130.2220  131.7970   58.4240 C   0  0  0  0  0  0  0  0  0  0  0  0
  131.3570  131.4120   59.1380 C   0  0  0  0  0  0  0  0  0  0  0  0
  131.3310  131.3930   60.5330 C   0  0  0  0  0  0  0  0  0  0  0  0
  132.7360  130.9280   61.4200 Cl  0  0  0  0  0  0  0  0  0  0  0  0
  130.1660  131.7560   61.2130 C   0  0  0  0  0  0  0  0  0  0  0  0
  126.2780  131.3540   59.5380 C   0  0  0  0  0  0  0  0  0  0  0  0
  127.0380  130.3160   58.9880 C   0  0  0  0  0  0  0  0  0  0  0  0
  127.5550  127.2130   58.4810 C   0  0  0  0  0  0  0  0  0  0  0  0
  128.3950  126.0860   57.8490 C   0  0  0  0  0  0  0  0  0  0  0  0
  132.7630  124.2220   58.1720 C   0  0  0  0  0  0  0  0  0  0  0  0
  133.4020  123.8950   59.3630 C   0  0  0  0  0  0  0  0  0  0  0  0
  1  2  2  0
  2  3  2  0
  2  4  1  0
  4  5  1  0
  5  6  1  0
  6  7  1  0
  7  8  1  0
  8  9  1  0
  9 10  1  0
 10 11  1  0
  2 12  1  0
 12 13  2  0
 13 14  1  0
 14 15  2  0
 15 16  1  0
 16 17  2  0
 16 18  2  0
 16 19  1  0
 19 20  1  0
 20 21  1  0
 21 22  1  0
 22 23  1  0
 23 24  2  0
 24 25  1  0
 25 26  1  0
 25 27  2  0
 27 28  1  0
 28 29  2  0
 29 30  1  0
 30 31  1  0
 31 32  1  0
 32 33  2  0
 33 34  1  0
 34 35  2  0
 35 36  1  0
 36 37  1  0
 36 38  2  0
 30 39  1  0
 39 40  2  0
 22 41  1  0
 41 42  1  0
 15 43  1  0
 43 44  2  0
 11  5  1  0
 44 12  1  0
 42 19  1  0
 40 23  1  0
 39 27  1  0
 38 32  1  0
M  END
>  <Binding energies>  (43) 
[-9.55]

>  <Ligand effiencies>  (43) 
[-0.19895833333333335]

>  <Interactions>  (43) 
["V-B:ALA:541:CB:9864, V-B:ASP:366:CG:8185, V-A:ARG:545:CZ:4924, V-B:TYR:539:CD2:9846, V-B:PRO:540:CA:9855, V-B:TYR:539:CZ:9849, V-B:TYR:539:CE2:9848, H-A:ARG:545:NH2:4926, V-A:TYR:539:CD2:4872, V-A:TYR:539:CE2:4874, V-A:ASP:366:CG:3211, V-A:TYR:539:CZ:4875, V-A:PRO:540:CA:4881, V-A:ALA:541:CB:4890, V-A:PRO:540:N:4882, V-A:TYR:539:C:4865, V-A:PRO:540:CB:4883, V-B:TYR:539:C:9839, V-B:ASP:366:CB:8184, V-B:ASP:366:CA:8182, H-A:TYR:484:OH:4346, H-A:ARG:545:NH1:4925, H-A:GLY:454:N:4048, V-A:LEU:475:CD2:4257, V-A:TRP:381:CH2:3370, V-A:ASP:366:CB:3210, H-A:TYR:531:OH:4793, V-A:ILE:369:CD1:3237, H-A:TYR:539:OH:4876, V-A:PRO:540:C:4879, V-B:PRO:540:C:9853, V-A:ASN:362:CB:3174, V-B:ALA:541:CA:9862, H-B:TYR:539:OH:9850, V-A:ALA:541:CA:4888, V-A:GLY:454:CA:4047, H-B:ASP:366:O:8181"]

$$$$
RR18_Rahimova_2017
     RDKit          3D

 36 41  0  0  0  0  0  0  0  0999 V2000
  128.1840  122.7930   59.3370 C   0  0  0  0  0  0  0  0  0  0  0  0
  128.0720  124.2540   59.6960 C   0  0  0  0  0  0  0  0  0  0  0  0
  127.6800  124.9420   60.8330 C   0  0  0  0  0  0  0  0  0  0  0  0
  127.7940  126.3010   60.5410 C   0  0  0  0  0  0  0  0  0  0  0  0
  128.2510  126.3940   59.2360 C   0  0  0  0  0  0  0  0  0  0  0  0
  128.5910  127.5640   58.3160 C   0  0  1  0  0  0  0  0  0  0  0  0
  129.0910  127.0700   56.9250 C   0  0  0  0  0  0  0  0  0  0  0  0
  130.3410  126.3250   56.8110 C   0  0  0  0  0  0  0  0  0  0  0  0
  130.8900  126.1400   55.7240 O   0  0  0  0  0  0  0  0  0  0  0  0
  130.8320  125.8830   57.9920 N   0  0  0  0  0  0  0  0  0  0  0  0
  131.9890  125.1230   58.2720 C   0  0  0  0  0  0  0  0  0  0  0  0
  132.9700  124.8210   57.3100 C   0  0  0  0  0  0  0  0  0  0  0  0
  134.0860  124.0600   57.6510 C   0  0  0  0  0  0  0  0  0  0  0  0
  134.2380  123.5840   58.9500 C   0  0  0  0  0  0  0  0  0  0  0  0
  133.2680  123.8650   59.9100 C   0  0  0  0  0  0  0  0  0  0  0  0
  132.1430  124.6290   59.5830 C   0  0  0  0  0  0  0  0  0  0  0  0
  131.1090  124.9050   60.6710 C   0  0  0  0  0  0  0  0  0  0  0  0
  128.2880  127.2580   55.8450 C   0  0  0  0  0  0  0  0  0  0  0  0
  127.1190  127.9570   55.8580 N   0  0  0  0  0  0  0  0  0  0  0  0
  126.7570  128.5600   56.9290 C   0  0  0  0  0  0  0  0  0  0  0  0
  125.3680  129.6130   57.0540 S   0  0  0  0  0  0  0  0  0  0  0  0
  125.7170  129.9570   58.7770 C   0  0  0  0  0  0  0  0  0  0  0  0
  125.0010  130.7750   59.6250 C   0  0  0  0  0  0  0  0  0  0  0  0
  123.8560  131.5470   59.1200 C   0  0  0  0  0  0  0  0  0  0  0  0
  123.3610  131.5840   57.9940 O   0  0  0  0  0  0  0  0  0  0  0  0
  123.3930  132.2830   60.1350 N   0  0  0  0  0  0  0  0  0  0  0  0
  124.0750  132.0760   61.2960 C   0  0  0  0  0  0  0  0  0  0  0  0
  123.8460  132.6670   62.5380 C   0  0  0  0  0  0  0  0  0  0  0  0
  124.6430  132.2930   63.6170 C   0  0  0  0  0  0  0  0  0  0  0  0
  125.6400  131.3360   63.4390 C   0  0  0  0  0  0  0  0  0  0  0  0
  125.8500  130.7590   62.1830 C   0  0  0  0  0  0  0  0  0  0  0  0
  125.0710  131.1410   61.0750 C   0  0  0  0  0  0  0  0  0  0  0  0
  126.9250  129.2200   59.1490 C   0  0  0  0  0  0  0  0  0  0  0  0
  127.4940  129.2530   60.2360 O   0  0  0  0  0  0  0  0  0  0  0  0
  127.4040  128.4700   58.1200 N   0  0  0  0  0  0  0  0  0  0  0  0
  128.4170  125.1440   58.7290 O   0  0  0  0  0  0  0  0  0  0  0  0
  1  2  1  0
  2  3  2  0
  3  4  1  0
  4  5  2  0
  6  5  1  1
  6  7  1  0
  7  8  1  0
  8  9  2  0
  8 10  1  0
 10 11  1  0
 11 12  2  0
 12 13  1  0
 13 14  2  0
 14 15  1  0
 15 16  2  0
 16 17  1  0
  7 18  2  0
 18 19  1  0
 19 20  2  0
 20 21  1  0
 21 22  1  0
 22 23  2  0
 23 24  1  0
 24 25  2  0
 24 26  1  0
 26 27  1  0
 27 28  2  0
 28 29  1  0
 29 30  2  0
 30 31  1  0
 31 32  2  0
 22 33  1  0
 33 34  2  0
 33 35  1  0
  5 36  1  0
 36  2  1  0
 35  6  1  0
 16 11  1  0
 35 20  1  0
 32 23  1  0
 32 27  1  0
M  END
>  <Binding energies>  (44) 
[-8.38]

>  <Ligand effiencies>  (44) 
[-0.2205263157894737]

>  <Interactions>  (44) 
["V-B:ASP:366:CG:8185, V-B:PRO:540:CA:9855, V-B:TYR:539:CZ:9849, V-B:TYR:539:CE2:9848, V-A:TYR:539:CE2:4874, V-A:ASP:366:CG:3211, V-A:TYR:539:CZ:4875, V-B:LEU:475:CD2:9231, V-B:ILE:369:CG2:8209, V-B:PRO:540:N:9856, V-B:TYR:539:C:9839, H-B:TYR:531:OH:9767, V-B:ASP:366:CB:8184, V-B:ILE:369:CD1:8211, V-B:ILE:369:CB:8208, V-A:ASP:366:CB:3210, H-A:TYR:531:OH:4793, V-A:ILE:369:CG2:3235, V-A:ILE:369:CD1:3237, H-A:TYR:539:OH:4876, V-B:GLY:454:CA:9021, V-A:ILE:369:CB:3234, V-A:ASP:366:CA:3208, V-A:ASP:366:C:3206, V-B:ILE:369:CG1:8210, V-A:ILE:369:CG1:3236"]

$$$$
RR20_Rahimova_2017
     RDKit          3D

 38 43  0  0  0  0  0  0  0  0999 V2000
  134.0430  131.1550   58.6160 C   0  0  0  0  0  0  0  0  0  0  0  0
  132.8370  131.3360   57.7140 C   0  0  0  0  0  0  0  0  0  0  0  0
  131.5610  131.4330   58.2700 C   0  0  0  0  0  0  0  0  0  0  0  0
  130.4540  131.6080   57.4440 C   0  0  0  0  0  0  0  0  0  0  0  0
  130.6110  131.6740   56.0550 C   0  0  0  0  0  0  0  0  0  0  0  0
  129.3980  131.8850   55.1770 C   0  0  0  0  0  0  0  0  0  0  0  0
  129.3510  132.9190   54.5070 O   0  0  0  0  0  0  0  0  0  0  0  0
  128.4200  130.9330   55.1470 N   0  0  0  0  0  0  0  0  0  0  0  0
  127.2550  131.0510   54.2540 C   0  0  0  0  0  0  0  0  0  0  0  0
  126.4810  129.7500   54.3860 C   0  0  0  0  0  0  0  0  0  0  0  0
  127.4660  128.8420   55.0570 C   0  0  0  0  0  0  0  0  0  0  0  0
  127.3460  127.4850   55.3610 C   0  0  0  0  0  0  0  0  0  0  0  0
  128.3130  126.8410   56.1420 C   0  0  0  0  0  0  0  0  0  0  0  0
  128.1890  125.3770   56.4620 C   0  0  0  0  0  0  0  0  0  0  0  0
  128.9120  124.8880   57.4570 N   0  0  0  0  0  0  0  0  0  0  0  0
  128.7100  123.6100   57.6590 C   0  0  0  0  0  0  0  0  0  0  0  0
  129.2960  122.7940   58.6150 N   0  0  0  0  0  0  0  0  0  0  0  0
  128.7790  122.4500   59.8200 C   0  0  0  0  0  0  0  0  0  0  0  0
  127.6740  122.8160   60.2250 O   0  0  0  0  0  0  0  0  0  0  0  0
  129.6150  121.5210   60.7310 C   0  0  0  0  0  0  0  0  0  0  0  0
  130.6910  122.2330   61.4470 N   0  0  0  0  0  0  0  0  0  0  0  0
  131.5670  122.9860   60.5380 C   0  0  0  0  0  0  0  0  0  0  0  0
  132.8180  123.4850   61.2960 C   0  0  0  0  0  0  0  0  0  0  0  0
  132.4840  124.1150   62.6490 C   0  0  0  0  0  0  0  0  0  0  0  0
  133.4380  124.8580   63.3530 C   0  0  0  0  0  0  0  0  0  0  0  0
  133.1460  125.3990   64.6030 C   0  0  0  0  0  0  0  0  0  0  0  0
  131.8880  125.2040   65.1650 C   0  0  0  0  0  0  0  0  0  0  0  0
  130.9260  124.4740   64.4700 C   0  0  0  0  0  0  0  0  0  0  0  0
  131.2070  123.9240   63.2140 C   0  0  0  0  0  0  0  0  0  0  0  0
  130.1330  123.1720   62.4270 C   0  0  0  0  0  0  0  0  0  0  0  0
  127.5770  122.8900   56.5840 S   0  0  0  0  0  0  0  0  0  0  0  0
  127.3700  124.4380   55.7990 C   0  0  0  0  0  0  0  0  0  0  0  0
  126.4520  124.5750   54.6050 C   0  0  0  0  0  0  0  0  0  0  0  0
  129.3730  127.6030   56.6580 C   0  0  0  0  0  0  0  0  0  0  0  0
  129.4850  128.9630   56.3730 C   0  0  0  0  0  0  0  0  0  0  0  0
  128.5580  129.5760   55.5200 C   0  0  0  0  0  0  0  0  0  0  0  0
  131.8980  131.6060   55.5060 C   0  0  0  0  0  0  0  0  0  0  0  0
  133.0060  131.4320   56.3310 C   0  0  0  0  0  0  0  0  0  0  0  0
  1  2  1  0
  2  3  2  0
  3  4  1  0
  4  5  2  0
  5  6  1  0
  6  7  2  0
  6  8  1  0
  8  9  1  0
  9 10  1  0
 10 11  1  0
 11 12  2  0
 12 13  1  0
 13 14  1  0
 14 15  1  0
 15 16  2  0
 16 17  1  0
 17 18  1  0
 18 19  2  0
 18 20  1  0
 20 21  1  0
 21 22  1  0
 22 23  1  0
 23 24  1  0
 24 25  2  0
 25 26  1  0
 26 27  2  0
 27 28  1  0
 28 29  2  0
 29 30  1  0
 16 31  1  0
 31 32  1  0
 32 33  1  0
 13 34  2  0
 34 35  1  0
 35 36  2  0
  5 37  1  0
 37 38  2  0
 38  2  1  0
 36  8  1  0
 36 11  1  0
 32 14  2  0
 30 21  1  0
 29 24  1  0
M  END
>  <Binding energies>  (45) 
[-11.11]

>  <Ligand effiencies>  (45) 
[-0.28487179487179487]

>  <Interactions>  (45) 
["V-B:ALA:541:CB:9864, V-A:HIS:456:CE1:4068, V-A:ARG:545:CZ:4924, V-A:GLY:453:CA:4042, V-B:GLU:543:CD:9880, V-B:TYR:539:CD2:9846, V-B:GLU:543:CB:9878, V-B:PRO:540:CA:9855, H-B:ALA:541:N:9863, V-B:TYR:539:CE2:9848, V-A:ASP:366:CG:3211, V-A:TYR:539:CZ:4875, V-A:PRO:540:CA:4881, V-A:TYR:539:CD1:4871, V-A:PRO:540:N:4882, V-A:TYR:539:CE1:4873, V-A:TYR:539:C:4865, V-A:PRO:540:CB:4883, V-B:MET:535:CG:9805, V-B:TYR:539:CG:9844, V-B:PRO:540:N:9856, V-B:TYR:539:C:9839, V-B:TYR:539:CD1:9845, V-B:TYR:539:CA:9841, V-B:ILE:538:CG2:9835, V-A:LEU:363:CA:3183, V-A:ILE:538:CB:4860, V-A:ILE:538:CG2:4861, V-A:LEU:363:CD1:3187, V-A:TYR:531:CE2:4791, V-A:LEU:363:CB:3185, H-A:TYR:539:N:4868, V-A:ARG:545:CD:4921, V-A:ARG:545:CG:4920, V-A:ILE:538:CA:4858, V-B:TYR:531:CZ:9766, V-A:TYR:531:CZ:4792, V-B:MET:535:CE:9807, V-A:ASN:362:C:3170, V-B:TYR:531:CE1:9764, H-B:TYR:539:O:9840"]

$$$$
RR21_Rahimova_2017
     RDKit          3D

 40 45  0  0  0  0  0  0  0  0999 V2000
  134.1900  131.3100   56.5230 C   0  0  0  0  0  0  0  0  0  0  0  0
  132.9240  131.9140   56.2700 O   0  0  0  0  0  0  0  0  0  0  0  0
  131.9280  131.8180   57.2220 C   0  0  0  0  0  0  0  0  0  0  0  0
  132.1430  131.4280   58.5550 C   0  0  0  0  0  0  0  0  0  0  0  0
  131.0810  131.3600   59.4560 C   0  0  0  0  0  0  0  0  0  0  0  0
  129.7800  131.6820   59.0520 C   0  0  0  0  0  0  0  0  0  0  0  0
  128.6420  131.6120   60.0230 C   0  0  0  0  0  0  0  0  0  0  0  0
  127.6930  132.5280   59.9870 N   0  0  0  0  0  0  0  0  0  0  0  0
  126.8190  132.2150   60.9560 N   0  0  0  0  0  0  0  0  0  0  0  0
  125.6540  132.9920   61.1820 C   0  0  0  0  0  0  0  0  0  0  0  0
  124.5800  132.4760   61.9250 C   0  0  0  0  0  0  0  0  0  0  0  0
  123.4440  133.2500   62.1440 C   0  0  0  0  0  0  0  0  0  0  0  0
  123.3750  134.5400   61.6220 C   0  0  0  0  0  0  0  0  0  0  0  0
  124.4320  135.0620   60.8800 C   0  0  0  0  0  0  0  0  0  0  0  0
  125.5700  134.2900   60.6590 C   0  0  0  0  0  0  0  0  0  0  0  0
  127.2180  131.0710   61.6020 C   0  0  0  0  0  0  0  0  0  0  0  0
  128.4110  130.6520   61.0340 C   0  0  0  0  0  0  0  0  0  0  0  0
  129.1900  129.4650   61.3540 C   0  0  0  0  0  0  0  0  0  0  0  0
  129.7990  128.6080   60.5010 C   0  0  0  0  0  0  0  0  0  0  0  0
  129.8220  128.6680   58.7250 S   0  0  0  0  0  0  0  0  0  0  0  0
  130.8310  127.2290   58.7040 C   0  0  0  0  0  0  0  0  0  0  0  0
  131.3220  126.6160   57.6720 N   0  0  0  0  0  0  0  0  0  0  0  0
  132.1400  125.4590   57.7950 C   0  0  0  0  0  0  0  0  0  0  0  0
  132.6590  124.8350   56.8700 O   0  0  0  0  0  0  0  0  0  0  0  0
  132.3580  125.0180   59.2160 C   0  0  0  0  0  0  0  0  0  0  0  0
  133.2100  123.7670   59.4720 C   0  0  0  0  0  0  0  0  0  0  0  0
  132.4060  122.5260   59.8550 C   0  0  0  0  0  0  0  0  0  0  0  0
  131.0390  122.6340   60.1260 C   0  0  0  0  0  0  0  0  0  0  0  0
  130.3030  121.4990   60.4580 C   0  0  0  0  0  0  0  0  0  0  0  0
  130.9320  120.2540   60.5180 C   0  0  0  0  0  0  0  0  0  0  0  0
  130.1230  119.0180   60.8690 C   0  0  0  0  0  0  0  0  0  0  0  0
  132.2950  120.1420   60.2360 C   0  0  0  0  0  0  0  0  0  0  0  0
  133.0310  121.2760   59.9040 C   0  0  0  0  0  0  0  0  0  0  0  0
  131.8580  125.6360   60.2360 N   0  0  0  0  0  0  0  0  0  0  0  0
  131.0790  126.7690   59.9710 N   0  0  0  0  0  0  0  0  0  0  0  0
  130.5460  127.4650   61.0050 C   0  0  0  0  0  0  0  0  0  0  0  0
  130.6840  127.1690   62.1980 O   0  0  0  0  0  0  0  0  0  0  0  0
  129.5640  132.0640   57.7240 C   0  0  0  0  0  0  0  0  0  0  0  0
  130.6250  132.1320   56.8210 C   0  0  0  0  0  0  0  0  0  0  0  0
  130.3820  132.5070   55.5430 F   0  0  0  0  0  0  0  0  0  0  0  0
  1  2  1  0
  2  3  1  0
  3  4  2  0
  4  5  1  0
  5  6  2  0
  6  7  1  0
  7  8  2  0
  8  9  1  0
  9 10  1  0
 10 11  2  0
 11 12  1  0
 12 13  2  0
 13 14  1  0
 14 15  2  0
  9 16  1  0
 16 17  2  0
 17 18  1  0
 18 19  2  0
 19 20  1  0
 20 21  1  0
 21 22  2  0
 22 23  1  0
 23 24  2  0
 23 25  1  0
 25 26  1  0
 26 27  1  0
 27 28  2  0
 28 29  1  0
 29 30  2  0
 30 31  1  0
 30 32  1  0
 32 33  2  0
 25 34  2  0
 34 35  1  0
 35 36  1  0
 36 37  2  0
  6 38  1  0
 38 39  2  0
 39 40  1  0
 39  3  1  0
 17  7  1  0
 36 19  1  0
 15 10  1  0
 35 21  1  0
 33 27  1  0
M  END
>  <Binding energies>  (46) 
[-9.6]

>  <Ligand effiencies>  (46) 
[-0.24]

>  <Interactions>  (46) 
["V-B:ALA:541:CB:9864, V-B:TYR:539:CD2:9846, V-B:TYR:539:CE2:9848, H-A:ARG:545:NH2:4926, V-A:TYR:539:CD2:4872, V-A:TYR:539:CE2:4874, V-A:ASP:366:CG:3211, V-A:GLU:543:CD:4906, V-A:PRO:540:CA:4881, V-B:LEU:475:CD2:9231, V-B:TRP:381:CH2:8344, V-A:PRO:540:N:4882, V-B:TRP:381:CZ2:8342, V-B:ILE:369:CG2:8209, V-A:TYR:539:C:4865, V-A:PRO:540:CB:4883, V-A:LEU:363:CA:3183, V-A:PRO:540:CD:4885, V-A:ILE:538:CB:4860, V-A:ILE:538:CG2:4861, V-A:LEU:363:CD1:3187, V-A:TYR:531:CE2:4791, V-A:LEU:363:CB:3185, V-B:ILE:369:CD1:8211, V-A:PRO:482:CB:4324, V-A:PRO:482:CG:4325, V-A:LEU:475:CD2:4257, V-A:TRP:381:CZ2:3368, V-A:TRP:381:CH2:3370, V-A:ASP:366:CB:3210, H-A:TYR:531:OH:4793, V-A:ILE:369:CG2:3235, V-A:ILE:538:CA:4858, V-A:TYR:531:CZ:4792, V-A:LEU:363:CG:3186, V-A:ILE:538:C:4856, V-B:GLY:454:CA:9021, H-B:TYR:539:OH:9850, V-A:TYR:539:CA:4867, V-B:SER:385:C:8377, V-B:SER:385:CA:8379"]

$$$$
RR23_Rahimova_2017
     RDKit          3D

 39 44  0  0  0  0  0  0  0  0999 V2000
  131.6860  131.1500   61.6200 C   0  0  0  0  0  0  0  0  0  0  0  0
  131.3330  131.3500   60.1580 C   0  0  0  0  0  0  0  0  0  0  0  0
  130.0790  131.8510   59.8040 C   0  0  0  0  0  0  0  0  0  0  0  0
  129.7600  132.0430   58.4620 C   0  0  0  0  0  0  0  0  0  0  0  0
  130.6870  131.7260   57.4640 C   0  0  0  0  0  0  0  0  0  0  0  0
  130.3290  131.9620   56.0140 C   0  0  0  0  0  0  0  0  0  0  0  0
  130.9540  132.8330   55.4050 O   0  0  0  0  0  0  0  0  0  0  0  0
  129.3510  131.2040   55.4330 N   0  0  0  0  0  0  0  0  0  0  0  0
  128.9500  131.4070   54.0310 C   0  0  0  0  0  0  0  0  0  0  0  0
  127.9610  130.3000   53.7050 C   0  0  0  0  0  0  0  0  0  0  0  0
  128.1610  129.3310   54.8310 C   0  0  0  0  0  0  0  0  0  0  0  0
  127.5860  128.0750   55.0220 C   0  0  0  0  0  0  0  0  0  0  0  0
  127.7770  127.3830   56.2270 C   0  0  0  0  0  0  0  0  0  0  0  0
  127.1620  125.9980   56.4790 C   0  0  2  0  0  0  0  0  0  0  0  0
  127.3180  125.5730   57.8530 N   0  0  0  0  0  0  0  0  0  0  0  0
  127.4390  124.3100   57.9480 C   0  0  0  0  0  0  0  0  0  0  0  0
  127.6270  123.5670   59.0720 N   0  0  0  0  0  0  0  0  0  0  0  0
  127.8700  123.9960   60.3340 C   0  0  0  0  0  0  0  0  0  0  0  0
  127.9220  125.1750   60.6920 O   0  0  0  0  0  0  0  0  0  0  0  0
  128.0990  122.8900   61.3770 C   0  0  0  0  0  0  0  0  0  0  0  0
  129.4580  122.3310   61.2000 N   0  0  0  0  0  0  0  0  0  0  0  0
  129.5310  121.1710   60.4390 N   0  0  0  0  0  0  0  0  0  0  0  0
  130.6610  120.5820   60.2100 N   0  0  0  0  0  0  0  0  0  0  0  0
  131.8410  121.1160   60.7340 C   0  0  0  0  0  0  0  0  0  0  0  0
  133.0430  120.4550   60.4700 C   0  0  0  0  0  0  0  0  0  0  0  0
  134.2380  120.9640   60.9790 C   0  0  0  0  0  0  0  0  0  0  0  0
  134.2340  122.1290   61.7500 C   0  0  0  0  0  0  0  0  0  0  0  0
  133.0340  122.7910   62.0150 C   0  0  0  0  0  0  0  0  0  0  0  0
  131.8350  122.2810   61.5030 C   0  0  0  0  0  0  0  0  0  0  0  0
  130.5250  122.9800   61.7810 C   0  0  0  0  0  0  0  0  0  0  0  0
  130.4250  124.0060   62.4610 O   0  0  0  0  0  0  0  0  0  0  0  0
  127.3710  123.3730   56.4270 S   0  0  0  0  0  0  0  0  0  0  0  0
  127.6540  124.8970   55.5100 C   0  0  2  0  0  0  0  0  0  0  0  0
  129.1360  124.9610   55.0840 C   0  0  0  0  0  0  0  0  0  0  0  0
  128.5130  127.9960   57.2480 C   0  0  0  0  0  0  0  0  0  0  0  0
  129.0710  129.2620   57.0660 C   0  0  0  0  0  0  0  0  0  0  0  0
  128.9430  129.9110   55.8310 C   0  0  0  0  0  0  0  0  0  0  0  0
  131.9540  131.2510   57.8270 C   0  0  0  0  0  0  0  0  0  0  0  0
  132.2740  131.0590   59.1690 C   0  0  0  0  0  0  0  0  0  0  0  0
  1  2  1  0
  2  3  2  0
  3  4  1  0
  4  5  2  0
  5  6  1  0
  6  7  2  0
  6  8  1  0
  8  9  1  0
  9 10  1  0
 10 11  1  0
 11 12  2  0
 12 13  1  0
 14 13  1  1
 14 15  1  0
 15 16  2  0
 16 17  1  0
 17 18  1  0
 18 19  2  0
 18 20  1  0
 20 21  1  0
 21 22  1  0
 22 23  2  0
 23 24  1  0
 24 25  2  0
 25 26  1  0
 26 27  2  0
 27 28  1  0
 28 29  2  0
 29 30  1  0
 30 31  2  0
 16 32  1  0
 32 33  1  0
 33 34  1  1
 13 35  2  0
 35 36  1  0
 36 37  2  0
  5 38  1  0
 38 39  2  0
 39  2  1  0
 37  8  1  0
 37 11  1  0
 33 14  1  0
 30 21  1  0
 29 24  1  0
M  END
>  <Binding energies>  (47) 
[-10.85]

>  <Ligand effiencies>  (47) 
[-0.27125]

>  <Interactions>  (47) 
["V-B:ALA:541:CB:9864, V-B:TYR:539:CD2:9846, V-B:PRO:540:CA:9855, V-B:TYR:539:CE2:9848, V-A:GLU:543:CD:4906, V-A:PRO:540:CA:4881, V-A:PRO:540:N:4882, V-A:TYR:539:CE1:4873, V-A:TYR:539:C:4865, V-A:PRO:540:CB:4883, H-B:TYR:539:N:9842, H-A:TYR:539:N:4868, V-A:LEU:475:CD2:4257, V-A:TRP:381:CZ2:3368, V-A:TRP:381:CH2:3370, V-A:ILE:369:CG2:3235, V-A:ILE:369:CD1:3237, V-B:MET:535:CE:9807, V-A:PRO:540:C:4879, V-B:PRO:540:C:9853, V-B:ALA:541:CA:9862, V-A:GLY:454:CA:4047, H-B:TYR:539:O:9840, V-A:GLY:453:C:4040, V-A:ILE:369:CG1:3236, V-A:SER:385:C:3403"]

$$$$
RR26_Rahimova_2017
     RDKit          3D

 38 44  0  0  0  0  0  0  0  0999 V2000
  132.9240  123.5530   59.6140 C   0  0  0  0  0  0  0  0  0  0  0  0
  131.9680  122.4260   59.9840 C   0  0  0  0  0  0  0  0  0  0  0  0
  132.5040  121.1560   60.2270 C   0  0  0  0  0  0  0  0  0  0  0  0
  131.6810  120.0980   60.6070 C   0  0  0  0  0  0  0  0  0  0  0  0
  130.3130  120.3030   60.7550 C   0  0  0  0  0  0  0  0  0  0  0  0
  129.7680  121.5630   60.5170 C   0  0  0  0  0  0  0  0  0  0  0  0
  130.5790  122.6380   60.1240 C   0  0  0  0  0  0  0  0  0  0  0  0
  129.9100  123.9590   59.8730 C   0  0  0  0  0  0  0  0  0  0  0  0
  129.9090  124.9390   60.7720 N   0  0  0  0  0  0  0  0  0  0  0  0
  129.2460  125.8760   60.1500 C   0  0  0  0  0  0  0  0  0  0  0  0
  128.7400  127.4840   60.5150 S   0  0  0  0  0  0  0  0  0  0  0  0
  127.9830  127.5920   58.8820 C   0  0  0  0  0  0  0  0  0  0  0  0
  127.3100  128.6360   58.3500 C   0  0  0  0  0  0  0  0  0  0  0  0
  127.0370  129.9300   58.9550 C   0  0  0  0  0  0  0  0  0  0  0  0
  125.8630  130.3660   59.5510 C   0  0  0  0  0  0  0  0  0  0  0  0
  126.0760  131.6370   60.0210 N   0  0  0  0  0  0  0  0  0  0  0  0
  125.1660  132.4820   60.7070 C   0  0  0  0  0  0  0  0  0  0  0  0
  125.0090  133.8240   60.3300 C   0  0  0  0  0  0  0  0  0  0  0  0
  124.1150  134.6440   61.0140 C   0  0  0  0  0  0  0  0  0  0  0  0
  123.3740  134.1260   62.0730 C   0  0  0  0  0  0  0  0  0  0  0  0
  123.5180  132.7940   62.4550 C   0  0  0  0  0  0  0  0  0  0  0  0
  124.4130  131.9730   61.7750 C   0  0  0  0  0  0  0  0  0  0  0  0
  127.3390  132.0180   59.7780 N   0  0  0  0  0  0  0  0  0  0  0  0
  127.9180  131.0190   59.1420 C   0  0  0  0  0  0  0  0  0  0  0  0
  129.3490  131.1360   58.7140 C   0  0  0  0  0  0  0  0  0  0  0  0
  130.3790  130.6650   59.5440 C   0  0  0  0  0  0  0  0  0  0  0  0
  131.7150  130.7730   59.1560 C   0  0  0  0  0  0  0  0  0  0  0  0
  132.0330  131.3560   57.9310 C   0  0  0  0  0  0  0  0  0  0  0  0
  131.0120  131.8130   57.0850 C   0  0  0  0  0  0  0  0  0  0  0  0
  129.6780  131.7100   57.4770 C   0  0  0  0  0  0  0  0  0  0  0  0
  131.2810  132.4370   55.8820 O   0  0  0  0  0  0  0  0  0  0  0  0
  132.5960  132.1880   55.3760 C   0  0  0  0  0  0  0  0  0  0  0  0
  133.6480  132.3180   56.5050 C   0  0  0  0  0  0  0  0  0  0  0  0
  133.3630  131.3990   57.5650 O   0  0  0  0  0  0  0  0  0  0  0  0
  128.1470  126.3630   58.1120 C   0  0  0  0  0  0  0  0  0  0  0  0
  127.7520  126.0990   56.9750 O   0  0  0  0  0  0  0  0  0  0  0  0
  128.8710  125.4750   58.9220 N   0  0  0  0  0  0  0  0  0  0  0  0
  129.3020  124.2260   58.7260 N   0  0  0  0  0  0  0  0  0  0  0  0
  1  2  1  0
  2  3  2  0
  3  4  1  0
  4  5  2  0
  5  6  1  0
  6  7  2  0
  7  8  1  0
  8  9  1  0
  9 10  2  0
 10 11  1  0
 11 12  1  0
 12 13  2  0
 13 14  1  0
 14 15  2  0
 15 16  1  0
 16 17  1  0
 17 18  2  0
 18 19  1  0
 19 20  2  0
 20 21  1  0
 21 22  2  0
 16 23  1  0
 23 24  2  0
 24 25  1  0
 25 26  2  0
 26 27  1  0
 27 28  2  0
 28 29  1  0
 29 30  2  0
 29 31  1  0
 31 32  1  0
 32 33  1  0
 33 34  1  0
 12 35  1  0
 35 36  2  0
 35 37  1  0
 37 38  1  0
  7  2  1  0
 38  8  2  0
 37 10  1  0
 24 14  1  0
 30 25  1  0
 22 17  1  0
 34 28  1  0
M  END
>  <Binding energies>  (48) 
[-8.83]

>  <Ligand effiencies>  (48) 
[-0.23236842105263159]

>  <Interactions>  (48) 
["V-B:ALA:541:CB:9864, V-B:ASP:366:CG:8185, V-B:TYR:539:CD2:9846, V-B:TYR:539:CE2:9848, V-A:TYR:539:CD2:4872, V-A:TYR:539:CE2:4874, V-A:PRO:540:CA:4881, V-B:LEU:475:CD2:9231, V-B:TRP:381:CH2:8344, V-A:PRO:540:N:4882, V-B:ILE:369:CG2:8209, V-A:TYR:539:C:4865, V-A:PRO:540:CB:4883, V-A:LEU:363:CA:3183, V-A:PRO:540:CD:4885, V-A:ILE:538:CB:4860, V-A:PRO:540:CG:4884, V-A:ILE:538:CG2:4861, V-A:LEU:363:CD1:3187, V-A:TYR:531:CE2:4791, V-A:LEU:363:CB:3185, H-A:TYR:539:N:4868, V-B:ILE:369:CD1:8211, V-A:LEU:475:CD2:4257, V-A:TRP:381:CZ2:3368, V-A:TRP:381:CH2:3370, V-A:ILE:369:CG2:3235, V-A:ILE:538:CA:4858, V-A:TYR:531:CZ:4792, V-B:GLY:454:CA:9021, V-B:GLY:453:C:9014, V-B:SER:385:C:8377"]

$$$$
RR2_Rahimova_2017
     RDKit          3D

 46 50  0  0  0  0  0  0  0  0999 V2000
  134.6180  130.3360   56.9770 C   0  0  0  0  0  0  0  0  0  0  0  0
  133.9650  131.5980   56.9050 O   0  0  0  0  0  0  0  0  0  0  0  0
  132.6160  131.6770   57.1950 C   0  0  0  0  0  0  0  0  0  0  0  0
  131.6420  132.1500   56.3050 C   0  0  0  0  0  0  0  0  0  0  0  0
  130.3040  132.1970   56.6870 C   0  0  0  0  0  0  0  0  0  0  0  0
  129.9090  131.7760   57.9640 C   0  0  0  0  0  0  0  0  0  0  0  0
  128.4460  131.8440   58.3580 C   0  0  0  0  0  0  0  0  0  0  0  0
  127.5850  131.3110   57.6490 O   0  0  0  0  0  0  0  0  0  0  0  0
  128.1720  132.5220   59.4960 N   0  0  0  0  0  0  0  0  0  0  0  0
  126.8390  132.6930   59.8530 N   0  0  0  0  0  0  0  0  0  0  0  0
  126.5330  133.6750   60.7250 C   0  0  0  0  0  0  0  0  0  0  0  0
  127.3590  134.3250   61.3740 O   0  0  0  0  0  0  0  0  0  0  0  0
  125.0380  133.9880   60.8720 C   0  0  0  0  0  0  0  0  0  0  0  0
  123.9830  132.5510   61.2860 S   0  0  0  0  0  0  0  0  0  0  0  0
  124.8330  131.2640   60.4230 C   0  0  0  0  0  0  0  0  0  0  0  0
  124.8350  131.1610   59.1180 N   0  0  0  0  0  0  0  0  0  0  0  0
  125.5310  130.0060   58.7910 N   0  0  0  0  0  0  0  0  0  0  0  0
  125.9510  129.4680   59.9130 C   0  0  0  0  0  0  0  0  0  0  0  0
  126.7580  128.2120   59.9700 C   0  0  0  0  0  0  0  0  0  0  0  0
  126.3240  127.1430   60.7580 C   0  0  0  0  0  0  0  0  0  0  0  0
  127.0730  125.9720   60.8240 C   0  0  0  0  0  0  0  0  0  0  0  0
  128.2570  125.8530   60.0880 C   0  0  0  0  0  0  0  0  0  0  0  0
  129.0580  124.7010   60.1250 N   0  0  0  0  0  0  0  0  0  0  0  0
  128.5360  123.0880   59.5890 S   0  0  0  0  0  0  0  0  0  0  0  0
  127.4980  122.6640   60.5360 O   0  0  0  0  0  0  0  0  0  0  0  0
  129.7350  122.2710   59.3710 O   0  0  0  0  0  0  0  0  0  0  0  0
  127.7200  123.3580   58.0170 C   0  0  0  0  0  0  0  0  0  0  0  0
  126.3740  123.7280   57.9680 C   0  0  0  0  0  0  0  0  0  0  0  0
  125.7540  123.9170   56.7360 C   0  0  0  0  0  0  0  0  0  0  0  0
  126.4800  123.7430   55.5560 C   0  0  0  0  0  0  0  0  0  0  0  0
  125.7990  123.9350   54.2130 C   0  0  0  0  0  0  0  0  0  0  0  0
  127.8250  123.3690   55.6080 C   0  0  0  0  0  0  0  0  0  0  0  0
  128.4450  123.1780   56.8390 C   0  0  0  0  0  0  0  0  0  0  0  0
  128.6880  126.9200   59.2990 C   0  0  0  0  0  0  0  0  0  0  0  0
  127.9430  128.0940   59.2380 C   0  0  0  0  0  0  0  0  0  0  0  0
  125.5350  130.2210   60.9980 N   0  0  0  0  0  0  0  0  0  0  0  0
  125.7360  129.9650   62.3710 C   0  0  0  0  0  0  0  0  0  0  0  0
  126.9570  129.4560   62.8130 C   0  0  0  0  0  0  0  0  0  0  0  0
  127.1510  129.2110   64.1690 C   0  0  0  0  0  0  0  0  0  0  0  0
  126.1340  129.4680   65.0900 C   0  0  0  0  0  0  0  0  0  0  0  0
  126.4200  129.1920   66.4130 O   0  0  0  0  0  0  0  0  0  0  0  0
  127.6530  128.5600   66.7420 C   0  0  0  0  0  0  0  0  0  0  0  0
  124.9080  129.9800   64.6360 C   0  0  0  0  0  0  0  0  0  0  0  0
  124.7100  130.2290   63.2810 C   0  0  0  0  0  0  0  0  0  0  0  0
  130.8890  131.2990   58.8480 C   0  0  0  0  0  0  0  0  0  0  0  0
  132.2260  131.2520   58.4630 C   0  0  0  0  0  0  0  0  0  0  0  0
  1  2  1  0
  2  3  1  0
  3  4  2  0
  4  5  1  0
  5  6  2  0
  6  7  1  0
  7  8  2  0
  7  9  1  0
  9 10  1  0
 10 11  1  0
 11 12  2  0
 11 13  1  0
 13 14  1  0
 14 15  1  0
 15 16  2  0
 16 17  1  0
 17 18  2  0
 18 19  1  0
 19 20  2  0
 20 21  1  0
 21 22  2  0
 22 23  1  0
 23 24  1  0
 24 25  2  0
 24 26  2  0
 24 27  1  0
 27 28  2  0
 28 29  1  0
 29 30  2  0
 30 31  1  0
 30 32  1  0
 32 33  2  0
 22 34  1  0
 34 35  2  0
 18 36  1  0
 36 37  1  0
 37 38  2  0
 38 39  1  0
 39 40  2  0
 40 41  1  0
 41 42  1  0
 40 43  1  0
 43 44  2  0
  6 45  1  0
 45 46  2  0
 46  3  1  0
 36 15  1  0
 44 37  1  0
 35 19  1  0
 33 27  1  0
M  END
>  <Binding energies>  (49) 
[-10.4]

>  <Ligand effiencies>  (49) 
[-0.2122448979591837]

>  <Interactions>  (49) 
["V-B:ASP:366:CG:8185, V-B:GLU:543:CD:9880, V-B:TYR:539:CD2:9846, V-B:PRO:540:CA:9855, V-B:TYR:539:CZ:9849, H-B:ALA:541:N:9863, V-B:TYR:539:CE2:9848, V-B:ARG:545:CZ:9898, V-A:TYR:539:CD2:4872, V-A:TYR:539:CE2:4874, V-A:ASP:366:CG:3211, V-A:GLU:543:CD:4906, V-A:PRO:540:CA:4881, V-B:LEU:475:CD2:9231, V-A:PRO:540:N:4882, H-A:TYR:539:O:4866, V-A:TYR:539:C:4865, V-A:PRO:540:CB:4883, V-B:MET:535:CB:9804, V-B:ILE:538:CA:9832, V-B:MET:535:CG:9805, V-B:TYR:539:CG:9844, V-B:PRO:540:N:9856, V-B:TYR:539:C:9839, V-B:ILE:538:CB:9834, V-B:TYR:539:CE1:9847, V-B:TYR:539:CD1:9845, V-B:ILE:538:CG2:9835, H-B:TYR:484:OH:9320, V-B:HIS:456:CE1:9042, V-A:GLU:543:CB:4904, V-A:LEU:363:CA:3183, V-A:PRO:540:CD:4885, V-A:ILE:538:CB:4860, V-A:LEU:363:CD1:3187, V-A:TYR:531:CE2:4791, V-A:LEU:363:CB:3185, V-A:GLU:543:CG:4905, V-A:ASP:366:CB:3210, H-A:TYR:531:OH:4793, V-B:TYR:531:CE2:9765, H-A:TYR:539:OH:4876, V-B:TYR:531:CZ:9766, V-A:TYR:531:CZ:4792, V-A:TYR:539:CA:4867, V-A:LEU:363:C:3181"]

$$$$
RR33_Rahimova_2017
     RDKit          3D

 18 19  0  0  0  0  0  0  0  0999 V2000
  132.4040  132.1800   55.7760 C   0  0  0  0  0  0  0  0  0  0  0  0
  131.1070  132.3310   56.5770 C   0  0  0  0  0  0  0  0  0  0  0  0
  130.0020  132.1380   55.6990 O   0  0  0  0  0  0  0  0  0  0  0  0
  129.4810  130.8690   55.5330 C   0  0  0  0  0  0  0  0  0  0  0  0
  130.1180  129.8410   56.2260 C   0  0  0  0  0  0  0  0  0  0  0  0
  129.6660  128.5280   56.1190 C   0  0  0  0  0  0  0  0  0  0  0  0
  128.5650  128.2250   55.3120 C   0  0  0  0  0  0  0  0  0  0  0  0
  128.0810  126.8150   55.1960 C   0  0  0  0  0  0  0  0  0  0  0  0
  127.1320  126.2320   55.8940 N   0  0  0  0  0  0  0  0  0  0  0  0
  127.0670  124.9940   55.4310 C   0  0  0  0  0  0  0  0  0  0  0  0
  126.0660  124.0050   55.9900 C   0  0  0  0  0  0  0  0  0  0  0  0
  125.2600  124.6250   57.0320 N   0  0  0  0  0  0  0  0  0  0  0  0
  123.9100  124.0850   57.0230 C   0  0  0  0  0  0  0  0  0  0  0  0
  128.0080  124.8230   54.4230 C   0  0  0  0  0  0  0  0  0  0  0  0
  128.4200  123.6850   53.5210 C   0  0  0  0  0  0  0  0  0  0  0  0
  128.6590  126.0000   54.2760 O   0  0  0  0  0  0  0  0  0  0  0  0
  127.9210  129.2540   54.6190 C   0  0  0  0  0  0  0  0  0  0  0  0
  128.3730  130.5670   54.7260 C   0  0  0  0  0  0  0  0  0  0  0  0
  1  2  1  0
  2  3  1  0
  3  4  1  0
  4  5  2  0
  5  6  1  0
  6  7  2  0
  7  8  1  0
  8  9  2  0
  9 10  1  0
 10 11  1  0
 11 12  1  0
 12 13  1  0
 10 14  2  0
 14 15  1  0
 14 16  1  0
  7 17  1  0
 17 18  2  0
 18  4  1  0
 16  8  1  0
M  END
>  <Binding energies>  (50) 
[-5.13]

>  <Ligand effiencies>  (50) 
[-0.27]

>  <Interactions>  (50) 
["H-B:ASP:366:OD2:8187, V-A:PRO:540:CA:4881, V-A:PRO:540:N:4882, V-A:TYR:539:C:4865, V-B:ILE:538:CA:9832, V-B:PRO:540:CB:9857, V-B:TYR:539:CE1:9847, V-B:TYR:539:CD1:9845, H-B:TYR:531:OH:9767, V-A:PRO:540:CD:4885, V-A:ILE:538:CB:4860, V-A:ILE:538:CG2:4861, V-A:TYR:531:CE2:4791, H-A:TYR:539:N:4868, V-B:LEU:363:CD1:8161, V-B:TYR:531:CE2:9765, V-A:ILE:538:CA:4858, V-B:TYR:531:CZ:9766"]

$$$$
RR3_Rahimova_2017
     RDKit          3D

 38 44  0  0  0  0  0  0  0  0999 V2000
  133.6380  123.3560   61.5530 C   0  0  0  0  0  0  0  0  0  0  0  0
  134.1560  124.5110   62.1280 C   0  0  0  0  0  0  0  0  0  0  0  0
  133.5150  125.0840   63.2220 C   0  0  0  0  0  0  0  0  0  0  0  0
  132.3510  124.5110   63.7560 C   0  0  0  0  0  0  0  0  0  0  0  0
  131.6630  125.1280   64.9340 C   0  0  0  0  0  0  0  0  0  0  0  0
  132.1100  126.3400   65.4760 C   0  0  0  0  0  0  0  0  0  0  0  0
  131.4720  126.9120   66.5730 C   0  0  0  0  0  0  0  0  0  0  0  0
  130.3750  126.2770   67.1610 C   0  0  0  0  0  0  0  0  0  0  0  0
  129.6880  126.8830   68.3450 C   0  0  0  0  0  0  0  0  0  0  0  0
  130.0840  126.5720   69.5740 N   0  0  0  0  0  0  0  0  0  0  0  0
  129.3430  127.2760   70.3960 C   0  0  0  0  0  0  0  0  0  0  0  0
  129.4400  127.2450   71.8530 C   0  0  0  0  0  0  0  0  0  0  0  0
  128.4780  127.7000   72.7380 C   0  0  0  0  0  0  0  0  0  0  0  0
  128.8960  127.5090   74.0290 N   0  0  0  0  0  0  0  0  0  0  0  0
  130.1440  126.9260   74.0370 C   0  0  0  0  0  0  0  0  0  0  0  0
  130.9680  126.5460   75.1020 C   0  0  0  0  0  0  0  0  0  0  0  0
  132.1970  125.9720   74.7770 C   0  0  0  0  0  0  0  0  0  0  0  0
  132.5940  125.7850   73.4580 C   0  0  0  0  0  0  0  0  0  0  0  0
  131.7730  126.1630   72.3970 C   0  0  0  0  0  0  0  0  0  0  0  0
  130.5230  126.7460   72.6690 C   0  0  0  0  0  0  0  0  0  0  0  0
  128.4490  128.0490   69.7080 N   0  0  0  0  0  0  0  0  0  0  0  0
  128.6270  127.8040   68.3700 C   0  0  0  0  0  0  0  0  0  0  0  0
  127.7800  128.4300   67.3120 C   0  0  0  0  0  0  0  0  0  0  0  0
  128.2210  129.5770   66.6490 C   0  0  0  0  0  0  0  0  0  0  0  0
  127.4290  130.1700   65.6720 C   0  0  0  0  0  0  0  0  0  0  0  0
  126.1800  129.6310   65.3300 C   0  0  0  0  0  0  0  0  0  0  0  0
  125.3230  130.2830   64.2920 C   0  0  0  0  0  0  0  0  0  0  0  0
  124.1300  129.6820   63.8620 C   0  0  0  0  0  0  0  0  0  0  0  0
  123.3290  130.2920   62.8990 C   0  0  0  0  0  0  0  0  0  0  0  0
  123.7140  131.5130   62.3550 C   0  0  0  0  0  0  0  0  0  0  0  0
  124.8920  132.1280   62.7670 C   0  0  0  0  0  0  0  0  0  0  0  0
  125.6900  131.5150   63.7280 C   0  0  0  0  0  0  0  0  0  0  0  0
  125.7570  128.4700   65.9900 C   0  0  0  0  0  0  0  0  0  0  0  0
  126.5460  127.8730   66.9690 C   0  0  0  0  0  0  0  0  0  0  0  0
  129.9140  125.0750   66.6200 C   0  0  0  0  0  0  0  0  0  0  0  0
  130.5540  124.5060   65.5230 C   0  0  0  0  0  0  0  0  0  0  0  0
  131.8460  123.3460   63.1590 C   0  0  0  0  0  0  0  0  0  0  0  0
  132.4850  122.7700   62.0650 C   0  0  0  0  0  0  0  0  0  0  0  0
  1  2  2  0
  2  3  1  0
  3  4  2  0
  4  5  1  0
  5  6  2  0
  6  7  1  0
  7  8  2  0
  8  9  1  0
  9 10  1  0
 10 11  2  0
 11 12  1  0
 12 13  2  0
 13 14  1  0
 14 15  1  0
 15 16  2  0
 16 17  1  0
 17 18  2  0
 18 19  1  0
 19 20  2  0
 11 21  1  0
 21 22  1  0
 22 23  1  0
 23 24  2  0
 24 25  1  0
 25 26  2  0
 26 27  1  0
 27 28  2  0
 28 29  1  0
 29 30  2  0
 30 31  1  0
 31 32  2  0
 26 33  1  0
 33 34  2  0
  8 35  1  0
 35 36  2  0
  4 37  1  0
 37 38  2  0
 38  1  1  0
 36  5  1  0
 22  9  2  0
 34 23  1  0
 20 12  1  0
 32 27  1  0
 20 15  1  0
M  END
>  <Binding energies>  (51) 
[-5.82]

>  <Ligand effiencies>  (51) 
[-0.14550000000000002]

>  <Interactions>  (51) 
["V-A:HIS:456:CE1:4068, V-A:ARG:545:CZ:4924, V-A:GLY:453:CA:4042, V-B:GLU:543:CD:9880, V-B:GLU:543:CB:9878, V-B:ARG:545:CZ:9898, V-A:GLU:543:CD:4906, V-B:LEU:475:CD2:9231, V-A:HIS:456:CB:4063, V-B:HIS:456:CD2:9040, V-A:GLY:544:C:4910, V-A:HIS:456:CG:4064, V-A:LYS:547:CD:4947, H-A:HIS:456:ND1:4065, V-A:HIS:456:CD2:4066, V-B:LYS:547:CE:9922, V-A:LYS:547:CE:4948, V-B:GLU:543:CA:9876, V-B:HIS:456:CE1:9042, V-A:GLU:543:CB:4904, V-B:TYR:484:CZ:9319, V-B:ARG:545:CG:9894, V-A:GLU:543:CG:4905, V-B:GLU:543:CG:9879, V-A:ARG:545:CD:4921, V-B:ILE:369:CD1:8211, V-B:ARG:545:CD:9895, V-A:ARG:545:CG:4920, V-A:TYR:484:CZ:4345, H-B:HIS:456:NE2:9043, V-A:LEU:475:CD2:4257, H-A:GLU:543:O:4901, V-A:ILE:369:CD1:3237, V-B:GLY:454:CA:9021, V-A:TYR:484:CE1:4343, V-A:GLU:543:CA:4902, V-B:GLY:453:C:9014, V-B:GLY:453:CA:9016, V-A:GLY:453:C:4040"]

$$$$
RR4_Rahimova_2017
     RDKit          3D

 40 44  0  0  0  0  0  0  0  0999 V2000
  133.3420  120.7770   60.4880 C   0  0  0  0  0  0  0  0  0  0  0  0
  133.8910  122.0760   60.2940 O   0  0  0  0  0  0  0  0  0  0  0  0
  133.2160  122.9810   59.4980 C   0  0  0  0  0  0  0  0  0  0  0  0
  131.8490  123.1190   59.7280 C   0  0  0  0  0  0  0  0  0  0  0  0
  131.0890  124.0080   58.9750 C   0  0  0  0  0  0  0  0  0  0  0  0
  131.6730  124.7860   57.9650 C   0  0  0  0  0  0  0  0  0  0  0  0
  130.8490  125.7440   57.1540 C   0  0  0  0  0  0  0  0  0  0  0  0
  130.4500  126.9950   57.6340 C   0  0  0  0  0  0  0  0  0  0  0  0
  129.6840  127.8560   56.8360 C   0  0  0  0  0  0  0  0  0  0  0  0
  129.3190  129.1880   57.4060 C   0  0  0  0  0  0  0  0  0  0  0  0
  128.0920  129.3620   58.0530 C   0  0  0  0  0  0  0  0  0  0  0  0
  127.7490  130.5970   58.5970 C   0  0  0  0  0  0  0  0  0  0  0  0
  128.6270  131.6780   58.5120 C   0  0  0  0  0  0  0  0  0  0  0  0
  128.2020  132.8630   59.0810 O   0  0  0  0  0  0  0  0  0  0  0  0
  128.1140  132.9600   60.4990 C   0  0  0  0  0  0  0  0  0  0  0  0
  129.8620  131.5050   57.8690 C   0  0  0  0  0  0  0  0  0  0  0  0
  130.2030  130.2690   57.3260 C   0  0  0  0  0  0  0  0  0  0  0  0
  129.3000  127.4160   55.5460 C   0  0  0  0  0  0  0  0  0  0  0  0
  128.5010  128.2770   54.6690 C   0  0  0  0  0  0  0  0  0  0  0  0
  127.8690  128.9560   53.9780 N   0  0  0  0  0  0  0  0  0  0  0  0
  129.7140  126.1280   55.1350 C   0  0  0  0  0  0  0  0  0  0  0  0
  129.3140  125.4100   53.5560 S   0  0  0  0  0  0  0  0  0  0  0  0
  127.7890  124.4310   53.7600 C   0  0  0  0  0  0  0  0  0  0  0  0
  127.5360  123.9360   55.1900 C   0  0  0  0  0  0  0  0  0  0  0  0
  127.8190  122.7790   55.5120 O   0  0  0  0  0  0  0  0  0  0  0  0
  126.9810  124.8520   56.0180 N   0  0  0  0  0  0  0  0  0  0  0  0
  126.6360  124.7110   57.3640 C   0  0  0  0  0  0  0  0  0  0  0  0
  127.7300  125.0850   58.6680 S   0  0  0  0  0  0  0  0  0  0  0  0
  126.5500  124.6390   59.8620 C   0  0  0  0  0  0  0  0  0  0  0  0
  125.3520  124.2120   59.2680 C   0  0  0  0  0  0  0  0  0  0  0  0
  125.3970  124.2680   57.8530 C   0  0  0  0  0  0  0  0  0  0  0  0
  124.2740  123.8970   56.9980 C   0  0  0  0  0  0  0  0  0  0  0  0
  123.3840  123.6010   56.3190 N   0  0  0  0  0  0  0  0  0  0  0  0
  124.1400  123.8000   60.1120 C   0  0  0  0  0  0  0  0  0  0  0  0
  124.2950  124.2970   61.5670 C   0  0  0  0  0  0  0  0  0  0  0  0
  125.6990  124.0150   62.1300 C   0  0  0  0  0  0  0  0  0  0  0  0
  126.7960  124.7770   61.3580 C   0  0  0  0  0  0  0  0  0  0  0  0
  130.4800  125.3300   55.9140 N   0  0  0  0  0  0  0  0  0  0  0  0
  133.0520  124.6430   57.7430 C   0  0  0  0  0  0  0  0  0  0  0  0
  133.8160  123.7540   58.4940 C   0  0  0  0  0  0  0  0  0  0  0  0
  1  2  1  0
  2  3  1  0
  3  4  2  0
  4  5  1  0
  5  6  2  0
  6  7  1  0
  7  8  2  0
  8  9  1  0
  9 10  1  0
 10 11  2  0
 11 12  1  0
 12 13  2  0
 13 14  1  0
 14 15  1  0
 13 16  1  0
 16 17  2  0
  9 18  2  0
 18 19  1  0
 19 20  3  0
 18 21  1  0
 21 22  1  0
 22 23  1  0
 23 24  1  0
 24 25  2  0
 24 26  1  0
 26 27  1  0
 27 28  1  0
 28 29  1  0
 29 30  2  0
 30 31  1  0
 31 32  1  0
 32 33  3  0
 30 34  1  0
 34 35  1  0
 35 36  1  0
 36 37  1  0
 21 38  2  0
  6 39  1  0
 39 40  2  0
 40  3  1  0
 38  7  1  0
 17 10  1  0
 31 27  2  0
 37 29  1  0
M  END
>  <Binding energies>  (52) 
[-9.85]

>  <Ligand effiencies>  (52) 
[-0.24024390243902438]

>  <Interactions>  (52) 
["V-B:GLU:543:CD:9880, V-B:PRO:540:CA:9855, V-B:TYR:539:CZ:9849, V-B:TYR:539:CE2:9848, V-B:ARG:545:CZ:9898, V-A:TYR:539:CD2:4872, V-A:TYR:539:CE2:4874, V-A:ASP:366:CG:3211, V-A:ALA:541:CB:4890, V-A:TYR:539:C:4865, V-B:MET:535:CB:9804, V-B:ASN:362:C:8144, V-B:MET:535:CG:9805, V-B:PRO:540:CB:9857, H-B:TYR:531:OH:9767, H-B:TYR:539:N:9842, V-B:ASN:362:CB:8148, V-A:LEU:475:CD2:4257, V-A:TRP:381:CH2:3370, V-A:ASP:366:CB:3210, V-A:ILE:369:CG2:3235, V-A:ILE:369:CD1:3237, V-B:TYR:531:CE2:9765, V-B:TYR:531:CZ:9766, H-B:TYR:539:OH:9850, V-A:ILE:369:CB:3234, V-A:ASP:366:CA:3208"]

$$$$
RR6_Rahimova_2017
     RDKit          3D

 38 41  0  0  0  0  0  0  0  0999 V2000
  132.0050  131.0470   62.4420 C   0  0  0  0  0  0  0  0  0  0  0  0
  132.6180  131.8880   61.4750 O   0  0  0  0  0  0  0  0  0  0  0  0
  133.0710  131.3850   60.2980 C   0  0  0  0  0  0  0  0  0  0  0  0
  134.2600  131.1300   60.0810 O   0  0  0  0  0  0  0  0  0  0  0  0
  131.9830  131.1680   59.2870 C   0  0  0  0  0  0  0  0  0  0  0  0
  130.6380  131.4440   59.5710 C   0  0  0  0  0  0  0  0  0  0  0  0
  129.6500  131.2250   58.6130 C   0  0  0  0  0  0  0  0  0  0  0  0
  129.9940  130.7200   57.3500 C   0  0  0  0  0  0  0  0  0  0  0  0
  129.0760  130.4350   56.3230 N   0  0  0  0  0  0  0  0  0  0  0  0
  128.3720  131.2860   55.5450 C   0  0  0  0  0  0  0  0  0  0  0  0
  128.4250  132.5150   55.6000 O   0  0  0  0  0  0  0  0  0  0  0  0
  127.3910  130.6300   54.5670 C   0  0  0  0  0  0  0  0  0  0  0  0
  125.9490  129.8630   55.3780 S   0  0  0  0  0  0  0  0  0  0  0  0
  126.4850  129.3440   56.9950 C   0  0  0  0  0  0  0  0  0  0  0  0
  127.5610  128.5200   56.9870 N   0  0  0  0  0  0  0  0  0  0  0  0
  128.0800  128.0800   58.1610 C   0  0  0  0  0  0  0  0  0  0  0  0
  129.3080  127.2220   58.0680 C   0  0  0  0  0  0  0  0  0  0  0  0
  129.7310  126.6980   56.8370 C   0  0  0  0  0  0  0  0  0  0  0  0
  130.8620  125.8910   56.7530 C   0  0  0  0  0  0  0  0  0  0  0  0
  131.5970  125.5970   57.9010 C   0  0  0  0  0  0  0  0  0  0  0  0
  132.8240  124.7090   57.8060 C   0  0  0  0  0  0  0  0  0  0  0  0
  131.1940  126.1090   59.1320 C   0  0  0  0  0  0  0  0  0  0  0  0
  130.0640  126.9150   59.2110 C   0  0  0  0  0  0  0  0  0  0  0  0
  127.5090  128.4570   59.3810 C   0  0  0  0  0  0  0  0  0  0  0  0
  126.3930  129.3050   59.4150 C   0  0  0  0  0  0  0  0  0  0  0  0
  125.8460  129.6820   60.7520 C   0  0  0  0  0  0  0  0  0  0  0  0
  126.3180  129.0520   61.9080 C   0  0  0  0  0  0  0  0  0  0  0  0
  125.8250  129.4090   63.1600 C   0  0  0  0  0  0  0  0  0  0  0  0
  124.8560  130.4040   63.2830 C   0  0  0  0  0  0  0  0  0  0  0  0
  124.4280  130.6940   64.5640 O   0  0  0  0  0  0  0  0  0  0  0  0
  124.8090  129.8350   65.6330 C   0  0  0  0  0  0  0  0  0  0  0  0
  124.3830  131.0440   62.1270 C   0  0  0  0  0  0  0  0  0  0  0  0
  124.8790  130.6850   60.8760 C   0  0  0  0  0  0  0  0  0  0  0  0
  125.8570  129.7610   58.1860 C   0  0  0  0  0  0  0  0  0  0  0  0
  124.6730  130.6260   58.1480 C   0  0  0  0  0  0  0  0  0  0  0  0
  123.7400  131.3100   58.1180 N   0  0  0  0  0  0  0  0  0  0  0  0
  131.3340  130.4600   57.0580 C   0  0  0  0  0  0  0  0  0  0  0  0
  132.3190  130.6770   58.0180 C   0  0  0  0  0  0  0  0  0  0  0  0
  1  2  1  0
  2  3  1  0
  3  4  2  0
  3  5  1  0
  5  6  2  0
  6  7  1  0
  7  8  2  0
  8  9  1  0
  9 10  1  0
 10 11  2  0
 10 12  1  0
 12 13  1  0
 13 14  1  0
 14 15  2  0
 15 16  1  0
 16 17  1  0
 17 18  2  0
 18 19  1  0
 19 20  2  0
 20 21  1  0
 20 22  1  0
 22 23  2  0
 16 24  2  0
 24 25  1  0
 25 26  1  0
 26 27  2  0
 27 28  1  0
 28 29  2  0
 29 30  1  0
 30 31  1  0
 29 32  1  0
 32 33  2  0
 25 34  2  0
 34 35  1  0
 35 36  3  0
  8 37  1  0
 37 38  2  0
 38  5  1  0
 34 14  1  0
 23 17  1  0
 33 26  1  0
M  END
>  <Binding energies>  (53) 
[-8.61]

>  <Ligand effiencies>  (53) 
[-0.22076923076923075]

>  <Interactions>  (53) 
["V-B:ASP:366:CG:8185, V-A:ARG:545:CZ:4924, V-B:TYR:539:CZ:9849, V-B:TYR:539:CE2:9848, V-B:ARG:545:CZ:9898, H-A:ALA:541:N:4889, V-A:TYR:539:CE2:4874, V-A:ASP:366:CG:3211, V-A:GLU:543:CD:4906, V-A:TYR:539:CZ:4875, V-A:PRO:540:CA:4881, V-A:TYR:539:CD1:4871, V-A:TYR:539:CE1:4873, V-A:PRO:540:CB:4883, H-B:TYR:531:OH:9767, H-B:TYR:484:OH:9320, V-B:HIS:456:CE1:9042, V-B:ASP:366:CB:8184, V-B:ARG:545:CG:9894, H-A:TYR:539:N:4868, V-A:GLU:543:CG:4905, V-B:ARG:545:CD:9895, V-A:ASP:366:CB:3210, H-B:GLY:454:N:9022, H-A:TYR:539:OH:4876, V-A:ASN:362:CB:3174, V-A:ALA:541:C:4886, V-A:ASP:366:CA:3208, H-A:LEU:363:N:3184"]

$$$$
RR7_Rahimova_2017
     RDKit          3D

 47 53  0  0  0  0  0  0  0  0999 V2000
  128.9720  132.1450   58.0270 C   0  0  0  0  0  0  0  0  0  0  0  0
  128.6880  131.3510   56.8780 O   0  0  0  0  0  0  0  0  0  0  0  0
  128.7980  129.9770   56.9670 C   0  0  0  0  0  0  0  0  0  0  0  0
  127.6160  129.2490   56.8430 C   0  0  0  0  0  0  0  0  0  0  0  0
  127.6280  127.8600   56.9140 C   0  0  0  0  0  0  0  0  0  0  0  0
  128.8270  127.1630   57.1220 C   0  0  0  0  0  0  0  0  0  0  0  0
  128.8750  125.6040   57.1720 C   0  0  0  0  0  0  0  0  0  0  0  0
  130.2740  125.2400   57.1800 O   0  0  0  0  0  0  0  0  0  0  0  0
  130.7720  124.3230   58.1600 C   0  0  0  0  0  0  0  0  0  0  0  0
  132.1810  124.7640   58.5880 C   0  0  1  0  0  0  0  0  0  0  0  0
  132.0300  125.5370   59.7750 O   0  0  0  0  0  0  0  0  0  0  0  0
  132.7410  124.9920   60.8490 C   0  0  1  0  0  0  0  0  0  0  0  0
  132.0360  125.2410   62.0920 N   0  0  0  0  0  0  0  0  0  0  0  0
  130.7260  125.6520   62.2620 C   0  0  0  0  0  0  0  0  0  0  0  0
  130.3560  125.8470   63.5040 N   0  0  0  0  0  0  0  0  0  0  0  0
  131.4920  125.5990   64.2260 C   0  0  0  0  0  0  0  0  0  0  0  0
  131.7590  125.6490   65.6080 C   0  0  0  0  0  0  0  0  0  0  0  0
  130.7160  125.9980   66.4860 N   0  0  0  0  0  0  0  0  0  0  0  0
  130.6760  126.9840   67.4130 C   0  0  0  0  0  0  0  0  0  0  0  0
  131.6110  127.7540   67.6480 O   0  0  0  0  0  0  0  0  0  0  0  0
  129.3910  127.0870   68.2060 C   0  0  0  0  0  0  0  0  0  0  0  0
  129.4460  127.2940   69.5930 C   0  0  0  0  0  0  0  0  0  0  0  0
  128.2760  127.3970   70.3400 C   0  0  0  0  0  0  0  0  0  0  0  0
  127.0410  127.2980   69.7070 C   0  0  0  0  0  0  0  0  0  0  0  0
  126.9650  127.0970   68.3310 C   0  0  0  0  0  0  0  0  0  0  0  0
  128.1350  126.9920   67.5820 C   0  0  0  0  0  0  0  0  0  0  0  0
  133.0190  125.3610   66.0540 N   0  0  0  0  0  0  0  0  0  0  0  0
  133.9620  125.0400   65.1300 C   0  0  0  0  0  0  0  0  0  0  0  0
  133.8120  124.9590   63.7810 N   0  0  0  0  0  0  0  0  0  0  0  0
  132.5660  125.2390   63.3730 C   0  0  0  0  0  0  0  0  0  0  0  0
  132.9280  123.5200   60.5000 C   0  0  0  0  0  0  0  0  0  0  0  0
  133.1220  123.6210   58.9960 C   0  0  2  0  0  0  0  0  0  0  0  0
  134.4720  123.8820   58.6510 O   0  0  0  0  0  0  0  0  0  0  0  0
  128.2530  125.0350   58.4750 C   0  0  0  0  0  0  0  0  0  0  0  0
  128.1440  125.8430   59.6190 C   0  0  0  0  0  0  0  0  0  0  0  0
  127.6000  125.3400   60.7960 C   0  0  0  0  0  0  0  0  0  0  0  0
  127.1600  124.0210   60.8440 C   0  0  0  0  0  0  0  0  0  0  0  0
  127.2590  123.2020   59.7230 C   0  0  0  0  0  0  0  0  0  0  0  0
  127.8040  123.7060   58.5450 C   0  0  0  0  0  0  0  0  0  0  0  0
  128.1540  124.8660   56.0090 C   0  0  0  0  0  0  0  0  0  0  0  0
  128.8910  124.1270   55.0700 C   0  0  0  0  0  0  0  0  0  0  0  0
  128.2560  123.4720   54.0200 C   0  0  0  0  0  0  0  0  0  0  0  0
  126.8730  123.5570   53.8920 C   0  0  0  0  0  0  0  0  0  0  0  0
  126.1230  124.2940   54.8030 C   0  0  0  0  0  0  0  0  0  0  0  0
  126.7600  124.9480   55.8520 C   0  0  0  0  0  0  0  0  0  0  0  0
  130.0160  127.8990   57.2310 C   0  0  0  0  0  0  0  0  0  0  0  0
  130.0040  129.2890   57.1600 C   0  0  0  0  0  0  0  0  0  0  0  0
  1  2  1  0
  2  3  1  0
  3  4  2  0
  4  5  1  0
  5  6  2  0
  6  7  1  0
  7  8  1  0
  8  9  1  0
 10  9  1  1
 10 11  1  0
 11 12  1  0
 12 13  1  1
 13 14  1  0
 14 15  2  0
 15 16  1  0
 16 17  2  0
 17 18  1  0
 18 19  1  0
 19 20  2  0
 19 21  1  0
 21 22  2  0
 22 23  1  0
 23 24  2  0
 24 25  1  0
 25 26  2  0
 17 27  1  0
 27 28  2  0
 28 29  1  0
 29 30  2  0
 12 31  1  0
 31 32  1  0
 32 33  1  1
  7 34  1  0
 34 35  2  0
 35 36  1  0
 36 37  2  0
 37 38  1  0
 38 39  2  0
  7 40  1  0
 40 41  2  0
 41 42  1  0
 42 43  2  0
 43 44  1  0
 44 45  2  0
  6 46  1  0
 46 47  2  0
 47  3  1  0
 32 10  1  0
 39 34  1  0
 45 40  1  0
 30 13  1  0
 30 16  1  0
 26 21  1  0
M  END
>  <Binding energies>  (54) 
[-10.12]

>  <Ligand effiencies>  (54) 
[-0.20653061224489794]

>  <Interactions>  (54) 
["V-A:HIS:456:CE1:4068, H-B:GLU:543:OE1:9881, V-A:ARG:545:CZ:4924, V-A:GLY:453:CA:4042, V-B:GLU:543:CD:9880, V-B:GLU:543:CB:9878, V-B:PRO:540:CA:9855, V-B:TYR:539:CZ:9849, H-B:GLU:543:OE2:9882, V-B:TYR:539:CE2:9848, H-A:ARG:545:NH2:4926, V-A:TYR:539:CD2:4872, V-A:TYR:539:CE2:4874, V-A:ASP:366:CG:3211, V-A:GLU:543:CD:4906, V-A:PRO:540:N:4882, V-A:TYR:539:C:4865, H-A:HIS:456:ND1:4065, V-B:GLY:544:C:9884, V-B:GLY:544:CA:9886, V-B:GLU:543:C:9874, V-B:MET:535:CB:9804, V-B:ILE:538:CA:9832, V-B:MET:535:CG:9805, V-B:PRO:540:N:9856, V-B:TYR:539:C:9839, V-B:ILE:538:CB:9834, V-B:TYR:539:CE1:9847, V-B:TYR:539:CD1:9845, V-B:ILE:538:CG2:9835, V-B:HIS:456:CE1:9042, V-B:ARG:545:CG:9894, H-A:HIS:456:NE2:4069, H-B:GLU:543:O:9875, V-A:GLU:543:CG:4905, V-B:GLU:543:CG:9879, H-A:TYR:484:OH:4346, V-A:ARG:545:CD:4921, H-A:ARG:545:NH1:4925, H-A:GLY:454:N:4048, V-A:ARG:545:CG:4920, H-A:ARG:545:NE:4922, V-A:ASP:366:CB:3210, H-A:ASP:366:OD1:3212, V-A:ILE:369:CG2:3235, V-B:TYR:531:CE2:9765, V-B:TYR:531:CZ:9766, V-B:PRO:540:C:9853, V-A:GLY:454:CA:4047, H-A:ARG:545:N:4918, V-A:GLY:453:C:4040, V-B:ARG:545:CA:9891, H-A:ASP:366:O:3207"]

$$$$
RR8_A_Rahimova_2017
     RDKit          3D

 42 46  0  0  0  0  0  0  0  0999 V2000
  127.1030  122.8180   55.2280 O   0  0  0  0  0  0  0  0  0  0  0  0
  127.5810  123.4300   56.1900 C   0  0  0  0  0  0  0  0  0  0  0  0
  128.8020  124.0500   56.1820 O   0  0  0  0  0  0  0  0  0  0  0  0
  128.9050  125.2690   55.4990 C   0  0  1  0  0  0  0  0  0  0  0  0
  127.7430  126.0340   55.6300 O   0  0  0  0  0  0  0  0  0  0  0  0
  128.0340  127.4220   55.7670 C   0  0  2  0  0  0  0  0  0  0  0  0
  127.2800  128.1920   54.6690 C   0  0  0  0  0  0  0  0  0  0  0  0
  126.3610  129.0840   55.2840 O   0  0  0  0  0  0  0  0  0  0  0  0
  126.4180  130.4120   54.7800 C   0  0  0  0  0  0  0  0  0  0  0  0
  127.8320  130.9550   54.9180 C   0  0  0  0  0  0  0  0  0  0  0  0
  128.2910  131.3970   56.1610 C   0  0  0  0  0  0  0  0  0  0  0  0
  129.5880  131.8890   56.2910 C   0  0  0  0  0  0  0  0  0  0  0  0
  130.4240  131.9350   55.1770 C   0  0  0  0  0  0  0  0  0  0  0  0
  129.9760  131.4910   53.9350 C   0  0  0  0  0  0  0  0  0  0  0  0
  128.6810  130.9970   53.8050 C   0  0  0  0  0  0  0  0  0  0  0  0
  129.5660  127.4830   55.6830 C   0  0  1  0  0  0  0  0  0  0  0  0
  130.1390  128.4340   56.5770 O   0  0  0  0  0  0  0  0  0  0  0  0
  129.9380  128.1770   57.9620 C   0  0  0  0  0  0  0  0  0  0  0  0
  130.6930  129.2040   58.7950 C   0  0  0  0  0  0  0  0  0  0  0  0
  130.5020  129.2490   60.1800 C   0  0  0  0  0  0  0  0  0  0  0  0
  131.1820  130.1910   60.9470 C   0  0  0  0  0  0  0  0  0  0  0  0
  132.0490  131.0900   60.3280 C   0  0  0  0  0  0  0  0  0  0  0  0
  132.2390  131.0570   58.9490 C   0  0  0  0  0  0  0  0  0  0  0  0
  131.5580  130.1150   58.1810 C   0  0  0  0  0  0  0  0  0  0  0  0
  129.9970  126.1060   56.1520 C   0  0  2  0  0  0  0  0  0  0  0  0
  131.3080  125.8030   55.6830 O   0  0  0  0  0  0  0  0  0  0  0  0
  132.3670  126.0710   56.5960 C   0  0  0  0  0  0  0  0  0  0  0  0
  132.3670  125.0330   57.7080 C   0  0  0  0  0  0  0  0  0  0  0  0
  133.5180  124.2840   57.9720 C   0  0  0  0  0  0  0  0  0  0  0  0
  133.5170  123.3420   58.9970 C   0  0  0  0  0  0  0  0  0  0  0  0
  132.3650  123.1530   59.7580 C   0  0  0  0  0  0  0  0  0  0  0  0
  131.2160  123.8980   59.5060 C   0  0  0  0  0  0  0  0  0  0  0  0
  131.2170  124.8410   58.4800 C   0  0  0  0  0  0  0  0  0  0  0  0
  126.8650  123.5790   57.5010 C   0  0  0  0  0  0  0  0  0  0  0  0
  125.4880  123.8430   57.5680 C   0  0  0  0  0  0  0  0  0  0  0  0
  124.8520  123.9770   58.7990 C   0  0  0  0  0  0  0  0  0  0  0  0
  125.5740  123.8540   59.9930 C   0  0  0  0  0  0  0  0  0  0  0  0
  124.8960  123.9960   61.3040 N   0  0  0  0  0  0  0  0  0  0  0  0
  125.4710  123.5940   62.3110 O   0  0  0  0  0  0  0  0  0  0  0  0
  123.7820  124.5120   61.3370 O   0  0  0  0  0  0  0  0  0  0  0  0
  126.9490  123.5940   59.9250 C   0  0  0  0  0  0  0  0  0  0  0  0
  127.5860  123.4590   58.6950 C   0  0  0  0  0  0  0  0  0  0  0  0
  1  2  2  0
  2  3  1  0
  4  3  1  1
  4  5  1  0
  5  6  1  0
  6  7  1  6
  7  8  1  0
  8  9  1  0
  9 10  1  0
 10 11  2  0
 11 12  1  0
 12 13  2  0
 13 14  1  0
 14 15  2  0
  6 16  1  0
 16 17  1  1
 17 18  1  0
 18 19  1  0
 19 20  2  0
 20 21  1  0
 21 22  2  0
 22 23  1  0
 23 24  2  0
 16 25  1  0
 25 26  1  6
 26 27  1  0
 27 28  1  0
 28 29  2  0
 29 30  1  0
 30 31  2  0
 31 32  1  0
 32 33  2  0
  2 34  1  0
 34 35  2  0
 35 36  1  0
 36 37  2  0
 37 38  1  0
 38 39  2  0
 38 40  1  0
 37 41  1  0
 41 42  2  0
 25  4  1  0
 33 28  1  0
 42 34  1  0
 15 10  1  0
 24 19  1  0
M  CHG  2  38   1  40  -1
M  END
>  <Binding energies>  (55) 
[-10.93]

>  <Ligand effiencies>  (55) 
[-0.2602380952380952]

>  <Interactions>  (55) 
["H-B:ARG:545:NH2:9900, V-B:PRO:540:CA:9855, V-B:TYR:539:CZ:9849, H-B:ALA:541:N:9863, V-B:TYR:539:CE2:9848, V-A:TYR:539:CE2:4874, V-A:ASP:366:CG:3211, V-A:TYR:539:CZ:4875, V-A:PRO:540:CA:4881, V-A:TYR:539:CD1:4871, V-A:TYR:539:CE1:4873, V-A:PRO:540:CB:4883, V-B:PRO:540:CB:9857, V-B:PRO:540:N:9856, V-B:TYR:539:C:9839, H-B:TYR:531:OH:9767, H-B:TYR:539:N:9842, V-B:ASN:362:CB:8148, V-A:ILE:538:CB:4860, V-A:ILE:538:CG2:4861, V-A:ASP:366:CB:3210, H-A:TYR:531:OH:4793, V-A:ILE:369:CG2:3235, V-A:ILE:369:CD1:3237, V-A:MET:535:CG:4831, V-A:ILE:538:CA:4858, V-A:MET:535:CB:4830, V-A:TYR:531:CZ:4792, V-B:MET:535:CE:9807, V-B:PRO:540:C:9853, H-B:ARG:545:NH1:9899, H-B:TYR:539:OH:9850, V-A:ILE:369:CB:3234, V-A:ASP:366:CA:3208, V-A:TYR:531:CE1:4790"]

$$$$
RR8_B_Rahimova_2017
     RDKit          3D

 42 46  0  0  0  0  0  0  0  0999 V2000
  133.4980  123.8950   57.6380 O   0  0  0  0  0  0  0  0  0  0  0  0
  132.6890  124.5420   58.3100 C   0  0  0  0  0  0  0  0  0  0  0  0
  131.6710  125.2890   57.7840 O   0  0  0  0  0  0  0  0  0  0  0  0
  131.3400  125.1010   56.4300 C   0  0  2  0  0  0  0  0  0  0  0  0
  131.2250  126.3180   55.7470 O   0  0  0  0  0  0  0  0  0  0  0  0
  129.8830  126.8030   55.7700 C   0  0  2  0  0  0  0  0  0  0  0  0
  129.8540  128.2000   56.4170 C   0  0  0  0  0  0  0  0  0  0  0  0
  130.8390  128.2620   57.4410 O   0  0  0  0  0  0  0  0  0  0  0  0
  130.8790  129.4860   58.1590 C   0  0  0  0  0  0  0  0  0  0  0  0
  131.6870  130.5040   57.3700 C   0  0  0  0  0  0  0  0  0  0  0  0
  131.0650  131.2630   56.3740 C   0  0  0  0  0  0  0  0  0  0  0  0
  131.8040  132.1800   55.6310 C   0  0  0  0  0  0  0  0  0  0  0  0
  133.1650  132.3350   55.8880 C   0  0  0  0  0  0  0  0  0  0  0  0
  133.7910  131.5870   56.8820 C   0  0  0  0  0  0  0  0  0  0  0  0
  133.0520  130.6680   57.6240 C   0  0  0  0  0  0  0  0  0  0  0  0
  129.0990  125.7160   56.5140 C   0  0  1  0  0  0  0  0  0  0  0  0
  127.7880  125.5950   55.9540 O   0  0  0  0  0  0  0  0  0  0  0  0
  127.3160  124.2720   55.6830 C   0  0  0  0  0  0  0  0  0  0  0  0
  125.9290  124.0220   56.2680 C   0  0  0  0  0  0  0  0  0  0  0  0
  124.9980  123.2580   55.5600 C   0  0  0  0  0  0  0  0  0  0  0  0
  123.7440  123.0040   56.1110 C   0  0  0  0  0  0  0  0  0  0  0  0
  123.4250  123.5200   57.3660 C   0  0  0  0  0  0  0  0  0  0  0  0
  124.3480  124.2870   58.0750 C   0  0  0  0  0  0  0  0  0  0  0  0
  125.6030  124.5370   57.5260 C   0  0  0  0  0  0  0  0  0  0  0  0
  129.9540  124.4680   56.3270 C   0  0  2  0  0  0  0  0  0  0  0  0
  129.6780  123.5180   57.3540 O   0  0  0  0  0  0  0  0  0  0  0  0
  128.9950  124.0240   58.4900 C   0  0  0  0  0  0  0  0  0  0  0  0
  129.5280  123.3130   59.7210 C   0  0  0  0  0  0  0  0  0  0  0  0
  130.3590  122.1970   59.5870 C   0  0  0  0  0  0  0  0  0  0  0  0
  130.8270  121.5410   60.7230 C   0  0  0  0  0  0  0  0  0  0  0  0
  130.4620  122.0010   61.9870 C   0  0  0  0  0  0  0  0  0  0  0  0
  129.6340  123.1140   62.1270 C   0  0  0  0  0  0  0  0  0  0  0  0
  129.1670  123.7700   60.9920 C   0  0  0  0  0  0  0  0  0  0  0  0
  132.7420  124.6200   59.8080 C   0  0  0  0  0  0  0  0  0  0  0  0
  133.5750  123.7820   60.5630 C   0  0  0  0  0  0  0  0  0  0  0  0
  133.5970  123.8710   61.9510 C   0  0  0  0  0  0  0  0  0  0  0  0
  132.7800  124.7900   62.6200 C   0  0  0  0  0  0  0  0  0  0  0  0
  132.7860  124.8650   64.1010 N   0  0  0  0  0  0  0  0  0  0  0  0
  131.7260  125.0780   64.6840 O   0  0  0  0  0  0  0  0  0  0  0  0
  133.8500  124.7070   64.6950 O   0  0  0  0  0  0  0  0  0  0  0  0
  131.9520  125.6310   61.8650 C   0  0  0  0  0  0  0  0  0  0  0  0
  131.9350  125.5490   60.4760 C   0  0  0  0  0  0  0  0  0  0  0  0
  1  2  2  0
  2  3  1  0
  4  3  1  1
  4  5  1  0
  5  6  1  0
  6  7  1  1
  7  8  1  0
  8  9  1  0
  9 10  1  0
 10 11  2  0
 11 12  1  0
 12 13  2  0
 13 14  1  0
 14 15  2  0
  6 16  1  0
 16 17  1  6
 17 18  1  0
 18 19  1  0
 19 20  2  0
 20 21  1  0
 21 22  2  0
 22 23  1  0
 23 24  2  0
 16 25  1  0
 25 26  1  1
 26 27  1  0
 27 28  1  0
 28 29  2  0
 29 30  1  0
 30 31  2  0
 31 32  1  0
 32 33  2  0
  2 34  1  0
 34 35  2  0
 35 36  1  0
 36 37  2  0
 37 38  1  0
 38 39  2  0
 38 40  1  0
 37 41  1  0
 41 42  2  0
 25  4  1  0
 33 28  1  0
 42 34  1  0
 15 10  1  0
 24 19  1  0
M  CHG  2  38   1  40  -1
M  END
>  <Binding energies>  (56) 
[-11.04]

>  <Ligand effiencies>  (56) 
[-0.26285714285714284]

>  <Interactions>  (56) 
["V-B:ALA:541:CB:9864, V-B:ASP:366:CG:8185, V-A:ARG:545:CZ:4924, V-B:TYR:539:CD2:9846, V-B:PRO:540:CA:9855, V-B:TYR:539:CZ:9849, V-B:TYR:539:CE2:9848, V-A:ASP:366:CG:3211, V-A:PRO:540:N:4882, V-A:PRO:540:CB:4883, V-B:ILE:538:CA:9832, V-B:PRO:540:CB:9857, V-B:PRO:540:CD:9859, V-B:ILE:538:CB:9834, V-B:TYR:539:CE1:9847, H-B:TYR:531:OH:9767, V-B:ILE:538:CG2:9835, V-A:LEU:363:CA:3183, V-A:PRO:540:CD:4885, V-A:ILE:538:CB:4860, V-A:PRO:540:CG:4884, V-A:ILE:538:CG2:4861, V-A:LEU:363:CD1:3187, V-A:TYR:531:CE2:4791, V-A:LEU:363:CB:3185, H-A:TYR:484:OH:4346, H-A:GLY:454:N:4048, H-A:ARG:545:NE:4922, V-A:LEU:475:CD2:4257, V-A:ASP:366:CB:3210, H-A:TYR:531:OH:4793, V-B:LEU:363:CA:8157, V-B:LEU:363:CD1:8161, V-B:LEU:363:CB:8159, V-A:ILE:369:CD1:3237, V-B:PRO:540:CG:9858, V-B:TYR:531:CE2:9765, V-A:ILE:538:CA:4858, H-B:TYR:539:OH:9850"]

$$$$
RR9_Rahimova_2017
     RDKit          3D

 36 40  0  0  0  0  0  0  0  0999 V2000
  125.6520  134.1010   61.0780 C   0  0  0  0  0  0  0  0  0  0  0  0
  124.1380  134.2220   61.2810 C   0  0  0  0  0  0  0  0  0  0  0  0
  123.6380  132.9730   61.7480 O   0  0  0  0  0  0  0  0  0  0  0  0
  124.4110  131.8370   61.6050 C   0  0  0  0  0  0  0  0  0  0  0  0
  124.9650  131.3100   62.7690 C   0  0  0  0  0  0  0  0  0  0  0  0
  125.7600  130.1690   62.7220 C   0  0  0  0  0  0  0  0  0  0  0  0
  126.0230  129.5210   61.5060 C   0  0  0  0  0  0  0  0  0  0  0  0
  126.8830  128.2930   61.4490 C   0  0  0  0  0  0  0  0  0  0  0  0
  126.3810  127.0640   60.9920 C   0  0  0  0  0  0  0  0  0  0  0  0
  127.1950  125.9190   60.9280 C   0  0  0  0  0  0  0  0  0  0  0  0
  126.6280  124.6580   60.3350 C   0  0  0  0  0  0  0  0  0  0  0  0
  126.9880  123.5570   60.7520 O   0  0  0  0  0  0  0  0  0  0  0  0
  125.7440  124.8290   59.3320 N   0  0  0  0  0  0  0  0  0  0  0  0
  125.1570  123.7630   58.5130 C   0  0  0  0  0  0  0  0  0  0  0  0
  124.9070  124.1930   57.0490 C   0  0  0  0  0  0  0  0  0  0  0  0
  126.0730  123.9340   56.1010 C   0  0  0  0  0  0  0  0  0  0  0  0
  127.3050  123.5050   56.6040 C   0  0  0  0  0  0  0  0  0  0  0  0
  128.3570  123.2370   55.7330 C   0  0  0  0  0  0  0  0  0  0  0  0
  128.1760  123.4020   54.3620 C   0  0  0  0  0  0  0  0  0  0  0  0
  126.9520  123.8330   53.8530 C   0  0  0  0  0  0  0  0  0  0  0  0
  125.8990  124.1000   54.7240 C   0  0  0  0  0  0  0  0  0  0  0  0
  128.5290  126.0710   61.3810 C   0  0  0  0  0  0  0  0  0  0  0  0
  129.7140  125.2660   61.5610 C   0  0  0  0  0  0  0  0  0  0  0  0
  129.9030  123.7980   61.3640 C   0  0  0  0  0  0  0  0  0  0  0  0
  130.3380  122.9960   62.4230 C   0  0  0  0  0  0  0  0  0  0  0  0
  130.5290  121.6300   62.2320 C   0  0  0  0  0  0  0  0  0  0  0  0
  130.2810  121.0600   60.9830 C   0  0  0  0  0  0  0  0  0  0  0  0
  130.5060  119.5740   60.7690 C   0  0  0  0  0  0  0  0  0  0  0  0
  129.8470  121.8570   59.9220 C   0  0  0  0  0  0  0  0  0  0  0  0
  129.6550  123.2220   60.1150 C   0  0  0  0  0  0  0  0  0  0  0  0
  130.7150  126.0070   61.9820 N   0  0  0  0  0  0  0  0  0  0  0  0
  130.2600  127.2580   62.1520 N   0  0  0  0  0  0  0  0  0  0  0  0
  128.9310  127.3580   61.8130 C   0  0  0  0  0  0  0  0  0  0  0  0
  128.1700  128.4490   61.8670 N   0  0  0  0  0  0  0  0  0  0  0  0
  125.4630  130.0580   60.3380 C   0  0  0  0  0  0  0  0  0  0  0  0
  124.6660  131.2000   60.3830 C   0  0  0  0  0  0  0  0  0  0  0  0
  1  2  1  0
  2  3  1  0
  3  4  1  0
  4  5  2  0
  5  6  1  0
  6  7  2  0
  7  8  1  0
  8  9  2  0
  9 10  1  0
 10 11  1  0
 11 12  2  0
 11 13  1  0
 13 14  1  0
 14 15  1  0
 15 16  1  0
 16 17  2  0
 17 18  1  0
 18 19  2  0
 19 20  1  0
 20 21  2  0
 10 22  2  0
 22 23  1  0
 23 24  1  0
 24 25  2  0
 25 26  1  0
 26 27  2  0
 27 28  1  0
 27 29  1  0
 29 30  2  0
 23 31  2  0
 31 32  1  0
 32 33  1  0
 33 34  2  0
  7 35  1  0
 35 36  2  0
 36  4  1  0
 34  8  1  0
 21 16  1  0
 33 22  1  0
 30 24  1  0
M  END
>  <Binding energies>  (57) 
[-9.53]

>  <Ligand effiencies>  (57) 
[-0.2507894736842105]

>  <Interactions>  (57) 
["V-B:ALA:541:CB:9864, V-B:ASP:366:CG:8185, H-B:ASP:366:OD2:8187, V-B:GLU:543:CD:9880, V-B:TYR:539:CD2:9846, V-B:PRO:540:CA:9855, V-B:TYR:539:CZ:9849, H-B:ALA:541:N:9863, V-B:TYR:539:CE2:9848, H-A:GLU:543:OE2:4908, H-A:ARG:545:NH2:4926, H-A:GLU:543:OE1:4907, V-A:TYR:539:CD2:4872, V-A:TYR:539:CE2:4874, V-A:GLU:543:CD:4906, V-B:LEU:475:CD2:9231, V-B:ILE:369:CG2:8209, V-B:MET:535:CB:9804, V-B:ILE:538:CA:9832, V-B:MET:535:CG:9805, V-B:TYR:539:CG:9844, V-B:PRO:540:CB:9857, V-B:PRO:540:N:9856, V-B:TYR:539:C:9839, V-B:ILE:538:CB:9834, V-B:TYR:539:CE1:9847, V-B:TYR:539:CD1:9845, V-B:ILE:538:CG2:9835, V-B:ILE:369:CD1:8211, V-A:PRO:482:CB:4324, V-A:PRO:482:CG:4325, V-A:LEU:475:CD2:4257, V-A:TRP:381:CZ2:3368, V-A:TRP:381:CH2:3370, V-B:TYR:531:CE2:9765, V-B:TYR:531:CZ:9766"]

$$$$
