1a_Grossjean_2025
     RDKit          3D

 26 27  0  0  0  0  0  0  0  0999 V2000
  133.2830  132.1950   55.8170 C   0  0  0  0  0  0  0  0  0  0  0  0
  131.9450  132.1420   56.5610 C   0  0  0  0  0  0  0  0  0  0  0  0
  130.8790  132.2520   55.6280 O   0  0  0  0  0  0  0  0  0  0  0  0
  129.5920  132.0360   56.0050 C   0  0  0  0  0  0  0  0  0  0  0  0
  128.8740  132.9100   56.5010 O   0  0  0  0  0  0  0  0  0  0  0  0
  129.1340  130.6250   55.7750 C   0  0  0  0  0  0  0  0  0  0  0  0
  128.0500  130.3890   54.9190 C   0  0  0  0  0  0  0  0  0  0  0  0
  127.6000  129.0920   54.6890 C   0  0  0  0  0  0  0  0  0  0  0  0
  128.2190  128.0070   55.3100 C   0  0  0  0  0  0  0  0  0  0  0  0
  127.6790  126.7410   55.0070 N   0  0  0  0  0  0  0  0  0  0  0  0
  128.2580  125.6650   54.4320 C   0  0  0  0  0  0  0  0  0  0  0  0
  129.4270  125.6000   54.0520 O   0  0  0  0  0  0  0  0  0  0  0  0
  127.3480  124.4470   54.2580 C   0  0  0  0  0  0  0  0  0  0  0  0
  127.6640  123.1700   55.5130 S   0  0  0  0  0  0  0  0  0  0  0  0
  126.6680  123.5600   56.9340 C   0  0  0  0  0  0  0  0  0  0  0  0
  125.3570  123.7600   56.6450 N   0  0  0  0  0  0  0  0  0  0  0  0
  124.5080  124.0680   57.6540 C   0  0  0  0  0  0  0  0  0  0  0  0
  123.0620  124.2900   57.2540 C   0  0  0  0  0  0  0  0  0  0  0  0
  124.9230  124.1770   58.9790 C   0  0  0  0  0  0  0  0  0  0  0  0
  126.2690  123.9520   59.2910 C   0  0  0  0  0  0  0  0  0  0  0  0
  126.6980  124.0620   60.7520 C   0  0  0  0  0  0  0  0  0  0  0  0
  127.1730  123.6260   58.2540 C   0  0  0  0  0  0  0  0  0  0  0  0
  128.5770  123.3380   58.5630 C   0  0  0  0  0  0  0  0  0  0  0  0
  129.6840  123.1110   58.8090 N   0  0  0  0  0  0  0  0  0  0  0  0
  129.3100  128.2330   56.1620 C   0  0  0  0  0  0  0  0  0  0  0  0
  129.7600  129.5300   56.3920 C   0  0  0  0  0  0  0  0  0  0  0  0
  1  2  1  0
  2  3  1  0
  3  4  1  0
  4  5  2  0
  4  6  1  0
  6  7  2  0
  7  8  1  0
  8  9  2  0
  9 10  1  0
 10 11  1  0
 11 12  2  0
 11 13  1  0
 13 14  1  0
 14 15  1  0
 15 16  2  0
 16 17  1  0
 17 18  1  0
 17 19  2  0
 19 20  1  0
 20 21  1  0
 20 22  2  0
 22 23  1  0
 23 24  3  0
  9 25  1  0
 25 26  2  0
 26  6  1  0
 22 15  1  0
M  END
>  <Binding energies>  (1) 
[-8.35]

>  <Ligand effiencies>  (1) 
[-0.30925925925925923]

>  <Interactions>  (1) 
["V-B:TYR:539:CD2:9846, V-B:PRO:540:CA:9855, V-A:PRO:540:CA:4881, V-A:TYR:539:CD1:4871, V-A:PRO:540:N:4882, V-A:PRO:540:CB:4883, V-B:MET:535:CG:9805, V-B:PRO:540:CB:9857, V-B:PRO:540:N:9856, V-B:TYR:539:C:9839, H-B:TYR:531:OH:9767, H-B:TYR:539:N:9842, V-A:PRO:540:CD:4885, V-A:ILE:538:CB:4860, V-A:PRO:540:CG:4884, V-A:ILE:538:CG2:4861, V-A:LEU:363:CD1:3187, V-A:TYR:531:CE2:4791, V-B:ASP:366:CB:8184, H-A:TYR:539:N:4868, V-B:LEU:363:CA:8157, V-B:LEU:363:CD1:8161, V-B:LEU:363:CB:8159, V-B:TYR:531:CE2:9765, V-B:TYR:531:CZ:9766, H-B:MET:535:SD:9806, V-B:LEU:363:C:8155"]

$$$$
1aa_Ghoteimi_2023
     RDKit          3D

 40 43  0  0  0  0  0  0  0  0999 V2000
  131.2530  125.2550   65.6820 C   0  0  0  0  0  0  0  0  0  0  0  0
  132.7360  125.4240   65.3420 C   0  0  0  0  0  0  0  0  0  0  0  0
  133.1130  124.4560   64.3710 O   0  0  0  0  0  0  0  0  0  0  0  0
  133.3050  124.8040   63.0730 C   0  0  0  0  0  0  0  0  0  0  0  0
  134.4170  125.0400   62.5890 O   0  0  0  0  0  0  0  0  0  0  0  0
  132.0310  124.8740   62.2810 C   0  0  0  0  0  0  0  0  0  0  0  0
  131.7420  123.9570   61.2590 C   0  0  0  0  0  0  0  0  0  0  0  0
  130.5510  124.0460   60.5410 C   0  0  0  0  0  0  0  0  0  0  0  0
  129.6240  125.0560   60.8380 C   0  0  0  0  0  0  0  0  0  0  0  0
  128.3930  125.2440   60.1820 N   0  0  0  0  0  0  0  0  0  0  0  0
  127.4040  124.3630   59.9060 C   0  0  0  0  0  0  0  0  0  0  0  0
  127.4190  123.1710   60.2100 O   0  0  0  0  0  0  0  0  0  0  0  0
  126.1730  124.8990   59.1580 C   0  0  0  0  0  0  0  0  0  0  0  0
  126.5560  125.9210   58.2280 O   0  0  0  0  0  0  0  0  0  0  0  0
  126.9340  127.1770   58.6820 C   0  0  0  0  0  0  0  0  0  0  0  0
  126.3990  127.6230   59.8520 N   0  0  0  0  0  0  0  0  0  0  0  0
  126.7340  128.8540   60.3220 C   0  0  0  0  0  0  0  0  0  0  0  0
  126.1020  129.2720   61.6180 C   0  0  0  0  0  0  0  0  0  0  0  0
  124.9090  130.0090   61.6360 C   0  0  0  0  0  0  0  0  0  0  0  0
  124.3230  130.3990   62.8370 C   0  0  0  0  0  0  0  0  0  0  0  0
  124.9080  130.0640   64.0560 C   0  0  0  0  0  0  0  0  0  0  0  0
  124.2560  130.4940   65.1950 O   0  0  0  0  0  0  0  0  0  0  0  0
  124.3250  129.7010   66.3750 C   0  0  0  0  0  0  0  0  0  0  0  0
  126.0980  129.3230   64.0550 C   0  0  0  0  0  0  0  0  0  0  0  0
  126.6820  128.9340   62.8530 C   0  0  0  0  0  0  0  0  0  0  0  0
  127.6410  129.6610   59.6250 C   0  0  0  0  0  0  0  0  0  0  0  0
  128.2150  129.2200   58.4240 C   0  0  0  0  0  0  0  0  0  0  0  0
  129.1840  130.1240   57.7350 C   0  0  0  0  0  0  0  0  0  0  0  0
  128.7260  131.0820   56.8250 C   0  0  0  0  0  0  0  0  0  0  0  0
  129.6220  131.9340   56.1850 C   0  0  0  0  0  0  0  0  0  0  0  0
  130.9890  131.8510   56.4450 C   0  0  0  0  0  0  0  0  0  0  0  0
  131.8020  132.7370   55.7640 O   0  0  0  0  0  0  0  0  0  0  0  0
  133.2060  132.5070   55.7320 C   0  0  0  0  0  0  0  0  0  0  0  0
  131.4520  130.8970   57.3630 C   0  0  0  0  0  0  0  0  0  0  0  0
  130.5550  130.0450   58.0010 C   0  0  0  0  0  0  0  0  0  0  0  0
  127.8430  127.9460   57.9360 C   0  0  0  0  0  0  0  0  0  0  0  0
  128.3560  127.4200   56.6700 C   0  0  0  0  0  0  0  0  0  0  0  0
  128.7610  127.0020   55.6700 N   0  0  0  0  0  0  0  0  0  0  0  0
  129.9100  125.9700   61.8530 C   0  0  0  0  0  0  0  0  0  0  0  0
  131.1000  125.8810   62.5680 C   0  0  0  0  0  0  0  0  0  0  0  0
  1  2  1  0
  2  3  1  0
  3  4  1  0
  4  5  2  0
  4  6  1  0
  6  7  2  0
  7  8  1  0
  8  9  2  0
  9 10  1  0
 10 11  1  0
 11 12  2  0
 11 13  1  0
 13 14  1  0
 14 15  1  0
 15 16  2  0
 16 17  1  0
 17 18  1  0
 18 19  2  0
 19 20  1  0
 20 21  2  0
 21 22  1  0
 22 23  1  0
 21 24  1  0
 24 25  2  0
 17 26  2  0
 26 27  1  0
 27 28  1  0
 28 29  2  0
 29 30  1  0
 30 31  2  0
 31 32  1  0
 32 33  1  0
 31 34  1  0
 34 35  2  0
 27 36  2  0
 36 37  1  0
 37 38  3  0
  9 39  1  0
 39 40  2  0
 40  6  1  0
 36 15  1  0
 25 18  1  0
 35 28  1  0
M  END
>  <Binding energies>  (2) 
[-7.66]

>  <Ligand effiencies>  (2) 
[-0.18682926829268293]

>  <Interactions>  (2) 
["V-B:ASP:366:CG:8185, V-A:HIS:456:CE1:4068, V-A:ARG:545:CZ:4924, V-B:GLU:543:CD:9880, V-B:GLU:543:CB:9878, H-B:ALA:541:N:9863, H-A:ARG:545:NH2:4926, V-B:ARG:545:CZ:9898, V-A:PRO:540:N:4882, V-A:PRO:540:CB:4883, H-B:TYR:531:OH:9767, H-B:TYR:484:OH:9320, V-B:HIS:456:CE1:9042, V-B:TYR:484:CZ:9319, V-A:PRO:540:CD:4885, V-A:ILE:538:CB:4860, V-A:PRO:540:CG:4884, V-A:ILE:538:CG2:4861, V-A:LEU:363:CD1:3187, V-A:TYR:531:CE2:4791, V-B:ARG:545:CG:9894, H-A:TYR:539:N:4868, H-A:TYR:484:OH:4346, V-A:ARG:545:CD:4921, H-A:ARG:545:NH1:4925, V-B:ARG:545:CD:9895, H-A:GLY:454:N:4048, V-A:ARG:545:CG:4920, V-A:TYR:484:CZ:4345, H-B:GLY:454:N:9022, V-A:ILE:538:CD1:4863"]

$$$$
1b_Grossjean_2025
     RDKit          3D

 25 26  0  0  0  0  0  0  0  0999 V2000
  132.3610  132.0950   56.1780 C   0  0  0  0  0  0  0  0  0  0  0  0
  131.1270  132.5460   55.6350 O   0  0  0  0  0  0  0  0  0  0  0  0
  129.9430  132.1430   56.1630 C   0  0  0  0  0  0  0  0  0  0  0  0
  129.2530  132.8490   56.9050 O   0  0  0  0  0  0  0  0  0  0  0  0
  129.5500  130.7540   55.7460 C   0  0  0  0  0  0  0  0  0  0  0  0
  128.6520  130.5210   54.6940 C   0  0  0  0  0  0  0  0  0  0  0  0
  128.3070  129.2220   54.3340 C   0  0  0  0  0  0  0  0  0  0  0  0
  128.8500  128.1310   55.0140 C   0  0  0  0  0  0  0  0  0  0  0  0
  128.4300  126.8640   54.5650 N   0  0  0  0  0  0  0  0  0  0  0  0
  129.1440  125.8480   54.0330 C   0  0  0  0  0  0  0  0  0  0  0  0
  130.3590  125.8520   53.8410 O   0  0  0  0  0  0  0  0  0  0  0  0
  128.3350  124.6040   53.6620 C   0  0  0  0  0  0  0  0  0  0  0  0
  128.6010  123.2390   54.8340 S   0  0  0  0  0  0  0  0  0  0  0  0
  127.3830  123.4010   56.1220 C   0  0  0  0  0  0  0  0  0  0  0  0
  126.1240  123.0900   55.7250 N   0  0  0  0  0  0  0  0  0  0  0  0
  125.1180  123.1780   56.6260 C   0  0  0  0  0  0  0  0  0  0  0  0
  123.7390  122.8010   56.1150 C   0  0  0  0  0  0  0  0  0  0  0  0
  125.3220  123.5850   57.9430 C   0  0  0  0  0  0  0  0  0  0  0  0
  126.6130  123.9280   58.3550 C   0  0  0  0  0  0  0  0  0  0  0  0
  126.8090  124.3870   59.7990 C   0  0  0  0  0  0  0  0  0  0  0  0
  127.6790  123.8450   57.4320 C   0  0  0  0  0  0  0  0  0  0  0  0
  129.0320  124.2420   57.8290 C   0  0  0  0  0  0  0  0  0  0  0  0
  130.1000  124.5560   58.1460 N   0  0  0  0  0  0  0  0  0  0  0  0
  129.7490  128.3560   56.0670 C   0  0  0  0  0  0  0  0  0  0  0  0
  130.0930  129.6560   56.4260 C   0  0  0  0  0  0  0  0  0  0  0  0
  1  2  1  0
  2  3  1  0
  3  4  2  0
  3  5  1  0
  5  6  2  0
  6  7  1  0
  7  8  2  0
  8  9  1  0
  9 10  1  0
 10 11  2  0
 10 12  1  0
 12 13  1  0
 13 14  1  0
 14 15  2  0
 15 16  1  0
 16 17  1  0
 16 18  2  0
 18 19  1  0
 19 20  1  0
 19 21  2  0
 21 22  1  0
 22 23  3  0
  8 24  1  0
 24 25  2  0
 25  5  1  0
 21 14  1  0
M  END
>  <Binding energies>  (3) 
[-7.99]

>  <Ligand effiencies>  (3) 
[-0.30730769230769234]

>  <Interactions>  (3) 
["V-B:PRO:540:CA:9855, V-B:TYR:539:CE2:9848, V-A:PRO:540:N:4882, V-A:TYR:539:C:4865, V-A:PRO:540:CB:4883, V-B:MET:535:CG:9805, V-B:PRO:540:CB:9857, V-B:PRO:540:CD:9859, V-B:PRO:540:N:9856, V-B:ILE:538:CB:9834, H-B:TYR:531:OH:9767, V-B:ILE:538:CG2:9835, H-B:TYR:539:N:9842, V-A:PRO:540:CD:4885, V-A:ILE:538:CB:4860, V-A:ILE:538:CG2:4861, V-A:TYR:531:CE2:4791, H-A:TYR:539:N:4868, V-B:LEU:363:CD1:8161, V-B:PRO:540:CG:9858, V-B:TYR:531:CE2:9765, V-B:ILE:538:CD1:9837, V-A:MET:535:CE:4833, H-B:MET:535:SD:9806"]

$$$$
1c_Grossjean_2025
     RDKit          3D

 23 24  0  0  0  0  0  0  0  0999 V2000
  132.6340  131.4040   61.5390 C   0  0  0  0  0  0  0  0  0  0  0  0
  131.2500  131.7100   61.4120 O   0  0  0  0  0  0  0  0  0  0  0  0
  130.6560  131.6400   60.1670 C   0  0  0  0  0  0  0  0  0  0  0  0
  129.3740  132.1790   60.0570 C   0  0  0  0  0  0  0  0  0  0  0  0
  128.6940  132.1570   58.8430 C   0  0  0  0  0  0  0  0  0  0  0  0
  129.3000  131.5930   57.7100 C   0  0  0  0  0  0  0  0  0  0  0  0
  128.6990  131.5090   56.4390 N   0  0  0  0  0  0  0  0  0  0  0  0
  129.1490  131.9560   55.2470 C   0  0  0  0  0  0  0  0  0  0  0  0
  130.2230  132.5270   55.0570 O   0  0  0  0  0  0  0  0  0  0  0  0
  128.2180  131.7050   54.0590 C   0  0  0  0  0  0  0  0  0  0  0  0
  127.9910  129.9300   53.7400 S   0  0  0  0  0  0  0  0  0  0  0  0
  127.4080  129.1600   55.2360 C   0  0  0  0  0  0  0  0  0  0  0  0
  126.2890  129.7400   55.7400 N   0  0  0  0  0  0  0  0  0  0  0  0
  125.7520  129.2400   56.8780 C   0  0  0  0  0  0  0  0  0  0  0  0
  124.4970  129.9340   57.3750 C   0  0  0  0  0  0  0  0  0  0  0  0
  126.3080  128.1600   57.5590 C   0  0  0  0  0  0  0  0  0  0  0  0
  127.4740  127.5700   57.0630 C   0  0  0  0  0  0  0  0  0  0  0  0
  128.0740  126.3980   57.8370 C   0  0  0  0  0  0  0  0  0  0  0  0
  128.0540  128.0770   55.8760 C   0  0  0  0  0  0  0  0  0  0  0  0
  129.3060  127.5080   55.3710 C   0  0  0  0  0  0  0  0  0  0  0  0
  130.2940  127.0570   54.9720 N   0  0  0  0  0  0  0  0  0  0  0  0
  130.5770  131.0420   57.8180 C   0  0  0  0  0  0  0  0  0  0  0  0
  131.2540  131.0660   59.0350 C   0  0  0  0  0  0  0  0  0  0  0  0
  1  2  1  0
  2  3  1  0
  3  4  2  0
  4  5  1  0
  5  6  2  0
  6  7  1  0
  7  8  1  0
  8  9  2  0
  8 10  1  0
 10 11  1  0
 11 12  1  0
 12 13  2  0
 13 14  1  0
 14 15  1  0
 14 16  2  0
 16 17  1  0
 17 18  1  0
 17 19  2  0
 19 20  1  0
 20 21  3  0
  6 22  1  0
 22 23  2  0
 23  3  1  0
 19 12  1  0
M  END
>  <Binding energies>  (4) 
[-6.8]

>  <Ligand effiencies>  (4) 
[-0.2833333333333333]

>  <Interactions>  (4) 
["V-B:ASP:366:CG:8185, H-A:ALA:541:N:4889, V-A:TYR:539:CD2:4872, V-A:TYR:539:CE2:4874, V-A:TYR:539:CZ:4875, V-A:PRO:540:CA:4881, V-A:TYR:539:CD1:4871, V-A:TYR:539:CE1:4873, V-A:TYR:539:C:4865, V-A:PRO:540:CB:4883, H-B:TYR:531:OH:9767, V-B:ASP:366:CB:8184, H-A:TYR:539:N:4868, V-B:ASP:366:CA:8182, H-A:TYR:531:OH:4793, V-A:ILE:538:CA:4858, H-A:TYR:539:OH:4876, V-A:PRO:540:C:4879, V-A:ASN:362:CB:3174"]

$$$$
1d_Grossjean_2025
     RDKit          3D

 21 22  0  0  0  0  0  0  0  0999 V2000
  129.6490  122.1010   73.6270 C   0  0  0  0  0  0  0  0  0  0  0  0
  130.6650  123.2120   73.8080 C   0  0  0  0  0  0  0  0  0  0  0  0
  131.8040  123.0400   74.5920 C   0  0  0  0  0  0  0  0  0  0  0  0
  132.7120  124.0970   74.7150 C   0  0  0  0  0  0  0  0  0  0  0  0
  133.9600  123.8790   75.5670 C   0  0  0  0  0  0  0  0  0  0  0  0
  132.4480  125.3160   74.0480 C   0  0  0  0  0  0  0  0  0  0  0  0
  133.4070  126.4200   74.1230 C   0  0  0  0  0  0  0  0  0  0  0  0
  134.1680  127.2900   74.1850 N   0  0  0  0  0  0  0  0  0  0  0  0
  131.2550  125.4100   73.2940 C   0  0  0  0  0  0  0  0  0  0  0  0
  130.7650  126.8640   72.3940 S   0  0  0  0  0  0  0  0  0  0  0  0
  128.9480  126.8750   72.3270 C   0  0  0  0  0  0  0  0  0  0  0  0
  128.3550  128.1280   72.9740 C   0  0  0  0  0  0  0  0  0  0  0  0
  128.9910  129.1820   72.9370 O   0  0  0  0  0  0  0  0  0  0  0  0
  127.1330  127.9690   73.5280 N   0  0  0  0  0  0  0  0  0  0  0  0
  126.3250  128.8980   74.2090 C   0  0  0  0  0  0  0  0  0  0  0  0
  125.0270  128.4700   74.5030 C   0  0  0  0  0  0  0  0  0  0  0  0
  124.1460  129.3090   75.1790 C   0  0  0  0  0  0  0  0  0  0  0  0
  124.5650  130.5780   75.5710 C   0  0  0  0  0  0  0  0  0  0  0  0
  125.8580  131.0140   75.2930 C   0  0  0  0  0  0  0  0  0  0  0  0
  126.7410  130.1770   74.6150 C   0  0  0  0  0  0  0  0  0  0  0  0
  130.3910  124.3710   73.1640 N   0  0  0  0  0  0  0  0  0  0  0  0
  1  2  1  0
  2  3  2  0
  3  4  1  0
  4  5  1  0
  4  6  2  0
  6  7  1  0
  7  8  3  0
  6  9  1  0
  9 10  1  0
 10 11  1  0
 11 12  1  0
 12 13  2  0
 12 14  1  0
 14 15  1  0
 15 16  2  0
 16 17  1  0
 17 18  2  0
 18 19  1  0
 19 20  2  0
  9 21  2  0
 21  2  1  0
 20 15  1  0
M  END
>  <Binding energies>  (5) 
[-8.39]

>  <Ligand effiencies>  (5) 
[-0.3813636363636364]

>  <Interactions>  (5) 
["V-A:HIS:456:CB:4063, V-B:HIS:456:CD2:9040, V-A:HIS:456:CG:4064, V-B:HIS:456:C:9033, V-A:LYS:547:CD:4947, H-A:LYS:547:NZ:4949, V-B:LYS:471:CE:9192, H-B:LYS:547:NZ:9923, V-B:HIS:456:CA:9035, V-A:VAL:458:CG2:4085, V-A:HIS:456:CD2:4066, V-A:LYS:471:CE:4218, V-B:VAL:457:CA:9047, V-B:HIS:456:CG:9038, V-B:VAL:457:C:9045, V-B:VAL:458:CG2:9059, V-B:LYS:547:CE:9922, V-A:HIS:456:C:4059, V-A:LYS:547:CE:4948, V-B:LYS:471:CG:9190, V-A:LYS:471:CD:4217, V-A:LYS:471:CG:4216, V-A:ASP:473:CG:4238, V-B:HIS:456:CB:9037, V-B:GLY:544:C:9884, H-B:GLY:544:O:9885"]

$$$$
1e_Grossjean_2025
     RDKit          3D

 22 23  0  0  0  0  0  0  0  0999 V2000
  128.2460  127.5630   72.8260 C   0  0  0  0  0  0  0  0  0  0  0  0
  127.4670  128.5960   73.6180 C   0  0  0  0  0  0  0  0  0  0  0  0
  126.4710  128.2240   74.5250 C   0  0  0  0  0  0  0  0  0  0  0  0
  125.7940  129.2290   75.2160 C   0  0  0  0  0  0  0  0  0  0  0  0
  126.1230  130.5670   74.9870 C   0  0  0  0  0  0  0  0  0  0  0  0
  127.1360  130.8700   74.0690 C   0  0  0  0  0  0  0  0  0  0  0  0
  127.4150  132.2340   73.8720 N   0  0  0  0  0  0  0  0  0  0  0  0
  128.5700  132.8070   73.4690 C   0  0  0  0  0  0  0  0  0  0  0  0
  129.6080  132.1960   73.2100 O   0  0  0  0  0  0  0  0  0  0  0  0
  128.5560  134.3330   73.3670 C   0  0  0  0  0  0  0  0  0  0  0  0
  129.6790  135.1060   74.5700 S   0  0  0  0  0  0  0  0  0  0  0  0
  131.3420  134.5650   74.2280 C   0  0  0  0  0  0  0  0  0  0  0  0
  132.0230  134.1800   75.3380 N   0  0  0  0  0  0  0  0  0  0  0  0
  133.3000  133.7500   75.2040 C   0  0  0  0  0  0  0  0  0  0  0  0
  133.9930  133.3300   76.4850 C   0  0  0  0  0  0  0  0  0  0  0  0
  133.9490  133.6990   73.9730 C   0  0  0  0  0  0  0  0  0  0  0  0
  133.2660  134.1160   72.8260 C   0  0  0  0  0  0  0  0  0  0  0  0
  134.0070  134.0670   71.4910 C   0  0  0  0  0  0  0  0  0  0  0  0
  131.9330  134.5720   72.9420 C   0  0  0  0  0  0  0  0  0  0  0  0
  131.2240  135.0670   71.7600 C   0  0  0  0  0  0  0  0  0  0  0  0
  130.6650  135.4580   70.8250 N   0  0  0  0  0  0  0  0  0  0  0  0
  127.7990  129.8910   73.3860 N   0  0  0  0  0  0  0  0  0  0  0  0
  1  2  1  0
  2  3  2  0
  3  4  1  0
  4  5  2  0
  5  6  1  0
  6  7  1  0
  7  8  1  0
  8  9  2  0
  8 10  1  0
 10 11  1  0
 11 12  1  0
 12 13  2  0
 13 14  1  0
 14 15  1  0
 14 16  2  0
 16 17  1  0
 17 18  1  0
 17 19  2  0
 19 20  1  0
 20 21  3  0
  6 22  2  0
 22  2  1  0
 19 12  1  0
M  END
>  <Binding energies>  (6) 
[-7.16]

>  <Ligand effiencies>  (6) 
[-0.31130434782608696]

>  <Interactions>  (6) 
["V-B:HIS:456:CD2:9040, V-A:LYS:547:CD:4947, H-A:LYS:547:NZ:4949, V-B:HIS:456:CG:9038, V-B:LYS:547:CD:9921, V-B:VAL:458:CG2:9059, V-B:ASP:473:CG:9212, V-B:LYS:547:CE:9922, V-B:HIS:456:CB:9037, V-B:GLY:544:C:9884, V-A:LYS:547:CG:4946, V-A:GLY:544:CA:4912, V-B:TYR:484:CB:9313, V-A:GLU:357:CD:3134, V-A:LYS:547:CB:4945, V-A:LYS:547:CA:4943, H-B:ASP:473:OD2:9214, H-B:TYR:484:N:9312, V-A:VAL:542:CG1:4897"]

$$$$
1f_Grossjean_2025
     RDKit          3D

 21 22  0  0  0  0  0  0  0  0999 V2000
  129.4760  122.1910   73.5120 C   0  0  0  0  0  0  0  0  0  0  0  0
  130.5360  123.2660   73.6710 C   0  0  0  0  0  0  0  0  0  0  0  0
  131.6890  123.0480   74.4210 C   0  0  0  0  0  0  0  0  0  0  0  0
  132.6250  124.0800   74.5430 C   0  0  0  0  0  0  0  0  0  0  0  0
  133.8730  123.8230   75.3850 C   0  0  0  0  0  0  0  0  0  0  0  0
  132.3820  125.3140   73.8960 C   0  0  0  0  0  0  0  0  0  0  0  0
  133.3240  126.4250   74.0580 C   0  0  0  0  0  0  0  0  0  0  0  0
  134.0680  127.3010   74.1870 N   0  0  0  0  0  0  0  0  0  0  0  0
  131.1980  125.4370   73.1320 C   0  0  0  0  0  0  0  0  0  0  0  0
  130.7250  126.9110   72.2500 S   0  0  0  0  0  0  0  0  0  0  0  0
  128.9020  127.0030   72.2190 C   0  0  0  0  0  0  0  0  0  0  0  0
  128.3060  128.2410   72.9060 C   0  0  0  0  0  0  0  0  0  0  0  0
  128.9040  129.3170   72.8830 O   0  0  0  0  0  0  0  0  0  0  0  0
  127.1280  128.0240   73.5300 N   0  0  0  0  0  0  0  0  0  0  0  0
  126.3100  128.9210   74.2430 C   0  0  0  0  0  0  0  0  0  0  0  0
  126.6990  130.1900   74.7100 C   0  0  0  0  0  0  0  0  0  0  0  0
  125.7790  130.9820   75.4040 C   0  0  0  0  0  0  0  0  0  0  0  0
  124.4920  130.4870   75.6110 C   0  0  0  0  0  0  0  0  0  0  0  0
  124.0910  129.2690   75.1670 N   0  0  0  0  0  0  0  0  0  0  0  0
  124.9960  128.5110   74.4940 C   0  0  0  0  0  0  0  0  0  0  0  0
  130.2850  124.4370   73.0410 N   0  0  0  0  0  0  0  0  0  0  0  0
  1  2  1  0
  2  3  2  0
  3  4  1  0
  4  5  1  0
  4  6  2  0
  6  7  1  0
  7  8  3  0
  6  9  1  0
  9 10  1  0
 10 11  1  0
 11 12  1  0
 12 13  2  0
 12 14  1  0
 14 15  1  0
 15 16  2  0
 16 17  1  0
 17 18  2  0
 18 19  1  0
 19 20  2  0
  9 21  2  0
 21  2  1  0
 20 15  1  0
M  END
>  <Binding energies>  (7) 
[-8.01]

>  <Ligand effiencies>  (7) 
[-0.3640909090909091]

>  <Interactions>  (7) 
["V-A:HIS:456:CB:4063, V-B:HIS:456:CD2:9040, V-A:HIS:456:CG:4064, V-B:HIS:456:C:9033, V-A:LYS:547:CD:4947, H-A:LYS:547:NZ:4949, V-B:LYS:471:CE:9192, H-B:LYS:547:NZ:9923, V-B:HIS:456:CA:9035, V-A:VAL:458:CG2:4085, V-A:HIS:456:CD2:4066, V-A:LYS:471:CE:4218, V-B:HIS:456:CG:9038, V-B:VAL:457:C:9045, V-B:VAL:458:CG2:9059, V-B:LYS:547:CE:9922, V-A:HIS:456:C:4059, V-A:LYS:547:CE:4948, V-B:LYS:471:CG:9190, V-A:LYS:471:CD:4217, V-A:LYS:471:CG:4216, V-A:ASP:473:CG:4238, V-B:HIS:456:CB:9037, V-B:LYS:471:CD:9191, V-B:GLY:544:C:9884, H-B:GLY:544:O:9885, H-B:VAL:457:N:9048"]

$$$$
1g_Grossjean_2025
     RDKit          3D

 22 23  0  0  0  0  0  0  0  0999 V2000
  128.8510  132.6480   59.9580 C   0  0  0  0  0  0  0  0  0  0  0  0
  128.1980  131.8810   58.8240 C   0  0  0  0  0  0  0  0  0  0  0  0
  127.1530  130.9880   59.0530 C   0  0  0  0  0  0  0  0  0  0  0  0
  126.6000  130.2970   57.9700 C   0  0  0  0  0  0  0  0  0  0  0  0
  125.4650  129.3120   58.2470 C   0  0  0  0  0  0  0  0  0  0  0  0
  127.1080  130.5250   56.6710 C   0  0  0  0  0  0  0  0  0  0  0  0
  126.5810  129.7740   55.5290 C   0  0  0  0  0  0  0  0  0  0  0  0
  126.1630  129.1780   54.6290 N   0  0  0  0  0  0  0  0  0  0  0  0
  128.1540  131.4680   56.5290 C   0  0  0  0  0  0  0  0  0  0  0  0
  128.9030  131.8840   54.9700 S   0  0  0  0  0  0  0  0  0  0  0  0
  130.5740  131.1690   54.9660 C   0  0  0  0  0  0  0  0  0  0  0  0
  131.4470  131.7470   56.0810 C   0  0  0  0  0  0  0  0  0  0  0  0
  131.2500  132.8930   56.4870 O   0  0  0  0  0  0  0  0  0  0  0  0
  132.4110  130.9420   56.5600 N   0  0  0  0  0  0  0  0  0  0  0  0
  133.3190  131.2670   57.6600 C   0  0  0  0  0  0  0  0  0  0  0  0
  132.7200  131.0640   59.0490 C   0  0  0  0  0  0  0  0  0  0  0  0
  131.4390  130.5190   59.1840 C   0  0  0  0  0  0  0  0  0  0  0  0
  130.8930  130.3330   60.4510 C   0  0  0  0  0  0  0  0  0  0  0  0
  131.6310  130.6880   61.5790 C   0  0  0  0  0  0  0  0  0  0  0  0
  132.9080  131.2270   61.4510 C   0  0  0  0  0  0  0  0  0  0  0  0
  133.4550  131.4150   60.1840 C   0  0  0  0  0  0  0  0  0  0  0  0
  128.6990  132.1170   57.5890 N   0  0  0  0  0  0  0  0  0  0  0  0
  1  2  1  0
  2  3  2  0
  3  4  1  0
  4  5  1  0
  4  6  2  0
  6  7  1  0
  7  8  3  0
  6  9  1  0
  9 10  1  0
 10 11  1  0
 11 12  1  0
 12 13  2  0
 12 14  1  0
 14 15  1  0
 15 16  1  0
 16 17  2  0
 17 18  1  0
 18 19  2  0
 19 20  1  0
 20 21  2  0
  9 22  2  0
 22  2  1  0
 21 16  1  0
M  END
>  <Binding energies>  (8) 
[-7.99]

>  <Ligand effiencies>  (8) 
[-0.3473913043478261]

>  <Interactions>  (8) 
["V-B:ASP:366:CG:8185, V-A:ARG:545:CZ:4924, V-A:TYR:539:CD2:4872, V-A:TYR:539:CE2:4874, V-A:ASP:366:CG:3211, V-A:GLU:543:CD:4906, V-A:TYR:539:CZ:4875, V-A:PRO:540:CA:4881, V-A:TYR:539:CD1:4871, V-A:TYR:539:CE1:4873, V-A:TYR:539:C:4865, V-A:PRO:540:CB:4883, H-B:TYR:531:OH:9767, V-A:LEU:363:CA:3183, V-A:ILE:538:CB:4860, V-A:ILE:538:CG2:4861, V-A:TYR:531:CE2:4791, V-B:ASP:366:CB:8184, H-A:TYR:539:N:4868, H-A:TYR:531:OH:4793, V-A:TYR:531:CZ:4792, V-A:ASN:362:CB:3174, V-A:ASN:362:C:3170"]

$$$$
1h_Grossjean_2025
     RDKit          3D

 28 29  0  0  0  0  0  0  0  0999 V2000
  129.0590  131.2720   54.0120 C   0  0  0  0  0  0  0  0  0  0  0  0
  128.6440  132.1680   55.0370 O   0  0  0  0  0  0  0  0  0  0  0  0
  128.4920  131.6980   56.3290 C   0  0  0  0  0  0  0  0  0  0  0  0
  127.3930  130.9400   56.7630 C   0  0  0  0  0  0  0  0  0  0  0  0
  127.2990  130.5100   58.0870 C   0  0  0  0  0  0  0  0  0  0  0  0
  126.1100  129.6680   58.5400 C   0  0  0  0  0  0  0  0  0  0  0  0
  125.1270  130.4050   59.3330 N   0  0  0  0  0  0  0  0  0  0  0  0
  124.0350  131.0180   58.8420 C   0  0  0  0  0  0  0  0  0  0  0  0
  123.7220  131.0060   57.6520 O   0  0  0  0  0  0  0  0  0  0  0  0
  123.1630  131.7680   59.8500 C   0  0  0  0  0  0  0  0  0  0  0  0
  123.3960  131.1490   61.5440 S   0  0  0  0  0  0  0  0  0  0  0  0
  125.0050  131.6780   62.1100 C   0  0  0  0  0  0  0  0  0  0  0  0
  125.7250  132.4210   61.2300 N   0  0  0  0  0  0  0  0  0  0  0  0
  126.9520  132.8590   61.5970 C   0  0  0  0  0  0  0  0  0  0  0  0
  127.6920  133.6860   60.5620 C   0  0  0  0  0  0  0  0  0  0  0  0
  127.5100  132.5770   62.8420 C   0  0  0  0  0  0  0  0  0  0  0  0
  126.7790  131.8110   63.7560 C   0  0  0  0  0  0  0  0  0  0  0  0
  127.4090  131.5150   65.1160 C   0  0  0  0  0  0  0  0  0  0  0  0
  125.4950  131.3430   63.3940 C   0  0  0  0  0  0  0  0  0  0  0  0
  124.7080  130.5370   64.3300 C   0  0  0  0  0  0  0  0  0  0  0  0
  124.0870  129.8990   65.0700 N   0  0  0  0  0  0  0  0  0  0  0  0
  128.3280  130.8070   58.9820 C   0  0  0  0  0  0  0  0  0  0  0  0
  129.4410  131.5590   58.5740 C   0  0  0  0  0  0  0  0  0  0  0  0
  130.4950  131.8910   59.4050 O   0  0  0  0  0  0  0  0  0  0  0  0
  130.6700  131.1850   60.6290 C   0  0  0  0  0  0  0  0  0  0  0  0
  129.5060  132.0070   57.2470 C   0  0  0  0  0  0  0  0  0  0  0  0
  130.5920  132.7390   56.8320 O   0  0  0  0  0  0  0  0  0  0  0  0
  131.7080  131.9480   56.4450 C   0  0  0  0  0  0  0  0  0  0  0  0
  1  2  1  0
  2  3  1  0
  3  4  2  0
  4  5  1  0
  5  6  1  0
  6  7  1  0
  7  8  1  0
  8  9  2  0
  8 10  1  0
 10 11  1  0
 11 12  1  0
 12 13  2  0
 13 14  1  0
 14 15  1  0
 14 16  2  0
 16 17  1  0
 17 18  1  0
 17 19  2  0
 19 20  1  0
 20 21  3  0
  5 22  2  0
 22 23  1  0
 23 24  1  0
 24 25  1  0
 23 26  2  0
 26 27  1  0
 27 28  1  0
 26  3  1  0
 19 12  1  0
M  END
>  <Binding energies>  (9) 
[-6.86]

>  <Ligand effiencies>  (9) 
[-0.23655172413793105]

>  <Interactions>  (9) 
["V-B:ASP:366:CG:8185, V-B:ARG:545:CZ:9898, H-A:ALA:541:N:4889, V-A:TYR:539:CD2:4872, V-A:TYR:539:CE2:4874, V-A:GLU:543:CD:4906, V-A:TYR:539:CZ:4875, V-A:PRO:540:CA:4881, V-A:ALA:541:CB:4890, V-A:TYR:539:CD1:4871, V-A:PRO:540:N:4882, V-A:TYR:539:CG:4870, V-A:TYR:539:CE1:4873, V-B:ILE:369:CG2:8209, V-A:TYR:539:C:4865, H-B:TYR:484:OH:9320, V-A:GLU:543:CB:4904, V-B:TYR:484:CZ:9319, V-B:TYR:484:CE1:9317, V-A:PRO:540:CD:4885, V-B:ASP:366:CB:8184, H-A:TYR:539:N:4868, H-B:ARG:545:NE:9896, V-A:GLU:543:CG:4905, V-B:ASP:366:CA:8182, V-B:ILE:369:CD1:8211, V-B:ILE:369:CB:8208, H-B:GLY:454:N:9022, H-B:ASP:366:OD1:8186, V-A:MET:535:CG:4831, H-A:TYR:539:OH:4876, V-B:GLY:454:CA:9021, V-B:ILE:369:CG1:8210"]

$$$$
1i_Grossjean_2025
     RDKit          3D

 20 21  0  0  0  0  0  0  0  0999 V2000
  128.7640  132.1550   56.3640 C   0  0  0  0  0  0  0  0  0  0  0  0
  129.7560  131.8780   57.4780 C   0  0  0  0  0  0  0  0  0  0  0  0
  131.1010  131.6330   57.2130 C   0  0  0  0  0  0  0  0  0  0  0  0
  131.9720  131.3940   58.2810 C   0  0  0  0  0  0  0  0  0  0  0  0
  133.4460  131.1450   57.9660 C   0  0  0  0  0  0  0  0  0  0  0  0
  131.4650  131.3990   59.6010 C   0  0  0  0  0  0  0  0  0  0  0  0
  132.3690  131.2010   60.7370 C   0  0  0  0  0  0  0  0  0  0  0  0
  133.0850  131.0450   61.6340 N   0  0  0  0  0  0  0  0  0  0  0  0
  130.0810  131.6320   59.7750 C   0  0  0  0  0  0  0  0  0  0  0  0
  129.2760  131.6730   61.3610 S   0  0  0  0  0  0  0  0  0  0  0  0
  127.8810  132.8340   61.2410 C   0  0  0  0  0  0  0  0  0  0  0  0
  126.6840  132.3830   62.0800 C   0  0  0  0  0  0  0  0  0  0  0  0
  125.5910  132.9280   61.9140 O   0  0  0  0  0  0  0  0  0  0  0  0
  126.9310  131.3900   62.9620 N   0  0  0  0  0  0  0  0  0  0  0  0
  126.0320  130.8030   63.8410 C   0  0  0  0  0  0  0  0  0  0  0  0
  126.4150  129.8960   64.8270 C   0  0  0  0  0  0  0  0  0  0  0  0
  125.2490  129.5550   65.4720 C   0  0  0  0  0  0  0  0  0  0  0  0
  124.2160  130.2200   64.9020 O   0  0  0  0  0  0  0  0  0  0  0  0
  124.7250  131.0070   63.8670 N   0  0  0  0  0  0  0  0  0  0  0  0
  129.2480  131.8840   58.7330 N   0  0  0  0  0  0  0  0  0  0  0  0
  1  2  1  0
  2  3  2  0
  3  4  1  0
  4  5  1  0
  4  6  2  0
  6  7  1  0
  7  8  3  0
  6  9  1  0
  9 10  1  0
 10 11  1  0
 11 12  1  0
 12 13  2  0
 12 14  1  0
 14 15  1  0
 15 16  1  0
 16 17  2  0
 17 18  1  0
 18 19  1  0
  9 20  2  0
 20  2  1  0
 19 15  2  0
M  END
>  <Binding energies>  (10) 
[-7.47]

>  <Ligand effiencies>  (10) 
[-0.3557142857142857]

>  <Interactions>  (10) 
["H-A:ARG:545:NH2:4926, H-A:GLU:543:OE1:4907, V-B:ARG:545:CZ:9898, H-A:ALA:541:N:4889, V-A:TYR:539:CD2:4872, V-A:TYR:539:CE2:4874, V-A:ASP:366:CG:3211, V-A:GLU:543:CD:4906, V-A:TYR:539:CZ:4875, V-A:PRO:540:CA:4881, V-A:ALA:541:CB:4890, V-A:TYR:539:CD1:4871, V-A:PRO:540:N:4882, V-A:TYR:539:CG:4870, V-A:TYR:539:CE1:4873, V-A:TYR:539:C:4865, V-A:PRO:540:CB:4883, H-B:TYR:484:OH:9320, V-B:HIS:456:CE1:9042, V-A:LEU:363:CA:3183, V-B:ARG:545:CG:9894, H-B:ARG:545:NE:9896, V-B:ARG:545:CD:9895, H-B:GLY:454:N:9022"]

$$$$
1k_Grossjean_2025
     RDKit          3D

 25 25  0  0  0  0  0  0  0  0999 V2000
  124.7290  123.1910   56.1470 C   0  0  0  0  0  0  0  0  0  0  0  0
  125.9810  122.6200   55.8050 O   0  0  0  0  0  0  0  0  0  0  0  0
  127.0740  123.5150   55.9640 C   0  0  0  0  0  0  0  0  0  0  0  0
  127.8000  123.6800   54.6220 C   0  0  0  0  0  0  0  0  0  0  0  0
  129.1530  124.0480   54.8580 O   0  0  0  0  0  0  0  0  0  0  0  0
  129.7400  124.7830   53.7920 C   0  0  0  0  0  0  0  0  0  0  0  0
  131.0830  125.3620   54.2520 C   0  0  0  0  0  0  0  0  0  0  0  0
  130.8640  126.6000   54.9170 O   0  0  0  0  0  0  0  0  0  0  0  0
  130.2600  126.4620   56.1970 C   0  0  0  0  0  0  0  0  0  0  0  0
  129.0000  127.3430   56.2710 C   0  0  0  0  0  0  0  0  0  0  0  0
  128.9320  128.3750   55.2350 N   0  0  0  0  0  0  0  0  0  0  0  0
  127.8240  129.0490   54.8840 C   0  0  0  0  0  0  0  0  0  0  0  0
  126.7270  128.8650   55.4160 O   0  0  0  0  0  0  0  0  0  0  0  0
  128.0030  130.0780   53.7560 C   0  0  0  0  0  0  0  0  0  0  0  0
  128.3120  131.7960   54.2950 S   0  0  0  0  0  0  0  0  0  0  0  0
  129.5020  131.7870   55.6280 C   0  0  0  0  0  0  0  0  0  0  0  0
  130.7810  132.0880   55.2830 N   0  0  0  0  0  0  0  0  0  0  0  0
  131.7340  132.0900   56.2430 C   0  0  0  0  0  0  0  0  0  0  0  0
  133.1380  132.4260   55.7770 C   0  0  0  0  0  0  0  0  0  0  0  0
  131.4570  131.8040   57.5780 C   0  0  0  0  0  0  0  0  0  0  0  0
  130.1430  131.5000   57.9480 C   0  0  0  0  0  0  0  0  0  0  0  0
  129.8600  131.1890   59.4160 C   0  0  0  0  0  0  0  0  0  0  0  0
  129.1330  131.4880   56.9600 C   0  0  0  0  0  0  0  0  0  0  0  0
  127.7480  131.1700   57.3190 C   0  0  0  0  0  0  0  0  0  0  0  0
  126.6550  130.9180   57.6030 N   0  0  0  0  0  0  0  0  0  0  0  0
  1  2  1  0
  2  3  1  0
  3  4  1  0
  4  5  1  0
  5  6  1  0
  6  7  1  0
  7  8  1  0
  8  9  1  0
  9 10  1  0
 10 11  1  0
 11 12  1  0
 12 13  2  0
 12 14  1  0
 14 15  1  0
 15 16  1  0
 16 17  2  0
 17 18  1  0
 18 19  1  0
 18 20  2  0
 20 21  1  0
 21 22  1  0
 21 23  2  0
 23 24  1  0
 24 25  3  0
 23 16  1  0
M  END
>  <Binding energies>  (11) 
[-7.03]

>  <Ligand effiencies>  (11) 
[-0.2703846153846154]

>  <Interactions>  (11) 
["V-B:TYR:539:CZ:9849, V-A:TYR:539:CD2:4872, V-A:TYR:539:CE2:4874, V-A:TYR:539:CZ:4875, V-A:PRO:540:CA:4881, V-A:PRO:540:N:4882, V-A:TYR:539:C:4865, V-A:PRO:540:CB:4883, V-B:ILE:538:CA:9832, V-B:PRO:540:CB:9857, V-B:PRO:540:CD:9859, V-B:PRO:540:N:9856, V-B:ILE:538:CB:9834, V-B:TYR:539:CE1:9847, V-B:TYR:539:CD1:9845, H-B:TYR:531:OH:9767, V-B:ILE:538:CG2:9835, H-B:TYR:539:N:9842, V-A:PRO:540:CD:4885, V-A:ILE:538:CB:4860, V-A:PRO:540:CG:4884, V-A:ILE:538:CG2:4861, V-A:LEU:363:CD1:3187, V-A:TYR:531:CE2:4791, H-A:TYR:539:N:4868, H-A:TYR:531:OH:4793, V-B:TYR:531:CE2:9765, H-A:TYR:539:OH:4876, V-B:MET:535:CE:9807, H-B:TYR:539:OH:9850, H-A:MET:535:SD:4832, V-A:MET:535:CE:4833, V-A:TYR:531:CE1:4790"]

$$$$
1l_Grossjean_2025
     RDKit          3D

 17 17  0  0  0  0  0  0  0  0999 V2000
  133.8020  126.2980   74.1290 C   0  0  0  0  0  0  0  0  0  0  0  0
  132.5010  125.7690   73.9170 O   0  0  0  0  0  0  0  0  0  0  0  0
  131.6230  126.7940   73.5660 N   0  0  0  0  0  0  0  0  0  0  0  0
  130.4420  126.4780   73.0010 C   0  0  0  0  0  0  0  0  0  0  0  0
  129.9810  125.3340   72.9760 O   0  0  0  0  0  0  0  0  0  0  0  0
  129.6770  127.6580   72.3870 C   0  0  0  0  0  0  0  0  0  0  0  0
  127.8790  127.6600   72.7030 S   0  0  0  0  0  0  0  0  0  0  0  0
  127.4530  129.2090   73.4820 C   0  0  0  0  0  0  0  0  0  0  0  0
  128.3000  130.2430   73.2390 N   0  0  0  0  0  0  0  0  0  0  0  0
  128.0370  131.4480   73.8000 C   0  0  0  0  0  0  0  0  0  0  0  0
  129.0270  132.5520   73.4830 C   0  0  0  0  0  0  0  0  0  0  0  0
  126.9310  131.6710   74.6160 C   0  0  0  0  0  0  0  0  0  0  0  0
  126.0510  130.6150   74.8720 C   0  0  0  0  0  0  0  0  0  0  0  0
  124.8440  130.8830   75.7700 C   0  0  0  0  0  0  0  0  0  0  0  0
  126.3070  129.3500   74.2980 C   0  0  0  0  0  0  0  0  0  0  0  0
  125.4010  128.2230   74.5490 C   0  0  0  0  0  0  0  0  0  0  0  0
  124.6860  127.3370   74.7480 N   0  0  0  0  0  0  0  0  0  0  0  0
  1  2  1  0
  2  3  1  0
  3  4  1  0
  4  5  2  0
  4  6  1  0
  6  7  1  0
  7  8  1  0
  8  9  2  0
  9 10  1  0
 10 11  1  0
 10 12  2  0
 12 13  1  0
 13 14  1  0
 13 15  2  0
 15 16  1  0
 16 17  3  0
 15  8  1  0
M  END
>  <Binding energies>  (12) 
[-6.81]

>  <Ligand effiencies>  (12) 
[-0.3783333333333333]

>  <Interactions>  (12) 
["V-A:HIS:456:CB:4063, V-B:HIS:456:CD2:9040, V-A:GLY:544:C:4910, V-B:HIS:456:C:9033, V-A:LYS:547:CD:4947, H-A:LYS:547:NZ:4949, V-B:LYS:471:CE:9192, H-B:LYS:547:NZ:9923, V-A:VAL:458:CG2:4085, V-A:HIS:456:CD2:4066, V-A:VAL:457:C:4071, V-B:HIS:456:CG:9038, V-B:LYS:547:CD:9921, V-B:VAL:458:CG2:9059, V-B:ASP:473:CG:9212, V-B:LYS:547:CE:9922, V-A:HIS:456:C:4059, V-A:LYS:547:CE:4948, V-B:LYS:471:CG:9190, V-B:HIS:456:CB:9037, V-B:LYS:471:CD:9191, H-A:GLY:544:O:4911"]

$$$$
1m_Grossjean_2025
     RDKit          3D

 20 20  0  0  0  0  0  0  0  0999 V2000
  124.7630  130.7210   75.6310 C   0  0  0  0  0  0  0  0  0  0  0  0
  124.1260  129.5250   75.2030 O   0  0  0  0  0  0  0  0  0  0  0  0
  124.8380  128.5380   74.6220 C   0  0  0  0  0  0  0  0  0  0  0  0
  124.4770  127.3630   74.5100 O   0  0  0  0  0  0  0  0  0  0  0  0
  126.1910  129.0550   74.0890 C   0  0  0  0  0  0  0  0  0  0  0  0
  127.0470  127.9790   73.5680 N   0  0  0  0  0  0  0  0  0  0  0  0
  128.2680  128.1400   73.0250 C   0  0  0  0  0  0  0  0  0  0  0  0
  128.8030  129.2420   72.8900 O   0  0  0  0  0  0  0  0  0  0  0  0
  128.9640  126.8510   72.5680 C   0  0  0  0  0  0  0  0  0  0  0  0
  130.7870  126.8970   72.6550 S   0  0  0  0  0  0  0  0  0  0  0  0
  131.3400  125.3950   73.4340 C   0  0  0  0  0  0  0  0  0  0  0  0
  130.4540  124.3710   73.3280 N   0  0  0  0  0  0  0  0  0  0  0  0
  130.7710  123.1770   73.8780 C   0  0  0  0  0  0  0  0  0  0  0  0
  129.7410  122.0760   73.7030 C   0  0  0  0  0  0  0  0  0  0  0  0
  131.9650  122.9560   74.5610 C   0  0  0  0  0  0  0  0  0  0  0  0
  132.8740  124.0110   74.6990 C   0  0  0  0  0  0  0  0  0  0  0  0
  134.1690  123.7500   75.4640 C   0  0  0  0  0  0  0  0  0  0  0  0
  132.5640  125.2690   74.1330 C   0  0  0  0  0  0  0  0  0  0  0  0
  133.4780  126.4000   74.3080 C   0  0  0  0  0  0  0  0  0  0  0  0
  134.2010  127.2920   74.4470 N   0  0  0  0  0  0  0  0  0  0  0  0
  1  2  1  0
  2  3  1  0
  3  4  2  0
  3  5  1  0
  5  6  1  0
  6  7  1  0
  7  8  2  0
  7  9  1  0
  9 10  1  0
 10 11  1  0
 11 12  2  0
 12 13  1  0
 13 14  1  0
 13 15  2  0
 15 16  1  0
 16 17  1  0
 16 18  2  0
 18 19  1  0
 19 20  3  0
 18 11  1  0
M  END
>  <Binding energies>  (13) 
[-6.94]

>  <Ligand effiencies>  (13) 
[-0.3304761904761905]

>  <Interactions>  (13) 
["V-A:HIS:456:CB:4063, V-B:HIS:456:CD2:9040, V-A:HIS:456:CG:4064, V-B:HIS:456:C:9033, V-A:LYS:547:CD:4947, H-A:LYS:547:NZ:4949, V-B:LYS:471:CE:9192, H-B:LYS:547:NZ:9923, V-A:VAL:458:CG2:4085, V-A:HIS:456:CD2:4066, V-A:LYS:471:CE:4218, V-B:HIS:456:CG:9038, V-B:VAL:458:CG2:9059, V-B:LYS:547:CE:9922, V-A:HIS:456:C:4059, V-A:LYS:547:CE:4948, V-B:LYS:471:CG:9190, V-A:LYS:471:CD:4217, V-A:LYS:471:CG:4216, V-A:ASP:473:CG:4238, V-B:HIS:456:CB:9037, V-B:LYS:471:CD:9191, V-B:GLY:544:C:9884, V-A:LYS:547:CG:4946, H-B:GLY:544:O:9885, H-B:VAL:457:N:9048"]

$$$$
1n_Grossjean_2025
     RDKit          3D

 27 28  0  0  0  0  0  0  0  0999 V2000
  124.0240  123.6310   57.0020 C   0  0  0  0  0  0  0  0  0  0  0  0
  124.8400  123.5220   55.7100 C   0  0  0  0  0  0  0  0  0  0  0  0
  125.9590  122.6710   55.9290 O   0  0  0  0  0  0  0  0  0  0  0  0
  127.1080  123.1510   56.4710 C   0  0  0  0  0  0  0  0  0  0  0  0
  127.8690  122.4690   57.1640 O   0  0  0  0  0  0  0  0  0  0  0  0
  127.3680  124.5910   56.1330 C   0  0  0  0  0  0  0  0  0  0  0  0
  126.9670  125.6360   56.9780 C   0  0  0  0  0  0  0  0  0  0  0  0
  127.2200  126.9600   56.6330 C   0  0  0  0  0  0  0  0  0  0  0  0
  127.8710  127.2680   55.4380 C   0  0  0  0  0  0  0  0  0  0  0  0
  128.0710  128.6400   55.1860 N   0  0  0  0  0  0  0  0  0  0  0  0
  127.1670  129.6250   54.9970 C   0  0  0  0  0  0  0  0  0  0  0  0
  125.9440  129.4850   55.0230 O   0  0  0  0  0  0  0  0  0  0  0  0
  127.7500  131.0200   54.7370 C   0  0  0  0  0  0  0  0  0  0  0  0
  129.2080  130.9810   54.2320 C   0  0  0  0  0  0  0  0  0  0  0  0
  130.3150  132.1820   55.0310 S   0  0  0  0  0  0  0  0  0  0  0  0
  130.2320  131.9050   56.7880 C   0  0  0  0  0  0  0  0  0  0  0  0
  128.9780  132.0090   57.2950 N   0  0  0  0  0  0  0  0  0  0  0  0
  128.7920  131.8020   58.6200 C   0  0  0  0  0  0  0  0  0  0  0  0
  127.3630  131.9250   59.1130 C   0  0  0  0  0  0  0  0  0  0  0  0
  129.8380  131.4920   59.4860 C   0  0  0  0  0  0  0  0  0  0  0  0
  131.1380  131.4030   58.9760 C   0  0  0  0  0  0  0  0  0  0  0  0
  132.2710  131.0750   59.9470 C   0  0  0  0  0  0  0  0  0  0  0  0
  131.3570  131.6200   57.5970 C   0  0  0  0  0  0  0  0  0  0  0  0
  132.7150  131.5820   57.0510 C   0  0  0  0  0  0  0  0  0  0  0  0
  133.7890  131.5530   56.6230 N   0  0  0  0  0  0  0  0  0  0  0  0
  128.2840  126.2280   54.5920 C   0  0  0  0  0  0  0  0  0  0  0  0
  128.0320  124.9040   54.9400 C   0  0  0  0  0  0  0  0  0  0  0  0
  1  2  1  0
  2  3  1  0
  3  4  1  0
  4  5  2  0
  4  6  1  0
  6  7  2  0
  7  8  1  0
  8  9  2  0
  9 10  1  0
 10 11  1  0
 11 12  2  0
 11 13  1  0
 13 14  1  0
 14 15  1  0
 15 16  1  0
 16 17  2  0
 17 18  1  0
 18 19  1  0
 18 20  2  0
 20 21  1  0
 21 22  1  0
 21 23  2  0
 23 24  1  0
 24 25  3  0
  9 26  1  0
 26 27  2  0
 27  6  1  0
 23 16  1  0
M  END
>  <Binding energies>  (14) 
[-8.9]

>  <Ligand effiencies>  (14) 
[-0.3178571428571429]

>  <Interactions>  (14) 
["V-B:PRO:540:CA:9855, V-A:TYR:539:CD2:4872, V-A:TYR:539:CE2:4874, V-A:TYR:539:CZ:4875, V-A:PRO:540:CA:4881, V-A:PRO:540:N:4882, V-A:TYR:539:CE1:4873, V-A:TYR:539:C:4865, V-A:PRO:540:CB:4883, V-B:PRO:540:CB:9857, V-B:PRO:540:CD:9859, V-B:PRO:540:N:9856, V-B:TYR:539:C:9839, V-B:ILE:538:CB:9834, H-B:TYR:531:OH:9767, V-B:ILE:538:CG2:9835, H-B:TYR:539:N:9842, V-A:PRO:540:CD:4885, H-A:TYR:539:N:4868, H-A:TYR:531:OH:4793, V-B:LEU:363:CD1:8161, V-B:TYR:531:CE2:9765, V-A:MET:535:CG:4831, H-A:TYR:539:OH:4876, V-B:TYR:531:CZ:9766, H-A:MET:535:SD:4832"]

$$$$
1q_Grossjean_2025
     RDKit          3D

 21 21  0  0  0  0  0  0  0  0999 V2000
  124.7620  131.2300   75.6670 C   0  0  0  0  0  0  0  0  0  0  0  0
  124.2570  129.9040   75.6060 O   0  0  0  0  0  0  0  0  0  0  0  0
  124.8010  128.9990   74.7570 C   0  0  0  0  0  0  0  0  0  0  0  0
  124.2030  128.0560   74.2360 O   0  0  0  0  0  0  0  0  0  0  0  0
  126.3060  129.2140   74.4890 C   0  0  0  0  0  0  0  0  0  0  0  0
  126.8050  128.4280   73.3500 N   0  0  0  0  0  0  0  0  0  0  0  0
  127.9500  128.6530   72.6770 C   0  0  0  0  0  0  0  0  0  0  0  0
  128.7260  129.5690   72.9550 O   0  0  0  0  0  0  0  0  0  0  0  0
  128.2570  127.6800   71.5300 C   0  0  0  0  0  0  0  0  0  0  0  0
  129.0600  126.4340   71.9530 C   0  0  0  0  0  0  0  0  0  0  0  0
  130.6970  126.8220   72.6410 S   0  0  0  0  0  0  0  0  0  0  0  0
  131.3270  125.3720   73.4610 C   0  0  0  0  0  0  0  0  0  0  0  0
  130.4990  124.3000   73.3710 N   0  0  0  0  0  0  0  0  0  0  0  0
  130.8690  123.1380   73.9590 C   0  0  0  0  0  0  0  0  0  0  0  0
  129.8850  121.9910   73.8300 C   0  0  0  0  0  0  0  0  0  0  0  0
  132.0740  122.9930   74.6440 C   0  0  0  0  0  0  0  0  0  0  0  0
  132.9460  124.0830   74.7210 C   0  0  0  0  0  0  0  0  0  0  0  0
  134.2690  123.8930   75.4630 C   0  0  0  0  0  0  0  0  0  0  0  0
  132.5830  125.3060   74.1130 C   0  0  0  0  0  0  0  0  0  0  0  0
  133.5090  126.4390   74.1350 C   0  0  0  0  0  0  0  0  0  0  0  0
  134.2440  127.3330   74.1540 N   0  0  0  0  0  0  0  0  0  0  0  0
  1  2  1  0
  2  3  1  0
  3  4  2  0
  3  5  1  0
  5  6  1  0
  6  7  1  0
  7  8  2  0
  7  9  1  0
  9 10  1  0
 10 11  1  0
 11 12  1  0
 12 13  2  0
 13 14  1  0
 14 15  1  0
 14 16  2  0
 16 17  1  0
 17 18  1  0
 17 19  2  0
 19 20  1  0
 20 21  3  0
 19 12  1  0
M  END
>  <Binding energies>  (15) 
[-7.53]

>  <Ligand effiencies>  (15) 
[-0.3422727272727273]

>  <Interactions>  (15) 
["V-A:HIS:456:CB:4063, V-B:HIS:456:CD2:9040, V-A:HIS:456:CG:4064, V-B:HIS:456:C:9033, V-A:LYS:547:CD:4947, H-A:LYS:547:NZ:4949, V-B:LYS:471:CE:9192, H-B:LYS:547:NZ:9923, V-B:HIS:456:CA:9035, V-A:VAL:458:CG2:4085, V-A:HIS:456:CD2:4066, V-A:LYS:471:CE:4218, V-B:HIS:456:CG:9038, V-B:VAL:457:C:9045, V-B:VAL:458:CG2:9059, V-B:ASP:473:CG:9212, V-B:LYS:547:CE:9922, V-A:HIS:456:C:4059, V-B:LYS:471:CG:9190, V-A:LYS:471:CD:4217, V-A:LYS:471:CG:4216, V-A:ASP:473:CG:4238, V-B:HIS:456:CB:9037, V-B:LYS:471:CD:9191, V-B:GLY:544:C:9884, V-B:GLY:544:CA:9886, V-A:LYS:547:CG:4946, H-B:GLY:544:O:9885, H-B:VAL:457:N:9048"]

$$$$
2a_Grossjean_2025
     RDKit          3D

 29 30  0  0  0  0  0  0  0  0999 V2000
  132.9660  132.1580   56.4320 C   0  0  0  0  0  0  0  0  0  0  0  0
  131.9750  131.6770   55.3670 C   0  0  0  0  0  0  0  0  0  0  0  0
  130.8200  132.5080   55.3900 O   0  0  0  0  0  0  0  0  0  0  0  0
  129.7200  132.1580   56.1050 C   0  0  0  0  0  0  0  0  0  0  0  0
  129.1710  132.9060   56.9190 O   0  0  0  0  0  0  0  0  0  0  0  0
  129.2250  130.7750   55.7890 C   0  0  0  0  0  0  0  0  0  0  0  0
  128.3360  130.5290   54.7330 C   0  0  0  0  0  0  0  0  0  0  0  0
  127.8950  129.2360   54.4680 C   0  0  0  0  0  0  0  0  0  0  0  0
  128.3250  128.1660   55.2540 C   0  0  0  0  0  0  0  0  0  0  0  0
  127.8040  126.9070   54.9040 N   0  0  0  0  0  0  0  0  0  0  0  0
  128.4440  125.7560   54.6030 C   0  0  0  0  0  0  0  0  0  0  0  0
  129.6650  125.6090   54.5540 O   0  0  0  0  0  0  0  0  0  0  0  0
  127.5390  124.5570   54.2980 C   0  0  0  0  0  0  0  0  0  0  0  0
  127.6820  123.2150   55.5240 S   0  0  0  0  0  0  0  0  0  0  0  0
  126.6280  123.5640   56.9270 C   0  0  0  0  0  0  0  0  0  0  0  0
  125.3160  123.7660   56.6420 N   0  0  0  0  0  0  0  0  0  0  0  0
  124.4630  124.0480   57.6530 C   0  0  0  0  0  0  0  0  0  0  0  0
  123.0200  124.2880   57.2520 C   0  0  0  0  0  0  0  0  0  0  0  0
  124.8740  124.1300   58.9800 C   0  0  0  0  0  0  0  0  0  0  0  0
  126.2230  123.9150   59.3000 C   0  0  0  0  0  0  0  0  0  0  0  0
  126.6610  124.0090   60.7730 C   0  0  0  0  0  0  0  0  0  0  0  0
  127.2580  125.1790   61.0000 F   0  0  0  0  0  0  0  0  0  0  0  0
  125.5980  123.9020   61.5720 F   0  0  0  0  0  0  0  0  0  0  0  0
  127.5200  123.0460   61.1180 F   0  0  0  0  0  0  0  0  0  0  0  0
  127.1290  123.6230   58.2480 C   0  0  0  0  0  0  0  0  0  0  0  0
  128.5510  123.3940   58.5240 C   0  0  0  0  0  0  0  0  0  0  0  0
  129.6730  123.2120   58.7420 N   0  0  0  0  0  0  0  0  0  0  0  0
  129.2200  128.4030   56.3070 C   0  0  0  0  0  0  0  0  0  0  0  0
  129.6630  129.6970   56.5680 C   0  0  0  0  0  0  0  0  0  0  0  0
  1  2  1  0
  2  3  1  0
  3  4  1  0
  4  5  2  0
  4  6  1  0
  6  7  2  0
  7  8  1  0
  8  9  2  0
  9 10  1  0
 10 11  1  0
 11 12  2  0
 11 13  1  0
 13 14  1  0
 14 15  1  0
 15 16  2  0
 16 17  1  0
 17 18  1  0
 17 19  2  0
 19 20  1  0
 20 21  1  0
 21 22  1  0
 21 23  1  0
 21 24  1  0
 20 25  2  0
 25 26  1  0
 26 27  3  0
  9 28  1  0
 28 29  2  0
 29  6  1  0
 25 15  1  0
M  END
>  <Binding energies>  (16) 
[-8.2]

>  <Ligand effiencies>  (16) 
[-0.2733333333333333]

>  <Interactions>  (16) 
["V-B:ALA:541:CB:9864, V-B:GLU:543:CD:9880, V-B:TYR:539:CD2:9846, V-B:PRO:540:CA:9855, V-A:PRO:540:CA:4881, V-A:TYR:539:CD1:4871, V-A:PRO:540:N:4882, V-A:TYR:539:C:4865, V-A:PRO:540:CB:4883, V-B:MET:535:CG:9805, V-B:PRO:540:CB:9857, V-B:PRO:540:N:9856, V-B:TYR:539:C:9839, H-B:TYR:531:OH:9767, H-B:TYR:539:N:9842, V-A:PRO:540:CD:4885, V-A:ILE:538:CB:4860, V-A:PRO:540:CG:4884, V-A:ILE:538:CG2:4861, V-A:LEU:363:CD1:3187, V-A:TYR:531:CE2:4791, V-B:ASP:366:CB:8184, H-A:TYR:539:N:4868, V-B:LEU:363:CA:8157, V-B:LEU:363:CD1:8161, V-B:LEU:363:CB:8159, V-B:TYR:531:CE2:9765, V-A:ILE:538:CA:4858, V-B:TYR:531:CZ:9766, V-A:TYR:531:CZ:4792, V-B:MET:535:CE:9807, V-B:PRO:540:C:9853, V-B:ALA:541:CA:9862, H-B:MET:535:SD:9806, V-B:LEU:363:C:8155"]

$$$$
2b_Grossjean_2025
     RDKit          3D

 28 29  0  0  0  0  0  0  0  0999 V2000
  132.2770  131.8440   55.6980 C   0  0  0  0  0  0  0  0  0  0  0  0
  131.2970  132.6130   56.3810 O   0  0  0  0  0  0  0  0  0  0  0  0
  130.0050  132.2000   56.4470 C   0  0  0  0  0  0  0  0  0  0  0  0
  129.0460  132.9750   56.5230 O   0  0  0  0  0  0  0  0  0  0  0  0
  129.8580  130.7060   56.4230 C   0  0  0  0  0  0  0  0  0  0  0  0
  129.2960  130.0330   55.3290 C   0  0  0  0  0  0  0  0  0  0  0  0
  129.1730  128.6460   55.3390 C   0  0  0  0  0  0  0  0  0  0  0  0
  129.6120  127.9050   56.4360 C   0  0  0  0  0  0  0  0  0  0  0  0
  129.4340  126.5120   56.3440 N   0  0  0  0  0  0  0  0  0  0  0  0
  130.2100  125.5810   55.7480 C   0  0  0  0  0  0  0  0  0  0  0  0
  131.2490  125.8100   55.1270 O   0  0  0  0  0  0  0  0  0  0  0  0
  129.7060  124.1390   55.8660 C   0  0  0  0  0  0  0  0  0  0  0  0
  129.3710  123.6340   57.5850 S   0  0  0  0  0  0  0  0  0  0  0  0
  127.6230  123.7730   57.9330 C   0  0  0  0  0  0  0  0  0  0  0  0
  127.3010  124.1220   59.2040 N   0  0  0  0  0  0  0  0  0  0  0  0
  125.9970  124.2400   59.5390 C   0  0  0  0  0  0  0  0  0  0  0  0
  125.7210  124.6210   60.9810 C   0  0  0  0  0  0  0  0  0  0  0  0
  124.9650  124.0270   58.6290 C   0  0  0  0  0  0  0  0  0  0  0  0
  125.2750  123.6730   57.3070 C   0  0  0  0  0  0  0  0  0  0  0  0
  124.1220  123.4450   56.3110 C   0  0  0  0  0  0  0  0  0  0  0  0
  123.0240  124.0760   56.7320 F   0  0  0  0  0  0  0  0  0  0  0  0
  124.4550  123.9160   55.1080 F   0  0  0  0  0  0  0  0  0  0  0  0
  123.8130  122.1550   56.1650 F   0  0  0  0  0  0  0  0  0  0  0  0
  126.6390  123.5390   56.9430 C   0  0  0  0  0  0  0  0  0  0  0  0
  127.0200  123.1650   55.5780 C   0  0  0  0  0  0  0  0  0  0  0  0
  127.3210  122.8700   54.5000 N   0  0  0  0  0  0  0  0  0  0  0  0
  130.1680  128.5710   57.5380 C   0  0  0  0  0  0  0  0  0  0  0  0
  130.2900  129.9570   57.5270 C   0  0  0  0  0  0  0  0  0  0  0  0
  1  2  1  0
  2  3  1  0
  3  4  2  0
  3  5  1  0
  5  6  2  0
  6  7  1  0
  7  8  2  0
  8  9  1  0
  9 10  1  0
 10 11  2  0
 10 12  1  0
 12 13  1  0
 13 14  1  0
 14 15  2  0
 15 16  1  0
 16 17  1  0
 16 18  2  0
 18 19  1  0
 19 20  1  0
 20 21  1  0
 20 22  1  0
 20 23  1  0
 19 24  2  0
 24 25  1  0
 25 26  3  0
  8 27  1  0
 27 28  2  0
 28  5  1  0
 24 14  1  0
M  END
>  <Binding energies>  (17) 
[-7.87]

>  <Ligand effiencies>  (17) 
[-0.2713793103448276]

>  <Interactions>  (17) 
["V-B:PRO:540:CA:9855, V-B:TYR:539:CZ:9849, V-B:TYR:539:CE2:9848, V-A:PRO:540:N:4882, V-A:TYR:539:C:4865, V-B:ILE:538:CA:9832, V-B:PRO:540:CB:9857, V-B:PRO:540:CD:9859, V-B:PRO:540:N:9856, V-B:TYR:539:C:9839, V-B:ILE:538:CB:9834, V-B:TYR:539:CE1:9847, V-B:TYR:539:CD1:9845, V-B:ILE:538:CG2:9835, H-B:TYR:539:N:9842, V-A:PRO:540:CD:4885, V-A:ILE:538:CB:4860, V-A:ILE:538:CG2:4861, V-A:TYR:531:CE2:4791, H-A:TYR:539:N:4868, H-A:TYR:531:OH:4793, V-B:LEU:363:CA:8157, V-B:LEU:363:CD1:8161, V-B:LEU:363:CB:8159, V-B:PRO:540:CG:9858, V-B:TYR:531:CE2:9765, V-B:TYR:531:CZ:9766, V-B:ILE:538:C:9830, V-A:TYR:531:CZ:4792, V-B:LEU:363:CG:8160, V-B:ILE:538:CD1:9837, H-B:TYR:539:OH:9850, V-A:TYR:539:CA:4867, V-B:ILE:538:CG1:9836, V-B:TYR:531:CD2:9763"]

$$$$
2c_Grossjean_2025
     RDKit          3D

 26 27  0  0  0  0  0  0  0  0999 V2000
  123.4140  129.9310   66.6700 C   0  0  0  0  0  0  0  0  0  0  0  0
  123.4370  129.6210   65.2800 O   0  0  0  0  0  0  0  0  0  0  0  0
  124.4840  130.0800   64.5050 C   0  0  0  0  0  0  0  0  0  0  0  0
  125.7550  130.0210   65.0770 C   0  0  0  0  0  0  0  0  0  0  0  0
  126.8730  130.4620   64.3730 C   0  0  0  0  0  0  0  0  0  0  0  0
  126.7250  130.9820   63.0790 C   0  0  0  0  0  0  0  0  0  0  0  0
  127.7950  131.4340   62.2860 N   0  0  0  0  0  0  0  0  0  0  0  0
  127.7740  132.3260   61.2710 C   0  0  0  0  0  0  0  0  0  0  0  0
  126.7560  132.8640   60.8320 O   0  0  0  0  0  0  0  0  0  0  0  0
  129.1430  132.6180   60.6380 C   0  0  0  0  0  0  0  0  0  0  0  0
  130.1470  131.1480   60.2260 S   0  0  0  0  0  0  0  0  0  0  0  0
  130.7900  131.3140   58.5660 C   0  0  0  0  0  0  0  0  0  0  0  0
  132.1440  131.3100   58.4560 N   0  0  0  0  0  0  0  0  0  0  0  0
  132.7010  131.4400   57.2330 C   0  0  0  0  0  0  0  0  0  0  0  0
  134.2170  131.4430   57.1970 C   0  0  0  0  0  0  0  0  0  0  0  0
  131.9420  131.5720   56.0720 C   0  0  0  0  0  0  0  0  0  0  0  0
  130.5430  131.5720   56.1600 C   0  0  0  0  0  0  0  0  0  0  0  0
  129.7170  131.7160   54.8660 C   0  0  0  0  0  0  0  0  0  0  0  0
  128.8690  130.6930   54.7500 F   0  0  0  0  0  0  0  0  0  0  0  0
  129.0220  132.8540   54.8910 F   0  0  0  0  0  0  0  0  0  0  0  0
  130.4770  131.7330   53.7690 F   0  0  0  0  0  0  0  0  0  0  0  0
  129.9440  131.4400   57.4390 C   0  0  0  0  0  0  0  0  0  0  0  0
  128.4850  131.4360   57.5900 C   0  0  0  0  0  0  0  0  0  0  0  0
  127.3340  131.4330   57.7090 N   0  0  0  0  0  0  0  0  0  0  0  0
  125.4570  131.0290   62.4960 C   0  0  0  0  0  0  0  0  0  0  0  0
  124.3430  130.5870   63.2030 C   0  0  0  0  0  0  0  0  0  0  0  0
  1  2  1  0
  2  3  1  0
  3  4  2  0
  4  5  1  0
  5  6  2  0
  6  7  1  0
  7  8  1  0
  8  9  2  0
  8 10  1  0
 10 11  1  0
 11 12  1  0
 12 13  2  0
 13 14  1  0
 14 15  1  0
 14 16  2  0
 16 17  1  0
 17 18  1  0
 18 19  1  0
 18 20  1  0
 18 21  1  0
 17 22  2  0
 22 23  1  0
 23 24  3  0
  6 25  1  0
 25 26  2  0
 26  3  1  0
 22 12  1  0
M  END
>  <Binding energies>  (18) 
[-7.26]

>  <Ligand effiencies>  (18) 
[-0.2688888888888889]

>  <Interactions>  (18) 
["H-A:GLU:543:OE1:4907, V-B:ARG:545:CZ:9898, V-A:TYR:539:CD2:4872, V-A:TYR:539:CE2:4874, V-A:GLU:543:CD:4906, V-A:TYR:539:CZ:4875, V-A:PRO:540:CA:4881, V-A:ALA:541:CB:4890, V-A:TYR:539:CD1:4871, V-A:PRO:540:N:4882, V-A:TYR:539:CG:4870, V-A:TYR:539:CE1:4873, V-A:TYR:539:C:4865, V-A:PRO:540:CB:4883, H-B:TYR:484:OH:9320, V-B:HIS:456:CE1:9042, V-A:LEU:363:CA:3183, V-A:PRO:540:CD:4885, V-A:ILE:538:CB:4860, V-A:ILE:538:CG2:4861, V-A:LEU:363:CD1:3187, V-A:TYR:531:CE2:4791, V-A:LEU:363:CB:3185, V-B:ARG:545:CG:9894, H-B:ARG:545:NE:9896, V-B:ARG:545:CD:9895, H-B:GLY:454:N:9022, V-A:MET:535:CG:4831, V-A:ILE:538:CA:4858, H-A:TYR:539:OH:4876, V-A:MET:535:CB:4830, V-A:TYR:531:CZ:4792, V-A:PRO:540:C:4879, V-A:LEU:363:CG:3186, V-A:ILE:538:C:4856, H-B:ARG:545:NH1:9899, V-B:GLY:454:CA:9021, V-B:GLY:453:C:9014, V-B:GLY:453:CA:9016, V-A:TYR:539:CA:4867, V-B:ILE:455:C:9024, V-B:ARG:545:CB:9893, V-A:LEU:363:C:3181"]

$$$$
2d_Ghoteimi_2023
     RDKit          3D

 38 42  0  0  0  0  0  0  0  0999 V2000
  125.0190  130.8750   58.9360 C   0  0  0  0  0  0  0  0  0  0  0  0
  124.9950  132.1480   59.5630 O   0  0  0  0  0  0  0  0  0  0  0  0
  124.1740  132.3820   60.6080 C   0  0  0  0  0  0  0  0  0  0  0  0
  124.1350  133.4240   61.2690 O   0  0  0  0  0  0  0  0  0  0  0  0
  123.2640  131.1760   60.8840 C   0  0  0  0  0  0  0  0  0  0  0  0
  123.2180  130.7770   62.6650 S   0  0  0  0  0  0  0  0  0  0  0  0
  124.8500  130.2710   63.1680 C   0  0  0  0  0  0  0  0  0  0  0  0
  125.7840  130.4370   62.2000 N   0  0  0  0  0  0  0  0  0  0  0  0
  127.0720  130.0860   62.4430 C   0  0  0  0  0  0  0  0  0  0  0  0
  128.0410  130.2820   61.3230 C   0  0  0  0  0  0  0  0  0  0  0  0
  128.9740  129.2880   61.0060 C   0  0  0  0  0  0  0  0  0  0  0  0
  129.8810  129.4630   59.9630 C   0  0  0  0  0  0  0  0  0  0  0  0
  129.8790  130.6360   59.1920 C   0  0  0  0  0  0  0  0  0  0  0  0
  130.7950  130.8360   58.1530 N   0  0  0  0  0  0  0  0  0  0  0  0
  130.4410  131.6190   56.9520 C   0  0  0  0  0  0  0  0  0  0  0  0
  131.4180  131.4200   55.7750 C   0  0  0  0  0  0  0  0  0  0  0  0
  132.7440  131.7060   56.1920 O   0  0  0  0  0  0  0  0  0  0  0  0
  133.1550  130.8510   57.2460 C   0  0  0  0  0  0  0  0  0  0  0  0
  132.2260  131.0280   58.4660 C   0  0  0  0  0  0  0  0  0  0  0  0
  128.9520  131.6340   59.5220 C   0  0  0  0  0  0  0  0  0  0  0  0
  128.0480  131.4600   60.5650 C   0  0  0  0  0  0  0  0  0  0  0  0
  127.4540  129.5580   63.6790 C   0  0  0  0  0  0  0  0  0  0  0  0
  126.5150  129.4070   64.7070 C   0  0  0  0  0  0  0  0  0  0  0  0
  127.0010  128.8630   66.0110 C   0  0  0  0  0  0  0  0  0  0  0  0
  126.2950  127.8450   66.6530 C   0  0  0  0  0  0  0  0  0  0  0  0
  126.7460  127.3220   67.8620 C   0  0  0  0  0  0  0  0  0  0  0  0
  127.9180  127.8070   68.4650 C   0  0  0  0  0  0  0  0  0  0  0  0
  128.3960  127.2880   69.6720 N   0  0  0  0  0  0  0  0  0  0  0  0
  127.7530  127.6180   70.9590 C   0  0  0  0  0  0  0  0  0  0  0  0
  128.1800  126.6890   72.1160 C   0  0  0  0  0  0  0  0  0  0  0  0
  129.5940  126.6860   72.2400 O   0  0  0  0  0  0  0  0  0  0  0  0
  130.2240  126.2300   71.0530 C   0  0  0  0  0  0  0  0  0  0  0  0
  129.8520  127.1510   69.8700 C   0  0  0  0  0  0  0  0  0  0  0  0
  128.6300  128.8170   67.8040 C   0  0  0  0  0  0  0  0  0  0  0  0
  128.1790  129.3390   66.5950 C   0  0  0  0  0  0  0  0  0  0  0  0
  125.1710  129.7780   64.4540 C   0  0  0  0  0  0  0  0  0  0  0  0
  124.1560  129.6560   65.5040 C   0  0  0  0  0  0  0  0  0  0  0  0
  123.3570  129.5590   66.3370 N   0  0  0  0  0  0  0  0  0  0  0  0
  1  2  1  0
  2  3  1  0
  3  4  2  0
  3  5  1  0
  5  6  1  0
  6  7  1  0
  7  8  2  0
  8  9  1  0
  9 10  1  0
 10 11  2  0
 11 12  1  0
 12 13  2  0
 13 14  1  0
 14 15  1  0
 15 16  1  0
 16 17  1  0
 17 18  1  0
 18 19  1  0
 13 20  1  0
 20 21  2  0
  9 22  2  0
 22 23  1  0
 23 24  1  0
 24 25  2  0
 25 26  1  0
 26 27  2  0
 27 28  1  0
 28 29  1  0
 29 30  1  0
 30 31  1  0
 31 32  1  0
 32 33  1  0
 27 34  1  0
 34 35  2  0
 23 36  2  0
 36 37  1  0
 37 38  3  0
 36  7  1  0
 21 10  1  0
 35 24  1  0
 19 14  1  0
 33 28  1  0
M  END
>  <Binding energies>  (19) 
[-6.5]

>  <Ligand effiencies>  (19) 
[-0.17105263157894737]

>  <Interactions>  (19) 
["V-B:ASP:366:CG:8185, V-A:HIS:456:CE1:4068, V-B:GLU:543:CD:9880, V-B:ARG:545:CZ:9898, V-A:TYR:539:CE2:4874, V-A:GLU:543:CD:4906, V-A:TYR:539:CZ:4875, V-A:PRO:540:CA:4881, V-A:PRO:540:N:4882, V-B:ILE:369:CG2:8209, V-A:PRO:540:CB:4883, V-B:HIS:456:CD2:9040, V-A:HIS:456:CG:4064, V-A:HIS:456:CD2:4066, V-B:LYS:547:CE:9922, V-B:GLY:544:C:9884, V-B:GLY:544:CA:9886, V-B:GLU:543:C:9874, H-B:TYR:484:OH:9320, V-B:HIS:456:CE1:9042, V-A:GLU:543:CB:4904, V-A:TYR:531:CE2:4791, V-B:ARG:545:CG:9894, V-A:GLU:543:C:4900, H-B:ARG:545:NE:9896, V-A:GLU:543:CG:4905, V-B:GLU:543:CG:9879, V-B:ILE:369:CD1:8211, V-B:ARG:545:CD:9895, H-A:TYR:531:OH:4793, H-B:GLY:454:N:9022, V-A:TYR:531:CZ:4792, V-A:GLU:543:CA:4902, V-B:GLY:453:CA:9016"]

$$$$
2d_Grossjean_2025
     RDKit          3D

 24 25  0  0  0  0  0  0  0  0999 V2000
  128.6120  122.5020   59.4420 C   0  0  0  0  0  0  0  0  0  0  0  0
  129.1290  123.3490   58.2940 C   0  0  0  0  0  0  0  0  0  0  0  0
  130.1140  124.3140   58.4870 C   0  0  0  0  0  0  0  0  0  0  0  0
  130.5630  125.0690   57.3930 C   0  0  0  0  0  0  0  0  0  0  0  0
  131.6620  126.1250   57.6230 C   0  0  0  0  0  0  0  0  0  0  0  0
  132.7720  125.7780   56.9710 F   0  0  0  0  0  0  0  0  0  0  0  0
  131.2530  127.3150   57.1790 F   0  0  0  0  0  0  0  0  0  0  0  0
  131.9810  126.2660   58.9110 F   0  0  0  0  0  0  0  0  0  0  0  0
  129.9870  124.8270   56.1200 C   0  0  0  0  0  0  0  0  0  0  0  0
  130.4540  125.5560   54.9380 C   0  0  0  0  0  0  0  0  0  0  0  0
  130.8240  126.1310   54.0040 N   0  0  0  0  0  0  0  0  0  0  0  0
  128.9730  123.8440   56.0240 C   0  0  0  0  0  0  0  0  0  0  0  0
  128.1230  123.4350   54.5120 S   0  0  0  0  0  0  0  0  0  0  0  0
  126.3730  123.9210   54.6750 C   0  0  0  0  0  0  0  0  0  0  0  0
  125.7440  123.4610   55.9930 C   0  0  0  0  0  0  0  0  0  0  0  0
  125.2440  122.3370   56.0590 O   0  0  0  0  0  0  0  0  0  0  0  0
  125.7640  124.3650   56.9960 N   0  0  0  0  0  0  0  0  0  0  0  0
  125.2760  124.2450   58.3100 C   0  0  0  0  0  0  0  0  0  0  0  0
  123.9010  124.0370   58.4370 C   0  0  0  0  0  0  0  0  0  0  0  0
  123.3230  123.9110   59.6980 C   0  0  0  0  0  0  0  0  0  0  0  0
  124.1230  124.0030   60.8350 C   0  0  0  0  0  0  0  0  0  0  0  0
  125.4930  124.2230   60.7220 C   0  0  0  0  0  0  0  0  0  0  0  0
  126.0730  124.3480   59.4630 C   0  0  0  0  0  0  0  0  0  0  0  0
  128.5670  123.1090   57.0880 N   0  0  0  0  0  0  0  0  0  0  0  0
  1  2  1  0
  2  3  2  0
  3  4  1  0
  4  5  1  0
  5  6  1  0
  5  7  1  0
  5  8  1  0
  4  9  2  0
  9 10  1  0
 10 11  3  0
  9 12  1  0
 12 13  1  0
 13 14  1  0
 14 15  1  0
 15 16  2  0
 15 17  1  0
 17 18  1  0
 18 19  2  0
 19 20  1  0
 20 21  2  0
 21 22  1  0
 22 23  2  0
 12 24  2  0
 24  2  1  0
 23 18  1  0
M  END
>  <Binding energies>  (20) 
[-6.79]

>  <Ligand effiencies>  (20) 
[-0.2716]

>  <Interactions>  (20) 
["V-B:ASP:366:CG:8185, V-B:TYR:539:CD2:9846, V-B:PRO:540:CA:9855, V-B:TYR:539:CZ:9849, V-B:TYR:539:CE2:9848, V-A:ASP:366:CG:3211, V-B:ASN:362:C:8144, V-B:ILE:538:CA:9832, V-B:MET:535:CG:9805, V-B:PRO:540:CB:9857, V-B:PRO:540:N:9856, V-B:TYR:539:C:9839, V-B:ILE:538:CB:9834, V-B:TYR:539:CE1:9847, V-B:TYR:539:CD1:9845, H-B:TYR:531:OH:9767, V-B:ILE:538:CG2:9835, H-B:TYR:539:N:9842, V-B:ASN:362:CB:8148, V-A:ASP:366:CB:3210, H-A:TYR:531:OH:4793, V-B:LEU:363:CA:8157, V-A:TYR:531:CZ:4792, V-A:ASP:366:CA:3208, V-A:ASP:366:C:3206, V-A:TYR:531:CE1:4790"]

$$$$
2e_Grossjean_2025
     RDKit          3D

 25 26  0  0  0  0  0  0  0  0999 V2000
  131.0580  130.9480   61.5510 C   0  0  0  0  0  0  0  0  0  0  0  0
  132.0290  131.0220   60.3880 C   0  0  0  0  0  0  0  0  0  0  0  0
  133.3990  131.2060   60.5900 C   0  0  0  0  0  0  0  0  0  0  0  0
  134.2340  131.2520   59.4720 C   0  0  0  0  0  0  0  0  0  0  0  0
  133.6850  131.1160   58.1940 C   0  0  0  0  0  0  0  0  0  0  0  0
  132.3030  130.9440   58.0640 C   0  0  0  0  0  0  0  0  0  0  0  0
  131.8100  130.7680   56.7590 N   0  0  0  0  0  0  0  0  0  0  0  0
  131.4290  131.7190   55.8770 C   0  0  0  0  0  0  0  0  0  0  0  0
  131.5270  132.9330   56.0610 O   0  0  0  0  0  0  0  0  0  0  0  0
  130.7930  131.2080   54.5800 C   0  0  0  0  0  0  0  0  0  0  0  0
  129.0940  131.8280   54.3620 S   0  0  0  0  0  0  0  0  0  0  0  0
  128.2710  131.5120   55.9080 C   0  0  0  0  0  0  0  0  0  0  0  0
  128.8560  132.0870   56.9880 N   0  0  0  0  0  0  0  0  0  0  0  0
  128.3200  131.8610   58.2080 C   0  0  0  0  0  0  0  0  0  0  0  0
  129.0230  132.5340   59.3710 C   0  0  0  0  0  0  0  0  0  0  0  0
  127.1980  131.0570   58.4010 C   0  0  0  0  0  0  0  0  0  0  0  0
  126.5870  130.4470   57.2950 C   0  0  0  0  0  0  0  0  0  0  0  0
  125.3610  129.5450   57.5260 C   0  0  0  0  0  0  0  0  0  0  0  0
  124.9540  129.6400   58.7920 F   0  0  0  0  0  0  0  0  0  0  0  0
  124.3640  129.9160   56.7220 F   0  0  0  0  0  0  0  0  0  0  0  0
  125.6150  128.2570   57.2820 F   0  0  0  0  0  0  0  0  0  0  0  0
  127.1330  130.6790   56.0080 C   0  0  0  0  0  0  0  0  0  0  0  0
  126.5590  130.0470   54.8160 C   0  0  0  0  0  0  0  0  0  0  0  0
  126.1060  129.5470   53.8750 N   0  0  0  0  0  0  0  0  0  0  0  0
  131.4810  130.8890   59.1530 N   0  0  0  0  0  0  0  0  0  0  0  0
  1  2  1  0
  2  3  2  0
  3  4  1  0
  4  5  2  0
  5  6  1  0
  6  7  1  0
  7  8  1  0
  8  9  2  0
  8 10  1  0
 10 11  1  0
 11 12  1  0
 12 13  2  0
 13 14  1  0
 14 15  1  0
 14 16  2  0
 16 17  1  0
 17 18  1  0
 18 19  1  0
 18 20  1  0
 18 21  1  0
 17 22  2  0
 22 23  1  0
 23 24  3  0
  6 25  2  0
 25  2  1  0
 22 12  1  0
M  END
>  <Binding energies>  (21) 
[-7.59]

>  <Ligand effiencies>  (21) 
[-0.2919230769230769]

>  <Interactions>  (21) 
["V-B:ASP:366:CG:8185, V-A:TYR:539:CD2:4872, V-A:TYR:539:CE2:4874, V-A:ASP:366:CG:3211, V-A:GLU:543:CD:4906, V-A:TYR:539:CZ:4875, V-A:PRO:540:CA:4881, V-A:TYR:539:CD1:4871, V-A:PRO:540:N:4882, V-A:TYR:539:CE1:4873, V-A:TYR:539:C:4865, V-A:PRO:540:CB:4883, H-B:TYR:531:OH:9767, V-A:LEU:363:CA:3183, V-A:ILE:538:CB:4860, V-A:ILE:538:CG2:4861, V-B:ASP:366:CB:8184, H-A:TYR:539:N:4868, V-B:ASP:366:CA:8182, H-A:TYR:531:OH:4793, V-A:MET:535:CG:4831, V-A:ILE:538:CA:4858, V-B:TYR:531:CZ:9766, V-A:TYR:531:CZ:4792, V-A:ASN:362:CB:3174, H-B:ASN:370:ND2:8220, V-A:ASN:362:C:3170, V-B:TYR:531:CE1:9764, V-B:ASP:366:C:8180, V-A:ASN:362:CA:3172"]

$$$$
2f_Grossjean_2025
     RDKit          3D

 24 25  0  0  0  0  0  0  0  0999 V2000
  129.1450  132.5180   73.4610 C   0  0  0  0  0  0  0  0  0  0  0  0
  128.1250  131.4300   73.7390 C   0  0  0  0  0  0  0  0  0  0  0  0
  127.0750  131.6240   74.6330 C   0  0  0  0  0  0  0  0  0  0  0  0
  126.1620  130.5840   74.8630 C   0  0  0  0  0  0  0  0  0  0  0  0
  125.0150  130.8150   75.8650 C   0  0  0  0  0  0  0  0  0  0  0  0
  124.7650  132.1200   75.9830 F   0  0  0  0  0  0  0  0  0  0  0  0
  123.9100  130.2000   75.4410 F   0  0  0  0  0  0  0  0  0  0  0  0
  125.2910  130.3490   77.0850 F   0  0  0  0  0  0  0  0  0  0  0  0
  126.3370  129.3620   74.1640 C   0  0  0  0  0  0  0  0  0  0  0  0
  125.4440  128.2270   74.4120 C   0  0  0  0  0  0  0  0  0  0  0  0
  124.7370  127.3310   74.6070 N   0  0  0  0  0  0  0  0  0  0  0  0
  127.4170  129.2630   73.2550 C   0  0  0  0  0  0  0  0  0  0  0  0
  127.7790  127.8130   72.2860 S   0  0  0  0  0  0  0  0  0  0  0  0
  129.5890  127.7120   72.0730 C   0  0  0  0  0  0  0  0  0  0  0  0
  130.2510  126.4750   72.6990 C   0  0  0  0  0  0  0  0  0  0  0  0
  129.7050  125.3730   72.6380 O   0  0  0  0  0  0  0  0  0  0  0  0
  131.4300  126.7200   73.3100 N   0  0  0  0  0  0  0  0  0  0  0  0
  132.2980  125.8280   73.9680 C   0  0  0  0  0  0  0  0  0  0  0  0
  131.9200  124.6130   74.5680 C   0  0  0  0  0  0  0  0  0  0  0  0
  132.8860  123.8170   75.1860 C   0  0  0  0  0  0  0  0  0  0  0  0
  134.2110  124.2540   75.1860 C   0  0  0  0  0  0  0  0  0  0  0  0
  134.6030  125.4170   74.6080 N   0  0  0  0  0  0  0  0  0  0  0  0
  133.6520  126.1800   74.0110 C   0  0  0  0  0  0  0  0  0  0  0  0
  128.3020  130.2720   73.0630 N   0  0  0  0  0  0  0  0  0  0  0  0
  1  2  1  0
  2  3  2  0
  3  4  1  0
  4  5  1  0
  5  6  1  0
  5  7  1  0
  5  8  1  0
  4  9  2  0
  9 10  1  0
 10 11  3  0
  9 12  1  0
 12 13  1  0
 13 14  1  0
 14 15  1  0
 15 16  2  0
 15 17  1  0
 17 18  1  0
 18 19  2  0
 19 20  1  0
 20 21  2  0
 21 22  1  0
 22 23  2  0
 12 24  2  0
 24  2  1  0
 23 18  1  0
M  END
>  <Binding energies>  (22) 
[-7.56]

>  <Ligand effiencies>  (22) 
[-0.3024]

>  <Interactions>  (22) 
["V-A:HIS:456:CB:4063, V-B:HIS:456:CD2:9040, V-A:GLY:544:C:4910, V-A:HIS:456:CG:4064, V-B:HIS:456:C:9033, H-A:LYS:547:NZ:4949, V-B:LYS:471:CE:9192, H-B:LYS:547:NZ:9923, V-B:HIS:456:CA:9035, V-A:VAL:458:CG2:4085, V-A:HIS:456:CD2:4066, V-A:LYS:471:CE:4218, V-B:VAL:457:CA:9047, V-A:VAL:457:C:4071, V-B:HIS:456:CG:9038, V-B:VAL:457:C:9045, V-B:LYS:547:CD:9921, V-B:VAL:458:CG2:9059, V-B:ASP:473:CG:9212, V-B:LYS:547:CE:9922, V-A:HIS:456:C:4059, V-A:LYS:547:CE:4948, V-B:LYS:471:CG:9190, V-A:LYS:471:CD:4217, V-A:LYS:471:CG:4216, V-B:HIS:456:CB:9037, V-B:LYS:471:CD:9191, V-A:HIS:456:CA:4061, V-B:LYS:471:CB:9189, V-B:ASP:473:CB:9211, H-A:GLY:544:O:4911, H-A:VAL:458:N:4082, H-A:VAL:457:N:4074"]

$$$$
2g_Grossjean_2025
     RDKit          3D

 25 26  0  0  0  0  0  0  0  0999 V2000
  128.8030  132.5350   59.5360 C   0  0  0  0  0  0  0  0  0  0  0  0
  128.1590  131.8460   58.3480 C   0  0  0  0  0  0  0  0  0  0  0  0
  126.9940  131.0940   58.4850 C   0  0  0  0  0  0  0  0  0  0  0  0
  126.4410  130.4690   57.3570 C   0  0  0  0  0  0  0  0  0  0  0  0
  125.1570  129.6330   57.5290 C   0  0  0  0  0  0  0  0  0  0  0  0
  124.5350  129.9700   58.6600 F   0  0  0  0  0  0  0  0  0  0  0  0
  124.3350  129.8510   56.5020 F   0  0  0  0  0  0  0  0  0  0  0  0
  125.3980  128.3210   57.5820 F   0  0  0  0  0  0  0  0  0  0  0  0
  127.0870  130.6330   56.1050 C   0  0  0  0  0  0  0  0  0  0  0  0
  126.5820  129.9550   54.9070 C   0  0  0  0  0  0  0  0  0  0  0  0
  126.1840  129.4200   53.9620 N   0  0  0  0  0  0  0  0  0  0  0  0
  128.2490  131.4400   56.0560 C   0  0  0  0  0  0  0  0  0  0  0  0
  129.1670  131.7710   54.5680 S   0  0  0  0  0  0  0  0  0  0  0  0
  130.8560  131.1240   54.8100 C   0  0  0  0  0  0  0  0  0  0  0  0
  131.6240  131.7570   55.9790 C   0  0  0  0  0  0  0  0  0  0  0  0
  131.3770  132.9010   56.3650 O   0  0  0  0  0  0  0  0  0  0  0  0
  132.5730  130.9820   56.5340 N   0  0  0  0  0  0  0  0  0  0  0  0
  133.4270  131.3600   57.6610 C   0  0  0  0  0  0  0  0  0  0  0  0
  132.7860  131.1620   59.0300 C   0  0  0  0  0  0  0  0  0  0  0  0
  131.4840  130.6600   59.1220 C   0  0  0  0  0  0  0  0  0  0  0  0
  130.9100  130.4420   60.3730 C   0  0  0  0  0  0  0  0  0  0  0  0
  131.6410  130.7160   61.5250 C   0  0  0  0  0  0  0  0  0  0  0  0
  132.9440  131.2050   61.4400 C   0  0  0  0  0  0  0  0  0  0  0  0
  133.5190  131.4220   60.1910 C   0  0  0  0  0  0  0  0  0  0  0  0
  128.7820  132.0180   57.1610 N   0  0  0  0  0  0  0  0  0  0  0  0
  1  2  1  0
  2  3  2  0
  3  4  1  0
  4  5  1  0
  5  6  1  0
  5  7  1  0
  5  8  1  0
  4  9  2  0
  9 10  1  0
 10 11  3  0
  9 12  1  0
 12 13  1  0
 13 14  1  0
 14 15  1  0
 15 16  2  0
 15 17  1  0
 17 18  1  0
 18 19  1  0
 19 20  2  0
 20 21  1  0
 21 22  2  0
 22 23  1  0
 23 24  2  0
 12 25  2  0
 25  2  1  0
 24 19  1  0
M  END
>  <Binding energies>  (23) 
[-7.79]

>  <Ligand effiencies>  (23) 
[-0.2996153846153846]

>  <Interactions>  (23) 
["V-B:ASP:366:CG:8185, V-A:ARG:545:CZ:4924, V-A:TYR:539:CD2:4872, V-A:TYR:539:CE2:4874, H-A:ASP:366:OD2:3213, V-A:GLU:543:CD:4906, V-A:TYR:539:CZ:4875, V-A:PRO:540:CA:4881, V-A:TYR:539:CD1:4871, V-A:TYR:539:CE1:4873, V-A:TYR:539:C:4865, V-A:PRO:540:CB:4883, H-B:TYR:531:OH:9767, V-A:LEU:363:CA:3183, V-A:ILE:538:CB:4860, V-A:ILE:538:CG2:4861, V-A:TYR:531:CE2:4791, V-B:ASP:366:CB:8184, H-A:TYR:539:N:4868, V-B:ASP:366:CA:8182, H-A:TYR:531:OH:4793, V-A:MET:535:CG:4831, V-B:TYR:531:CZ:9766, V-A:TYR:531:CZ:4792, V-A:ASN:362:CB:3174, V-A:ASN:362:C:3170, V-B:TYR:531:CE1:9764, V-B:ASP:366:C:8180"]

$$$$
2h_Grossjean_2025
     RDKit          3D

 31 32  0  0  0  0  0  0  0  0999 V2000
  123.9960  122.7660   56.0430 C   0  0  0  0  0  0  0  0  0  0  0  0
  125.4130  122.8200   55.9150 O   0  0  0  0  0  0  0  0  0  0  0  0
  126.0770  123.9960   56.2170 C   0  0  0  0  0  0  0  0  0  0  0  0
  125.9750  124.6590   57.4500 C   0  0  0  0  0  0  0  0  0  0  0  0
  126.6820  125.8360   57.6840 C   0  0  0  0  0  0  0  0  0  0  0  0
  127.5040  126.3770   56.6940 C   0  0  0  0  0  0  0  0  0  0  0  0
  128.2850  127.6590   56.9810 C   0  0  0  0  0  0  0  0  0  0  0  0
  128.5090  128.4870   55.7960 N   0  0  0  0  0  0  0  0  0  0  0  0
  127.5630  129.2120   55.1730 C   0  0  0  0  0  0  0  0  0  0  0  0
  126.3730  129.1870   55.4930 O   0  0  0  0  0  0  0  0  0  0  0  0
  128.0590  130.0970   54.0210 C   0  0  0  0  0  0  0  0  0  0  0  0
  128.3650  131.8400   54.4640 S   0  0  0  0  0  0  0  0  0  0  0  0
  129.5620  131.8320   55.7810 C   0  0  0  0  0  0  0  0  0  0  0  0
  130.8240  132.1170   55.3740 N   0  0  0  0  0  0  0  0  0  0  0  0
  131.8160  132.1190   56.2910 C   0  0  0  0  0  0  0  0  0  0  0  0
  133.2010  132.4390   55.7630 C   0  0  0  0  0  0  0  0  0  0  0  0
  131.5940  131.8470   57.6400 C   0  0  0  0  0  0  0  0  0  0  0  0
  130.2920  131.5700   58.0840 C   0  0  0  0  0  0  0  0  0  0  0  0
  130.0660  131.2800   59.5800 C   0  0  0  0  0  0  0  0  0  0  0  0
  131.2160  131.3920   60.2450 F   0  0  0  0  0  0  0  0  0  0  0  0
  129.1950  132.1210   60.1430 F   0  0  0  0  0  0  0  0  0  0  0  0
  129.5920  130.0440   59.7410 F   0  0  0  0  0  0  0  0  0  0  0  0
  129.2390  131.5710   57.1340 C   0  0  0  0  0  0  0  0  0  0  0  0
  127.8540  131.3460   57.5560 C   0  0  0  0  0  0  0  0  0  0  0  0
  126.7600  131.1710   57.8920 N   0  0  0  0  0  0  0  0  0  0  0  0
  127.5960  125.7390   55.4480 C   0  0  0  0  0  0  0  0  0  0  0  0
  128.4010  126.2680   54.4670 O   0  0  0  0  0  0  0  0  0  0  0  0
  129.7630  125.8670   54.5460 C   0  0  0  0  0  0  0  0  0  0  0  0
  126.8980  124.5410   55.2210 C   0  0  0  0  0  0  0  0  0  0  0  0
  127.0010  123.9030   54.0080 O   0  0  0  0  0  0  0  0  0  0  0  0
  128.1890  123.1390   53.8520 C   0  0  0  0  0  0  0  0  0  0  0  0
  1  2  1  0
  2  3  1  0
  3  4  2  0
  4  5  1  0
  5  6  2  0
  6  7  1  0
  7  8  1  0
  8  9  1  0
  9 10  2  0
  9 11  1  0
 11 12  1  0
 12 13  1  0
 13 14  2  0
 14 15  1  0
 15 16  1  0
 15 17  2  0
 17 18  1  0
 18 19  1  0
 19 20  1  0
 19 21  1  0
 19 22  1  0
 18 23  2  0
 23 24  1  0
 24 25  3  0
  6 26  1  0
 26 27  1  0
 27 28  1  0
 26 29  2  0
 29 30  1  0
 30 31  1  0
 29  3  1  0
 23 13  1  0
M  END
>  <Binding energies>  (24) 
[-7.16]

>  <Ligand effiencies>  (24) 
[-0.22375]

>  <Interactions>  (24) 
["V-A:TYR:539:CD2:4872, V-A:TYR:539:CE2:4874, V-A:TYR:539:CZ:4875, V-A:PRO:540:CA:4881, V-A:PRO:540:N:4882, V-A:TYR:539:C:4865, V-A:PRO:540:CB:4883, V-B:ILE:538:CA:9832, V-B:PRO:540:CB:9857, V-B:PRO:540:CD:9859, V-B:PRO:540:N:9856, V-B:ILE:538:CB:9834, V-B:TYR:539:CE1:9847, V-B:TYR:539:CD1:9845, H-B:TYR:531:OH:9767, V-B:ILE:538:CG2:9835, H-B:TYR:539:N:9842, V-A:PRO:540:CD:4885, V-A:ILE:538:CB:4860, V-A:PRO:540:CG:4884, V-A:ILE:538:CG2:4861, V-A:LEU:363:CD1:3187, V-A:TYR:531:CE2:4791, H-A:TYR:539:N:4868, H-A:TYR:531:OH:4793, V-B:LEU:363:CD1:8161, V-B:PRO:540:CG:9858, V-B:TYR:531:CE2:9765, V-B:VAL:537:C:9822, H-A:TYR:539:OH:4876, V-B:MET:535:CE:9807, V-A:PRO:540:C:4879, V-B:ILE:538:CD1:9837, V-A:ILE:538:CD1:4863, H-A:MET:535:SD:4832"]

$$$$
2i_Grossjean_2025
     RDKit          3D

 23 24  0  0  0  0  0  0  0  0999 V2000
  129.3470  122.0730   73.3730 C   0  0  0  0  0  0  0  0  0  0  0  0
  130.3650  123.1780   73.5830 C   0  0  0  0  0  0  0  0  0  0  0  0
  131.5050  122.9840   74.3580 C   0  0  0  0  0  0  0  0  0  0  0  0
  132.4170  124.0370   74.5200 C   0  0  0  0  0  0  0  0  0  0  0  0
  133.6730  123.8040   75.3810 C   0  0  0  0  0  0  0  0  0  0  0  0
  133.4710  124.2680   76.6160 F   0  0  0  0  0  0  0  0  0  0  0  0
  133.9480  122.5010   75.4480 F   0  0  0  0  0  0  0  0  0  0  0  0
  134.7540  124.4170   74.8950 F   0  0  0  0  0  0  0  0  0  0  0  0
  132.1430  125.2740   73.8820 C   0  0  0  0  0  0  0  0  0  0  0  0
  133.0630  126.4080   74.0160 C   0  0  0  0  0  0  0  0  0  0  0  0
  133.7890  127.3030   74.1220 N   0  0  0  0  0  0  0  0  0  0  0  0
  130.9610  125.3850   73.1150 C   0  0  0  0  0  0  0  0  0  0  0  0
  130.5090  126.8940   72.2750 S   0  0  0  0  0  0  0  0  0  0  0  0
  128.6930  126.9910   72.2250 C   0  0  0  0  0  0  0  0  0  0  0  0
  128.1580  128.2230   72.9580 C   0  0  0  0  0  0  0  0  0  0  0  0
  128.8130  129.2660   72.9340 O   0  0  0  0  0  0  0  0  0  0  0  0
  126.9890  128.0550   73.6130 N   0  0  0  0  0  0  0  0  0  0  0  0
  126.3150  129.0080   74.3590 C   0  0  0  0  0  0  0  0  0  0  0  0
  124.9750  129.0510   74.7690 C   0  0  0  0  0  0  0  0  0  0  0  0
  124.8650  130.2220   75.4830 C   0  0  0  0  0  0  0  0  0  0  0  0
  126.0700  130.8410   75.5070 O   0  0  0  0  0  0  0  0  0  0  0  0
  126.9790  130.0560   74.7950 N   0  0  0  0  0  0  0  0  0  0  0  0
  130.0910  124.3520   72.9700 N   0  0  0  0  0  0  0  0  0  0  0  0
  1  2  1  0
  2  3  2  0
  3  4  1  0
  4  5  1  0
  5  6  1  0
  5  7  1  0
  5  8  1  0
  4  9  2  0
  9 10  1  0
 10 11  3  0
  9 12  1  0
 12 13  1  0
 13 14  1  0
 14 15  1  0
 15 16  2  0
 15 17  1  0
 17 18  1  0
 18 19  1  0
 19 20  2  0
 20 21  1  0
 21 22  1  0
 12 23  2  0
 23  2  1  0
 22 18  2  0
M  END
>  <Binding energies>  (25) 
[-7.18]

>  <Ligand effiencies>  (25) 
[-0.29916666666666664]

>  <Interactions>  (25) 
["V-A:HIS:456:CB:4063, V-B:HIS:456:CD2:9040, V-A:HIS:456:CG:4064, V-B:HIS:456:C:9033, V-A:LYS:547:CD:4947, H-A:LYS:547:NZ:4949, H-B:LYS:547:NZ:9923, V-B:HIS:456:CA:9035, V-A:VAL:458:CG2:4085, V-A:HIS:456:CD2:4066, V-A:LYS:471:CE:4218, V-A:VAL:457:C:4071, V-B:HIS:456:CG:9038, V-A:LYS:471:CB:4215, V-B:VAL:458:CG2:9059, V-B:LYS:547:CE:9922, V-A:HIS:456:C:4059, V-A:LYS:547:CE:4948, V-A:LYS:471:CD:4217, V-A:LYS:471:CG:4216, V-A:ASP:473:CG:4238, V-B:HIS:456:CB:9037, V-A:VAL:457:CA:4073, V-B:GLY:544:C:9884, V-A:HIS:456:CA:4061, V-B:GLY:544:CA:9886, V-A:ASP:473:CB:4237, H-B:GLY:544:O:9885"]

$$$$
2k_Grossjean_2025
     RDKit          3D

 28 28  0  0  0  0  0  0  0  0999 V2000
  125.3980  123.8570   55.4030 C   0  0  0  0  0  0  0  0  0  0  0  0
  126.2910  122.8160   55.7640 O   0  0  0  0  0  0  0  0  0  0  0  0
  127.6240  123.2630   55.9820 C   0  0  0  0  0  0  0  0  0  0  0  0
  128.3320  123.4540   54.6340 C   0  0  0  0  0  0  0  0  0  0  0  0
  128.5120  124.8430   54.3990 O   0  0  0  0  0  0  0  0  0  0  0  0
  129.6060  125.1540   53.5440 C   0  0  0  0  0  0  0  0  0  0  0  0
  130.8350  125.4430   54.4150 C   0  0  0  0  0  0  0  0  0  0  0  0
  130.5500  126.5880   55.2030 O   0  0  0  0  0  0  0  0  0  0  0  0
  129.8120  126.3350   56.3890 C   0  0  0  0  0  0  0  0  0  0  0  0
  128.7920  127.4710   56.5940 C   0  0  0  0  0  0  0  0  0  0  0  0
  128.8300  128.4730   55.5260 N   0  0  0  0  0  0  0  0  0  0  0  0
  127.7580  129.0920   54.9940 C   0  0  0  0  0  0  0  0  0  0  0  0
  126.6030  128.8980   55.3790 O   0  0  0  0  0  0  0  0  0  0  0  0
  128.0520  130.0600   53.8390 C   0  0  0  0  0  0  0  0  0  0  0  0
  128.4200  131.7790   54.3350 S   0  0  0  0  0  0  0  0  0  0  0  0
  129.5990  131.7710   55.6790 C   0  0  0  0  0  0  0  0  0  0  0  0
  130.8850  132.0380   55.3350 N   0  0  0  0  0  0  0  0  0  0  0  0
  131.8310  132.0440   56.3010 C   0  0  0  0  0  0  0  0  0  0  0  0
  133.2440  132.3390   55.8360 C   0  0  0  0  0  0  0  0  0  0  0  0
  131.5390  131.7990   57.6400 C   0  0  0  0  0  0  0  0  0  0  0  0
  130.2150  131.5290   58.0190 C   0  0  0  0  0  0  0  0  0  0  0  0
  129.9090  131.2650   59.5060 C   0  0  0  0  0  0  0  0  0  0  0  0
  129.0160  132.1190   60.0090 F   0  0  0  0  0  0  0  0  0  0  0  0
  129.4180  130.0340   59.6600 F   0  0  0  0  0  0  0  0  0  0  0  0
  131.0240  131.3780   60.2280 F   0  0  0  0  0  0  0  0  0  0  0  0
  129.2140  131.5120   57.0150 C   0  0  0  0  0  0  0  0  0  0  0  0
  127.8150  131.2310   57.3540 C   0  0  0  0  0  0  0  0  0  0  0  0
  126.7110  131.0100   57.6220 N   0  0  0  0  0  0  0  0  0  0  0  0
  1  2  1  0
  2  3  1  0
  3  4  1  0
  4  5  1  0
  5  6  1  0
  6  7  1  0
  7  8  1  0
  8  9  1  0
  9 10  1  0
 10 11  1  0
 11 12  1  0
 12 13  2  0
 12 14  1  0
 14 15  1  0
 15 16  1  0
 16 17  2  0
 17 18  1  0
 18 19  1  0
 18 20  2  0
 20 21  1  0
 21 22  1  0
 22 23  1  0
 22 24  1  0
 22 25  1  0
 21 26  2  0
 26 27  1  0
 27 28  3  0
 26 16  1  0
M  END
>  <Binding energies>  (26) 
[-6.4]

>  <Ligand effiencies>  (26) 
[-0.22068965517241382]

>  <Interactions>  (26) 
["V-B:TYR:539:CZ:9849, V-A:TYR:539:CD2:4872, V-A:TYR:539:CE2:4874, V-A:TYR:539:CZ:4875, V-A:PRO:540:CA:4881, V-A:PRO:540:N:4882, V-A:TYR:539:C:4865, V-A:PRO:540:CB:4883, V-B:ILE:538:CA:9832, V-B:ILE:538:CB:9834, V-B:TYR:539:CE1:9847, V-B:TYR:539:CD1:9845, H-B:TYR:531:OH:9767, V-B:ILE:538:CG2:9835, H-B:TYR:539:N:9842, V-A:PRO:540:CD:4885, V-A:ILE:538:CB:4860, V-A:PRO:540:CG:4884, V-A:ILE:538:CG2:4861, V-A:LEU:363:CD1:3187, V-A:TYR:531:CE2:4791, H-A:TYR:539:N:4868, H-A:TYR:531:OH:4793, V-B:TYR:531:CE2:9765, H-A:TYR:539:OH:4876, V-B:TYR:531:CZ:9766, V-B:MET:535:CE:9807, V-A:PRO:540:C:4879, H-A:MET:535:SD:4832, V-A:MET:535:CE:4833, V-A:TYR:531:CE1:4790"]

$$$$
3aa_Grossjean_2025
     RDKit          3D

 34 36  0  0  0  0  0  0  0  0999 V2000
  133.0370  132.1690   56.2090 C   0  0  0  0  0  0  0  0  0  0  0  0
  131.9620  131.5870   55.2860 C   0  0  0  0  0  0  0  0  0  0  0  0
  130.8060  132.4130   55.3250 O   0  0  0  0  0  0  0  0  0  0  0  0
  129.7740  132.1320   56.1610 C   0  0  0  0  0  0  0  0  0  0  0  0
  129.4130  132.8830   57.0730 O   0  0  0  0  0  0  0  0  0  0  0  0
  129.1220  130.8090   55.8770 C   0  0  0  0  0  0  0  0  0  0  0  0
  129.6180  129.6080   56.4060 C   0  0  0  0  0  0  0  0  0  0  0  0
  128.9870  128.3980   56.1260 C   0  0  0  0  0  0  0  0  0  0  0  0
  127.8480  128.3650   55.3200 C   0  0  0  0  0  0  0  0  0  0  0  0
  127.2850  127.0910   55.1030 N   0  0  0  0  0  0  0  0  0  0  0  0
  127.4070  125.9600   55.8330 C   0  0  0  0  0  0  0  0  0  0  0  0
  128.0840  125.8390   56.8550 O   0  0  0  0  0  0  0  0  0  0  0  0
  126.6340  124.7500   55.3080 C   0  0  0  0  0  0  0  0  0  0  0  0
  127.4090  123.1840   55.8090 S   0  0  0  0  0  0  0  0  0  0  0  0
  127.5510  123.2160   57.5820 C   0  0  0  0  0  0  0  0  0  0  0  0
  128.7590  122.8070   58.0380 N   0  0  0  0  0  0  0  0  0  0  0  0
  129.0010  122.7810   59.3740 C   0  0  0  0  0  0  0  0  0  0  0  0
  130.3660  122.3310   59.7980 C   0  0  0  0  0  0  0  0  0  0  0  0
  130.5830  121.0110   60.2240 C   0  0  0  0  0  0  0  0  0  0  0  0
  131.8490  120.5850   60.6190 C   0  0  0  0  0  0  0  0  0  0  0  0
  132.9160  121.4760   60.5930 C   0  0  0  0  0  0  0  0  0  0  0  0
  132.7280  122.7880   60.1730 C   0  0  0  0  0  0  0  0  0  0  0  0
  131.4620  123.2110   59.7770 C   0  0  0  0  0  0  0  0  0  0  0  0
  128.0210  123.1790   60.2890 C   0  0  0  0  0  0  0  0  0  0  0  0
  126.7560  123.5900   59.8420 C   0  0  0  0  0  0  0  0  0  0  0  0
  125.7000  124.0100   60.8810 C   0  0  0  0  0  0  0  0  0  0  0  0
  124.4810  123.5470   60.5970 F   0  0  0  0  0  0  0  0  0  0  0  0
  126.0310  123.5450   62.0870 F   0  0  0  0  0  0  0  0  0  0  0  0
  125.6220  125.3400   60.9380 F   0  0  0  0  0  0  0  0  0  0  0  0
  126.5030  123.5990   58.4480 C   0  0  0  0  0  0  0  0  0  0  0  0
  125.1830  123.9630   57.9270 C   0  0  0  0  0  0  0  0  0  0  0  0
  124.1390  124.2510   57.5150 N   0  0  0  0  0  0  0  0  0  0  0  0
  127.3550  129.5600   54.7760 C   0  0  0  0  0  0  0  0  0  0  0  0
  127.9880  130.7670   55.0550 C   0  0  0  0  0  0  0  0  0  0  0  0
  1  2  1  0
  2  3  1  0
  3  4  1  0
  4  5  2  0
  4  6  1  0
  6  7  2  0
  7  8  1  0
  8  9  2  0
  9 10  1  0
 10 11  1  0
 11 12  2  0
 11 13  1  0
 13 14  1  0
 14 15  1  0
 15 16  2  0
 16 17  1  0
 17 18  1  0
 18 19  2  0
 19 20  1  0
 20 21  2  0
 21 22  1  0
 22 23  2  0
 17 24  2  0
 24 25  1  0
 25 26  1  0
 26 27  1  0
 26 28  1  0
 26 29  1  0
 25 30  2  0
 30 31  1  0
 31 32  3  0
  9 33  1  0
 33 34  2  0
 34  6  1  0
 30 15  1  0
 23 18  1  0
M  END
>  <Binding energies>  (27) 
[-9.27]

>  <Ligand effiencies>  (27) 
[-0.26485714285714285]

>  <Interactions>  (27) 
["V-B:ALA:541:CB:9864, V-B:ASP:366:CG:8185, V-B:GLU:543:CD:9880, V-B:TYR:539:CD2:9846, V-B:PRO:540:CA:9855, V-B:TYR:539:CE2:9848, V-B:ARG:545:CZ:9898, V-A:TYR:539:CZ:4875, V-A:PRO:540:N:4882, V-A:TYR:539:CE1:4873, V-A:TYR:539:C:4865, V-A:PRO:540:CB:4883, V-B:PRO:540:CB:9857, V-B:PRO:540:N:9856, V-B:TYR:539:C:9839, H-B:TYR:531:OH:9767, H-B:TYR:539:N:9842, V-B:ASN:362:CB:8148, V-A:PRO:540:CD:4885, V-A:ILE:538:CB:4860, V-A:PRO:540:CG:4884, V-A:ILE:538:CG2:4861, V-A:LEU:363:CD1:3187, V-A:TYR:531:CE2:4791, H-A:TYR:539:N:4868, V-A:LEU:475:CD2:4257, V-A:TRP:381:CH2:3370, V-A:ILE:369:CG2:3235, V-B:TYR:531:CZ:9766, V-A:TYR:531:CZ:4792, V-B:PRO:540:C:9853, V-B:ALA:541:C:9860, V-B:ALA:541:CA:9862, H-B:MET:535:SD:9806"]

$$$$
3ad_Grossjean_2025
     RDKit          3D

 29 31  0  0  0  0  0  0  0  0999 V2000
  124.7690  127.3030   74.5220 N   0  0  0  0  0  0  0  0  0  0  0  0
  125.4970  128.1880   74.3610 C   0  0  0  0  0  0  0  0  0  0  0  0
  126.4170  129.3120   74.1590 C   0  0  0  0  0  0  0  0  0  0  0  0
  126.2340  130.5310   74.8560 C   0  0  0  0  0  0  0  0  0  0  0  0
  125.1060  130.7410   75.8850 C   0  0  0  0  0  0  0  0  0  0  0  0
  124.7820  132.0260   76.0430 F   0  0  0  0  0  0  0  0  0  0  0  0
  124.0070  130.0940   75.4930 F   0  0  0  0  0  0  0  0  0  0  0  0
  125.4810  130.2750   77.0770 F   0  0  0  0  0  0  0  0  0  0  0  0
  127.1140  131.5920   74.5920 C   0  0  0  0  0  0  0  0  0  0  0  0
  128.1450  131.4400   73.6580 C   0  0  0  0  0  0  0  0  0  0  0  0
  129.1040  132.5450   73.3280 C   0  0  0  0  0  0  0  0  0  0  0  0
  129.3590  132.8980   71.9930 C   0  0  0  0  0  0  0  0  0  0  0  0
  130.2470  133.9230   71.6790 C   0  0  0  0  0  0  0  0  0  0  0  0
  130.8940  134.6120   72.7010 C   0  0  0  0  0  0  0  0  0  0  0  0
  130.6570  134.2840   74.0310 C   0  0  0  0  0  0  0  0  0  0  0  0
  129.7670  133.2580   74.3400 C   0  0  0  0  0  0  0  0  0  0  0  0
  128.3120  130.2720   72.9890 N   0  0  0  0  0  0  0  0  0  0  0  0
  127.4880  129.2280   73.2420 C   0  0  0  0  0  0  0  0  0  0  0  0
  127.8620  127.7760   72.2840 S   0  0  0  0  0  0  0  0  0  0  0  0
  129.6670  127.7160   72.0770 C   0  0  0  0  0  0  0  0  0  0  0  0
  130.3530  126.9540   73.2130 C   0  0  0  0  0  0  0  0  0  0  0  0
  129.8250  126.9320   74.3250 O   0  0  0  0  0  0  0  0  0  0  0  0
  131.5170  126.3520   72.8860 N   0  0  0  0  0  0  0  0  0  0  0  0
  132.3820  125.5730   73.6770 C   0  0  0  0  0  0  0  0  0  0  0  0
  131.8590  124.3560   74.1260 C   0  0  0  0  0  0  0  0  0  0  0  0
  132.6300  123.5100   74.9190 C   0  0  0  0  0  0  0  0  0  0  0  0
  133.9240  123.8810   75.2690 C   0  0  0  0  0  0  0  0  0  0  0  0
  134.4550  125.0930   74.8350 C   0  0  0  0  0  0  0  0  0  0  0  0
  133.6880  125.9430   74.0420 C   0  0  0  0  0  0  0  0  0  0  0  0
  1  2  3  0
  2  3  1  0
  3  4  2  0
  4  5  1  0
  5  6  1  0
  5  7  1  0
  5  8  1  0
  4  9  1  0
  9 10  2  0
 10 11  1  0
 11 12  2  0
 12 13  1  0
 13 14  2  0
 14 15  1  0
 15 16  2  0
 10 17  1  0
 17 18  2  0
 18 19  1  0
 19 20  1  0
 20 21  1  0
 21 22  2  0
 21 23  1  0
 23 24  1  0
 24 25  2  0
 25 26  1  0
 26 27  2  0
 27 28  1  0
 28 29  2  0
 18  3  1  0
 29 24  1  0
 16 11  1  0
M  END
>  <Binding energies>  (28) 
[-8.77]

>  <Ligand effiencies>  (28) 
[-0.29233333333333333]

>  <Interactions>  (28) 
["V-A:HIS:456:CB:4063, V-B:HIS:456:CD2:9040, V-A:GLY:544:C:4910, V-A:HIS:456:CG:4064, V-B:HIS:456:C:9033, H-A:LYS:547:NZ:4949, V-B:LYS:471:CE:9192, H-B:LYS:547:NZ:9923, V-B:HIS:456:CA:9035, V-A:VAL:458:CG2:4085, V-A:HIS:456:CD2:4066, V-A:LYS:471:CE:4218, V-B:VAL:457:CA:9047, V-A:VAL:457:C:4071, V-B:HIS:456:CG:9038, V-B:VAL:457:C:9045, V-B:LYS:547:CD:9921, V-B:VAL:458:CG2:9059, V-B:ASP:473:CG:9212, V-B:LYS:547:CE:9922, V-A:HIS:456:C:4059, V-A:LYS:547:CE:4948, V-B:LYS:471:CG:9190, V-A:LYS:471:CD:4217, V-A:LYS:471:CG:4216, V-A:ASP:473:CG:4238, V-B:HIS:456:CB:9037, V-B:LYS:471:CD:9191, V-A:VAL:457:CA:4073, V-A:HIS:456:CA:4061, V-B:ASP:473:CB:9211, H-A:HIS:456:NE2:4069, V-A:GLU:543:C:4900, V-B:TYR:484:CG:9314, V-A:GLY:544:CA:4912, V-B:TYR:484:CB:9313, H-A:GLY:544:O:4911"]

$$$$
3ai_Grossjean_2025
     RDKit          3D

 28 30  0  0  0  0  0  0  0  0999 V2000
  133.9090  127.3060   74.4980 N   0  0  0  0  0  0  0  0  0  0  0  0
  133.1540  126.4530   74.2960 C   0  0  0  0  0  0  0  0  0  0  0  0
  132.1990  125.3700   74.0410 C   0  0  0  0  0  0  0  0  0  0  0  0
  132.4470  124.0590   74.5150 C   0  0  0  0  0  0  0  0  0  0  0  0
  133.6890  123.6990   75.3520 C   0  0  0  0  0  0  0  0  0  0  0  0
  133.5360  123.9720   76.6500 F   0  0  0  0  0  0  0  0  0  0  0  0
  133.9480  122.3950   75.2440 F   0  0  0  0  0  0  0  0  0  0  0  0
  134.7470  124.3870   74.9230 F   0  0  0  0  0  0  0  0  0  0  0  0
  131.5250  123.0480   74.2040 C   0  0  0  0  0  0  0  0  0  0  0  0
  130.3900  123.3360   73.4400 C   0  0  0  0  0  0  0  0  0  0  0  0
  129.3790  122.2930   73.0690 C   0  0  0  0  0  0  0  0  0  0  0  0
  129.1390  121.9750   71.7220 C   0  0  0  0  0  0  0  0  0  0  0  0
  128.2050  121.0050   71.3710 C   0  0  0  0  0  0  0  0  0  0  0  0
  127.4960  120.3360   72.3640 C   0  0  0  0  0  0  0  0  0  0  0  0
  127.7170  120.6310   73.7050 C   0  0  0  0  0  0  0  0  0  0  0  0
  128.6520  121.6020   74.0530 C   0  0  0  0  0  0  0  0  0  0  0  0
  130.1600  124.5920   72.9800 N   0  0  0  0  0  0  0  0  0  0  0  0
  131.0230  125.5910   73.2880 C   0  0  0  0  0  0  0  0  0  0  0  0
  130.5470  127.1710   72.6190 S   0  0  0  0  0  0  0  0  0  0  0  0
  128.7420  127.1450   72.3520 C   0  0  0  0  0  0  0  0  0  0  0  0
  127.9690  128.2850   73.0330 C   0  0  0  0  0  0  0  0  0  0  0  0
  128.3420  129.4550   72.9190 O   0  0  0  0  0  0  0  0  0  0  0  0
  126.8860  127.8890   73.7390 N   0  0  0  0  0  0  0  0  0  0  0  0
  126.0040  128.6940   74.4470 C   0  0  0  0  0  0  0  0  0  0  0  0
  124.6230  128.5020   74.4400 C   0  0  0  0  0  0  0  0  0  0  0  0
  124.1180  129.4940   75.2490 C   0  0  0  0  0  0  0  0  0  0  0  0
  125.1420  130.2440   75.7210 O   0  0  0  0  0  0  0  0  0  0  0  0
  126.3320  129.7270   75.2060 N   0  0  0  0  0  0  0  0  0  0  0  0
  1  2  3  0
  2  3  1  0
  3  4  2  0
  4  5  1  0
  5  6  1  0
  5  7  1  0
  5  8  1  0
  4  9  1  0
  9 10  2  0
 10 11  1  0
 11 12  2  0
 12 13  1  0
 13 14  2  0
 14 15  1  0
 15 16  2  0
 10 17  1  0
 17 18  2  0
 18 19  1  0
 19 20  1  0
 20 21  1  0
 21 22  2  0
 21 23  1  0
 23 24  1  0
 24 25  1  0
 25 26  2  0
 26 27  1  0
 27 28  1  0
 18  3  1  0
 28 24  2  0
 16 11  1  0
M  END
>  <Binding energies>  (29) 
[-8.5]

>  <Ligand effiencies>  (29) 
[-0.29310344827586204]

>  <Interactions>  (29) 
["V-A:HIS:456:CB:4063, V-B:HIS:456:CD2:9040, V-A:HIS:456:CG:4064, V-B:HIS:456:C:9033, V-A:LYS:547:CD:4947, H-A:LYS:547:NZ:4949, H-B:LYS:547:NZ:9923, V-B:HIS:456:CA:9035, V-A:VAL:458:CG2:4085, V-A:HIS:456:CD2:4066, V-A:LYS:471:CE:4218, V-B:VAL:457:CA:9047, V-A:VAL:457:C:4071, V-A:LYS:471:CB:4215, V-B:VAL:457:C:9045, V-B:LYS:547:CD:9921, V-B:VAL:458:CG2:9059, V-B:LYS:547:CE:9922, V-A:HIS:456:C:4059, V-A:LYS:547:CE:4948, V-A:LYS:471:CD:4217, V-A:LYS:471:CG:4216, V-A:ASP:473:CG:4238, V-B:HIS:456:CB:9037, V-A:VAL:457:CA:4073, V-B:GLY:544:C:9884, V-A:HIS:456:CA:4061, V-B:GLY:544:CA:9886, V-B:GLU:543:C:9874, V-B:GLU:543:CA:9876, V-A:TYR:484:CB:4339, V-A:TYR:484:CD1:4341, V-A:TYR:484:CG:4340, V-A:LYS:547:CG:4946, V-A:ASP:473:CB:4237, H-B:GLY:544:O:9885"]

$$$$
3aj_Grossjean_2025
     RDKit          3D

 28 30  0  0  0  0  0  0  0  0999 V2000
  124.7910  127.2950   74.6990 N   0  0  0  0  0  0  0  0  0  0  0  0
  125.5020  128.1850   74.4960 C   0  0  0  0  0  0  0  0  0  0  0  0
  126.4020  129.3130   74.2410 C   0  0  0  0  0  0  0  0  0  0  0  0
  126.2050  130.5570   74.8890 C   0  0  0  0  0  0  0  0  0  0  0  0
  125.0810  130.7900   75.9180 C   0  0  0  0  0  0  0  0  0  0  0  0
  123.9370  130.1910   75.5780 F   0  0  0  0  0  0  0  0  0  0  0  0
  125.4470  130.3150   77.1090 F   0  0  0  0  0  0  0  0  0  0  0  0
  124.8300  132.0950   76.0310 F   0  0  0  0  0  0  0  0  0  0  0  0
  127.0660  131.6200   74.5750 C   0  0  0  0  0  0  0  0  0  0  0  0
  128.0900  131.4480   73.6380 C   0  0  0  0  0  0  0  0  0  0  0  0
  129.0300  132.5520   73.2590 C   0  0  0  0  0  0  0  0  0  0  0  0
  129.3310  132.8050   71.9120 C   0  0  0  0  0  0  0  0  0  0  0  0
  130.2000  133.8320   71.5520 C   0  0  0  0  0  0  0  0  0  0  0  0
  130.7830  134.6200   72.5390 C   0  0  0  0  0  0  0  0  0  0  0  0
  130.5000  134.3900   73.8820 C   0  0  0  0  0  0  0  0  0  0  0  0
  129.6290  133.3640   74.2360 C   0  0  0  0  0  0  0  0  0  0  0  0
  128.2700  130.2560   73.0140 N   0  0  0  0  0  0  0  0  0  0  0  0
  127.4680  129.2080   73.3180 C   0  0  0  0  0  0  0  0  0  0  0  0
  127.8680  127.7240   72.4200 S   0  0  0  0  0  0  0  0  0  0  0  0
  129.6840  127.6380   72.2620 C   0  0  0  0  0  0  0  0  0  0  0  0
  130.3300  126.3840   72.8710 C   0  0  0  0  0  0  0  0  0  0  0  0
  129.7400  125.3010   72.8570 O   0  0  0  0  0  0  0  0  0  0  0  0
  131.5580  126.5820   73.3980 N   0  0  0  0  0  0  0  0  0  0  0  0
  132.3650  125.6270   74.0020 C   0  0  0  0  0  0  0  0  0  0  0  0
  132.0060  124.4610   74.4940 N   0  0  0  0  0  0  0  0  0  0  0  0
  133.0360  123.8040   74.9900 C   0  0  0  0  0  0  0  0  0  0  0  0
  134.2700  124.4430   74.9060 C   0  0  0  0  0  0  0  0  0  0  0  0
  134.0570  125.9860   74.1350 S   0  0  0  0  0  0  0  0  0  0  0  0
  1  2  3  0
  2  3  1  0
  3  4  2  0
  4  5  1  0
  5  6  1  0
  5  7  1  0
  5  8  1  0
  4  9  1  0
  9 10  2  0
 10 11  1  0
 11 12  2  0
 12 13  1  0
 13 14  2  0
 14 15  1  0
 15 16  2  0
 10 17  1  0
 17 18  2  0
 18 19  1  0
 19 20  1  0
 20 21  1  0
 21 22  2  0
 21 23  1  0
 23 24  1  0
 24 25  2  0
 25 26  1  0
 26 27  2  0
 27 28  1  0
 18  3  1  0
 28 24  1  0
 16 11  1  0
M  END
>  <Binding energies>  (30) 
[-9.04]

>  <Ligand effiencies>  (30) 
[-0.31172413793103443]

>  <Interactions>  (30) 
["V-A:HIS:456:CB:4063, V-B:HIS:456:CD2:9040, V-A:GLY:544:C:4910, V-A:HIS:456:CG:4064, V-B:HIS:456:C:9033, H-A:LYS:547:NZ:4949, V-B:LYS:471:CE:9192, H-B:LYS:547:NZ:9923, V-B:HIS:456:CA:9035, V-A:VAL:458:CG2:4085, V-A:HIS:456:CD2:4066, V-A:LYS:471:CE:4218, V-B:VAL:457:CA:9047, V-A:VAL:457:C:4071, V-B:HIS:456:CG:9038, V-B:VAL:457:C:9045, V-B:LYS:547:CD:9921, V-B:VAL:458:CG2:9059, V-B:ASP:473:CG:9212, V-B:LYS:547:CE:9922, V-A:HIS:456:C:4059, V-A:LYS:547:CE:4948, V-B:LYS:471:CG:9190, V-B:HIS:456:CB:9037, V-B:LYS:471:CD:9191, V-A:HIS:456:CA:4061, V-B:LYS:471:CB:9189, V-B:ASP:473:CB:9211, V-A:GLU:543:C:4900, V-B:TYR:484:CG:9314, V-A:GLY:544:CA:4912, V-B:TYR:484:CB:9313, H-A:GLY:544:O:4911, V-A:GLU:543:CA:4902, V-B:TYR:484:CD1:9315"]

$$$$
3ak_Grossjean_2025
     RDKit          3D

 33 34  0  0  0  0  0  0  0  0999 V2000
  132.1430  131.6800   56.3180 C   0  0  0  0  0  0  0  0  0  0  0  0
  131.1820  132.5550   55.7480 O   0  0  0  0  0  0  0  0  0  0  0  0
  129.9620  131.9100   55.4090 C   0  0  0  0  0  0  0  0  0  0  0  0
  128.9680  132.0820   56.5640 C   0  0  0  0  0  0  0  0  0  0  0  0
  127.8330  131.2560   56.3240 O   0  0  0  0  0  0  0  0  0  0  0  0
  127.7210  130.7340   55.0030 C   0  0  0  0  0  0  0  0  0  0  0  0
  126.4500  129.8950   54.7730 C   0  0  0  0  0  0  0  0  0  0  0  0
  126.7210  128.5380   55.0960 O   0  0  0  0  0  0  0  0  0  0  0  0
  128.1050  128.2110   55.0970 C   0  0  0  0  0  0  0  0  0  0  0  0
  128.4010  127.1580   56.1790 C   0  0  0  0  0  0  0  0  0  0  0  0
  128.0660  125.7910   55.7740 N   0  0  0  0  0  0  0  0  0  0  0  0
  128.3850  125.2150   54.5990 C   0  0  0  0  0  0  0  0  0  0  0  0
  129.0290  125.7960   53.7250 O   0  0  0  0  0  0  0  0  0  0  0  0
  127.9280  123.7700   54.3340 C   0  0  0  0  0  0  0  0  0  0  0  0
  126.4850  123.1800   55.2940 S   0  0  0  0  0  0  0  0  0  0  0  0
  126.8210  123.4080   57.0330 C   0  0  0  0  0  0  0  0  0  0  0  0
  128.1280  123.3480   57.3910 N   0  0  0  0  0  0  0  0  0  0  0  0
  128.4830  123.5030   58.6920 C   0  0  0  0  0  0  0  0  0  0  0  0
  129.9490  123.4220   58.9970 C   0  0  0  0  0  0  0  0  0  0  0  0
  130.8580  124.3020   58.3900 C   0  0  0  0  0  0  0  0  0  0  0  0
  132.2200  124.2340   58.6720 C   0  0  0  0  0  0  0  0  0  0  0  0
  132.6920  123.2830   59.5710 C   0  0  0  0  0  0  0  0  0  0  0  0
  131.8120  122.4020   60.1890 C   0  0  0  0  0  0  0  0  0  0  0  0
  130.4510  122.4730   59.9050 C   0  0  0  0  0  0  0  0  0  0  0  0
  127.5170  123.7430   59.6750 C   0  0  0  0  0  0  0  0  0  0  0  0
  126.1590  123.8120   59.3320 C   0  0  0  0  0  0  0  0  0  0  0  0
  125.1240  124.0750   60.4440 C   0  0  0  0  0  0  0  0  0  0  0  0
  123.8900  124.0080   59.9440 F   0  0  0  0  0  0  0  0  0  0  0  0
  125.2490  123.1640   61.4100 F   0  0  0  0  0  0  0  0  0  0  0  0
  125.2640  125.2770   61.0070 F   0  0  0  0  0  0  0  0  0  0  0  0
  125.7950  123.6390   57.9750 C   0  0  0  0  0  0  0  0  0  0  0  0
  124.3900  123.7010   57.5580 C   0  0  0  0  0  0  0  0  0  0  0  0
  123.2810  123.7480   57.2290 N   0  0  0  0  0  0  0  0  0  0  0  0
  1  2  1  0
  2  3  1  0
  3  4  1  0
  4  5  1  0
  5  6  1  0
  6  7  1  0
  7  8  1  0
  8  9  1  0
  9 10  1  0
 10 11  1  0
 11 12  1  0
 12 13  2  0
 12 14  1  0
 14 15  1  0
 15 16  1  0
 16 17  2  0
 17 18  1  0
 18 19  1  0
 19 20  2  0
 20 21  1  0
 21 22  2  0
 22 23  1  0
 23 24  2  0
 18 25  2  0
 25 26  1  0
 26 27  1  0
 27 28  1  0
 27 29  1  0
 27 30  1  0
 26 31  2  0
 31 32  1  0
 32 33  3  0
 31 16  1  0
 24 19  1  0
M  END
>  <Binding energies>  (31) 
[-7.1]

>  <Ligand effiencies>  (31) 
[-0.20882352941176469]

>  <Interactions>  (31) 
["V-B:ASP:366:CG:8185, V-B:TYR:539:CD2:9846, V-B:PRO:540:CA:9855, V-B:TYR:539:CZ:9849, V-B:TYR:539:CE2:9848, V-B:ARG:545:CZ:9898, V-A:TYR:539:CD2:4872, V-A:TYR:539:CE2:4874, V-A:TYR:539:CZ:4875, V-A:TYR:539:CD1:4871, V-A:PRO:540:N:4882, V-A:TYR:539:CG:4870, V-A:TYR:539:CE1:4873, V-A:TYR:539:C:4865, V-B:ASN:362:C:8144, V-B:ILE:538:CA:9832, V-B:PRO:540:CB:9857, V-B:PRO:540:CD:9859, V-B:PRO:540:N:9856, V-B:TYR:539:C:9839, V-B:TYR:539:CE1:9847, H-B:TYR:531:OH:9767, H-B:TYR:539:N:9842, V-B:ASN:362:CB:8148, V-A:PRO:540:CD:4885, V-A:TYR:531:CE2:4791, H-A:TYR:539:N:4868, V-B:LEU:363:CA:8157, V-A:ILE:538:CA:4858, H-A:TYR:539:OH:4876, V-B:PRO:540:C:9853, V-B:ALA:541:C:9860, V-B:ALA:541:CA:9862, V-B:TYR:531:CE1:9764"]

$$$$
3bk_Grossjean_2025
     RDKit          3D

 30 31  0  0  0  0  0  0  0  0999 V2000
  129.2520  132.1410   56.9310 C   0  0  0  0  0  0  0  0  0  0  0  0
  130.2980  132.5350   56.0560 O   0  0  0  0  0  0  0  0  0  0  0  0
  130.4170  131.7080   54.9070 C   0  0  0  0  0  0  0  0  0  0  0  0
  129.0220  131.4130   54.3370 C   0  0  0  0  0  0  0  0  0  0  0  0
  128.6610  130.0740   54.6440 O   0  0  0  0  0  0  0  0  0  0  0  0
  127.5150  129.6120   53.9410 C   0  0  0  0  0  0  0  0  0  0  0  0
  126.2580  129.9200   54.7640 C   0  0  0  0  0  0  0  0  0  0  0  0
  125.9980  128.8400   55.6510 O   0  0  0  0  0  0  0  0  0  0  0  0
  126.6980  128.9290   56.8860 C   0  0  0  0  0  0  0  0  0  0  0  0
  127.4780  127.6280   57.1250 C   0  0  0  0  0  0  0  0  0  0  0  0
  127.1290  126.5830   56.1610 N   0  0  0  0  0  0  0  0  0  0  0  0
  127.9500  125.6080   55.7360 C   0  0  0  0  0  0  0  0  0  0  0  0
  129.1080  125.4680   56.1320 O   0  0  0  0  0  0  0  0  0  0  0  0
  127.3680  124.6190   54.7230 C   0  0  0  0  0  0  0  0  0  0  0  0
  126.4630  123.2640   55.5360 S   0  0  0  0  0  0  0  0  0  0  0  0
  126.6910  123.3910   57.3020 C   0  0  0  0  0  0  0  0  0  0  0  0
  127.9300  123.0860   57.7630 N   0  0  0  0  0  0  0  0  0  0  0  0
  128.1950  123.1520   59.0950 C   0  0  0  0  0  0  0  0  0  0  0  0
  129.5940  122.8200   59.5170 C   0  0  0  0  0  0  0  0  0  0  0  0
  130.6690  123.6490   59.1570 C   0  0  0  0  0  0  0  0  0  0  0  0
  131.9710  123.3410   59.5430 C   0  0  0  0  0  0  0  0  0  0  0  0
  132.2180  122.1990   60.2960 C   0  0  0  0  0  0  0  0  0  0  0  0
  131.1700  121.3630   60.6700 C   0  0  0  0  0  0  0  0  0  0  0  0
  129.8690  121.6740   60.2840 C   0  0  0  0  0  0  0  0  0  0  0  0
  127.2040  123.5370   60.0050 C   0  0  0  0  0  0  0  0  0  0  0  0
  125.9200  123.8540   59.5470 C   0  0  0  0  0  0  0  0  0  0  0  0
  124.8680  124.2690   60.5740 C   0  0  0  0  0  0  0  0  0  0  0  0
  125.6450  123.7830   58.1650 C   0  0  0  0  0  0  0  0  0  0  0  0
  124.3100  124.1110   57.6560 C   0  0  0  0  0  0  0  0  0  0  0  0
  123.2560  124.3690   57.2540 N   0  0  0  0  0  0  0  0  0  0  0  0
  1  2  1  0
  2  3  1  0
  3  4  1  0
  4  5  1  0
  5  6  1  0
  6  7  1  0
  7  8  1  0
  8  9  1  0
  9 10  1  0
 10 11  1  0
 11 12  1  0
 12 13  2  0
 12 14  1  0
 14 15  1  0
 15 16  1  0
 16 17  2  0
 17 18  1  0
 18 19  1  0
 19 20  2  0
 20 21  1  0
 21 22  2  0
 22 23  1  0
 23 24  2  0
 18 25  2  0
 25 26  1  0
 26 27  1  0
 26 28  2  0
 28 29  1  0
 29 30  3  0
 28 16  1  0
 24 19  1  0
M  END
>  <Binding energies>  (32) 
[-7.95]

>  <Ligand effiencies>  (32) 
[-0.2564516129032258]

>  <Interactions>  (32) 
["V-B:ALA:541:CB:9864, V-B:TYR:539:CD2:9846, V-B:PRO:540:CA:9855, V-B:TYR:539:CE2:9848, V-A:TYR:539:CD2:4872, V-A:TYR:539:CZ:4875, V-A:TYR:539:CD1:4871, V-A:TYR:539:CG:4870, V-A:TYR:539:CE1:4873, V-A:TYR:539:C:4865, V-B:PRO:540:CB:9857, V-B:PRO:540:N:9856, V-B:TYR:539:C:9839, H-B:TYR:531:OH:9767, H-B:TYR:539:N:9842, V-A:ILE:538:CB:4860, V-A:ILE:538:CG2:4861, H-A:TYR:539:N:4868, V-A:LEU:475:CD2:4257, V-A:ILE:538:CA:4858, V-B:MET:535:CE:9807, V-B:TYR:531:CE1:9764"]

$$$$
3cb_Grossjean_2025
     RDKit          3D

 30 32  0  0  0  0  0  0  0  0999 V2000
  131.5830  132.0640   56.1000 C   0  0  0  0  0  0  0  0  0  0  0  0
  130.2580  132.5520   56.2490 O   0  0  0  0  0  0  0  0  0  0  0  0
  129.2880  131.7830   56.8070 C   0  0  0  0  0  0  0  0  0  0  0  0
  128.5590  132.1690   57.7270 O   0  0  0  0  0  0  0  0  0  0  0  0
  129.1900  130.4140   56.1970 C   0  0  0  0  0  0  0  0  0  0  0  0
  129.8450  129.3040   56.7500 C   0  0  0  0  0  0  0  0  0  0  0  0
  129.7310  128.0490   56.1610 C   0  0  0  0  0  0  0  0  0  0  0  0
  128.9680  127.8750   55.0060 C   0  0  0  0  0  0  0  0  0  0  0  0
  128.9190  126.5620   54.4960 N   0  0  0  0  0  0  0  0  0  0  0  0
  129.9220  125.7000   54.2220 C   0  0  0  0  0  0  0  0  0  0  0  0
  131.1190  125.9290   54.4030 O   0  0  0  0  0  0  0  0  0  0  0  0
  129.4610  124.3440   53.6640 C   0  0  0  0  0  0  0  0  0  0  0  0
  128.0090  123.6210   54.4990 S   0  0  0  0  0  0  0  0  0  0  0  0
  128.1600  123.9570   56.2420 C   0  0  0  0  0  0  0  0  0  0  0  0
  129.3990  124.3650   56.6070 N   0  0  0  0  0  0  0  0  0  0  0  0
  129.6310  124.6490   57.9080 C   0  0  0  0  0  0  0  0  0  0  0  0
  131.0370  125.1120   58.2420 C   0  0  0  0  0  0  0  0  0  0  0  0
  128.6490  124.5340   58.8870 C   0  0  0  0  0  0  0  0  0  0  0  0
  127.3640  124.0990   58.5350 C   0  0  0  0  0  0  0  0  0  0  0  0
  126.3460  123.9860   59.6240 C   0  0  0  0  0  0  0  0  0  0  0  0
  126.7530  123.8640   60.9590 C   0  0  0  0  0  0  0  0  0  0  0  0
  125.8130  123.7700   61.9810 C   0  0  0  0  0  0  0  0  0  0  0  0
  124.4550  123.8000   61.6720 C   0  0  0  0  0  0  0  0  0  0  0  0
  124.0330  123.9290   60.3520 C   0  0  0  0  0  0  0  0  0  0  0  0
  124.9760  124.0250   59.3320 C   0  0  0  0  0  0  0  0  0  0  0  0
  127.1090  123.7830   57.1760 C   0  0  0  0  0  0  0  0  0  0  0  0
  125.8120  123.2350   56.7670 C   0  0  0  0  0  0  0  0  0  0  0  0
  124.7890  122.8020   56.4440 N   0  0  0  0  0  0  0  0  0  0  0  0
  128.3060  128.9790   54.4480 C   0  0  0  0  0  0  0  0  0  0  0  0
  128.4200  130.2350   55.0390 C   0  0  0  0  0  0  0  0  0  0  0  0
  1  2  1  0
  2  3  1  0
  3  4  2  0
  3  5  1  0
  5  6  2  0
  6  7  1  0
  7  8  2  0
  8  9  1  0
  9 10  1  0
 10 11  2  0
 10 12  1  0
 12 13  1  0
 13 14  1  0
 14 15  2  0
 15 16  1  0
 16 17  1  0
 16 18  2  0
 18 19  1  0
 19 20  1  0
 20 21  2  0
 21 22  1  0
 22 23  2  0
 23 24  1  0
 24 25  2  0
 19 26  2  0
 26 27  1  0
 27 28  3  0
  8 29  1  0
 29 30  2  0
 30  5  1  0
 26 14  1  0
 25 20  1  0
M  END
>  <Binding energies>  (33) 
[-9.07]

>  <Ligand effiencies>  (33) 
[-0.29258064516129034]

>  <Interactions>  (33) 
["V-B:ASP:366:CG:8185, V-B:GLU:543:CD:9880, V-B:PRO:540:CA:9855, V-B:TYR:539:CZ:9849, V-B:TYR:539:CE2:9848, V-B:ARG:545:CZ:9898, V-A:PRO:540:N:4882, V-B:ASN:362:C:8144, V-B:PRO:540:CB:9857, V-B:PRO:540:CD:9859, V-B:PRO:540:N:9856, V-B:TYR:539:C:9839, V-B:TYR:539:CE1:9847, H-B:TYR:539:N:9842, V-B:ASN:362:CB:8148, V-A:PRO:540:CD:4885, V-A:ILE:538:CB:4860, H-A:TYR:539:N:4868, H-A:TYR:531:OH:4793, V-B:ALA:541:C:9860, V-B:ASN:362:CG:8149, V-B:ALA:541:CA:9862, H-B:TYR:539:OH:9850, V-A:MET:535:CE:4833, H-B:MET:535:SD:9806"]

$$$$
3ch_Grossjean_2025
     RDKit          3D

 32 34  0  0  0  0  0  0  0  0999 V2000
  130.1780  125.8530   54.2310 C   0  0  0  0  0  0  0  0  0  0  0  0
  129.7410  124.7800   55.0600 O   0  0  0  0  0  0  0  0  0  0  0  0
  128.5970  124.9290   55.8220 C   0  0  0  0  0  0  0  0  0  0  0  0
  128.3420  126.0360   56.6490 C   0  0  0  0  0  0  0  0  0  0  0  0
  127.1530  126.1230   57.3870 C   0  0  0  0  0  0  0  0  0  0  0  0
  126.8080  127.1920   58.2360 N   0  0  0  0  0  0  0  0  0  0  0  0
  126.0910  128.3060   57.9720 C   0  0  0  0  0  0  0  0  0  0  0  0
  125.5790  128.5860   56.8890 O   0  0  0  0  0  0  0  0  0  0  0  0
  125.8870  129.2540   59.1540 C   0  0  0  0  0  0  0  0  0  0  0  0
  126.1590  130.9910   58.6960 S   0  0  0  0  0  0  0  0  0  0  0  0
  127.3950  130.9770   57.4160 C   0  0  0  0  0  0  0  0  0  0  0  0
  126.9080  130.6870   56.1840 N   0  0  0  0  0  0  0  0  0  0  0  0
  127.7690  130.6440   55.1430 C   0  0  0  0  0  0  0  0  0  0  0  0
  127.1600  130.3080   53.7960 C   0  0  0  0  0  0  0  0  0  0  0  0
  129.1340  130.8830   55.2860 C   0  0  0  0  0  0  0  0  0  0  0  0
  129.6550  131.1920   56.5510 C   0  0  0  0  0  0  0  0  0  0  0  0
  131.1270  131.4320   56.6590 C   0  0  0  0  0  0  0  0  0  0  0  0
  131.7690  132.2840   55.7520 C   0  0  0  0  0  0  0  0  0  0  0  0
  133.1410  132.5060   55.8410 C   0  0  0  0  0  0  0  0  0  0  0  0
  133.8780  131.8710   56.8380 C   0  0  0  0  0  0  0  0  0  0  0  0
  133.2560  131.0160   57.7430 C   0  0  0  0  0  0  0  0  0  0  0  0
  131.8840  130.7960   57.6500 C   0  0  0  0  0  0  0  0  0  0  0  0
  128.7610  131.2610   57.6500 C   0  0  0  0  0  0  0  0  0  0  0  0
  129.2350  131.6720   58.9750 C   0  0  0  0  0  0  0  0  0  0  0  0
  129.6090  131.9940   60.0210 N   0  0  0  0  0  0  0  0  0  0  0  0
  126.2260  125.0820   57.3090 C   0  0  0  0  0  0  0  0  0  0  0  0
  126.4590  123.9650   56.4920 C   0  0  0  0  0  0  0  0  0  0  0  0
  125.5780  122.9050   56.3630 O   0  0  0  0  0  0  0  0  0  0  0  0
  124.1920  123.1650   56.1700 C   0  0  0  0  0  0  0  0  0  0  0  0
  127.6490  123.9000   55.7560 C   0  0  0  0  0  0  0  0  0  0  0  0
  127.8800  122.8190   54.9380 O   0  0  0  0  0  0  0  0  0  0  0  0
  127.9050  123.1360   53.5530 C   0  0  0  0  0  0  0  0  0  0  0  0
  1  2  1  0
  2  3  1  0
  3  4  2  0
  4  5  1  0
  5  6  1  0
  6  7  1  0
  7  8  2  0
  7  9  1  0
  9 10  1  0
 10 11  1  0
 11 12  2  0
 12 13  1  0
 13 14  1  0
 13 15  2  0
 15 16  1  0
 16 17  1  0
 17 18  2  0
 18 19  1  0
 19 20  2  0
 20 21  1  0
 21 22  2  0
 16 23  2  0
 23 24  1  0
 24 25  3  0
  5 26  2  0
 26 27  1  0
 27 28  1  0
 28 29  1  0
 27 30  2  0
 30 31  1  0
 31 32  1  0
 30  3  1  0
 23 11  1  0
 22 17  1  0
M  END
>  <Binding energies>  (34) 
[-8.62]

>  <Ligand effiencies>  (34) 
[-0.2612121212121212]

>  <Interactions>  (34) 
["V-B:ASP:366:CG:8185, H-B:ASP:366:OD2:8187, H-A:ALA:541:N:4889, V-A:TYR:539:CE2:4874, V-A:ASP:366:CG:3211, V-A:TYR:539:CZ:4875, V-A:PRO:540:CA:4881, V-A:PRO:540:N:4882, V-A:TYR:539:CE1:4873, V-A:PRO:540:CB:4883, V-B:ILE:538:CA:9832, V-B:PRO:540:CB:9857, V-B:PRO:540:CD:9859, V-B:PRO:540:N:9856, V-B:ILE:538:CB:9834, V-B:TYR:539:CE1:9847, V-B:TYR:539:CD1:9845, H-B:TYR:531:OH:9767, V-B:ILE:538:CG2:9835, H-B:TYR:539:N:9842, V-A:LEU:363:CA:3183, V-A:PRO:540:CD:4885, V-A:ILE:538:CB:4860, V-A:PRO:540:CG:4884, V-A:ILE:538:CG2:4861, V-A:LEU:363:CD1:3187, V-A:TYR:531:CE2:4791, V-A:LEU:363:CB:3185, V-B:ASP:366:CB:8184, V-B:LEU:363:CD1:8161, V-B:TYR:531:CE2:9765, V-B:VAL:537:C:9822, V-A:ILE:538:CA:4858, H-A:TYR:539:OH:4876, V-B:ILE:538:C:9830, V-B:MET:535:CE:9807, V-A:ILE:538:CD1:4863, H-B:TYR:539:OH:9850, V-A:MET:535:CE:4833, V-A:TYR:531:CE1:4790"]

$$$$
3ci_Grossjean_2025
     RDKit          3D

 25 27  0  0  0  0  0  0  0  0999 V2000
  127.7290  133.3890   61.3600 C   0  0  0  0  0  0  0  0  0  0  0  0
  127.6420  132.5850   60.0770 C   0  0  0  0  0  0  0  0  0  0  0  0
  128.7020  132.5260   59.1780 C   0  0  0  0  0  0  0  0  0  0  0  0
  128.5800  131.7560   58.0130 C   0  0  0  0  0  0  0  0  0  0  0  0
  129.7490  131.7090   57.0840 C   0  0  0  0  0  0  0  0  0  0  0  0
  131.0390  131.4530   57.5670 C   0  0  0  0  0  0  0  0  0  0  0  0
  132.1260  131.4190   56.6990 C   0  0  0  0  0  0  0  0  0  0  0  0
  131.9290  131.6490   55.3400 C   0  0  0  0  0  0  0  0  0  0  0  0
  130.6550  131.9140   54.8440 C   0  0  0  0  0  0  0  0  0  0  0  0
  129.5700  131.9470   55.7160 C   0  0  0  0  0  0  0  0  0  0  0  0
  127.3610  131.0670   57.7850 C   0  0  0  0  0  0  0  0  0  0  0  0
  127.1600  130.2800   56.5630 C   0  0  0  0  0  0  0  0  0  0  0  0
  127.0020  129.6590   55.5990 N   0  0  0  0  0  0  0  0  0  0  0  0
  126.3350  131.1770   58.7540 C   0  0  0  0  0  0  0  0  0  0  0  0
  124.7680  130.3340   58.5800 S   0  0  0  0  0  0  0  0  0  0  0  0
  123.4740  131.2680   59.4610 C   0  0  0  0  0  0  0  0  0  0  0  0
  123.7820  131.4800   60.9480 C   0  0  0  0  0  0  0  0  0  0  0  0
  123.5930  132.5900   61.4490 O   0  0  0  0  0  0  0  0  0  0  0  0
  124.2660  130.4030   61.6060 N   0  0  0  0  0  0  0  0  0  0  0  0
  124.5960  130.3190   62.9520 C   0  0  0  0  0  0  0  0  0  0  0  0
  125.9110  130.2420   63.4080 C   0  0  0  0  0  0  0  0  0  0  0  0
  125.8110  130.1700   64.7790 C   0  0  0  0  0  0  0  0  0  0  0  0
  124.5030  130.2040   65.1290 O   0  0  0  0  0  0  0  0  0  0  0  0
  123.7430  130.2970   63.9620 N   0  0  0  0  0  0  0  0  0  0  0  0
  126.4770  131.9310   59.8750 N   0  0  0  0  0  0  0  0  0  0  0  0
  1  2  1  0
  2  3  2  0
  3  4  1  0
  4  5  1  0
  5  6  2  0
  6  7  1  0
  7  8  2  0
  8  9  1  0
  9 10  2  0
  4 11  2  0
 11 12  1  0
 12 13  3  0
 11 14  1  0
 14 15  1  0
 15 16  1  0
 16 17  1  0
 17 18  2  0
 17 19  1  0
 19 20  1  0
 20 21  1  0
 21 22  2  0
 22 23  1  0
 23 24  1  0
 14 25  2  0
 25  2  1  0
 10  5  1  0
 24 20  2  0
M  END
>  <Binding energies>  (35) 
[-8.67]

>  <Ligand effiencies>  (35) 
[-0.3334615384615385]

>  <Interactions>  (35) 
["V-B:ASP:366:CG:8185, H-B:ASP:366:OD2:8187, V-B:ARG:545:CZ:9898, V-A:TYR:539:CD2:4872, V-A:TYR:539:CE2:4874, V-A:TYR:539:CZ:4875, V-A:PRO:540:CA:4881, V-A:ALA:541:CB:4890, V-A:TYR:539:CD1:4871, V-A:PRO:540:N:4882, V-B:ILE:369:CG2:8209, V-A:TYR:539:C:4865, H-B:TYR:484:OH:9320, V-A:ILE:538:CB:4860, V-A:ILE:538:CG2:4861, V-A:TYR:531:CE2:4791, V-B:ASP:366:CB:8184, H-B:ARG:545:NE:9896, V-B:ASP:366:CA:8182, V-B:ILE:369:CD1:8211, V-B:ILE:369:CB:8208, H-B:GLY:454:N:9022, H-B:ASP:366:OD1:8186, V-A:ILE:538:CA:4858, H-A:TYR:539:OH:4876, V-A:TYR:531:CZ:4792, H-B:ARG:545:NH1:9899"]

$$$$
3ck_Grossjean_2025
     RDKit          3D

 30 31  0  0  0  0  0  0  0  0999 V2000
  131.9230  132.0300   56.2770 C   0  0  0  0  0  0  0  0  0  0  0  0
  130.6980  132.5060   55.7440 O   0  0  0  0  0  0  0  0  0  0  0  0
  130.2340  131.7540   54.6310 C   0  0  0  0  0  0  0  0  0  0  0  0
  128.7760  131.3380   54.8650 C   0  0  0  0  0  0  0  0  0  0  0  0
  128.4950  130.1670   54.1090 O   0  0  0  0  0  0  0  0  0  0  0  0
  127.6620  129.2320   54.7820 C   0  0  0  0  0  0  0  0  0  0  0  0
  128.5330  128.1090   55.3580 C   0  0  0  0  0  0  0  0  0  0  0  0
  127.8160  126.8880   55.2520 O   0  0  0  0  0  0  0  0  0  0  0  0
  128.2760  126.0130   54.2330 C   0  0  0  0  0  0  0  0  0  0  0  0
  127.4210  124.7320   54.2290 C   0  0  0  0  0  0  0  0  0  0  0  0
  126.4340  124.6770   55.3120 N   0  0  0  0  0  0  0  0  0  0  0  0
  125.8570  123.5610   55.7920 C   0  0  0  0  0  0  0  0  0  0  0  0
  126.1240  122.4310   55.3790 O   0  0  0  0  0  0  0  0  0  0  0  0
  124.8290  123.7780   56.9150 C   0  0  0  0  0  0  0  0  0  0  0  0
  125.4470  124.6760   58.3800 S   0  0  0  0  0  0  0  0  0  0  0  0
  127.1970  124.3680   58.5600 C   0  0  0  0  0  0  0  0  0  0  0  0
  127.9500  124.6050   57.4570 N   0  0  0  0  0  0  0  0  0  0  0  0
  129.2830  124.3890   57.5200 C   0  0  0  0  0  0  0  0  0  0  0  0
  130.0580  124.6740   56.2480 C   0  0  0  0  0  0  0  0  0  0  0  0
  129.9150  123.9320   58.6740 C   0  0  0  0  0  0  0  0  0  0  0  0
  129.1560  123.6740   59.8230 C   0  0  0  0  0  0  0  0  0  0  0  0
  129.8730  123.1620   61.0290 C   0  0  0  0  0  0  0  0  0  0  0  0
  130.2720  124.0470   62.0380 C   0  0  0  0  0  0  0  0  0  0  0  0
  130.9500  123.5780   63.1620 C   0  0  0  0  0  0  0  0  0  0  0  0
  131.2360  122.2210   63.2770 C   0  0  0  0  0  0  0  0  0  0  0  0
  130.8540  121.3290   62.2770 C   0  0  0  0  0  0  0  0  0  0  0  0
  130.1760  121.8010   61.1560 C   0  0  0  0  0  0  0  0  0  0  0  0
  127.7580  123.9080   59.7740 C   0  0  0  0  0  0  0  0  0  0  0  0
  126.9200  123.6950   60.9600 C   0  0  0  0  0  0  0  0  0  0  0  0
  126.2590  123.5280   61.8950 N   0  0  0  0  0  0  0  0  0  0  0  0
  1  2  1  0
  2  3  1  0
  3  4  1  0
  4  5  1  0
  5  6  1  0
  6  7  1  0
  7  8  1  0
  8  9  1  0
  9 10  1  0
 10 11  1  0
 11 12  1  0
 12 13  2  0
 12 14  1  0
 14 15  1  0
 15 16  1  0
 16 17  2  0
 17 18  1  0
 18 19  1  0
 18 20  2  0
 20 21  1  0
 21 22  1  0
 22 23  2  0
 23 24  1  0
 24 25  2  0
 25 26  1  0
 26 27  2  0
 21 28  2  0
 28 29  1  0
 29 30  3  0
 28 16  1  0
 27 22  1  0
M  END
>  <Binding energies>  (36) 
[-7.16]

>  <Ligand effiencies>  (36) 
[-0.2309677419354839]

>  <Interactions>  (36) 
["V-B:ALA:541:CB:9864, V-B:TYR:539:CD2:9846, V-B:PRO:540:CA:9855, V-B:TYR:539:CZ:9849, H-B:ALA:541:N:9863, V-B:TYR:539:CE2:9848, V-A:PRO:540:CA:4881, V-A:PRO:540:N:4882, V-A:TYR:539:CE1:4873, V-A:PRO:540:CB:4883, V-B:ILE:538:CA:9832, V-B:MET:535:CG:9805, V-B:PRO:540:CB:9857, V-B:PRO:540:CD:9859, V-B:PRO:540:N:9856, V-B:ILE:538:CB:9834, V-B:TYR:539:CE1:9847, H-B:TYR:531:OH:9767, V-B:ILE:538:CG2:9835, H-B:TYR:539:N:9842, V-A:PRO:540:CD:4885, V-A:ILE:538:CB:4860, V-A:ILE:538:CG2:4861, H-A:TYR:539:N:4868, V-A:LEU:475:CD2:4257, V-B:TYR:531:CE2:9765, V-A:ILE:538:CA:4858, V-B:TYR:531:CZ:9766, V-B:PRO:540:C:9853"]

$$$$
4aa_Grossjean_2025
     RDKit          3D

 26 28  0  0  0  0  0  0  0  0999 V2000
  124.0550  123.1090   56.4840 C   0  0  0  0  0  0  0  0  0  0  0  0
  125.0520  123.7640   55.5240 C   0  0  0  0  0  0  0  0  0  0  0  0
  126.0200  122.8030   55.1210 O   0  0  0  0  0  0  0  0  0  0  0  0
  127.2980  123.1690   54.8440 C   0  0  0  0  0  0  0  0  0  0  0  0
  127.7760  123.1640   53.7040 O   0  0  0  0  0  0  0  0  0  0  0  0
  128.0760  123.5770   56.0610 C   0  0  0  0  0  0  0  0  0  0  0  0
  127.9880  122.7970   57.2220 C   0  0  0  0  0  0  0  0  0  0  0  0
  128.6930  123.1520   58.3690 C   0  0  0  0  0  0  0  0  0  0  0  0
  129.5060  124.2860   58.3770 C   0  0  0  0  0  0  0  0  0  0  0  0
  130.1660  124.5560   59.5910 N   0  0  0  0  0  0  0  0  0  0  0  0
  130.5710  125.7360   60.1220 C   0  0  0  0  0  0  0  0  0  0  0  0
  130.4510  126.8250   59.5600 O   0  0  0  0  0  0  0  0  0  0  0  0
  131.2060  125.6430   61.4380 C   0  0  0  0  0  0  0  0  0  0  0  0
  132.8580  125.0370   61.5880 S   0  0  0  0  0  0  0  0  0  0  0  0
  132.8090  125.2020   63.3290 C   0  0  0  0  0  0  0  0  0  0  0  0
  133.8500  124.8780   64.0970 N   0  0  0  0  0  0  0  0  0  0  0  0
  133.6800  125.0490   65.4310 C   0  0  0  0  0  0  0  0  0  0  0  0
  134.8740  124.6690   66.2890 C   0  0  0  0  0  0  0  0  0  0  0  0
  132.5080  125.5340   66.0080 C   0  0  0  0  0  0  0  0  0  0  0  0
  131.4190  125.8750   65.1980 C   0  0  0  0  0  0  0  0  0  0  0  0
  130.1610  126.4010   65.8730 C   0  0  0  0  0  0  0  0  0  0  0  0
  131.5570  125.7050   63.7940 C   0  0  0  0  0  0  0  0  0  0  0  0
  130.6600  125.9440   62.6950 C   0  0  0  0  0  0  0  0  0  0  0  0
  129.3890  126.4270   62.8810 N   0  0  0  0  0  0  0  0  0  0  0  0
  129.5960  125.0760   57.2220 C   0  0  0  0  0  0  0  0  0  0  0  0
  128.8870  124.7220   56.0760 C   0  0  0  0  0  0  0  0  0  0  0  0
  1  2  1  0
  2  3  1  0
  3  4  1  0
  4  5  2  0
  4  6  1  0
  6  7  2  0
  7  8  1  0
  8  9  2  0
  9 10  1  0
 10 11  1  0
 11 12  2  0
 11 13  1  0
 13 14  1  0
 14 15  1  0
 15 16  2  0
 16 17  1  0
 17 18  1  0
 17 19  2  0
 19 20  1  0
 20 21  1  0
 20 22  2  0
 22 23  1  0
 23 24  1  0
  9 25  1  0
 25 26  2  0
 26  6  1  0
 23 13  2  0
 22 15  1  0
M  END
>  <Binding energies>  (37) 
[-7.37]

>  <Ligand effiencies>  (37) 
[-0.2541379310344828]

>  <Interactions>  (37) 
["V-A:HIS:456:CE1:4068, H-B:GLU:543:OE1:9881, V-A:ARG:545:CZ:4924, V-A:GLY:453:CA:4042, V-B:GLU:543:CD:9880, V-B:TYR:539:CD2:9846, V-B:GLU:543:CB:9878, V-B:PRO:540:CA:9855, H-B:GLU:543:OE2:9882, V-B:TYR:539:CE2:9848, H-A:GLU:543:OE2:4908, H-A:GLU:543:OE1:4907, V-A:ASP:366:CG:3211, V-A:GLU:543:CD:4906, V-B:ILE:538:CA:9832, V-B:TYR:539:CG:9844, V-B:PRO:540:CB:9857, V-B:PRO:540:CD:9859, V-B:PRO:540:N:9856, V-B:TYR:539:C:9839, V-B:ILE:538:CB:9834, V-B:TYR:539:CE1:9847, V-B:TYR:539:CD1:9845, V-B:TYR:539:CA:9841, V-B:ILE:538:CG2:9835, H-B:TYR:539:N:9842, V-B:GLU:543:CG:9879, H-A:TYR:484:OH:4346, V-A:ARG:545:CD:4921, H-A:ARG:545:NH1:4925, H-A:GLY:454:N:4048, V-A:ARG:545:CG:4920, H-A:ARG:545:NE:4922, V-A:TYR:484:CZ:4345, V-B:LEU:363:CD1:8161, V-B:PRO:540:CG:9858, V-B:TYR:531:CE2:9765, V-B:TYR:531:CZ:9766, V-B:ILE:538:C:9830, V-A:GLY:454:CA:4047, V-A:GLY:453:C:4040, V-A:ILE:455:C:4050, V-A:ILE:455:CA:4052, V-A:GLY:454:C:4045"]

$$$$
4ab_Grossjean_2025
     RDKit          3D

 25 27  0  0  0  0  0  0  0  0999 V2000
  129.9720  127.3070   72.6910 C   0  0  0  0  0  0  0  0  0  0  0  0
  129.2550  128.3510   72.0470 O   0  0  0  0  0  0  0  0  0  0  0  0
  128.3150  128.0760   71.1080 C   0  0  0  0  0  0  0  0  0  0  0  0
  127.1000  128.1400   71.3220 O   0  0  0  0  0  0  0  0  0  0  0  0
  128.8980  127.6770   69.7830 C   0  0  0  0  0  0  0  0  0  0  0  0
  128.0380  127.3010   68.7430 C   0  0  0  0  0  0  0  0  0  0  0  0
  128.5490  126.9250   67.5030 C   0  0  0  0  0  0  0  0  0  0  0  0
  129.9250  126.9250   67.2760 C   0  0  0  0  0  0  0  0  0  0  0  0
  130.3310  126.5200   65.9900 N   0  0  0  0  0  0  0  0  0  0  0  0
  130.7420  125.3080   65.5450 C   0  0  0  0  0  0  0  0  0  0  0  0
  130.8700  124.3140   66.2610 O   0  0  0  0  0  0  0  0  0  0  0  0
  131.0630  125.2420   64.1180 C   0  0  0  0  0  0  0  0  0  0  0  0
  132.3300  124.1590   63.5390 S   0  0  0  0  0  0  0  0  0  0  0  0
  132.1050  124.6980   61.8900 C   0  0  0  0  0  0  0  0  0  0  0  0
  132.8310  124.2130   60.8830 N   0  0  0  0  0  0  0  0  0  0  0  0
  132.5580  124.7170   59.6550 C   0  0  0  0  0  0  0  0  0  0  0  0
  133.3990  124.1550   58.5230 C   0  0  0  0  0  0  0  0  0  0  0  0
  131.5840  125.6830   59.4130 C   0  0  0  0  0  0  0  0  0  0  0  0
  130.8240  126.1910   60.4730 C   0  0  0  0  0  0  0  0  0  0  0  0
  129.7740  127.2460   60.1580 C   0  0  0  0  0  0  0  0  0  0  0  0
  131.0840  125.6890   61.7770 C   0  0  0  0  0  0  0  0  0  0  0  0
  130.5110  125.9850   63.0620 C   0  0  0  0  0  0  0  0  0  0  0  0
  129.5120  126.9120   63.2220 N   0  0  0  0  0  0  0  0  0  0  0  0
  130.7950  127.2950   68.3130 C   0  0  0  0  0  0  0  0  0  0  0  0
  130.2820  127.6680   69.5520 C   0  0  0  0  0  0  0  0  0  0  0  0
  1  2  1  0
  2  3  1  0
  3  4  2  0
  3  5  1  0
  5  6  2  0
  6  7  1  0
  7  8  2  0
  8  9  1  0
  9 10  1  0
 10 11  2  0
 10 12  1  0
 12 13  1  0
 13 14  1  0
 14 15  2  0
 15 16  1  0
 16 17  1  0
 16 18  2  0
 18 19  1  0
 19 20  1  0
 19 21  2  0
 21 22  1  0
 22 23  1  0
  8 24  1  0
 24 25  2  0
 25  5  1  0
 22 12  2  0
 21 14  1  0
M  END
>  <Binding energies>  (38) 
[-6.89]

>  <Ligand effiencies>  (38) 
[-0.24607142857142855]

>  <Interactions>  (38) 
["V-A:HIS:456:CE1:4068, H-B:GLU:543:OE1:9881, V-B:GLU:543:CD:9880, V-B:GLU:543:CB:9878, H-B:GLU:543:OE2:9882, V-B:TYR:539:CE2:9848, H-A:GLU:543:OE2:4908, H-A:GLU:543:OE1:4907, V-A:ASP:366:CG:3211, V-A:GLU:543:CD:4906, V-B:HIS:456:CD2:9040, V-A:GLY:544:C:4910, H-A:LYS:547:NZ:4949, V-A:LYS:547:CE:4948, H-B:HIS:456:ND1:9039, V-B:GLU:543:C:9874, V-B:HIS:456:CE1:9042, V-A:GLU:543:C:4900, V-A:GLU:543:CG:4905, V-B:GLU:543:CG:9879, H-A:TYR:484:OH:4346, V-A:ARG:545:CG:4920, V-A:GLY:544:CA:4912, V-A:ASP:366:CB:3210, V-A:ASP:366:CA:3208"]

$$$$
4ac_Grossjean_2025
     RDKit          3D

 23 25  0  0  0  0  0  0  0  0999 V2000
  123.5290  129.9270   66.9700 C   0  0  0  0  0  0  0  0  0  0  0  0
  123.3820  129.7750   65.5620 O   0  0  0  0  0  0  0  0  0  0  0  0
  124.4790  129.9660   64.7440 C   0  0  0  0  0  0  0  0  0  0  0  0
  124.2140  130.2580   63.4060 C   0  0  0  0  0  0  0  0  0  0  0  0
  125.2560  130.4680   62.5070 C   0  0  0  0  0  0  0  0  0  0  0  0
  126.5810  130.3970   62.9390 C   0  0  0  0  0  0  0  0  0  0  0  0
  127.5670  130.6100   61.9570 N   0  0  0  0  0  0  0  0  0  0  0  0
  127.4590  131.2190   60.7520 C   0  0  0  0  0  0  0  0  0  0  0  0
  126.4050  131.6720   60.3010 O   0  0  0  0  0  0  0  0  0  0  0  0
  128.7010  131.3060   59.9790 C   0  0  0  0  0  0  0  0  0  0  0  0
  128.6520  131.6240   58.2450 S   0  0  0  0  0  0  0  0  0  0  0  0
  130.3960  131.5640   58.1360 C   0  0  0  0  0  0  0  0  0  0  0  0
  131.0380  131.7460   56.9810 N   0  0  0  0  0  0  0  0  0  0  0  0
  132.3900  131.6740   57.0340 C   0  0  0  0  0  0  0  0  0  0  0  0
  133.1020  131.8840   55.7110 C   0  0  0  0  0  0  0  0  0  0  0  0
  133.1080  131.4250   58.2030 C   0  0  0  0  0  0  0  0  0  0  0  0
  132.4310  131.2350   59.4130 C   0  0  0  0  0  0  0  0  0  0  0  0
  133.2580  130.9660   60.6610 C   0  0  0  0  0  0  0  0  0  0  0  0
  131.0120  131.3050   59.3960 C   0  0  0  0  0  0  0  0  0  0  0  0
  130.0230  131.1640   60.4310 C   0  0  0  0  0  0  0  0  0  0  0  0
  130.3600  130.9120   61.7360 N   0  0  0  0  0  0  0  0  0  0  0  0
  126.8560  130.0920   64.2800 C   0  0  0  0  0  0  0  0  0  0  0  0
  125.8110  129.8820   65.1760 C   0  0  0  0  0  0  0  0  0  0  0  0
  1  2  1  0
  2  3  1  0
  3  4  2  0
  4  5  1  0
  5  6  2  0
  6  7  1  0
  7  8  1  0
  8  9  2  0
  8 10  1  0
 10 11  1  0
 11 12  1  0
 12 13  2  0
 13 14  1  0
 14 15  1  0
 14 16  2  0
 16 17  1  0
 17 18  1  0
 17 19  2  0
 19 20  1  0
 20 21  1  0
  6 22  1  0
 22 23  2  0
 23  3  1  0
 20 10  2  0
 19 12  1  0
M  END
>  <Binding energies>  (39) 
[-7.3]

>  <Ligand effiencies>  (39) 
[-0.28076923076923077]

>  <Interactions>  (39) 
["H-A:GLU:543:OE2:4908, H-A:GLU:543:OE1:4907, V-B:ARG:545:CZ:9898, V-A:TYR:539:CD2:4872, V-A:TYR:539:CE2:4874, V-A:ASP:366:CG:3211, V-A:GLU:543:CD:4906, V-A:PRO:540:CA:4881, H-A:ALA:541:O:4887, V-A:PRO:540:N:4882, V-A:TYR:539:C:4865, V-A:PRO:540:CB:4883, H-B:TYR:484:OH:9320, V-B:HIS:456:CE1:9042, V-B:TYR:484:CZ:9319, V-A:LEU:363:CA:3183, V-A:PRO:540:CD:4885, V-A:ILE:538:CB:4860, V-A:ILE:538:CG2:4861, V-A:LEU:363:CD1:3187, V-A:TYR:531:CE2:4791, V-B:ARG:545:CG:9894, H-B:ARG:545:NE:9896, V-B:ARG:545:CD:9895, H-B:GLY:454:N:9022, V-A:TYR:531:CZ:4792, V-A:ASN:362:CB:3174, H-B:ARG:545:NH1:9899, V-B:GLY:454:CA:9021, V-A:ASN:362:C:3170, V-B:GLY:453:C:9014, V-B:GLY:453:CA:9016, V-B:ILE:455:C:9024, V-B:ARG:545:CB:9893"]

$$$$
4ad_Grossjean_2025
     RDKit          3D

 21 23  0  0  0  0  0  0  0  0999 V2000
  132.3480  137.9740   70.7680 C   0  0  0  0  0  0  0  0  0  0  0  0
  131.5850  137.0780   71.7250 C   0  0  0  0  0  0  0  0  0  0  0  0
  131.3610  137.4640   73.0450 C   0  0  0  0  0  0  0  0  0  0  0  0
  130.6560  136.6200   73.9120 C   0  0  0  0  0  0  0  0  0  0  0  0
  130.4380  137.0840   75.3440 C   0  0  0  0  0  0  0  0  0  0  0  0
  130.1910  135.3800   73.3960 C   0  0  0  0  0  0  0  0  0  0  0  0
  129.4520  134.2990   73.9900 C   0  0  0  0  0  0  0  0  0  0  0  0
  129.0410  134.3260   75.3000 N   0  0  0  0  0  0  0  0  0  0  0  0
  129.1960  133.2320   73.1140 C   0  0  0  0  0  0  0  0  0  0  0  0
  128.4920  131.9770   73.3860 C   0  0  0  0  0  0  0  0  0  0  0  0
  128.9380  130.9050   72.9720 O   0  0  0  0  0  0  0  0  0  0  0  0
  127.3560  132.0950   74.1160 N   0  0  0  0  0  0  0  0  0  0  0  0
  126.4370  131.1030   74.5090 C   0  0  0  0  0  0  0  0  0  0  0  0
  126.7280  129.8010   74.0910 C   0  0  0  0  0  0  0  0  0  0  0  0
  125.8850  128.7480   74.4370 C   0  0  0  0  0  0  0  0  0  0  0  0
  124.7540  128.9950   75.2100 C   0  0  0  0  0  0  0  0  0  0  0  0
  124.4600  130.2850   75.6440 C   0  0  0  0  0  0  0  0  0  0  0  0
  125.3010  131.3400   75.2990 C   0  0  0  0  0  0  0  0  0  0  0  0
  129.8680  133.5490   71.5140 S   0  0  0  0  0  0  0  0  0  0  0  0
  130.4870  135.1010   72.0280 C   0  0  0  0  0  0  0  0  0  0  0  0
  131.1570  135.9050   71.2000 N   0  0  0  0  0  0  0  0  0  0  0  0
  1  2  1  0
  2  3  2  0
  3  4  1  0
  4  5  1  0
  4  6  2  0
  6  7  1  0
  7  8  1  0
  7  9  2  0
  9 10  1  0
 10 11  2  0
 10 12  1  0
 12 13  1  0
 13 14  2  0
 14 15  1  0
 15 16  2  0
 16 17  1  0
 17 18  2  0
  9 19  1  0
 19 20  1  0
 20 21  2  0
 21  2  1  0
 20  6  1  0
 18 13  1  0
M  END
>  <Binding energies>  (40) 
[-7.2]

>  <Ligand effiencies>  (40) 
[-0.3]

>  <Interactions>  (40) 
["V-B:HIS:456:CD2:9040, V-B:HIS:456:C:9033, H-A:LYS:547:NZ:4949, V-B:LYS:471:CE:9192, V-B:HIS:456:CG:9038, V-B:VAL:457:C:9045, V-B:VAL:458:CG2:9059, V-B:ASP:473:CG:9212, V-A:LYS:547:CE:4948, V-B:HIS:456:CB:9037, V-B:LYS:471:CD:9191, V-A:GLU:543:C:4900, V-B:TYR:484:CG:9314, V-A:GLY:544:CA:4912, V-B:TYR:484:CB:9313, V-A:GLU:543:CA:4902, V-B:TYR:484:CD1:9315, H-B:ASP:473:OD2:9214, H-B:TYR:484:N:9312, V-A:VAL:542:CG1:4897, V-B:SER:483:CB:9305, V-B:SER:483:CA:9303"]

$$$$
4ae_Grossjean_2025
     RDKit          3D

 22 24  0  0  0  0  0  0  0  0999 V2000
  126.6460  127.6790   74.2280 C   0  0  0  0  0  0  0  0  0  0  0  0
  126.2970  129.1110   74.5820 C   0  0  0  0  0  0  0  0  0  0  0  0
  125.1350  129.4270   75.2920 C   0  0  0  0  0  0  0  0  0  0  0  0
  124.8750  130.7680   75.5750 C   0  0  0  0  0  0  0  0  0  0  0  0
  125.7720  131.7500   75.1470 C   0  0  0  0  0  0  0  0  0  0  0  0
  126.9200  131.3640   74.4480 C   0  0  0  0  0  0  0  0  0  0  0  0
  127.7730  132.3990   74.0260 N   0  0  0  0  0  0  0  0  0  0  0  0
  128.8440  132.3290   73.1960 C   0  0  0  0  0  0  0  0  0  0  0  0
  129.2410  131.2860   72.6740 O   0  0  0  0  0  0  0  0  0  0  0  0
  129.5280  133.6000   72.9480 C   0  0  0  0  0  0  0  0  0  0  0  0
  130.2760  133.9180   71.3820 S   0  0  0  0  0  0  0  0  0  0  0  0
  130.8440  135.4830   71.9170 C   0  0  0  0  0  0  0  0  0  0  0  0
  131.5470  136.2890   71.1200 N   0  0  0  0  0  0  0  0  0  0  0  0
  131.9310  137.4710   71.6580 C   0  0  0  0  0  0  0  0  0  0  0  0
  132.7360  138.3690   70.7370 C   0  0  0  0  0  0  0  0  0  0  0  0
  131.6300  137.8640   72.9620 C   0  0  0  0  0  0  0  0  0  0  0  0
  130.8920  137.0160   73.7950 C   0  0  0  0  0  0  0  0  0  0  0  0
  130.5910  137.4870   75.2100 C   0  0  0  0  0  0  0  0  0  0  0  0
  130.4720  135.7650   73.2650 C   0  0  0  0  0  0  0  0  0  0  0  0
  129.7210  134.6760   73.8300 C   0  0  0  0  0  0  0  0  0  0  0  0
  129.2440  134.7030   75.1160 N   0  0  0  0  0  0  0  0  0  0  0  0
  127.1780  130.0540   74.1610 N   0  0  0  0  0  0  0  0  0  0  0  0
  1  2  1  0
  2  3  2  0
  3  4  1  0
  4  5  2  0
  5  6  1  0
  6  7  1  0
  7  8  1  0
  8  9  2  0
  8 10  1  0
 10 11  1  0
 11 12  1  0
 12 13  2  0
 13 14  1  0
 14 15  1  0
 14 16  2  0
 16 17  1  0
 17 18  1  0
 17 19  2  0
 19 20  1  0
 20 21  1  0
  6 22  2  0
 22  2  1  0
 20 10  2  0
 19 12  1  0
M  END
>  <Binding energies>  (41) 
[-7.2]

>  <Ligand effiencies>  (41) 
[-0.28800000000000003]

>  <Interactions>  (41) 
["V-B:HIS:456:CD2:9040, V-B:HIS:456:C:9033, H-A:LYS:547:NZ:4949, V-B:LYS:471:CE:9192, V-B:HIS:456:CG:9038, V-B:LYS:547:CD:9921, V-B:VAL:458:CG2:9059, V-B:ASP:473:CG:9212, V-B:LYS:547:CE:9922, V-A:LYS:547:CE:4948, V-B:LYS:471:CG:9190, V-B:HIS:456:CB:9037, V-B:LYS:471:CD:9191, V-B:GLY:544:C:9884, V-B:ASP:473:CB:9211, V-A:GLU:543:C:4900, V-B:TYR:484:CG:9314, V-A:GLY:544:CA:4912, V-B:LYS:547:CG:9920, V-B:TYR:484:CB:9313, V-A:GLU:543:CA:4902, V-B:TYR:484:CD1:9315, H-B:ASP:473:OD2:9214, H-B:TYR:484:N:9312, V-A:VAL:542:CG1:4897, V-B:SER:483:CB:9305"]

$$$$
4af_Grossjean_2025
     RDKit          3D

 21 23  0  0  0  0  0  0  0  0999 V2000
  131.8410  132.1700   55.4630 C   0  0  0  0  0  0  0  0  0  0  0  0
  131.3180  131.8880   56.8590 C   0  0  0  0  0  0  0  0  0  0  0  0
  132.1890  131.6020   57.9080 C   0  0  0  0  0  0  0  0  0  0  0  0
  131.6840  131.3420   59.1880 C   0  0  0  0  0  0  0  0  0  0  0  0
  132.6740  131.0340   60.2990 C   0  0  0  0  0  0  0  0  0  0  0  0
  130.2740  131.3820   59.3640 C   0  0  0  0  0  0  0  0  0  0  0  0
  129.4340  131.1680   60.5120 C   0  0  0  0  0  0  0  0  0  0  0  0
  129.9470  130.8610   61.7470 N   0  0  0  0  0  0  0  0  0  0  0  0
  128.0620  131.3040   60.2490 C   0  0  0  0  0  0  0  0  0  0  0  0
  126.9360  131.1270   61.1670 C   0  0  0  0  0  0  0  0  0  0  0  0
  125.7970  131.4590   60.8350 O   0  0  0  0  0  0  0  0  0  0  0  0
  127.2450  130.5710   62.3640 N   0  0  0  0  0  0  0  0  0  0  0  0
  126.4170  130.3130   63.4720 C   0  0  0  0  0  0  0  0  0  0  0  0
  126.8380  129.7540   64.6930 C   0  0  0  0  0  0  0  0  0  0  0  0
  125.9070  129.5330   65.7090 C   0  0  0  0  0  0  0  0  0  0  0  0
  124.5730  129.8720   65.4800 C   0  0  0  0  0  0  0  0  0  0  0  0
  124.1400  130.4050   64.3090 N   0  0  0  0  0  0  0  0  0  0  0  0
  125.0570  130.6140   63.3310 C   0  0  0  0  0  0  0  0  0  0  0  0
  127.7760  131.7010   58.5520 S   0  0  0  0  0  0  0  0  0  0  0  0
  129.4910  131.6870   58.2100 C   0  0  0  0  0  0  0  0  0  0  0  0
  129.9690  131.9350   56.9910 N   0  0  0  0  0  0  0  0  0  0  0  0
  1  2  1  0
  2  3  2  0
  3  4  1  0
  4  5  1  0
  4  6  2  0
  6  7  1  0
  7  8  1  0
  7  9  2  0
  9 10  1  0
 10 11  2  0
 10 12  1  0
 12 13  1  0
 13 14  2  0
 14 15  1  0
 15 16  2  0
 16 17  1  0
 17 18  2  0
  9 19  1  0
 19 20  1  0
 20 21  2  0
 21  2  1  0
 20  6  1  0
 18 13  1  0
M  END
>  <Binding energies>  (42) 
[-7.33]

>  <Ligand effiencies>  (42) 
[-0.30541666666666667]

>  <Interactions>  (42) 
["H-A:GLU:543:OE2:4908, H-A:GLU:543:OE1:4907, V-B:ARG:545:CZ:9898, V-A:TYR:539:CD2:4872, V-A:TYR:539:CE2:4874, V-A:GLU:543:CD:4906, V-A:TYR:539:CZ:4875, V-A:PRO:540:CA:4881, H-A:ALA:541:O:4887, V-A:PRO:540:N:4882, V-A:TYR:539:C:4865, V-A:PRO:540:CB:4883, H-B:TYR:484:OH:9320, V-B:HIS:456:CE1:9042, V-A:PRO:540:CD:4885, V-A:ILE:538:CB:4860, V-A:ILE:538:CG2:4861, V-A:TYR:531:CE2:4791, V-B:ARG:545:CG:9894, V-B:ARG:545:CD:9895, H-B:GLY:454:N:9022, V-A:ILE:538:CA:4858"]

$$$$
4ag_Grossjean_2025
     RDKit          3D

 22 24  0  0  0  0  0  0  0  0999 V2000
  134.2400  120.1350   60.6170 C   0  0  0  0  0  0  0  0  0  0  0  0
  133.1960  121.1960   60.9140 C   0  0  0  0  0  0  0  0  0  0  0  0
  133.5330  122.3590   61.6050 C   0  0  0  0  0  0  0  0  0  0  0  0
  132.5550  123.3240   61.8690 C   0  0  0  0  0  0  0  0  0  0  0  0
  132.9710  124.5770   62.6260 C   0  0  0  0  0  0  0  0  0  0  0  0
  131.2340  123.0720   61.4110 C   0  0  0  0  0  0  0  0  0  0  0  0
  130.0150  123.8290   61.5050 C   0  0  0  0  0  0  0  0  0  0  0  0
  129.9560  125.0510   62.1270 N   0  0  0  0  0  0  0  0  0  0  0  0
  128.9100  123.2030   60.9100 C   0  0  0  0  0  0  0  0  0  0  0  0
  127.5340  123.6900   60.8130 C   0  0  0  0  0  0  0  0  0  0  0  0
  126.7370  123.5530   61.7440 O   0  0  0  0  0  0  0  0  0  0  0  0
  127.1910  124.2750   59.6450 N   0  0  0  0  0  0  0  0  0  0  0  0
  125.8840  124.8530   59.3390 C   0  0  0  0  0  0  0  0  0  0  0  0
  125.2200  124.2620   58.1010 C   0  0  0  0  0  0  0  0  0  0  0  0
  126.0070  123.7230   57.0800 C   0  0  0  0  0  0  0  0  0  0  0  0
  125.4020  123.1600   55.9590 C   0  0  0  0  0  0  0  0  0  0  0  0
  124.0120  123.1280   55.8680 C   0  0  0  0  0  0  0  0  0  0  0  0
  123.2210  123.6490   56.8890 C   0  0  0  0  0  0  0  0  0  0  0  0
  123.8260  124.2110   58.0100 C   0  0  0  0  0  0  0  0  0  0  0  0
  129.3570  121.6520   60.2010 S   0  0  0  0  0  0  0  0  0  0  0  0
  131.0190  121.8450   60.7150 C   0  0  0  0  0  0  0  0  0  0  0  0
  131.9490  120.9230   60.4610 N   0  0  0  0  0  0  0  0  0  0  0  0
  1  2  1  0
  2  3  2  0
  3  4  1  0
  4  5  1  0
  4  6  2  0
  6  7  1  0
  7  8  1  0
  7  9  2  0
  9 10  1  0
 10 11  2  0
 10 12  1  0
 12 13  1  0
 13 14  1  0
 14 15  2  0
 15 16  1  0
 16 17  2  0
 17 18  1  0
 18 19  2  0
  9 20  1  0
 20 21  1  0
 21 22  2  0
 22  2  1  0
 21  6  1  0
 19 14  1  0
M  END
>  <Binding energies>  (43) 
[-7.35]

>  <Ligand effiencies>  (43) 
[-0.294]

>  <Interactions>  (43) 
["V-B:ALA:541:CB:9864, V-B:ASP:366:CG:8185, H-B:GLU:543:OE1:9881, V-A:ARG:545:CZ:4924, V-B:GLU:543:CD:9880, V-B:TYR:539:CD2:9846, V-B:PRO:540:CA:9855, H-B:GLU:543:OE2:9882, H-B:ALA:541:N:9863, V-B:TYR:539:CE2:9848, V-B:ILE:538:CA:9832, V-B:PRO:540:CB:9857, V-B:PRO:540:CD:9859, V-B:PRO:540:N:9856, V-B:TYR:539:C:9839, V-B:ILE:538:CB:9834, V-B:ILE:538:CG2:9835, V-A:LEU:475:CD2:4257, V-A:TRP:381:CH2:3370, V-B:LEU:363:CA:8157, V-B:LEU:363:CD1:8161, V-B:LEU:363:CB:8159, V-A:ILE:369:CG2:3235, V-A:ILE:369:CD1:3237, V-B:TYR:531:CE2:9765, V-B:TYR:531:CZ:9766, V-B:LEU:363:CG:8160, V-A:GLY:454:CA:4047, V-A:SER:385:C:3403, V-A:SER:385:CB:3407, V-A:SER:385:CA:3405"]

$$$$
4ah_Grossjean_2025
     RDKit          3D

 28 30  0  0  0  0  0  0  0  0999 V2000
  123.8930  123.0850   56.0450 C   0  0  0  0  0  0  0  0  0  0  0  0
  125.2310  122.6010   56.0270 O   0  0  0  0  0  0  0  0  0  0  0  0
  126.1590  123.1360   56.9040 C   0  0  0  0  0  0  0  0  0  0  0  0
  125.8540  123.5510   58.2100 C   0  0  0  0  0  0  0  0  0  0  0  0
  126.8420  124.0840   59.0390 C   0  0  0  0  0  0  0  0  0  0  0  0
  126.5020  124.4860   60.4700 C   0  0  0  0  0  0  0  0  0  0  0  0
  126.2670  125.9200   60.6350 N   0  0  0  0  0  0  0  0  0  0  0  0
  127.2230  126.8730   60.6430 C   0  0  0  0  0  0  0  0  0  0  0  0
  128.4230  126.6110   60.5460 O   0  0  0  0  0  0  0  0  0  0  0  0
  126.7560  128.2480   60.8170 C   0  0  0  0  0  0  0  0  0  0  0  0
  125.9750  129.0940   59.4800 S   0  0  0  0  0  0  0  0  0  0  0  0
  125.7990  130.5440   60.4430 C   0  0  0  0  0  0  0  0  0  0  0  0
  125.2250  131.6470   59.9610 N   0  0  0  0  0  0  0  0  0  0  0  0
  125.1500  132.6990   60.8100 C   0  0  0  0  0  0  0  0  0  0  0  0
  124.4960  133.9450   60.2410 C   0  0  0  0  0  0  0  0  0  0  0  0
  125.6290  132.6750   62.1180 C   0  0  0  0  0  0  0  0  0  0  0  0
  126.2340  131.5180   62.6220 C   0  0  0  0  0  0  0  0  0  0  0  0
  126.7420  131.5400   64.0550 C   0  0  0  0  0  0  0  0  0  0  0  0
  126.3330  130.3930   61.7590 C   0  0  0  0  0  0  0  0  0  0  0  0
  126.8830  129.0770   61.9410 C   0  0  0  0  0  0  0  0  0  0  0  0
  127.4680  128.6810   63.1170 N   0  0  0  0  0  0  0  0  0  0  0  0
  128.1540  124.1790   58.5740 C   0  0  0  0  0  0  0  0  0  0  0  0
  128.4860  123.7770   57.2700 C   0  0  0  0  0  0  0  0  0  0  0  0
  129.7610  123.8580   56.7390 O   0  0  0  0  0  0  0  0  0  0  0  0
  130.5780  124.9800   57.0540 C   0  0  0  0  0  0  0  0  0  0  0  0
  127.4780  123.2630   56.4440 C   0  0  0  0  0  0  0  0  0  0  0  0
  127.7920  122.8480   55.1710 O   0  0  0  0  0  0  0  0  0  0  0  0
  127.5750  123.8340   54.1710 C   0  0  0  0  0  0  0  0  0  0  0  0
  1  2  1  0
  2  3  1  0
  3  4  2  0
  4  5  1  0
  5  6  1  0
  6  7  1  0
  7  8  1  0
  8  9  2  0
  8 10  1  0
 10 11  1  0
 11 12  1  0
 12 13  2  0
 13 14  1  0
 14 15  1  0
 14 16  2  0
 16 17  1  0
 17 18  1  0
 17 19  2  0
 19 20  1  0
 20 21  1  0
  5 22  2  0
 22 23  1  0
 23 24  1  0
 24 25  1  0
 23 26  2  0
 26 27  1  0
 27 28  1  0
 26  3  1  0
 20 10  2  0
 19 12  1  0
M  END
>  <Binding energies>  (44) 
[-7.26]

>  <Ligand effiencies>  (44) 
[-0.23419354838709677]

>  <Interactions>  (44) 
["V-B:ASP:366:CG:8185, H-B:ASP:366:OD2:8187, H-B:GLU:543:OE1:9881, V-B:GLU:543:CD:9880, V-B:PRO:540:CA:9855, V-B:TYR:539:CZ:9849, H-B:GLU:543:OE2:9882, V-B:TYR:539:CE2:9848, H-A:GLU:543:OE2:4908, H-A:GLU:543:OE1:4907, V-A:TYR:539:CD2:4872, V-A:TYR:539:CE2:4874, V-A:GLU:543:CD:4906, V-B:LEU:475:CD2:9231, V-B:TRP:381:CH2:8344, V-B:ILE:369:CG2:8209, V-B:ILE:538:CA:9832, V-B:PRO:540:CB:9857, V-B:PRO:540:CD:9859, V-B:PRO:540:N:9856, V-B:TYR:539:C:9839, V-B:ILE:538:CB:9834, V-B:ILE:538:CG2:9835, H-B:TYR:539:N:9842, V-B:LEU:363:CD1:8161, V-B:PRO:540:CG:9858, H-B:ASP:366:OD1:8186, V-B:TYR:531:CE2:9765, H-B:TYR:539:OH:9850"]

$$$$
4ai_Grossjean_2025
     RDKit          3D

 20 22  0  0  0  0  0  0  0  0999 V2000
  124.6280  123.3080   55.7370 C   0  0  0  0  0  0  0  0  0  0  0  0
  125.3590  123.4830   57.0560 C   0  0  0  0  0  0  0  0  0  0  0  0
  124.6640  123.7870   58.2250 C   0  0  0  0  0  0  0  0  0  0  0  0
  125.3580  123.9380   59.4320 C   0  0  0  0  0  0  0  0  0  0  0  0
  124.5550  124.2680   60.6810 C   0  0  0  0  0  0  0  0  0  0  0  0
  126.7690  123.7700   59.4110 C   0  0  0  0  0  0  0  0  0  0  0  0
  127.7690  123.8500   60.4410 C   0  0  0  0  0  0  0  0  0  0  0  0
  127.4560  124.1430   61.7450 N   0  0  0  0  0  0  0  0  0  0  0  0
  129.0750  123.5980   59.9900 C   0  0  0  0  0  0  0  0  0  0  0  0
  130.3220  123.6070   60.7570 C   0  0  0  0  0  0  0  0  0  0  0  0
  131.3440  123.0910   60.3010 O   0  0  0  0  0  0  0  0  0  0  0  0
  130.2570  124.2250   61.9630 N   0  0  0  0  0  0  0  0  0  0  0  0
  131.2840  124.3870   62.8840 C   0  0  0  0  0  0  0  0  0  0  0  0
  131.1760  125.2040   64.0100 C   0  0  0  0  0  0  0  0  0  0  0  0
  132.3890  125.0950   64.6500 C   0  0  0  0  0  0  0  0  0  0  0  0
  133.1860  124.2550   63.9480 O   0  0  0  0  0  0  0  0  0  0  0  0
  132.4750  123.8120   62.8310 N   0  0  0  0  0  0  0  0  0  0  0  0
  129.0970  123.2770   58.2540 S   0  0  0  0  0  0  0  0  0  0  0  0
  127.3600  123.4610   58.1490 C   0  0  0  0  0  0  0  0  0  0  0  0
  126.7030  123.3170   56.9980 N   0  0  0  0  0  0  0  0  0  0  0  0
  1  2  1  0
  2  3  2  0
  3  4  1  0
  4  5  1  0
  4  6  2  0
  6  7  1  0
  7  8  1  0
  7  9  2  0
  9 10  1  0
 10 11  2  0
 10 12  1  0
 12 13  1  0
 13 14  1  0
 14 15  2  0
 15 16  1  0
 16 17  1  0
  9 18  1  0
 18 19  1  0
 19 20  2  0
 20  2  1  0
 19  6  1  0
 17 13  2  0
M  END
>  <Binding energies>  (45) 
[-7.0]

>  <Ligand effiencies>  (45) 
[-0.30434782608695654]

>  <Interactions>  (45) 
["V-B:ASP:366:CG:8185, H-B:GLU:543:OE1:9881, V-A:ARG:545:CZ:4924, V-B:GLU:543:CD:9880, V-B:TYR:539:CD2:9846, V-B:PRO:540:CA:9855, H-B:ALA:541:O:9861, H-B:GLU:543:OE2:9882, V-B:TYR:539:CE2:9848, V-B:PRO:540:CB:9857, V-B:PRO:540:CD:9859, V-B:PRO:540:N:9856, V-B:TYR:539:C:9839, V-B:ILE:538:CB:9834, V-B:ILE:538:CG2:9835, V-B:ASN:362:CB:8148, H-A:TYR:484:OH:4346, H-A:GLY:454:N:4048, V-B:TYR:531:CE2:9765, V-B:TYR:531:CZ:9766"]

$$$$
4aj_Grossjean_2025
     RDKit          3D

 20 22  0  0  0  0  0  0  0  0999 V2000
  125.9640  116.5550   70.7410 C   0  0  0  0  0  0  0  0  0  0  0  0
  126.7460  117.5000   71.6350 C   0  0  0  0  0  0  0  0  0  0  0  0
  127.0780  117.1430   72.9400 C   0  0  0  0  0  0  0  0  0  0  0  0
  127.7950  118.0330   73.7480 C   0  0  0  0  0  0  0  0  0  0  0  0
  128.1320  117.5970   75.1660 C   0  0  0  0  0  0  0  0  0  0  0  0
  128.1620  119.2870   73.1910 C   0  0  0  0  0  0  0  0  0  0  0  0
  128.8810  120.4120   73.7260 C   0  0  0  0  0  0  0  0  0  0  0  0
  129.3690  120.4270   75.0070 N   0  0  0  0  0  0  0  0  0  0  0  0
  129.0370  121.4710   72.8180 C   0  0  0  0  0  0  0  0  0  0  0  0
  129.7010  122.7600   73.0280 C   0  0  0  0  0  0  0  0  0  0  0  0
  129.2250  123.7970   72.5600 O   0  0  0  0  0  0  0  0  0  0  0  0
  130.8360  122.7170   73.7680 N   0  0  0  0  0  0  0  0  0  0  0  0
  131.6430  123.7900   74.1210 C   0  0  0  0  0  0  0  0  0  0  0  0
  131.3930  125.0730   73.9650 N   0  0  0  0  0  0  0  0  0  0  0  0
  132.3830  125.8170   74.4200 C   0  0  0  0  0  0  0  0  0  0  0  0
  133.4700  125.1340   74.9590 C   0  0  0  0  0  0  0  0  0  0  0  0
  133.1670  123.4250   74.8620 S   0  0  0  0  0  0  0  0  0  0  0  0
  128.2740  121.1030   71.2710 S   0  0  0  0  0  0  0  0  0  0  0  0
  127.7640  119.5300   71.8420 C   0  0  0  0  0  0  0  0  0  0  0  0
  127.0800  118.6860   71.0690 N   0  0  0  0  0  0  0  0  0  0  0  0
  1  2  1  0
  2  3  2  0
  3  4  1  0
  4  5  1  0
  4  6  2  0
  6  7  1  0
  7  8  1  0
  7  9  2  0
  9 10  1  0
 10 11  2  0
 10 12  1  0
 12 13  1  0
 13 14  2  0
 14 15  1  0
 15 16  2  0
 16 17  1  0
  9 18  1  0
 18 19  1  0
 19 20  2  0
 20  2  1  0
 19  6  1  0
 17 13  1  0
M  END
>  <Binding energies>  (46) 
[-6.74]

>  <Ligand effiencies>  (46) 
[-0.29304347826086957]

>  <Interactions>  (46) 
["V-A:HIS:456:CB:4063, V-A:HIS:456:CG:4064, H-B:LYS:547:NZ:9923, V-A:VAL:458:CG2:4085, V-A:HIS:456:CD2:4066, V-A:LYS:471:CE:4218, V-B:LYS:547:CE:9922, V-A:HIS:456:C:4059, V-A:LYS:471:CD:4217, V-A:ASP:473:CG:4238, H-A:TYR:484:N:4338, V-B:VAL:542:CG1:9871, V-B:GLY:544:CA:9886, V-B:GLU:543:C:9874, V-B:GLU:543:CA:9876, V-A:TYR:484:CB:4339, H-A:ASP:473:OD2:4240, V-A:SER:483:CB:4331, V-A:TYR:484:CD1:4341, V-A:TYR:484:CG:4340"]

$$$$
4ak_Grossjean_2025
     RDKit          3D

 25 26  0  0  0  0  0  0  0  0999 V2000
  129.5040  131.7580   54.0500 C   0  0  0  0  0  0  0  0  0  0  0  0
  128.1080  131.5050   54.0310 O   0  0  0  0  0  0  0  0  0  0  0  0
  127.6630  130.7040   55.1190 C   0  0  0  0  0  0  0  0  0  0  0  0
  126.6520  129.6680   54.6110 C   0  0  0  0  0  0  0  0  0  0  0  0
  125.6070  129.5230   55.5630 O   0  0  0  0  0  0  0  0  0  0  0  0
  125.9640  129.9400   56.8740 C   0  0  0  0  0  0  0  0  0  0  0  0
  124.7470  129.8030   57.7980 C   0  0  0  0  0  0  0  0  0  0  0  0
  124.0610  131.0460   57.8580 O   0  0  0  0  0  0  0  0  0  0  0  0
  123.4020  131.2800   59.0960 C   0  0  0  0  0  0  0  0  0  0  0  0
  124.3840  131.9450   60.0770 C   0  0  0  0  0  0  0  0  0  0  0  0
  125.7820  131.8660   59.6510 N   0  0  0  0  0  0  0  0  0  0  0  0
  126.8510  131.9270   60.4700 C   0  0  0  0  0  0  0  0  0  0  0  0
  126.7420  132.0370   61.6920 O   0  0  0  0  0  0  0  0  0  0  0  0
  128.1610  131.8450   59.8250 C   0  0  0  0  0  0  0  0  0  0  0  0
  128.3250  132.1760   58.1000 S   0  0  0  0  0  0  0  0  0  0  0  0
  130.0500  131.8930   58.1640 C   0  0  0  0  0  0  0  0  0  0  0  0
  130.8220  131.9910   57.0800 N   0  0  0  0  0  0  0  0  0  0  0  0
  132.1420  131.7440   57.2660 C   0  0  0  0  0  0  0  0  0  0  0  0
  133.0030  131.8610   56.0220 C   0  0  0  0  0  0  0  0  0  0  0  0
  132.7020  131.4080   58.4970 C   0  0  0  0  0  0  0  0  0  0  0  0
  131.8900  131.3070   59.6320 C   0  0  0  0  0  0  0  0  0  0  0  0
  132.5460  130.9330   60.9520 C   0  0  0  0  0  0  0  0  0  0  0  0
  130.5000  131.5570   59.4760 C   0  0  0  0  0  0  0  0  0  0  0  0
  129.4020  131.5430   60.4060 C   0  0  0  0  0  0  0  0  0  0  0  0
  129.5710  131.2540   61.7360 N   0  0  0  0  0  0  0  0  0  0  0  0
  1  2  1  0
  2  3  1  0
  3  4  1  0
  4  5  1  0
  5  6  1  0
  6  7  1  0
  7  8  1  0
  8  9  1  0
  9 10  1  0
 10 11  1  0
 11 12  1  0
 12 13  2  0
 12 14  1  0
 14 15  1  0
 15 16  1  0
 16 17  2  0
 17 18  1  0
 18 19  1  0
 18 20  2  0
 20 21  1  0
 21 22  1  0
 21 23  2  0
 23 24  1  0
 24 25  1  0
 24 14  2  0
 23 16  1  0
M  END
>  <Binding energies>  (47) 
[-6.36]

>  <Ligand effiencies>  (47) 
[-0.22714285714285715]

>  <Interactions>  (47) 
["V-B:ASP:366:CG:8185, H-A:GLU:543:OE2:4908, H-A:GLU:543:OE1:4907, V-A:TYR:539:CD2:4872, V-A:TYR:539:CE2:4874, V-A:GLU:543:CD:4906, V-A:TYR:539:CZ:4875, V-A:PRO:540:CA:4881, V-A:ALA:541:CB:4890, V-A:PRO:540:N:4882, V-A:TYR:539:CG:4870, V-A:TYR:539:CE1:4873, V-B:ILE:369:CG2:8209, V-A:TYR:539:C:4865, V-A:PRO:540:CB:4883, H-B:TYR:531:OH:9767, V-A:PRO:540:CD:4885, V-A:ILE:538:CB:4860, V-A:ILE:538:CG2:4861, V-A:LEU:363:CD1:3187, V-A:TYR:531:CE2:4791, V-B:ASP:366:CB:8184, V-B:ASP:366:CA:8182, V-B:ILE:369:CD1:8211, V-B:ILE:369:CB:8208, V-A:ILE:538:CA:4858, H-A:TYR:539:OH:4876, V-A:MET:535:CB:4830, V-A:TYR:531:CZ:4792, V-B:MET:535:CE:9807, V-A:ASN:362:CB:3174, V-B:TYR:531:CE1:9764"]

$$$$
4al_Grossjean_2025
     RDKit          3D

 16 17  0  0  0  0  0  0  0  0999 V2000
  129.0010  131.4010   53.5700 C   0  0  0  0  0  0  0  0  0  0  0  0
  130.0440  132.1760   54.1430 O   0  0  0  0  0  0  0  0  0  0  0  0
  130.9340  131.6180   55.0040 C   0  0  0  0  0  0  0  0  0  0  0  0
  131.9950  131.0950   54.6570 O   0  0  0  0  0  0  0  0  0  0  0  0
  130.4980  131.7010   56.4150 C   0  0  0  0  0  0  0  0  0  0  0  0
  128.9850  132.5120   56.8250 S   0  0  0  0  0  0  0  0  0  0  0  0
  129.2200  132.1810   58.5260 C   0  0  0  0  0  0  0  0  0  0  0  0
  128.3400  132.5720   59.4480 N   0  0  0  0  0  0  0  0  0  0  0  0
  128.6410  132.2530   60.7320 C   0  0  0  0  0  0  0  0  0  0  0  0
  127.6270  132.7080   61.7650 C   0  0  0  0  0  0  0  0  0  0  0  0
  129.7880  131.5590   61.1090 C   0  0  0  0  0  0  0  0  0  0  0  0
  130.7090  131.1490   60.1390 C   0  0  0  0  0  0  0  0  0  0  0  0
  131.9460  130.3940   60.5980 C   0  0  0  0  0  0  0  0  0  0  0  0
  130.4270  131.4660   58.7820 C   0  0  0  0  0  0  0  0  0  0  0  0
  131.1360  131.2060   57.5600 C   0  0  0  0  0  0  0  0  0  0  0  0
  132.3300  130.5330   57.5270 N   0  0  0  0  0  0  0  0  0  0  0  0
  1  2  1  0
  2  3  1  0
  3  4  2  0
  3  5  1  0
  5  6  1  0
  6  7  1  0
  7  8  2  0
  8  9  1  0
  9 10  1  0
  9 11  2  0
 11 12  1  0
 12 13  1  0
 12 14  2  0
 14 15  1  0
 15 16  1  0
 15  5  2  0
 14  7  1  0
M  END
>  <Binding energies>  (48) 
[-5.65]

>  <Ligand effiencies>  (48) 
[-0.3138888888888889]

>  <Interactions>  (48) 
["V-A:TYR:539:CD2:4872, V-A:TYR:539:CE2:4874, H-A:ASP:366:OD2:3213, V-A:TYR:539:CZ:4875, V-A:PRO:540:CA:4881, V-A:ALA:541:CB:4890, V-A:TYR:539:CD1:4871, V-A:PRO:540:N:4882, V-A:TYR:539:CG:4870, V-A:TYR:539:CE1:4873, V-A:TYR:539:C:4865, V-A:ILE:538:CB:4860, V-A:ILE:538:CG2:4861, H-A:TYR:539:N:4868, H-A:TYR:531:OH:4793, V-A:MET:535:CG:4831, V-A:ILE:538:CA:4858, V-A:MET:535:CB:4830, V-A:TYR:539:CA:4867"]

$$$$
4bc_Grossjean_2025
     RDKit          3D

 26 28  0  0  0  0  0  0  0  0999 V2000
  123.7150  129.9210   66.7920 C   0  0  0  0  0  0  0  0  0  0  0  0
  123.2730  129.6880   65.4590 O   0  0  0  0  0  0  0  0  0  0  0  0
  124.1370  129.9370   64.4100 C   0  0  0  0  0  0  0  0  0  0  0  0
  125.4990  129.9310   64.7110 C   0  0  0  0  0  0  0  0  0  0  0  0
  126.4450  130.1720   63.7180 C   0  0  0  0  0  0  0  0  0  0  0  0
  126.0400  130.4140   62.4050 C   0  0  0  0  0  0  0  0  0  0  0  0
  127.0650  130.6620   61.4740 N   0  0  0  0  0  0  0  0  0  0  0  0
  127.1510  131.6320   60.5310 C   0  0  0  0  0  0  0  0  0  0  0  0
  126.2700  132.4660   60.3210 O   0  0  0  0  0  0  0  0  0  0  0  0
  128.3860  131.6340   59.7400 C   0  0  0  0  0  0  0  0  0  0  0  0
  128.3260  131.9180   58.0030 S   0  0  0  0  0  0  0  0  0  0  0  0
  130.0620  131.7610   57.8710 C   0  0  0  0  0  0  0  0  0  0  0  0
  130.6840  131.8870   56.6990 N   0  0  0  0  0  0  0  0  0  0  0  0
  132.0290  131.7430   56.7220 C   0  0  0  0  0  0  0  0  0  0  0  0
  132.7190  131.8960   55.3790 C   0  0  0  0  0  0  0  0  0  0  0  0
  132.7600  131.4790   57.8780 C   0  0  0  0  0  0  0  0  0  0  0  0
  132.1090  131.3450   59.1150 C   0  0  0  0  0  0  0  0  0  0  0  0
  132.9560  131.0510   60.3590 C   0  0  0  0  0  0  0  0  0  0  0  0
  132.9650  132.0590   61.2330 F   0  0  0  0  0  0  0  0  0  0  0  0
  132.4750  129.9790   60.9870 F   0  0  0  0  0  0  0  0  0  0  0  0
  134.2200  130.8220   60.0010 F   0  0  0  0  0  0  0  0  0  0  0  0
  130.6900  131.4920   59.1250 C   0  0  0  0  0  0  0  0  0  0  0  0
  129.7040  131.4280   60.1770 C   0  0  0  0  0  0  0  0  0  0  0  0
  130.0330  131.1880   61.4860 N   0  0  0  0  0  0  0  0  0  0  0  0
  124.6710  130.4350   62.0970 C   0  0  0  0  0  0  0  0  0  0  0  0
  123.7280  130.1940   63.0920 C   0  0  0  0  0  0  0  0  0  0  0  0
  1  2  1  0
  2  3  1  0
  3  4  2  0
  4  5  1  0
  5  6  2  0
  6  7  1  0
  7  8  1  0
  8  9  2  0
  8 10  1  0
 10 11  1  0
 11 12  1  0
 12 13  2  0
 13 14  1  0
 14 15  1  0
 14 16  2  0
 16 17  1  0
 17 18  1  0
 18 19  1  0
 18 20  1  0
 18 21  1  0
 17 22  2  0
 22 23  1  0
 23 24  1  0
  6 25  1  0
 25 26  2  0
 26  3  1  0
 23 10  2  0
 22 12  1  0
M  END
>  <Binding energies>  (49) 
[-6.67]

>  <Ligand effiencies>  (49) 
[-0.23]

>  <Interactions>  (49) 
["V-A:ARG:545:CZ:4924, H-A:GLU:543:OE2:4908, H-A:GLU:543:OE1:4907, V-B:ARG:545:CZ:9898, V-A:TYR:539:CD2:4872, V-A:TYR:539:CE2:4874, V-A:ASP:366:CG:3211, V-A:GLU:543:CD:4906, V-A:TYR:539:CZ:4875, V-A:PRO:540:CA:4881, V-A:ALA:541:CB:4890, H-A:ALA:541:O:4887, V-A:PRO:540:N:4882, V-A:TYR:539:CG:4870, V-A:TYR:539:C:4865, V-A:PRO:540:CB:4883, H-B:TYR:484:OH:9320, V-B:HIS:456:CE1:9042, V-B:TYR:484:CZ:9319, V-A:LEU:363:CA:3183, V-A:PRO:540:CD:4885, V-A:ILE:538:CB:4860, V-A:ILE:538:CG2:4861, V-A:LEU:363:CD1:3187, V-A:TYR:531:CE2:4791, V-B:ARG:545:CG:9894, H-A:TYR:539:N:4868, H-B:ARG:545:NE:9896, V-B:ARG:545:CD:9895, H-B:GLY:454:N:9022, V-A:TYR:531:CZ:4792, V-A:PRO:540:C:4879, V-A:ASN:362:CB:3174, V-A:ALA:541:C:4886, H-B:ARG:545:NH1:9899, V-B:GLY:454:CA:9021, V-A:ALA:541:CA:4888, V-A:ASN:362:C:3170, V-B:GLY:453:C:9014, V-B:GLY:453:CA:9016, V-B:ILE:455:C:9024, V-B:ARG:545:CB:9893, V-A:ASN:362:CA:3172"]

$$$$
4bf_Grossjean_2025
     RDKit          3D

 24 26  0  0  0  0  0  0  0  0999 V2000
  131.7510  132.1540   55.3960 C   0  0  0  0  0  0  0  0  0  0  0  0
  131.2510  131.9020   56.8070 C   0  0  0  0  0  0  0  0  0  0  0  0
  132.1390  131.6490   57.8490 C   0  0  0  0  0  0  0  0  0  0  0  0
  131.6630  131.4150   59.1480 C   0  0  0  0  0  0  0  0  0  0  0  0
  132.6780  131.1380   60.2620 C   0  0  0  0  0  0  0  0  0  0  0  0
  132.7160  132.1020   61.1860 F   0  0  0  0  0  0  0  0  0  0  0  0
  132.3680  130.0010   60.8840 F   0  0  0  0  0  0  0  0  0  0  0  0
  133.9020  131.0370   59.7420 F   0  0  0  0  0  0  0  0  0  0  0  0
  130.2500  131.4480   59.3410 C   0  0  0  0  0  0  0  0  0  0  0  0
  129.4130  131.2590   60.5000 C   0  0  0  0  0  0  0  0  0  0  0  0
  129.9230  130.9880   61.7440 N   0  0  0  0  0  0  0  0  0  0  0  0
  128.0370  131.3800   60.2420 C   0  0  0  0  0  0  0  0  0  0  0  0
  126.9150  131.2180   61.1720 C   0  0  0  0  0  0  0  0  0  0  0  0
  125.7870  131.6050   60.8670 O   0  0  0  0  0  0  0  0  0  0  0  0
  127.2180  130.6130   62.3470 N   0  0  0  0  0  0  0  0  0  0  0  0
  126.3940  130.3530   63.4590 C   0  0  0  0  0  0  0  0  0  0  0  0
  126.8210  129.7890   64.6740 C   0  0  0  0  0  0  0  0  0  0  0  0
  125.8950  129.5690   65.6970 C   0  0  0  0  0  0  0  0  0  0  0  0
  124.5610  129.9140   65.4750 C   0  0  0  0  0  0  0  0  0  0  0  0
  124.1230  130.4530   64.3100 N   0  0  0  0  0  0  0  0  0  0  0  0
  125.0350  130.6610   63.3260 C   0  0  0  0  0  0  0  0  0  0  0  0
  127.7370  131.7300   58.5410 S   0  0  0  0  0  0  0  0  0  0  0  0
  129.4490  131.7190   58.1880 C   0  0  0  0  0  0  0  0  0  0  0  0
  129.9060  131.9420   56.9570 N   0  0  0  0  0  0  0  0  0  0  0  0
  1  2  1  0
  2  3  2  0
  3  4  1  0
  4  5  1  0
  5  6  1  0
  5  7  1  0
  5  8  1  0
  4  9  2  0
  9 10  1  0
 10 11  1  0
 10 12  2  0
 12 13  1  0
 13 14  2  0
 13 15  1  0
 15 16  1  0
 16 17  2  0
 17 18  1  0
 18 19  2  0
 19 20  1  0
 20 21  2  0
 12 22  1  0
 22 23  1  0
 23 24  2  0
 24  2  1  0
 23  9  1  0
 21 16  1  0
M  END
>  <Binding energies>  (50) 
[-7.03]

>  <Ligand effiencies>  (50) 
[-0.26037037037037036]

>  <Interactions>  (50) 
["V-A:ARG:545:CZ:4924, H-A:GLU:543:OE2:4908, H-A:GLU:543:OE1:4907, V-B:ARG:545:CZ:9898, V-A:TYR:539:CD2:4872, V-A:TYR:539:CE2:4874, V-A:ASP:366:CG:3211, V-A:GLU:543:CD:4906, V-A:TYR:539:CZ:4875, V-A:PRO:540:CA:4881, H-A:ALA:541:O:4887, V-A:PRO:540:N:4882, V-A:TYR:539:C:4865, V-A:PRO:540:CB:4883, H-B:TYR:484:OH:9320, V-B:HIS:456:CE1:9042, V-A:LEU:363:CA:3183, V-A:PRO:540:CD:4885, V-A:ILE:538:CB:4860, V-A:ILE:538:CG2:4861, V-B:ARG:545:CG:9894, V-B:ARG:545:CD:9895, H-B:GLY:454:N:9022, V-A:ILE:538:CA:4858, V-A:PRO:540:C:4879, V-A:ASN:362:CB:3174, V-A:ALA:541:C:4886, V-A:ALA:541:CA:4888, V-A:ASN:362:C:3170"]

$$$$
4bh_Grossjean_2025
     RDKit          3D

 31 33  0  0  0  0  0  0  0  0999 V2000
  124.0440  123.1790   55.8870 C   0  0  0  0  0  0  0  0  0  0  0  0
  125.3010  122.5500   56.1090 O   0  0  0  0  0  0  0  0  0  0  0  0
  126.2030  123.1260   56.9850 C   0  0  0  0  0  0  0  0  0  0  0  0
  125.8670  123.5820   58.2690 C   0  0  0  0  0  0  0  0  0  0  0  0
  126.8300  124.1560   59.1010 C   0  0  0  0  0  0  0  0  0  0  0  0
  126.4560  124.6040   60.5080 C   0  0  0  0  0  0  0  0  0  0  0  0
  126.2330  126.0460   60.6230 N   0  0  0  0  0  0  0  0  0  0  0  0
  127.1880  126.9680   60.8580 C   0  0  0  0  0  0  0  0  0  0  0  0
  128.3690  126.6670   61.0430 O   0  0  0  0  0  0  0  0  0  0  0  0
  126.7370  128.3580   60.9270 C   0  0  0  0  0  0  0  0  0  0  0  0
  125.9160  129.0890   59.5510 S   0  0  0  0  0  0  0  0  0  0  0  0
  125.7860  130.6190   60.3860 C   0  0  0  0  0  0  0  0  0  0  0  0
  125.2020  131.6730   59.8170 N   0  0  0  0  0  0  0  0  0  0  0  0
  125.1580  132.8010   60.5630 C   0  0  0  0  0  0  0  0  0  0  0  0
  124.4910  133.9910   59.8960 C   0  0  0  0  0  0  0  0  0  0  0  0
  125.6770  132.9000   61.8510 C   0  0  0  0  0  0  0  0  0  0  0  0
  126.2960  131.7930   62.4540 C   0  0  0  0  0  0  0  0  0  0  0  0
  126.8500  131.9480   63.8750 C   0  0  0  0  0  0  0  0  0  0  0  0
  126.6570  130.8660   64.6330 F   0  0  0  0  0  0  0  0  0  0  0  0
  128.1630  132.1700   63.8250 F   0  0  0  0  0  0  0  0  0  0  0  0
  126.2530  132.9730   64.4820 F   0  0  0  0  0  0  0  0  0  0  0  0
  126.3610  130.5880   61.6940 C   0  0  0  0  0  0  0  0  0  0  0  0
  126.9090  129.2830   61.9690 C   0  0  0  0  0  0  0  0  0  0  0  0
  127.5360  128.9740   63.1490 N   0  0  0  0  0  0  0  0  0  0  0  0
  128.1510  124.2510   58.6590 C   0  0  0  0  0  0  0  0  0  0  0  0
  128.5150  123.8100   57.3770 C   0  0  0  0  0  0  0  0  0  0  0  0
  129.7990  123.8860   56.8700 O   0  0  0  0  0  0  0  0  0  0  0  0
  130.6370  124.9720   57.2530 C   0  0  0  0  0  0  0  0  0  0  0  0
  127.5290  123.2540   56.5480 C   0  0  0  0  0  0  0  0  0  0  0  0
  127.8760  122.8010   55.2960 O   0  0  0  0  0  0  0  0  0  0  0  0
  127.6440  123.7420   54.2570 C   0  0  0  0  0  0  0  0  0  0  0  0
  1  2  1  0
  2  3  1  0
  3  4  2  0
  4  5  1  0
  5  6  1  0
  6  7  1  0
  7  8  1  0
  8  9  2  0
  8 10  1  0
 10 11  1  0
 11 12  1  0
 12 13  2  0
 13 14  1  0
 14 15  1  0
 14 16  2  0
 16 17  1  0
 17 18  1  0
 18 19  1  0
 18 20  1  0
 18 21  1  0
 17 22  2  0
 22 23  1  0
 23 24  1  0
  5 25  2  0
 25 26  1  0
 26 27  1  0
 27 28  1  0
 26 29  2  0
 29 30  1  0
 30 31  1  0
 29  3  1  0
 23 10  2  0
 22 12  1  0
M  END
>  <Binding energies>  (51) 
[-6.22]

>  <Ligand effiencies>  (51) 
[-0.18294117647058822]

>  <Interactions>  (51) 
["V-B:ASP:366:CG:8185, H-B:ASP:366:OD2:8187, V-B:PRO:540:CA:9855, V-B:TYR:539:CZ:9849, H-B:GLU:543:OE2:9882, V-B:TYR:539:CE2:9848, H-A:GLU:543:OE2:4908, H-A:GLU:543:OE1:4907, V-A:TYR:539:CD2:4872, V-A:TYR:539:CE2:4874, V-A:GLU:543:CD:4906, V-A:ALA:541:CB:4890, V-B:LEU:475:CD2:9231, V-B:TRP:381:CH2:8344, V-B:ILE:369:CG2:8209, V-B:ILE:538:CA:9832, V-B:PRO:540:CB:9857, V-B:PRO:540:CD:9859, V-B:PRO:540:N:9856, V-B:TYR:539:C:9839, V-B:ILE:538:CB:9834, V-B:ILE:538:CG2:9835, H-B:TYR:539:N:9842, V-A:GLU:543:CB:4904, V-B:TYR:484:CZ:9319, V-B:TYR:484:CE1:9317, V-B:LEU:363:CD1:8161, H-B:ASP:366:OD1:8186, V-B:TYR:531:CE2:9765, V-B:TYR:531:CZ:9766, H-B:TYR:539:OH:9850"]

$$$$
4bi_Grossjean_2025
     RDKit          3D

 23 25  0  0  0  0  0  0  0  0999 V2000
  132.0280  132.0710   55.4620 C   0  0  0  0  0  0  0  0  0  0  0  0
  131.4680  131.8430   56.8540 C   0  0  0  0  0  0  0  0  0  0  0  0
  132.3100  131.5890   57.9330 C   0  0  0  0  0  0  0  0  0  0  0  0
  131.7780  131.3840   59.2170 C   0  0  0  0  0  0  0  0  0  0  0  0
  132.7440  131.1150   60.3750 C   0  0  0  0  0  0  0  0  0  0  0  0
  132.7520  132.0920   61.2860 F   0  0  0  0  0  0  0  0  0  0  0  0
  132.3980  129.9900   61.0000 F   0  0  0  0  0  0  0  0  0  0  0  0
  133.9870  130.9950   59.9080 F   0  0  0  0  0  0  0  0  0  0  0  0
  130.3590  131.4460   59.3520 C   0  0  0  0  0  0  0  0  0  0  0  0
  129.4730  131.2890   60.4800 C   0  0  0  0  0  0  0  0  0  0  0  0
  129.9250  131.0140   61.7450 N   0  0  0  0  0  0  0  0  0  0  0  0
  128.1120  131.4480   60.1680 C   0  0  0  0  0  0  0  0  0  0  0  0
  126.9530  131.3420   61.0580 C   0  0  0  0  0  0  0  0  0  0  0  0
  125.8340  131.6950   60.6780 O   0  0  0  0  0  0  0  0  0  0  0  0
  127.2060  130.8240   62.2850 N   0  0  0  0  0  0  0  0  0  0  0  0
  126.2980  130.6020   63.3130 C   0  0  0  0  0  0  0  0  0  0  0  0
  126.6120  129.8810   64.4640 C   0  0  0  0  0  0  0  0  0  0  0  0
  125.4610  129.8900   65.2180 C   0  0  0  0  0  0  0  0  0  0  0  0
  124.5040  130.5820   64.5560 O   0  0  0  0  0  0  0  0  0  0  0  0
  125.0470  131.0280   63.3490 N   0  0  0  0  0  0  0  0  0  0  0  0
  127.8860  131.7750   58.4510 S   0  0  0  0  0  0  0  0  0  0  0  0
  129.6100  131.7160   58.1660 C   0  0  0  0  0  0  0  0  0  0  0  0
  130.1200  131.9100   56.9500 N   0  0  0  0  0  0  0  0  0  0  0  0
  1  2  1  0
  2  3  2  0
  3  4  1  0
  4  5  1  0
  5  6  1  0
  5  7  1  0
  5  8  1  0
  4  9  2  0
  9 10  1  0
 10 11  1  0
 10 12  2  0
 12 13  1  0
 13 14  2  0
 13 15  1  0
 15 16  1  0
 16 17  1  0
 17 18  2  0
 18 19  1  0
 19 20  1  0
 12 21  1  0
 21 22  1  0
 22 23  2  0
 23  2  1  0
 22  9  1  0
 20 16  2  0
M  END
>  <Binding energies>  (52) 
[-6.73]

>  <Ligand effiencies>  (52) 
[-0.25884615384615384]

>  <Interactions>  (52) 
["V-A:ARG:545:CZ:4924, H-A:GLU:543:OE2:4908, H-A:GLU:543:OE1:4907, V-B:ARG:545:CZ:9898, V-A:TYR:539:CD2:4872, V-A:TYR:539:CE2:4874, V-A:ASP:366:CG:3211, V-A:GLU:543:CD:4906, V-A:TYR:539:CZ:4875, V-A:PRO:540:CA:4881, H-A:ALA:541:O:4887, V-A:PRO:540:N:4882, V-A:TYR:539:C:4865, V-A:PRO:540:CB:4883, H-B:TYR:484:OH:9320, V-B:HIS:456:CE1:9042, V-A:LEU:363:CA:3183, V-A:PRO:540:CD:4885, V-A:ILE:538:CB:4860, V-A:ILE:538:CG2:4861, V-A:TYR:531:CE2:4791, H-B:GLY:454:N:9022, V-A:ILE:538:CA:4858, V-A:PRO:540:C:4879, V-A:ASN:362:CB:3174, V-A:ALA:541:C:4886, V-A:ALA:541:CA:4888, V-A:ASN:362:C:3170, V-A:ASN:362:CA:3172"]

$$$$
4bj_Grossjean_2025
     RDKit          3D

 23 25  0  0  0  0  0  0  0  0999 V2000
  125.9730  116.5520   70.7460 C   0  0  0  0  0  0  0  0  0  0  0  0
  126.7610  117.4870   71.6470 C   0  0  0  0  0  0  0  0  0  0  0  0
  127.1030  117.1130   72.9440 C   0  0  0  0  0  0  0  0  0  0  0  0
  127.8270  117.9900   73.7680 C   0  0  0  0  0  0  0  0  0  0  0  0
  128.1780  117.5360   75.1890 C   0  0  0  0  0  0  0  0  0  0  0  0
  127.7690  118.3920   76.1270 F   0  0  0  0  0  0  0  0  0  0  0  0
  127.6030  116.3600   75.4420 F   0  0  0  0  0  0  0  0  0  0  0  0
  129.5010  117.4150   75.3080 F   0  0  0  0  0  0  0  0  0  0  0  0
  128.1870  119.2550   73.2170 C   0  0  0  0  0  0  0  0  0  0  0  0
  128.9060  120.3880   73.7470 C   0  0  0  0  0  0  0  0  0  0  0  0
  129.4090  120.4160   75.0230 N   0  0  0  0  0  0  0  0  0  0  0  0
  129.0510  121.4510   72.8410 C   0  0  0  0  0  0  0  0  0  0  0  0
  129.7090  122.7430   73.0480 C   0  0  0  0  0  0  0  0  0  0  0  0
  129.2210  123.7800   72.5920 O   0  0  0  0  0  0  0  0  0  0  0  0
  130.8540  122.7050   73.7720 N   0  0  0  0  0  0  0  0  0  0  0  0
  131.6590  123.7820   74.1180 C   0  0  0  0  0  0  0  0  0  0  0  0
  131.4090  125.0630   73.9560 N   0  0  0  0  0  0  0  0  0  0  0  0
  132.3950  125.8110   74.4060 C   0  0  0  0  0  0  0  0  0  0  0  0
  133.4820  125.1340   74.9500 C   0  0  0  0  0  0  0  0  0  0  0  0
  133.1860  123.4230   74.8590 S   0  0  0  0  0  0  0  0  0  0  0  0
  128.2760  121.0870   71.3010 S   0  0  0  0  0  0  0  0  0  0  0  0
  127.7780  119.5120   71.8720 C   0  0  0  0  0  0  0  0  0  0  0  0
  127.0890  118.6780   71.0950 N   0  0  0  0  0  0  0  0  0  0  0  0
  1  2  1  0
  2  3  2  0
  3  4  1  0
  4  5  1  0
  5  6  1  0
  5  7  1  0
  5  8  1  0
  4  9  2  0
  9 10  1  0
 10 11  1  0
 10 12  2  0
 12 13  1  0
 13 14  2  0
 13 15  1  0
 15 16  1  0
 16 17  2  0
 17 18  1  0
 18 19  2  0
 19 20  1  0
 12 21  1  0
 21 22  1  0
 22 23  2  0
 23  2  1  0
 22  9  1  0
 20 16  1  0
M  END
>  <Binding energies>  (53) 
[-6.42]

>  <Ligand effiencies>  (53) 
[-0.2469230769230769]

>  <Interactions>  (53) 
["V-A:HIS:456:CB:4063, V-A:HIS:456:CG:4064, H-B:LYS:547:NZ:9923, V-A:VAL:458:CG2:4085, V-A:HIS:456:CD2:4066, V-A:LYS:471:CE:4218, V-B:LYS:547:CE:9922, V-A:HIS:456:C:4059, V-A:LYS:471:CD:4217, V-A:ASP:473:CG:4238, H-A:TYR:484:N:4338, V-B:VAL:542:CG1:9871, V-B:GLY:544:CA:9886, V-B:GLU:543:C:9874, V-B:GLU:543:CA:9876, V-A:TYR:484:CB:4339, H-A:ASP:473:OD2:4240, V-A:SER:483:CB:4331, V-A:TYR:484:CD1:4341, V-A:TYR:484:CG:4340"]

$$$$
4bk_Grossjean_2025
     RDKit          3D

 28 29  0  0  0  0  0  0  0  0999 V2000
  124.9300  129.5830   56.5000 C   0  0  0  0  0  0  0  0  0  0  0  0
  125.9750  129.1960   55.6210 O   0  0  0  0  0  0  0  0  0  0  0  0
  127.1900  128.8840   56.2890 C   0  0  0  0  0  0  0  0  0  0  0  0
  128.3790  129.3050   55.4160 C   0  0  0  0  0  0  0  0  0  0  0  0
  128.7990  130.6110   55.7870 O   0  0  0  0  0  0  0  0  0  0  0  0
  128.9720  131.4930   54.6870 C   0  0  0  0  0  0  0  0  0  0  0  0
  130.4580  131.8490   54.5470 C   0  0  0  0  0  0  0  0  0  0  0  0
  130.8900  132.5310   55.7160 O   0  0  0  0  0  0  0  0  0  0  0  0
  132.1540  132.0960   56.2020 C   0  0  0  0  0  0  0  0  0  0  0  0
  132.0000  131.6010   57.6510 C   0  0  0  0  0  0  0  0  0  0  0  0
  130.6170  131.6040   58.1290 N   0  0  0  0  0  0  0  0  0  0  0  0
  130.2400  131.6850   59.4220 C   0  0  0  0  0  0  0  0  0  0  0  0
  131.0530  131.7870   60.3420 O   0  0  0  0  0  0  0  0  0  0  0  0
  128.7980  131.6550   59.6750 C   0  0  0  0  0  0  0  0  0  0  0  0
  127.6680  131.5010   58.3320 S   0  0  0  0  0  0  0  0  0  0  0  0
  126.3030  131.5150   59.4230 C   0  0  0  0  0  0  0  0  0  0  0  0
  125.0520  131.4230   58.9730 N   0  0  0  0  0  0  0  0  0  0  0  0
  124.0790  131.4430   59.9130 C   0  0  0  0  0  0  0  0  0  0  0  0
  122.6620  131.3350   59.3770 C   0  0  0  0  0  0  0  0  0  0  0  0
  124.3240  131.5510   61.2790 C   0  0  0  0  0  0  0  0  0  0  0  0
  125.6390  131.6500   61.7600 C   0  0  0  0  0  0  0  0  0  0  0  0
  125.8590  131.7720   63.2710 C   0  0  0  0  0  0  0  0  0  0  0  0
  126.5330  132.8720   63.6140 F   0  0  0  0  0  0  0  0  0  0  0  0
  124.6830  131.8130   63.8960 F   0  0  0  0  0  0  0  0  0  0  0  0
  126.5550  130.7250   63.7120 F   0  0  0  0  0  0  0  0  0  0  0  0
  126.6900  131.6310   60.7950 C   0  0  0  0  0  0  0  0  0  0  0  0
  128.1260  131.7050   60.9050 C   0  0  0  0  0  0  0  0  0  0  0  0
  128.7720  131.8160   62.1090 N   0  0  0  0  0  0  0  0  0  0  0  0
  1  2  1  0
  2  3  1  0
  3  4  1  0
  4  5  1  0
  5  6  1  0
  6  7  1  0
  7  8  1  0
  8  9  1  0
  9 10  1  0
 10 11  1  0
 11 12  1  0
 12 13  2  0
 12 14  1  0
 14 15  1  0
 15 16  1  0
 16 17  2  0
 17 18  1  0
 18 19  1  0
 18 20  2  0
 20 21  1  0
 21 22  1  0
 22 23  1  0
 22 24  1  0
 22 25  1  0
 21 26  2  0
 26 27  1  0
 27 28  1  0
 27 14  2  0
 26 16  1  0
M  END
>  <Binding energies>  (54) 
[-5.52]

>  <Ligand effiencies>  (54) 
[-0.17806451612903224]

>  <Interactions>  (54) 
["V-B:ASP:366:CG:8185, H-A:GLU:543:OE1:4907, H-A:ALA:541:N:4889, V-A:TYR:539:CD2:4872, V-A:TYR:539:CE2:4874, V-A:GLU:543:CD:4906, V-A:TYR:539:CZ:4875, V-A:PRO:540:CA:4881, V-A:ALA:541:CB:4890, H-A:ALA:541:O:4887, V-A:TYR:539:CD1:4871, V-B:LEU:475:CD2:9231, V-A:PRO:540:N:4882, V-A:TYR:539:CE1:4873, V-B:ILE:369:CG2:8209, V-A:TYR:539:C:4865, V-A:PRO:540:CB:4883, H-B:TYR:531:OH:9767, V-A:PRO:540:CD:4885, V-A:ILE:538:CB:4860, V-A:ILE:538:CG2:4861, V-B:ASP:366:CB:8184, H-A:TYR:539:N:4868, V-B:ASP:366:CA:8182, V-B:ILE:369:CD1:8211, V-B:ILE:369:CB:8208, V-A:ILE:538:CA:4858, H-A:TYR:539:OH:4876, V-B:TYR:531:CZ:9766, V-B:GLY:454:CA:9021, V-B:TYR:531:CE1:9764, V-B:ASP:366:C:8180, V-B:ILE:369:CG1:8210"]

$$$$
4cd_Grossjean_2025
     RDKit          3D

 29 32  0  0  0  0  0  0  0  0999 V2000
  129.0000  134.0760   75.7530 N   0  0  0  0  0  0  0  0  0  0  0  0
  129.4870  134.2100   74.4770 C   0  0  0  0  0  0  0  0  0  0  0  0
  129.2990  133.2430   73.4760 C   0  0  0  0  0  0  0  0  0  0  0  0
  128.6030  131.9560   73.5680 C   0  0  0  0  0  0  0  0  0  0  0  0
  129.0450  130.9610   72.9920 O   0  0  0  0  0  0  0  0  0  0  0  0
  127.4780  131.9570   74.3240 N   0  0  0  0  0  0  0  0  0  0  0  0
  126.5640  130.9160   74.5710 C   0  0  0  0  0  0  0  0  0  0  0  0
  125.4450  131.2530   75.3390 C   0  0  0  0  0  0  0  0  0  0  0  0
  124.4770  130.2960   75.6270 C   0  0  0  0  0  0  0  0  0  0  0  0
  124.6220  128.9990   75.1410 C   0  0  0  0  0  0  0  0  0  0  0  0
  125.7240  128.6530   74.3630 C   0  0  0  0  0  0  0  0  0  0  0  0
  126.6960  129.6080   74.0730 C   0  0  0  0  0  0  0  0  0  0  0  0
  130.0470  133.7440   71.9610 S   0  0  0  0  0  0  0  0  0  0  0  0
  130.6130  135.2320   72.6790 C   0  0  0  0  0  0  0  0  0  0  0  0
  131.3140  136.1200   71.9770 N   0  0  0  0  0  0  0  0  0  0  0  0
  131.7220  137.2420   72.6260 C   0  0  0  0  0  0  0  0  0  0  0  0
  132.5130  138.2230   71.8100 C   0  0  0  0  0  0  0  0  0  0  0  0
  133.7920  137.8940   71.3320 C   0  0  0  0  0  0  0  0  0  0  0  0
  134.5300  138.7980   70.5740 C   0  0  0  0  0  0  0  0  0  0  0  0
  133.9980  140.0490   70.2810 C   0  0  0  0  0  0  0  0  0  0  0  0
  132.7330  140.3990   70.7390 C   0  0  0  0  0  0  0  0  0  0  0  0
  131.9970  139.4920   71.4950 C   0  0  0  0  0  0  0  0  0  0  0  0
  131.4080  137.4760   73.9680 C   0  0  0  0  0  0  0  0  0  0  0  0
  130.6650  136.5480   74.7160 C   0  0  0  0  0  0  0  0  0  0  0  0
  130.3600  136.8660   76.1850 C   0  0  0  0  0  0  0  0  0  0  0  0
  130.8820  138.0260   76.5900 F   0  0  0  0  0  0  0  0  0  0  0  0
  129.0410  136.9370   76.3660 F   0  0  0  0  0  0  0  0  0  0  0  0
  130.8610  135.9090   76.9660 F   0  0  0  0  0  0  0  0  0  0  0  0
  130.2430  135.3620   74.0500 C   0  0  0  0  0  0  0  0  0  0  0  0
  1  2  1  0
  2  3  2  0
  3  4  1  0
  4  5  2  0
  4  6  1  0
  6  7  1  0
  7  8  2  0
  8  9  1  0
  9 10  2  0
 10 11  1  0
 11 12  2  0
  3 13  1  0
 13 14  1  0
 14 15  2  0
 15 16  1  0
 16 17  1  0
 17 18  2  0
 18 19  1  0
 19 20  2  0
 20 21  1  0
 21 22  2  0
 16 23  2  0
 23 24  1  0
 24 25  1  0
 25 26  1  0
 25 27  1  0
 25 28  1  0
 24 29  2  0
 29  2  1  0
 12  7  1  0
 29 14  1  0
 22 17  1  0
M  END
>  <Binding energies>  (55) 
[-6.85]

>  <Ligand effiencies>  (55) 
[-0.2140625]

>  <Interactions>  (55) 
["V-B:HIS:456:CD2:9040, V-B:HIS:456:C:9033, H-A:LYS:547:NZ:4949, V-B:LYS:471:CE:9192, V-B:HIS:456:CG:9038, V-B:VAL:457:C:9045, V-B:VAL:458:CG2:9059, V-B:ASP:473:CG:9212, V-A:LYS:547:CE:4948, V-B:HIS:456:CB:9037, V-B:LYS:471:CD:9191, V-A:GLU:543:C:4900, V-A:GLY:544:CA:4912, V-B:TYR:484:CB:9313, H-B:ASP:473:OD2:9214, H-B:ASP:473:OD1:9213, V-A:VAL:542:CG1:4897, V-B:SER:483:CB:9305"]

$$$$
4cg_Grossjean_2025
     RDKit          3D

 30 33  0  0  0  0  0  0  0  0999 V2000
  125.8930  132.6530   63.8460 N   0  0  0  0  0  0  0  0  0  0  0  0
  126.5360  131.6690   63.1390 C   0  0  0  0  0  0  0  0  0  0  0  0
  126.6580  130.3500   63.5970 C   0  0  0  0  0  0  0  0  0  0  0  0
  126.1210  129.7550   64.8200 C   0  0  0  0  0  0  0  0  0  0  0  0
  125.0300  130.1020   65.2780 O   0  0  0  0  0  0  0  0  0  0  0  0
  126.9080  128.8440   65.4300 N   0  0  0  0  0  0  0  0  0  0  0  0
  126.5670  128.1090   66.6470 C   0  0  0  0  0  0  0  0  0  0  0  0
  127.7700  127.8220   67.5390 C   0  0  0  0  0  0  0  0  0  0  0  0
  127.5830  127.6040   68.9070 C   0  0  0  0  0  0  0  0  0  0  0  0
  128.6750  127.3110   69.7200 C   0  0  0  0  0  0  0  0  0  0  0  0
  129.9480  127.2270   69.1610 C   0  0  0  0  0  0  0  0  0  0  0  0
  130.1380  127.4280   67.7960 C   0  0  0  0  0  0  0  0  0  0  0  0
  129.0470  127.7190   66.9820 C   0  0  0  0  0  0  0  0  0  0  0  0
  127.5220  129.3440   62.4360 S   0  0  0  0  0  0  0  0  0  0  0  0
  127.7340  130.7020   61.3560 C   0  0  0  0  0  0  0  0  0  0  0  0
  128.3740  130.5730   60.1970 N   0  0  0  0  0  0  0  0  0  0  0  0
  128.4860  131.6830   59.4210 C   0  0  0  0  0  0  0  0  0  0  0  0
  129.2150  131.5050   58.1200 C   0  0  0  0  0  0  0  0  0  0  0  0
  128.5330  131.5840   56.8940 C   0  0  0  0  0  0  0  0  0  0  0  0
  129.2040  131.4190   55.6860 C   0  0  0  0  0  0  0  0  0  0  0  0
  130.5730  131.1690   55.6850 C   0  0  0  0  0  0  0  0  0  0  0  0
  131.2730  131.0830   56.8830 C   0  0  0  0  0  0  0  0  0  0  0  0
  130.5980  131.2480   58.0890 C   0  0  0  0  0  0  0  0  0  0  0  0
  127.9710  132.9200   59.8230 C   0  0  0  0  0  0  0  0  0  0  0  0
  127.2940  133.0680   61.0440 C   0  0  0  0  0  0  0  0  0  0  0  0
  126.7550  134.4520   61.4230 C   0  0  0  0  0  0  0  0  0  0  0  0
  125.4240  134.5270   61.3720 F   0  0  0  0  0  0  0  0  0  0  0  0
  127.1250  134.7530   62.6690 F   0  0  0  0  0  0  0  0  0  0  0  0
  127.2390  135.3680   60.5870 F   0  0  0  0  0  0  0  0  0  0  0  0
  127.1580  131.9060   61.8590 C   0  0  0  0  0  0  0  0  0  0  0  0
  1  2  1  0
  2  3  2  0
  3  4  1  0
  4  5  2  0
  4  6  1  0
  6  7  1  0
  7  8  1  0
  8  9  2  0
  9 10  1  0
 10 11  2  0
 11 12  1  0
 12 13  2  0
  3 14  1  0
 14 15  1  0
 15 16  2  0
 16 17  1  0
 17 18  1  0
 18 19  2  0
 19 20  1  0
 20 21  2  0
 21 22  1  0
 22 23  2  0
 17 24  2  0
 24 25  1  0
 25 26  1  0
 26 27  1  0
 26 28  1  0
 26 29  1  0
 25 30  2  0
 30  2  1  0
 13  8  1  0
 30 15  1  0
 23 18  1  0
M  END
>  <Binding energies>  (56) 
[-8.06]

>  <Ligand effiencies>  (56) 
[-0.24424242424242426]

>  <Interactions>  (56) 
["V-A:HIS:456:CE1:4068, V-B:GLU:543:CD:9880, H-B:GLU:543:OE2:9882, H-A:GLU:543:OE2:4908, H-A:GLU:543:OE1:4907, V-A:TYR:539:CD2:4872, V-A:TYR:539:CE2:4874, V-A:GLU:543:CD:4906, V-A:TYR:539:CZ:4875, V-A:PRO:540:CA:4881, V-A:ALA:541:CB:4890, V-B:LEU:475:CD2:9231, V-B:TRP:381:CH2:8344, V-A:PRO:540:N:4882, V-B:TRP:381:CZ2:8342, V-A:TYR:539:CE1:4873, V-B:PRO:482:CB:9298, V-A:TYR:539:C:4865, V-B:GLU:543:C:9874, H-B:TYR:484:OH:9320, V-B:HIS:456:CE1:9042, V-A:GLU:543:CB:4904, V-B:TYR:484:CZ:9319, V-B:ARG:545:CG:9894, H-B:ARG:545:NE:9896, V-A:GLU:543:CG:4905, V-B:GLU:543:CG:9879, V-B:ARG:545:CD:9895, H-B:GLY:454:N:9022, V-B:LEU:475:CG:9229, V-B:LEU:475:CD1:9230"]

$$$$
4ch_Grossjean_2025
     RDKit          3D

 36 39  0  0  0  0  0  0  0  0999 V2000
  131.5760  126.7810   66.4940 C   0  0  0  0  0  0  0  0  0  0  0  0
  131.2350  127.4250   67.7170 O   0  0  0  0  0  0  0  0  0  0  0  0
  129.9070  127.5010   68.0960 C   0  0  0  0  0  0  0  0  0  0  0  0
  128.8480  127.7200   67.2010 C   0  0  0  0  0  0  0  0  0  0  0  0
  127.5290  127.7840   67.6540 C   0  0  0  0  0  0  0  0  0  0  0  0
  126.3950  128.0490   66.6710 C   0  0  0  0  0  0  0  0  0  0  0  0
  126.7990  128.7850   65.4730 N   0  0  0  0  0  0  0  0  0  0  0  0
  125.9970  129.5770   64.7310 C   0  0  0  0  0  0  0  0  0  0  0  0
  124.8160  129.7820   65.0210 O   0  0  0  0  0  0  0  0  0  0  0  0
  126.6200  130.2160   63.5720 C   0  0  0  0  0  0  0  0  0  0  0  0
  127.6570  129.2800   62.5000 S   0  0  0  0  0  0  0  0  0  0  0  0
  127.9240  130.6690   61.4740 C   0  0  0  0  0  0  0  0  0  0  0  0
  128.7000  130.5970   60.3960 N   0  0  0  0  0  0  0  0  0  0  0  0
  128.8440  131.7270   59.6560 C   0  0  0  0  0  0  0  0  0  0  0  0
  129.7320  131.6150   58.4500 C   0  0  0  0  0  0  0  0  0  0  0  0
  131.0650  131.1910   58.5750 C   0  0  0  0  0  0  0  0  0  0  0  0
  131.8940  131.0850   57.4610 C   0  0  0  0  0  0  0  0  0  0  0  0
  131.3990  131.4030   56.2010 C   0  0  0  0  0  0  0  0  0  0  0  0
  130.0840  131.8290   56.0480 C   0  0  0  0  0  0  0  0  0  0  0  0
  129.2600  131.9350   57.1660 C   0  0  0  0  0  0  0  0  0  0  0  0
  128.2220  132.9280   60.0130 C   0  0  0  0  0  0  0  0  0  0  0  0
  127.4010  133.0160   61.1490 C   0  0  0  0  0  0  0  0  0  0  0  0
  126.7500  134.3620   61.4820 C   0  0  0  0  0  0  0  0  0  0  0  0
  127.1140  134.8400   62.6740 F   0  0  0  0  0  0  0  0  0  0  0  0
  127.0920  135.2680   60.5680 F   0  0  0  0  0  0  0  0  0  0  0  0
  125.4230  134.2300   61.4950 F   0  0  0  0  0  0  0  0  0  0  0  0
  127.2340  131.8330   61.9250 C   0  0  0  0  0  0  0  0  0  0  0  0
  126.4850  131.5390   63.1230 C   0  0  0  0  0  0  0  0  0  0  0  0
  125.7190  132.4760   63.7690 N   0  0  0  0  0  0  0  0  0  0  0  0
  127.2630  127.6450   69.0170 C   0  0  0  0  0  0  0  0  0  0  0  0
  128.3030  127.4270   69.9350 C   0  0  0  0  0  0  0  0  0  0  0  0
  128.1120  127.2800   71.2970 O   0  0  0  0  0  0  0  0  0  0  0  0
  127.8180  128.4250   72.0890 C   0  0  0  0  0  0  0  0  0  0  0  0
  129.6200  127.3510   69.4600 C   0  0  0  0  0  0  0  0  0  0  0  0
  130.6490  127.1530   70.3490 O   0  0  0  0  0  0  0  0  0  0  0  0
  130.3600  126.2050   71.3670 C   0  0  0  0  0  0  0  0  0  0  0  0
  1  2  1  0
  2  3  1  0
  3  4  2  0
  4  5  1  0
  5  6  1  0
  6  7  1  0
  7  8  1  0
  8  9  2  0
  8 10  1  0
 10 11  1  0
 11 12  1  0
 12 13  2  0
 13 14  1  0
 14 15  1  0
 15 16  2  0
 16 17  1  0
 17 18  2  0
 18 19  1  0
 19 20  2  0
 14 21  2  0
 21 22  1  0
 22 23  1  0
 23 24  1  0
 23 25  1  0
 23 26  1  0
 22 27  2  0
 27 28  1  0
 28 29  1  0
  5 30  2  0
 30 31  1  0
 31 32  1  0
 32 33  1  0
 31 34  2  0
 34 35  1  0
 35 36  1  0
 34  3  1  0
 28 10  2  0
 27 12  1  0
 20 15  1  0
M  END
>  <Binding energies>  (57) 
[-7.19]

>  <Ligand effiencies>  (57) 
[-0.18435897435897436]

>  <Interactions>  (57) 
["V-A:HIS:456:CE1:4068, V-B:GLU:543:CD:9880, H-B:GLU:543:OE2:9882, H-A:GLU:543:OE2:4908, H-A:GLU:543:OE1:4907, V-B:ARG:545:CZ:9898, V-A:TYR:539:CD2:4872, V-A:TYR:539:CE2:4874, V-A:GLU:543:CD:4906, V-A:PRO:540:CA:4881, V-A:ALA:541:CB:4890, V-B:LEU:475:CD2:9231, V-B:TRP:381:CH2:8344, V-A:PRO:540:N:4882, V-B:TRP:381:CZ2:8342, V-B:PRO:482:CB:9298, V-A:TYR:539:C:4865, V-A:PRO:540:CB:4883, V-B:HIS:456:CD2:9040, V-A:HIS:456:CG:4064, H-A:HIS:456:ND1:4065, V-A:HIS:456:CD2:4066, V-B:HIS:456:CG:9038, V-B:GLY:544:C:9884, V-B:GLU:543:C:9874, H-B:TYR:484:OH:9320, V-B:HIS:456:CE1:9042, V-B:TYR:484:CZ:9319, V-B:ARG:545:CG:9894, V-A:GLU:543:C:4900, H-B:ARG:545:NE:9896, V-A:GLU:543:CG:4905, V-B:GLU:543:CG:9879, V-A:ARG:545:CD:4921, V-B:ARG:545:CD:9895, V-A:ARG:545:CG:4920, H-B:GLY:454:N:9022, V-B:GLY:454:CA:9021, V-B:LEU:475:CG:9229, V-B:LEU:475:CD1:9230"]

$$$$
4cj_Grossjean_2025
     RDKit          3D

 28 31  0  0  0  0  0  0  0  0999 V2000
  131.5920  122.3320   63.5530 N   0  0  0  0  0  0  0  0  0  0  0  0
  130.9650  123.3180   62.8340 C   0  0  0  0  0  0  0  0  0  0  0  0
  130.8150  124.6330   63.3010 C   0  0  0  0  0  0  0  0  0  0  0  0
  131.2710  125.2100   64.5680 C   0  0  0  0  0  0  0  0  0  0  0  0
  132.4300  125.0460   64.9560 O   0  0  0  0  0  0  0  0  0  0  0  0
  130.3360  125.9080   65.2600 N   0  0  0  0  0  0  0  0  0  0  0  0
  130.5070  126.5500   66.4790 C   0  0  0  0  0  0  0  0  0  0  0  0
  131.5810  127.1690   66.9210 N   0  0  0  0  0  0  0  0  0  0  0  0
  131.3900  127.6690   68.1260 C   0  0  0  0  0  0  0  0  0  0  0  0
  130.1340  127.4590   68.6880 C   0  0  0  0  0  0  0  0  0  0  0  0
  129.1570  126.5560   67.5680 S   0  0  0  0  0  0  0  0  0  0  0  0
  129.9760  125.6370   62.1200 S   0  0  0  0  0  0  0  0  0  0  0  0
  129.8300  124.2910   61.0150 C   0  0  0  0  0  0  0  0  0  0  0  0
  129.2390  124.4260   59.8310 N   0  0  0  0  0  0  0  0  0  0  0  0
  129.1790  123.3270   59.0350 C   0  0  0  0  0  0  0  0  0  0  0  0
  128.5170  123.5180   57.7010 C   0  0  0  0  0  0  0  0  0  0  0  0
  127.1610  123.2010   57.5200 C   0  0  0  0  0  0  0  0  0  0  0  0
  126.5420  123.3700   56.2840 C   0  0  0  0  0  0  0  0  0  0  0  0
  127.2740  123.8580   55.2060 C   0  0  0  0  0  0  0  0  0  0  0  0
  128.6190  124.1770   55.3580 C   0  0  0  0  0  0  0  0  0  0  0  0
  129.2330  124.0080   56.5960 C   0  0  0  0  0  0  0  0  0  0  0  0
  129.6920  122.0920   59.4440 C   0  0  0  0  0  0  0  0  0  0  0  0
  130.3160  121.9370   60.6920 C   0  0  0  0  0  0  0  0  0  0  0  0
  130.8590  120.5550   61.0750 C   0  0  0  0  0  0  0  0  0  0  0  0
  130.4150  119.5790   60.2810 F   0  0  0  0  0  0  0  0  0  0  0  0
  132.1900  120.5580   60.9990 F   0  0  0  0  0  0  0  0  0  0  0  0
  130.4910  120.2550   62.3200 F   0  0  0  0  0  0  0  0  0  0  0  0
  130.4010  123.0880   61.5260 C   0  0  0  0  0  0  0  0  0  0  0  0
  1  2  1  0
  2  3  2  0
  3  4  1  0
  4  5  2  0
  4  6  1  0
  6  7  1  0
  7  8  2  0
  8  9  1  0
  9 10  2  0
 10 11  1  0
  3 12  1  0
 12 13  1  0
 13 14  2  0
 14 15  1  0
 15 16  1  0
 16 17  2  0
 17 18  1  0
 18 19  2  0
 19 20  1  0
 20 21  2  0
 15 22  2  0
 22 23  1  0
 23 24  1  0
 24 25  1  0
 24 26  1  0
 24 27  1  0
 23 28  2  0
 28  2  1  0
 11  7  1  0
 28 13  1  0
 21 16  1  0
M  END
>  <Binding energies>  (58) 
[-6.66]

>  <Ligand effiencies>  (58) 
[-0.21483870967741936]

>  <Interactions>  (58) 
["V-B:ALA:541:CB:9864, V-A:HIS:456:CE1:4068, H-B:GLU:543:OE1:9881, V-B:GLU:543:CD:9880, V-B:TYR:539:CD2:9846, V-B:GLU:543:CB:9878, V-B:PRO:540:CA:9855, V-B:TYR:539:CZ:9849, H-B:GLU:543:OE2:9882, V-B:TYR:539:CE2:9848, H-A:GLU:543:OE2:4908, V-A:GLU:543:CD:4906, V-A:GLY:544:C:4910, V-B:GLU:543:C:9874, V-B:PRO:540:N:9856, V-B:TYR:539:C:9839, V-B:TYR:539:CE1:9847, V-A:GLU:543:C:4900, V-A:GLU:543:CG:4905, V-B:GLU:543:CG:9879, H-A:TYR:484:OH:4346, V-A:ARG:545:CG:4920, H-A:ARG:545:NE:4922, V-A:PRO:482:CB:4324, V-A:TYR:484:CZ:4345, V-A:PRO:482:CG:4325, V-A:LEU:475:CD2:4257, V-A:TRP:381:CZ2:3368, V-A:TRP:381:CH2:3370, V-A:ARG:545:CA:4917, V-A:TYR:484:CE1:4343, V-A:ARG:545:CB:4919, V-A:TRP:381:CZ3:3369, V-A:LEU:475:CG:4255, V-A:LEU:475:CD1:4256"]

$$$$
4ck_Grossjean_2025
     RDKit          3D

 33 35  0  0  0  0  0  0  0  0999 V2000
  124.7900  123.9520   61.1870 C   0  0  0  0  0  0  0  0  0  0  0  0
  126.1400  123.5140   61.1650 O   0  0  0  0  0  0  0  0  0  0  0  0
  126.8570  123.9510   60.0190 C   0  0  0  0  0  0  0  0  0  0  0  0
  125.8620  124.4820   58.9780 C   0  0  0  0  0  0  0  0  0  0  0  0
  125.6460  123.4830   57.9910 O   0  0  0  0  0  0  0  0  0  0  0  0
  124.4470  123.6670   57.2500 C   0  0  0  0  0  0  0  0  0  0  0  0
  124.7600  123.5560   55.7530 C   0  0  0  0  0  0  0  0  0  0  0  0
  125.7960  122.6000   55.5720 O   0  0  0  0  0  0  0  0  0  0  0  0
  127.0930  123.1720   55.4590 C   0  0  0  0  0  0  0  0  0  0  0  0
  127.0600  124.3280   54.4480 C   0  0  0  0  0  0  0  0  0  0  0  0
  127.1910  125.6320   55.1000 N   0  0  0  0  0  0  0  0  0  0  0  0
  128.2550  126.4570   55.0100 C   0  0  0  0  0  0  0  0  0  0  0  0
  129.2440  126.1940   54.3230 O   0  0  0  0  0  0  0  0  0  0  0  0
  128.1660  127.7020   55.7730 C   0  0  0  0  0  0  0  0  0  0  0  0
  126.8760  127.9240   56.9540 S   0  0  0  0  0  0  0  0  0  0  0  0
  127.4970  129.4960   57.3990 C   0  0  0  0  0  0  0  0  0  0  0  0
  126.9040  130.2390   58.3300 N   0  0  0  0  0  0  0  0  0  0  0  0
  127.4580  131.4480   58.6080 C   0  0  0  0  0  0  0  0  0  0  0  0
  126.7760  132.2530   59.6760 C   0  0  0  0  0  0  0  0  0  0  0  0
  127.4560  133.2840   60.3450 C   0  0  0  0  0  0  0  0  0  0  0  0
  126.8290  134.0330   61.3380 C   0  0  0  0  0  0  0  0  0  0  0  0
  125.5090  133.7610   61.6780 C   0  0  0  0  0  0  0  0  0  0  0  0
  124.8100  132.7490   61.0280 C   0  0  0  0  0  0  0  0  0  0  0  0
  125.4390  132.0040   60.0340 C   0  0  0  0  0  0  0  0  0  0  0  0
  128.6100  131.9000   57.9560 C   0  0  0  0  0  0  0  0  0  0  0  0
  129.2430  131.1250   56.9720 C   0  0  0  0  0  0  0  0  0  0  0  0
  130.5000  131.6840   56.2940 C   0  0  0  0  0  0  0  0  0  0  0  0
  131.5530  130.8720   56.3930 F   0  0  0  0  0  0  0  0  0  0  0  0
  130.2640  131.8780   54.9970 F   0  0  0  0  0  0  0  0  0  0  0  0
  130.8360  132.8450   56.8580 F   0  0  0  0  0  0  0  0  0  0  0  0
  128.6690  129.8570   56.6700 C   0  0  0  0  0  0  0  0  0  0  0  0
  129.0320  128.8050   55.7520 C   0  0  0  0  0  0  0  0  0  0  0  0
  130.1260  128.8830   54.9280 N   0  0  0  0  0  0  0  0  0  0  0  0
  1  2  1  0
  2  3  1  0
  3  4  1  0
  4  5  1  0
  5  6  1  0
  6  7  1  0
  7  8  1  0
  8  9  1  0
  9 10  1  0
 10 11  1  0
 11 12  1  0
 12 13  2  0
 12 14  1  0
 14 15  1  0
 15 16  1  0
 16 17  2  0
 17 18  1  0
 18 19  1  0
 19 20  2  0
 20 21  1  0
 21 22  2  0
 22 23  1  0
 23 24  2  0
 18 25  2  0
 25 26  1  0
 26 27  1  0
 27 28  1  0
 27 29  1  0
 27 30  1  0
 26 31  2  0
 31 32  1  0
 32 33  1  0
 32 14  2  0
 31 16  1  0
 24 19  1  0
M  END
>  <Binding energies>  (59) 
[-7.06]

>  <Ligand effiencies>  (59) 
[-0.1961111111111111]

>  <Interactions>  (59) 
["V-B:PRO:540:CA:9855, H-B:ALA:541:N:9863, V-A:TYR:539:CD2:4872, V-A:TYR:539:CE2:4874, V-A:TYR:539:CZ:4875, V-A:PRO:540:CA:4881, V-A:ALA:541:CB:4890, V-B:LEU:475:CD2:9231, V-A:PRO:540:N:4882, V-A:TYR:539:C:4865, V-A:PRO:540:CB:4883, V-B:ILE:538:CA:9832, V-B:MET:535:CG:9805, V-B:PRO:540:CB:9857, V-B:PRO:540:CD:9859, V-B:PRO:540:N:9856, V-B:ILE:538:CB:9834, H-B:TYR:531:OH:9767, V-B:ILE:538:CG2:9835, H-B:TYR:539:N:9842, V-B:ASN:362:CB:8148, V-A:PRO:540:CD:4885, V-A:ILE:538:CB:4860, V-A:ILE:538:CG2:4861, H-A:TYR:531:OH:4793, V-B:TYR:531:CE2:9765, V-A:MET:535:CG:4831, V-A:ILE:538:CA:4858, V-B:TYR:531:CZ:9766, V-B:ILE:538:C:9830, V-A:TYR:531:CZ:4792, V-A:ILE:538:C:4856, H-A:MET:535:SD:4832, V-A:TYR:539:CA:4867"]

$$$$
4dd_Grossjean_2025
     RDKit          3D

 26 29  0  0  0  0  0  0  0  0999 V2000
  130.3520  136.9350   76.0160 C   0  0  0  0  0  0  0  0  0  0  0  0
  130.6750  136.5920   74.5690 C   0  0  0  0  0  0  0  0  0  0  0  0
  131.4340  137.5050   73.8270 C   0  0  0  0  0  0  0  0  0  0  0  0
  131.7650  137.2480   72.4910 C   0  0  0  0  0  0  0  0  0  0  0  0
  132.5710  138.2110   71.6710 C   0  0  0  0  0  0  0  0  0  0  0  0
  132.1120  139.5170   71.4370 C   0  0  0  0  0  0  0  0  0  0  0  0
  132.8570  140.4160   70.6790 C   0  0  0  0  0  0  0  0  0  0  0  0
  134.0760  140.0200   70.1400 C   0  0  0  0  0  0  0  0  0  0  0  0
  134.5560  138.7340   70.3570 C   0  0  0  0  0  0  0  0  0  0  0  0
  133.8090  137.8370   71.1180 C   0  0  0  0  0  0  0  0  0  0  0  0
  131.3590  136.1150   71.8560 N   0  0  0  0  0  0  0  0  0  0  0  0
  130.6430  135.2420   72.5630 C   0  0  0  0  0  0  0  0  0  0  0  0
  130.0720  133.7380   71.8760 S   0  0  0  0  0  0  0  0  0  0  0  0
  129.3030  133.2800   73.3970 C   0  0  0  0  0  0  0  0  0  0  0  0
  128.5960  132.0030   73.5160 C   0  0  0  0  0  0  0  0  0  0  0  0
  129.0480  130.9850   72.9900 O   0  0  0  0  0  0  0  0  0  0  0  0
  127.4480  132.0400   74.2360 N   0  0  0  0  0  0  0  0  0  0  0  0
  126.5180  131.0160   74.4920 C   0  0  0  0  0  0  0  0  0  0  0  0
  126.8370  129.7570   73.9750 C   0  0  0  0  0  0  0  0  0  0  0  0
  125.9870  128.6750   74.1880 C   0  0  0  0  0  0  0  0  0  0  0  0
  124.8190  128.8500   74.9240 C   0  0  0  0  0  0  0  0  0  0  0  0
  124.4950  130.0950   75.4550 C   0  0  0  0  0  0  0  0  0  0  0  0
  125.3430  131.1790   75.2450 C   0  0  0  0  0  0  0  0  0  0  0  0
  129.4900  134.2690   74.3750 C   0  0  0  0  0  0  0  0  0  0  0  0
  128.9960  134.1830   75.6530 N   0  0  0  0  0  0  0  0  0  0  0  0
  130.2560  135.4000   73.9230 C   0  0  0  0  0  0  0  0  0  0  0  0
  1  2  1  0
  2  3  2  0
  3  4  1  0
  4  5  1  0
  5  6  2  0
  6  7  1  0
  7  8  2  0
  8  9  1  0
  9 10  2  0
  4 11  2  0
 11 12  1  0
 12 13  1  0
 13 14  1  0
 14 15  1  0
 15 16  2  0
 15 17  1  0
 17 18  1  0
 18 19  2  0
 19 20  1  0
 20 21  2  0
 21 22  1  0
 22 23  2  0
 14 24  2  0
 24 25  1  0
 24 26  1  0
 26  2  1  0
 10  5  1  0
 26 12  2  0
 23 18  1  0
M  END
>  <Binding energies>  (60) 
[-7.2]

>  <Ligand effiencies>  (60) 
[-0.2482758620689655]

>  <Interactions>  (60) 
["V-B:HIS:456:CD2:9040, V-B:HIS:456:C:9033, H-A:LYS:547:NZ:4949, V-B:LYS:471:CE:9192, V-B:HIS:456:CA:9035, V-B:HIS:456:CG:9038, V-B:VAL:457:C:9045, V-B:VAL:458:CG2:9059, V-B:ASP:473:CG:9212, V-A:LYS:547:CE:4948, V-B:HIS:456:CB:9037, V-A:GLU:543:C:4900, V-A:GLY:544:CA:4912, V-B:TYR:484:CB:9313, H-B:ASP:473:OD2:9214, H-B:ASP:473:OD1:9213, V-A:VAL:542:CG1:4897, V-B:SER:483:CB:9305"]

$$$$
4dg_Grossjean_2025
     RDKit          3D

 27 30  0  0  0  0  0  0  0  0999 V2000
  130.8690  120.6690   61.3070 C   0  0  0  0  0  0  0  0  0  0  0  0
  130.2350  122.0190   61.0060 C   0  0  0  0  0  0  0  0  0  0  0  0
  129.4340  122.1320   59.8640 C   0  0  0  0  0  0  0  0  0  0  0  0
  128.8210  123.3460   59.5310 C   0  0  0  0  0  0  0  0  0  0  0  0
  127.9550  123.4980   58.3120 C   0  0  0  0  0  0  0  0  0  0  0  0
  126.6180  123.9120   58.4260 C   0  0  0  0  0  0  0  0  0  0  0  0
  125.8090  124.0490   57.2990 C   0  0  0  0  0  0  0  0  0  0  0  0
  126.3290  123.7750   56.0390 C   0  0  0  0  0  0  0  0  0  0  0  0
  127.6500  123.3600   55.8980 C   0  0  0  0  0  0  0  0  0  0  0  0
  128.4530  123.2220   57.0260 C   0  0  0  0  0  0  0  0  0  0  0  0
  128.9610  124.4560   60.3060 N   0  0  0  0  0  0  0  0  0  0  0  0
  129.7230  124.3500   61.3940 C   0  0  0  0  0  0  0  0  0  0  0  0
  129.9910  125.7010   62.4710 S   0  0  0  0  0  0  0  0  0  0  0  0
  131.0140  124.7180   63.5180 C   0  0  0  0  0  0  0  0  0  0  0  0
  131.6520  125.3140   64.6920 C   0  0  0  0  0  0  0  0  0  0  0  0
  132.8050  125.0200   65.0140 O   0  0  0  0  0  0  0  0  0  0  0  0
  130.8890  126.1650   65.4080 N   0  0  0  0  0  0  0  0  0  0  0  0
  131.3220  126.8910   66.6010 C   0  0  0  0  0  0  0  0  0  0  0  0
  130.1870  127.1890   67.5750 C   0  0  0  0  0  0  0  0  0  0  0  0
  128.8750  127.2860   67.1020 C   0  0  0  0  0  0  0  0  0  0  0  0
  127.8320  127.5280   67.9920 C   0  0  0  0  0  0  0  0  0  0  0  0
  128.1030  127.6600   69.3520 C   0  0  0  0  0  0  0  0  0  0  0  0
  129.4060  127.5480   69.8320 C   0  0  0  0  0  0  0  0  0  0  0  0
  130.4490  127.3050   68.9430 C   0  0  0  0  0  0  0  0  0  0  0  0
  131.1410  123.4100   63.0260 C   0  0  0  0  0  0  0  0  0  0  0  0
  131.8910  122.4350   63.6340 N   0  0  0  0  0  0  0  0  0  0  0  0
  130.4010  123.1720   61.8160 C   0  0  0  0  0  0  0  0  0  0  0  0
  1  2  1  0
  2  3  2  0
  3  4  1  0
  4  5  1  0
  5  6  2  0
  6  7  1  0
  7  8  2  0
  8  9  1  0
  9 10  2  0
  4 11  2  0
 11 12  1  0
 12 13  1  0
 13 14  1  0
 14 15  1  0
 15 16  2  0
 15 17  1  0
 17 18  1  0
 18 19  1  0
 19 20  2  0
 20 21  1  0
 21 22  2  0
 22 23  1  0
 23 24  2  0
 14 25  2  0
 25 26  1  0
 25 27  1  0
 27  2  1  0
 10  5  1  0
 27 12  2  0
 24 19  1  0
M  END
>  <Binding energies>  (61) 
[-8.49]

>  <Ligand effiencies>  (61) 
[-0.28300000000000003]

>  <Interactions>  (61) 
["V-B:ALA:541:CB:9864, V-A:HIS:456:CE1:4068, H-B:GLU:543:OE1:9881, V-B:GLU:543:CD:9880, V-B:TYR:539:CD2:9846, V-B:PRO:540:CA:9855, V-B:TYR:539:CZ:9849, H-B:GLU:543:OE2:9882, V-B:TYR:539:CE2:9848, H-A:GLU:543:OE2:4908, V-A:GLU:543:CD:4906, V-A:GLY:544:C:4910, V-B:TYR:539:CG:9844, V-B:PRO:540:N:9856, V-B:TYR:539:C:9839, V-B:TYR:539:CE1:9847, V-B:TYR:539:CD1:9845, V-B:HIS:456:CE1:9042, V-A:GLU:543:C:4900, V-A:GLU:543:CG:4905, V-B:GLU:543:CG:9879, H-A:TYR:484:OH:4346, V-A:ARG:545:CD:4921, V-A:ARG:545:CG:4920, H-A:ARG:545:NE:4922, V-A:TYR:484:CZ:4345, V-A:LEU:475:CD2:4257, V-A:TYR:484:CE1:4343, V-A:GLY:454:CA:4047"]

$$$$
4dj_Grossjean_2025
     RDKit          3D

 25 28  0  0  0  0  0  0  0  0999 V2000
  130.5010  120.5340   61.3450 C   0  0  0  0  0  0  0  0  0  0  0  0
  130.2200  121.9430   60.8470 C   0  0  0  0  0  0  0  0  0  0  0  0
  129.7540  122.1000   59.5360 C   0  0  0  0  0  0  0  0  0  0  0  0
  129.4790  123.3710   59.0170 C   0  0  0  0  0  0  0  0  0  0  0  0
  128.9730  123.5690   57.6170 C   0  0  0  0  0  0  0  0  0  0  0  0
  129.6920  124.3460   56.6940 C   0  0  0  0  0  0  0  0  0  0  0  0
  129.2290  124.5340   55.3940 C   0  0  0  0  0  0  0  0  0  0  0  0
  128.0320  123.9470   54.9980 C   0  0  0  0  0  0  0  0  0  0  0  0
  127.2970  123.1760   55.8910 C   0  0  0  0  0  0  0  0  0  0  0  0
  127.7640  122.9900   57.1890 C   0  0  0  0  0  0  0  0  0  0  0  0
  129.6330  124.5000   59.7620 N   0  0  0  0  0  0  0  0  0  0  0  0
  130.0770  124.3520   61.0090 C   0  0  0  0  0  0  0  0  0  0  0  0
  130.3280  125.7190   62.0720 S   0  0  0  0  0  0  0  0  0  0  0  0
  130.8660  124.6620   63.3800 C   0  0  0  0  0  0  0  0  0  0  0  0
  131.2720  125.2270   64.6670 C   0  0  0  0  0  0  0  0  0  0  0  0
  132.4110  125.0420   65.1060 O   0  0  0  0  0  0  0  0  0  0  0  0
  130.3200  125.9390   65.3190 N   0  0  0  0  0  0  0  0  0  0  0  0
  130.4450  126.5720   66.5470 C   0  0  0  0  0  0  0  0  0  0  0  0
  131.5000  127.1920   67.0330 N   0  0  0  0  0  0  0  0  0  0  0  0
  131.2640  127.6800   68.2360 C   0  0  0  0  0  0  0  0  0  0  0  0
  129.9900  127.4590   68.7510 C   0  0  0  0  0  0  0  0  0  0  0  0
  129.0580  126.5620   67.5890 S   0  0  0  0  0  0  0  0  0  0  0  0
  130.8470  123.3170   62.9820 C   0  0  0  0  0  0  0  0  0  0  0  0
  131.2190  122.2760   63.7960 N   0  0  0  0  0  0  0  0  0  0  0  0
  130.3960  123.1120   61.6320 C   0  0  0  0  0  0  0  0  0  0  0  0
  1  2  1  0
  2  3  2  0
  3  4  1  0
  4  5  1  0
  5  6  2  0
  6  7  1  0
  7  8  2  0
  8  9  1  0
  9 10  2  0
  4 11  2  0
 11 12  1  0
 12 13  1  0
 13 14  1  0
 14 15  1  0
 15 16  2  0
 15 17  1  0
 17 18  1  0
 18 19  2  0
 19 20  1  0
 20 21  2  0
 21 22  1  0
 14 23  2  0
 23 24  1  0
 23 25  1  0
 25  2  1  0
 10  5  1  0
 25 12  2  0
 22 18  1  0
M  END
>  <Binding energies>  (62) 
[-7.1]

>  <Ligand effiencies>  (62) 
[-0.25357142857142856]

>  <Interactions>  (62) 
["V-B:ALA:541:CB:9864, V-A:HIS:456:CE1:4068, H-B:GLU:543:OE1:9881, V-B:GLU:543:CD:9880, V-B:TYR:539:CD2:9846, V-B:GLU:543:CB:9878, V-B:TYR:539:CZ:9849, H-B:GLU:543:OE2:9882, V-B:TYR:539:CE2:9848, H-A:GLU:543:OE2:4908, V-A:GLU:543:CD:4906, V-A:GLY:544:C:4910, V-B:GLU:543:C:9874, V-B:ILE:538:CA:9832, V-B:TYR:539:CG:9844, V-B:PRO:540:N:9856, V-B:TYR:539:C:9839, V-B:TYR:539:CE1:9847, V-B:TYR:539:CA:9841, V-A:GLU:543:C:4900, V-A:GLU:543:CG:4905, V-B:GLU:543:CG:9879, H-A:TYR:484:OH:4346, V-A:ARG:545:CG:4920, H-A:ARG:545:NE:4922, V-A:TYR:484:CZ:4345, V-A:LEU:475:CD2:4257, V-A:ARG:545:CA:4917, V-A:TYR:484:CE1:4343"]

$$$$
4ea_Grossjean_2025
     RDKit          3D

 31 34  0  0  0  0  0  0  0  0999 V2000
  123.6590  123.2810   56.9140 C   0  0  0  0  0  0  0  0  0  0  0  0
  124.4820  123.2590   55.6230 C   0  0  0  0  0  0  0  0  0  0  0  0
  125.6220  122.4290   55.8040 O   0  0  0  0  0  0  0  0  0  0  0  0
  126.8510  122.9630   56.0250 C   0  0  0  0  0  0  0  0  0  0  0  0
  127.8970  122.4540   55.6120 O   0  0  0  0  0  0  0  0  0  0  0  0
  126.8100  124.2350   56.8220 C   0  0  0  0  0  0  0  0  0  0  0  0
  126.9820  125.4590   56.1650 C   0  0  0  0  0  0  0  0  0  0  0  0
  126.9500  126.6560   56.8760 C   0  0  0  0  0  0  0  0  0  0  0  0
  126.7450  126.6540   58.2560 C   0  0  0  0  0  0  0  0  0  0  0  0
  126.7310  127.9220   58.8690 N   0  0  0  0  0  0  0  0  0  0  0  0
  126.2190  129.1010   58.4370 C   0  0  0  0  0  0  0  0  0  0  0  0
  125.6430  129.2540   57.3590 O   0  0  0  0  0  0  0  0  0  0  0  0
  126.3920  130.2300   59.3550 C   0  0  0  0  0  0  0  0  0  0  0  0
  126.9160  131.8030   58.7480 S   0  0  0  0  0  0  0  0  0  0  0  0
  126.8660  132.4940   60.3530 C   0  0  0  0  0  0  0  0  0  0  0  0
  127.1820  133.7690   60.5820 N   0  0  0  0  0  0  0  0  0  0  0  0
  127.1030  134.1810   61.8710 C   0  0  0  0  0  0  0  0  0  0  0  0
  127.4670  135.6350   62.1080 C   0  0  0  0  0  0  0  0  0  0  0  0
  126.7190  133.3560   62.9250 C   0  0  0  0  0  0  0  0  0  0  0  0
  126.3870  132.0190   62.6810 C   0  0  0  0  0  0  0  0  0  0  0  0
  125.9810  131.1550   63.8120 C   0  0  0  0  0  0  0  0  0  0  0  0
  126.9310  130.7220   64.7430 C   0  0  0  0  0  0  0  0  0  0  0  0
  126.5490  129.9120   65.8090 C   0  0  0  0  0  0  0  0  0  0  0  0
  125.2160  129.5300   65.9410 C   0  0  0  0  0  0  0  0  0  0  0  0
  124.2620  129.9510   65.0170 C   0  0  0  0  0  0  0  0  0  0  0  0
  124.6460  130.7620   63.9520 C   0  0  0  0  0  0  0  0  0  0  0  0
  126.4580  131.5480   61.3410 C   0  0  0  0  0  0  0  0  0  0  0  0
  126.1940  130.2640   60.7440 C   0  0  0  0  0  0  0  0  0  0  0  0
  125.7870  129.1830   61.4840 N   0  0  0  0  0  0  0  0  0  0  0  0
  126.5710  125.4310   58.9230 C   0  0  0  0  0  0  0  0  0  0  0  0
  126.6040  124.2360   58.2100 C   0  0  0  0  0  0  0  0  0  0  0  0
  1  2  1  0
  2  3  1  0
  3  4  1  0
  4  5  2  0
  4  6  1  0
  6  7  2  0
  7  8  1  0
  8  9  2  0
  9 10  1  0
 10 11  1  0
 11 12  2  0
 11 13  1  0
 13 14  1  0
 14 15  1  0
 15 16  2  0
 16 17  1  0
 17 18  1  0
 17 19  2  0
 19 20  1  0
 20 21  1  0
 21 22  2  0
 22 23  1  0
 23 24  2  0
 24 25  1  0
 25 26  2  0
 20 27  2  0
 27 28  1  0
 28 29  1  0
  9 30  1  0
 30 31  2  0
 31  6  1  0
 28 13  2  0
 27 15  1  0
 26 21  1  0
M  END
>  <Binding energies>  (63) 
[-7.37]

>  <Ligand effiencies>  (63) 
[-0.21676470588235294]

>  <Interactions>  (63) 
["V-B:ASP:366:CG:8185, H-B:ASP:366:OD2:8187, V-B:PRO:540:CA:9855, H-B:GLU:543:OE2:9882, V-B:ARG:545:CZ:9898, V-A:TYR:539:CD2:4872, V-A:TYR:539:CE2:4874, V-A:GLU:543:CD:4906, V-A:TYR:539:CZ:4875, V-A:ALA:541:CB:4890, V-B:PRO:482:CG:9299, V-B:LEU:475:CD2:9231, V-B:PRO:482:CB:9298, V-B:ILE:538:CA:9832, V-B:PRO:540:CB:9857, V-B:PRO:540:CD:9859, V-B:PRO:540:N:9856, V-B:TYR:539:C:9839, V-B:ILE:538:CB:9834, V-B:TYR:539:CA:9841, H-B:TYR:531:OH:9767, V-B:ILE:538:CG2:9835, H-B:TYR:539:N:9842, V-B:HIS:456:CE1:9042, V-A:GLU:543:CB:4904, V-B:TYR:484:CZ:9319, V-B:ARG:545:CG:9894, V-B:ARG:545:CD:9895, V-B:LEU:363:CA:8157, V-B:LEU:363:CD1:8161, V-B:LEU:363:CB:8159, V-B:PRO:540:CG:9858, H-B:ASP:366:OD1:8186, V-B:TYR:531:CE2:9765, V-B:TYR:531:CZ:9766, V-B:ILE:538:C:9830, V-B:GLY:454:CA:9021, V-A:ALA:541:CA:4888, V-B:GLY:453:C:9014, V-B:GLY:453:CA:9016, V-B:LEU:475:CG:9229, V-B:LEU:475:CD1:9230"]

$$$$
4eb_Grossjean_2025
     RDKit          3D

 30 33  0  0  0  0  0  0  0  0999 V2000
  129.2740  125.8260   71.9610 C   0  0  0  0  0  0  0  0  0  0  0  0
  128.6340  127.0800   72.1460 O   0  0  0  0  0  0  0  0  0  0  0  0
  128.8850  128.1220   71.3120 C   0  0  0  0  0  0  0  0  0  0  0  0
  128.8800  129.3010   71.6770 O   0  0  0  0  0  0  0  0  0  0  0  0
  129.1710  127.6970   69.9000 C   0  0  0  0  0  0  0  0  0  0  0  0
  130.4980  127.6610   69.4520 C   0  0  0  0  0  0  0  0  0  0  0  0
  130.7950  127.2710   68.1500 C   0  0  0  0  0  0  0  0  0  0  0  0
  129.7750  126.9090   67.2690 C   0  0  0  0  0  0  0  0  0  0  0  0
  130.1930  126.5330   65.9770 N   0  0  0  0  0  0  0  0  0  0  0  0
  130.6950  125.3570   65.5250 C   0  0  0  0  0  0  0  0  0  0  0  0
  130.8750  124.3630   66.2290 O   0  0  0  0  0  0  0  0  0  0  0  0
  131.0250  125.3270   64.0980 C   0  0  0  0  0  0  0  0  0  0  0  0
  132.3180  124.2820   63.5040 S   0  0  0  0  0  0  0  0  0  0  0  0
  132.0600  124.8180   61.8590 C   0  0  0  0  0  0  0  0  0  0  0  0
  132.7910  124.3540   60.8440 N   0  0  0  0  0  0  0  0  0  0  0  0
  132.4920  124.8490   59.6190 C   0  0  0  0  0  0  0  0  0  0  0  0
  133.3350  124.3070   58.4790 C   0  0  0  0  0  0  0  0  0  0  0  0
  131.4890  125.7870   59.3860 C   0  0  0  0  0  0  0  0  0  0  0  0
  130.7250  126.2720   60.4540 C   0  0  0  0  0  0  0  0  0  0  0  0
  129.6620  127.2700   60.1910 C   0  0  0  0  0  0  0  0  0  0  0  0
  128.3310  126.8620   60.0700 C   0  0  0  0  0  0  0  0  0  0  0  0
  127.3300  127.8000   59.8250 C   0  0  0  0  0  0  0  0  0  0  0  0
  127.6640  129.1460   59.6970 C   0  0  0  0  0  0  0  0  0  0  0  0
  128.9890  129.5620   59.8130 C   0  0  0  0  0  0  0  0  0  0  0  0
  129.9880  128.6230   60.0580 C   0  0  0  0  0  0  0  0  0  0  0  0
  131.0080  125.7770   61.7560 C   0  0  0  0  0  0  0  0  0  0  0  0
  130.4360  126.0480   63.0480 C   0  0  0  0  0  0  0  0  0  0  0  0
  129.4050  126.9380   63.2200 N   0  0  0  0  0  0  0  0  0  0  0  0
  128.4430  126.9420   67.7080 C   0  0  0  0  0  0  0  0  0  0  0  0
  128.1470  127.3320   69.0120 C   0  0  0  0  0  0  0  0  0  0  0  0
  1  2  1  0
  2  3  1  0
  3  4  2  0
  3  5  1  0
  5  6  2  0
  6  7  1  0
  7  8  2  0
  8  9  1  0
  9 10  1  0
 10 11  2  0
 10 12  1  0
 12 13  1  0
 13 14  1  0
 14 15  2  0
 15 16  1  0
 16 17  1  0
 16 18  2  0
 18 19  1  0
 19 20  1  0
 20 21  2  0
 21 22  1  0
 22 23  2  0
 23 24  1  0
 24 25  2  0
 19 26  2  0
 26 27  1  0
 27 28  1  0
  8 29  1  0
 29 30  2  0
 30  5  1  0
 27 12  2  0
 26 14  1  0
 25 20  1  0
M  END
>  <Binding energies>  (64) 
[-7.13]

>  <Ligand effiencies>  (64) 
[-0.21606060606060606]

>  <Interactions>  (64) 
["V-A:HIS:456:CE1:4068, H-B:GLU:543:OE1:9881, V-B:GLU:543:CD:9880, V-B:GLU:543:CB:9878, H-B:GLU:543:OE2:9882, V-B:TYR:539:CE2:9848, H-A:GLU:543:OE2:4908, H-A:GLU:543:OE1:4907, V-A:ASP:366:CG:3211, V-A:GLU:543:CD:4906, V-B:HIS:456:CD2:9040, V-A:GLY:544:C:4910, V-A:HIS:456:CD2:4066, V-B:LYS:547:CE:9922, V-B:GLY:544:CA:9886, V-B:GLU:543:C:9874, V-B:HIS:456:CE1:9042, V-A:GLU:543:C:4900, V-A:GLU:543:CG:4905, V-B:GLU:543:CG:9879, H-A:TYR:484:OH:4346, V-A:ARG:545:CG:4920, V-A:GLY:544:CA:4912, V-A:ASP:366:CB:3210, V-A:ASP:366:CA:3208"]

$$$$
8b_Ghoteimi_2023
     RDKit          3D

 34 38  0  0  0  0  0  0  0  0999 V2000
  123.5770  129.9170   67.1020 C   0  0  0  0  0  0  0  0  0  0  0  0
  123.7490  130.6650   65.9030 O   0  0  0  0  0  0  0  0  0  0  0  0
  124.6670  130.2320   64.9650 C   0  0  0  0  0  0  0  0  0  0  0  0
  125.8360  129.6550   65.4570 C   0  0  0  0  0  0  0  0  0  0  0  0
  126.8170  129.1910   64.5860 C   0  0  0  0  0  0  0  0  0  0  0  0
  126.6540  129.2920   63.1970 C   0  0  0  0  0  0  0  0  0  0  0  0
  127.7060  128.7960   62.2560 C   0  0  0  0  0  0  0  0  0  0  0  0
  128.2500  129.6150   61.2620 C   0  0  0  0  0  0  0  0  0  0  0  0
  129.2330  129.1280   60.3950 C   0  0  0  0  0  0  0  0  0  0  0  0
  129.7820  130.0190   59.3460 C   0  0  0  0  0  0  0  0  0  0  0  0
  129.0200  130.3290   58.2190 C   0  0  0  0  0  0  0  0  0  0  0  0
  129.5330  131.1750   57.2390 C   0  0  0  0  0  0  0  0  0  0  0  0
  130.8120  131.7180   57.3690 C   0  0  0  0  0  0  0  0  0  0  0  0
  131.2380  132.5470   56.3490 O   0  0  0  0  0  0  0  0  0  0  0  0
  132.5080  132.3140   55.7490 C   0  0  0  0  0  0  0  0  0  0  0  0
  131.5780  131.4000   58.5020 C   0  0  0  0  0  0  0  0  0  0  0  0
  131.0630  130.5550   59.4820 C   0  0  0  0  0  0  0  0  0  0  0  0
  129.6650  127.7840   60.5620 C   0  0  0  0  0  0  0  0  0  0  0  0
  130.6370  126.9790   59.8700 C   0  0  0  0  0  0  0  0  0  0  0  0
  131.3770  127.4600   58.8210 N   0  0  0  0  0  0  0  0  0  0  0  0
  130.7520  125.6730   60.3710 C   0  0  0  0  0  0  0  0  0  0  0  0
  131.6350  124.5970   59.9160 C   0  0  0  0  0  0  0  0  0  0  0  0
  132.2340  124.6860   58.8420 O   0  0  0  0  0  0  0  0  0  0  0  0
  131.7310  123.5310   60.7500 N   0  0  0  0  0  0  0  0  0  0  0  0
  132.4920  122.3830   60.5720 C   0  0  0  0  0  0  0  0  0  0  0  0
  131.9340  121.1330   60.3100 C   0  0  0  0  0  0  0  0  0  0  0  0
  133.0070  120.2770   60.2060 C   0  0  0  0  0  0  0  0  0  0  0  0
  134.1510  120.9760   60.3920 O   0  0  0  0  0  0  0  0  0  0  0  0
  133.8130  122.3110   60.6220 N   0  0  0  0  0  0  0  0  0  0  0  0
  129.6500  125.4100   61.7240 S   0  0  0  0  0  0  0  0  0  0  0  0
  129.0450  127.0460   61.6100 C   0  0  0  0  0  0  0  0  0  0  0  0
  128.1060  127.5080   62.4340 N   0  0  0  0  0  0  0  0  0  0  0  0
  125.4740  129.8700   62.7080 C   0  0  0  0  0  0  0  0  0  0  0  0
  124.4910  130.3360   63.5770 C   0  0  0  0  0  0  0  0  0  0  0  0
  1  2  1  0
  2  3  1  0
  3  4  2  0
  4  5  1  0
  5  6  2  0
  6  7  1  0
  7  8  2  0
  8  9  1  0
  9 10  1  0
 10 11  2  0
 11 12  1  0
 12 13  2  0
 13 14  1  0
 14 15  1  0
 13 16  1  0
 16 17  2  0
  9 18  2  0
 18 19  1  0
 19 20  1  0
 19 21  2  0
 21 22  1  0
 22 23  2  0
 22 24  1  0
 24 25  1  0
 25 26  1  0
 26 27  2  0
 27 28  1  0
 28 29  1  0
 21 30  1  0
 30 31  1  0
 31 32  2  0
  6 33  1  0
 33 34  2  0
 34  3  1  0
 32  7  1  0
 17 10  1  0
 31 18  1  0
 29 25  2  0
M  END
>  <Binding energies>  (65) 
[-6.51]

>  <Ligand effiencies>  (65) 
[-0.17594594594594595]

>  <Interactions>  (65) 
["V-B:GLU:543:CD:9880, V-B:TYR:539:CD2:9846, V-B:TYR:539:CE2:9848, V-B:ARG:545:CZ:9898, V-A:ASP:366:CG:3211, H-A:ASP:366:OD2:3213, V-A:GLU:543:CD:4906, V-A:PRO:540:CA:4881, V-A:PRO:540:N:4882, V-A:TYR:539:C:4865, V-A:PRO:540:CB:4883, H-B:TYR:484:OH:9320, V-B:HIS:456:CE1:9042, V-B:TYR:484:CZ:9319, V-A:PRO:540:CD:4885, V-A:ILE:538:CB:4860, V-A:ILE:538:CG2:4861, V-A:TYR:531:CE2:4791, V-B:ARG:545:CG:9894, H-A:TYR:539:N:4868, V-B:ARG:545:CD:9895, V-A:LEU:475:CD2:4257, V-A:TRP:381:CZ2:3368, V-A:TRP:381:CH2:3370, V-A:ASP:366:CB:3210, H-A:TYR:531:OH:4793, H-B:GLY:454:N:9022, H-A:ASP:366:OD1:3212, V-A:ILE:369:CG2:3235, V-A:ILE:538:CA:4858, V-B:GLY:454:CA:9021, V-B:ILE:455:C:9024, V-B:ARG:545:CB:9893, H-B:ILE:455:N:9027"]

$$$$
9d_Ghoteimi_2023
     RDKit          3D

 38 43  0  0  0  0  0  0  0  0999 V2000
  134.2530  123.9150   58.4880 C   0  0  0  0  0  0  0  0  0  0  0  0
  133.4230  122.9030   59.0390 O   0  0  0  0  0  0  0  0  0  0  0  0
  133.5630  122.5160   60.3330 C   0  0  0  0  0  0  0  0  0  0  0  0
  134.2360  121.5460   60.6940 O   0  0  0  0  0  0  0  0  0  0  0  0
  132.8180  123.3780   61.2770 C   0  0  0  0  0  0  0  0  0  0  0  0
  133.0730  123.2040   63.0130 S   0  0  0  0  0  0  0  0  0  0  0  0
  131.9410  124.4940   63.3480 C   0  0  0  0  0  0  0  0  0  0  0  0
  131.6950  124.9000   64.5920 N   0  0  0  0  0  0  0  0  0  0  0  0
  130.8120  125.9220   64.7450 C   0  0  0  0  0  0  0  0  0  0  0  0
  130.5710  126.3780   66.1480 C   0  0  0  0  0  0  0  0  0  0  0  0
  131.5670  127.0640   66.8530 C   0  0  0  0  0  0  0  0  0  0  0  0
  131.3530  127.4910   68.1600 C   0  0  0  0  0  0  0  0  0  0  0  0
  130.1300  127.2590   68.8080 C   0  0  0  0  0  0  0  0  0  0  0  0
  129.9060  127.6670   70.1280 N   0  0  0  0  0  0  0  0  0  0  0  0
  128.6050  128.2220   70.5510 C   0  0  0  0  0  0  0  0  0  0  0  0
  128.6440  128.9300   71.9210 C   0  0  0  0  0  0  0  0  0  0  0  0
  129.1680  128.0560   72.9050 O   0  0  0  0  0  0  0  0  0  0  0  0
  130.4900  127.6520   72.5910 C   0  0  0  0  0  0  0  0  0  0  0  0
  130.5110  126.9040   71.2400 C   0  0  0  0  0  0  0  0  0  0  0  0
  129.1410  126.5580   68.1030 C   0  0  0  0  0  0  0  0  0  0  0  0
  129.3560  126.1280   66.7960 C   0  0  0  0  0  0  0  0  0  0  0  0
  130.1550  126.5080   63.6600 C   0  0  0  0  0  0  0  0  0  0  0  0
  130.3960  126.0710   62.3520 C   0  0  0  0  0  0  0  0  0  0  0  0
  129.6490  126.7110   61.2370 C   0  0  0  0  0  0  0  0  0  0  0  0
  130.1860  127.8040   60.5540 C   0  0  0  0  0  0  0  0  0  0  0  0
  129.4920  128.3880   59.4980 C   0  0  0  0  0  0  0  0  0  0  0  0
  128.2490  127.8830   59.0860 C   0  0  0  0  0  0  0  0  0  0  0  0
  127.5280  128.4560   58.0360 N   0  0  0  0  0  0  0  0  0  0  0  0
  126.0590  128.5450   58.1390 C   0  0  0  0  0  0  0  0  0  0  0  0
  125.4360  129.5280   57.1240 C   0  0  0  0  0  0  0  0  0  0  0  0
  125.8320  129.1810   55.8050 O   0  0  0  0  0  0  0  0  0  0  0  0
  127.2430  129.2260   55.6530 C   0  0  0  0  0  0  0  0  0  0  0  0
  127.9090  128.2320   56.6280 C   0  0  0  0  0  0  0  0  0  0  0  0
  127.7190  126.7850   59.7800 C   0  0  0  0  0  0  0  0  0  0  0  0
  128.4130  126.2030   60.8370 C   0  0  0  0  0  0  0  0  0  0  0  0
  131.3490  125.0310   62.1670 C   0  0  0  0  0  0  0  0  0  0  0  0
  131.8860  124.3840   60.9980 C   0  0  0  0  0  0  0  0  0  0  0  0
  131.5310  124.7400   59.7210 N   0  0  0  0  0  0  0  0  0  0  0  0
  1  2  1  0
  2  3  1  0
  3  4  2  0
  3  5  1  0
  5  6  1  0
  6  7  1  0
  7  8  2  0
  8  9  1  0
  9 10  1  0
 10 11  2  0
 11 12  1  0
 12 13  2  0
 13 14  1  0
 14 15  1  0
 15 16  1  0
 16 17  1  0
 17 18  1  0
 18 19  1  0
 13 20  1  0
 20 21  2  0
  9 22  2  0
 22 23  1  0
 23 24  1  0
 24 25  2  0
 25 26  1  0
 26 27  2  0
 27 28  1  0
 28 29  1  0
 29 30  1  0
 30 31  1  0
 31 32  1  0
 32 33  1  0
 27 34  1  0
 34 35  2  0
 23 36  2  0
 36 37  1  0
 37 38  1  0
 37  5  2  0
 36  7  1  0
 21 10  1  0
 35 24  1  0
 19 14  1  0
 33 28  1  0
M  END
>  <Binding energies>  (66) 
[-5.83]

>  <Ligand effiencies>  (66) 
[-0.14575]

>  <Interactions>  (66) 
["V-B:ASP:366:CG:8185, V-A:HIS:456:CE1:4068, V-B:GLU:543:CD:9880, V-B:GLU:543:CB:9878, V-A:ASP:366:CG:3211, V-A:GLU:543:CD:4906, V-B:HIS:456:CD2:9040, V-A:GLY:544:C:4910, V-A:HIS:456:CG:4064, H-A:LYS:547:NZ:4949, V-A:HIS:456:CD2:4066, V-B:HIS:456:CG:9038, V-A:LYS:547:CE:4948, V-B:GLU:543:C:9874, H-B:TYR:531:OH:9767, V-B:HIS:456:CE1:9042, V-B:ASP:366:CB:8184, V-A:GLU:543:C:4900, V-A:GLU:543:CG:4905, V-B:GLU:543:CG:9879, H-A:TYR:484:OH:4346, V-A:ARG:545:CD:4921, V-A:ARG:545:CG:4920, V-A:GLY:544:CA:4912, V-A:ASP:366:CB:3210, V-A:ILE:369:CG2:3235, V-A:ILE:369:CD1:3237, H-A:TYR:539:OH:4876, V-A:ARG:545:CA:4917, V-A:ILE:369:CB:3234, V-A:GLY:454:CA:4047, V-A:ASP:366:CA:3208, V-A:ASP:366:C:3206"]

$$$$
RR10_Rahimova_2017
     RDKit          3D

 34 38  0  0  0  0  0  0  0  0999 V2000
  132.6510  132.0020   56.4960 C   0  0  0  0  0  0  0  0  0  0  0  0
  131.1390  132.1660   56.2610 C   0  0  1  0  0  0  0  0  0  0  0  0
  130.7590  131.9500   54.7780 C   0  0  0  0  0  0  0  0  0  0  0  0
  129.2430  132.1530   54.5590 C   0  0  0  0  0  0  0  0  0  0  0  0
  128.3920  131.2060   55.4440 C   0  0  1  0  0  0  0  0  0  0  0  0
  128.5500  129.8100   55.0140 N   0  0  0  0  0  0  0  0  0  0  0  0
  127.6400  128.8340   55.1850 C   0  0  0  0  0  0  0  0  0  0  0  0
  126.5430  129.0230   55.7170 O   0  0  0  0  0  0  0  0  0  0  0  0
  128.0330  127.4250   54.6930 C   0  0  1  0  0  0  0  0  0  0  0  0
  129.5770  127.3310   54.5820 C   0  0  0  0  0  0  0  0  0  0  0  0
  129.9790  125.8920   54.1780 C   0  0  0  0  0  0  0  0  0  0  0  0
  129.3480  124.8200   55.0970 C   0  0  0  0  0  0  0  0  0  0  0  0
  127.8770  125.0190   55.2020 N   0  0  0  0  0  0  0  0  0  0  0  0
  127.0110  123.6840   55.9810 S   0  0  0  0  0  0  0  0  0  0  0  0
  127.5280  122.4230   55.4340 O   0  0  0  0  0  0  0  0  0  0  0  0
  125.5750  123.9820   55.9210 O   0  0  0  0  0  0  0  0  0  0  0  0
  127.5140  123.7430   57.7010 C   0  0  0  0  0  0  0  0  0  0  0  0
  126.5790  123.4470   58.6990 C   0  0  0  0  0  0  0  0  0  0  0  0
  126.9070  123.4770   60.0570 C   0  0  0  0  0  0  0  0  0  0  0  0
  128.2240  123.8180   60.3740 C   0  0  0  0  0  0  0  0  0  0  0  0
  128.9140  123.9590   61.5540 N   0  0  0  0  0  0  0  0  0  0  0  0
  130.2100  124.3190   61.2490 C   0  0  0  0  0  0  0  0  0  0  0  0
  131.2680  124.5740   62.2840 C   0  0  0  0  0  0  0  0  0  0  0  0
  132.6260  124.5190   61.9400 C   0  0  0  0  0  0  0  0  0  0  0  0
  133.6070  124.7590   62.8980 C   0  0  0  0  0  0  0  0  0  0  0  0
  133.2360  125.0540   64.2070 C   0  0  0  0  0  0  0  0  0  0  0  0
  131.8920  125.1130   64.5650 C   0  0  0  0  0  0  0  0  0  0  0  0
  130.9110  124.8730   63.6060 C   0  0  0  0  0  0  0  0  0  0  0  0
  130.4020  124.4130   59.9520 N   0  0  0  0  0  0  0  0  0  0  0  0
  129.1920  124.1120   59.3840 C   0  0  0  0  0  0  0  0  0  0  0  0
  128.8350  124.0710   58.0290 C   0  0  0  0  0  0  0  0  0  0  0  0
  127.4950  126.3680   55.6900 C   0  0  0  0  0  0  0  0  0  0  0  0
  128.7960  131.4210   56.9280 C   0  0  0  0  0  0  0  0  0  0  0  0
  130.3100  131.2110   57.1520 C   0  0  0  0  0  0  0  0  0  0  0  0
  2  1  1  6
  2  3  1  0
  3  4  1  0
  4  5  1  0
  5  6  1  6
  6  7  1  0
  7  8  2  0
  9  7  1  1
  9 10  1  0
 10 11  1  0
 11 12  1  0
 12 13  1  0
 13 14  1  0
 14 15  2  0
 14 16  2  0
 14 17  1  0
 17 18  2  0
 18 19  1  0
 19 20  2  0
 20 21  1  0
 21 22  1  0
 22 23  1  0
 23 24  2  0
 24 25  1  0
 25 26  2  0
 26 27  1  0
 27 28  2  0
 22 29  2  0
 29 30  1  0
 30 31  2  0
 13 32  1  0
  5 33  1  0
 33 34  1  0
 34  2  1  0
 32  9  1  0
 31 17  1  0
 30 20  1  0
 28 23  1  0
M  END
>  <Binding energies>  (67) 
[-10.98]

>  <Ligand effiencies>  (67) 
[-0.305]

>  <Interactions>  (67) 
["H-B:GLU:543:OE1:9881, V-A:ARG:545:CZ:4924, V-A:GLY:453:CA:4042, V-B:GLU:543:CD:9880, V-B:PRO:540:CA:9855, V-B:TYR:539:CZ:9849, H-B:GLU:543:OE2:9882, V-A:TYR:539:CZ:4875, V-A:PRO:540:CA:4881, V-A:TYR:539:CD1:4871, V-A:PRO:540:N:4882, V-A:TYR:539:CE1:4873, V-A:TYR:539:C:4865, V-A:PRO:540:CB:4883, V-B:PRO:540:CB:9857, V-B:PRO:540:N:9856, V-B:TYR:539:C:9839, V-B:TYR:539:CE1:9847, H-B:TYR:531:OH:9767, H-B:TYR:539:N:9842, V-A:PRO:540:CD:4885, V-A:ILE:538:CB:4860, V-A:PRO:540:CG:4884, V-A:ILE:538:CG2:4861, V-A:TYR:531:CE2:4791, V-A:ARG:545:CD:4921, H-A:TYR:531:OH:4793, V-A:ILE:538:CA:4858, V-B:PRO:540:C:9853, V-A:ILE:538:C:4856, H-A:MET:535:SD:4832, V-A:MET:535:CE:4833, V-A:GLY:453:C:4040"]

$$$$
RR12_Rahimova_2017
     RDKit          3D

 26 28  0  0  0  0  0  0  0  0999 V2000
  124.4600  123.8880   61.2760 C   0  0  0  0  0  0  0  0  0  0  0  0
  125.9700  123.6220   61.2090 C   0  0  0  0  0  0  0  0  0  0  0  0
  126.6880  124.5400   60.2030 C   0  0  0  0  0  0  0  0  0  0  0  0
  126.7440  123.9170   58.8830 N   0  0  0  0  0  0  0  0  0  0  0  0
  127.8230  123.2710   58.2990 C   0  0  0  0  0  0  0  0  0  0  0  0
  129.1880  123.1430   58.9520 C   0  0  0  0  0  0  0  0  0  0  0  0
  129.6060  124.4260   59.6950 C   0  0  0  0  0  0  0  0  0  0  0  0
  131.0910  124.7770   59.4890 C   0  0  0  0  0  0  0  0  0  0  0  0
  131.3850  125.3520   58.1760 N   0  0  0  0  0  0  0  0  0  0  0  0
  132.3860  124.9580   57.3680 C   0  0  0  0  0  0  0  0  0  0  0  0
  133.1750  124.0570   57.6590 O   0  0  0  0  0  0  0  0  0  0  0  0
  132.4920  125.7050   56.0320 C   0  0  0  0  0  0  0  0  0  0  0  0
  131.2500  126.3500   55.7460 O   0  0  0  0  0  0  0  0  0  0  0  0
  130.2440  125.6360   55.1230 C   0  0  0  0  0  0  0  0  0  0  0  0
  128.9400  125.9020   55.5470 C   0  0  0  0  0  0  0  0  0  0  0  0
  127.8600  125.2340   54.9750 C   0  0  0  0  0  0  0  0  0  0  0  0
  128.0840  124.2960   53.9720 C   0  0  0  0  0  0  0  0  0  0  0  0
  129.3770  124.0170   53.5390 C   0  0  0  0  0  0  0  0  0  0  0  0
  130.4570  124.6840   54.1120 C   0  0  0  0  0  0  0  0  0  0  0  0
  127.5580  122.7890   57.1100 N   0  0  0  0  0  0  0  0  0  0  0  0
  126.2450  123.0980   56.8900 C   0  0  0  0  0  0  0  0  0  0  0  0
  125.4440  122.8060   55.7760 C   0  0  0  0  0  0  0  0  0  0  0  0
  124.1140  123.2280   55.7930 C   0  0  0  0  0  0  0  0  0  0  0  0
  123.5880  123.9200   56.8840 C   0  0  0  0  0  0  0  0  0  0  0  0
  124.3590  124.2270   58.0070 C   0  0  0  0  0  0  0  0  0  0  0  0
  125.6950  123.8040   57.9890 C   0  0  0  0  0  0  0  0  0  0  0  0
  1  2  1  0
  2  3  1  0
  3  4  1  0
  4  5  1  0
  5  6  1  0
  6  7  1  0
  7  8  1  0
  8  9  1  0
  9 10  1  0
 10 11  2  0
 10 12  1  0
 12 13  1  0
 13 14  1  0
 14 15  2  0
 15 16  1  0
 16 17  2  0
 17 18  1  0
 18 19  2  0
  5 20  2  0
 20 21  1  0
 21 22  2  0
 22 23  1  0
 23 24  2  0
 24 25  1  0
 25 26  2  0
 26  4  1  0
 19 14  1  0
 26 21  1  0
M  END
>  <Binding energies>  (68) 
[-7.69]

>  <Ligand effiencies>  (68) 
[-0.28481481481481485]

>  <Interactions>  (68) 
["V-B:TYR:539:CD2:9846, V-B:PRO:540:CA:9855, V-B:TYR:539:CZ:9849, V-B:TYR:539:CE2:9848, V-A:ASP:366:CG:3211, V-B:ILE:538:CA:9832, V-B:PRO:540:CB:9857, V-B:PRO:540:CD:9859, V-B:PRO:540:N:9856, V-B:TYR:539:C:9839, V-B:ILE:538:CB:9834, V-B:TYR:539:CE1:9847, V-B:TYR:539:CD1:9845, V-B:ILE:538:CG2:9835, H-B:TYR:539:N:9842, V-B:ASN:362:CB:8148, V-A:ASP:366:CB:3210, H-A:TYR:531:OH:4793, V-B:LEU:363:CA:8157, V-B:LEU:363:CD1:8161, V-B:TYR:531:CE2:9765, V-B:TYR:531:CZ:9766, V-B:ILE:538:C:9830, V-A:TYR:531:CZ:4792, V-B:PRO:540:C:9853, H-B:TYR:539:OH:9850, V-A:TYR:531:CE1:4790"]

$$$$
RR13_Rahimova_2017
     RDKit          3D

 48 54  0  0  0  0  0  0  0  0999 V2000
  128.4400  126.8320   56.2990 Cl  0  0  0  0  0  0  0  0  0  0  0  0
  129.6280  126.2540   57.4180 C   0  0  0  0  0  0  0  0  0  0  0  0
  130.9220  126.0390   56.9400 C   0  0  0  0  0  0  0  0  0  0  0  0
  131.9170  125.5550   57.7840 C   0  0  0  0  0  0  0  0  0  0  0  0
  131.6220  125.2800   59.1170 C   0  0  0  0  0  0  0  0  0  0  0  0
  130.3330  125.4920   59.6020 C   0  0  0  0  0  0  0  0  0  0  0  0
  129.3190  125.9910   58.7680 C   0  0  0  0  0  0  0  0  0  0  0  0
  127.8920  126.1940   59.3240 C   0  0  1  0  0  0  0  0  0  0  0  0
  127.3910  124.9260   60.0320 C   0  0  0  0  0  0  0  0  0  0  0  0
  128.0120  124.2560   60.9780 N   0  0  0  0  0  0  0  0  0  0  0  0
  127.1890  123.1780   61.2850 N   0  0  0  0  0  0  0  0  0  0  0  0
  126.0610  123.1990   60.4870 N   0  0  0  0  0  0  0  0  0  0  0  0
  126.2210  124.2730   59.7060 N   0  0  0  0  0  0  0  0  0  0  0  0
  125.1910  124.6450   58.7440 C   0  0  0  0  0  0  0  0  0  0  0  0
  125.0190  123.5340   57.6900 C   0  0  0  0  0  0  0  0  0  0  0  0
  126.1400  123.5380   56.6630 C   0  0  0  0  0  0  0  0  0  0  0  0
  127.4380  123.1930   57.0460 C   0  0  0  0  0  0  0  0  0  0  0  0
  128.4660  123.2040   56.1060 C   0  0  0  0  0  0  0  0  0  0  0  0
  128.1900  123.5600   54.7870 C   0  0  0  0  0  0  0  0  0  0  0  0
  126.8980  123.9060   54.3990 C   0  0  0  0  0  0  0  0  0  0  0  0
  125.8700  123.8950   55.3390 C   0  0  0  0  0  0  0  0  0  0  0  0
  127.7540  127.4040   60.1690 N   0  0  0  0  0  0  0  0  0  0  0  0
  127.9360  127.0650   61.5920 C   0  0  0  0  0  0  0  0  0  0  0  0
  127.9260  128.3410   62.4660 C   0  0  0  0  0  0  0  0  0  0  0  0
  126.6380  129.0440   62.3440 N   0  0  0  0  0  0  0  0  0  0  0  0
  126.5530  130.2290   63.2280 C   0  0  1  0  0  0  0  0  0  0  0  0
  126.3070  131.5770   62.5140 C   0  0  0  0  0  0  0  0  0  0  0  0
  124.9940  132.0670   62.5080 C   0  0  0  0  0  0  0  0  0  0  0  0
  124.6830  133.2840   61.9020 C   0  0  0  0  0  0  0  0  0  0  0  0
  125.6840  134.0280   61.2840 C   0  0  0  0  0  0  0  0  0  0  0  0
  126.9910  133.5510   61.2650 C   0  0  0  0  0  0  0  0  0  0  0  0
  127.3130  132.3310   61.8670 C   0  0  0  0  0  0  0  0  0  0  0  0
  128.9530  131.7910   61.7290 Cl  0  0  0  0  0  0  0  0  0  0  0  0
  125.5560  130.0530   64.3760 C   0  0  0  0  0  0  0  0  0  0  0  0
  124.2620  130.2600   64.3000 N   0  0  0  0  0  0  0  0  0  0  0  0
  123.7520  129.9650   65.5600 N   0  0  0  0  0  0  0  0  0  0  0  0
  124.7700  129.5570   66.3980 N   0  0  0  0  0  0  0  0  0  0  0  0
  125.8720  129.5990   65.6390 N   0  0  0  0  0  0  0  0  0  0  0  0
  127.1660  129.2470   66.2120 C   0  0  0  0  0  0  0  0  0  0  0  0
  127.0680  127.9200   66.9860 C   0  0  0  0  0  0  0  0  0  0  0  0
  128.2670  127.6950   67.8940 C   0  0  0  0  0  0  0  0  0  0  0  0
  129.5540  127.6470   67.3520 C   0  0  0  0  0  0  0  0  0  0  0  0
  130.6520  127.4490   68.1850 C   0  0  0  0  0  0  0  0  0  0  0  0
  130.4600  127.2970   69.5570 C   0  0  0  0  0  0  0  0  0  0  0  0
  129.1780  127.3450   70.1030 C   0  0  0  0  0  0  0  0  0  0  0  0
  128.0800  127.5450   69.2720 C   0  0  0  0  0  0  0  0  0  0  0  0
  126.4630  129.3860   60.9210 C   0  0  0  0  0  0  0  0  0  0  0  0
  126.4640  128.1050   60.0530 C   0  0  0  0  0  0  0  0  0  0  0  0
  1  2  1  0
  2  3  2  0
  3  4  1  0
  4  5  2  0
  5  6  1  0
  6  7  2  0
  7  8  1  0
  8  9  1  0
  9 10  2  0
 10 11  1  0
 11 12  2  0
 12 13  1  0
 13 14  1  0
 14 15  1  0
 15 16  1  0
 16 17  2  0
 17 18  1  0
 18 19  2  0
 19 20  1  0
 20 21  2  0
  8 22  1  1
 22 23  1  0
 23 24  1  0
 24 25  1  0
 26 25  1  6
 26 27  1  0
 27 28  2  0
 28 29  1  0
 29 30  2  0
 30 31  1  0
 31 32  2  0
 32 33  1  0
 26 34  1  0
 34 35  2  0
 35 36  1  0
 36 37  2  0
 37 38  1  0
 38 39  1  0
 39 40  1  0
 40 41  1  0
 41 42  2  0
 42 43  1  0
 43 44  2  0
 44 45  1  0
 45 46  2  0
 25 47  1  0
 47 48  1  0
  7  2  1  0
 13  9  1  0
 21 16  1  0
 48 22  1  0
 32 27  1  0
 38 34  1  0
 46 41  1  0
M  END
>  <Binding energies>  (69) 
[-14.47]

>  <Ligand effiencies>  (69) 
[-0.30145833333333333]

>  <Interactions>  (69) 
["H-B:ARG:545:NH2:9900, V-B:ASP:366:CG:8185, V-A:HIS:456:CE1:4068, V-B:GLU:543:CD:9880, V-B:TYR:539:CD2:9846, V-B:PRO:540:CA:9855, V-B:TYR:539:CZ:9849, H-B:ALA:541:N:9863, V-B:TYR:539:CE2:9848, V-B:ARG:545:CZ:9898, V-A:TYR:539:CD2:4872, V-A:ASP:366:CG:3211, V-A:GLU:543:CD:4906, V-A:ALA:541:CB:4890, V-B:LEU:475:CD2:9231, V-A:GLY:544:C:4910, V-A:HIS:456:CD2:4066, H-B:HIS:456:ND1:9039, V-B:GLU:543:C:9874, V-B:ILE:538:CA:9832, V-B:MET:535:CG:9805, V-B:TYR:539:CG:9844, V-B:PRO:540:CB:9857, V-B:PRO:540:CD:9859, V-B:PRO:540:N:9856, V-B:TYR:539:C:9839, V-B:ILE:538:CB:9834, V-B:TYR:539:CE1:9847, V-B:TYR:539:CD1:9845, V-B:ILE:538:CG2:9835, H-B:TYR:484:OH:9320, V-B:HIS:456:CE1:9042, V-A:GLU:543:CB:4904, V-B:ARG:545:CG:9894, V-A:GLU:543:C:4900, H-B:ARG:545:NE:9896, V-A:GLU:543:CG:4905, V-B:GLU:543:CG:9879, V-A:ARG:545:CG:4920, V-A:ASP:366:CB:3210, H-B:GLY:454:N:9022, V-B:TYR:531:CE2:9765, V-B:TYR:531:CZ:9766"]

$$$$
RR14_Rahimova_2017
     RDKit          3D

 39 43  0  0  0  0  0  0  0  0999 V2000
  133.8490  130.9470   57.3900 C   0  0  0  0  0  0  0  0  0  0  0  0
  132.9510  132.0400   57.2320 O   0  0  0  0  0  0  0  0  0  0  0  0
  131.8820  131.9130   56.3670 C   0  0  0  0  0  0  0  0  0  0  0  0
  130.6260  132.2480   56.8740 C   0  0  0  0  0  0  0  0  0  0  0  0
  129.4880  132.1290   56.0840 C   0  0  0  0  0  0  0  0  0  0  0  0
  129.5950  131.6640   54.7710 C   0  0  0  0  0  0  0  0  0  0  0  0
  128.3430  131.4700   53.9240 C   0  0  0  0  0  0  0  0  0  0  0  0
  127.4510  130.4310   54.4390 N   0  0  0  0  0  0  0  0  0  0  0  0
  126.1390  130.6620   54.5530 N   0  0  0  0  0  0  0  0  0  0  0  0
  125.6220  129.4990   55.0900 N   0  0  0  0  0  0  0  0  0  0  0  0
  126.6420  128.5760   55.3000 N   0  0  0  0  0  0  0  0  0  0  0  0
  127.7450  129.1670   54.9040 C   0  0  0  0  0  0  0  0  0  0  0  0
  129.1370  128.5550   54.9630 C   0  0  0  0  0  0  0  0  0  0  0  0
  129.1060  127.1130   55.2560 N   0  0  0  0  0  0  0  0  0  0  0  0
  130.3380  126.4380   54.8250 C   0  0  0  0  0  0  0  0  0  0  0  0
  130.0930  125.0310   54.2370 C   0  0  0  0  0  0  0  0  0  0  0  0
  128.6500  124.8130   53.7340 C   0  0  0  0  0  0  0  0  0  0  0  0
  127.7040  124.4870   54.8060 N   0  0  0  0  0  0  0  0  0  0  0  0
  128.3160  123.5530   55.7600 C   0  0  0  0  0  0  0  0  0  0  0  0
  127.3270  123.1490   56.8750 C   0  0  0  0  0  0  0  0  0  0  0  0
  126.1300  122.6320   56.3030 O   0  0  0  0  0  0  0  0  0  0  0  0
  125.4780  123.5800   55.4670 C   0  0  0  0  0  0  0  0  0  0  0  0
  126.4100  123.9960   54.3080 C   0  0  0  0  0  0  0  0  0  0  0  0
  128.8740  126.8920   56.6900 C   0  0  0  0  0  0  0  0  0  0  0  0
  129.2990  128.0260   57.6210 C   0  0  0  0  0  0  0  0  0  0  0  0
  128.4170  128.9770   58.0130 C   0  0  0  0  0  0  0  0  0  0  0  0
  128.8120  130.1060   58.8800 C   0  0  0  0  0  0  0  0  0  0  0  0
  127.9200  131.0980   59.3210 C   0  0  0  0  0  0  0  0  0  0  0  0
  126.4490  131.0800   58.9290 C   0  0  0  0  0  0  0  0  0  0  0  0
  128.3960  132.1240   60.1420 C   0  0  0  0  0  0  0  0  0  0  0  0
  129.7370  132.1680   60.5220 C   0  0  0  0  0  0  0  0  0  0  0  0
  130.6310  131.1840   60.0900 C   0  0  0  0  0  0  0  0  0  0  0  0
  132.0900  131.2590   60.5240 C   0  0  0  0  0  0  0  0  0  0  0  0
  130.1640  130.1500   59.2650 C   0  0  0  0  0  0  0  0  0  0  0  0
  131.0310  129.1370   58.8020 N   0  0  0  0  0  0  0  0  0  0  0  0
  130.7130  128.0850   58.0070 C   0  0  0  0  0  0  0  0  0  0  0  0
  131.5770  127.2790   57.6640 O   0  0  0  0  0  0  0  0  0  0  0  0
  130.8500  131.3540   54.2440 C   0  0  0  0  0  0  0  0  0  0  0  0
  131.9880  131.4730   55.0370 C   0  0  0  0  0  0  0  0  0  0  0  0
  1  2  1  0
  2  3  1  0
  3  4  2  0
  4  5  1  0
  5  6  2  0
  6  7  1  0
  7  8  1  0
  8  9  1  0
  9 10  2  0
 10 11  1  0
 11 12  2  0
 12 13  1  0
 13 14  1  0
 14 15  1  0
 15 16  1  0
 16 17  1  0
 17 18  1  0
 18 19  1  0
 19 20  1  0
 20 21  1  0
 21 22  1  0
 22 23  1  0
 14 24  1  0
 24 25  1  0
 25 26  2  0
 26 27  1  0
 27 28  2  0
 28 29  1  0
 28 30  1  0
 30 31  2  0
 31 32  1  0
 32 33  1  0
 32 34  2  0
 34 35  1  0
 35 36  1  0
 36 37  2  0
  6 38  1  0
 38 39  2  0
 39  3  1  0
 12  8  1  0
 23 18  1  0
 36 25  1  0
 34 27  1  0
M  END
>  <Binding energies>  (70) 
[-11.29]

>  <Ligand effiencies>  (70) 
[-0.28225]

>  <Interactions>  (70) 
["V-B:TYR:539:CZ:9849, V-A:TYR:539:CE2:4874, V-A:ASP:366:CG:3211, H-A:ASP:366:OD2:3213, V-A:TYR:539:CZ:4875, V-A:PRO:540:CA:4881, V-A:ALA:541:CB:4890, V-A:TYR:539:CD1:4871, V-A:PRO:540:N:4882, V-A:TYR:539:CG:4870, V-A:TYR:539:CE1:4873, V-A:TYR:539:C:4865, V-A:PRO:540:CB:4883, V-B:MET:535:CB:9804, V-B:ILE:538:CA:9832, V-B:MET:535:CG:9805, V-B:PRO:540:N:9856, V-B:TYR:539:C:9839, V-B:ILE:538:CB:9834, V-B:TYR:539:CE1:9847, V-B:TYR:539:CD1:9845, H-B:TYR:531:OH:9767, V-B:ILE:538:CG2:9835, H-B:TYR:539:N:9842, V-A:LEU:363:CA:3183, V-A:PRO:540:CD:4885, V-A:ILE:538:CB:4860, V-A:ILE:538:CG2:4861, V-A:LEU:363:CD1:3187, V-A:TYR:531:CE2:4791, V-A:ASP:366:CB:3210, H-A:TYR:531:OH:4793, V-B:TYR:531:CE2:9765, V-A:MET:535:CG:4831, V-A:ILE:538:CA:4858, H-A:TYR:539:OH:4876, V-B:TYR:531:CZ:9766, V-A:MET:535:CB:4830, V-A:TYR:531:CZ:4792, V-A:PRO:540:C:4879, H-B:ASN:370:ND2:8220, V-A:TYR:539:CA:4867, V-A:TYR:531:CE1:4790"]

$$$$
RR15_Rahimova_2017
     RDKit          3D

 45 49  0  0  0  0  0  0  0  0999 V2000
  123.8140  132.2900   62.4670 C   0  0  0  0  0  0  0  0  0  0  0  0
  123.7970  132.8030   61.1390 O   0  0  0  0  0  0  0  0  0  0  0  0
  124.2920  132.0300   60.1030 C   0  0  0  0  0  0  0  0  0  0  0  0
  123.4790  131.3840   59.1580 C   0  0  0  0  0  0  0  0  0  0  0  0
  124.0420  130.6180   58.1400 C   0  0  0  0  0  0  0  0  0  0  0  0
  125.4290  130.4730   58.0370 C   0  0  0  0  0  0  0  0  0  0  0  0
  126.0370  129.6400   56.9420 C   0  0  0  0  0  0  0  0  0  0  0  0
  125.5620  129.6200   55.7050 N   0  0  0  0  0  0  0  0  0  0  0  0
  126.3650  128.7460   55.0010 N   0  0  0  0  0  0  0  0  0  0  0  0
  127.2730  128.3630   55.8990 N   0  0  0  0  0  0  0  0  0  0  0  0
  128.2370  127.3000   55.6200 C   0  0  0  0  0  0  0  0  0  0  0  0
  129.7220  127.7370   55.6810 C   0  0  0  0  0  0  0  0  0  0  0  0
  130.0690  128.7160   55.0160 O   0  0  0  0  0  0  0  0  0  0  0  0
  130.5970  127.0570   56.4850 N   0  0  0  0  0  0  0  0  0  0  0  0
  130.9380  127.5460   57.8350 C   0  0  0  0  0  0  0  0  0  0  0  0
  129.7700  128.2630   58.5460 C   0  0  0  0  0  0  0  0  0  0  0  0
  129.9080  129.8020   58.6300 C   0  0  0  0  0  0  0  0  0  0  0  0
  130.1780  130.4420   57.3390 N   0  0  0  0  0  0  0  0  0  0  0  0
  129.1790  131.4540   56.9640 C   0  0  0  0  0  0  0  0  0  0  0  0
  129.5550  132.1560   55.6420 C   0  0  0  0  0  0  0  0  0  0  0  0
  130.8670  132.7020   55.7310 O   0  0  0  0  0  0  0  0  0  0  0  0
  131.8510  131.7070   55.9920 C   0  0  0  0  0  0  0  0  0  0  0  0
  131.5390  130.9940   57.3260 C   0  0  0  0  0  0  0  0  0  0  0  0
  131.1200  125.6940   56.1610 C   0  0  2  0  0  0  0  0  0  0  0  0
  130.4930  125.0580   54.8810 C   0  0  0  0  0  0  0  0  0  0  0  0
  131.1160  125.0190   53.8200 O   0  0  0  0  0  0  0  0  0  0  0  0
  129.2650  124.5320   55.0360 N   0  0  0  0  0  0  0  0  0  0  0  0
  128.5270  123.7990   54.0130 C   0  0  0  0  0  0  0  0  0  0  0  0
  127.2530  123.1610   54.5970 C   0  0  2  0  0  0  0  0  0  0  0  0
  126.0490  124.1080   54.7470 C   0  0  0  0  0  0  0  0  0  0  0  0
  126.0300  124.4670   56.2130 C   0  0  0  0  0  0  0  0  0  0  0  0
  126.5400  123.1820   56.8420 C   0  0  0  0  0  0  0  0  0  0  0  0
  127.5730  122.7900   55.9450 O   0  0  0  0  0  0  0  0  0  0  0  0
  131.1840  124.8310   57.4150 C   0  0  0  0  0  0  0  0  0  0  0  0
  132.4370  124.5980   57.9940 C   0  0  0  0  0  0  0  0  0  0  0  0
  132.5560  123.8170   59.1390 C   0  0  0  0  0  0  0  0  0  0  0  0
  131.4180  123.2620   59.7180 C   0  0  0  0  0  0  0  0  0  0  0  0
  131.5320  122.5030   60.8310 F   0  0  0  0  0  0  0  0  0  0  0  0
  130.1620  123.4830   59.1570 C   0  0  0  0  0  0  0  0  0  0  0  0
  130.0450  124.2630   58.0110 C   0  0  0  0  0  0  0  0  0  0  0  0
  127.0860  128.8610   57.1270 N   0  0  0  0  0  0  0  0  0  0  0  0
  126.2380  131.1210   58.9810 C   0  0  0  0  0  0  0  0  0  0  0  0
  125.6850  131.9000   60.0110 C   0  0  0  0  0  0  0  0  0  0  0  0
  126.4420  132.5610   60.9640 O   0  0  0  0  0  0  0  0  0  0  0  0
  127.8020  132.8760   60.6860 C   0  0  0  0  0  0  0  0  0  0  0  0
  1  2  1  0
  2  3  1  0
  3  4  2  0
  4  5  1  0
  5  6  2  0
  6  7  1  0
  7  8  1  0
  8  9  2  0
  9 10  1  0
 10 11  1  0
 11 12  1  0
 12 13  2  0
 12 14  1  0
 14 15  1  0
 15 16  1  0
 16 17  1  0
 17 18  1  0
 18 19  1  0
 19 20  1  0
 20 21  1  0
 21 22  1  0
 22 23  1  0
 24 14  1  1
 24 25  1  0
 25 26  2  0
 25 27  1  0
 27 28  1  0
 29 28  1  1
 29 30  1  0
 30 31  1  0
 31 32  1  0
 32 33  1  0
 24 34  1  0
 34 35  2  0
 35 36  1  0
 36 37  2  0
 37 38  1  0
 37 39  1  0
 39 40  2  0
 10 41  1  0
  6 42  1  0
 42 43  2  0
 43 44  1  0
 44 45  1  0
 43  3  1  0
 41  7  2  0
 23 18  1  0
 33 29  1  0
 40 34  1  0
M  END
>  <Binding energies>  (71) 
[-10.1]

>  <Ligand effiencies>  (71) 
[-0.21956521739130433]

>  <Interactions>  (71) 
["V-B:ASP:366:CG:8185, V-B:TYR:539:CD2:9846, V-B:PRO:540:CA:9855, V-B:TYR:539:CZ:9849, V-B:TYR:539:CE2:9848, V-A:TYR:539:CD2:4872, V-A:TYR:539:CE2:4874, V-A:ASP:366:CG:3211, V-A:TYR:539:CZ:4875, V-A:ALA:541:CB:4890, V-A:TYR:539:CD1:4871, V-A:TYR:539:CE1:4873, V-B:ILE:369:CG2:8209, V-B:ILE:538:CA:9832, V-B:MET:535:CG:9805, V-B:PRO:540:CD:9859, V-B:PRO:540:N:9856, V-B:TYR:539:C:9839, V-B:ILE:538:CB:9834, V-B:TYR:539:CE1:9847, V-B:TYR:539:CD1:9845, H-B:TYR:531:OH:9767, V-B:ILE:538:CG2:9835, H-B:TYR:539:N:9842, V-A:ILE:538:CB:4860, V-A:TYR:531:CE2:4791, V-B:ASP:366:CB:8184, H-A:TYR:539:N:4868, V-B:ASP:366:CA:8182, V-B:ILE:369:CD1:8211, V-B:ILE:369:CB:8208, V-A:ASP:366:CB:3210, H-A:TYR:531:OH:4793, V-B:TYR:531:CE2:9765, V-A:ILE:538:CA:4858, H-A:TYR:539:OH:4876, V-B:TYR:531:CZ:9766, V-B:ILE:538:C:9830, V-B:GLY:454:CA:9021, H-A:ASN:370:ND2:3246, H-B:TYR:539:OH:9850, V-B:ASP:366:C:8180"]

$$$$
RR17_Rahimova_2017
     RDKit          3D

 38 41  0  0  0  0  0  0  0  0999 V2000
  132.6440  131.0950   57.6850 C   0  0  0  0  0  0  0  0  0  0  0  0
  132.9060  131.9020   56.4090 C   0  0  0  0  0  0  0  0  0  0  0  0
  131.7800  132.7380   56.1570 O   0  0  0  0  0  0  0  0  0  0  0  0
  130.5940  132.1670   55.7320 C   0  0  0  0  0  0  0  0  0  0  0  0
  129.4950  132.3140   56.5760 C   0  0  0  0  0  0  0  0  0  0  0  0
  128.2600  131.7730   56.2340 C   0  0  0  0  0  0  0  0  0  0  0  0
  128.0990  131.0680   55.0320 C   0  0  0  0  0  0  0  0  0  0  0  0
  126.7540  130.4970   54.6880 C   0  0  0  0  0  0  0  0  0  0  0  0
  125.9820  131.0500   53.9000 O   0  0  0  0  0  0  0  0  0  0  0  0
  126.3560  129.1740   55.3810 C   0  0  0  0  0  0  0  0  0  0  0  0
  126.9240  129.1080   57.1180 S   0  0  0  0  0  0  0  0  0  0  0  0
  125.7260  130.1740   57.8700 C   0  0  0  0  0  0  0  0  0  0  0  0
  124.4720  130.2890   57.5000 N   0  0  0  0  0  0  0  0  0  0  0  0
  123.8640  131.2150   58.3390 N   0  0  0  0  0  0  0  0  0  0  0  0
  124.7730  131.6210   59.1890 C   0  0  0  0  0  0  0  0  0  0  0  0
  124.5280  132.6330   60.2980 C   0  0  0  0  0  0  0  0  0  0  0  0
  123.9440  132.0550   61.5060 N   0  0  0  0  0  0  0  0  0  0  0  0
  124.7030  131.4830   62.5430 C   0  0  0  0  0  0  0  0  0  0  0  0
  124.1740  130.3620   63.1830 C   0  0  0  0  0  0  0  0  0  0  0  0
  124.8690  129.7500   64.2220 C   0  0  0  0  0  0  0  0  0  0  0  0
  126.1090  130.2510   64.6300 C   0  0  0  0  0  0  0  0  0  0  0  0
  126.8580  129.5710   65.7760 C   0  0  0  0  0  0  0  0  0  0  0  0
  126.0540  128.8140   66.5260 F   0  0  0  0  0  0  0  0  0  0  0  0
  127.8290  128.7910   65.2990 F   0  0  0  0  0  0  0  0  0  0  0  0
  127.4020  130.5040   66.5560 F   0  0  0  0  0  0  0  0  0  0  0  0
  126.6450  131.3700   63.9840 C   0  0  0  0  0  0  0  0  0  0  0  0
  125.9490  131.9800   62.9450 C   0  0  0  0  0  0  0  0  0  0  0  0
  125.9840  131.0080   58.9390 N   0  0  0  0  0  0  0  0  0  0  0  0
  127.1910  131.1720   59.6360 C   0  0  0  0  0  0  0  0  0  0  0  0
  127.6930  130.1170   60.3980 C   0  0  0  0  0  0  0  0  0  0  0  0
  128.8890  130.2810   61.0920 C   0  0  0  0  0  0  0  0  0  0  0  0
  129.5840  131.4990   61.0250 C   0  0  0  0  0  0  0  0  0  0  0  0
  130.7750  131.7520   61.6790 O   0  0  0  0  0  0  0  0  0  0  0  0
  131.9510  131.0600   61.2720 C   0  0  0  0  0  0  0  0  0  0  0  0
  129.0650  132.5450   60.2590 C   0  0  0  0  0  0  0  0  0  0  0  0
  127.8700  132.3870   59.5620 C   0  0  0  0  0  0  0  0  0  0  0  0
  129.2050  130.9220   54.1820 C   0  0  0  0  0  0  0  0  0  0  0  0
  130.4400  131.4660   54.5270 C   0  0  0  0  0  0  0  0  0  0  0  0
  1  2  1  0
  2  3  1  0
  3  4  1  0
  4  5  2  0
  5  6  1  0
  6  7  2  0
  7  8  1  0
  8  9  2  0
  8 10  1  0
 10 11  1  0
 11 12  1  0
 12 13  2  0
 13 14  1  0
 14 15  2  0
 15 16  1  0
 16 17  1  0
 17 18  1  0
 18 19  2  0
 19 20  1  0
 20 21  2  0
 21 22  1  0
 22 23  1  0
 22 24  1  0
 22 25  1  0
 21 26  1  0
 26 27  2  0
 15 28  1  0
 28 29  1  0
 29 30  2  0
 30 31  1  0
 31 32  2  0
 32 33  1  0
 33 34  1  0
 32 35  1  0
 35 36  2  0
  7 37  1  0
 37 38  2  0
 38  4  1  0
 28 12  1  0
 36 29  1  0
 27 18  1  0
M  END
>  <Binding energies>  (72) 
[-9.43]

>  <Ligand effiencies>  (72) 
[-0.24179487179487177]

>  <Interactions>  (72) 
["V-B:GLU:543:CD:9880, V-B:ARG:545:CZ:9898, H-A:ALA:541:N:4889, V-A:TYR:539:CD2:4872, V-A:TYR:539:CE2:4874, V-A:GLU:543:CD:4906, V-A:TYR:539:CZ:4875, V-A:PRO:540:CA:4881, V-A:ALA:541:CB:4890, V-A:TYR:539:CD1:4871, V-A:PRO:540:N:4882, V-A:TYR:539:CG:4870, V-A:TYR:539:CE1:4873, V-B:ILE:369:CG2:8209, V-A:TYR:539:C:4865, V-A:PRO:540:CB:4883, V-B:HIS:456:CE1:9042, V-A:GLU:543:CB:4904, V-B:TYR:484:CZ:9319, V-B:TYR:484:CE1:9317, V-A:PRO:540:CD:4885, V-A:ILE:538:CB:4860, V-A:ILE:538:CG2:4861, V-A:LEU:363:CD1:3187, V-A:TYR:531:CE2:4791, V-B:ARG:545:CG:9894, H-A:TYR:539:N:4868, V-A:GLU:543:CG:4905, V-B:ILE:369:CD1:8211, V-B:ARG:545:CD:9895, H-B:ASP:366:OD1:8186, V-A:MET:535:CG:4831, V-A:ILE:538:CA:4858, H-A:TYR:539:OH:4876, V-B:TYR:531:CZ:9766, V-A:PRO:540:C:4879, V-A:ILE:538:C:4856, H-B:ASN:370:ND2:8220, V-A:GLU:543:CA:4902, V-B:TYR:531:CE1:9764, V-B:GLY:453:CA:9016, V-A:TYR:539:CA:4867"]

$$$$
RR19_Rahimova_2017
     RDKit          3D

 46 51  0  0  0  0  0  0  0  0999 V2000
  128.8990  126.7860   54.4810 O   0  0  0  0  0  0  0  0  0  0  0  0
  128.7180  126.8460   55.7000 C   0  0  0  0  0  0  0  0  0  0  0  0
  128.6470  127.9810   56.4410 N   0  0  0  0  0  0  0  0  0  0  0  0
  128.5310  129.3090   56.1100 C   0  0  0  0  0  0  0  0  0  0  0  0
  128.1850  129.9130   54.5660 S   0  0  0  0  0  0  0  0  0  0  0  0
  128.7400  130.0630   57.2380 N   0  0  0  0  0  0  0  0  0  0  0  0
  128.6060  131.3870   57.5020 C   0  0  0  0  0  0  0  0  0  0  0  0
  128.0640  132.2260   56.7790 O   0  0  0  0  0  0  0  0  0  0  0  0
  129.2360  131.8260   58.8480 C   0  0  2  0  0  0  0  0  0  0  0  0
  130.6930  131.3320   59.0790 C   0  0  0  0  0  0  0  0  0  0  0  0
  131.6380  131.5310   57.9050 C   0  0  0  0  0  0  0  0  0  0  0  0
  131.2550  132.3070   56.7900 C   0  0  0  0  0  0  0  0  0  0  0  0
  132.1590  132.5430   55.7630 C   0  0  0  0  0  0  0  0  0  0  0  0
  133.4500  132.0330   55.8350 C   0  0  0  0  0  0  0  0  0  0  0  0
  133.8510  131.2920   56.9400 C   0  0  0  0  0  0  0  0  0  0  0  0
  132.9620  131.0470   57.9780 C   0  0  0  0  0  0  0  0  0  0  0  0
  128.3530  131.4810   59.9960 N   0  0  0  0  0  0  0  0  0  0  0  0
  127.8880  132.4400   60.8470 C   0  0  0  0  0  0  0  0  0  0  0  0
  128.1340  133.6470   60.8160 O   0  0  0  0  0  0  0  0  0  0  0  0
  127.0210  131.7240   61.8140 C   0  0  0  0  0  0  0  0  0  0  0  0
  126.2880  132.1920   62.9060 C   0  0  0  0  0  0  0  0  0  0  0  0
  125.5380  131.2770   63.6520 C   0  0  0  0  0  0  0  0  0  0  0  0
  125.5290  129.9190   63.3010 C   0  0  0  0  0  0  0  0  0  0  0  0
  126.2700  129.4700   62.2020 C   0  0  0  0  0  0  0  0  0  0  0  0
  127.0120  130.3990   61.4720 C   0  0  0  0  0  0  0  0  0  0  0  0
  127.8730  130.2320   60.2750 C   0  0  0  0  0  0  0  0  0  0  0  0
  128.0960  129.1880   59.6610 O   0  0  0  0  0  0  0  0  0  0  0  0
  128.5630  125.5350   56.5170 C   0  0  2  0  0  0  0  0  0  0  0  0
  127.3970  125.5670   57.5460 C   0  0  0  0  0  0  0  0  0  0  0  0
  126.2400  124.6500   57.1950 C   0  0  0  0  0  0  0  0  0  0  0  0
  125.0640  124.6620   57.9770 C   0  0  0  0  0  0  0  0  0  0  0  0
  123.9690  123.8980   57.5940 C   0  0  0  0  0  0  0  0  0  0  0  0
  124.0130  123.1430   56.4300 C   0  0  0  0  0  0  0  0  0  0  0  0
  125.1490  123.1520   55.6300 C   0  0  0  0  0  0  0  0  0  0  0  0
  126.2560  123.9080   55.9950 C   0  0  0  0  0  0  0  0  0  0  0  0
  129.8350  125.0770   57.1460 N   0  0  0  0  0  0  0  0  0  0  0  0
  129.8430  124.2280   58.2110 C   0  0  0  0  0  0  0  0  0  0  0  0
  128.8670  123.7510   58.7930 O   0  0  0  0  0  0  0  0  0  0  0  0
  131.2760  123.9970   58.5200 C   0  0  0  0  0  0  0  0  0  0  0  0
  131.8850  123.2230   59.5090 C   0  0  0  0  0  0  0  0  0  0  0  0
  133.2830  123.1880   59.5660 C   0  0  0  0  0  0  0  0  0  0  0  0
  134.0460  123.9160   58.6440 C   0  0  0  0  0  0  0  0  0  0  0  0
  133.4160  124.6850   57.6580 C   0  0  0  0  0  0  0  0  0  0  0  0
  132.0210  124.7080   57.6200 C   0  0  0  0  0  0  0  0  0  0  0  0
  131.0860  125.4120   56.7090 C   0  0  0  0  0  0  0  0  0  0  0  0
  131.3750  126.1430   55.7610 O   0  0  0  0  0  0  0  0  0  0  0  0
  1  2  2  0
  2  3  1  0
  3  4  1  0
  4  5  2  0
  4  6  1  0
  6  7  1  0
  7  8  2  0
  7  9  1  0
  9 10  1  1
 10 11  1  0
 11 12  2  0
 12 13  1  0
 13 14  2  0
 14 15  1  0
 15 16  2  0
  9 17  1  0
 17 18  1  0
 18 19  2  0
 18 20  1  0
 20 21  2  0
 21 22  1  0
 22 23  2  0
 23 24  1  0
 24 25  2  0
 25 26  1  0
 26 27  2  0
  2 28  1  0
 28 29  1  1
 29 30  1  0
 30 31  2  0
 31 32  1  0
 32 33  2  0
 33 34  1  0
 34 35  2  0
 28 36  1  0
 36 37  1  0
 37 38  2  0
 37 39  1  0
 39 40  2  0
 40 41  1  0
 41 42  2  0
 42 43  1  0
 43 44  2  0
 44 45  1  0
 45 46  2  0
 16 11  1  0
 26 17  1  0
 35 30  1  0
 45 36  1  0
 25 20  1  0
 44 39  1  0
M  END
>  <Binding energies>  (73) 
[-12.39]

>  <Ligand effiencies>  (73) 
[-0.258125]

>  <Interactions>  (73) 
["V-B:TYR:539:CD2:9846, V-B:PRO:540:CA:9855, V-B:TYR:539:CZ:9849, V-B:TYR:539:CE2:9848, V-B:ARG:545:CZ:9898, H-A:ALA:541:N:4889, V-A:TYR:539:CE2:4874, V-A:ASP:366:CG:3211, V-A:PRO:540:CA:4881, V-A:ALA:541:CB:4890, V-A:PRO:540:N:4882, V-A:TYR:539:C:4865, V-A:PRO:540:CB:4883, V-B:ILE:538:CA:9832, V-B:PRO:540:CB:9857, V-B:PRO:540:CD:9859, V-B:PRO:540:N:9856, V-B:ILE:538:CB:9834, V-B:ILE:538:CG2:9835, V-A:LEU:363:CA:3183, V-A:PRO:540:CD:4885, V-A:ILE:538:CB:4860, V-A:ILE:538:CG2:4861, V-A:LEU:363:CD1:3187, V-A:TYR:531:CE2:4791, V-A:LEU:363:CB:3185, V-A:ASP:366:CB:3210, H-A:TYR:531:OH:4793, V-B:LEU:363:CA:8157, V-B:LEU:363:CD1:8161, V-A:ILE:369:CG2:3235, V-A:ILE:369:CD1:3237, V-B:PRO:540:CG:9858, V-B:TYR:531:CE2:9765, V-A:ILE:538:CA:4858, V-A:TYR:531:CZ:4792, V-A:ILE:538:C:4856, H-B:TYR:539:OH:9850, V-A:ILE:369:CB:3234, V-A:ASP:366:CA:3208, V-A:ASP:366:C:3206"]

$$$$
RR1_Rahimova_2017
     RDKit          3D

 41 44  0  0  0  0  0  0  0  0999 V2000
  126.3470  129.8250   54.3080 C   0  0  0  0  0  0  0  0  0  0  0  0
  126.0000  129.0780   55.4680 O   0  0  0  0  0  0  0  0  0  0  0  0
  125.7680  129.7450   56.6550 C   0  0  0  0  0  0  0  0  0  0  0  0
  124.4990  129.9260   57.2260 C   0  0  0  0  0  0  0  0  0  0  0  0
  124.3610  130.6200   58.4250 C   0  0  0  0  0  0  0  0  0  0  0  0
  125.4820  131.1380   59.0750 C   0  0  0  0  0  0  0  0  0  0  0  0
  125.2350  131.8630   60.2560 N   0  0  0  0  0  0  0  0  0  0  0  0
  124.0970  131.9630   60.9760 C   0  0  0  0  0  0  0  0  0  0  0  0
  123.0190  131.4620   60.6570 O   0  0  0  0  0  0  0  0  0  0  0  0
  124.2300  132.7800   62.2710 C   0  0  0  0  0  0  0  0  0  0  0  0
  124.5050  131.8030   63.7900 S   0  0  0  0  0  0  0  0  0  0  0  0
  125.9520  130.9460   63.2650 C   0  0  0  0  0  0  0  0  0  0  0  0
  126.7780  131.3880   62.3500 N   0  0  0  0  0  0  0  0  0  0  0  0
  127.7140  130.4460   62.2850 C   0  0  0  0  0  0  0  0  0  0  0  0
  128.8920  130.5460   61.3580 C   0  0  0  0  0  0  0  0  0  0  0  0
  129.1960  129.5230   60.4450 C   0  0  0  0  0  0  0  0  0  0  0  0
  130.3000  129.6430   59.5980 C   0  0  0  0  0  0  0  0  0  0  0  0
  131.0810  130.7940   59.6830 C   0  0  0  0  0  0  0  0  0  0  0  0
  130.8160  131.8000   60.5530 N   0  0  0  0  0  0  0  0  0  0  0  0
  129.7380  131.6650   61.3680 C   0  0  0  0  0  0  0  0  0  0  0  0
  127.5390  129.4180   63.0950 N   0  0  0  0  0  0  0  0  0  0  0  0
  126.4050  129.7370   63.7260 N   0  0  0  0  0  0  0  0  0  0  0  0
  125.8530  128.8550   64.7540 C   0  0  0  0  0  0  0  0  0  0  0  0
  126.5650  128.9200   66.1160 C   0  0  0  0  0  0  0  0  0  0  0  0
  127.0120  129.9890   66.5460 O   0  0  0  0  0  0  0  0  0  0  0  0
  126.6530  127.7440   66.7680 N   0  0  0  0  0  0  0  0  0  0  0  0
  127.1490  127.7500   68.0640 N   0  0  0  0  0  0  0  0  0  0  0  0
  128.4900  127.7200   68.2260 C   0  0  0  0  0  0  0  0  0  0  0  0
  129.3020  127.7910   67.2970 O   0  0  0  0  0  0  0  0  0  0  0  0
  128.9750  127.6180   69.6580 C   0  0  0  0  0  0  0  0  0  0  0  0
  130.1110  126.8580   69.9580 C   0  0  0  0  0  0  0  0  0  0  0  0
  130.5660  126.7410   71.2670 C   0  0  0  0  0  0  0  0  0  0  0  0
  129.8930  127.3790   72.3220 C   0  0  0  0  0  0  0  0  0  0  0  0
  130.2860  127.2920   73.6460 O   0  0  0  0  0  0  0  0  0  0  0  0
  131.4510  126.5490   73.9840 C   0  0  0  0  0  0  0  0  0  0  0  0
  128.7500  128.1390   72.0430 C   0  0  0  0  0  0  0  0  0  0  0  0
  128.1110  128.7310   73.1200 O   0  0  0  0  0  0  0  0  0  0  0  0
  126.7410  128.4410   73.3710 C   0  0  0  0  0  0  0  0  0  0  0  0
  128.3030  128.2550   70.7140 C   0  0  0  0  0  0  0  0  0  0  0  0
  126.7530  130.9580   58.5070 C   0  0  0  0  0  0  0  0  0  0  0  0
  126.8870  130.2620   57.3090 C   0  0  0  0  0  0  0  0  0  0  0  0
  1  2  1  0
  2  3  1  0
  3  4  2  0
  4  5  1  0
  5  6  2  0
  6  7  1  0
  7  8  1  0
  8  9  2  0
  8 10  1  0
 10 11  1  0
 11 12  1  0
 12 13  2  0
 13 14  1  0
 14 15  1  0
 15 16  2  0
 16 17  1  0
 17 18  2  0
 18 19  1  0
 19 20  2  0
 14 21  2  0
 21 22  1  0
 22 23  1  0
 23 24  1  0
 24 25  2  0
 24 26  1  0
 26 27  1  0
 27 28  1  0
 28 29  2  0
 28 30  1  0
 30 31  2  0
 31 32  1  0
 32 33  2  0
 33 34  1  0
 34 35  1  0
 33 36  1  0
 36 37  1  0
 37 38  1  0
 36 39  2  0
  6 40  1  0
 40 41  2  0
 41  3  1  0
 22 12  1  0
 39 30  1  0
 20 15  1  0
M  END
>  <Binding energies>  (74) 
[-8.46]

>  <Ligand effiencies>  (74) 
[-0.1922727272727273]

>  <Interactions>  (74) 
["V-B:ASP:366:CG:8185, V-A:HIS:456:CE1:4068, V-B:GLU:543:CD:9880, H-B:GLU:543:OE2:9882, V-B:ARG:545:CZ:9898, H-A:ALA:541:N:4889, V-A:TYR:539:CE2:4874, V-A:GLU:543:CD:4906, V-A:TYR:539:CZ:4875, V-A:PRO:540:CA:4881, V-A:ALA:541:CB:4890, V-B:LEU:475:CD2:9231, V-B:HIS:456:CD2:9040, V-A:GLY:544:C:4910, V-A:HIS:456:CG:4064, V-A:LYS:547:CD:4947, H-A:LYS:547:NZ:4949, H-B:LYS:547:NZ:9923, V-A:HIS:456:CD2:4066, V-B:HIS:456:CG:9038, V-A:LYS:547:CE:4948, V-B:HIS:456:CB:9037, V-B:GLY:544:C:9884, H-B:TYR:531:OH:9767, H-B:TYR:484:OH:9320, V-B:HIS:456:CE1:9042, V-B:ASP:366:CB:8184, V-B:ARG:545:CG:9894, H-B:GLU:543:O:9875, V-B:GLU:543:CG:9879, V-B:ASP:366:CA:8182, V-B:ILE:369:CD1:8211, V-B:ARG:545:CD:9895, H-B:HIS:456:NE2:9043, H-B:GLY:454:N:9022, V-B:MET:535:CE:9807, V-B:GLY:454:CA:9021, V-B:TYR:531:CE1:9764"]

$$$$
RR22_Rahimova_2017
     RDKit          3D

 31 36  0  0  0  0  0  0  0  0999 V2000
  131.6210  125.5190   53.4980 O   0  0  0  0  0  0  0  0  0  0  0  0
  131.0960  125.3580   54.5980 C   0  0  0  0  0  0  0  0  0  0  0  0
  131.7200  125.3100   55.8320 N   0  0  0  0  0  0  0  0  0  0  0  0
  130.9510  125.1750   57.0320 C   0  0  1  0  0  0  0  0  0  0  0  0
  131.4800  124.0190   57.6880 O   0  0  0  0  0  0  0  0  0  0  0  0
  132.0140  124.1690   58.9680 C   0  0  0  0  0  0  0  0  0  0  0  0
  132.8370  123.1390   59.4230 C   0  0  0  0  0  0  0  0  0  0  0  0
  133.3760  123.1990   60.7080 C   0  0  0  0  0  0  0  0  0  0  0  0
  133.0840  124.2820   61.5380 C   0  0  0  0  0  0  0  0  0  0  0  0
  132.2600  125.3120   61.0830 C   0  0  0  0  0  0  0  0  0  0  0  0
  131.7330  125.2780   59.7880 C   0  0  0  0  0  0  0  0  0  0  0  0
  130.7970  126.3200   59.2170 C   0  0  1  0  0  0  0  0  0  0  0  0
  130.8670  127.7810   59.6110 C   0  0  0  0  0  0  0  0  0  0  0  0
  130.3680  128.4260   58.3150 C   0  0  0  0  0  0  0  0  0  0  0  0
  129.8690  129.8140   58.2540 C   0  0  0  0  0  0  0  0  0  0  0  0
  129.5550  130.5110   59.4310 C   0  0  0  0  0  0  0  0  0  0  0  0
  129.0860  131.8200   59.3690 C   0  0  0  0  0  0  0  0  0  0  0  0
  128.9270  132.4400   58.1320 C   0  0  0  0  0  0  0  0  0  0  0  0
  129.2330  131.7620   56.9550 C   0  0  0  0  0  0  0  0  0  0  0  0
  129.7040  130.4530   57.0160 C   0  0  0  0  0  0  0  0  0  0  0  0
  130.4710  127.6180   57.3270 N   0  0  0  0  0  0  0  0  0  0  0  0
  131.0310  126.4220   57.8080 N   0  0  0  0  0  0  0  0  0  0  0  0
  129.5310  124.8350   56.6030 C   0  0  0  0  0  0  0  0  0  0  0  0
  128.6130  124.3060   57.4450 C   0  0  0  0  0  0  0  0  0  0  0  0
  127.2080  123.9510   57.1690 C   0  0  0  0  0  0  0  0  0  0  0  0
  126.1410  124.3500   57.9860 C   0  0  0  0  0  0  0  0  0  0  0  0
  124.8360  123.9750   57.6610 C   0  0  0  0  0  0  0  0  0  0  0  0
  124.6310  123.1980   56.5210 C   0  0  0  0  0  0  0  0  0  0  0  0
  125.6450  122.7910   55.7170 N   0  0  0  0  0  0  0  0  0  0  0  0
  126.9070  123.1660   56.0490 C   0  0  0  0  0  0  0  0  0  0  0  0
  129.3130  125.1330   54.8720 S   0  0  0  0  0  0  0  0  0  0  0  0
  1  2  2  0
  2  3  1  0
  4  3  1  6
  4  5  1  0
  5  6  1  0
  6  7  2  0
  7  8  1  0
  8  9  2  0
  9 10  1  0
 10 11  2  0
 11 12  1  0
 12 13  1  1
 13 14  1  0
 14 15  1  0
 15 16  2  0
 16 17  1  0
 17 18  2  0
 18 19  1  0
 19 20  2  0
 14 21  2  0
 21 22  1  0
  4 23  1  0
 23 24  2  0
 24 25  1  0
 25 26  2  0
 26 27  1  0
 27 28  2  0
 28 29  1  0
 29 30  2  0
 23 31  1  0
 31  2  1  0
 22  4  1  0
 30 25  1  0
 11  6  1  0
 22 12  1  0
 20 15  1  0
M  END
>  <Binding energies>  (75) 
[-8.96]

>  <Ligand effiencies>  (75) 
[-0.28]

>  <Interactions>  (75) 
["V-B:PRO:540:CA:9855, V-B:TYR:539:CZ:9849, V-B:TYR:539:CE2:9848, V-A:TYR:539:CD2:4872, V-A:TYR:539:CE2:4874, V-A:ASP:366:CG:3211, V-A:PRO:540:CA:4881, V-A:PRO:540:N:4882, V-A:TYR:539:CG:4870, V-A:TYR:539:C:4865, V-B:ILE:538:CA:9832, V-B:PRO:540:CB:9857, V-B:PRO:540:CD:9859, V-B:PRO:540:N:9856, V-B:TYR:539:C:9839, V-B:ILE:538:CB:9834, H-B:TYR:539:N:9842, H-A:TYR:531:OH:4793, V-A:ILE:369:CG2:3235, V-A:ILE:369:CD1:3237, V-B:PRO:540:CG:9858, V-B:TYR:531:CE2:9765, H-A:ASN:370:ND2:3246, H-B:TYR:539:OH:9850, V-A:TYR:531:CE1:4790, H-A:ASP:366:O:3207"]

$$$$
RR24_Rahimova_2017
     RDKit          3D

 43 49  0  0  0  0  0  0  0  0999 V2000
  126.8560  130.8880   58.0140 C   0  0  0  0  0  0  0  0  0  0  0  0
  127.4870  130.9080   56.6140 C   0  0  2  0  0  0  0  0  0  0  0  0
  127.0750  129.6870   55.7380 C   0  0  0  0  0  0  0  0  0  0  0  0
  125.9280  129.5510   55.3000 O   0  0  0  0  0  0  0  0  0  0  0  0
  128.1030  128.8090   55.5500 O   0  0  0  0  0  0  0  0  0  0  0  0
  128.1640  127.6610   56.3070 C   0  0  0  0  0  0  0  0  0  0  0  0
  127.4530  127.5950   57.5080 C   0  0  0  0  0  0  0  0  0  0  0  0
  127.4990  126.4360   58.2770 C   0  0  0  0  0  0  0  0  0  0  0  0
  128.2480  125.3370   57.8470 C   0  0  0  0  0  0  0  0  0  0  0  0
  128.3100  124.0700   58.7090 C   0  0  1  0  0  0  0  0  0  0  0  0
  129.6750  123.9220   59.4210 C   0  0  0  0  0  0  0  0  0  0  0  0
  129.7870  123.6980   60.7430 C   0  0  0  0  0  0  0  0  0  0  0  0
  128.6900  123.5860   61.5620 N   0  0  0  0  0  0  0  0  0  0  0  0
  127.4130  123.7000   61.0650 C   0  0  0  0  0  0  0  0  0  0  0  0
  126.4410  123.5560   62.0020 N   0  0  0  0  0  0  0  0  0  0  0  0
  125.1210  123.7150   61.7120 C   0  0  0  0  0  0  0  0  0  0  0  0
  124.3190  123.8900   62.6320 O   0  0  0  0  0  0  0  0  0  0  0  0
  124.8490  123.8260   60.3580 N   0  0  0  0  0  0  0  0  0  0  0  0
  123.4230  123.9090   59.9810 C   0  0  0  0  0  0  0  0  0  0  0  0
  125.7570  123.9810   59.3240 C   0  0  0  0  0  0  0  0  0  0  0  0
  125.4400  124.1270   58.1400 O   0  0  0  0  0  0  0  0  0  0  0  0
  127.1590  123.9320   59.7510 C   0  0  0  0  0  0  0  0  0  0  0  0
  131.1830  123.6030   61.1350 C   0  0  0  0  0  0  0  0  0  0  0  0
  131.8140  123.3890   62.3610 C   0  0  0  0  0  0  0  0  0  0  0  0
  133.2100  123.3500   62.4120 C   0  0  0  0  0  0  0  0  0  0  0  0
  133.9620  123.5220   61.2460 C   0  0  0  0  0  0  0  0  0  0  0  0
  133.3240  123.7360   60.0210 C   0  0  0  0  0  0  0  0  0  0  0  0
  131.9290  123.7750   59.9770 C   0  0  0  0  0  0  0  0  0  0  0  0
  131.0110  123.9780   58.8360 C   0  0  0  0  0  0  0  0  0  0  0  0
  131.2630  124.1590   57.6460 O   0  0  0  0  0  0  0  0  0  0  0  0
  128.9430  125.3990   56.6350 C   0  0  0  0  0  0  0  0  0  0  0  0
  128.8960  126.5570   55.8640 C   0  0  0  0  0  0  0  0  0  0  0  0
  128.9670  131.0950   56.6680 N   0  0  0  0  0  0  0  0  0  0  0  0
  129.7330  130.4570   57.5970 C   0  0  0  0  0  0  0  0  0  0  0  0
  129.3510  129.6880   58.4810 O   0  0  0  0  0  0  0  0  0  0  0  0
  131.1270  130.8850   57.3200 C   0  0  0  0  0  0  0  0  0  0  0  0
  132.3260  130.5540   57.9520 C   0  0  0  0  0  0  0  0  0  0  0  0
  133.5140  131.1150   57.4690 C   0  0  0  0  0  0  0  0  0  0  0  0
  133.4890  131.9860   56.3730 C   0  0  0  0  0  0  0  0  0  0  0  0
  132.2760  132.3060   55.7530 C   0  0  0  0  0  0  0  0  0  0  0  0
  131.1020  131.7380   56.2500 C   0  0  0  0  0  0  0  0  0  0  0  0
  129.6910  131.8790   55.8120 C   0  0  0  0  0  0  0  0  0  0  0  0
  129.2660  132.5540   54.8740 O   0  0  0  0  0  0  0  0  0  0  0  0
  2  1  1  1
  2  3  1  0
  3  4  2  0
  3  5  1  0
  5  6  1  0
  6  7  2  0
  7  8  1  0
  8  9  2  0
 10  9  1  1
 10 11  1  0
 11 12  2  0
 12 13  1  0
 13 14  1  0
 14 15  1  0
 15 16  1  0
 16 17  2  0
 16 18  1  0
 18 19  1  0
 18 20  1  0
 20 21  2  0
 20 22  1  0
 12 23  1  0
 23 24  2  0
 24 25  1  0
 25 26  2  0
 26 27  1  0
 27 28  2  0
 28 29  1  0
 29 30  2  0
  9 31  1  0
 31 32  2  0
  2 33  1  0
 33 34  1  0
 34 35  2  0
 34 36  1  0
 36 37  2  0
 37 38  1  0
 38 39  2  0
 39 40  1  0
 40 41  2  0
 41 42  1  0
 42 43  2  0
 32  6  1  0
 42 33  1  0
 22 10  1  0
 28 23  1  0
 41 36  1  0
 29 11  1  0
 22 14  2  0
M  END
>  <Binding energies>  (76) 
[-11.91]

>  <Ligand effiencies>  (76) 
[-0.26466666666666666]

>  <Interactions>  (76) 
["V-B:ALA:541:CB:9864, H-B:ARG:545:NH2:9900, V-B:ASP:366:CG:8185, H-B:GLU:543:OE1:9881, V-B:GLU:543:CD:9880, V-B:PRO:540:CA:9855, H-B:ALA:541:O:9861, V-B:TYR:539:CZ:9849, H-B:GLU:543:OE2:9882, V-B:TYR:539:CE2:9848, V-A:TYR:539:CE2:4874, V-A:ASP:366:CG:3211, V-A:TYR:539:CZ:4875, V-A:PRO:540:N:4882, V-A:TYR:539:CE1:4873, V-A:PRO:540:CB:4883, V-B:ASN:362:C:8144, V-B:PRO:540:CB:9857, H-B:TYR:531:OH:9767, V-B:ASN:362:CB:8148, V-A:LEU:363:CA:3183, V-A:PRO:540:CD:4885, V-A:ILE:538:CB:4860, V-A:PRO:540:CG:4884, V-A:ILE:538:CG2:4861, V-A:LEU:363:CD1:3187, V-A:TYR:531:CE2:4791, H-A:TYR:539:N:4868, V-B:LEU:363:CA:8157, V-A:ILE:369:CD1:3237, V-A:ILE:538:CA:4858, H-A:TYR:539:OH:4876, V-B:PRO:540:C:9853, V-B:ALA:541:C:9860, V-B:ALA:541:CA:9862, H-B:TYR:539:OH:9850, V-A:GLY:454:CA:4047, V-B:ASN:362:CA:8146, H-B:ASN:362:ND2:8151"]

$$$$
RR25_Rahimova_2017
     RDKit          3D

 39 44  0  0  0  0  0  0  0  0999 V2000
  131.2450  125.7780   55.2640 O   0  0  0  0  0  0  0  0  0  0  0  0
  131.2800  125.5690   56.4770 C   0  0  0  0  0  0  0  0  0  0  0  0
  132.2260  124.6740   56.9110 O   0  0  0  0  0  0  0  0  0  0  0  0
  132.5330  124.5410   58.2530 C   0  0  0  0  0  0  0  0  0  0  0  0
  133.8090  124.0720   58.5610 C   0  0  0  0  0  0  0  0  0  0  0  0
  134.1830  123.9070   59.8930 C   0  0  0  0  0  0  0  0  0  0  0  0
  133.2880  124.2030   60.9330 C   0  0  0  0  0  0  0  0  0  0  0  0
  133.6910  124.0330   62.3510 N   0  0  0  0  0  0  0  0  0  0  0  0
  133.4700  122.9570   62.9000 O   0  0  0  0  0  0  0  0  0  0  0  0
  134.2300  124.9750   62.9240 O   0  0  0  0  0  0  0  0  0  0  0  0
  132.0030  124.6620   60.6000 C   0  0  0  0  0  0  0  0  0  0  0  0
  131.6100  124.8260   59.2690 C   0  0  0  0  0  0  0  0  0  0  0  0
  130.2380  125.3290   58.8590 C   0  0  0  0  0  0  0  0  0  0  0  0
  130.3600  126.1890   57.5690 C   0  0  2  0  0  0  0  0  0  0  0  0
  128.9600  126.6410   57.0630 C   0  0  0  0  0  0  0  0  0  0  0  0
  127.9880  126.1300   57.6260 O   0  0  0  0  0  0  0  0  0  0  0  0
  128.8070  127.6370   56.1390 N   0  0  0  0  0  0  0  0  0  0  0  0
  129.8910  128.0550   55.2250 C   0  0  0  0  0  0  0  0  0  0  0  0
  129.8160  129.5830   55.0230 C   0  0  0  0  0  0  0  0  0  0  0  0
  128.4900  129.9970   54.5580 N   0  0  0  0  0  0  0  0  0  0  0  0
  128.4550  131.4310   54.2380 C   0  0  0  0  0  0  0  0  0  0  0  0
  129.7870  132.1550   54.5710 C   0  0  0  0  0  0  0  0  0  0  0  0
  130.3000  131.9780   55.9610 N   0  0  0  0  0  0  0  0  0  0  0  0
  129.3430  132.0320   56.9530 C   0  0  0  0  0  0  0  0  0  0  0  0
  128.1460  132.2460   56.7280 O   0  0  0  0  0  0  0  0  0  0  0  0
  129.8710  131.7850   58.3530 C   0  0  0  0  0  0  0  0  0  0  0  0
  128.9800  131.7910   59.4340 C   0  0  0  0  0  0  0  0  0  0  0  0
  129.4290  131.5600   60.7330 C   0  0  0  0  0  0  0  0  0  0  0  0
  130.7770  131.3140   60.9930 C   0  0  0  0  0  0  0  0  0  0  0  0
  131.7130  131.2990   59.9310 C   0  0  0  0  0  0  0  0  0  0  0  0
  133.0940  131.0550   60.1230 C   0  0  0  0  0  0  0  0  0  0  0  0
  133.9620  131.0510   59.0330 C   0  0  0  0  0  0  0  0  0  0  0  0
  133.4920  131.2870   57.7430 C   0  0  0  0  0  0  0  0  0  0  0  0
  132.1330  131.5330   57.5050 C   0  0  0  0  0  0  0  0  0  0  0  0
  131.2430  131.5380   58.6100 C   0  0  0  0  0  0  0  0  0  0  0  0
  131.6590  131.7770   56.0850 C   0  0  0  0  0  0  0  0  0  0  0  0
  132.4370  131.7760   55.1250 O   0  0  0  0  0  0  0  0  0  0  0  0
  127.4800  129.6420   55.5560 C   0  0  0  0  0  0  0  0  0  0  0  0
  127.4440  128.1160   55.8150 C   0  0  0  0  0  0  0  0  0  0  0  0
  1  2  2  0
  2  3  1  0
  3  4  1  0
  4  5  2  0
  5  6  1  0
  6  7  2  0
  7  8  1  0
  8  9  2  0
  8 10  1  0
  7 11  1  0
 11 12  2  0
 12 13  1  0
 13 14  1  0
 14 15  1  6
 15 16  2  0
 15 17  1  0
 17 18  1  0
 18 19  1  0
 19 20  1  0
 20 21  1  0
 21 22  1  0
 22 23  1  0
 23 24  1  0
 24 25  2  0
 24 26  1  0
 26 27  2  0
 27 28  1  0
 28 29  2  0
 29 30  1  0
 30 31  2  0
 31 32  1  0
 32 33  2  0
 33 34  1  0
 34 35  2  0
 34 36  1  0
 36 37  2  0
 20 38  1  0
 38 39  1  0
 14  2  1  0
 39 17  1  0
 12  4  1  0
 36 23  1  0
 35 26  1  0
 35 30  1  0
M  CHG  2   8   1  10  -1
M  END
>  <Binding energies>  (77) 
[-11.38]

>  <Ligand effiencies>  (77) 
[-0.2917948717948718]

>  <Interactions>  (77) 
["V-A:GLY:453:CA:4042, V-B:TYR:539:CZ:9849, V-B:TYR:539:CE2:9848, H-A:ARG:545:NH2:4926, V-A:ASP:366:CG:3211, V-A:PRO:540:CA:4881, V-A:TYR:539:CD1:4871, V-A:PRO:540:N:4882, V-A:TYR:539:CE1:4873, V-A:TYR:539:C:4865, V-A:PRO:540:CB:4883, V-A:LEU:363:CA:3183, V-A:PRO:540:CD:4885, V-A:ILE:538:CB:4860, V-A:ILE:538:CG2:4861, H-A:TYR:484:OH:4346, H-A:ARG:545:NH1:4925, H-A:GLY:454:N:4048, V-A:ASP:366:CB:3210, H-A:TYR:531:OH:4793, V-A:ILE:369:CG2:3235, V-A:ILE:369:CD1:3237, V-A:ILE:538:CA:4858, V-A:TYR:531:CZ:4792, V-A:PRO:540:C:4879, V-A:ASN:362:CB:3174, V-A:ILE:538:C:4856, H-B:TYR:539:OH:9850, V-A:ASN:362:C:3170, V-A:ILE:369:CB:3234, V-A:GLY:454:CA:4047, V-A:ASP:366:CA:3208, V-A:GLY:453:C:4040"]

$$$$
RR27_Rahimova_2017
     RDKit          3D

 39 44  0  0  0  0  0  0  0  0999 V2000
  127.1500  123.2910   57.6240 O   0  0  0  0  0  0  0  0  0  0  0  0
  128.1640  123.8650   58.0350 C   0  0  0  0  0  0  0  0  0  0  0  0
  128.3070  124.1030   59.5660 C   0  0  0  0  0  0  0  0  0  0  0  0
  129.4230  123.2580   60.2080 C   0  0  0  0  0  0  0  0  0  0  0  0
  130.4720  123.8440   60.9340 C   0  0  0  0  0  0  0  0  0  0  0  0
  131.4630  123.0500   61.5030 C   0  0  0  0  0  0  0  0  0  0  0  0
  131.4120  121.6680   61.3490 C   0  0  0  0  0  0  0  0  0  0  0  0
  130.3790  121.0720   60.6300 C   0  0  0  0  0  0  0  0  0  0  0  0
  129.3880  121.8660   60.0610 C   0  0  0  0  0  0  0  0  0  0  0  0
  126.9460  124.0350   60.2860 C   0  0  0  0  0  0  0  0  0  0  0  0
  126.8540  123.8880   61.6760 C   0  0  0  0  0  0  0  0  0  0  0  0
  125.6070  123.8180   62.2930 C   0  0  0  0  0  0  0  0  0  0  0  0
  124.4500  123.8890   61.5220 C   0  0  0  0  0  0  0  0  0  0  0  0
  124.5270  124.0240   60.1390 C   0  0  0  0  0  0  0  0  0  0  0  0
  125.7730  124.0920   59.5230 C   0  0  0  0  0  0  0  0  0  0  0  0
  129.2080  124.1510   57.2070 N   0  0  0  0  0  0  0  0  0  0  0  0
  130.3150  125.0470   57.5780 C   0  0  0  0  0  0  0  0  0  0  0  0
  129.8740  126.4800   57.2070 C   0  0  0  0  0  0  0  0  0  0  0  0
  129.4500  126.6130   55.7100 C   0  0  0  0  0  0  0  0  0  0  0  0
  128.8950  127.9950   55.3160 C   0  0  0  0  0  0  0  0  0  0  0  0
  127.5430  128.0810   55.1490 N   0  0  0  0  0  0  0  0  0  0  0  0
  126.9980  129.2870   54.8270 C   0  0  0  0  0  0  0  0  0  0  0  0
  125.6580  129.4990   54.6380 O   0  0  0  0  0  0  0  0  0  0  0  0
  127.8530  130.3960   54.6770 C   0  0  0  0  0  0  0  0  0  0  0  0
  127.6460  131.7090   54.3730 N   0  0  0  0  0  0  0  0  0  0  0  0
  128.8810  132.3280   54.3610 N   0  0  0  0  0  0  0  0  0  0  0  0
  129.8290  131.4150   54.6590 N   0  0  0  0  0  0  0  0  0  0  0  0
  131.2400  131.7930   54.6920 C   0  0  0  0  0  0  0  0  0  0  0  0
  131.9090  131.5460   56.0370 C   0  0  0  0  0  0  0  0  0  0  0  0
  133.3020  131.6030   56.1510 C   0  0  0  0  0  0  0  0  0  0  0  0
  133.9140  131.3880   57.3870 C   0  0  0  0  0  0  0  0  0  0  0  0
  133.1380  131.1200   58.5140 C   0  0  0  0  0  0  0  0  0  0  0  0
  131.7470  131.0710   58.4090 C   0  0  0  0  0  0  0  0  0  0  0  0
  130.7830  130.7660   59.8080 Cl  0  0  0  0  0  0  0  0  0  0  0  0
  131.1350  131.2790   57.1730 C   0  0  0  0  0  0  0  0  0  0  0  0
  129.2350  130.1800   54.8630 C   0  0  0  0  0  0  0  0  0  0  0  0
  129.7960  129.0080   55.1710 N   0  0  0  0  0  0  0  0  0  0  0  0
  128.5410  125.4290   55.2550 C   0  0  0  0  0  0  0  0  0  0  0  0
  129.0450  124.0490   55.7480 C   0  0  0  0  0  0  0  0  0  0  0  0
  1  2  2  0
  2  3  1  0
  3  4  1  0
  4  5  2  0
  5  6  1  0
  6  7  2  0
  7  8  1  0
  8  9  2  0
  3 10  1  0
 10 11  2  0
 11 12  1  0
 12 13  2  0
 13 14  1  0
 14 15  2  0
  2 16  1  0
 16 17  1  0
 17 18  1  0
 18 19  1  0
 19 20  1  0
 20 21  2  0
 21 22  1  0
 22 23  1  0
 22 24  2  0
 24 25  1  0
 25 26  2  0
 26 27  1  0
 27 28  1  0
 28 29  1  0
 29 30  2  0
 30 31  1  0
 31 32  2  0
 32 33  1  0
 33 34  1  0
 33 35  2  0
 27 36  1  0
 36 37  2  0
 19 38  1  0
 38 39  1  0
  9  4  1  0
 15 10  1  0
 39 16  1  0
 37 20  1  0
 36 24  1  0
 35 29  1  0
M  END
>  <Binding energies>  (78) 
[-11.21]

>  <Ligand effiencies>  (78) 
[-0.28025]

>  <Interactions>  (78) 
["V-B:ALA:541:CB:9864, V-B:GLU:543:CD:9880, V-B:TYR:539:CD2:9846, V-B:PRO:540:CA:9855, V-B:TYR:539:CZ:9849, V-B:TYR:539:CE2:9848, V-B:ARG:545:CZ:9898, V-A:ASP:366:CG:3211, V-A:PRO:540:CA:4881, V-A:TYR:539:CE1:4873, V-A:PRO:540:CB:4883, V-B:PRO:540:CB:9857, V-B:TYR:539:C:9839, V-B:TYR:539:CE1:9847, V-B:TYR:539:CD1:9845, H-B:TYR:531:OH:9767, V-B:ASN:362:CB:8148, V-A:LEU:363:CA:3183, V-A:ILE:538:CB:4860, V-A:ILE:538:CG2:4861, V-A:LEU:363:CD1:3187, V-A:TYR:531:CE2:4791, V-A:LEU:363:CB:3185, H-A:TYR:539:N:4868, V-A:LEU:475:CD2:4257, H-A:TYR:531:OH:4793, V-A:ILE:538:CA:4858, H-A:TYR:539:OH:4876, V-A:TYR:531:CZ:4792, V-B:ALA:541:C:9860, V-B:ALA:541:CA:9862, H-B:ASN:370:ND2:8220"]

$$$$
RR28_Rahimova_2017
     RDKit          3D

 46 49  0  0  0  0  0  0  0  0999 V2000
  123.1010  123.8520   57.2920 C   0  0  0  0  0  0  0  0  0  0  0  0
  124.6000  124.0080   57.0630 C   0  0  0  0  0  0  0  0  0  0  0  0
  125.1540  123.3390   56.1930 O   0  0  0  0  0  0  0  0  0  0  0  0
  125.2360  124.8950   57.8550 N   0  0  0  0  0  0  0  0  0  0  0  0
  126.6740  125.2460   57.8660 C   0  0  0  0  0  0  0  0  0  0  0  0
  126.8560  126.5760   57.0800 C   0  0  0  0  0  0  0  0  0  0  0  0
  126.3490  127.7690   57.6190 C   0  0  0  0  0  0  0  0  0  0  0  0
  126.4890  128.9760   56.9420 C   0  0  0  0  0  0  0  0  0  0  0  0
  127.1410  129.0190   55.7090 C   0  0  0  0  0  0  0  0  0  0  0  0
  127.2810  130.3540   54.9780 C   0  0  0  0  0  0  0  0  0  0  0  0
  127.5290  131.3660   55.8130 F   0  0  0  0  0  0  0  0  0  0  0  0
  128.2780  130.2960   54.0950 F   0  0  0  0  0  0  0  0  0  0  0  0
  126.1480  130.6190   54.3270 F   0  0  0  0  0  0  0  0  0  0  0  0
  127.6490  127.8390   55.1600 C   0  0  0  0  0  0  0  0  0  0  0  0
  127.5080  126.6310   55.8380 C   0  0  0  0  0  0  0  0  0  0  0  0
  127.5350  124.0580   57.3050 C   0  0  0  0  0  0  0  0  0  0  0  0
  127.4950  122.7940   58.2020 C   0  0  0  0  0  0  0  0  0  0  0  0
  127.9920  123.2060   59.5250 N   0  0  0  0  0  0  0  0  0  0  0  0
  129.3080  123.0610   59.8390 C   0  0  0  0  0  0  0  0  0  0  0  0
  130.0890  122.4380   59.1160 O   0  0  0  0  0  0  0  0  0  0  0  0
  129.8050  123.5490   61.2220 C   0  0  0  0  0  0  0  0  0  0  0  0
  130.4840  124.9450   61.2450 C   0  0  0  0  0  0  0  0  0  0  0  0
  130.3080  125.7820   59.9560 C   0  0  0  0  0  0  0  0  0  0  0  0
  130.8410  125.3710   58.9220 O   0  0  0  0  0  0  0  0  0  0  0  0
  129.4700  126.8580   59.9580 N   0  0  0  0  0  0  0  0  0  0  0  0
  129.0710  127.5680   61.1790 C   0  0  0  0  0  0  0  0  0  0  0  0
  130.1780  128.6070   61.4670 C   0  0  0  0  0  0  0  0  0  0  0  0
  130.4550  129.6110   60.2940 C   0  0  0  0  0  0  0  0  0  0  0  0
  131.7610  130.2670   60.5170 N   0  0  0  0  0  0  0  0  0  0  0  0
  132.0570  131.2580   61.3810 C   0  0  0  0  0  0  0  0  0  0  0  0
  133.5010  131.7510   61.3760 C   0  0  0  0  0  0  0  0  0  0  0  0
  131.2430  131.7690   62.1490 O   0  0  0  0  0  0  0  0  0  0  0  0
  129.3550  130.7190   60.3560 C   0  0  0  0  0  0  0  0  0  0  0  0
  129.2200  131.7140   59.3730 C   0  0  0  0  0  0  0  0  0  0  0  0
  128.2250  132.6830   59.4650 C   0  0  0  0  0  0  0  0  0  0  0  0
  127.3390  132.6850   60.5450 C   0  0  0  0  0  0  0  0  0  0  0  0
  126.2390  133.7390   60.6580 C   0  0  0  0  0  0  0  0  0  0  0  0
  126.6850  134.9300   60.2530 F   0  0  0  0  0  0  0  0  0  0  0  0
  125.2120  133.3840   59.8860 F   0  0  0  0  0  0  0  0  0  0  0  0
  125.7950  133.8700   61.9090 F   0  0  0  0  0  0  0  0  0  0  0  0
  127.4650  131.7080   61.5340 C   0  0  0  0  0  0  0  0  0  0  0  0
  128.4610  130.7410   61.4380 C   0  0  0  0  0  0  0  0  0  0  0  0
  130.4630  128.8180   58.9300 C   0  0  0  0  0  0  0  0  0  0  0  0
  129.3760  127.7210   58.7740 C   0  0  0  0  0  0  0  0  0  0  0  0
  127.1170  124.1740   60.2010 C   0  0  0  0  0  0  0  0  0  0  0  0
  127.1260  125.4690   59.3470 C   0  0  0  0  0  0  0  0  0  0  0  0
  1  2  1  0
  2  3  2  0
  2  4  1  0
  4  5  1  0
  5  6  1  0
  6  7  2  0
  7  8  1  0
  8  9  2  0
  9 10  1  0
 10 11  1  0
 10 12  1  0
 10 13  1  0
  9 14  1  0
 14 15  2  0
  5 16  1  0
 16 17  1  0
 17 18  1  0
 18 19  1  0
 19 20  2  0
 19 21  1  0
 21 22  1  0
 22 23  1  0
 23 24  2  0
 23 25  1  0
 25 26  1  0
 26 27  1  0
 27 28  1  0
 28 29  1  0
 29 30  1  0
 30 31  1  0
 30 32  2  0
 28 33  1  0
 33 34  2  0
 34 35  1  0
 35 36  2  0
 36 37  1  0
 37 38  1  0
 37 39  1  0
 37 40  1  0
 36 41  1  0
 41 42  2  0
 28 43  1  0
 43 44  1  0
 18 45  1  0
 45 46  1  0
 46  5  1  0
 15  6  1  0
 44 25  1  0
 42 33  1  0
M  END
>  <Binding energies>  (79) 
[-9.22]

>  <Ligand effiencies>  (79) 
[-0.19208333333333336]

>  <Interactions>  (79) 
["V-B:ASP:366:CG:8185, H-B:ASP:366:OD2:8187, V-B:PRO:540:CA:9855, H-A:ALA:541:N:4889, V-A:TYR:539:CD2:4872, V-A:TYR:539:CE2:4874, H-A:ASP:366:OD2:3213, V-A:GLU:543:CD:4906, V-A:TYR:539:CZ:4875, V-A:PRO:540:CA:4881, V-A:TYR:539:CD1:4871, V-B:LEU:475:CD2:9231, V-B:TRP:381:CH2:8344, V-A:TYR:539:CG:4870, V-A:TYR:539:CE1:4873, V-B:ILE:369:CG2:8209, V-A:TYR:539:C:4865, V-A:PRO:540:CB:4883, V-B:PRO:540:CB:9857, V-B:PRO:540:N:9856, V-B:TYR:539:C:9839, H-B:TYR:531:OH:9767, V-B:LEU:363:CA:8157, V-B:LEU:363:CD1:8161, V-B:LEU:363:CB:8159, V-B:TYR:531:CE2:9765, V-B:TYR:531:CZ:9766, V-A:PRO:540:C:4879, V-A:ASN:362:CB:3174, V-A:ASN:362:CG:3175, V-A:ASN:362:C:3170, V-B:TYR:531:CE1:9764, V-A:ASN:362:CA:3172"]

$$$$
RR29_Rahimova_2017
     RDKit          3D

 18 19  0  0  0  0  0  0  0  0999 V2000
  126.5930  134.3580   61.3940 C   0  0  0  0  0  0  0  0  0  0  0  0
  127.1400  132.9770   61.7270 C   0  0  0  0  0  0  0  0  0  0  0  0
  127.8780  132.3190   60.5400 C   0  0  0  0  0  0  0  0  0  0  0  0
  129.3370  131.9680   60.8990 C   0  0  0  0  0  0  0  0  0  0  0  0
  130.2090  131.7920   59.6660 C   0  0  0  0  0  0  0  0  0  0  0  0
  131.4850  131.2070   59.7840 C   0  0  0  0  0  0  0  0  0  0  0  0
  132.3050  131.0340   58.6590 C   0  0  0  0  0  0  0  0  0  0  0  0
  131.8150  131.4710   57.4340 C   0  0  0  0  0  0  0  0  0  0  0  0
  130.5800  132.0420   57.3140 C   0  0  0  0  0  0  0  0  0  0  0  0
  129.7410  132.2160   58.4100 C   0  0  0  0  0  0  0  0  0  0  0  0
  130.3480  132.3410   56.0080 O   0  0  0  0  0  0  0  0  0  0  0  0
  131.5690  132.1330   55.3490 C   0  0  0  0  0  0  0  0  0  0  0  0
  132.3960  131.3940   56.2080 O   0  0  0  0  0  0  0  0  0  0  0  0
  126.9400  132.5040   62.9010 N   0  0  0  0  0  0  0  0  0  0  0  0
  127.3590  131.2210   63.1780 N   0  0  0  0  0  0  0  0  0  0  0  0
  126.6960  130.3700   63.9770 C   0  0  0  0  0  0  0  0  0  0  0  0
  125.5440  130.6420   64.5910 N   0  0  0  0  0  0  0  0  0  0  0  0
  127.2230  129.1700   64.1720 N   0  0  0  0  0  0  0  0  0  0  0  0
  1  2  1  0
  2  3  1  0
  3  4  1  0
  4  5  1  0
  5  6  2  0
  6  7  1  0
  7  8  2  0
  8  9  1  0
  9 10  2  0
  9 11  1  0
 11 12  1  0
 12 13  1  0
  2 14  2  0
 14 15  1  0
 15 16  1  0
 16 17  1  0
 16 18  2  0
 10  5  1  0
 13  8  1  0
M  CHG  1  18   1
M  END
>  <Binding energies>  (80) 
[-7.43]

>  <Ligand effiencies>  (80) 
[-0.32304347826086954]

>  <Interactions>  (80) 
["H-B:GLU:543:OE2:9882, H-A:GLU:543:OE2:4908, H-A:GLU:543:OE1:4907, V-A:TYR:539:CD2:4872, V-A:GLU:543:CD:4906, V-A:PRO:540:CA:4881, V-A:ALA:541:CB:4890, V-B:LEU:475:CD2:9231, V-A:PRO:540:N:4882, V-A:TYR:539:C:4865, V-A:PRO:540:CB:4883, H-B:TYR:484:OH:9320, V-B:TYR:484:CZ:9319, V-A:PRO:540:CD:4885, V-A:ILE:538:CB:4860, V-A:ILE:538:CG2:4861, H-A:TYR:539:N:4868, H-A:TYR:531:OH:4793, V-A:ILE:538:CA:4858, V-A:PRO:540:C:4879"]

$$$$
RR30_Rahimova_2017
     RDKit          3D

 18 19  0  0  0  0  0  0  0  0999 V2000
  129.4730  124.6570   54.2210 C   0  0  0  0  0  0  0  0  0  0  0  0
  128.1350  124.1510   53.6620 C   0  0  0  0  0  0  0  0  0  0  0  0
  127.2520  123.5580   54.7380 C   0  0  0  0  0  0  0  0  0  0  0  0
  127.6040  122.8130   55.7570 N   0  0  0  0  0  0  0  0  0  0  0  0
  126.4280  122.5200   56.4410 N   0  0  0  0  0  0  0  0  0  0  0  0
  125.4650  123.1030   55.7730 C   0  0  0  0  0  0  0  0  0  0  0  0
  123.7430  123.1090   56.1510 S   0  0  0  0  0  0  0  0  0  0  0  0
  123.6980  124.4470   57.3850 C   0  0  0  0  0  0  0  0  0  0  0  0
  124.4110  124.0610   58.6840 C   0  0  0  0  0  0  0  0  0  0  0  0
  123.7480  123.9120   59.7130 O   0  0  0  0  0  0  0  0  0  0  0  0
  125.7550  123.9420   58.6080 N   0  0  0  0  0  0  0  0  0  0  0  0
  126.6130  123.6060   59.6450 C   0  0  0  0  0  0  0  0  0  0  0  0
  126.3510  123.5520   60.9320 N   0  0  0  0  0  0  0  0  0  0  0  0
  127.4600  123.1770   61.6800 N   0  0  0  0  0  0  0  0  0  0  0  0
  128.5300  122.9560   60.9520 C   0  0  0  0  0  0  0  0  0  0  0  0
  129.8590  122.5400   61.5380 C   0  0  0  0  0  0  0  0  0  0  0  0
  128.2520  123.1940   59.2480 S   0  0  0  0  0  0  0  0  0  0  0  0
  125.9150  123.7820   54.6860 O   0  0  0  0  0  0  0  0  0  0  0  0
  1  2  1  0
  2  3  1  0
  3  4  2  0
  4  5  1  0
  5  6  2  0
  6  7  1  0
  7  8  1  0
  8  9  1  0
  9 10  2  0
  9 11  1  0
 11 12  1  0
 12 13  2  0
 13 14  1  0
 14 15  2  0
 15 16  1  0
 15 17  1  0
  6 18  1  0
 18  3  1  0
 17 12  1  0
M  END
>  <Binding energies>  (81) 
[-7.63]

>  <Ligand effiencies>  (81) 
[-0.40157894736842104]

>  <Interactions>  (81) 
["V-B:ALA:541:CB:9864, V-B:PRO:540:CA:9855, V-B:TYR:539:CZ:9849, H-B:ALA:541:N:9863, V-B:MET:535:CB:9804, V-B:ILE:538:CA:9832, V-B:MET:535:CG:9805, H-B:LEU:363:N:8158, V-B:PRO:540:CB:9857, V-B:PRO:540:CD:9859, V-B:PRO:540:N:9856, V-B:TYR:539:C:9839, V-B:ILE:538:CB:9834, V-B:TYR:539:CE1:9847, H-B:TYR:531:OH:9767, V-B:ILE:538:CG2:9835, H-B:TYR:539:N:9842, V-B:ASP:366:CB:8184, V-B:LEU:363:CA:8157, V-B:LEU:363:CD1:8161, V-B:TYR:531:CE2:9765, V-B:TYR:531:CZ:9766, V-B:PRO:540:C:9853"]

$$$$
RR31_Rahimova_2017
     RDKit          3D

 18 19  0  0  0  0  0  0  0  0999 V2000
  130.4600  131.5050   53.8610 C   0  0  0  0  0  0  0  0  0  0  0  0
  129.8560  131.5880   55.2560 C   0  0  0  0  0  0  0  0  0  0  0  0
  128.4910  131.3490   55.4230 C   0  0  0  0  0  0  0  0  0  0  0  0
  127.9100  131.4130   56.6880 C   0  0  0  0  0  0  0  0  0  0  0  0
  128.6770  131.7100   57.8250 C   0  0  0  0  0  0  0  0  0  0  0  0
  128.1070  131.7880   59.0980 N   0  0  0  0  0  0  0  0  0  0  0  0
  127.3190  130.6800   59.6710 C   0  0  0  0  0  0  0  0  0  0  0  0
  126.4400  131.0890   60.8770 C   0  0  0  0  0  0  0  0  0  0  0  0
  127.2490  131.7090   61.9280 N   0  0  0  0  0  0  0  0  0  0  0  0
  126.4490  132.0760   63.1010 C   0  0  0  0  0  0  0  0  0  0  0  0
  126.6810  131.1420   64.3050 C   0  0  0  0  0  0  0  0  0  0  0  0
  126.2550  129.6950   64.0110 C   0  0  0  0  0  0  0  0  0  0  0  0
  127.4940  128.8030   63.8650 N   0  0  0  0  0  0  0  0  0  0  0  0
  127.8640  132.9070   61.3580 C   0  0  0  0  0  0  0  0  0  0  0  0
  128.7860  132.5400   60.1730 C   0  0  0  0  0  0  0  0  0  0  0  0
  130.0460  131.9570   57.6420 C   0  0  0  0  0  0  0  0  0  0  0  0
  130.6420  131.8970   56.3770 C   0  0  0  0  0  0  0  0  0  0  0  0
  132.1340  132.1790   56.2450 C   0  0  0  0  0  0  0  0  0  0  0  0
  1  2  1  0
  2  3  2  0
  3  4  1  0
  4  5  2  0
  5  6  1  0
  6  7  1  0
  7  8  1  0
  8  9  1  0
  9 10  1  0
 10 11  1  0
 11 12  1  0
 12 13  1  0
  9 14  1  0
 14 15  1  0
  5 16  1  0
 16 17  2  0
 17 18  1  0
 17  2  1  0
 15  6  1  0
M  CHG  1  13   1
M  END
>  <Binding energies>  (82) 
[-7.4]

>  <Ligand effiencies>  (82) 
[-0.3523809523809524]

>  <Interactions>  (82) 
["V-B:GLU:543:CD:9880, H-B:GLU:543:OE2:9882, H-A:GLU:543:OE2:4908, H-A:GLU:543:OE1:4907, V-B:ARG:545:CZ:9898, V-A:TYR:539:CD2:4872, V-A:TYR:539:CE2:4874, V-A:GLU:543:CD:4906, V-A:TYR:539:CZ:4875, V-A:PRO:540:CA:4881, V-A:ALA:541:CB:4890, V-A:TYR:539:CD1:4871, V-A:PRO:540:N:4882, V-A:TYR:539:CE1:4873, V-A:TYR:539:C:4865, V-A:PRO:540:CB:4883, V-A:PRO:540:CD:4885, V-A:ILE:538:CB:4860, V-A:ILE:538:CG2:4861, V-A:MET:535:CG:4831, V-A:ILE:538:CA:4858, V-A:MET:535:CB:4830"]

$$$$
RR32_Rahimova_2017
     RDKit          3D

 18 20  0  0  0  0  0  0  0  0999 V2000
  131.9300  130.6790   60.9390 C   0  0  0  0  0  0  0  0  0  0  0  0
  131.0150  131.2700   59.8700 C   0  0  0  0  0  0  0  0  0  0  0  0
  129.7350  131.6750   60.2480 C   0  0  0  0  0  0  0  0  0  0  0  0
  128.8740  132.2210   59.3010 C   0  0  0  0  0  0  0  0  0  0  0  0
  127.6040  132.6220   59.6790 N   0  0  0  0  0  0  0  0  0  0  0  0
  126.6250  131.5630   59.9850 C   0  0  0  0  0  0  0  0  0  0  0  0
  125.1950  132.1030   60.2200 C   0  0  0  0  0  0  0  0  0  0  0  0
  125.1930  133.0710   61.3170 N   0  0  0  0  0  0  0  0  0  0  0  0
  123.8390  133.5570   61.5590 C   0  0  0  0  0  0  0  0  0  0  0  0
  126.0700  134.1790   60.9420 C   0  0  0  0  0  0  0  0  0  0  0  0
  127.5120  133.6700   60.7140 C   0  0  0  0  0  0  0  0  0  0  0  0
  129.2250  132.3810   57.9980 N   0  0  0  0  0  0  0  0  0  0  0  0
  130.4660  131.9930   57.5980 C   0  0  0  0  0  0  0  0  0  0  0  0
  130.8040  132.1690   56.2340 C   0  0  0  0  0  0  0  0  0  0  0  0
  132.0580  131.7900   55.7690 C   0  0  0  0  0  0  0  0  0  0  0  0
  132.9930  131.2360   56.6350 C   0  0  0  0  0  0  0  0  0  0  0  0
  132.6930  131.0500   57.9810 C   0  0  0  0  0  0  0  0  0  0  0  0
  131.4200  131.4220   58.5030 C   0  0  0  0  0  0  0  0  0  0  0  0
  1  2  1  0
  2  3  2  0
  3  4  1  0
  4  5  1  0
  5  6  1  0
  6  7  1  0
  7  8  1  0
  8  9  1  0
  8 10  1  0
 10 11  1  0
  4 12  2  0
 12 13  1  0
 13 14  2  0
 14 15  1  0
 15 16  2  0
 16 17  1  0
 17 18  2  0
 18  2  1  0
 11  5  1  0
 18 13  1  0
M  END
>  <Binding energies>  (83) 
[-6.59]

>  <Ligand effiencies>  (83) 
[-0.3661111111111111]

>  <Interactions>  (83) 
["V-A:TYR:539:CD2:4872, V-A:TYR:539:CE2:4874, V-A:PRO:540:CA:4881, V-A:ALA:541:CB:4890, V-B:LEU:475:CD2:9231, V-A:PRO:540:N:4882, V-B:ILE:369:CG2:8209, V-A:TYR:539:C:4865, V-A:PRO:540:CB:4883, V-A:PRO:540:CD:4885, V-A:ILE:538:CB:4860, V-A:ILE:538:CG2:4861, V-A:TYR:531:CE2:4791, V-B:ILE:369:CD1:8211, V-A:ILE:538:CA:4858, V-A:TYR:531:CZ:4792"]

$$$$
RR5_Rahimova_2017
     RDKit          3D

 45 50  0  0  0  0  0  0  0  0999 V2000
  125.9860  126.9260   57.9220 O   0  0  0  0  0  0  0  0  0  0  0  0
  127.0580  126.9250   58.5250 C   0  0  0  0  0  0  0  0  0  0  0  0
  127.7380  128.2630   58.8750 C   0  0  0  0  0  0  0  0  0  0  0  0
  127.3210  128.8450   60.2730 C   0  0  2  0  0  0  0  0  0  0  0  0
  127.6360  130.2740   60.4720 N   0  0  0  0  0  0  0  0  0  0  0  0
  127.0710  131.2610   59.6770 C   0  0  0  0  0  0  0  0  0  0  0  0
  126.2410  131.0980   58.7790 O   0  0  0  0  0  0  0  0  0  0  0  0
  127.5940  132.4460   60.0370 O   0  0  0  0  0  0  0  0  0  0  0  0
  128.9770  132.7350   59.8540 C   0  0  0  0  0  0  0  0  0  0  0  0
  129.7080  131.5360   59.2100 C   0  0  0  0  0  0  0  0  0  0  0  0
  129.8980  131.6730   57.7100 C   0  0  0  0  0  0  0  0  0  0  0  0
  128.9420  131.8450   56.7040 C   0  0  0  0  0  0  0  0  0  0  0  0
  129.3480  131.9730   55.3740 C   0  0  0  0  0  0  0  0  0  0  0  0
  130.7040  131.9270   55.0480 C   0  0  0  0  0  0  0  0  0  0  0  0
  131.6600  131.7520   56.0500 C   0  0  0  0  0  0  0  0  0  0  0  0
  131.2520  131.6240   57.3790 C   0  0  0  0  0  0  0  0  0  0  0  0
  132.0270  131.4250   58.6140 C   0  0  0  0  0  0  0  0  0  0  0  0
  133.4010  131.2960   58.8270 C   0  0  0  0  0  0  0  0  0  0  0  0
  133.8830  131.0900   60.1200 C   0  0  0  0  0  0  0  0  0  0  0  0
  132.9950  131.0140   61.1950 C   0  0  0  0  0  0  0  0  0  0  0  0
  131.6230  131.1470   60.9790 C   0  0  0  0  0  0  0  0  0  0  0  0
  131.1360  131.3580   59.6860 C   0  0  0  0  0  0  0  0  0  0  0  0
  127.9370  128.0090   61.4220 C   0  0  0  0  0  0  0  0  0  0  0  0
  128.2440  126.8370   61.3380 O   0  0  0  0  0  0  0  0  0  0  0  0
  128.0990  128.7960   62.5260 O   0  0  0  0  0  0  0  0  0  0  0  0
  127.7030  125.8160   58.9510 N   0  0  0  0  0  0  0  0  0  0  0  0
  127.4160  124.3550   58.8410 C   0  0  0  0  0  0  0  0  0  0  0  0
  126.2560  124.1700   59.8770 C   0  0  0  0  0  0  0  0  0  0  0  0
  126.5130  124.0740   61.2550 C   0  0  0  0  0  0  0  0  0  0  0  0
  125.4740  123.9120   62.1670 C   0  0  0  0  0  0  0  0  0  0  0  0
  124.1610  123.8310   61.7160 C   0  0  0  0  0  0  0  0  0  0  0  0
  123.8780  123.9240   60.3580 C   0  0  0  0  0  0  0  0  0  0  0  0
  124.9160  124.0970   59.4480 C   0  0  0  0  0  0  0  0  0  0  0  0
  126.9580  124.0780   57.3700 C   0  0  0  0  0  0  0  0  0  0  0  0
  126.0280  123.0730   57.0630 C   0  0  0  0  0  0  0  0  0  0  0  0
  125.6490  122.8310   55.7440 C   0  0  0  0  0  0  0  0  0  0  0  0
  126.1980  123.5900   54.7160 C   0  0  0  0  0  0  0  0  0  0  0  0
  127.1190  124.5950   54.9950 C   0  0  0  0  0  0  0  0  0  0  0  0
  127.4890  124.8410   56.3140 C   0  0  0  0  0  0  0  0  0  0  0  0
  128.7320  123.6200   59.2640 C   0  0  0  0  0  0  0  0  0  0  0  0
  128.6890  122.4190   59.9960 C   0  0  0  0  0  0  0  0  0  0  0  0
  129.8560  121.7660   60.3820 C   0  0  0  0  0  0  0  0  0  0  0  0
  131.0920  122.2990   60.0360 C   0  0  0  0  0  0  0  0  0  0  0  0
  131.1670  123.4760   59.3010 C   0  0  0  0  0  0  0  0  0  0  0  0
  129.9980  124.1270   58.9170 C   0  0  0  0  0  0  0  0  0  0  0  0
  1  2  2  0
  2  3  1  0
  4  3  1  6
  4  5  1  0
  5  6  1  0
  6  7  2  0
  6  8  1  0
  8  9  1  0
  9 10  1  0
 10 11  1  0
 11 12  2  0
 12 13  1  0
 13 14  2  0
 14 15  1  0
 15 16  2  0
 16 17  1  0
 17 18  2  0
 18 19  1  0
 19 20  2  0
 20 21  1  0
 21 22  2  0
  4 23  1  0
 23 24  2  0
 23 25  1  0
  2 26  1  0
 26 27  1  0
 27 28  1  0
 28 29  2  0
 29 30  1  0
 30 31  2  0
 31 32  1  0
 32 33  2  0
 27 34  1  0
 34 35  2  0
 35 36  1  0
 36 37  2  0
 37 38  1  0
 38 39  2  0
 27 40  1  0
 40 41  2  0
 41 42  1  0
 42 43  2  0
 43 44  1  0
 44 45  2  0
 22 10  1  0
 33 28  1  0
 39 34  1  0
 45 40  1  0
 16 11  1  0
 22 17  1  0
M  END
>  <Binding energies>  (84) 
[-10.57]

>  <Ligand effiencies>  (84) 
[-0.22020833333333334]

>  <Interactions>  (84) 
["V-B:ALA:541:CB:9864, V-B:ASP:366:CG:8185, V-A:ARG:545:CZ:4924, V-B:GLU:543:CD:9880, V-B:TYR:539:CD2:9846, V-B:PRO:540:CA:9855, V-B:TYR:539:CE2:9848, H-A:GLU:543:OE2:4908, H-A:GLU:543:OE1:4907, V-B:ARG:545:CZ:9898, V-A:TYR:539:CD2:4872, V-A:TYR:539:CE2:4874, V-A:ASP:366:CG:3211, V-A:TYR:539:CZ:4875, V-A:PRO:540:CA:4881, V-A:TYR:539:CD1:4871, V-A:PRO:540:N:4882, V-A:TYR:539:CG:4870, V-A:TYR:539:CE1:4873, V-A:TYR:539:C:4865, V-A:PRO:540:CB:4883, V-B:ASN:362:C:8144, V-B:ILE:538:CA:9832, V-B:PRO:540:CB:9857, V-B:PRO:540:CD:9859, V-B:PRO:540:N:9856, V-B:TYR:539:C:9839, V-B:ILE:538:CB:9834, H-B:TYR:531:OH:9767, V-B:ILE:538:CG2:9835, V-B:ASN:362:CB:8148, V-A:LEU:363:CA:3183, V-A:ILE:538:CB:4860, V-A:ILE:538:CG2:4861, V-A:ILE:538:CA:4858, V-B:ILE:538:C:9830, V-A:PRO:540:C:4879, V-A:ASN:362:CB:3174, V-B:ALA:541:C:9860, V-B:ASN:362:CG:8149, V-A:ASN:362:C:3170, V-B:ASN:362:CA:8146, V-A:ASN:362:CA:3172"]

$$$$
