1a_Ghoteimi_2023
     RDKit          3D

 40 43  0  0  0  0  0  0  0  0999 V2000
  124.9520  133.4110   61.2860 C   0  0  0  0  0  0  0  0  0  0  0  0
  123.7540  132.6880   61.9080 C   0  0  0  0  0  0  0  0  0  0  0  0
  123.4610  131.5220   61.1480 O   0  0  0  0  0  0  0  0  0  0  0  0
  124.3930  130.9610   60.3360 C   0  0  0  0  0  0  0  0  0  0  0  0
  124.4480  131.1650   59.1200 O   0  0  0  0  0  0  0  0  0  0  0  0
  125.3550  130.0690   61.0670 C   0  0  0  0  0  0  0  0  0  0  0  0
  125.4770  130.0960   62.4650 C   0  0  0  0  0  0  0  0  0  0  0  0
  126.3810  129.2600   63.1150 C   0  0  0  0  0  0  0  0  0  0  0  0
  127.1790  128.3740   62.3750 C   0  0  0  0  0  0  0  0  0  0  0  0
  128.1260  127.4900   62.9260 N   0  0  0  0  0  0  0  0  0  0  0  0
  129.4110  127.2690   62.5740 C   0  0  0  0  0  0  0  0  0  0  0  0
  130.0150  127.8440   61.6690 O   0  0  0  0  0  0  0  0  0  0  0  0
  130.1460  126.2110   63.3970 C   0  0  0  0  0  0  0  0  0  0  0  0
  131.4970  125.4430   62.4560 S   0  0  0  0  0  0  0  0  0  0  0  0
  130.8300  123.9480   61.7630 C   0  0  0  0  0  0  0  0  0  0  0  0
  129.5550  124.0660   61.3240 N   0  0  0  0  0  0  0  0  0  0  0  0
  128.9290  122.9950   60.7670 C   0  0  0  0  0  0  0  0  0  0  0  0
  127.5240  123.2120   60.2860 C   0  0  0  0  0  0  0  0  0  0  0  0
  127.2020  123.1500   58.9210 C   0  0  0  0  0  0  0  0  0  0  0  0
  125.8980  123.3510   58.4780 C   0  0  0  0  0  0  0  0  0  0  0  0
  124.8750  123.6220   59.3840 C   0  0  0  0  0  0  0  0  0  0  0  0
  123.6110  123.8050   58.8560 O   0  0  0  0  0  0  0  0  0  0  0  0
  123.4760  124.4040   57.5720 C   0  0  0  0  0  0  0  0  0  0  0  0
  125.1810  123.6920   60.7500 C   0  0  0  0  0  0  0  0  0  0  0  0
  126.4860  123.4910   61.1890 C   0  0  0  0  0  0  0  0  0  0  0  0
  129.5930  121.7680   60.6450 C   0  0  0  0  0  0  0  0  0  0  0  0
  130.9040  121.6140   61.1140 C   0  0  0  0  0  0  0  0  0  0  0  0
  131.5370  120.2680   60.9790 C   0  0  0  0  0  0  0  0  0  0  0  0
  130.8050  119.1030   61.2290 C   0  0  0  0  0  0  0  0  0  0  0  0
  131.3980  117.8510   61.0860 C   0  0  0  0  0  0  0  0  0  0  0  0
  132.7290  117.7390   60.6840 C   0  0  0  0  0  0  0  0  0  0  0  0
  133.2310  116.4580   60.5690 O   0  0  0  0  0  0  0  0  0  0  0  0
  132.5190  115.3770   61.1610 C   0  0  0  0  0  0  0  0  0  0  0  0
  133.4640  118.9060   60.4250 C   0  0  0  0  0  0  0  0  0  0  0  0
  132.8690  120.1560   60.5700 C   0  0  0  0  0  0  0  0  0  0  0  0
  131.5500  122.7360   61.6880 C   0  0  0  0  0  0  0  0  0  0  0  0
  132.9270  122.6400   62.1830 C   0  0  0  0  0  0  0  0  0  0  0  0
  134.0140  122.5640   62.5740 N   0  0  0  0  0  0  0  0  0  0  0  0
  127.0630  128.3480   60.9850 C   0  0  0  0  0  0  0  0  0  0  0  0
  126.1590  129.1850   60.3360 C   0  0  0  0  0  0  0  0  0  0  0  0
  1  2  1  0
  2  3  1  0
  3  4  1  0
  4  5  2  0
  4  6  1  0
  6  7  2  0
  7  8  1  0
  8  9  2  0
  9 10  1  0
 10 11  1  0
 11 12  2  0
 11 13  1  0
 13 14  1  0
 14 15  1  0
 15 16  2  0
 16 17  1  0
 17 18  1  0
 18 19  2  0
 19 20  1  0
 20 21  2  0
 21 22  1  0
 22 23  1  0
 21 24  1  0
 24 25  2  0
 17 26  2  0
 26 27  1  0
 27 28  1  0
 28 29  2  0
 29 30  1  0
 30 31  2  0
 31 32  1  0
 32 33  1  0
 31 34  1  0
 34 35  2  0
 27 36  2  0
 36 37  1  0
 37 38  3  0
  9 39  1  0
 39 40  2  0
 40  6  1  0
 36 15  1  0
 25 18  1  0
 35 28  1  0
M  END
>  <Binding energies>  (1) 
[-9.7]

>  <Ligand effiencies>  (1) 
[-0.23658536585365852]

>  <Interactions>  (1) 
["V-B:ASP:366:CG:8184, H-A:TYR:539:OH:4876, V-B:ASP:366:CB:8183, V-A:TYR:539:CE1:4873, V-B:PRO:540:CA:9855, V-B:LEU:363:CA:8156, V-B:PRO:540:CB:9857, V-B:LEU:363:CD1:8160, V-B:PRO:540:N:9856, V-A:LEU:475:CD2:4256, V-B:GLU:543:CD:9880, V-B:TYR:539:C:9839, V-B:TYR:539:CE1:9847, V-B:TYR:539:CD1:9845, V-B:PRO:540:C:9853, V-A:TYR:539:CD1:4871, V-B:ILE:369:CD1:8210, V-B:ILE:369:CG2:8208, V-B:TYR:531:CE2:9765, V-A:ILE:369:CG2:3234, V-B:ARG:545:CZ:9898, H-A:GLY:454:N:4047, V-B:TYR:531:CZ:9766, H-A:ARG:545:NH2:4926, V-A:PRO:482:CG:4324, V-A:SER:385:CB:3406, V-A:PRO:482:CB:4323, V-A:SER:385:CA:3404, V-A:LEU:373:CD1:3277, H-B:GLU:543:OE1:9881, H-B:GLU:543:OE2:9882, V-B:LEU:363:CB:8158, V-B:LEU:363:C:8154, H-B:LEU:363:N:8157"]

$$$$
1b_Ghoteimi_2023
     RDKit          3D

 34 37  0  0  0  0  0  0  0  0999 V2000
  123.3800  124.4700   57.5860 C   0  0  0  0  0  0  0  0  0  0  0  0
  123.6060  123.8690   58.8560 O   0  0  0  0  0  0  0  0  0  0  0  0
  124.9040  123.6400   59.2710 C   0  0  0  0  0  0  0  0  0  0  0  0
  125.1340  123.6680   60.6450 C   0  0  0  0  0  0  0  0  0  0  0  0
  126.4100  123.4490   61.1550 C   0  0  0  0  0  0  0  0  0  0  0  0
  127.4970  123.1910   60.3050 C   0  0  0  0  0  0  0  0  0  0  0  0
  128.8740  122.9580   60.8600 C   0  0  0  0  0  0  0  0  0  0  0  0
  129.5640  121.7510   60.7020 C   0  0  0  0  0  0  0  0  0  0  0  0
  130.8480  121.5860   61.2360 C   0  0  0  0  0  0  0  0  0  0  0  0
  131.5220  120.2690   61.0330 C   0  0  0  0  0  0  0  0  0  0  0  0
  132.8530  120.2150   60.6100 C   0  0  0  0  0  0  0  0  0  0  0  0
  133.4840  118.9900   60.4110 C   0  0  0  0  0  0  0  0  0  0  0  0
  132.7960  117.7960   60.6270 C   0  0  0  0  0  0  0  0  0  0  0  0
  133.5010  116.6290   60.4040 O   0  0  0  0  0  0  0  0  0  0  0  0
  132.8020  115.4690   59.9650 C   0  0  0  0  0  0  0  0  0  0  0  0
  131.4570  117.8450   61.0440 C   0  0  0  0  0  0  0  0  0  0  0  0
  130.8300  119.0710   61.2420 C   0  0  0  0  0  0  0  0  0  0  0  0
  131.4360  122.6730   61.9280 C   0  0  0  0  0  0  0  0  0  0  0  0
  132.8130  122.5850   62.4210 C   0  0  0  0  0  0  0  0  0  0  0  0
  133.9010  122.5130   62.8100 N   0  0  0  0  0  0  0  0  0  0  0  0
  130.6770  123.8570   62.0690 C   0  0  0  0  0  0  0  0  0  0  0  0
  131.2490  125.3170   62.9130 S   0  0  0  0  0  0  0  0  0  0  0  0
  129.9990  126.6260   62.6810 C   0  0  0  0  0  0  0  0  0  0  0  0
  130.3900  127.7280   61.6860 C   0  0  0  0  0  0  0  0  0  0  0  0
  130.6740  127.4520   60.5190 O   0  0  0  0  0  0  0  0  0  0  0  0
  130.3910  128.9780   62.2030 N   0  0  0  0  0  0  0  0  0  0  0  0
  130.7000  130.1610   61.5410 C   0  0  0  0  0  0  0  0  0  0  0  0
  130.6980  130.2790   60.1520 C   0  0  0  0  0  0  0  0  0  0  0  0
  131.0500  131.5860   59.9030 C   0  0  0  0  0  0  0  0  0  0  0  0
  131.2500  132.2220   61.0820 O   0  0  0  0  0  0  0  0  0  0  0  0
  131.0250  131.3090   62.1130 N   0  0  0  0  0  0  0  0  0  0  0  0
  129.4410  123.9940   61.5310 N   0  0  0  0  0  0  0  0  0  0  0  0
  127.2530  123.1670   58.9230 C   0  0  0  0  0  0  0  0  0  0  0  0
  125.9790  123.3870   58.4090 C   0  0  0  0  0  0  0  0  0  0  0  0
  1  2  1  0
  2  3  1  0
  3  4  2  0
  4  5  1  0
  5  6  2  0
  6  7  1  0
  7  8  2  0
  8  9  1  0
  9 10  1  0
 10 11  2  0
 11 12  1  0
 12 13  2  0
 13 14  1  0
 14 15  1  0
 13 16  1  0
 16 17  2  0
  9 18  2  0
 18 19  1  0
 19 20  3  0
 18 21  1  0
 21 22  1  0
 22 23  1  0
 23 24  1  0
 24 25  2  0
 24 26  1  0
 26 27  1  0
 27 28  1  0
 28 29  2  0
 29 30  1  0
 30 31  1  0
 21 32  2  0
  6 33  1  0
 33 34  2  0
 34  3  1  0
 32  7  1  0
 17 10  1  0
 31 27  2  0
M  END
>  <Binding energies>  (2) 
[-9.2]

>  <Ligand effiencies>  (2) 
[-0.26285714285714284]

>  <Interactions>  (2) 
["V-B:ASP:366:CG:8184, H-A:ALA:541:N:4889, V-A:PRO:540:CB:4883, V-A:PRO:540:CA:4881, V-B:ASP:366:CB:8183, V-B:PRO:540:CA:9855, V-B:ALA:541:CB:9864, V-B:LEU:363:CA:8156, V-B:PRO:540:CB:9857, V-B:LEU:363:CD1:8160, V-B:PRO:540:N:9856, V-A:LEU:475:CD2:4256, V-B:TYR:539:C:9839, V-B:TYR:539:CE1:9847, V-B:TYR:539:CD1:9845, V-B:PRO:540:C:9853, V-B:TYR:531:CE2:9765, V-A:ILE:369:CG2:3234, H-A:GLY:454:N:4047, V-A:GLY:454:CA:4046, V-B:TYR:531:CZ:9766, V-A:GLU:543:CD:4906, H-A:GLU:543:OE2:4908, H-A:GLU:543:OE1:4907, V-A:PRO:482:CG:4324, V-A:SER:385:CB:3406, V-A:PRO:482:CB:4323, V-A:SER:385:CA:3404, V-A:HIS:383:CG:3387, V-A:HIS:383:CB:3386, V-A:LEU:373:CD1:3277, V-B:LEU:363:CB:8158, V-B:LEU:363:C:8154, H-B:LEU:363:N:8157, H-A:SER:385:N:3405"]

$$$$
1c_Ghoteimi_2023
     RDKit          3D

 34 37  0  0  0  0  0  0  0  0999 V2000
  133.5570  115.8310   59.8700 C   0  0  0  0  0  0  0  0  0  0  0  0
  132.4780  116.1870   60.7280 O   0  0  0  0  0  0  0  0  0  0  0  0
  132.1260  117.5180   60.8540 C   0  0  0  0  0  0  0  0  0  0  0  0
  133.1240  118.4550   60.6010 C   0  0  0  0  0  0  0  0  0  0  0  0
  132.8590  119.8180   60.7070 C   0  0  0  0  0  0  0  0  0  0  0  0
  131.5860  120.2840   61.0700 C   0  0  0  0  0  0  0  0  0  0  0  0
  131.2970  121.7520   61.1900 C   0  0  0  0  0  0  0  0  0  0  0  0
  131.5000  122.4690   62.3750 C   0  0  0  0  0  0  0  0  0  0  0  0
  131.2420  123.8430   62.4310 C   0  0  0  0  0  0  0  0  0  0  0  0
  131.5440  124.5560   63.7080 C   0  0  0  0  0  0  0  0  0  0  0  0
  130.5110  125.0510   64.5080 C   0  0  0  0  0  0  0  0  0  0  0  0
  130.7950  125.7340   65.6870 C   0  0  0  0  0  0  0  0  0  0  0  0
  132.1160  125.9400   66.0840 C   0  0  0  0  0  0  0  0  0  0  0  0
  132.3040  126.6290   67.2680 O   0  0  0  0  0  0  0  0  0  0  0  0
  131.2310  127.3970   67.8030 C   0  0  0  0  0  0  0  0  0  0  0  0
  133.1570  125.4510   65.2800 C   0  0  0  0  0  0  0  0  0  0  0  0
  132.8690  124.7680   64.1010 C   0  0  0  0  0  0  0  0  0  0  0  0
  130.7430  124.4830   61.2720 C   0  0  0  0  0  0  0  0  0  0  0  0
  130.4210  125.9140   61.2760 C   0  0  0  0  0  0  0  0  0  0  0  0
  130.1680  127.0430   61.2800 N   0  0  0  0  0  0  0  0  0  0  0  0
  130.5790  123.7050   60.1070 C   0  0  0  0  0  0  0  0  0  0  0  0
  130.1240  124.4080   58.5370 S   0  0  0  0  0  0  0  0  0  0  0  0
  129.0550  123.1550   57.7570 C   0  0  0  0  0  0  0  0  0  0  0  0
  127.6520  123.1280   58.3740 C   0  0  0  0  0  0  0  0  0  0  0  0
  126.7040  122.7060   57.7100 O   0  0  0  0  0  0  0  0  0  0  0  0
  127.5790  123.5450   59.6570 N   0  0  0  0  0  0  0  0  0  0  0  0
  126.4730  123.4760   60.4880 C   0  0  0  0  0  0  0  0  0  0  0  0
  126.4530  123.3490   61.7980 N   0  0  0  0  0  0  0  0  0  0  0  0
  125.2200  123.3580   62.2660 C   0  0  0  0  0  0  0  0  0  0  0  0
  124.2050  123.4990   61.3240 C   0  0  0  0  0  0  0  0  0  0  0  0
  124.9140  123.6200   59.7420 S   0  0  0  0  0  0  0  0  0  0  0  0
  130.8570  122.3800   60.0680 N   0  0  0  0  0  0  0  0  0  0  0  0
  130.5870  119.3310   61.3160 C   0  0  0  0  0  0  0  0  0  0  0  0
  130.8480  117.9680   61.2130 C   0  0  0  0  0  0  0  0  0  0  0  0
  1  2  1  0
  2  3  1  0
  3  4  2  0
  4  5  1  0
  5  6  2  0
  6  7  1  0
  7  8  2  0
  8  9  1  0
  9 10  1  0
 10 11  2  0
 11 12  1  0
 12 13  2  0
 13 14  1  0
 14 15  1  0
 13 16  1  0
 16 17  2  0
  9 18  2  0
 18 19  1  0
 19 20  3  0
 18 21  1  0
 21 22  1  0
 22 23  1  0
 23 24  1  0
 24 25  2  0
 24 26  1  0
 26 27  1  0
 27 28  2  0
 28 29  1  0
 29 30  2  0
 30 31  1  0
 21 32  2  0
  6 33  1  0
 33 34  2  0
 34  3  1  0
 32  7  1  0
 17 10  1  0
 31 27  1  0
M  END
>  <Binding energies>  (3) 
[-8.16]

>  <Ligand effiencies>  (3) 
[-0.23314285714285715]

>  <Interactions>  (3) 
["V-B:PRO:540:CA:9855, V-B:ALA:541:CB:9864, V-B:PRO:540:CB:9857, V-B:ALA:541:C:9860, V-B:ASN:362:CB:8147, V-B:ASN:362:C:8143, V-B:PRO:540:N:9856, V-A:LEU:475:CD2:4256, V-B:GLU:543:CD:9880, V-B:TYR:539:C:9839, V-B:TYR:539:CE1:9847, V-B:TYR:539:CD1:9845, V-B:PRO:540:C:9853, V-B:TYR:539:CG:9844, H-B:TYR:539:N:9842, V-B:TYR:539:CZ:9849, V-A:ILE:369:CG2:3234, V-A:ARG:545:CG:4920, V-A:ARG:545:CD:4921, V-A:HIS:456:CE1:4066, V-A:ARG:545:CZ:4924, H-B:ALA:541:N:9863, V-A:GLU:543:CD:4906, V-A:GLU:543:CG:4905, V-A:PRO:482:CG:4324, V-A:SER:385:CB:3406, V-A:PRO:482:CB:4323, V-A:SER:385:CA:3404, V-A:HIS:383:CG:3387, V-A:LEU:373:CD2:3278, V-A:HIS:383:CB:3386, V-A:LEU:373:CD1:3277, H-A:ARG:545:NE:4922, V-A:VAL:384:C:3394"]

$$$$
1d_Ghoteimi_2023
     RDKit          3D

 30 32  0  0  0  0  0  0  0  0999 V2000
  131.1770  125.7900   66.2680 C   0  0  0  0  0  0  0  0  0  0  0  0
  131.6810  124.8940   65.2890 O   0  0  0  0  0  0  0  0  0  0  0  0
  132.7340  125.2420   64.5200 C   0  0  0  0  0  0  0  0  0  0  0  0
  133.8900  125.4230   64.9060 O   0  0  0  0  0  0  0  0  0  0  0  0
  132.3510  125.4060   63.0520 C   0  0  0  0  0  0  0  0  0  0  0  0
  130.5450  125.2350   62.9360 S   0  0  0  0  0  0  0  0  0  0  0  0
  130.2210  123.8090   61.9210 C   0  0  0  0  0  0  0  0  0  0  0  0
  129.1420  123.9470   61.1150 N   0  0  0  0  0  0  0  0  0  0  0  0
  128.7790  122.9320   60.2890 C   0  0  0  0  0  0  0  0  0  0  0  0
  127.5750  123.1680   59.4240 C   0  0  0  0  0  0  0  0  0  0  0  0
  126.3820  123.6790   59.9590 C   0  0  0  0  0  0  0  0  0  0  0  0
  125.2650  123.8910   59.1570 C   0  0  0  0  0  0  0  0  0  0  0  0
  125.3030  123.5970   57.7960 C   0  0  0  0  0  0  0  0  0  0  0  0
  124.1470  123.8350   57.0780 O   0  0  0  0  0  0  0  0  0  0  0  0
  123.1810  124.7420   57.6000 C   0  0  0  0  0  0  0  0  0  0  0  0
  126.4870  123.0850   57.2470 C   0  0  0  0  0  0  0  0  0  0  0  0
  127.6020  122.8760   58.0520 C   0  0  0  0  0  0  0  0  0  0  0  0
  129.5170  121.7430   60.2540 C   0  0  0  0  0  0  0  0  0  0  0  0
  130.6280  121.5680   61.0880 C   0  0  0  0  0  0  0  0  0  0  0  0
  131.3660  120.2700   61.0050 C   0  0  0  0  0  0  0  0  0  0  0  0
  130.7010  119.0660   61.2530 C   0  0  0  0  0  0  0  0  0  0  0  0
  131.3820  117.8530   61.1770 C   0  0  0  0  0  0  0  0  0  0  0  0
  132.7360  117.8200   60.8480 C   0  0  0  0  0  0  0  0  0  0  0  0
  133.3310  116.5740   60.8030 O   0  0  0  0  0  0  0  0  0  0  0  0
  132.5580  115.4230   61.1240 C   0  0  0  0  0  0  0  0  0  0  0  0
  133.4050  119.0260   60.5850 C   0  0  0  0  0  0  0  0  0  0  0  0
  132.7210  120.2360   60.6610 C   0  0  0  0  0  0  0  0  0  0  0  0
  130.9850  122.6210   61.9660 C   0  0  0  0  0  0  0  0  0  0  0  0
  132.0740  122.4520   62.9330 C   0  0  0  0  0  0  0  0  0  0  0  0
  132.9340  122.3180   63.6960 N   0  0  0  0  0  0  0  0  0  0  0  0
  1  2  1  0
  2  3  1  0
  3  4  2  0
  3  5  1  0
  5  6  1  0
  6  7  1  0
  7  8  2  0
  8  9  1  0
  9 10  1  0
 10 11  2  0
 11 12  1  0
 12 13  2  0
 13 14  1  0
 14 15  1  0
 13 16  1  0
 16 17  2  0
  9 18  2  0
 18 19  1  0
 19 20  1  0
 20 21  2  0
 21 22  1  0
 22 23  2  0
 23 24  1  0
 24 25  1  0
 23 26  1  0
 26 27  2  0
 19 28  2  0
 28 29  1  0
 29 30  3  0
 28  7  1  0
 17 10  1  0
 27 20  1  0
M  END
>  <Binding energies>  (4) 
[-7.99]

>  <Ligand effiencies>  (4) 
[-0.26633333333333337]

>  <Interactions>  (4) 
["V-B:ASP:366:CG:8184, V-B:ASP:366:CB:8183, H-B:TYR:531:OH:9767, V-B:PRO:540:CA:9855, V-B:LEU:363:CA:8156, V-B:PRO:540:CB:9857, V-B:LEU:363:CD1:8160, V-B:PRO:540:N:9856, V-A:LEU:475:CD2:4256, V-B:TYR:539:C:9839, V-B:TYR:539:CE1:9847, V-B:TYR:539:CD1:9845, V-B:TYR:531:CE2:9765, V-A:ILE:369:CG2:3234, H-A:GLY:454:N:4047, H-A:TYR:484:OH:4345, V-B:TYR:531:CZ:9766, H-A:ARG:545:NH2:4926, V-A:HIS:456:CE1:4066, V-A:ARG:545:CZ:4924, V-A:PRO:482:CG:4324, V-A:SER:385:CB:3406, V-A:PRO:482:CB:4323, V-A:SER:385:CA:3404, V-A:LEU:373:CD1:3277, H-A:ARG:545:NE:4922, V-B:LEU:363:CB:8158, H-A:ARG:545:NH1:4925, V-B:LEU:363:C:8154"]

$$$$
1j_Grossjean_2025
     RDKit          3D

 20 21  0  0  0  0  0  0  0  0999 V2000
  125.3500  123.8780   62.6100 C   0  0  0  0  0  0  0  0  0  0  0  0
  125.8470  123.5550   61.2130 C   0  0  0  0  0  0  0  0  0  0  0  0
  125.0070  123.6300   60.1050 C   0  0  0  0  0  0  0  0  0  0  0  0
  125.5240  123.3340   58.8390 C   0  0  0  0  0  0  0  0  0  0  0  0
  124.5870  123.4400   57.6360 C   0  0  0  0  0  0  0  0  0  0  0  0
  126.8810  122.9600   58.7180 C   0  0  0  0  0  0  0  0  0  0  0  0
  127.4560  122.6970   57.3960 C   0  0  0  0  0  0  0  0  0  0  0  0
  127.9080  122.4910   56.3510 N   0  0  0  0  0  0  0  0  0  0  0  0
  127.6540  122.8850   59.9000 C   0  0  0  0  0  0  0  0  0  0  0  0
  129.3740  122.4290   59.9330 S   0  0  0  0  0  0  0  0  0  0  0  0
  129.6350  121.3630   61.3820 C   0  0  0  0  0  0  0  0  0  0  0  0
  130.8240  120.4190   61.1930 C   0  0  0  0  0  0  0  0  0  0  0  0
  131.9670  120.8450   61.3620 O   0  0  0  0  0  0  0  0  0  0  0  0
  130.5120  119.1510   60.8450 N   0  0  0  0  0  0  0  0  0  0  0  0
  131.4030  118.1130   60.6100 C   0  0  0  0  0  0  0  0  0  0  0  0
  132.6840  118.0670   60.9060 N   0  0  0  0  0  0  0  0  0  0  0  0
  133.2240  116.9220   60.5380 C   0  0  0  0  0  0  0  0  0  0  0  0
  132.3720  116.0060   59.9290 C   0  0  0  0  0  0  0  0  0  0  0  0
  130.7770  116.6920   59.8380 S   0  0  0  0  0  0  0  0  0  0  0  0
  127.1490  123.1950   61.1210 N   0  0  0  0  0  0  0  0  0  0  0  0
  1  2  1  0
  2  3  2  0
  3  4  1  0
  4  5  1  0
  4  6  2  0
  6  7  1  0
  7  8  3  0
  6  9  1  0
  9 10  1  0
 10 11  1  0
 11 12  1  0
 12 13  2  0
 12 14  1  0
 14 15  1  0
 15 16  2  0
 16 17  1  0
 17 18  2  0
 18 19  1  0
  9 20  2  0
 20  2  1  0
 19 15  1  0
M  END
>  <Binding energies>  (5) 
[-8.21]

>  <Ligand effiencies>  (5) 
[-0.390952380952381]

>  <Interactions>  (5) 
["V-B:PRO:540:CA:9855, V-B:ALA:541:CB:9864, V-B:PRO:540:CB:9857, V-B:LEU:363:CD1:8160, V-B:ASN:362:CB:8147, V-B:PRO:540:N:9856, V-A:LEU:475:CD2:4256, V-B:GLU:543:CD:9880, V-B:TYR:539:C:9839, V-B:TYR:539:CE1:9847, V-B:TYR:539:CD1:9845, V-B:PRO:540:C:9853, V-B:TYR:539:CG:9844, H-B:TYR:539:N:9842, V-B:ARG:545:CZ:9898, H-B:ALA:541:N:9863, H-B:TYR:539:O:9840, V-A:PRO:482:CG:4324, V-A:SER:385:CB:3406, V-A:SER:385:CA:3404, V-B:TYR:539:CB:9843, V-A:LEU:373:CD1:3277, V-A:VAL:384:C:3394, V-B:VAL:344:CG1:7972"]

$$$$
1o_Grossjean_2025
     RDKit          3D

 26 27  0  0  0  0  0  0  0  0999 V2000
  132.4090  132.5570   56.5110 C   0  0  0  0  0  0  0  0  0  0  0  0
  131.0860  133.0690   56.4230 O   0  0  0  0  0  0  0  0  0  0  0  0
  130.0960  132.5870   57.2180 C   0  0  0  0  0  0  0  0  0  0  0  0
  129.2080  133.2940   57.7030 O   0  0  0  0  0  0  0  0  0  0  0  0
  130.1850  131.1050   57.4450 C   0  0  0  0  0  0  0  0  0  0  0  0
  129.6830  130.1800   56.5180 C   0  0  0  0  0  0  0  0  0  0  0  0
  129.7840  128.8120   56.7580 C   0  0  0  0  0  0  0  0  0  0  0  0
  130.3820  128.3410   57.9280 C   0  0  0  0  0  0  0  0  0  0  0  0
  130.4390  126.9400   58.0650 N   0  0  0  0  0  0  0  0  0  0  0  0
  130.6630  125.9880   57.1330 C   0  0  0  0  0  0  0  0  0  0  0  0
  130.9130  126.2010   55.9460 O   0  0  0  0  0  0  0  0  0  0  0  0
  130.6240  124.5400   57.6440 C   0  0  0  0  0  0  0  0  0  0  0  0
  130.0970  124.4170   59.0880 C   0  0  0  0  0  0  0  0  0  0  0  0
  129.2660  122.8390   59.4380 S   0  0  0  0  0  0  0  0  0  0  0  0
  127.5140  123.1370   59.5540 C   0  0  0  0  0  0  0  0  0  0  0  0
  127.0880  123.3710   60.8210 N   0  0  0  0  0  0  0  0  0  0  0  0
  125.7740  123.6200   61.0310 C   0  0  0  0  0  0  0  0  0  0  0  0
  125.3760  123.8880   62.4710 C   0  0  0  0  0  0  0  0  0  0  0  0
  124.8370  123.6320   60.0010 C   0  0  0  0  0  0  0  0  0  0  0  0
  125.2600  123.3660   58.6940 C   0  0  0  0  0  0  0  0  0  0  0  0
  124.2110  123.3710   57.5840 C   0  0  0  0  0  0  0  0  0  0  0  0
  126.6270  123.1000   58.4500 C   0  0  0  0  0  0  0  0  0  0  0  0
  127.0780  122.7600   57.0990 C   0  0  0  0  0  0  0  0  0  0  0  0
  127.4320  122.4940   56.0300 N   0  0  0  0  0  0  0  0  0  0  0  0
  130.8910  129.2600   58.8570 C   0  0  0  0  0  0  0  0  0  0  0  0
  130.7900  130.6280   58.6150 C   0  0  0  0  0  0  0  0  0  0  0  0
  1  2  1  0
  2  3  1  0
  3  4  2  0
  3  5  1  0
  5  6  2  0
  6  7  1  0
  7  8  2  0
  8  9  1  0
  9 10  1  0
 10 11  2  0
 10 12  1  0
 12 13  1  0
 13 14  1  0
 14 15  1  0
 15 16  2  0
 16 17  1  0
 17 18  1  0
 17 19  2  0
 19 20  1  0
 20 21  1  0
 20 22  2  0
 22 23  1  0
 23 24  3  0
  8 25  1  0
 25 26  2  0
 26  5  1  0
 22 15  1  0
M  END
>  <Binding energies>  (6) 
[-8.51]

>  <Ligand effiencies>  (6) 
[-0.3151851851851852]

>  <Interactions>  (6) 
["V-A:MET:535:CE:4833, V-A:ASP:366:CG:3210, V-A:PRO:540:CB:4883, H-A:TYR:531:OH:4793, V-A:LEU:363:CD1:3186, H-A:TYR:539:N:4868, V-B:PRO:540:CA:9855, V-B:LEU:363:CA:8156, V-B:PRO:540:CB:9857, V-B:LEU:363:CD1:8160, V-B:ASN:362:CB:8147, V-B:PRO:540:N:9856, V-B:GLU:543:CD:9880, V-B:TYR:539:C:9839, V-B:TYR:539:CE1:9847, V-B:PRO:540:C:9853, V-A:PRO:540:N:4882, V-A:TYR:539:C:4865, H-B:TYR:539:N:9842, V-B:TYR:539:CZ:9849, V-B:TYR:531:CE2:9765, V-B:ARG:545:CZ:9898, V-A:ILE:538:CB:4860, V-A:PRO:540:CD:4885, V-A:ILE:538:CG2:4861, H-B:ALA:541:N:9863"]

$$$$
1p_Grossjean_2025
     RDKit          3D

 21 22  0  0  0  0  0  0  0  0999 V2000
  128.2660  122.5870   55.7790 C   0  0  0  0  0  0  0  0  0  0  0  0
  127.4310  122.8570   57.0170 C   0  0  0  0  0  0  0  0  0  0  0  0
  126.0770  123.1740   56.9270 C   0  0  0  0  0  0  0  0  0  0  0  0
  125.3590  123.4270   58.1010 C   0  0  0  0  0  0  0  0  0  0  0  0
  123.8800  123.7870   57.9790 C   0  0  0  0  0  0  0  0  0  0  0  0
  126.0220  123.3460   59.3470 C   0  0  0  0  0  0  0  0  0  0  0  0
  125.3050  123.6520   60.5860 C   0  0  0  0  0  0  0  0  0  0  0  0
  124.7370  123.8940   61.5650 N   0  0  0  0  0  0  0  0  0  0  0  0
  127.3930  122.9950   59.3440 C   0  0  0  0  0  0  0  0  0  0  0  0
  128.3720  122.8390   60.8200 S   0  0  0  0  0  0  0  0  0  0  0  0
  129.7940  121.7900   60.4000 C   0  0  0  0  0  0  0  0  0  0  0  0
  130.1230  120.7310   61.4710 C   0  0  0  0  0  0  0  0  0  0  0  0
  131.1290  119.6710   60.9970 C   0  0  0  0  0  0  0  0  0  0  0  0
  132.3330  119.9340   60.9980 O   0  0  0  0  0  0  0  0  0  0  0  0
  130.5960  118.4880   60.6170 N   0  0  0  0  0  0  0  0  0  0  0  0
  131.2770  117.3700   60.1520 C   0  0  0  0  0  0  0  0  0  0  0  0
  132.4540  116.9000   60.7340 C   0  0  0  0  0  0  0  0  0  0  0  0
  132.8020  115.7940   59.9920 C   0  0  0  0  0  0  0  0  0  0  0  0
  131.8850  115.6090   59.0140 O   0  0  0  0  0  0  0  0  0  0  0  0
  130.9230  116.6160   59.1250 N   0  0  0  0  0  0  0  0  0  0  0  0
  128.0850  122.7720   58.1980 N   0  0  0  0  0  0  0  0  0  0  0  0
  1  2  1  0
  2  3  2  0
  3  4  1  0
  4  5  1  0
  4  6  2  0
  6  7  1  0
  7  8  3  0
  6  9  1  0
  9 10  1  0
 10 11  1  0
 11 12  1  0
 12 13  1  0
 13 14  2  0
 13 15  1  0
 15 16  1  0
 16 17  1  0
 17 18  2  0
 18 19  1  0
 19 20  1  0
  9 21  2  0
 21  2  1  0
 20 16  2  0
M  END
>  <Binding energies>  (7) 
[-7.76]

>  <Ligand effiencies>  (7) 
[-0.3527272727272727]

>  <Interactions>  (7) 
["V-B:PRO:540:CA:9855, V-B:ALA:541:CB:9864, V-B:LEU:363:CA:8156, V-B:PRO:540:CB:9857, V-B:LEU:363:CD1:8160, V-B:MET:535:CE:9807, V-B:ILE:538:CA:9832, V-B:PRO:540:N:9856, V-A:LEU:475:CD2:4256, V-B:TYR:539:C:9839, V-B:TYR:539:CE1:9847, V-B:TYR:539:CD1:9845, V-B:TYR:539:CG:9844, V-B:TYR:539:CZ:9849, V-B:TYR:531:CE2:9765, V-B:TYR:539:CE2:9848, H-B:ALA:541:N:9863, H-B:TYR:539:O:9840, H-B:ARG:545:NH2:9900, V-B:ILE:538:C:9830, V-B:TYR:539:CD2:9846, V-A:PRO:482:CG:4324, V-A:SER:385:CB:3406, V-A:PRO:482:CB:4323, V-A:SER:385:CA:3404, V-B:TYR:539:CB:9843, V-A:HIS:383:CG:3387, V-A:HIS:383:CB:3386, V-A:LEU:373:CD1:3277, V-B:LEU:363:CB:8158"]

$$$$
2a_Ghoteimi_2023
     RDKit          3D

 48 53  0  0  0  0  0  0  0  0999 V2000
  125.5980  127.8620   74.9580 C   0  0  0  0  0  0  0  0  0  0  0  0
  126.4270  128.8080   74.0860 C   0  0  0  0  0  0  0  0  0  0  0  0
  127.1660  128.0500   73.1370 O   0  0  0  0  0  0  0  0  0  0  0  0
  128.4620  128.3440   72.8590 C   0  0  0  0  0  0  0  0  0  0  0  0
  129.2220  128.8920   73.6630 O   0  0  0  0  0  0  0  0  0  0  0  0
  128.8800  127.9300   71.4770 C   0  0  0  0  0  0  0  0  0  0  0  0
  127.9710  127.3850   70.5580 C   0  0  0  0  0  0  0  0  0  0  0  0
  128.3920  127.0130   69.2850 C   0  0  0  0  0  0  0  0  0  0  0  0
  129.7230  127.1800   68.9010 C   0  0  0  0  0  0  0  0  0  0  0  0
  130.0390  126.7660   67.5920 N   0  0  0  0  0  0  0  0  0  0  0  0
  131.2430  126.6170   66.9980 C   0  0  0  0  0  0  0  0  0  0  0  0
  132.3280  126.8790   67.5200 O   0  0  0  0  0  0  0  0  0  0  0  0
  131.1980  126.1180   65.5490 C   0  0  0  0  0  0  0  0  0  0  0  0
  130.7830  124.3530   65.3720 S   0  0  0  0  0  0  0  0  0  0  0  0
  130.3860  124.1220   63.6540 C   0  0  0  0  0  0  0  0  0  0  0  0
  130.7400  122.9100   63.1680 N   0  0  0  0  0  0  0  0  0  0  0  0
  130.4980  122.6170   61.8660 C   0  0  0  0  0  0  0  0  0  0  0  0
  130.9240  121.2640   61.3960 C   0  0  0  0  0  0  0  0  0  0  0  0
  130.0500  120.1710   61.4430 C   0  0  0  0  0  0  0  0  0  0  0  0
  130.4560  118.9100   61.0160 C   0  0  0  0  0  0  0  0  0  0  0  0
  131.7490  118.6950   60.5170 C   0  0  0  0  0  0  0  0  0  0  0  0
  132.1530  117.4160   60.1190 N   0  0  0  0  0  0  0  0  0  0  0  0
  133.5690  117.0020   60.1790 C   0  0  0  0  0  0  0  0  0  0  0  0
  133.7790  115.4790   60.0550 C   0  0  0  0  0  0  0  0  0  0  0  0
  133.1590  114.9980   58.8730 O   0  0  0  0  0  0  0  0  0  0  0  0
  131.7620  115.2420   58.8850 C   0  0  0  0  0  0  0  0  0  0  0  0
  131.4890  116.7580   58.9750 C   0  0  0  0  0  0  0  0  0  0  0  0
  132.6250  119.7920   60.4840 C   0  0  0  0  0  0  0  0  0  0  0  0
  132.2180  121.0520   60.9090 C   0  0  0  0  0  0  0  0  0  0  0  0
  129.8770  123.5410   61.0210 C   0  0  0  0  0  0  0  0  0  0  0  0
  129.5010  124.8030   61.5020 C   0  0  0  0  0  0  0  0  0  0  0  0
  128.8470  125.7440   60.5430 C   0  0  0  0  0  0  0  0  0  0  0  0
  129.4610  126.0460   59.3250 C   0  0  0  0  0  0  0  0  0  0  0  0
  128.8700  126.9360   58.4340 C   0  0  0  0  0  0  0  0  0  0  0  0
  127.6440  127.5500   58.7330 C   0  0  0  0  0  0  0  0  0  0  0  0
  127.0420  128.4610   57.8600 N   0  0  0  0  0  0  0  0  0  0  0  0
  125.5690  128.5080   57.7660 C   0  0  0  0  0  0  0  0  0  0  0  0
  125.0420  129.7890   57.0850 C   0  0  0  0  0  0  0  0  0  0  0  0
  125.6340  129.9370   55.8040 O   0  0  0  0  0  0  0  0  0  0  0  0
  127.0480  130.0350   55.8870 C   0  0  0  0  0  0  0  0  0  0  0  0
  127.6280  128.7630   56.5390 C   0  0  0  0  0  0  0  0  0  0  0  0
  127.0400  127.2500   59.9620 C   0  0  0  0  0  0  0  0  0  0  0  0
  127.6320  126.3610   60.8540 C   0  0  0  0  0  0  0  0  0  0  0  0
  129.7550  125.1070   62.8620 C   0  0  0  0  0  0  0  0  0  0  0  0
  129.3350  126.3890   63.4370 C   0  0  0  0  0  0  0  0  0  0  0  0
  129.0030  127.4020   63.8880 N   0  0  0  0  0  0  0  0  0  0  0  0
  130.6400  127.7170   69.8170 C   0  0  0  0  0  0  0  0  0  0  0  0
  130.2180  128.0910   71.0900 C   0  0  0  0  0  0  0  0  0  0  0  0
  1  2  1  0
  2  3  1  0
  3  4  1  0
  4  5  2  0
  4  6  1  0
  6  7  2  0
  7  8  1  0
  8  9  2  0
  9 10  1  0
 10 11  1  0
 11 12  2  0
 11 13  1  0
 13 14  1  0
 14 15  1  0
 15 16  2  0
 16 17  1  0
 17 18  1  0
 18 19  2  0
 19 20  1  0
 20 21  2  0
 21 22  1  0
 22 23  1  0
 23 24  1  0
 24 25  1  0
 25 26  1  0
 26 27  1  0
 21 28  1  0
 28 29  2  0
 17 30  2  0
 30 31  1  0
 31 32  1  0
 32 33  2  0
 33 34  1  0
 34 35  2  0
 35 36  1  0
 36 37  1  0
 37 38  1  0
 38 39  1  0
 39 40  1  0
 40 41  1  0
 35 42  1  0
 42 43  2  0
 31 44  2  0
 44 45  1  0
 45 46  3  0
  9 47  1  0
 47 48  2  0
 48  6  1  0
 44 15  1  0
 29 18  1  0
 43 32  1  0
 27 22  1  0
 41 36  1  0
M  END
>  <Binding energies>  (8) 
[-8.7]

>  <Ligand effiencies>  (8) 
[-0.17755102040816326]

>  <Interactions>  (8) 
["V-A:MET:535:CE:4833, V-B:ASP:366:CG:8184, H-A:TYR:539:OH:4876, V-A:TYR:539:CZ:4875, V-B:ASP:366:CB:8183, H-B:TYR:531:OH:9767, V-B:ALA:541:CB:9864, V-A:LEU:475:CD2:4256, V-B:GLU:543:CD:9880, V-B:TYR:539:C:9839, V-B:TYR:539:CE1:9847, V-B:TYR:539:CD1:9845, V-B:TYR:539:CG:9844, V-A:ILE:369:CG2:3234, H-A:TYR:484:OH:4345, V-B:TYR:531:CZ:9766, H-B:ASN:370:ND2:8219, V-A:ARG:545:CG:4920, V-A:HIS:456:CE1:4066, V-A:GLU:543:CD:4906, H-A:GLU:543:OE2:4908, V-B:TYR:531:CE1:9764, V-B:HIS:456:CE1:9040, V-A:GLU:543:CG:4905, V-A:PRO:482:CG:4324, V-A:SER:385:CB:3406, V-A:PRO:482:CB:4323, V-A:SER:385:CA:3404, V-B:TYR:539:CB:9843, V-A:HIS:383:CG:3387, V-A:LEU:373:CD2:3278, V-B:GLU:543:CG:9879, V-A:HIS:383:CB:3386, V-A:LEU:373:CD1:3277, H-A:ARG:545:NE:4922, H-B:GLU:543:OE1:9881, H-B:GLU:543:OE2:9882, V-A:VAL:384:C:3394, V-B:VAL:344:CG1:7972, V-A:HIS:383:CA:3384, V-B:ILE:343:CD1:7965, V-A:HIS:383:CD2:3389, V-A:HIS:383:CE1:3391, V-A:GLY:544:CA:4912, V-B:HIS:456:CG:9037, V-B:HIS:456:CD2:9039, V-B:HIS:456:CB:9036, V-B:GLY:544:C:9884, V-B:GLU:543:C:9874, V-A:GLU:543:C:4900, V-B:LYS:547:CD:9921, V-A:GLY:544:C:4910, H-A:LYS:547:NZ:4949, V-B:LYS:547:CE:9922, H-A:HIS:383:ND1:3388, H-B:HIS:456:NE2:9041, V-A:HIS:383:C:3382, V-B:LYS:547:CG:9920"]

$$$$
2aa_Ghoteimi_2023
     RDKit          3D

 48 53  0  0  0  0  0  0  0  0999 V2000
  125.5030  128.1330   74.8650 C   0  0  0  0  0  0  0  0  0  0  0  0
  126.8800  128.7430   75.1430 C   0  0  0  0  0  0  0  0  0  0  0  0
  127.8410  128.1470   74.2810 O   0  0  0  0  0  0  0  0  0  0  0  0
  128.5790  128.9000   73.4250 C   0  0  0  0  0  0  0  0  0  0  0  0
  128.9940  130.0320   73.6980 O   0  0  0  0  0  0  0  0  0  0  0  0
  128.8550  128.2140   72.1180 C   0  0  0  0  0  0  0  0  0  0  0  0
  130.1540  128.0960   71.6030 C   0  0  0  0  0  0  0  0  0  0  0  0
  130.3780  127.4500   70.3910 C   0  0  0  0  0  0  0  0  0  0  0  0
  129.3110  126.9180   69.6650 C   0  0  0  0  0  0  0  0  0  0  0  0
  129.6510  126.2840   68.4540 N   0  0  0  0  0  0  0  0  0  0  0  0
  130.5170  126.6670   67.4900 C   0  0  0  0  0  0  0  0  0  0  0  0
  131.2140  127.6820   67.5270 O   0  0  0  0  0  0  0  0  0  0  0  0
  130.6070  125.7080   66.2960 C   0  0  0  0  0  0  0  0  0  0  0  0
  129.8990  126.2600   65.1810 O   0  0  0  0  0  0  0  0  0  0  0  0
  130.2400  125.8900   63.8870 C   0  0  0  0  0  0  0  0  0  0  0  0
  130.3150  126.8670   62.9400 N   0  0  0  0  0  0  0  0  0  0  0  0
  130.6500  126.5400   61.6660 C   0  0  0  0  0  0  0  0  0  0  0  0
  130.7080  127.6630   60.6810 C   0  0  0  0  0  0  0  0  0  0  0  0
  130.7620  127.4060   59.3070 C   0  0  0  0  0  0  0  0  0  0  0  0
  130.8100  128.4490   58.3840 C   0  0  0  0  0  0  0  0  0  0  0  0
  130.7900  129.7890   58.8020 C   0  0  0  0  0  0  0  0  0  0  0  0
  130.8500  130.8480   57.8890 N   0  0  0  0  0  0  0  0  0  0  0  0
  129.6690  131.6900   57.6080 C   0  0  0  0  0  0  0  0  0  0  0  0
  129.8120  132.5590   56.3410 C   0  0  0  0  0  0  0  0  0  0  0  0
  130.9880  133.3470   56.4230 O   0  0  0  0  0  0  0  0  0  0  0  0
  132.1490  132.5380   56.5260 C   0  0  0  0  0  0  0  0  0  0  0  0
  132.0760  131.6670   57.7990 C   0  0  0  0  0  0  0  0  0  0  0  0
  130.7570  130.0410   60.1810 C   0  0  0  0  0  0  0  0  0  0  0  0
  130.7130  128.9980   61.1020 C   0  0  0  0  0  0  0  0  0  0  0  0
  130.9030  125.2130   61.3040 C   0  0  0  0  0  0  0  0  0  0  0  0
  130.8220  124.1890   62.2550 C   0  0  0  0  0  0  0  0  0  0  0  0
  131.0780  122.7880   61.8020 C   0  0  0  0  0  0  0  0  0  0  0  0
  130.0410  121.8520   61.7810 C   0  0  0  0  0  0  0  0  0  0  0  0
  130.2770  120.5400   61.3790 C   0  0  0  0  0  0  0  0  0  0  0  0
  131.5620  120.1220   61.0000 C   0  0  0  0  0  0  0  0  0  0  0  0
  131.8220  118.8120   60.5890 N   0  0  0  0  0  0  0  0  0  0  0  0
  130.7590  117.7890   60.5630 C   0  0  0  0  0  0  0  0  0  0  0  0
  131.1390  116.5270   59.7600 C   0  0  0  0  0  0  0  0  0  0  0  0
  132.3520  115.9830   60.2580 O   0  0  0  0  0  0  0  0  0  0  0  0
  133.4220  116.9090   60.1540 C   0  0  0  0  0  0  0  0  0  0  0  0
  133.1020  118.1800   60.9680 C   0  0  0  0  0  0  0  0  0  0  0  0
  132.5950  121.0700   61.0170 C   0  0  0  0  0  0  0  0  0  0  0  0
  132.3590  122.3810   61.4180 C   0  0  0  0  0  0  0  0  0  0  0  0
  130.4950  124.5400   63.5860 C   0  0  0  0  0  0  0  0  0  0  0  0
  130.4370  123.5420   64.6570 C   0  0  0  0  0  0  0  0  0  0  0  0
  130.3910  122.7530   65.5020 N   0  0  0  0  0  0  0  0  0  0  0  0
  128.0100  127.0260   70.1760 C   0  0  0  0  0  0  0  0  0  0  0  0
  127.7890  127.6690   71.3910 C   0  0  0  0  0  0  0  0  0  0  0  0
  1  2  1  0
  2  3  1  0
  3  4  1  0
  4  5  2  0
  4  6  1  0
  6  7  2  0
  7  8  1  0
  8  9  2  0
  9 10  1  0
 10 11  1  0
 11 12  2  0
 11 13  1  0
 13 14  1  0
 14 15  1  0
 15 16  2  0
 16 17  1  0
 17 18  1  0
 18 19  2  0
 19 20  1  0
 20 21  2  0
 21 22  1  0
 22 23  1  0
 23 24  1  0
 24 25  1  0
 25 26  1  0
 26 27  1  0
 21 28  1  0
 28 29  2  0
 17 30  2  0
 30 31  1  0
 31 32  1  0
 32 33  2  0
 33 34  1  0
 34 35  2  0
 35 36  1  0
 36 37  1  0
 37 38  1  0
 38 39  1  0
 39 40  1  0
 40 41  1  0
 35 42  1  0
 42 43  2  0
 31 44  2  0
 44 45  1  0
 45 46  3  0
  9 47  1  0
 47 48  2  0
 48  6  1  0
 44 15  1  0
 29 18  1  0
 43 32  1  0
 27 22  1  0
 41 36  1  0
M  END
>  <Binding energies>  (9) 
[-11.18]

>  <Ligand effiencies>  (9) 
[-0.22816326530612244]

>  <Interactions>  (9) 
["V-A:MET:535:CE:4833, V-A:ASP:366:CG:3210, V-A:PRO:540:CB:4883, V-A:PRO:540:CA:4881, V-A:ILE:538:CA:4858, V-A:LEU:363:CD1:3186, H-A:TYR:539:N:4868, V-B:ALA:541:CB:9864, V-A:LEU:475:CD2:4256, V-B:GLU:543:CD:9880, V-B:TYR:539:CE1:9847, V-B:TYR:539:CD1:9845, V-A:PRO:540:N:4882, V-A:ILE:369:CG2:3234, V-A:ILE:538:CB:4860, V-A:PRO:540:CD:4885, V-A:ILE:538:CG2:4861, H-A:TYR:484:OH:4345, V-A:TYR:484:CZ:4344, H-A:ARG:545:NH2:4926, V-A:HIS:456:CE1:4066, V-A:GLU:543:CD:4906, V-B:HIS:456:CE1:9040, V-A:GLU:543:CG:4905, V-A:PRO:482:CG:4324, V-A:SER:385:CB:3406, V-A:PRO:482:CB:4323, V-A:SER:385:CA:3404, V-B:TYR:539:CB:9843, V-B:GLU:543:CB:9878, V-B:GLU:543:CG:9879, V-A:LEU:373:CD1:3277, V-A:TYR:484:CE2:4343, V-A:VAL:384:C:3394, V-B:VAL:344:CG1:7972, V-A:GLY:544:CA:4912, V-B:HIS:456:CG:9037, V-B:HIS:456:CD2:9039, V-B:HIS:456:CB:9036, V-B:GLY:544:C:9884, V-B:GLU:543:C:9874, V-B:GLY:544:CA:9886, V-A:GLU:543:C:4900, H-B:LYS:547:NZ:9923, V-B:LYS:547:CD:9921, V-A:LYS:547:CE:4948, V-A:GLY:544:C:4910, H-A:LYS:547:NZ:4949, V-B:LYS:547:CE:9922, V-A:HIS:456:CD2:4065, H-B:GLU:543:O:9875"]

$$$$
2b_Ghoteimi_2023
     RDKit          3D

 42 47  0  0  0  0  0  0  0  0999 V2000
  130.5140  128.6680   58.5440 N   0  0  0  0  0  0  0  0  0  0  0  0
  130.7080  127.5750   58.8700 C   0  0  0  0  0  0  0  0  0  0  0  0
  130.9500  126.1910   59.2870 C   0  0  0  0  0  0  0  0  0  0  0  0
  130.2900  125.6550   60.4210 C   0  0  0  0  0  0  0  0  0  0  0  0
  129.3230  126.4240   61.2600 C   0  0  0  0  0  0  0  0  0  0  0  0
  128.0030  126.5910   60.8390 C   0  0  0  0  0  0  0  0  0  0  0  0
  127.0980  127.3080   61.6170 C   0  0  0  0  0  0  0  0  0  0  0  0
  127.4950  127.8930   62.8300 C   0  0  0  0  0  0  0  0  0  0  0  0
  126.6030  128.6050   63.6330 N   0  0  0  0  0  0  0  0  0  0  0  0
  127.0860  129.1900   64.9000 C   0  0  0  0  0  0  0  0  0  0  0  0
  125.9460  129.6080   65.8540 C   0  0  0  0  0  0  0  0  0  0  0  0
  125.0530  130.4910   65.1910 O   0  0  0  0  0  0  0  0  0  0  0  0
  124.4700  129.8850   64.0480 C   0  0  0  0  0  0  0  0  0  0  0  0
  125.5720  129.4840   63.0460 C   0  0  0  0  0  0  0  0  0  0  0  0
  128.8230  127.7230   63.2420 C   0  0  0  0  0  0  0  0  0  0  0  0
  129.7270  127.0020   62.4670 C   0  0  0  0  0  0  0  0  0  0  0  0
  130.5490  124.3260   60.7780 C   0  0  0  0  0  0  0  0  0  0  0  0
  131.4150  123.5430   60.0090 C   0  0  0  0  0  0  0  0  0  0  0  0
  131.7030  122.1100   60.3300 C   0  0  0  0  0  0  0  0  0  0  0  0
  130.6730  121.2450   60.7170 C   0  0  0  0  0  0  0  0  0  0  0  0
  130.9300  119.9070   61.0010 C   0  0  0  0  0  0  0  0  0  0  0  0
  132.2310  119.3850   60.9210 C   0  0  0  0  0  0  0  0  0  0  0  0
  132.5010  118.0350   61.1740 N   0  0  0  0  0  0  0  0  0  0  0  0
  131.5550  117.2340   61.9780 C   0  0  0  0  0  0  0  0  0  0  0  0
  132.1540  115.9090   62.4980 C   0  0  0  0  0  0  0  0  0  0  0  0
  132.6700  115.1520   61.4150 O   0  0  0  0  0  0  0  0  0  0  0  0
  133.6990  115.8520   60.7340 C   0  0  0  0  0  0  0  0  0  0  0  0
  133.1490  117.1760   60.1630 C   0  0  0  0  0  0  0  0  0  0  0  0
  133.2590  120.2540   60.5260 C   0  0  0  0  0  0  0  0  0  0  0  0
  133.0000  121.5910   60.2390 C   0  0  0  0  0  0  0  0  0  0  0  0
  132.0460  124.0580   58.9230 N   0  0  0  0  0  0  0  0  0  0  0  0
  131.8370  125.3500   58.5780 C   0  0  0  0  0  0  0  0  0  0  0  0
  132.7450  125.8580   57.1340 S   0  0  0  0  0  0  0  0  0  0  0  0
  131.7060  125.5150   55.6820 C   0  0  0  0  0  0  0  0  0  0  0  0
  130.2500  125.2460   56.0680 C   0  0  0  0  0  0  0  0  0  0  0  0
  129.5190  126.1940   56.3610 O   0  0  0  0  0  0  0  0  0  0  0  0
  129.8770  123.9480   56.0610 N   0  0  0  0  0  0  0  0  0  0  0  0
  128.6240  123.4310   56.3570 C   0  0  0  0  0  0  0  0  0  0  0  0
  127.8060  123.9460   57.3620 C   0  0  0  0  0  0  0  0  0  0  0  0
  126.6730  123.1690   57.3350 C   0  0  0  0  0  0  0  0  0  0  0  0
  126.8000  122.2340   56.3640 O   0  0  0  0  0  0  0  0  0  0  0  0
  128.0410  122.4110   55.7490 N   0  0  0  0  0  0  0  0  0  0  0  0
  1  2  3  0
  2  3  1  0
  3  4  2  0
  4  5  1  0
  5  6  2  0
  6  7  1  0
  7  8  2  0
  8  9  1  0
  9 10  1  0
 10 11  1  0
 11 12  1  0
 12 13  1  0
 13 14  1  0
  8 15  1  0
 15 16  2  0
  4 17  1  0
 17 18  2  0
 18 19  1  0
 19 20  2  0
 20 21  1  0
 21 22  2  0
 22 23  1  0
 23 24  1  0
 24 25  1  0
 25 26  1  0
 26 27  1  0
 27 28  1  0
 22 29  1  0
 29 30  2  0
 18 31  1  0
 31 32  2  0
 32 33  1  0
 33 34  1  0
 34 35  1  0
 35 36  2  0
 35 37  1  0
 37 38  1  0
 38 39  1  0
 39 40  2  0
 40 41  1  0
 41 42  1  0
 32  3  1  0
 42 38  2  0
 16  5  1  0
 30 19  1  0
 14  9  1  0
 28 23  1  0
M  END
>  <Binding energies>  (10) 
[-9.53]

>  <Ligand effiencies>  (10) 
[-0.22162790697674417]

>  <Interactions>  (10) 
["V-A:ASP:366:CG:3210, V-A:TYR:531:CZ:4792, V-A:ASP:366:CB:3209, H-A:TYR:531:OH:4793, V-B:MET:535:CE:9807, V-B:PRO:540:N:9856, V-A:LEU:475:CD2:4256, V-B:GLU:543:CD:9880, V-B:TYR:539:CE1:9847, V-B:TYR:539:CD1:9845, H-B:TYR:539:N:9842, V-B:TYR:539:CZ:9849, V-A:ILE:369:CG2:3234, V-B:ARG:545:CZ:9898, H-B:TYR:539:OH:9850, V-B:GLY:453:CA:9015, H-B:TYR:484:OH:9319, V-B:TYR:539:CE2:9848, H-B:GLY:454:N:9021, V-A:GLU:543:CD:4906, V-B:HIS:456:CE1:9040, V-A:TYR:531:CE1:4790, V-A:PRO:482:CG:4324, V-A:SER:385:CB:3406, V-A:PRO:482:CB:4323, V-A:SER:385:CA:3404, V-A:HIS:383:CB:3386, V-A:LEU:373:CD1:3277, V-A:ASN:370:CB:3242, V-A:VAL:384:C:3394, V-A:LEU:475:CG:4254, V-A:CYS:476:C:4261, V-A:ASN:370:CG:3243"]

$$$$
2c_Ghoteimi_2023
     RDKit          3D

 42 47  0  0  0  0  0  0  0  0999 V2000
  133.1230  122.5830   64.3450 N   0  0  0  0  0  0  0  0  0  0  0  0
  132.4650  123.1570   63.5870 C   0  0  0  0  0  0  0  0  0  0  0  0
  131.6290  123.8800   62.6230 C   0  0  0  0  0  0  0  0  0  0  0  0
  131.0620  123.2070   61.5120 C   0  0  0  0  0  0  0  0  0  0  0  0
  131.2600  121.7540   61.2310 C   0  0  0  0  0  0  0  0  0  0  0  0
  132.5100  121.2800   60.8280 C   0  0  0  0  0  0  0  0  0  0  0  0
  132.7040  119.9260   60.5680 C   0  0  0  0  0  0  0  0  0  0  0  0
  131.6480  119.0090   60.6900 C   0  0  0  0  0  0  0  0  0  0  0  0
  131.8250  117.6440   60.4530 N   0  0  0  0  0  0  0  0  0  0  0  0
  132.3390  116.7840   61.5380 C   0  0  0  0  0  0  0  0  0  0  0  0
  132.8460  115.4130   61.0400 C   0  0  0  0  0  0  0  0  0  0  0  0
  131.8240  114.7520   60.3100 O   0  0  0  0  0  0  0  0  0  0  0  0
  131.4180  115.5050   59.1780 C   0  0  0  0  0  0  0  0  0  0  0  0
  130.8740  116.8780   59.6260 C   0  0  0  0  0  0  0  0  0  0  0  0
  130.3960  119.4950   61.0900 C   0  0  0  0  0  0  0  0  0  0  0  0
  130.2030  120.8490   61.3520 C   0  0  0  0  0  0  0  0  0  0  0  0
  130.2680  123.9420   60.6230 C   0  0  0  0  0  0  0  0  0  0  0  0
  130.0230  125.3000   60.8470 C   0  0  0  0  0  0  0  0  0  0  0  0
  129.1690  126.1230   59.9370 C   0  0  0  0  0  0  0  0  0  0  0  0
  129.6620  126.5730   58.7080 C   0  0  0  0  0  0  0  0  0  0  0  0
  128.8700  127.3360   57.8530 C   0  0  0  0  0  0  0  0  0  0  0  0
  127.5560  127.6870   58.2020 C   0  0  0  0  0  0  0  0  0  0  0  0
  126.7390  128.4300   57.3450 N   0  0  0  0  0  0  0  0  0  0  0  0
  125.5790  129.1670   57.8890 C   0  0  0  0  0  0  0  0  0  0  0  0
  124.5660  129.6100   56.8120 C   0  0  0  0  0  0  0  0  0  0  0  0
  125.2230  130.3710   55.8120 O   0  0  0  0  0  0  0  0  0  0  0  0
  126.2370  129.6170   55.1660 C   0  0  0  0  0  0  0  0  0  0  0  0
  127.2980  129.1680   56.1930 C   0  0  0  0  0  0  0  0  0  0  0  0
  127.0620  127.2230   59.4300 C   0  0  0  0  0  0  0  0  0  0  0  0
  127.8550  126.4590   60.2830 C   0  0  0  0  0  0  0  0  0  0  0  0
  130.5660  125.9420   61.9130 N   0  0  0  0  0  0  0  0  0  0  0  0
  131.3630  125.2610   62.7700 C   0  0  0  0  0  0  0  0  0  0  0  0
  131.9950  126.2580   64.1000 S   0  0  0  0  0  0  0  0  0  0  0  0
  132.1820  125.1790   65.5510 C   0  0  0  0  0  0  0  0  0  0  0  0
  131.0210  125.3350   66.5350 C   0  0  0  0  0  0  0  0  0  0  0  0
  130.3270  124.3550   66.8100 O   0  0  0  0  0  0  0  0  0  0  0  0
  130.8440  126.5760   67.0350 N   0  0  0  0  0  0  0  0  0  0  0  0
  129.8800  126.9720   67.9510 C   0  0  0  0  0  0  0  0  0  0  0  0
  128.5750  126.8430   67.8560 N   0  0  0  0  0  0  0  0  0  0  0  0
  127.9620  127.3270   68.9180 C   0  0  0  0  0  0  0  0  0  0  0  0
  128.7780  127.8660   69.9080 C   0  0  0  0  0  0  0  0  0  0  0  0
  130.4380  127.7260   69.4100 S   0  0  0  0  0  0  0  0  0  0  0  0
  1  2  3  0
  2  3  1  0
  3  4  2  0
  4  5  1  0
  5  6  2  0
  6  7  1  0
  7  8  2  0
  8  9  1  0
  9 10  1  0
 10 11  1  0
 11 12  1  0
 12 13  1  0
 13 14  1  0
  8 15  1  0
 15 16  2  0
  4 17  1  0
 17 18  2  0
 18 19  1  0
 19 20  2  0
 20 21  1  0
 21 22  2  0
 22 23  1  0
 23 24  1  0
 24 25  1  0
 25 26  1  0
 26 27  1  0
 27 28  1  0
 22 29  1  0
 29 30  2  0
 18 31  1  0
 31 32  2  0
 32 33  1  0
 33 34  1  0
 34 35  1  0
 35 36  2  0
 35 37  1  0
 37 38  1  0
 38 39  2  0
 39 40  1  0
 40 41  2  0
 41 42  1  0
 32  3  1  0
 42 38  1  0
 16  5  1  0
 30 19  1  0
 14  9  1  0
 28 23  1  0
M  END
>  <Binding energies>  (11) 
[-8.98]

>  <Ligand effiencies>  (11) 
[-0.2088372093023256]

>  <Interactions>  (11) 
["V-A:MET:535:CE:4833, V-B:ASP:366:CG:8184, H-A:TYR:539:OH:4876, V-B:ASP:366:CB:8183, H-B:TYR:531:OH:9767, V-B:ALA:541:CB:9864, V-A:LEU:475:CD2:4256, V-B:GLU:543:CD:9880, V-B:TYR:539:C:9839, V-B:TYR:539:CE1:9847, V-B:TYR:539:CD1:9845, V-B:TYR:539:CG:9844, V-A:ILE:369:CG2:3234, H-A:GLY:454:N:4047, V-A:GLY:454:CA:4046, H-A:TYR:484:OH:4345, V-B:TYR:531:CZ:9766, V-A:TYR:484:CZ:4344, H-B:ASN:370:ND2:8219, H-A:ARG:545:NH2:4926, V-A:HIS:456:CE1:4066, V-A:GLU:543:CD:4906, H-A:GLU:543:OE2:4908, V-B:TYR:531:CE1:9764, V-B:HIS:456:CE1:9040, V-A:GLU:543:CG:4905, V-B:ASN:370:CG:8217, V-B:ASP:366:CA:8181, V-B:ASN:370:CB:8216, V-A:PRO:482:CG:4324, V-A:SER:385:CB:3406, V-A:PRO:482:CB:4323, V-A:SER:385:CA:3404, V-B:TYR:539:CB:9843, V-A:HIS:383:CG:3387, V-B:GLU:543:CB:9878, V-B:GLU:543:CG:9879, V-A:HIS:383:CB:3386, V-A:LEU:373:CD1:3277, H-A:ARG:545:NE:4922, V-B:ASP:366:C:8179, V-B:VAL:344:CG1:7972, V-A:LEU:475:CG:4254, V-A:HIS:383:CD2:3389, V-B:HIS:456:CD2:9039, V-B:GLU:543:C:9874, V-A:GLU:543:C:4900, H-A:HIS:383:ND1:3388, H-A:HIS:456:NE2:4067"]

$$$$
2j_Grossjean_2025
     RDKit          3D

 23 24  0  0  0  0  0  0  0  0999 V2000
  132.5240  131.1310   62.5050 C   0  0  0  0  0  0  0  0  0  0  0  0
  131.8970  131.5180   61.1780 C   0  0  0  0  0  0  0  0  0  0  0  0
  132.6310  131.5100   59.9950 C   0  0  0  0  0  0  0  0  0  0  0  0
  132.0060  131.8720   58.7920 C   0  0  0  0  0  0  0  0  0  0  0  0
  132.8320  131.8570   57.4920 C   0  0  0  0  0  0  0  0  0  0  0  0
  134.0370  131.3350   57.7240 F   0  0  0  0  0  0  0  0  0  0  0  0
  132.2140  131.1220   56.5660 F   0  0  0  0  0  0  0  0  0  0  0  0
  133.0130  133.0770   56.9820 F   0  0  0  0  0  0  0  0  0  0  0  0
  130.6370  132.2390   58.8250 C   0  0  0  0  0  0  0  0  0  0  0  0
  129.9330  132.6280   57.5990 C   0  0  0  0  0  0  0  0  0  0  0  0
  129.3770  132.9330   56.6310 N   0  0  0  0  0  0  0  0  0  0  0  0
  129.9680  132.2200   60.0730 C   0  0  0  0  0  0  0  0  0  0  0  0
  128.2440  132.6610   60.2330 S   0  0  0  0  0  0  0  0  0  0  0  0
  128.0670  133.7810   61.6640 C   0  0  0  0  0  0  0  0  0  0  0  0
  126.9020  134.7770   61.5640 C   0  0  0  0  0  0  0  0  0  0  0  0
  125.7340  134.3880   61.6340 O   0  0  0  0  0  0  0  0  0  0  0  0
  127.2720  136.0650   61.3870 N   0  0  0  0  0  0  0  0  0  0  0  0
  126.4290  137.1610   61.2680 C   0  0  0  0  0  0  0  0  0  0  0  0
  125.2840  137.3690   61.8820 N   0  0  0  0  0  0  0  0  0  0  0  0
  124.7480  138.5220   61.5330 C   0  0  0  0  0  0  0  0  0  0  0  0
  125.4650  139.2810   60.6130 C   0  0  0  0  0  0  0  0  0  0  0  0
  126.9190  138.4270   60.1890 S   0  0  0  0  0  0  0  0  0  0  0  0
  130.5910  131.8640   61.2250 N   0  0  0  0  0  0  0  0  0  0  0  0
  1  2  1  0
  2  3  2  0
  3  4  1  0
  4  5  1  0
  5  6  1  0
  5  7  1  0
  5  8  1  0
  4  9  2  0
  9 10  1  0
 10 11  3  0
  9 12  1  0
 12 13  1  0
 13 14  1  0
 14 15  1  0
 15 16  2  0
 15 17  1  0
 17 18  1  0
 18 19  2  0
 19 20  1  0
 20 21  2  0
 21 22  1  0
 12 23  2  0
 23  2  1  0
 22 18  1  0
M  END
>  <Binding energies>  (12) 
[-8.19]

>  <Ligand effiencies>  (12) 
[-0.34125]

>  <Interactions>  (12) 
["V-A:ASP:366:CG:3210, V-A:TYR:531:CZ:4792, V-A:LEU:363:CA:3182, V-A:TYR:531:CE2:4791, H-A:ALA:541:N:4889, V-A:PRO:540:CB:4883, V-A:PRO:540:CA:4881, V-A:ASP:366:CB:3209, V-A:LEU:363:CB:3184, V-A:LEU:363:CD1:3186, H-A:TYR:539:N:4868, V-A:TYR:539:CE1:4873, V-A:PRO:540:C:4879, V-A:TYR:539:CD1:4871, V-A:ALA:541:CB:4890, V-A:PRO:540:N:4882, V-A:TYR:539:C:4865, V-A:TYR:539:CG:4870, V-A:ILE:538:CB:4860, V-B:PRO:482:CB:9297, V-B:SER:385:CA:8378, V-A:PRO:540:CD:4885, V-B:PRO:482:CG:9298, V-B:LEU:475:CD2:9230, V-B:SER:385:CB:8380, V-B:LEU:373:CD1:8251, V-A:ARG:545:CZ:4924, V-A:GLU:543:CD:4906, V-A:PRO:540:CG:4884, V-A:ASN:362:CB:3173, H-A:TYR:539:O:4866, V-A:VAL:344:CG1:2998, V-A:TYR:539:CB:4869, V-A:LEU:363:C:3180, V-A:LEU:363:CG:3185"]

$$$$
3ab_Grossjean_2025
     RDKit          3D

 33 35  0  0  0  0  0  0  0  0999 V2000
  133.8140  124.4240   58.6610 C   0  0  0  0  0  0  0  0  0  0  0  0
  132.5520  124.5850   58.0270 O   0  0  0  0  0  0  0  0  0  0  0  0
  132.3790  125.4980   57.0370 C   0  0  0  0  0  0  0  0  0  0  0  0
  133.1350  125.6020   56.0680 O   0  0  0  0  0  0  0  0  0  0  0  0
  131.1710  126.3670   57.2380 C   0  0  0  0  0  0  0  0  0  0  0  0
  131.2120  127.5250   58.0290 C   0  0  0  0  0  0  0  0  0  0  0  0
  130.0770  128.3130   58.1960 C   0  0  0  0  0  0  0  0  0  0  0  0
  128.8730  127.9530   57.5710 C   0  0  0  0  0  0  0  0  0  0  0  0
  127.6680  128.6760   57.6660 N   0  0  0  0  0  0  0  0  0  0  0  0
  126.8030  129.0480   56.6990 C   0  0  0  0  0  0  0  0  0  0  0  0
  126.9310  128.8160   55.4960 O   0  0  0  0  0  0  0  0  0  0  0  0
  125.5740  129.8220   57.1810 C   0  0  0  0  0  0  0  0  0  0  0  0
  125.4800  129.8960   58.9950 S   0  0  0  0  0  0  0  0  0  0  0  0
  126.6530  131.1190   59.5410 C   0  0  0  0  0  0  0  0  0  0  0  0
  127.8010  131.1270   58.8230 N   0  0  0  0  0  0  0  0  0  0  0  0
  128.7830  132.0150   59.1280 C   0  0  0  0  0  0  0  0  0  0  0  0
  130.0210  131.9600   58.2830 C   0  0  0  0  0  0  0  0  0  0  0  0
  131.2520  131.5740   58.8370 C   0  0  0  0  0  0  0  0  0  0  0  0
  132.4050  131.5210   58.0580 C   0  0  0  0  0  0  0  0  0  0  0  0
  132.3420  131.8560   56.7090 C   0  0  0  0  0  0  0  0  0  0  0  0
  131.1360  132.2450   56.1360 C   0  0  0  0  0  0  0  0  0  0  0  0
  129.9860  132.2970   56.9190 C   0  0  0  0  0  0  0  0  0  0  0  0
  128.6330  132.9110   60.1920 C   0  0  0  0  0  0  0  0  0  0  0  0
  127.4610  132.9090   60.9620 C   0  0  0  0  0  0  0  0  0  0  0  0
  127.3380  133.9090   62.1290 C   0  0  0  0  0  0  0  0  0  0  0  0
  128.2530  134.8790   62.0770 F   0  0  0  0  0  0  0  0  0  0  0  0
  126.1380  134.4910   62.1110 F   0  0  0  0  0  0  0  0  0  0  0  0
  127.4920  133.2720   63.2910 F   0  0  0  0  0  0  0  0  0  0  0  0
  126.4380  131.9830   60.6390 C   0  0  0  0  0  0  0  0  0  0  0  0
  125.2190  131.9000   61.4470 C   0  0  0  0  0  0  0  0  0  0  0  0
  124.2570  131.8380   62.0860 N   0  0  0  0  0  0  0  0  0  0  0  0
  128.8300  126.8050   56.7790 C   0  0  0  0  0  0  0  0  0  0  0  0
  129.9660  126.0180   56.6150 C   0  0  0  0  0  0  0  0  0  0  0  0
  1  2  1  0
  2  3  1  0
  3  4  2  0
  3  5  1  0
  5  6  2  0
  6  7  1  0
  7  8  2  0
  8  9  1  0
  9 10  1  0
 10 11  2  0
 10 12  1  0
 12 13  1  0
 13 14  1  0
 14 15  2  0
 15 16  1  0
 16 17  1  0
 17 18  2  0
 18 19  1  0
 19 20  2  0
 20 21  1  0
 21 22  2  0
 16 23  2  0
 23 24  1  0
 24 25  1  0
 25 26  1  0
 25 27  1  0
 25 28  1  0
 24 29  2  0
 29 30  1  0
 30 31  3  0
  8 32  1  0
 32 33  2  0
 33  5  1  0
 29 14  1  0
 22 17  1  0
M  END
>  <Binding energies>  (13) 
[-7.77]

>  <Ligand effiencies>  (13) 
[-0.22852941176470587]

>  <Interactions>  (13) 
["V-A:MET:535:CE:4833, V-A:ASP:366:CG:3210, V-A:TYR:531:CE2:4791, V-A:PRO:540:CB:4883, V-A:PRO:540:CA:4881, V-A:ASP:366:CB:3209, H-A:TYR:531:OH:4793, V-A:ILE:538:CA:4858, V-A:LEU:363:CD1:3186, V-A:TYR:539:CZ:4875, V-A:TYR:539:CE1:4873, H-B:TYR:531:OH:9767, V-B:MET:535:CE:9807, V-A:ASP:366:CA:3207, V-A:ASP:366:C:3205, V-B:TYR:539:CE1:9847, V-A:PRO:540:C:4879, V-A:TYR:539:CD1:4871, V-A:ALA:541:CB:4890, V-A:PRO:540:N:4882, V-A:TYR:539:C:4865, V-A:ILE:369:CB:3233, V-B:TYR:539:CZ:9849, V-A:ILE:369:CG2:3234, H-B:TYR:539:OH:9850, V-A:ILE:538:CB:4860, V-B:LEU:475:CD2:9230, V-A:ILE:538:CG2:4861, V-A:ALA:541:CA:4888"]

$$$$
3ac_Grossjean_2025
     RDKit          3D

 31 33  0  0  0  0  0  0  0  0999 V2000
  133.0390  125.0960   64.2670 C   0  0  0  0  0  0  0  0  0  0  0  0
  133.8150  124.7930   63.1120 O   0  0  0  0  0  0  0  0  0  0  0  0
  133.1940  124.7350   61.8780 C   0  0  0  0  0  0  0  0  0  0  0  0
  132.0890  125.5670   61.6980 C   0  0  0  0  0  0  0  0  0  0  0  0
  131.4020  125.5800   60.4880 C   0  0  0  0  0  0  0  0  0  0  0  0
  131.8070  124.7520   59.4400 C   0  0  0  0  0  0  0  0  0  0  0  0
  131.0630  124.8500   58.2490 N   0  0  0  0  0  0  0  0  0  0  0  0
  131.4840  125.1750   57.0070 C   0  0  0  0  0  0  0  0  0  0  0  0
  132.6500  125.4090   56.6900 O   0  0  0  0  0  0  0  0  0  0  0  0
  130.3920  125.2440   55.9390 C   0  0  0  0  0  0  0  0  0  0  0  0
  129.4880  123.6740   55.7770 S   0  0  0  0  0  0  0  0  0  0  0  0
  128.3730  123.5110   57.1580 C   0  0  0  0  0  0  0  0  0  0  0  0
  129.0030  123.2210   58.3220 N   0  0  0  0  0  0  0  0  0  0  0  0
  128.2830  123.0740   59.4640 C   0  0  0  0  0  0  0  0  0  0  0  0
  129.0570  122.7460   60.7060 C   0  0  0  0  0  0  0  0  0  0  0  0
  129.8230  121.5720   60.7870 C   0  0  0  0  0  0  0  0  0  0  0  0
  130.5480  121.2650   61.9350 C   0  0  0  0  0  0  0  0  0  0  0  0
  130.5150  122.1310   63.0230 C   0  0  0  0  0  0  0  0  0  0  0  0
  129.7610  123.2980   62.9720 C   0  0  0  0  0  0  0  0  0  0  0  0
  129.0370  123.6010   61.8210 C   0  0  0  0  0  0  0  0  0  0  0  0
  126.8910  123.2000   59.4530 C   0  0  0  0  0  0  0  0  0  0  0  0
  126.2110  123.4780   58.2580 C   0  0  0  0  0  0  0  0  0  0  0  0
  124.6750  123.6030   58.2920 C   0  0  0  0  0  0  0  0  0  0  0  0
  124.1820  123.6000   59.5320 F   0  0  0  0  0  0  0  0  0  0  0  0
  124.2920  124.7430   57.7150 F   0  0  0  0  0  0  0  0  0  0  0  0
  124.1240  122.5810   57.6360 F   0  0  0  0  0  0  0  0  0  0  0  0
  126.9660  123.6250   57.0680 C   0  0  0  0  0  0  0  0  0  0  0  0
  126.2950  123.8390   55.7840 C   0  0  0  0  0  0  0  0  0  0  0  0
  125.7640  124.0070   54.7690 N   0  0  0  0  0  0  0  0  0  0  0  0
  132.9220  123.9170   59.6110 C   0  0  0  0  0  0  0  0  0  0  0  0
  133.6070  123.9070   60.8230 C   0  0  0  0  0  0  0  0  0  0  0  0
  1  2  1  0
  2  3  1  0
  3  4  2  0
  4  5  1  0
  5  6  2  0
  6  7  1  0
  7  8  1  0
  8  9  2  0
  8 10  1  0
 10 11  1  0
 11 12  1  0
 12 13  2  0
 13 14  1  0
 14 15  1  0
 15 16  2  0
 16 17  1  0
 17 18  2  0
 18 19  1  0
 19 20  2  0
 14 21  2  0
 21 22  1  0
 22 23  1  0
 23 24  1  0
 23 25  1  0
 23 26  1  0
 22 27  2  0
 27 28  1  0
 28 29  3  0
  6 30  1  0
 30 31  2  0
 31  3  1  0
 27 12  1  0
 20 15  1  0
M  END
>  <Binding energies>  (14) 
[-7.27]

>  <Ligand effiencies>  (14) 
[-0.2271875]

>  <Interactions>  (14) 
["V-B:ASP:366:CG:8184, V-A:ASP:366:CG:3210, H-A:TYR:531:OH:4793, V-B:ASP:366:CB:8183, H-B:TYR:531:OH:9767, V-B:PRO:540:CA:9855, V-B:ALA:541:CB:9864, V-B:LEU:363:CA:8156, V-B:PRO:540:CB:9857, V-B:LEU:363:CD1:8160, V-B:MET:535:CE:9807, V-B:PRO:540:CG:9858, V-B:ILE:538:CG2:9835, V-B:PRO:540:CD:9859, V-B:PRO:540:N:9856, V-A:LEU:475:CD2:4256, V-B:GLU:543:CD:9880, V-B:TYR:539:C:9839, V-B:TYR:539:CE1:9847, V-B:TYR:539:CD1:9845, V-B:TYR:539:CZ:9849, V-A:ILE:369:CD1:3236, V-B:TYR:531:CE2:9765, H-B:TYR:539:OH:9850, H-A:GLY:454:N:4047, V-B:TYR:531:CZ:9766, V-A:ARG:545:CZ:4924, V-B:LEU:363:CB:8158, V-B:LEU:363:CG:8159"]

$$$$
3af_Grossjean_2025
     RDKit          3D

 29 31  0  0  0  0  0  0  0  0999 V2000
  126.5130  129.8530   62.6080 N   0  0  0  0  0  0  0  0  0  0  0  0
  126.4220  130.9720   62.3290 C   0  0  0  0  0  0  0  0  0  0  0  0
  126.3080  132.3900   61.9760 C   0  0  0  0  0  0  0  0  0  0  0  0
  127.4570  133.1460   61.6400 C   0  0  0  0  0  0  0  0  0  0  0  0
  128.8690  132.5290   61.5750 C   0  0  0  0  0  0  0  0  0  0  0  0
  129.7580  133.3320   60.9860 F   0  0  0  0  0  0  0  0  0  0  0  0
  129.3110  132.2760   62.8080 F   0  0  0  0  0  0  0  0  0  0  0  0
  128.8400  131.3900   60.8830 F   0  0  0  0  0  0  0  0  0  0  0  0
  127.3040  134.5130   61.3620 C   0  0  0  0  0  0  0  0  0  0  0  0
  126.0400  135.1080   61.4210 C   0  0  0  0  0  0  0  0  0  0  0  0
  125.8220  136.5670   61.1520 C   0  0  0  0  0  0  0  0  0  0  0  0
  124.5370  137.1280   61.2320 C   0  0  0  0  0  0  0  0  0  0  0  0
  124.3290  138.4830   60.9860 C   0  0  0  0  0  0  0  0  0  0  0  0
  125.4070  139.2970   60.6570 C   0  0  0  0  0  0  0  0  0  0  0  0
  126.6910  138.7680   60.5750 C   0  0  0  0  0  0  0  0  0  0  0  0
  126.8940  137.4130   60.8220 C   0  0  0  0  0  0  0  0  0  0  0  0
  124.9410  134.3810   61.7470 N   0  0  0  0  0  0  0  0  0  0  0  0
  125.0600  133.0550   61.9970 C   0  0  0  0  0  0  0  0  0  0  0  0
  123.5110  132.2690   62.3910 S   0  0  0  0  0  0  0  0  0  0  0  0
  123.3770  130.7570   61.3900 C   0  0  0  0  0  0  0  0  0  0  0  0
  124.0020  130.9330   60.0070 C   0  0  0  0  0  0  0  0  0  0  0  0
  123.4140  131.6140   59.1660 O   0  0  0  0  0  0  0  0  0  0  0  0
  125.1790  130.2990   59.8190 N   0  0  0  0  0  0  0  0  0  0  0  0
  126.0010  130.2500   58.6760 C   0  0  0  0  0  0  0  0  0  0  0  0
  127.1890  130.9810   58.4870 C   0  0  0  0  0  0  0  0  0  0  0  0
  127.9060  130.8370   57.2980 C   0  0  0  0  0  0  0  0  0  0  0  0
  127.4180  129.9650   56.3240 C   0  0  0  0  0  0  0  0  0  0  0  0
  126.2770  129.2500   56.4820 N   0  0  0  0  0  0  0  0  0  0  0  0
  125.5910  129.4000   57.6430 C   0  0  0  0  0  0  0  0  0  0  0  0
  1  2  3  0
  2  3  1  0
  3  4  2  0
  4  5  1  0
  5  6  1  0
  5  7  1  0
  5  8  1  0
  4  9  1  0
  9 10  2  0
 10 11  1  0
 11 12  2  0
 12 13  1  0
 13 14  2  0
 14 15  1  0
 15 16  2  0
 10 17  1  0
 17 18  2  0
 18 19  1  0
 19 20  1  0
 20 21  1  0
 21 22  2  0
 21 23  1  0
 23 24  1  0
 24 25  2  0
 25 26  1  0
 26 27  2  0
 27 28  1  0
 28 29  2  0
 18  3  1  0
 29 24  1  0
 16 11  1  0
M  END
>  <Binding energies>  (15) 
[-7.9]

>  <Ligand effiencies>  (15) 
[-0.26333333333333336]

>  <Interactions>  (15) 
["V-A:MET:535:CE:4833, V-B:ASP:366:CG:8184, H-A:TYR:539:OH:4876, V-A:PRO:540:CA:4881, V-A:TYR:539:CZ:4875, V-B:ASP:366:CB:8183, V-A:TYR:539:CE1:4873, H-B:TYR:531:OH:9767, V-A:PRO:540:C:4879, V-A:TYR:539:CD1:4871, V-B:ILE:369:CD1:8210, V-A:ALA:541:CB:4890, V-A:PRO:540:N:4882, V-A:TYR:539:C:4865, V-A:TYR:539:CG:4870, V-B:ILE:369:CG2:8208, V-B:PRO:482:CB:9297, V-B:SER:385:CA:8378, V-B:PRO:482:CG:9298, V-B:LEU:475:CD2:9230, V-B:SER:385:CB:8380, V-B:LEU:373:CD1:8251, H-B:ASP:366:OD1:8185, H-B:GLY:454:N:9021, V-A:GLU:543:CD:4906, V-B:ASP:366:CA:8181, V-B:VAL:384:C:8368, V-A:VAL:344:CG1:2998, V-A:ALA:541:CA:4888, V-A:TYR:539:CB:4869"]

$$$$
3ag_Grossjean_2025
     RDKit          3D

 30 32  0  0  0  0  0  0  0  0999 V2000
  134.1590  123.8490   60.8610 N   0  0  0  0  0  0  0  0  0  0  0  0
  133.0920  123.7490   60.4230 C   0  0  0  0  0  0  0  0  0  0  0  0
  131.7420  123.6260   59.8660 C   0  0  0  0  0  0  0  0  0  0  0  0
  131.3750  124.3330   58.6950 C   0  0  0  0  0  0  0  0  0  0  0  0
  132.3660  125.2150   57.9100 C   0  0  0  0  0  0  0  0  0  0  0  0
  132.0630  125.3060   56.6140 F   0  0  0  0  0  0  0  0  0  0  0  0
  132.3690  126.4500   58.4110 F   0  0  0  0  0  0  0  0  0  0  0  0
  133.5970  124.7100   57.9960 F   0  0  0  0  0  0  0  0  0  0  0  0
  130.0550  124.2240   58.2310 C   0  0  0  0  0  0  0  0  0  0  0  0
  129.1240  123.4420   58.9240 C   0  0  0  0  0  0  0  0  0  0  0  0
  127.7020  123.2930   58.4760 C   0  0  0  0  0  0  0  0  0  0  0  0
  127.3970  122.6770   57.2520 C   0  0  0  0  0  0  0  0  0  0  0  0
  126.0780  122.5340   56.8290 C   0  0  0  0  0  0  0  0  0  0  0  0
  125.0430  123.0080   57.6280 C   0  0  0  0  0  0  0  0  0  0  0  0
  125.3180  123.6250   58.8440 C   0  0  0  0  0  0  0  0  0  0  0  0
  126.6380  123.7670   59.2630 C   0  0  0  0  0  0  0  0  0  0  0  0
  129.4830  122.7550   60.0390 N   0  0  0  0  0  0  0  0  0  0  0  0
  130.7580  122.8300   60.4940 C   0  0  0  0  0  0  0  0  0  0  0  0
  131.0470  121.8660   61.9600 S   0  0  0  0  0  0  0  0  0  0  0  0
  130.1730  120.2850   61.7510 C   0  0  0  0  0  0  0  0  0  0  0  0
  130.9510  119.3080   60.8680 C   0  0  0  0  0  0  0  0  0  0  0  0
  132.1580  119.4740   60.6830 O   0  0  0  0  0  0  0  0  0  0  0  0
  130.2480  118.2920   60.3390 N   0  0  0  0  0  0  0  0  0  0  0  0
  130.7950  117.2270   59.4990 C   0  0  0  0  0  0  0  0  0  0  0  0
  131.9290  116.4430   60.1490 C   0  0  0  0  0  0  0  0  0  0  0  0
  131.7810  115.9590   61.4520 C   0  0  0  0  0  0  0  0  0  0  0  0
  132.8020  115.2160   62.0390 C   0  0  0  0  0  0  0  0  0  0  0  0
  133.9650  114.9520   61.3180 C   0  0  0  0  0  0  0  0  0  0  0  0
  134.1140  115.4190   60.0140 C   0  0  0  0  0  0  0  0  0  0  0  0
  133.0920  116.1610   59.4260 C   0  0  0  0  0  0  0  0  0  0  0  0
  1  2  3  0
  2  3  1  0
  3  4  2  0
  4  5  1  0
  5  6  1  0
  5  7  1  0
  5  8  1  0
  4  9  1  0
  9 10  2  0
 10 11  1  0
 11 12  2  0
 12 13  1  0
 13 14  2  0
 14 15  1  0
 15 16  2  0
 10 17  1  0
 17 18  2  0
 18 19  1  0
 19 20  1  0
 20 21  1  0
 21 22  2  0
 21 23  1  0
 23 24  1  0
 24 25  1  0
 25 26  2  0
 26 27  1  0
 27 28  2  0
 28 29  1  0
 29 30  2  0
 18  3  1  0
 30 25  1  0
 16 11  1  0
M  END
>  <Binding energies>  (16) 
[-8.56]

>  <Ligand effiencies>  (16) 
[-0.2761290322580645]

>  <Interactions>  (16) 
["V-A:ASP:366:CG:3210, V-A:ASP:366:CB:3209, V-B:PRO:540:CA:9855, V-B:ALA:541:CB:9864, V-B:PRO:540:CB:9857, V-B:LEU:363:CD1:8160, V-A:ASP:366:CA:3207, V-B:PRO:540:CG:9858, V-B:ILE:538:CB:9834, V-B:ILE:538:CA:9832, V-B:PRO:540:CD:9859, V-A:ASP:366:C:3205, V-B:PRO:540:N:9856, V-A:LEU:475:CD2:4256, V-B:TYR:539:C:9839, V-B:TYR:539:CE1:9847, V-B:TYR:539:CD1:9845, V-B:TYR:539:CG:9844, V-B:TYR:539:CZ:9849, V-B:TYR:539:CA:9841, H-B:TYR:539:O:9840, V-A:PRO:482:CG:4324, V-A:SER:385:CB:3406, V-A:PRO:482:CB:4323, V-A:SER:385:CA:3404, V-B:TYR:539:CB:9843, V-A:HIS:383:CG:3387, V-A:LEU:373:CD2:3278, V-A:HIS:383:CB:3386, V-A:LEU:373:CD1:3277, V-A:VAL:384:C:3394, V-B:VAL:344:CG1:7972, V-A:HIS:383:CA:3384, V-A:THR:477:CA:4267, V-A:CYS:476:C:4261, V-A:VAL:384:CA:3396, V-A:LEU:373:CG:3276, V-A:HIS:383:C:3382, V-A:THR:477:CG2:4270, V-A:THR:477:CB:4269"]

$$$$
3bc_Grossjean_2025
     RDKit          3D

 28 30  0  0  0  0  0  0  0  0999 V2000
  131.3530  125.8540   74.3800 C   0  0  0  0  0  0  0  0  0  0  0  0
  130.0410  126.3570   74.1510 O   0  0  0  0  0  0  0  0  0  0  0  0
  129.6970  126.7900   72.8840 C   0  0  0  0  0  0  0  0  0  0  0  0
  130.7400  127.2550   72.0820 C   0  0  0  0  0  0  0  0  0  0  0  0
  130.4910  127.7120   70.7910 C   0  0  0  0  0  0  0  0  0  0  0  0
  129.1900  127.7170   70.2860 C   0  0  0  0  0  0  0  0  0  0  0  0
  129.0380  128.1850   68.9670 N   0  0  0  0  0  0  0  0  0  0  0  0
  128.1410  127.8140   68.0290 C   0  0  0  0  0  0  0  0  0  0  0  0
  127.2420  126.9890   68.2050 O   0  0  0  0  0  0  0  0  0  0  0  0
  128.2830  128.5390   66.6830 C   0  0  0  0  0  0  0  0  0  0  0  0
  127.5560  130.2110   66.6210 S   0  0  0  0  0  0  0  0  0  0  0  0
  126.8620  130.4430   65.0000 C   0  0  0  0  0  0  0  0  0  0  0  0
  127.7830  130.7280   64.0480 N   0  0  0  0  0  0  0  0  0  0  0  0
  127.3890  130.9270   62.7620 C   0  0  0  0  0  0  0  0  0  0  0  0
  128.4680  131.2580   61.7740 C   0  0  0  0  0  0  0  0  0  0  0  0
  128.3180  132.3310   60.8830 C   0  0  0  0  0  0  0  0  0  0  0  0
  129.3150  132.6440   59.9620 C   0  0  0  0  0  0  0  0  0  0  0  0
  130.4790  131.8840   59.9210 C   0  0  0  0  0  0  0  0  0  0  0  0
  130.6520  130.8130   60.7920 C   0  0  0  0  0  0  0  0  0  0  0  0
  129.6510  130.5020   61.7100 C   0  0  0  0  0  0  0  0  0  0  0  0
  126.0400  130.8430   62.4040 C   0  0  0  0  0  0  0  0  0  0  0  0
  125.0790  130.5270   63.3700 C   0  0  0  0  0  0  0  0  0  0  0  0
  123.6190  130.4290   62.9300 C   0  0  0  0  0  0  0  0  0  0  0  0
  125.4860  130.3090   64.7040 C   0  0  0  0  0  0  0  0  0  0  0  0
  124.5040  129.9300   65.7220 C   0  0  0  0  0  0  0  0  0  0  0  0
  123.7260  129.6310   66.5250 N   0  0  0  0  0  0  0  0  0  0  0  0
  128.1380  127.2390   71.0810 C   0  0  0  0  0  0  0  0  0  0  0  0
  128.3910  126.7830   72.3720 C   0  0  0  0  0  0  0  0  0  0  0  0
  1  2  1  0
  2  3  1  0
  3  4  2  0
  4  5  1  0
  5  6  2  0
  6  7  1  0
  7  8  1  0
  8  9  2  0
  8 10  1  0
 10 11  1  0
 11 12  1  0
 12 13  2  0
 13 14  1  0
 14 15  1  0
 15 16  2  0
 16 17  1  0
 17 18  2  0
 18 19  1  0
 19 20  2  0
 14 21  2  0
 21 22  1  0
 22 23  1  0
 22 24  2  0
 24 25  1  0
 25 26  3  0
  6 27  1  0
 27 28  2  0
 28  3  1  0
 24 12  1  0
 20 15  1  0
M  END
>  <Binding energies>  (17) 
[-8.15]

>  <Ligand effiencies>  (17) 
[-0.2810344827586207]

>  <Interactions>  (17) 
["V-A:PRO:540:CA:4881, V-B:GLU:543:CD:9880, V-A:TYR:539:CD1:4871, V-B:ILE:369:CD1:8210, V-A:PRO:540:N:4882, V-A:TYR:539:C:4865, V-B:ARG:545:CZ:9898, V-B:GLY:453:CA:9015, V-B:GLY:453:C:9013, V-B:GLY:454:CA:9020, H-B:TYR:484:OH:9319, H-B:GLY:454:N:9021, V-A:HIS:456:CE1:4066, V-A:GLU:543:CD:4906, H-A:GLU:543:OE2:4908, V-B:HIS:456:CE1:9040, H-B:ARG:545:NE:9896, V-B:ARG:545:CD:9895, V-A:GLU:543:CB:4904, V-A:GLU:543:CG:4905, V-B:GLU:543:CG:9879, H-B:ILE:455:N:9026, V-A:GLY:544:CA:4912, V-B:HIS:456:CD2:9039, V-B:GLY:544:C:9884, V-B:GLU:543:C:9874, V-B:GLY:544:CA:9886, V-A:GLU:543:C:4900, H-B:LYS:547:NZ:9923, V-A:GLY:544:C:4910, H-A:LYS:547:NZ:4949, V-B:LYS:547:CE:9922, V-A:HIS:456:CD2:4065, V-A:HIS:456:CG:4063, H-A:GLU:543:O:4901"]

$$$$
3bd_Grossjean_2025
     RDKit          3D

 26 28  0  0  0  0  0  0  0  0999 V2000
  132.2550  125.4950   57.2250 C   0  0  0  0  0  0  0  0  0  0  0  0
  131.2440  124.6510   57.9990 C   0  0  0  0  0  0  0  0  0  0  0  0
  129.9700  124.4720   57.4460 C   0  0  0  0  0  0  0  0  0  0  0  0
  129.0140  123.7090   58.1260 C   0  0  0  0  0  0  0  0  0  0  0  0
  127.6340  123.4740   57.5890 C   0  0  0  0  0  0  0  0  0  0  0  0
  127.4390  123.0950   56.2520 C   0  0  0  0  0  0  0  0  0  0  0  0
  126.1600  122.8770   55.7460 C   0  0  0  0  0  0  0  0  0  0  0  0
  125.0540  123.0360   56.5750 C   0  0  0  0  0  0  0  0  0  0  0  0
  125.2190  123.4140   57.9030 C   0  0  0  0  0  0  0  0  0  0  0  0
  126.4990  123.6310   58.4050 C   0  0  0  0  0  0  0  0  0  0  0  0
  129.3100  123.1240   59.3160 N   0  0  0  0  0  0  0  0  0  0  0  0
  130.5400  123.2870   59.8670 C   0  0  0  0  0  0  0  0  0  0  0  0
  130.7980  122.4780   61.4370 S   0  0  0  0  0  0  0  0  0  0  0  0
  130.0630  120.8170   61.3430 C   0  0  0  0  0  0  0  0  0  0  0  0
  131.1040  119.7470   61.0140 C   0  0  0  0  0  0  0  0  0  0  0  0
  132.2980  120.0500   61.0290 O   0  0  0  0  0  0  0  0  0  0  0  0
  130.6130  118.5260   60.7110 N   0  0  0  0  0  0  0  0  0  0  0  0
  131.3100  117.3450   60.3950 C   0  0  0  0  0  0  0  0  0  0  0  0
  132.0750  116.7880   61.4230 C   0  0  0  0  0  0  0  0  0  0  0  0
  132.8060  115.6240   61.2020 C   0  0  0  0  0  0  0  0  0  0  0  0
  132.7820  115.0210   59.9480 C   0  0  0  0  0  0  0  0  0  0  0  0
  132.0340  115.5740   58.9100 C   0  0  0  0  0  0  0  0  0  0  0  0
  131.3010  116.7370   59.1290 C   0  0  0  0  0  0  0  0  0  0  0  0
  131.5470  124.0500   59.2390 C   0  0  0  0  0  0  0  0  0  0  0  0
  132.8720  124.2180   59.8440 C   0  0  0  0  0  0  0  0  0  0  0  0
  133.9190  124.3500   60.3190 N   0  0  0  0  0  0  0  0  0  0  0  0
  1  2  1  0
  2  3  2  0
  3  4  1  0
  4  5  1  0
  5  6  2  0
  6  7  1  0
  7  8  2  0
  8  9  1  0
  9 10  2  0
  4 11  2  0
 11 12  1  0
 12 13  1  0
 13 14  1  0
 14 15  1  0
 15 16  2  0
 15 17  1  0
 17 18  1  0
 18 19  2  0
 19 20  1  0
 20 21  2  0
 21 22  1  0
 22 23  2  0
 12 24  2  0
 24 25  1  0
 25 26  3  0
 24  2  1  0
 10  5  1  0
 23 18  1  0
M  END
>  <Binding energies>  (18) 
[-9.59]

>  <Ligand effiencies>  (18) 
[-0.35518518518518516]

>  <Interactions>  (18) 
["V-A:ASP:366:CG:3210, V-A:ASP:366:CB:3209, V-B:PRO:540:CA:9855, V-B:ALA:541:CB:9864, V-B:PRO:540:CB:9857, V-B:LEU:363:CD1:8160, V-B:MET:535:CE:9807, V-B:ILE:538:CG2:9835, V-B:ILE:538:CB:9834, V-B:ILE:538:CA:9832, V-B:PRO:540:CD:9859, V-B:PRO:540:N:9856, V-A:LEU:475:CD2:4256, V-B:TYR:539:C:9839, V-B:TYR:539:CE1:9847, V-B:TYR:539:CD1:9845, V-B:TYR:539:CG:9844, V-B:TYR:539:CZ:9849, V-B:TYR:531:CE2:9765, H-B:TYR:539:O:9840, V-A:PRO:482:CG:4324, V-A:SER:385:CB:3406, V-A:PRO:482:CB:4323, V-B:TYR:539:CB:9843, V-A:HIS:383:CG:3387, V-A:LEU:373:CD2:3278, V-A:HIS:383:CB:3386, V-A:LEU:373:CD1:3277, V-B:VAL:344:CG1:7972, V-B:ILE:343:CD1:7965, V-A:HIS:383:CD2:3389"]

$$$$
3be_Grossjean_2025
     RDKit          3D

 27 29  0  0  0  0  0  0  0  0999 V2000
  128.9980  132.9890   55.1400 C   0  0  0  0  0  0  0  0  0  0  0  0
  129.9180  132.5940   56.2780 C   0  0  0  0  0  0  0  0  0  0  0  0
  131.3070  132.6140   56.1370 C   0  0  0  0  0  0  0  0  0  0  0  0
  132.0920  132.2340   57.2260 C   0  0  0  0  0  0  0  0  0  0  0  0
  131.4750  131.8470   58.4180 C   0  0  0  0  0  0  0  0  0  0  0  0
  130.0780  131.8530   58.4940 C   0  0  0  0  0  0  0  0  0  0  0  0
  129.5180  131.4430   59.7180 N   0  0  0  0  0  0  0  0  0  0  0  0
  129.9900  131.6310   60.9700 C   0  0  0  0  0  0  0  0  0  0  0  0
  131.0400  132.2160   61.2410 O   0  0  0  0  0  0  0  0  0  0  0  0
  129.1040  131.0520   62.0850 C   0  0  0  0  0  0  0  0  0  0  0  0
  128.2520  132.2900   63.1200 S   0  0  0  0  0  0  0  0  0  0  0  0
  126.7600  132.7780   62.2830 C   0  0  0  0  0  0  0  0  0  0  0  0
  126.6760  134.1120   62.0540 N   0  0  0  0  0  0  0  0  0  0  0  0
  125.5890  134.6240   61.4180 C   0  0  0  0  0  0  0  0  0  0  0  0
  125.5690  136.1100   61.2160 C   0  0  0  0  0  0  0  0  0  0  0  0
  126.7640  136.8460   61.1760 C   0  0  0  0  0  0  0  0  0  0  0  0
  126.7520  138.2250   60.9920 C   0  0  0  0  0  0  0  0  0  0  0  0
  125.5400  138.8910   60.8440 C   0  0  0  0  0  0  0  0  0  0  0  0
  124.3410  138.1870   60.8820 C   0  0  0  0  0  0  0  0  0  0  0  0
  124.3580  136.8070   61.0670 C   0  0  0  0  0  0  0  0  0  0  0  0
  124.5470  133.7910   60.9970 C   0  0  0  0  0  0  0  0  0  0  0  0
  124.6280  132.4100   61.2040 C   0  0  0  0  0  0  0  0  0  0  0  0
  123.4740  131.5380   60.7120 C   0  0  0  0  0  0  0  0  0  0  0  0
  125.7620  131.8750   61.8520 C   0  0  0  0  0  0  0  0  0  0  0  0
  125.8930  130.4270   62.0300 C   0  0  0  0  0  0  0  0  0  0  0  0
  125.9940  129.2820   62.1700 N   0  0  0  0  0  0  0  0  0  0  0  0
  129.3050  132.2200   57.4310 N   0  0  0  0  0  0  0  0  0  0  0  0
  1  2  1  0
  2  3  2  0
  3  4  1  0
  4  5  2  0
  5  6  1  0
  6  7  1  0
  7  8  1  0
  8  9  2  0
  8 10  1  0
 10 11  1  0
 11 12  1  0
 12 13  2  0
 13 14  1  0
 14 15  1  0
 15 16  2  0
 16 17  1  0
 17 18  2  0
 18 19  1  0
 19 20  2  0
 14 21  2  0
 21 22  1  0
 22 23  1  0
 22 24  2  0
 24 25  1  0
 25 26  3  0
  6 27  2  0
 27  2  1  0
 24 12  1  0
 20 15  1  0
M  END
>  <Binding energies>  (19) 
[-8.94]

>  <Ligand effiencies>  (19) 
[-0.3192857142857143]

>  <Interactions>  (19) 
["V-A:MET:535:CE:4833, V-A:TYR:539:CE2:4874, H-A:ALA:541:N:4889, V-A:PRO:540:CB:4883, V-A:PRO:540:CA:4881, V-A:ILE:538:CA:4858, V-A:TYR:539:CZ:4875, V-A:TYR:539:CE1:4873, V-A:TYR:539:CD2:4872, V-A:TYR:539:CD1:4871, V-B:ILE:369:CD1:8210, V-A:PRO:540:N:4882, V-B:ILE:369:CG2:8208, V-A:ILE:538:CB:4860, V-B:PRO:482:CB:9297, V-B:SER:385:CA:8378, V-A:PRO:540:CD:4885, V-B:PRO:482:CG:9298, V-B:LEU:475:CD2:9230, V-A:ILE:538:CG2:4861, V-B:SER:385:CB:8380, V-B:LEU:373:CD1:8251, V-A:ILE:538:C:4856, V-B:ILE:369:CG1:8209, V-B:ILE:369:CB:8207, V-A:GLU:543:CD:4906, H-B:ARG:545:NH2:9900, V-B:VAL:384:C:8368, V-A:VAL:344:CG1:2998, V-A:TYR:539:CB:4869"]

$$$$
3bf_Grossjean_2025
     RDKit          3D

 26 28  0  0  0  0  0  0  0  0999 V2000
  131.2790  125.4760   56.2120 C   0  0  0  0  0  0  0  0  0  0  0  0
  130.4770  124.7360   57.2800 C   0  0  0  0  0  0  0  0  0  0  0  0
  129.1080  124.5460   57.0630 C   0  0  0  0  0  0  0  0  0  0  0  0
  128.3390  123.8600   58.0100 C   0  0  0  0  0  0  0  0  0  0  0  0
  126.8730  123.6030   57.8270 C   0  0  0  0  0  0  0  0  0  0  0  0
  126.3820  123.0860   56.6180 C   0  0  0  0  0  0  0  0  0  0  0  0
  125.0220  122.8460   56.4400 C   0  0  0  0  0  0  0  0  0  0  0  0
  124.1330  123.1220   57.4730 C   0  0  0  0  0  0  0  0  0  0  0  0
  124.5930  123.6370   58.6800 C   0  0  0  0  0  0  0  0  0  0  0  0
  125.9540  123.8760   58.8530 C   0  0  0  0  0  0  0  0  0  0  0  0
  128.9040  123.3710   59.1460 N   0  0  0  0  0  0  0  0  0  0  0  0
  130.2250  123.5690   59.3820 C   0  0  0  0  0  0  0  0  0  0  0  0
  130.7870  122.8670   60.9180 S   0  0  0  0  0  0  0  0  0  0  0  0
  130.1050  121.1790   61.0520 C   0  0  0  0  0  0  0  0  0  0  0  0
  131.1460  120.0500   61.0080 C   0  0  0  0  0  0  0  0  0  0  0  0
  132.3330  120.2790   61.2480 O   0  0  0  0  0  0  0  0  0  0  0  0
  130.6420  118.8310   60.7210 N   0  0  0  0  0  0  0  0  0  0  0  0
  131.3180  117.6030   60.5940 C   0  0  0  0  0  0  0  0  0  0  0  0
  131.2930  116.9870   59.3380 C   0  0  0  0  0  0  0  0  0  0  0  0
  131.9570  115.7740   59.1450 C   0  0  0  0  0  0  0  0  0  0  0  0
  132.6380  115.2080   60.2230 C   0  0  0  0  0  0  0  0  0  0  0  0
  132.6870  115.7870   61.4490 N   0  0  0  0  0  0  0  0  0  0  0  0
  132.0370  116.9670   61.6220 C   0  0  0  0  0  0  0  0  0  0  0  0
  131.0640  124.2350   58.4620 C   0  0  0  0  0  0  0  0  0  0  0  0
  132.5060  124.3790   58.6860 C   0  0  0  0  0  0  0  0  0  0  0  0
  133.6440  124.4950   58.8620 N   0  0  0  0  0  0  0  0  0  0  0  0
  1  2  1  0
  2  3  2  0
  3  4  1  0
  4  5  1  0
  5  6  2  0
  6  7  1  0
  7  8  2  0
  8  9  1  0
  9 10  2  0
  4 11  2  0
 11 12  1  0
 12 13  1  0
 13 14  1  0
 14 15  1  0
 15 16  2  0
 15 17  1  0
 17 18  1  0
 18 19  2  0
 19 20  1  0
 20 21  2  0
 21 22  1  0
 22 23  2  0
 12 24  2  0
 24 25  1  0
 25 26  3  0
 24  2  1  0
 10  5  1  0
 23 18  1  0
M  END
>  <Binding energies>  (20) 
[-9.16]

>  <Ligand effiencies>  (20) 
[-0.33925925925925926]

>  <Interactions>  (20) 
["V-B:PRO:540:CA:9855, V-B:ALA:541:CB:9864, V-B:LEU:363:CA:8156, V-B:PRO:540:CB:9857, V-B:LEU:363:CD1:8160, V-B:MET:535:CE:9807, V-B:PRO:540:CG:9858, V-B:ILE:538:CG2:9835, V-B:ILE:538:CB:9834, V-B:PRO:540:CD:9859, V-A:LEU:475:CD2:4256, V-B:TYR:539:C:9839, V-B:TYR:539:CE1:9847, V-B:TYR:539:CD1:9845, V-B:TYR:539:CG:9844, V-B:TYR:539:CZ:9849, V-B:TYR:531:CE2:9765, H-B:TYR:539:OH:9850, H-B:TYR:539:O:9840, V-A:TYR:531:CE1:4790, V-A:PRO:482:CG:4324, V-A:SER:385:CB:3406, V-A:PRO:482:CB:4323, V-B:TYR:539:CB:9843, V-A:HIS:383:CG:3387, V-A:LEU:373:CD2:3278, V-A:HIS:383:CB:3386, V-A:LEU:373:CD1:3277, V-B:VAL:344:CG1:7972, V-B:LEU:363:CB:8158, V-A:LEU:475:CG:4254, V-A:HIS:383:CD2:3389"]

$$$$
3bg_Grossjean_2025
     RDKit          3D

 27 29  0  0  0  0  0  0  0  0999 V2000
  134.5010  122.0870   62.0510 C   0  0  0  0  0  0  0  0  0  0  0  0
  133.1960  121.3840   61.6830 C   0  0  0  0  0  0  0  0  0  0  0  0
  133.2650  120.0780   61.1890 C   0  0  0  0  0  0  0  0  0  0  0  0
  132.0910  119.3930   60.8460 C   0  0  0  0  0  0  0  0  0  0  0  0
  132.0950  117.9840   60.3210 C   0  0  0  0  0  0  0  0  0  0  0  0
  130.9090  117.3700   59.8860 C   0  0  0  0  0  0  0  0  0  0  0  0
  130.9110  116.0730   59.3820 C   0  0  0  0  0  0  0  0  0  0  0  0
  132.1040  115.3630   59.3070 C   0  0  0  0  0  0  0  0  0  0  0  0
  133.2920  115.9400   59.7410 C   0  0  0  0  0  0  0  0  0  0  0  0
  133.2850  117.2370   60.2460 C   0  0  0  0  0  0  0  0  0  0  0  0
  130.8760  119.9820   61.0070 N   0  0  0  0  0  0  0  0  0  0  0  0
  130.7910  121.2490   61.4890 C   0  0  0  0  0  0  0  0  0  0  0  0
  129.1370  121.8930   61.6840 S   0  0  0  0  0  0  0  0  0  0  0  0
  129.1140  123.6060   61.0630 C   0  0  0  0  0  0  0  0  0  0  0  0
  128.9430  123.6590   59.5420 C   0  0  0  0  0  0  0  0  0  0  0  0
  129.1190  124.7200   58.9410 O   0  0  0  0  0  0  0  0  0  0  0  0
  128.5780  122.5140   58.9410 N   0  0  0  0  0  0  0  0  0  0  0  0
  128.1850  122.3790   57.5370 C   0  0  0  0  0  0  0  0  0  0  0  0
  126.7500  122.8360   57.3050 C   0  0  0  0  0  0  0  0  0  0  0  0
  125.9650  123.2550   58.3840 C   0  0  0  0  0  0  0  0  0  0  0  0
  124.6520  123.6630   58.1740 C   0  0  0  0  0  0  0  0  0  0  0  0
  124.1280  123.6630   56.8820 C   0  0  0  0  0  0  0  0  0  0  0  0
  124.9100  123.2670   55.7990 C   0  0  0  0  0  0  0  0  0  0  0  0
  126.2240  122.8580   56.0100 C   0  0  0  0  0  0  0  0  0  0  0  0
  131.9350  121.9980   61.8350 C   0  0  0  0  0  0  0  0  0  0  0  0
  131.8290  123.3630   62.3570 C   0  0  0  0  0  0  0  0  0  0  0  0
  131.7480  124.4400   62.7700 N   0  0  0  0  0  0  0  0  0  0  0  0
  1  2  1  0
  2  3  2  0
  3  4  1  0
  4  5  1  0
  5  6  2  0
  6  7  1  0
  7  8  2  0
  8  9  1  0
  9 10  2  0
  4 11  2  0
 11 12  1  0
 12 13  1  0
 13 14  1  0
 14 15  1  0
 15 16  2  0
 15 17  1  0
 17 18  1  0
 18 19  1  0
 19 20  2  0
 20 21  1  0
 21 22  2  0
 22 23  1  0
 23 24  2  0
 12 25  2  0
 25 26  1  0
 26 27  3  0
 25  2  1  0
 10  5  1  0
 24 19  1  0
M  END
>  <Binding energies>  (21) 
[-9.21]

>  <Ligand effiencies>  (21) 
[-0.32892857142857146]

>  <Interactions>  (21) 
["V-B:PRO:540:CA:9855, V-B:ALA:541:CB:9864, V-B:PRO:540:CB:9857, V-B:LEU:363:CD1:8160, V-B:ILE:538:CG2:9835, V-B:ILE:538:CB:9834, V-B:ILE:538:CA:9832, V-B:PRO:540:CD:9859, V-B:PRO:540:N:9856, V-A:LEU:475:CD2:4256, V-B:TYR:539:C:9839, V-B:TYR:539:CE1:9847, V-B:TYR:539:CD1:9845, V-B:TYR:539:CG:9844, V-B:TYR:539:CZ:9849, V-A:ILE:369:CD1:3236, V-B:TYR:531:CE2:9765, V-A:ILE:369:CG2:3234, V-A:GLY:454:CA:4046, V-B:TYR:531:CZ:9766, V-B:TYR:539:CA:9841, H-B:ALA:541:N:9863, H-B:TYR:539:O:9840, V-B:TYR:539:CD2:9846, V-A:PRO:482:CG:4324, V-A:SER:385:CB:3406, V-A:SER:385:CA:3404, V-B:TYR:539:CB:9843, V-A:HIS:383:CG:3387, V-A:LEU:373:CD2:3278, V-A:HIS:383:CB:3386, V-A:LEU:373:CD1:3277, V-A:GLY:453:C:4039, V-A:VAL:384:C:3394, V-B:VAL:344:CG1:7972, V-A:SER:385:C:3402, V-A:HIS:383:CD2:3389"]

$$$$
3ca_Grossjean_2025
     RDKit          3D

 31 33  0  0  0  0  0  0  0  0999 V2000
  130.8860  114.7100   60.2930 C   0  0  0  0  0  0  0  0  0  0  0  0
  131.2230  115.0350   58.8350 C   0  0  0  0  0  0  0  0  0  0  0  0
  131.9130  116.2770   58.7750 O   0  0  0  0  0  0  0  0  0  0  0  0
  132.7740  116.6500   59.7550 C   0  0  0  0  0  0  0  0  0  0  0  0
  133.6830  115.9270   60.1740 O   0  0  0  0  0  0  0  0  0  0  0  0
  132.5150  118.0350   60.2780 C   0  0  0  0  0  0  0  0  0  0  0  0
  131.2500  118.3460   60.7930 C   0  0  0  0  0  0  0  0  0  0  0  0
  130.9790  119.6200   61.2850 C   0  0  0  0  0  0  0  0  0  0  0  0
  131.9630  120.6100   61.2650 C   0  0  0  0  0  0  0  0  0  0  0  0
  131.5850  121.8610   61.7870 N   0  0  0  0  0  0  0  0  0  0  0  0
  132.2310  122.6610   62.6620 C   0  0  0  0  0  0  0  0  0  0  0  0
  133.3300  122.4270   63.1630 O   0  0  0  0  0  0  0  0  0  0  0  0
  131.5090  123.9670   63.0120 C   0  0  0  0  0  0  0  0  0  0  0  0
  129.7370  123.9430   62.5850 S   0  0  0  0  0  0  0  0  0  0  0  0
  129.5380  124.0350   60.8100 C   0  0  0  0  0  0  0  0  0  0  0  0
  130.6620  124.3270   60.1080 N   0  0  0  0  0  0  0  0  0  0  0  0
  130.5910  124.3920   58.7600 C   0  0  0  0  0  0  0  0  0  0  0  0
  131.8910  124.7040   58.0470 C   0  0  0  0  0  0  0  0  0  0  0  0
  129.4030  124.1860   58.0620 C   0  0  0  0  0  0  0  0  0  0  0  0
  128.2260  123.9010   58.7650 C   0  0  0  0  0  0  0  0  0  0  0  0
  126.9740  123.7010   57.9750 C   0  0  0  0  0  0  0  0  0  0  0  0
  125.8150  124.4160   58.3020 C   0  0  0  0  0  0  0  0  0  0  0  0
  124.6410  124.2290   57.5770 C   0  0  0  0  0  0  0  0  0  0  0  0
  124.6200  123.3210   56.5220 C   0  0  0  0  0  0  0  0  0  0  0  0
  125.7620  122.5980   56.1870 C   0  0  0  0  0  0  0  0  0  0  0  0
  126.9340  122.7870   56.9150 C   0  0  0  0  0  0  0  0  0  0  0  0
  128.2910  123.8130   60.1800 C   0  0  0  0  0  0  0  0  0  0  0  0
  127.1020  123.4680   60.9660 C   0  0  0  0  0  0  0  0  0  0  0  0
  126.1630  123.1950   61.5860 N   0  0  0  0  0  0  0  0  0  0  0  0
  133.2350  120.3040   60.7580 C   0  0  0  0  0  0  0  0  0  0  0  0
  133.5040  119.0290   60.2680 C   0  0  0  0  0  0  0  0  0  0  0  0
  1  2  1  0
  2  3  1  0
  3  4  1  0
  4  5  2  0
  4  6  1  0
  6  7  2  0
  7  8  1  0
  8  9  2  0
  9 10  1  0
 10 11  1  0
 11 12  2  0
 11 13  1  0
 13 14  1  0
 14 15  1  0
 15 16  2  0
 16 17  1  0
 17 18  1  0
 17 19  2  0
 19 20  1  0
 20 21  1  0
 21 22  2  0
 22 23  1  0
 23 24  2  0
 24 25  1  0
 25 26  2  0
 20 27  2  0
 27 28  1  0
 28 29  3  0
  9 30  1  0
 30 31  2  0
 31  6  1  0
 27 15  1  0
 26 21  1  0
M  END
>  <Binding energies>  (22) 
[-9.11]

>  <Ligand effiencies>  (22) 
[-0.2846875]

>  <Interactions>  (22) 
["V-B:PRO:540:CA:9855, V-B:LEU:363:CD1:8160, V-B:ILE:538:CG2:9835, V-B:ILE:538:CB:9834, V-B:ILE:538:CA:9832, V-B:PRO:540:CD:9859, V-B:PRO:540:N:9856, V-A:LEU:475:CD2:4256, V-B:TYR:539:C:9839, V-B:TYR:539:CE1:9847, V-B:TYR:539:CD1:9845, V-B:TYR:539:CZ:9849, V-B:TYR:531:CE2:9765, V-A:ILE:369:CG2:3234, H-A:GLY:454:N:4047, V-B:TYR:531:CZ:9766, H-B:ALA:541:N:9863, V-A:PRO:482:CG:4324, V-A:SER:385:CB:3406, V-A:SER:385:CA:3404, V-A:HIS:383:CG:3387, V-A:LEU:373:CD2:3278, V-A:LEU:373:CD1:3277, V-B:VAL:344:CG1:7972, V-B:ILE:343:CD1:7965, V-A:HIS:383:CD2:3389, V-A:HIS:383:CE1:3391, H-A:SER:385:N:3405"]

$$$$
3ce_Grossjean_2025
     RDKit          3D

 27 29  0  0  0  0  0  0  0  0999 V2000
  130.8500  115.1760   58.3340 C   0  0  0  0  0  0  0  0  0  0  0  0
  131.5640  116.1230   59.2790 C   0  0  0  0  0  0  0  0  0  0  0  0
  132.8610  115.8640   59.7320 C   0  0  0  0  0  0  0  0  0  0  0  0
  133.4590  116.7850   60.5910 C   0  0  0  0  0  0  0  0  0  0  0  0
  132.7570  117.9300   60.9750 C   0  0  0  0  0  0  0  0  0  0  0  0
  131.4580  118.1230   60.4920 C   0  0  0  0  0  0  0  0  0  0  0  0
  130.8070  119.3010   60.8950 N   0  0  0  0  0  0  0  0  0  0  0  0
  131.3390  120.5300   61.0770 C   0  0  0  0  0  0  0  0  0  0  0  0
  132.5250  120.8190   60.9050 O   0  0  0  0  0  0  0  0  0  0  0  0
  130.3620  121.6170   61.5220 C   0  0  0  0  0  0  0  0  0  0  0  0
  130.9600  123.2810   61.1040 S   0  0  0  0  0  0  0  0  0  0  0  0
  130.1760  123.7040   59.5660 C   0  0  0  0  0  0  0  0  0  0  0  0
  131.0200  124.2280   58.6430 N   0  0  0  0  0  0  0  0  0  0  0  0
  130.5230  124.5680   57.4320 C   0  0  0  0  0  0  0  0  0  0  0  0
  131.5230  125.1360   56.4430 C   0  0  0  0  0  0  0  0  0  0  0  0
  129.1790  124.4130   57.1020 C   0  0  0  0  0  0  0  0  0  0  0  0
  128.2860  123.8970   58.0510 C   0  0  0  0  0  0  0  0  0  0  0  0
  126.8500  123.7730   57.6590 C   0  0  0  0  0  0  0  0  0  0  0  0
  126.4870  122.9870   56.5590 C   0  0  0  0  0  0  0  0  0  0  0  0
  125.1510  122.8710   56.1850 C   0  0  0  0  0  0  0  0  0  0  0  0
  124.1710  123.5490   56.9050 C   0  0  0  0  0  0  0  0  0  0  0  0
  124.5170  124.3430   57.9950 C   0  0  0  0  0  0  0  0  0  0  0  0
  125.8530  124.4560   58.3680 C   0  0  0  0  0  0  0  0  0  0  0  0
  128.7930  123.5260   59.3210 C   0  0  0  0  0  0  0  0  0  0  0  0
  127.9100  122.9660   60.3500 C   0  0  0  0  0  0  0  0  0  0  0  0
  127.2120  122.5250   61.1600 N   0  0  0  0  0  0  0  0  0  0  0  0
  130.8680  117.2300   59.6440 N   0  0  0  0  0  0  0  0  0  0  0  0
  1  2  1  0
  2  3  2  0
  3  4  1  0
  4  5  2  0
  5  6  1  0
  6  7  1  0
  7  8  1  0
  8  9  2  0
  8 10  1  0
 10 11  1  0
 11 12  1  0
 12 13  2  0
 13 14  1  0
 14 15  1  0
 14 16  2  0
 16 17  1  0
 17 18  1  0
 18 19  2  0
 19 20  1  0
 20 21  2  0
 21 22  1  0
 22 23  2  0
 17 24  2  0
 24 25  1  0
 25 26  3  0
  6 27  2  0
 27  2  1  0
 24 12  1  0
 23 18  1  0
M  END
>  <Binding energies>  (23) 
[-9.42]

>  <Ligand effiencies>  (23) 
[-0.3364285714285714]

>  <Interactions>  (23) 
["V-B:ASP:366:CG:8184, V-B:ASP:366:CB:8183, V-B:PRO:540:CA:9855, V-B:ALA:541:CB:9864, V-B:LEU:363:CD1:8160, V-B:MET:535:CE:9807, V-B:ILE:538:CG2:9835, V-B:ILE:538:CB:9834, V-B:PRO:540:CD:9859, V-A:LEU:475:CD2:4256, V-B:TYR:539:CE1:9847, V-B:TYR:539:CD1:9845, V-B:TYR:539:CZ:9849, V-B:TYR:531:CE2:9765, H-B:TYR:539:OH:9850, V-B:TYR:531:CZ:9766, H-B:ALA:541:N:9863, H-B:TYR:539:O:9840, V-A:PRO:482:CG:4324, V-A:SER:385:CB:3406, V-A:SER:385:CA:3404, V-B:TYR:539:CB:9843, V-A:HIS:383:CG:3387, V-A:LEU:373:CD2:3278, V-A:HIS:383:CB:3386, V-A:LEU:373:CD1:3277, V-A:VAL:384:C:3394, V-B:VAL:344:CG1:7972, V-B:ILE:343:CD1:7965, V-A:HIS:383:CD2:3389, V-A:HIS:383:CE1:3391, V-B:ILE:343:CG1:7964"]

$$$$
3cj_Grossjean_2025
     RDKit          3D

 25 27  0  0  0  0  0  0  0  0999 V2000
  127.8480  133.2750   62.0390 C   0  0  0  0  0  0  0  0  0  0  0  0
  127.7020  132.5300   60.7260 C   0  0  0  0  0  0  0  0  0  0  0  0
  128.7080  132.5500   59.7620 C   0  0  0  0  0  0  0  0  0  0  0  0
  128.5410  131.8290   58.5720 C   0  0  0  0  0  0  0  0  0  0  0  0
  129.6710  131.8260   57.5970 C   0  0  0  0  0  0  0  0  0  0  0  0
  130.9510  131.4230   57.9930 C   0  0  0  0  0  0  0  0  0  0  0  0
  132.0070  131.4340   57.0850 C   0  0  0  0  0  0  0  0  0  0  0  0
  131.7860  131.8540   55.7770 C   0  0  0  0  0  0  0  0  0  0  0  0
  130.5200  132.2670   55.3700 C   0  0  0  0  0  0  0  0  0  0  0  0
  129.4660  132.2550   56.2800 C   0  0  0  0  0  0  0  0  0  0  0  0
  127.3280  131.1240   58.3750 C   0  0  0  0  0  0  0  0  0  0  0  0
  127.0820  130.3750   57.1390 C   0  0  0  0  0  0  0  0  0  0  0  0
  126.8890  129.7820   56.1630 N   0  0  0  0  0  0  0  0  0  0  0  0
  126.3650  131.1550   59.4080 C   0  0  0  0  0  0  0  0  0  0  0  0
  124.8590  130.2070   59.3480 S   0  0  0  0  0  0  0  0  0  0  0  0
  123.6910  131.1160   60.4090 C   0  0  0  0  0  0  0  0  0  0  0  0
  124.2120  131.2520   61.8440 C   0  0  0  0  0  0  0  0  0  0  0  0
  124.2340  132.3630   62.3790 O   0  0  0  0  0  0  0  0  0  0  0  0
  124.5830  130.0970   62.4370 N   0  0  0  0  0  0  0  0  0  0  0  0
  124.9570  129.9290   63.7600 C   0  0  0  0  0  0  0  0  0  0  0  0
  124.1770  129.8120   64.8120 N   0  0  0  0  0  0  0  0  0  0  0  0
  124.8770  129.6350   65.9150 C   0  0  0  0  0  0  0  0  0  0  0  0
  126.2600  129.6060   65.7700 C   0  0  0  0  0  0  0  0  0  0  0  0
  126.6570  129.8260   64.0920 S   0  0  0  0  0  0  0  0  0  0  0  0
  126.5530  131.8370   60.5660 N   0  0  0  0  0  0  0  0  0  0  0  0
  1  2  1  0
  2  3  2  0
  3  4  1  0
  4  5  1  0
  5  6  2  0
  6  7  1  0
  7  8  2  0
  8  9  1  0
  9 10  2  0
  4 11  2  0
 11 12  1  0
 12 13  3  0
 11 14  1  0
 14 15  1  0
 15 16  1  0
 16 17  1  0
 17 18  2  0
 17 19  1  0
 19 20  1  0
 20 21  2  0
 21 22  1  0
 22 23  2  0
 23 24  1  0
 14 25  2  0
 25  2  1  0
 10  5  1  0
 24 20  1  0
M  END
>  <Binding energies>  (24) 
[-8.49]

>  <Ligand effiencies>  (24) 
[-0.32653846153846156]

>  <Interactions>  (24) 
["V-A:MET:535:CE:4833, V-B:ASP:366:CG:8184, V-A:TYR:531:CZ:4792, V-A:TYR:531:CE2:4791, H-A:TYR:539:OH:4876, V-A:ILE:538:CA:4858, V-A:TYR:539:CZ:4875, V-A:TYR:539:CE1:4873, H-B:TYR:531:OH:9767, V-A:TYR:539:CD1:4871, V-B:ILE:369:CD1:8210, V-A:ALA:541:CB:4890, V-A:TYR:539:C:4865, V-B:ILE:369:CG2:8208, V-B:ARG:545:CZ:9898, V-A:ILE:538:CB:4860, V-A:ILE:538:CG2:4861, H-B:TYR:484:OH:9319, H-B:ASP:366:OD1:8185, H-B:ASP:366:OD2:8186, H-B:GLY:454:N:9021, V-B:ILE:369:CB:8207, V-B:HIS:456:CE1:9040, H-B:ARG:545:NH1:9899, H-B:ARG:545:NH2:9900, H-B:ARG:545:NE:9896, V-B:ARG:545:CD:9895, V-B:ARG:545:CG:9894, V-B:ASP:366:CA:8181"]

$$$$
4ba_Grossjean_2025
     RDKit          3D

 28 30  0  0  0  0  0  0  0  0999 V2000
  126.2830  137.8460   60.6090 C   0  0  0  0  0  0  0  0  0  0  0  0
  125.9000  136.5500   61.3480 C   0  0  0  0  0  0  0  0  0  0  0  0
  127.0880  135.6530   61.7530 C   0  0  0  0  0  0  0  0  0  0  0  0
  128.0610  136.1540   62.3220 O   0  0  0  0  0  0  0  0  0  0  0  0
  126.9970  134.1890   61.4350 C   0  0  0  0  0  0  0  0  0  0  0  0
  128.1700  133.4660   61.1840 C   0  0  0  0  0  0  0  0  0  0  0  0
  128.1150  132.1080   60.8850 C   0  0  0  0  0  0  0  0  0  0  0  0
  126.8890  131.4430   60.8340 C   0  0  0  0  0  0  0  0  0  0  0  0
  126.9480  130.0730   60.5140 N   0  0  0  0  0  0  0  0  0  0  0  0
  126.8550  128.9850   61.3180 C   0  0  0  0  0  0  0  0  0  0  0  0
  126.7370  129.0380   62.5430 O   0  0  0  0  0  0  0  0  0  0  0  0
  126.9290  127.6930   60.6320 C   0  0  0  0  0  0  0  0  0  0  0  0
  126.5430  127.5770   58.9170 S   0  0  0  0  0  0  0  0  0  0  0  0
  126.8070  125.8500   58.9270 C   0  0  0  0  0  0  0  0  0  0  0  0
  126.6560  125.1180   57.8240 N   0  0  0  0  0  0  0  0  0  0  0  0
  126.8870  123.7920   57.9540 C   0  0  0  0  0  0  0  0  0  0  0  0
  126.7000  122.9760   56.6880 C   0  0  0  0  0  0  0  0  0  0  0  0
  127.2680  123.1860   59.1490 C   0  0  0  0  0  0  0  0  0  0  0  0
  127.4290  123.9520   60.3150 C   0  0  0  0  0  0  0  0  0  0  0  0
  127.8510  123.2410   61.6050 C   0  0  0  0  0  0  0  0  0  0  0  0
  128.2000  121.9680   61.4100 F   0  0  0  0  0  0  0  0  0  0  0  0
  128.9000  123.8640   62.1430 F   0  0  0  0  0  0  0  0  0  0  0  0
  126.8410  123.2500   62.4750 F   0  0  0  0  0  0  0  0  0  0  0  0
  127.1870  125.3550   60.2120 C   0  0  0  0  0  0  0  0  0  0  0  0
  127.2390  126.4330   61.1690 C   0  0  0  0  0  0  0  0  0  0  0  0
  127.5650  126.2360   62.4870 N   0  0  0  0  0  0  0  0  0  0  0  0
  125.7090  132.1610   61.0780 C   0  0  0  0  0  0  0  0  0  0  0  0
  125.7660  133.5200   61.3770 C   0  0  0  0  0  0  0  0  0  0  0  0
  1  2  1  0
  2  3  1  0
  3  4  2  0
  3  5  1  0
  5  6  2  0
  6  7  1  0
  7  8  2  0
  8  9  1  0
  9 10  1  0
 10 11  2  0
 10 12  1  0
 12 13  1  0
 13 14  1  0
 14 15  2  0
 15 16  1  0
 16 17  1  0
 16 18  2  0
 18 19  1  0
 19 20  1  0
 20 21  1  0
 20 22  1  0
 20 23  1  0
 19 24  2  0
 24 25  1  0
 25 26  1  0
  8 27  1  0
 27 28  2  0
 28  5  1  0
 25 12  2  0
 24 14  1  0
M  END
>  <Binding energies>  (25) 
[-6.08]

>  <Ligand effiencies>  (25) 
[-0.19612903225806452]

>  <Interactions>  (25) 
["V-B:ASP:366:CG:8184, V-B:ASP:366:CB:8183, V-A:TYR:539:CE1:4873, H-B:TYR:531:OH:9767, V-B:PRO:540:CA:9855, V-B:ALA:541:CB:9864, V-B:ALA:541:CA:9862, V-B:ALA:541:C:9860, V-B:PRO:540:N:9856, V-B:GLU:543:CD:9880, V-B:TYR:539:C:9839, V-B:PRO:540:C:9853, V-A:TYR:539:CD1:4871, V-A:ALA:541:CB:4890, V-A:TYR:539:C:4865, V-A:TYR:539:CG:4870, V-B:PRO:482:CG:9298, V-B:LEU:475:CD2:9230, V-B:LEU:373:CD1:8251, H-B:ARG:545:NH2:9900, H-B:GLU:543:OE1:9881, H-B:GLU:543:OE2:9882, V-A:TYR:539:CB:4869"]

$$$$
4bb_Grossjean_2025
     RDKit          3D

 27 29  0  0  0  0  0  0  0  0999 V2000
  133.3190  114.6560   61.5300 C   0  0  0  0  0  0  0  0  0  0  0  0
  133.3960  115.6910   60.4060 C   0  0  0  0  0  0  0  0  0  0  0  0
  134.1060  115.4380   59.4310 O   0  0  0  0  0  0  0  0  0  0  0  0
  132.6140  116.9620   60.5550 C   0  0  0  0  0  0  0  0  0  0  0  0
  133.2900  118.1880   60.5650 C   0  0  0  0  0  0  0  0  0  0  0  0
  132.5880  119.3820   60.7030 C   0  0  0  0  0  0  0  0  0  0  0  0
  131.1970  119.3740   60.8250 C   0  0  0  0  0  0  0  0  0  0  0  0
  130.5880  120.6370   60.9620 N   0  0  0  0  0  0  0  0  0  0  0  0
  130.9410  121.6950   61.7310 C   0  0  0  0  0  0  0  0  0  0  0  0
  131.9000  121.7010   62.5010 O   0  0  0  0  0  0  0  0  0  0  0  0
  130.0690  122.8680   61.6160 C   0  0  0  0  0  0  0  0  0  0  0  0
  130.3630  124.2920   62.6120 S   0  0  0  0  0  0  0  0  0  0  0  0
  128.9730  125.1100   61.9360 C   0  0  0  0  0  0  0  0  0  0  0  0
  128.6370  126.3410   62.3170 N   0  0  0  0  0  0  0  0  0  0  0  0
  127.5420  126.8680   61.7240 C   0  0  0  0  0  0  0  0  0  0  0  0
  127.1770  128.2720   62.1720 C   0  0  0  0  0  0  0  0  0  0  0  0
  126.7820  126.2000   60.7680 C   0  0  0  0  0  0  0  0  0  0  0  0
  127.1310  124.9030   60.3620 C   0  0  0  0  0  0  0  0  0  0  0  0
  126.2640  124.2080   59.3070 C   0  0  0  0  0  0  0  0  0  0  0  0
  125.3510  123.3910   59.8370 F   0  0  0  0  0  0  0  0  0  0  0  0
  125.6120  125.1210   58.5860 F   0  0  0  0  0  0  0  0  0  0  0  0
  127.0330  123.4770   58.5000 F   0  0  0  0  0  0  0  0  0  0  0  0
  128.2820  124.3160   60.9690 C   0  0  0  0  0  0  0  0  0  0  0  0
  128.9300  123.0380   60.8120 C   0  0  0  0  0  0  0  0  0  0  0  0
  128.4740  122.0780   59.9450 N   0  0  0  0  0  0  0  0  0  0  0  0
  130.5140  118.1480   60.8230 C   0  0  0  0  0  0  0  0  0  0  0  0
  131.2180  116.9550   60.6870 C   0  0  0  0  0  0  0  0  0  0  0  0
  1  2  1  0
  2  3  2  0
  2  4  1  0
  4  5  2  0
  5  6  1  0
  6  7  2  0
  7  8  1  0
  8  9  1  0
  9 10  2  0
  9 11  1  0
 11 12  1  0
 12 13  1  0
 13 14  2  0
 14 15  1  0
 15 16  1  0
 15 17  2  0
 17 18  1  0
 18 19  1  0
 19 20  1  0
 19 21  1  0
 19 22  1  0
 18 23  2  0
 23 24  1  0
 24 25  1  0
  7 26  1  0
 26 27  2  0
 27  4  1  0
 24 11  2  0
 23 13  1  0
M  END
>  <Binding energies>  (26) 
[-6.65]

>  <Ligand effiencies>  (26) 
[-0.22166666666666668]

>  <Interactions>  (26) 
["V-B:ASP:366:CG:8184, V-B:ASP:366:CB:8183, V-B:PRO:540:CA:9855, V-B:ALA:541:CB:9864, V-B:PRO:540:CB:9857, V-B:PRO:540:N:9856, V-A:LEU:475:CD2:4256, V-B:GLU:543:CD:9880, V-B:TYR:539:C:9839, V-B:TYR:539:CE1:9847, V-B:TYR:539:CD1:9845, V-B:PRO:540:C:9853, H-B:TYR:539:O:9840, V-A:PRO:482:CG:4324, V-A:SER:385:CB:3406, V-A:PRO:482:CB:4323, V-A:SER:385:CA:3404, V-B:TYR:539:CB:9843, V-A:HIS:383:CB:3386, V-A:LEU:373:CD1:3277, V-A:VAL:384:C:3394, V-A:THR:477:CA:4267, V-A:CYS:476:C:4261, V-A:THR:477:CG2:4270, V-A:THR:477:CB:4269, H-A:VAL:384:N:3397"]

$$$$
4bd_Grossjean_2025
     RDKit          3D

 24 26  0  0  0  0  0  0  0  0999 V2000
  132.1330  126.0060   64.9930 C   0  0  0  0  0  0  0  0  0  0  0  0
  131.7630  124.9150   64.0050 C   0  0  0  0  0  0  0  0  0  0  0  0
  130.5120  124.8910   63.3950 C   0  0  0  0  0  0  0  0  0  0  0  0
  130.1830  123.8750   62.4850 C   0  0  0  0  0  0  0  0  0  0  0  0
  128.7930  123.8890   61.8420 C   0  0  0  0  0  0  0  0  0  0  0  0
  128.0000  122.9130   62.2900 F   0  0  0  0  0  0  0  0  0  0  0  0
  128.1860  125.0460   62.1010 F   0  0  0  0  0  0  0  0  0  0  0  0
  128.9040  123.7360   60.5220 F   0  0  0  0  0  0  0  0  0  0  0  0
  131.1790  122.8880   62.2210 C   0  0  0  0  0  0  0  0  0  0  0  0
  131.2060  121.7240   61.3690 C   0  0  0  0  0  0  0  0  0  0  0  0
  130.1440  121.3570   60.5850 N   0  0  0  0  0  0  0  0  0  0  0  0
  132.4130  121.0060   61.4160 C   0  0  0  0  0  0  0  0  0  0  0  0
  132.7750  119.7790   60.7000 C   0  0  0  0  0  0  0  0  0  0  0  0
  133.8570  119.6860   60.1200 O   0  0  0  0  0  0  0  0  0  0  0  0
  131.8500  118.7870   60.7430 N   0  0  0  0  0  0  0  0  0  0  0  0
  131.8700  117.5190   60.1340 C   0  0  0  0  0  0  0  0  0  0  0  0
  133.0750  116.8160   60.2230 C   0  0  0  0  0  0  0  0  0  0  0  0
  133.1910  115.5480   59.6600 C   0  0  0  0  0  0  0  0  0  0  0  0
  132.0980  114.9760   59.0140 C   0  0  0  0  0  0  0  0  0  0  0  0
  130.8880  115.6610   58.9300 C   0  0  0  0  0  0  0  0  0  0  0  0
  130.7680  116.9300   59.4910 C   0  0  0  0  0  0  0  0  0  0  0  0
  133.5610  121.7600   62.5210 S   0  0  0  0  0  0  0  0  0  0  0  0
  132.4210  123.0260   62.9140 C   0  0  0  0  0  0  0  0  0  0  0  0
  132.7280  123.9940   63.7760 N   0  0  0  0  0  0  0  0  0  0  0  0
  1  2  1  0
  2  3  2  0
  3  4  1  0
  4  5  1  0
  5  6  1  0
  5  7  1  0
  5  8  1  0
  4  9  2  0
  9 10  1  0
 10 11  1  0
 10 12  2  0
 12 13  1  0
 13 14  2  0
 13 15  1  0
 15 16  1  0
 16 17  2  0
 17 18  1  0
 18 19  2  0
 19 20  1  0
 20 21  2  0
 12 22  1  0
 22 23  1  0
 23 24  2  0
 24  2  1  0
 23  9  1  0
 21 16  1  0
M  END
>  <Binding energies>  (27) 
[-6.74]

>  <Ligand effiencies>  (27) 
[-0.24962962962962965]

>  <Interactions>  (27) 
["V-B:ALA:541:CB:9864, V-B:ALA:541:CA:9862, V-A:LEU:475:CD2:4256, V-B:GLU:543:CD:9880, V-B:TYR:539:C:9839, V-B:TYR:539:CE1:9847, V-B:TYR:539:CD1:9845, V-B:TYR:539:CG:9844, V-A:ILE:369:CG2:3234, H-A:GLY:454:N:4047, V-A:GLY:454:CA:4046, H-A:TYR:484:OH:4345, V-A:ARG:545:CD:4921, V-A:ARG:545:CZ:4924, H-B:TYR:539:O:9840, V-A:PRO:482:CG:4324, V-A:SER:385:CB:3406, V-A:SER:385:CA:3404, V-B:TYR:539:CB:9843, V-A:HIS:383:CG:3387, V-A:LEU:373:CD2:3278, V-A:HIS:383:CB:3386, V-A:LEU:373:CD1:3277, V-B:VAL:344:CG1:7972, V-B:ILE:343:CD1:7965, V-A:HIS:383:CD2:3389, V-A:HIS:383:CE1:3391"]

$$$$
4be_Grossjean_2025
     RDKit          3D

 25 27  0  0  0  0  0  0  0  0999 V2000
  130.9030  114.9950   58.1330 C   0  0  0  0  0  0  0  0  0  0  0  0
  131.3210  115.6960   59.4110 C   0  0  0  0  0  0  0  0  0  0  0  0
  131.8710  114.9910   60.4850 C   0  0  0  0  0  0  0  0  0  0  0  0
  132.2310  115.7000   61.6310 C   0  0  0  0  0  0  0  0  0  0  0  0
  132.0340  117.0830   61.6760 C   0  0  0  0  0  0  0  0  0  0  0  0
  131.4850  117.7280   60.5630 C   0  0  0  0  0  0  0  0  0  0  0  0
  131.3070  119.1190   60.6740 N   0  0  0  0  0  0  0  0  0  0  0  0
  132.2280  120.0760   60.9470 C   0  0  0  0  0  0  0  0  0  0  0  0
  133.4230  119.8440   61.1410 O   0  0  0  0  0  0  0  0  0  0  0  0
  131.7090  121.4450   61.0250 C   0  0  0  0  0  0  0  0  0  0  0  0
  132.8210  122.8090   61.1250 S   0  0  0  0  0  0  0  0  0  0  0  0
  131.4930  123.9430   61.2110 C   0  0  0  0  0  0  0  0  0  0  0  0
  131.7060  125.2540   61.3050 N   0  0  0  0  0  0  0  0  0  0  0  0
  130.5990  126.0320   61.3620 C   0  0  0  0  0  0  0  0  0  0  0  0
  130.8620  127.5230   61.4720 C   0  0  0  0  0  0  0  0  0  0  0  0
  129.3000  125.5340   61.3250 C   0  0  0  0  0  0  0  0  0  0  0  0
  129.0700  124.1530   61.2250 C   0  0  0  0  0  0  0  0  0  0  0  0
  127.6230  123.6520   61.1850 C   0  0  0  0  0  0  0  0  0  0  0  0
  127.3620  122.8960   60.1150 F   0  0  0  0  0  0  0  0  0  0  0  0
  127.3710  122.9120   62.2640 F   0  0  0  0  0  0  0  0  0  0  0  0
  126.7860  124.6890   61.1560 F   0  0  0  0  0  0  0  0  0  0  0  0
  130.2160  123.3040   61.1670 C   0  0  0  0  0  0  0  0  0  0  0  0
  130.3730  121.8730   61.0710 C   0  0  0  0  0  0  0  0  0  0  0  0
  129.3070  121.0120   61.0240 N   0  0  0  0  0  0  0  0  0  0  0  0
  131.1260  117.0390   59.4400 N   0  0  0  0  0  0  0  0  0  0  0  0
  1  2  1  0
  2  3  2  0
  3  4  1  0
  4  5  2  0
  5  6  1  0
  6  7  1  0
  7  8  1  0
  8  9  2  0
  8 10  1  0
 10 11  1  0
 11 12  1  0
 12 13  2  0
 13 14  1  0
 14 15  1  0
 14 16  2  0
 16 17  1  0
 17 18  1  0
 18 19  1  0
 18 20  1  0
 18 21  1  0
 17 22  2  0
 22 23  1  0
 23 24  1  0
  6 25  2  0
 25  2  1  0
 23 10  2  0
 22 12  1  0
M  END
>  <Binding energies>  (28) 
[-6.9]

>  <Ligand effiencies>  (28) 
[-0.24642857142857144]

>  <Interactions>  (28) 
["V-B:PRO:540:CA:9855, V-B:ALA:541:CB:9864, V-B:ALA:541:CA:9862, V-B:ALA:541:C:9860, V-B:PRO:540:N:9856, V-A:LEU:475:CD2:4256, V-B:GLU:543:CD:9880, V-B:TYR:539:C:9839, V-B:TYR:539:CE1:9847, V-B:TYR:539:CD1:9845, V-B:PRO:540:C:9853, V-B:TYR:539:CG:9844, H-B:TYR:539:O:9840, V-A:PRO:482:CG:4324, V-A:SER:385:CB:3406, V-A:PRO:482:CB:4323, V-B:TYR:539:CB:9843, V-A:HIS:383:CG:3387, V-A:HIS:383:CB:3386, V-B:VAL:344:CG1:7972, V-A:LEU:475:CG:4254, V-B:ILE:343:CD1:7965, V-A:HIS:383:CD2:3389, V-A:HIS:383:CE1:3391, V-B:ILE:343:CG1:7964"]

$$$$
4bg_Grossjean_2025
     RDKit          3D

 25 27  0  0  0  0  0  0  0  0999 V2000
  124.1110  123.9520   56.8770 C   0  0  0  0  0  0  0  0  0  0  0  0
  125.0130  123.6880   58.0680 C   0  0  0  0  0  0  0  0  0  0  0  0
  124.5510  123.8580   59.3700 C   0  0  0  0  0  0  0  0  0  0  0  0
  125.3980  123.6160   60.4640 C   0  0  0  0  0  0  0  0  0  0  0  0
  124.8450  123.8180   61.8780 C   0  0  0  0  0  0  0  0  0  0  0  0
  125.7320  124.3650   62.7120 F   0  0  0  0  0  0  0  0  0  0  0  0
  123.7850  124.6250   61.8360 F   0  0  0  0  0  0  0  0  0  0  0  0
  124.4830  122.6430   62.3940 F   0  0  0  0  0  0  0  0  0  0  0  0
  126.7300  123.1930   60.1750 C   0  0  0  0  0  0  0  0  0  0  0  0
  127.8580  122.8640   61.0110 C   0  0  0  0  0  0  0  0  0  0  0  0
  127.8120  122.9300   62.3810 N   0  0  0  0  0  0  0  0  0  0  0  0
  129.0000  122.4650   60.3000 C   0  0  0  0  0  0  0  0  0  0  0  0
  130.3160  122.0940   60.8200 C   0  0  0  0  0  0  0  0  0  0  0  0
  131.0340  122.9140   61.3960 O   0  0  0  0  0  0  0  0  0  0  0  0
  130.6690  120.8010   60.6650 N   0  0  0  0  0  0  0  0  0  0  0  0
  131.9380  120.2110   61.0920 C   0  0  0  0  0  0  0  0  0  0  0  0
  132.0780  118.7390   60.7290 C   0  0  0  0  0  0  0  0  0  0  0  0
  130.9390  117.9580   60.5100 C   0  0  0  0  0  0  0  0  0  0  0  0
  131.0710  116.6230   60.1410 C   0  0  0  0  0  0  0  0  0  0  0  0
  132.3410  116.0740   59.9770 C   0  0  0  0  0  0  0  0  0  0  0  0
  133.4800  116.8500   60.1770 C   0  0  0  0  0  0  0  0  0  0  0  0
  133.3490  118.1860   60.5480 C   0  0  0  0  0  0  0  0  0  0  0  0
  128.7240  122.5200   58.5610 S   0  0  0  0  0  0  0  0  0  0  0  0
  127.0750  123.0500   58.7960 C   0  0  0  0  0  0  0  0  0  0  0  0
  126.2670  123.2840   57.7620 N   0  0  0  0  0  0  0  0  0  0  0  0
  1  2  1  0
  2  3  2  0
  3  4  1  0
  4  5  1  0
  5  6  1  0
  5  7  1  0
  5  8  1  0
  4  9  2  0
  9 10  1  0
 10 11  1  0
 10 12  2  0
 12 13  1  0
 13 14  2  0
 13 15  1  0
 15 16  1  0
 16 17  1  0
 17 18  2  0
 18 19  1  0
 19 20  2  0
 20 21  1  0
 21 22  2  0
 12 23  1  0
 23 24  1  0
 24 25  2  0
 25  2  1  0
 24  9  1  0
 22 17  1  0
M  END
>  <Binding energies>  (29) 
[-7.48]

>  <Ligand effiencies>  (29) 
[-0.2671428571428572]

>  <Interactions>  (29) 
["V-B:ASP:366:CG:8184, V-B:PRO:540:CA:9855, V-B:ALA:541:CB:9864, V-B:LEU:363:CA:8156, V-B:PRO:540:CB:9857, V-B:ALA:541:CA:9862, V-B:LEU:363:CD1:8160, V-B:ALA:541:C:9860, V-B:ASN:362:CB:8147, V-B:ASN:362:C:8143, V-B:PRO:540:N:9856, V-A:LEU:475:CD2:4256, V-B:GLU:543:CD:9880, V-B:TYR:539:C:9839, V-B:TYR:539:CE1:9847, V-B:TYR:539:CD1:9845, V-B:PRO:540:C:9853, V-B:TYR:539:CG:9844, V-B:TYR:539:CZ:9849, V-B:TYR:531:CE2:9765, V-B:ARG:545:CZ:9898, V-B:TYR:531:CZ:9766, H-B:TYR:539:O:9840, V-A:PRO:482:CG:4324, V-A:SER:385:CB:3406, V-A:PRO:482:CB:4323, V-A:SER:385:CA:3404, V-B:TYR:539:CB:9843, V-A:LEU:373:CD1:3277, H-B:ALA:541:O:9861, H-B:GLU:543:OE1:9881, V-A:VAL:384:C:3394, V-B:VAL:344:CG1:7972, V-B:ASN:362:CA:8145, V-B:ASN:362:CG:8148"]

$$$$
4ca_Grossjean_2025
     RDKit          3D

 34 37  0  0  0  0  0  0  0  0999 V2000
  124.1460  134.5070   61.7070 C   0  0  0  0  0  0  0  0  0  0  0  0
  124.1820  132.9750   61.7180 C   0  0  0  0  0  0  0  0  0  0  0  0
  125.0180  132.5140   60.6650 O   0  0  0  0  0  0  0  0  0  0  0  0
  124.6490  131.4670   59.8820 C   0  0  0  0  0  0  0  0  0  0  0  0
  123.7950  131.5510   58.9930 O   0  0  0  0  0  0  0  0  0  0  0  0
  125.3840  130.1990   60.2040 C   0  0  0  0  0  0  0  0  0  0  0  0
  125.8800  129.4120   59.1560 C   0  0  0  0  0  0  0  0  0  0  0  0
  126.5700  128.2320   59.4230 C   0  0  0  0  0  0  0  0  0  0  0  0
  126.7710  127.8120   60.7370 C   0  0  0  0  0  0  0  0  0  0  0  0
  127.4890  126.6100   60.8920 N   0  0  0  0  0  0  0  0  0  0  0  0
  127.0520  125.3670   61.2120 C   0  0  0  0  0  0  0  0  0  0  0  0
  125.8680  125.0740   61.3820 O   0  0  0  0  0  0  0  0  0  0  0  0
  128.0970  124.3480   61.3320 C   0  0  0  0  0  0  0  0  0  0  0  0
  127.9050  122.7850   60.5410 S   0  0  0  0  0  0  0  0  0  0  0  0
  129.4730  122.2570   61.1030 C   0  0  0  0  0  0  0  0  0  0  0  0
  129.9470  121.0510   60.8040 N   0  0  0  0  0  0  0  0  0  0  0  0
  131.1810  120.7340   61.2730 C   0  0  0  0  0  0  0  0  0  0  0  0
  131.6930  119.3700   60.9100 C   0  0  0  0  0  0  0  0  0  0  0  0
  130.8270  118.2650   60.8670 C   0  0  0  0  0  0  0  0  0  0  0  0
  131.2960  116.9970   60.5360 C   0  0  0  0  0  0  0  0  0  0  0  0
  132.6430  116.8130   60.2440 C   0  0  0  0  0  0  0  0  0  0  0  0
  133.5240  117.8890   60.2820 C   0  0  0  0  0  0  0  0  0  0  0  0
  133.0510  119.1560   60.6130 C   0  0  0  0  0  0  0  0  0  0  0  0
  131.9230  121.6220   62.0600 C   0  0  0  0  0  0  0  0  0  0  0  0
  131.4300  122.8950   62.3850 C   0  0  0  0  0  0  0  0  0  0  0  0
  132.2970  123.8190   63.2480 C   0  0  0  0  0  0  0  0  0  0  0  0
  132.5440  124.9950   62.6700 F   0  0  0  0  0  0  0  0  0  0  0  0
  131.6830  124.0640   64.4050 F   0  0  0  0  0  0  0  0  0  0  0  0
  133.4730  123.2390   63.4890 F   0  0  0  0  0  0  0  0  0  0  0  0
  130.1440  123.2440   61.8830 C   0  0  0  0  0  0  0  0  0  0  0  0
  129.3330  124.4320   61.9950 C   0  0  0  0  0  0  0  0  0  0  0  0
  129.7370  125.5420   62.6920 N   0  0  0  0  0  0  0  0  0  0  0  0
  126.2830  128.5960   61.7930 C   0  0  0  0  0  0  0  0  0  0  0  0
  125.5950  129.7770   61.5250 C   0  0  0  0  0  0  0  0  0  0  0  0
  1  2  1  0
  2  3  1  0
  3  4  1  0
  4  5  2  0
  4  6  1  0
  6  7  2  0
  7  8  1  0
  8  9  2  0
  9 10  1  0
 10 11  1  0
 11 12  2  0
 11 13  1  0
 13 14  1  0
 14 15  1  0
 15 16  2  0
 16 17  1  0
 17 18  1  0
 18 19  2  0
 19 20  1  0
 20 21  2  0
 21 22  1  0
 22 23  2  0
 17 24  2  0
 24 25  1  0
 25 26  1  0
 26 27  1  0
 26 28  1  0
 26 29  1  0
 25 30  2  0
 30 31  1  0
 31 32  1  0
  9 33  1  0
 33 34  2  0
 34  6  1  0
 31 13  2  0
 30 15  1  0
 23 18  1  0
M  END
>  <Binding energies>  (30) 
[-7.48]

>  <Ligand effiencies>  (30) 
[-0.20216216216216218]

>  <Interactions>  (30) 
["V-B:ASP:366:CG:8184, H-A:TYR:539:OH:4876, V-A:TYR:539:CZ:4875, V-B:ASP:366:CB:8183, V-A:TYR:539:CE1:4873, V-B:PRO:540:CA:9855, V-B:ALA:541:CB:9864, V-A:LEU:475:CD2:4256, V-B:GLU:543:CD:9880, V-B:TYR:539:C:9839, V-B:TYR:539:CE1:9847, V-B:TYR:539:CD1:9845, V-B:PRO:540:C:9853, V-B:ILE:369:CD1:8210, V-B:ILE:369:CG2:8208, V-A:ILE:369:CG2:3234, V-B:SER:385:CA:8378, V-B:LEU:475:CD2:9230, V-A:GLY:454:CA:4046, V-A:ARG:545:CZ:4924, H-A:GLU:543:OE2:4908, H-B:ARG:545:NH2:9900, V-A:PRO:482:CG:4324, V-A:SER:385:CB:3406, V-A:PRO:482:CB:4323, V-A:SER:385:CA:3404, V-B:TYR:539:CB:9843, V-A:LEU:373:CD1:3277, V-A:GLY:453:C:4039, H-B:GLU:543:OE1:9881, H-B:GLU:543:OE2:9882, V-A:VAL:384:C:3394, V-B:SER:385:C:8376"]

$$$$
4cb_Grossjean_2025
     RDKit          3D

 33 36  0  0  0  0  0  0  0  0999 V2000
  124.0850  132.8540   61.7570 C   0  0  0  0  0  0  0  0  0  0  0  0
  124.9230  132.4720   60.6750 O   0  0  0  0  0  0  0  0  0  0  0  0
  124.5950  131.4280   59.8720 C   0  0  0  0  0  0  0  0  0  0  0  0
  123.7650  131.5040   58.9610 O   0  0  0  0  0  0  0  0  0  0  0  0
  125.3450  130.1680   60.2010 C   0  0  0  0  0  0  0  0  0  0  0  0
  125.6870  129.2870   59.1670 C   0  0  0  0  0  0  0  0  0  0  0  0
  126.3890  128.1160   59.4390 C   0  0  0  0  0  0  0  0  0  0  0  0
  126.7550  127.7980   60.7470 C   0  0  0  0  0  0  0  0  0  0  0  0
  127.4740  126.5970   60.9050 N   0  0  0  0  0  0  0  0  0  0  0  0
  127.0360  125.3520   61.2150 C   0  0  0  0  0  0  0  0  0  0  0  0
  125.8510  125.0540   61.3700 O   0  0  0  0  0  0  0  0  0  0  0  0
  128.0830  124.3340   61.3410 C   0  0  0  0  0  0  0  0  0  0  0  0
  127.9060  122.7760   60.5370 S   0  0  0  0  0  0  0  0  0  0  0  0
  129.4690  122.2480   61.1170 C   0  0  0  0  0  0  0  0  0  0  0  0
  129.9510  121.0450   60.8170 N   0  0  0  0  0  0  0  0  0  0  0  0
  131.1780  120.7280   61.3050 C   0  0  0  0  0  0  0  0  0  0  0  0
  131.6970  119.3650   60.9460 C   0  0  0  0  0  0  0  0  0  0  0  0
  130.8480  118.2480   60.9560 C   0  0  0  0  0  0  0  0  0  0  0  0
  131.3230  116.9810   60.6270 C   0  0  0  0  0  0  0  0  0  0  0  0
  132.6610  116.8130   60.2840 C   0  0  0  0  0  0  0  0  0  0  0  0
  133.5250  117.9040   60.2690 C   0  0  0  0  0  0  0  0  0  0  0  0
  133.0450  119.1670   60.5990 C   0  0  0  0  0  0  0  0  0  0  0  0
  131.9050  121.6130   62.1080 C   0  0  0  0  0  0  0  0  0  0  0  0
  131.4050  122.8830   62.4320 C   0  0  0  0  0  0  0  0  0  0  0  0
  132.2550  123.8040   63.3160 C   0  0  0  0  0  0  0  0  0  0  0  0
  132.5210  124.9790   62.7410 F   0  0  0  0  0  0  0  0  0  0  0  0
  131.6110  124.0550   64.4550 F   0  0  0  0  0  0  0  0  0  0  0  0
  133.4210  123.2190   63.5880 F   0  0  0  0  0  0  0  0  0  0  0  0
  130.1250  123.2320   61.9130 C   0  0  0  0  0  0  0  0  0  0  0  0
  129.3100  124.4180   62.0190 C   0  0  0  0  0  0  0  0  0  0  0  0
  129.7050  125.5260   62.7240 N   0  0  0  0  0  0  0  0  0  0  0  0
  126.4190  128.6760   61.7870 C   0  0  0  0  0  0  0  0  0  0  0  0
  125.7190  129.8480   61.5140 C   0  0  0  0  0  0  0  0  0  0  0  0
  1  2  1  0
  2  3  1  0
  3  4  2  0
  3  5  1  0
  5  6  2  0
  6  7  1  0
  7  8  2  0
  8  9  1  0
  9 10  1  0
 10 11  2  0
 10 12  1  0
 12 13  1  0
 13 14  1  0
 14 15  2  0
 15 16  1  0
 16 17  1  0
 17 18  2  0
 18 19  1  0
 19 20  2  0
 20 21  1  0
 21 22  2  0
 16 23  2  0
 23 24  1  0
 24 25  1  0
 25 26  1  0
 25 27  1  0
 25 28  1  0
 24 29  2  0
 29 30  1  0
 30 31  1  0
  8 32  1  0
 32 33  2  0
 33  5  1  0
 30 12  2  0
 29 14  1  0
 22 17  1  0
M  END
>  <Binding energies>  (31) 
[-7.27]

>  <Ligand effiencies>  (31) 
[-0.20194444444444443]

>  <Interactions>  (31) 
["V-B:ASP:366:CG:8184, H-A:TYR:539:OH:4876, V-A:TYR:539:CZ:4875, V-B:ASP:366:CB:8183, V-A:TYR:539:CE1:4873, V-B:PRO:540:CA:9855, V-B:ALA:541:CB:9864, V-B:PRO:540:N:9856, V-A:LEU:475:CD2:4256, V-B:GLU:543:CD:9880, V-B:TYR:539:C:9839, V-B:TYR:539:CE1:9847, V-B:TYR:539:CD1:9845, V-B:PRO:540:C:9853, V-B:ILE:369:CD1:8210, V-B:ILE:369:CG2:8208, V-A:ILE:369:CG2:3234, V-A:GLY:454:CA:4046, V-A:TYR:484:CZ:4344, V-A:ARG:545:CZ:4924, H-A:GLU:543:OE2:4908, H-B:ARG:545:NH2:9900, V-A:PRO:482:CG:4324, V-A:SER:385:CB:3406, V-A:PRO:482:CB:4323, V-A:SER:385:CA:3404, V-A:LEU:373:CD1:3277, V-A:GLY:453:C:4039, H-B:GLU:543:OE1:9881, H-B:GLU:543:OE2:9882, V-A:VAL:384:C:3394"]

$$$$
4cc_Grossjean_2025
     RDKit          3D

 31 34  0  0  0  0  0  0  0  0999 V2000
  133.8380  121.8100   61.7640 C   0  0  0  0  0  0  0  0  0  0  0  0
  133.8990  122.6970   62.8760 O   0  0  0  0  0  0  0  0  0  0  0  0
  133.0230  123.7630   62.9370 C   0  0  0  0  0  0  0  0  0  0  0  0
  133.0420  124.6460   61.8570 C   0  0  0  0  0  0  0  0  0  0  0  0
  132.1940  125.7500   61.8280 C   0  0  0  0  0  0  0  0  0  0  0  0
  131.3190  125.9920   62.8890 C   0  0  0  0  0  0  0  0  0  0  0  0
  130.4900  127.1220   62.7650 N   0  0  0  0  0  0  0  0  0  0  0  0
  130.0710  127.7590   61.6440 C   0  0  0  0  0  0  0  0  0  0  0  0
  130.3460  127.3910   60.5010 O   0  0  0  0  0  0  0  0  0  0  0  0
  129.2450  128.9490   61.8680 C   0  0  0  0  0  0  0  0  0  0  0  0
  129.4780  130.3900   60.8800 S   0  0  0  0  0  0  0  0  0  0  0  0
  128.2020  131.2320   61.7290 C   0  0  0  0  0  0  0  0  0  0  0  0
  127.8660  132.4800   61.4140 N   0  0  0  0  0  0  0  0  0  0  0  0
  126.8560  133.0490   62.1230 C   0  0  0  0  0  0  0  0  0  0  0  0
  126.5000  134.4580   61.7480 C   0  0  0  0  0  0  0  0  0  0  0  0
  125.1900  134.7910   61.3680 C   0  0  0  0  0  0  0  0  0  0  0  0
  124.8530  136.0960   61.0180 C   0  0  0  0  0  0  0  0  0  0  0  0
  125.8260  137.0900   61.0410 C   0  0  0  0  0  0  0  0  0  0  0  0
  127.1320  136.7870   61.4110 C   0  0  0  0  0  0  0  0  0  0  0  0
  127.4650  135.4800   61.7590 C   0  0  0  0  0  0  0  0  0  0  0  0
  126.2010  132.3670   63.1530 C   0  0  0  0  0  0  0  0  0  0  0  0
  126.5500  131.0500   63.4940 C   0  0  0  0  0  0  0  0  0  0  0  0
  125.7860  130.3600   64.6300 C   0  0  0  0  0  0  0  0  0  0  0  0
  126.5690  130.0180   65.6570 F   0  0  0  0  0  0  0  0  0  0  0  0
  124.8450  131.1780   65.1020 F   0  0  0  0  0  0  0  0  0  0  0  0
  125.2130  129.2460   64.1770 F   0  0  0  0  0  0  0  0  0  0  0  0
  127.6010  130.4410   62.7510 C   0  0  0  0  0  0  0  0  0  0  0  0
  128.2220  129.1400   62.8100 C   0  0  0  0  0  0  0  0  0  0  0  0
  127.8400  128.1770   63.7090 N   0  0  0  0  0  0  0  0  0  0  0  0
  131.2860  125.1020   63.9730 C   0  0  0  0  0  0  0  0  0  0  0  0
  132.1350  123.9990   63.9970 C   0  0  0  0  0  0  0  0  0  0  0  0
  1  2  1  0
  2  3  1  0
  3  4  2  0
  4  5  1  0
  5  6  2  0
  6  7  1  0
  7  8  1  0
  8  9  2  0
  8 10  1  0
 10 11  1  0
 11 12  1  0
 12 13  2  0
 13 14  1  0
 14 15  1  0
 15 16  2  0
 16 17  1  0
 17 18  2  0
 18 19  1  0
 19 20  2  0
 14 21  2  0
 21 22  1  0
 22 23  1  0
 23 24  1  0
 23 25  1  0
 23 26  1  0
 22 27  2  0
 27 28  1  0
 28 29  1  0
  6 30  1  0
 30 31  2  0
 31  3  1  0
 28 10  2  0
 27 12  1  0
 20 15  1  0
M  END
>  <Binding energies>  (32) 
[-7.48]

>  <Ligand effiencies>  (32) 
[-0.22]

>  <Interactions>  (32) 
["V-A:ASP:366:CG:3210, V-A:TYR:539:CE1:4873, V-A:LEU:475:CD2:4256, V-B:GLU:543:CD:9880, V-A:TYR:539:CD1:4871, V-A:ALA:541:CB:4890, V-B:ILE:369:CG2:8208, V-A:ILE:369:CD1:3236, V-A:ILE:369:CG2:3234, V-B:ARG:545:CZ:9898, V-B:PRO:482:CB:9297, V-B:SER:385:CA:8378, V-B:PRO:482:CG:9298, V-B:LEU:475:CD2:9230, V-B:LEU:373:CD1:8251, V-B:GLY:453:C:9013, V-B:GLY:454:CA:9020, H-A:GLY:454:N:4047, V-A:GLY:454:CA:4046, V-A:ARG:545:CZ:4924, V-A:GLU:543:CD:4906, H-A:GLU:543:OE2:4908, H-A:GLU:543:OE1:4907, V-B:TYR:484:CZ:9318, H-B:GLU:543:OE1:9881, H-B:GLU:543:OE2:9882, V-A:TYR:539:CB:4869"]

$$$$
4ce_Grossjean_2025
     RDKit          3D

 30 33  0  0  0  0  0  0  0  0999 V2000
  133.7500  124.0330   60.8810 C   0  0  0  0  0  0  0  0  0  0  0  0
  132.9280  124.4750   62.0780 C   0  0  0  0  0  0  0  0  0  0  0  0
  132.9910  123.7950   63.2980 C   0  0  0  0  0  0  0  0  0  0  0  0
  132.2140  124.2630   64.3580 C   0  0  0  0  0  0  0  0  0  0  0  0
  131.4040  125.3860   64.1770 C   0  0  0  0  0  0  0  0  0  0  0  0
  131.3850  126.0160   62.9270 C   0  0  0  0  0  0  0  0  0  0  0  0
  130.5680  127.1550   62.8150 N   0  0  0  0  0  0  0  0  0  0  0  0
  130.1650  127.8030   61.6930 C   0  0  0  0  0  0  0  0  0  0  0  0
  130.4670  127.4490   60.5520 O   0  0  0  0  0  0  0  0  0  0  0  0
  129.3260  128.9830   61.9140 C   0  0  0  0  0  0  0  0  0  0  0  0
  129.5970  130.4520   60.9790 S   0  0  0  0  0  0  0  0  0  0  0  0
  128.2620  131.2550   61.7700 C   0  0  0  0  0  0  0  0  0  0  0  0
  127.9250  132.5050   61.4640 N   0  0  0  0  0  0  0  0  0  0  0  0
  126.8620  133.0400   62.1220 C   0  0  0  0  0  0  0  0  0  0  0  0
  126.5050  134.4490   61.7500 C   0  0  0  0  0  0  0  0  0  0  0  0
  125.1910  134.7810   61.3810 C   0  0  0  0  0  0  0  0  0  0  0  0
  124.8540  136.0860   61.0280 C   0  0  0  0  0  0  0  0  0  0  0  0
  125.8280  137.0780   61.0420 C   0  0  0  0  0  0  0  0  0  0  0  0
  127.1360  136.7760   61.4030 C   0  0  0  0  0  0  0  0  0  0  0  0
  127.4700  135.4700   61.7530 C   0  0  0  0  0  0  0  0  0  0  0  0
  126.1580  132.3250   63.0960 C   0  0  0  0  0  0  0  0  0  0  0  0
  126.5090  131.0070   63.4300 C   0  0  0  0  0  0  0  0  0  0  0  0
  125.6940  130.2820   64.5050 C   0  0  0  0  0  0  0  0  0  0  0  0
  124.9760  129.2660   64.0220 F   0  0  0  0  0  0  0  0  0  0  0  0
  126.5140  129.7850   65.4330 F   0  0  0  0  0  0  0  0  0  0  0  0
  124.8460  131.1330   65.0800 F   0  0  0  0  0  0  0  0  0  0  0  0
  127.6120  130.4310   62.7360 C   0  0  0  0  0  0  0  0  0  0  0  0
  128.2440  129.1360   62.7980 C   0  0  0  0  0  0  0  0  0  0  0  0
  127.8220  128.1440   63.6450 N   0  0  0  0  0  0  0  0  0  0  0  0
  132.1450  125.5670   61.8860 N   0  0  0  0  0  0  0  0  0  0  0  0
  1  2  1  0
  2  3  2  0
  3  4  1  0
  4  5  2  0
  5  6  1  0
  6  7  1  0
  7  8  1  0
  8  9  2  0
  8 10  1  0
 10 11  1  0
 11 12  1  0
 12 13  2  0
 13 14  1  0
 14 15  1  0
 15 16  2  0
 16 17  1  0
 17 18  2  0
 18 19  1  0
 19 20  2  0
 14 21  2  0
 21 22  1  0
 22 23  1  0
 23 24  1  0
 23 25  1  0
 23 26  1  0
 22 27  2  0
 27 28  1  0
 28 29  1  0
  6 30  2  0
 30  2  1  0
 28 10  2  0
 27 12  1  0
 20 15  1  0
M  END
>  <Binding energies>  (33) 
[-7.74]

>  <Ligand effiencies>  (33) 
[-0.23454545454545456]

>  <Interactions>  (33) 
["V-A:TYR:539:CE1:4873, V-B:GLU:543:CD:9880, V-A:TYR:539:CD1:4871, V-A:ALA:541:CB:4890, V-B:ILE:369:CG2:8208, V-A:ILE:369:CD1:3236, V-B:ARG:545:CZ:9898, V-B:PRO:482:CB:9297, V-B:SER:385:CA:8378, V-B:PRO:482:CG:9298, V-B:LEU:475:CD2:9230, V-B:LEU:373:CD1:8251, V-B:GLY:453:C:9013, V-B:GLY:454:CA:9020, V-A:GLY:454:CA:4046, H-A:ARG:545:NH2:4926, V-A:ARG:545:CZ:4924, V-A:GLU:543:CD:4906, H-A:GLU:543:OE2:4908, H-A:GLU:543:OE1:4907, V-B:TYR:484:CZ:9318, H-B:GLU:543:OE1:9881, H-B:GLU:543:OE2:9882, V-A:TYR:539:CB:4869"]

$$$$
4cf_Grossjean_2025
     RDKit          3D

 29 32  0  0  0  0  0  0  0  0999 V2000
  128.1910  128.0890   63.6880 N   0  0  0  0  0  0  0  0  0  0  0  0
  128.5320  129.0690   62.7920 C   0  0  0  0  0  0  0  0  0  0  0  0
  129.5720  128.9310   61.8590 C   0  0  0  0  0  0  0  0  0  0  0  0
  130.4880  127.8020   61.6720 C   0  0  0  0  0  0  0  0  0  0  0  0
  130.9950  127.5820   60.5700 O   0  0  0  0  0  0  0  0  0  0  0  0
  130.7270  127.0580   62.7790 N   0  0  0  0  0  0  0  0  0  0  0  0
  131.5050  125.8940   62.9280 C   0  0  0  0  0  0  0  0  0  0  0  0
  131.5120  124.7980   62.0450 C   0  0  0  0  0  0  0  0  0  0  0  0
  132.3230  123.6950   62.3210 C   0  0  0  0  0  0  0  0  0  0  0  0
  133.1080  123.7140   63.4740 C   0  0  0  0  0  0  0  0  0  0  0  0
  133.1140  124.7540   64.3450 N   0  0  0  0  0  0  0  0  0  0  0  0
  132.3180  125.8190   64.0640 C   0  0  0  0  0  0  0  0  0  0  0  0
  129.7310  130.3770   60.8640 S   0  0  0  0  0  0  0  0  0  0  0  0
  128.4130  131.1560   61.7070 C   0  0  0  0  0  0  0  0  0  0  0  0
  128.0180  132.3880   61.3920 N   0  0  0  0  0  0  0  0  0  0  0  0
  126.9950  132.9160   62.1150 C   0  0  0  0  0  0  0  0  0  0  0  0
  126.5770  134.3080   61.7430 C   0  0  0  0  0  0  0  0  0  0  0  0
  127.5040  135.3620   61.7510 C   0  0  0  0  0  0  0  0  0  0  0  0
  127.1240  136.6570   61.4060 C   0  0  0  0  0  0  0  0  0  0  0  0
  125.8060  136.9150   61.0440 C   0  0  0  0  0  0  0  0  0  0  0  0
  124.8670  135.8890   61.0250 C   0  0  0  0  0  0  0  0  0  0  0  0
  125.2520  134.5960   61.3700 C   0  0  0  0  0  0  0  0  0  0  0  0
  126.3600  132.1960   63.1320 C   0  0  0  0  0  0  0  0  0  0  0  0
  126.7660  130.8960   63.4680 C   0  0  0  0  0  0  0  0  0  0  0  0
  126.0290  130.1660   64.5980 C   0  0  0  0  0  0  0  0  0  0  0  0
  124.9310  130.8060   65.0070 F   0  0  0  0  0  0  0  0  0  0  0  0
  125.6530  128.9560   64.1830 F   0  0  0  0  0  0  0  0  0  0  0  0
  126.8320  130.0390   65.6540 F   0  0  0  0  0  0  0  0  0  0  0  0
  127.8490  130.3380   62.7290 C   0  0  0  0  0  0  0  0  0  0  0  0
  1  2  1  0
  2  3  2  0
  3  4  1  0
  4  5  2  0
  4  6  1  0
  6  7  1  0
  7  8  2  0
  8  9  1  0
  9 10  2  0
 10 11  1  0
 11 12  2  0
  3 13  1  0
 13 14  1  0
 14 15  2  0
 15 16  1  0
 16 17  1  0
 17 18  2  0
 18 19  1  0
 19 20  2  0
 20 21  1  0
 21 22  2  0
 16 23  2  0
 23 24  1  0
 24 25  1  0
 25 26  1  0
 25 27  1  0
 25 28  1  0
 24 29  2  0
 29  2  1  0
 12  7  1  0
 29 14  1  0
 22 17  1  0
M  END
>  <Binding energies>  (34) 
[-7.56]

>  <Ligand effiencies>  (34) 
[-0.23625]

>  <Interactions>  (34) 
["V-A:TYR:539:CE1:4873, V-B:GLU:543:CD:9880, V-A:TYR:539:CD1:4871, V-A:ALA:541:CB:4890, V-B:ILE:369:CG2:8208, V-B:ARG:545:CZ:9898, V-B:PRO:482:CB:9297, V-B:SER:385:CA:8378, V-B:PRO:482:CG:9298, V-B:LEU:475:CD2:9230, V-B:LEU:373:CD1:8251, V-B:GLY:454:CA:9020, H-A:GLY:454:N:4047, V-A:GLY:454:CA:4046, H-A:TYR:484:OH:4345, H-A:ARG:545:NH2:4926, V-A:ARG:545:CZ:4924, V-A:GLU:543:CD:4906, H-A:GLU:543:OE2:4908, H-A:GLU:543:OE1:4907, V-B:TYR:484:CZ:9318, H-B:GLU:543:OE1:9881, H-B:GLU:543:OE2:9882, V-A:TYR:539:CB:4869"]

$$$$
4ci_Grossjean_2025
     RDKit          3D

 28 31  0  0  0  0  0  0  0  0999 V2000
  132.5500  125.7960   62.0020 N   0  0  0  0  0  0  0  0  0  0  0  0
  132.0190  124.6160   62.4530 C   0  0  0  0  0  0  0  0  0  0  0  0
  131.2150  124.5220   63.6010 C   0  0  0  0  0  0  0  0  0  0  0  0
  130.7840  125.5920   64.5030 C   0  0  0  0  0  0  0  0  0  0  0  0
  130.1650  126.5680   64.0710 O   0  0  0  0  0  0  0  0  0  0  0  0
  131.1230  125.4300   65.8070 N   0  0  0  0  0  0  0  0  0  0  0  0
  130.8470  126.2850   66.8660 C   0  0  0  0  0  0  0  0  0  0  0  0
  129.6160  126.3160   67.5200 C   0  0  0  0  0  0  0  0  0  0  0  0
  129.7490  127.2820   68.4890 C   0  0  0  0  0  0  0  0  0  0  0  0
  130.9970  127.8060   68.4240 O   0  0  0  0  0  0  0  0  0  0  0  0
  131.6820  127.1660   67.3900 N   0  0  0  0  0  0  0  0  0  0  0  0
  130.6980  122.8610   63.8820 S   0  0  0  0  0  0  0  0  0  0  0  0
  131.5660  122.3040   62.4700 C   0  0  0  0  0  0  0  0  0  0  0  0
  131.5640  121.0220   62.1130 N   0  0  0  0  0  0  0  0  0  0  0  0
  132.2640  120.6840   61.0000 C   0  0  0  0  0  0  0  0  0  0  0  0
  132.2460  119.2300   60.6260 C   0  0  0  0  0  0  0  0  0  0  0  0
  131.0440  118.5040   60.6120 C   0  0  0  0  0  0  0  0  0  0  0  0
  131.0210  117.1550   60.2650 C   0  0  0  0  0  0  0  0  0  0  0  0
  132.2060  116.5100   59.9270 C   0  0  0  0  0  0  0  0  0  0  0  0
  133.4110  117.2030   59.9360 C   0  0  0  0  0  0  0  0  0  0  0  0
  133.4290  118.5510   60.2850 C   0  0  0  0  0  0  0  0  0  0  0  0
  132.9770  121.6340   60.2610 C   0  0  0  0  0  0  0  0  0  0  0  0
  132.9860  122.9890   60.6280 C   0  0  0  0  0  0  0  0  0  0  0  0
  133.7890  123.9760   59.7720 C   0  0  0  0  0  0  0  0  0  0  0  0
  134.2030  123.4510   58.6170 F   0  0  0  0  0  0  0  0  0  0  0  0
  133.0340  125.0350   59.4800 F   0  0  0  0  0  0  0  0  0  0  0  0
  134.8700  124.3770   60.4400 F   0  0  0  0  0  0  0  0  0  0  0  0
  132.2440  123.3550   61.7870 C   0  0  0  0  0  0  0  0  0  0  0  0
  1  2  1  0
  2  3  2  0
  3  4  1  0
  4  5  2  0
  4  6  1  0
  6  7  1  0
  7  8  1  0
  8  9  2  0
  9 10  1  0
 10 11  1  0
  3 12  1  0
 12 13  1  0
 13 14  2  0
 14 15  1  0
 15 16  1  0
 16 17  2  0
 17 18  1  0
 18 19  2  0
 19 20  1  0
 20 21  2  0
 15 22  2  0
 22 23  1  0
 23 24  1  0
 24 25  1  0
 24 26  1  0
 24 27  1  0
 23 28  2  0
 28  2  1  0
 11  7  2  0
 28 13  1  0
 21 16  1  0
M  END
>  <Binding energies>  (35) 
[-7.24]

>  <Ligand effiencies>  (35) 
[-0.2335483870967742]

>  <Interactions>  (35) 
["V-A:ASP:366:CG:3210, V-A:ASP:366:CB:3209, V-B:ALA:541:CB:9864, V-A:ASP:366:CA:3207, V-A:LEU:475:CD2:4256, V-B:GLU:543:CD:9880, V-B:TYR:539:CE1:9847, V-B:TYR:539:CD1:9845, V-B:TYR:539:CG:9844, V-A:ILE:369:CB:3233, V-B:TYR:539:CZ:9849, V-A:ILE:369:CD1:3236, V-A:ILE:369:CG1:3235, V-A:ILE:369:CG2:3234, H-A:ASP:366:OD2:3212, H-A:TYR:484:OH:4345, H-A:ASP:366:OD1:3211, V-A:HIS:456:CE1:4066, V-A:ARG:545:CZ:4924, V-A:GLU:543:CD:4906, V-A:PRO:482:CG:4324, V-A:SER:385:CB:3406, V-A:PRO:482:CB:4323, V-A:SER:385:CA:3404, V-B:TYR:539:CB:9843, V-A:LEU:373:CD2:3278, V-B:GLU:543:CB:9878, V-B:GLU:543:CG:9879, V-A:LEU:373:CD1:3277, H-A:ARG:545:NE:4922, V-A:VAL:384:C:3394"]

$$$$
8a_Ghoteimi_2023
     RDKit          3D

 40 44  0  0  0  0  0  0  0  0999 V2000
  125.9710  133.5540   61.6890 C   0  0  0  0  0  0  0  0  0  0  0  0
  124.5860  133.7010   61.0530 C   0  0  0  0  0  0  0  0  0  0  0  0
  123.9670  132.4240   60.9670 O   0  0  0  0  0  0  0  0  0  0  0  0
  124.1340  131.6360   59.8720 C   0  0  0  0  0  0  0  0  0  0  0  0
  123.6630  131.9050   58.7630 O   0  0  0  0  0  0  0  0  0  0  0  0
  124.9440  130.4030   60.1470 C   0  0  0  0  0  0  0  0  0  0  0  0
  125.3650  129.6080   59.0740 C   0  0  0  0  0  0  0  0  0  0  0  0
  126.1160  128.4570   59.2960 C   0  0  0  0  0  0  0  0  0  0  0  0
  126.4630  128.0760   60.5940 C   0  0  0  0  0  0  0  0  0  0  0  0
  127.2200  126.8920   60.6980 N   0  0  0  0  0  0  0  0  0  0  0  0
  127.1610  125.7470   59.9740 C   0  0  0  0  0  0  0  0  0  0  0  0
  126.3750  125.5520   59.0470 O   0  0  0  0  0  0  0  0  0  0  0  0
  128.1240  124.7130   60.3620 C   0  0  0  0  0  0  0  0  0  0  0  0
  128.2710  123.2320   59.4170 S   0  0  0  0  0  0  0  0  0  0  0  0
  129.5100  122.6160   60.4860 C   0  0  0  0  0  0  0  0  0  0  0  0
  130.0620  121.4180   60.3010 N   0  0  0  0  0  0  0  0  0  0  0  0
  131.0130  121.0330   61.1930 C   0  0  0  0  0  0  0  0  0  0  0  0
  131.6040  119.6760   60.9790 C   0  0  0  0  0  0  0  0  0  0  0  0
  132.9420  119.5230   60.5870 C   0  0  0  0  0  0  0  0  0  0  0  0
  133.4830  118.2580   60.3780 C   0  0  0  0  0  0  0  0  0  0  0  0
  132.7050  117.1160   60.5570 C   0  0  0  0  0  0  0  0  0  0  0  0
  133.3250  115.9030   60.3250 O   0  0  0  0  0  0  0  0  0  0  0  0
  132.9590  114.7750   61.1120 C   0  0  0  0  0  0  0  0  0  0  0  0
  131.3680  117.2570   60.9550 C   0  0  0  0  0  0  0  0  0  0  0  0
  130.8280  118.5250   61.1610 C   0  0  0  0  0  0  0  0  0  0  0  0
  131.4120  121.8460   62.2560 C   0  0  0  0  0  0  0  0  0  0  0  0
  130.8470  123.1120   62.4440 C   0  0  0  0  0  0  0  0  0  0  0  0
  131.3310  123.9490   63.5720 C   0  0  0  0  0  0  0  0  0  0  0  0
  130.5100  124.1790   64.6780 C   0  0  0  0  0  0  0  0  0  0  0  0
  130.9670  124.9460   65.7460 C   0  0  0  0  0  0  0  0  0  0  0  0
  132.2520  125.4910   65.7300 C   0  0  0  0  0  0  0  0  0  0  0  0
  132.6190  126.2370   66.8340 O   0  0  0  0  0  0  0  0  0  0  0  0
  131.6930  127.1670   67.3820 C   0  0  0  0  0  0  0  0  0  0  0  0
  133.0810  125.2540   64.6230 C   0  0  0  0  0  0  0  0  0  0  0  0
  132.6210  124.4840   63.5560 C   0  0  0  0  0  0  0  0  0  0  0  0
  129.8330  123.5270   61.5350 C   0  0  0  0  0  0  0  0  0  0  0  0
  129.0120  124.7090   61.4500 C   0  0  0  0  0  0  0  0  0  0  0  0
  129.0880  125.7270   62.3680 N   0  0  0  0  0  0  0  0  0  0  0  0
  126.0500  128.8690   61.6750 C   0  0  0  0  0  0  0  0  0  0  0  0
  125.2980  130.0200   61.4510 C   0  0  0  0  0  0  0  0  0  0  0  0
  1  2  1  0
  2  3  1  0
  3  4  1  0
  4  5  2  0
  4  6  1  0
  6  7  2  0
  7  8  1  0
  8  9  2  0
  9 10  1  0
 10 11  1  0
 11 12  2  0
 11 13  1  0
 13 14  1  0
 14 15  1  0
 15 16  2  0
 16 17  1  0
 17 18  1  0
 18 19  2  0
 19 20  1  0
 20 21  2  0
 21 22  1  0
 22 23  1  0
 21 24  1  0
 24 25  2  0
 17 26  2  0
 26 27  1  0
 27 28  1  0
 28 29  2  0
 29 30  1  0
 30 31  2  0
 31 32  1  0
 32 33  1  0
 31 34  1  0
 34 35  2  0
 27 36  2  0
 36 37  1  0
 37 38  1  0
  9 39  1  0
 39 40  2  0
 40  6  1  0
 37 13  2  0
 36 15  1  0
 25 18  1  0
 35 28  1  0
M  END
>  <Binding energies>  (36) 
[-8.49]

>  <Ligand effiencies>  (36) 
[-0.19744186046511628]

>  <Interactions>  (36) 
["V-B:ASP:366:CG:8184, H-A:TYR:539:OH:4876, V-A:TYR:539:CZ:4875, V-B:ASP:366:CB:8183, V-A:TYR:539:CE1:4873, V-B:PRO:540:CA:9855, V-A:LEU:475:CD2:4256, V-B:GLU:543:CD:9880, V-B:TYR:539:CE1:9847, V-B:TYR:539:CD1:9845, V-A:TYR:539:CD1:4871, V-B:ILE:369:CD1:8210, V-B:ILE:369:CG2:8208, V-A:ILE:369:CG2:3234, V-B:LEU:475:CD2:9230, H-A:TYR:484:OH:4345, V-A:TYR:484:CZ:4344, V-B:ILE:369:CB:8207, V-A:ARG:545:CG:4920, V-A:ARG:545:CD:4921, V-A:HIS:456:CE1:4066, V-A:ARG:545:CZ:4924, V-A:GLU:543:CD:4906, V-A:GLU:543:CG:4905, V-A:PRO:482:CG:4324, V-A:SER:385:CB:3406, V-A:PRO:482:CB:4323, V-A:SER:385:CA:3404, V-A:HIS:383:CG:3387, V-B:GLU:543:CB:9878, V-A:HIS:383:CB:3386, V-A:LEU:373:CD1:3277, H-A:ARG:545:NE:4922, H-B:GLU:543:OE1:9881, H-B:GLU:543:OE2:9882, V-A:THR:477:CA:4267"]

$$$$
8c_Ghoteimi_2023
     RDKit          3D

 34 38  0  0  0  0  0  0  0  0999 V2000
  124.3860  139.3360   60.5970 C   0  0  0  0  0  0  0  0  0  0  0  0
  124.4320  138.4940   61.7430 O   0  0  0  0  0  0  0  0  0  0  0  0
  125.0400  137.2570   61.6470 C   0  0  0  0  0  0  0  0  0  0  0  0
  126.4300  137.2360   61.7540 C   0  0  0  0  0  0  0  0  0  0  0  0
  127.1270  136.0350   61.6660 C   0  0  0  0  0  0  0  0  0  0  0  0
  126.4530  134.8220   61.4680 C   0  0  0  0  0  0  0  0  0  0  0  0
  127.1970  133.5280   61.3690 C   0  0  0  0  0  0  0  0  0  0  0  0
  128.2620  133.3570   60.4800 C   0  0  0  0  0  0  0  0  0  0  0  0
  128.9440  132.1370   60.4080 C   0  0  0  0  0  0  0  0  0  0  0  0
  130.0620  131.9860   59.4500 C   0  0  0  0  0  0  0  0  0  0  0  0
  131.3360  131.6360   59.9040 C   0  0  0  0  0  0  0  0  0  0  0  0
  132.3830  131.4850   59.0000 C   0  0  0  0  0  0  0  0  0  0  0  0
  132.1770  131.6830   57.6340 C   0  0  0  0  0  0  0  0  0  0  0  0
  133.2730  131.5090   56.8120 O   0  0  0  0  0  0  0  0  0  0  0  0
  134.3490  130.6880   57.2530 C   0  0  0  0  0  0  0  0  0  0  0  0
  130.8970  132.0380   57.1800 C   0  0  0  0  0  0  0  0  0  0  0  0
  129.8490  132.1880   58.0850 C   0  0  0  0  0  0  0  0  0  0  0  0
  128.5250  131.0870   61.2680 C   0  0  0  0  0  0  0  0  0  0  0  0
  128.9890  129.7380   61.4580 C   0  0  0  0  0  0  0  0  0  0  0  0
  130.0370  129.2130   60.7430 N   0  0  0  0  0  0  0  0  0  0  0  0
  128.2760  129.0220   62.4330 C   0  0  0  0  0  0  0  0  0  0  0  0
  128.4780  127.6430   62.8820 C   0  0  0  0  0  0  0  0  0  0  0  0
  127.5490  126.8330   62.8650 O   0  0  0  0  0  0  0  0  0  0  0  0
  129.7310  127.3480   63.3060 N   0  0  0  0  0  0  0  0  0  0  0  0
  130.1860  126.1240   63.7770 C   0  0  0  0  0  0  0  0  0  0  0  0
  130.5290  125.8080   65.0070 N   0  0  0  0  0  0  0  0  0  0  0  0
  130.9120  124.5500   65.0950 C   0  0  0  0  0  0  0  0  0  0  0  0
  130.8870  123.8140   63.9150 C   0  0  0  0  0  0  0  0  0  0  0  0
  130.3290  124.8360   62.6240 S   0  0  0  0  0  0  0  0  0  0  0  0
  127.0030  130.0150   63.1470 S   0  0  0  0  0  0  0  0  0  0  0  0
  127.4330  131.3750   62.1360 C   0  0  0  0  0  0  0  0  0  0  0  0
  126.7820  132.5370   62.2030 N   0  0  0  0  0  0  0  0  0  0  0  0
  125.0550  134.8500   61.3640 C   0  0  0  0  0  0  0  0  0  0  0  0
  124.3540  136.0500   61.4510 C   0  0  0  0  0  0  0  0  0  0  0  0
  1  2  1  0
  2  3  1  0
  3  4  2  0
  4  5  1  0
  5  6  2  0
  6  7  1  0
  7  8  2  0
  8  9  1  0
  9 10  1  0
 10 11  2  0
 11 12  1  0
 12 13  2  0
 13 14  1  0
 14 15  1  0
 13 16  1  0
 16 17  2  0
  9 18  2  0
 18 19  1  0
 19 20  1  0
 19 21  2  0
 21 22  1  0
 22 23  2  0
 22 24  1  0
 24 25  1  0
 25 26  2  0
 26 27  1  0
 27 28  2  0
 28 29  1  0
 21 30  1  0
 30 31  1  0
 31 32  2  0
  6 33  1  0
 33 34  2  0
 34  3  1  0
 32  7  1  0
 17 10  1  0
 31 18  1  0
 29 25  1  0
M  END
>  <Binding energies>  (37) 
[-8.01]

>  <Ligand effiencies>  (37) 
[-0.21648648648648647]

>  <Interactions>  (37) 
["V-A:ASP:366:CG:3210, V-A:TYR:531:CZ:4792, V-A:LEU:363:CA:3182, V-A:TYR:531:CE2:4791, V-A:PRO:540:CB:4883, V-A:PRO:540:CA:4881, V-A:ASP:366:CB:3209, V-A:LEU:363:CB:3184, H-A:TYR:531:OH:4793, V-A:LEU:363:CD1:3186, V-A:TYR:539:CE1:4873, V-B:GLU:543:CD:9880, V-A:TYR:539:CD1:4871, V-A:ALA:541:CB:4890, V-A:PRO:540:N:4882, V-A:TYR:539:C:4865, V-B:ILE:369:CG2:8208, V-B:PRO:482:CB:9297, V-B:SER:385:CA:8378, V-B:PRO:482:CG:9298, V-B:LEU:475:CD2:9230, V-B:SER:385:CB:8380, V-B:LEU:373:CD1:8251, H-A:ASP:366:OD2:3212, V-A:TYR:484:CZ:4344, V-A:GLU:543:CD:4906, H-A:GLU:543:OE2:4908, H-A:GLU:543:OE1:4907, H-B:ARG:545:NH2:9900, V-B:GLU:543:CB:9878, V-B:HIS:383:CG:8361, V-B:VAL:384:C:8368, V-B:HIS:383:CB:8360, V-B:LEU:373:CD2:8252, V-B:SER:385:C:8376, V-A:LEU:363:C:3180"]

$$$$
8d_Ghoteimi_2023
     RDKit          3D

 30 33  0  0  0  0  0  0  0  0999 V2000
  127.7790  122.8350   55.5810 C   0  0  0  0  0  0  0  0  0  0  0  0
  126.6460  122.1250   56.0640 O   0  0  0  0  0  0  0  0  0  0  0  0
  125.9060  122.6120   57.0930 C   0  0  0  0  0  0  0  0  0  0  0  0
  124.6860  122.4630   57.1960 O   0  0  0  0  0  0  0  0  0  0  0  0
  126.7160  123.3470   58.0880 C   0  0  0  0  0  0  0  0  0  0  0  0
  128.0200  122.5220   58.9440 S   0  0  0  0  0  0  0  0  0  0  0  0
  128.4090  123.9760   59.8340 C   0  0  0  0  0  0  0  0  0  0  0  0
  129.3960  124.0100   60.7290 N   0  0  0  0  0  0  0  0  0  0  0  0
  129.6160  125.1930   61.3640 C   0  0  0  0  0  0  0  0  0  0  0  0
  130.7260  125.2030   62.3660 C   0  0  0  0  0  0  0  0  0  0  0  0
  132.0430  124.9020   61.9920 C   0  0  0  0  0  0  0  0  0  0  0  0
  133.0720  124.9110   62.9290 C   0  0  0  0  0  0  0  0  0  0  0  0
  132.8130  125.2210   64.2630 C   0  0  0  0  0  0  0  0  0  0  0  0
  133.8950  125.2070   65.1220 O   0  0  0  0  0  0  0  0  0  0  0  0
  133.6900  125.4940   66.5020 C   0  0  0  0  0  0  0  0  0  0  0  0
  131.5000  125.5260   64.6480 C   0  0  0  0  0  0  0  0  0  0  0  0
  130.4730  125.5150   63.7080 C   0  0  0  0  0  0  0  0  0  0  0  0
  128.8460  126.3310   61.1080 C   0  0  0  0  0  0  0  0  0  0  0  0
  127.8120  126.2960   60.1660 C   0  0  0  0  0  0  0  0  0  0  0  0
  127.0200  127.5210   59.9110 C   0  0  0  0  0  0  0  0  0  0  0  0
  126.9210  128.0360   58.6170 C   0  0  0  0  0  0  0  0  0  0  0  0
  126.1840  129.1930   58.3780 C   0  0  0  0  0  0  0  0  0  0  0  0
  125.5330  129.8480   59.4240 C   0  0  0  0  0  0  0  0  0  0  0  0
  124.8260  130.9870   59.0940 O   0  0  0  0  0  0  0  0  0  0  0  0
  123.4630  131.0970   59.4850 C   0  0  0  0  0  0  0  0  0  0  0  0
  125.6310  129.3250   60.7250 C   0  0  0  0  0  0  0  0  0  0  0  0
  126.3690  128.1690   60.9620 C   0  0  0  0  0  0  0  0  0  0  0  0
  127.5670  125.0720   59.4900 C   0  0  0  0  0  0  0  0  0  0  0  0
  126.6100  124.6840   58.4910 C   0  0  0  0  0  0  0  0  0  0  0  0
  125.6750  125.5520   57.9860 N   0  0  0  0  0  0  0  0  0  0  0  0
  1  2  1  0
  2  3  1  0
  3  4  2  0
  3  5  1  0
  5  6  1  0
  6  7  1  0
  7  8  2  0
  8  9  1  0
  9 10  1  0
 10 11  2  0
 11 12  1  0
 12 13  2  0
 13 14  1  0
 14 15  1  0
 13 16  1  0
 16 17  2  0
  9 18  2  0
 18 19  1  0
 19 20  1  0
 20 21  2  0
 21 22  1  0
 22 23  2  0
 23 24  1  0
 24 25  1  0
 23 26  1  0
 26 27  2  0
 19 28  2  0
 28 29  1  0
 29 30  1  0
 29  5  2  0
 28  7  1  0
 17 10  1  0
 27 20  1  0
M  END
>  <Binding energies>  (38) 
[-7.75]

>  <Ligand effiencies>  (38) 
[-0.2421875]

>  <Interactions>  (38) 
["V-B:ASP:366:CG:8184, H-A:TYR:539:OH:4876, V-B:ASP:366:CB:8183, H-B:TYR:531:OH:9767, V-B:PRO:540:CA:9855, V-B:PRO:540:CB:9857, V-B:MET:535:CE:9807, V-B:ILE:538:CB:9834, V-B:ILE:538:CA:9832, V-B:PRO:540:CD:9859, V-B:PRO:540:N:9856, V-B:GLU:543:CD:9880, V-B:TYR:539:C:9839, V-B:TYR:539:CE1:9847, V-B:TYR:539:CD1:9845, V-B:ILE:369:CD1:8210, V-B:ILE:369:CG2:8208, H-B:TYR:539:N:9842, H-A:GLY:454:N:4047, H-A:TYR:484:OH:4345, H-B:ASP:366:OD1:8185, V-B:TYR:531:CZ:9766, H-B:ASP:366:OD2:8186, V-A:TYR:484:CZ:4344, V-B:ILE:369:CB:8207, V-A:ARG:545:CG:4920, V-A:ARG:545:CD:4921, V-A:HIS:456:CE1:4066, V-A:ARG:545:CZ:4924, V-B:ASP:366:CA:8181, H-A:ARG:545:NE:4922"]

$$$$
9a_Ghoteimi_2023
     RDKit          3D

 48 54  0  0  0  0  0  0  0  0999 V2000
  129.3090  132.1870   73.3720 C   0  0  0  0  0  0  0  0  0  0  0  0
  129.7470  130.7610   73.0220 C   0  0  0  0  0  0  0  0  0  0  0  0
  128.7220  129.8470   73.3900 O   0  0  0  0  0  0  0  0  0  0  0  0
  128.9330  128.5060   73.3550 C   0  0  0  0  0  0  0  0  0  0  0  0
  128.8870  127.7840   74.3570 O   0  0  0  0  0  0  0  0  0  0  0  0
  129.2350  127.9880   71.9790 C   0  0  0  0  0  0  0  0  0  0  0  0
  128.1890  127.4950   71.1880 C   0  0  0  0  0  0  0  0  0  0  0  0
  128.4370  127.0060   69.9090 C   0  0  0  0  0  0  0  0  0  0  0  0
  129.7330  127.0000   69.3920 C   0  0  0  0  0  0  0  0  0  0  0  0
  129.8650  126.4820   68.0890 N   0  0  0  0  0  0  0  0  0  0  0  0
  129.5210  127.0180   66.8920 C   0  0  0  0  0  0  0  0  0  0  0  0
  129.0010  128.1260   66.7530 O   0  0  0  0  0  0  0  0  0  0  0  0
  129.8160  126.1830   65.7240 C   0  0  0  0  0  0  0  0  0  0  0  0
  130.3260  124.5070   65.9340 S   0  0  0  0  0  0  0  0  0  0  0  0
  130.4380  124.2770   64.2050 C   0  0  0  0  0  0  0  0  0  0  0  0
  130.7890  123.1050   63.6770 N   0  0  0  0  0  0  0  0  0  0  0  0
  130.8340  123.0270   62.3210 C   0  0  0  0  0  0  0  0  0  0  0  0
  131.2190  121.7000   61.7510 C   0  0  0  0  0  0  0  0  0  0  0  0
  132.5130  121.4820   61.2670 C   0  0  0  0  0  0  0  0  0  0  0  0
  132.8800  120.2490   60.7360 C   0  0  0  0  0  0  0  0  0  0  0  0
  131.9700  119.1820   60.6820 C   0  0  0  0  0  0  0  0  0  0  0  0
  132.3180  117.9430   60.1340 N   0  0  0  0  0  0  0  0  0  0  0  0
  133.4030  117.1220   60.7090 C   0  0  0  0  0  0  0  0  0  0  0  0
  133.8850  115.9880   59.7810 C   0  0  0  0  0  0  0  0  0  0  0  0
  132.7870  115.1790   59.3900 O   0  0  0  0  0  0  0  0  0  0  0  0
  131.8110  115.9330   58.6880 C   0  0  0  0  0  0  0  0  0  0  0  0
  131.2660  117.0600   59.5880 C   0  0  0  0  0  0  0  0  0  0  0  0
  130.6690  119.4100   61.1550 C   0  0  0  0  0  0  0  0  0  0  0  0
  130.3020  120.6440   61.6830 C   0  0  0  0  0  0  0  0  0  0  0  0
  130.5580  124.1240   61.5020 C   0  0  0  0  0  0  0  0  0  0  0  0
  130.2090  125.3630   62.0520 C   0  0  0  0  0  0  0  0  0  0  0  0
  129.9600  126.5060   61.1370 C   0  0  0  0  0  0  0  0  0  0  0  0
  128.7540  126.6100   60.4400 C   0  0  0  0  0  0  0  0  0  0  0  0
  128.5180  127.6890   59.5940 C   0  0  0  0  0  0  0  0  0  0  0  0
  129.4750  128.7040   59.4350 C   0  0  0  0  0  0  0  0  0  0  0  0
  129.2650  129.7900   58.5820 N   0  0  0  0  0  0  0  0  0  0  0  0
  128.3730  129.6280   57.4170 C   0  0  0  0  0  0  0  0  0  0  0  0
  127.9320  130.9700   56.7940 C   0  0  0  0  0  0  0  0  0  0  0  0
  129.0710  131.7470   56.4560 O   0  0  0  0  0  0  0  0  0  0  0  0
  129.8670  132.0350   57.5950 C   0  0  0  0  0  0  0  0  0  0  0  0
  130.3590  130.7210   58.2400 C   0  0  0  0  0  0  0  0  0  0  0  0
  130.6810  128.5900   60.1410 C   0  0  0  0  0  0  0  0  0  0  0  0
  130.9190  127.5090   60.9840 C   0  0  0  0  0  0  0  0  0  0  0  0
  130.1200  125.4570   63.4710 C   0  0  0  0  0  0  0  0  0  0  0  0
  129.7440  126.5240   64.3650 C   0  0  0  0  0  0  0  0  0  0  0  0
  129.3400  127.7550   63.9150 N   0  0  0  0  0  0  0  0  0  0  0  0
  130.7870  127.4950   70.1760 C   0  0  0  0  0  0  0  0  0  0  0  0
  130.5370  127.9830   71.4560 C   0  0  0  0  0  0  0  0  0  0  0  0
  1  2  1  0
  2  3  1  0
  3  4  1  0
  4  5  2  0
  4  6  1  0
  6  7  2  0
  7  8  1  0
  8  9  2  0
  9 10  1  0
 10 11  1  0
 11 12  2  0
 11 13  1  0
 13 14  1  0
 14 15  1  0
 15 16  2  0
 16 17  1  0
 17 18  1  0
 18 19  2  0
 19 20  1  0
 20 21  2  0
 21 22  1  0
 22 23  1  0
 23 24  1  0
 24 25  1  0
 25 26  1  0
 26 27  1  0
 21 28  1  0
 28 29  2  0
 17 30  2  0
 30 31  1  0
 31 32  1  0
 32 33  2  0
 33 34  1  0
 34 35  2  0
 35 36  1  0
 36 37  1  0
 37 38  1  0
 38 39  1  0
 39 40  1  0
 40 41  1  0
 35 42  1  0
 42 43  2  0
 31 44  2  0
 44 45  1  0
 45 46  1  0
  9 47  1  0
 47 48  2  0
 48  6  1  0
 45 13  2  0
 44 15  1  0
 29 18  1  0
 43 32  1  0
 27 22  1  0
 41 36  1  0
M  END
>  <Binding energies>  (39) 
[-7.12]

>  <Ligand effiencies>  (39) 
[-0.1396078431372549]

>  <Interactions>  (39) 
["V-A:MET:535:CE:4833, V-A:ASP:366:CG:3210, V-A:TYR:539:CZ:4875, V-A:TYR:539:CE1:4873, V-B:ALA:541:CB:9864, V-A:LEU:475:CD2:4256, V-B:GLU:543:CD:9880, V-B:TYR:539:CE1:9847, V-B:TYR:539:CD1:9845, V-B:TYR:539:CG:9844, V-A:ILE:369:CG2:3234, H-A:TYR:484:OH:4345, V-A:TYR:484:CZ:4344, V-A:HIS:456:CE1:4066, V-A:GLU:543:CD:4906, H-A:GLU:543:OE2:4908, H-A:GLU:543:OE1:4907, V-B:HIS:456:CE1:9040, V-A:GLU:543:CG:4905, V-A:PRO:482:CG:4324, V-A:SER:385:CB:3406, V-A:SER:385:CA:3404, V-B:TYR:539:CB:9843, V-A:HIS:383:CG:3387, V-A:LEU:373:CD2:3278, V-B:GLU:543:CB:9878, V-B:GLU:543:CG:9879, V-A:HIS:383:CB:3386, V-A:LEU:373:CD1:3277, H-B:GLU:543:OE1:9881, H-B:GLU:543:OE2:9882, V-A:TYR:484:CE2:4343, V-A:VAL:384:C:3394, V-B:ILE:343:CD1:7965, V-A:HIS:383:CD2:3389, V-A:GLY:544:CA:4912, V-B:HIS:456:CD2:9039, V-B:GLY:544:C:9884, V-B:GLU:543:C:9874, V-A:GLU:543:C:4900, H-B:LYS:547:NZ:9923, V-A:LYS:547:CE:4948, V-A:GLY:544:C:4910, H-A:LYS:547:NZ:4949, H-A:HIS:383:ND1:3388, V-A:HIS:456:CD2:4065, H-B:HIS:456:NE2:9041, H-A:HIS:456:ND1:4064, H-B:GLU:543:O:9875"]

$$$$
9b_Ghoteimi_2023
     RDKit          3D

 42 48  0  0  0  0  0  0  0  0999 V2000
  130.5050  128.1610   62.6840 N   0  0  0  0  0  0  0  0  0  0  0  0
  130.8130  127.3490   61.6220 C   0  0  0  0  0  0  0  0  0  0  0  0
  130.8870  127.8040   60.2970 C   0  0  0  0  0  0  0  0  0  0  0  0
  130.6920  129.1630   59.7850 C   0  0  0  0  0  0  0  0  0  0  0  0
  130.0100  129.9780   60.4090 O   0  0  0  0  0  0  0  0  0  0  0  0
  131.3000  129.4330   58.6020 N   0  0  0  0  0  0  0  0  0  0  0  0
  131.2730  130.6250   57.8890 C   0  0  0  0  0  0  0  0  0  0  0  0
  132.3690  131.1120   57.1800 C   0  0  0  0  0  0  0  0  0  0  0  0
  131.9380  132.2930   56.6210 C   0  0  0  0  0  0  0  0  0  0  0  0
  130.6480  132.5050   56.9770 O   0  0  0  0  0  0  0  0  0  0  0  0
  130.2380  131.4410   57.7800 N   0  0  0  0  0  0  0  0  0  0  0  0
  131.2730  126.4850   59.1910 S   0  0  0  0  0  0  0  0  0  0  0  0
  131.3140  125.3340   60.5050 C   0  0  0  0  0  0  0  0  0  0  0  0
  131.5500  124.0410   60.2930 N   0  0  0  0  0  0  0  0  0  0  0  0
  131.5430  123.2260   61.3800 C   0  0  0  0  0  0  0  0  0  0  0  0
  131.7900  121.7770   61.1120 C   0  0  0  0  0  0  0  0  0  0  0  0
  133.0470  121.3220   60.6970 C   0  0  0  0  0  0  0  0  0  0  0  0
  133.2670  119.9730   60.4340 C   0  0  0  0  0  0  0  0  0  0  0  0
  132.2340  119.0310   60.5640 C   0  0  0  0  0  0  0  0  0  0  0  0
  132.4410  117.6710   60.3070 N   0  0  0  0  0  0  0  0  0  0  0  0
  131.6940  116.9670   59.2460 C   0  0  0  0  0  0  0  0  0  0  0  0
  132.2870  115.5920   58.8740 C   0  0  0  0  0  0  0  0  0  0  0  0
  132.4030  114.7850   60.0340 O   0  0  0  0  0  0  0  0  0  0  0  0
  133.2600  115.3770   60.9960 C   0  0  0  0  0  0  0  0  0  0  0  0
  132.7020  116.7490   61.4320 C   0  0  0  0  0  0  0  0  0  0  0  0
  130.9830  119.4900   61.0000 C   0  0  0  0  0  0  0  0  0  0  0  0
  130.7640  120.8390   61.2670 C   0  0  0  0  0  0  0  0  0  0  0  0
  131.3270  123.7090   62.6730 C   0  0  0  0  0  0  0  0  0  0  0  0
  131.0990  125.0710   62.9030 C   0  0  0  0  0  0  0  0  0  0  0  0
  130.9050  125.5390   64.2990 C   0  0  0  0  0  0  0  0  0  0  0  0
  129.7430  126.2230   64.6580 C   0  0  0  0  0  0  0  0  0  0  0  0
  129.5500  126.6450   65.9700 C   0  0  0  0  0  0  0  0  0  0  0  0
  130.5140  126.3960   66.9590 C   0  0  0  0  0  0  0  0  0  0  0  0
  130.3330  126.7970   68.2850 N   0  0  0  0  0  0  0  0  0  0  0  0
  131.2850  127.7520   68.8860 C   0  0  0  0  0  0  0  0  0  0  0  0
  131.2100  127.7950   70.4280 C   0  0  0  0  0  0  0  0  0  0  0  0
  129.8820  128.0810   70.8420 O   0  0  0  0  0  0  0  0  0  0  0  0
  128.9660  127.0980   70.3840 C   0  0  0  0  0  0  0  0  0  0  0  0
  128.9860  127.0330   68.8420 C   0  0  0  0  0  0  0  0  0  0  0  0
  131.6690  125.6910   66.5900 C   0  0  0  0  0  0  0  0  0  0  0  0
  131.8620  125.2680   65.2780 C   0  0  0  0  0  0  0  0  0  0  0  0
  131.0680  125.9380   61.7740 C   0  0  0  0  0  0  0  0  0  0  0  0
  1  2  1  0
  2  3  2  0
  3  4  1  0
  4  5  2  0
  4  6  1  0
  6  7  1  0
  7  8  1  0
  8  9  2  0
  9 10  1  0
 10 11  1  0
  3 12  1  0
 12 13  1  0
 13 14  2  0
 14 15  1  0
 15 16  1  0
 16 17  2  0
 17 18  1  0
 18 19  2  0
 19 20  1  0
 20 21  1  0
 21 22  1  0
 22 23  1  0
 23 24  1  0
 24 25  1  0
 19 26  1  0
 26 27  2  0
 15 28  2  0
 28 29  1  0
 29 30  1  0
 30 31  2  0
 31 32  1  0
 32 33  2  0
 33 34  1  0
 34 35  1  0
 35 36  1  0
 36 37  1  0
 37 38  1  0
 38 39  1  0
 33 40  1  0
 40 41  2  0
 29 42  2  0
 42  2  1  0
 11  7  2  0
 42 13  1  0
 27 16  1  0
 41 30  1  0
 25 20  1  0
 39 34  1  0
M  END
>  <Binding energies>  (40) 
[-7.71]

>  <Ligand effiencies>  (40) 
[-0.17133333333333334]

>  <Interactions>  (40) 
["V-A:ASP:366:CG:3210, V-A:TYR:531:CZ:4792, V-A:TYR:531:CE2:4791, H-A:TYR:531:OH:4793, H-A:TYR:539:N:4868, V-B:ALA:541:CB:9864, V-A:LEU:475:CD2:4256, V-B:GLU:543:CD:9880, V-B:TYR:539:CE1:9847, V-B:TYR:539:CD1:9845, V-B:TYR:539:CG:9844, V-A:ILE:369:CG2:3234, V-A:ILE:538:CB:4860, V-A:PRO:540:CD:4885, V-A:ILE:538:CG2:4861, H-A:ASP:366:OD2:3212, V-A:TYR:484:CZ:4344, V-A:ARG:545:CG:4920, V-A:HIS:456:CE1:4066, V-A:ARG:545:CZ:4924, V-A:GLU:543:CD:4906, H-A:GLU:543:OE2:4908, H-A:GLU:543:OE1:4907, V-B:HIS:456:CE1:9040, V-A:GLU:543:CG:4905, V-A:SER:385:CB:3406, V-A:SER:385:CA:3404, V-B:TYR:539:CB:9843, V-A:HIS:383:CG:3387, V-A:LEU:373:CD2:3278, V-B:GLU:543:CB:9878, V-B:GLU:543:CG:9879, V-A:HIS:383:CB:3386, V-A:LEU:373:CD1:3277, V-A:HIS:383:CD2:3389, V-A:GLY:544:CA:4912, V-B:GLU:543:C:9874, V-A:GLU:543:C:4900, V-A:GLY:544:C:4910, H-A:HIS:383:ND1:3388, V-A:HIS:456:CD2:4065, H-B:HIS:456:NE2:9041"]

$$$$
9c_Ghoteimi_2023
     RDKit          3D

 42 48  0  0  0  0  0  0  0  0999 V2000
  130.5000  128.0570   62.6520 N   0  0  0  0  0  0  0  0  0  0  0  0
  130.8130  127.2340   61.6010 C   0  0  0  0  0  0  0  0  0  0  0  0
  130.8890  127.6730   60.2700 C   0  0  0  0  0  0  0  0  0  0  0  0
  130.6830  129.0250   59.7420 C   0  0  0  0  0  0  0  0  0  0  0  0
  129.9790  129.8380   60.3440 O   0  0  0  0  0  0  0  0  0  0  0  0
  131.3100  129.2920   58.5690 N   0  0  0  0  0  0  0  0  0  0  0  0
  131.2680  130.4800   57.8530 C   0  0  0  0  0  0  0  0  0  0  0  0
  130.2090  131.1120   57.3960 N   0  0  0  0  0  0  0  0  0  0  0  0
  130.5420  132.2140   56.7530 C   0  0  0  0  0  0  0  0  0  0  0  0
  131.9040  132.4950   56.6770 C   0  0  0  0  0  0  0  0  0  0  0  0
  132.7860  131.2420   57.4970 S   0  0  0  0  0  0  0  0  0  0  0  0
  131.2850  126.3440   59.1810 S   0  0  0  0  0  0  0  0  0  0  0  0
  131.3290  125.2090   60.5090 C   0  0  0  0  0  0  0  0  0  0  0  0
  131.5750  123.9150   60.3130 N   0  0  0  0  0  0  0  0  0  0  0  0
  131.5700  123.1130   61.4100 C   0  0  0  0  0  0  0  0  0  0  0  0
  131.8270  121.6630   61.1590 C   0  0  0  0  0  0  0  0  0  0  0  0
  133.1120  121.1950   60.8600 C   0  0  0  0  0  0  0  0  0  0  0  0
  133.3450  119.8450   60.6180 C   0  0  0  0  0  0  0  0  0  0  0  0
  132.2960  118.9120   60.6530 C   0  0  0  0  0  0  0  0  0  0  0  0
  132.5150  117.5500   60.4190 N   0  0  0  0  0  0  0  0  0  0  0  0
  131.8700  116.8510   59.2880 C   0  0  0  0  0  0  0  0  0  0  0  0
  132.4860  115.4700   58.9750 C   0  0  0  0  0  0  0  0  0  0  0  0
  132.4790  114.6620   60.1410 O   0  0  0  0  0  0  0  0  0  0  0  0
  133.2410  115.2490   61.1840 C   0  0  0  0  0  0  0  0  0  0  0  0
  132.6530  116.6250   61.5630 C   0  0  0  0  0  0  0  0  0  0  0  0
  131.0140  119.3830   60.9710 C   0  0  0  0  0  0  0  0  0  0  0  0
  130.7830  120.7330   61.2170 C   0  0  0  0  0  0  0  0  0  0  0  0
  131.3480  123.6100   62.6960 C   0  0  0  0  0  0  0  0  0  0  0  0
  131.1110  124.9730   62.9090 C   0  0  0  0  0  0  0  0  0  0  0  0
  130.9130  125.4570   64.2980 C   0  0  0  0  0  0  0  0  0  0  0  0
  129.7680  126.1810   64.6350 C   0  0  0  0  0  0  0  0  0  0  0  0
  129.5700  126.6220   65.9410 C   0  0  0  0  0  0  0  0  0  0  0  0
  130.5130  126.3520   66.9440 C   0  0  0  0  0  0  0  0  0  0  0  0
  130.3290  126.7750   68.2640 N   0  0  0  0  0  0  0  0  0  0  0  0
  131.2420  127.7890   68.8280 C   0  0  0  0  0  0  0  0  0  0  0  0
  131.1810  127.8730   70.3690 C   0  0  0  0  0  0  0  0  0  0  0  0
  129.8460  128.1080   70.7910 O   0  0  0  0  0  0  0  0  0  0  0  0
  128.9740  127.0700   70.3720 C   0  0  0  0  0  0  0  0  0  0  0  0
  128.9800  126.9610   68.8320 C   0  0  0  0  0  0  0  0  0  0  0  0
  131.6490  125.6050   66.5990 C   0  0  0  0  0  0  0  0  0  0  0  0
  131.8470  125.1640   65.2930 C   0  0  0  0  0  0  0  0  0  0  0  0
  131.0770  125.8260   61.7700 C   0  0  0  0  0  0  0  0  0  0  0  0
  1  2  1  0
  2  3  2  0
  3  4  1  0
  4  5  2  0
  4  6  1  0
  6  7  1  0
  7  8  2  0
  8  9  1  0
  9 10  2  0
 10 11  1  0
  3 12  1  0
 12 13  1  0
 13 14  2  0
 14 15  1  0
 15 16  1  0
 16 17  2  0
 17 18  1  0
 18 19  2  0
 19 20  1  0
 20 21  1  0
 21 22  1  0
 22 23  1  0
 23 24  1  0
 24 25  1  0
 19 26  1  0
 26 27  2  0
 15 28  2  0
 28 29  1  0
 29 30  1  0
 30 31  2  0
 31 32  1  0
 32 33  2  0
 33 34  1  0
 34 35  1  0
 35 36  1  0
 36 37  1  0
 37 38  1  0
 38 39  1  0
 33 40  1  0
 40 41  2  0
 29 42  2  0
 42  2  1  0
 11  7  1  0
 42 13  1  0
 27 16  1  0
 41 30  1  0
 25 20  1  0
 39 34  1  0
M  END
>  <Binding energies>  (41) 
[-7.69]

>  <Ligand effiencies>  (41) 
[-0.1708888888888889]

>  <Interactions>  (41) 
["V-A:ASP:366:CG:3210, V-A:TYR:531:CE2:4791, V-A:ASP:366:CB:3209, H-A:TYR:531:OH:4793, V-A:LEU:363:CD1:3186, V-B:ALA:541:CB:9864, V-A:LEU:475:CD2:4256, V-B:GLU:543:CD:9880, V-B:TYR:539:CE1:9847, V-B:TYR:539:CD1:9845, V-A:PRO:540:N:4882, V-B:TYR:539:CG:9844, V-A:ILE:369:CG2:3234, V-A:ILE:538:CB:4860, V-A:PRO:540:CD:4885, V-A:ILE:538:CG2:4861, H-A:ASP:366:OD2:3212, V-A:TYR:484:CZ:4344, V-A:ARG:545:CG:4920, V-A:HIS:456:CE1:4066, V-A:GLU:543:CD:4906, H-A:GLU:543:OE2:4908, H-A:GLU:543:OE1:4907, V-B:HIS:456:CE1:9040, V-A:GLU:543:CG:4905, V-A:SER:385:CB:3406, V-A:SER:385:CA:3404, V-B:TYR:539:CB:9843, V-A:HIS:383:CG:3387, V-A:LEU:373:CD2:3278, V-B:GLU:543:CB:9878, V-B:GLU:543:CG:9879, V-A:HIS:383:CB:3386, V-A:LEU:373:CD1:3277, V-A:THR:477:CA:4267, V-A:HIS:383:CD2:3389, V-A:GLY:544:CA:4912, V-B:GLU:543:C:9874, V-A:GLU:543:C:4900, V-A:GLY:544:C:4910, H-A:HIS:383:ND1:3388, H-B:HIS:456:NE2:9041, V-A:THR:477:CG2:4270"]

$$$$
RR11_Rahimova_2017
     RDKit          3D

 33 38  0  0  0  0  0  0  0  0999 V2000
  132.7100  115.4090   59.7050 N   0  0  0  0  0  0  0  0  0  0  0  0
  132.3030  116.6900   60.0750 C   0  0  0  0  0  0  0  0  0  0  0  0
  130.9500  116.9590   60.2670 C   0  0  0  0  0  0  0  0  0  0  0  0
  130.5450  118.2370   60.6390 C   0  0  0  0  0  0  0  0  0  0  0  0
  131.4870  119.2570   60.8230 C   0  0  0  0  0  0  0  0  0  0  0  0
  131.0490  120.6330   61.2300 C   0  0  0  0  0  0  0  0  0  0  0  0
  131.8100  121.4970   61.8670 N   0  0  0  0  0  0  0  0  0  0  0  0
  131.0330  122.6140   62.0270 C   0  0  0  0  0  0  0  0  0  0  0  0
  131.3530  123.8360   62.6340 C   0  0  0  0  0  0  0  0  0  0  0  0
  130.3800  124.8430   62.6560 C   0  0  0  0  0  0  0  0  0  0  0  0
  130.6970  126.1790   63.3150 C   0  0  0  0  0  0  0  0  0  0  0  0
  130.0700  127.3620   62.5900 C   0  0  0  0  0  0  0  0  0  0  0  0
  130.5220  127.7040   61.3110 C   0  0  0  0  0  0  0  0  0  0  0  0
  129.9720  128.7750   60.6020 C   0  0  0  0  0  0  0  0  0  0  0  0
  128.9390  129.5040   61.2050 C   0  0  0  0  0  0  0  0  0  0  0  0
  128.2480  130.5870   60.7270 N   0  0  0  0  0  0  0  0  0  0  0  0
  127.3910  130.8980   61.6760 C   0  0  0  0  0  0  0  0  0  0  0  0
  126.4220  132.0430   61.6030 C   0  0  0  0  0  0  0  0  0  0  0  0
  126.8840  133.3650   61.5870 C   0  0  0  0  0  0  0  0  0  0  0  0
  125.9860  134.4280   61.5300 C   0  0  0  0  0  0  0  0  0  0  0  0
  124.6170  134.1750   61.4880 C   0  0  0  0  0  0  0  0  0  0  0  0
  123.7160  135.2380   61.4350 N   0  0  0  0  0  0  0  0  0  0  0  0
  124.1430  132.8650   61.4980 C   0  0  0  0  0  0  0  0  0  0  0  0
  125.0420  131.8040   61.5550 C   0  0  0  0  0  0  0  0  0  0  0  0
  127.4900  130.0510   62.7590 N   0  0  0  0  0  0  0  0  0  0  0  0
  128.4830  129.1380   62.4930 C   0  0  0  0  0  0  0  0  0  0  0  0
  129.0250  128.0650   63.2050 C   0  0  0  0  0  0  0  0  0  0  0  0
  129.1120  124.6230   62.1070 C   0  0  0  0  0  0  0  0  0  0  0  0
  128.7610  123.4150   61.4990 C   0  0  0  0  0  0  0  0  0  0  0  0
  129.7460  122.4240   61.4700 C   0  0  0  0  0  0  0  0  0  0  0  0
  129.7940  121.1430   60.9720 N   0  0  0  0  0  0  0  0  0  0  0  0
  132.8450  118.9730   60.6250 C   0  0  0  0  0  0  0  0  0  0  0  0
  133.2530  117.6950   60.2530 C   0  0  0  0  0  0  0  0  0  0  0  0
  1  2  1  0
  2  3  2  0
  3  4  1  0
  4  5  2  0
  5  6  1  0
  6  7  2  0
  7  8  1  0
  8  9  2  0
  9 10  1  0
 10 11  1  0
 11 12  1  0
 12 13  2  0
 13 14  1  0
 14 15  2  0
 15 16  1  0
 16 17  2  0
 17 18  1  0
 18 19  2  0
 19 20  1  0
 20 21  2  0
 21 22  1  0
 21 23  1  0
 23 24  2  0
 17 25  1  0
 25 26  1  0
 26 27  2  0
 10 28  2  0
 28 29  1  0
 29 30  2  0
 30 31  1  0
  5 32  1  0
 32 33  2  0
 33  2  1  0
 31  6  1  0
 30  8  1  0
 27 12  1  0
 26 15  1  0
 24 18  1  0
M  END
>  <Binding energies>  (42) 
[-7.53]

>  <Ligand effiencies>  (42) 
[-0.1930769230769231]

>  <Interactions>  (42) 
["V-A:TYR:539:CE1:4873, V-B:ALA:541:CB:9864, V-A:LEU:475:CD2:4256, V-B:GLU:543:CD:9880, V-B:TYR:539:C:9839, V-B:TYR:539:CE1:9847, V-B:TYR:539:CD1:9845, V-A:TYR:539:CD1:4871, V-B:ILE:369:CD1:8210, V-B:ILE:369:CG2:8208, V-B:TYR:539:CG:9844, V-B:SER:385:CA:8378, V-B:LEU:475:CD2:9230, V-B:SER:385:CB:8380, V-B:LEU:373:CD1:8251, V-A:GLU:543:CD:4906, H-A:GLU:543:OE1:4907, H-B:TYR:539:O:9840, V-A:PRO:482:CG:4324, V-A:SER:385:CB:3406, V-A:PRO:482:CB:4323, V-A:SER:385:CA:3404, V-B:TYR:539:CB:9843, V-A:HIS:383:CG:3387, V-A:LEU:373:CD2:3278, V-A:HIS:383:CB:3386, V-A:LEU:373:CD1:3277, H-B:SER:385:O:8377, V-B:VAL:344:CG1:7972, V-B:SER:385:C:8376, V-A:HIS:383:CD2:3389, H-B:VAL:384:O:8369, H-A:HIS:383:NE2:3392"]

$$$$
RR16_Rahimova_2017
     RDKit          3D

 44 49  0  0  0  0  0  0  0  0999 V2000
  122.7490  130.6560   62.2720 O   0  0  0  0  0  0  0  0  0  0  0  0
  124.0910  131.2470   62.3220 S   0  0  0  0  0  0  0  0  0  0  0  0
  125.0710  130.8080   63.3220 O   0  0  0  0  0  0  0  0  0  0  0  0
  123.8970  132.9940   62.4750 N   0  0  0  0  0  0  0  0  0  0  0  0
  124.7090  133.9250   61.6570 C   0  0  0  0  0  0  0  0  0  0  0  0
  124.1220  135.3560   61.7810 C   0  0  0  0  0  0  0  0  0  0  0  0
  124.6470  136.4220   60.8000 C   0  0  0  0  0  0  0  0  0  0  0  0
  125.9110  137.1520   61.2880 C   0  0  0  0  0  0  0  0  0  0  0  0
  126.9640  136.2770   61.9920 C   0  0  0  0  0  0  0  0  0  0  0  0
  127.1390  134.8350   61.4760 C   0  0  0  0  0  0  0  0  0  0  0  0
  126.1920  133.7710   62.0660 C   0  0  0  0  0  0  0  0  0  0  0  0
  124.8180  131.0200   60.7030 C   0  0  0  0  0  0  0  0  0  0  0  0
  124.0190  130.6590   59.6160 C   0  0  0  0  0  0  0  0  0  0  0  0
  124.6120  130.3670   58.3910 C   0  0  0  0  0  0  0  0  0  0  0  0
  126.0010  130.4370   58.2590 C   0  0  0  0  0  0  0  0  0  0  0  0
  126.7780  129.9260   56.7280 S   0  0  0  0  0  0  0  0  0  0  0  0
  127.5250  131.0790   56.2080 O   0  0  0  0  0  0  0  0  0  0  0  0
  125.7470  129.2790   55.9060 O   0  0  0  0  0  0  0  0  0  0  0  0
  127.9450  128.6860   57.2260 N   0  0  0  0  0  0  0  0  0  0  0  0
  128.1220  127.5790   56.2510 C   0  0  0  0  0  0  0  0  0  0  0  0
  128.8980  126.4120   56.8930 C   0  0  0  0  0  0  0  0  0  0  0  0
  130.2330  126.8850   57.5190 C   0  0  0  0  0  0  0  0  0  0  0  0
  130.9980  125.7490   58.2040 C   0  0  0  0  0  0  0  0  0  0  0  0
  132.3550  125.5490   57.9120 C   0  0  0  0  0  0  0  0  0  0  0  0
  133.0920  124.5310   58.5190 C   0  0  0  0  0  0  0  0  0  0  0  0
  134.4190  124.3530   58.2240 O   0  0  0  0  0  0  0  0  0  0  0  0
  132.4390  123.6990   59.4410 C   0  0  0  0  0  0  0  0  0  0  0  0
  132.8990  122.6530   60.1880 N   0  0  0  0  0  0  0  0  0  0  0  0
  131.8500  122.2000   60.9570 N   0  0  0  0  0  0  0  0  0  0  0  0
  130.7560  122.9250   60.6550 N   0  0  0  0  0  0  0  0  0  0  0  0
  129.5130  122.7160   61.3860 C   0  0  0  0  0  0  0  0  0  0  0  0
  128.2800  123.0210   60.5470 C   0  0  0  0  0  0  0  0  0  0  0  0
  127.1700  123.6420   61.1300 C   0  0  0  0  0  0  0  0  0  0  0  0
  126.0470  123.9430   60.3580 C   0  0  0  0  0  0  0  0  0  0  0  0
  126.0280  123.6250   58.9990 C   0  0  0  0  0  0  0  0  0  0  0  0
  127.1320  123.0080   58.4110 C   0  0  0  0  0  0  0  0  0  0  0  0
  127.1160  122.6230   56.7290 Cl  0  0  0  0  0  0  0  0  0  0  0  0
  128.2550  122.7030   59.1850 C   0  0  0  0  0  0  0  0  0  0  0  0
  131.0670  123.9020   59.7230 C   0  0  0  0  0  0  0  0  0  0  0  0
  130.3260  124.9190   59.1140 C   0  0  0  0  0  0  0  0  0  0  0  0
  130.0470  128.1220   58.4370 C   0  0  0  0  0  0  0  0  0  0  0  0
  129.2250  129.2300   57.7500 C   0  0  0  0  0  0  0  0  0  0  0  0
  126.7950  130.8390   59.3360 C   0  0  0  0  0  0  0  0  0  0  0  0
  126.2020  131.1280   60.5600 C   0  0  0  0  0  0  0  0  0  0  0  0
  1  2  2  0
  2  3  2  0
  2  4  1  0
  4  5  1  0
  5  6  1  0
  6  7  1  0
  7  8  1  0
  8  9  1  0
  9 10  1  0
 10 11  1  0
  2 12  1  0
 12 13  2  0
 13 14  1  0
 14 15  2  0
 15 16  1  0
 16 17  2  0
 16 18  2  0
 16 19  1  0
 19 20  1  0
 20 21  1  0
 21 22  1  0
 22 23  1  0
 23 24  2  0
 24 25  1  0
 25 26  1  0
 25 27  2  0
 27 28  1  0
 28 29  2  0
 29 30  1  0
 30 31  1  0
 31 32  1  0
 32 33  2  0
 33 34  1  0
 34 35  2  0
 35 36  1  0
 36 37  1  0
 36 38  2  0
 30 39  1  0
 39 40  2  0
 22 41  1  0
 41 42  1  0
 15 43  1  0
 43 44  2  0
 11  5  1  0
 44 12  1  0
 42 19  1  0
 40 23  1  0
 39 27  1  0
 38 32  1  0
M  END
>  <Binding energies>  (43) 
[-11.24]

>  <Ligand effiencies>  (43) 
[-0.23416666666666666]

>  <Interactions>  (43) 
["V-A:MET:535:CE:4833, V-B:ASP:366:CG:8184, V-A:ASP:366:CG:3210, H-A:TYR:539:OH:4876, V-A:ASP:366:CB:3209, V-A:TYR:539:CZ:4875, V-B:ASP:366:CB:8183, V-A:TYR:539:CE1:4873, H-B:TYR:531:OH:9767, V-B:PRO:540:CA:9855, V-B:ALA:541:CB:9864, V-B:PRO:540:CB:9857, V-B:MET:535:CE:9807, V-A:ASP:366:CA:3207, V-B:ILE:538:CA:9832, V-B:PRO:540:N:9856, V-B:TYR:539:C:9839, V-B:TYR:539:CE1:9847, V-B:TYR:539:CD1:9845, V-A:TYR:539:CD1:4871, V-B:ILE:369:CD1:8210, V-A:ALA:541:CB:4890, V-B:ILE:369:CG2:8208, V-B:TYR:539:CZ:9849, H-B:TYR:539:OH:9850, V-B:PRO:482:CB:9297, V-B:SER:385:CA:8378, V-B:PRO:482:CG:9298, V-B:LEU:475:CD2:9230, V-B:SER:385:CB:8380, V-B:LEU:373:CD1:8251, H-B:GLY:454:N:9021, H-B:ASN:370:ND2:8219, V-B:ASP:366:CA:8181, H-A:ASP:366:O:3206, H-B:SER:385:O:8377, V-B:SER:385:C:8376"]

$$$$
RR18_Rahimova_2017
     RDKit          3D

 36 41  0  0  0  0  0  0  0  0999 V2000
  133.1200  125.5090   56.3140 C   0  0  0  0  0  0  0  0  0  0  0  0
  132.8680  125.1440   57.7550 C   0  0  0  0  0  0  0  0  0  0  0  0
  133.6130  124.5080   58.7350 C   0  0  0  0  0  0  0  0  0  0  0  0
  132.8200  124.4680   59.8810 C   0  0  0  0  0  0  0  0  0  0  0  0
  131.6200  125.0810   59.5620 C   0  0  0  0  0  0  0  0  0  0  0  0
  130.3410  125.3750   60.3420 C   0  0  1  0  0  0  0  0  0  0  0  0
  130.1740  124.4070   61.5510 C   0  0  0  0  0  0  0  0  0  0  0  0
  129.9790  122.9770   61.3310 C   0  0  0  0  0  0  0  0  0  0  0  0
  128.8700  122.5050   61.0740 O   0  0  0  0  0  0  0  0  0  0  0  0
  131.1120  122.2420   61.4190 N   0  0  0  0  0  0  0  0  0  0  0  0
  131.3100  120.8510   61.2890 C   0  0  0  0  0  0  0  0  0  0  0  0
  130.2690  119.9080   61.3770 C   0  0  0  0  0  0  0  0  0  0  0  0
  130.5330  118.5460   61.2460 C   0  0  0  0  0  0  0  0  0  0  0  0
  131.8360  118.1040   61.0330 C   0  0  0  0  0  0  0  0  0  0  0  0
  132.8780  119.0250   60.9560 C   0  0  0  0  0  0  0  0  0  0  0  0
  132.6280  120.3950   61.0850 C   0  0  0  0  0  0  0  0  0  0  0  0
  133.8050  121.3630   60.9970 C   0  0  0  0  0  0  0  0  0  0  0  0
  130.3180  124.9080   62.8060 C   0  0  0  0  0  0  0  0  0  0  0  0
  130.4820  126.2270   63.1010 N   0  0  0  0  0  0  0  0  0  0  0  0
  130.4240  127.0960   62.1610 C   0  0  0  0  0  0  0  0  0  0  0  0
  130.4660  128.8260   62.4040 S   0  0  0  0  0  0  0  0  0  0  0  0
  130.2980  129.1310   60.6470 C   0  0  0  0  0  0  0  0  0  0  0  0
  130.2460  130.3540   60.0150 C   0  0  0  0  0  0  0  0  0  0  0  0
  130.2460  131.5960   60.8010 C   0  0  0  0  0  0  0  0  0  0  0  0
  130.3130  131.7630   62.0190 O   0  0  0  0  0  0  0  0  0  0  0  0
  130.1350  132.6130   59.9410 N   0  0  0  0  0  0  0  0  0  0  0  0
  130.0920  132.2080   58.6410 C   0  0  0  0  0  0  0  0  0  0  0  0
  129.9950  133.0030   57.5000 C   0  0  0  0  0  0  0  0  0  0  0  0
  129.9980  132.3890   56.2510 C   0  0  0  0  0  0  0  0  0  0  0  0
  130.1080  131.0030   56.1640 C   0  0  0  0  0  0  0  0  0  0  0  0
  130.2040  130.2270   57.3220 C   0  0  0  0  0  0  0  0  0  0  0  0
  130.1790  130.8270   58.5950 C   0  0  0  0  0  0  0  0  0  0  0  0
  130.2080  127.8360   59.9710 C   0  0  0  0  0  0  0  0  0  0  0  0
  130.0340  127.6500   58.7700 O   0  0  0  0  0  0  0  0  0  0  0  0
  130.3170  126.7960   60.8410 N   0  0  0  0  0  0  0  0  0  0  0  0
  131.6570  125.4890   58.2650 O   0  0  0  0  0  0  0  0  0  0  0  0
  1  2  1  0
  2  3  2  0
  3  4  1  0
  4  5  2  0
  6  5  1  1
  6  7  1  0
  7  8  1  0
  8  9  2  0
  8 10  1  0
 10 11  1  0
 11 12  2  0
 12 13  1  0
 13 14  2  0
 14 15  1  0
 15 16  2  0
 16 17  1  0
  7 18  2  0
 18 19  1  0
 19 20  2  0
 20 21  1  0
 21 22  1  0
 22 23  2  0
 23 24  1  0
 24 25  2  0
 24 26  1  0
 26 27  1  0
 27 28  2  0
 28 29  1  0
 29 30  2  0
 30 31  1  0
 31 32  2  0
 22 33  1  0
 33 34  2  0
 33 35  1  0
  5 36  1  0
 36  2  1  0
 35  6  1  0
 16 11  1  0
 35 20  1  0
 32 23  1  0
 32 27  1  0
M  END
>  <Binding energies>  (44) 
[-8.92]

>  <Ligand effiencies>  (44) 
[-0.23473684210526316]

>  <Interactions>  (44) 
["V-A:MET:535:CE:4833, V-A:ASP:366:CG:3210, V-A:TYR:531:CZ:4792, H-A:ALA:541:N:4889, V-A:PRO:540:CB:4883, V-A:PRO:540:CA:4881, V-A:ASP:366:CB:3209, V-A:ILE:538:CA:4858, V-B:ALA:541:CB:9864, V-A:ASP:366:CA:3207, V-A:ASP:366:C:3205, V-A:LEU:475:CD2:4256, V-B:TYR:539:CE1:9847, V-B:TYR:539:CD1:9845, V-A:PRO:540:C:4879, V-A:TYR:539:CD1:4871, V-A:PRO:540:N:4882, V-A:TYR:539:CA:4867, V-A:TYR:539:C:4865, V-A:TYR:539:CG:4870, V-A:ILE:369:CB:3233, V-B:TYR:539:CZ:9849, V-A:ILE:369:CD1:3236, V-A:ILE:369:CG2:3234, V-A:PRO:540:CD:4885, H-A:ARG:545:NH2:4926, H-B:ALA:541:N:9863, V-A:GLU:543:CD:4906, V-A:TYR:531:CE1:4790, V-A:PRO:482:CG:4324, V-A:SER:385:CB:3406, V-A:PRO:482:CB:4323, V-A:SER:385:CA:3404, V-A:LEU:373:CD1:3277, H-A:TYR:539:O:4866, V-A:ASN:370:CB:3242"]

$$$$
RR20_Rahimova_2017
     RDKit          3D

 38 43  0  0  0  0  0  0  0  0999 V2000
  133.1350  115.3460   59.1960 C   0  0  0  0  0  0  0  0  0  0  0  0
  132.5600  116.6290   59.7690 C   0  0  0  0  0  0  0  0  0  0  0  0
  131.1840  116.8510   59.7300 C   0  0  0  0  0  0  0  0  0  0  0  0
  130.6540  118.0230   60.2640 C   0  0  0  0  0  0  0  0  0  0  0  0
  131.4970  118.9880   60.8280 C   0  0  0  0  0  0  0  0  0  0  0  0
  130.8990  120.2440   61.4210 C   0  0  0  0  0  0  0  0  0  0  0  0
  129.7480  120.1770   61.8590 O   0  0  0  0  0  0  0  0  0  0  0  0
  131.6470  121.3860   61.4620 N   0  0  0  0  0  0  0  0  0  0  0  0
  133.1160  121.3490   61.3880 C   0  0  0  0  0  0  0  0  0  0  0  0
  133.5770  122.7940   61.3070 C   0  0  0  0  0  0  0  0  0  0  0  0
  132.3180  123.5280   60.9610 C   0  0  0  0  0  0  0  0  0  0  0  0
  132.1390  124.8810   60.6730 C   0  0  0  0  0  0  0  0  0  0  0  0
  130.8530  125.4170   60.5320 C   0  0  0  0  0  0  0  0  0  0  0  0
  130.6600  126.8730   60.2130 C   0  0  0  0  0  0  0  0  0  0  0  0
  130.2580  127.6810   61.1810 N   0  0  0  0  0  0  0  0  0  0  0  0
  130.1430  128.9270   60.7960 C   0  0  0  0  0  0  0  0  0  0  0  0
  129.7520  130.0220   61.5520 N   0  0  0  0  0  0  0  0  0  0  0  0
  129.1940  131.1700   61.0960 C   0  0  0  0  0  0  0  0  0  0  0  0
  128.9340  131.3860   59.9110 O   0  0  0  0  0  0  0  0  0  0  0  0
  128.8380  132.2650   62.1290 C   0  0  0  0  0  0  0  0  0  0  0  0
  127.6730  133.0770   61.7300 N   0  0  0  0  0  0  0  0  0  0  0  0
  126.4290  132.6280   62.3720 C   0  0  0  0  0  0  0  0  0  0  0  0
  125.2130  133.3270   61.7240 C   0  0  0  0  0  0  0  0  0  0  0  0
  125.4170  134.8310   61.5390 C   0  0  0  0  0  0  0  0  0  0  0  0
  124.3430  135.6700   61.2220 C   0  0  0  0  0  0  0  0  0  0  0  0
  124.5360  137.0340   61.0150 C   0  0  0  0  0  0  0  0  0  0  0  0
  125.8120  137.5770   61.1260 C   0  0  0  0  0  0  0  0  0  0  0  0
  126.8880  136.7540   61.4500 C   0  0  0  0  0  0  0  0  0  0  0  0
  126.7090  135.3820   61.6590 C   0  0  0  0  0  0  0  0  0  0  0  0
  127.8800  134.4900   62.0710 C   0  0  0  0  0  0  0  0  0  0  0  0
  130.5280  129.2000   59.1420 S   0  0  0  0  0  0  0  0  0  0  0  0
  130.8610  127.4940   58.9610 C   0  0  0  0  0  0  0  0  0  0  0  0
  131.2590  126.9290   57.6150 C   0  0  0  0  0  0  0  0  0  0  0  0
  129.7500  124.5750   60.7430 C   0  0  0  0  0  0  0  0  0  0  0  0
  129.9260  123.2260   61.0500 C   0  0  0  0  0  0  0  0  0  0  0  0
  131.2160  122.6840   61.1030 C   0  0  0  0  0  0  0  0  0  0  0  0
  132.8750  118.7440   60.8900 C   0  0  0  0  0  0  0  0  0  0  0  0
  133.4060  117.5710   60.3570 C   0  0  0  0  0  0  0  0  0  0  0  0
  1  2  1  0
  2  3  2  0
  3  4  1  0
  4  5  2  0
  5  6  1  0
  6  7  2  0
  6  8  1  0
  8  9  1  0
  9 10  1  0
 10 11  1  0
 11 12  2  0
 12 13  1  0
 13 14  1  0
 14 15  1  0
 15 16  2  0
 16 17  1  0
 17 18  1  0
 18 19  2  0
 18 20  1  0
 20 21  1  0
 21 22  1  0
 22 23  1  0
 23 24  1  0
 24 25  2  0
 25 26  1  0
 26 27  2  0
 27 28  1  0
 28 29  2  0
 29 30  1  0
 16 31  1  0
 31 32  1  0
 32 33  1  0
 13 34  2  0
 34 35  1  0
 35 36  2  0
  5 37  1  0
 37 38  2  0
 38  2  1  0
 36  8  1  0
 36 11  1  0
 32 14  2  0
 30 21  1  0
 29 24  1  0
M  END
>  <Binding energies>  (45) 
[-10.91]

>  <Ligand effiencies>  (45) 
[-0.27974358974358976]

>  <Interactions>  (45) 
["V-A:ASP:366:CG:3210, V-A:ASP:366:CB:3209, V-A:TYR:539:CE1:4873, V-B:ALA:541:CB:9864, V-A:LEU:475:CD2:4256, V-B:TYR:539:C:9839, V-B:TYR:539:CE1:9847, V-B:TYR:539:CD1:9845, V-A:TYR:539:CD1:4871, V-A:ALA:541:CB:4890, V-B:ILE:369:CG2:8208, V-B:TYR:539:CG:9844, V-A:ILE:369:CD1:3236, V-A:ILE:369:CG2:3234, V-B:PRO:482:CB:9297, V-B:SER:385:CA:8378, V-B:PRO:482:CG:9298, V-B:LEU:475:CD2:9230, V-B:SER:385:CB:8380, V-B:LEU:373:CD1:8251, H-A:ARG:545:NH2:4926, H-B:ALA:541:N:9863, V-A:GLU:543:CD:4906, H-A:GLU:543:OE2:4908, H-A:GLU:543:OE1:4907, V-A:PRO:482:CG:4324, V-A:SER:385:CB:3406, V-A:SER:385:CA:3404, V-B:TYR:539:CB:9843, V-A:HIS:383:CG:3387, V-A:LEU:373:CD2:3278, V-A:HIS:383:CB:3386, V-A:LEU:373:CD1:3277, V-A:VAL:384:C:3394, V-B:VAL:344:CG1:7972, V-A:ALA:541:CA:4888, V-A:HIS:383:CA:3384, V-A:HIS:383:CD2:3389"]

$$$$
RR21_Rahimova_2017
     RDKit          3D

 40 45  0  0  0  0  0  0  0  0999 V2000
  123.1420  124.5500   57.6160 C   0  0  0  0  0  0  0  0  0  0  0  0
  123.5380  123.5390   58.5370 O   0  0  0  0  0  0  0  0  0  0  0  0
  124.7360  123.6730   59.2140 C   0  0  0  0  0  0  0  0  0  0  0  0
  124.8590  123.6570   60.6140 C   0  0  0  0  0  0  0  0  0  0  0  0
  126.1070  123.7970   61.2190 C   0  0  0  0  0  0  0  0  0  0  0  0
  127.2630  123.9520   60.4440 C   0  0  0  0  0  0  0  0  0  0  0  0
  128.6030  124.0960   61.0970 C   0  0  0  0  0  0  0  0  0  0  0  0
  129.5550  123.2200   60.8410 N   0  0  0  0  0  0  0  0  0  0  0  0
  130.6270  123.5970   61.5530 N   0  0  0  0  0  0  0  0  0  0  0  0
  131.8480  122.8750   61.4930 C   0  0  0  0  0  0  0  0  0  0  0  0
  133.0540  123.4720   61.8910 C   0  0  0  0  0  0  0  0  0  0  0  0
  134.2450  122.7520   61.8320 C   0  0  0  0  0  0  0  0  0  0  0  0
  134.2340  121.4360   61.3760 C   0  0  0  0  0  0  0  0  0  0  0  0
  133.0440  120.8340   60.9750 C   0  0  0  0  0  0  0  0  0  0  0  0
  131.8520  121.5510   61.0320 C   0  0  0  0  0  0  0  0  0  0  0  0
  130.3500  124.7420   62.2570 C   0  0  0  0  0  0  0  0  0  0  0  0
  129.0340  125.0950   62.0000 C   0  0  0  0  0  0  0  0  0  0  0  0
  128.3050  126.2570   62.4830 C   0  0  0  0  0  0  0  0  0  0  0  0
  127.5930  127.1570   61.7660 C   0  0  0  0  0  0  0  0  0  0  0  0
  127.3410  127.1970   60.0070 S   0  0  0  0  0  0  0  0  0  0  0  0
  126.3400  128.6300   60.1970 C   0  0  0  0  0  0  0  0  0  0  0  0
  125.7220  129.2970   59.2720 N   0  0  0  0  0  0  0  0  0  0  0  0
  124.9280  130.4400   59.5640 C   0  0  0  0  0  0  0  0  0  0  0  0
  124.2960  131.1120   58.7500 O   0  0  0  0  0  0  0  0  0  0  0  0
  124.8950  130.8000   61.0240 C   0  0  0  0  0  0  0  0  0  0  0  0
  124.0860  132.0290   61.4580 C   0  0  0  0  0  0  0  0  0  0  0  0
  124.8730  133.3380   61.4420 C   0  0  0  0  0  0  0  0  0  0  0  0
  126.2690  133.3160   61.4940 C   0  0  0  0  0  0  0  0  0  0  0  0
  126.9870  134.5090   61.4620 C   0  0  0  0  0  0  0  0  0  0  0  0
  126.3110  135.7270   61.3770 C   0  0  0  0  0  0  0  0  0  0  0  0
  127.0980  137.0240   61.3300 C   0  0  0  0  0  0  0  0  0  0  0  0
  124.9150  135.7510   61.3130 C   0  0  0  0  0  0  0  0  0  0  0  0
  124.1980  134.5590   61.3450 C   0  0  0  0  0  0  0  0  0  0  0  0
  125.5220  130.1290   61.9350 N   0  0  0  0  0  0  0  0  0  0  0  0
  126.2580  129.0160   61.5090 N   0  0  0  0  0  0  0  0  0  0  0  0
  126.9190  128.2670   62.4250 C   0  0  0  0  0  0  0  0  0  0  0  0
  126.9360  128.4940   63.6410 O   0  0  0  0  0  0  0  0  0  0  0  0
  127.1400  123.9750   59.0510 C   0  0  0  0  0  0  0  0  0  0  0  0
  125.8920  123.8360   58.4440 C   0  0  0  0  0  0  0  0  0  0  0  0
  125.8090  123.8610   57.0930 F   0  0  0  0  0  0  0  0  0  0  0  0
  1  2  1  0
  2  3  1  0
  3  4  2  0
  4  5  1  0
  5  6  2  0
  6  7  1  0
  7  8  2  0
  8  9  1  0
  9 10  1  0
 10 11  2  0
 11 12  1  0
 12 13  2  0
 13 14  1  0
 14 15  2  0
  9 16  1  0
 16 17  2  0
 17 18  1  0
 18 19  2  0
 19 20  1  0
 20 21  1  0
 21 22  2  0
 22 23  1  0
 23 24  2  0
 23 25  1  0
 25 26  1  0
 26 27  1  0
 27 28  2  0
 28 29  1  0
 29 30  2  0
 30 31  1  0
 30 32  1  0
 32 33  2  0
 25 34  2  0
 34 35  1  0
 35 36  1  0
 36 37  2  0
  6 38  1  0
 38 39  2  0
 39 40  1  0
 39  3  1  0
 17  7  1  0
 36 19  1  0
 15 10  1  0
 35 21  1  0
 33 27  1  0
M  END
>  <Binding energies>  (46) 
[-9.52]

>  <Ligand effiencies>  (46) 
[-0.238]

>  <Interactions>  (46) 
["V-B:ASP:366:CG:8184, H-A:TYR:539:OH:4876, V-B:ASP:366:CB:8183, V-A:TYR:539:CE1:4873, V-B:PRO:540:CA:9855, V-B:LEU:363:CA:8156, V-B:PRO:540:CB:9857, V-B:LEU:363:CD1:8160, V-A:LEU:475:CD2:4256, V-B:GLU:543:CD:9880, V-B:TYR:539:CE1:9847, V-B:TYR:539:CD1:9845, V-A:TYR:539:CD1:4871, V-B:ILE:369:CD1:8210, V-B:ILE:369:CG2:8208, V-A:ILE:369:CD1:3236, V-B:TYR:531:CE2:9765, V-A:ILE:369:CG1:3235, V-A:ILE:369:CG2:3234, V-B:PRO:482:CB:9297, V-B:SER:385:CA:8378, V-B:PRO:482:CG:9298, V-B:LEU:475:CD2:9230, V-B:LEU:373:CD1:8251, V-A:GLY:454:CA:4046, V-B:TYR:531:CZ:9766, H-B:ARG:545:NH2:9900, V-A:SER:385:C:3402, V-B:LEU:363:CB:8158, V-A:TYR:539:CB:4869, V-B:LEU:363:CG:8159, V-B:LEU:363:C:8154, H-B:LEU:363:N:8157"]

$$$$
RR23_Rahimova_2017
     RDKit          3D

 39 44  0  0  0  0  0  0  0  0999 V2000
  131.3750  116.2870   59.9070 C   0  0  0  0  0  0  0  0  0  0  0  0
  131.7840  117.6770   60.3580 C   0  0  0  0  0  0  0  0  0  0  0  0
  130.8360  118.5400   60.9100 C   0  0  0  0  0  0  0  0  0  0  0  0
  131.2150  119.8120   61.3330 C   0  0  0  0  0  0  0  0  0  0  0  0
  132.5420  120.2350   61.1960 C   0  0  0  0  0  0  0  0  0  0  0  0
  132.9370  121.6120   61.6800 C   0  0  0  0  0  0  0  0  0  0  0  0
  133.5890  121.6850   62.7240 O   0  0  0  0  0  0  0  0  0  0  0  0
  132.5760  122.7090   60.9490 N   0  0  0  0  0  0  0  0  0  0  0  0
  133.5830  123.5910   60.3380 C   0  0  0  0  0  0  0  0  0  0  0  0
  132.8150  124.5970   59.4950 C   0  0  0  0  0  0  0  0  0  0  0  0
  131.4550  123.9760   59.3920 C   0  0  0  0  0  0  0  0  0  0  0  0
  130.3470  124.4050   58.6620 C   0  0  0  0  0  0  0  0  0  0  0  0
  129.1040  123.7720   58.8210 C   0  0  0  0  0  0  0  0  0  0  0  0
  127.8590  124.2120   58.0370 C   0  0  2  0  0  0  0  0  0  0  0  0
  127.8220  125.6440   57.8300 N   0  0  0  0  0  0  0  0  0  0  0  0
  126.6300  126.0890   57.8060 C   0  0  0  0  0  0  0  0  0  0  0  0
  126.2180  127.3770   57.6600 N   0  0  0  0  0  0  0  0  0  0  0  0
  126.9690  128.5040   57.6440 C   0  0  0  0  0  0  0  0  0  0  0  0
  128.1990  128.5470   57.7230 O   0  0  0  0  0  0  0  0  0  0  0  0
  126.1850  129.8210   57.5210 C   0  0  0  0  0  0  0  0  0  0  0  0
  126.0870  130.4530   58.8560 N   0  0  0  0  0  0  0  0  0  0  0  0
  127.2820  130.5560   59.5560 N   0  0  0  0  0  0  0  0  0  0  0  0
  127.3320  131.0880   60.7350 N   0  0  0  0  0  0  0  0  0  0  0  0
  126.1640  131.5760   61.3270 C   0  0  0  0  0  0  0  0  0  0  0  0
  126.2510  132.1420   62.6000 C   0  0  0  0  0  0  0  0  0  0  0  0
  125.1020  132.6380   63.2180 C   0  0  0  0  0  0  0  0  0  0  0  0
  123.8680  132.5670   62.5660 C   0  0  0  0  0  0  0  0  0  0  0  0
  123.7790  132.0000   61.2930 C   0  0  0  0  0  0  0  0  0  0  0  0
  124.9320  131.5050   60.6730 C   0  0  0  0  0  0  0  0  0  0  0  0
  124.8560  130.8850   59.2980 C   0  0  0  0  0  0  0  0  0  0  0  0
  123.8090  130.7700   58.6530 O   0  0  0  0  0  0  0  0  0  0  0  0
  125.3150  124.8940   58.0040 S   0  0  0  0  0  0  0  0  0  0  0  0
  126.5220  123.7140   58.6330 C   0  0  2  0  0  0  0  0  0  0  0  0
  126.4250  123.6670   60.1730 C   0  0  0  0  0  0  0  0  0  0  0  0
  128.9880  122.7390   59.7580 C   0  0  0  0  0  0  0  0  0  0  0  0
  130.0920  122.3240   60.5040 C   0  0  0  0  0  0  0  0  0  0  0  0
  131.3470  122.9060   60.2810 C   0  0  0  0  0  0  0  0  0  0  0  0
  133.4940  119.3530   60.6670 C   0  0  0  0  0  0  0  0  0  0  0  0
  133.1150  118.0820   60.2460 C   0  0  0  0  0  0  0  0  0  0  0  0
  1  2  1  0
  2  3  2  0
  3  4  1  0
  4  5  2  0
  5  6  1  0
  6  7  2  0
  6  8  1  0
  8  9  1  0
  9 10  1  0
 10 11  1  0
 11 12  2  0
 12 13  1  0
 14 13  1  1
 14 15  1  0
 15 16  2  0
 16 17  1  0
 17 18  1  0
 18 19  2  0
 18 20  1  0
 20 21  1  0
 21 22  1  0
 22 23  2  0
 23 24  1  0
 24 25  2  0
 25 26  1  0
 26 27  2  0
 27 28  1  0
 28 29  2  0
 29 30  1  0
 30 31  2  0
 16 32  1  0
 32 33  1  0
 33 34  1  1
 13 35  2  0
 35 36  1  0
 36 37  2  0
  5 38  1  0
 38 39  2  0
 39  2  1  0
 37  8  1  0
 37 11  1  0
 33 14  1  0
 30 21  1  0
 29 24  1  0
M  END
>  <Binding energies>  (47) 
[-10.59]

>  <Ligand effiencies>  (47) 
[-0.26475]

>  <Interactions>  (47) 
["V-B:ASP:366:CG:8184, V-A:ASP:366:CG:3210, H-A:TYR:539:OH:4876, V-A:TYR:539:CZ:4875, V-B:ASP:366:CB:8183, V-A:TYR:539:CE1:4873, H-B:TYR:531:OH:9767, V-B:PRO:540:CA:9855, V-B:PRO:540:CB:9857, V-A:LEU:475:CD2:4256, V-B:TYR:539:C:9839, V-B:TYR:539:CE1:9847, V-B:TYR:539:CD1:9845, V-B:ILE:369:CD1:8210, V-B:ILE:369:CG2:8208, V-B:TYR:539:CZ:9849, V-A:ILE:369:CD1:3236, V-A:ILE:369:CG2:3234, V-B:LEU:475:CD2:9230, V-B:GLY:454:CA:9020, H-A:GLY:454:N:4047, V-B:TYR:531:CZ:9766, H-B:ASP:366:OD2:8186, V-B:ILE:369:CB:8207, V-A:PRO:482:CG:4324, V-A:SER:385:CB:3406, V-A:PRO:482:CB:4323, V-A:SER:385:CA:3404, V-B:TYR:539:CB:9843, V-A:LEU:373:CD1:3277, V-B:VAL:344:CG1:7972, V-A:SER:385:C:3402"]

$$$$
RR26_Rahimova_2017
     RDKit          3D

 38 44  0  0  0  0  0  0  0  0999 V2000
  128.5540  130.8500   57.6110 C   0  0  0  0  0  0  0  0  0  0  0  0
  129.9840  131.3000   57.3400 C   0  0  0  0  0  0  0  0  0  0  0  0
  130.1830  132.5460   56.7350 C   0  0  0  0  0  0  0  0  0  0  0  0
  131.4700  133.0260   56.5000 C   0  0  0  0  0  0  0  0  0  0  0  0
  132.5730  132.2640   56.8750 C   0  0  0  0  0  0  0  0  0  0  0  0
  132.3880  131.0220   57.4780 C   0  0  0  0  0  0  0  0  0  0  0  0
  131.0990  130.5190   57.7150 C   0  0  0  0  0  0  0  0  0  0  0  0
  130.9890  129.1650   58.3560 C   0  0  0  0  0  0  0  0  0  0  0  0
  130.9760  128.0410   57.6450 N   0  0  0  0  0  0  0  0  0  0  0  0
  130.8830  127.1320   58.5780 C   0  0  0  0  0  0  0  0  0  0  0  0
  130.7930  125.4100   58.6230 S   0  0  0  0  0  0  0  0  0  0  0  0
  130.7120  125.4850   60.4240 C   0  0  0  0  0  0  0  0  0  0  0  0
  130.6110  124.4530   61.2910 C   0  0  0  0  0  0  0  0  0  0  0  0
  130.5510  123.0320   60.9900 C   0  0  0  0  0  0  0  0  0  0  0  0
  131.4760  122.0490   61.3090 C   0  0  0  0  0  0  0  0  0  0  0  0
  130.9850  120.8480   60.8650 N   0  0  0  0  0  0  0  0  0  0  0  0
  131.5780  119.5630   60.9720 C   0  0  0  0  0  0  0  0  0  0  0  0
  130.8660  118.4870   61.5210 C   0  0  0  0  0  0  0  0  0  0  0  0
  131.4610  117.2320   61.6240 C   0  0  0  0  0  0  0  0  0  0  0  0
  132.7660  117.0490   61.1750 C   0  0  0  0  0  0  0  0  0  0  0  0
  133.4830  118.1090   60.6240 C   0  0  0  0  0  0  0  0  0  0  0  0
  132.8920  119.3650   60.5230 C   0  0  0  0  0  0  0  0  0  0  0  0
  129.7780  121.0180   60.3040 N   0  0  0  0  0  0  0  0  0  0  0  0
  129.5110  122.3070   60.3660 C   0  0  0  0  0  0  0  0  0  0  0  0
  128.2240  122.8300   59.8070 C   0  0  0  0  0  0  0  0  0  0  0  0
  127.4050  123.6700   60.5780 C   0  0  0  0  0  0  0  0  0  0  0  0
  126.2010  124.1600   60.0670 C   0  0  0  0  0  0  0  0  0  0  0  0
  125.8060  123.8110   58.7780 C   0  0  0  0  0  0  0  0  0  0  0  0
  126.6250  122.9870   57.9910 C   0  0  0  0  0  0  0  0  0  0  0  0
  127.8230  122.4940   58.5060 C   0  0  0  0  0  0  0  0  0  0  0  0
  126.2530  122.5790   56.7250 O   0  0  0  0  0  0  0  0  0  0  0  0
  125.2330  123.3860   56.1270 C   0  0  0  0  0  0  0  0  0  0  0  0
  124.1060  123.6830   57.1460 C   0  0  0  0  0  0  0  0  0  0  0  0
  124.6330  124.3560   58.2950 O   0  0  0  0  0  0  0  0  0  0  0  0
  130.7510  126.8560   60.9240 C   0  0  0  0  0  0  0  0  0  0  0  0
  130.7100  127.2600   62.0880 O   0  0  0  0  0  0  0  0  0  0  0  0
  130.8490  127.6910   59.8010 N   0  0  0  0  0  0  0  0  0  0  0  0
  130.9220  129.0190   59.6700 N   0  0  0  0  0  0  0  0  0  0  0  0
  1  2  1  0
  2  3  2  0
  3  4  1  0
  4  5  2  0
  5  6  1  0
  6  7  2  0
  7  8  1  0
  8  9  1  0
  9 10  2  0
 10 11  1  0
 11 12  1  0
 12 13  2  0
 13 14  1  0
 14 15  2  0
 15 16  1  0
 16 17  1  0
 17 18  2  0
 18 19  1  0
 19 20  2  0
 20 21  1  0
 21 22  2  0
 16 23  1  0
 23 24  2  0
 24 25  1  0
 25 26  2  0
 26 27  1  0
 27 28  2  0
 28 29  1  0
 29 30  2  0
 29 31  1  0
 31 32  1  0
 32 33  1  0
 33 34  1  0
 12 35  1  0
 35 36  2  0
 35 37  1  0
 37 38  1  0
  7  2  1  0
 38  8  2  0
 37 10  1  0
 24 14  1  0
 30 25  1  0
 22 17  1  0
 34 28  1  0
M  END
>  <Binding energies>  (48) 
[-9.87]

>  <Ligand effiencies>  (48) 
[-0.25973684210526315]

>  <Interactions>  (48) 
["V-A:ASP:366:CG:3210, V-A:TYR:531:CE2:4791, V-A:PRO:540:CB:4883, H-A:TYR:531:OH:4793, V-A:ILE:538:CA:4858, V-A:LEU:363:CD1:3186, H-B:TYR:531:OH:9767, V-B:PRO:540:CA:9855, V-B:LEU:363:CA:8156, V-B:PRO:540:CB:9857, V-B:LEU:363:CD1:8160, V-B:ILE:538:CG2:9835, V-B:ILE:538:CB:9834, V-B:PRO:540:N:9856, V-A:LEU:475:CD2:4256, V-B:TYR:539:C:9839, V-B:TYR:539:CE1:9847, V-B:TYR:539:CD1:9845, V-A:PRO:540:N:4882, V-A:TYR:539:C:4865, H-B:TYR:539:N:9842, V-B:TYR:531:CE2:9765, V-A:ILE:369:CG2:3234, V-A:ILE:538:CB:4860, V-A:PRO:540:CD:4885, V-A:ILE:538:CG2:4861, V-A:ILE:538:C:4856, V-B:TYR:531:CZ:9766, H-A:ARG:545:NH2:4926, V-A:PRO:482:CG:4324, V-A:SER:385:CB:3406, V-A:PRO:482:CB:4323, V-A:SER:385:CA:3404, V-A:LEU:373:CD1:3277, V-A:VAL:384:C:3394, V-A:LEU:475:CG:4254"]

$$$$
RR2_Rahimova_2017
     RDKit          3D

 46 50  0  0  0  0  0  0  0  0999 V2000
  124.1220  132.3760   61.0010 C   0  0  0  0  0  0  0  0  0  0  0  0
  123.8410  131.8810   59.6970 O   0  0  0  0  0  0  0  0  0  0  0  0
  124.6100  130.8520   59.1860 C   0  0  0  0  0  0  0  0  0  0  0  0
  125.7720  130.3560   59.7930 C   0  0  0  0  0  0  0  0  0  0  0  0
  126.4860  129.3180   59.2010 C   0  0  0  0  0  0  0  0  0  0  0  0
  126.0600  128.7550   57.9910 C   0  0  0  0  0  0  0  0  0  0  0  0
  126.8590  127.6290   57.3630 C   0  0  0  0  0  0  0  0  0  0  0  0
  127.8740  127.8790   56.7030 O   0  0  0  0  0  0  0  0  0  0  0  0
  126.3800  126.3800   57.5660 N   0  0  0  0  0  0  0  0  0  0  0  0
  127.0220  125.3200   56.9350 N   0  0  0  0  0  0  0  0  0  0  0  0
  126.3430  124.1660   56.7760 C   0  0  0  0  0  0  0  0  0  0  0  0
  125.2560  123.9100   57.3020 O   0  0  0  0  0  0  0  0  0  0  0  0
  126.9980  123.1360   55.8470 C   0  0  0  0  0  0  0  0  0  0  0  0
  128.6510  122.5560   56.3760 S   0  0  0  0  0  0  0  0  0  0  0  0
  129.4020  124.0880   56.8370 C   0  0  0  0  0  0  0  0  0  0  0  0
  130.2340  124.7370   56.0620 N   0  0  0  0  0  0  0  0  0  0  0  0
  130.6790  125.8470   56.7640 N   0  0  0  0  0  0  0  0  0  0  0  0
  130.0750  125.8450   57.9290 C   0  0  0  0  0  0  0  0  0  0  0  0
  130.2850  126.9010   58.9650 C   0  0  0  0  0  0  0  0  0  0  0  0
  129.6760  128.1500   58.8180 C   0  0  0  0  0  0  0  0  0  0  0  0
  129.8720  129.1420   59.7740 C   0  0  0  0  0  0  0  0  0  0  0  0
  130.6670  128.8880   60.8980 C   0  0  0  0  0  0  0  0  0  0  0  0
  130.9080  129.8530   61.8870 N   0  0  0  0  0  0  0  0  0  0  0  0
  131.1890  131.5800   61.5700 S   0  0  0  0  0  0  0  0  0  0  0  0
  132.5790  131.8410   61.9610 O   0  0  0  0  0  0  0  0  0  0  0  0
  130.0830  132.3380   62.1680 O   0  0  0  0  0  0  0  0  0  0  0  0
  131.1130  131.7470   59.7890 C   0  0  0  0  0  0  0  0  0  0  0  0
  132.2260  131.4510   58.9980 C   0  0  0  0  0  0  0  0  0  0  0  0
  132.1520  131.6030   57.6160 C   0  0  0  0  0  0  0  0  0  0  0  0
  130.9660  132.0450   57.0250 C   0  0  0  0  0  0  0  0  0  0  0  0
  130.8920  132.2240   55.5200 C   0  0  0  0  0  0  0  0  0  0  0  0
  129.8560  132.3440   57.8190 C   0  0  0  0  0  0  0  0  0  0  0  0
  129.9290  132.1930   59.2000 C   0  0  0  0  0  0  0  0  0  0  0  0
  131.2720  127.6400   61.0450 C   0  0  0  0  0  0  0  0  0  0  0  0
  131.0820  126.6490   60.0860 C   0  0  0  0  0  0  0  0  0  0  0  0
  129.2450  124.7430   58.0440 N   0  0  0  0  0  0  0  0  0  0  0  0
  128.4580  124.3500   59.1470 C   0  0  0  0  0  0  0  0  0  0  0  0
  128.4020  123.0060   59.5190 C   0  0  0  0  0  0  0  0  0  0  0  0
  127.6270  122.6260   60.6110 C   0  0  0  0  0  0  0  0  0  0  0  0
  126.9050  123.5750   61.3360 C   0  0  0  0  0  0  0  0  0  0  0  0
  126.1640  123.1020   62.4020 O   0  0  0  0  0  0  0  0  0  0  0  0
  124.8310  123.5680   62.5840 C   0  0  0  0  0  0  0  0  0  0  0  0
  126.9670  124.9250   60.9530 C   0  0  0  0  0  0  0  0  0  0  0  0
  127.7420  125.3110   59.8640 C   0  0  0  0  0  0  0  0  0  0  0  0
  124.8920  129.2530   57.3920 C   0  0  0  0  0  0  0  0  0  0  0  0
  124.1790  130.2900   57.9860 C   0  0  0  0  0  0  0  0  0  0  0  0
  1  2  1  0
  2  3  1  0
  3  4  2  0
  4  5  1  0
  5  6  2  0
  6  7  1  0
  7  8  2  0
  7  9  1  0
  9 10  1  0
 10 11  1  0
 11 12  2  0
 11 13  1  0
 13 14  1  0
 14 15  1  0
 15 16  2  0
 16 17  1  0
 17 18  2  0
 18 19  1  0
 19 20  2  0
 20 21  1  0
 21 22  2  0
 22 23  1  0
 23 24  1  0
 24 25  2  0
 24 26  2  0
 24 27  1  0
 27 28  2  0
 28 29  1  0
 29 30  2  0
 30 31  1  0
 30 32  1  0
 32 33  2  0
 22 34  1  0
 34 35  2  0
 18 36  1  0
 36 37  1  0
 37 38  2  0
 38 39  1  0
 39 40  2  0
 40 41  1  0
 41 42  1  0
 40 43  1  0
 43 44  2  0
  6 45  1  0
 45 46  2  0
 46  3  1  0
 36 15  1  0
 44 37  1  0
 35 19  1  0
 33 27  1  0
M  END
>  <Binding energies>  (49) 
[-11.03]

>  <Ligand effiencies>  (49) 
[-0.2251020408163265]

>  <Interactions>  (49) 
["V-A:MET:535:CE:4833, V-B:ASP:366:CG:8184, V-A:ASP:366:CG:3210, H-A:ALA:541:N:4889, H-A:TYR:539:OH:4876, V-A:PRO:540:CB:4883, V-A:PRO:540:CA:4881, H-A:TYR:531:OH:4793, V-A:ILE:538:CA:4858, V-A:TYR:539:CZ:4875, V-B:ASP:366:CB:8183, V-A:TYR:539:CE1:4873, H-B:TYR:531:OH:9767, V-B:PRO:540:CA:9855, V-B:ALA:541:C:9860, V-B:MET:535:CE:9807, V-B:ASN:362:CB:8147, V-B:ILE:538:CG2:9835, V-B:ILE:538:CB:9834, V-B:ILE:538:CA:9832, V-B:PRO:540:N:9856, V-B:TYR:539:C:9839, V-B:TYR:539:CE1:9847, V-B:PRO:540:C:9853, V-B:ILE:369:CD1:8210, V-A:PRO:540:N:4882, V-A:TYR:539:C:4865, V-B:ILE:369:CG2:8208, H-B:TYR:539:N:9842, V-B:TYR:539:CZ:9849, V-B:ARG:545:CZ:9898, H-B:TYR:539:OH:9850, V-A:ILE:538:CB:4860, V-A:ILE:538:CG2:4861, V-B:TYR:531:CZ:9766, H-B:ASP:366:OD2:8186, V-B:ILE:369:CB:8207, H-A:ARG:545:NH2:4926, H-B:ALA:541:N:9863, V-A:GLU:543:CD:4906, H-A:GLU:543:OE2:4908, H-A:GLU:543:OE1:4907, V-B:TYR:531:CE1:9764, V-B:ASP:366:CA:8181, V-B:ASP:366:C:8179, V-B:ASN:362:CG:8148"]

$$$$
RR33_Rahimova_2017
     RDKit          3D

 18 19  0  0  0  0  0  0  0  0999 V2000
  133.0930  114.9660   61.7440 C   0  0  0  0  0  0  0  0  0  0  0  0
  132.8240  115.0460   60.2380 C   0  0  0  0  0  0  0  0  0  0  0  0
  133.2190  116.3330   59.7710 O   0  0  0  0  0  0  0  0  0  0  0  0
  132.5160  117.4490   60.1820 C   0  0  0  0  0  0  0  0  0  0  0  0
  133.2320  118.6420   60.2580 C   0  0  0  0  0  0  0  0  0  0  0  0
  132.6090  119.8180   60.6660 C   0  0  0  0  0  0  0  0  0  0  0  0
  131.2530  119.8170   61.0060 C   0  0  0  0  0  0  0  0  0  0  0  0
  130.5840  121.0800   61.4450 C   0  0  0  0  0  0  0  0  0  0  0  0
  129.5160  121.6450   60.9260 N   0  0  0  0  0  0  0  0  0  0  0  0
  129.3100  122.7340   61.6510 C   0  0  0  0  0  0  0  0  0  0  0  0
  128.1440  123.6530   61.3590 C   0  0  0  0  0  0  0  0  0  0  0  0
  126.9690  123.2490   62.1160 N   0  0  0  0  0  0  0  0  0  0  0  0
  125.8100  124.0320   61.7210 C   0  0  0  0  0  0  0  0  0  0  0  0
  130.2850  122.8290   62.6370 C   0  0  0  0  0  0  0  0  0  0  0  0
  130.5940  123.8010   63.7500 C   0  0  0  0  0  0  0  0  0  0  0  0
  131.1040  121.7620   62.4990 O   0  0  0  0  0  0  0  0  0  0  0  0
  130.5290  118.6230   60.9270 C   0  0  0  0  0  0  0  0  0  0  0  0
  131.1530  117.4460   60.5200 C   0  0  0  0  0  0  0  0  0  0  0  0
  1  2  1  0
  2  3  1  0
  3  4  1  0
  4  5  2  0
  5  6  1  0
  6  7  2  0
  7  8  1  0
  8  9  2  0
  9 10  1  0
 10 11  1  0
 11 12  1  0
 12 13  1  0
 10 14  2  0
 14 15  1  0
 14 16  1  0
  7 17  1  0
 17 18  2  0
 18  4  1  0
 16  8  1  0
M  END
>  <Binding energies>  (50) 
[-6.3]

>  <Ligand effiencies>  (50) 
[-0.33157894736842103]

>  <Interactions>  (50) 
["V-B:PRO:540:CA:9855, V-B:ALA:541:CB:9864, V-A:LEU:475:CD2:4256, V-B:GLU:543:CD:9880, V-B:TYR:539:CE1:9847, V-B:TYR:539:CD1:9845, V-A:ILE:369:CG2:3234, H-B:ALA:541:N:9863, V-A:PRO:482:CG:4324, V-A:SER:385:CB:3406, V-A:PRO:482:CB:4323, V-A:SER:385:CA:3404, V-B:TYR:539:CB:9843, V-A:HIS:383:CG:3387, V-A:HIS:383:CB:3386, V-A:LEU:373:CD1:3277, H-B:ALA:541:O:9861, H-B:GLU:543:OE1:9881, V-A:THR:477:CA:4267, V-A:CYS:476:C:4261, V-A:THR:477:CG2:4270, V-A:THR:477:CB:4269"]

$$$$
RR3_Rahimova_2017
     RDKit          3D

 38 44  0  0  0  0  0  0  0  0999 V2000
  132.9610  115.0060   58.9300 C   0  0  0  0  0  0  0  0  0  0  0  0
  131.6590  115.4970   58.9040 C   0  0  0  0  0  0  0  0  0  0  0  0
  131.3720  116.7210   59.5010 C   0  0  0  0  0  0  0  0  0  0  0  0
  132.3780  117.4700   60.1290 C   0  0  0  0  0  0  0  0  0  0  0  0
  132.0670  118.7870   60.7690 C   0  0  0  0  0  0  0  0  0  0  0  0
  130.7580  119.1130   61.1470 C   0  0  0  0  0  0  0  0  0  0  0  0
  130.4690  120.3400   61.7390 C   0  0  0  0  0  0  0  0  0  0  0  0
  131.4850  121.2740   61.9590 C   0  0  0  0  0  0  0  0  0  0  0  0
  131.1800  122.5960   62.5900 C   0  0  0  0  0  0  0  0  0  0  0  0
  131.8700  123.0020   63.6500 N   0  0  0  0  0  0  0  0  0  0  0  0
  131.4230  124.1960   63.9540 C   0  0  0  0  0  0  0  0  0  0  0  0
  131.9050  125.0190   65.0610 C   0  0  0  0  0  0  0  0  0  0  0  0
  133.2260  125.1600   65.4500 C   0  0  0  0  0  0  0  0  0  0  0  0
  133.3160  126.0140   66.5180 N   0  0  0  0  0  0  0  0  0  0  0  0
  132.0610  126.4600   66.8690 C   0  0  0  0  0  0  0  0  0  0  0  0
  131.6510  127.3330   67.8820 C   0  0  0  0  0  0  0  0  0  0  0  0
  130.2850  127.5900   67.9830 C   0  0  0  0  0  0  0  0  0  0  0  0
  129.3630  127.0070   67.1200 C   0  0  0  0  0  0  0  0  0  0  0  0
  129.7700  126.1380   66.1090 C   0  0  0  0  0  0  0  0  0  0  0  0
  131.1380  125.8450   65.9640 C   0  0  0  0  0  0  0  0  0  0  0  0
  130.4290  124.5790   63.0970 N   0  0  0  0  0  0  0  0  0  0  0  0
  130.2250  123.5550   62.2090 C   0  0  0  0  0  0  0  0  0  0  0  0
  129.1670  123.5930   61.1550 C   0  0  0  0  0  0  0  0  0  0  0  0
  127.8430  123.3000   61.4820 C   0  0  0  0  0  0  0  0  0  0  0  0
  126.8570  123.3220   60.5020 C   0  0  0  0  0  0  0  0  0  0  0  0
  127.1690  123.6420   59.1720 C   0  0  0  0  0  0  0  0  0  0  0  0
  126.1090  123.6450   58.1160 C   0  0  0  0  0  0  0  0  0  0  0  0
  126.4090  123.2800   56.7950 C   0  0  0  0  0  0  0  0  0  0  0  0
  125.4210  123.2790   55.8120 C   0  0  0  0  0  0  0  0  0  0  0  0
  124.1200  123.6440   56.1430 C   0  0  0  0  0  0  0  0  0  0  0  0
  123.8000  124.0090   57.4470 C   0  0  0  0  0  0  0  0  0  0  0  0
  124.7900  124.0100   58.4250 C   0  0  0  0  0  0  0  0  0  0  0  0
  128.5000  123.9510   58.8600 C   0  0  0  0  0  0  0  0  0  0  0  0
  129.4900  123.9290   59.8390 C   0  0  0  0  0  0  0  0  0  0  0  0
  132.7950  120.9530   61.5980 C   0  0  0  0  0  0  0  0  0  0  0  0
  133.0800  119.7260   61.0050 C   0  0  0  0  0  0  0  0  0  0  0  0
  133.6830  116.9550   60.1430 C   0  0  0  0  0  0  0  0  0  0  0  0
  133.9750  115.7320   59.5480 C   0  0  0  0  0  0  0  0  0  0  0  0
  1  2  2  0
  2  3  1  0
  3  4  2  0
  4  5  1  0
  5  6  2  0
  6  7  1  0
  7  8  2  0
  8  9  1  0
  9 10  1  0
 10 11  2  0
 11 12  1  0
 12 13  2  0
 13 14  1  0
 14 15  1  0
 15 16  2  0
 16 17  1  0
 17 18  2  0
 18 19  1  0
 19 20  2  0
 11 21  1  0
 21 22  1  0
 22 23  1  0
 23 24  2  0
 24 25  1  0
 25 26  2  0
 26 27  1  0
 27 28  2  0
 28 29  1  0
 29 30  2  0
 30 31  1  0
 31 32  2  0
 26 33  1  0
 33 34  2  0
  8 35  1  0
 35 36  2  0
  4 37  1  0
 37 38  2  0
 38  1  1  0
 36  5  1  0
 22  9  2  0
 34 23  1  0
 20 12  1  0
 32 27  1  0
 20 15  1  0
M  END
>  <Binding energies>  (51) 
[-9.59]

>  <Ligand effiencies>  (51) 
[-0.23975]

>  <Interactions>  (51) 
["V-B:ASP:366:CG:8184, V-B:ASP:366:CB:8183, V-B:PRO:540:CA:9855, V-B:ALA:541:CB:9864, V-B:LEU:363:CA:8156, V-B:PRO:540:CB:9857, V-B:LEU:363:CD1:8160, V-B:ILE:538:CG2:9835, V-B:ILE:538:CB:9834, V-A:LEU:475:CD2:4256, V-B:GLU:543:CD:9880, V-B:TYR:539:CE1:9847, V-B:TYR:539:CD1:9845, V-B:PRO:540:C:9853, V-B:TYR:539:CG:9844, V-B:TYR:531:CE2:9765, V-A:ILE:369:CG2:3234, V-A:GLY:454:CA:4046, H-A:TYR:484:OH:4345, V-B:TYR:531:CZ:9766, V-A:ARG:545:CG:4920, V-A:ARG:545:CD:4921, V-A:HIS:456:CE1:4066, V-A:ARG:545:CZ:4924, V-A:GLU:543:CD:4906, V-A:GLU:543:CG:4905, V-A:PRO:482:CG:4324, V-A:SER:385:CB:3406, V-A:PRO:482:CB:4323, V-A:SER:385:CA:3404, V-B:TYR:539:CB:9843, V-A:HIS:383:CG:3387, V-A:LEU:373:CD2:3278, V-B:GLU:543:CB:9878, V-B:GLU:543:CG:9879, V-A:HIS:383:CB:3386, V-A:LEU:373:CD1:3277, H-B:GLU:543:OE1:9881, V-A:VAL:384:C:3394, V-B:VAL:344:CG1:7972, V-B:LEU:363:CB:8158, V-A:HIS:383:CA:3384, V-B:ILE:343:CD1:7965, V-A:HIS:383:CD2:3389, V-A:HIS:383:CE1:3391, H-A:HIS:456:ND1:4064, V-A:LEU:373:CG:3276, V-A:HIS:383:C:3382, H-A:ILE:455:O:4050, V-A:ARG:545:CB:4919, V-B:TYR:531:CD2:9763"]

$$$$
RR4_Rahimova_2017
     RDKit          3D

 40 44  0  0  0  0  0  0  0  0999 V2000
  123.6890  130.9780   59.5050 C   0  0  0  0  0  0  0  0  0  0  0  0
  124.4940  130.6800   58.3710 O   0  0  0  0  0  0  0  0  0  0  0  0
  125.5820  129.8410   58.5180 C   0  0  0  0  0  0  0  0  0  0  0  0
  126.1970  129.4030   57.3470 C   0  0  0  0  0  0  0  0  0  0  0  0
  127.3000  128.5570   57.3980 C   0  0  0  0  0  0  0  0  0  0  0  0
  127.8210  128.1200   58.6250 C   0  0  0  0  0  0  0  0  0  0  0  0
  129.0120  127.2050   58.6770 C   0  0  0  0  0  0  0  0  0  0  0  0
  129.6810  126.9000   59.8670 C   0  0  0  0  0  0  0  0  0  0  0  0
  130.7850  126.0370   59.8630 C   0  0  0  0  0  0  0  0  0  0  0  0
  131.4320  125.7350   61.1760 C   0  0  0  0  0  0  0  0  0  0  0  0
  132.7300  125.2180   61.2160 C   0  0  0  0  0  0  0  0  0  0  0  0
  133.3450  124.9440   62.4350 C   0  0  0  0  0  0  0  0  0  0  0  0
  132.6780  125.1880   63.6350 C   0  0  0  0  0  0  0  0  0  0  0  0
  133.3670  124.8870   64.7950 O   0  0  0  0  0  0  0  0  0  0  0  0
  133.0210  125.5590   66.0020 C   0  0  0  0  0  0  0  0  0  0  0  0
  131.3780  125.7130   63.6000 C   0  0  0  0  0  0  0  0  0  0  0  0
  130.7650  125.9850   62.3800 C   0  0  0  0  0  0  0  0  0  0  0  0
  131.2230  125.5060   58.6250 C   0  0  0  0  0  0  0  0  0  0  0  0
  132.3720  124.5980   58.5660 C   0  0  0  0  0  0  0  0  0  0  0  0
  133.2790  123.8810   58.5180 N   0  0  0  0  0  0  0  0  0  0  0  0
  130.5180  125.8800   57.4590 C   0  0  0  0  0  0  0  0  0  0  0  0
  130.9340  125.3210   55.8210 S   0  0  0  0  0  0  0  0  0  0  0  0
  129.7660  123.9940   55.3720 C   0  0  0  0  0  0  0  0  0  0  0  0
  128.9360  123.4520   56.5440 C   0  0  0  0  0  0  0  0  0  0  0  0
  128.8790  122.2400   56.7640 O   0  0  0  0  0  0  0  0  0  0  0  0
  128.2930  124.3980   57.2680 N   0  0  0  0  0  0  0  0  0  0  0  0
  127.4710  124.2280   58.3840 C   0  0  0  0  0  0  0  0  0  0  0  0
  128.0690  124.2910   60.0210 S   0  0  0  0  0  0  0  0  0  0  0  0
  126.4860  123.9920   60.6700 C   0  0  0  0  0  0  0  0  0  0  0  0
  125.5300  123.8460   59.6530 C   0  0  0  0  0  0  0  0  0  0  0  0
  126.0870  123.9950   58.3590 C   0  0  0  0  0  0  0  0  0  0  0  0
  125.3030  123.9070   57.1310 C   0  0  0  0  0  0  0  0  0  0  0  0
  124.6820  123.8360   56.1570 N   0  0  0  0  0  0  0  0  0  0  0  0
  124.0480  123.6120   59.9710 C   0  0  0  0  0  0  0  0  0  0  0  0
  123.7450  123.9640   61.4450 C   0  0  0  0  0  0  0  0  0  0  0  0
  124.7930  123.3790   62.4080 C   0  0  0  0  0  0  0  0  0  0  0  0
  126.1970  123.9720   62.1660 C   0  0  0  0  0  0  0  0  0  0  0  0
  129.4340  126.6910   57.4940 N   0  0  0  0  0  0  0  0  0  0  0  0
  127.1970  128.5690   59.8000 C   0  0  0  0  0  0  0  0  0  0  0  0
  126.0930  129.4160   59.7520 C   0  0  0  0  0  0  0  0  0  0  0  0
  1  2  1  0
  2  3  1  0
  3  4  2  0
  4  5  1  0
  5  6  2  0
  6  7  1  0
  7  8  2  0
  8  9  1  0
  9 10  1  0
 10 11  2  0
 11 12  1  0
 12 13  2  0
 13 14  1  0
 14 15  1  0
 13 16  1  0
 16 17  2  0
  9 18  2  0
 18 19  1  0
 19 20  3  0
 18 21  1  0
 21 22  1  0
 22 23  1  0
 23 24  1  0
 24 25  2  0
 24 26  1  0
 26 27  1  0
 27 28  1  0
 28 29  1  0
 29 30  2  0
 30 31  1  0
 31 32  1  0
 32 33  3  0
 30 34  1  0
 34 35  1  0
 35 36  1  0
 36 37  1  0
 21 38  2  0
  6 39  1  0
 39 40  2  0
 40  3  1  0
 38  7  1  0
 17 10  1  0
 31 27  2  0
 37 29  1  0
M  END
>  <Binding energies>  (52) 
[-10.07]

>  <Ligand effiencies>  (52) 
[-0.24560975609756097]

>  <Interactions>  (52) 
["V-B:ASP:366:CG:8184, V-A:ASP:366:CG:3210, H-A:TYR:539:OH:4876, H-A:TYR:531:OH:4793, V-B:ASP:366:CB:8183, H-B:TYR:531:OH:9767, V-B:PRO:540:CA:9855, V-B:LEU:363:CA:8156, V-B:PRO:540:CB:9857, V-B:ALA:541:C:9860, V-B:MET:535:CE:9807, V-B:ASN:362:CB:8147, V-B:ASN:362:C:8143, V-B:GLU:543:CD:9880, V-B:TYR:539:CE1:9847, V-B:TYR:539:CD1:9845, V-B:ILE:369:CD1:8210, V-B:ILE:369:CG2:8208, H-B:TYR:539:N:9842, V-B:TYR:539:CZ:9849, V-B:TYR:531:CE2:9765, V-B:ARG:545:CZ:9898, H-B:TYR:539:OH:9850, H-A:GLY:454:N:4047, H-A:TYR:484:OH:4345, V-B:TYR:539:CE2:9848, V-B:ILE:369:CB:8207, V-A:ARG:545:CG:4920, V-A:ARG:545:CD:4921, V-A:HIS:456:CE1:4066, V-A:ARG:545:CZ:4924, V-B:ASP:366:CA:8181, H-A:ASN:370:ND2:3245, H-A:ARG:545:NE:4922, V-B:ASN:362:CA:8145, V-B:ASN:362:CG:8148"]

$$$$
RR6_Rahimova_2017
     RDKit          3D

 38 41  0  0  0  0  0  0  0  0999 V2000
  132.3070  132.2740   56.4630 C   0  0  0  0  0  0  0  0  0  0  0  0
  131.1850  133.0750   56.8090 O   0  0  0  0  0  0  0  0  0  0  0  0
  130.0660  132.5180   57.3390 C   0  0  0  0  0  0  0  0  0  0  0  0
  129.0440  133.1610   57.5980 O   0  0  0  0  0  0  0  0  0  0  0  0
  130.1930  131.0400   57.5770 C   0  0  0  0  0  0  0  0  0  0  0  0
  130.7750  130.5230   58.7440 C   0  0  0  0  0  0  0  0  0  0  0  0
  130.8860  129.1470   58.9320 C   0  0  0  0  0  0  0  0  0  0  0  0
  130.4170  128.2630   57.9490 C   0  0  0  0  0  0  0  0  0  0  0  0
  130.5040  126.8600   58.0240 N   0  0  0  0  0  0  0  0  0  0  0  0
  130.8640  125.9730   57.0710 C   0  0  0  0  0  0  0  0  0  0  0  0
  131.2030  126.2570   55.9220 O   0  0  0  0  0  0  0  0  0  0  0  0
  130.7710  124.4970   57.4730 C   0  0  0  0  0  0  0  0  0  0  0  0
  129.4210  124.1400   58.6470 S   0  0  0  0  0  0  0  0  0  0  0  0
  130.1850  123.5620   60.1480 C   0  0  0  0  0  0  0  0  0  0  0  0
  130.5030  122.2450   60.1420 N   0  0  0  0  0  0  0  0  0  0  0  0
  131.1170  121.6960   61.2200 C   0  0  0  0  0  0  0  0  0  0  0  0
  131.4900  120.2470   61.1080 C   0  0  0  0  0  0  0  0  0  0  0  0
  130.5540  119.2370   61.3820 C   0  0  0  0  0  0  0  0  0  0  0  0
  130.9040  117.8920   61.2910 C   0  0  0  0  0  0  0  0  0  0  0  0
  132.1980  117.5310   60.9190 C   0  0  0  0  0  0  0  0  0  0  0  0
  132.5770  116.0650   60.8300 C   0  0  0  0  0  0  0  0  0  0  0  0
  133.1410  118.5180   60.6400 C   0  0  0  0  0  0  0  0  0  0  0  0
  132.7860  119.8600   60.7320 C   0  0  0  0  0  0  0  0  0  0  0  0
  131.4150  122.4710   62.3450 C   0  0  0  0  0  0  0  0  0  0  0  0
  131.0920  123.8350   62.3780 C   0  0  0  0  0  0  0  0  0  0  0  0
  131.4560  124.6070   63.6030 C   0  0  0  0  0  0  0  0  0  0  0  0
  130.4550  125.1430   64.4190 C   0  0  0  0  0  0  0  0  0  0  0  0
  130.7840  125.8510   65.5720 C   0  0  0  0  0  0  0  0  0  0  0  0
  132.1180  126.0310   65.9350 C   0  0  0  0  0  0  0  0  0  0  0  0
  132.3510  126.7440   67.0950 O   0  0  0  0  0  0  0  0  0  0  0  0
  131.2650  127.4150   67.7260 C   0  0  0  0  0  0  0  0  0  0  0  0
  133.1270  125.4900   65.1230 C   0  0  0  0  0  0  0  0  0  0  0  0
  132.7930  124.7830   63.9710 C   0  0  0  0  0  0  0  0  0  0  0  0
  130.4520  124.4020   61.2480 C   0  0  0  0  0  0  0  0  0  0  0  0
  130.0610  125.8150   61.2280 C   0  0  0  0  0  0  0  0  0  0  0  0
  129.7540  126.9310   61.2110 N   0  0  0  0  0  0  0  0  0  0  0  0
  129.8220  128.7730   56.7950 C   0  0  0  0  0  0  0  0  0  0  0  0
  129.7150  130.1490   56.6080 C   0  0  0  0  0  0  0  0  0  0  0  0
  1  2  1  0
  2  3  1  0
  3  4  2  0
  3  5  1  0
  5  6  2  0
  6  7  1  0
  7  8  2  0
  8  9  1  0
  9 10  1  0
 10 11  2  0
 10 12  1  0
 12 13  1  0
 13 14  1  0
 14 15  2  0
 15 16  1  0
 16 17  1  0
 17 18  2  0
 18 19  1  0
 19 20  2  0
 20 21  1  0
 20 22  1  0
 22 23  2  0
 16 24  2  0
 24 25  1  0
 25 26  1  0
 26 27  2  0
 27 28  1  0
 28 29  2  0
 29 30  1  0
 30 31  1  0
 29 32  1  0
 32 33  2  0
 25 34  2  0
 34 35  1  0
 35 36  3  0
  8 37  1  0
 37 38  2  0
 38  5  1  0
 34 14  1  0
 23 17  1  0
 33 26  1  0
M  END
>  <Binding energies>  (53) 
[-9.45]

>  <Ligand effiencies>  (53) 
[-0.24230769230769228]

>  <Interactions>  (53) 
["V-A:MET:535:CE:4833, V-A:ASP:366:CG:3210, V-A:TYR:531:CE2:4791, H-A:TYR:531:OH:4793, V-A:LEU:363:CD1:3186, H-A:TYR:539:N:4868, V-B:ALA:541:CB:9864, V-A:LEU:475:CD2:4256, V-B:GLU:543:CD:9880, V-B:TYR:539:CE1:9847, V-B:TYR:539:CD1:9845, V-A:PRO:540:N:4882, V-A:TYR:539:C:4865, V-B:TYR:539:CZ:9849, V-A:ILE:369:CG2:3234, V-A:ILE:538:CB:4860, V-A:PRO:540:CD:4885, V-A:ILE:538:CG2:4861, V-A:ARG:545:CG:4920, V-A:ARG:545:CD:4921, V-A:HIS:456:CE1:4066, V-A:ARG:545:CZ:4924, V-A:GLU:543:CD:4906, V-A:GLU:543:CG:4905, V-A:PRO:482:CG:4324, V-A:SER:385:CB:3406, V-A:PRO:482:CB:4323, V-A:SER:385:CA:3404, V-A:LEU:373:CD1:3277, H-A:ARG:545:NE:4922"]

$$$$
RR7_Rahimova_2017
     RDKit          3D

 47 53  0  0  0  0  0  0  0  0999 V2000
  123.8580  130.7850   62.4770 C   0  0  0  0  0  0  0  0  0  0  0  0
  124.5440  131.7570   61.6940 O   0  0  0  0  0  0  0  0  0  0  0  0
  125.7430  131.4160   61.0980 C   0  0  0  0  0  0  0  0  0  0  0  0
  126.8550  132.1750   61.4570 C   0  0  0  0  0  0  0  0  0  0  0  0
  128.1060  131.9030   60.9120 C   0  0  0  0  0  0  0  0  0  0  0  0
  128.2730  130.8660   59.9820 C   0  0  0  0  0  0  0  0  0  0  0  0
  129.6700  130.5170   59.3800 C   0  0  0  0  0  0  0  0  0  0  0  0
  129.6590  129.0940   59.1280 O   0  0  0  0  0  0  0  0  0  0  0  0
  130.0670  128.1800   60.1520 C   0  0  0  0  0  0  0  0  0  0  0  0
  128.8210  127.6780   60.8990 C   0  0  1  0  0  0  0  0  0  0  0  0
  128.6670  126.3010   60.5660 O   0  0  0  0  0  0  0  0  0  0  0  0
  128.6970  125.4820   61.7000 C   0  0  1  0  0  0  0  0  0  0  0  0
  129.3010  124.2040   61.3760 N   0  0  0  0  0  0  0  0  0  0  0  0
  128.6890  123.0830   60.8430 C   0  0  0  0  0  0  0  0  0  0  0  0
  129.4650  122.0380   60.6930 N   0  0  0  0  0  0  0  0  0  0  0  0
  130.6700  122.4510   61.1940 C   0  0  0  0  0  0  0  0  0  0  0  0
  131.9080  121.7940   61.3330 C   0  0  0  0  0  0  0  0  0  0  0  0
  132.0210  120.4640   60.8870 N   0  0  0  0  0  0  0  0  0  0  0  0
  131.1640  119.4310   61.0630 C   0  0  0  0  0  0  0  0  0  0  0  0
  130.1050  119.5060   61.6920 O   0  0  0  0  0  0  0  0  0  0  0  0
  131.5930  118.1120   60.4550 C   0  0  0  0  0  0  0  0  0  0  0  0
  130.6340  117.2770   59.8620 C   0  0  0  0  0  0  0  0  0  0  0  0
  131.0080  116.0630   59.2920 C   0  0  0  0  0  0  0  0  0  0  0  0
  132.3450  115.6760   59.3060 C   0  0  0  0  0  0  0  0  0  0  0  0
  133.3120  116.4930   59.8860 C   0  0  0  0  0  0  0  0  0  0  0  0
  132.9390  117.7070   60.4580 C   0  0  0  0  0  0  0  0  0  0  0  0
  132.9580  122.4630   61.8980 N   0  0  0  0  0  0  0  0  0  0  0  0
  132.7510  123.7430   62.3020 C   0  0  0  0  0  0  0  0  0  0  0  0
  131.6050  124.4700   62.2130 N   0  0  0  0  0  0  0  0  0  0  0  0
  130.5960  123.7920   61.6500 C   0  0  0  0  0  0  0  0  0  0  0  0
  129.4350  126.2920   62.7600 C   0  0  0  0  0  0  0  0  0  0  0  0
  128.9350  127.6880   62.4310 C   0  0  2  0  0  0  0  0  0  0  0  0
  127.6990  127.9730   63.0630 O   0  0  0  0  0  0  0  0  0  0  0  0
  129.9170  131.2170   58.0180 C   0  0  0  0  0  0  0  0  0  0  0  0
  129.1880  132.3650   57.6690 C   0  0  0  0  0  0  0  0  0  0  0  0
  129.3920  132.9930   56.4450 C   0  0  0  0  0  0  0  0  0  0  0  0
  130.3280  132.4780   55.5530 C   0  0  0  0  0  0  0  0  0  0  0  0
  131.0620  131.3410   55.8780 C   0  0  0  0  0  0  0  0  0  0  0  0
  130.8570  130.7120   57.1030 C   0  0  0  0  0  0  0  0  0  0  0  0
  130.8970  130.8770   60.2650 C   0  0  0  0  0  0  0  0  0  0  0  0
  132.1200  131.2300   59.6720 C   0  0  0  0  0  0  0  0  0  0  0  0
  133.2270  131.5450   60.4540 C   0  0  0  0  0  0  0  0  0  0  0  0
  133.1240  131.5020   61.8420 C   0  0  0  0  0  0  0  0  0  0  0  0
  131.9260  131.1420   62.4510 C   0  0  0  0  0  0  0  0  0  0  0  0
  130.8200  130.8280   61.6660 C   0  0  0  0  0  0  0  0  0  0  0  0
  127.1530  130.0960   59.6360 C   0  0  0  0  0  0  0  0  0  0  0  0
  125.9020  130.3670   60.1810 C   0  0  0  0  0  0  0  0  0  0  0  0
  1  2  1  0
  2  3  1  0
  3  4  2  0
  4  5  1  0
  5  6  2  0
  6  7  1  0
  7  8  1  0
  8  9  1  0
 10  9  1  6
 10 11  1  0
 11 12  1  0
 12 13  1  6
 13 14  1  0
 14 15  2  0
 15 16  1  0
 16 17  2  0
 17 18  1  0
 18 19  1  0
 19 20  2  0
 19 21  1  0
 21 22  2  0
 22 23  1  0
 23 24  2  0
 24 25  1  0
 25 26  2  0
 17 27  1  0
 27 28  2  0
 28 29  1  0
 29 30  2  0
 12 31  1  0
 31 32  1  0
 32 33  1  1
  7 34  1  0
 34 35  2  0
 35 36  1  0
 36 37  2  0
 37 38  1  0
 38 39  2  0
  7 40  1  0
 40 41  2  0
 41 42  1  0
 42 43  2  0
 43 44  1  0
 44 45  2  0
  6 46  1  0
 46 47  2  0
 47  3  1  0
 32 10  1  0
 39 34  1  0
 45 40  1  0
 30 13  1  0
 30 16  1  0
 26 21  1  0
M  END
>  <Binding energies>  (54) 
[-10.8]

>  <Ligand effiencies>  (54) 
[-0.22040816326530613]

>  <Interactions>  (54) 
["V-A:MET:535:CE:4833, V-A:TYR:539:CE2:4874, V-A:ASP:366:CG:3210, V-A:TYR:531:CZ:4792, V-A:TYR:531:CE2:4791, V-A:PRO:540:CB:4883, V-A:PRO:540:CA:4881, V-A:ILE:538:CA:4858, V-A:TYR:539:CZ:4875, V-A:TYR:539:CE1:4873, V-A:TYR:539:CD2:4872, V-A:LEU:475:CD2:4256, V-B:GLU:543:CD:9880, V-B:TYR:539:CE1:9847, V-B:TYR:539:CD1:9845, V-A:TYR:539:CD1:4871, V-B:ILE:369:CD1:8210, V-A:TYR:539:CA:4867, V-A:ASN:362:C:3169, V-A:TYR:539:C:4865, V-A:TYR:539:CG:4870, V-B:TYR:539:CG:9844, V-A:ILE:538:CB:4860, V-A:ILE:538:CG2:4861, V-A:ILE:538:C:4856, V-B:GLY:453:CA:9015, V-A:ARG:545:CZ:4924, V-A:GLU:543:CD:4906, H-B:ARG:545:NH2:9900, V-A:ASN:362:CB:3173, V-A:PRO:482:CG:4324, V-A:SER:385:CB:3406, V-A:SER:385:CA:3404, V-B:TYR:539:CB:9843, V-A:HIS:383:CG:3387, V-A:LEU:373:CD2:3278, V-A:HIS:383:CB:3386, V-A:LEU:373:CD1:3277, H-B:GLU:543:OE1:9881, H-B:GLU:543:OE2:9882, V-A:VAL:384:C:3394, V-B:VAL:344:CG1:7972, V-A:HIS:383:CD2:3389"]

$$$$
RR8_A_Rahimova_2017
     RDKit          3D

 42 46  0  0  0  0  0  0  0  0999 V2000
  129.7540  132.4330   61.3860 O   0  0  0  0  0  0  0  0  0  0  0  0
  129.3120  131.2800   61.4460 C   0  0  0  0  0  0  0  0  0  0  0  0
  129.7070  130.2570   60.6260 O   0  0  0  0  0  0  0  0  0  0  0  0
  128.9400  130.0110   59.4800 C   0  0  1  0  0  0  0  0  0  0  0  0
  128.1880  128.8390   59.6040 O   0  0  0  0  0  0  0  0  0  0  0  0
  126.8950  128.9740   59.0200 C   0  0  2  0  0  0  0  0  0  0  0  0
  126.7080  127.8560   57.9800 C   0  0  0  0  0  0  0  0  0  0  0  0
  127.4760  126.7280   58.3760 O   0  0  0  0  0  0  0  0  0  0  0  0
  126.7410  125.7600   59.1140 C   0  0  0  0  0  0  0  0  0  0  0  0
  126.2890  124.6400   58.1890 C   0  0  0  0  0  0  0  0  0  0  0  0
  124.9280  124.3530   58.0550 C   0  0  0  0  0  0  0  0  0  0  0  0
  124.5120  123.3320   57.2040 C   0  0  0  0  0  0  0  0  0  0  0  0
  125.4570  122.6030   56.4860 C   0  0  0  0  0  0  0  0  0  0  0  0
  126.8160  122.8860   56.6090 C   0  0  0  0  0  0  0  0  0  0  0  0
  127.2320  123.9070   57.4590 C   0  0  0  0  0  0  0  0  0  0  0  0
  126.8950  130.4030   58.4600 C   0  0  1  0  0  0  0  0  0  0  0  0
  125.6450  131.0690   58.6250 O   0  0  0  0  0  0  0  0  0  0  0  0
  124.7480  130.4770   59.5570 C   0  0  0  0  0  0  0  0  0  0  0  0
  124.5320  131.4150   60.7370 C   0  0  0  0  0  0  0  0  0  0  0  0
  125.1910  132.6480   60.7730 C   0  0  0  0  0  0  0  0  0  0  0  0
  125.0050  133.5070   61.8520 C   0  0  0  0  0  0  0  0  0  0  0  0
  124.1620  133.1300   62.8970 C   0  0  0  0  0  0  0  0  0  0  0  0
  123.5080  131.9010   62.8730 C   0  0  0  0  0  0  0  0  0  0  0  0
  123.6950  131.0410   61.7930 C   0  0  0  0  0  0  0  0  0  0  0  0
  127.9070  131.1210   59.3340 C   0  0  2  0  0  0  0  0  0  0  0  0
  128.4040  132.2830   58.6750 O   0  0  0  0  0  0  0  0  0  0  0  0
  128.7880  132.1050   57.3160 C   0  0  0  0  0  0  0  0  0  0  0  0
  130.3040  132.0740   57.2050 C   0  0  0  0  0  0  0  0  0  0  0  0
  130.9230  132.2320   55.9600 C   0  0  0  0  0  0  0  0  0  0  0  0
  132.3120  132.2130   55.8650 C   0  0  0  0  0  0  0  0  0  0  0  0
  133.0800  132.0400   57.0150 C   0  0  0  0  0  0  0  0  0  0  0  0
  132.4720  131.8880   58.2590 C   0  0  0  0  0  0  0  0  0  0  0  0
  131.0820  131.9070   58.3550 C   0  0  0  0  0  0  0  0  0  0  0  0
  128.2800  130.8520   62.4490 C   0  0  0  0  0  0  0  0  0  0  0  0
  127.8590  129.5170   62.5570 C   0  0  0  0  0  0  0  0  0  0  0  0
  126.9000  129.1510   63.4970 C   0  0  0  0  0  0  0  0  0  0  0  0
  126.3350  130.1080   64.3510 C   0  0  0  0  0  0  0  0  0  0  0  0
  125.3140  129.7170   65.3530 N   0  0  0  0  0  0  0  0  0  0  0  0
  125.6840  129.1680   66.3860 O   0  0  0  0  0  0  0  0  0  0  0  0
  124.1340  129.9560   65.1140 O   0  0  0  0  0  0  0  0  0  0  0  0
  126.7540  131.4400   64.2410 C   0  0  0  0  0  0  0  0  0  0  0  0
  127.7130  131.8070   63.3020 C   0  0  0  0  0  0  0  0  0  0  0  0
  1  2  2  0
  2  3  1  0
  4  3  1  1
  4  5  1  0
  5  6  1  0
  6  7  1  6
  7  8  1  0
  8  9  1  0
  9 10  1  0
 10 11  2  0
 11 12  1  0
 12 13  2  0
 13 14  1  0
 14 15  2  0
  6 16  1  0
 16 17  1  1
 17 18  1  0
 18 19  1  0
 19 20  2  0
 20 21  1  0
 21 22  2  0
 22 23  1  0
 23 24  2  0
 16 25  1  0
 25 26  1  6
 26 27  1  0
 27 28  1  0
 28 29  2  0
 29 30  1  0
 30 31  2  0
 31 32  1  0
 32 33  2  0
  2 34  1  0
 34 35  2  0
 35 36  1  0
 36 37  2  0
 37 38  1  0
 38 39  2  0
 38 40  1  0
 37 41  1  0
 41 42  2  0
 25  4  1  0
 33 28  1  0
 42 34  1  0
 15 10  1  0
 24 19  1  0
M  CHG  2  38   1  40  -1
M  END
>  <Binding energies>  (55) 
[-10.32]

>  <Ligand effiencies>  (55) 
[-0.24571428571428572]

>  <Interactions>  (55) 
["V-A:MET:535:CE:4833, V-B:ASP:366:CG:8184, V-A:TYR:531:CE2:4791, H-A:ALA:541:N:4889, H-A:TYR:539:OH:4876, V-A:PRO:540:CB:4883, V-A:PRO:540:CA:4881, V-A:ILE:538:CA:4858, V-A:LEU:363:CD1:3186, V-A:TYR:539:CZ:4875, V-B:ASP:366:CB:8183, V-A:TYR:539:CE1:4873, V-B:PRO:540:CB:9857, V-B:LEU:363:CD1:8160, V-B:ILE:538:CG2:9835, V-B:ILE:538:CB:9834, V-B:ILE:538:CA:9832, V-B:PRO:540:CD:9859, V-B:PRO:540:N:9856, V-A:TYR:539:CD1:4871, V-B:ILE:369:CD1:8210, V-A:ALA:541:CB:4890, V-A:PRO:540:N:4882, V-B:ILE:369:CG2:8208, V-B:TYR:531:CE2:9765, V-B:ARG:545:CZ:9898, V-A:ILE:538:CB:4860, V-B:LEU:475:CD2:9230, V-A:ILE:538:CG2:4861, V-B:GLY:453:CA:9015, V-B:GLY:453:C:9013, V-B:GLY:454:CA:9020, H-B:TYR:484:OH:9319, H-B:GLY:454:N:9021, V-A:GLU:543:CD:4906, H-B:ARG:545:NE:9896"]

$$$$
RR8_B_Rahimova_2017
     RDKit          3D

 42 46  0  0  0  0  0  0  0  0999 V2000
  134.2300  123.9980   58.2190 O   0  0  0  0  0  0  0  0  0  0  0  0
  133.1700  124.2990   58.7770 C   0  0  0  0  0  0  0  0  0  0  0  0
  131.9730  124.4520   58.1320 O   0  0  0  0  0  0  0  0  0  0  0  0
  131.9260  125.3060   57.0150 C   0  0  2  0  0  0  0  0  0  0  0  0
  132.1080  126.6460   57.3750 O   0  0  0  0  0  0  0  0  0  0  0  0
  130.8610  127.2910   57.6330 C   0  0  2  0  0  0  0  0  0  0  0  0
  130.8580  127.8460   59.0690 C   0  0  0  0  0  0  0  0  0  0  0  0
  130.1240  129.0640   59.0970 O   0  0  0  0  0  0  0  0  0  0  0  0
  130.9180  130.2410   59.1090 C   0  0  0  0  0  0  0  0  0  0  0  0
  130.5670  131.0950   57.9000 C   0  0  0  0  0  0  0  0  0  0  0  0
  129.3070  131.6960   57.8180 C   0  0  0  0  0  0  0  0  0  0  0  0
  128.9700  132.4580   56.7020 C   0  0  0  0  0  0  0  0  0  0  0  0
  129.8960  132.6200   55.6740 C   0  0  0  0  0  0  0  0  0  0  0  0
  131.1560  132.0300   55.7520 C   0  0  0  0  0  0  0  0  0  0  0  0
  131.4910  131.2650   56.8660 C   0  0  0  0  0  0  0  0  0  0  0  0
  129.8090  126.2140   57.3410 C   0  0  1  0  0  0  0  0  0  0  0  0
  128.6470  126.8150   56.7620 O   0  0  0  0  0  0  0  0  0  0  0  0
  128.6450  128.2390   56.6390 C   0  0  0  0  0  0  0  0  0  0  0  0
  127.2680  128.8400   56.9080 C   0  0  0  0  0  0  0  0  0  0  0  0
  126.7400  128.8300   58.2020 C   0  0  0  0  0  0  0  0  0  0  0  0
  125.4980  129.4080   58.4500 C   0  0  0  0  0  0  0  0  0  0  0  0
  124.7860  129.9900   57.4030 C   0  0  0  0  0  0  0  0  0  0  0  0
  125.3040  129.9990   56.1100 C   0  0  0  0  0  0  0  0  0  0  0  0
  126.5490  129.4240   55.8620 C   0  0  0  0  0  0  0  0  0  0  0  0
  130.5300  125.2580   56.3960 C   0  0  2  0  0  0  0  0  0  0  0  0
  129.9250  123.9680   56.4390 O   0  0  0  0  0  0  0  0  0  0  0  0
  129.2370  123.6520   57.6400 C   0  0  0  0  0  0  0  0  0  0  0  0
  127.7590  123.5210   57.3200 C   0  0  0  0  0  0  0  0  0  0  0  0
  127.3440  123.1170   56.0470 C   0  0  0  0  0  0  0  0  0  0  0  0
  125.9850  123.0190   55.7600 C   0  0  0  0  0  0  0  0  0  0  0  0
  125.0470  123.3250   56.7430 C   0  0  0  0  0  0  0  0  0  0  0  0
  125.4530  123.7270   58.0140 C   0  0  0  0  0  0  0  0  0  0  0  0
  126.8110  123.8240   58.3030 C   0  0  0  0  0  0  0  0  0  0  0  0
  133.0660  124.5730   60.2500 C   0  0  0  0  0  0  0  0  0  0  0  0
  131.9520  125.2200   60.8040 C   0  0  0  0  0  0  0  0  0  0  0  0
  131.8870  125.4680   62.1710 C   0  0  0  0  0  0  0  0  0  0  0  0
  132.9360  125.0870   63.0160 C   0  0  0  0  0  0  0  0  0  0  0  0
  132.8760  125.3770   64.4700 N   0  0  0  0  0  0  0  0  0  0  0  0
  133.9290  125.4890   65.0920 O   0  0  0  0  0  0  0  0  0  0  0  0
  131.7740  125.4990   65.0010 O   0  0  0  0  0  0  0  0  0  0  0  0
  134.0450  124.4350   62.4630 C   0  0  0  0  0  0  0  0  0  0  0  0
  134.1080  124.1790   61.0970 C   0  0  0  0  0  0  0  0  0  0  0  0
  1  2  2  0
  2  3  1  0
  4  3  1  1
  4  5  1  0
  5  6  1  0
  6  7  1  1
  7  8  1  0
  8  9  1  0
  9 10  1  0
 10 11  2  0
 11 12  1  0
 12 13  2  0
 13 14  1  0
 14 15  2  0
  6 16  1  0
 16 17  1  6
 17 18  1  0
 18 19  1  0
 19 20  2  0
 20 21  1  0
 21 22  2  0
 22 23  1  0
 23 24  2  0
 16 25  1  0
 25 26  1  1
 26 27  1  0
 27 28  1  0
 28 29  2  0
 29 30  1  0
 30 31  2  0
 31 32  1  0
 32 33  2  0
  2 34  1  0
 34 35  2  0
 35 36  1  0
 36 37  2  0
 37 38  1  0
 38 39  2  0
 38 40  1  0
 37 41  1  0
 41 42  2  0
 25  4  1  0
 33 28  1  0
 42 34  1  0
 15 10  1  0
 24 19  1  0
M  CHG  2  38   1  40  -1
M  END
>  <Binding energies>  (56) 
[-10.67]

>  <Ligand effiencies>  (56) 
[-0.254047619047619]

>  <Interactions>  (56) 
["V-A:MET:535:CE:4833, V-B:ASP:366:CG:8184, V-A:TYR:539:CE2:4874, V-A:ASP:366:CG:3210, V-A:ASP:366:CB:3209, H-A:TYR:531:OH:4793, V-A:ILE:538:CA:4858, V-A:TYR:539:CZ:4875, V-B:ASP:366:CB:8183, V-A:TYR:539:CE1:4873, V-A:TYR:539:CD2:4872, V-B:PRO:540:CA:9855, V-B:PRO:540:CB:9857, V-B:LEU:363:CD1:8160, V-B:MET:535:CE:9807, V-A:ASP:366:CA:3207, V-B:ILE:538:CG2:9835, V-B:ILE:538:CB:9834, V-B:ILE:538:CA:9832, V-B:TYR:539:CE1:9847, V-B:TYR:539:CD1:9845, V-A:TYR:539:CD1:4871, V-A:TYR:539:CG:4870, V-B:TYR:539:CZ:9849, V-A:ILE:369:CD1:3236, V-B:TYR:531:CE2:9765, V-A:ILE:369:CG2:3234, H-B:TYR:539:OH:9850, V-A:ILE:538:CB:4860, V-A:ILE:538:CG2:4861, V-A:ILE:538:C:4856, H-A:GLY:454:N:4047, V-A:GLY:454:CA:4046, H-A:TYR:484:OH:4345, V-B:TYR:531:CZ:9766, V-A:GLY:453:CA:4041, V-A:ARG:545:CZ:4924, V-B:TYR:531:CE1:9764, V-B:ASN:370:CG:8217, V-B:ASP:366:CA:8181, V-B:ASN:370:CB:8216, V-A:GLY:453:C:4039, H-A:ARG:545:NE:4922, H-A:ARG:545:NH1:4925"]

$$$$
RR9_Rahimova_2017
     RDKit          3D

 36 40  0  0  0  0  0  0  0  0999 V2000
  131.2490  115.3720   58.4810 C   0  0  0  0  0  0  0  0  0  0  0  0
  131.7300  114.9850   59.8830 C   0  0  0  0  0  0  0  0  0  0  0  0
  132.7730  115.8750   60.2710 O   0  0  0  0  0  0  0  0  0  0  0  0
  132.4790  117.2060   60.4970 C   0  0  0  0  0  0  0  0  0  0  0  0
  131.1750  117.4990   60.8920 C   0  0  0  0  0  0  0  0  0  0  0  0
  130.7870  118.8110   61.1390 C   0  0  0  0  0  0  0  0  0  0  0  0
  131.6950  119.8720   60.9990 C   0  0  0  0  0  0  0  0  0  0  0  0
  131.2810  121.2890   61.2600 C   0  0  0  0  0  0  0  0  0  0  0  0
  129.9390  121.6920   61.1770 C   0  0  0  0  0  0  0  0  0  0  0  0
  129.5540  123.0190   61.4350 C   0  0  0  0  0  0  0  0  0  0  0  0
  128.0900  123.3650   61.4290 C   0  0  0  0  0  0  0  0  0  0  0  0
  127.3340  122.8880   62.2760 O   0  0  0  0  0  0  0  0  0  0  0  0
  127.6860  124.1880   60.4410 N   0  0  0  0  0  0  0  0  0  0  0  0
  126.2990  124.5630   60.1470 C   0  0  0  0  0  0  0  0  0  0  0  0
  125.5960  123.5760   59.1860 C   0  0  0  0  0  0  0  0  0  0  0  0
  126.3470  123.3080   57.8870 C   0  0  0  0  0  0  0  0  0  0  0  0
  127.6560  122.8170   57.9220 C   0  0  0  0  0  0  0  0  0  0  0  0
  128.3270  122.5410   56.7330 C   0  0  0  0  0  0  0  0  0  0  0  0
  127.6900  122.7610   55.5140 C   0  0  0  0  0  0  0  0  0  0  0  0
  126.3870  123.2550   55.4720 C   0  0  0  0  0  0  0  0  0  0  0  0
  125.7150  123.5300   56.6600 C   0  0  0  0  0  0  0  0  0  0  0  0
  130.5980  123.9250   61.7470 C   0  0  0  0  0  0  0  0  0  0  0  0
  130.7660  125.3280   62.0450 C   0  0  0  0  0  0  0  0  0  0  0  0
  129.7540  126.4260   62.0460 C   0  0  0  0  0  0  0  0  0  0  0  0
  129.2060  126.8780   60.8420 C   0  0  0  0  0  0  0  0  0  0  0  0
  128.2740  127.9130   60.8440 C   0  0  0  0  0  0  0  0  0  0  0  0
  127.8840  128.4970   62.0510 C   0  0  0  0  0  0  0  0  0  0  0  0
  126.8820  129.6380   62.0510 C   0  0  0  0  0  0  0  0  0  0  0  0
  128.4310  128.0500   63.2540 C   0  0  0  0  0  0  0  0  0  0  0  0
  129.3600  127.0130   63.2510 C   0  0  0  0  0  0  0  0  0  0  0  0
  132.0230  125.5930   62.3220 N   0  0  0  0  0  0  0  0  0  0  0  0
  132.7270  124.4590   62.1720 N   0  0  0  0  0  0  0  0  0  0  0  0
  131.9150  123.4110   61.8110 C   0  0  0  0  0  0  0  0  0  0  0  0
  132.2860  122.1530   61.5780 N   0  0  0  0  0  0  0  0  0  0  0  0
  133.0040  119.5700   60.5990 C   0  0  0  0  0  0  0  0  0  0  0  0
  133.3960  118.2560   60.3520 C   0  0  0  0  0  0  0  0  0  0  0  0
  1  2  1  0
  2  3  1  0
  3  4  1  0
  4  5  2  0
  5  6  1  0
  6  7  2  0
  7  8  1  0
  8  9  2  0
  9 10  1  0
 10 11  1  0
 11 12  2  0
 11 13  1  0
 13 14  1  0
 14 15  1  0
 15 16  1  0
 16 17  2  0
 17 18  1  0
 18 19  2  0
 19 20  1  0
 20 21  2  0
 10 22  2  0
 22 23  1  0
 23 24  1  0
 24 25  2  0
 25 26  1  0
 26 27  2  0
 27 28  1  0
 27 29  1  0
 29 30  2  0
 23 31  2  0
 31 32  1  0
 32 33  1  0
 33 34  2  0
  7 35  1  0
 35 36  2  0
 36  4  1  0
 34  8  1  0
 21 16  1  0
 33 22  1  0
 30 24  1  0
M  END
>  <Binding energies>  (57) 
[-9.57]

>  <Ligand effiencies>  (57) 
[-0.2518421052631579]

>  <Interactions>  (57) 
["V-B:PRO:540:CA:9855, V-B:ALA:541:CB:9864, V-B:PRO:540:CB:9857, V-B:MET:535:CE:9807, V-B:ILE:538:CG2:9835, V-B:ILE:538:CB:9834, V-B:ILE:538:CA:9832, V-B:PRO:540:N:9856, V-A:LEU:475:CD2:4256, V-B:GLU:543:CD:9880, V-B:TYR:539:C:9839, V-B:TYR:539:CE1:9847, V-B:TYR:539:CD1:9845, V-B:TYR:539:CG:9844, V-B:TYR:539:CZ:9849, V-A:ILE:369:CG2:3234, H-A:ASP:366:OD1:3211, V-B:TYR:539:CE2:9848, H-A:ARG:545:NH2:4926, H-B:ALA:541:N:9863, V-A:GLU:543:CD:4906, V-B:ILE:538:C:9830, V-B:TYR:539:CD2:9846, V-A:PRO:482:CG:4324, V-A:SER:385:CB:3406, V-A:PRO:482:CB:4323, V-A:SER:385:CA:3404, V-B:TYR:539:CB:9843, V-A:HIS:383:CG:3387, V-A:HIS:383:CB:3386, V-A:LEU:373:CD1:3277, V-B:VAL:344:CG1:7972, V-B:ILE:343:CD1:7965, V-A:HIS:383:CD2:3389, V-A:HIS:383:CE1:3391, V-B:ILE:343:CG1:7964"]

$$$$
