1a_Ghoteimi_2023
     RDKit          3D

 67 70  0  0  0  0  0  0  0  0999 V2000
  124.9520  133.4110   61.2860 C   0  0  0  0  0  0  0  0  0  0  0  0
  123.7540  132.6880   61.9080 C   0  0  0  0  0  0  0  0  0  0  0  0
  123.4610  131.5220   61.1480 O   0  0  0  0  0  0  0  0  0  0  0  0
  124.3930  130.9610   60.3360 C   0  0  0  0  0  0  0  0  0  0  0  0
  124.4480  131.1650   59.1200 O   0  0  0  0  0  0  0  0  0  0  0  0
  125.3550  130.0690   61.0670 C   0  0  0  0  0  0  0  0  0  0  0  0
  125.4770  130.0960   62.4650 C   0  0  0  0  0  0  0  0  0  0  0  0
  126.3810  129.2600   63.1150 C   0  0  0  0  0  0  0  0  0  0  0  0
  127.1790  128.3740   62.3750 C   0  0  0  0  0  0  0  0  0  0  0  0
  128.1260  127.4900   62.9260 N   0  0  0  0  0  0  0  0  0  0  0  0
  129.4110  127.2690   62.5740 C   0  0  0  0  0  0  0  0  0  0  0  0
  130.0150  127.8440   61.6690 O   0  0  0  0  0  0  0  0  0  0  0  0
  130.1460  126.2110   63.3970 C   0  0  0  0  0  0  0  0  0  0  0  0
  131.4970  125.4430   62.4560 S   0  0  0  0  0  0  0  0  0  0  0  0
  130.8300  123.9480   61.7630 C   0  0  0  0  0  0  0  0  0  0  0  0
  129.5550  124.0660   61.3240 N   0  0  0  0  0  0  0  0  0  0  0  0
  128.9290  122.9950   60.7670 C   0  0  0  0  0  0  0  0  0  0  0  0
  127.5240  123.2120   60.2860 C   0  0  0  0  0  0  0  0  0  0  0  0
  127.2020  123.1500   58.9210 C   0  0  0  0  0  0  0  0  0  0  0  0
  125.8980  123.3510   58.4780 C   0  0  0  0  0  0  0  0  0  0  0  0
  124.8750  123.6220   59.3840 C   0  0  0  0  0  0  0  0  0  0  0  0
  123.6110  123.8050   58.8560 O   0  0  0  0  0  0  0  0  0  0  0  0
  123.4760  124.4040   57.5720 C   0  0  0  0  0  0  0  0  0  0  0  0
  125.1810  123.6920   60.7500 C   0  0  0  0  0  0  0  0  0  0  0  0
  126.4860  123.4910   61.1890 C   0  0  0  0  0  0  0  0  0  0  0  0
  129.5930  121.7680   60.6450 C   0  0  0  0  0  0  0  0  0  0  0  0
  130.9040  121.6140   61.1140 C   0  0  0  0  0  0  0  0  0  0  0  0
  131.5370  120.2680   60.9790 C   0  0  0  0  0  0  0  0  0  0  0  0
  130.8050  119.1030   61.2290 C   0  0  0  0  0  0  0  0  0  0  0  0
  131.3980  117.8510   61.0860 C   0  0  0  0  0  0  0  0  0  0  0  0
  132.7290  117.7390   60.6840 C   0  0  0  0  0  0  0  0  0  0  0  0
  133.2310  116.4580   60.5690 O   0  0  0  0  0  0  0  0  0  0  0  0
  132.5190  115.3770   61.1610 C   0  0  0  0  0  0  0  0  0  0  0  0
  133.4640  118.9060   60.4250 C   0  0  0  0  0  0  0  0  0  0  0  0
  132.8690  120.1560   60.5700 C   0  0  0  0  0  0  0  0  0  0  0  0
  131.5500  122.7360   61.6880 C   0  0  0  0  0  0  0  0  0  0  0  0
  132.9270  122.6400   62.1830 C   0  0  0  0  0  0  0  0  0  0  0  0
  134.0140  122.5640   62.5740 N   0  0  0  0  0  0  0  0  0  0  0  0
  127.0630  128.3480   60.9850 C   0  0  0  0  0  0  0  0  0  0  0  0
  126.1590  129.1850   60.3360 C   0  0  0  0  0  0  0  0  0  0  0  0
  125.5995  133.8018   62.0847 H   0  0  0  0  0  0  0  0  0  0  0  0
  125.5226  132.7063   60.6632 H   0  0  0  0  0  0  0  0  0  0  0  0
  124.5945  134.2443   60.6632 H   0  0  0  0  0  0  0  0  0  0  0  0
  123.9946  132.4013   62.9424 H   0  0  0  0  0  0  0  0  0  0  0  0
  122.8803  133.3564   61.9082 H   0  0  0  0  0  0  0  0  0  0  0  0
  124.8522  130.7845   63.0529 H   0  0  0  0  0  0  0  0  0  0  0  0
  126.4699  129.2941   64.2109 H   0  0  0  0  0  0  0  0  0  0  0  0
  127.7900  126.9730   63.7250 H   0  0  0  0  0  0  0  0  0  0  0  0
  130.5640  126.6866   64.2965 H   0  0  0  0  0  0  0  0  0  0  0  0
  129.4252  125.4243   63.6645 H   0  0  0  0  0  0  0  0  0  0  0  0
  127.9947  122.9387   58.1882 H   0  0  0  0  0  0  0  0  0  0  0  0
  125.6731  123.2954   57.4027 H   0  0  0  0  0  0  0  0  0  0  0  0
  123.2355  125.4710   57.6886 H   0  0  0  0  0  0  0  0  0  0  0  0
  124.4202  124.2994   57.0175 H   0  0  0  0  0  0  0  0  0  0  0  0
  122.6679  123.9045   57.0175 H   0  0  0  0  0  0  0  0  0  0  0  0
  124.3855  123.9069   61.4787 H   0  0  0  0  0  0  0  0  0  0  0  0
  126.7086  123.5519   62.2645 H   0  0  0  0  0  0  0  0  0  0  0  0
  129.0795  120.9159   60.1758 H   0  0  0  0  0  0  0  0  0  0  0  0
  129.7527  119.1760   61.5410 H   0  0  0  0  0  0  0  0  0  0  0  0
  130.8120  116.9431   61.2917 H   0  0  0  0  0  0  0  0  0  0  0  0
  132.5728  115.4588   62.2566 H   0  0  0  0  0  0  0  0  0  0  0  0
  131.4669  115.4124   60.8419 H   0  0  0  0  0  0  0  0  0  0  0  0
  132.9670  114.4244   60.8419 H   0  0  0  0  0  0  0  0  0  0  0  0
  134.5142  118.8327   60.1062 H   0  0  0  0  0  0  0  0  0  0  0  0
  133.4527  121.0646   60.3607 H   0  0  0  0  0  0  0  0  0  0  0  0
  127.6902  127.6614   60.3975 H   0  0  0  0  0  0  0  0  0  0  0  0
  126.0755  129.1517   59.2397 H   0  0  0  0  0  0  0  0  0  0  0  0
  1  2  1  0
  2  3  1  0
  3  4  1  0
  4  5  2  0
  4  6  1  0
  6  7  2  0
  7  8  1  0
  8  9  2  0
  9 10  1  0
 10 11  1  0
 11 12  2  0
 11 13  1  0
 13 14  1  0
 14 15  1  0
 15 16  2  0
 16 17  1  0
 17 18  1  0
 18 19  2  0
 19 20  1  0
 20 21  2  0
 21 22  1  0
 22 23  1  0
 21 24  1  0
 24 25  2  0
 17 26  2  0
 26 27  1  0
 27 28  1  0
 28 29  2  0
 29 30  1  0
 30 31  2  0
 31 32  1  0
 32 33  1  0
 31 34  1  0
 34 35  2  0
 27 36  2  0
 36 37  1  0
 37 38  3  0
  9 39  1  0
 39 40  2  0
 40  6  1  0
 36 15  1  0
 25 18  1  0
 35 28  1  0
  1 41  1  0
  1 42  1  0
  1 43  1  0
  2 44  1  0
  2 45  1  0
  7 46  1  0
  8 47  1  0
 10 48  1  0
 13 49  1  0
 13 50  1  0
 19 51  1  0
 20 52  1  0
 23 53  1  0
 23 54  1  0
 23 55  1  0
 24 56  1  0
 25 57  1  0
 26 58  1  0
 29 59  1  0
 30 60  1  0
 33 61  1  0
 33 62  1  0
 33 63  1  0
 34 64  1  0
 35 65  1  0
 39 66  1  0
 40 67  1  0
M  END
>  <Binding energies>  (1) 
[-9.7]

>  <Ligand effiencies>  (1) 
[-0.23658536585365852]

>  <Interactions>  (1) 
["V-B:ASP:366:CG:8184, H-A:TYR:539:OH:4876, V-B:ASP:366:CB:8183, V-A:TYR:539:CE1:4873, V-B:PRO:540:CA:9855, V-B:LEU:363:CA:8156, V-B:PRO:540:CB:9857, V-B:LEU:363:CD1:8160, V-B:PRO:540:N:9856, V-A:LEU:475:CD2:4256, V-B:GLU:543:CD:9880, V-B:TYR:539:C:9839, V-B:TYR:539:CE1:9847, V-B:TYR:539:CD1:9845, V-B:PRO:540:C:9853, V-A:TYR:539:CD1:4871, V-B:ILE:369:CD1:8210, V-B:ILE:369:CG2:8208, V-B:TYR:531:CE2:9765, V-A:ILE:369:CG2:3234, V-B:ARG:545:CZ:9898, H-A:GLY:454:N:4047, V-B:TYR:531:CZ:9766, H-A:ARG:545:NH2:4926, V-A:PRO:482:CG:4324, V-A:SER:385:CB:3406, V-A:PRO:482:CB:4323, V-A:SER:385:CA:3404, V-A:LEU:373:CD1:3277, H-B:GLU:543:OE1:9881, H-B:GLU:543:OE2:9882, V-B:LEU:363:CB:8158, V-B:LEU:363:C:8154, H-B:LEU:363:N:8157"]

$$$$
1a_Grossjean_2025
     RDKit          3D

 45 46  0  0  0  0  0  0  0  0999 V2000
  132.7830  132.3670   56.9780 C   0  0  0  0  0  0  0  0  0  0  0  0
  131.5440  132.4300   56.0810 C   0  0  0  0  0  0  0  0  0  0  0  0
  130.4520  132.9680   56.8160 O   0  0  0  0  0  0  0  0  0  0  0  0
  129.9220  132.2990   57.8730 C   0  0  0  0  0  0  0  0  0  0  0  0
  129.6150  132.8440   58.9380 O   0  0  0  0  0  0  0  0  0  0  0  0
  129.7600  130.8270   57.6230 C   0  0  0  0  0  0  0  0  0  0  0  0
  130.6980  129.9350   58.1590 C   0  0  0  0  0  0  0  0  0  0  0  0
  130.5770  128.5660   57.9420 C   0  0  0  0  0  0  0  0  0  0  0  0
  129.5210  128.0590   57.1830 C   0  0  0  0  0  0  0  0  0  0  0  0
  129.5000  126.6600   57.0250 N   0  0  0  0  0  0  0  0  0  0  0  0
  130.2400  125.8660   56.2230 C   0  0  0  0  0  0  0  0  0  0  0  0
  131.1150  126.2490   55.4460 O   0  0  0  0  0  0  0  0  0  0  0  0
  129.9330  124.3700   56.3180 C   0  0  0  0  0  0  0  0  0  0  0  0
  129.7320  123.8190   58.0390 S   0  0  0  0  0  0  0  0  0  0  0  0
  127.9870  123.7280   58.3710 C   0  0  0  0  0  0  0  0  0  0  0  0
  127.6400  124.1740   59.6040 N   0  0  0  0  0  0  0  0  0  0  0  0
  126.3350  124.1440   59.9630 C   0  0  0  0  0  0  0  0  0  0  0  0
  126.0240  124.6460   61.3610 C   0  0  0  0  0  0  0  0  0  0  0  0
  125.3310  123.6830   59.1140 C   0  0  0  0  0  0  0  0  0  0  0  0
  125.6760  123.2410   57.8320 C   0  0  0  0  0  0  0  0  0  0  0  0
  124.5570  122.7540   56.9130 C   0  0  0  0  0  0  0  0  0  0  0  0
  127.0320  123.2660   57.4340 C   0  0  0  0  0  0  0  0  0  0  0  0
  127.4110  122.8530   56.0790 C   0  0  0  0  0  0  0  0  0  0  0  0
  127.7080  122.5270   55.0100 N   0  0  0  0  0  0  0  0  0  0  0  0
  128.5730  128.9450   56.6490 C   0  0  0  0  0  0  0  0  0  0  0  0
  128.6940  130.3140   56.8670 C   0  0  0  0  0  0  0  0  0  0  0  0
  132.4729  132.3828   58.0333 H   0  0  0  0  0  0  0  0  0  0  0  0
  133.3376  131.4395   56.7726 H   0  0  0  0  0  0  0  0  0  0  0  0
  133.4288  133.2335   56.7726 H   0  0  0  0  0  0  0  0  0  0  0  0
  131.7527  133.0718   55.2124 H   0  0  0  0  0  0  0  0  0  0  0  0
  131.2896  131.4168   55.7364 H   0  0  0  0  0  0  0  0  0  0  0  0
  131.5374  130.3203   58.7565 H   0  0  0  0  0  0  0  0  0  0  0  0
  131.3195  127.8777   58.3720 H   0  0  0  0  0  0  0  0  0  0  0  0
  128.8460  126.1900   57.6330 H   0  0  0  0  0  0  0  0  0  0  0  0
  129.0025  124.1636   55.7688 H   0  0  0  0  0  0  0  0  0  0  0  0
  130.7829  123.8223   55.8848 H   0  0  0  0  0  0  0  0  0  0  0  0
  126.4520  123.9552   62.1023 H   0  0  0  0  0  0  0  0  0  0  0  0
  126.4608  125.6464   61.4970 H   0  0  0  0  0  0  0  0  0  0  0  0
  124.9338  124.7004   61.4970 H   0  0  0  0  0  0  0  0  0  0  0  0
  124.2826  123.6668   59.4466 H   0  0  0  0  0  0  0  0  0  0  0  0
  123.7164  122.3882   57.5209 H   0  0  0  0  0  0  0  0  0  0  0  0
  124.2160  123.5851   56.2782 H   0  0  0  0  0  0  0  0  0  0  0  0
  124.9329  121.9381   56.2782 H   0  0  0  0  0  0  0  0  0  0  0  0
  127.7318  128.5563   56.0564 H   0  0  0  0  0  0  0  0  0  0  0  0
  127.9470  131.0011   56.4428 H   0  0  0  0  0  0  0  0  0  0  0  0
  1  2  1  0
  2  3  1  0
  3  4  1  0
  4  5  2  0
  4  6  1  0
  6  7  2  0
  7  8  1  0
  8  9  2  0
  9 10  1  0
 10 11  1  0
 11 12  2  0
 11 13  1  0
 13 14  1  0
 14 15  1  0
 15 16  2  0
 16 17  1  0
 17 18  1  0
 17 19  2  0
 19 20  1  0
 20 21  1  0
 20 22  2  0
 22 23  1  0
 23 24  3  0
  9 25  1  0
 25 26  2  0
 26  6  1  0
 22 15  1  0
  1 27  1  0
  1 28  1  0
  1 29  1  0
  2 30  1  0
  2 31  1  0
  7 32  1  0
  8 33  1  0
 10 34  1  0
 13 35  1  0
 13 36  1  0
 18 37  1  0
 18 38  1  0
 18 39  1  0
 19 40  1  0
 21 41  1  0
 21 42  1  0
 21 43  1  0
 25 44  1  0
 26 45  1  0
M  END
>  <Binding energies>  (1) 
[-8.0]

>  <Ligand effiencies>  (1) 
[-0.2962962962962963]

>  <Interactions>  (1) 
["V-A:MET:535:CE:4833, V-A:PRO:540:CB:4883, V-A:PRO:540:CA:4881, H-A:TYR:531:OH:4793, V-A:ILE:538:CA:4858, V-A:LEU:363:CD1:3186, H-A:TYR:539:N:4868, V-B:PRO:540:CA:9855, V-B:PRO:540:CB:9857, V-B:LEU:363:CD1:8160, V-B:MET:535:CE:9807, V-B:PRO:540:CG:9858, V-B:ILE:538:CG2:9835, V-B:ILE:538:CB:9834, V-B:ILE:538:CA:9832, V-B:PRO:540:CD:9859, V-B:PRO:540:N:9856, V-B:TYR:539:CE1:9847, V-A:PRO:540:N:4882, V-A:TYR:539:C:4865, H-B:TYR:539:N:9842, V-B:TYR:539:CZ:9849, V-A:ILE:538:CB:4860, V-A:PRO:540:CD:4885, V-A:ILE:538:CG2:4861, V-B:TYR:539:CE2:9848, V-A:PRO:540:CG:4884"]

$$$$
1aa_Ghoteimi_2023
     RDKit          3D

 67 70  0  0  0  0  0  0  0  0999 V2000
  128.9740  123.1950   57.2670 C   0  0  0  0  0  0  0  0  0  0  0  0
  127.7420  123.1070   56.3610 C   0  0  0  0  0  0  0  0  0  0  0  0
  126.7380  122.3290   57.0010 O   0  0  0  0  0  0  0  0  0  0  0  0
  125.6860  122.9180   57.6240 C   0  0  0  0  0  0  0  0  0  0  0  0
  124.5070  122.6570   57.3640 O   0  0  0  0  0  0  0  0  0  0  0  0
  126.0970  123.9210   58.6630 C   0  0  0  0  0  0  0  0  0  0  0  0
  126.5130  125.2170   58.3200 C   0  0  0  0  0  0  0  0  0  0  0  0
  126.8880  126.1270   59.3060 C   0  0  0  0  0  0  0  0  0  0  0  0
  126.8510  125.7550   60.6580 C   0  0  0  0  0  0  0  0  0  0  0  0
  127.2070  126.5860   61.7370 N   0  0  0  0  0  0  0  0  0  0  0  0
  127.6630  127.8600   61.7480 C   0  0  0  0  0  0  0  0  0  0  0  0
  127.8470  128.5500   60.7460 O   0  0  0  0  0  0  0  0  0  0  0  0
  127.9680  128.4860   63.1190 C   0  0  0  0  0  0  0  0  0  0  0  0
  127.2630  129.7250   63.2720 O   0  0  0  0  0  0  0  0  0  0  0  0
  127.6510  130.8460   62.5520 C   0  0  0  0  0  0  0  0  0  0  0  0
  128.8420  130.8050   61.8940 N   0  0  0  0  0  0  0  0  0  0  0  0
  129.2630  131.8880   61.1890 C   0  0  0  0  0  0  0  0  0  0  0  0
  130.5860  131.7620   60.4900 C   0  0  0  0  0  0  0  0  0  0  0  0
  130.6700  131.8030   59.0900 C   0  0  0  0  0  0  0  0  0  0  0  0
  131.8950  131.6840   58.4400 C   0  0  0  0  0  0  0  0  0  0  0  0
  133.0720  131.5220   59.1660 C   0  0  0  0  0  0  0  0  0  0  0  0
  134.2400  131.4110   58.4360 O   0  0  0  0  0  0  0  0  0  0  0  0
  134.2400  130.6420   57.2380 C   0  0  0  0  0  0  0  0  0  0  0  0
  133.0050  131.4840   60.5660 C   0  0  0  0  0  0  0  0  0  0  0  0
  131.7790  131.6040   61.2130 C   0  0  0  0  0  0  0  0  0  0  0  0
  128.4730  133.0420   61.1160 C   0  0  0  0  0  0  0  0  0  0  0  0
  127.2380  133.1070   61.7750 C   0  0  0  0  0  0  0  0  0  0  0  0
  126.4390  134.3620   61.6500 C   0  0  0  0  0  0  0  0  0  0  0  0
  127.0730  135.6070   61.6980 C   0  0  0  0  0  0  0  0  0  0  0  0
  126.3370  136.7820   61.5720 C   0  0  0  0  0  0  0  0  0  0  0  0
  124.9550  136.7370   61.3900 C   0  0  0  0  0  0  0  0  0  0  0  0
  124.3070  137.9510   61.2750 O   0  0  0  0  0  0  0  0  0  0  0  0
  125.0780  139.1400   61.1440 C   0  0  0  0  0  0  0  0  0  0  0  0
  124.3150  135.4890   61.3330 C   0  0  0  0  0  0  0  0  0  0  0  0
  125.0540  134.3160   61.4600 C   0  0  0  0  0  0  0  0  0  0  0  0
  126.8210  131.9800   62.5210 C   0  0  0  0  0  0  0  0  0  0  0  0
  125.5680  131.9700   63.2780 C   0  0  0  0  0  0  0  0  0  0  0  0
  124.5780  131.9610   63.8760 N   0  0  0  0  0  0  0  0  0  0  0  0
  126.4410  124.4660   61.0020 C   0  0  0  0  0  0  0  0  0  0  0  0
  126.0670  123.5580   60.0160 C   0  0  0  0  0  0  0  0  0  0  0  0
  128.6571  123.1724   58.3201 H   0  0  0  0  0  0  0  0  0  0  0  0
  129.6388  122.3421   57.0658 H   0  0  0  0  0  0  0  0  0  0  0  0
  129.5108  124.1338   57.0658 H   0  0  0  0  0  0  0  0  0  0  0  0
  127.3551  124.1186   56.1688 H   0  0  0  0  0  0  0  0  0  0  0  0
  128.0206  122.6340   55.4078 H   0  0  0  0  0  0  0  0  0  0  0  0
  126.5432  125.5171   57.2622 H   0  0  0  0  0  0  0  0  0  0  0  0
  127.2137  127.1391   59.0238 H   0  0  0  0  0  0  0  0  0  0  0  0
  127.0960  126.1530   62.6430 H   0  0  0  0  0  0  0  0  0  0  0  0
  127.6553  127.7910   63.9122 H   0  0  0  0  0  0  0  0  0  0  0  0
  129.0485  128.6798   63.1897 H   0  0  0  0  0  0  0  0  0  0  0  0
  129.7528  131.9313   58.4965 H   0  0  0  0  0  0  0  0  0  0  0  0
  131.9337  131.7183   57.3412 H   0  0  0  0  0  0  0  0  0  0  0  0
  135.2771  130.4439   56.9294 H   0  0  0  0  0  0  0  0  0  0  0  0
  133.7215  129.6881   57.4146 H   0  0  0  0  0  0  0  0  0  0  0  0
  133.7215  131.1998   56.4443 H   0  0  0  0  0  0  0  0  0  0  0  0
  133.9254  131.3588   61.1552 H   0  0  0  0  0  0  0  0  0  0  0  0
  131.7439  131.5745   62.3120 H   0  0  0  0  0  0  0  0  0  0  0  0
  128.8258  133.9069   60.5350 H   0  0  0  0  0  0  0  0  0  0  0  0
  128.1630  135.6587   61.8365 H   0  0  0  0  0  0  0  0  0  0  0  0
  126.8498  137.7541   61.6164 H   0  0  0  0  0  0  0  0  0  0  0  0
  125.3286  139.5264   62.1429 H   0  0  0  0  0  0  0  0  0  0  0  0
  126.0043  138.9176   60.5939 H   0  0  0  0  0  0  0  0  0  0  0  0
  124.4971  139.8949   60.5939 H   0  0  0  0  0  0  0  0  0  0  0  0
  123.2259  135.4377   61.1875 H   0  0  0  0  0  0  0  0  0  0  0  0
  124.5434  133.3429   61.4104 H   0  0  0  0  0  0  0  0  0  0  0  0
  126.4133  124.1657   62.0599 H   0  0  0  0  0  0  0  0  0  0  0  0
  125.7448  122.5457   60.3015 H   0  0  0  0  0  0  0  0  0  0  0  0
  1  2  1  0
  2  3  1  0
  3  4  1  0
  4  5  2  0
  4  6  1  0
  6  7  2  0
  7  8  1  0
  8  9  2  0
  9 10  1  0
 10 11  1  0
 11 12  2  0
 11 13  1  0
 13 14  1  0
 14 15  1  0
 15 16  2  0
 16 17  1  0
 17 18  1  0
 18 19  2  0
 19 20  1  0
 20 21  2  0
 21 22  1  0
 22 23  1  0
 21 24  1  0
 24 25  2  0
 17 26  2  0
 26 27  1  0
 27 28  1  0
 28 29  2  0
 29 30  1  0
 30 31  2  0
 31 32  1  0
 32 33  1  0
 31 34  1  0
 34 35  2  0
 27 36  2  0
 36 37  1  0
 37 38  3  0
  9 39  1  0
 39 40  2  0
 40  6  1  0
 36 15  1  0
 25 18  1  0
 35 28  1  0
  1 41  1  0
  1 42  1  0
  1 43  1  0
  2 44  1  0
  2 45  1  0
  7 46  1  0
  8 47  1  0
 10 48  1  0
 13 49  1  0
 13 50  1  0
 19 51  1  0
 20 52  1  0
 23 53  1  0
 23 54  1  0
 23 55  1  0
 24 56  1  0
 25 57  1  0
 26 58  1  0
 29 59  1  0
 30 60  1  0
 33 61  1  0
 33 62  1  0
 33 63  1  0
 34 64  1  0
 35 65  1  0
 39 66  1  0
 40 67  1  0
M  END
>  <Binding energies>  (1) 
[-9.44]

>  <Ligand effiencies>  (1) 
[-0.23024390243902437]

>  <Interactions>  (1) 
["V-B:ASP:366:CG:8184, V-A:ASP:366:CG:3210, V-A:TYR:531:CZ:4792, V-A:LEU:363:CA:3182, V-A:TYR:531:CE2:4791, V-A:PRO:540:CB:4883, V-A:PRO:540:CA:4881, V-A:ASP:366:CB:3209, V-A:LEU:363:CB:3184, V-A:LEU:363:CD1:3186, V-A:TYR:539:CE1:4873, V-B:PRO:540:CA:9855, V-B:PRO:540:CB:9857, V-B:MET:535:CE:9807, V-B:PRO:540:CD:9859, V-B:PRO:540:N:9856, V-B:GLU:543:CD:9880, V-B:TYR:539:CE1:9847, V-B:TYR:539:CD1:9845, V-A:PRO:540:C:4879, V-A:TYR:539:CD1:4871, V-A:ALA:541:CB:4890, V-A:PRO:540:N:4882, V-B:ILE:369:CG2:8208, V-B:TYR:539:CG:9844, H-B:TYR:539:N:9842, V-B:TYR:539:CZ:9849, V-B:PRO:482:CB:9297, V-B:SER:385:CA:8378, V-B:PRO:482:CG:9298, V-B:LEU:475:CD2:9230, V-B:SER:385:CB:8380, V-B:LEU:373:CD1:8251, H-B:TYR:484:OH:9319, V-B:TYR:539:CE2:9848, H-B:GLY:454:N:9021, V-A:GLU:543:CD:4906, V-A:ASN:362:CB:3173, H-B:GLU:543:OE1:9881, H-B:GLU:543:OE2:9882, H-A:LEU:363:N:3183, H-B:SER:385:N:8379, V-A:LEU:363:C:3180"]

$$$$
1b_Ghoteimi_2023
     RDKit          3D

 54 57  0  0  0  0  0  0  0  0999 V2000
  123.3800  124.4700   57.5860 C   0  0  0  0  0  0  0  0  0  0  0  0
  123.6060  123.8690   58.8560 O   0  0  0  0  0  0  0  0  0  0  0  0
  124.9040  123.6400   59.2710 C   0  0  0  0  0  0  0  0  0  0  0  0
  125.1340  123.6680   60.6450 C   0  0  0  0  0  0  0  0  0  0  0  0
  126.4100  123.4490   61.1550 C   0  0  0  0  0  0  0  0  0  0  0  0
  127.4970  123.1910   60.3050 C   0  0  0  0  0  0  0  0  0  0  0  0
  128.8740  122.9580   60.8600 C   0  0  0  0  0  0  0  0  0  0  0  0
  129.5640  121.7510   60.7020 C   0  0  0  0  0  0  0  0  0  0  0  0
  130.8480  121.5860   61.2360 C   0  0  0  0  0  0  0  0  0  0  0  0
  131.5220  120.2690   61.0330 C   0  0  0  0  0  0  0  0  0  0  0  0
  132.8530  120.2150   60.6100 C   0  0  0  0  0  0  0  0  0  0  0  0
  133.4840  118.9900   60.4110 C   0  0  0  0  0  0  0  0  0  0  0  0
  132.7960  117.7960   60.6270 C   0  0  0  0  0  0  0  0  0  0  0  0
  133.5010  116.6290   60.4040 O   0  0  0  0  0  0  0  0  0  0  0  0
  132.8020  115.4690   59.9650 C   0  0  0  0  0  0  0  0  0  0  0  0
  131.4570  117.8450   61.0440 C   0  0  0  0  0  0  0  0  0  0  0  0
  130.8300  119.0710   61.2420 C   0  0  0  0  0  0  0  0  0  0  0  0
  131.4360  122.6730   61.9280 C   0  0  0  0  0  0  0  0  0  0  0  0
  132.8130  122.5850   62.4210 C   0  0  0  0  0  0  0  0  0  0  0  0
  133.9010  122.5130   62.8100 N   0  0  0  0  0  0  0  0  0  0  0  0
  130.6770  123.8570   62.0690 C   0  0  0  0  0  0  0  0  0  0  0  0
  131.2490  125.3170   62.9130 S   0  0  0  0  0  0  0  0  0  0  0  0
  129.9990  126.6260   62.6810 C   0  0  0  0  0  0  0  0  0  0  0  0
  130.3900  127.7280   61.6860 C   0  0  0  0  0  0  0  0  0  0  0  0
  130.6740  127.4520   60.5190 O   0  0  0  0  0  0  0  0  0  0  0  0
  130.3910  128.9780   62.2030 N   0  0  0  0  0  0  0  0  0  0  0  0
  130.7000  130.1610   61.5410 C   0  0  0  0  0  0  0  0  0  0  0  0
  130.6980  130.2790   60.1520 C   0  0  0  0  0  0  0  0  0  0  0  0
  131.0500  131.5860   59.9030 C   0  0  0  0  0  0  0  0  0  0  0  0
  131.2500  132.2220   61.0820 O   0  0  0  0  0  0  0  0  0  0  0  0
  131.0250  131.3090   62.1130 N   0  0  0  0  0  0  0  0  0  0  0  0
  129.4410  123.9940   61.5310 N   0  0  0  0  0  0  0  0  0  0  0  0
  127.2530  123.1670   58.9230 C   0  0  0  0  0  0  0  0  0  0  0  0
  125.9790  123.3870   58.4090 C   0  0  0  0  0  0  0  0  0  0  0  0
  122.9960  125.4912   57.7267 H   0  0  0  0  0  0  0  0  0  0  0  0
  124.3253  124.5078   57.0248 H   0  0  0  0  0  0  0  0  0  0  0  0
  122.6440  123.8756   57.0248 H   0  0  0  0  0  0  0  0  0  0  0  0
  124.2988  123.8651   61.3332 H   0  0  0  0  0  0  0  0  0  0  0  0
  126.5697  123.4786   62.2429 H   0  0  0  0  0  0  0  0  0  0  0  0
  129.0928  120.9228   60.1524 H   0  0  0  0  0  0  0  0  0  0  0  0
  133.4069  121.1487   60.4327 H   0  0  0  0  0  0  0  0  0  0  0  0
  134.5330  118.9635   60.0810 H   0  0  0  0  0  0  0  0  0  0  0  0
  132.4569  114.8963   60.8385 H   0  0  0  0  0  0  0  0  0  0  0  0
  131.9352  115.7708   59.3587 H   0  0  0  0  0  0  0  0  0  0  0  0
  133.4738  114.8436   59.3587 H   0  0  0  0  0  0  0  0  0  0  0  0
  130.9014  116.9111   61.2149 H   0  0  0  0  0  0  0  0  0  0  0  0
  129.7792  119.0989   61.5662 H   0  0  0  0  0  0  0  0  0  0  0  0
  129.0732  126.1537   62.3206 H   0  0  0  0  0  0  0  0  0  0  0  0
  129.8861  127.1196   63.6575 H   0  0  0  0  0  0  0  0  0  0  0  0
  130.1290  129.0780   63.1720 H   0  0  0  0  0  0  0  0  0  0  0  0
  130.4654  129.4967   59.4145 H   0  0  0  0  0  0  0  0  0  0  0  0
  131.1524  132.0409   58.9067 H   0  0  0  0  0  0  0  0  0  0  0  0
  128.0861  122.9702   58.2322 H   0  0  0  0  0  0  0  0  0  0  0  0
  125.8152  123.3622   57.3216 H   0  0  0  0  0  0  0  0  0  0  0  0
  1  2  1  0
  2  3  1  0
  3  4  2  0
  4  5  1  0
  5  6  2  0
  6  7  1  0
  7  8  2  0
  8  9  1  0
  9 10  1  0
 10 11  2  0
 11 12  1  0
 12 13  2  0
 13 14  1  0
 14 15  1  0
 13 16  1  0
 16 17  2  0
  9 18  2  0
 18 19  1  0
 19 20  3  0
 18 21  1  0
 21 22  1  0
 22 23  1  0
 23 24  1  0
 24 25  2  0
 24 26  1  0
 26 27  1  0
 27 28  1  0
 28 29  2  0
 29 30  1  0
 30 31  1  0
 21 32  2  0
  6 33  1  0
 33 34  2  0
 34  3  1  0
 32  7  1  0
 17 10  1  0
 31 27  2  0
  1 35  1  0
  1 36  1  0
  1 37  1  0
  4 38  1  0
  5 39  1  0
  8 40  1  0
 11 41  1  0
 12 42  1  0
 15 43  1  0
 15 44  1  0
 15 45  1  0
 16 46  1  0
 17 47  1  0
 23 48  1  0
 23 49  1  0
 26 50  1  0
 28 51  1  0
 29 52  1  0
 33 53  1  0
 34 54  1  0
M  END
>  <Binding energies>  (1) 
[-9.2]

>  <Ligand effiencies>  (1) 
[-0.26285714285714284]

>  <Interactions>  (1) 
["V-B:ASP:366:CG:8184, H-A:ALA:541:N:4889, V-A:PRO:540:CB:4883, V-A:PRO:540:CA:4881, V-B:ASP:366:CB:8183, V-B:PRO:540:CA:9855, V-B:ALA:541:CB:9864, V-B:LEU:363:CA:8156, V-B:PRO:540:CB:9857, V-B:LEU:363:CD1:8160, V-B:PRO:540:N:9856, V-A:LEU:475:CD2:4256, V-B:TYR:539:C:9839, V-B:TYR:539:CE1:9847, V-B:TYR:539:CD1:9845, V-B:PRO:540:C:9853, V-B:TYR:531:CE2:9765, V-A:ILE:369:CG2:3234, H-A:GLY:454:N:4047, V-A:GLY:454:CA:4046, V-B:TYR:531:CZ:9766, V-A:GLU:543:CD:4906, H-A:GLU:543:OE2:4908, H-A:GLU:543:OE1:4907, V-A:PRO:482:CG:4324, V-A:SER:385:CB:3406, V-A:PRO:482:CB:4323, V-A:SER:385:CA:3404, V-A:HIS:383:CG:3387, V-A:HIS:383:CB:3386, V-A:LEU:373:CD1:3277, V-B:LEU:363:CB:8158, V-B:LEU:363:C:8154, H-B:LEU:363:N:8157, H-A:SER:385:N:3405"]

$$$$
1b_Grossjean_2025
     RDKit          3D

 42 43  0  0  0  0  0  0  0  0999 V2000
  131.9490  115.4110   58.3100 C   0  0  0  0  0  0  0  0  0  0  0  0
  132.5680  114.8850   59.4760 O   0  0  0  0  0  0  0  0  0  0  0  0
  133.1230  115.7070   60.4030 C   0  0  0  0  0  0  0  0  0  0  0  0
  134.1320  115.4160   61.0530 O   0  0  0  0  0  0  0  0  0  0  0  0
  132.3920  117.0100   60.5550 C   0  0  0  0  0  0  0  0  0  0  0  0
  130.9960  117.0670   60.6890 C   0  0  0  0  0  0  0  0  0  0  0  0
  130.3490  118.2910   60.8270 C   0  0  0  0  0  0  0  0  0  0  0  0
  131.0780  119.4800   60.8340 C   0  0  0  0  0  0  0  0  0  0  0  0
  130.3190  120.6580   60.9780 N   0  0  0  0  0  0  0  0  0  0  0  0
  130.2480  121.5270   62.0100 C   0  0  0  0  0  0  0  0  0  0  0  0
  130.8760  121.4380   63.0650 O   0  0  0  0  0  0  0  0  0  0  0  0
  129.3040  122.7130   61.8040 C   0  0  0  0  0  0  0  0  0  0  0  0
  129.0510  123.0890   60.0430 S   0  0  0  0  0  0  0  0  0  0  0  0
  127.3000  123.2870   59.7900 C   0  0  0  0  0  0  0  0  0  0  0  0
  126.6080  123.5390   60.9290 N   0  0  0  0  0  0  0  0  0  0  0  0
  125.2670  123.7080   60.8510 C   0  0  0  0  0  0  0  0  0  0  0  0
  124.5620  124.0000   62.1620 C   0  0  0  0  0  0  0  0  0  0  0  0
  124.5680  123.6230   59.6490 C   0  0  0  0  0  0  0  0  0  0  0  0
  125.2690  123.3420   58.4730 C   0  0  0  0  0  0  0  0  0  0  0  0
  124.4780  123.2380   57.1700 C   0  0  0  0  0  0  0  0  0  0  0  0
  126.6700  123.1620   58.5290 C   0  0  0  0  0  0  0  0  0  0  0  0
  127.4200  122.8230   57.3170 C   0  0  0  0  0  0  0  0  0  0  0  0
  128.0090  122.5560   56.3580 N   0  0  0  0  0  0  0  0  0  0  0  0
  132.4740  119.4320   60.7010 C   0  0  0  0  0  0  0  0  0  0  0  0
  133.1200  118.2070   60.5630 C   0  0  0  0  0  0  0  0  0  0  0  0
  131.1408  116.0977   58.6020 H   0  0  0  0  0  0  0  0  0  0  0  0
  132.6951  115.9556   57.7127 H   0  0  0  0  0  0  0  0  0  0  0  0
  131.5319  114.5868   57.7127 H   0  0  0  0  0  0  0  0  0  0  0  0
  130.4089  116.1368   60.6849 H   0  0  0  0  0  0  0  0  0  0  0  0
  129.2544  118.3212   60.9314 H   0  0  0  0  0  0  0  0  0  0  0  0
  129.7330  120.8670   60.1830 H   0  0  0  0  0  0  0  0  0  0  0  0
  128.3312  122.4751   62.2591 H   0  0  0  0  0  0  0  0  0  0  0  0
  129.7608  123.5952   62.2762 H   0  0  0  0  0  0  0  0  0  0  0  0
  125.2197  123.7276   63.0006 H   0  0  0  0  0  0  0  0  0  0  0  0
  124.3212  125.0719   62.2180 H   0  0  0  0  0  0  0  0  0  0  0  0
  123.6339  123.4123   62.2180 H   0  0  0  0  0  0  0  0  0  0  0  0
  123.4788  123.7750   59.6258 H   0  0  0  0  0  0  0  0  0  0  0  0
  123.4112  123.0977   57.3988 H   0  0  0  0  0  0  0  0  0  0  0  0
  124.6095  124.1612   56.5865 H   0  0  0  0  0  0  0  0  0  0  0  0
  124.8437  122.3802   56.5865 H   0  0  0  0  0  0  0  0  0  0  0  0
  133.0586  120.3638   60.7058 H   0  0  0  0  0  0  0  0  0  0  0  0
  134.2147  118.1783   60.4590 H   0  0  0  0  0  0  0  0  0  0  0  0
  1  2  1  0
  2  3  1  0
  3  4  2  0
  3  5  1  0
  5  6  2  0
  6  7  1  0
  7  8  2  0
  8  9  1  0
  9 10  1  0
 10 11  2  0
 10 12  1  0
 12 13  1  0
 13 14  1  0
 14 15  2  0
 15 16  1  0
 16 17  1  0
 16 18  2  0
 18 19  1  0
 19 20  1  0
 19 21  2  0
 21 22  1  0
 22 23  3  0
  8 24  1  0
 24 25  2  0
 25  5  1  0
 21 14  1  0
  1 26  1  0
  1 27  1  0
  1 28  1  0
  6 29  1  0
  7 30  1  0
  9 31  1  0
 12 32  1  0
 12 33  1  0
 17 34  1  0
 17 35  1  0
 17 36  1  0
 18 37  1  0
 20 38  1  0
 20 39  1  0
 20 40  1  0
 24 41  1  0
 25 42  1  0
M  END
>  <Binding energies>  (1) 
[-8.71]

>  <Ligand effiencies>  (1) 
[-0.335]

>  <Interactions>  (1) 
["V-B:ASP:366:CG:8184, V-B:PRO:540:CA:9855, V-B:ALA:541:CB:9864, V-B:PRO:540:CB:9857, V-B:LEU:363:CD1:8160, V-B:ASN:362:CB:8147, V-B:PRO:540:CD:9859, V-B:PRO:540:N:9856, V-A:LEU:475:CD2:4256, V-B:TYR:539:C:9839, V-B:TYR:539:CE1:9847, V-B:TYR:539:CD1:9845, H-B:TYR:539:N:9842, V-B:TYR:531:CE2:9765, V-B:ARG:545:CZ:9898, H-B:ALA:541:N:9863, H-B:TYR:539:O:9840, V-A:PRO:482:CG:4324, V-A:SER:385:CB:3406, V-A:PRO:482:CB:4323, V-A:SER:385:CA:3404, V-B:TYR:539:CB:9843, V-A:HIS:383:CG:3387, V-A:LEU:373:CD2:3278, V-A:HIS:383:CB:3386, V-A:LEU:373:CD1:3277, V-B:ILE:343:CD1:7965, V-A:HIS:383:CD2:3389, V-A:HIS:383:CE1:3391, H-A:HIS:383:ND1:3388, H-A:SER:385:N:3405, V-B:ILE:343:CG1:7964"]

$$$$
1c_Ghoteimi_2023
     RDKit          3D

 54 57  0  0  0  0  0  0  0  0999 V2000
  133.5570  115.8310   59.8700 C   0  0  0  0  0  0  0  0  0  0  0  0
  132.4780  116.1870   60.7280 O   0  0  0  0  0  0  0  0  0  0  0  0
  132.1260  117.5180   60.8540 C   0  0  0  0  0  0  0  0  0  0  0  0
  133.1240  118.4550   60.6010 C   0  0  0  0  0  0  0  0  0  0  0  0
  132.8590  119.8180   60.7070 C   0  0  0  0  0  0  0  0  0  0  0  0
  131.5860  120.2840   61.0700 C   0  0  0  0  0  0  0  0  0  0  0  0
  131.2970  121.7520   61.1900 C   0  0  0  0  0  0  0  0  0  0  0  0
  131.5000  122.4690   62.3750 C   0  0  0  0  0  0  0  0  0  0  0  0
  131.2420  123.8430   62.4310 C   0  0  0  0  0  0  0  0  0  0  0  0
  131.5440  124.5560   63.7080 C   0  0  0  0  0  0  0  0  0  0  0  0
  130.5110  125.0510   64.5080 C   0  0  0  0  0  0  0  0  0  0  0  0
  130.7950  125.7340   65.6870 C   0  0  0  0  0  0  0  0  0  0  0  0
  132.1160  125.9400   66.0840 C   0  0  0  0  0  0  0  0  0  0  0  0
  132.3040  126.6290   67.2680 O   0  0  0  0  0  0  0  0  0  0  0  0
  131.2310  127.3970   67.8030 C   0  0  0  0  0  0  0  0  0  0  0  0
  133.1570  125.4510   65.2800 C   0  0  0  0  0  0  0  0  0  0  0  0
  132.8690  124.7680   64.1010 C   0  0  0  0  0  0  0  0  0  0  0  0
  130.7430  124.4830   61.2720 C   0  0  0  0  0  0  0  0  0  0  0  0
  130.4210  125.9140   61.2760 C   0  0  0  0  0  0  0  0  0  0  0  0
  130.1680  127.0430   61.2800 N   0  0  0  0  0  0  0  0  0  0  0  0
  130.5790  123.7050   60.1070 C   0  0  0  0  0  0  0  0  0  0  0  0
  130.1240  124.4080   58.5370 S   0  0  0  0  0  0  0  0  0  0  0  0
  129.0550  123.1550   57.7570 C   0  0  0  0  0  0  0  0  0  0  0  0
  127.6520  123.1280   58.3740 C   0  0  0  0  0  0  0  0  0  0  0  0
  126.7040  122.7060   57.7100 O   0  0  0  0  0  0  0  0  0  0  0  0
  127.5790  123.5450   59.6570 N   0  0  0  0  0  0  0  0  0  0  0  0
  126.4730  123.4760   60.4880 C   0  0  0  0  0  0  0  0  0  0  0  0
  126.4530  123.3490   61.7980 N   0  0  0  0  0  0  0  0  0  0  0  0
  125.2200  123.3580   62.2660 C   0  0  0  0  0  0  0  0  0  0  0  0
  124.2050  123.4990   61.3240 C   0  0  0  0  0  0  0  0  0  0  0  0
  124.9140  123.6200   59.7420 S   0  0  0  0  0  0  0  0  0  0  0  0
  130.8570  122.3800   60.0680 N   0  0  0  0  0  0  0  0  0  0  0  0
  130.5870  119.3310   61.3160 C   0  0  0  0  0  0  0  0  0  0  0  0
  130.8480  117.9680   61.2130 C   0  0  0  0  0  0  0  0  0  0  0  0
  134.4284  115.5435   60.4767 H   0  0  0  0  0  0  0  0  0  0  0  0
  133.2567  114.9843   59.2352 H   0  0  0  0  0  0  0  0  0  0  0  0
  133.8195  116.6901   59.2352 H   0  0  0  0  0  0  0  0  0  0  0  0
  134.1305  118.1158   60.3149 H   0  0  0  0  0  0  0  0  0  0  0  0
  133.6615  120.5420   60.5026 H   0  0  0  0  0  0  0  0  0  0  0  0
  131.8661  121.9469   63.2713 H   0  0  0  0  0  0  0  0  0  0  0  0
  129.4648  124.8997   64.2036 H   0  0  0  0  0  0  0  0  0  0  0  0
  129.9719  126.1139   66.3100 H   0  0  0  0  0  0  0  0  0  0  0  0
  131.2716  127.3680   68.9019 H   0  0  0  0  0  0  0  0  0  0  0  0
  131.3190  128.4385   67.4602 H   0  0  0  0  0  0  0  0  0  0  0  0
  130.2735  126.9778   67.4602 H   0  0  0  0  0  0  0  0  0  0  0  0
  134.2031  125.6076   65.5818 H   0  0  0  0  0  0  0  0  0  0  0  0
  133.6908  124.3922   63.4737 H   0  0  0  0  0  0  0  0  0  0  0  0
  128.9663  123.3827   56.6845 H   0  0  0  0  0  0  0  0  0  0  0  0
  129.5151  122.1692   57.9195 H   0  0  0  0  0  0  0  0  0  0  0  0
  128.4300  123.8750   60.0870 H   0  0  0  0  0  0  0  0  0  0  0  0
  125.0058  123.2596   63.3404 H   0  0  0  0  0  0  0  0  0  0  0  0
  123.1279  123.5290   61.5452 H   0  0  0  0  0  0  0  0  0  0  0  0
  129.5777  119.6674   61.5957 H   0  0  0  0  0  0  0  0  0  0  0  0
  130.0478  117.2405   61.4142 H   0  0  0  0  0  0  0  0  0  0  0  0
  1  2  1  0
  2  3  1  0
  3  4  2  0
  4  5  1  0
  5  6  2  0
  6  7  1  0
  7  8  2  0
  8  9  1  0
  9 10  1  0
 10 11  2  0
 11 12  1  0
 12 13  2  0
 13 14  1  0
 14 15  1  0
 13 16  1  0
 16 17  2  0
  9 18  2  0
 18 19  1  0
 19 20  3  0
 18 21  1  0
 21 22  1  0
 22 23  1  0
 23 24  1  0
 24 25  2  0
 24 26  1  0
 26 27  1  0
 27 28  2  0
 28 29  1  0
 29 30  2  0
 30 31  1  0
 21 32  2  0
  6 33  1  0
 33 34  2  0
 34  3  1  0
 32  7  1  0
 17 10  1  0
 31 27  1  0
  1 35  1  0
  1 36  1  0
  1 37  1  0
  4 38  1  0
  5 39  1  0
  8 40  1  0
 11 41  1  0
 12 42  1  0
 15 43  1  0
 15 44  1  0
 15 45  1  0
 16 46  1  0
 17 47  1  0
 23 48  1  0
 23 49  1  0
 26 50  1  0
 29 51  1  0
 30 52  1  0
 33 53  1  0
 34 54  1  0
M  END
>  <Binding energies>  (1) 
[-8.16]

>  <Ligand effiencies>  (1) 
[-0.23314285714285715]

>  <Interactions>  (1) 
["V-B:PRO:540:CA:9855, V-B:ALA:541:CB:9864, V-B:PRO:540:CB:9857, V-B:ALA:541:C:9860, V-B:ASN:362:CB:8147, V-B:ASN:362:C:8143, V-B:PRO:540:N:9856, V-A:LEU:475:CD2:4256, V-B:GLU:543:CD:9880, V-B:TYR:539:C:9839, V-B:TYR:539:CE1:9847, V-B:TYR:539:CD1:9845, V-B:PRO:540:C:9853, V-B:TYR:539:CG:9844, H-B:TYR:539:N:9842, V-B:TYR:539:CZ:9849, V-A:ILE:369:CG2:3234, V-A:ARG:545:CG:4920, V-A:ARG:545:CD:4921, V-A:HIS:456:CE1:4066, V-A:ARG:545:CZ:4924, H-B:ALA:541:N:9863, V-A:GLU:543:CD:4906, V-A:GLU:543:CG:4905, V-A:PRO:482:CG:4324, V-A:SER:385:CB:3406, V-A:PRO:482:CB:4323, V-A:SER:385:CA:3404, V-A:HIS:383:CG:3387, V-A:LEU:373:CD2:3278, V-A:HIS:383:CB:3386, V-A:LEU:373:CD1:3277, H-A:ARG:545:NE:4922, V-A:VAL:384:C:3394"]

$$$$
1c_Grossjean_2025
     RDKit          3D

 40 41  0  0  0  0  0  0  0  0999 V2000
  133.8520  114.6370   61.0320 C   0  0  0  0  0  0  0  0  0  0  0  0
  133.2090  115.3030   59.9510 O   0  0  0  0  0  0  0  0  0  0  0  0
  132.5510  116.4940   60.1890 C   0  0  0  0  0  0  0  0  0  0  0  0
  131.1630  116.4780   60.0470 C   0  0  0  0  0  0  0  0  0  0  0  0
  130.4110  117.6280   60.2670 C   0  0  0  0  0  0  0  0  0  0  0  0
  131.0480  118.8200   60.6430 C   0  0  0  0  0  0  0  0  0  0  0  0
  130.3860  120.0410   60.8800 N   0  0  0  0  0  0  0  0  0  0  0  0
  130.8720  121.1950   61.3840 C   0  0  0  0  0  0  0  0  0  0  0  0
  132.0390  121.3920   61.7230 O   0  0  0  0  0  0  0  0  0  0  0  0
  129.8550  122.3300   61.5220 C   0  0  0  0  0  0  0  0  0  0  0  0
  129.2920  122.9340   59.9030 S   0  0  0  0  0  0  0  0  0  0  0  0
  127.5340  123.2100   59.9860 C   0  0  0  0  0  0  0  0  0  0  0  0
  127.0840  123.4440   61.2450 N   0  0  0  0  0  0  0  0  0  0  0  0
  125.7620  123.6670   61.4340 C   0  0  0  0  0  0  0  0  0  0  0  0
  125.3360  123.9310   62.8660 C   0  0  0  0  0  0  0  0  0  0  0  0
  124.8420  123.6570   60.3880 C   0  0  0  0  0  0  0  0  0  0  0  0
  125.2910  123.3930   59.0900 C   0  0  0  0  0  0  0  0  0  0  0  0
  124.2600  123.3710   57.9630 C   0  0  0  0  0  0  0  0  0  0  0  0
  126.6670  123.1550   58.8700 C   0  0  0  0  0  0  0  0  0  0  0  0
  127.1470  122.8230   57.5260 C   0  0  0  0  0  0  0  0  0  0  0  0
  127.5260  122.5610   56.4650 N   0  0  0  0  0  0  0  0  0  0  0  0
  132.4370  118.8440   60.7760 C   0  0  0  0  0  0  0  0  0  0  0  0
  133.1860  117.6920   60.5540 C   0  0  0  0  0  0  0  0  0  0  0  0
  133.4705  115.0321   61.9851 H   0  0  0  0  0  0  0  0  0  0  0  0
  133.6451  113.5582   60.9732 H   0  0  0  0  0  0  0  0  0  0  0  0
  134.9374  114.8059   60.9732 H   0  0  0  0  0  0  0  0  0  0  0  0
  130.6571  115.5451   59.7577 H   0  0  0  0  0  0  0  0  0  0  0  0
  129.3180  117.6024   60.1462 H   0  0  0  0  0  0  0  0  0  0  0  0
  129.4230  120.0560   60.5810 H   0  0  0  0  0  0  0  0  0  0  0  0
  128.9856  121.9621   62.0866 H   0  0  0  0  0  0  0  0  0  0  0  0
  130.3435  123.1643   62.0467 H   0  0  0  0  0  0  0  0  0  0  0  0
  126.0651  123.4792   63.5547 H   0  0  0  0  0  0  0  0  0  0  0  0
  125.2901  125.0161   63.0408 H   0  0  0  0  0  0  0  0  0  0  0  0
  124.3439  123.4892   63.0408 H   0  0  0  0  0  0  0  0  0  0  0  0
  123.7770  123.8540   60.5803 H   0  0  0  0  0  0  0  0  0  0  0  0
  123.2476  123.3494   58.3926 H   0  0  0  0  0  0  0  0  0  0  0  0
  124.3758  124.2718   57.3424 H   0  0  0  0  0  0  0  0  0  0  0  0
  124.4142  122.4759   57.3424 H   0  0  0  0  0  0  0  0  0  0  0  0
  132.9430  119.7791   61.0580 H   0  0  0  0  0  0  0  0  0  0  0  0
  134.2800  117.7202   60.6650 H   0  0  0  0  0  0  0  0  0  0  0  0
  1  2  1  0
  2  3  1  0
  3  4  2  0
  4  5  1  0
  5  6  2  0
  6  7  1  0
  7  8  1  0
  8  9  2  0
  8 10  1  0
 10 11  1  0
 11 12  1  0
 12 13  2  0
 13 14  1  0
 14 15  1  0
 14 16  2  0
 16 17  1  0
 17 18  1  0
 17 19  2  0
 19 20  1  0
 20 21  3  0
  6 22  1  0
 22 23  2  0
 23  3  1  0
 19 12  1  0
  1 24  1  0
  1 25  1  0
  1 26  1  0
  4 27  1  0
  5 28  1  0
  7 29  1  0
 10 30  1  0
 10 31  1  0
 15 32  1  0
 15 33  1  0
 15 34  1  0
 16 35  1  0
 18 36  1  0
 18 37  1  0
 18 38  1  0
 22 39  1  0
 23 40  1  0
M  END
>  <Binding energies>  (1) 
[-8.56]

>  <Ligand effiencies>  (1) 
[-0.3566666666666667]

>  <Interactions>  (1) 
["V-B:PRO:540:CA:9855, V-B:ALA:541:CB:9864, V-B:LEU:363:CA:8156, V-B:PRO:540:CB:9857, V-B:LEU:363:CD1:8160, V-B:ASN:362:CB:8147, V-B:PRO:540:N:9856, V-A:LEU:475:CD2:4256, V-B:GLU:543:CD:9880, V-B:TYR:539:C:9839, V-B:TYR:539:CE1:9847, V-B:TYR:539:CD1:9845, V-B:TYR:539:CG:9844, H-B:TYR:539:N:9842, V-B:ARG:545:CZ:9898, H-B:ALA:541:N:9863, H-B:TYR:539:O:9840, V-A:PRO:482:CG:4324, V-A:SER:385:CB:3406, V-A:PRO:482:CB:4323, V-A:SER:385:CA:3404, V-B:TYR:539:CB:9843, V-A:HIS:383:CG:3387, V-A:HIS:383:CB:3386, V-A:LEU:373:CD1:3277, V-B:VAL:344:CG1:7972, V-A:HIS:383:CA:3384, V-A:THR:477:CA:4267, V-A:HIS:383:C:3382, V-A:THR:477:CG2:4270, V-A:THR:477:CB:4269"]

$$$$
1d_Ghoteimi_2023
     RDKit          3D

 50 52  0  0  0  0  0  0  0  0999 V2000
  131.1770  125.7900   66.2680 C   0  0  0  0  0  0  0  0  0  0  0  0
  131.6810  124.8940   65.2890 O   0  0  0  0  0  0  0  0  0  0  0  0
  132.7340  125.2420   64.5200 C   0  0  0  0  0  0  0  0  0  0  0  0
  133.8900  125.4230   64.9060 O   0  0  0  0  0  0  0  0  0  0  0  0
  132.3510  125.4060   63.0520 C   0  0  0  0  0  0  0  0  0  0  0  0
  130.5450  125.2350   62.9360 S   0  0  0  0  0  0  0  0  0  0  0  0
  130.2210  123.8090   61.9210 C   0  0  0  0  0  0  0  0  0  0  0  0
  129.1420  123.9470   61.1150 N   0  0  0  0  0  0  0  0  0  0  0  0
  128.7790  122.9320   60.2890 C   0  0  0  0  0  0  0  0  0  0  0  0
  127.5750  123.1680   59.4240 C   0  0  0  0  0  0  0  0  0  0  0  0
  126.3820  123.6790   59.9590 C   0  0  0  0  0  0  0  0  0  0  0  0
  125.2650  123.8910   59.1570 C   0  0  0  0  0  0  0  0  0  0  0  0
  125.3030  123.5970   57.7960 C   0  0  0  0  0  0  0  0  0  0  0  0
  124.1470  123.8350   57.0780 O   0  0  0  0  0  0  0  0  0  0  0  0
  123.1810  124.7420   57.6000 C   0  0  0  0  0  0  0  0  0  0  0  0
  126.4870  123.0850   57.2470 C   0  0  0  0  0  0  0  0  0  0  0  0
  127.6020  122.8760   58.0520 C   0  0  0  0  0  0  0  0  0  0  0  0
  129.5170  121.7430   60.2540 C   0  0  0  0  0  0  0  0  0  0  0  0
  130.6280  121.5680   61.0880 C   0  0  0  0  0  0  0  0  0  0  0  0
  131.3660  120.2700   61.0050 C   0  0  0  0  0  0  0  0  0  0  0  0
  130.7010  119.0660   61.2530 C   0  0  0  0  0  0  0  0  0  0  0  0
  131.3820  117.8530   61.1770 C   0  0  0  0  0  0  0  0  0  0  0  0
  132.7360  117.8200   60.8480 C   0  0  0  0  0  0  0  0  0  0  0  0
  133.3310  116.5740   60.8030 O   0  0  0  0  0  0  0  0  0  0  0  0
  132.5580  115.4230   61.1240 C   0  0  0  0  0  0  0  0  0  0  0  0
  133.4050  119.0260   60.5850 C   0  0  0  0  0  0  0  0  0  0  0  0
  132.7210  120.2360   60.6610 C   0  0  0  0  0  0  0  0  0  0  0  0
  130.9850  122.6210   61.9660 C   0  0  0  0  0  0  0  0  0  0  0  0
  132.0740  122.4520   62.9330 C   0  0  0  0  0  0  0  0  0  0  0  0
  132.9340  122.3180   63.6960 N   0  0  0  0  0  0  0  0  0  0  0  0
  131.3975  125.3981   67.2719 H   0  0  0  0  0  0  0  0  0  0  0  0
  131.6543  126.7734   66.1454 H   0  0  0  0  0  0  0  0  0  0  0  0
  130.0887  125.8928   66.1454 H   0  0  0  0  0  0  0  0  0  0  0  0
  132.6581  126.3992   62.6925 H   0  0  0  0  0  0  0  0  0  0  0  0
  132.8525  124.6469   62.4337 H   0  0  0  0  0  0  0  0  0  0  0  0
  126.3293  123.9161   61.0318 H   0  0  0  0  0  0  0  0  0  0  0  0
  124.3434  124.2945   59.6018 H   0  0  0  0  0  0  0  0  0  0  0  0
  123.2094  124.7153   58.6993 H   0  0  0  0  0  0  0  0  0  0  0  0
  123.4085  125.7604   57.2519 H   0  0  0  0  0  0  0  0  0  0  0  0
  122.1790  124.4508   57.2519 H   0  0  0  0  0  0  0  0  0  0  0  0
  126.5345  122.8473   56.1740 H   0  0  0  0  0  0  0  0  0  0  0  0
  128.5228  122.4740   57.6042 H   0  0  0  0  0  0  0  0  0  0  0  0
  129.2213  120.9384   59.5647 H   0  0  0  0  0  0  0  0  0  0  0  0
  129.6315  119.0762   61.5102 H   0  0  0  0  0  0  0  0  0  0  0  0
  130.8466  116.9134   61.3783 H   0  0  0  0  0  0  0  0  0  0  0  0
  132.4893  115.3206   62.2171 H   0  0  0  0  0  0  0  0  0  0  0  0
  131.5480  115.5301   60.7015 H   0  0  0  0  0  0  0  0  0  0  0  0
  133.0392  114.5286   60.7015 H   0  0  0  0  0  0  0  0  0  0  0  0
  134.4721  119.0147   60.3183 H   0  0  0  0  0  0  0  0  0  0  0  0
  133.2521  121.1755   60.4482 H   0  0  0  0  0  0  0  0  0  0  0  0
  1  2  1  0
  2  3  1  0
  3  4  2  0
  3  5  1  0
  5  6  1  0
  6  7  1  0
  7  8  2  0
  8  9  1  0
  9 10  1  0
 10 11  2  0
 11 12  1  0
 12 13  2  0
 13 14  1  0
 14 15  1  0
 13 16  1  0
 16 17  2  0
  9 18  2  0
 18 19  1  0
 19 20  1  0
 20 21  2  0
 21 22  1  0
 22 23  2  0
 23 24  1  0
 24 25  1  0
 23 26  1  0
 26 27  2  0
 19 28  2  0
 28 29  1  0
 29 30  3  0
 28  7  1  0
 17 10  1  0
 27 20  1  0
  1 31  1  0
  1 32  1  0
  1 33  1  0
  5 34  1  0
  5 35  1  0
 11 36  1  0
 12 37  1  0
 15 38  1  0
 15 39  1  0
 15 40  1  0
 16 41  1  0
 17 42  1  0
 18 43  1  0
 21 44  1  0
 22 45  1  0
 25 46  1  0
 25 47  1  0
 25 48  1  0
 26 49  1  0
 27 50  1  0
M  END
>  <Binding energies>  (1) 
[-7.99]

>  <Ligand effiencies>  (1) 
[-0.26633333333333337]

>  <Interactions>  (1) 
["V-B:ASP:366:CG:8184, V-B:ASP:366:CB:8183, H-B:TYR:531:OH:9767, V-B:PRO:540:CA:9855, V-B:LEU:363:CA:8156, V-B:PRO:540:CB:9857, V-B:LEU:363:CD1:8160, V-B:PRO:540:N:9856, V-A:LEU:475:CD2:4256, V-B:TYR:539:C:9839, V-B:TYR:539:CE1:9847, V-B:TYR:539:CD1:9845, V-B:TYR:531:CE2:9765, V-A:ILE:369:CG2:3234, H-A:GLY:454:N:4047, H-A:TYR:484:OH:4345, V-B:TYR:531:CZ:9766, H-A:ARG:545:NH2:4926, V-A:HIS:456:CE1:4066, V-A:ARG:545:CZ:4924, V-A:PRO:482:CG:4324, V-A:SER:385:CB:3406, V-A:PRO:482:CB:4323, V-A:SER:385:CA:3404, V-A:LEU:373:CD1:3277, H-A:ARG:545:NE:4922, V-B:LEU:363:CB:8158, H-A:ARG:545:NH1:4925, V-B:LEU:363:C:8154"]

$$$$
1d_Grossjean_2025
     RDKit          3D

 36 37  0  0  0  0  0  0  0  0999 V2000
  132.4050  131.1280   62.5920 C   0  0  0  0  0  0  0  0  0  0  0  0
  131.8450  131.5180   61.2380 C   0  0  0  0  0  0  0  0  0  0  0  0
  132.6360  131.5130   60.0920 C   0  0  0  0  0  0  0  0  0  0  0  0
  132.0630  131.8730   58.8670 C   0  0  0  0  0  0  0  0  0  0  0  0
  132.9470  131.8440   57.6220 C   0  0  0  0  0  0  0  0  0  0  0  0
  130.6980  132.2400   58.8240 C   0  0  0  0  0  0  0  0  0  0  0  0
  130.0640  132.5730   57.5470 C   0  0  0  0  0  0  0  0  0  0  0  0
  129.5670  132.8360   56.5350 N   0  0  0  0  0  0  0  0  0  0  0  0
  129.9770  132.2400   60.0410 C   0  0  0  0  0  0  0  0  0  0  0  0
  128.2560  132.6740   60.1720 S   0  0  0  0  0  0  0  0  0  0  0  0
  128.0320  133.5290   61.7610 C   0  0  0  0  0  0  0  0  0  0  0  0
  126.8940  134.5500   61.7110 C   0  0  0  0  0  0  0  0  0  0  0  0
  125.7720  134.2180   62.0940 O   0  0  0  0  0  0  0  0  0  0  0  0
  127.2360  135.7750   61.2570 N   0  0  0  0  0  0  0  0  0  0  0  0
  126.4420  136.9220   61.0700 C   0  0  0  0  0  0  0  0  0  0  0  0
  127.1110  138.0500   60.5880 C   0  0  0  0  0  0  0  0  0  0  0  0
  126.4180  139.2350   60.3620 C   0  0  0  0  0  0  0  0  0  0  0  0
  125.0490  139.2930   60.6110 C   0  0  0  0  0  0  0  0  0  0  0  0
  124.3680  138.1740   61.0830 C   0  0  0  0  0  0  0  0  0  0  0  0
  125.0590  136.9870   61.3110 C   0  0  0  0  0  0  0  0  0  0  0  0
  130.5370  131.8690   61.2210 N   0  0  0  0  0  0  0  0  0  0  0  0
  131.7804  131.5630   63.3862 H   0  0  0  0  0  0  0  0  0  0  0  0
  132.4071  130.0320   62.6860 H   0  0  0  0  0  0  0  0  0  0  0  0
  133.4337  131.5061   62.6860 H   0  0  0  0  0  0  0  0  0  0  0  0
  133.6974  131.2298   60.1488 H   0  0  0  0  0  0  0  0  0  0  0  0
  134.0042  131.8093   57.9237 H   0  0  0  0  0  0  0  0  0  0  0  0
  132.7073  130.9532   57.0228 H   0  0  0  0  0  0  0  0  0  0  0  0
  132.7662  132.7486   57.0228 H   0  0  0  0  0  0  0  0  0  0  0  0
  127.8047  132.7825   62.5363 H   0  0  0  0  0  0  0  0  0  0  0  0
  128.9623  134.0703   61.9879 H   0  0  0  0  0  0  0  0  0  0  0  0
  128.2100  135.9070   61.0250 H   0  0  0  0  0  0  0  0  0  0  0  0
  128.1912  138.0009   60.3862 H   0  0  0  0  0  0  0  0  0  0  0  0
  126.9493  140.1226   59.9881 H   0  0  0  0  0  0  0  0  0  0  0  0
  124.5013  140.2303   60.4334 H   0  0  0  0  0  0  0  0  0  0  0  0
  123.2863  138.2277   61.2754 H   0  0  0  0  0  0  0  0  0  0  0  0
  124.5226  136.1003   61.6797 H   0  0  0  0  0  0  0  0  0  0  0  0
  1  2  1  0
  2  3  2  0
  3  4  1  0
  4  5  1  0
  4  6  2  0
  6  7  1  0
  7  8  3  0
  6  9  1  0
  9 10  1  0
 10 11  1  0
 11 12  1  0
 12 13  2  0
 12 14  1  0
 14 15  1  0
 15 16  2  0
 16 17  1  0
 17 18  2  0
 18 19  1  0
 19 20  2  0
  9 21  2  0
 21  2  1  0
 20 15  1  0
  1 22  1  0
  1 23  1  0
  1 24  1  0
  3 25  1  0
  5 26  1  0
  5 27  1  0
  5 28  1  0
 11 29  1  0
 11 30  1  0
 14 31  1  0
 16 32  1  0
 17 33  1  0
 18 34  1  0
 19 35  1  0
 20 36  1  0
M  END
>  <Binding energies>  (1) 
[-9.05]

>  <Ligand effiencies>  (1) 
[-0.4113636363636364]

>  <Interactions>  (1) 
["H-A:ALA:541:N:4889, V-A:PRO:540:CB:4883, V-A:PRO:540:CA:4881, V-A:LEU:363:CD1:3186, H-A:TYR:539:N:4868, V-A:TYR:539:CE1:4873, V-A:PRO:540:C:4879, V-A:TYR:539:CD1:4871, V-A:ALA:541:CB:4890, V-A:PRO:540:N:4882, V-A:TYR:539:C:4865, V-A:TYR:539:CG:4870, V-B:PRO:482:CB:9297, V-B:SER:385:CA:8378, V-B:PRO:482:CG:9298, V-B:LEU:475:CD2:9230, V-B:SER:385:CB:8380, V-B:LEU:373:CD1:8251, V-A:ARG:545:CZ:4924, V-A:GLU:543:CD:4906, V-A:ASN:362:CB:3173, V-B:VAL:384:C:8368, H-A:TYR:539:O:4866, V-A:VAL:344:CG1:2998, V-A:TYR:539:CB:4869"]

$$$$
1e_Grossjean_2025
     RDKit          3D

 38 39  0  0  0  0  0  0  0  0999 V2000
  131.5750  116.5810   60.5820 C   0  0  0  0  0  0  0  0  0  0  0  0
  131.8100  118.0740   60.7140 C   0  0  0  0  0  0  0  0  0  0  0  0
  133.0890  118.6260   60.5980 C   0  0  0  0  0  0  0  0  0  0  0  0
  133.2290  120.0080   60.7340 C   0  0  0  0  0  0  0  0  0  0  0  0
  132.1030  120.7960   60.9810 C   0  0  0  0  0  0  0  0  0  0  0  0
  130.8500  120.1790   61.0800 C   0  0  0  0  0  0  0  0  0  0  0  0
  129.7550  121.0220   61.3400 N   0  0  0  0  0  0  0  0  0  0  0  0
  129.7430  122.2110   61.9810 C   0  0  0  0  0  0  0  0  0  0  0  0
  130.7330  122.7620   62.4670 O   0  0  0  0  0  0  0  0  0  0  0  0
  128.3740  122.8800   62.1170 C   0  0  0  0  0  0  0  0  0  0  0  0
  127.4980  122.9680   60.5260 S   0  0  0  0  0  0  0  0  0  0  0  0
  128.6520  123.4770   59.2670 C   0  0  0  0  0  0  0  0  0  0  0  0
  129.7290  124.1420   59.7590 N   0  0  0  0  0  0  0  0  0  0  0  0
  130.6740  124.5820   58.8960 C   0  0  0  0  0  0  0  0  0  0  0  0
  131.8500  125.3090   59.5190 C   0  0  0  0  0  0  0  0  0  0  0  0
  130.5820  124.3900   57.5190 C   0  0  0  0  0  0  0  0  0  0  0  0
  129.4660  123.7280   56.9990 C   0  0  0  0  0  0  0  0  0  0  0  0
  129.3800  123.5470   55.4840 C   0  0  0  0  0  0  0  0  0  0  0  0
  128.4640  123.2630   57.8810 C   0  0  0  0  0  0  0  0  0  0  0  0
  127.2600  122.6200   57.3470 C   0  0  0  0  0  0  0  0  0  0  0  0
  126.3110  122.1130   56.9230 N   0  0  0  0  0  0  0  0  0  0  0  0
  130.7060  118.8260   60.9520 N   0  0  0  0  0  0  0  0  0  0  0  0
  131.5042  116.1310   61.5833 H   0  0  0  0  0  0  0  0  0  0  0  0
  130.6380  116.4044   60.0335 H   0  0  0  0  0  0  0  0  0  0  0  0
  132.4124  116.1251   60.0335 H   0  0  0  0  0  0  0  0  0  0  0  0
  133.9633  117.9872   60.4044 H   0  0  0  0  0  0  0  0  0  0  0  0
  134.2215  120.4742   60.6470 H   0  0  0  0  0  0  0  0  0  0  0  0
  132.1990  121.8857   61.0961 H   0  0  0  0  0  0  0  0  0  0  0  0
  128.8600  120.6540   61.0510 H   0  0  0  0  0  0  0  0  0  0  0  0
  127.7646  122.3009   62.8264 H   0  0  0  0  0  0  0  0  0  0  0  0
  128.5322  123.9080   62.4752 H   0  0  0  0  0  0  0  0  0  0  0  0
  131.7719  125.2607   60.6152 H   0  0  0  0  0  0  0  0  0  0  0  0
  132.7878  124.8329   59.1969 H   0  0  0  0  0  0  0  0  0  0  0  0
  131.8433  126.3608   59.1969 H   0  0  0  0  0  0  0  0  0  0  0  0
  131.3762  124.7541   56.8507 H   0  0  0  0  0  0  0  0  0  0  0  0
  128.9181  122.5749   55.2565 H   0  0  0  0  0  0  0  0  0  0  0  0
  128.7688  124.3533   55.0525 H   0  0  0  0  0  0  0  0  0  0  0  0
  130.3912  123.5824   55.0525 H   0  0  0  0  0  0  0  0  0  0  0  0
  1  2  1  0
  2  3  2  0
  3  4  1  0
  4  5  2  0
  5  6  1  0
  6  7  1  0
  7  8  1  0
  8  9  2  0
  8 10  1  0
 10 11  1  0
 11 12  1  0
 12 13  2  0
 13 14  1  0
 14 15  1  0
 14 16  2  0
 16 17  1  0
 17 18  1  0
 17 19  2  0
 19 20  1  0
 20 21  3  0
  6 22  2  0
 22  2  1  0
 19 12  1  0
  1 23  1  0
  1 24  1  0
  1 25  1  0
  3 26  1  0
  4 27  1  0
  5 28  1  0
  7 29  1  0
 10 30  1  0
 10 31  1  0
 15 32  1  0
 15 33  1  0
 15 34  1  0
 16 35  1  0
 18 36  1  0
 18 37  1  0
 18 38  1  0
M  END
>  <Binding energies>  (1) 
[-7.38]

>  <Ligand effiencies>  (1) 
[-0.3208695652173913]

>  <Interactions>  (1) 
["V-A:ASP:366:CG:3210, V-B:PRO:540:CA:9855, V-B:ALA:541:CB:9864, V-B:ALA:541:CA:9862, V-B:MET:535:CE:9807, V-B:PRO:540:N:9856, V-A:LEU:475:CD2:4256, V-B:TYR:539:C:9839, V-B:TYR:539:CE1:9847, V-B:TYR:539:CD1:9845, H-B:TYR:539:N:9842, V-B:TYR:539:CZ:9849, V-A:ILE:369:CG2:3234, V-B:TYR:539:CE2:9848, H-B:ALA:541:N:9863, H-B:TYR:539:O:9840, V-B:TYR:539:CD2:9846, V-A:PRO:482:CG:4324, V-A:SER:385:CB:3406, V-A:PRO:482:CB:4323, V-A:SER:385:CA:3404, V-A:LEU:373:CD1:3277"]

$$$$
1f_Grossjean_2025
     RDKit          3D

 35 36  0  0  0  0  0  0  0  0999 V2000
  125.4020  123.6420   62.8040 C   0  0  0  0  0  0  0  0  0  0  0  0
  125.8900  123.4350   61.3830 C   0  0  0  0  0  0  0  0  0  0  0  0
  125.0540  123.6380   60.2880 C   0  0  0  0  0  0  0  0  0  0  0  0
  125.5570  123.4200   59.0000 C   0  0  0  0  0  0  0  0  0  0  0  0
  124.6160  123.6310   57.8160 C   0  0  0  0  0  0  0  0  0  0  0  0
  126.9000  123.0070   58.8430 C   0  0  0  0  0  0  0  0  0  0  0  0
  127.4270  122.7190   57.5060 C   0  0  0  0  0  0  0  0  0  0  0  0
  127.8420  122.4920   56.4500 N   0  0  0  0  0  0  0  0  0  0  0  0
  127.6840  122.8530   60.0100 C   0  0  0  0  0  0  0  0  0  0  0  0
  129.3910  122.3410   60.0080 S   0  0  0  0  0  0  0  0  0  0  0  0
  129.6440  121.1750   61.3890 C   0  0  0  0  0  0  0  0  0  0  0  0
  130.8070  120.1900   61.1990 C   0  0  0  0  0  0  0  0  0  0  0  0
  131.9730  120.5850   61.2410 O   0  0  0  0  0  0  0  0  0  0  0  0
  130.4300  118.9150   60.9660 N   0  0  0  0  0  0  0  0  0  0  0  0
  131.2200  117.7680   60.7560 C   0  0  0  0  0  0  0  0  0  0  0  0
  131.9880  117.1120   61.7360 C   0  0  0  0  0  0  0  0  0  0  0  0
  132.7250  115.9760   61.3890 C   0  0  0  0  0  0  0  0  0  0  0  0
  132.6740  115.5220   60.0710 C   0  0  0  0  0  0  0  0  0  0  0  0
  131.9380  116.1340   59.1100 N   0  0  0  0  0  0  0  0  0  0  0  0
  131.2270  117.2360   59.4620 C   0  0  0  0  0  0  0  0  0  0  0  0
  127.1800  123.0440   61.2550 N   0  0  0  0  0  0  0  0  0  0  0  0
  126.1786  123.3126   63.5100 H   0  0  0  0  0  0  0  0  0  0  0  0
  125.1875  124.7086   62.9663 H   0  0  0  0  0  0  0  0  0  0  0  0
  124.4860  123.0549   62.9663 H   0  0  0  0  0  0  0  0  0  0  0  0
  124.0137  123.9648   60.4330 H   0  0  0  0  0  0  0  0  0  0  0  0
  123.6054  123.8576   58.1867 H   0  0  0  0  0  0  0  0  0  0  0  0
  124.9789  124.4701   57.2042 H   0  0  0  0  0  0  0  0  0  0  0  0
  124.5859  122.7173   57.2042 H   0  0  0  0  0  0  0  0  0  0  0  0
  129.8377  121.7608   62.2997 H   0  0  0  0  0  0  0  0  0  0  0  0
  128.7303  120.5655   61.4494 H   0  0  0  0  0  0  0  0  0  0  0  0
  129.4350  118.7470   60.9170 H   0  0  0  0  0  0  0  0  0  0  0  0
  132.0082  117.4908   62.7685 H   0  0  0  0  0  0  0  0  0  0  0  0
  133.3330  115.4506   62.1402 H   0  0  0  0  0  0  0  0  0  0  0  0
  133.2559  114.6289   59.7992 H   0  0  0  0  0  0  0  0  0  0  0  0
  130.6250  117.7367   58.6894 H   0  0  0  0  0  0  0  0  0  0  0  0
  1  2  1  0
  2  3  2  0
  3  4  1  0
  4  5  1  0
  4  6  2  0
  6  7  1  0
  7  8  3  0
  6  9  1  0
  9 10  1  0
 10 11  1  0
 11 12  1  0
 12 13  2  0
 12 14  1  0
 14 15  1  0
 15 16  2  0
 16 17  1  0
 17 18  2  0
 18 19  1  0
 19 20  2  0
  9 21  2  0
 21  2  1  0
 20 15  1  0
  1 22  1  0
  1 23  1  0
  1 24  1  0
  3 25  1  0
  5 26  1  0
  5 27  1  0
  5 28  1  0
 11 29  1  0
 11 30  1  0
 14 31  1  0
 16 32  1  0
 17 33  1  0
 18 34  1  0
 20 35  1  0
M  END
>  <Binding energies>  (1) 
[-8.73]

>  <Ligand effiencies>  (1) 
[-0.39681818181818185]

>  <Interactions>  (1) 
["V-B:PRO:540:CA:9855, V-B:ALA:541:CB:9864, V-B:PRO:540:CB:9857, V-B:LEU:363:CD1:8160, V-B:ALA:541:C:9860, V-B:ASN:362:CB:8147, V-B:PRO:540:N:9856, V-A:LEU:475:CD2:4256, V-B:GLU:543:CD:9880, V-B:TYR:539:C:9839, V-B:TYR:539:CE1:9847, V-B:TYR:539:CD1:9845, V-B:PRO:540:C:9853, V-B:TYR:539:CG:9844, H-B:TYR:539:N:9842, V-B:ARG:545:CZ:9898, H-B:ALA:541:N:9863, H-B:TYR:539:O:9840, V-A:PRO:482:CG:4324, V-A:SER:385:CB:3406, V-A:PRO:482:CB:4323, V-A:SER:385:CA:3404, V-B:TYR:539:CB:9843, V-A:HIS:383:CG:3387, V-A:HIS:383:CB:3386, V-A:LEU:373:CD1:3277, V-A:LEU:475:CG:4254"]

$$$$
1g_Grossjean_2025
     RDKit          3D

 39 40  0  0  0  0  0  0  0  0999 V2000
  125.3870  123.6580   62.5820 C   0  0  0  0  0  0  0  0  0  0  0  0
  125.7910  123.4500   61.1350 C   0  0  0  0  0  0  0  0  0  0  0  0
  124.8850  123.6330   60.0910 C   0  0  0  0  0  0  0  0  0  0  0  0
  125.3100  123.4120   58.7770 C   0  0  0  0  0  0  0  0  0  0  0  0
  124.2950  123.6040   57.6500 C   0  0  0  0  0  0  0  0  0  0  0  0
  126.6450  123.0180   58.5390 C   0  0  0  0  0  0  0  0  0  0  0  0
  127.0980  122.7290   57.1750 C   0  0  0  0  0  0  0  0  0  0  0  0
  127.4520  122.5010   56.0970 N   0  0  0  0  0  0  0  0  0  0  0  0
  127.5020  122.8810   59.6560 C   0  0  0  0  0  0  0  0  0  0  0  0
  129.2120  122.4030   59.5380 S   0  0  0  0  0  0  0  0  0  0  0  0
  129.9740  122.7190   61.1580 C   0  0  0  0  0  0  0  0  0  0  0  0
  130.2600  121.4230   61.9190 C   0  0  0  0  0  0  0  0  0  0  0  0
  130.6060  121.4650   63.1000 O   0  0  0  0  0  0  0  0  0  0  0  0
  130.1150  120.2810   61.2240 N   0  0  0  0  0  0  0  0  0  0  0  0
  130.2790  118.9320   61.7660 C   0  0  0  0  0  0  0  0  0  0  0  0
  131.1100  118.0000   60.8890 C   0  0  0  0  0  0  0  0  0  0  0  0
  130.4850  117.2290   59.9030 C   0  0  0  0  0  0  0  0  0  0  0  0
  131.2420  116.3790   59.1010 C   0  0  0  0  0  0  0  0  0  0  0  0
  132.6220  116.3060   59.2850 C   0  0  0  0  0  0  0  0  0  0  0  0
  133.2500  117.0750   60.2610 C   0  0  0  0  0  0  0  0  0  0  0  0
  132.4940  117.9240   61.0650 C   0  0  0  0  0  0  0  0  0  0  0  0
  127.0750  123.0760   60.9300 N   0  0  0  0  0  0  0  0  0  0  0  0
  126.1690  123.2554   63.2425 H   0  0  0  0  0  0  0  0  0  0  0  0
  125.2606  124.7333   62.7765 H   0  0  0  0  0  0  0  0  0  0  0  0
  124.4384  123.1362   62.7765 H   0  0  0  0  0  0  0  0  0  0  0  0
  123.8511  123.9466   60.2978 H   0  0  0  0  0  0  0  0  0  0  0  0
  123.3004  123.7921   58.0805 H   0  0  0  0  0  0  0  0  0  0  0  0
  124.5941  124.4615   57.0293 H   0  0  0  0  0  0  0  0  0  0  0  0
  124.2602  122.6965   57.0293 H   0  0  0  0  0  0  0  0  0  0  0  0
  130.9208  123.2581   61.0061 H   0  0  0  0  0  0  0  0  0  0  0  0
  129.2683  123.3152   61.7551 H   0  0  0  0  0  0  0  0  0  0  0  0
  129.8070  120.3380   60.2640 H   0  0  0  0  0  0  0  0  0  0  0  0
  130.7710  119.0121   62.7466 H   0  0  0  0  0  0  0  0  0  0  0  0
  129.2725  118.4926   61.8275 H   0  0  0  0  0  0  0  0  0  0  0  0
  129.3961  117.2943   59.7614 H   0  0  0  0  0  0  0  0  0  0  0  0
  130.7540  115.7687   58.3268 H   0  0  0  0  0  0  0  0  0  0  0  0
  133.2208  115.6340   58.6526 H   0  0  0  0  0  0  0  0  0  0  0  0
  134.3398  117.0121   60.3965 H   0  0  0  0  0  0  0  0  0  0  0  0
  132.9855  118.5338   61.8374 H   0  0  0  0  0  0  0  0  0  0  0  0
  1  2  1  0
  2  3  2  0
  3  4  1  0
  4  5  1  0
  4  6  2  0
  6  7  1  0
  7  8  3  0
  6  9  1  0
  9 10  1  0
 10 11  1  0
 11 12  1  0
 12 13  2  0
 12 14  1  0
 14 15  1  0
 15 16  1  0
 16 17  2  0
 17 18  1  0
 18 19  2  0
 19 20  1  0
 20 21  2  0
  9 22  2  0
 22  2  1  0
 21 16  1  0
  1 23  1  0
  1 24  1  0
  1 25  1  0
  3 26  1  0
  5 27  1  0
  5 28  1  0
  5 29  1  0
 11 30  1  0
 11 31  1  0
 14 32  1  0
 15 33  1  0
 15 34  1  0
 17 35  1  0
 18 36  1  0
 19 37  1  0
 20 38  1  0
 21 39  1  0
M  END
>  <Binding energies>  (1) 
[-8.93]

>  <Ligand effiencies>  (1) 
[-0.3882608695652174]

>  <Interactions>  (1) 
["V-B:PRO:540:CA:9855, V-B:ALA:541:CB:9864, V-B:LEU:363:CA:8156, V-B:PRO:540:CB:9857, V-B:LEU:363:CD1:8160, V-B:ALA:541:C:9860, V-B:ASN:362:CB:8147, V-B:PRO:540:N:9856, V-A:LEU:475:CD2:4256, V-B:GLU:543:CD:9880, V-B:TYR:539:C:9839, V-B:TYR:539:CE1:9847, V-B:TYR:539:CD1:9845, V-B:PRO:540:C:9853, V-B:TYR:539:CG:9844, H-B:TYR:539:N:9842, V-B:TYR:531:CE2:9765, V-B:ARG:545:CZ:9898, H-B:ALA:541:N:9863, H-B:TYR:539:O:9840, V-A:PRO:482:CG:4324, V-A:SER:385:CB:3406, V-A:PRO:482:CB:4323, V-A:SER:385:CA:3404, V-B:TYR:539:CB:9843, V-A:LEU:373:CD2:3278, V-A:LEU:373:CD1:3277, V-A:VAL:384:C:3394, V-B:VAL:344:CG1:7972"]

$$$$
1h_Grossjean_2025
     RDKit          3D

 51 52  0  0  0  0  0  0  0  0999 V2000
  125.2590  129.6110   56.9340 C   0  0  0  0  0  0  0  0  0  0  0  0
  126.2720  129.2910   55.9870 O   0  0  0  0  0  0  0  0  0  0  0  0
  127.5390  128.9650   56.4340 C   0  0  0  0  0  0  0  0  0  0  0  0
  128.0480  127.6560   56.4630 C   0  0  0  0  0  0  0  0  0  0  0  0
  129.3330  127.4000   56.9400 C   0  0  0  0  0  0  0  0  0  0  0  0
  129.8820  125.9760   56.9450 C   0  0  0  0  0  0  0  0  0  0  0  0
  129.8590  125.3340   58.2600 N   0  0  0  0  0  0  0  0  0  0  0  0
  130.8550  124.5950   58.7810 C   0  0  0  0  0  0  0  0  0  0  0  0
  131.9270  124.3940   58.2110 O   0  0  0  0  0  0  0  0  0  0  0  0
  130.5990  123.9830   60.1580 C   0  0  0  0  0  0  0  0  0  0  0  0
  129.5380  122.5090   60.0620 S   0  0  0  0  0  0  0  0  0  0  0  0
  128.2760  122.8160   58.8360 C   0  0  0  0  0  0  0  0  0  0  0  0
  128.6590  122.6570   57.5420 N   0  0  0  0  0  0  0  0  0  0  0  0
  127.7490  122.8700   56.5630 C   0  0  0  0  0  0  0  0  0  0  0  0
  128.2510  122.6680   55.1450 C   0  0  0  0  0  0  0  0  0  0  0  0
  126.4350  123.2480   56.8260 C   0  0  0  0  0  0  0  0  0  0  0  0
  126.0290  123.4170   58.1530 C   0  0  0  0  0  0  0  0  0  0  0  0
  124.5830  123.8290   58.4200 C   0  0  0  0  0  0  0  0  0  0  0  0
  126.9620  123.1990   59.1930 C   0  0  0  0  0  0  0  0  0  0  0  0
  126.5660  123.3710   60.5930 C   0  0  0  0  0  0  0  0  0  0  0  0
  126.2520  123.5080   61.6990 N   0  0  0  0  0  0  0  0  0  0  0  0
  130.1370  128.4610   57.3600 C   0  0  0  0  0  0  0  0  0  0  0  0
  129.6560  129.7800   57.3370 C   0  0  0  0  0  0  0  0  0  0  0  0
  130.3950  130.8770   57.7390 O   0  0  0  0  0  0  0  0  0  0  0  0
  131.8170  130.8010   57.7410 C   0  0  0  0  0  0  0  0  0  0  0  0
  128.3520  130.0170   56.8810 C   0  0  0  0  0  0  0  0  0  0  0  0
  127.8700  131.3030   56.8470 O   0  0  0  0  0  0  0  0  0  0  0  0
  128.5840  132.1650   55.9720 C   0  0  0  0  0  0  0  0  0  0  0  0
  125.6561  129.4856   57.9521 H   0  0  0  0  0  0  0  0  0  0  0  0
  124.9395  130.6538   56.7909 H   0  0  0  0  0  0  0  0  0  0  0  0
  124.3984  128.9410   56.7909 H   0  0  0  0  0  0  0  0  0  0  0  0
  127.4253  126.8229   56.1051 H   0  0  0  0  0  0  0  0  0  0  0  0
  129.2781  125.3700   56.2536 H   0  0  0  0  0  0  0  0  0  0  0  0
  130.9371  126.0405   56.6406 H   0  0  0  0  0  0  0  0  0  0  0  0
  129.0060  125.4370   58.7900 H   0  0  0  0  0  0  0  0  0  0  0  0
  131.5630  123.6982   60.6048 H   0  0  0  0  0  0  0  0  0  0  0  0
  130.0819  124.7343   60.7729 H   0  0  0  0  0  0  0  0  0  0  0  0
  129.2712  122.2575   55.1722 H   0  0  0  0  0  0  0  0  0  0  0  0
  127.5876  121.9668   54.6176 H   0  0  0  0  0  0  0  0  0  0  0  0
  128.2581  123.6333   54.6176 H   0  0  0  0  0  0  0  0  0  0  0  0
  125.7261  123.4114   56.0009 H   0  0  0  0  0  0  0  0  0  0  0  0
  124.4102  123.8782   59.5052 H   0  0  0  0  0  0  0  0  0  0  0  0
  124.3947  124.8165   57.9736 H   0  0  0  0  0  0  0  0  0  0  0  0
  123.9025  123.0890   57.9736 H   0  0  0  0  0  0  0  0  0  0  0  0
  131.1595  128.2614   57.7132 H   0  0  0  0  0  0  0  0  0  0  0  0
  132.1817  130.7815   58.7786 H   0  0  0  0  0  0  0  0  0  0  0  0
  132.1359  129.8845   57.2230 H   0  0  0  0  0  0  0  0  0  0  0  0
  132.2318  131.6783   57.2230 H   0  0  0  0  0  0  0  0  0  0  0  0
  129.1757  132.8794   56.5632 H   0  0  0  0  0  0  0  0  0  0  0  0
  129.2562  131.5686   55.3376 H   0  0  0  0  0  0  0  0  0  0  0  0
  127.8729  132.7144   55.3376 H   0  0  0  0  0  0  0  0  0  0  0  0
  1  2  1  0
  2  3  1  0
  3  4  2  0
  4  5  1  0
  5  6  1  0
  6  7  1  0
  7  8  1  0
  8  9  2  0
  8 10  1  0
 10 11  1  0
 11 12  1  0
 12 13  2  0
 13 14  1  0
 14 15  1  0
 14 16  2  0
 16 17  1  0
 17 18  1  0
 17 19  2  0
 19 20  1  0
 20 21  3  0
  5 22  2  0
 22 23  1  0
 23 24  1  0
 24 25  1  0
 23 26  2  0
 26 27  1  0
 27 28  1  0
 26  3  1  0
 19 12  1  0
  1 29  1  0
  1 30  1  0
  1 31  1  0
  4 32  1  0
  6 33  1  0
  6 34  1  0
  7 35  1  0
 10 36  1  0
 10 37  1  0
 15 38  1  0
 15 39  1  0
 15 40  1  0
 16 41  1  0
 18 42  1  0
 18 43  1  0
 18 44  1  0
 22 45  1  0
 25 46  1  0
 25 47  1  0
 25 48  1  0
 28 49  1  0
 28 50  1  0
 28 51  1  0
M  END
>  <Binding energies>  (1) 
[-6.63]

>  <Ligand effiencies>  (1) 
[-0.2286206896551724]

>  <Interactions>  (1) 
["V-A:MET:535:CE:4833, V-A:TYR:539:CE2:4874, H-A:TYR:539:OH:4876, V-A:TYR:539:CZ:4875, V-B:ASP:366:CB:8183, V-A:TYR:539:CE1:4873, V-A:TYR:539:CD2:4872, H-B:TYR:531:OH:9767, V-B:PRO:540:CA:9855, V-B:PRO:540:CB:9857, V-B:MET:535:CE:9807, V-B:ILE:538:CA:9832, V-B:PRO:540:N:9856, V-B:TYR:539:C:9839, V-B:TYR:539:CE1:9847, V-B:TYR:539:CD1:9845, V-B:PRO:540:C:9853, V-B:TYR:539:CZ:9849, H-B:TYR:539:OH:9850, V-B:TYR:531:CZ:9766, V-B:TYR:539:CE2:9848, H-B:ALA:541:N:9863, V-B:TYR:531:CE1:9764, V-B:ILE:538:C:9830, V-B:TYR:539:CD2:9846"]

$$$$
1i_Grossjean_2025
     RDKit          3D

 32 33  0  0  0  0  0  0  0  0999 V2000
  125.1860  123.8920   62.6600 C   0  0  0  0  0  0  0  0  0  0  0  0
  125.7250  123.5710   61.2790 C   0  0  0  0  0  0  0  0  0  0  0  0
  124.9140  123.6280   60.1480 C   0  0  0  0  0  0  0  0  0  0  0  0
  125.4680  123.3320   58.8980 C   0  0  0  0  0  0  0  0  0  0  0  0
  124.5630  123.4180   57.6710 C   0  0  0  0  0  0  0  0  0  0  0  0
  126.8340  122.9760   58.8140 C   0  0  0  0  0  0  0  0  0  0  0  0
  127.4470  122.7110   57.5100 C   0  0  0  0  0  0  0  0  0  0  0  0
  127.9290  122.5040   56.4780 N   0  0  0  0  0  0  0  0  0  0  0  0
  127.5760  122.9200   60.0180 C   0  0  0  0  0  0  0  0  0  0  0  0
  129.3010  122.4910   60.0970 S   0  0  0  0  0  0  0  0  0  0  0  0
  129.6560  121.9530   61.7970 C   0  0  0  0  0  0  0  0  0  0  0  0
  130.9040  122.6310   62.3670 C   0  0  0  0  0  0  0  0  0  0  0  0
  132.0080  122.3570   61.8950 O   0  0  0  0  0  0  0  0  0  0  0  0
  130.6840  123.5070   63.3710 N   0  0  0  0  0  0  0  0  0  0  0  0
  131.6300  124.2490   64.0630 C   0  0  0  0  0  0  0  0  0  0  0  0
  131.3020  125.1360   65.0860 C   0  0  0  0  0  0  0  0  0  0  0  0
  132.5030  125.6610   65.5040 C   0  0  0  0  0  0  0  0  0  0  0  0
  133.5030  125.1190   64.7690 O   0  0  0  0  0  0  0  0  0  0  0  0
  132.9370  124.2260   63.8570 N   0  0  0  0  0  0  0  0  0  0  0  0
  127.0340  123.2290   61.2230 N   0  0  0  0  0  0  0  0  0  0  0  0
  125.8670  123.4865   63.4228 H   0  0  0  0  0  0  0  0  0  0  0  0
  125.1096  124.9828   62.7794 H   0  0  0  0  0  0  0  0  0  0  0  0
  124.1905  123.4395   62.7794 H   0  0  0  0  0  0  0  0  0  0  0  0
  123.8524  123.9020   60.2365 H   0  0  0  0  0  0  0  0  0  0  0  0
  123.5161  123.5175   57.9938 H   0  0  0  0  0  0  0  0  0  0  0  0
  124.8454  124.2934   57.0677 H   0  0  0  0  0  0  0  0  0  0  0  0
  124.6755  122.5051   57.0677 H   0  0  0  0  0  0  0  0  0  0  0  0
  128.7949  122.2015   62.4347 H   0  0  0  0  0  0  0  0  0  0  0  0
  129.8388  120.8685   61.7777 H   0  0  0  0  0  0  0  0  0  0  0  0
  129.7300  123.6200   63.6870 H   0  0  0  0  0  0  0  0  0  0  0  0
  130.2994  125.3667   65.4754 H   0  0  0  0  0  0  0  0  0  0  0  0
  132.6306  126.4023   66.3067 H   0  0  0  0  0  0  0  0  0  0  0  0
  1  2  1  0
  2  3  2  0
  3  4  1  0
  4  5  1  0
  4  6  2  0
  6  7  1  0
  7  8  3  0
  6  9  1  0
  9 10  1  0
 10 11  1  0
 11 12  1  0
 12 13  2  0
 12 14  1  0
 14 15  1  0
 15 16  1  0
 16 17  2  0
 17 18  1  0
 18 19  1  0
  9 20  2  0
 20  2  1  0
 19 15  2  0
  1 21  1  0
  1 22  1  0
  1 23  1  0
  3 24  1  0
  5 25  1  0
  5 26  1  0
  5 27  1  0
 11 28  1  0
 11 29  1  0
 14 30  1  0
 16 31  1  0
 17 32  1  0
M  END
>  <Binding energies>  (1) 
[-8.05]

>  <Ligand effiencies>  (1) 
[-0.38333333333333336]

>  <Interactions>  (1) 
["V-B:PRO:540:CA:9855, V-B:ALA:541:CB:9864, V-B:PRO:540:CB:9857, V-B:LEU:363:CD1:8160, V-B:ASN:362:CB:8147, V-B:PRO:540:N:9856, V-A:LEU:475:CD2:4256, V-B:GLU:543:CD:9880, V-B:TYR:539:C:9839, V-B:PRO:540:C:9853, H-B:TYR:539:N:9842, V-B:ARG:545:CZ:9898, H-A:GLY:454:N:4047, H-A:TYR:484:OH:4345, V-A:ARG:545:CG:4920, V-A:ARG:545:CD:4921, V-A:ARG:545:CZ:4924, H-B:ALA:541:N:9863, H-A:ARG:545:NE:4922, H-B:GLU:543:OE1:9881"]

$$$$
1j_Grossjean_2025
     RDKit          3D

 32 33  0  0  0  0  0  0  0  0999 V2000
  125.3500  123.8780   62.6100 C   0  0  0  0  0  0  0  0  0  0  0  0
  125.8470  123.5550   61.2130 C   0  0  0  0  0  0  0  0  0  0  0  0
  125.0070  123.6300   60.1050 C   0  0  0  0  0  0  0  0  0  0  0  0
  125.5240  123.3340   58.8390 C   0  0  0  0  0  0  0  0  0  0  0  0
  124.5870  123.4400   57.6360 C   0  0  0  0  0  0  0  0  0  0  0  0
  126.8810  122.9600   58.7180 C   0  0  0  0  0  0  0  0  0  0  0  0
  127.4560  122.6970   57.3960 C   0  0  0  0  0  0  0  0  0  0  0  0
  127.9080  122.4910   56.3510 N   0  0  0  0  0  0  0  0  0  0  0  0
  127.6540  122.8850   59.9000 C   0  0  0  0  0  0  0  0  0  0  0  0
  129.3740  122.4290   59.9330 S   0  0  0  0  0  0  0  0  0  0  0  0
  129.6350  121.3630   61.3820 C   0  0  0  0  0  0  0  0  0  0  0  0
  130.8240  120.4190   61.1930 C   0  0  0  0  0  0  0  0  0  0  0  0
  131.9670  120.8450   61.3620 O   0  0  0  0  0  0  0  0  0  0  0  0
  130.5120  119.1510   60.8450 N   0  0  0  0  0  0  0  0  0  0  0  0
  131.4030  118.1130   60.6100 C   0  0  0  0  0  0  0  0  0  0  0  0
  132.6840  118.0670   60.9060 N   0  0  0  0  0  0  0  0  0  0  0  0
  133.2240  116.9220   60.5380 C   0  0  0  0  0  0  0  0  0  0  0  0
  132.3720  116.0060   59.9290 C   0  0  0  0  0  0  0  0  0  0  0  0
  130.7770  116.6920   59.8380 S   0  0  0  0  0  0  0  0  0  0  0  0
  127.1490  123.1950   61.1210 N   0  0  0  0  0  0  0  0  0  0  0  0
  126.0304  123.4358   63.3526 H   0  0  0  0  0  0  0  0  0  0  0  0
  125.3191  124.9692   62.7450 H   0  0  0  0  0  0  0  0  0  0  0  0
  124.3402  123.4631   62.7450 H   0  0  0  0  0  0  0  0  0  0  0  0
  123.9520  123.9179   60.2233 H   0  0  0  0  0  0  0  0  0  0  0  0
  123.5512  123.5572   57.9872 H   0  0  0  0  0  0  0  0  0  0  0  0
  124.8687  124.3120   57.0275 H   0  0  0  0  0  0  0  0  0  0  0  0
  124.6668  122.5271   57.0275 H   0  0  0  0  0  0  0  0  0  0  0  0
  129.8218  121.9978   62.2607 H   0  0  0  0  0  0  0  0  0  0  0  0
  128.7325  120.7492   61.5189 H   0  0  0  0  0  0  0  0  0  0  0  0
  129.5360  118.9300   60.7110 H   0  0  0  0  0  0  0  0  0  0  0  0
  134.2892  116.7029   60.7033 H   0  0  0  0  0  0  0  0  0  0  0  0
  132.6608  115.0092   59.5642 H   0  0  0  0  0  0  0  0  0  0  0  0
  1  2  1  0
  2  3  2  0
  3  4  1  0
  4  5  1  0
  4  6  2  0
  6  7  1  0
  7  8  3  0
  6  9  1  0
  9 10  1  0
 10 11  1  0
 11 12  1  0
 12 13  2  0
 12 14  1  0
 14 15  1  0
 15 16  2  0
 16 17  1  0
 17 18  2  0
 18 19  1  0
  9 20  2  0
 20  2  1  0
 19 15  1  0
  1 21  1  0
  1 22  1  0
  1 23  1  0
  3 24  1  0
  5 25  1  0
  5 26  1  0
  5 27  1  0
 11 28  1  0
 11 29  1  0
 14 30  1  0
 17 31  1  0
 18 32  1  0
M  END
>  <Binding energies>  (1) 
[-8.21]

>  <Ligand effiencies>  (1) 
[-0.390952380952381]

>  <Interactions>  (1) 
["V-B:PRO:540:CA:9855, V-B:ALA:541:CB:9864, V-B:PRO:540:CB:9857, V-B:LEU:363:CD1:8160, V-B:ASN:362:CB:8147, V-B:PRO:540:N:9856, V-A:LEU:475:CD2:4256, V-B:GLU:543:CD:9880, V-B:TYR:539:C:9839, V-B:TYR:539:CE1:9847, V-B:TYR:539:CD1:9845, V-B:PRO:540:C:9853, V-B:TYR:539:CG:9844, H-B:TYR:539:N:9842, V-B:ARG:545:CZ:9898, H-B:ALA:541:N:9863, H-B:TYR:539:O:9840, V-A:PRO:482:CG:4324, V-A:SER:385:CB:3406, V-A:SER:385:CA:3404, V-B:TYR:539:CB:9843, V-A:LEU:373:CD1:3277, V-A:VAL:384:C:3394, V-B:VAL:344:CG1:7972"]

$$$$
1k_Grossjean_2025
     RDKit          3D

 50 50  0  0  0  0  0  0  0  0999 V2000
  132.5180  125.5100   65.1830 C   0  0  0  0  0  0  0  0  0  0  0  0
  133.6940  125.1530   64.4750 O   0  0  0  0  0  0  0  0  0  0  0  0
  133.5290  125.1620   63.0630 C   0  0  0  0  0  0  0  0  0  0  0  0
  132.9020  123.8360   62.6120 C   0  0  0  0  0  0  0  0  0  0  0  0
  133.8830  123.0510   61.9460 O   0  0  0  0  0  0  0  0  0  0  0  0
  133.5570  122.7570   60.5940 C   0  0  0  0  0  0  0  0  0  0  0  0
  134.1850  123.8150   59.6770 C   0  0  0  0  0  0  0  0  0  0  0  0
  133.5080  123.8210   58.4270 O   0  0  0  0  0  0  0  0  0  0  0  0
  133.1040  125.1160   58.0020 C   0  0  0  0  0  0  0  0  0  0  0  0
  131.7960  125.5090   58.7130 C   0  0  0  0  0  0  0  0  0  0  0  0
  130.5880  125.0010   58.0620 N   0  0  0  0  0  0  0  0  0  0  0  0
  130.2670  125.1870   56.7700 C   0  0  0  0  0  0  0  0  0  0  0  0
  130.9780  125.8160   55.9840 O   0  0  0  0  0  0  0  0  0  0  0  0
  128.9350  124.5650   56.3220 C   0  0  0  0  0  0  0  0  0  0  0  0
  128.6210  122.8630   56.9080 S   0  0  0  0  0  0  0  0  0  0  0  0
  128.2720  122.9010   58.6600 C   0  0  0  0  0  0  0  0  0  0  0  0
  129.3050  122.5690   59.4780 N   0  0  0  0  0  0  0  0  0  0  0  0
  129.1050  122.5680   60.8160 C   0  0  0  0  0  0  0  0  0  0  0  0
  130.3020  122.1780   61.6610 C   0  0  0  0  0  0  0  0  0  0  0  0
  127.8820  122.9020   61.3930 C   0  0  0  0  0  0  0  0  0  0  0  0
  126.8130  123.2530   60.5630 C   0  0  0  0  0  0  0  0  0  0  0  0
  125.4810  123.6160   61.2160 C   0  0  0  0  0  0  0  0  0  0  0  0
  126.9990  123.2560   59.1630 C   0  0  0  0  0  0  0  0  0  0  0  0
  125.8950  123.6160   58.2680 C   0  0  0  0  0  0  0  0  0  0  0  0
  125.0220  123.9000   57.5630 N   0  0  0  0  0  0  0  0  0  0  0  0
  132.7094  125.4519   66.2647 H   0  0  0  0  0  0  0  0  0  0  0  0
  132.2272  126.5369   64.9167 H   0  0  0  0  0  0  0  0  0  0  0  0
  131.7054  124.8181   64.9167 H   0  0  0  0  0  0  0  0  0  0  0  0
  132.8704  125.9951   62.7762 H   0  0  0  0  0  0  0  0  0  0  0  0
  134.5096  125.2864   62.5804 H   0  0  0  0  0  0  0  0  0  0  0  0
  132.5290  123.2891   63.4905 H   0  0  0  0  0  0  0  0  0  0  0  0
  132.0669  124.0396   61.9256 H   0  0  0  0  0  0  0  0  0  0  0  0
  133.9482  121.7634   60.3298 H   0  0  0  0  0  0  0  0  0  0  0  0
  132.4641  122.7646   60.4694 H   0  0  0  0  0  0  0  0  0  0  0  0
  134.0969  124.8059   60.1464 H   0  0  0  0  0  0  0  0  0  0  0  0
  135.2472  123.5779   59.5175 H   0  0  0  0  0  0  0  0  0  0  0  0
  133.8894  125.8446   58.2515 H   0  0  0  0  0  0  0  0  0  0  0  0
  132.9402  125.1086   56.9143 H   0  0  0  0  0  0  0  0  0  0  0  0
  131.8280  125.1138   59.7391 H   0  0  0  0  0  0  0  0  0  0  0  0
  131.7354  126.6069   58.6832 H   0  0  0  0  0  0  0  0  0  0  0  0
  129.9550  124.4750   58.6470 H   0  0  0  0  0  0  0  0  0  0  0  0
  128.1210  125.2058   56.6920 H   0  0  0  0  0  0  0  0  0  0  0  0
  128.9872  124.5005   55.2251 H   0  0  0  0  0  0  0  0  0  0  0  0
  130.0419  122.2627   62.7264 H   0  0  0  0  0  0  0  0  0  0  0  0
  130.5880  121.1402   61.4348 H   0  0  0  0  0  0  0  0  0  0  0  0
  131.1445  122.8481   61.4348 H   0  0  0  0  0  0  0  0  0  0  0  0
  127.7590  122.8898   62.4860 H   0  0  0  0  0  0  0  0  0  0  0  0
  125.5890  123.5866   62.3103 H   0  0  0  0  0  0  0  0  0  0  0  0
  125.1834  124.6280   60.9040 H   0  0  0  0  0  0  0  0  0  0  0  0
  124.7111  122.8949   60.9040 H   0  0  0  0  0  0  0  0  0  0  0  0
  1  2  1  0
  2  3  1  0
  3  4  1  0
  4  5  1  0
  5  6  1  0
  6  7  1  0
  7  8  1  0
  8  9  1  0
  9 10  1  0
 10 11  1  0
 11 12  1  0
 12 13  2  0
 12 14  1  0
 14 15  1  0
 15 16  1  0
 16 17  2  0
 17 18  1  0
 18 19  1  0
 18 20  2  0
 20 21  1  0
 21 22  1  0
 21 23  2  0
 23 24  1  0
 24 25  3  0
 23 16  1  0
  1 26  1  0
  1 27  1  0
  1 28  1  0
  3 29  1  0
  3 30  1  0
  4 31  1  0
  4 32  1  0
  6 33  1  0
  6 34  1  0
  7 35  1  0
  7 36  1  0
  9 37  1  0
  9 38  1  0
 10 39  1  0
 10 40  1  0
 11 41  1  0
 14 42  1  0
 14 43  1  0
 19 44  1  0
 19 45  1  0
 19 46  1  0
 20 47  1  0
 22 48  1  0
 22 49  1  0
 22 50  1  0
M  END
>  <Binding energies>  (1) 
[-6.43]

>  <Ligand effiencies>  (1) 
[-0.24730769230769228]

>  <Interactions>  (1) 
["V-A:ASP:366:CG:3210, V-A:ASP:366:CB:3209, H-A:TYR:531:OH:4793, H-B:TYR:531:OH:9767, V-B:PRO:540:CA:9855, V-B:ALA:541:CB:9864, V-B:PRO:540:CB:9857, V-B:MET:535:CE:9807, V-A:ASP:366:CA:3207, V-A:ASP:366:C:3205, V-B:PRO:540:N:9856, V-B:TYR:539:C:9839, V-B:TYR:539:CE1:9847, V-B:TYR:539:CD1:9845, V-B:PRO:540:C:9853, V-A:ILE:369:CB:3233, V-B:TYR:539:CZ:9849, V-A:ILE:369:CD1:3236, V-A:ILE:369:CG1:3235, V-A:ILE:369:CG2:3234, H-B:TYR:539:OH:9850, H-A:GLY:454:N:4047, H-A:TYR:484:OH:4345, H-A:ARG:545:NH2:4926, V-A:GLY:453:CA:4041, V-A:ARG:545:CD:4921, V-A:ARG:545:CZ:4924, H-A:ARG:545:NE:4922"]

$$$$
1l_Grossjean_2025
     RDKit          3D

 30 30  0  0  0  0  0  0  0  0999 V2000
  126.6850  137.6220   60.6710 C   0  0  0  0  0  0  0  0  0  0  0  0
  126.6440  136.6790   61.7330 O   0  0  0  0  0  0  0  0  0  0  0  0
  127.4480  135.5820   61.4250 N   0  0  0  0  0  0  0  0  0  0  0  0
  127.0100  134.3460   61.7310 C   0  0  0  0  0  0  0  0  0  0  0  0
  125.8480  134.0940   62.0600 O   0  0  0  0  0  0  0  0  0  0  0  0
  128.0660  133.2360   61.6280 C   0  0  0  0  0  0  0  0  0  0  0  0
  128.4650  132.7050   59.9280 S   0  0  0  0  0  0  0  0  0  0  0  0
  130.1870  132.2390   59.8810 C   0  0  0  0  0  0  0  0  0  0  0  0
  130.7520  131.9460   61.0810 N   0  0  0  0  0  0  0  0  0  0  0  0
  132.0560  131.5850   61.1180 C   0  0  0  0  0  0  0  0  0  0  0  0
  132.6150  131.2730   62.4940 C   0  0  0  0  0  0  0  0  0  0  0  0
  132.8460  131.5000   59.9740 C   0  0  0  0  0  0  0  0  0  0  0  0
  132.2750  131.7980   58.7320 C   0  0  0  0  0  0  0  0  0  0  0  0
  133.1590  131.6980   57.4900 C   0  0  0  0  0  0  0  0  0  0  0  0
  130.9160  132.1770   58.6700 C   0  0  0  0  0  0  0  0  0  0  0  0
  130.2910  132.4950   57.3820 C   0  0  0  0  0  0  0  0  0  0  0  0
  129.8000  132.7460   56.3650 N   0  0  0  0  0  0  0  0  0  0  0  0
  126.7293  138.6398   61.0859 H   0  0  0  0  0  0  0  0  0  0  0  0
  127.5760  137.4391   60.0525 H   0  0  0  0  0  0  0  0  0  0  0  0
  125.7814  137.5171   60.0525 H   0  0  0  0  0  0  0  0  0  0  0  0
  128.4240  135.8320   61.3570 H   0  0  0  0  0  0  0  0  0  0  0  0
  128.9914  133.6010   62.0974 H   0  0  0  0  0  0  0  0  0  0  0  0
  127.6376  132.3569   62.1317 H   0  0  0  0  0  0  0  0  0  0  0  0
  131.9290  131.6559   63.2639 H   0  0  0  0  0  0  0  0  0  0  0  0
  132.7229  130.1842   62.6077 H   0  0  0  0  0  0  0  0  0  0  0  0
  133.5983  131.7527   62.6077 H   0  0  0  0  0  0  0  0  0  0  0  0
  133.9027  131.2031   60.0459 H   0  0  0  0  0  0  0  0  0  0  0  0
  134.2089  131.5792   57.7958 H   0  0  0  0  0  0  0  0  0  0  0  0
  132.8513  130.8289   56.8900 H   0  0  0  0  0  0  0  0  0  0  0  0
  133.0532  132.6138   56.8900 H   0  0  0  0  0  0  0  0  0  0  0  0
  1  2  1  0
  2  3  1  0
  3  4  1  0
  4  5  2  0
  4  6  1  0
  6  7  1  0
  7  8  1  0
  8  9  2  0
  9 10  1  0
 10 11  1  0
 10 12  2  0
 12 13  1  0
 13 14  1  0
 13 15  2  0
 15 16  1  0
 16 17  3  0
 15  8  1  0
  1 18  1  0
  1 19  1  0
  1 20  1  0
  3 21  1  0
  6 22  1  0
  6 23  1  0
 11 24  1  0
 11 25  1  0
 11 26  1  0
 12 27  1  0
 14 28  1  0
 14 29  1  0
 14 30  1  0
M  END
>  <Binding energies>  (1) 
[-6.68]

>  <Ligand effiencies>  (1) 
[-0.3711111111111111]

>  <Interactions>  (1) 
["V-A:ASP:366:CG:3210, V-A:LEU:363:CA:3182, V-A:TYR:531:CE2:4791, H-A:ALA:541:N:4889, V-A:PRO:540:CB:4883, V-A:PRO:540:CA:4881, V-A:LEU:363:CD1:3186, H-A:TYR:539:N:4868, V-A:TYR:539:CE1:4873, V-A:PRO:540:C:4879, V-A:TYR:539:CD1:4871, V-A:ALA:541:CB:4890, V-A:PRO:540:N:4882, V-A:TYR:539:C:4865, V-A:TYR:539:CG:4870, V-B:PRO:482:CG:9298, V-B:LEU:475:CD2:9230, V-A:ARG:545:CZ:4924, V-A:GLU:543:CD:4906, V-A:ASN:362:CB:3173, H-A:TYR:539:O:4866, V-A:TYR:539:CB:4869"]

$$$$
1m_Grossjean_2025
     RDKit          3D

 35 35  0  0  0  0  0  0  0  0999 V2000
  133.0880  115.4110   60.5880 C   0  0  0  0  0  0  0  0  0  0  0  0
  132.4520  116.2020   59.5940 O   0  0  0  0  0  0  0  0  0  0  0  0
  131.3900  116.9720   59.9070 C   0  0  0  0  0  0  0  0  0  0  0  0
  130.2130  116.7150   59.6360 O   0  0  0  0  0  0  0  0  0  0  0  0
  131.8170  118.2420   60.6720 C   0  0  0  0  0  0  0  0  0  0  0  0
  130.7090  119.1900   60.8650 N   0  0  0  0  0  0  0  0  0  0  0  0
  130.8350  120.4820   61.2260 C   0  0  0  0  0  0  0  0  0  0  0  0
  131.9240  121.0120   61.4540 O   0  0  0  0  0  0  0  0  0  0  0  0
  129.5210  121.2650   61.3480 C   0  0  0  0  0  0  0  0  0  0  0  0
  129.2970  122.5760   60.0970 S   0  0  0  0  0  0  0  0  0  0  0  0
  127.5650  122.9800   60.0280 C   0  0  0  0  0  0  0  0  0  0  0  0
  127.0070  123.1900   61.2480 N   0  0  0  0  0  0  0  0  0  0  0  0
  125.6950  123.5110   61.3180 C   0  0  0  0  0  0  0  0  0  0  0  0
  125.1480  123.7500   62.7120 C   0  0  0  0  0  0  0  0  0  0  0  0
  124.8870  123.6230   60.1880 C   0  0  0  0  0  0  0  0  0  0  0  0
  125.4440  123.3820   58.9270 C   0  0  0  0  0  0  0  0  0  0  0  0
  124.5350  123.4950   57.7050 C   0  0  0  0  0  0  0  0  0  0  0  0
  126.8130  123.0450   58.8290 C   0  0  0  0  0  0  0  0  0  0  0  0
  127.4050  122.7410   57.5240 C   0  0  0  0  0  0  0  0  0  0  0  0
  127.8720  122.5010   56.4940 N   0  0  0  0  0  0  0  0  0  0  0  0
  132.7975  115.7724   61.5855 H   0  0  0  0  0  0  0  0  0  0  0  0
  132.7796  114.3613   60.4741 H   0  0  0  0  0  0  0  0  0  0  0  0
  134.1795  115.4869   60.4741 H   0  0  0  0  0  0  0  0  0  0  0  0
  132.2018  117.9453   61.6589 H   0  0  0  0  0  0  0  0  0  0  0  0
  132.5858  118.7487   60.0702 H   0  0  0  0  0  0  0  0  0  0  0  0
  129.7800  118.8220   60.7220 H   0  0  0  0  0  0  0  0  0  0  0  0
  128.6876  120.5534   61.2520 H   0  0  0  0  0  0  0  0  0  0  0  0
  129.5485  121.7688   62.3254 H   0  0  0  0  0  0  0  0  0  0  0  0
  125.8893  123.4261   63.4573 H   0  0  0  0  0  0  0  0  0  0  0  0
  124.9385  124.8217   62.8449 H   0  0  0  0  0  0  0  0  0  0  0  0
  124.2193  123.1756   62.8449 H   0  0  0  0  0  0  0  0  0  0  0  0
  123.8262  123.8970   60.2859 H   0  0  0  0  0  0  0  0  0  0  0  0
  123.4933  123.6245   58.0336 H   0  0  0  0  0  0  0  0  0  0  0  0
  124.8393  124.3622   57.1006 H   0  0  0  0  0  0  0  0  0  0  0  0
  124.6177  122.5797   57.1006 H   0  0  0  0  0  0  0  0  0  0  0  0
  1  2  1  0
  2  3  1  0
  3  4  2  0
  3  5  1  0
  5  6  1  0
  6  7  1  0
  7  8  2  0
  7  9  1  0
  9 10  1  0
 10 11  1  0
 11 12  2  0
 12 13  1  0
 13 14  1  0
 13 15  2  0
 15 16  1  0
 16 17  1  0
 16 18  2  0
 18 19  1  0
 19 20  3  0
 18 11  1  0
  1 21  1  0
  1 22  1  0
  1 23  1  0
  5 24  1  0
  5 25  1  0
  6 26  1  0
  9 27  1  0
  9 28  1  0
 14 29  1  0
 14 30  1  0
 14 31  1  0
 15 32  1  0
 17 33  1  0
 17 34  1  0
 17 35  1  0
M  END
>  <Binding energies>  (1) 
[-7.08]

>  <Ligand effiencies>  (1) 
[-0.33714285714285713]

>  <Interactions>  (1) 
["V-B:PRO:540:CA:9855, V-B:ALA:541:CB:9864, V-B:PRO:540:CB:9857, V-B:ALA:541:CA:9862, V-B:LEU:363:CD1:8160, V-B:ALA:541:C:9860, V-B:ASN:362:CB:8147, V-B:PRO:540:N:9856, V-A:LEU:475:CD2:4256, V-B:GLU:543:CD:9880, V-B:TYR:539:C:9839, V-B:TYR:539:CE1:9847, V-B:TYR:539:CD1:9845, V-B:PRO:540:C:9853, H-B:TYR:539:N:9842, V-B:ARG:545:CZ:9898, H-B:ALA:541:N:9863, H-B:TYR:539:O:9840, V-A:PRO:482:CG:4324, V-A:SER:385:CB:3406, V-B:TYR:539:CB:9843, V-A:HIS:383:CG:3387, V-A:HIS:383:CB:3386, V-A:LEU:373:CD1:3277"]

$$$$
1n_Grossjean_2025
     RDKit          3D

 48 49  0  0  0  0  0  0  0  0999 V2000
  124.5170  122.8230   56.9790 C   0  0  0  0  0  0  0  0  0  0  0  0
  125.5050  123.1090   55.8440 C   0  0  0  0  0  0  0  0  0  0  0  0
  126.7230  122.4180   56.0930 O   0  0  0  0  0  0  0  0  0  0  0  0
  127.5670  122.8170   57.0790 C   0  0  0  0  0  0  0  0  0  0  0  0
  128.2210  122.0330   57.7720 O   0  0  0  0  0  0  0  0  0  0  0  0
  127.6340  124.3090   57.2340 C   0  0  0  0  0  0  0  0  0  0  0  0
  126.7020  125.0180   58.0090 C   0  0  0  0  0  0  0  0  0  0  0  0
  126.7910  126.4010   58.1300 C   0  0  0  0  0  0  0  0  0  0  0  0
  127.8030  127.1050   57.4760 C   0  0  0  0  0  0  0  0  0  0  0  0
  127.7960  128.5020   57.6630 N   0  0  0  0  0  0  0  0  0  0  0  0
  127.1710  129.4650   56.9520 C   0  0  0  0  0  0  0  0  0  0  0  0
  126.4540  129.2750   55.9700 O   0  0  0  0  0  0  0  0  0  0  0  0
  127.3930  130.9010   57.4440 C   0  0  0  0  0  0  0  0  0  0  0  0
  127.5360  131.0010   58.9770 C   0  0  0  0  0  0  0  0  0  0  0  0
  128.4640  132.4540   59.5550 S   0  0  0  0  0  0  0  0  0  0  0  0
  130.1960  132.1110   59.3330 C   0  0  0  0  0  0  0  0  0  0  0  0
  130.8390  131.7970   60.4860 N   0  0  0  0  0  0  0  0  0  0  0  0
  132.1590  131.5010   60.4350 C   0  0  0  0  0  0  0  0  0  0  0  0
  132.8080  131.1490   61.7600 C   0  0  0  0  0  0  0  0  0  0  0  0
  132.8870  131.5120   59.2470 C   0  0  0  0  0  0  0  0  0  0  0  0
  132.2370  131.8540   58.0560 C   0  0  0  0  0  0  0  0  0  0  0  0
  133.0580  131.8720   56.7680 C   0  0  0  0  0  0  0  0  0  0  0  0
  130.8600  132.1720   58.0860 C   0  0  0  0  0  0  0  0  0  0  0  0
  130.1730  132.5840   56.8600 C   0  0  0  0  0  0  0  0  0  0  0  0
  129.6320  132.9090   55.8900 N   0  0  0  0  0  0  0  0  0  0  0  0
  128.7440  126.4030   56.7090 C   0  0  0  0  0  0  0  0  0  0  0  0
  128.6560  125.0190   56.5920 C   0  0  0  0  0  0  0  0  0  0  0  0
  125.0187  122.9682   57.9471 H   0  0  0  0  0  0  0  0  0  0  0  0
  123.6617  123.5104   56.9025 H   0  0  0  0  0  0  0  0  0  0  0  0
  124.1611  121.7850   56.9025 H   0  0  0  0  0  0  0  0  0  0  0  0
  125.0773  122.7668   54.8901 H   0  0  0  0  0  0  0  0  0  0  0  0
  125.7002  124.1902   55.7903 H   0  0  0  0  0  0  0  0  0  0  0  0
  125.8955  124.4757   58.5243 H   0  0  0  0  0  0  0  0  0  0  0  0
  126.0584  126.9435   58.7456 H   0  0  0  0  0  0  0  0  0  0  0  0
  128.3090  128.8110   58.4750 H   0  0  0  0  0  0  0  0  0  0  0  0
  128.3110  131.2917   56.9807 H   0  0  0  0  0  0  0  0  0  0  0  0
  126.5061  131.4859   57.1588 H   0  0  0  0  0  0  0  0  0  0  0  0
  126.5274  131.0414   59.4142 H   0  0  0  0  0  0  0  0  0  0  0  0
  128.1082  130.1173   59.2960 H   0  0  0  0  0  0  0  0  0  0  0  0
  132.1685  131.4958   62.5851 H   0  0  0  0  0  0  0  0  0  0  0  0
  132.9349  130.0585   61.8279 H   0  0  0  0  0  0  0  0  0  0  0  0
  133.7913  131.6374   61.8279 H   0  0  0  0  0  0  0  0  0  0  0  0
  133.9567  131.2557   59.2454 H   0  0  0  0  0  0  0  0  0  0  0  0
  134.1293  131.8955   57.0164 H   0  0  0  0  0  0  0  0  0  0  0  0
  132.8376  130.9688   56.1801 H   0  0  0  0  0  0  0  0  0  0  0  0
  132.7983  132.7647   56.1801 H   0  0  0  0  0  0  0  0  0  0  0  0
  129.5528  126.9470   56.1991 H   0  0  0  0  0  0  0  0  0  0  0  0
  129.3981  124.4764   55.9880 H   0  0  0  0  0  0  0  0  0  0  0  0
  1  2  1  0
  2  3  1  0
  3  4  1  0
  4  5  2  0
  4  6  1  0
  6  7  2  0
  7  8  1  0
  8  9  2  0
  9 10  1  0
 10 11  1  0
 11 12  2  0
 11 13  1  0
 13 14  1  0
 14 15  1  0
 15 16  1  0
 16 17  2  0
 17 18  1  0
 18 19  1  0
 18 20  2  0
 20 21  1  0
 21 22  1  0
 21 23  2  0
 23 24  1  0
 24 25  3  0
  9 26  1  0
 26 27  2  0
 27  6  1  0
 23 16  1  0
  1 28  1  0
  1 29  1  0
  1 30  1  0
  2 31  1  0
  2 32  1  0
  7 33  1  0
  8 34  1  0
 10 35  1  0
 13 36  1  0
 13 37  1  0
 14 38  1  0
 14 39  1  0
 19 40  1  0
 19 41  1  0
 19 42  1  0
 20 43  1  0
 22 44  1  0
 22 45  1  0
 22 46  1  0
 26 47  1  0
 27 48  1  0
M  END
>  <Binding energies>  (1) 
[-8.81]

>  <Ligand effiencies>  (1) 
[-0.31464285714285717]

>  <Interactions>  (1) 
["V-A:MET:535:CE:4833, V-A:ASP:366:CG:3210, V-A:TYR:531:CE2:4791, H-A:ALA:541:N:4889, V-A:PRO:540:CB:4883, V-A:PRO:540:CA:4881, V-A:LEU:363:CD1:3186, H-A:TYR:539:N:4868, V-A:TYR:539:CZ:4875, V-A:TYR:539:CE1:4873, H-B:TYR:531:OH:9767, V-B:PRO:540:CB:9857, V-B:LEU:363:CD1:8160, V-B:MET:535:CE:9807, V-B:PRO:540:CG:9858, V-B:ILE:538:CG2:9835, V-B:ILE:538:CB:9834, V-B:ILE:538:CA:9832, V-B:PRO:540:CD:9859, V-B:PRO:540:N:9856, V-B:TYR:539:C:9839, V-A:PRO:540:N:4882, V-A:TYR:539:C:4865, H-B:TYR:539:N:9842, V-B:TYR:531:CE2:9765, V-A:ARG:545:CZ:4924, V-A:ASN:362:CB:3173"]

$$$$
1o_Grossjean_2025
     RDKit          3D

 45 46  0  0  0  0  0  0  0  0999 V2000
  132.4090  132.5570   56.5110 C   0  0  0  0  0  0  0  0  0  0  0  0
  131.0860  133.0690   56.4230 O   0  0  0  0  0  0  0  0  0  0  0  0
  130.0960  132.5870   57.2180 C   0  0  0  0  0  0  0  0  0  0  0  0
  129.2080  133.2940   57.7030 O   0  0  0  0  0  0  0  0  0  0  0  0
  130.1850  131.1050   57.4450 C   0  0  0  0  0  0  0  0  0  0  0  0
  129.6830  130.1800   56.5180 C   0  0  0  0  0  0  0  0  0  0  0  0
  129.7840  128.8120   56.7580 C   0  0  0  0  0  0  0  0  0  0  0  0
  130.3820  128.3410   57.9280 C   0  0  0  0  0  0  0  0  0  0  0  0
  130.4390  126.9400   58.0650 N   0  0  0  0  0  0  0  0  0  0  0  0
  130.6630  125.9880   57.1330 C   0  0  0  0  0  0  0  0  0  0  0  0
  130.9130  126.2010   55.9460 O   0  0  0  0  0  0  0  0  0  0  0  0
  130.6240  124.5400   57.6440 C   0  0  0  0  0  0  0  0  0  0  0  0
  130.0970  124.4170   59.0880 C   0  0  0  0  0  0  0  0  0  0  0  0
  129.2660  122.8390   59.4380 S   0  0  0  0  0  0  0  0  0  0  0  0
  127.5140  123.1370   59.5540 C   0  0  0  0  0  0  0  0  0  0  0  0
  127.0880  123.3710   60.8210 N   0  0  0  0  0  0  0  0  0  0  0  0
  125.7740  123.6200   61.0310 C   0  0  0  0  0  0  0  0  0  0  0  0
  125.3760  123.8880   62.4710 C   0  0  0  0  0  0  0  0  0  0  0  0
  124.8370  123.6320   60.0010 C   0  0  0  0  0  0  0  0  0  0  0  0
  125.2600  123.3660   58.6940 C   0  0  0  0  0  0  0  0  0  0  0  0
  124.2110  123.3710   57.5840 C   0  0  0  0  0  0  0  0  0  0  0  0
  126.6270  123.1000   58.4500 C   0  0  0  0  0  0  0  0  0  0  0  0
  127.0780  122.7600   57.0990 C   0  0  0  0  0  0  0  0  0  0  0  0
  127.4320  122.4940   56.0300 N   0  0  0  0  0  0  0  0  0  0  0  0
  130.8910  129.2600   58.8570 C   0  0  0  0  0  0  0  0  0  0  0  0
  130.7900  130.6280   58.6150 C   0  0  0  0  0  0  0  0  0  0  0  0
  132.6904  132.4481   57.5688 H   0  0  0  0  0  0  0  0  0  0  0  0
  132.4561  131.5757   56.0162 H   0  0  0  0  0  0  0  0  0  0  0  0
  133.1044  133.2509   56.0162 H   0  0  0  0  0  0  0  0  0  0  0  0
  129.2056  130.5380   55.5939 H   0  0  0  0  0  0  0  0  0  0  0  0
  129.3897  128.0975   56.0204 H   0  0  0  0  0  0  0  0  0  0  0  0
  130.3140  126.6130   59.0120 H   0  0  0  0  0  0  0  0  0  0  0  0
  129.9695  123.9537   56.9823 H   0  0  0  0  0  0  0  0  0  0  0  0
  131.6583  124.1656   57.6415 H   0  0  0  0  0  0  0  0  0  0  0  0
  130.9482  124.5203   59.7771 H   0  0  0  0  0  0  0  0  0  0  0  0
  129.3459  125.2095   59.2219 H   0  0  0  0  0  0  0  0  0  0  0  0
  126.0960  123.4032   63.1467 H   0  0  0  0  0  0  0  0  0  0  0  0
  125.3734  124.9725   62.6549 H   0  0  0  0  0  0  0  0  0  0  0  0
  124.3701  123.4825   62.6549 H   0  0  0  0  0  0  0  0  0  0  0  0
  123.7791  123.8476   60.2119 H   0  0  0  0  0  0  0  0  0  0  0  0
  123.2054  123.3758   58.0298 H   0  0  0  0  0  0  0  0  0  0  0  0
  124.3403  124.2685   56.9613 H   0  0  0  0  0  0  0  0  0  0  0  0
  124.3317  122.4723   56.9613 H   0  0  0  0  0  0  0  0  0  0  0  0
  131.3711  128.8997   59.7788 H   0  0  0  0  0  0  0  0  0  0  0  0
  131.1897  131.3416   59.3506 H   0  0  0  0  0  0  0  0  0  0  0  0
  1  2  1  0
  2  3  1  0
  3  4  2  0
  3  5  1  0
  5  6  2  0
  6  7  1  0
  7  8  2  0
  8  9  1  0
  9 10  1  0
 10 11  2  0
 10 12  1  0
 12 13  1  0
 13 14  1  0
 14 15  1  0
 15 16  2  0
 16 17  1  0
 17 18  1  0
 17 19  2  0
 19 20  1  0
 20 21  1  0
 20 22  2  0
 22 23  1  0
 23 24  3  0
  8 25  1  0
 25 26  2  0
 26  5  1  0
 22 15  1  0
  1 27  1  0
  1 28  1  0
  1 29  1  0
  6 30  1  0
  7 31  1  0
  9 32  1  0
 12 33  1  0
 12 34  1  0
 13 35  1  0
 13 36  1  0
 18 37  1  0
 18 38  1  0
 18 39  1  0
 19 40  1  0
 21 41  1  0
 21 42  1  0
 21 43  1  0
 25 44  1  0
 26 45  1  0
M  END
>  <Binding energies>  (1) 
[-8.51]

>  <Ligand effiencies>  (1) 
[-0.3151851851851852]

>  <Interactions>  (1) 
["V-A:MET:535:CE:4833, V-A:ASP:366:CG:3210, V-A:PRO:540:CB:4883, H-A:TYR:531:OH:4793, V-A:LEU:363:CD1:3186, H-A:TYR:539:N:4868, V-B:PRO:540:CA:9855, V-B:LEU:363:CA:8156, V-B:PRO:540:CB:9857, V-B:LEU:363:CD1:8160, V-B:ASN:362:CB:8147, V-B:PRO:540:N:9856, V-B:GLU:543:CD:9880, V-B:TYR:539:C:9839, V-B:TYR:539:CE1:9847, V-B:PRO:540:C:9853, V-A:PRO:540:N:4882, V-A:TYR:539:C:4865, H-B:TYR:539:N:9842, V-B:TYR:539:CZ:9849, V-B:TYR:531:CE2:9765, V-B:ARG:545:CZ:9898, V-A:ILE:538:CB:4860, V-A:PRO:540:CD:4885, V-A:ILE:538:CG2:4861, H-B:ALA:541:N:9863"]

$$$$
1p_Grossjean_2025
     RDKit          3D

 35 36  0  0  0  0  0  0  0  0999 V2000
  128.2660  122.5870   55.7790 C   0  0  0  0  0  0  0  0  0  0  0  0
  127.4310  122.8570   57.0170 C   0  0  0  0  0  0  0  0  0  0  0  0
  126.0770  123.1740   56.9270 C   0  0  0  0  0  0  0  0  0  0  0  0
  125.3590  123.4270   58.1010 C   0  0  0  0  0  0  0  0  0  0  0  0
  123.8800  123.7870   57.9790 C   0  0  0  0  0  0  0  0  0  0  0  0
  126.0220  123.3460   59.3470 C   0  0  0  0  0  0  0  0  0  0  0  0
  125.3050  123.6520   60.5860 C   0  0  0  0  0  0  0  0  0  0  0  0
  124.7370  123.8940   61.5650 N   0  0  0  0  0  0  0  0  0  0  0  0
  127.3930  122.9950   59.3440 C   0  0  0  0  0  0  0  0  0  0  0  0
  128.3720  122.8390   60.8200 S   0  0  0  0  0  0  0  0  0  0  0  0
  129.7940  121.7900   60.4000 C   0  0  0  0  0  0  0  0  0  0  0  0
  130.1230  120.7310   61.4710 C   0  0  0  0  0  0  0  0  0  0  0  0
  131.1290  119.6710   60.9970 C   0  0  0  0  0  0  0  0  0  0  0  0
  132.3330  119.9340   60.9980 O   0  0  0  0  0  0  0  0  0  0  0  0
  130.5960  118.4880   60.6170 N   0  0  0  0  0  0  0  0  0  0  0  0
  131.2770  117.3700   60.1520 C   0  0  0  0  0  0  0  0  0  0  0  0
  132.4540  116.9000   60.7340 C   0  0  0  0  0  0  0  0  0  0  0  0
  132.8020  115.7940   59.9920 C   0  0  0  0  0  0  0  0  0  0  0  0
  131.8850  115.6090   59.0140 O   0  0  0  0  0  0  0  0  0  0  0  0
  130.9230  116.6160   59.1250 N   0  0  0  0  0  0  0  0  0  0  0  0
  128.0850  122.7720   58.1980 N   0  0  0  0  0  0  0  0  0  0  0  0
  129.2728  122.2614   56.0796 H   0  0  0  0  0  0  0  0  0  0  0  0
  127.7889  121.7973   55.1800 H   0  0  0  0  0  0  0  0  0  0  0  0
  128.3416  123.5065   55.1800 H   0  0  0  0  0  0  0  0  0  0  0  0
  125.5798  123.2246   55.9471 H   0  0  0  0  0  0  0  0  0  0  0  0
  123.4444  123.8930   58.9835 H   0  0  0  0  0  0  0  0  0  0  0  0
  123.7775  124.7363   57.4328 H   0  0  0  0  0  0  0  0  0  0  0  0
  123.3527  122.9910   57.4328 H   0  0  0  0  0  0  0  0  0  0  0  0
  129.5754  121.2713   59.4549 H   0  0  0  0  0  0  0  0  0  0  0  0
  130.6693  122.4518   60.3239 H   0  0  0  0  0  0  0  0  0  0  0  0
  130.5444  121.2429   62.3487 H   0  0  0  0  0  0  0  0  0  0  0  0
  129.1854  120.2053   61.7045 H   0  0  0  0  0  0  0  0  0  0  0  0
  129.5920  118.3970   60.6620 H   0  0  0  0  0  0  0  0  0  0  0  0
  132.9882  117.3215   61.5982 H   0  0  0  0  0  0  0  0  0  0  0  0
  133.6848  115.1613   60.1662 H   0  0  0  0  0  0  0  0  0  0  0  0
  1  2  1  0
  2  3  2  0
  3  4  1  0
  4  5  1  0
  4  6  2  0
  6  7  1  0
  7  8  3  0
  6  9  1  0
  9 10  1  0
 10 11  1  0
 11 12  1  0
 12 13  1  0
 13 14  2  0
 13 15  1  0
 15 16  1  0
 16 17  1  0
 17 18  2  0
 18 19  1  0
 19 20  1  0
  9 21  2  0
 21  2  1  0
 20 16  2  0
  1 22  1  0
  1 23  1  0
  1 24  1  0
  3 25  1  0
  5 26  1  0
  5 27  1  0
  5 28  1  0
 11 29  1  0
 11 30  1  0
 12 31  1  0
 12 32  1  0
 15 33  1  0
 17 34  1  0
 18 35  1  0
M  END
>  <Binding energies>  (1) 
[-7.76]

>  <Ligand effiencies>  (1) 
[-0.3527272727272727]

>  <Interactions>  (1) 
["V-B:PRO:540:CA:9855, V-B:ALA:541:CB:9864, V-B:LEU:363:CA:8156, V-B:PRO:540:CB:9857, V-B:LEU:363:CD1:8160, V-B:MET:535:CE:9807, V-B:ILE:538:CA:9832, V-B:PRO:540:N:9856, V-A:LEU:475:CD2:4256, V-B:TYR:539:C:9839, V-B:TYR:539:CE1:9847, V-B:TYR:539:CD1:9845, V-B:TYR:539:CG:9844, V-B:TYR:539:CZ:9849, V-B:TYR:531:CE2:9765, V-B:TYR:539:CE2:9848, H-B:ALA:541:N:9863, H-B:TYR:539:O:9840, H-B:ARG:545:NH2:9900, V-B:ILE:538:C:9830, V-B:TYR:539:CD2:9846, V-A:PRO:482:CG:4324, V-A:SER:385:CB:3406, V-A:PRO:482:CB:4323, V-A:SER:385:CA:3404, V-B:TYR:539:CB:9843, V-A:HIS:383:CG:3387, V-A:HIS:383:CB:3386, V-A:LEU:373:CD1:3277, V-B:LEU:363:CB:8158"]

$$$$
1q_Grossjean_2025
     RDKit          3D

 38 38  0  0  0  0  0  0  0  0999 V2000
  123.7490  127.6770   74.5080 C   0  0  0  0  0  0  0  0  0  0  0  0
  124.6680  127.9090   75.5660 O   0  0  0  0  0  0  0  0  0  0  0  0
  125.1720  129.1490   75.7810 C   0  0  0  0  0  0  0  0  0  0  0  0
  124.5980  130.0620   76.3760 O   0  0  0  0  0  0  0  0  0  0  0  0
  126.5740  129.3720   75.1730 C   0  0  0  0  0  0  0  0  0  0  0  0
  126.9470  128.3380   74.1960 N   0  0  0  0  0  0  0  0  0  0  0  0
  128.0230  128.3690   73.3860 C   0  0  0  0  0  0  0  0  0  0  0  0
  128.8360  129.2950   73.3810 O   0  0  0  0  0  0  0  0  0  0  0  0
  128.2020  127.1570   72.4600 C   0  0  0  0  0  0  0  0  0  0  0  0
  129.6550  126.9190   72.0030 C   0  0  0  0  0  0  0  0  0  0  0  0
  130.8930  127.3180   73.2730 S   0  0  0  0  0  0  0  0  0  0  0  0
  131.3810  125.8080   74.0820 C   0  0  0  0  0  0  0  0  0  0  0  0
  130.4210  124.8500   74.0610 N   0  0  0  0  0  0  0  0  0  0  0  0
  130.6750  123.6570   74.6480 C   0  0  0  0  0  0  0  0  0  0  0  0
  129.5470  122.6440   74.5980 C   0  0  0  0  0  0  0  0  0  0  0  0
  131.8900  123.3670   75.2650 C   0  0  0  0  0  0  0  0  0  0  0  0
  132.8960  124.3380   75.2710 C   0  0  0  0  0  0  0  0  0  0  0  0
  134.2260  123.9890   75.9390 C   0  0  0  0  0  0  0  0  0  0  0  0
  132.6550  125.5900   74.6620 C   0  0  0  0  0  0  0  0  0  0  0  0
  133.7170  126.5970   74.6090 C   0  0  0  0  0  0  0  0  0  0  0  0
  134.5590  127.3900   74.5690 N   0  0  0  0  0  0  0  0  0  0  0  0
  122.7628  127.4280   74.9269 H   0  0  0  0  0  0  0  0  0  0  0  0
  123.6664  128.5825   73.8889 H   0  0  0  0  0  0  0  0  0  0  0  0
  124.1061  126.8408   73.8889 H   0  0  0  0  0  0  0  0  0  0  0  0
  126.5866  130.3503   74.6703 H   0  0  0  0  0  0  0  0  0  0  0  0
  127.3015  129.3246   75.9967 H   0  0  0  0  0  0  0  0  0  0  0  0
  126.3160  127.5530   74.1200 H   0  0  0  0  0  0  0  0  0  0  0  0
  127.8577  126.2600   72.9956 H   0  0  0  0  0  0  0  0  0  0  0  0
  127.6154  127.3635   71.5526 H   0  0  0  0  0  0  0  0  0  0  0  0
  129.7648  125.8587   71.7316 H   0  0  0  0  0  0  0  0  0  0  0  0
  129.8390  127.5905   71.1514 H   0  0  0  0  0  0  0  0  0  0  0  0
  129.2489  122.3763   75.6224 H   0  0  0  0  0  0  0  0  0  0  0  0
  128.6870  123.0788   74.0677 H   0  0  0  0  0  0  0  0  0  0  0  0
  129.8872  121.7423   74.0677 H   0  0  0  0  0  0  0  0  0  0  0  0
  132.0554  122.3888   75.7403 H   0  0  0  0  0  0  0  0  0  0  0  0
  134.1067  124.0203   77.0321 H   0  0  0  0  0  0  0  0  0  0  0  0
  134.5362  122.9790   75.6328 H   0  0  0  0  0  0  0  0  0  0  0  0
  134.9921  124.7165   75.6328 H   0  0  0  0  0  0  0  0  0  0  0  0
  1  2  1  0
  2  3  1  0
  3  4  2  0
  3  5  1  0
  5  6  1  0
  6  7  1  0
  7  8  2  0
  7  9  1  0
  9 10  1  0
 10 11  1  0
 11 12  1  0
 12 13  2  0
 13 14  1  0
 14 15  1  0
 14 16  2  0
 16 17  1  0
 17 18  1  0
 17 19  2  0
 19 20  1  0
 20 21  3  0
 19 12  1  0
  1 22  1  0
  1 23  1  0
  1 24  1  0
  5 25  1  0
  5 26  1  0
  6 27  1  0
  9 28  1  0
  9 29  1  0
 10 30  1  0
 10 31  1  0
 15 32  1  0
 15 33  1  0
 15 34  1  0
 16 35  1  0
 18 36  1  0
 18 37  1  0
 18 38  1  0
M  END
>  <Binding energies>  (1) 
[-6.62]

>  <Ligand effiencies>  (1) 
[-0.3009090909090909]

>  <Interactions>  (1) 
["V-A:HIS:456:CE1:4066, V-A:LYS:547:CG:4946, V-B:HIS:456:CG:9037, V-B:HIS:456:CD2:9039, V-B:VAL:458:CG2:9058, V-B:HIS:456:CA:9034, V-B:HIS:456:CB:9036, V-B:VAL:457:C:9044, V-B:HIS:456:C:9032, V-B:GLY:544:C:9884, V-B:GLY:544:CA:9886, V-A:LYS:547:CD:4947, H-B:LYS:547:NZ:9923, V-A:LYS:547:CE:4948, H-A:LYS:547:NZ:4949, V-B:LYS:547:CE:9922, V-A:HIS:456:CD2:4065, H-B:HIS:456:NE2:9041, V-A:HIS:456:CG:4063, V-A:HIS:456:CB:4062, V-A:LYS:471:CD:4216, V-A:VAL:458:CG2:4084, V-B:LYS:547:CG:9920, V-A:HIS:456:C:4058, V-A:ASP:473:CG:4237, H-B:GLY:544:O:9885, V-A:LYS:471:CG:4215, V-B:ARG:545:C:9889"]

$$$$
2a_Ghoteimi_2023
     RDKit          3D

 85 90  0  0  0  0  0  0  0  0999 V2000
  125.5980  127.8620   74.9580 C   0  0  0  0  0  0  0  0  0  0  0  0
  126.4270  128.8080   74.0860 C   0  0  0  0  0  0  0  0  0  0  0  0
  127.1660  128.0500   73.1370 O   0  0  0  0  0  0  0  0  0  0  0  0
  128.4620  128.3440   72.8590 C   0  0  0  0  0  0  0  0  0  0  0  0
  129.2220  128.8920   73.6630 O   0  0  0  0  0  0  0  0  0  0  0  0
  128.8800  127.9300   71.4770 C   0  0  0  0  0  0  0  0  0  0  0  0
  127.9710  127.3850   70.5580 C   0  0  0  0  0  0  0  0  0  0  0  0
  128.3920  127.0130   69.2850 C   0  0  0  0  0  0  0  0  0  0  0  0
  129.7230  127.1800   68.9010 C   0  0  0  0  0  0  0  0  0  0  0  0
  130.0390  126.7660   67.5920 N   0  0  0  0  0  0  0  0  0  0  0  0
  131.2430  126.6170   66.9980 C   0  0  0  0  0  0  0  0  0  0  0  0
  132.3280  126.8790   67.5200 O   0  0  0  0  0  0  0  0  0  0  0  0
  131.1980  126.1180   65.5490 C   0  0  0  0  0  0  0  0  0  0  0  0
  130.7830  124.3530   65.3720 S   0  0  0  0  0  0  0  0  0  0  0  0
  130.3860  124.1220   63.6540 C   0  0  0  0  0  0  0  0  0  0  0  0
  130.7400  122.9100   63.1680 N   0  0  0  0  0  0  0  0  0  0  0  0
  130.4980  122.6170   61.8660 C   0  0  0  0  0  0  0  0  0  0  0  0
  130.9240  121.2640   61.3960 C   0  0  0  0  0  0  0  0  0  0  0  0
  130.0500  120.1710   61.4430 C   0  0  0  0  0  0  0  0  0  0  0  0
  130.4560  118.9100   61.0160 C   0  0  0  0  0  0  0  0  0  0  0  0
  131.7490  118.6950   60.5170 C   0  0  0  0  0  0  0  0  0  0  0  0
  132.1530  117.4160   60.1190 N   0  0  0  0  0  0  0  0  0  0  0  0
  133.5690  117.0020   60.1790 C   0  0  0  0  0  0  0  0  0  0  0  0
  133.7790  115.4790   60.0550 C   0  0  0  0  0  0  0  0  0  0  0  0
  133.1590  114.9980   58.8730 O   0  0  0  0  0  0  0  0  0  0  0  0
  131.7620  115.2420   58.8850 C   0  0  0  0  0  0  0  0  0  0  0  0
  131.4890  116.7580   58.9750 C   0  0  0  0  0  0  0  0  0  0  0  0
  132.6250  119.7920   60.4840 C   0  0  0  0  0  0  0  0  0  0  0  0
  132.2180  121.0520   60.9090 C   0  0  0  0  0  0  0  0  0  0  0  0
  129.8770  123.5410   61.0210 C   0  0  0  0  0  0  0  0  0  0  0  0
  129.5010  124.8030   61.5020 C   0  0  0  0  0  0  0  0  0  0  0  0
  128.8470  125.7440   60.5430 C   0  0  0  0  0  0  0  0  0  0  0  0
  129.4610  126.0460   59.3250 C   0  0  0  0  0  0  0  0  0  0  0  0
  128.8700  126.9360   58.4340 C   0  0  0  0  0  0  0  0  0  0  0  0
  127.6440  127.5500   58.7330 C   0  0  0  0  0  0  0  0  0  0  0  0
  127.0420  128.4610   57.8600 N   0  0  0  0  0  0  0  0  0  0  0  0
  125.5690  128.5080   57.7660 C   0  0  0  0  0  0  0  0  0  0  0  0
  125.0420  129.7890   57.0850 C   0  0  0  0  0  0  0  0  0  0  0  0
  125.6340  129.9370   55.8040 O   0  0  0  0  0  0  0  0  0  0  0  0
  127.0480  130.0350   55.8870 C   0  0  0  0  0  0  0  0  0  0  0  0
  127.6280  128.7630   56.5390 C   0  0  0  0  0  0  0  0  0  0  0  0
  127.0400  127.2500   59.9620 C   0  0  0  0  0  0  0  0  0  0  0  0
  127.6320  126.3610   60.8540 C   0  0  0  0  0  0  0  0  0  0  0  0
  129.7550  125.1070   62.8620 C   0  0  0  0  0  0  0  0  0  0  0  0
  129.3350  126.3890   63.4370 C   0  0  0  0  0  0  0  0  0  0  0  0
  129.0030  127.4020   63.8880 N   0  0  0  0  0  0  0  0  0  0  0  0
  130.6400  127.7170   69.8170 C   0  0  0  0  0  0  0  0  0  0  0  0
  130.2180  128.0910   71.0900 C   0  0  0  0  0  0  0  0  0  0  0  0
  125.7888  128.0798   76.0192 H   0  0  0  0  0  0  0  0  0  0  0  0
  124.5292  128.0051   74.7407 H   0  0  0  0  0  0  0  0  0  0  0  0
  125.8802  126.8212   74.7407 H   0  0  0  0  0  0  0  0  0  0  0  0
  125.7569  129.5030   73.5588 H   0  0  0  0  0  0  0  0  0  0  0  0
  127.1208  129.3791   74.7204 H   0  0  0  0  0  0  0  0  0  0  0  0
  126.9178  127.2508   70.8458 H   0  0  0  0  0  0  0  0  0  0  0  0
  127.6694  126.5836   68.5754 H   0  0  0  0  0  0  0  0  0  0  0  0
  129.2330  126.5790   67.0140 H   0  0  0  0  0  0  0  0  0  0  0  0
  130.4422  126.7050   65.0065 H   0  0  0  0  0  0  0  0  0  0  0  0
  132.2124  126.2437   65.1426 H   0  0  0  0  0  0  0  0  0  0  0  0
  129.0273  120.3110   61.8231 H   0  0  0  0  0  0  0  0  0  0  0  0
  129.7507  118.0676   61.0708 H   0  0  0  0  0  0  0  0  0  0  0  0
  134.1093  117.4945   59.3571 H   0  0  0  0  0  0  0  0  0  0  0  0
  133.9471  117.2976   61.1688 H   0  0  0  0  0  0  0  0  0  0  0  0
  134.8566  115.2620   60.0152 H   0  0  0  0  0  0  0  0  0  0  0  0
  133.3298  114.9806   60.9267 H   0  0  0  0  0  0  0  0  0  0  0  0
  131.3156  114.8462   57.9608 H   0  0  0  0  0  0  0  0  0  0  0  0
  131.3171  114.7437   59.7589 H   0  0  0  0  0  0  0  0  0  0  0  0
  131.8461  117.2304   58.0480 H   0  0  0  0  0  0  0  0  0  0  0  0
  130.4054  116.8806   59.1194 H   0  0  0  0  0  0  0  0  0  0  0  0
  133.6519  119.6521   60.1153 H   0  0  0  0  0  0  0  0  0  0  0  0
  132.9240  121.8942   60.8615 H   0  0  0  0  0  0  0  0  0  0  0  0
  129.6819  123.2762   59.9713 H   0  0  0  0  0  0  0  0  0  0  0  0
  130.4214  125.5753   59.0679 H   0  0  0  0  0  0  0  0  0  0  0  0
  129.3710  127.1618   57.4811 H   0  0  0  0  0  0  0  0  0  0  0  0
  125.2281  127.6382   57.1853 H   0  0  0  0  0  0  0  0  0  0  0  0
  125.1762  128.4997   58.7934 H   0  0  0  0  0  0  0  0  0  0  0  0
  123.9496  129.7202   56.9756 H   0  0  0  0  0  0  0  0  0  0  0  0
  125.3010  130.6599   57.7050 H   0  0  0  0  0  0  0  0  0  0  0  0
  127.4652  130.1485   54.8755 H   0  0  0  0  0  0  0  0  0  0  0  0
  127.3139  130.9084   56.5006 H   0  0  0  0  0  0  0  0  0  0  0  0
  127.4376  127.9107   55.8702 H   0  0  0  0  0  0  0  0  0  0  0  0
  128.7028  128.9389   56.6934 H   0  0  0  0  0  0  0  0  0  0  0  0
  126.0833  127.7247   60.2253 H   0  0  0  0  0  0  0  0  0  0  0  0
  127.1392  126.1418   61.8127 H   0  0  0  0  0  0  0  0  0  0  0  0
  131.6941  127.8428   69.5290 H   0  0  0  0  0  0  0  0  0  0  0  0
  130.9421  128.5174   71.7998 H   0  0  0  0  0  0  0  0  0  0  0  0
  1  2  1  0
  2  3  1  0
  3  4  1  0
  4  5  2  0
  4  6  1  0
  6  7  2  0
  7  8  1  0
  8  9  2  0
  9 10  1  0
 10 11  1  0
 11 12  2  0
 11 13  1  0
 13 14  1  0
 14 15  1  0
 15 16  2  0
 16 17  1  0
 17 18  1  0
 18 19  2  0
 19 20  1  0
 20 21  2  0
 21 22  1  0
 22 23  1  0
 23 24  1  0
 24 25  1  0
 25 26  1  0
 26 27  1  0
 21 28  1  0
 28 29  2  0
 17 30  2  0
 30 31  1  0
 31 32  1  0
 32 33  2  0
 33 34  1  0
 34 35  2  0
 35 36  1  0
 36 37  1  0
 37 38  1  0
 38 39  1  0
 39 40  1  0
 40 41  1  0
 35 42  1  0
 42 43  2  0
 31 44  2  0
 44 45  1  0
 45 46  3  0
  9 47  1  0
 47 48  2  0
 48  6  1  0
 44 15  1  0
 29 18  1  0
 43 32  1  0
 27 22  1  0
 41 36  1  0
  1 49  1  0
  1 50  1  0
  1 51  1  0
  2 52  1  0
  2 53  1  0
  7 54  1  0
  8 55  1  0
 10 56  1  0
 13 57  1  0
 13 58  1  0
 19 59  1  0
 20 60  1  0
 23 61  1  0
 23 62  1  0
 24 63  1  0
 24 64  1  0
 26 65  1  0
 26 66  1  0
 27 67  1  0
 27 68  1  0
 28 69  1  0
 29 70  1  0
 30 71  1  0
 33 72  1  0
 34 73  1  0
 37 74  1  0
 37 75  1  0
 38 76  1  0
 38 77  1  0
 40 78  1  0
 40 79  1  0
 41 80  1  0
 41 81  1  0
 42 82  1  0
 43 83  1  0
 47 84  1  0
 48 85  1  0
M  END
>  <Binding energies>  (1) 
[-8.7]

>  <Ligand effiencies>  (1) 
[-0.17755102040816326]

>  <Interactions>  (1) 
["V-A:MET:535:CE:4833, V-B:ASP:366:CG:8184, H-A:TYR:539:OH:4876, V-A:TYR:539:CZ:4875, V-B:ASP:366:CB:8183, H-B:TYR:531:OH:9767, V-B:ALA:541:CB:9864, V-A:LEU:475:CD2:4256, V-B:GLU:543:CD:9880, V-B:TYR:539:C:9839, V-B:TYR:539:CE1:9847, V-B:TYR:539:CD1:9845, V-B:TYR:539:CG:9844, V-A:ILE:369:CG2:3234, H-A:TYR:484:OH:4345, V-B:TYR:531:CZ:9766, H-B:ASN:370:ND2:8219, V-A:ARG:545:CG:4920, V-A:HIS:456:CE1:4066, V-A:GLU:543:CD:4906, H-A:GLU:543:OE2:4908, V-B:TYR:531:CE1:9764, V-B:HIS:456:CE1:9040, V-A:GLU:543:CG:4905, V-A:PRO:482:CG:4324, V-A:SER:385:CB:3406, V-A:PRO:482:CB:4323, V-A:SER:385:CA:3404, V-B:TYR:539:CB:9843, V-A:HIS:383:CG:3387, V-A:LEU:373:CD2:3278, V-B:GLU:543:CG:9879, V-A:HIS:383:CB:3386, V-A:LEU:373:CD1:3277, H-A:ARG:545:NE:4922, H-B:GLU:543:OE1:9881, H-B:GLU:543:OE2:9882, V-A:VAL:384:C:3394, V-B:VAL:344:CG1:7972, V-A:HIS:383:CA:3384, V-B:ILE:343:CD1:7965, V-A:HIS:383:CD2:3389, V-A:HIS:383:CE1:3391, V-A:GLY:544:CA:4912, V-B:HIS:456:CG:9037, V-B:HIS:456:CD2:9039, V-B:HIS:456:CB:9036, V-B:GLY:544:C:9884, V-B:GLU:543:C:9874, V-A:GLU:543:C:4900, V-B:LYS:547:CD:9921, V-A:GLY:544:C:4910, H-A:LYS:547:NZ:4949, V-B:LYS:547:CE:9922, H-A:HIS:383:ND1:3388, H-B:HIS:456:NE2:9041, V-A:HIS:383:C:3382, V-B:LYS:547:CG:9920"]

$$$$
2a_Grossjean_2025
     RDKit          3D

 45 46  0  0  0  0  0  0  0  0999 V2000
  124.8740  122.9230   56.4730 C   0  0  0  0  0  0  0  0  0  0  0  0
  126.3200  122.9510   55.9710 C   0  0  0  0  0  0  0  0  0  0  0  0
  127.1460  122.2280   56.8760 O   0  0  0  0  0  0  0  0  0  0  0  0
  127.8970  122.8720   57.8070 C   0  0  0  0  0  0  0  0  0  0  0  0
  128.5470  122.2900   58.6790 O   0  0  0  0  0  0  0  0  0  0  0  0
  127.8730  124.3670   57.6540 C   0  0  0  0  0  0  0  0  0  0  0  0
  126.8650  125.1550   58.2280 C   0  0  0  0  0  0  0  0  0  0  0  0
  126.8710  126.5370   58.0670 C   0  0  0  0  0  0  0  0  0  0  0  0
  127.8760  127.1590   57.3240 C   0  0  0  0  0  0  0  0  0  0  0  0
  127.7740  128.5580   57.2150 N   0  0  0  0  0  0  0  0  0  0  0  0
  127.0810  129.3120   56.3350 C   0  0  0  0  0  0  0  0  0  0  0  0
  126.3980  128.8800   55.4060 O   0  0  0  0  0  0  0  0  0  0  0  0
  127.1810  130.8270   56.5410 C   0  0  0  0  0  0  0  0  0  0  0  0
  127.5020  131.3010   58.2720 S   0  0  0  0  0  0  0  0  0  0  0  0
  129.2670  131.3790   58.5590 C   0  0  0  0  0  0  0  0  0  0  0  0
  129.6930  130.8810   59.7480 N   0  0  0  0  0  0  0  0  0  0  0  0
  131.0130  130.9190   60.0380 C   0  0  0  0  0  0  0  0  0  0  0  0
  131.4080  130.3690   61.3960 C   0  0  0  0  0  0  0  0  0  0  0  0
  131.9590  131.4410   59.1610 C   0  0  0  0  0  0  0  0  0  0  0  0
  131.5430  131.9540   57.9220 C   0  0  0  0  0  0  0  0  0  0  0  0
  132.6030  132.5280   56.9630 C   0  0  0  0  0  0  0  0  0  0  0  0
  132.2190  133.7250   56.5200 F   0  0  0  0  0  0  0  0  0  0  0  0
  133.7700  132.6530   57.5960 F   0  0  0  0  0  0  0  0  0  0  0  0
  132.8060  131.7510   55.8960 F   0  0  0  0  0  0  0  0  0  0  0  0
  130.1600  131.9230   57.6080 C   0  0  0  0  0  0  0  0  0  0  0  0
  129.6700  132.4480   56.3290 C   0  0  0  0  0  0  0  0  0  0  0  0
  129.2830  132.8630   55.3200 N   0  0  0  0  0  0  0  0  0  0  0  0
  128.8910  126.3790   56.7540 C   0  0  0  0  0  0  0  0  0  0  0  0
  128.8860  124.9960   56.9200 C   0  0  0  0  0  0  0  0  0  0  0  0
  124.8677  122.9229   57.5730 H   0  0  0  0  0  0  0  0  0  0  0  0
  124.3403  123.8110   56.1034 H   0  0  0  0  0  0  0  0  0  0  0  0
  124.3751  122.0150   56.1034 H   0  0  0  0  0  0  0  0  0  0  0  0
  126.3722  122.4870   54.9750 H   0  0  0  0  0  0  0  0  0  0  0  0
  126.6676  123.9926   55.9066 H   0  0  0  0  0  0  0  0  0  0  0  0
  126.0634  124.6768   58.8100 H   0  0  0  0  0  0  0  0  0  0  0  0
  126.0781  127.1439   58.5285 H   0  0  0  0  0  0  0  0  0  0  0  0
  128.2640  129.0640   57.9380 H   0  0  0  0  0  0  0  0  0  0  0  0
  128.0011  131.2107   55.9163 H   0  0  0  0  0  0  0  0  0  0  0  0
  126.2088  131.2584   56.2605 H   0  0  0  0  0  0  0  0  0  0  0  0
  130.9620  130.9899   62.1869 H   0  0  0  0  0  0  0  0  0  0  0  0
  131.0446  129.3353   61.4927 H   0  0  0  0  0  0  0  0  0  0  0  0
  132.5036  130.3831   61.4927 H   0  0  0  0  0  0  0  0  0  0  0  0
  133.0240  131.4516   59.4362 H   0  0  0  0  0  0  0  0  0  0  0  0
  129.6930  126.8596   56.1745 H   0  0  0  0  0  0  0  0  0  0  0  0
  129.6868  124.3912   56.4694 H   0  0  0  0  0  0  0  0  0  0  0  0
  1  2  1  0
  2  3  1  0
  3  4  1  0
  4  5  2  0
  4  6  1  0
  6  7  2  0
  7  8  1  0
  8  9  2  0
  9 10  1  0
 10 11  1  0
 11 12  2  0
 11 13  1  0
 13 14  1  0
 14 15  1  0
 15 16  2  0
 16 17  1  0
 17 18  1  0
 17 19  2  0
 19 20  1  0
 20 21  1  0
 21 22  1  0
 21 23  1  0
 21 24  1  0
 20 25  2  0
 25 26  1  0
 26 27  3  0
  9 28  1  0
 28 29  2  0
 29  6  1  0
 25 15  1  0
  1 30  1  0
  1 31  1  0
  1 32  1  0
  2 33  1  0
  2 34  1  0
  7 35  1  0
  8 36  1  0
 10 37  1  0
 13 38  1  0
 13 39  1  0
 18 40  1  0
 18 41  1  0
 18 42  1  0
 19 43  1  0
 28 44  1  0
 29 45  1  0
M  END
>  <Binding energies>  (1) 
[-7.77]

>  <Ligand effiencies>  (1) 
[-0.259]

>  <Interactions>  (1) 
["V-A:MET:535:CE:4833, V-A:TYR:539:CE2:4874, V-A:TYR:531:CZ:4792, V-A:LEU:363:CA:3182, V-A:TYR:531:CE2:4791, H-A:TYR:539:OH:4876, V-A:PRO:540:CB:4883, V-A:PRO:540:CA:4881, V-A:LEU:363:CB:3184, V-A:ILE:538:CA:4858, V-A:LEU:363:CD1:3186, H-A:TYR:539:N:4868, V-A:TYR:539:CZ:4875, V-A:TYR:539:CE1:4873, H-B:TYR:531:OH:9767, V-B:LEU:363:CD1:8160, V-B:MET:535:CE:9807, V-B:ILE:538:CG2:9835, V-B:ILE:538:CB:9834, V-B:ILE:538:CA:9832, V-B:PRO:540:CD:9859, V-B:PRO:540:N:9856, V-B:TYR:539:C:9839, V-B:TYR:539:CD1:9845, V-A:PRO:540:N:4882, V-A:TYR:539:CA:4867, V-A:TYR:539:C:4865, H-B:TYR:539:N:9842, V-B:TYR:531:CE2:9765, V-A:ILE:538:CB:4860, V-A:PRO:540:CD:4885, V-A:ILE:538:CG2:4861, V-A:ILE:538:C:4856, V-A:PRO:540:CG:4884, V-A:LEU:363:CG:3185, V-A:ILE:538:CG1:4862"]

$$$$
2aa_Ghoteimi_2023
     RDKit          3D

 85 90  0  0  0  0  0  0  0  0999 V2000
  125.5030  128.1330   74.8650 C   0  0  0  0  0  0  0  0  0  0  0  0
  126.8800  128.7430   75.1430 C   0  0  0  0  0  0  0  0  0  0  0  0
  127.8410  128.1470   74.2810 O   0  0  0  0  0  0  0  0  0  0  0  0
  128.5790  128.9000   73.4250 C   0  0  0  0  0  0  0  0  0  0  0  0
  128.9940  130.0320   73.6980 O   0  0  0  0  0  0  0  0  0  0  0  0
  128.8550  128.2140   72.1180 C   0  0  0  0  0  0  0  0  0  0  0  0
  130.1540  128.0960   71.6030 C   0  0  0  0  0  0  0  0  0  0  0  0
  130.3780  127.4500   70.3910 C   0  0  0  0  0  0  0  0  0  0  0  0
  129.3110  126.9180   69.6650 C   0  0  0  0  0  0  0  0  0  0  0  0
  129.6510  126.2840   68.4540 N   0  0  0  0  0  0  0  0  0  0  0  0
  130.5170  126.6670   67.4900 C   0  0  0  0  0  0  0  0  0  0  0  0
  131.2140  127.6820   67.5270 O   0  0  0  0  0  0  0  0  0  0  0  0
  130.6070  125.7080   66.2960 C   0  0  0  0  0  0  0  0  0  0  0  0
  129.8990  126.2600   65.1810 O   0  0  0  0  0  0  0  0  0  0  0  0
  130.2400  125.8900   63.8870 C   0  0  0  0  0  0  0  0  0  0  0  0
  130.3150  126.8670   62.9400 N   0  0  0  0  0  0  0  0  0  0  0  0
  130.6500  126.5400   61.6660 C   0  0  0  0  0  0  0  0  0  0  0  0
  130.7080  127.6630   60.6810 C   0  0  0  0  0  0  0  0  0  0  0  0
  130.7620  127.4060   59.3070 C   0  0  0  0  0  0  0  0  0  0  0  0
  130.8100  128.4490   58.3840 C   0  0  0  0  0  0  0  0  0  0  0  0
  130.7900  129.7890   58.8020 C   0  0  0  0  0  0  0  0  0  0  0  0
  130.8500  130.8480   57.8890 N   0  0  0  0  0  0  0  0  0  0  0  0
  129.6690  131.6900   57.6080 C   0  0  0  0  0  0  0  0  0  0  0  0
  129.8120  132.5590   56.3410 C   0  0  0  0  0  0  0  0  0  0  0  0
  130.9880  133.3470   56.4230 O   0  0  0  0  0  0  0  0  0  0  0  0
  132.1490  132.5380   56.5260 C   0  0  0  0  0  0  0  0  0  0  0  0
  132.0760  131.6670   57.7990 C   0  0  0  0  0  0  0  0  0  0  0  0
  130.7570  130.0410   60.1810 C   0  0  0  0  0  0  0  0  0  0  0  0
  130.7130  128.9980   61.1020 C   0  0  0  0  0  0  0  0  0  0  0  0
  130.9030  125.2130   61.3040 C   0  0  0  0  0  0  0  0  0  0  0  0
  130.8220  124.1890   62.2550 C   0  0  0  0  0  0  0  0  0  0  0  0
  131.0780  122.7880   61.8020 C   0  0  0  0  0  0  0  0  0  0  0  0
  130.0410  121.8520   61.7810 C   0  0  0  0  0  0  0  0  0  0  0  0
  130.2770  120.5400   61.3790 C   0  0  0  0  0  0  0  0  0  0  0  0
  131.5620  120.1220   61.0000 C   0  0  0  0  0  0  0  0  0  0  0  0
  131.8220  118.8120   60.5890 N   0  0  0  0  0  0  0  0  0  0  0  0
  130.7590  117.7890   60.5630 C   0  0  0  0  0  0  0  0  0  0  0  0
  131.1390  116.5270   59.7600 C   0  0  0  0  0  0  0  0  0  0  0  0
  132.3520  115.9830   60.2580 O   0  0  0  0  0  0  0  0  0  0  0  0
  133.4220  116.9090   60.1540 C   0  0  0  0  0  0  0  0  0  0  0  0
  133.1020  118.1800   60.9680 C   0  0  0  0  0  0  0  0  0  0  0  0
  132.5950  121.0700   61.0170 C   0  0  0  0  0  0  0  0  0  0  0  0
  132.3590  122.3810   61.4180 C   0  0  0  0  0  0  0  0  0  0  0  0
  130.4950  124.5400   63.5860 C   0  0  0  0  0  0  0  0  0  0  0  0
  130.4370  123.5420   64.6570 C   0  0  0  0  0  0  0  0  0  0  0  0
  130.3910  122.7530   65.5020 N   0  0  0  0  0  0  0  0  0  0  0  0
  128.0100  127.0260   70.1760 C   0  0  0  0  0  0  0  0  0  0  0  0
  127.7890  127.6690   71.3910 C   0  0  0  0  0  0  0  0  0  0  0  0
  125.0012  127.9107   75.8183 H   0  0  0  0  0  0  0  0  0  0  0  0
  124.8956  128.8463   74.2885 H   0  0  0  0  0  0  0  0  0  0  0  0
  125.6232  127.2039   74.2885 H   0  0  0  0  0  0  0  0  0  0  0  0
  126.8452  129.8272   74.9606 H   0  0  0  0  0  0  0  0  0  0  0  0
  127.1600  128.5582   76.1906 H   0  0  0  0  0  0  0  0  0  0  0  0
  131.0027  128.5175   72.1616 H   0  0  0  0  0  0  0  0  0  0  0  0
  131.4029  127.3579   70.0024 H   0  0  0  0  0  0  0  0  0  0  0  0
  129.2010  125.3910   68.3160 H   0  0  0  0  0  0  0  0  0  0  0  0
  131.6625  125.5616   66.0231 H   0  0  0  0  0  0  0  0  0  0  0  0
  130.1595  124.7412   66.5700 H   0  0  0  0  0  0  0  0  0  0  0  0
  130.7666  126.3656   58.9499 H   0  0  0  0  0  0  0  0  0  0  0  0
  130.8645  128.2184   57.3098 H   0  0  0  0  0  0  0  0  0  0  0  0
  128.7964  131.0324   57.4811 H   0  0  0  0  0  0  0  0  0  0  0  0
  129.5565  132.3787   58.4583 H   0  0  0  0  0  0  0  0  0  0  0  0
  129.8714  131.9070   55.4570 H   0  0  0  0  0  0  0  0  0  0  0  0
  128.9383  133.2222   56.2578 H   0  0  0  0  0  0  0  0  0  0  0  0
  132.2182  131.8864   55.6425 H   0  0  0  0  0  0  0  0  0  0  0  0
  133.0361  133.1859   56.5828 H   0  0  0  0  0  0  0  0  0  0  0  0
  132.9453  130.9930   57.8089 H   0  0  0  0  0  0  0  0  0  0  0  0
  132.0674  132.3538   58.6582 H   0  0  0  0  0  0  0  0  0  0  0  0
  130.7660  131.0803   60.5411 H   0  0  0  0  0  0  0  0  0  0  0  0
  130.6817  129.2265   62.1775 H   0  0  0  0  0  0  0  0  0  0  0  0
  131.1677  124.9721   60.2639 H   0  0  0  0  0  0  0  0  0  0  0  0
  129.0281  122.1546   62.0851 H   0  0  0  0  0  0  0  0  0  0  0  0
  129.4447  119.8211   61.3582 H   0  0  0  0  0  0  0  0  0  0  0  0
  130.5384  117.4897   61.5982 H   0  0  0  0  0  0  0  0  0  0  0  0
  129.8881  118.2397   60.0646 H   0  0  0  0  0  0  0  0  0  0  0  0
  130.3379  115.7793   59.8555 H   0  0  0  0  0  0  0  0  0  0  0  0
  131.2716  116.7978   58.7021 H   0  0  0  0  0  0  0  0  0  0  0  0
  134.3414  116.4484   60.5445 H   0  0  0  0  0  0  0  0  0  0  0  0
  133.5609  117.1826   59.0977 H   0  0  0  0  0  0  0  0  0  0  0  0
  133.0554  117.9094   62.0332 H   0  0  0  0  0  0  0  0  0  0  0  0
  133.8988  118.9090   60.7588 H   0  0  0  0  0  0  0  0  0  0  0  0
  133.6080  120.7724   60.7084 H   0  0  0  0  0  0  0  0  0  0  0  0
  133.1879  123.1039   61.4330 H   0  0  0  0  0  0  0  0  0  0  0  0
  127.1630  126.6023   69.6165 H   0  0  0  0  0  0  0  0  0  0  0  0
  126.7651  127.7500   71.7847 H   0  0  0  0  0  0  0  0  0  0  0  0
  1  2  1  0
  2  3  1  0
  3  4  1  0
  4  5  2  0
  4  6  1  0
  6  7  2  0
  7  8  1  0
  8  9  2  0
  9 10  1  0
 10 11  1  0
 11 12  2  0
 11 13  1  0
 13 14  1  0
 14 15  1  0
 15 16  2  0
 16 17  1  0
 17 18  1  0
 18 19  2  0
 19 20  1  0
 20 21  2  0
 21 22  1  0
 22 23  1  0
 23 24  1  0
 24 25  1  0
 25 26  1  0
 26 27  1  0
 21 28  1  0
 28 29  2  0
 17 30  2  0
 30 31  1  0
 31 32  1  0
 32 33  2  0
 33 34  1  0
 34 35  2  0
 35 36  1  0
 36 37  1  0
 37 38  1  0
 38 39  1  0
 39 40  1  0
 40 41  1  0
 35 42  1  0
 42 43  2  0
 31 44  2  0
 44 45  1  0
 45 46  3  0
  9 47  1  0
 47 48  2  0
 48  6  1  0
 44 15  1  0
 29 18  1  0
 43 32  1  0
 27 22  1  0
 41 36  1  0
  1 49  1  0
  1 50  1  0
  1 51  1  0
  2 52  1  0
  2 53  1  0
  7 54  1  0
  8 55  1  0
 10 56  1  0
 13 57  1  0
 13 58  1  0
 19 59  1  0
 20 60  1  0
 23 61  1  0
 23 62  1  0
 24 63  1  0
 24 64  1  0
 26 65  1  0
 26 66  1  0
 27 67  1  0
 27 68  1  0
 28 69  1  0
 29 70  1  0
 30 71  1  0
 33 72  1  0
 34 73  1  0
 37 74  1  0
 37 75  1  0
 38 76  1  0
 38 77  1  0
 40 78  1  0
 40 79  1  0
 41 80  1  0
 41 81  1  0
 42 82  1  0
 43 83  1  0
 47 84  1  0
 48 85  1  0
M  END
>  <Binding energies>  (1) 
[-11.18]

>  <Ligand effiencies>  (1) 
[-0.22816326530612244]

>  <Interactions>  (1) 
["V-A:MET:535:CE:4833, V-A:ASP:366:CG:3210, V-A:PRO:540:CB:4883, V-A:PRO:540:CA:4881, V-A:ILE:538:CA:4858, V-A:LEU:363:CD1:3186, H-A:TYR:539:N:4868, V-B:ALA:541:CB:9864, V-A:LEU:475:CD2:4256, V-B:GLU:543:CD:9880, V-B:TYR:539:CE1:9847, V-B:TYR:539:CD1:9845, V-A:PRO:540:N:4882, V-A:ILE:369:CG2:3234, V-A:ILE:538:CB:4860, V-A:PRO:540:CD:4885, V-A:ILE:538:CG2:4861, H-A:TYR:484:OH:4345, V-A:TYR:484:CZ:4344, H-A:ARG:545:NH2:4926, V-A:HIS:456:CE1:4066, V-A:GLU:543:CD:4906, V-B:HIS:456:CE1:9040, V-A:GLU:543:CG:4905, V-A:PRO:482:CG:4324, V-A:SER:385:CB:3406, V-A:PRO:482:CB:4323, V-A:SER:385:CA:3404, V-B:TYR:539:CB:9843, V-B:GLU:543:CB:9878, V-B:GLU:543:CG:9879, V-A:LEU:373:CD1:3277, V-A:TYR:484:CE2:4343, V-A:VAL:384:C:3394, V-B:VAL:344:CG1:7972, V-A:GLY:544:CA:4912, V-B:HIS:456:CG:9037, V-B:HIS:456:CD2:9039, V-B:HIS:456:CB:9036, V-B:GLY:544:C:9884, V-B:GLU:543:C:9874, V-B:GLY:544:CA:9886, V-A:GLU:543:C:4900, H-B:LYS:547:NZ:9923, V-B:LYS:547:CD:9921, V-A:LYS:547:CE:4948, V-A:GLY:544:C:4910, H-A:LYS:547:NZ:4949, V-B:LYS:547:CE:9922, V-A:HIS:456:CD2:4065, H-B:GLU:543:O:9875"]

$$$$
2b_Ghoteimi_2023
     RDKit          3D

 72 77  0  0  0  0  0  0  0  0999 V2000
  130.5140  128.6680   58.5440 N   0  0  0  0  0  0  0  0  0  0  0  0
  130.7080  127.5750   58.8700 C   0  0  0  0  0  0  0  0  0  0  0  0
  130.9500  126.1910   59.2870 C   0  0  0  0  0  0  0  0  0  0  0  0
  130.2900  125.6550   60.4210 C   0  0  0  0  0  0  0  0  0  0  0  0
  129.3230  126.4240   61.2600 C   0  0  0  0  0  0  0  0  0  0  0  0
  128.0030  126.5910   60.8390 C   0  0  0  0  0  0  0  0  0  0  0  0
  127.0980  127.3080   61.6170 C   0  0  0  0  0  0  0  0  0  0  0  0
  127.4950  127.8930   62.8300 C   0  0  0  0  0  0  0  0  0  0  0  0
  126.6030  128.6050   63.6330 N   0  0  0  0  0  0  0  0  0  0  0  0
  127.0860  129.1900   64.9000 C   0  0  0  0  0  0  0  0  0  0  0  0
  125.9460  129.6080   65.8540 C   0  0  0  0  0  0  0  0  0  0  0  0
  125.0530  130.4910   65.1910 O   0  0  0  0  0  0  0  0  0  0  0  0
  124.4700  129.8850   64.0480 C   0  0  0  0  0  0  0  0  0  0  0  0
  125.5720  129.4840   63.0460 C   0  0  0  0  0  0  0  0  0  0  0  0
  128.8230  127.7230   63.2420 C   0  0  0  0  0  0  0  0  0  0  0  0
  129.7270  127.0020   62.4670 C   0  0  0  0  0  0  0  0  0  0  0  0
  130.5490  124.3260   60.7780 C   0  0  0  0  0  0  0  0  0  0  0  0
  131.4150  123.5430   60.0090 C   0  0  0  0  0  0  0  0  0  0  0  0
  131.7030  122.1100   60.3300 C   0  0  0  0  0  0  0  0  0  0  0  0
  130.6730  121.2450   60.7170 C   0  0  0  0  0  0  0  0  0  0  0  0
  130.9300  119.9070   61.0010 C   0  0  0  0  0  0  0  0  0  0  0  0
  132.2310  119.3850   60.9210 C   0  0  0  0  0  0  0  0  0  0  0  0
  132.5010  118.0350   61.1740 N   0  0  0  0  0  0  0  0  0  0  0  0
  131.5550  117.2340   61.9780 C   0  0  0  0  0  0  0  0  0  0  0  0
  132.1540  115.9090   62.4980 C   0  0  0  0  0  0  0  0  0  0  0  0
  132.6700  115.1520   61.4150 O   0  0  0  0  0  0  0  0  0  0  0  0
  133.6990  115.8520   60.7340 C   0  0  0  0  0  0  0  0  0  0  0  0
  133.1490  117.1760   60.1630 C   0  0  0  0  0  0  0  0  0  0  0  0
  133.2590  120.2540   60.5260 C   0  0  0  0  0  0  0  0  0  0  0  0
  133.0000  121.5910   60.2390 C   0  0  0  0  0  0  0  0  0  0  0  0
  132.0460  124.0580   58.9230 N   0  0  0  0  0  0  0  0  0  0  0  0
  131.8370  125.3500   58.5780 C   0  0  0  0  0  0  0  0  0  0  0  0
  132.7450  125.8580   57.1340 S   0  0  0  0  0  0  0  0  0  0  0  0
  131.7060  125.5150   55.6820 C   0  0  0  0  0  0  0  0  0  0  0  0
  130.2500  125.2460   56.0680 C   0  0  0  0  0  0  0  0  0  0  0  0
  129.5190  126.1940   56.3610 O   0  0  0  0  0  0  0  0  0  0  0  0
  129.8770  123.9480   56.0610 N   0  0  0  0  0  0  0  0  0  0  0  0
  128.6240  123.4310   56.3570 C   0  0  0  0  0  0  0  0  0  0  0  0
  127.8060  123.9460   57.3620 C   0  0  0  0  0  0  0  0  0  0  0  0
  126.6730  123.1690   57.3350 C   0  0  0  0  0  0  0  0  0  0  0  0
  126.8000  122.2340   56.3640 O   0  0  0  0  0  0  0  0  0  0  0  0
  128.0410  122.4110   55.7490 N   0  0  0  0  0  0  0  0  0  0  0  0
  127.6750  126.1527   59.8849 H   0  0  0  0  0  0  0  0  0  0  0  0
  126.0577  127.4176   61.2767 H   0  0  0  0  0  0  0  0  0  0  0  0
  127.7137  128.4454   65.4114 H   0  0  0  0  0  0  0  0  0  0  0  0
  127.6475  130.1008   64.6449 H   0  0  0  0  0  0  0  0  0  0  0  0
  125.3970  128.7120   66.1792 H   0  0  0  0  0  0  0  0  0  0  0  0
  126.3770  130.1206   66.7267 H   0  0  0  0  0  0  0  0  0  0  0  0
  123.9126  128.9879   64.3553 H   0  0  0  0  0  0  0  0  0  0  0  0
  123.7871  130.6010   63.5674 H   0  0  0  0  0  0  0  0  0  0  0  0
  125.1021  128.9564   62.2029 H   0  0  0  0  0  0  0  0  0  0  0  0
  126.0751  130.4089   62.7275 H   0  0  0  0  0  0  0  0  0  0  0  0
  129.1564  128.1659   64.1921 H   0  0  0  0  0  0  0  0  0  0  0  0
  130.7668  126.8862   62.8068 H   0  0  0  0  0  0  0  0  0  0  0  0
  130.0682  123.8955   61.6688 H   0  0  0  0  0  0  0  0  0  0  0  0
  129.6451  121.6284   60.7979 H   0  0  0  0  0  0  0  0  0  0  0  0
  130.0998  119.2472   61.2931 H   0  0  0  0  0  0  0  0  0  0  0  0
  131.2376  117.8353   62.8427 H   0  0  0  0  0  0  0  0  0  0  0  0
  130.7137  116.9715   61.3197 H   0  0  0  0  0  0  0  0  0  0  0  0
  132.9652  116.1295   63.2075 H   0  0  0  0  0  0  0  0  0  0  0  0
  131.3660  115.3292   63.0009 H   0  0  0  0  0  0  0  0  0  0  0  0
  134.5172  116.0702   61.4361 H   0  0  0  0  0  0  0  0  0  0  0  0
  134.0724  115.2300   59.9072 H   0  0  0  0  0  0  0  0  0  0  0  0
  133.9844  117.7351   59.7163 H   0  0  0  0  0  0  0  0  0  0  0  0
  132.3781  116.9116   59.4242 H   0  0  0  0  0  0  0  0  0  0  0  0
  134.2872  119.8722   60.4417 H   0  0  0  0  0  0  0  0  0  0  0  0
  133.8270  122.2500   59.9360 H   0  0  0  0  0  0  0  0  0  0  0  0
  131.7398  126.3838   55.0082 H   0  0  0  0  0  0  0  0  0  0  0  0
  132.0985  124.6131   55.1895 H   0  0  0  0  0  0  0  0  0  0  0  0
  130.5710  123.2680   55.7870 H   0  0  0  0  0  0  0  0  0  0  0  0
  128.0212  124.7916   58.0318 H   0  0  0  0  0  0  0  0  0  0  0  0
  125.8021  123.2876   57.9965 H   0  0  0  0  0  0  0  0  0  0  0  0
  1  2  3  0
  2  3  1  0
  3  4  2  0
  4  5  1  0
  5  6  2  0
  6  7  1  0
  7  8  2  0
  8  9  1  0
  9 10  1  0
 10 11  1  0
 11 12  1  0
 12 13  1  0
 13 14  1  0
  8 15  1  0
 15 16  2  0
  4 17  1  0
 17 18  2  0
 18 19  1  0
 19 20  2  0
 20 21  1  0
 21 22  2  0
 22 23  1  0
 23 24  1  0
 24 25  1  0
 25 26  1  0
 26 27  1  0
 27 28  1  0
 22 29  1  0
 29 30  2  0
 18 31  1  0
 31 32  2  0
 32 33  1  0
 33 34  1  0
 34 35  1  0
 35 36  2  0
 35 37  1  0
 37 38  1  0
 38 39  1  0
 39 40  2  0
 40 41  1  0
 41 42  1  0
 32  3  1  0
 42 38  2  0
 16  5  1  0
 30 19  1  0
 14  9  1  0
 28 23  1  0
  6 43  1  0
  7 44  1  0
 10 45  1  0
 10 46  1  0
 11 47  1  0
 11 48  1  0
 13 49  1  0
 13 50  1  0
 14 51  1  0
 14 52  1  0
 15 53  1  0
 16 54  1  0
 17 55  1  0
 20 56  1  0
 21 57  1  0
 24 58  1  0
 24 59  1  0
 25 60  1  0
 25 61  1  0
 27 62  1  0
 27 63  1  0
 28 64  1  0
 28 65  1  0
 29 66  1  0
 30 67  1  0
 34 68  1  0
 34 69  1  0
 37 70  1  0
 39 71  1  0
 40 72  1  0
M  END
>  <Binding energies>  (1) 
[-9.53]

>  <Ligand effiencies>  (1) 
[-0.22162790697674417]

>  <Interactions>  (1) 
["V-A:ASP:366:CG:3210, V-A:TYR:531:CZ:4792, V-A:ASP:366:CB:3209, H-A:TYR:531:OH:4793, V-B:MET:535:CE:9807, V-B:PRO:540:N:9856, V-A:LEU:475:CD2:4256, V-B:GLU:543:CD:9880, V-B:TYR:539:CE1:9847, V-B:TYR:539:CD1:9845, H-B:TYR:539:N:9842, V-B:TYR:539:CZ:9849, V-A:ILE:369:CG2:3234, V-B:ARG:545:CZ:9898, H-B:TYR:539:OH:9850, V-B:GLY:453:CA:9015, H-B:TYR:484:OH:9319, V-B:TYR:539:CE2:9848, H-B:GLY:454:N:9021, V-A:GLU:543:CD:4906, V-B:HIS:456:CE1:9040, V-A:TYR:531:CE1:4790, V-A:PRO:482:CG:4324, V-A:SER:385:CB:3406, V-A:PRO:482:CB:4323, V-A:SER:385:CA:3404, V-A:HIS:383:CB:3386, V-A:LEU:373:CD1:3277, V-A:ASN:370:CB:3242, V-A:VAL:384:C:3394, V-A:LEU:475:CG:4254, V-A:CYS:476:C:4261, V-A:ASN:370:CG:3243"]

$$$$
2b_Grossjean_2025
     RDKit          3D

 42 43  0  0  0  0  0  0  0  0999 V2000
  131.0710  115.0030   58.4560 C   0  0  0  0  0  0  0  0  0  0  0  0
  132.2820  115.7370   58.5730 O   0  0  0  0  0  0  0  0  0  0  0  0
  132.7620  116.1060   59.7880 C   0  0  0  0  0  0  0  0  0  0  0  0
  133.4910  115.3860   60.4780 O   0  0  0  0  0  0  0  0  0  0  0  0
  132.3140  117.4740   60.2130 C   0  0  0  0  0  0  0  0  0  0  0  0
  133.1930  118.5660   60.2450 C   0  0  0  0  0  0  0  0  0  0  0  0
  132.7460  119.8220   60.6450 C   0  0  0  0  0  0  0  0  0  0  0  0
  131.4150  120.0150   61.0150 C   0  0  0  0  0  0  0  0  0  0  0  0
  131.0710  121.3220   61.4090 N   0  0  0  0  0  0  0  0  0  0  0  0
  129.8590  121.9120   61.4750 C   0  0  0  0  0  0  0  0  0  0  0  0
  128.7910  121.3840   61.1600 O   0  0  0  0  0  0  0  0  0  0  0  0
  129.8640  123.3620   61.9700 C   0  0  0  0  0  0  0  0  0  0  0  0
  129.3830  124.5610   60.6840 S   0  0  0  0  0  0  0  0  0  0  0  0
  127.8160  124.0890   59.9650 C   0  0  0  0  0  0  0  0  0  0  0  0
  126.7700  124.0160   60.8270 N   0  0  0  0  0  0  0  0  0  0  0  0
  125.5560  123.6600   60.3530 C   0  0  0  0  0  0  0  0  0  0  0  0
  124.4440  123.5890   61.3820 C   0  0  0  0  0  0  0  0  0  0  0  0
  125.3290  123.3720   59.0100 C   0  0  0  0  0  0  0  0  0  0  0  0
  126.3930  123.4480   58.0990 C   0  0  0  0  0  0  0  0  0  0  0  0
  126.1240  123.1310   56.6160 C   0  0  0  0  0  0  0  0  0  0  0  0
  127.0600  122.3030   56.1500 F   0  0  0  0  0  0  0  0  0  0  0  0
  124.9290  122.5540   56.4800 F   0  0  0  0  0  0  0  0  0  0  0  0
  126.1320  124.2210   55.8450 F   0  0  0  0  0  0  0  0  0  0  0  0
  127.6750  123.8140   58.5840 C   0  0  0  0  0  0  0  0  0  0  0  0
  128.8240  123.9040   57.6780 C   0  0  0  0  0  0  0  0  0  0  0  0
  129.7310  123.9750   56.9630 N   0  0  0  0  0  0  0  0  0  0  0  0
  130.5310  118.9270   60.9940 C   0  0  0  0  0  0  0  0  0  0  0  0
  130.9790  117.6710   60.5940 C   0  0  0  0  0  0  0  0  0  0  0  0
  130.6855  114.7693   59.4594 H   0  0  0  0  0  0  0  0  0  0  0  0
  130.3295  115.6038   57.9090 H   0  0  0  0  0  0  0  0  0  0  0  0
  131.2606  114.0676   57.9090 H   0  0  0  0  0  0  0  0  0  0  0  0
  134.2443  118.4290   59.9516 H   0  0  0  0  0  0  0  0  0  0  0  0
  133.4477  120.6688   60.6695 H   0  0  0  0  0  0  0  0  0  0  0  0
  131.8620  121.9100   61.6270 H   0  0  0  0  0  0  0  0  0  0  0  0
  129.1581  123.4474   62.8093 H   0  0  0  0  0  0  0  0  0  0  0  0
  130.8946  123.6012   62.2711 H   0  0  0  0  0  0  0  0  0  0  0  0
  124.8774  123.6167   62.3927 H   0  0  0  0  0  0  0  0  0  0  0  0
  123.7669  124.4457   61.2498 H   0  0  0  0  0  0  0  0  0  0  0  0
  123.8813  122.6531   61.2498 H   0  0  0  0  0  0  0  0  0  0  0  0
  124.3237  123.0872   58.6661 H   0  0  0  0  0  0  0  0  0  0  0  0
  129.4819  119.0660   61.2940 H   0  0  0  0  0  0  0  0  0  0  0  0
  130.2778  116.8236   60.5766 H   0  0  0  0  0  0  0  0  0  0  0  0
  1  2  1  0
  2  3  1  0
  3  4  2  0
  3  5  1  0
  5  6  2  0
  6  7  1  0
  7  8  2  0
  8  9  1  0
  9 10  1  0
 10 11  2  0
 10 12  1  0
 12 13  1  0
 13 14  1  0
 14 15  2  0
 15 16  1  0
 16 17  1  0
 16 18  2  0
 18 19  1  0
 19 20  1  0
 20 21  1  0
 20 22  1  0
 20 23  1  0
 19 24  2  0
 24 25  1  0
 25 26  3  0
  8 27  1  0
 27 28  2  0
 28  5  1  0
 24 14  1  0
  1 29  1  0
  1 30  1  0
  1 31  1  0
  6 32  1  0
  7 33  1  0
  9 34  1  0
 12 35  1  0
 12 36  1  0
 17 37  1  0
 17 38  1  0
 17 39  1  0
 18 40  1  0
 27 41  1  0
 28 42  1  0
M  END
>  <Binding energies>  (1) 
[-7.37]

>  <Ligand effiencies>  (1) 
[-0.2541379310344828]

>  <Interactions>  (1) 
["V-B:PRO:540:CA:9855, V-B:ALA:541:CB:9864, V-B:PRO:540:CB:9857, V-B:LEU:363:CD1:8160, V-B:MET:535:CE:9807, V-B:ASN:362:CB:8147, V-B:ASN:362:C:8143, V-B:ILE:538:CG2:9835, V-B:ILE:538:CB:9834, V-B:ILE:538:CA:9832, V-B:PRO:540:CD:9859, V-B:PRO:540:N:9856, V-A:LEU:475:CD2:4256, V-B:TYR:539:C:9839, V-B:TYR:539:CE1:9847, V-B:TYR:539:CD1:9845, V-B:TYR:531:CE2:9765, V-A:ILE:369:CG2:3234, H-B:TYR:539:OH:9850, V-B:TYR:531:CZ:9766, V-B:TYR:539:CA:9841, H-B:ALA:541:N:9863, V-B:ILE:538:C:9830, V-A:PRO:482:CG:4324, V-A:SER:385:CB:3406, V-A:PRO:482:CB:4323, V-A:SER:385:CA:3404, V-B:TYR:539:CB:9843, V-A:HIS:383:CG:3387, V-A:LEU:373:CD2:3278, V-A:LEU:373:CD1:3277, V-B:VAL:344:CG1:7972, V-B:ILE:343:CD1:7965, V-A:HIS:383:CD2:3389, V-A:HIS:383:CE1:3391, V-B:ILE:343:CG1:7964"]

$$$$
2c_Ghoteimi_2023
     RDKit          3D

 72 77  0  0  0  0  0  0  0  0999 V2000
  133.1230  122.5830   64.3450 N   0  0  0  0  0  0  0  0  0  0  0  0
  132.4650  123.1570   63.5870 C   0  0  0  0  0  0  0  0  0  0  0  0
  131.6290  123.8800   62.6230 C   0  0  0  0  0  0  0  0  0  0  0  0
  131.0620  123.2070   61.5120 C   0  0  0  0  0  0  0  0  0  0  0  0
  131.2600  121.7540   61.2310 C   0  0  0  0  0  0  0  0  0  0  0  0
  132.5100  121.2800   60.8280 C   0  0  0  0  0  0  0  0  0  0  0  0
  132.7040  119.9260   60.5680 C   0  0  0  0  0  0  0  0  0  0  0  0
  131.6480  119.0090   60.6900 C   0  0  0  0  0  0  0  0  0  0  0  0
  131.8250  117.6440   60.4530 N   0  0  0  0  0  0  0  0  0  0  0  0
  132.3390  116.7840   61.5380 C   0  0  0  0  0  0  0  0  0  0  0  0
  132.8460  115.4130   61.0400 C   0  0  0  0  0  0  0  0  0  0  0  0
  131.8240  114.7520   60.3100 O   0  0  0  0  0  0  0  0  0  0  0  0
  131.4180  115.5050   59.1780 C   0  0  0  0  0  0  0  0  0  0  0  0
  130.8740  116.8780   59.6260 C   0  0  0  0  0  0  0  0  0  0  0  0
  130.3960  119.4950   61.0900 C   0  0  0  0  0  0  0  0  0  0  0  0
  130.2030  120.8490   61.3520 C   0  0  0  0  0  0  0  0  0  0  0  0
  130.2680  123.9420   60.6230 C   0  0  0  0  0  0  0  0  0  0  0  0
  130.0230  125.3000   60.8470 C   0  0  0  0  0  0  0  0  0  0  0  0
  129.1690  126.1230   59.9370 C   0  0  0  0  0  0  0  0  0  0  0  0
  129.6620  126.5730   58.7080 C   0  0  0  0  0  0  0  0  0  0  0  0
  128.8700  127.3360   57.8530 C   0  0  0  0  0  0  0  0  0  0  0  0
  127.5560  127.6870   58.2020 C   0  0  0  0  0  0  0  0  0  0  0  0
  126.7390  128.4300   57.3450 N   0  0  0  0  0  0  0  0  0  0  0  0
  125.5790  129.1670   57.8890 C   0  0  0  0  0  0  0  0  0  0  0  0
  124.5660  129.6100   56.8120 C   0  0  0  0  0  0  0  0  0  0  0  0
  125.2230  130.3710   55.8120 O   0  0  0  0  0  0  0  0  0  0  0  0
  126.2370  129.6170   55.1660 C   0  0  0  0  0  0  0  0  0  0  0  0
  127.2980  129.1680   56.1930 C   0  0  0  0  0  0  0  0  0  0  0  0
  127.0620  127.2230   59.4300 C   0  0  0  0  0  0  0  0  0  0  0  0
  127.8550  126.4590   60.2830 C   0  0  0  0  0  0  0  0  0  0  0  0
  130.5660  125.9420   61.9130 N   0  0  0  0  0  0  0  0  0  0  0  0
  131.3630  125.2610   62.7700 C   0  0  0  0  0  0  0  0  0  0  0  0
  131.9950  126.2580   64.1000 S   0  0  0  0  0  0  0  0  0  0  0  0
  132.1820  125.1790   65.5510 C   0  0  0  0  0  0  0  0  0  0  0  0
  131.0210  125.3350   66.5350 C   0  0  0  0  0  0  0  0  0  0  0  0
  130.3270  124.3550   66.8100 O   0  0  0  0  0  0  0  0  0  0  0  0
  130.8440  126.5760   67.0350 N   0  0  0  0  0  0  0  0  0  0  0  0
  129.8800  126.9720   67.9510 C   0  0  0  0  0  0  0  0  0  0  0  0
  128.5750  126.8430   67.8560 N   0  0  0  0  0  0  0  0  0  0  0  0
  127.9620  127.3270   68.9180 C   0  0  0  0  0  0  0  0  0  0  0  0
  128.7780  127.8660   69.9080 C   0  0  0  0  0  0  0  0  0  0  0  0
  130.4380  127.7260   69.4100 S   0  0  0  0  0  0  0  0  0  0  0  0
  133.3489  121.9825   60.7149 H   0  0  0  0  0  0  0  0  0  0  0  0
  133.6989  119.5697   60.2626 H   0  0  0  0  0  0  0  0  0  0  0  0
  133.1714  117.3057   62.0329 H   0  0  0  0  0  0  0  0  0  0  0  0
  131.5030  116.5925   62.2268 H   0  0  0  0  0  0  0  0  0  0  0  0
  133.7198  115.5627   60.3888 H   0  0  0  0  0  0  0  0  0  0  0  0
  133.1268  114.7961   61.9064 H   0  0  0  0  0  0  0  0  0  0  0  0
  132.2801  115.6545   58.5114 H   0  0  0  0  0  0  0  0  0  0  0  0
  130.6256  114.9585   58.6456 H   0  0  0  0  0  0  0  0  0  0  0  0
  130.6377  117.4689   58.7288 H   0  0  0  0  0  0  0  0  0  0  0  0
  129.9850  116.6883   60.2454 H   0  0  0  0  0  0  0  0  0  0  0  0
  129.5531  118.7966   61.1986 H   0  0  0  0  0  0  0  0  0  0  0  0
  129.2093  121.2090   61.6569 H   0  0  0  0  0  0  0  0  0  0  0  0
  129.8338  123.4471   59.7418 H   0  0  0  0  0  0  0  0  0  0  0  0
  130.6909  126.3206   58.4120 H   0  0  0  0  0  0  0  0  0  0  0  0
  129.2808  127.6691   56.8885 H   0  0  0  0  0  0  0  0  0  0  0  0
  125.0597  128.5160   58.6076 H   0  0  0  0  0  0  0  0  0  0  0  0
  125.9702  130.0816   58.3586 H   0  0  0  0  0  0  0  0  0  0  0  0
  124.1106  128.7204   56.3524 H   0  0  0  0  0  0  0  0  0  0  0  0
  123.7864  130.2276   57.2818 H   0  0  0  0  0  0  0  0  0  0  0  0
  125.7874  128.7301   54.6957 H   0  0  0  0  0  0  0  0  0  0  0  0
  126.7187  130.2425   54.4000 H   0  0  0  0  0  0  0  0  0  0  0  0
  128.0215  128.5160   55.6816 H   0  0  0  0  0  0  0  0  0  0  0  0
  127.7630  130.0811   56.5929 H   0  0  0  0  0  0  0  0  0  0  0  0
  126.0305  127.4667   59.7245 H   0  0  0  0  0  0  0  0  0  0  0  0
  127.4425  126.1146   61.2428 H   0  0  0  0  0  0  0  0  0  0  0  0
  132.2227  124.1331   65.2128 H   0  0  0  0  0  0  0  0  0  0  0  0
  133.1083  125.4658   66.0704 H   0  0  0  0  0  0  0  0  0  0  0  0
  131.4880  127.2960   66.7380 H   0  0  0  0  0  0  0  0  0  0  0  0
  126.8666  127.3060   69.0161 H   0  0  0  0  0  0  0  0  0  0  0  0
  128.4293  128.3089   70.8526 H   0  0  0  0  0  0  0  0  0  0  0  0
  1  2  3  0
  2  3  1  0
  3  4  2  0
  4  5  1  0
  5  6  2  0
  6  7  1  0
  7  8  2  0
  8  9  1  0
  9 10  1  0
 10 11  1  0
 11 12  1  0
 12 13  1  0
 13 14  1  0
  8 15  1  0
 15 16  2  0
  4 17  1  0
 17 18  2  0
 18 19  1  0
 19 20  2  0
 20 21  1  0
 21 22  2  0
 22 23  1  0
 23 24  1  0
 24 25  1  0
 25 26  1  0
 26 27  1  0
 27 28  1  0
 22 29  1  0
 29 30  2  0
 18 31  1  0
 31 32  2  0
 32 33  1  0
 33 34  1  0
 34 35  1  0
 35 36  2  0
 35 37  1  0
 37 38  1  0
 38 39  2  0
 39 40  1  0
 40 41  2  0
 41 42  1  0
 32  3  1  0
 42 38  1  0
 16  5  1  0
 30 19  1  0
 14  9  1  0
 28 23  1  0
  6 43  1  0
  7 44  1  0
 10 45  1  0
 10 46  1  0
 11 47  1  0
 11 48  1  0
 13 49  1  0
 13 50  1  0
 14 51  1  0
 14 52  1  0
 15 53  1  0
 16 54  1  0
 17 55  1  0
 20 56  1  0
 21 57  1  0
 24 58  1  0
 24 59  1  0
 25 60  1  0
 25 61  1  0
 27 62  1  0
 27 63  1  0
 28 64  1  0
 28 65  1  0
 29 66  1  0
 30 67  1  0
 34 68  1  0
 34 69  1  0
 37 70  1  0
 40 71  1  0
 41 72  1  0
M  END
>  <Binding energies>  (1) 
[-8.98]

>  <Ligand effiencies>  (1) 
[-0.2088372093023256]

>  <Interactions>  (1) 
["V-A:MET:535:CE:4833, V-B:ASP:366:CG:8184, H-A:TYR:539:OH:4876, V-B:ASP:366:CB:8183, H-B:TYR:531:OH:9767, V-B:ALA:541:CB:9864, V-A:LEU:475:CD2:4256, V-B:GLU:543:CD:9880, V-B:TYR:539:C:9839, V-B:TYR:539:CE1:9847, V-B:TYR:539:CD1:9845, V-B:TYR:539:CG:9844, V-A:ILE:369:CG2:3234, H-A:GLY:454:N:4047, V-A:GLY:454:CA:4046, H-A:TYR:484:OH:4345, V-B:TYR:531:CZ:9766, V-A:TYR:484:CZ:4344, H-B:ASN:370:ND2:8219, H-A:ARG:545:NH2:4926, V-A:HIS:456:CE1:4066, V-A:GLU:543:CD:4906, H-A:GLU:543:OE2:4908, V-B:TYR:531:CE1:9764, V-B:HIS:456:CE1:9040, V-A:GLU:543:CG:4905, V-B:ASN:370:CG:8217, V-B:ASP:366:CA:8181, V-B:ASN:370:CB:8216, V-A:PRO:482:CG:4324, V-A:SER:385:CB:3406, V-A:PRO:482:CB:4323, V-A:SER:385:CA:3404, V-B:TYR:539:CB:9843, V-A:HIS:383:CG:3387, V-B:GLU:543:CB:9878, V-B:GLU:543:CG:9879, V-A:HIS:383:CB:3386, V-A:LEU:373:CD1:3277, H-A:ARG:545:NE:4922, V-B:ASP:366:C:8179, V-B:VAL:344:CG1:7972, V-A:LEU:475:CG:4254, V-A:HIS:383:CD2:3389, V-B:HIS:456:CD2:9039, V-B:GLU:543:C:9874, V-A:GLU:543:C:4900, H-A:HIS:383:ND1:3388, H-A:HIS:456:NE2:4067"]

$$$$
2c_Grossjean_2025
     RDKit          3D

 40 41  0  0  0  0  0  0  0  0999 V2000
  134.2970  114.9960   60.6580 C   0  0  0  0  0  0  0  0  0  0  0  0
  133.0550  115.2040   59.9920 O   0  0  0  0  0  0  0  0  0  0  0  0
  132.3620  116.3780   60.2110 C   0  0  0  0  0  0  0  0  0  0  0  0
  133.1170  117.4830   60.6010 C   0  0  0  0  0  0  0  0  0  0  0  0
  132.5070  118.7110   60.8470 C   0  0  0  0  0  0  0  0  0  0  0  0
  131.1170  118.8410   60.7120 C   0  0  0  0  0  0  0  0  0  0  0  0
  130.4160  120.0430   60.9200 N   0  0  0  0  0  0  0  0  0  0  0  0
  130.8450  121.1770   61.5140 C   0  0  0  0  0  0  0  0  0  0  0  0
  131.9520  121.3200   62.0360 O   0  0  0  0  0  0  0  0  0  0  0  0
  129.8190  122.3210   61.5410 C   0  0  0  0  0  0  0  0  0  0  0  0
  129.3120  122.9600   59.9070 S   0  0  0  0  0  0  0  0  0  0  0  0
  127.5430  123.2240   59.8940 C   0  0  0  0  0  0  0  0  0  0  0  0
  126.9710  123.4330   61.1080 N   0  0  0  0  0  0  0  0  0  0  0  0
  125.6370  123.6300   61.1760 C   0  0  0  0  0  0  0  0  0  0  0  0
  125.0730  123.8400   62.5680 C   0  0  0  0  0  0  0  0  0  0  0  0
  124.8200  123.6370   60.0480 C   0  0  0  0  0  0  0  0  0  0  0  0
  125.3890  123.4310   58.7830 C   0  0  0  0  0  0  0  0  0  0  0  0
  124.4730  123.4430   57.5440 C   0  0  0  0  0  0  0  0  0  0  0  0
  123.2750  123.9320   57.8680 F   0  0  0  0  0  0  0  0  0  0  0  0
  125.0060  124.2030   56.5870 F   0  0  0  0  0  0  0  0  0  0  0  0
  124.2830  122.2250   57.0310 F   0  0  0  0  0  0  0  0  0  0  0  0
  126.7880  123.2170   58.6970 C   0  0  0  0  0  0  0  0  0  0  0  0
  127.4370  122.9940   57.4010 C   0  0  0  0  0  0  0  0  0  0  0  0
  127.9490  122.8180   56.3780 N   0  0  0  0  0  0  0  0  0  0  0  0
  130.3590  117.7420   60.3060 C   0  0  0  0  0  0  0  0  0  0  0  0
  130.9730  116.5170   60.0610 C   0  0  0  0  0  0  0  0  0  0  0  0
  134.1385  115.0225   61.7462 H   0  0  0  0  0  0  0  0  0  0  0  0
  134.7074  114.0166   60.3710 H   0  0  0  0  0  0  0  0  0  0  0  0
  135.0041  115.7882   60.3710 H   0  0  0  0  0  0  0  0  0  0  0  0
  134.2065  117.3842   60.7158 H   0  0  0  0  0  0  0  0  0  0  0  0
  133.1147  119.5776   61.1467 H   0  0  0  0  0  0  0  0  0  0  0  0
  129.4460  120.0190   60.6390 H   0  0  0  0  0  0  0  0  0  0  0  0
  128.9184  121.9566   62.0569 H   0  0  0  0  0  0  0  0  0  0  0  0
  130.3142  123.1592   62.0530 H   0  0  0  0  0  0  0  0  0  0  0  0
  125.8287  123.5586   63.3161 H   0  0  0  0  0  0  0  0  0  0  0  0
  124.8040  124.8985   62.6988 H   0  0  0  0  0  0  0  0  0  0  0  0
  124.1772  123.2152   62.6988 H   0  0  0  0  0  0  0  0  0  0  0  0
  123.7372  123.8028   60.1486 H   0  0  0  0  0  0  0  0  0  0  0  0
  129.2711  117.8442   60.1790 H   0  0  0  0  0  0  0  0  0  0  0  0
  130.3671  115.6538   59.7484 H   0  0  0  0  0  0  0  0  0  0  0  0
  1  2  1  0
  2  3  1  0
  3  4  2  0
  4  5  1  0
  5  6  2  0
  6  7  1  0
  7  8  1  0
  8  9  2  0
  8 10  1  0
 10 11  1  0
 11 12  1  0
 12 13  2  0
 13 14  1  0
 14 15  1  0
 14 16  2  0
 16 17  1  0
 17 18  1  0
 18 19  1  0
 18 20  1  0
 18 21  1  0
 17 22  2  0
 22 23  1  0
 23 24  3  0
  6 25  1  0
 25 26  2  0
 26  3  1  0
 22 12  1  0
  1 27  1  0
  1 28  1  0
  1 29  1  0
  4 30  1  0
  5 31  1  0
  7 32  1  0
 10 33  1  0
 10 34  1  0
 15 35  1  0
 15 36  1  0
 15 37  1  0
 16 38  1  0
 25 39  1  0
 26 40  1  0
M  END
>  <Binding energies>  (1) 
[-8.28]

>  <Ligand effiencies>  (1) 
[-0.30666666666666664]

>  <Interactions>  (1) 
["V-B:ASP:366:CG:8184, V-B:ASP:366:CB:8183, V-B:PRO:540:CA:9855, V-B:ALA:541:CB:9864, V-B:LEU:363:CA:8156, V-B:PRO:540:CB:9857, V-B:LEU:363:CD1:8160, V-B:ASN:362:CB:8147, V-B:PRO:540:CG:9858, V-B:ILE:538:CB:9834, V-B:PRO:540:CD:9859, V-B:PRO:540:N:9856, V-A:LEU:475:CD2:4256, V-B:GLU:543:CD:9880, V-B:TYR:539:C:9839, V-B:TYR:539:CE1:9847, V-B:TYR:539:CD1:9845, V-B:PRO:540:C:9853, V-B:TYR:539:CG:9844, H-B:TYR:539:N:9842, V-B:TYR:531:CE2:9765, V-B:ARG:545:CZ:9898, V-B:TYR:531:CZ:9766, H-B:ALA:541:N:9863, H-B:TYR:539:O:9840, V-A:PRO:482:CG:4324, V-A:SER:385:CB:3406, V-A:PRO:482:CB:4323, V-A:SER:385:CA:3404, V-B:TYR:539:CB:9843, V-A:HIS:383:CG:3387, V-A:HIS:383:CB:3386, V-A:LEU:373:CD1:3277, V-A:VAL:384:C:3394, V-B:VAL:344:CG1:7972, V-B:LEU:363:CB:8158, V-A:HIS:383:CA:3384, V-A:THR:477:CA:4267, V-B:LEU:363:CG:8159, V-B:LEU:363:C:8154, V-A:VAL:384:CA:3396, V-A:HIS:383:C:3382, V-A:THR:477:CG2:4270, V-A:THR:477:CB:4269"]

$$$$
2d_Ghoteimi_2023
     RDKit          3D

 68 72  0  0  0  0  0  0  0  0999 V2000
  134.4140  125.1660   67.3140 C   0  0  0  0  0  0  0  0  0  0  0  0
  134.1870  124.7180   65.9860 O   0  0  0  0  0  0  0  0  0  0  0  0
  133.3170  125.3640   65.1830 C   0  0  0  0  0  0  0  0  0  0  0  0
  133.4330  125.4970   63.9620 O   0  0  0  0  0  0  0  0  0  0  0  0
  132.1310  125.9240   65.9820 C   0  0  0  0  0  0  0  0  0  0  0  0
  130.5460  125.2690   65.3580 S   0  0  0  0  0  0  0  0  0  0  0  0
  130.7930  124.7010   63.6880 C   0  0  0  0  0  0  0  0  0  0  0  0
  130.7950  125.7040   62.7760 N   0  0  0  0  0  0  0  0  0  0  0  0
  130.9670  125.4150   61.4620 C   0  0  0  0  0  0  0  0  0  0  0  0
  130.9390  126.5700   60.5140 C   0  0  0  0  0  0  0  0  0  0  0  0
  131.2170  126.3840   59.1550 C   0  0  0  0  0  0  0  0  0  0  0  0
  131.1930  127.4550   58.2660 C   0  0  0  0  0  0  0  0  0  0  0  0
  130.8800  128.7510   58.7030 C   0  0  0  0  0  0  0  0  0  0  0  0
  130.8690  129.8420   57.8260 N   0  0  0  0  0  0  0  0  0  0  0  0
  129.6900  130.7220   57.7020 C   0  0  0  0  0  0  0  0  0  0  0  0
  129.7170  131.6190   56.4480 C   0  0  0  0  0  0  0  0  0  0  0  0
  130.9170  132.3760   56.4200 O   0  0  0  0  0  0  0  0  0  0  0  0
  132.0600  131.5390   56.3790 C   0  0  0  0  0  0  0  0  0  0  0  0
  132.1000  130.6340   57.6290 C   0  0  0  0  0  0  0  0  0  0  0  0
  130.6150  128.9360   60.0670 C   0  0  0  0  0  0  0  0  0  0  0  0
  130.6410  127.8650   60.9560 C   0  0  0  0  0  0  0  0  0  0  0  0
  131.1470  124.0980   61.0310 C   0  0  0  0  0  0  0  0  0  0  0  0
  131.1830  123.0470   61.9550 C   0  0  0  0  0  0  0  0  0  0  0  0
  131.4080  121.6690   61.4250 C   0  0  0  0  0  0  0  0  0  0  0  0
  130.3860  120.7200   61.4820 C   0  0  0  0  0  0  0  0  0  0  0  0
  130.5800  119.4360   60.9800 C   0  0  0  0  0  0  0  0  0  0  0  0
  131.8080  119.0640   60.4070 C   0  0  0  0  0  0  0  0  0  0  0  0
  132.0220  117.7850   59.8850 N   0  0  0  0  0  0  0  0  0  0  0  0
  130.8940  116.9030   59.5250 C   0  0  0  0  0  0  0  0  0  0  0  0
  131.3080  115.7040   58.6460 C   0  0  0  0  0  0  0  0  0  0  0  0
  132.3440  114.9700   59.2820 O   0  0  0  0  0  0  0  0  0  0  0  0
  133.4940  115.7720   59.5040 C   0  0  0  0  0  0  0  0  0  0  0  0
  133.1360  116.9710   60.4090 C   0  0  0  0  0  0  0  0  0  0  0  0
  132.8220  120.0290   60.3380 C   0  0  0  0  0  0  0  0  0  0  0  0
  132.6260  121.3130   60.8400 C   0  0  0  0  0  0  0  0  0  0  0  0
  131.0070  123.3500   63.3280 C   0  0  0  0  0  0  0  0  0  0  0  0
  131.0560  122.2870   64.3370 C   0  0  0  0  0  0  0  0  0  0  0  0
  131.0950  121.4440   65.1300 N   0  0  0  0  0  0  0  0  0  0  0  0
  134.0342  124.4164   68.0238 H   0  0  0  0  0  0  0  0  0  0  0  0
  135.4930  125.3084   67.4735 H   0  0  0  0  0  0  0  0  0  0  0  0
  133.8907  126.1203   67.4735 H   0  0  0  0  0  0  0  0  0  0  0  0
  132.2449  125.6410   67.0389 H   0  0  0  0  0  0  0  0  0  0  0  0
  132.1229  127.0185   65.8720 H   0  0  0  0  0  0  0  0  0  0  0  0
  131.4580  125.3769   58.7839 H   0  0  0  0  0  0  0  0  0  0  0  0
  131.4230  127.2825   57.2042 H   0  0  0  0  0  0  0  0  0  0  0  0
  128.7892  130.0922   57.6595 H   0  0  0  0  0  0  0  0  0  0  0  0
  129.6933  131.3900   58.5760 H   0  0  0  0  0  0  0  0  0  0  0  0
  129.6624  130.9890   55.5479 H   0  0  0  0  0  0  0  0  0  0  0  0
  128.8574  132.3048   56.4753 H   0  0  0  0  0  0  0  0  0  0  0  0
  132.0191  130.9113   55.4766 H   0  0  0  0  0  0  0  0  0  0  0  0
  132.9642  132.1651   56.3588 H   0  0  0  0  0  0  0  0  0  0  0  0
  132.9475  129.9400   57.5287 H   0  0  0  0  0  0  0  0  0  0  0  0
  132.2011  131.2950   58.5024 H   0  0  0  0  0  0  0  0  0  0  0  0
  130.3827  129.9440   60.4411 H   0  0  0  0  0  0  0  0  0  0  0  0
  130.4245  128.0384   62.0205 H   0  0  0  0  0  0  0  0  0  0  0  0
  131.2612  123.8856   59.9578 H   0  0  0  0  0  0  0  0  0  0  0  0
  129.4173  120.9894   61.9282 H   0  0  0  0  0  0  0  0  0  0  0  0
  129.7614  118.7032   61.0326 H   0  0  0  0  0  0  0  0  0  0  0  0
  130.4442  116.5169   60.4516 H   0  0  0  0  0  0  0  0  0  0  0  0
  130.1856  117.5060   58.9379 H   0  0  0  0  0  0  0  0  0  0  0  0
  130.4386  115.0480   58.4919 H   0  0  0  0  0  0  0  0  0  0  0  0
  131.6716  116.0756   57.6766 H   0  0  0  0  0  0  0  0  0  0  0  0
  134.2715  115.1664   59.9926 H   0  0  0  0  0  0  0  0  0  0  0  0
  133.8644  116.1468   58.5384 H   0  0  0  0  0  0  0  0  0  0  0  0
  132.8524  116.5879   61.4004 H   0  0  0  0  0  0  0  0  0  0  0  0
  134.0220  117.6214   60.4542 H   0  0  0  0  0  0  0  0  0  0  0  0
  133.7876  119.7681   59.8802 H   0  0  0  0  0  0  0  0  0  0  0  0
  133.4370  122.0534   60.7755 H   0  0  0  0  0  0  0  0  0  0  0  0
  1  2  1  0
  2  3  1  0
  3  4  2  0
  3  5  1  0
  5  6  1  0
  6  7  1  0
  7  8  2  0
  8  9  1  0
  9 10  1  0
 10 11  2  0
 11 12  1  0
 12 13  2  0
 13 14  1  0
 14 15  1  0
 15 16  1  0
 16 17  1  0
 17 18  1  0
 18 19  1  0
 13 20  1  0
 20 21  2  0
  9 22  2  0
 22 23  1  0
 23 24  1  0
 24 25  2  0
 25 26  1  0
 26 27  2  0
 27 28  1  0
 28 29  1  0
 29 30  1  0
 30 31  1  0
 31 32  1  0
 32 33  1  0
 27 34  1  0
 34 35  2  0
 23 36  2  0
 36 37  1  0
 37 38  3  0
 36  7  1  0
 21 10  1  0
 35 24  1  0
 19 14  1  0
 33 28  1  0
  1 39  1  0
  1 40  1  0
  1 41  1  0
  5 42  1  0
  5 43  1  0
 11 44  1  0
 12 45  1  0
 15 46  1  0
 15 47  1  0
 16 48  1  0
 16 49  1  0
 18 50  1  0
 18 51  1  0
 19 52  1  0
 19 53  1  0
 20 54  1  0
 21 55  1  0
 22 56  1  0
 25 57  1  0
 26 58  1  0
 29 59  1  0
 29 60  1  0
 30 61  1  0
 30 62  1  0
 32 63  1  0
 32 64  1  0
 33 65  1  0
 33 66  1  0
 34 67  1  0
 35 68  1  0
M  END
>  <Binding energies>  (1) 
[-8.97]

>  <Ligand effiencies>  (1) 
[-0.23605263157894738]

>  <Interactions>  (1) 
["V-A:MET:535:CE:4833, V-A:ASP:366:CG:3210, V-A:TYR:531:CZ:4792, V-A:TYR:531:CE2:4791, V-A:ASP:366:CB:3209, H-A:TYR:539:N:4868, V-B:ALA:541:CB:9864, V-A:LEU:475:CD2:4256, V-B:GLU:543:CD:9880, V-B:TYR:539:CE1:9847, V-B:TYR:539:CD1:9845, V-B:TYR:539:CG:9844, V-A:ILE:369:CG2:3234, H-A:GLY:454:N:4047, V-A:GLY:454:CA:4046, H-A:TYR:484:OH:4345, V-A:TYR:484:CZ:4344, V-A:ARG:545:CG:4920, H-A:ARG:545:NH2:4926, V-A:ARG:545:CD:4921, V-A:HIS:456:CE1:4066, V-A:ARG:545:CZ:4924, V-A:PRO:482:CG:4324, V-A:SER:385:CB:3406, V-A:SER:385:CA:3404, V-B:TYR:539:CB:9843, V-A:HIS:383:CG:3387, V-A:LEU:373:CD2:3278, V-A:HIS:383:CB:3386, V-A:LEU:373:CD1:3277, H-A:ARG:545:NE:4922, V-A:TYR:484:CE2:4343, V-A:VAL:384:C:3394, V-B:VAL:344:CG1:7972, V-A:HIS:383:CA:3384, H-A:ARG:545:NH1:4925, V-B:ILE:343:CD1:7965, V-A:HIS:383:CD2:3389, H-A:HIS:383:ND1:3388, H-A:ILE:455:N:4052, V-B:ILE:343:CG1:7964, V-A:ARG:545:CB:4919, V-A:GLY:454:C:4044, V-A:ILE:455:C:4049, V-A:ILE:455:CA:4051, V-A:TYR:484:CE1:4342"]

$$$$
2d_Grossjean_2025
     RDKit          3D

 36 37  0  0  0  0  0  0  0  0999 V2000
  132.4800  131.1420   62.5390 C   0  0  0  0  0  0  0  0  0  0  0  0
  131.8250  131.5000   61.2180 C   0  0  0  0  0  0  0  0  0  0  0  0
  132.5530  131.5480   60.0320 C   0  0  0  0  0  0  0  0  0  0  0  0
  131.9010  131.8800   58.8350 C   0  0  0  0  0  0  0  0  0  0  0  0
  132.7210  131.9180   57.5310 C   0  0  0  0  0  0  0  0  0  0  0  0
  132.7290  133.1550   57.0330 F   0  0  0  0  0  0  0  0  0  0  0  0
  133.9780  131.5410   57.7710 F   0  0  0  0  0  0  0  0  0  0  0  0
  132.2320  131.1090   56.5900 F   0  0  0  0  0  0  0  0  0  0  0  0
  130.5120  132.1650   58.8760 C   0  0  0  0  0  0  0  0  0  0  0  0
  129.7750  132.4710   57.6470 C   0  0  0  0  0  0  0  0  0  0  0  0
  129.1940  132.7120   56.6760 N   0  0  0  0  0  0  0  0  0  0  0  0
  129.8590  132.1160   60.1310 C   0  0  0  0  0  0  0  0  0  0  0  0
  128.1300  132.4750   60.3680 S   0  0  0  0  0  0  0  0  0  0  0  0
  127.9380  133.4520   61.8960 C   0  0  0  0  0  0  0  0  0  0  0  0
  126.8370  134.5120   61.7950 C   0  0  0  0  0  0  0  0  0  0  0  0
  125.6860  134.2110   62.1120 O   0  0  0  0  0  0  0  0  0  0  0  0
  127.2270  135.7150   61.3240 N   0  0  0  0  0  0  0  0  0  0  0  0
  126.4630  136.8800   61.1210 C   0  0  0  0  0  0  0  0  0  0  0  0
  127.1440  137.9730   60.5810 C   0  0  0  0  0  0  0  0  0  0  0  0
  126.4750  139.1720   60.3500 C   0  0  0  0  0  0  0  0  0  0  0  0
  125.1230  139.2810   60.6680 C   0  0  0  0  0  0  0  0  0  0  0  0
  124.4370  138.2020   61.2190 C   0  0  0  0  0  0  0  0  0  0  0  0
  125.1020  137.0020   61.4510 C   0  0  0  0  0  0  0  0  0  0  0  0
  130.5010  131.7730   61.2750 N   0  0  0  0  0  0  0  0  0  0  0  0
  131.8460  131.4885   63.3684 H   0  0  0  0  0  0  0  0  0  0  0  0
  132.6037  130.0509   62.6031 H   0  0  0  0  0  0  0  0  0  0  0  0
  133.4652  131.6271   62.6031 H   0  0  0  0  0  0  0  0  0  0  0  0
  133.6306  131.3274   60.0336 H   0  0  0  0  0  0  0  0  0  0  0  0
  127.6908  132.7675   62.7208 H   0  0  0  0  0  0  0  0  0  0  0  0
  128.8873  133.9796   62.0703 H   0  0  0  0  0  0  0  0  0  0  0  0
  128.1870  135.7870   61.0190 H   0  0  0  0  0  0  0  0  0  0  0  0
  128.2131  137.8864   60.3372 H   0  0  0  0  0  0  0  0  0  0  0  0
  127.0117  140.0296   59.9182 H   0  0  0  0  0  0  0  0  0  0  0  0
  124.5933  140.2270   60.4823 H   0  0  0  0  0  0  0  0  0  0  0  0
  123.3705  138.2981   61.4706 H   0  0  0  0  0  0  0  0  0  0  0  0
  124.5636  136.1501   61.8919 H   0  0  0  0  0  0  0  0  0  0  0  0
  1  2  1  0
  2  3  2  0
  3  4  1  0
  4  5  1  0
  5  6  1  0
  5  7  1  0
  5  8  1  0
  4  9  2  0
  9 10  1  0
 10 11  3  0
  9 12  1  0
 12 13  1  0
 13 14  1  0
 14 15  1  0
 15 16  2  0
 15 17  1  0
 17 18  1  0
 18 19  2  0
 19 20  1  0
 20 21  2  0
 21 22  1  0
 22 23  2  0
 12 24  2  0
 24  2  1  0
 23 18  1  0
  1 25  1  0
  1 26  1  0
  1 27  1  0
  3 28  1  0
 14 29  1  0
 14 30  1  0
 17 31  1  0
 19 32  1  0
 20 33  1  0
 21 34  1  0
 22 35  1  0
 23 36  1  0
M  END
>  <Binding energies>  (1) 
[-8.68]

>  <Ligand effiencies>  (1) 
[-0.3472]

>  <Interactions>  (1) 
["V-A:TYR:531:CZ:4792, V-A:LEU:363:CA:3182, V-A:TYR:531:CE2:4791, H-A:ALA:541:N:4889, V-A:PRO:540:CB:4883, V-A:PRO:540:CA:4881, V-A:ASP:366:CB:3209, V-A:LEU:363:CB:3184, V-A:LEU:363:CD1:3186, H-A:TYR:539:N:4868, V-A:TYR:539:CE1:4873, V-A:TYR:539:CD1:4871, V-A:ALA:541:CB:4890, V-A:PRO:540:N:4882, V-A:TYR:539:C:4865, V-A:TYR:539:CG:4870, V-A:ILE:538:CB:4860, V-B:PRO:482:CB:9297, V-B:SER:385:CA:8378, V-A:PRO:540:CD:4885, V-B:PRO:482:CG:9298, V-B:LEU:475:CD2:9230, V-B:SER:385:CB:8380, V-B:LEU:373:CD1:8251, V-A:ARG:545:CZ:4924, V-A:GLU:543:CD:4906, V-A:PRO:540:CG:4884, V-A:ASN:362:CB:3173, V-B:VAL:384:C:8368, H-A:TYR:539:O:4866, V-A:VAL:344:CG1:2998, V-A:TYR:539:CB:4869, V-A:LEU:363:CG:3185"]

$$$$
2e_Grossjean_2025
     RDKit          3D

 38 39  0  0  0  0  0  0  0  0999 V2000
  134.6140  125.1360   66.5910 C   0  0  0  0  0  0  0  0  0  0  0  0
  133.4970  125.2470   65.5710 C   0  0  0  0  0  0  0  0  0  0  0  0
  132.1800  125.5150   65.9550 C   0  0  0  0  0  0  0  0  0  0  0  0
  131.2060  125.6150   64.9600 C   0  0  0  0  0  0  0  0  0  0  0  0
  131.5670  125.4450   63.6210 C   0  0  0  0  0  0  0  0  0  0  0  0
  132.9030  125.1690   63.3070 C   0  0  0  0  0  0  0  0  0  0  0  0
  133.2180  125.0510   61.9430 N   0  0  0  0  0  0  0  0  0  0  0  0
  133.3130  123.9230   61.2040 C   0  0  0  0  0  0  0  0  0  0  0  0
  133.0580  122.7880   61.6110 O   0  0  0  0  0  0  0  0  0  0  0  0
  133.8220  124.1060   59.7710 C   0  0  0  0  0  0  0  0  0  0  0  0
  132.7250  125.1770   58.7880 S   0  0  0  0  0  0  0  0  0  0  0  0
  131.1550  124.3410   58.7480 C   0  0  0  0  0  0  0  0  0  0  0  0
  130.8910  123.5820   59.8400 N   0  0  0  0  0  0  0  0  0  0  0  0
  129.7380  122.8760   59.8720 C   0  0  0  0  0  0  0  0  0  0  0  0
  129.5060  122.0490   61.1220 C   0  0  0  0  0  0  0  0  0  0  0  0
  128.8160  122.8920   58.8270 C   0  0  0  0  0  0  0  0  0  0  0  0
  129.0790  123.6650   57.6860 C   0  0  0  0  0  0  0  0  0  0  0  0
  128.0600  123.6560   56.5310 C   0  0  0  0  0  0  0  0  0  0  0  0
  127.5620  124.8800   56.3500 F   0  0  0  0  0  0  0  0  0  0  0  0
  128.6530  123.2600   55.4040 F   0  0  0  0  0  0  0  0  0  0  0  0
  127.0330  122.8340   56.7560 F   0  0  0  0  0  0  0  0  0  0  0  0
  130.2800  124.4150   57.6400 C   0  0  0  0  0  0  0  0  0  0  0  0
  130.6270  125.2190   56.4640 C   0  0  0  0  0  0  0  0  0  0  0  0
  130.9000  125.8530   55.5340 N   0  0  0  0  0  0  0  0  0  0  0  0
  133.8620  125.0780   64.2740 N   0  0  0  0  0  0  0  0  0  0  0  0
  134.1900  125.1781   67.6051 H   0  0  0  0  0  0  0  0  0  0  0  0
  135.1422  124.1809   66.4538 H   0  0  0  0  0  0  0  0  0  0  0  0
  135.3199  125.9684   66.4538 H   0  0  0  0  0  0  0  0  0  0  0  0
  131.9175  125.6440   67.0154 H   0  0  0  0  0  0  0  0  0  0  0  0
  130.1604  125.8264   65.2286 H   0  0  0  0  0  0  0  0  0  0  0  0
  130.8122  125.5269   62.8250 H   0  0  0  0  0  0  0  0  0  0  0  0
  133.3510  125.9260   61.4590 H   0  0  0  0  0  0  0  0  0  0  0  0
  134.8235  124.5596   59.8052 H   0  0  0  0  0  0  0  0  0  0  0  0
  133.8492  123.1164   59.2914 H   0  0  0  0  0  0  0  0  0  0  0  0
  129.6808  122.6720   62.0115 H   0  0  0  0  0  0  0  0  0  0  0  0
  128.4697  121.6802   61.1305 H   0  0  0  0  0  0  0  0  0  0  0  0
  130.1992  121.1950   61.1305 H   0  0  0  0  0  0  0  0  0  0  0  0
  127.8894  122.3032   58.8962 H   0  0  0  0  0  0  0  0  0  0  0  0
  1  2  1  0
  2  3  2  0
  3  4  1  0
  4  5  2  0
  5  6  1  0
  6  7  1  0
  7  8  1  0
  8  9  2  0
  8 10  1  0
 10 11  1  0
 11 12  1  0
 12 13  2  0
 13 14  1  0
 14 15  1  0
 14 16  2  0
 16 17  1  0
 17 18  1  0
 18 19  1  0
 18 20  1  0
 18 21  1  0
 17 22  2  0
 22 23  1  0
 23 24  3  0
  6 25  2  0
 25  2  1  0
 22 12  1  0
  1 26  1  0
  1 27  1  0
  1 28  1  0
  3 29  1  0
  4 30  1  0
  5 31  1  0
  7 32  1  0
 10 33  1  0
 10 34  1  0
 15 35  1  0
 15 36  1  0
 15 37  1  0
 16 38  1  0
M  END
>  <Binding energies>  (1) 
[-7.38]

>  <Ligand effiencies>  (1) 
[-0.28384615384615386]

>  <Interactions>  (1) 
["V-A:ASP:366:CG:3210, H-A:TYR:531:OH:4793, V-B:ALA:541:CB:9864, V-B:MET:535:CE:9807, V-A:ASP:366:CA:3207, V-B:PRO:540:N:9856, V-B:GLU:543:CD:9880, V-B:TYR:539:C:9839, V-B:TYR:539:CE1:9847, V-B:TYR:539:CD1:9845, V-A:ILE:369:CB:3233, V-B:TYR:539:CZ:9849, V-A:ILE:369:CD1:3236, V-A:ILE:369:CG2:3234, H-B:TYR:539:OH:9850, H-A:ASP:366:OD2:3212, H-A:GLY:454:N:4047, V-A:GLY:454:CA:4046, H-A:TYR:484:OH:4345, H-A:ASP:366:OD1:3211, V-A:TYR:484:CZ:4344, V-B:TYR:539:CE2:9848, V-A:ARG:545:CG:4920, H-A:ARG:545:NH2:4926, V-A:GLY:453:CA:4041, V-A:ARG:545:CD:4921, V-A:HIS:456:CE1:4066, V-A:ARG:545:CZ:4924, V-B:TYR:539:CD2:9846, H-A:ASN:370:ND2:3245, V-A:GLY:453:C:4039, H-A:ARG:545:NE:4922, H-A:ARG:545:NH1:4925, V-A:ARG:545:CB:4919, V-A:GLY:454:C:4044, V-A:ILE:455:C:4049"]

$$$$
2f_Grossjean_2025
     RDKit          3D

 35 36  0  0  0  0  0  0  0  0999 V2000
  124.9990  123.7760   62.6030 C   0  0  0  0  0  0  0  0  0  0  0  0
  125.5780  123.5320   61.2230 C   0  0  0  0  0  0  0  0  0  0  0  0
  124.7950  123.6330   60.0750 C   0  0  0  0  0  0  0  0  0  0  0  0
  125.3750  123.3890   58.8200 C   0  0  0  0  0  0  0  0  0  0  0  0
  124.4900  123.4940   57.5640 C   0  0  0  0  0  0  0  0  0  0  0  0
  124.2290  122.2760   57.0830 F   0  0  0  0  0  0  0  0  0  0  0  0
  123.3380  124.0940   57.8680 F   0  0  0  0  0  0  0  0  0  0  0  0
  125.0630  124.1960   56.5840 F   0  0  0  0  0  0  0  0  0  0  0  0
  126.7520  123.0530   58.7630 C   0  0  0  0  0  0  0  0  0  0  0  0
  127.3890  122.7350   57.4830 C   0  0  0  0  0  0  0  0  0  0  0  0
  127.8930  122.4850   56.4710 N   0  0  0  0  0  0  0  0  0  0  0  0
  127.4750  123.0000   59.9790 C   0  0  0  0  0  0  0  0  0  0  0  0
  129.2090  122.6070   60.0940 S   0  0  0  0  0  0  0  0  0  0  0  0
  129.4910  121.7470   61.6790 C   0  0  0  0  0  0  0  0  0  0  0  0
  130.6550  122.2930   62.5180 C   0  0  0  0  0  0  0  0  0  0  0  0
  131.7600  121.7500   62.4870 O   0  0  0  0  0  0  0  0  0  0  0  0
  130.3450  123.3690   63.2730 N   0  0  0  0  0  0  0  0  0  0  0  0
  131.1620  124.1180   64.1410 C   0  0  0  0  0  0  0  0  0  0  0  0
  130.7260  124.7820   65.3030 C   0  0  0  0  0  0  0  0  0  0  0  0
  131.6450  125.4890   66.0810 C   0  0  0  0  0  0  0  0  0  0  0  0
  132.9810  125.5120   65.6800 C   0  0  0  0  0  0  0  0  0  0  0  0
  133.4280  124.8740   64.5690 N   0  0  0  0  0  0  0  0  0  0  0  0
  132.5230  124.1900   63.8230 C   0  0  0  0  0  0  0  0  0  0  0  0
  126.8920  123.2160   61.1830 N   0  0  0  0  0  0  0  0  0  0  0  0
  125.7288  123.4685   63.3664 H   0  0  0  0  0  0  0  0  0  0  0  0
  124.7729  124.8459   62.7218 H   0  0  0  0  0  0  0  0  0  0  0  0
  124.0753  123.1906   62.7218 H   0  0  0  0  0  0  0  0  0  0  0  0
  123.7311  123.9017   60.1513 H   0  0  0  0  0  0  0  0  0  0  0  0
  128.5721  121.8270   62.2783 H   0  0  0  0  0  0  0  0  0  0  0  0
  129.7578  120.7112   61.4223 H   0  0  0  0  0  0  0  0  0  0  0  0
  129.3820  123.6720   63.2450 H   0  0  0  0  0  0  0  0  0  0  0  0
  129.6666  124.7441   65.5967 H   0  0  0  0  0  0  0  0  0  0  0  0
  131.3224  126.0166   66.9907 H   0  0  0  0  0  0  0  0  0  0  0  0
  133.7039  126.0720   66.2914 H   0  0  0  0  0  0  0  0  0  0  0  0
  132.8774  123.6659   62.9232 H   0  0  0  0  0  0  0  0  0  0  0  0
  1  2  1  0
  2  3  2  0
  3  4  1  0
  4  5  1  0
  5  6  1  0
  5  7  1  0
  5  8  1  0
  4  9  2  0
  9 10  1  0
 10 11  3  0
  9 12  1  0
 12 13  1  0
 13 14  1  0
 14 15  1  0
 15 16  2  0
 15 17  1  0
 17 18  1  0
 18 19  2  0
 19 20  1  0
 20 21  2  0
 21 22  1  0
 22 23  2  0
 12 24  2  0
 24  2  1  0
 23 18  1  0
  1 25  1  0
  1 26  1  0
  1 27  1  0
  3 28  1  0
 14 29  1  0
 14 30  1  0
 17 31  1  0
 19 32  1  0
 20 33  1  0
 21 34  1  0
 23 35  1  0
M  END
>  <Binding energies>  (1) 
[-8.25]

>  <Ligand effiencies>  (1) 
[-0.33]

>  <Interactions>  (1) 
["V-B:ASP:366:CG:8184, V-B:ASP:366:CB:8183, V-B:PRO:540:CA:9855, V-B:ALA:541:CB:9864, V-B:LEU:363:CA:8156, V-B:PRO:540:CB:9857, V-B:ALA:541:CA:9862, V-B:LEU:363:CD1:8160, V-B:ASN:362:CB:8147, V-B:PRO:540:CG:9858, V-B:ILE:538:CB:9834, V-B:PRO:540:CD:9859, V-B:PRO:540:N:9856, V-A:LEU:475:CD2:4256, V-B:GLU:543:CD:9880, V-B:TYR:539:C:9839, V-B:PRO:540:C:9853, H-B:TYR:539:N:9842, V-B:TYR:531:CE2:9765, V-B:ARG:545:CZ:9898, H-A:GLY:454:N:4047, V-A:GLY:454:CA:4046, H-A:TYR:484:OH:4345, V-B:TYR:531:CZ:9766, V-A:TYR:484:CZ:4344, V-A:ARG:545:CG:4920, V-A:ARG:545:CD:4921, V-A:HIS:456:CE1:4066, V-A:ARG:545:CZ:4924, H-B:ALA:541:N:9863, V-B:GLU:543:CB:9878, H-A:ARG:545:NE:4922, H-B:GLU:543:OE1:9881, V-B:LEU:363:CB:8158, V-B:LEU:363:CG:8159, V-B:LEU:363:C:8154"]

$$$$
2g_Grossjean_2025
     RDKit          3D

 39 40  0  0  0  0  0  0  0  0999 V2000
  124.8940  123.8390   62.2670 C   0  0  0  0  0  0  0  0  0  0  0  0
  125.5010  123.5600   60.9050 C   0  0  0  0  0  0  0  0  0  0  0  0
  124.7440  123.6360   59.7390 C   0  0  0  0  0  0  0  0  0  0  0  0
  125.3510  123.3610   58.5030 C   0  0  0  0  0  0  0  0  0  0  0  0
  124.4940  123.4420   57.2240 C   0  0  0  0  0  0  0  0  0  0  0  0
  124.1870  122.2170   56.7960 F   0  0  0  0  0  0  0  0  0  0  0  0
  123.3660  124.1070   57.4770 F   0  0  0  0  0  0  0  0  0  0  0  0
  125.1170  124.0700   56.2250 F   0  0  0  0  0  0  0  0  0  0  0  0
  126.7270  123.0210   58.4840 C   0  0  0  0  0  0  0  0  0  0  0  0
  127.3950  122.6690   57.2280 C   0  0  0  0  0  0  0  0  0  0  0  0
  127.9210  122.3920   56.2350 N   0  0  0  0  0  0  0  0  0  0  0  0
  127.4240  122.9980   59.7170 C   0  0  0  0  0  0  0  0  0  0  0  0
  129.1560  122.6160   59.8710 S   0  0  0  0  0  0  0  0  0  0  0  0
  129.3590  121.5880   61.3650 C   0  0  0  0  0  0  0  0  0  0  0  0
  130.7660  121.0030   61.5560 C   0  0  0  0  0  0  0  0  0  0  0  0
  131.6160  121.5840   62.2330 O   0  0  0  0  0  0  0  0  0  0  0  0
  130.9950  119.8340   60.9310 N   0  0  0  0  0  0  0  0  0  0  0  0
  132.2500  119.0820   60.9700 C   0  0  0  0  0  0  0  0  0  0  0  0
  132.1630  117.6810   60.3740 C   0  0  0  0  0  0  0  0  0  0  0  0
  130.9430  117.2110   59.8780 C   0  0  0  0  0  0  0  0  0  0  0  0
  130.8690  115.9470   59.2980 C   0  0  0  0  0  0  0  0  0  0  0  0
  132.0150  115.1610   59.2060 C   0  0  0  0  0  0  0  0  0  0  0  0
  133.2370  115.6300   59.6870 C   0  0  0  0  0  0  0  0  0  0  0  0
  133.3120  116.8930   60.2660 C   0  0  0  0  0  0  0  0  0  0  0  0
  126.8160  123.2440   60.9030 N   0  0  0  0  0  0  0  0  0  0  0  0
  125.5933  123.5176   63.0529 H   0  0  0  0  0  0  0  0  0  0  0  0
  124.6994  124.9169   62.3678 H   0  0  0  0  0  0  0  0  0  0  0  0
  123.9492  123.2848   62.3678 H   0  0  0  0  0  0  0  0  0  0  0  0
  123.6795  123.9091   59.7856 H   0  0  0  0  0  0  0  0  0  0  0  0
  129.1241  122.2086   62.2423 H   0  0  0  0  0  0  0  0  0  0  0  0
  128.6799  120.7308   61.2465 H   0  0  0  0  0  0  0  0  0  0  0  0
  130.2400  119.4090   60.4140 H   0  0  0  0  0  0  0  0  0  0  0  0
  133.0081  119.6482   60.4090 H   0  0  0  0  0  0  0  0  0  0  0  0
  132.5081  118.9562   62.0319 H   0  0  0  0  0  0  0  0  0  0  0  0
  130.0425  117.8391   59.9459 H   0  0  0  0  0  0  0  0  0  0  0  0
  129.9092  115.5710   58.9141 H   0  0  0  0  0  0  0  0  0  0  0  0
  131.9557  114.1617   58.7500 H   0  0  0  0  0  0  0  0  0  0  0  0
  134.1381  115.0039   59.6090 H   0  0  0  0  0  0  0  0  0  0  0  0
  134.2754  117.2711   60.6386 H   0  0  0  0  0  0  0  0  0  0  0  0
  1  2  1  0
  2  3  2  0
  3  4  1  0
  4  5  1  0
  5  6  1  0
  5  7  1  0
  5  8  1  0
  4  9  2  0
  9 10  1  0
 10 11  3  0
  9 12  1  0
 12 13  1  0
 13 14  1  0
 14 15  1  0
 15 16  2  0
 15 17  1  0
 17 18  1  0
 18 19  1  0
 19 20  2  0
 20 21  1  0
 21 22  2  0
 22 23  1  0
 23 24  2  0
 12 25  2  0
 25  2  1  0
 24 19  1  0
  1 26  1  0
  1 27  1  0
  1 28  1  0
  3 29  1  0
 14 30  1  0
 14 31  1  0
 17 32  1  0
 18 33  1  0
 18 34  1  0
 20 35  1  0
 21 36  1  0
 22 37  1  0
 23 38  1  0
 24 39  1  0
M  END
>  <Binding energies>  (1) 
[-9.27]

>  <Ligand effiencies>  (1) 
[-0.3565384615384615]

>  <Interactions>  (1) 
["V-B:ASP:366:CG:8184, V-B:ASP:366:CB:8183, V-B:PRO:540:CA:9855, V-B:ALA:541:CB:9864, V-B:LEU:363:CA:8156, V-B:PRO:540:CB:9857, V-B:LEU:363:CD1:8160, V-B:ASN:362:CB:8147, V-B:PRO:540:CG:9858, V-B:ILE:538:CG2:9835, V-B:ILE:538:CB:9834, V-B:PRO:540:CD:9859, V-B:PRO:540:N:9856, V-A:LEU:475:CD2:4256, V-B:TYR:539:C:9839, V-B:TYR:539:CE1:9847, V-B:TYR:539:CD1:9845, V-B:PRO:540:C:9853, V-B:TYR:539:CG:9844, H-B:TYR:539:N:9842, V-B:TYR:531:CE2:9765, V-B:ARG:545:CZ:9898, V-B:TYR:531:CZ:9766, H-B:ALA:541:N:9863, H-B:TYR:539:O:9840, V-A:PRO:482:CG:4324, V-A:SER:385:CB:3406, V-A:SER:385:CA:3404, V-B:TYR:539:CB:9843, V-A:HIS:383:CG:3387, V-A:LEU:373:CD2:3278, V-A:HIS:383:CB:3386, V-A:LEU:373:CD1:3277, V-A:VAL:384:C:3394, V-B:VAL:344:CG1:7972, V-B:LEU:363:CB:8158, V-A:HIS:383:CD2:3389, V-B:LEU:363:CG:8159, V-A:HIS:383:CE1:3391, V-B:LEU:363:C:8154"]

$$$$
2h_Grossjean_2025
     RDKit          3D

 51 52  0  0  0  0  0  0  0  0999 V2000
  125.0560  130.0240   65.1520 C   0  0  0  0  0  0  0  0  0  0  0  0
  124.5010  130.6090   63.9800 O   0  0  0  0  0  0  0  0  0  0  0  0
  125.0270  130.2790   62.7430 C   0  0  0  0  0  0  0  0  0  0  0  0
  125.9700  129.2590   62.5390 C   0  0  0  0  0  0  0  0  0  0  0  0
  126.4480  128.9790   61.2610 C   0  0  0  0  0  0  0  0  0  0  0  0
  125.9970  129.7090   60.1600 C   0  0  0  0  0  0  0  0  0  0  0  0
  126.5210  129.3710   58.7660 C   0  0  0  0  0  0  0  0  0  0  0  0
  127.0480  130.5270   58.0400 N   0  0  0  0  0  0  0  0  0  0  0  0
  127.5150  130.4970   56.7790 C   0  0  0  0  0  0  0  0  0  0  0  0
  127.6230  129.4600   56.1230 O   0  0  0  0  0  0  0  0  0  0  0  0
  127.9060  131.8580   56.1860 C   0  0  0  0  0  0  0  0  0  0  0  0
  129.5820  132.4340   56.6170 S   0  0  0  0  0  0  0  0  0  0  0  0
  129.7260  132.3190   58.3870 C   0  0  0  0  0  0  0  0  0  0  0  0
  128.6100  132.7070   59.0510 N   0  0  0  0  0  0  0  0  0  0  0  0
  128.6170  132.6780   60.4020 C   0  0  0  0  0  0  0  0  0  0  0  0
  127.3380  133.1330   61.0780 C   0  0  0  0  0  0  0  0  0  0  0  0
  129.7220  132.2590   61.1400 C   0  0  0  0  0  0  0  0  0  0  0  0
  130.8790  131.8340   60.4690 C   0  0  0  0  0  0  0  0  0  0  0  0
  132.0890  131.3650   61.3020 C   0  0  0  0  0  0  0  0  0  0  0  0
  133.2220  131.7320   60.7040 F   0  0  0  0  0  0  0  0  0  0  0  0
  132.1000  131.8830   62.5320 F   0  0  0  0  0  0  0  0  0  0  0  0
  132.0740  130.0380   61.4250 F   0  0  0  0  0  0  0  0  0  0  0  0
  130.8850  131.8520   59.0510 C   0  0  0  0  0  0  0  0  0  0  0  0
  132.0460  131.3630   58.3030 C   0  0  0  0  0  0  0  0  0  0  0  0
  132.9630  130.9730   57.7150 N   0  0  0  0  0  0  0  0  0  0  0  0
  125.0730  130.7480   60.3520 C   0  0  0  0  0  0  0  0  0  0  0  0
  124.6270  131.4740   59.2740 O   0  0  0  0  0  0  0  0  0  0  0  0
  123.3270  131.1150   58.8230 C   0  0  0  0  0  0  0  0  0  0  0  0
  124.5770  131.0160   61.6400 C   0  0  0  0  0  0  0  0  0  0  0  0
  123.6580  132.0200   61.8290 O   0  0  0  0  0  0  0  0  0  0  0  0
  124.2190  133.2440   62.2810 C   0  0  0  0  0  0  0  0  0  0  0  0
  124.6110  130.4931   66.0419 H   0  0  0  0  0  0  0  0  0  0  0  0
  124.8415  128.9451   65.1601 H   0  0  0  0  0  0  0  0  0  0  0  0
  126.1446  130.1815   65.1601 H   0  0  0  0  0  0  0  0  0  0  0  0
  126.3349  128.6752   63.3969 H   0  0  0  0  0  0  0  0  0  0  0  0
  127.1866  128.1764   61.1183 H   0  0  0  0  0  0  0  0  0  0  0  0
  127.3261  128.6284   58.8681 H   0  0  0  0  0  0  0  0  0  0  0  0
  125.6684  128.9882   58.1859 H   0  0  0  0  0  0  0  0  0  0  0  0
  126.9590  131.4200   58.5020 H   0  0  0  0  0  0  0  0  0  0  0  0
  127.8419  131.7839   55.0904 H   0  0  0  0  0  0  0  0  0  0  0  0
  127.2087  132.5922   56.6157 H   0  0  0  0  0  0  0  0  0  0  0  0
  127.4643  133.0881   62.1698 H   0  0  0  0  0  0  0  0  0  0  0  0
  127.1120  134.1667   60.7773 H   0  0  0  0  0  0  0  0  0  0  0  0
  126.5100  132.4743   60.7773 H   0  0  0  0  0  0  0  0  0  0  0  0
  129.6878  132.2613   62.2395 H   0  0  0  0  0  0  0  0  0  0  0  0
  122.6748  130.9349   59.6903 H   0  0  0  0  0  0  0  0  0  0  0  0
  122.9112  131.9320   58.2149 H   0  0  0  0  0  0  0  0  0  0  0  0
  123.3894  130.2005   58.2149 H   0  0  0  0  0  0  0  0  0  0  0  0
  124.2263  133.2600   63.3809 H   0  0  0  0  0  0  0  0  0  0  0  0
  125.2491  133.3358   61.9061 H   0  0  0  0  0  0  0  0  0  0  0  0
  123.6161  134.0842   61.9061 H   0  0  0  0  0  0  0  0  0  0  0  0
  1  2  1  0
  2  3  1  0
  3  4  2  0
  4  5  1  0
  5  6  2  0
  6  7  1  0
  7  8  1  0
  8  9  1  0
  9 10  2  0
  9 11  1  0
 11 12  1  0
 12 13  1  0
 13 14  2  0
 14 15  1  0
 15 16  1  0
 15 17  2  0
 17 18  1  0
 18 19  1  0
 19 20  1  0
 19 21  1  0
 19 22  1  0
 18 23  2  0
 23 24  1  0
 24 25  3  0
  6 26  1  0
 26 27  1  0
 27 28  1  0
 26 29  2  0
 29 30  1  0
 30 31  1  0
 29  3  1  0
 23 13  1  0
  1 32  1  0
  1 33  1  0
  1 34  1  0
  4 35  1  0
  5 36  1  0
  7 37  1  0
  7 38  1  0
  8 39  1  0
 11 40  1  0
 11 41  1  0
 16 42  1  0
 16 43  1  0
 16 44  1  0
 17 45  1  0
 28 46  1  0
 28 47  1  0
 28 48  1  0
 31 49  1  0
 31 50  1  0
 31 51  1  0
M  END
>  <Binding energies>  (1) 
[-6.41]

>  <Ligand effiencies>  (1) 
[-0.2003125]

>  <Interactions>  (1) 
["V-A:MET:535:CE:4833, V-B:ASP:366:CG:8184, V-A:TYR:539:CE2:4874, V-A:ASP:366:CG:3210, H-A:TYR:539:OH:4876, V-A:PRO:540:CB:4883, V-A:PRO:540:CA:4881, H-A:TYR:531:OH:4793, H-A:TYR:539:N:4868, V-A:TYR:539:CZ:4875, V-B:ASP:366:CB:8183, V-A:TYR:539:CE1:4873, V-A:TYR:539:CD2:4872, V-A:PRO:540:C:4879, V-A:TYR:539:CD1:4871, V-B:ILE:369:CD1:8210, V-A:ALA:541:CB:4890, V-A:PRO:540:N:4882, V-A:TYR:539:C:4865, V-B:ILE:369:CG2:8208, V-B:ARG:545:CZ:9898, V-B:LEU:475:CD2:9230, V-B:GLY:454:CA:9020, H-B:GLY:454:N:9021, V-B:ILE:369:CB:8207, V-A:ARG:545:CZ:4924, V-A:GLU:543:CD:4906, V-A:ASN:362:CB:3173, V-B:ASP:366:CA:8181, V-B:ASP:366:C:8179, V-A:ALA:541:C:4886, V-A:ALA:541:CA:4888"]

$$$$
2i_Grossjean_2025
     RDKit          3D

 32 33  0  0  0  0  0  0  0  0999 V2000
  132.8260  131.1290   62.2640 C   0  0  0  0  0  0  0  0  0  0  0  0
  132.0730  131.5130   61.0040 C   0  0  0  0  0  0  0  0  0  0  0  0
  132.6920  131.5180   59.7570 C   0  0  0  0  0  0  0  0  0  0  0  0
  131.9520  131.8790   58.6220 C   0  0  0  0  0  0  0  0  0  0  0  0
  132.6520  131.8790   57.2490 C   0  0  0  0  0  0  0  0  0  0  0  0
  131.9490  131.1530   56.3780 F   0  0  0  0  0  0  0  0  0  0  0  0
  132.7560  133.1260   56.7890 F   0  0  0  0  0  0  0  0  0  0  0  0
  133.8830  131.3650   57.2980 F   0  0  0  0  0  0  0  0  0  0  0  0
  130.5870  132.2290   58.7860 C   0  0  0  0  0  0  0  0  0  0  0  0
  129.7670  132.6130   57.6330 C   0  0  0  0  0  0  0  0  0  0  0  0
  129.1180  132.9170   56.7230 N   0  0  0  0  0  0  0  0  0  0  0  0
  130.0400  132.2000   60.0890 C   0  0  0  0  0  0  0  0  0  0  0  0
  128.3380  132.6290   60.4180 S   0  0  0  0  0  0  0  0  0  0  0  0
  128.2140  133.1560   62.1540 C   0  0  0  0  0  0  0  0  0  0  0  0
  127.0340  132.5000   62.8750 C   0  0  0  0  0  0  0  0  0  0  0  0
  125.9120  132.9970   62.7610 O   0  0  0  0  0  0  0  0  0  0  0  0
  127.3310  131.4140   63.6210 N   0  0  0  0  0  0  0  0  0  0  0  0
  126.4460  130.6630   64.3760 C   0  0  0  0  0  0  0  0  0  0  0  0
  126.6940  129.6950   65.3610 C   0  0  0  0  0  0  0  0  0  0  0  0
  125.4460  129.2850   65.7700 C   0  0  0  0  0  0  0  0  0  0  0  0
  124.5040  129.9710   65.0790 O   0  0  0  0  0  0  0  0  0  0  0  0
  125.1540  130.8440   64.2040 N   0  0  0  0  0  0  0  0  0  0  0  0
  130.7740  131.8460   61.1750 N   0  0  0  0  0  0  0  0  0  0  0  0
  132.2407  131.4275   63.1463 H   0  0  0  0  0  0  0  0  0  0  0  0
  132.9836  130.0405   62.2796 H   0  0  0  0  0  0  0  0  0  0  0  0
  133.7996  131.6407   62.2796 H   0  0  0  0  0  0  0  0  0  0  0  0
  133.7524  131.2411   59.6629 H   0  0  0  0  0  0  0  0  0  0  0  0
  129.1436  132.8822   62.6745 H   0  0  0  0  0  0  0  0  0  0  0  0
  128.0539  134.2442   62.1657 H   0  0  0  0  0  0  0  0  0  0  0  0
  128.2970  131.1270   63.6680 H   0  0  0  0  0  0  0  0  0  0  0  0
  127.6700  129.3421   65.7255 H   0  0  0  0  0  0  0  0  0  0  0  0
  125.2450  128.5217   66.5361 H   0  0  0  0  0  0  0  0  0  0  0  0
  1  2  1  0
  2  3  2  0
  3  4  1  0
  4  5  1  0
  5  6  1  0
  5  7  1  0
  5  8  1  0
  4  9  2  0
  9 10  1  0
 10 11  3  0
  9 12  1  0
 12 13  1  0
 13 14  1  0
 14 15  1  0
 15 16  2  0
 15 17  1  0
 17 18  1  0
 18 19  1  0
 19 20  2  0
 20 21  1  0
 21 22  1  0
 12 23  2  0
 23  2  1  0
 22 18  2  0
  1 24  1  0
  1 25  1  0
  1 26  1  0
  3 27  1  0
 14 28  1  0
 14 29  1  0
 17 30  1  0
 19 31  1  0
 20 32  1  0
M  END
>  <Binding energies>  (1) 
[-7.97]

>  <Ligand effiencies>  (1) 
[-0.33208333333333334]

>  <Interactions>  (1) 
["V-A:ASP:366:CG:3210, V-A:TYR:531:CZ:4792, V-A:LEU:363:CA:3182, V-A:TYR:531:CE2:4791, H-A:ALA:541:N:4889, V-A:PRO:540:CB:4883, V-A:PRO:540:CA:4881, V-A:ASP:366:CB:3209, V-A:LEU:363:CB:3184, V-A:LEU:363:CD1:3186, H-A:TYR:539:N:4868, V-A:TYR:539:CD1:4871, V-A:ALA:541:CB:4890, V-A:PRO:540:N:4882, V-A:TYR:539:C:4865, V-B:ARG:545:CZ:9898, V-A:ILE:538:CB:4860, V-A:PRO:540:CD:4885, V-B:LEU:475:CD2:9230, V-A:ILE:538:CG2:4861, H-B:TYR:484:OH:9319, H-B:GLY:454:N:9021, V-A:ARG:545:CZ:4924, V-A:GLU:543:CD:4906, H-A:GLU:543:OE1:4907, H-B:ARG:545:NE:9896, V-B:ARG:545:CD:9895, V-A:PRO:540:CG:4884, V-B:ARG:545:CG:9894, V-A:ASN:362:CB:3173, V-A:LEU:363:CG:3185"]

$$$$
2j_Grossjean_2025
     RDKit          3D

 32 33  0  0  0  0  0  0  0  0999 V2000
  132.5240  131.1310   62.5050 C   0  0  0  0  0  0  0  0  0  0  0  0
  131.8970  131.5180   61.1780 C   0  0  0  0  0  0  0  0  0  0  0  0
  132.6310  131.5100   59.9950 C   0  0  0  0  0  0  0  0  0  0  0  0
  132.0060  131.8720   58.7920 C   0  0  0  0  0  0  0  0  0  0  0  0
  132.8320  131.8570   57.4920 C   0  0  0  0  0  0  0  0  0  0  0  0
  134.0370  131.3350   57.7240 F   0  0  0  0  0  0  0  0  0  0  0  0
  132.2140  131.1220   56.5660 F   0  0  0  0  0  0  0  0  0  0  0  0
  133.0130  133.0770   56.9820 F   0  0  0  0  0  0  0  0  0  0  0  0
  130.6370  132.2390   58.8250 C   0  0  0  0  0  0  0  0  0  0  0  0
  129.9330  132.6280   57.5990 C   0  0  0  0  0  0  0  0  0  0  0  0
  129.3770  132.9330   56.6310 N   0  0  0  0  0  0  0  0  0  0  0  0
  129.9680  132.2200   60.0730 C   0  0  0  0  0  0  0  0  0  0  0  0
  128.2440  132.6610   60.2330 S   0  0  0  0  0  0  0  0  0  0  0  0
  128.0670  133.7810   61.6640 C   0  0  0  0  0  0  0  0  0  0  0  0
  126.9020  134.7770   61.5640 C   0  0  0  0  0  0  0  0  0  0  0  0
  125.7340  134.3880   61.6340 O   0  0  0  0  0  0  0  0  0  0  0  0
  127.2720  136.0650   61.3870 N   0  0  0  0  0  0  0  0  0  0  0  0
  126.4290  137.1610   61.2680 C   0  0  0  0  0  0  0  0  0  0  0  0
  125.2840  137.3690   61.8820 N   0  0  0  0  0  0  0  0  0  0  0  0
  124.7480  138.5220   61.5330 C   0  0  0  0  0  0  0  0  0  0  0  0
  125.4650  139.2810   60.6130 C   0  0  0  0  0  0  0  0  0  0  0  0
  126.9190  138.4270   60.1890 S   0  0  0  0  0  0  0  0  0  0  0  0
  130.5910  131.8640   61.2250 N   0  0  0  0  0  0  0  0  0  0  0  0
  131.9039  131.5137   63.3290 H   0  0  0  0  0  0  0  0  0  0  0  0
  132.5895  130.0351   62.5738 H   0  0  0  0  0  0  0  0  0  0  0  0
  133.5330  131.5637   62.5738 H   0  0  0  0  0  0  0  0  0  0  0  0
  133.6926  131.2221   60.0033 H   0  0  0  0  0  0  0  0  0  0  0  0
  127.9146  133.1657   62.5630 H   0  0  0  0  0  0  0  0  0  0  0  0
  128.9865  134.3836   61.7003 H   0  0  0  0  0  0  0  0  0  0  0  0
  128.2610  136.2630   61.3340 H   0  0  0  0  0  0  0  0  0  0  0  0
  123.7878  138.8648   61.9460 H   0  0  0  0  0  0  0  0  0  0  0  0
  125.1613  140.2618   60.2182 H   0  0  0  0  0  0  0  0  0  0  0  0
  1  2  1  0
  2  3  2  0
  3  4  1  0
  4  5  1  0
  5  6  1  0
  5  7  1  0
  5  8  1  0
  4  9  2  0
  9 10  1  0
 10 11  3  0
  9 12  1  0
 12 13  1  0
 13 14  1  0
 14 15  1  0
 15 16  2  0
 15 17  1  0
 17 18  1  0
 18 19  2  0
 19 20  1  0
 20 21  2  0
 21 22  1  0
 12 23  2  0
 23  2  1  0
 22 18  1  0
  1 24  1  0
  1 25  1  0
  1 26  1  0
  3 27  1  0
 14 28  1  0
 14 29  1  0
 17 30  1  0
 20 31  1  0
 21 32  1  0
M  END
>  <Binding energies>  (1) 
[-8.19]

>  <Ligand effiencies>  (1) 
[-0.34125]

>  <Interactions>  (1) 
["V-A:ASP:366:CG:3210, V-A:TYR:531:CZ:4792, V-A:LEU:363:CA:3182, V-A:TYR:531:CE2:4791, H-A:ALA:541:N:4889, V-A:PRO:540:CB:4883, V-A:PRO:540:CA:4881, V-A:ASP:366:CB:3209, V-A:LEU:363:CB:3184, V-A:LEU:363:CD1:3186, H-A:TYR:539:N:4868, V-A:TYR:539:CE1:4873, V-A:PRO:540:C:4879, V-A:TYR:539:CD1:4871, V-A:ALA:541:CB:4890, V-A:PRO:540:N:4882, V-A:TYR:539:C:4865, V-A:TYR:539:CG:4870, V-A:ILE:538:CB:4860, V-B:PRO:482:CB:9297, V-B:SER:385:CA:8378, V-A:PRO:540:CD:4885, V-B:PRO:482:CG:9298, V-B:LEU:475:CD2:9230, V-B:SER:385:CB:8380, V-B:LEU:373:CD1:8251, V-A:ARG:545:CZ:4924, V-A:GLU:543:CD:4906, V-A:PRO:540:CG:4884, V-A:ASN:362:CB:3173, H-A:TYR:539:O:4866, V-A:VAL:344:CG1:2998, V-A:TYR:539:CB:4869, V-A:LEU:363:C:3180, V-A:LEU:363:CG:3185"]

$$$$
2k_Grossjean_2025
     RDKit          3D

 50 50  0  0  0  0  0  0  0  0999 V2000
  129.7230  127.1540   56.0330 C   0  0  0  0  0  0  0  0  0  0  0  0
  130.6580  126.2560   55.4540 O   0  0  0  0  0  0  0  0  0  0  0  0
  130.5480  124.9270   55.9490 C   0  0  0  0  0  0  0  0  0  0  0  0
  129.8270  124.9370   57.3030 C   0  0  0  0  0  0  0  0  0  0  0  0
  130.7930  124.8600   58.3420 O   0  0  0  0  0  0  0  0  0  0  0  0
  131.8250  125.8350   58.2550 C   0  0  0  0  0  0  0  0  0  0  0  0
  133.1190  125.1340   57.8230 C   0  0  0  0  0  0  0  0  0  0  0  0
  133.1880  123.8910   58.5050 O   0  0  0  0  0  0  0  0  0  0  0  0
  134.0980  123.8480   59.5940 C   0  0  0  0  0  0  0  0  0  0  0  0
  133.3050  123.9430   60.9110 C   0  0  0  0  0  0  0  0  0  0  0  0
  131.9580  123.3760   60.8090 N   0  0  0  0  0  0  0  0  0  0  0  0
  131.3490  122.6290   61.7500 C   0  0  0  0  0  0  0  0  0  0  0  0
  131.8610  122.3600   62.8380 O   0  0  0  0  0  0  0  0  0  0  0  0
  129.9560  122.0990   61.3810 C   0  0  0  0  0  0  0  0  0  0  0  0
  129.3890  122.4960   59.6910 S   0  0  0  0  0  0  0  0  0  0  0  0
  127.6550  122.9300   59.7320 C   0  0  0  0  0  0  0  0  0  0  0  0
  127.1480  123.2120   60.9600 N   0  0  0  0  0  0  0  0  0  0  0  0
  125.8420  123.5430   61.0660 C   0  0  0  0  0  0  0  0  0  0  0  0
  125.3490  123.8320   62.4700 C   0  0  0  0  0  0  0  0  0  0  0  0
  124.9940  123.6200   59.9640 C   0  0  0  0  0  0  0  0  0  0  0  0
  125.4990  123.3420   58.6850 C   0  0  0  0  0  0  0  0  0  0  0  0
  124.5480  123.4370   57.4760 C   0  0  0  0  0  0  0  0  0  0  0  0
  123.3800  124.0040   57.7810 F   0  0  0  0  0  0  0  0  0  0  0  0
  125.1090  124.1670   56.5100 F   0  0  0  0  0  0  0  0  0  0  0  0
  124.2900  122.2180   57.0010 F   0  0  0  0  0  0  0  0  0  0  0  0
  126.8660  122.9840   58.5590 C   0  0  0  0  0  0  0  0  0  0  0  0
  127.4450  122.6790   57.2470 C   0  0  0  0  0  0  0  0  0  0  0  0
  127.9020  122.4390   56.2110 N   0  0  0  0  0  0  0  0  0  0  0  0
  129.7866  127.0929   57.1295 H   0  0  0  0  0  0  0  0  0  0  0  0
  129.9512  128.1802   55.7091 H   0  0  0  0  0  0  0  0  0  0  0  0
  128.7069  126.8846   55.7091 H   0  0  0  0  0  0  0  0  0  0  0  0
  129.9757  124.3170   55.2346 H   0  0  0  0  0  0  0  0  0  0  0  0
  131.5543  124.5012   56.0756 H   0  0  0  0  0  0  0  0  0  0  0  0
  129.2482  125.8667   57.4057 H   0  0  0  0  0  0  0  0  0  0  0  0
  129.1436  124.0774   57.3665 H   0  0  0  0  0  0  0  0  0  0  0  0
  131.5516  126.6000   57.5134 H   0  0  0  0  0  0  0  0  0  0  0  0
  131.9672  126.3225   59.2307 H   0  0  0  0  0  0  0  0  0  0  0  0
  133.1077  124.9643   56.7362 H   0  0  0  0  0  0  0  0  0  0  0  0
  133.9928  125.7556   58.0681 H   0  0  0  0  0  0  0  0  0  0  0  0
  134.6598  122.9026   59.5686 H   0  0  0  0  0  0  0  0  0  0  0  0
  134.8043  124.6883   59.5228 H   0  0  0  0  0  0  0  0  0  0  0  0
  133.8562  123.3992   61.6923 H   0  0  0  0  0  0  0  0  0  0  0  0
  133.1958  125.0103   61.1536 H   0  0  0  0  0  0  0  0  0  0  0  0
  131.4600  123.5630   59.9510 H   0  0  0  0  0  0  0  0  0  0  0  0
  129.9709  121.0041   61.4855 H   0  0  0  0  0  0  0  0  0  0  0  0
  129.2515  122.5986   62.0622 H   0  0  0  0  0  0  0  0  0  0  0  0
  126.0584  123.4161   63.2006 H   0  0  0  0  0  0  0  0  0  0  0  0
  125.2696  124.9196   62.6141 H   0  0  0  0  0  0  0  0  0  0  0  0
  124.3612  123.3700   62.6141 H   0  0  0  0  0  0  0  0  0  0  0  0
  123.9374  123.8964   60.0953 H   0  0  0  0  0  0  0  0  0  0  0  0
  1  2  1  0
  2  3  1  0
  3  4  1  0
  4  5  1  0
  5  6  1  0
  6  7  1  0
  7  8  1  0
  8  9  1  0
  9 10  1  0
 10 11  1  0
 11 12  1  0
 12 13  2  0
 12 14  1  0
 14 15  1  0
 15 16  1  0
 16 17  2  0
 17 18  1  0
 18 19  1  0
 18 20  2  0
 20 21  1  0
 21 22  1  0
 22 23  1  0
 22 24  1  0
 22 25  1  0
 21 26  2  0
 26 27  1  0
 27 28  3  0
 26 16  1  0
  1 29  1  0
  1 30  1  0
  1 31  1  0
  3 32  1  0
  3 33  1  0
  4 34  1  0
  4 35  1  0
  6 36  1  0
  6 37  1  0
  7 38  1  0
  7 39  1  0
  9 40  1  0
  9 41  1  0
 10 42  1  0
 10 43  1  0
 11 44  1  0
 14 45  1  0
 14 46  1  0
 19 47  1  0
 19 48  1  0
 19 49  1  0
 20 50  1  0
M  END
>  <Binding energies>  (1) 
[-6.33]

>  <Ligand effiencies>  (1) 
[-0.21827586206896551]

>  <Interactions>  (1) 
["V-A:MET:535:CE:4833, V-B:ASP:366:CG:8184, V-A:ASP:366:CG:3210, V-A:ASP:366:CB:3209, H-A:TYR:531:OH:4793, V-B:ASP:366:CB:8183, V-B:PRO:540:CA:9855, V-B:ALA:541:CB:9864, V-B:LEU:363:CA:8156, V-B:PRO:540:CB:9857, V-B:LEU:363:CD1:8160, V-B:MET:535:CE:9807, V-A:ASP:366:CA:3207, V-B:ASN:362:CB:8147, V-B:PRO:540:CG:9858, V-B:ILE:538:CG2:9835, V-B:ILE:538:CB:9834, V-B:PRO:540:CD:9859, V-A:ASP:366:C:3205, V-B:PRO:540:N:9856, V-B:GLU:543:CD:9880, V-B:TYR:539:C:9839, V-B:TYR:539:CE1:9847, V-B:PRO:540:C:9853, V-A:ILE:369:CB:3233, H-B:TYR:539:N:9842, V-B:TYR:539:CZ:9849, V-A:ILE:369:CD1:3236, V-B:TYR:531:CE2:9765, V-A:ILE:369:CG2:3234, V-B:ARG:545:CZ:9898, H-B:TYR:539:OH:9850, V-B:TYR:531:CZ:9766, H-B:ALA:541:N:9863, V-B:LEU:363:CB:8158, V-B:LEU:363:CG:8159, V-B:LEU:363:C:8154"]

$$$$
3aa_Grossjean_2025
     RDKit          3D

 52 54  0  0  0  0  0  0  0  0999 V2000
  133.3530  131.6930   57.5940 C   0  0  0  0  0  0  0  0  0  0  0  0
  132.5260  132.3310   56.4740 C   0  0  0  0  0  0  0  0  0  0  0  0
  131.4980  133.1340   57.0410 O   0  0  0  0  0  0  0  0  0  0  0  0
  130.2190  132.6840   57.1120 C   0  0  0  0  0  0  0  0  0  0  0  0
  129.3370  133.0130   56.3140 O   0  0  0  0  0  0  0  0  0  0  0  0
  129.9790  131.7560   58.2690 C   0  0  0  0  0  0  0  0  0  0  0  0
  130.1670  130.3700   58.1620 C   0  0  0  0  0  0  0  0  0  0  0  0
  129.9400  129.5400   59.2560 C   0  0  0  0  0  0  0  0  0  0  0  0
  129.5280  130.0750   60.4770 C   0  0  0  0  0  0  0  0  0  0  0  0
  129.3310  129.1480   61.5210 N   0  0  0  0  0  0  0  0  0  0  0  0
  128.5970  128.0130   61.5360 C   0  0  0  0  0  0  0  0  0  0  0  0
  127.9230  127.5860   60.5980 O   0  0  0  0  0  0  0  0  0  0  0  0
  128.6230  127.2310   62.8490 C   0  0  0  0  0  0  0  0  0  0  0  0
  130.2960  126.6460   63.2550 S   0  0  0  0  0  0  0  0  0  0  0  0
  130.6030  125.2070   62.2550 C   0  0  0  0  0  0  0  0  0  0  0  0
  129.5700  124.8810   61.4420 N   0  0  0  0  0  0  0  0  0  0  0  0
  129.6710  123.8010   60.6250 C   0  0  0  0  0  0  0  0  0  0  0  0
  128.4920  123.5140   59.7450 C   0  0  0  0  0  0  0  0  0  0  0  0
  127.1970  123.8860   60.1410 C   0  0  0  0  0  0  0  0  0  0  0  0
  126.0970  123.6240   59.3280 C   0  0  0  0  0  0  0  0  0  0  0  0
  126.2780  122.9850   58.1070 C   0  0  0  0  0  0  0  0  0  0  0  0
  127.5500  122.6080   57.6910 C   0  0  0  0  0  0  0  0  0  0  0  0
  128.6490  122.8740   58.5040 C   0  0  0  0  0  0  0  0  0  0  0  0
  130.8320  123.0220   60.6050 C   0  0  0  0  0  0  0  0  0  0  0  0
  131.9080  123.3290   61.4520 C   0  0  0  0  0  0  0  0  0  0  0  0
  133.1650  122.4400   61.4080 C   0  0  0  0  0  0  0  0  0  0  0  0
  133.0740  121.4570   60.5110 F   0  0  0  0  0  0  0  0  0  0  0  0
  134.2350  123.1700   61.0910 F   0  0  0  0  0  0  0  0  0  0  0  0
  133.3650  121.8780   62.6010 F   0  0  0  0  0  0  0  0  0  0  0  0
  131.7910  124.4470   62.3130 C   0  0  0  0  0  0  0  0  0  0  0  0
  132.8600  124.7820   63.2590 C   0  0  0  0  0  0  0  0  0  0  0  0
  133.7040  125.0450   64.0070 N   0  0  0  0  0  0  0  0  0  0  0  0
  129.3250  131.4590   60.5880 C   0  0  0  0  0  0  0  0  0  0  0  0
  129.5510  132.2870   59.4930 C   0  0  0  0  0  0  0  0  0  0  0  0
  132.9505  132.0035   58.5695 H   0  0  0  0  0  0  0  0  0  0  0  0
  133.3027  130.5975   57.5085 H   0  0  0  0  0  0  0  0  0  0  0  0
  134.3999  132.0197   57.5085 H   0  0  0  0  0  0  0  0  0  0  0  0
  133.1782  132.9583   55.8486 H   0  0  0  0  0  0  0  0  0  0  0  0
  132.0747  131.5407   55.8562 H   0  0  0  0  0  0  0  0  0  0  0  0
  130.4963  129.9359   57.2064 H   0  0  0  0  0  0  0  0  0  0  0  0
  130.0865  128.4543   59.1573 H   0  0  0  0  0  0  0  0  0  0  0  0
  129.7700  129.4070   62.3930 H   0  0  0  0  0  0  0  0  0  0  0  0
  128.2681  127.8845   63.6595 H   0  0  0  0  0  0  0  0  0  0  0  0
  127.9719  126.3516   62.7356 H   0  0  0  0  0  0  0  0  0  0  0  0
  127.0494  124.3914   61.1068 H   0  0  0  0  0  0  0  0  0  0  0  0
  125.0885  123.9217   59.6510 H   0  0  0  0  0  0  0  0  0  0  0  0
  125.4091  122.7762   57.4656 H   0  0  0  0  0  0  0  0  0  0  0  0
  127.6877  122.1019   56.7241 H   0  0  0  0  0  0  0  0  0  0  0  0
  129.6546  122.5788   58.1698 H   0  0  0  0  0  0  0  0  0  0  0  0
  130.9024  122.1633   59.9212 H   0  0  0  0  0  0  0  0  0  0  0  0
  128.9868  131.8898   61.5419 H   0  0  0  0  0  0  0  0  0  0  0  0
  129.3918  133.3712   59.5893 H   0  0  0  0  0  0  0  0  0  0  0  0
  1  2  1  0
  2  3  1  0
  3  4  1  0
  4  5  2  0
  4  6  1  0
  6  7  2  0
  7  8  1  0
  8  9  2  0
  9 10  1  0
 10 11  1  0
 11 12  2  0
 11 13  1  0
 13 14  1  0
 14 15  1  0
 15 16  2  0
 16 17  1  0
 17 18  1  0
 18 19  2  0
 19 20  1  0
 20 21  2  0
 21 22  1  0
 22 23  2  0
 17 24  2  0
 24 25  1  0
 25 26  1  0
 26 27  1  0
 26 28  1  0
 26 29  1  0
 25 30  2  0
 30 31  1  0
 31 32  3  0
  9 33  1  0
 33 34  2  0
 34  6  1  0
 30 15  1  0
 23 18  1  0
  1 35  1  0
  1 36  1  0
  1 37  1  0
  2 38  1  0
  2 39  1  0
  7 40  1  0
  8 41  1  0
 10 42  1  0
 13 43  1  0
 13 44  1  0
 19 45  1  0
 20 46  1  0
 21 47  1  0
 22 48  1  0
 23 49  1  0
 24 50  1  0
 33 51  1  0
 34 52  1  0
M  END
>  <Binding energies>  (1) 
[-8.21]

>  <Ligand effiencies>  (1) 
[-0.2345714285714286]

>  <Interactions>  (1) 
["V-A:LEU:363:CA:3182, V-A:TYR:531:CE2:4791, V-A:PRO:540:CB:4883, V-A:PRO:540:CA:4881, V-A:LEU:363:CB:3184, V-A:LEU:363:CD1:3186, H-A:TYR:539:N:4868, V-B:PRO:540:CA:9855, V-B:PRO:540:CB:9857, V-B:PRO:540:CD:9859, V-B:PRO:540:N:9856, V-A:LEU:475:CD2:4256, V-B:GLU:543:CD:9880, V-B:TYR:539:C:9839, V-B:TYR:539:CE1:9847, V-B:TYR:539:CD1:9845, V-A:PRO:540:N:4882, V-A:TYR:539:C:4865, V-A:ILE:369:CB:3233, V-A:ILE:369:CD1:3236, V-A:ILE:369:CG1:3235, V-A:ILE:369:CG2:3234, V-A:ILE:538:CB:4860, V-A:PRO:540:CD:4885, V-A:ILE:538:CG2:4861, H-A:GLY:454:N:4047, V-A:GLY:454:CA:4046, H-A:ARG:545:NH2:4926, V-A:ARG:545:CZ:4924, V-B:TYR:539:CA:9841, H-A:GLU:543:OE2:4908, H-A:GLU:543:OE1:4907, H-A:ARG:545:NE:4922"]

$$$$
3ab_Grossjean_2025
     RDKit          3D

 49 51  0  0  0  0  0  0  0  0999 V2000
  133.8140  124.4240   58.6610 C   0  0  0  0  0  0  0  0  0  0  0  0
  132.5520  124.5850   58.0270 O   0  0  0  0  0  0  0  0  0  0  0  0
  132.3790  125.4980   57.0370 C   0  0  0  0  0  0  0  0  0  0  0  0
  133.1350  125.6020   56.0680 O   0  0  0  0  0  0  0  0  0  0  0  0
  131.1710  126.3670   57.2380 C   0  0  0  0  0  0  0  0  0  0  0  0
  131.2120  127.5250   58.0290 C   0  0  0  0  0  0  0  0  0  0  0  0
  130.0770  128.3130   58.1960 C   0  0  0  0  0  0  0  0  0  0  0  0
  128.8730  127.9530   57.5710 C   0  0  0  0  0  0  0  0  0  0  0  0
  127.6680  128.6760   57.6660 N   0  0  0  0  0  0  0  0  0  0  0  0
  126.8030  129.0480   56.6990 C   0  0  0  0  0  0  0  0  0  0  0  0
  126.9310  128.8160   55.4960 O   0  0  0  0  0  0  0  0  0  0  0  0
  125.5740  129.8220   57.1810 C   0  0  0  0  0  0  0  0  0  0  0  0
  125.4800  129.8960   58.9950 S   0  0  0  0  0  0  0  0  0  0  0  0
  126.6530  131.1190   59.5410 C   0  0  0  0  0  0  0  0  0  0  0  0
  127.8010  131.1270   58.8230 N   0  0  0  0  0  0  0  0  0  0  0  0
  128.7830  132.0150   59.1280 C   0  0  0  0  0  0  0  0  0  0  0  0
  130.0210  131.9600   58.2830 C   0  0  0  0  0  0  0  0  0  0  0  0
  131.2520  131.5740   58.8370 C   0  0  0  0  0  0  0  0  0  0  0  0
  132.4050  131.5210   58.0580 C   0  0  0  0  0  0  0  0  0  0  0  0
  132.3420  131.8560   56.7090 C   0  0  0  0  0  0  0  0  0  0  0  0
  131.1360  132.2450   56.1360 C   0  0  0  0  0  0  0  0  0  0  0  0
  129.9860  132.2970   56.9190 C   0  0  0  0  0  0  0  0  0  0  0  0
  128.6330  132.9110   60.1920 C   0  0  0  0  0  0  0  0  0  0  0  0
  127.4610  132.9090   60.9620 C   0  0  0  0  0  0  0  0  0  0  0  0
  127.3380  133.9090   62.1290 C   0  0  0  0  0  0  0  0  0  0  0  0
  128.2530  134.8790   62.0770 F   0  0  0  0  0  0  0  0  0  0  0  0
  126.1380  134.4910   62.1110 F   0  0  0  0  0  0  0  0  0  0  0  0
  127.4920  133.2720   63.2910 F   0  0  0  0  0  0  0  0  0  0  0  0
  126.4380  131.9830   60.6390 C   0  0  0  0  0  0  0  0  0  0  0  0
  125.2190  131.9000   61.4470 C   0  0  0  0  0  0  0  0  0  0  0  0
  124.2570  131.8380   62.0860 N   0  0  0  0  0  0  0  0  0  0  0  0
  128.8300  126.8050   56.7790 C   0  0  0  0  0  0  0  0  0  0  0  0
  129.9660  126.0180   56.6150 C   0  0  0  0  0  0  0  0  0  0  0  0
  133.6807  124.4410   59.7528 H   0  0  0  0  0  0  0  0  0  0  0  0
  134.2553  123.4623   58.3604 H   0  0  0  0  0  0  0  0  0  0  0  0
  134.4826  125.2441   58.3604 H   0  0  0  0  0  0  0  0  0  0  0  0
  132.1517  127.8134   58.5227 H   0  0  0  0  0  0  0  0  0  0  0  0
  130.1236  129.2188   58.8184 H   0  0  0  0  0  0  0  0  0  0  0  0
  127.4490  128.9870   58.6010 H   0  0  0  0  0  0  0  0  0  0  0  0
  125.6235  130.8476   56.7863 H   0  0  0  0  0  0  0  0  0  0  0  0
  124.6788  129.2968   56.8167 H   0  0  0  0  0  0  0  0  0  0  0  0
  131.3065  131.3093   59.9033 H   0  0  0  0  0  0  0  0  0  0  0  0
  133.3615  131.2156   58.5072 H   0  0  0  0  0  0  0  0  0  0  0  0
  133.2516  131.8129   56.0920 H   0  0  0  0  0  0  0  0  0  0  0  0
  131.0909  132.5103   55.0694 H   0  0  0  0  0  0  0  0  0  0  0  0
  129.0344  132.6069   56.4626 H   0  0  0  0  0  0  0  0  0  0  0  0
  129.4395  133.6215   60.4260 H   0  0  0  0  0  0  0  0  0  0  0  0
  127.8916  126.5201   56.2808 H   0  0  0  0  0  0  0  0  0  0  0  0
  129.9172  125.1138   55.9905 H   0  0  0  0  0  0  0  0  0  0  0  0
  1  2  1  0
  2  3  1  0
  3  4  2  0
  3  5  1  0
  5  6  2  0
  6  7  1  0
  7  8  2  0
  8  9  1  0
  9 10  1  0
 10 11  2  0
 10 12  1  0
 12 13  1  0
 13 14  1  0
 14 15  2  0
 15 16  1  0
 16 17  1  0
 17 18  2  0
 18 19  1  0
 19 20  2  0
 20 21  1  0
 21 22  2  0
 16 23  2  0
 23 24  1  0
 24 25  1  0
 25 26  1  0
 25 27  1  0
 25 28  1  0
 24 29  2  0
 29 30  1  0
 30 31  3  0
  8 32  1  0
 32 33  2  0
 33  5  1  0
 29 14  1  0
 22 17  1  0
  1 34  1  0
  1 35  1  0
  1 36  1  0
  6 37  1  0
  7 38  1  0
  9 39  1  0
 12 40  1  0
 12 41  1  0
 18 42  1  0
 19 43  1  0
 20 44  1  0
 21 45  1  0
 22 46  1  0
 23 47  1  0
 32 48  1  0
 33 49  1  0
M  END
>  <Binding energies>  (1) 
[-7.77]

>  <Ligand effiencies>  (1) 
[-0.22852941176470587]

>  <Interactions>  (1) 
["V-A:MET:535:CE:4833, V-A:ASP:366:CG:3210, V-A:TYR:531:CE2:4791, V-A:PRO:540:CB:4883, V-A:PRO:540:CA:4881, V-A:ASP:366:CB:3209, H-A:TYR:531:OH:4793, V-A:ILE:538:CA:4858, V-A:LEU:363:CD1:3186, V-A:TYR:539:CZ:4875, V-A:TYR:539:CE1:4873, H-B:TYR:531:OH:9767, V-B:MET:535:CE:9807, V-A:ASP:366:CA:3207, V-A:ASP:366:C:3205, V-B:TYR:539:CE1:9847, V-A:PRO:540:C:4879, V-A:TYR:539:CD1:4871, V-A:ALA:541:CB:4890, V-A:PRO:540:N:4882, V-A:TYR:539:C:4865, V-A:ILE:369:CB:3233, V-B:TYR:539:CZ:9849, V-A:ILE:369:CG2:3234, H-B:TYR:539:OH:9850, V-A:ILE:538:CB:4860, V-B:LEU:475:CD2:9230, V-A:ILE:538:CG2:4861, V-A:ALA:541:CA:4888"]

$$$$
3ac_Grossjean_2025
     RDKit          3D

 47 49  0  0  0  0  0  0  0  0999 V2000
  133.0390  125.0960   64.2670 C   0  0  0  0  0  0  0  0  0  0  0  0
  133.8150  124.7930   63.1120 O   0  0  0  0  0  0  0  0  0  0  0  0
  133.1940  124.7350   61.8780 C   0  0  0  0  0  0  0  0  0  0  0  0
  132.0890  125.5670   61.6980 C   0  0  0  0  0  0  0  0  0  0  0  0
  131.4020  125.5800   60.4880 C   0  0  0  0  0  0  0  0  0  0  0  0
  131.8070  124.7520   59.4400 C   0  0  0  0  0  0  0  0  0  0  0  0
  131.0630  124.8500   58.2490 N   0  0  0  0  0  0  0  0  0  0  0  0
  131.4840  125.1750   57.0070 C   0  0  0  0  0  0  0  0  0  0  0  0
  132.6500  125.4090   56.6900 O   0  0  0  0  0  0  0  0  0  0  0  0
  130.3920  125.2440   55.9390 C   0  0  0  0  0  0  0  0  0  0  0  0
  129.4880  123.6740   55.7770 S   0  0  0  0  0  0  0  0  0  0  0  0
  128.3730  123.5110   57.1580 C   0  0  0  0  0  0  0  0  0  0  0  0
  129.0030  123.2210   58.3220 N   0  0  0  0  0  0  0  0  0  0  0  0
  128.2830  123.0740   59.4640 C   0  0  0  0  0  0  0  0  0  0  0  0
  129.0570  122.7460   60.7060 C   0  0  0  0  0  0  0  0  0  0  0  0
  129.8230  121.5720   60.7870 C   0  0  0  0  0  0  0  0  0  0  0  0
  130.5480  121.2650   61.9350 C   0  0  0  0  0  0  0  0  0  0  0  0
  130.5150  122.1310   63.0230 C   0  0  0  0  0  0  0  0  0  0  0  0
  129.7610  123.2980   62.9720 C   0  0  0  0  0  0  0  0  0  0  0  0
  129.0370  123.6010   61.8210 C   0  0  0  0  0  0  0  0  0  0  0  0
  126.8910  123.2000   59.4530 C   0  0  0  0  0  0  0  0  0  0  0  0
  126.2110  123.4780   58.2580 C   0  0  0  0  0  0  0  0  0  0  0  0
  124.6750  123.6030   58.2920 C   0  0  0  0  0  0  0  0  0  0  0  0
  124.1820  123.6000   59.5320 F   0  0  0  0  0  0  0  0  0  0  0  0
  124.2920  124.7430   57.7150 F   0  0  0  0  0  0  0  0  0  0  0  0
  124.1240  122.5810   57.6360 F   0  0  0  0  0  0  0  0  0  0  0  0
  126.9660  123.6250   57.0680 C   0  0  0  0  0  0  0  0  0  0  0  0
  126.2950  123.8390   55.7840 C   0  0  0  0  0  0  0  0  0  0  0  0
  125.7640  124.0070   54.7690 N   0  0  0  0  0  0  0  0  0  0  0  0
  132.9220  123.9170   59.6110 C   0  0  0  0  0  0  0  0  0  0  0  0
  133.6070  123.9070   60.8230 C   0  0  0  0  0  0  0  0  0  0  0  0
  133.6227  124.8681   65.1711 H   0  0  0  0  0  0  0  0  0  0  0  0
  132.7741  126.1636   64.2610 H   0  0  0  0  0  0  0  0  0  0  0  0
  132.1208  124.4904   64.2610 H   0  0  0  0  0  0  0  0  0  0  0  0
  131.7577  126.2187   62.5199 H   0  0  0  0  0  0  0  0  0  0  0  0
  130.5361  126.2456   60.3569 H   0  0  0  0  0  0  0  0  0  0  0  0
  130.0920  124.5930   58.3410 H   0  0  0  0  0  0  0  0  0  0  0  0
  129.6795  126.0364   56.2118 H   0  0  0  0  0  0  0  0  0  0  0  0
  130.8764  125.4555   54.9743 H   0  0  0  0  0  0  0  0  0  0  0  0
  129.8506  120.8837   59.9294 H   0  0  0  0  0  0  0  0  0  0  0  0
  131.1443  120.3418   61.9815 H   0  0  0  0  0  0  0  0  0  0  0  0
  131.0893  121.8909   63.9299 H   0  0  0  0  0  0  0  0  0  0  0  0
  129.7362  123.9785   63.8359 H   0  0  0  0  0  0  0  0  0  0  0  0
  128.4402  124.5243   61.7844 H   0  0  0  0  0  0  0  0  0  0  0  0
  126.3246  123.0803   60.3883 H   0  0  0  0  0  0  0  0  0  0  0  0
  133.2551  123.2696   58.7864 H   0  0  0  0  0  0  0  0  0  0  0  0
  134.4767  123.2464   60.9543 H   0  0  0  0  0  0  0  0  0  0  0  0
  1  2  1  0
  2  3  1  0
  3  4  2  0
  4  5  1  0
  5  6  2  0
  6  7  1  0
  7  8  1  0
  8  9  2  0
  8 10  1  0
 10 11  1  0
 11 12  1  0
 12 13  2  0
 13 14  1  0
 14 15  1  0
 15 16  2  0
 16 17  1  0
 17 18  2  0
 18 19  1  0
 19 20  2  0
 14 21  2  0
 21 22  1  0
 22 23  1  0
 23 24  1  0
 23 25  1  0
 23 26  1  0
 22 27  2  0
 27 28  1  0
 28 29  3  0
  6 30  1  0
 30 31  2  0
 31  3  1  0
 27 12  1  0
 20 15  1  0
  1 32  1  0
  1 33  1  0
  1 34  1  0
  4 35  1  0
  5 36  1  0
  7 37  1  0
 10 38  1  0
 10 39  1  0
 16 40  1  0
 17 41  1  0
 18 42  1  0
 19 43  1  0
 20 44  1  0
 21 45  1  0
 30 46  1  0
 31 47  1  0
M  END
>  <Binding energies>  (1) 
[-7.27]

>  <Ligand effiencies>  (1) 
[-0.2271875]

>  <Interactions>  (1) 
["V-B:ASP:366:CG:8184, V-A:ASP:366:CG:3210, H-A:TYR:531:OH:4793, V-B:ASP:366:CB:8183, H-B:TYR:531:OH:9767, V-B:PRO:540:CA:9855, V-B:ALA:541:CB:9864, V-B:LEU:363:CA:8156, V-B:PRO:540:CB:9857, V-B:LEU:363:CD1:8160, V-B:MET:535:CE:9807, V-B:PRO:540:CG:9858, V-B:ILE:538:CG2:9835, V-B:PRO:540:CD:9859, V-B:PRO:540:N:9856, V-A:LEU:475:CD2:4256, V-B:GLU:543:CD:9880, V-B:TYR:539:C:9839, V-B:TYR:539:CE1:9847, V-B:TYR:539:CD1:9845, V-B:TYR:539:CZ:9849, V-A:ILE:369:CD1:3236, V-B:TYR:531:CE2:9765, H-B:TYR:539:OH:9850, H-A:GLY:454:N:4047, V-B:TYR:531:CZ:9766, V-A:ARG:545:CZ:4924, V-B:LEU:363:CB:8158, V-B:LEU:363:CG:8159"]

$$$$
3ad_Grossjean_2025
     RDKit          3D

 43 45  0  0  0  0  0  0  0  0999 V2000
  133.5150  123.9940   60.9280 N   0  0  0  0  0  0  0  0  0  0  0  0
  132.5160  123.8790   60.3540 C   0  0  0  0  0  0  0  0  0  0  0  0
  131.2510  123.7370   59.6250 C   0  0  0  0  0  0  0  0  0  0  0  0
  130.9830  124.5250   58.4800 C   0  0  0  0  0  0  0  0  0  0  0  0
  131.9980  125.5330   57.9070 C   0  0  0  0  0  0  0  0  0  0  0  0
  131.7190  125.8920   56.6520 F   0  0  0  0  0  0  0  0  0  0  0  0
  132.0090  126.6410   58.6500 F   0  0  0  0  0  0  0  0  0  0  0  0
  133.2220  125.0010   57.9060 F   0  0  0  0  0  0  0  0  0  0  0  0
  129.7390  124.3840   57.8460 C   0  0  0  0  0  0  0  0  0  0  0  0
  128.7900  123.4850   58.3430 C   0  0  0  0  0  0  0  0  0  0  0  0
  127.4400  123.3060   57.7140 C   0  0  0  0  0  0  0  0  0  0  0  0
  127.3190  123.0170   56.3460 C   0  0  0  0  0  0  0  0  0  0  0  0
  126.0700  122.8480   55.7550 C   0  0  0  0  0  0  0  0  0  0  0  0
  124.9200  122.9670   56.5300 C   0  0  0  0  0  0  0  0  0  0  0  0
  125.0120  123.2500   57.8880 C   0  0  0  0  0  0  0  0  0  0  0  0
  126.2640  123.4170   58.4740 C   0  0  0  0  0  0  0  0  0  0  0  0
  129.0490  122.7370   59.4450 N   0  0  0  0  0  0  0  0  0  0  0  0
  130.2500  122.8400   60.0610 C   0  0  0  0  0  0  0  0  0  0  0  0
  130.4200  121.7770   61.4780 S   0  0  0  0  0  0  0  0  0  0  0  0
  132.1830  121.3660   61.6360 C   0  0  0  0  0  0  0  0  0  0  0  0
  132.5810  120.1800   60.7550 C   0  0  0  0  0  0  0  0  0  0  0  0
  133.4790  120.3260   59.9250 O   0  0  0  0  0  0  0  0  0  0  0  0
  131.8910  119.0390   60.9720 N   0  0  0  0  0  0  0  0  0  0  0  0
  132.0140  117.7810   60.3540 C   0  0  0  0  0  0  0  0  0  0  0  0
  130.8320  117.2440   59.8350 C   0  0  0  0  0  0  0  0  0  0  0  0
  130.8410  116.0020   59.2070 C   0  0  0  0  0  0  0  0  0  0  0  0
  132.0320  115.2910   59.1010 C   0  0  0  0  0  0  0  0  0  0  0  0
  133.2150  115.8100   59.6200 C   0  0  0  0  0  0  0  0  0  0  0  0
  133.2110  117.0520   60.2490 C   0  0  0  0  0  0  0  0  0  0  0  0
  129.5091  124.9839   56.9531 H   0  0  0  0  0  0  0  0  0  0  0  0
  128.2259  122.9225   55.7307 H   0  0  0  0  0  0  0  0  0  0  0  0
  125.9923  122.6216   54.6813 H   0  0  0  0  0  0  0  0  0  0  0  0
  123.9318  122.8363   56.0649 H   0  0  0  0  0  0  0  0  0  0  0  0
  124.1002  123.3415   58.4965 H   0  0  0  0  0  0  0  0  0  0  0  0
  126.3332  123.6394   59.5491 H   0  0  0  0  0  0  0  0  0  0  0  0
  132.7789  122.2423   61.3409 H   0  0  0  0  0  0  0  0  0  0  0  0
  132.3724  121.0875   62.6832 H   0  0  0  0  0  0  0  0  0  0  0  0
  131.1470  119.0930   61.6520 H   0  0  0  0  0  0  0  0  0  0  0  0
  129.8904  117.8058   59.9234 H   0  0  0  0  0  0  0  0  0  0  0  0
  129.9101  115.5842   58.7961 H   0  0  0  0  0  0  0  0  0  0  0  0
  132.0391  114.3103   58.6028 H   0  0  0  0  0  0  0  0  0  0  0  0
  134.1515  115.2396   59.5332 H   0  0  0  0  0  0  0  0  0  0  0  0
  134.1437  117.4623   60.6634 H   0  0  0  0  0  0  0  0  0  0  0  0
  1  2  3  0
  2  3  1  0
  3  4  2  0
  4  5  1  0
  5  6  1  0
  5  7  1  0
  5  8  1  0
  4  9  1  0
  9 10  2  0
 10 11  1  0
 11 12  2  0
 12 13  1  0
 13 14  2  0
 14 15  1  0
 15 16  2  0
 10 17  1  0
 17 18  2  0
 18 19  1  0
 19 20  1  0
 20 21  1  0
 21 22  2  0
 21 23  1  0
 23 24  1  0
 24 25  2  0
 25 26  1  0
 26 27  2  0
 27 28  1  0
 28 29  2  0
 18  3  1  0
 29 24  1  0
 16 11  1  0
  9 30  1  0
 12 31  1  0
 13 32  1  0
 14 33  1  0
 15 34  1  0
 16 35  1  0
 20 36  1  0
 20 37  1  0
 23 38  1  0
 25 39  1  0
 26 40  1  0
 27 41  1  0
 28 42  1  0
 29 43  1  0
M  END
>  <Binding energies>  (1) 
[-8.62]

>  <Ligand effiencies>  (1) 
[-0.28733333333333333]

>  <Interactions>  (1) 
["V-A:ASP:366:CG:3210, V-A:TYR:531:CZ:4792, V-A:ASP:366:CB:3209, V-B:PRO:540:CA:9855, V-B:PRO:540:CB:9857, V-B:LEU:363:CD1:8160, V-B:MET:535:CE:9807, V-A:ASP:366:CA:3207, V-B:ILE:538:CG2:9835, V-B:ILE:538:CB:9834, V-B:ILE:538:CA:9832, V-B:PRO:540:CD:9859, V-A:ASP:366:C:3205, V-B:PRO:540:N:9856, V-A:LEU:475:CD2:4256, V-B:TYR:539:CE1:9847, V-B:TYR:539:CD1:9845, V-B:TYR:539:CG:9844, V-B:TYR:539:CZ:9849, V-B:TYR:531:CE2:9765, V-A:ILE:369:CG2:3234, H-B:TYR:539:O:9840, V-A:TYR:531:CE1:4790, V-A:PRO:482:CG:4324, V-A:SER:385:CB:3406, V-A:SER:385:CA:3404, V-B:TYR:539:CB:9843, V-A:HIS:383:CG:3387, V-A:LEU:373:CD2:3278, V-A:HIS:383:CB:3386, V-A:LEU:373:CD1:3277, V-A:VAL:384:C:3394, V-B:VAL:344:CG1:7972, V-A:HIS:383:CD2:3389, V-A:HIS:383:CE1:3391"]

$$$$
3af_Grossjean_2025
     RDKit          3D

 42 44  0  0  0  0  0  0  0  0999 V2000
  126.5130  129.8530   62.6080 N   0  0  0  0  0  0  0  0  0  0  0  0
  126.4220  130.9720   62.3290 C   0  0  0  0  0  0  0  0  0  0  0  0
  126.3080  132.3900   61.9760 C   0  0  0  0  0  0  0  0  0  0  0  0
  127.4570  133.1460   61.6400 C   0  0  0  0  0  0  0  0  0  0  0  0
  128.8690  132.5290   61.5750 C   0  0  0  0  0  0  0  0  0  0  0  0
  129.7580  133.3320   60.9860 F   0  0  0  0  0  0  0  0  0  0  0  0
  129.3110  132.2760   62.8080 F   0  0  0  0  0  0  0  0  0  0  0  0
  128.8400  131.3900   60.8830 F   0  0  0  0  0  0  0  0  0  0  0  0
  127.3040  134.5130   61.3620 C   0  0  0  0  0  0  0  0  0  0  0  0
  126.0400  135.1080   61.4210 C   0  0  0  0  0  0  0  0  0  0  0  0
  125.8220  136.5670   61.1520 C   0  0  0  0  0  0  0  0  0  0  0  0
  124.5370  137.1280   61.2320 C   0  0  0  0  0  0  0  0  0  0  0  0
  124.3290  138.4830   60.9860 C   0  0  0  0  0  0  0  0  0  0  0  0
  125.4070  139.2970   60.6570 C   0  0  0  0  0  0  0  0  0  0  0  0
  126.6910  138.7680   60.5750 C   0  0  0  0  0  0  0  0  0  0  0  0
  126.8940  137.4130   60.8220 C   0  0  0  0  0  0  0  0  0  0  0  0
  124.9410  134.3810   61.7470 N   0  0  0  0  0  0  0  0  0  0  0  0
  125.0600  133.0550   61.9970 C   0  0  0  0  0  0  0  0  0  0  0  0
  123.5110  132.2690   62.3910 S   0  0  0  0  0  0  0  0  0  0  0  0
  123.3770  130.7570   61.3900 C   0  0  0  0  0  0  0  0  0  0  0  0
  124.0020  130.9330   60.0070 C   0  0  0  0  0  0  0  0  0  0  0  0
  123.4140  131.6140   59.1660 O   0  0  0  0  0  0  0  0  0  0  0  0
  125.1790  130.2990   59.8190 N   0  0  0  0  0  0  0  0  0  0  0  0
  126.0010  130.2500   58.6760 C   0  0  0  0  0  0  0  0  0  0  0  0
  127.1890  130.9810   58.4870 C   0  0  0  0  0  0  0  0  0  0  0  0
  127.9060  130.8370   57.2980 C   0  0  0  0  0  0  0  0  0  0  0  0
  127.4180  129.9650   56.3240 C   0  0  0  0  0  0  0  0  0  0  0  0
  126.2770  129.2500   56.4820 N   0  0  0  0  0  0  0  0  0  0  0  0
  125.5910  129.4000   57.6430 C   0  0  0  0  0  0  0  0  0  0  0  0
  128.1826  135.1193   61.0964 H   0  0  0  0  0  0  0  0  0  0  0  0
  123.6817  136.4874   61.4929 H   0  0  0  0  0  0  0  0  0  0  0  0
  123.3162  138.9073   61.0517 H   0  0  0  0  0  0  0  0  0  0  0  0
  125.2435  140.3668   60.4602 H   0  0  0  0  0  0  0  0  0  0  0  0
  127.5410  139.4166   60.3165 H   0  0  0  0  0  0  0  0  0  0  0  0
  127.9106  136.9979   60.7577 H   0  0  0  0  0  0  0  0  0  0  0  0
  123.8932  129.9378   61.9120 H   0  0  0  0  0  0  0  0  0  0  0  0
  122.3090  130.5303   61.2555 H   0  0  0  0  0  0  0  0  0  0  0  0
  125.5380  129.7840   60.6090 H   0  0  0  0  0  0  0  0  0  0  0  0
  127.5503  131.6618   59.2718 H   0  0  0  0  0  0  0  0  0  0  0  0
  128.8367  131.3994   57.1322 H   0  0  0  0  0  0  0  0  0  0  0  0
  127.9837  129.8529   55.3873 H   0  0  0  0  0  0  0  0  0  0  0  0
  124.6642  128.8233   57.7792 H   0  0  0  0  0  0  0  0  0  0  0  0
  1  2  3  0
  2  3  1  0
  3  4  2  0
  4  5  1  0
  5  6  1  0
  5  7  1  0
  5  8  1  0
  4  9  1  0
  9 10  2  0
 10 11  1  0
 11 12  2  0
 12 13  1  0
 13 14  2  0
 14 15  1  0
 15 16  2  0
 10 17  1  0
 17 18  2  0
 18 19  1  0
 19 20  1  0
 20 21  1  0
 21 22  2  0
 21 23  1  0
 23 24  1  0
 24 25  2  0
 25 26  1  0
 26 27  2  0
 27 28  1  0
 28 29  2  0
 18  3  1  0
 29 24  1  0
 16 11  1  0
  9 30  1  0
 12 31  1  0
 13 32  1  0
 14 33  1  0
 15 34  1  0
 16 35  1  0
 20 36  1  0
 20 37  1  0
 23 38  1  0
 25 39  1  0
 26 40  1  0
 27 41  1  0
 29 42  1  0
M  END
>  <Binding energies>  (1) 
[-7.9]

>  <Ligand effiencies>  (1) 
[-0.26333333333333336]

>  <Interactions>  (1) 
["V-A:MET:535:CE:4833, V-B:ASP:366:CG:8184, H-A:TYR:539:OH:4876, V-A:PRO:540:CA:4881, V-A:TYR:539:CZ:4875, V-B:ASP:366:CB:8183, V-A:TYR:539:CE1:4873, H-B:TYR:531:OH:9767, V-A:PRO:540:C:4879, V-A:TYR:539:CD1:4871, V-B:ILE:369:CD1:8210, V-A:ALA:541:CB:4890, V-A:PRO:540:N:4882, V-A:TYR:539:C:4865, V-A:TYR:539:CG:4870, V-B:ILE:369:CG2:8208, V-B:PRO:482:CB:9297, V-B:SER:385:CA:8378, V-B:PRO:482:CG:9298, V-B:LEU:475:CD2:9230, V-B:SER:385:CB:8380, V-B:LEU:373:CD1:8251, H-B:ASP:366:OD1:8185, H-B:GLY:454:N:9021, V-A:GLU:543:CD:4906, V-B:ASP:366:CA:8181, V-B:VAL:384:C:8368, V-A:VAL:344:CG1:2998, V-A:ALA:541:CA:4888, V-A:TYR:539:CB:4869"]

$$$$
3ag_Grossjean_2025
     RDKit          3D

 46 48  0  0  0  0  0  0  0  0999 V2000
  134.1590  123.8490   60.8610 N   0  0  0  0  0  0  0  0  0  0  0  0
  133.0920  123.7490   60.4230 C   0  0  0  0  0  0  0  0  0  0  0  0
  131.7420  123.6260   59.8660 C   0  0  0  0  0  0  0  0  0  0  0  0
  131.3750  124.3330   58.6950 C   0  0  0  0  0  0  0  0  0  0  0  0
  132.3660  125.2150   57.9100 C   0  0  0  0  0  0  0  0  0  0  0  0
  132.0630  125.3060   56.6140 F   0  0  0  0  0  0  0  0  0  0  0  0
  132.3690  126.4500   58.4110 F   0  0  0  0  0  0  0  0  0  0  0  0
  133.5970  124.7100   57.9960 F   0  0  0  0  0  0  0  0  0  0  0  0
  130.0550  124.2240   58.2310 C   0  0  0  0  0  0  0  0  0  0  0  0
  129.1240  123.4420   58.9240 C   0  0  0  0  0  0  0  0  0  0  0  0
  127.7020  123.2930   58.4760 C   0  0  0  0  0  0  0  0  0  0  0  0
  127.3970  122.6770   57.2520 C   0  0  0  0  0  0  0  0  0  0  0  0
  126.0780  122.5340   56.8290 C   0  0  0  0  0  0  0  0  0  0  0  0
  125.0430  123.0080   57.6280 C   0  0  0  0  0  0  0  0  0  0  0  0
  125.3180  123.6250   58.8440 C   0  0  0  0  0  0  0  0  0  0  0  0
  126.6380  123.7670   59.2630 C   0  0  0  0  0  0  0  0  0  0  0  0
  129.4830  122.7550   60.0390 N   0  0  0  0  0  0  0  0  0  0  0  0
  130.7580  122.8300   60.4940 C   0  0  0  0  0  0  0  0  0  0  0  0
  131.0470  121.8660   61.9600 S   0  0  0  0  0  0  0  0  0  0  0  0
  130.1730  120.2850   61.7510 C   0  0  0  0  0  0  0  0  0  0  0  0
  130.9510  119.3080   60.8680 C   0  0  0  0  0  0  0  0  0  0  0  0
  132.1580  119.4740   60.6830 O   0  0  0  0  0  0  0  0  0  0  0  0
  130.2480  118.2920   60.3390 N   0  0  0  0  0  0  0  0  0  0  0  0
  130.7950  117.2270   59.4990 C   0  0  0  0  0  0  0  0  0  0  0  0
  131.9290  116.4430   60.1490 C   0  0  0  0  0  0  0  0  0  0  0  0
  131.7810  115.9590   61.4520 C   0  0  0  0  0  0  0  0  0  0  0  0
  132.8020  115.2160   62.0390 C   0  0  0  0  0  0  0  0  0  0  0  0
  133.9650  114.9520   61.3180 C   0  0  0  0  0  0  0  0  0  0  0  0
  134.1140  115.4190   60.0140 C   0  0  0  0  0  0  0  0  0  0  0  0
  133.0920  116.1610   59.4260 C   0  0  0  0  0  0  0  0  0  0  0  0
  129.7505  124.7561   57.3177 H   0  0  0  0  0  0  0  0  0  0  0  0
  128.2128  122.3013   56.6170 H   0  0  0  0  0  0  0  0  0  0  0  0
  125.8557  122.0484   55.8674 H   0  0  0  0  0  0  0  0  0  0  0  0
  124.0004  122.8943   57.2963 H   0  0  0  0  0  0  0  0  0  0  0  0
  124.4959  123.9991   59.4719 H   0  0  0  0  0  0  0  0  0  0  0  0
  126.8516  124.2574   60.2242 H   0  0  0  0  0  0  0  0  0  0  0  0
  130.0256  119.8280   62.7407 H   0  0  0  0  0  0  0  0  0  0  0  0
  129.2113  120.4928   61.2592 H   0  0  0  0  0  0  0  0  0  0  0  0
  129.2630  118.2270   60.5510 H   0  0  0  0  0  0  0  0  0  0  0  0
  129.9830  116.5250   59.2586 H   0  0  0  0  0  0  0  0  0  0  0  0
  131.2155  117.7117   58.6056 H   0  0  0  0  0  0  0  0  0  0  0  0
  130.8579  116.1651   62.0137 H   0  0  0  0  0  0  0  0  0  0  0  0
  132.6911  114.8394   63.0666 H   0  0  0  0  0  0  0  0  0  0  0  0
  134.7735  114.3690   61.7832 H   0  0  0  0  0  0  0  0  0  0  0  0
  135.0342  115.2029   59.4513 H   0  0  0  0  0  0  0  0  0  0  0  0
  133.2000  116.5248   58.3935 H   0  0  0  0  0  0  0  0  0  0  0  0
  1  2  3  0
  2  3  1  0
  3  4  2  0
  4  5  1  0
  5  6  1  0
  5  7  1  0
  5  8  1  0
  4  9  1  0
  9 10  2  0
 10 11  1  0
 11 12  2  0
 12 13  1  0
 13 14  2  0
 14 15  1  0
 15 16  2  0
 10 17  1  0
 17 18  2  0
 18 19  1  0
 19 20  1  0
 20 21  1  0
 21 22  2  0
 21 23  1  0
 23 24  1  0
 24 25  1  0
 25 26  2  0
 26 27  1  0
 27 28  2  0
 28 29  1  0
 29 30  2  0
 18  3  1  0
 30 25  1  0
 16 11  1  0
  9 31  1  0
 12 32  1  0
 13 33  1  0
 14 34  1  0
 15 35  1  0
 16 36  1  0
 20 37  1  0
 20 38  1  0
 23 39  1  0
 24 40  1  0
 24 41  1  0
 26 42  1  0
 27 43  1  0
 28 44  1  0
 29 45  1  0
 30 46  1  0
M  END
>  <Binding energies>  (1) 
[-8.56]

>  <Ligand effiencies>  (1) 
[-0.2761290322580645]

>  <Interactions>  (1) 
["V-A:ASP:366:CG:3210, V-A:ASP:366:CB:3209, V-B:PRO:540:CA:9855, V-B:ALA:541:CB:9864, V-B:PRO:540:CB:9857, V-B:LEU:363:CD1:8160, V-A:ASP:366:CA:3207, V-B:PRO:540:CG:9858, V-B:ILE:538:CB:9834, V-B:ILE:538:CA:9832, V-B:PRO:540:CD:9859, V-A:ASP:366:C:3205, V-B:PRO:540:N:9856, V-A:LEU:475:CD2:4256, V-B:TYR:539:C:9839, V-B:TYR:539:CE1:9847, V-B:TYR:539:CD1:9845, V-B:TYR:539:CG:9844, V-B:TYR:539:CZ:9849, V-B:TYR:539:CA:9841, H-B:TYR:539:O:9840, V-A:PRO:482:CG:4324, V-A:SER:385:CB:3406, V-A:PRO:482:CB:4323, V-A:SER:385:CA:3404, V-B:TYR:539:CB:9843, V-A:HIS:383:CG:3387, V-A:LEU:373:CD2:3278, V-A:HIS:383:CB:3386, V-A:LEU:373:CD1:3277, V-A:VAL:384:C:3394, V-B:VAL:344:CG1:7972, V-A:HIS:383:CA:3384, V-A:THR:477:CA:4267, V-A:CYS:476:C:4261, V-A:VAL:384:CA:3396, V-A:LEU:373:CG:3276, V-A:HIS:383:C:3382, V-A:THR:477:CG2:4270, V-A:THR:477:CB:4269"]

$$$$
3ai_Grossjean_2025
     RDKit          3D

 39 41  0  0  0  0  0  0  0  0999 V2000
  130.9910  125.0470   62.4420 N   0  0  0  0  0  0  0  0  0  0  0  0
  131.1740  123.9410   62.1540 C   0  0  0  0  0  0  0  0  0  0  0  0
  131.4060  122.5400   61.7900 C   0  0  0  0  0  0  0  0  0  0  0  0
  132.7220  122.0420   61.6320 C   0  0  0  0  0  0  0  0  0  0  0  0
  133.9740  122.9080   61.8710 C   0  0  0  0  0  0  0  0  0  0  0  0
  133.7950  123.8230   62.8270 F   0  0  0  0  0  0  0  0  0  0  0  0
  134.9980  122.1370   62.2390 F   0  0  0  0  0  0  0  0  0  0  0  0
  134.3020  123.5590   60.7540 F   0  0  0  0  0  0  0  0  0  0  0  0
  132.8900  120.7060   61.2360 C   0  0  0  0  0  0  0  0  0  0  0  0
  131.7780  119.8920   61.0020 C   0  0  0  0  0  0  0  0  0  0  0  0
  131.8980  118.4630   60.5670 C   0  0  0  0  0  0  0  0  0  0  0  0
  130.7580  117.7190   60.2250 C   0  0  0  0  0  0  0  0  0  0  0  0
  130.8630  116.3930   59.8150 C   0  0  0  0  0  0  0  0  0  0  0  0
  132.1140  115.7900   59.7420 C   0  0  0  0  0  0  0  0  0  0  0  0
  133.2600  116.5060   60.0730 C   0  0  0  0  0  0  0  0  0  0  0  0
  133.1510  117.8320   60.4820 C   0  0  0  0  0  0  0  0  0  0  0  0
  130.5180  120.3760   61.1470 N   0  0  0  0  0  0  0  0  0  0  0  0
  130.3300  121.6550   61.5520 C   0  0  0  0  0  0  0  0  0  0  0  0
  128.6140  122.1050   61.7080 S   0  0  0  0  0  0  0  0  0  0  0  0
  128.4400  123.8420   61.1780 C   0  0  0  0  0  0  0  0  0  0  0  0
  127.8700  124.0360   59.7650 C   0  0  0  0  0  0  0  0  0  0  0  0
  127.7260  125.1660   59.2920 O   0  0  0  0  0  0  0  0  0  0  0  0
  127.5550  122.8890   59.1220 N   0  0  0  0  0  0  0  0  0  0  0  0
  127.0310  122.7580   57.8420 C   0  0  0  0  0  0  0  0  0  0  0  0
  125.7840  123.2610   57.4740 C   0  0  0  0  0  0  0  0  0  0  0  0
  125.6400  122.9260   56.1480 C   0  0  0  0  0  0  0  0  0  0  0  0
  126.7430  122.2570   55.7370 O   0  0  0  0  0  0  0  0  0  0  0  0
  127.6190  122.1580   56.8200 N   0  0  0  0  0  0  0  0  0  0  0  0
  133.9032  120.2969   61.1090 H   0  0  0  0  0  0  0  0  0  0  0  0
  129.7661  118.1912   60.2819 H   0  0  0  0  0  0  0  0  0  0  0  0
  129.9597  115.8241   59.5497 H   0  0  0  0  0  0  0  0  0  0  0  0
  132.1979  114.7413   59.4208 H   0  0  0  0  0  0  0  0  0  0  0  0
  134.2480  116.0263   60.0118 H   0  0  0  0  0  0  0  0  0  0  0  0
  134.0595  118.3947   60.7427 H   0  0  0  0  0  0  0  0  0  0  0  0
  127.7712  124.3501   61.8884 H   0  0  0  0  0  0  0  0  0  0  0  0
  129.4570  124.2608   61.1592 H   0  0  0  0  0  0  0  0  0  0  0  0
  127.7160  122.0220   59.6150 H   0  0  0  0  0  0  0  0  0  0  0  0
  125.0697  123.8076   58.1073 H   0  0  0  0  0  0  0  0  0  0  0  0
  124.7678  123.1637   55.5213 H   0  0  0  0  0  0  0  0  0  0  0  0
  1  2  3  0
  2  3  1  0
  3  4  2  0
  4  5  1  0
  5  6  1  0
  5  7  1  0
  5  8  1  0
  4  9  1  0
  9 10  2  0
 10 11  1  0
 11 12  2  0
 12 13  1  0
 13 14  2  0
 14 15  1  0
 15 16  2  0
 10 17  1  0
 17 18  2  0
 18 19  1  0
 19 20  1  0
 20 21  1  0
 21 22  2  0
 21 23  1  0
 23 24  1  0
 24 25  1  0
 25 26  2  0
 26 27  1  0
 27 28  1  0
 18  3  1  0
 28 24  2  0
 16 11  1  0
  9 29  1  0
 12 30  1  0
 13 31  1  0
 14 32  1  0
 15 33  1  0
 16 34  1  0
 20 35  1  0
 20 36  1  0
 23 37  1  0
 25 38  1  0
 26 39  1  0
M  END
>  <Binding energies>  (1) 
[-8.53]

>  <Ligand effiencies>  (1) 
[-0.2941379310344827]

>  <Interactions>  (1) 
["V-B:PRO:540:CA:9855, V-B:ALA:541:CB:9864, V-B:PRO:540:CB:9857, V-B:ILE:538:CG2:9835, V-B:ILE:538:CB:9834, V-B:ILE:538:CA:9832, V-B:PRO:540:N:9856, V-A:LEU:475:CD2:4256, V-B:TYR:539:C:9839, V-B:TYR:539:CE1:9847, V-B:TYR:539:CD1:9845, V-B:TYR:539:CG:9844, V-A:ILE:369:CB:3233, H-B:TYR:539:N:9842, V-A:ILE:369:CD1:3236, V-A:ILE:369:CG1:3235, V-A:ILE:369:CG2:3234, V-A:GLY:454:CA:4046, V-A:GLY:453:CA:4041, H-B:ALA:541:N:9863, H-B:TYR:539:O:9840, V-A:PRO:482:CG:4324, V-A:SER:385:CB:3406, V-A:PRO:482:CB:4323, V-A:SER:385:CA:3404, V-B:TYR:539:CB:9843, V-A:LEU:373:CD1:3277, V-A:GLY:453:C:4039, V-A:VAL:384:C:3394, V-B:VAL:344:CG1:7972, V-A:SER:385:C:3402"]

$$$$
3aj_Grossjean_2025
     RDKit          3D

 39 41  0  0  0  0  0  0  0  0999 V2000
  130.7740  125.6460   62.3740 N   0  0  0  0  0  0  0  0  0  0  0  0
  130.9310  124.5420   62.0650 C   0  0  0  0  0  0  0  0  0  0  0  0
  131.1260  123.1430   61.6740 C   0  0  0  0  0  0  0  0  0  0  0  0
  130.0220  122.3310   61.3150 C   0  0  0  0  0  0  0  0  0  0  0  0
  128.5770  122.8640   61.2700 C   0  0  0  0  0  0  0  0  0  0  0  0
  127.7860  122.1470   60.4690 F   0  0  0  0  0  0  0  0  0  0  0  0
  128.0430  122.8380   62.4920 F   0  0  0  0  0  0  0  0  0  0  0  0
  128.5670  124.1200   60.8210 F   0  0  0  0  0  0  0  0  0  0  0  0
  130.2570  120.9850   60.9940 C   0  0  0  0  0  0  0  0  0  0  0  0
  131.5540  120.4640   61.0340 C   0  0  0  0  0  0  0  0  0  0  0  0
  131.8590  119.0330   60.7100 C   0  0  0  0  0  0  0  0  0  0  0  0
  133.1850  118.6010   60.5570 C   0  0  0  0  0  0  0  0  0  0  0  0
  133.4760  117.2710   60.2600 C   0  0  0  0  0  0  0  0  0  0  0  0
  132.4400  116.3550   60.1110 C   0  0  0  0  0  0  0  0  0  0  0  0
  131.1170  116.7590   60.2600 C   0  0  0  0  0  0  0  0  0  0  0  0
  130.8310  118.0880   60.5580 C   0  0  0  0  0  0  0  0  0  0  0  0
  132.6080  121.2450   61.3860 N   0  0  0  0  0  0  0  0  0  0  0  0
  132.4100  122.5530   61.6760 C   0  0  0  0  0  0  0  0  0  0  0  0
  133.9070  123.4210   62.0920 S   0  0  0  0  0  0  0  0  0  0  0  0
  134.4330  124.3650   60.6210 C   0  0  0  0  0  0  0  0  0  0  0  0
  133.5300  124.2040   59.3890 C   0  0  0  0  0  0  0  0  0  0  0  0
  133.9110  123.5660   58.4060 O   0  0  0  0  0  0  0  0  0  0  0  0
  132.3250  124.8080   59.4910 N   0  0  0  0  0  0  0  0  0  0  0  0
  131.3190  124.8160   58.5340 C   0  0  0  0  0  0  0  0  0  0  0  0
  130.1500  124.2140   58.5860 N   0  0  0  0  0  0  0  0  0  0  0  0
  129.4380  124.4400   57.5000 C   0  0  0  0  0  0  0  0  0  0  0  0
  130.0330  125.2450   56.5310 C   0  0  0  0  0  0  0  0  0  0  0  0
  131.6090  125.7230   57.0840 S   0  0  0  0  0  0  0  0  0  0  0  0
  129.4157  120.3360   60.7092 H   0  0  0  0  0  0  0  0  0  0  0  0
  134.0070  119.3227   60.6732 H   0  0  0  0  0  0  0  0  0  0  0  0
  134.5207  116.9469   60.1439 H   0  0  0  0  0  0  0  0  0  0  0  0
  132.6679  115.3053   59.8740 H   0  0  0  0  0  0  0  0  0  0  0  0
  130.3006  116.0311   60.1428 H   0  0  0  0  0  0  0  0  0  0  0  0
  129.7838  118.4032   60.6763 H   0  0  0  0  0  0  0  0  0  0  0  0
  134.4560  125.4313   60.8902 H   0  0  0  0  0  0  0  0  0  0  0  0
  135.4171  123.9653   60.3351 H   0  0  0  0  0  0  0  0  0  0  0  0
  132.1200  125.2990   60.3490 H   0  0  0  0  0  0  0  0  0  0  0  0
  128.4314  124.0171   57.3664 H   0  0  0  0  0  0  0  0  0  0  0  0
  129.5785  125.5315   55.5712 H   0  0  0  0  0  0  0  0  0  0  0  0
  1  2  3  0
  2  3  1  0
  3  4  2  0
  4  5  1  0
  5  6  1  0
  5  7  1  0
  5  8  1  0
  4  9  1  0
  9 10  2  0
 10 11  1  0
 11 12  2  0
 12 13  1  0
 13 14  2  0
 14 15  1  0
 15 16  2  0
 10 17  1  0
 17 18  2  0
 18 19  1  0
 19 20  1  0
 20 21  1  0
 21 22  2  0
 21 23  1  0
 23 24  1  0
 24 25  2  0
 25 26  1  0
 26 27  2  0
 27 28  1  0
 18  3  1  0
 28 24  1  0
 16 11  1  0
  9 29  1  0
 12 30  1  0
 13 31  1  0
 14 32  1  0
 15 33  1  0
 16 34  1  0
 20 35  1  0
 20 36  1  0
 23 37  1  0
 26 38  1  0
 27 39  1  0
M  END
>  <Binding energies>  (1) 
[-7.25]

>  <Ligand effiencies>  (1) 
[-0.25]

>  <Interactions>  (1) 
["V-A:ASP:366:CG:3210, V-B:PRO:540:CA:9855, V-B:ALA:541:CB:9864, V-B:ALA:541:CA:9862, V-B:MET:535:CE:9807, V-A:ASP:366:CA:3207, V-B:PRO:540:N:9856, V-A:LEU:475:CD2:4256, V-B:GLU:543:CD:9880, V-B:TYR:539:C:9839, V-B:TYR:539:CE1:9847, V-B:TYR:539:CD1:9845, V-B:PRO:540:C:9853, V-B:TYR:539:CG:9844, V-B:TYR:539:CZ:9849, V-A:ILE:369:CD1:3236, V-A:ILE:369:CG2:3234, H-B:TYR:539:OH:9850, H-A:GLY:454:N:4047, H-A:ASP:366:OD1:3211, V-A:PRO:482:CG:4324, V-A:SER:385:CB:3406, V-A:PRO:482:CB:4323, V-A:SER:385:CA:3404, V-B:TYR:539:CB:9843, V-A:LEU:373:CD1:3277, V-A:VAL:384:C:3394, V-B:VAL:344:CG1:7972"]

$$$$
3ak_Grossjean_2025
     RDKit          3D

 57 58  0  0  0  0  0  0  0  0999 V2000
  132.4660  131.4980   62.4820 C   0  0  0  0  0  0  0  0  0  0  0  0
  133.3030  132.2140   61.5880 O   0  0  0  0  0  0  0  0  0  0  0  0
  133.5350  131.5330   60.3620 C   0  0  0  0  0  0  0  0  0  0  0  0
  132.2140  131.4290   59.5910 C   0  0  0  0  0  0  0  0  0  0  0  0
  132.3110  132.2030   58.4000 O   0  0  0  0  0  0  0  0  0  0  0  0
  132.4860  131.4600   57.1970 C   0  0  0  0  0  0  0  0  0  0  0  0
  131.9230  132.1620   55.9470 C   0  0  0  0  0  0  0  0  0  0  0  0
  130.8820  133.0470   56.3380 O   0  0  0  0  0  0  0  0  0  0  0  0
  129.6210  132.7460   55.7550 C   0  0  0  0  0  0  0  0  0  0  0  0
  128.7230  132.0230   56.7750 C   0  0  0  0  0  0  0  0  0  0  0  0
  129.3220  131.9090   58.1060 N   0  0  0  0  0  0  0  0  0  0  0  0
  128.6560  131.6970   59.2570 C   0  0  0  0  0  0  0  0  0  0  0  0
  127.4330  131.5550   59.3040 O   0  0  0  0  0  0  0  0  0  0  0  0
  129.4520  131.6280   60.5720 C   0  0  0  0  0  0  0  0  0  0  0  0
  129.2490  133.0350   61.7250 S   0  0  0  0  0  0  0  0  0  0  0  0
  127.5230  133.4930   61.7720 C   0  0  0  0  0  0  0  0  0  0  0  0
  127.2490  134.7790   61.4380 N   0  0  0  0  0  0  0  0  0  0  0  0
  125.9670  135.2240   61.4500 C   0  0  0  0  0  0  0  0  0  0  0  0
  125.7550  136.6580   61.0670 C   0  0  0  0  0  0  0  0  0  0  0  0
  124.4620  137.2000   61.0020 C   0  0  0  0  0  0  0  0  0  0  0  0
  124.2590  138.5320   60.6500 C   0  0  0  0  0  0  0  0  0  0  0  0
  125.3510  139.3430   60.3590 C   0  0  0  0  0  0  0  0  0  0  0  0
  126.6420  138.8320   60.4180 C   0  0  0  0  0  0  0  0  0  0  0  0
  126.8420  137.5000   60.7710 C   0  0  0  0  0  0  0  0  0  0  0  0
  124.9130  134.3670   61.7880 C   0  0  0  0  0  0  0  0  0  0  0  0
  125.1690  133.0330   62.1350 C   0  0  0  0  0  0  0  0  0  0  0  0
  123.9830  132.1200   62.5040 C   0  0  0  0  0  0  0  0  0  0  0  0
  122.9390  132.8580   62.8820 F   0  0  0  0  0  0  0  0  0  0  0  0
  123.6310  131.3810   61.4510 F   0  0  0  0  0  0  0  0  0  0  0  0
  124.2650  131.2820   63.5040 F   0  0  0  0  0  0  0  0  0  0  0  0
  126.5100  132.5780   62.1310 C   0  0  0  0  0  0  0  0  0  0  0  0
  126.8370  131.1930   62.4860 C   0  0  0  0  0  0  0  0  0  0  0  0
  127.0950  130.1000   62.7670 N   0  0  0  0  0  0  0  0  0  0  0  0
  132.7463  131.7378   63.5183 H   0  0  0  0  0  0  0  0  0  0  0  0
  131.4175  131.7830   62.3105 H   0  0  0  0  0  0  0  0  0  0  0  0
  132.5852  130.4180   62.3105 H   0  0  0  0  0  0  0  0  0  0  0  0
  134.2687  132.0920   59.7627 H   0  0  0  0  0  0  0  0  0  0  0  0
  133.9271  130.5255   60.5650 H   0  0  0  0  0  0  0  0  0  0  0  0
  132.0193  130.3776   59.3329 H   0  0  0  0  0  0  0  0  0  0  0  0
  131.3893  131.8062   60.2136 H   0  0  0  0  0  0  0  0  0  0  0  0
  133.5627  131.2928   57.0458 H   0  0  0  0  0  0  0  0  0  0  0  0
  131.9274  130.5199   57.3162 H   0  0  0  0  0  0  0  0  0  0  0  0
  132.7238  132.7314   55.4526 H   0  0  0  0  0  0  0  0  0  0  0  0
  131.5268  131.4109   55.2478 H   0  0  0  0  0  0  0  0  0  0  0  0
  129.1338  133.6806   55.4402 H   0  0  0  0  0  0  0  0  0  0  0  0
  129.7750  132.0912   54.8846 H   0  0  0  0  0  0  0  0  0  0  0  0
  127.7795  132.5813   56.8649 H   0  0  0  0  0  0  0  0  0  0  0  0
  128.5697  130.9998   56.4015 H   0  0  0  0  0  0  0  0  0  0  0  0
  130.3280  131.9950   58.1480 H   0  0  0  0  0  0  0  0  0  0  0  0
  129.1434  130.7147   61.1018 H   0  0  0  0  0  0  0  0  0  0  0  0
  130.5103  131.6475   60.2728 H   0  0  0  0  0  0  0  0  0  0  0  0
  123.5955  136.5628   61.2327 H   0  0  0  0  0  0  0  0  0  0  0  0
  123.2391  138.9412   60.6023 H   0  0  0  0  0  0  0  0  0  0  0  0
  125.1917  140.3952   60.0805 H   0  0  0  0  0  0  0  0  0  0  0  0
  127.5024  139.4772   60.1868 H   0  0  0  0  0  0  0  0  0  0  0  0
  127.8656  137.1002   60.8191 H   0  0  0  0  0  0  0  0  0  0  0  0
  123.8789  134.7421   61.7813 H   0  0  0  0  0  0  0  0  0  0  0  0
  1  2  1  0
  2  3  1  0
  3  4  1  0
  4  5  1  0
  5  6  1  0
  6  7  1  0
  7  8  1  0
  8  9  1  0
  9 10  1  0
 10 11  1  0
 11 12  1  0
 12 13  2  0
 12 14  1  0
 14 15  1  0
 15 16  1  0
 16 17  2  0
 17 18  1  0
 18 19  1  0
 19 20  2  0
 20 21  1  0
 21 22  2  0
 22 23  1  0
 23 24  2  0
 18 25  2  0
 25 26  1  0
 26 27  1  0
 27 28  1  0
 27 29  1  0
 27 30  1  0
 26 31  2  0
 31 32  1  0
 32 33  3  0
 31 16  1  0
 24 19  1  0
  1 34  1  0
  1 35  1  0
  1 36  1  0
  3 37  1  0
  3 38  1  0
  4 39  1  0
  4 40  1  0
  6 41  1  0
  6 42  1  0
  7 43  1  0
  7 44  1  0
  9 45  1  0
  9 46  1  0
 10 47  1  0
 10 48  1  0
 11 49  1  0
 14 50  1  0
 14 51  1  0
 20 52  1  0
 21 53  1  0
 22 54  1  0
 23 55  1  0
 24 56  1  0
 25 57  1  0
M  END
>  <Binding energies>  (1) 
[-7.62]

>  <Ligand effiencies>  (1) 
[-0.22411764705882353]

>  <Interactions>  (1) 
["V-A:MET:535:CE:4833, V-A:TYR:539:CE2:4874, V-A:ASP:366:CG:3210, V-A:LEU:363:CA:3182, V-A:TYR:531:CE2:4791, H-A:ALA:541:N:4889, V-A:PRO:540:CB:4883, V-A:PRO:540:CA:4881, V-A:ILE:538:CA:4858, V-A:LEU:363:CD1:3186, H-A:TYR:539:N:4868, V-A:TYR:539:CZ:4875, V-A:TYR:539:CE1:4873, V-A:TYR:539:CD2:4872, V-A:TYR:539:CD1:4871, V-B:ILE:369:CD1:8210, V-A:ALA:541:CB:4890, V-A:ASN:362:C:3169, V-A:TYR:539:CG:4870, V-B:ILE:369:CG2:8208, V-A:ILE:538:CB:4860, V-B:PRO:482:CB:9297, V-B:SER:385:CA:8378, V-B:PRO:482:CG:9298, V-B:LEU:475:CD2:9230, V-A:ILE:538:CG2:4861, V-B:SER:385:CB:8380, V-B:LEU:373:CD1:8251, V-A:ILE:538:C:4856, V-B:GLY:453:C:9013, V-B:GLY:454:CA:9020, V-B:ILE:369:CG1:8209, V-A:ARG:545:CZ:4924, V-A:GLU:543:CD:4906, V-A:ASN:362:CB:3173, V-B:VAL:384:C:8368, V-B:LEU:373:CD2:8252, V-B:SER:385:C:8376, V-A:VAL:344:CG1:2998, V-A:ALA:541:C:4886, V-A:TYR:539:CB:4869"]

$$$$
3bc_Grossjean_2025
     RDKit          3D

 47 49  0  0  0  0  0  0  0  0999 V2000
  131.3530  125.8540   74.3800 C   0  0  0  0  0  0  0  0  0  0  0  0
  130.0410  126.3570   74.1510 O   0  0  0  0  0  0  0  0  0  0  0  0
  129.6970  126.7900   72.8840 C   0  0  0  0  0  0  0  0  0  0  0  0
  130.7400  127.2550   72.0820 C   0  0  0  0  0  0  0  0  0  0  0  0
  130.4910  127.7120   70.7910 C   0  0  0  0  0  0  0  0  0  0  0  0
  129.1900  127.7170   70.2860 C   0  0  0  0  0  0  0  0  0  0  0  0
  129.0380  128.1850   68.9670 N   0  0  0  0  0  0  0  0  0  0  0  0
  128.1410  127.8140   68.0290 C   0  0  0  0  0  0  0  0  0  0  0  0
  127.2420  126.9890   68.2050 O   0  0  0  0  0  0  0  0  0  0  0  0
  128.2830  128.5390   66.6830 C   0  0  0  0  0  0  0  0  0  0  0  0
  127.5560  130.2110   66.6210 S   0  0  0  0  0  0  0  0  0  0  0  0
  126.8620  130.4430   65.0000 C   0  0  0  0  0  0  0  0  0  0  0  0
  127.7830  130.7280   64.0480 N   0  0  0  0  0  0  0  0  0  0  0  0
  127.3890  130.9270   62.7620 C   0  0  0  0  0  0  0  0  0  0  0  0
  128.4680  131.2580   61.7740 C   0  0  0  0  0  0  0  0  0  0  0  0
  128.3180  132.3310   60.8830 C   0  0  0  0  0  0  0  0  0  0  0  0
  129.3150  132.6440   59.9620 C   0  0  0  0  0  0  0  0  0  0  0  0
  130.4790  131.8840   59.9210 C   0  0  0  0  0  0  0  0  0  0  0  0
  130.6520  130.8130   60.7920 C   0  0  0  0  0  0  0  0  0  0  0  0
  129.6510  130.5020   61.7100 C   0  0  0  0  0  0  0  0  0  0  0  0
  126.0400  130.8430   62.4040 C   0  0  0  0  0  0  0  0  0  0  0  0
  125.0790  130.5270   63.3700 C   0  0  0  0  0  0  0  0  0  0  0  0
  123.6190  130.4290   62.9300 C   0  0  0  0  0  0  0  0  0  0  0  0
  125.4860  130.3090   64.7040 C   0  0  0  0  0  0  0  0  0  0  0  0
  124.5040  129.9300   65.7220 C   0  0  0  0  0  0  0  0  0  0  0  0
  123.7260  129.6310   66.5250 N   0  0  0  0  0  0  0  0  0  0  0  0
  128.1380  127.2390   71.0810 C   0  0  0  0  0  0  0  0  0  0  0  0
  128.3910  126.7830   72.3720 C   0  0  0  0  0  0  0  0  0  0  0  0
  131.5351  125.7842   75.4626 H   0  0  0  0  0  0  0  0  0  0  0  0
  131.4473  124.8560   73.9272 H   0  0  0  0  0  0  0  0  0  0  0  0
  132.0903  126.5332   73.9272 H   0  0  0  0  0  0  0  0  0  0  0  0
  131.7680  127.2604   72.4735 H   0  0  0  0  0  0  0  0  0  0  0  0
  131.3226  128.0705   70.1666 H   0  0  0  0  0  0  0  0  0  0  0  0
  129.6570  128.9450   68.7200 H   0  0  0  0  0  0  0  0  0  0  0  0
  129.3555  128.6256   66.4546 H   0  0  0  0  0  0  0  0  0  0  0  0
  127.7252  127.9362   65.9512 H   0  0  0  0  0  0  0  0  0  0  0  0
  127.3988  132.9346   60.9121 H   0  0  0  0  0  0  0  0  0  0  0  0
  129.1822  133.4887   59.2700 H   0  0  0  0  0  0  0  0  0  0  0  0
  131.2679  132.1312   59.1953 H   0  0  0  0  0  0  0  0  0  0  0  0
  131.5744  130.2147   60.7561 H   0  0  0  0  0  0  0  0  0  0  0  0
  129.7887  129.6522   62.3947 H   0  0  0  0  0  0  0  0  0  0  0  0
  125.7346  131.0253   61.3631 H   0  0  0  0  0  0  0  0  0  0  0  0
  122.9707  130.3855   63.8176 H   0  0  0  0  0  0  0  0  0  0  0  0
  123.3575  131.3116   62.3278 H   0  0  0  0  0  0  0  0  0  0  0  0
  123.4778  129.5194   62.3278 H   0  0  0  0  0  0  0  0  0  0  0  0
  127.1122  127.2244   70.6842 H   0  0  0  0  0  0  0  0  0  0  0  0
  127.5618  126.4151   72.9942 H   0  0  0  0  0  0  0  0  0  0  0  0
  1  2  1  0
  2  3  1  0
  3  4  2  0
  4  5  1  0
  5  6  2  0
  6  7  1  0
  7  8  1  0
  8  9  2  0
  8 10  1  0
 10 11  1  0
 11 12  1  0
 12 13  2  0
 13 14  1  0
 14 15  1  0
 15 16  2  0
 16 17  1  0
 17 18  2  0
 18 19  1  0
 19 20  2  0
 14 21  2  0
 21 22  1  0
 22 23  1  0
 22 24  2  0
 24 25  1  0
 25 26  3  0
  6 27  1  0
 27 28  2  0
 28  3  1  0
 24 12  1  0
 20 15  1  0
  1 29  1  0
  1 30  1  0
  1 31  1  0
  4 32  1  0
  5 33  1  0
  7 34  1  0
 10 35  1  0
 10 36  1  0
 16 37  1  0
 17 38  1  0
 18 39  1  0
 19 40  1  0
 20 41  1  0
 21 42  1  0
 23 43  1  0
 23 44  1  0
 23 45  1  0
 27 46  1  0
 28 47  1  0
M  END
>  <Binding energies>  (1) 
[-8.15]

>  <Ligand effiencies>  (1) 
[-0.2810344827586207]

>  <Interactions>  (1) 
["V-A:PRO:540:CA:4881, V-B:GLU:543:CD:9880, V-A:TYR:539:CD1:4871, V-B:ILE:369:CD1:8210, V-A:PRO:540:N:4882, V-A:TYR:539:C:4865, V-B:ARG:545:CZ:9898, V-B:GLY:453:CA:9015, V-B:GLY:453:C:9013, V-B:GLY:454:CA:9020, H-B:TYR:484:OH:9319, H-B:GLY:454:N:9021, V-A:HIS:456:CE1:4066, V-A:GLU:543:CD:4906, H-A:GLU:543:OE2:4908, V-B:HIS:456:CE1:9040, H-B:ARG:545:NE:9896, V-B:ARG:545:CD:9895, V-A:GLU:543:CB:4904, V-A:GLU:543:CG:4905, V-B:GLU:543:CG:9879, H-B:ILE:455:N:9026, V-A:GLY:544:CA:4912, V-B:HIS:456:CD2:9039, V-B:GLY:544:C:9884, V-B:GLU:543:C:9874, V-B:GLY:544:CA:9886, V-A:GLU:543:C:4900, H-B:LYS:547:NZ:9923, V-A:GLY:544:C:4910, H-A:LYS:547:NZ:4949, V-B:LYS:547:CE:9922, V-A:HIS:456:CD2:4065, V-A:HIS:456:CG:4063, H-A:GLU:543:O:4901"]

$$$$
3bd_Grossjean_2025
     RDKit          3D

 43 45  0  0  0  0  0  0  0  0999 V2000
  132.2550  125.4950   57.2250 C   0  0  0  0  0  0  0  0  0  0  0  0
  131.2440  124.6510   57.9990 C   0  0  0  0  0  0  0  0  0  0  0  0
  129.9700  124.4720   57.4460 C   0  0  0  0  0  0  0  0  0  0  0  0
  129.0140  123.7090   58.1260 C   0  0  0  0  0  0  0  0  0  0  0  0
  127.6340  123.4740   57.5890 C   0  0  0  0  0  0  0  0  0  0  0  0
  127.4390  123.0950   56.2520 C   0  0  0  0  0  0  0  0  0  0  0  0
  126.1600  122.8770   55.7460 C   0  0  0  0  0  0  0  0  0  0  0  0
  125.0540  123.0360   56.5750 C   0  0  0  0  0  0  0  0  0  0  0  0
  125.2190  123.4140   57.9030 C   0  0  0  0  0  0  0  0  0  0  0  0
  126.4990  123.6310   58.4050 C   0  0  0  0  0  0  0  0  0  0  0  0
  129.3100  123.1240   59.3160 N   0  0  0  0  0  0  0  0  0  0  0  0
  130.5400  123.2870   59.8670 C   0  0  0  0  0  0  0  0  0  0  0  0
  130.7980  122.4780   61.4370 S   0  0  0  0  0  0  0  0  0  0  0  0
  130.0630  120.8170   61.3430 C   0  0  0  0  0  0  0  0  0  0  0  0
  131.1040  119.7470   61.0140 C   0  0  0  0  0  0  0  0  0  0  0  0
  132.2980  120.0500   61.0290 O   0  0  0  0  0  0  0  0  0  0  0  0
  130.6130  118.5260   60.7110 N   0  0  0  0  0  0  0  0  0  0  0  0
  131.3100  117.3450   60.3950 C   0  0  0  0  0  0  0  0  0  0  0  0
  132.0750  116.7880   61.4230 C   0  0  0  0  0  0  0  0  0  0  0  0
  132.8060  115.6240   61.2020 C   0  0  0  0  0  0  0  0  0  0  0  0
  132.7820  115.0210   59.9480 C   0  0  0  0  0  0  0  0  0  0  0  0
  132.0340  115.5740   58.9100 C   0  0  0  0  0  0  0  0  0  0  0  0
  131.3010  116.7370   59.1290 C   0  0  0  0  0  0  0  0  0  0  0  0
  131.5470  124.0500   59.2390 C   0  0  0  0  0  0  0  0  0  0  0  0
  132.8720  124.2180   59.8440 C   0  0  0  0  0  0  0  0  0  0  0  0
  133.9190  124.3500   60.3190 N   0  0  0  0  0  0  0  0  0  0  0  0
  132.9011  126.0343   57.9333 H   0  0  0  0  0  0  0  0  0  0  0  0
  132.8716  124.8397   56.5922 H   0  0  0  0  0  0  0  0  0  0  0  0
  131.7204  126.2187   56.5922 H   0  0  0  0  0  0  0  0  0  0  0  0
  129.7208  124.9308   56.4778 H   0  0  0  0  0  0  0  0  0  0  0  0
  128.3105  122.9680   55.5930 H   0  0  0  0  0  0  0  0  0  0  0  0
  126.0248  122.5804   54.6954 H   0  0  0  0  0  0  0  0  0  0  0  0
  124.0432  122.8617   56.1776 H   0  0  0  0  0  0  0  0  0  0  0  0
  124.3416  123.5410   58.5541 H   0  0  0  0  0  0  0  0  0  0  0  0
  126.6249  123.9299   59.4561 H   0  0  0  0  0  0  0  0  0  0  0  0
  129.6019  120.5775   62.3126 H   0  0  0  0  0  0  0  0  0  0  0  0
  129.3149  120.8220   60.5366 H   0  0  0  0  0  0  0  0  0  0  0  0
  129.6090  118.4500   60.6480 H   0  0  0  0  0  0  0  0  0  0  0  0
  132.0998  117.2712   62.4109 H   0  0  0  0  0  0  0  0  0  0  0  0
  133.4004  115.1825   62.0155 H   0  0  0  0  0  0  0  0  0  0  0  0
  133.3582  114.1002   59.7745 H   0  0  0  0  0  0  0  0  0  0  0  0
  132.0229  115.0929   57.9208 H   0  0  0  0  0  0  0  0  0  0  0  0
  130.7147  117.1799   58.3104 H   0  0  0  0  0  0  0  0  0  0  0  0
  1  2  1  0
  2  3  2  0
  3  4  1  0
  4  5  1  0
  5  6  2  0
  6  7  1  0
  7  8  2  0
  8  9  1  0
  9 10  2  0
  4 11  2  0
 11 12  1  0
 12 13  1  0
 13 14  1  0
 14 15  1  0
 15 16  2  0
 15 17  1  0
 17 18  1  0
 18 19  2  0
 19 20  1  0
 20 21  2  0
 21 22  1  0
 22 23  2  0
 12 24  2  0
 24 25  1  0
 25 26  3  0
 24  2  1  0
 10  5  1  0
 23 18  1  0
  1 27  1  0
  1 28  1  0
  1 29  1  0
  3 30  1  0
  6 31  1  0
  7 32  1  0
  8 33  1  0
  9 34  1  0
 10 35  1  0
 14 36  1  0
 14 37  1  0
 17 38  1  0
 19 39  1  0
 20 40  1  0
 21 41  1  0
 22 42  1  0
 23 43  1  0
M  END
>  <Binding energies>  (1) 
[-9.59]

>  <Ligand effiencies>  (1) 
[-0.35518518518518516]

>  <Interactions>  (1) 
["V-A:ASP:366:CG:3210, V-A:ASP:366:CB:3209, V-B:PRO:540:CA:9855, V-B:ALA:541:CB:9864, V-B:PRO:540:CB:9857, V-B:LEU:363:CD1:8160, V-B:MET:535:CE:9807, V-B:ILE:538:CG2:9835, V-B:ILE:538:CB:9834, V-B:ILE:538:CA:9832, V-B:PRO:540:CD:9859, V-B:PRO:540:N:9856, V-A:LEU:475:CD2:4256, V-B:TYR:539:C:9839, V-B:TYR:539:CE1:9847, V-B:TYR:539:CD1:9845, V-B:TYR:539:CG:9844, V-B:TYR:539:CZ:9849, V-B:TYR:531:CE2:9765, H-B:TYR:539:O:9840, V-A:PRO:482:CG:4324, V-A:SER:385:CB:3406, V-A:PRO:482:CB:4323, V-B:TYR:539:CB:9843, V-A:HIS:383:CG:3387, V-A:LEU:373:CD2:3278, V-A:HIS:383:CB:3386, V-A:LEU:373:CD1:3277, V-B:VAL:344:CG1:7972, V-B:ILE:343:CD1:7965, V-A:HIS:383:CD2:3389"]

$$$$
3be_Grossjean_2025
     RDKit          3D

 45 47  0  0  0  0  0  0  0  0999 V2000
  128.9980  132.9890   55.1400 C   0  0  0  0  0  0  0  0  0  0  0  0
  129.9180  132.5940   56.2780 C   0  0  0  0  0  0  0  0  0  0  0  0
  131.3070  132.6140   56.1370 C   0  0  0  0  0  0  0  0  0  0  0  0
  132.0920  132.2340   57.2260 C   0  0  0  0  0  0  0  0  0  0  0  0
  131.4750  131.8470   58.4180 C   0  0  0  0  0  0  0  0  0  0  0  0
  130.0780  131.8530   58.4940 C   0  0  0  0  0  0  0  0  0  0  0  0
  129.5180  131.4430   59.7180 N   0  0  0  0  0  0  0  0  0  0  0  0
  129.9900  131.6310   60.9700 C   0  0  0  0  0  0  0  0  0  0  0  0
  131.0400  132.2160   61.2410 O   0  0  0  0  0  0  0  0  0  0  0  0
  129.1040  131.0520   62.0850 C   0  0  0  0  0  0  0  0  0  0  0  0
  128.2520  132.2900   63.1200 S   0  0  0  0  0  0  0  0  0  0  0  0
  126.7600  132.7780   62.2830 C   0  0  0  0  0  0  0  0  0  0  0  0
  126.6760  134.1120   62.0540 N   0  0  0  0  0  0  0  0  0  0  0  0
  125.5890  134.6240   61.4180 C   0  0  0  0  0  0  0  0  0  0  0  0
  125.5690  136.1100   61.2160 C   0  0  0  0  0  0  0  0  0  0  0  0
  126.7640  136.8460   61.1760 C   0  0  0  0  0  0  0  0  0  0  0  0
  126.7520  138.2250   60.9920 C   0  0  0  0  0  0  0  0  0  0  0  0
  125.5400  138.8910   60.8440 C   0  0  0  0  0  0  0  0  0  0  0  0
  124.3410  138.1870   60.8820 C   0  0  0  0  0  0  0  0  0  0  0  0
  124.3580  136.8070   61.0670 C   0  0  0  0  0  0  0  0  0  0  0  0
  124.5470  133.7910   60.9970 C   0  0  0  0  0  0  0  0  0  0  0  0
  124.6280  132.4100   61.2040 C   0  0  0  0  0  0  0  0  0  0  0  0
  123.4740  131.5380   60.7120 C   0  0  0  0  0  0  0  0  0  0  0  0
  125.7620  131.8750   61.8520 C   0  0  0  0  0  0  0  0  0  0  0  0
  125.8930  130.4270   62.0300 C   0  0  0  0  0  0  0  0  0  0  0  0
  125.9940  129.2820   62.1700 N   0  0  0  0  0  0  0  0  0  0  0  0
  129.3050  132.2200   57.4310 N   0  0  0  0  0  0  0  0  0  0  0  0
  128.0600  133.3917   55.5498 H   0  0  0  0  0  0  0  0  0  0  0  0
  129.4875  133.7563   54.5222 H   0  0  0  0  0  0  0  0  0  0  0  0
  128.7788  132.1057   54.5222 H   0  0  0  0  0  0  0  0  0  0  0  0
  131.7718  132.9223   55.1889 H   0  0  0  0  0  0  0  0  0  0  0  0
  133.1891  132.2391   57.1465 H   0  0  0  0  0  0  0  0  0  0  0  0
  132.0792  131.5417   59.2850 H   0  0  0  0  0  0  0  0  0  0  0  0
  128.6610  130.9150   59.6330 H   0  0  0  0  0  0  0  0  0  0  0  0
  128.3391  130.4155   61.6162 H   0  0  0  0  0  0  0  0  0  0  0  0
  129.7791  130.5031   62.7581 H   0  0  0  0  0  0  0  0  0  0  0  0
  127.7252  136.3239   61.2920 H   0  0  0  0  0  0  0  0  0  0  0  0
  127.6975  138.7864   60.9637 H   0  0  0  0  0  0  0  0  0  0  0  0
  125.5296  139.9810   60.6960 H   0  0  0  0  0  0  0  0  0  0  0  0
  123.3844  138.7176   60.7665 H   0  0  0  0  0  0  0  0  0  0  0  0
  123.4079  136.2534   61.0970 H   0  0  0  0  0  0  0  0  0  0  0  0
  123.6637  134.2221   60.5031 H   0  0  0  0  0  0  0  0  0  0  0  0
  122.9306  131.1274   61.5758 H   0  0  0  0  0  0  0  0  0  0  0  0
  122.7888  132.1460   60.1030 H   0  0  0  0  0  0  0  0  0  0  0  0
  123.8717  130.7128   60.1030 H   0  0  0  0  0  0  0  0  0  0  0  0
  1  2  1  0
  2  3  2  0
  3  4  1  0
  4  5  2  0
  5  6  1  0
  6  7  1  0
  7  8  1  0
  8  9  2  0
  8 10  1  0
 10 11  1  0
 11 12  1  0
 12 13  2  0
 13 14  1  0
 14 15  1  0
 15 16  2  0
 16 17  1  0
 17 18  2  0
 18 19  1  0
 19 20  2  0
 14 21  2  0
 21 22  1  0
 22 23  1  0
 22 24  2  0
 24 25  1  0
 25 26  3  0
  6 27  2  0
 27  2  1  0
 24 12  1  0
 20 15  1  0
  1 28  1  0
  1 29  1  0
  1 30  1  0
  3 31  1  0
  4 32  1  0
  5 33  1  0
  7 34  1  0
 10 35  1  0
 10 36  1  0
 16 37  1  0
 17 38  1  0
 18 39  1  0
 19 40  1  0
 20 41  1  0
 21 42  1  0
 23 43  1  0
 23 44  1  0
 23 45  1  0
M  END
>  <Binding energies>  (1) 
[-8.94]

>  <Ligand effiencies>  (1) 
[-0.3192857142857143]

>  <Interactions>  (1) 
["V-A:MET:535:CE:4833, V-A:TYR:539:CE2:4874, H-A:ALA:541:N:4889, V-A:PRO:540:CB:4883, V-A:PRO:540:CA:4881, V-A:ILE:538:CA:4858, V-A:TYR:539:CZ:4875, V-A:TYR:539:CE1:4873, V-A:TYR:539:CD2:4872, V-A:TYR:539:CD1:4871, V-B:ILE:369:CD1:8210, V-A:PRO:540:N:4882, V-B:ILE:369:CG2:8208, V-A:ILE:538:CB:4860, V-B:PRO:482:CB:9297, V-B:SER:385:CA:8378, V-A:PRO:540:CD:4885, V-B:PRO:482:CG:9298, V-B:LEU:475:CD2:9230, V-A:ILE:538:CG2:4861, V-B:SER:385:CB:8380, V-B:LEU:373:CD1:8251, V-A:ILE:538:C:4856, V-B:ILE:369:CG1:8209, V-B:ILE:369:CB:8207, V-A:GLU:543:CD:4906, H-B:ARG:545:NH2:9900, V-B:VAL:384:C:8368, V-A:VAL:344:CG1:2998, V-A:TYR:539:CB:4869"]

$$$$
3bf_Grossjean_2025
     RDKit          3D

 42 44  0  0  0  0  0  0  0  0999 V2000
  131.2790  125.4760   56.2120 C   0  0  0  0  0  0  0  0  0  0  0  0
  130.4770  124.7360   57.2800 C   0  0  0  0  0  0  0  0  0  0  0  0
  129.1080  124.5460   57.0630 C   0  0  0  0  0  0  0  0  0  0  0  0
  128.3390  123.8600   58.0100 C   0  0  0  0  0  0  0  0  0  0  0  0
  126.8730  123.6030   57.8270 C   0  0  0  0  0  0  0  0  0  0  0  0
  126.3820  123.0860   56.6180 C   0  0  0  0  0  0  0  0  0  0  0  0
  125.0220  122.8460   56.4400 C   0  0  0  0  0  0  0  0  0  0  0  0
  124.1330  123.1220   57.4730 C   0  0  0  0  0  0  0  0  0  0  0  0
  124.5930  123.6370   58.6800 C   0  0  0  0  0  0  0  0  0  0  0  0
  125.9540  123.8760   58.8530 C   0  0  0  0  0  0  0  0  0  0  0  0
  128.9040  123.3710   59.1460 N   0  0  0  0  0  0  0  0  0  0  0  0
  130.2250  123.5690   59.3820 C   0  0  0  0  0  0  0  0  0  0  0  0
  130.7870  122.8670   60.9180 S   0  0  0  0  0  0  0  0  0  0  0  0
  130.1050  121.1790   61.0520 C   0  0  0  0  0  0  0  0  0  0  0  0
  131.1460  120.0500   61.0080 C   0  0  0  0  0  0  0  0  0  0  0  0
  132.3330  120.2790   61.2480 O   0  0  0  0  0  0  0  0  0  0  0  0
  130.6420  118.8310   60.7210 N   0  0  0  0  0  0  0  0  0  0  0  0
  131.3180  117.6030   60.5940 C   0  0  0  0  0  0  0  0  0  0  0  0
  131.2930  116.9870   59.3380 C   0  0  0  0  0  0  0  0  0  0  0  0
  131.9570  115.7740   59.1450 C   0  0  0  0  0  0  0  0  0  0  0  0
  132.6380  115.2080   60.2230 C   0  0  0  0  0  0  0  0  0  0  0  0
  132.6870  115.7870   61.4490 N   0  0  0  0  0  0  0  0  0  0  0  0
  132.0370  116.9670   61.6220 C   0  0  0  0  0  0  0  0  0  0  0  0
  131.0640  124.2350   58.4620 C   0  0  0  0  0  0  0  0  0  0  0  0
  132.5060  124.3790   58.6860 C   0  0  0  0  0  0  0  0  0  0  0  0
  133.6440  124.4950   58.8620 N   0  0  0  0  0  0  0  0  0  0  0  0
  132.0047  126.1456   56.6967 H   0  0  0  0  0  0  0  0  0  0  0  0
  131.8141  124.7477   55.5849 H   0  0  0  0  0  0  0  0  0  0  0  0
  130.5960  126.0678   55.5849 H   0  0  0  0  0  0  0  0  0  0  0  0
  128.6364  124.9355   56.1487 H   0  0  0  0  0  0  0  0  0  0  0  0
  127.0823  122.8670   55.7985 H   0  0  0  0  0  0  0  0  0  0  0  0
  124.6526  122.4400   55.4867 H   0  0  0  0  0  0  0  0  0  0  0  0
  123.0585  122.9316   57.3344 H   0  0  0  0  0  0  0  0  0  0  0  0
  123.8856  123.8545   59.4938 H   0  0  0  0  0  0  0  0  0  0  0  0
  126.3147  124.2850   59.8083 H   0  0  0  0  0  0  0  0  0  0  0  0
  129.5626  121.1054   62.0062 H   0  0  0  0  0  0  0  0  0  0  0  0
  129.4623  121.0375   60.1706 H   0  0  0  0  0  0  0  0  0  0  0  0
  129.6380  118.7690   60.6270 H   0  0  0  0  0  0  0  0  0  0  0  0
  130.7513  117.4574   58.5042 H   0  0  0  0  0  0  0  0  0  0  0  0
  131.9434  115.2756   58.1645 H   0  0  0  0  0  0  0  0  0  0  0  0
  133.1580  114.2504   60.0724 H   0  0  0  0  0  0  0  0  0  0  0  0
  132.0746  117.4470   62.6110 H   0  0  0  0  0  0  0  0  0  0  0  0
  1  2  1  0
  2  3  2  0
  3  4  1  0
  4  5  1  0
  5  6  2  0
  6  7  1  0
  7  8  2  0
  8  9  1  0
  9 10  2  0
  4 11  2  0
 11 12  1  0
 12 13  1  0
 13 14  1  0
 14 15  1  0
 15 16  2  0
 15 17  1  0
 17 18  1  0
 18 19  2  0
 19 20  1  0
 20 21  2  0
 21 22  1  0
 22 23  2  0
 12 24  2  0
 24 25  1  0
 25 26  3  0
 24  2  1  0
 10  5  1  0
 23 18  1  0
  1 27  1  0
  1 28  1  0
  1 29  1  0
  3 30  1  0
  6 31  1  0
  7 32  1  0
  8 33  1  0
  9 34  1  0
 10 35  1  0
 14 36  1  0
 14 37  1  0
 17 38  1  0
 19 39  1  0
 20 40  1  0
 21 41  1  0
 23 42  1  0
M  END
>  <Binding energies>  (1) 
[-9.16]

>  <Ligand effiencies>  (1) 
[-0.33925925925925926]

>  <Interactions>  (1) 
["V-B:PRO:540:CA:9855, V-B:ALA:541:CB:9864, V-B:LEU:363:CA:8156, V-B:PRO:540:CB:9857, V-B:LEU:363:CD1:8160, V-B:MET:535:CE:9807, V-B:PRO:540:CG:9858, V-B:ILE:538:CG2:9835, V-B:ILE:538:CB:9834, V-B:PRO:540:CD:9859, V-A:LEU:475:CD2:4256, V-B:TYR:539:C:9839, V-B:TYR:539:CE1:9847, V-B:TYR:539:CD1:9845, V-B:TYR:539:CG:9844, V-B:TYR:539:CZ:9849, V-B:TYR:531:CE2:9765, H-B:TYR:539:OH:9850, H-B:TYR:539:O:9840, V-A:TYR:531:CE1:4790, V-A:PRO:482:CG:4324, V-A:SER:385:CB:3406, V-A:PRO:482:CB:4323, V-B:TYR:539:CB:9843, V-A:HIS:383:CG:3387, V-A:LEU:373:CD2:3278, V-A:HIS:383:CB:3386, V-A:LEU:373:CD1:3277, V-B:VAL:344:CG1:7972, V-B:LEU:363:CB:8158, V-A:LEU:475:CG:4254, V-A:HIS:383:CD2:3389"]

$$$$
3bg_Grossjean_2025
     RDKit          3D

 46 48  0  0  0  0  0  0  0  0999 V2000
  134.5010  122.0870   62.0510 C   0  0  0  0  0  0  0  0  0  0  0  0
  133.1960  121.3840   61.6830 C   0  0  0  0  0  0  0  0  0  0  0  0
  133.2650  120.0780   61.1890 C   0  0  0  0  0  0  0  0  0  0  0  0
  132.0910  119.3930   60.8460 C   0  0  0  0  0  0  0  0  0  0  0  0
  132.0950  117.9840   60.3210 C   0  0  0  0  0  0  0  0  0  0  0  0
  130.9090  117.3700   59.8860 C   0  0  0  0  0  0  0  0  0  0  0  0
  130.9110  116.0730   59.3820 C   0  0  0  0  0  0  0  0  0  0  0  0
  132.1040  115.3630   59.3070 C   0  0  0  0  0  0  0  0  0  0  0  0
  133.2920  115.9400   59.7410 C   0  0  0  0  0  0  0  0  0  0  0  0
  133.2850  117.2370   60.2460 C   0  0  0  0  0  0  0  0  0  0  0  0
  130.8760  119.9820   61.0070 N   0  0  0  0  0  0  0  0  0  0  0  0
  130.7910  121.2490   61.4890 C   0  0  0  0  0  0  0  0  0  0  0  0
  129.1370  121.8930   61.6840 S   0  0  0  0  0  0  0  0  0  0  0  0
  129.1140  123.6060   61.0630 C   0  0  0  0  0  0  0  0  0  0  0  0
  128.9430  123.6590   59.5420 C   0  0  0  0  0  0  0  0  0  0  0  0
  129.1190  124.7200   58.9410 O   0  0  0  0  0  0  0  0  0  0  0  0
  128.5780  122.5140   58.9410 N   0  0  0  0  0  0  0  0  0  0  0  0
  128.1850  122.3790   57.5370 C   0  0  0  0  0  0  0  0  0  0  0  0
  126.7500  122.8360   57.3050 C   0  0  0  0  0  0  0  0  0  0  0  0
  125.9650  123.2550   58.3840 C   0  0  0  0  0  0  0  0  0  0  0  0
  124.6520  123.6630   58.1740 C   0  0  0  0  0  0  0  0  0  0  0  0
  124.1280  123.6630   56.8820 C   0  0  0  0  0  0  0  0  0  0  0  0
  124.9100  123.2670   55.7990 C   0  0  0  0  0  0  0  0  0  0  0  0
  126.2240  122.8580   56.0100 C   0  0  0  0  0  0  0  0  0  0  0  0
  131.9350  121.9980   61.8350 C   0  0  0  0  0  0  0  0  0  0  0  0
  131.8290  123.3630   62.3570 C   0  0  0  0  0  0  0  0  0  0  0  0
  131.7480  124.4400   62.7700 N   0  0  0  0  0  0  0  0  0  0  0  0
  134.5943  122.1373   63.1459 H   0  0  0  0  0  0  0  0  0  0  0  0
  135.3503  121.5243   61.6361 H   0  0  0  0  0  0  0  0  0  0  0  0
  134.4983  123.1057   61.6361 H   0  0  0  0  0  0  0  0  0  0  0  0
  134.2421  119.5871   61.0693 H   0  0  0  0  0  0  0  0  0  0  0  0
  129.9610  117.9248   59.9448 H   0  0  0  0  0  0  0  0  0  0  0  0
  129.9717  115.6109   59.0440 H   0  0  0  0  0  0  0  0  0  0  0  0
  132.1079  114.3401   58.9024 H   0  0  0  0  0  0  0  0  0  0  0  0
  134.2335  115.3739   59.6855 H   0  0  0  0  0  0  0  0  0  0  0  0
  134.2272  117.6863   60.5929 H   0  0  0  0  0  0  0  0  0  0  0  0
  128.2780  124.1440   61.5339 H   0  0  0  0  0  0  0  0  0  0  0  0
  130.0776  124.0731   61.3145 H   0  0  0  0  0  0  0  0  0  0  0  0
  128.4520  121.6940   59.5150 H   0  0  0  0  0  0  0  0  0  0  0  0
  128.8580  122.9908   56.9184 H   0  0  0  0  0  0  0  0  0  0  0  0
  128.2539  121.3159   57.2632 H   0  0  0  0  0  0  0  0  0  0  0  0
  126.3865  123.2619   59.4000 H   0  0  0  0  0  0  0  0  0  0  0  0
  124.0303  123.9840   59.0228 H   0  0  0  0  0  0  0  0  0  0  0  0
  123.0874  123.9786   56.7161 H   0  0  0  0  0  0  0  0  0  0  0  0
  124.4911  123.2775   54.7819 H   0  0  0  0  0  0  0  0  0  0  0  0
  126.8484  122.5521   55.1576 H   0  0  0  0  0  0  0  0  0  0  0  0
  1  2  1  0
  2  3  2  0
  3  4  1  0
  4  5  1  0
  5  6  2  0
  6  7  1  0
  7  8  2  0
  8  9  1  0
  9 10  2  0
  4 11  2  0
 11 12  1  0
 12 13  1  0
 13 14  1  0
 14 15  1  0
 15 16  2  0
 15 17  1  0
 17 18  1  0
 18 19  1  0
 19 20  2  0
 20 21  1  0
 21 22  2  0
 22 23  1  0
 23 24  2  0
 12 25  2  0
 25 26  1  0
 26 27  3  0
 25  2  1  0
 10  5  1  0
 24 19  1  0
  1 28  1  0
  1 29  1  0
  1 30  1  0
  3 31  1  0
  6 32  1  0
  7 33  1  0
  8 34  1  0
  9 35  1  0
 10 36  1  0
 14 37  1  0
 14 38  1  0
 17 39  1  0
 18 40  1  0
 18 41  1  0
 20 42  1  0
 21 43  1  0
 22 44  1  0
 23 45  1  0
 24 46  1  0
M  END
>  <Binding energies>  (1) 
[-9.21]

>  <Ligand effiencies>  (1) 
[-0.32892857142857146]

>  <Interactions>  (1) 
["V-B:PRO:540:CA:9855, V-B:ALA:541:CB:9864, V-B:PRO:540:CB:9857, V-B:LEU:363:CD1:8160, V-B:ILE:538:CG2:9835, V-B:ILE:538:CB:9834, V-B:ILE:538:CA:9832, V-B:PRO:540:CD:9859, V-B:PRO:540:N:9856, V-A:LEU:475:CD2:4256, V-B:TYR:539:C:9839, V-B:TYR:539:CE1:9847, V-B:TYR:539:CD1:9845, V-B:TYR:539:CG:9844, V-B:TYR:539:CZ:9849, V-A:ILE:369:CD1:3236, V-B:TYR:531:CE2:9765, V-A:ILE:369:CG2:3234, V-A:GLY:454:CA:4046, V-B:TYR:531:CZ:9766, V-B:TYR:539:CA:9841, H-B:ALA:541:N:9863, H-B:TYR:539:O:9840, V-B:TYR:539:CD2:9846, V-A:PRO:482:CG:4324, V-A:SER:385:CB:3406, V-A:SER:385:CA:3404, V-B:TYR:539:CB:9843, V-A:HIS:383:CG:3387, V-A:LEU:373:CD2:3278, V-A:HIS:383:CB:3386, V-A:LEU:373:CD1:3277, V-A:GLY:453:C:4039, V-A:VAL:384:C:3394, V-B:VAL:344:CG1:7972, V-A:SER:385:C:3402, V-A:HIS:383:CD2:3389"]

$$$$
3bk_Grossjean_2025
     RDKit          3D

 57 58  0  0  0  0  0  0  0  0999 V2000
  124.1920  123.6280   58.3140 C   0  0  0  0  0  0  0  0  0  0  0  0
  124.5000  122.6970   57.2880 O   0  0  0  0  0  0  0  0  0  0  0  0
  124.9220  123.3090   56.0770 C   0  0  0  0  0  0  0  0  0  0  0  0
  126.4200  123.0490   55.8630 C   0  0  0  0  0  0  0  0  0  0  0  0
  126.8960  122.1770   56.8780 O   0  0  0  0  0  0  0  0  0  0  0  0
  128.2860  122.3120   57.1460 C   0  0  0  0  0  0  0  0  0  0  0  0
  128.4890  123.3470   58.2600 C   0  0  0  0  0  0  0  0  0  0  0  0
  129.7700  123.9460   58.1200 O   0  0  0  0  0  0  0  0  0  0  0  0
  130.1160  124.8200   59.1860 C   0  0  0  0  0  0  0  0  0  0  0  0
  131.4080  125.5710   58.8320 C   0  0  0  0  0  0  0  0  0  0  0  0
  132.5150  125.2280   59.7260 N   0  0  0  0  0  0  0  0  0  0  0  0
  133.4550  124.2980   59.4820 C   0  0  0  0  0  0  0  0  0  0  0  0
  133.5030  123.6290   58.4490 O   0  0  0  0  0  0  0  0  0  0  0  0
  134.5240  124.1100   60.5620 C   0  0  0  0  0  0  0  0  0  0  0  0
  133.8070  123.5470   62.1380 S   0  0  0  0  0  0  0  0  0  0  0  0
  132.3360  122.5940   61.8010 C   0  0  0  0  0  0  0  0  0  0  0  0
  132.5370  121.3040   61.4300 N   0  0  0  0  0  0  0  0  0  0  0  0
  131.4740  120.5040   61.1500 C   0  0  0  0  0  0  0  0  0  0  0  0
  131.7840  119.0880   60.7680 C   0  0  0  0  0  0  0  0  0  0  0  0
  130.7520  118.1550   60.5750 C   0  0  0  0  0  0  0  0  0  0  0  0
  131.0350  116.8360   60.2270 C   0  0  0  0  0  0  0  0  0  0  0  0
  132.3560  116.4320   60.0650 C   0  0  0  0  0  0  0  0  0  0  0  0
  133.3960  117.3380   60.2460 C   0  0  0  0  0  0  0  0  0  0  0  0
  133.1100  118.6550   60.5930 C   0  0  0  0  0  0  0  0  0  0  0  0
  130.1650  120.9910   61.2440 C   0  0  0  0  0  0  0  0  0  0  0  0
  129.9400  122.3180   61.6240 C   0  0  0  0  0  0  0  0  0  0  0  0
  128.4960  122.8090   61.7140 C   0  0  0  0  0  0  0  0  0  0  0  0
  131.0430  123.1500   61.9110 C   0  0  0  0  0  0  0  0  0  0  0  0
  130.8370  124.5440   62.3140 C   0  0  0  0  0  0  0  0  0  0  0  0
  130.6750  125.6450   62.6310 N   0  0  0  0  0  0  0  0  0  0  0  0
  124.3479  123.1567   59.2956 H   0  0  0  0  0  0  0  0  0  0  0  0
  124.8474  124.5065   58.2208 H   0  0  0  0  0  0  0  0  0  0  0  0
  123.1420  123.9423   58.2208 H   0  0  0  0  0  0  0  0  0  0  0  0
  124.3533  122.8863   55.2357 H   0  0  0  0  0  0  0  0  0  0  0  0
  124.7440  124.3930   56.1343 H   0  0  0  0  0  0  0  0  0  0  0  0
  126.5751  122.5850   54.8778 H   0  0  0  0  0  0  0  0  0  0  0  0
  126.9689  124.0012   55.9087 H   0  0  0  0  0  0  0  0  0  0  0  0
  128.6944  121.3422   57.4665 H   0  0  0  0  0  0  0  0  0  0  0  0
  128.8065  122.6436   56.2354 H   0  0  0  0  0  0  0  0  0  0  0  0
  127.7116  124.1218   58.1872 H   0  0  0  0  0  0  0  0  0  0  0  0
  128.4204  122.8509   59.2394 H   0  0  0  0  0  0  0  0  0  0  0  0
  129.3031  125.5436   59.3457 H   0  0  0  0  0  0  0  0  0  0  0  0
  130.2713  124.2351   60.1046 H   0  0  0  0  0  0  0  0  0  0  0  0
  131.6941  125.3154   57.8011 H   0  0  0  0  0  0  0  0  0  0  0  0
  131.2106  126.6477   58.9400 H   0  0  0  0  0  0  0  0  0  0  0  0
  132.5840  125.7730   60.5720 H   0  0  0  0  0  0  0  0  0  0  0  0
  135.2519  123.3617   60.2152 H   0  0  0  0  0  0  0  0  0  0  0  0
  135.0070  125.0829   60.7360 H   0  0  0  0  0  0  0  0  0  0  0  0
  129.7056  118.4702   60.7004 H   0  0  0  0  0  0  0  0  0  0  0  0
  130.2161  116.1162   60.0808 H   0  0  0  0  0  0  0  0  0  0  0  0
  132.5797  115.3901   59.7922 H   0  0  0  0  0  0  0  0  0  0  0  0
  134.4394  117.0150   60.1155 H   0  0  0  0  0  0  0  0  0  0  0  0
  133.9351  119.3690   60.7327 H   0  0  0  0  0  0  0  0  0  0  0  0
  129.3144  120.3308   61.0193 H   0  0  0  0  0  0  0  0  0  0  0  0
  128.2073  122.9072   62.7709 H   0  0  0  0  0  0  0  0  0  0  0  0
  128.4097  123.7870   61.2180 H   0  0  0  0  0  0  0  0  0  0  0  0
  127.8314  122.0863   61.2180 H   0  0  0  0  0  0  0  0  0  0  0  0
  1  2  1  0
  2  3  1  0
  3  4  1  0
  4  5  1  0
  5  6  1  0
  6  7  1  0
  7  8  1  0
  8  9  1  0
  9 10  1  0
 10 11  1  0
 11 12  1  0
 12 13  2  0
 12 14  1  0
 14 15  1  0
 15 16  1  0
 16 17  2  0
 17 18  1  0
 18 19  1  0
 19 20  2  0
 20 21  1  0
 21 22  2  0
 22 23  1  0
 23 24  2  0
 18 25  2  0
 25 26  1  0
 26 27  1  0
 26 28  2  0
 28 29  1  0
 29 30  3  0
 28 16  1  0
 24 19  1  0
  1 31  1  0
  1 32  1  0
  1 33  1  0
  3 34  1  0
  3 35  1  0
  4 36  1  0
  4 37  1  0
  6 38  1  0
  6 39  1  0
  7 40  1  0
  7 41  1  0
  9 42  1  0
  9 43  1  0
 10 44  1  0
 10 45  1  0
 11 46  1  0
 14 47  1  0
 14 48  1  0
 20 49  1  0
 21 50  1  0
 22 51  1  0
 23 52  1  0
 24 53  1  0
 25 54  1  0
 27 55  1  0
 27 56  1  0
 27 57  1  0
M  END
>  <Binding energies>  (1) 
[-8.12]

>  <Ligand effiencies>  (1) 
[-0.2619354838709677]

>  <Interactions>  (1) 
["V-A:ASP:366:CG:3210, V-A:ASP:366:CB:3209, V-B:PRO:540:CA:9855, V-B:ALA:541:CB:9864, V-B:LEU:363:CA:8156, V-B:PRO:540:CB:9857, V-B:LEU:363:CD1:8160, V-B:MET:535:CE:9807, V-A:ASP:366:CA:3207, V-B:ILE:538:CG2:9835, V-B:ILE:538:CB:9834, V-B:ILE:538:CA:9832, V-B:PRO:540:N:9856, V-A:LEU:475:CD2:4256, V-B:TYR:539:C:9839, V-B:TYR:539:CE1:9847, V-B:TYR:539:CD1:9845, V-B:TYR:539:CG:9844, V-A:ILE:369:CB:3233, H-B:TYR:539:N:9842, V-B:TYR:539:CZ:9849, V-A:ILE:369:CD1:3236, V-B:TYR:531:CE2:9765, V-A:ILE:369:CG1:3235, V-A:ILE:369:CG2:3234, H-B:TYR:539:OH:9850, H-A:ASP:366:OD2:3212, H-A:GLY:454:N:4047, H-A:ASP:366:OD1:3211, V-B:TYR:531:CZ:9766, V-B:TYR:539:CE2:9848, V-B:TYR:539:CA:9841, V-B:TYR:539:CD2:9846, V-A:PRO:482:CG:4324, V-A:SER:385:CB:3406, V-A:PRO:482:CB:4323, V-A:SER:385:CA:3404, V-B:TYR:539:CB:9843, V-A:LEU:373:CD1:3277, V-A:VAL:384:C:3394, V-B:VAL:344:CG1:7972"]

$$$$
3ca_Grossjean_2025
     RDKit          3D

 52 54  0  0  0  0  0  0  0  0999 V2000
  130.8860  114.7100   60.2930 C   0  0  0  0  0  0  0  0  0  0  0  0
  131.2230  115.0350   58.8350 C   0  0  0  0  0  0  0  0  0  0  0  0
  131.9130  116.2770   58.7750 O   0  0  0  0  0  0  0  0  0  0  0  0
  132.7740  116.6500   59.7550 C   0  0  0  0  0  0  0  0  0  0  0  0
  133.6830  115.9270   60.1740 O   0  0  0  0  0  0  0  0  0  0  0  0
  132.5150  118.0350   60.2780 C   0  0  0  0  0  0  0  0  0  0  0  0
  131.2500  118.3460   60.7930 C   0  0  0  0  0  0  0  0  0  0  0  0
  130.9790  119.6200   61.2850 C   0  0  0  0  0  0  0  0  0  0  0  0
  131.9630  120.6100   61.2650 C   0  0  0  0  0  0  0  0  0  0  0  0
  131.5850  121.8610   61.7870 N   0  0  0  0  0  0  0  0  0  0  0  0
  132.2310  122.6610   62.6620 C   0  0  0  0  0  0  0  0  0  0  0  0
  133.3300  122.4270   63.1630 O   0  0  0  0  0  0  0  0  0  0  0  0
  131.5090  123.9670   63.0120 C   0  0  0  0  0  0  0  0  0  0  0  0
  129.7370  123.9430   62.5850 S   0  0  0  0  0  0  0  0  0  0  0  0
  129.5380  124.0350   60.8100 C   0  0  0  0  0  0  0  0  0  0  0  0
  130.6620  124.3270   60.1080 N   0  0  0  0  0  0  0  0  0  0  0  0
  130.5910  124.3920   58.7600 C   0  0  0  0  0  0  0  0  0  0  0  0
  131.8910  124.7040   58.0470 C   0  0  0  0  0  0  0  0  0  0  0  0
  129.4030  124.1860   58.0620 C   0  0  0  0  0  0  0  0  0  0  0  0
  128.2260  123.9010   58.7650 C   0  0  0  0  0  0  0  0  0  0  0  0
  126.9740  123.7010   57.9750 C   0  0  0  0  0  0  0  0  0  0  0  0
  125.8150  124.4160   58.3020 C   0  0  0  0  0  0  0  0  0  0  0  0
  124.6410  124.2290   57.5770 C   0  0  0  0  0  0  0  0  0  0  0  0
  124.6200  123.3210   56.5220 C   0  0  0  0  0  0  0  0  0  0  0  0
  125.7620  122.5980   56.1870 C   0  0  0  0  0  0  0  0  0  0  0  0
  126.9340  122.7870   56.9150 C   0  0  0  0  0  0  0  0  0  0  0  0
  128.2910  123.8130   60.1800 C   0  0  0  0  0  0  0  0  0  0  0  0
  127.1020  123.4680   60.9660 C   0  0  0  0  0  0  0  0  0  0  0  0
  126.1630  123.1950   61.5860 N   0  0  0  0  0  0  0  0  0  0  0  0
  133.2350  120.3040   60.7580 C   0  0  0  0  0  0  0  0  0  0  0  0
  133.5040  119.0290   60.2680 C   0  0  0  0  0  0  0  0  0  0  0  0
  131.5161  115.3176   60.9592 H   0  0  0  0  0  0  0  0  0  0  0  0
  129.8265  114.9359   60.4836 H   0  0  0  0  0  0  0  0  0  0  0  0
  131.0734  113.6430   60.4836 H   0  0  0  0  0  0  0  0  0  0  0  0
  131.8606  114.2406   58.4199 H   0  0  0  0  0  0  0  0  0  0  0  0
  130.2942  115.1021   58.2495 H   0  0  0  0  0  0  0  0  0  0  0  0
  130.4637  117.5769   60.8089 H   0  0  0  0  0  0  0  0  0  0  0  0
  129.9829  119.8479   61.6922 H   0  0  0  0  0  0  0  0  0  0  0  0
  130.7240  122.2250   61.4060 H   0  0  0  0  0  0  0  0  0  0  0  0
  131.6058  124.1412   64.0938 H   0  0  0  0  0  0  0  0  0  0  0  0
  131.9772  124.7683   62.4215 H   0  0  0  0  0  0  0  0  0  0  0  0
  132.6802  124.8934   58.7895 H   0  0  0  0  0  0  0  0  0  0  0  0
  132.1779  123.8492   57.4169 H   0  0  0  0  0  0  0  0  0  0  0  0
  131.7587  125.5959   57.4169 H   0  0  0  0  0  0  0  0  0  0  0  0
  129.3897  124.2470   56.9638 H   0  0  0  0  0  0  0  0  0  0  0  0
  125.8323  125.1308   59.1380 H   0  0  0  0  0  0  0  0  0  0  0  0
  123.7348  124.7959   57.8366 H   0  0  0  0  0  0  0  0  0  0  0  0
  123.6933  123.1734   55.9480 H   0  0  0  0  0  0  0  0  0  0  0  0
  125.7385  121.8819   55.3523 H   0  0  0  0  0  0  0  0  0  0  0  0
  127.8359  122.2134   56.6551 H   0  0  0  0  0  0  0  0  0  0  0  0
  134.0213  121.0731   60.7477 H   0  0  0  0  0  0  0  0  0  0  0  0
  134.5028  118.7989   59.8688 H   0  0  0  0  0  0  0  0  0  0  0  0
  1  2  1  0
  2  3  1  0
  3  4  1  0
  4  5  2  0
  4  6  1  0
  6  7  2  0
  7  8  1  0
  8  9  2  0
  9 10  1  0
 10 11  1  0
 11 12  2  0
 11 13  1  0
 13 14  1  0
 14 15  1  0
 15 16  2  0
 16 17  1  0
 17 18  1  0
 17 19  2  0
 19 20  1  0
 20 21  1  0
 21 22  2  0
 22 23  1  0
 23 24  2  0
 24 25  1  0
 25 26  2  0
 20 27  2  0
 27 28  1  0
 28 29  3  0
  9 30  1  0
 30 31  2  0
 31  6  1  0
 27 15  1  0
 26 21  1  0
  1 32  1  0
  1 33  1  0
  1 34  1  0
  2 35  1  0
  2 36  1  0
  7 37  1  0
  8 38  1  0
 10 39  1  0
 13 40  1  0
 13 41  1  0
 18 42  1  0
 18 43  1  0
 18 44  1  0
 19 45  1  0
 22 46  1  0
 23 47  1  0
 24 48  1  0
 25 49  1  0
 26 50  1  0
 30 51  1  0
 31 52  1  0
M  END
>  <Binding energies>  (1) 
[-9.11]

>  <Ligand effiencies>  (1) 
[-0.2846875]

>  <Interactions>  (1) 
["V-B:PRO:540:CA:9855, V-B:LEU:363:CD1:8160, V-B:ILE:538:CG2:9835, V-B:ILE:538:CB:9834, V-B:ILE:538:CA:9832, V-B:PRO:540:CD:9859, V-B:PRO:540:N:9856, V-A:LEU:475:CD2:4256, V-B:TYR:539:C:9839, V-B:TYR:539:CE1:9847, V-B:TYR:539:CD1:9845, V-B:TYR:539:CZ:9849, V-B:TYR:531:CE2:9765, V-A:ILE:369:CG2:3234, H-A:GLY:454:N:4047, V-B:TYR:531:CZ:9766, H-B:ALA:541:N:9863, V-A:PRO:482:CG:4324, V-A:SER:385:CB:3406, V-A:SER:385:CA:3404, V-A:HIS:383:CG:3387, V-A:LEU:373:CD2:3278, V-A:LEU:373:CD1:3277, V-B:VAL:344:CG1:7972, V-B:ILE:343:CD1:7965, V-A:HIS:383:CD2:3389, V-A:HIS:383:CE1:3391, H-A:SER:385:N:3405"]

$$$$
3cb_Grossjean_2025
     RDKit          3D

 49 51  0  0  0  0  0  0  0  0999 V2000
  133.3940  114.7910   61.1420 C   0  0  0  0  0  0  0  0  0  0  0  0
  132.0220  114.9360   60.8050 O   0  0  0  0  0  0  0  0  0  0  0  0
  131.6280  115.8020   59.8370 C   0  0  0  0  0  0  0  0  0  0  0  0
  131.2280  115.4430   58.7250 O   0  0  0  0  0  0  0  0  0  0  0  0
  131.7280  117.2420   60.2510 C   0  0  0  0  0  0  0  0  0  0  0  0
  130.6040  117.9820   60.6470 C   0  0  0  0  0  0  0  0  0  0  0  0
  130.7320  119.3140   61.0280 C   0  0  0  0  0  0  0  0  0  0  0  0
  131.9810  119.9380   61.0170 C   0  0  0  0  0  0  0  0  0  0  0  0
  131.9950  121.2870   61.4240 N   0  0  0  0  0  0  0  0  0  0  0  0
  133.0310  122.1450   61.5490 C   0  0  0  0  0  0  0  0  0  0  0  0
  134.2060  121.8740   61.2930 O   0  0  0  0  0  0  0  0  0  0  0  0
  132.6400  123.5490   62.0340 C   0  0  0  0  0  0  0  0  0  0  0  0
  130.8450  123.8780   62.0710 S   0  0  0  0  0  0  0  0  0  0  0  0
  130.2880  124.0510   60.3890 C   0  0  0  0  0  0  0  0  0  0  0  0
  131.2330  124.5520   59.5560 N   0  0  0  0  0  0  0  0  0  0  0  0
  130.9220  124.7270   58.2530 C   0  0  0  0  0  0  0  0  0  0  0  0
  132.0310  125.2790   57.3780 C   0  0  0  0  0  0  0  0  0  0  0  0
  129.6680  124.4170   57.7330 C   0  0  0  0  0  0  0  0  0  0  0  0
  128.6710  123.9130   58.5770 C   0  0  0  0  0  0  0  0  0  0  0  0
  127.3390  123.6020   57.9730 C   0  0  0  0  0  0  0  0  0  0  0  0
  127.2570  122.8060   56.8230 C   0  0  0  0  0  0  0  0  0  0  0  0
  126.0210  122.5010   56.2580 C   0  0  0  0  0  0  0  0  0  0  0  0
  124.8570  122.9900   56.8460 C   0  0  0  0  0  0  0  0  0  0  0  0
  124.9200  123.7760   57.9930 C   0  0  0  0  0  0  0  0  0  0  0  0
  126.1570  124.0770   58.5560 C   0  0  0  0  0  0  0  0  0  0  0  0
  128.9770  123.7360   59.9520 C   0  0  0  0  0  0  0  0  0  0  0  0
  127.9450  123.3010   60.8980 C   0  0  0  0  0  0  0  0  0  0  0  0
  127.1310  122.9570   61.6450 N   0  0  0  0  0  0  0  0  0  0  0  0
  133.1110  119.2040   60.6260 C   0  0  0  0  0  0  0  0  0  0  0  0
  132.9810  117.8700   60.2460 C   0  0  0  0  0  0  0  0  0  0  0  0
  133.5035  114.7794   62.2365 H   0  0  0  0  0  0  0  0  0  0  0  0
  133.7762  113.8475   60.7253 H   0  0  0  0  0  0  0  0  0  0  0  0
  133.9650  115.6338   60.7253 H   0  0  0  0  0  0  0  0  0  0  0  0
  129.6128  117.5050   60.6564 H   0  0  0  0  0  0  0  0  0  0  0  0
  129.8421  119.8800   61.3404 H   0  0  0  0  0  0  0  0  0  0  0  0
  131.0800  121.6650   61.6270 H   0  0  0  0  0  0  0  0  0  0  0  0
  133.0323  123.6798   63.0533 H   0  0  0  0  0  0  0  0  0  0  0  0
  133.0680  124.2561   61.3082 H   0  0  0  0  0  0  0  0  0  0  0  0
  132.8348  125.6791   58.0135 H   0  0  0  0  0  0  0  0  0  0  0  0
  132.4315  124.4751   56.7429 H   0  0  0  0  0  0  0  0  0  0  0  0
  131.6311  126.0832   56.7429 H   0  0  0  0  0  0  0  0  0  0  0  0
  129.4614  124.5675   56.6631 H   0  0  0  0  0  0  0  0  0  0  0  0
  128.1774  122.4183   56.3620 H   0  0  0  0  0  0  0  0  0  0  0  0
  125.9645  121.8779   55.3532 H   0  0  0  0  0  0  0  0  0  0  0  0
  123.8797  122.7531   56.4002 H   0  0  0  0  0  0  0  0  0  0  0  0
  123.9963  124.1576   58.4526 H   0  0  0  0  0  0  0  0  0  0  0  0
  126.2068  124.6928   59.4661 H   0  0  0  0  0  0  0  0  0  0  0  0
  134.1014  119.6827   60.6195 H   0  0  0  0  0  0  0  0  0  0  0  0
  133.8720  117.3030   59.9385 H   0  0  0  0  0  0  0  0  0  0  0  0
  1  2  1  0
  2  3  1  0
  3  4  2  0
  3  5  1  0
  5  6  2  0
  6  7  1  0
  7  8  2  0
  8  9  1  0
  9 10  1  0
 10 11  2  0
 10 12  1  0
 12 13  1  0
 13 14  1  0
 14 15  2  0
 15 16  1  0
 16 17  1  0
 16 18  2  0
 18 19  1  0
 19 20  1  0
 20 21  2  0
 21 22  1  0
 22 23  2  0
 23 24  1  0
 24 25  2  0
 19 26  2  0
 26 27  1  0
 27 28  3  0
  8 29  1  0
 29 30  2  0
 30  5  1  0
 26 14  1  0
 25 20  1  0
  1 31  1  0
  1 32  1  0
  1 33  1  0
  6 34  1  0
  7 35  1  0
  9 36  1  0
 12 37  1  0
 12 38  1  0
 17 39  1  0
 17 40  1  0
 17 41  1  0
 18 42  1  0
 21 43  1  0
 22 44  1  0
 23 45  1  0
 24 46  1  0
 25 47  1  0
 29 48  1  0
 30 49  1  0
M  END
>  <Binding energies>  (1) 
[-9.35]

>  <Ligand effiencies>  (1) 
[-0.3016129032258064]

>  <Interactions>  (1) 
["V-A:ASP:366:CB:3209, V-B:PRO:540:CA:9855, V-B:PRO:540:CB:9857, V-B:LEU:363:CD1:8160, V-B:ILE:538:CG2:9835, V-B:ILE:538:CB:9834, V-B:ILE:538:CA:9832, V-B:PRO:540:CD:9859, V-B:PRO:540:N:9856, V-A:LEU:475:CD2:4256, V-B:TYR:539:C:9839, V-B:TYR:539:CE1:9847, V-B:TYR:539:CD1:9845, V-B:TYR:539:CZ:9849, V-B:TYR:531:CE2:9765, V-A:ILE:369:CG2:3234, H-B:ALA:541:N:9863, V-B:ILE:538:C:9830, V-A:PRO:482:CG:4324, V-A:SER:385:CB:3406, V-A:PRO:482:CB:4323, V-A:SER:385:CA:3404, V-B:TYR:539:CB:9843, V-A:HIS:383:CG:3387, V-A:HIS:383:CB:3386, V-A:LEU:373:CD1:3277, V-B:VAL:344:CG1:7972, V-A:THR:477:CA:4267, V-A:THR:477:CG2:4270, V-A:THR:477:CB:4269"]

$$$$
3ce_Grossjean_2025
     RDKit          3D

 45 47  0  0  0  0  0  0  0  0999 V2000
  130.8500  115.1760   58.3340 C   0  0  0  0  0  0  0  0  0  0  0  0
  131.5640  116.1230   59.2790 C   0  0  0  0  0  0  0  0  0  0  0  0
  132.8610  115.8640   59.7320 C   0  0  0  0  0  0  0  0  0  0  0  0
  133.4590  116.7850   60.5910 C   0  0  0  0  0  0  0  0  0  0  0  0
  132.7570  117.9300   60.9750 C   0  0  0  0  0  0  0  0  0  0  0  0
  131.4580  118.1230   60.4920 C   0  0  0  0  0  0  0  0  0  0  0  0
  130.8070  119.3010   60.8950 N   0  0  0  0  0  0  0  0  0  0  0  0
  131.3390  120.5300   61.0770 C   0  0  0  0  0  0  0  0  0  0  0  0
  132.5250  120.8190   60.9050 O   0  0  0  0  0  0  0  0  0  0  0  0
  130.3620  121.6170   61.5220 C   0  0  0  0  0  0  0  0  0  0  0  0
  130.9600  123.2810   61.1040 S   0  0  0  0  0  0  0  0  0  0  0  0
  130.1760  123.7040   59.5660 C   0  0  0  0  0  0  0  0  0  0  0  0
  131.0200  124.2280   58.6430 N   0  0  0  0  0  0  0  0  0  0  0  0
  130.5230  124.5680   57.4320 C   0  0  0  0  0  0  0  0  0  0  0  0
  131.5230  125.1360   56.4430 C   0  0  0  0  0  0  0  0  0  0  0  0
  129.1790  124.4130   57.1020 C   0  0  0  0  0  0  0  0  0  0  0  0
  128.2860  123.8970   58.0510 C   0  0  0  0  0  0  0  0  0  0  0  0
  126.8500  123.7730   57.6590 C   0  0  0  0  0  0  0  0  0  0  0  0
  126.4870  122.9870   56.5590 C   0  0  0  0  0  0  0  0  0  0  0  0
  125.1510  122.8710   56.1850 C   0  0  0  0  0  0  0  0  0  0  0  0
  124.1710  123.5490   56.9050 C   0  0  0  0  0  0  0  0  0  0  0  0
  124.5170  124.3430   57.9950 C   0  0  0  0  0  0  0  0  0  0  0  0
  125.8530  124.4560   58.3680 C   0  0  0  0  0  0  0  0  0  0  0  0
  128.7930  123.5260   59.3210 C   0  0  0  0  0  0  0  0  0  0  0  0
  127.9100  122.9660   60.3500 C   0  0  0  0  0  0  0  0  0  0  0  0
  127.2120  122.5250   61.1600 N   0  0  0  0  0  0  0  0  0  0  0  0
  130.8680  117.2300   59.6440 N   0  0  0  0  0  0  0  0  0  0  0  0
  130.2883  114.4310   58.9166 H   0  0  0  0  0  0  0  0  0  0  0  0
  130.1547  115.7457   57.7000 H   0  0  0  0  0  0  0  0  0  0  0  0
  131.5890  114.6643   57.7000 H   0  0  0  0  0  0  0  0  0  0  0  0
  133.3966  114.9558   59.4184 H   0  0  0  0  0  0  0  0  0  0  0  0
  134.4788  116.6108   60.9646 H   0  0  0  0  0  0  0  0  0  0  0  0
  133.2184  118.6687   61.6469 H   0  0  0  0  0  0  0  0  0  0  0  0
  129.8020  119.2270   60.9710 H   0  0  0  0  0  0  0  0  0  0  0  0
  129.3953  121.4514   61.0239 H   0  0  0  0  0  0  0  0  0  0  0  0
  130.2612  121.5566   62.6157 H   0  0  0  0  0  0  0  0  0  0  0  0
  132.3527  125.6073   56.9903 H   0  0  0  0  0  0  0  0  0  0  0  0
  131.9143  124.3254   55.8108 H   0  0  0  0  0  0  0  0  0  0  0  0
  131.0272  125.8873   55.8108 H   0  0  0  0  0  0  0  0  0  0  0  0
  128.8199  124.6943   56.1010 H   0  0  0  0  0  0  0  0  0  0  0  0
  127.2626  122.4574   55.9863 H   0  0  0  0  0  0  0  0  0  0  0  0
  124.8708  122.2462   55.3241 H   0  0  0  0  0  0  0  0  0  0  0  0
  123.1152  123.4566   56.6104 H   0  0  0  0  0  0  0  0  0  0  0  0
  123.7385  124.8782   58.5584 H   0  0  0  0  0  0  0  0  0  0  0  0
  126.1284  125.0865   59.2262 H   0  0  0  0  0  0  0  0  0  0  0  0
  1  2  1  0
  2  3  2  0
  3  4  1  0
  4  5  2  0
  5  6  1  0
  6  7  1  0
  7  8  1  0
  8  9  2  0
  8 10  1  0
 10 11  1  0
 11 12  1  0
 12 13  2  0
 13 14  1  0
 14 15  1  0
 14 16  2  0
 16 17  1  0
 17 18  1  0
 18 19  2  0
 19 20  1  0
 20 21  2  0
 21 22  1  0
 22 23  2  0
 17 24  2  0
 24 25  1  0
 25 26  3  0
  6 27  2  0
 27  2  1  0
 24 12  1  0
 23 18  1  0
  1 28  1  0
  1 29  1  0
  1 30  1  0
  3 31  1  0
  4 32  1  0
  5 33  1  0
  7 34  1  0
 10 35  1  0
 10 36  1  0
 15 37  1  0
 15 38  1  0
 15 39  1  0
 16 40  1  0
 19 41  1  0
 20 42  1  0
 21 43  1  0
 22 44  1  0
 23 45  1  0
M  END
>  <Binding energies>  (1) 
[-9.42]

>  <Ligand effiencies>  (1) 
[-0.3364285714285714]

>  <Interactions>  (1) 
["V-B:ASP:366:CG:8184, V-B:ASP:366:CB:8183, V-B:PRO:540:CA:9855, V-B:ALA:541:CB:9864, V-B:LEU:363:CD1:8160, V-B:MET:535:CE:9807, V-B:ILE:538:CG2:9835, V-B:ILE:538:CB:9834, V-B:PRO:540:CD:9859, V-A:LEU:475:CD2:4256, V-B:TYR:539:CE1:9847, V-B:TYR:539:CD1:9845, V-B:TYR:539:CZ:9849, V-B:TYR:531:CE2:9765, H-B:TYR:539:OH:9850, V-B:TYR:531:CZ:9766, H-B:ALA:541:N:9863, H-B:TYR:539:O:9840, V-A:PRO:482:CG:4324, V-A:SER:385:CB:3406, V-A:SER:385:CA:3404, V-B:TYR:539:CB:9843, V-A:HIS:383:CG:3387, V-A:LEU:373:CD2:3278, V-A:HIS:383:CB:3386, V-A:LEU:373:CD1:3277, V-A:VAL:384:C:3394, V-B:VAL:344:CG1:7972, V-B:ILE:343:CD1:7965, V-A:HIS:383:CD2:3389, V-A:HIS:383:CE1:3391, V-B:ILE:343:CG1:7964"]

$$$$
3ch_Grossjean_2025
     RDKit          3D

 55 57  0  0  0  0  0  0  0  0999 V2000
  129.7110  121.9830   61.3890 C   0  0  0  0  0  0  0  0  0  0  0  0
  130.9640  122.6120   61.6410 O   0  0  0  0  0  0  0  0  0  0  0  0
  131.0010  123.7970   62.3530 C   0  0  0  0  0  0  0  0  0  0  0  0
  129.9450  124.7210   62.3970 C   0  0  0  0  0  0  0  0  0  0  0  0
  130.0510  125.9000   63.1500 C   0  0  0  0  0  0  0  0  0  0  0  0
  129.0460  126.8800   63.2590 N   0  0  0  0  0  0  0  0  0  0  0  0
  128.9190  128.0600   62.6130 C   0  0  0  0  0  0  0  0  0  0  0  0
  129.6950  128.4970   61.7640 O   0  0  0  0  0  0  0  0  0  0  0  0
  127.6720  128.8720   62.9640 C   0  0  0  0  0  0  0  0  0  0  0  0
  127.8780  130.6390   62.5960 S   0  0  0  0  0  0  0  0  0  0  0  0
  128.0470  130.7580   60.8280 C   0  0  0  0  0  0  0  0  0  0  0  0
  126.9260  130.4200   60.1440 N   0  0  0  0  0  0  0  0  0  0  0  0
  126.9540  130.4710   58.7930 C   0  0  0  0  0  0  0  0  0  0  0  0
  125.6690  130.0750   58.0910 C   0  0  0  0  0  0  0  0  0  0  0  0
  128.0870  130.8530   58.0790 C   0  0  0  0  0  0  0  0  0  0  0  0
  129.2530  131.2140   58.7680 C   0  0  0  0  0  0  0  0  0  0  0  0
  130.4480  131.6080   57.9600 C   0  0  0  0  0  0  0  0  0  0  0  0
  130.3450  132.6260   57.0050 C   0  0  0  0  0  0  0  0  0  0  0  0
  131.4510  132.9930   56.2420 C   0  0  0  0  0  0  0  0  0  0  0  0
  132.6660  132.3390   56.4310 C   0  0  0  0  0  0  0  0  0  0  0  0
  132.7830  131.3200   57.3720 C   0  0  0  0  0  0  0  0  0  0  0  0
  131.6740  130.9550   58.1320 C   0  0  0  0  0  0  0  0  0  0  0  0
  129.2340  131.1850   60.1860 C   0  0  0  0  0  0  0  0  0  0  0  0
  130.3930  131.6420   60.9600 C   0  0  0  0  0  0  0  0  0  0  0  0
  131.3080  132.0000   61.5710 N   0  0  0  0  0  0  0  0  0  0  0  0
  131.2340  126.1580   63.8440 C   0  0  0  0  0  0  0  0  0  0  0  0
  132.3050  125.2510   63.8140 C   0  0  0  0  0  0  0  0  0  0  0  0
  133.5000  125.4440   64.4860 O   0  0  0  0  0  0  0  0  0  0  0  0
  133.5030  125.4950   65.9090 C   0  0  0  0  0  0  0  0  0  0  0  0
  132.1770  124.0760   63.0630 C   0  0  0  0  0  0  0  0  0  0  0  0
  133.2120  123.1710   63.0390 O   0  0  0  0  0  0  0  0  0  0  0  0
  133.9040  123.1150   61.8000 C   0  0  0  0  0  0  0  0  0  0  0  0
  129.2245  121.7388   62.3449 H   0  0  0  0  0  0  0  0  0  0  0  0
  129.0675  122.6649   60.8138 H   0  0  0  0  0  0  0  0  0  0  0  0
  129.8734  121.0596   60.8138 H   0  0  0  0  0  0  0  0  0  0  0  0
  129.0223  124.5179   61.8336 H   0  0  0  0  0  0  0  0  0  0  0  0
  128.2950  126.6340   63.8870 H   0  0  0  0  0  0  0  0  0  0  0  0
  126.8222  128.4856   62.3821 H   0  0  0  0  0  0  0  0  0  0  0  0
  127.4960  128.7704   64.0451 H   0  0  0  0  0  0  0  0  0  0  0  0
  124.8997  129.8379   58.8407 H   0  0  0  0  0  0  0  0  0  0  0  0
  125.3232  130.9083   57.4616 H   0  0  0  0  0  0  0  0  0  0  0  0
  125.8522  129.1916   57.4616 H   0  0  0  0  0  0  0  0  0  0  0  0
  128.0669  130.8713   56.9793 H   0  0  0  0  0  0  0  0  0  0  0  0
  129.3839  133.1398   56.8560 H   0  0  0  0  0  0  0  0  0  0  0  0
  131.3653  133.7951   55.4941 H   0  0  0  0  0  0  0  0  0  0  0  0
  133.5409  132.6303   55.8313 H   0  0  0  0  0  0  0  0  0  0  0  0
  133.7451  130.8062   57.5146 H   0  0  0  0  0  0  0  0  0  0  0  0
  131.7625  130.1471   58.8732 H   0  0  0  0  0  0  0  0  0  0  0  0
  131.3288  127.0877   64.4243 H   0  0  0  0  0  0  0  0  0  0  0  0
  133.4429  124.4735   66.3126 H   0  0  0  0  0  0  0  0  0  0  0  0
  134.4308  125.9727   66.2568 H   0  0  0  0  0  0  0  0  0  0  0  0
  132.6376  126.0782   66.2568 H   0  0  0  0  0  0  0  0  0  0  0  0
  134.9844  123.0276   61.9871 H   0  0  0  0  0  0  0  0  0  0  0  0
  133.5593  122.2418   61.2266 H   0  0  0  0  0  0  0  0  0  0  0  0
  133.7042  124.0322   61.2266 H   0  0  0  0  0  0  0  0  0  0  0  0
  1  2  1  0
  2  3  1  0
  3  4  2  0
  4  5  1  0
  5  6  1  0
  6  7  1  0
  7  8  2  0
  7  9  1  0
  9 10  1  0
 10 11  1  0
 11 12  2  0
 12 13  1  0
 13 14  1  0
 13 15  2  0
 15 16  1  0
 16 17  1  0
 17 18  2  0
 18 19  1  0
 19 20  2  0
 20 21  1  0
 21 22  2  0
 16 23  2  0
 23 24  1  0
 24 25  3  0
  5 26  2  0
 26 27  1  0
 27 28  1  0
 28 29  1  0
 27 30  2  0
 30 31  1  0
 31 32  1  0
 30  3  1  0
 23 11  1  0
 22 17  1  0
  1 33  1  0
  1 34  1  0
  1 35  1  0
  4 36  1  0
  6 37  1  0
  9 38  1  0
  9 39  1  0
 14 40  1  0
 14 41  1  0
 14 42  1  0
 15 43  1  0
 18 44  1  0
 19 45  1  0
 20 46  1  0
 21 47  1  0
 22 48  1  0
 26 49  1  0
 29 50  1  0
 29 51  1  0
 29 52  1  0
 32 53  1  0
 32 54  1  0
 32 55  1  0
M  END
>  <Binding energies>  (1) 
[-7.7]

>  <Ligand effiencies>  (1) 
[-0.23333333333333334]

>  <Interactions>  (1) 
["V-A:TYR:531:CE2:4791, H-A:ALA:541:N:4889, V-A:PRO:540:CA:4881, V-A:ILE:538:CA:4858, V-A:LEU:363:CD1:3186, V-A:TYR:539:CZ:4875, V-A:TYR:539:CE1:4873, V-B:ALA:541:CB:9864, V-B:GLU:543:CD:9880, V-A:PRO:540:N:4882, V-A:TYR:539:C:4865, V-A:ILE:369:CD1:3236, V-A:ILE:538:CB:4860, V-A:PRO:540:CD:4885, V-A:ILE:538:CG2:4861, V-A:ILE:538:C:4856, H-A:GLY:454:N:4047, V-A:GLY:454:CA:4046, H-A:TYR:484:OH:4345, V-A:ARG:545:CG:4920, H-A:ARG:545:NH2:4926, V-A:ARG:545:CD:4921, V-A:HIS:456:CE1:4066, V-A:ARG:545:CZ:4924, V-A:GLU:543:CD:4906, H-A:GLU:543:OE2:4908, H-A:ARG:545:NE:4922, H-B:GLU:543:OE1:9881, H-B:GLU:543:OE2:9882, H-A:ARG:545:NH1:4925"]

$$$$
3ci_Grossjean_2025
     RDKit          3D

 39 41  0  0  0  0  0  0  0  0999 V2000
  130.1630  121.6980   61.9030 C   0  0  0  0  0  0  0  0  0  0  0  0
  129.9950  122.5060   60.6300 C   0  0  0  0  0  0  0  0  0  0  0  0
  128.8020  122.5010   59.9140 C   0  0  0  0  0  0  0  0  0  0  0  0
  128.6890  123.2770   58.7510 C   0  0  0  0  0  0  0  0  0  0  0  0
  127.3850  123.2540   58.0230 C   0  0  0  0  0  0  0  0  0  0  0  0
  127.3220  122.8650   56.6790 C   0  0  0  0  0  0  0  0  0  0  0  0
  126.1050  122.8530   56.0020 C   0  0  0  0  0  0  0  0  0  0  0  0
  124.9450  123.2370   56.6670 C   0  0  0  0  0  0  0  0  0  0  0  0
  124.9910  123.6350   58.0000 C   0  0  0  0  0  0  0  0  0  0  0  0
  126.2090  123.6450   58.6740 C   0  0  0  0  0  0  0  0  0  0  0  0
  129.8130  124.0380   58.3380 C   0  0  0  0  0  0  0  0  0  0  0  0
  129.7680  124.8360   57.1070 C   0  0  0  0  0  0  0  0  0  0  0  0
  129.7310  125.4650   56.1360 N   0  0  0  0  0  0  0  0  0  0  0  0
  130.9860  123.9890   59.1290 C   0  0  0  0  0  0  0  0  0  0  0  0
  132.4520  124.9250   58.7130 S   0  0  0  0  0  0  0  0  0  0  0  0
  133.9110  124.1400   59.4740 C   0  0  0  0  0  0  0  0  0  0  0  0
  133.7590  123.9080   60.9820 C   0  0  0  0  0  0  0  0  0  0  0  0
  133.9800  122.7860   61.4430 O   0  0  0  0  0  0  0  0  0  0  0  0
  133.3680  124.9810   61.7050 N   0  0  0  0  0  0  0  0  0  0  0  0
  133.1840  125.0470   63.0790 C   0  0  0  0  0  0  0  0  0  0  0  0
  131.9260  125.0380   63.6790 C   0  0  0  0  0  0  0  0  0  0  0  0
  132.1730  125.1210   65.0310 C   0  0  0  0  0  0  0  0  0  0  0  0
  133.5120  125.1760   65.2320 O   0  0  0  0  0  0  0  0  0  0  0  0
  134.1410  125.1300   63.9880 N   0  0  0  0  0  0  0  0  0  0  0  0
  131.0710  123.2290   60.2500 N   0  0  0  0  0  0  0  0  0  0  0  0
  130.0265  122.3547   62.7748 H   0  0  0  0  0  0  0  0  0  0  0  0
  129.4128  120.8939   61.9286 H   0  0  0  0  0  0  0  0  0  0  0  0
  131.1715  121.2595   61.9286 H   0  0  0  0  0  0  0  0  0  0  0  0
  127.9527  121.8923   60.2578 H   0  0  0  0  0  0  0  0  0  0  0  0
  128.2413  122.5665   56.1539 H   0  0  0  0  0  0  0  0  0  0  0  0
  126.0613  122.5418   54.9479 H   0  0  0  0  0  0  0  0  0  0  0  0
  123.9826  123.2260   56.1345 H   0  0  0  0  0  0  0  0  0  0  0  0
  124.0698  123.9400   58.5181 H   0  0  0  0  0  0  0  0  0  0  0  0
  126.2477  123.9626   59.7264 H   0  0  0  0  0  0  0  0  0  0  0  0
  134.0784  123.1682   58.9866 H   0  0  0  0  0  0  0  0  0  0  0  0
  134.7594  124.8260   59.3343 H   0  0  0  0  0  0  0  0  0  0  0  0
  133.2130  125.8430   61.2040 H   0  0  0  0  0  0  0  0  0  0  0  0
  130.9474  124.9776   63.1802 H   0  0  0  0  0  0  0  0  0  0  0  0
  131.4072  125.1397   65.8204 H   0  0  0  0  0  0  0  0  0  0  0  0
  1  2  1  0
  2  3  2  0
  3  4  1  0
  4  5  1  0
  5  6  2  0
  6  7  1  0
  7  8  2  0
  8  9  1  0
  9 10  2  0
  4 11  2  0
 11 12  1  0
 12 13  3  0
 11 14  1  0
 14 15  1  0
 15 16  1  0
 16 17  1  0
 17 18  2  0
 17 19  1  0
 19 20  1  0
 20 21  1  0
 21 22  2  0
 22 23  1  0
 23 24  1  0
 14 25  2  0
 25  2  1  0
 10  5  1  0
 24 20  2  0
  1 26  1  0
  1 27  1  0
  1 28  1  0
  3 29  1  0
  6 30  1  0
  7 31  1  0
  8 32  1  0
  9 33  1  0
 10 34  1  0
 16 35  1  0
 16 36  1  0
 19 37  1  0
 21 38  1  0
 22 39  1  0
M  END
>  <Binding energies>  (1) 
[-8.81]

>  <Ligand effiencies>  (1) 
[-0.33884615384615385]

>  <Interactions>  (1) 
["V-A:ASP:366:CG:3210, V-A:ASP:366:CB:3209, V-B:PRO:540:CA:9855, V-B:ALA:541:CB:9864, V-B:PRO:540:CB:9857, V-B:LEU:363:CD1:8160, V-B:MET:535:CE:9807, V-A:ASP:366:CA:3207, V-B:ILE:538:CG2:9835, V-B:ILE:538:CB:9834, V-B:ILE:538:CA:9832, V-B:PRO:540:N:9856, V-A:LEU:475:CD2:4256, V-B:TYR:539:C:9839, V-B:TYR:539:CE1:9847, V-B:TYR:539:CD1:9845, V-A:ILE:369:CB:3233, V-B:TYR:539:CZ:9849, V-A:ILE:369:CD1:3236, V-B:TYR:531:CE2:9765, V-A:ILE:369:CG2:3234, H-B:TYR:539:OH:9850, H-A:ASP:366:OD2:3212, H-A:GLY:454:N:4047, H-A:TYR:484:OH:4345, H-A:ASP:366:OD1:3211, H-A:ARG:545:NH2:4926, V-A:ARG:545:CZ:4924, H-A:ARG:545:NE:4922, H-A:ARG:545:NH1:4925"]

$$$$
3cj_Grossjean_2025
     RDKit          3D

 39 41  0  0  0  0  0  0  0  0999 V2000
  127.8480  133.2750   62.0390 C   0  0  0  0  0  0  0  0  0  0  0  0
  127.7020  132.5300   60.7260 C   0  0  0  0  0  0  0  0  0  0  0  0
  128.7080  132.5500   59.7620 C   0  0  0  0  0  0  0  0  0  0  0  0
  128.5410  131.8290   58.5720 C   0  0  0  0  0  0  0  0  0  0  0  0
  129.6710  131.8260   57.5970 C   0  0  0  0  0  0  0  0  0  0  0  0
  130.9510  131.4230   57.9930 C   0  0  0  0  0  0  0  0  0  0  0  0
  132.0070  131.4340   57.0850 C   0  0  0  0  0  0  0  0  0  0  0  0
  131.7860  131.8540   55.7770 C   0  0  0  0  0  0  0  0  0  0  0  0
  130.5200  132.2670   55.3700 C   0  0  0  0  0  0  0  0  0  0  0  0
  129.4660  132.2550   56.2800 C   0  0  0  0  0  0  0  0  0  0  0  0
  127.3280  131.1240   58.3750 C   0  0  0  0  0  0  0  0  0  0  0  0
  127.0820  130.3750   57.1390 C   0  0  0  0  0  0  0  0  0  0  0  0
  126.8890  129.7820   56.1630 N   0  0  0  0  0  0  0  0  0  0  0  0
  126.3650  131.1550   59.4080 C   0  0  0  0  0  0  0  0  0  0  0  0
  124.8590  130.2070   59.3480 S   0  0  0  0  0  0  0  0  0  0  0  0
  123.6910  131.1160   60.4090 C   0  0  0  0  0  0  0  0  0  0  0  0
  124.2120  131.2520   61.8440 C   0  0  0  0  0  0  0  0  0  0  0  0
  124.2340  132.3630   62.3790 O   0  0  0  0  0  0  0  0  0  0  0  0
  124.5830  130.0970   62.4370 N   0  0  0  0  0  0  0  0  0  0  0  0
  124.9570  129.9290   63.7600 C   0  0  0  0  0  0  0  0  0  0  0  0
  124.1770  129.8120   64.8120 N   0  0  0  0  0  0  0  0  0  0  0  0
  124.8770  129.6350   65.9150 C   0  0  0  0  0  0  0  0  0  0  0  0
  126.2600  129.6060   65.7700 C   0  0  0  0  0  0  0  0  0  0  0  0
  126.6570  129.8260   64.0920 S   0  0  0  0  0  0  0  0  0  0  0  0
  126.5530  131.8370   60.5660 N   0  0  0  0  0  0  0  0  0  0  0  0
  127.7106  132.5740   62.8755 H   0  0  0  0  0  0  0  0  0  0  0  0
  128.8510  133.7229   62.0969 H   0  0  0  0  0  0  0  0  0  0  0  0
  127.0882  134.0684   62.0969 H   0  0  0  0  0  0  0  0  0  0  0  0
  129.6278  133.1283   59.9341 H   0  0  0  0  0  0  0  0  0  0  0  0
  131.1245  131.0952   59.0286 H   0  0  0  0  0  0  0  0  0  0  0  0
  133.0106  131.1123   57.4003 H   0  0  0  0  0  0  0  0  0  0  0  0
  132.6186  131.8598   55.0582 H   0  0  0  0  0  0  0  0  0  0  0  0
  130.3534  132.6009   54.3352 H   0  0  0  0  0  0  0  0  0  0  0  0
  128.4659  132.5847   55.9621 H   0  0  0  0  0  0  0  0  0  0  0  0
  123.5371  132.1211   59.9894 H   0  0  0  0  0  0  0  0  0  0  0  0
  122.7474  130.5516   60.4402 H   0  0  0  0  0  0  0  0  0  0  0  0
  124.5000  129.2500   61.8940 H   0  0  0  0  0  0  0  0  0  0  0  0
  124.3939  129.5167   66.8961 H   0  0  0  0  0  0  0  0  0  0  0  0
  126.9852  129.4664   66.5852 H   0  0  0  0  0  0  0  0  0  0  0  0
  1  2  1  0
  2  3  2  0
  3  4  1  0
  4  5  1  0
  5  6  2  0
  6  7  1  0
  7  8  2  0
  8  9  1  0
  9 10  2  0
  4 11  2  0
 11 12  1  0
 12 13  3  0
 11 14  1  0
 14 15  1  0
 15 16  1  0
 16 17  1  0
 17 18  2  0
 17 19  1  0
 19 20  1  0
 20 21  2  0
 21 22  1  0
 22 23  2  0
 23 24  1  0
 14 25  2  0
 25  2  1  0
 10  5  1  0
 24 20  1  0
  1 26  1  0
  1 27  1  0
  1 28  1  0
  3 29  1  0
  6 30  1  0
  7 31  1  0
  8 32  1  0
  9 33  1  0
 10 34  1  0
 16 35  1  0
 16 36  1  0
 19 37  1  0
 22 38  1  0
 23 39  1  0
M  END
>  <Binding energies>  (1) 
[-8.49]

>  <Ligand effiencies>  (1) 
[-0.32653846153846156]

>  <Interactions>  (1) 
["V-A:MET:535:CE:4833, V-B:ASP:366:CG:8184, V-A:TYR:531:CZ:4792, V-A:TYR:531:CE2:4791, H-A:TYR:539:OH:4876, V-A:ILE:538:CA:4858, V-A:TYR:539:CZ:4875, V-A:TYR:539:CE1:4873, H-B:TYR:531:OH:9767, V-A:TYR:539:CD1:4871, V-B:ILE:369:CD1:8210, V-A:ALA:541:CB:4890, V-A:TYR:539:C:4865, V-B:ILE:369:CG2:8208, V-B:ARG:545:CZ:9898, V-A:ILE:538:CB:4860, V-A:ILE:538:CG2:4861, H-B:TYR:484:OH:9319, H-B:ASP:366:OD1:8185, H-B:ASP:366:OD2:8186, H-B:GLY:454:N:9021, V-B:ILE:369:CB:8207, V-B:HIS:456:CE1:9040, H-B:ARG:545:NH1:9899, H-B:ARG:545:NH2:9900, H-B:ARG:545:NE:9896, V-B:ARG:545:CD:9895, V-B:ARG:545:CG:9894, V-B:ASP:366:CA:8181"]

$$$$
3ck_Grossjean_2025
     RDKit          3D

 57 58  0  0  0  0  0  0  0  0999 V2000
  129.7520  127.2010   55.9590 C   0  0  0  0  0  0  0  0  0  0  0  0
  130.8340  126.5580   55.3030 O   0  0  0  0  0  0  0  0  0  0  0  0
  130.8530  125.1490   55.4910 C   0  0  0  0  0  0  0  0  0  0  0  0
  129.8910  124.7700   56.6240 C   0  0  0  0  0  0  0  0  0  0  0  0
  130.6400  124.4430   57.7880 O   0  0  0  0  0  0  0  0  0  0  0  0
  131.4710  125.4980   58.2540 C   0  0  0  0  0  0  0  0  0  0  0  0
  132.9390  125.1190   58.0210 C   0  0  0  0  0  0  0  0  0  0  0  0
  133.2200  123.9410   58.7620 O   0  0  0  0  0  0  0  0  0  0  0  0
  134.3310  124.0400   59.6390 C   0  0  0  0  0  0  0  0  0  0  0  0
  133.9330  123.5240   61.0350 C   0  0  0  0  0  0  0  0  0  0  0  0
  132.7500  124.1850   61.5930 N   0  0  0  0  0  0  0  0  0  0  0  0
  132.7050  124.8670   62.7520 C   0  0  0  0  0  0  0  0  0  0  0  0
  133.6890  125.0340   63.4760 O   0  0  0  0  0  0  0  0  0  0  0  0
  131.3310  125.4430   63.1290 C   0  0  0  0  0  0  0  0  0  0  0  0
  130.2820  125.9490   61.7230 S   0  0  0  0  0  0  0  0  0  0  0  0
  129.5590  124.4950   60.9780 C   0  0  0  0  0  0  0  0  0  0  0  0
  130.0680  123.3090   61.3950 N   0  0  0  0  0  0  0  0  0  0  0  0
  129.5710  122.1670   60.8700 C   0  0  0  0  0  0  0  0  0  0  0  0
  130.1910  120.8810   61.3830 C   0  0  0  0  0  0  0  0  0  0  0  0
  128.5570  122.1590   59.9160 C   0  0  0  0  0  0  0  0  0  0  0  0
  128.0200  123.3720   59.4660 C   0  0  0  0  0  0  0  0  0  0  0  0
  126.9500  123.3170   58.4250 C   0  0  0  0  0  0  0  0  0  0  0  0
  125.6330  123.6610   58.7510 C   0  0  0  0  0  0  0  0  0  0  0  0
  124.6280  123.6010   57.7880 C   0  0  0  0  0  0  0  0  0  0  0  0
  124.9380  123.1910   56.4940 C   0  0  0  0  0  0  0  0  0  0  0  0
  126.2420  122.8370   56.1560 C   0  0  0  0  0  0  0  0  0  0  0  0
  127.2430  122.8970   57.1210 C   0  0  0  0  0  0  0  0  0  0  0  0
  128.5240  124.5780   60.0180 C   0  0  0  0  0  0  0  0  0  0  0  0
  127.9720  125.8760   59.6150 C   0  0  0  0  0  0  0  0  0  0  0  0
  127.5350  126.9000   59.2970 N   0  0  0  0  0  0  0  0  0  0  0  0
  129.8845  127.1222   57.0481 H   0  0  0  0  0  0  0  0  0  0  0  0
  129.7253  128.2616   55.6686 H   0  0  0  0  0  0  0  0  0  0  0  0
  128.8076  126.7175   55.6686 H   0  0  0  0  0  0  0  0  0  0  0  0
  130.5390  124.6511   54.5618 H   0  0  0  0  0  0  0  0  0  0  0  0
  131.8720  124.8283   55.7533 H   0  0  0  0  0  0  0  0  0  0  0  0
  129.2267  125.6194   56.8413 H   0  0  0  0  0  0  0  0  0  0  0  0
  129.2868  123.9027   56.3193 H   0  0  0  0  0  0  0  0  0  0  0  0
  131.2371  126.4217   57.7044 H   0  0  0  0  0  0  0  0  0  0  0  0
  131.2959  125.6619   59.3275 H   0  0  0  0  0  0  0  0  0  0  0  0
  133.1096  124.9340   56.9502 H   0  0  0  0  0  0  0  0  0  0  0  0
  133.5974  125.9374   58.3477 H   0  0  0  0  0  0  0  0  0  0  0  0
  135.1618  123.4344   59.2477 H   0  0  0  0  0  0  0  0  0  0  0  0
  134.6459  125.0913   59.7135 H   0  0  0  0  0  0  0  0  0  0  0  0
  133.7258  122.4463   60.9606 H   0  0  0  0  0  0  0  0  0  0  0  0
  134.7727  123.7447   61.7104 H   0  0  0  0  0  0  0  0  0  0  0  0
  131.9020  124.1080   61.0510 H   0  0  0  0  0  0  0  0  0  0  0  0
  130.7867  124.6764   63.7000 H   0  0  0  0  0  0  0  0  0  0  0  0
  131.5334  126.3600   63.7018 H   0  0  0  0  0  0  0  0  0  0  0  0
  130.1885  120.8861   62.4830 H   0  0  0  0  0  0  0  0  0  0  0  0
  129.6080  120.0222   61.0190 H   0  0  0  0  0  0  0  0  0  0  0  0
  131.2260  120.8023   61.0190 H   0  0  0  0  0  0  0  0  0  0  0  0
  128.1797  121.2055   59.5179 H   0  0  0  0  0  0  0  0  0  0  0  0
  125.3897  123.9810   59.7749 H   0  0  0  0  0  0  0  0  0  0  0  0
  123.5953  123.8760   58.0485 H   0  0  0  0  0  0  0  0  0  0  0  0
  124.1461  123.1463   55.7319 H   0  0  0  0  0  0  0  0  0  0  0  0
  126.4793  122.5119   55.1323 H   0  0  0  0  0  0  0  0  0  0  0  0
  128.2724  122.6124   56.8578 H   0  0  0  0  0  0  0  0  0  0  0  0
  1  2  1  0
  2  3  1  0
  3  4  1  0
  4  5  1  0
  5  6  1  0
  6  7  1  0
  7  8  1  0
  8  9  1  0
  9 10  1  0
 10 11  1  0
 11 12  1  0
 12 13  2  0
 12 14  1  0
 14 15  1  0
 15 16  1  0
 16 17  2  0
 17 18  1  0
 18 19  1  0
 18 20  2  0
 20 21  1  0
 21 22  1  0
 22 23  2  0
 23 24  1  0
 24 25  2  0
 25 26  1  0
 26 27  2  0
 21 28  2  0
 28 29  1  0
 29 30  3  0
 28 16  1  0
 27 22  1  0
  1 31  1  0
  1 32  1  0
  1 33  1  0
  3 34  1  0
  3 35  1  0
  4 36  1  0
  4 37  1  0
  6 38  1  0
  6 39  1  0
  7 40  1  0
  7 41  1  0
  9 42  1  0
  9 43  1  0
 10 44  1  0
 10 45  1  0
 11 46  1  0
 14 47  1  0
 14 48  1  0
 19 49  1  0
 19 50  1  0
 19 51  1  0
 20 52  1  0
 23 53  1  0
 24 54  1  0
 25 55  1  0
 26 56  1  0
 27 57  1  0
M  END
>  <Binding energies>  (1) 
[-6.86]

>  <Ligand effiencies>  (1) 
[-0.22129032258064518]

>  <Interactions>  (1) 
["V-A:MET:535:CE:4833, V-A:ASP:366:CG:3210, V-A:ASP:366:CB:3209, H-A:TYR:531:OH:4793, V-B:PRO:540:CA:9855, V-B:ALA:541:CB:9864, V-B:PRO:540:CB:9857, V-B:LEU:363:CD1:8160, V-B:MET:535:CE:9807, V-A:ASP:366:CA:3207, V-B:ILE:538:CG2:9835, V-B:ILE:538:CB:9834, V-B:ILE:538:CA:9832, V-B:PRO:540:N:9856, V-A:LEU:475:CD2:4256, V-B:TYR:539:C:9839, V-B:TYR:539:CE1:9847, V-B:TYR:539:CD1:9845, V-A:ILE:369:CB:3233, V-B:TYR:539:CZ:9849, V-A:ILE:369:CD1:3236, V-B:TYR:531:CE2:9765, V-A:ILE:369:CG1:3235, V-A:ILE:369:CG2:3234, H-B:TYR:539:OH:9850, H-A:GLY:454:N:4047, H-A:ARG:545:NH2:4926, V-A:ARG:545:CZ:4924, H-A:ARG:545:NH1:4925"]

$$$$
4aa_Grossjean_2025
     RDKit          3D

 45 47  0  0  0  0  0  0  0  0999 V2000
  130.8380  115.3610   58.3420 C   0  0  0  0  0  0  0  0  0  0  0  0
  132.3680  115.4110   58.3990 C   0  0  0  0  0  0  0  0  0  0  0  0
  132.8180  114.7550   59.5780 O   0  0  0  0  0  0  0  0  0  0  0  0
  133.3200  115.4600   60.6240 C   0  0  0  0  0  0  0  0  0  0  0  0
  134.1640  115.0100   61.4060 O   0  0  0  0  0  0  0  0  0  0  0  0
  132.7430  116.8410   60.7400 C   0  0  0  0  0  0  0  0  0  0  0  0
  131.4300  116.9980   61.2020 C   0  0  0  0  0  0  0  0  0  0  0  0
  130.8640  118.2650   61.3160 C   0  0  0  0  0  0  0  0  0  0  0  0
  131.6020  119.4010   60.9800 C   0  0  0  0  0  0  0  0  0  0  0  0
  130.9310  120.6300   61.1250 N   0  0  0  0  0  0  0  0  0  0  0  0
  131.2880  121.7460   61.8060 C   0  0  0  0  0  0  0  0  0  0  0  0
  132.3110  121.8440   62.4850 O   0  0  0  0  0  0  0  0  0  0  0  0
  130.3490  122.8650   61.7100 C   0  0  0  0  0  0  0  0  0  0  0  0
  130.8070  124.4650   62.2990 S   0  0  0  0  0  0  0  0  0  0  0  0
  129.2390  125.1180   61.8820 C   0  0  0  0  0  0  0  0  0  0  0  0
  128.9270  126.3970   62.0980 N   0  0  0  0  0  0  0  0  0  0  0  0
  127.6770  126.7740   61.7330 C   0  0  0  0  0  0  0  0  0  0  0  0
  127.3410  128.2320   61.9920 C   0  0  0  0  0  0  0  0  0  0  0  0
  126.7440  125.9130   61.1610 C   0  0  0  0  0  0  0  0  0  0  0  0
  127.0740  124.5730   60.9350 C   0  0  0  0  0  0  0  0  0  0  0  0
  126.0220  123.6710   60.3080 C   0  0  0  0  0  0  0  0  0  0  0  0
  128.3750  124.1380   61.3080 C   0  0  0  0  0  0  0  0  0  0  0  0
  129.0320  122.8610   61.2250 C   0  0  0  0  0  0  0  0  0  0  0  0
  128.4090  121.7500   60.7120 N   0  0  0  0  0  0  0  0  0  0  0  0
  132.9150  119.2550   60.5110 C   0  0  0  0  0  0  0  0  0  0  0  0
  133.4780  117.9860   60.3940 C   0  0  0  0  0  0  0  0  0  0  0  0
  130.4332  115.3478   59.3647 H   0  0  0  0  0  0  0  0  0  0  0  0
  130.4617  116.2473   57.8102 H   0  0  0  0  0  0  0  0  0  0  0  0
  130.5204  114.4520   57.8102 H   0  0  0  0  0  0  0  0  0  0  0  0
  132.7850  114.9053   57.5156 H   0  0  0  0  0  0  0  0  0  0  0  0
  132.7014  116.4592   58.4115 H   0  0  0  0  0  0  0  0  0  0  0  0
  130.8401  116.1114   61.4775 H   0  0  0  0  0  0  0  0  0  0  0  0
  129.8290  118.3713   61.6730 H   0  0  0  0  0  0  0  0  0  0  0  0
  130.0380  120.6710   60.6540 H   0  0  0  0  0  0  0  0  0  0  0  0
  127.2996  128.4117   63.0764 H   0  0  0  0  0  0  0  0  0  0  0  0
  128.1152  128.8719   61.5436 H   0  0  0  0  0  0  0  0  0  0  0  0
  126.3648  128.4686   61.5436 H   0  0  0  0  0  0  0  0  0  0  0  0
  125.7466  126.2872   60.8867 H   0  0  0  0  0  0  0  0  0  0  0  0
  125.4438  123.1753   61.1017 H   0  0  0  0  0  0  0  0  0  0  0  0
  125.3461  124.2745   59.6844 H   0  0  0  0  0  0  0  0  0  0  0  0
  126.5153  122.9109   59.6844 H   0  0  0  0  0  0  0  0  0  0  0  0
  128.4740  120.8480   61.1610 H   0  0  0  0  0  0  0  0  0  0  0  0
  127.8640  121.7990   59.8630 H   0  0  0  0  0  0  0  0  0  0  0  0
  133.5016  120.1437   60.2350 H   0  0  0  0  0  0  0  0  0  0  0  0
  134.5094  117.8801   60.0266 H   0  0  0  0  0  0  0  0  0  0  0  0
  1  2  1  0
  2  3  1  0
  3  4  1  0
  4  5  2  0
  4  6  1  0
  6  7  2  0
  7  8  1  0
  8  9  2  0
  9 10  1  0
 10 11  1  0
 11 12  2  0
 11 13  1  0
 13 14  1  0
 14 15  1  0
 15 16  2  0
 16 17  1  0
 17 18  1  0
 17 19  2  0
 19 20  1  0
 20 21  1  0
 20 22  2  0
 22 23  1  0
 23 24  1  0
  9 25  1  0
 25 26  2  0
 26  6  1  0
 23 13  2  0
 22 15  1  0
  1 27  1  0
  1 28  1  0
  1 29  1  0
  2 30  1  0
  2 31  1  0
  7 32  1  0
  8 33  1  0
 10 34  1  0
 18 35  1  0
 18 36  1  0
 18 37  1  0
 19 38  1  0
 21 39  1  0
 21 40  1  0
 21 41  1  0
 24 42  1  0
 24 43  1  0
 25 44  1  0
 26 45  1  0
M  END
>  <Binding energies>  (1) 
[-6.95]

>  <Ligand effiencies>  (1) 
[-0.2396551724137931]

>  <Interactions>  (1) 
["V-B:ASP:366:CG:8184, V-B:PRO:540:CA:9855, V-B:ALA:541:CB:9864, V-B:PRO:540:CB:9857, V-B:ALA:541:CA:9862, V-B:PRO:540:N:9856, V-A:LEU:475:CD2:4256, V-B:TYR:539:C:9839, V-B:TYR:539:CE1:9847, V-B:TYR:539:CD1:9845, V-B:PRO:540:C:9853, V-A:ILE:369:CG2:3234, H-B:TYR:539:O:9840, V-A:PRO:482:CG:4324, V-A:SER:385:CB:3406, V-A:PRO:482:CB:4323, V-A:SER:385:CA:3404, V-B:TYR:539:CB:9843, V-A:HIS:383:CG:3387, V-A:LEU:373:CD2:3278, V-A:HIS:383:CB:3386, V-A:LEU:373:CD1:3277, V-A:VAL:384:C:3394, V-B:VAL:344:CG1:7972, V-B:ILE:343:CD1:7965, V-A:HIS:383:CD2:3389, V-A:HIS:383:CE1:3391, H-A:HIS:383:ND1:3388, V-A:LEU:373:CG:3276, H-A:SER:385:N:3405, V-B:ILE:343:CG1:7964, H-A:SER:385:OG:3407"]

$$$$
4ab_Grossjean_2025
     RDKit          3D

 42 44  0  0  0  0  0  0  0  0999 V2000
  132.0940  115.3790   58.1910 C   0  0  0  0  0  0  0  0  0  0  0  0
  133.2170  115.0150   58.9800 O   0  0  0  0  0  0  0  0  0  0  0  0
  133.3960  115.5330   60.2220 C   0  0  0  0  0  0  0  0  0  0  0  0
  134.1120  115.0100   61.0820 O   0  0  0  0  0  0  0  0  0  0  0  0
  132.6280  116.8040   60.4500 C   0  0  0  0  0  0  0  0  0  0  0  0
  133.2850  118.0330   60.3080 C   0  0  0  0  0  0  0  0  0  0  0  0
  132.6010  119.2290   60.5150 C   0  0  0  0  0  0  0  0  0  0  0  0
  131.2490  119.2200   60.8590 C   0  0  0  0  0  0  0  0  0  0  0  0
  130.6600  120.4840   61.0510 N   0  0  0  0  0  0  0  0  0  0  0  0
  131.1620  121.6030   61.6290 C   0  0  0  0  0  0  0  0  0  0  0  0
  132.2780  121.6750   62.1460 O   0  0  0  0  0  0  0  0  0  0  0  0
  130.2660  122.7610   61.6280 C   0  0  0  0  0  0  0  0  0  0  0  0
  130.8090  124.3070   62.2860 S   0  0  0  0  0  0  0  0  0  0  0  0
  129.2570  125.0440   61.9620 C   0  0  0  0  0  0  0  0  0  0  0  0
  129.0050  126.3190   62.2600 N   0  0  0  0  0  0  0  0  0  0  0  0
  127.7610  126.7660   61.9600 C   0  0  0  0  0  0  0  0  0  0  0  0
  127.4930  128.2180   62.3120 C   0  0  0  0  0  0  0  0  0  0  0  0
  126.7740  125.9770   61.3730 C   0  0  0  0  0  0  0  0  0  0  0  0
  127.0420  124.6390   61.0630 C   0  0  0  0  0  0  0  0  0  0  0  0
  125.9320  123.8170   60.4240 C   0  0  0  0  0  0  0  0  0  0  0  0
  128.3350  124.1320   61.3660 C   0  0  0  0  0  0  0  0  0  0  0  0
  128.9340  122.8370   61.1920 C   0  0  0  0  0  0  0  0  0  0  0  0
  128.2500  121.7810   60.6440 N   0  0  0  0  0  0  0  0  0  0  0  0
  130.5850  117.9930   61.0090 C   0  0  0  0  0  0  0  0  0  0  0  0
  131.2700  116.7990   60.8040 C   0  0  0  0  0  0  0  0  0  0  0  0
  131.2558  115.6507   58.8495 H   0  0  0  0  0  0  0  0  0  0  0  0
  132.3550  116.2385   57.5561 H   0  0  0  0  0  0  0  0  0  0  0  0
  131.8012  114.5298   57.5561 H   0  0  0  0  0  0  0  0  0  0  0  0
  134.3493  118.0540   60.0309 H   0  0  0  0  0  0  0  0  0  0  0  0
  133.1306  120.1870   60.4064 H   0  0  0  0  0  0  0  0  0  0  0  0
  129.7120  120.5520   60.7140 H   0  0  0  0  0  0  0  0  0  0  0  0
  127.4719  128.3322   63.4058 H   0  0  0  0  0  0  0  0  0  0  0  0
  128.2897  128.8500   61.8926 H   0  0  0  0  0  0  0  0  0  0  0  0
  126.5232  128.5240   61.8926 H   0  0  0  0  0  0  0  0  0  0  0  0
  125.7850  126.4055   61.1534 H   0  0  0  0  0  0  0  0  0  0  0  0
  125.3146  123.3598   61.2113 H   0  0  0  0  0  0  0  0  0  0  0  0
  125.3050  124.4703   59.7994 H   0  0  0  0  0  0  0  0  0  0  0  0
  126.3740  123.0267   59.7994 H   0  0  0  0  0  0  0  0  0  0  0  0
  127.7330  121.8710   59.7810 H   0  0  0  0  0  0  0  0  0  0  0  0
  128.2360  120.8750   61.0930 H   0  0  0  0  0  0  0  0  0  0  0  0
  129.5214  117.9748   61.2891 H   0  0  0  0  0  0  0  0  0  0  0  0
  130.7415  115.8414   60.9207 H   0  0  0  0  0  0  0  0  0  0  0  0
  1  2  1  0
  2  3  1  0
  3  4  2  0
  3  5  1  0
  5  6  2  0
  6  7  1  0
  7  8  2  0
  8  9  1  0
  9 10  1  0
 10 11  2  0
 10 12  1  0
 12 13  1  0
 13 14  1  0
 14 15  2  0
 15 16  1  0
 16 17  1  0
 16 18  2  0
 18 19  1  0
 19 20  1  0
 19 21  2  0
 21 22  1  0
 22 23  1  0
  8 24  1  0
 24 25  2  0
 25  5  1  0
 22 12  2  0
 21 14  1  0
  1 26  1  0
  1 27  1  0
  1 28  1  0
  6 29  1  0
  7 30  1  0
  9 31  1  0
 17 32  1  0
 17 33  1  0
 17 34  1  0
 18 35  1  0
 20 36  1  0
 20 37  1  0
 20 38  1  0
 23 39  1  0
 23 40  1  0
 24 41  1  0
 25 42  1  0
M  END
>  <Binding energies>  (1) 
[-6.94]

>  <Ligand effiencies>  (1) 
[-0.24785714285714286]

>  <Interactions>  (1) 
["V-B:PRO:540:CA:9855, V-B:ALA:541:CB:9864, V-B:PRO:540:CB:9857, V-B:ALA:541:CA:9862, V-B:PRO:540:N:9856, V-A:LEU:475:CD2:4256, V-B:GLU:543:CD:9880, V-B:TYR:539:C:9839, V-B:TYR:539:CE1:9847, V-B:TYR:539:CD1:9845, V-B:PRO:540:C:9853, H-B:TYR:539:O:9840, V-A:PRO:482:CG:4324, V-A:SER:385:CB:3406, V-A:PRO:482:CB:4323, V-A:SER:385:CA:3404, V-A:HIS:383:CG:3387, V-A:LEU:373:CD2:3278, V-A:HIS:383:CB:3386, V-A:LEU:373:CD1:3277, V-A:VAL:384:C:3394, V-B:ILE:343:CD1:7965, V-A:HIS:383:CD2:3389, V-A:HIS:383:CE1:3391, H-A:HIS:383:ND1:3388, H-A:SER:385:N:3405, V-B:ILE:343:CG1:7964, H-B:PRO:540:O:9854"]

$$$$
4ac_Grossjean_2025
     RDKit          3D

 40 42  0  0  0  0  0  0  0  0999 V2000
  123.9480  129.6300   67.3760 C   0  0  0  0  0  0  0  0  0  0  0  0
  123.7630  129.5500   65.9670 O   0  0  0  0  0  0  0  0  0  0  0  0
  124.8230  129.8390   65.1300 C   0  0  0  0  0  0  0  0  0  0  0  0
  124.5010  130.2290   63.8300 C   0  0  0  0  0  0  0  0  0  0  0  0
  125.5030  130.5400   62.9150 C   0  0  0  0  0  0  0  0  0  0  0  0
  126.8440  130.4740   63.2930 C   0  0  0  0  0  0  0  0  0  0  0  0
  127.7870  130.7940   62.2980 N   0  0  0  0  0  0  0  0  0  0  0  0
  127.9990  131.9730   61.6650 C   0  0  0  0  0  0  0  0  0  0  0  0
  127.3300  132.9900   61.8610 O   0  0  0  0  0  0  0  0  0  0  0  0
  129.0970  131.9770   60.6950 C   0  0  0  0  0  0  0  0  0  0  0  0
  128.7700  132.2110   58.9780 S   0  0  0  0  0  0  0  0  0  0  0  0
  130.4700  132.0810   58.5870 C   0  0  0  0  0  0  0  0  0  0  0  0
  130.9160  132.1820   57.3350 N   0  0  0  0  0  0  0  0  0  0  0  0
  132.2550  132.0620   57.1690 C   0  0  0  0  0  0  0  0  0  0  0  0
  132.7430  132.1810   55.7370 C   0  0  0  0  0  0  0  0  0  0  0  0
  133.1500  131.8440   58.2150 C   0  0  0  0  0  0  0  0  0  0  0  0
  132.6780  131.7380   59.5290 C   0  0  0  0  0  0  0  0  0  0  0  0
  133.6930  131.5010   60.6360 C   0  0  0  0  0  0  0  0  0  0  0  0
  131.2790  131.8610   59.7410 C   0  0  0  0  0  0  0  0  0  0  0  0
  130.4710  131.8080   60.9310 C   0  0  0  0  0  0  0  0  0  0  0  0
  131.0130  131.6070   62.1750 N   0  0  0  0  0  0  0  0  0  0  0  0
  127.1770  130.0710   64.5940 C   0  0  0  0  0  0  0  0  0  0  0  0
  126.1720  129.7590   65.5070 C   0  0  0  0  0  0  0  0  0  0  0  0
  123.0533  129.2431   67.8858 H   0  0  0  0  0  0  0  0  0  0  0  0
  124.8233  129.0300   67.6655 H   0  0  0  0  0  0  0  0  0  0  0  0
  124.1103  130.6787   67.6655 H   0  0  0  0  0  0  0  0  0  0  0  0
  123.4459  130.2914   63.5251 H   0  0  0  0  0  0  0  0  0  0  0  0
  125.2363  130.8388   61.8905 H   0  0  0  0  0  0  0  0  0  0  0  0
  128.3600  130.0180   61.9980 H   0  0  0  0  0  0  0  0  0  0  0  0
  133.8117  132.4416   55.7343 H   0  0  0  0  0  0  0  0  0  0  0  0
  132.5983  131.2213   55.2194 H   0  0  0  0  0  0  0  0  0  0  0  0
  132.1727  132.9664   55.2194 H   0  0  0  0  0  0  0  0  0  0  0  0
  134.2268  131.7553   58.0083 H   0  0  0  0  0  0  0  0  0  0  0  0
  133.2025  131.6155   61.6139 H   0  0  0  0  0  0  0  0  0  0  0  0
  134.1012  130.4834   60.5475 H   0  0  0  0  0  0  0  0  0  0  0  0
  134.5096  132.2326   60.5475 H   0  0  0  0  0  0  0  0  0  0  0  0
  131.8410  132.0970   62.4820 H   0  0  0  0  0  0  0  0  0  0  0  0
  130.5970  130.9590   62.8300 H   0  0  0  0  0  0  0  0  0  0  0  0
  128.2329  130.0011   64.8941 H   0  0  0  0  0  0  0  0  0  0  0  0
  126.4374  129.4485   66.5283 H   0  0  0  0  0  0  0  0  0  0  0  0
  1  2  1  0
  2  3  1  0
  3  4  2  0
  4  5  1  0
  5  6  2  0
  6  7  1  0
  7  8  1  0
  8  9  2  0
  8 10  1  0
 10 11  1  0
 11 12  1  0
 12 13  2  0
 13 14  1  0
 14 15  1  0
 14 16  2  0
 16 17  1  0
 17 18  1  0
 17 19  2  0
 19 20  1  0
 20 21  1  0
  6 22  1  0
 22 23  2  0
 23  3  1  0
 20 10  2  0
 19 12  1  0
  1 24  1  0
  1 25  1  0
  1 26  1  0
  4 27  1  0
  5 28  1  0
  7 29  1  0
 15 30  1  0
 15 31  1  0
 15 32  1  0
 16 33  1  0
 18 34  1  0
 18 35  1  0
 18 36  1  0
 21 37  1  0
 21 38  1  0
 22 39  1  0
 23 40  1  0
M  END
>  <Binding energies>  (1) 
[-6.94]

>  <Ligand effiencies>  (1) 
[-0.26692307692307693]

>  <Interactions>  (1) 
["V-A:ASP:366:CG:3210, V-A:TYR:531:CZ:4792, V-A:LEU:363:CA:3182, V-A:TYR:531:CE2:4791, V-A:PRO:540:CB:4883, V-A:PRO:540:CA:4881, V-A:LEU:363:CD1:3186, V-A:TYR:539:CE1:4873, V-A:TYR:539:CD1:4871, V-A:ALA:541:CB:4890, V-A:PRO:540:N:4882, V-A:ASN:362:C:3169, V-A:TYR:539:C:4865, V-B:ARG:545:CZ:9898, V-A:ILE:538:CB:4860, V-A:PRO:540:CD:4885, V-A:ILE:538:CG2:4861, V-B:GLY:453:CA:9015, V-B:GLY:454:CA:9020, H-B:TYR:484:OH:9319, H-B:GLY:454:N:9021, V-A:GLU:543:CD:4906, H-A:GLU:543:OE2:4908, H-A:GLU:543:OE1:4907, V-B:HIS:456:CE1:9040, H-B:ARG:545:NE:9896, V-B:ARG:545:CD:9895, V-B:TYR:484:CZ:9318, V-A:PRO:540:CG:4884, V-B:ARG:545:CG:9894, V-A:ASN:362:CB:3173, H-A:ALA:541:O:4887, V-A:ALA:541:CA:4888, V-B:ARG:545:CB:9893, V-B:ILE:455:C:9023"]

$$$$
4ad_Grossjean_2025
     RDKit          3D

 36 38  0  0  0  0  0  0  0  0999 V2000
  132.3830  125.9310   65.1500 C   0  0  0  0  0  0  0  0  0  0  0  0
  131.9730  124.8620   64.1550 C   0  0  0  0  0  0  0  0  0  0  0  0
  130.6920  124.8440   63.6080 C   0  0  0  0  0  0  0  0  0  0  0  0
  130.3350  123.8460   62.6930 C   0  0  0  0  0  0  0  0  0  0  0  0
  128.9240  123.8660   62.1250 C   0  0  0  0  0  0  0  0  0  0  0  0
  131.3170  122.8760   62.3540 C   0  0  0  0  0  0  0  0  0  0  0  0
  131.2940  121.7400   61.4720 C   0  0  0  0  0  0  0  0  0  0  0  0
  130.1820  121.4040   60.7420 N   0  0  0  0  0  0  0  0  0  0  0  0
  132.5020  121.0250   61.4310 C   0  0  0  0  0  0  0  0  0  0  0  0
  132.8220  119.8210   60.6610 C   0  0  0  0  0  0  0  0  0  0  0  0
  133.8420  119.7700   59.9710 O   0  0  0  0  0  0  0  0  0  0  0  0
  131.9360  118.8020   60.7820 N   0  0  0  0  0  0  0  0  0  0  0  0
  131.9290  117.5430   60.1510 C   0  0  0  0  0  0  0  0  0  0  0  0
  133.1220  116.8180   60.2200 C   0  0  0  0  0  0  0  0  0  0  0  0
  133.2120  115.5570   59.6350 C   0  0  0  0  0  0  0  0  0  0  0  0
  132.1040  115.0160   58.9880 C   0  0  0  0  0  0  0  0  0  0  0  0
  130.9060  115.7220   58.9250 C   0  0  0  0  0  0  0  0  0  0  0  0
  130.8130  116.9830   59.5070 C   0  0  0  0  0  0  0  0  0  0  0  0
  133.7080  121.7520   62.4930 S   0  0  0  0  0  0  0  0  0  0  0  0
  132.5910  123.0040   62.9850 C   0  0  0  0  0  0  0  0  0  0  0  0
  132.9340  123.9540   63.8560 N   0  0  0  0  0  0  0  0  0  0  0  0
  132.2385  125.5542   66.1733 H   0  0  0  0  0  0  0  0  0  0  0  0
  133.4425  126.1854   64.9991 H   0  0  0  0  0  0  0  0  0  0  0  0
  131.7653  126.8286   64.9991 H   0  0  0  0  0  0  0  0  0  0  0  0
  129.9607  125.6140   63.8949 H   0  0  0  0  0  0  0  0  0  0  0  0
  128.1967  123.8763   62.9502 H   0  0  0  0  0  0  0  0  0  0  0  0
  128.7902  124.7661   61.5070 H   0  0  0  0  0  0  0  0  0  0  0  0
  128.7648  122.9700   61.5070 H   0  0  0  0  0  0  0  0  0  0  0  0
  129.8330  120.4570   60.7050 H   0  0  0  0  0  0  0  0  0  0  0  0
  129.6680  122.0990   60.2180 H   0  0  0  0  0  0  0  0  0  0  0  0
  131.1750  118.9490   61.4270 H   0  0  0  0  0  0  0  0  0  0  0  0
  133.9933  117.2449   60.7383 H   0  0  0  0  0  0  0  0  0  0  0  0
  134.1541  114.9912   59.6839 H   0  0  0  0  0  0  0  0  0  0  0  0
  132.1761  114.0219   58.5226 H   0  0  0  0  0  0  0  0  0  0  0  0
  130.0345  115.2842   58.4163 H   0  0  0  0  0  0  0  0  0  0  0  0
  129.8660  117.5409   59.4627 H   0  0  0  0  0  0  0  0  0  0  0  0
  1  2  1  0
  2  3  2  0
  3  4  1  0
  4  5  1  0
  4  6  2  0
  6  7  1  0
  7  8  1  0
  7  9  2  0
  9 10  1  0
 10 11  2  0
 10 12  1  0
 12 13  1  0
 13 14  2  0
 14 15  1  0
 15 16  2  0
 16 17  1  0
 17 18  2  0
  9 19  1  0
 19 20  1  0
 20 21  2  0
 21  2  1  0
 20  6  1  0
 18 13  1  0
  1 22  1  0
  1 23  1  0
  1 24  1  0
  3 25  1  0
  5 26  1  0
  5 27  1  0
  5 28  1  0
  8 29  1  0
  8 30  1  0
 12 31  1  0
 14 32  1  0
 15 33  1  0
 16 34  1  0
 17 35  1  0
 18 36  1  0
M  END
>  <Binding energies>  (1) 
[-7.19]

>  <Ligand effiencies>  (1) 
[-0.29958333333333337]

>  <Interactions>  (1) 
["V-A:LEU:475:CD2:4256, V-B:GLU:543:CD:9880, V-B:TYR:539:CE1:9847, V-B:TYR:539:CD1:9845, V-B:TYR:539:CG:9844, V-A:ILE:369:CD1:3236, V-A:ILE:369:CG2:3234, H-A:GLY:454:N:4047, V-A:GLY:454:CA:4046, H-A:TYR:484:OH:4345, V-A:ARG:545:CD:4921, V-A:ARG:545:CZ:4924, H-B:TYR:539:O:9840, V-A:PRO:482:CG:4324, V-A:SER:385:CB:3406, V-A:SER:385:CA:3404, V-B:TYR:539:CB:9843, V-A:HIS:383:CG:3387, V-A:LEU:373:CD2:3278, V-A:HIS:383:CB:3386, V-A:LEU:373:CD1:3277, V-B:VAL:344:CG1:7972, V-B:ILE:343:CD1:7965, V-A:HIS:383:CD2:3389, V-A:HIS:383:CE1:3391"]

$$$$
4ae_Grossjean_2025
     RDKit          3D

 38 40  0  0  0  0  0  0  0  0999 V2000
  130.8670  115.0130   58.0130 C   0  0  0  0  0  0  0  0  0  0  0  0
  131.4230  115.5380   59.3210 C   0  0  0  0  0  0  0  0  0  0  0  0
  132.0190  114.6880   60.2570 C   0  0  0  0  0  0  0  0  0  0  0  0
  132.5010  115.2410   61.4430 C   0  0  0  0  0  0  0  0  0  0  0  0
  132.3770  116.6150   61.6650 C   0  0  0  0  0  0  0  0  0  0  0  0
  131.7770  117.4100   60.6820 C   0  0  0  0  0  0  0  0  0  0  0  0
  131.6630  118.7810   60.9710 N   0  0  0  0  0  0  0  0  0  0  0  0
  132.6330  119.7290   60.9840 C   0  0  0  0  0  0  0  0  0  0  0  0
  133.8180  119.5010   60.7350 O   0  0  0  0  0  0  0  0  0  0  0  0
  132.1840  121.0810   61.3240 C   0  0  0  0  0  0  0  0  0  0  0  0
  130.4880  121.5310   61.1350 S   0  0  0  0  0  0  0  0  0  0  0  0
  130.8110  123.1630   61.6710 C   0  0  0  0  0  0  0  0  0  0  0  0
  129.8490  124.0820   61.7530 N   0  0  0  0  0  0  0  0  0  0  0  0
  130.2330  125.3100   62.1770 C   0  0  0  0  0  0  0  0  0  0  0  0
  129.1240  126.3430   62.2550 C   0  0  0  0  0  0  0  0  0  0  0  0
  131.5440  125.6370   62.5210 C   0  0  0  0  0  0  0  0  0  0  0  0
  132.5510  124.6690   62.4350 C   0  0  0  0  0  0  0  0  0  0  0  0
  133.9670  125.0740   62.8170 C   0  0  0  0  0  0  0  0  0  0  0  0
  132.1860  123.3690   61.9920 C   0  0  0  0  0  0  0  0  0  0  0  0
  132.9480  122.1650   61.7870 C   0  0  0  0  0  0  0  0  0  0  0  0
  134.2970  122.1010   62.0260 N   0  0  0  0  0  0  0  0  0  0  0  0
  131.2960  116.8750   59.5220 N   0  0  0  0  0  0  0  0  0  0  0  0
  130.0815  114.2713   58.2199 H   0  0  0  0  0  0  0  0  0  0  0  0
  130.4413  115.8463   57.4347 H   0  0  0  0  0  0  0  0  0  0  0  0
  131.6745  114.5403   57.4347 H   0  0  0  0  0  0  0  0  0  0  0  0
  132.1057  113.6088   60.0627 H   0  0  0  0  0  0  0  0  0  0  0  0
  132.9761  114.5992   62.1995 H   0  0  0  0  0  0  0  0  0  0  0  0
  132.7456  117.0650   62.5986 H   0  0  0  0  0  0  0  0  0  0  0  0
  130.7400  119.0780   61.2540 H   0  0  0  0  0  0  0  0  0  0  0  0
  128.8951  126.5563   63.3096 H   0  0  0  0  0  0  0  0  0  0  0  0
  129.4487  127.2680   61.7560 H   0  0  0  0  0  0  0  0  0  0  0  0
  128.2244  125.9535   61.7560 H   0  0  0  0  0  0  0  0  0  0  0  0
  131.7866  126.6550   62.8597 H   0  0  0  0  0  0  0  0  0  0  0  0
  134.0579  125.1000   63.9129 H   0  0  0  0  0  0  0  0  0  0  0  0
  134.6804  124.3439   62.4071 H   0  0  0  0  0  0  0  0  0  0  0  0
  134.1864  126.0709   62.4071 H   0  0  0  0  0  0  0  0  0  0  0  0
  134.8030  122.8700   62.4430 H   0  0  0  0  0  0  0  0  0  0  0  0
  134.8330  121.2760   61.7920 H   0  0  0  0  0  0  0  0  0  0  0  0
  1  2  1  0
  2  3  2  0
  3  4  1  0
  4  5  2  0
  5  6  1  0
  6  7  1  0
  7  8  1  0
  8  9  2  0
  8 10  1  0
 10 11  1  0
 11 12  1  0
 12 13  2  0
 13 14  1  0
 14 15  1  0
 14 16  2  0
 16 17  1  0
 17 18  1  0
 17 19  2  0
 19 20  1  0
 20 21  1  0
  6 22  2  0
 22  2  1  0
 20 10  2  0
 19 12  1  0
  1 23  1  0
  1 24  1  0
  1 25  1  0
  3 26  1  0
  4 27  1  0
  5 28  1  0
  7 29  1  0
 15 30  1  0
 15 31  1  0
 15 32  1  0
 16 33  1  0
 18 34  1  0
 18 35  1  0
 18 36  1  0
 21 37  1  0
 21 38  1  0
M  END
>  <Binding energies>  (1) 
[-7.15]

>  <Ligand effiencies>  (1) 
[-0.28600000000000003]

>  <Interactions>  (1) 
["V-B:ALA:541:CB:9864, V-A:LEU:475:CD2:4256, V-B:GLU:543:CD:9880, V-B:TYR:539:CE1:9847, V-B:TYR:539:CD1:9845, V-A:ILE:369:CD1:3236, V-A:ILE:369:CG2:3234, V-A:GLY:454:CA:4046, V-A:GLY:453:CA:4041, V-A:ARG:545:CZ:4924, H-B:TYR:539:O:9840, V-A:PRO:482:CG:4324, V-A:SER:385:CB:3406, V-A:PRO:482:CB:4323, V-A:SER:385:CA:3404, V-B:TYR:539:CB:9843, V-A:HIS:383:CG:3387, V-A:HIS:383:CB:3386, V-A:GLY:453:C:4039, V-B:VAL:344:CG1:7972, V-A:LEU:475:CG:4254, V-A:THR:477:CA:4267, V-B:ILE:343:CD1:7965, V-A:HIS:383:CD2:3389, V-A:HIS:383:CE1:3391, H-A:SER:385:O:3403, V-B:ILE:343:CG1:7964"]

$$$$
4af_Grossjean_2025
     RDKit          3D

 35 37  0  0  0  0  0  0  0  0999 V2000
  132.3570  132.2480   55.8120 C   0  0  0  0  0  0  0  0  0  0  0  0
  131.8180  132.0290   57.2140 C   0  0  0  0  0  0  0  0  0  0  0  0
  132.6800  131.8720   58.2970 C   0  0  0  0  0  0  0  0  0  0  0  0
  132.1610  131.6680   59.5810 C   0  0  0  0  0  0  0  0  0  0  0  0
  133.1420  131.5010   60.7310 C   0  0  0  0  0  0  0  0  0  0  0  0
  130.7480  131.6270   59.7260 C   0  0  0  0  0  0  0  0  0  0  0  0
  129.8960  131.4380   60.8700 C   0  0  0  0  0  0  0  0  0  0  0  0
  130.3970  131.2490   62.1330 N   0  0  0  0  0  0  0  0  0  0  0  0
  128.5250  131.4650   60.5700 C   0  0  0  0  0  0  0  0  0  0  0  0
  127.3900  131.2780   61.4760 C   0  0  0  0  0  0  0  0  0  0  0  0
  126.2830  131.7400   61.1980 O   0  0  0  0  0  0  0  0  0  0  0  0
  127.6550  130.5640   62.5970 N   0  0  0  0  0  0  0  0  0  0  0  0
  126.8110  130.2490   63.6790 C   0  0  0  0  0  0  0  0  0  0  0  0
  127.2380  129.8560   64.9600 C   0  0  0  0  0  0  0  0  0  0  0  0
  126.2930  129.5540   65.9420 C   0  0  0  0  0  0  0  0  0  0  0  0
  124.9390  129.6480   65.6180 C   0  0  0  0  0  0  0  0  0  0  0  0
  124.5000  130.0170   64.3880 N   0  0  0  0  0  0  0  0  0  0  0  0
  125.4310  130.3070   63.4440 C   0  0  0  0  0  0  0  0  0  0  0  0
  128.2550  131.7260   58.8450 S   0  0  0  0  0  0  0  0  0  0  0  0
  129.9760  131.8010   58.5390 C   0  0  0  0  0  0  0  0  0  0  0  0
  130.4660  131.9960   57.3150 N   0  0  0  0  0  0  0  0  0  0  0  0
  133.3746  132.6615   55.8708 H   0  0  0  0  0  0  0  0  0  0  0  0
  132.3816  131.2885   55.2746 H   0  0  0  0  0  0  0  0  0  0  0  0
  131.7054  132.9527   55.2746 H   0  0  0  0  0  0  0  0  0  0  0  0
  133.7686  131.9083   58.1432 H   0  0  0  0  0  0  0  0  0  0  0  0
  132.6054  131.5923   61.6869 H   0  0  0  0  0  0  0  0  0  0  0  0
  133.6144  130.5095   60.6690 H   0  0  0  0  0  0  0  0  0  0  0  0
  133.9158  132.2803   60.6690 H   0  0  0  0  0  0  0  0  0  0  0  0
  130.2430  131.9180   62.8740 H   0  0  0  0  0  0  0  0  0  0  0  0
  130.9380  130.4270   62.3650 H   0  0  0  0  0  0  0  0  0  0  0  0
  128.5900  130.1930   62.6780 H   0  0  0  0  0  0  0  0  0  0  0  0
  128.3121  129.7869   65.1872 H   0  0  0  0  0  0  0  0  0  0  0  0
  126.6091  129.2483   66.9503 H   0  0  0  0  0  0  0  0  0  0  0  0
  124.1950  129.4128   66.3933 H   0  0  0  0  0  0  0  0  0  0  0  0
  125.0843  130.6028   62.4429 H   0  0  0  0  0  0  0  0  0  0  0  0
  1  2  1  0
  2  3  2  0
  3  4  1  0
  4  5  1  0
  4  6  2  0
  6  7  1  0
  7  8  1  0
  7  9  2  0
  9 10  1  0
 10 11  2  0
 10 12  1  0
 12 13  1  0
 13 14  2  0
 14 15  1  0
 15 16  2  0
 16 17  1  0
 17 18  2  0
  9 19  1  0
 19 20  1  0
 20 21  2  0
 21  2  1  0
 20  6  1  0
 18 13  1  0
  1 22  1  0
  1 23  1  0
  1 24  1  0
  3 25  1  0
  5 26  1  0
  5 27  1  0
  5 28  1  0
  8 29  1  0
  8 30  1  0
 12 31  1  0
 14 32  1  0
 15 33  1  0
 16 34  1  0
 18 35  1  0
M  END
>  <Binding energies>  (1) 
[-7.13]

>  <Ligand effiencies>  (1) 
[-0.2970833333333333]

>  <Interactions>  (1) 
["V-A:ASP:366:CG:3210, V-A:TYR:531:CE2:4791, V-A:PRO:540:CB:4883, V-A:PRO:540:CA:4881, V-A:LEU:363:CD1:3186, V-A:TYR:539:CZ:4875, V-A:TYR:539:CE1:4873, V-A:TYR:539:CD1:4871, V-A:PRO:540:N:4882, V-B:ARG:545:CZ:9898, V-A:ILE:538:CB:4860, V-A:ILE:538:CG2:4861, H-B:TYR:484:OH:9319, H-B:GLY:454:N:9021, V-A:GLU:543:CD:4906, H-A:GLU:543:OE2:4908, H-A:GLU:543:OE1:4907, V-B:HIS:456:CE1:9040, H-B:ARG:545:NH2:9900, H-B:ARG:545:NE:9896, V-B:ARG:545:CD:9895, V-B:ARG:545:CG:9894, V-A:ASN:362:CB:3173, H-A:ALA:541:O:4887"]

$$$$
4ag_Grossjean_2025
     RDKit          3D

 39 41  0  0  0  0  0  0  0  0999 V2000
  133.5840  131.4930   57.2490 C   0  0  0  0  0  0  0  0  0  0  0  0
  132.6490  131.6910   58.4280 C   0  0  0  0  0  0  0  0  0  0  0  0
  133.0930  131.5000   59.7350 C   0  0  0  0  0  0  0  0  0  0  0  0
  132.2140  131.6890   60.8070 C   0  0  0  0  0  0  0  0  0  0  0  0
  132.7450  131.4680   62.2160 C   0  0  0  0  0  0  0  0  0  0  0  0
  130.8790  132.0750   60.5110 C   0  0  0  0  0  0  0  0  0  0  0  0
  129.7410  132.3480   61.3460 C   0  0  0  0  0  0  0  0  0  0  0  0
  129.7980  132.2630   62.7150 N   0  0  0  0  0  0  0  0  0  0  0  0
  128.5850  132.7020   60.6350 C   0  0  0  0  0  0  0  0  0  0  0  0
  127.2660  133.0510   61.1610 C   0  0  0  0  0  0  0  0  0  0  0  0
  126.5380  132.2040   61.6840 O   0  0  0  0  0  0  0  0  0  0  0  0
  126.8930  134.3410   61.0220 N   0  0  0  0  0  0  0  0  0  0  0  0
  125.6350  134.9150   61.4960 C   0  0  0  0  0  0  0  0  0  0  0  0
  125.4880  136.4050   61.2090 C   0  0  0  0  0  0  0  0  0  0  0  0
  124.2160  136.9550   61.0220 C   0  0  0  0  0  0  0  0  0  0  0  0
  124.0770  138.3200   60.7850 C   0  0  0  0  0  0  0  0  0  0  0  0
  125.2080  139.1330   60.7460 C   0  0  0  0  0  0  0  0  0  0  0  0
  126.4770  138.5940   60.9470 C   0  0  0  0  0  0  0  0  0  0  0  0
  126.6160  137.2290   61.1850 C   0  0  0  0  0  0  0  0  0  0  0  0
  128.8830  132.7160   58.8970 S   0  0  0  0  0  0  0  0  0  0  0  0
  130.5490  132.2390   59.1320 C   0  0  0  0  0  0  0  0  0  0  0  0
  131.3850  132.0610   58.1080 N   0  0  0  0  0  0  0  0  0  0  0  0
  134.5980  131.2783   57.6172 H   0  0  0  0  0  0  0  0  0  0  0  0
  133.2297  130.6500   56.6376 H   0  0  0  0  0  0  0  0  0  0  0  0
  133.6019  132.4073   56.6376 H   0  0  0  0  0  0  0  0  0  0  0  0
  134.1345  131.2007   59.9239 H   0  0  0  0  0  0  0  0  0  0  0  0
  131.9865  131.7837   62.9474 H   0  0  0  0  0  0  0  0  0  0  0  0
  132.9711  130.4011   62.3595 H   0  0  0  0  0  0  0  0  0  0  0  0
  133.6613  132.0595   62.3595 H   0  0  0  0  0  0  0  0  0  0  0  0
  130.6160  132.5490   63.2330 H   0  0  0  0  0  0  0  0  0  0  0  0
  129.0170  131.9130   63.2520 H   0  0  0  0  0  0  0  0  0  0  0  0
  127.5620  134.9910   60.6360 H   0  0  0  0  0  0  0  0  0  0  0  0
  124.8057  134.3845   61.0052 H   0  0  0  0  0  0  0  0  0  0  0  0
  125.6232  134.7982   62.5897 H   0  0  0  0  0  0  0  0  0  0  0  0
  123.3260  136.3098   61.0621 H   0  0  0  0  0  0  0  0  0  0  0  0
  123.0786  138.7547   60.6292 H   0  0  0  0  0  0  0  0  0  0  0  0
  125.0979  140.2106   60.5547 H   0  0  0  0  0  0  0  0  0  0  0  0
  127.3644  139.2433   60.9178 H   0  0  0  0  0  0  0  0  0  0  0  0
  127.6144  136.7993   61.3542 H   0  0  0  0  0  0  0  0  0  0  0  0
  1  2  1  0
  2  3  2  0
  3  4  1  0
  4  5  1  0
  4  6  2  0
  6  7  1  0
  7  8  1  0
  7  9  2  0
  9 10  1  0
 10 11  2  0
 10 12  1  0
 12 13  1  0
 13 14  1  0
 14 15  2  0
 15 16  1  0
 16 17  2  0
 17 18  1  0
 18 19  2  0
  9 20  1  0
 20 21  1  0
 21 22  2  0
 22  2  1  0
 21  6  1  0
 19 14  1  0
  1 23  1  0
  1 24  1  0
  1 25  1  0
  3 26  1  0
  5 27  1  0
  5 28  1  0
  5 29  1  0
  8 30  1  0
  8 31  1  0
 12 32  1  0
 13 33  1  0
 13 34  1  0
 15 35  1  0
 16 36  1  0
 17 37  1  0
 18 38  1  0
 19 39  1  0
M  END
>  <Binding energies>  (1) 
[-7.67]

>  <Ligand effiencies>  (1) 
[-0.3068]

>  <Interactions>  (1) 
["V-A:ASP:366:CG:3210, V-A:LEU:363:CA:3182, V-A:TYR:531:CE2:4791, V-A:PRO:540:CB:4883, V-A:PRO:540:CA:4881, V-A:LEU:363:CB:3184, V-A:LEU:363:CD1:3186, V-A:TYR:539:CE1:4873, V-A:PRO:540:C:4879, V-A:TYR:539:CD1:4871, V-A:ALA:541:CB:4890, V-A:PRO:540:N:4882, V-A:TYR:539:C:4865, V-A:TYR:539:CG:4870, V-B:PRO:482:CB:9297, V-B:SER:385:CA:8378, V-B:PRO:482:CG:9298, V-B:LEU:475:CD2:9230, V-B:SER:385:CB:8380, V-B:LEU:373:CD1:8251, V-A:ARG:545:CZ:4924, V-A:GLU:543:CD:4906, H-A:GLU:543:OE1:4907, V-A:ASN:362:CB:3173, V-B:VAL:384:C:8368, V-B:LEU:373:CD2:8252, H-A:TYR:539:O:4866, H-A:ALA:541:O:4887, V-A:VAL:344:CG1:2998, V-A:ALA:541:CA:4888, V-A:TYR:539:CB:4869"]

$$$$
4ah_Grossjean_2025
     RDKit          3D

 51 53  0  0  0  0  0  0  0  0999 V2000
  128.6310  122.8380   55.4540 C   0  0  0  0  0  0  0  0  0  0  0  0
  128.5780  122.1220   56.6820 O   0  0  0  0  0  0  0  0  0  0  0  0
  127.9140  122.6760   57.7630 C   0  0  0  0  0  0  0  0  0  0  0  0
  128.5580  123.2040   58.8920 C   0  0  0  0  0  0  0  0  0  0  0  0
  127.8220  123.7460   59.9470 C   0  0  0  0  0  0  0  0  0  0  0  0
  128.5410  124.3580   61.1440 C   0  0  0  0  0  0  0  0  0  0  0  0
  127.9670  125.6300   61.5840 N   0  0  0  0  0  0  0  0  0  0  0  0
  127.8920  126.7520   60.8390 C   0  0  0  0  0  0  0  0  0  0  0  0
  128.3480  126.8230   59.6960 O   0  0  0  0  0  0  0  0  0  0  0  0
  127.2710  127.9090   61.4840 C   0  0  0  0  0  0  0  0  0  0  0  0
  126.0860  128.8810   60.6090 S   0  0  0  0  0  0  0  0  0  0  0  0
  125.9120  129.9710   61.9660 C   0  0  0  0  0  0  0  0  0  0  0  0
  125.0820  131.0130   61.9330 N   0  0  0  0  0  0  0  0  0  0  0  0
  125.0390  131.7770   63.0510 C   0  0  0  0  0  0  0  0  0  0  0  0
  124.0900  132.9590   62.9910 C   0  0  0  0  0  0  0  0  0  0  0  0
  125.8000  131.5250   64.1900 C   0  0  0  0  0  0  0  0  0  0  0  0
  126.6730  130.4320   64.2230 C   0  0  0  0  0  0  0  0  0  0  0  0
  127.4830  130.1980   65.4890 C   0  0  0  0  0  0  0  0  0  0  0  0
  126.7460  129.6070   63.0670 C   0  0  0  0  0  0  0  0  0  0  0  0
  127.5200  128.4340   62.7600 C   0  0  0  0  0  0  0  0  0  0  0  0
  128.4090  127.8870   63.6500 N   0  0  0  0  0  0  0  0  0  0  0  0
  126.4300  123.7880   59.8640 C   0  0  0  0  0  0  0  0  0  0  0  0
  125.7580  123.2630   58.7490 C   0  0  0  0  0  0  0  0  0  0  0  0
  124.3820  123.2580   58.6090 O   0  0  0  0  0  0  0  0  0  0  0  0
  123.7390  124.3700   57.9960 C   0  0  0  0  0  0  0  0  0  0  0  0
  126.5120  122.7030   57.7080 C   0  0  0  0  0  0  0  0  0  0  0  0
  125.8690  122.2010   56.6020 O   0  0  0  0  0  0  0  0  0  0  0  0
  125.3980  123.1980   55.7050 C   0  0  0  0  0  0  0  0  0  0  0  0
  128.7108  123.9154   55.6609 H   0  0  0  0  0  0  0  0  0  0  0  0
  129.5073  122.5098   54.8757 H   0  0  0  0  0  0  0  0  0  0  0  0
  127.7159  122.6424   54.8757 H   0  0  0  0  0  0  0  0  0  0  0  0
  129.6566  123.1907   58.9465 H   0  0  0  0  0  0  0  0  0  0  0  0
  128.4913  123.6459   61.9809 H   0  0  0  0  0  0  0  0  0  0  0  0
  129.5751  124.5621   60.8295 H   0  0  0  0  0  0  0  0  0  0  0  0
  127.5010  125.6190   62.4790 H   0  0  0  0  0  0  0  0  0  0  0  0
  123.8349  133.2767   64.0128 H   0  0  0  0  0  0  0  0  0  0  0  0
  124.5738  133.7910   62.4584 H   0  0  0  0  0  0  0  0  0  0  0  0
  123.1731  132.6664   62.4584 H   0  0  0  0  0  0  0  0  0  0  0  0
  125.7146  132.1862   65.0649 H   0  0  0  0  0  0  0  0  0  0  0  0
  126.8490  130.3812   66.3690 H   0  0  0  0  0  0  0  0  0  0  0  0
  127.8436  129.1589   65.5068 H   0  0  0  0  0  0  0  0  0  0  0  0
  128.3422  130.8847   65.5068 H   0  0  0  0  0  0  0  0  0  0  0  0
  128.2950  126.9520   64.0110 H   0  0  0  0  0  0  0  0  0  0  0  0
  129.2090  128.4100   63.9790 H   0  0  0  0  0  0  0  0  0  0  0  0
  125.8511  124.2387   60.6836 H   0  0  0  0  0  0  0  0  0  0  0  0
  123.3498  125.0431   58.7741 H   0  0  0  0  0  0  0  0  0  0  0  0
  124.4627  124.9127   57.3701 H   0  0  0  0  0  0  0  0  0  0  0  0
  122.9076  124.0135   57.3701 H   0  0  0  0  0  0  0  0  0  0  0  0
  124.9970  124.0469   56.2781 H   0  0  0  0  0  0  0  0  0  0  0  0
  126.2284  123.5430   55.0714 H   0  0  0  0  0  0  0  0  0  0  0  0
  124.6042  122.7757   55.0714 H   0  0  0  0  0  0  0  0  0  0  0  0
  1  2  1  0
  2  3  1  0
  3  4  2  0
  4  5  1  0
  5  6  1  0
  6  7  1  0
  7  8  1  0
  8  9  2  0
  8 10  1  0
 10 11  1  0
 11 12  1  0
 12 13  2  0
 13 14  1  0
 14 15  1  0
 14 16  2  0
 16 17  1  0
 17 18  1  0
 17 19  2  0
 19 20  1  0
 20 21  1  0
  5 22  2  0
 22 23  1  0
 23 24  1  0
 24 25  1  0
 23 26  2  0
 26 27  1  0
 27 28  1  0
 26  3  1  0
 20 10  2  0
 19 12  1  0
  1 29  1  0
  1 30  1  0
  1 31  1  0
  4 32  1  0
  6 33  1  0
  6 34  1  0
  7 35  1  0
 15 36  1  0
 15 37  1  0
 15 38  1  0
 16 39  1  0
 18 40  1  0
 18 41  1  0
 18 42  1  0
 21 43  1  0
 21 44  1  0
 22 45  1  0
 25 46  1  0
 25 47  1  0
 25 48  1  0
 28 49  1  0
 28 50  1  0
 28 51  1  0
M  END
>  <Binding energies>  (1) 
[-6.96]

>  <Ligand effiencies>  (1) 
[-0.22451612903225807]

>  <Interactions>  (1) 
["V-B:ASP:366:CG:8184, V-B:ASP:366:CB:8183, V-B:PRO:540:CA:9855, V-B:LEU:363:CA:8156, V-B:PRO:540:CB:9857, V-B:LEU:363:CD1:8160, V-B:MET:535:CE:9807, V-B:ILE:538:CG2:9835, V-B:ILE:538:CB:9834, V-B:ILE:538:CA:9832, V-B:PRO:540:CD:9859, V-B:PRO:540:N:9856, V-B:GLU:543:CD:9880, V-B:TYR:539:C:9839, V-B:TYR:539:CE1:9847, V-B:TYR:539:CD1:9845, V-B:ILE:369:CD1:8210, V-B:TYR:539:CG:9844, H-B:TYR:539:N:9842, V-B:TYR:539:CZ:9849, V-B:TYR:531:CE2:9765, V-B:LEU:475:CD2:9230, V-B:GLY:454:CA:9020, V-B:TYR:539:CE2:9848, V-A:GLU:543:CD:4906, H-A:GLU:543:OE2:4908, H-A:GLU:543:OE1:4907, V-A:GLU:543:CB:4904, V-B:TYR:539:CD2:9846, H-B:GLU:543:OE1:9881, H-B:GLU:543:OE2:9882"]

$$$$
4ai_Grossjean_2025
     RDKit          3D

 32 34  0  0  0  0  0  0  0  0999 V2000
  132.4130  132.2550   55.8370 C   0  0  0  0  0  0  0  0  0  0  0  0
  131.8480  132.0370   57.2290 C   0  0  0  0  0  0  0  0  0  0  0  0
  132.6910  131.8600   58.3240 C   0  0  0  0  0  0  0  0  0  0  0  0
  132.1490  131.6670   59.6000 C   0  0  0  0  0  0  0  0  0  0  0  0
  133.1100  131.4800   60.7640 C   0  0  0  0  0  0  0  0  0  0  0  0
  130.7330  131.6590   59.7250 C   0  0  0  0  0  0  0  0  0  0  0  0
  129.8610  131.4920   60.8560 C   0  0  0  0  0  0  0  0  0  0  0  0
  130.3400  131.2840   62.1250 N   0  0  0  0  0  0  0  0  0  0  0  0
  128.4960  131.5660   60.5400 C   0  0  0  0  0  0  0  0  0  0  0  0
  127.3440  131.4310   61.4340 C   0  0  0  0  0  0  0  0  0  0  0  0
  126.2470  131.8950   61.1220 O   0  0  0  0  0  0  0  0  0  0  0  0
  127.5820  130.7580   62.5890 N   0  0  0  0  0  0  0  0  0  0  0  0
  126.6760  130.4780   63.6030 C   0  0  0  0  0  0  0  0  0  0  0  0
  126.9990  129.7100   64.7220 C   0  0  0  0  0  0  0  0  0  0  0  0
  125.8460  129.6660   65.4720 C   0  0  0  0  0  0  0  0  0  0  0  0
  124.8790  130.3710   64.8390 O   0  0  0  0  0  0  0  0  0  0  0  0
  125.4170  130.8820   63.6560 N   0  0  0  0  0  0  0  0  0  0  0  0
  128.2560  131.8240   58.8100 S   0  0  0  0  0  0  0  0  0  0  0  0
  129.9830  131.8510   58.5260 C   0  0  0  0  0  0  0  0  0  0  0  0
  130.4950  132.0340   57.3090 N   0  0  0  0  0  0  0  0  0  0  0  0
  133.4367  132.6500   55.9145 H   0  0  0  0  0  0  0  0  0  0  0  0
  132.4292  131.2986   55.2939 H   0  0  0  0  0  0  0  0  0  0  0  0
  131.7825  132.9744   55.2939 H   0  0  0  0  0  0  0  0  0  0  0  0
  133.7822  131.8719   58.1858 H   0  0  0  0  0  0  0  0  0  0  0  0
  132.5626  131.5865   61.7122 H   0  0  0  0  0  0  0  0  0  0  0  0
  133.5597  130.4775   60.7108 H   0  0  0  0  0  0  0  0  0  0  0  0
  133.9028  132.2407   60.7108 H   0  0  0  0  0  0  0  0  0  0  0  0
  130.8880  130.4700   62.3620 H   0  0  0  0  0  0  0  0  0  0  0  0
  130.1530  131.9420   62.8700 H   0  0  0  0  0  0  0  0  0  0  0  0
  128.5170  130.4100   62.7340 H   0  0  0  0  0  0  0  0  0  0  0  0
  127.9664  129.2409   64.9546 H   0  0  0  0  0  0  0  0  0  0  0  0
  125.7289  129.1420   66.4320 H   0  0  0  0  0  0  0  0  0  0  0  0
  1  2  1  0
  2  3  2  0
  3  4  1  0
  4  5  1  0
  4  6  2  0
  6  7  1  0
  7  8  1  0
  7  9  2  0
  9 10  1  0
 10 11  2  0
 10 12  1  0
 12 13  1  0
 13 14  1  0
 14 15  2  0
 15 16  1  0
 16 17  1  0
  9 18  1  0
 18 19  1  0
 19 20  2  0
 20  2  1  0
 19  6  1  0
 17 13  2  0
  1 21  1  0
  1 22  1  0
  1 23  1  0
  3 24  1  0
  5 25  1  0
  5 26  1  0
  5 27  1  0
  8 28  1  0
  8 29  1  0
 12 30  1  0
 14 31  1  0
 15 32  1  0
M  END
>  <Binding energies>  (1) 
[-6.78]

>  <Ligand effiencies>  (1) 
[-0.2947826086956522]

>  <Interactions>  (1) 
["V-A:ASP:366:CG:3210, V-A:TYR:531:CE2:4791, V-A:PRO:540:CB:4883, V-A:PRO:540:CA:4881, V-A:LEU:363:CD1:3186, V-A:TYR:539:CZ:4875, V-A:TYR:539:CE1:4873, V-A:TYR:539:CD1:4871, V-A:PRO:540:N:4882, V-B:ARG:545:CZ:9898, V-A:ILE:538:CB:4860, V-A:ILE:538:CG2:4861, H-B:TYR:484:OH:9319, H-B:GLY:454:N:9021, V-A:GLU:543:CD:4906, H-A:GLU:543:OE2:4908, H-A:GLU:543:OE1:4907, V-A:ASN:362:CB:3173, H-A:ALA:541:O:4887"]

$$$$
4aj_Grossjean_2025
     RDKit          3D

 32 34  0  0  0  0  0  0  0  0999 V2000
  132.2900  125.8460   64.5810 C   0  0  0  0  0  0  0  0  0  0  0  0
  131.8880  124.6500   63.7360 C   0  0  0  0  0  0  0  0  0  0  0  0
  130.5670  124.4680   63.3340 C   0  0  0  0  0  0  0  0  0  0  0  0
  130.2190  123.3550   62.5600 C   0  0  0  0  0  0  0  0  0  0  0  0
  128.7630  123.2010   62.1450 C   0  0  0  0  0  0  0  0  0  0  0  0
  131.2480  122.4410   62.2100 C   0  0  0  0  0  0  0  0  0  0  0  0
  131.2450  121.2220   61.4460 C   0  0  0  0  0  0  0  0  0  0  0  0
  130.1020  120.7130   60.8850 N   0  0  0  0  0  0  0  0  0  0  0  0
  132.5070  120.6190   61.3300 C   0  0  0  0  0  0  0  0  0  0  0  0
  132.8630  119.3780   60.6400 C   0  0  0  0  0  0  0  0  0  0  0  0
  133.8650  119.3200   59.9240 O   0  0  0  0  0  0  0  0  0  0  0  0
  132.0310  118.3300   60.8600 N   0  0  0  0  0  0  0  0  0  0  0  0
  132.1480  117.0490   60.3390 C   0  0  0  0  0  0  0  0  0  0  0  0
  133.1130  116.1780   60.5470 N   0  0  0  0  0  0  0  0  0  0  0  0
  132.8980  115.0520   59.8940 C   0  0  0  0  0  0  0  0  0  0  0  0
  131.7340  114.9940   59.1320 C   0  0  0  0  0  0  0  0  0  0  0  0
  130.8820  116.5020   59.2890 S   0  0  0  0  0  0  0  0  0  0  0  0
  133.7380  121.5480   62.1870 S   0  0  0  0  0  0  0  0  0  0  0  0
  132.5610  122.7430   62.6830 C   0  0  0  0  0  0  0  0  0  0  0  0
  132.8970  123.8010   63.4210 N   0  0  0  0  0  0  0  0  0  0  0  0
  132.2032  125.5878   65.6467 H   0  0  0  0  0  0  0  0  0  0  0  0
  133.3303  126.1221   64.3542 H   0  0  0  0  0  0  0  0  0  0  0  0
  131.6277  126.6944   64.3542 H   0  0  0  0  0  0  0  0  0  0  0  0
  129.7977  125.1985   63.6246 H   0  0  0  0  0  0  0  0  0  0  0  0
  128.1309  123.1341   63.0428 H   0  0  0  0  0  0  0  0  0  0  0  0
  128.4583  124.0719   61.5461 H   0  0  0  0  0  0  0  0  0  0  0  0
  128.6473  122.2856   61.5461 H   0  0  0  0  0  0  0  0  0  0  0  0
  129.1960  121.1270   61.0510 H   0  0  0  0  0  0  0  0  0  0  0  0
  130.1280  119.9020   60.2840 H   0  0  0  0  0  0  0  0  0  0  0  0
  131.2410  118.4860   61.4700 H   0  0  0  0  0  0  0  0  0  0  0  0
  133.5991  114.2062   59.9485 H   0  0  0  0  0  0  0  0  0  0  0  0
  131.4066  114.1343   58.5289 H   0  0  0  0  0  0  0  0  0  0  0  0
  1  2  1  0
  2  3  2  0
  3  4  1  0
  4  5  1  0
  4  6  2  0
  6  7  1  0
  7  8  1  0
  7  9  2  0
  9 10  1  0
 10 11  2  0
 10 12  1  0
 12 13  1  0
 13 14  2  0
 14 15  1  0
 15 16  2  0
 16 17  1  0
  9 18  1  0
 18 19  1  0
 19 20  2  0
 20  2  1  0
 19  6  1  0
 17 13  1  0
  1 21  1  0
  1 22  1  0
  1 23  1  0
  3 24  1  0
  5 25  1  0
  5 26  1  0
  5 27  1  0
  8 28  1  0
  8 29  1  0
 12 30  1  0
 15 31  1  0
 16 32  1  0
M  END
>  <Binding energies>  (1) 
[-6.75]

>  <Ligand effiencies>  (1) 
[-0.29347826086956524]

>  <Interactions>  (1) 
["V-B:ALA:541:CB:9864, V-A:LEU:475:CD2:4256, V-B:GLU:543:CD:9880, V-B:TYR:539:C:9839, V-B:TYR:539:CE1:9847, V-B:TYR:539:CD1:9845, V-B:TYR:539:CG:9844, V-A:ILE:369:CD1:3236, V-A:ILE:369:CG2:3234, H-A:GLY:454:N:4047, V-A:GLY:454:CA:4046, H-A:TYR:484:OH:4345, V-A:ARG:545:CZ:4924, H-B:TYR:539:O:9840, V-A:PRO:482:CG:4324, V-A:SER:385:CA:3404, V-B:TYR:539:CB:9843, V-A:HIS:383:CG:3387, V-A:HIS:383:CB:3386, V-A:LEU:373:CD1:3277, V-B:VAL:344:CG1:7972, V-A:HIS:383:CD2:3389, V-A:HIS:383:CE1:3391"]

$$$$
4ak_Grossjean_2025
     RDKit          3D

 50 51  0  0  0  0  0  0  0  0999 V2000
  131.5530  126.2470   74.1570 C   0  0  0  0  0  0  0  0  0  0  0  0
  130.1720  125.9590   74.0090 O   0  0  0  0  0  0  0  0  0  0  0  0
  129.6940  126.1420   72.6820 C   0  0  0  0  0  0  0  0  0  0  0  0
  129.6890  127.6370   72.3420 C   0  0  0  0  0  0  0  0  0  0  0  0
  128.3970  128.1740   72.5940 O   0  0  0  0  0  0  0  0  0  0  0  0
  127.5810  127.3440   73.4100 C   0  0  0  0  0  0  0  0  0  0  0  0
  126.6830  128.2230   74.2900 C   0  0  0  0  0  0  0  0  0  0  0  0
  127.1170  128.1350   75.6400 O   0  0  0  0  0  0  0  0  0  0  0  0
  127.0570  129.3690   76.3440 C   0  0  0  0  0  0  0  0  0  0  0  0
  126.3560  130.4220   75.4670 C   0  0  0  0  0  0  0  0  0  0  0  0
  127.2380  131.5070   75.0360 N   0  0  0  0  0  0  0  0  0  0  0  0
  128.4050  131.3490   74.3780 C   0  0  0  0  0  0  0  0  0  0  0  0
  128.8350  130.2410   74.0510 O   0  0  0  0  0  0  0  0  0  0  0  0
  129.1350  132.5750   74.0610 C   0  0  0  0  0  0  0  0  0  0  0  0
  129.7860  132.8300   72.4420 S   0  0  0  0  0  0  0  0  0  0  0  0
  130.4260  134.3930   72.8960 C   0  0  0  0  0  0  0  0  0  0  0  0
  131.0960  135.1590   72.0330 N   0  0  0  0  0  0  0  0  0  0  0  0
  131.5410  136.3460   72.5130 C   0  0  0  0  0  0  0  0  0  0  0  0
  132.3000  137.2030   71.5160 C   0  0  0  0  0  0  0  0  0  0  0  0
  131.3320  136.7810   73.8200 C   0  0  0  0  0  0  0  0  0  0  0  0
  130.6280  135.9760   74.7230 C   0  0  0  0  0  0  0  0  0  0  0  0
  130.4290  136.4920   76.1390 C   0  0  0  0  0  0  0  0  0  0  0  0
  130.1470  134.7230   74.2560 C   0  0  0  0  0  0  0  0  0  0  0  0
  129.4040  133.6710   74.8960 C   0  0  0  0  0  0  0  0  0  0  0  0
  129.0060  133.7460   76.2070 N   0  0  0  0  0  0  0  0  0  0  0  0
  131.8041  126.2994   75.2267 H   0  0  0  0  0  0  0  0  0  0  0  0
  132.1463  125.4533   73.6795 H   0  0  0  0  0  0  0  0  0  0  0  0
  131.7796  127.2117   73.6795 H   0  0  0  0  0  0  0  0  0  0  0  0
  130.3505  125.6083   71.9790 H   0  0  0  0  0  0  0  0  0  0  0  0
  128.6714  125.7446   72.6026 H   0  0  0  0  0  0  0  0  0  0  0  0
  130.4309  128.1577   72.9653 H   0  0  0  0  0  0  0  0  0  0  0  0
  129.9430  127.7734   71.2805 H   0  0  0  0  0  0  0  0  0  0  0  0
  126.9554  126.7025   72.7719 H   0  0  0  0  0  0  0  0  0  0  0  0
  128.2182  126.7137   74.0477 H   0  0  0  0  0  0  0  0  0  0  0  0
  126.7459  129.2676   73.9512 H   0  0  0  0  0  0  0  0  0  0  0  0
  125.6415  127.8772   74.2147 H   0  0  0  0  0  0  0  0  0  0  0  0
  126.4909  129.2324   77.2772 H   0  0  0  0  0  0  0  0  0  0  0  0
  128.0763  129.7073   76.5818 H   0  0  0  0  0  0  0  0  0  0  0  0
  125.9588  129.9205   74.5721 H   0  0  0  0  0  0  0  0  0  0  0  0
  125.5628  130.8754   76.0795 H   0  0  0  0  0  0  0  0  0  0  0  0
  126.9400  132.4430   75.2680 H   0  0  0  0  0  0  0  0  0  0  0  0
  132.9349  137.9199   72.0573 H   0  0  0  0  0  0  0  0  0  0  0  0
  132.9299  136.5596   70.8842 H   0  0  0  0  0  0  0  0  0  0  0  0
  131.5852  137.7505   70.8842 H   0  0  0  0  0  0  0  0  0  0  0  0
  131.7207  137.7582   74.1426 H   0  0  0  0  0  0  0  0  0  0  0  0
  130.7286  135.7151   76.8578 H   0  0  0  0  0  0  0  0  0  0  0  0
  131.0452  137.3903   76.2919 H   0  0  0  0  0  0  0  0  0  0  0  0
  129.3692  136.7439   76.2919 H   0  0  0  0  0  0  0  0  0  0  0  0
  128.0300  133.7440   76.4680 H   0  0  0  0  0  0  0  0  0  0  0  0
  129.6790  133.8030   76.9570 H   0  0  0  0  0  0  0  0  0  0  0  0
  1  2  1  0
  2  3  1  0
  3  4  1  0
  4  5  1  0
  5  6  1  0
  6  7  1  0
  7  8  1  0
  8  9  1  0
  9 10  1  0
 10 11  1  0
 11 12  1  0
 12 13  2  0
 12 14  1  0
 14 15  1  0
 15 16  1  0
 16 17  2  0
 17 18  1  0
 18 19  1  0
 18 20  2  0
 20 21  1  0
 21 22  1  0
 21 23  2  0
 23 24  1  0
 24 25  1  0
 24 14  2  0
 23 16  1  0
  1 26  1  0
  1 27  1  0
  1 28  1  0
  3 29  1  0
  3 30  1  0
  4 31  1  0
  4 32  1  0
  6 33  1  0
  6 34  1  0
  7 35  1  0
  7 36  1  0
  9 37  1  0
  9 38  1  0
 10 39  1  0
 10 40  1  0
 11 41  1  0
 19 42  1  0
 19 43  1  0
 19 44  1  0
 20 45  1  0
 22 46  1  0
 22 47  1  0
 22 48  1  0
 25 49  1  0
 25 50  1  0
M  END
>  <Binding energies>  (1) 
[-6.45]

>  <Ligand effiencies>  (1) 
[-0.23035714285714287]

>  <Interactions>  (1) 
["V-A:GLY:544:CA:4912, V-B:HIS:456:CG:9037, V-B:HIS:456:CD2:9039, V-B:HIS:456:CB:9036, V-B:TYR:484:CD2:9315, V-B:GLY:544:C:9884, V-B:GLY:544:CA:9886, V-A:GLU:543:C:4900, V-B:ASP:473:CG:9211, H-B:LYS:547:NZ:9923, V-A:LYS:547:CE:4948, V-B:TYR:484:CG:9313, V-B:TYR:484:CB:9312, H-A:LYS:547:NZ:4949, V-B:LYS:547:CE:9922, V-A:HIS:456:CD2:4065, H-B:HIS:456:NE2:9041, V-A:HIS:456:CG:4063, V-A:HIS:456:CB:4062, H-B:ASP:473:OD2:9213, V-A:VAL:542:CG1:4897, H-B:TYR:484:N:9311, V-B:SER:483:CB:9304, V-B:SER:483:CA:9302"]

$$$$
4al_Grossjean_2025
     RDKit          3D

 28 29  0  0  0  0  0  0  0  0999 V2000
  131.2040  115.4300   58.5020 C   0  0  0  0  0  0  0  0  0  0  0  0
  131.9220  115.5490   59.7210 O   0  0  0  0  0  0  0  0  0  0  0  0
  132.8960  116.4850   59.8670 C   0  0  0  0  0  0  0  0  0  0  0  0
  134.0950  116.2680   59.6760 O   0  0  0  0  0  0  0  0  0  0  0  0
  132.3700  117.8020   60.2850 C   0  0  0  0  0  0  0  0  0  0  0  0
  130.6510  117.9940   60.6380 S   0  0  0  0  0  0  0  0  0  0  0  0
  130.8740  119.6870   61.0140 C   0  0  0  0  0  0  0  0  0  0  0  0
  129.8580  120.4660   61.3860 N   0  0  0  0  0  0  0  0  0  0  0  0
  130.1660  121.7610   61.6490 C   0  0  0  0  0  0  0  0  0  0  0  0
  128.9960  122.6300   62.0710 C   0  0  0  0  0  0  0  0  0  0  0  0
  131.4520  122.2870   61.5500 C   0  0  0  0  0  0  0  0  0  0  0  0
  132.5160  121.4670   61.1590 C   0  0  0  0  0  0  0  0  0  0  0  0
  133.9010  122.0860   61.0640 C   0  0  0  0  0  0  0  0  0  0  0  0
  132.2310  120.1040   60.8750 C   0  0  0  0  0  0  0  0  0  0  0  0
  133.0610  119.0070   60.4580 C   0  0  0  0  0  0  0  0  0  0  0  0
  134.4100  119.1400   60.2500 N   0  0  0  0  0  0  0  0  0  0  0  0
  130.1401  115.2537   58.7188 H   0  0  0  0  0  0  0  0  0  0  0  0
  131.3109  116.3581   57.9214 H   0  0  0  0  0  0  0  0  0  0  0  0
  131.6047  114.5860   57.9214 H   0  0  0  0  0  0  0  0  0  0  0  0
  128.9448  122.6680   63.1692 H   0  0  0  0  0  0  0  0  0  0  0  0
  129.1330  123.6470   61.6749 H   0  0  0  0  0  0  0  0  0  0  0  0
  128.0619  122.2050   61.6749 H   0  0  0  0  0  0  0  0  0  0  0  0
  131.6311  123.3478   61.7794 H   0  0  0  0  0  0  0  0  0  0  0  0
  134.2943  122.2618   62.0761 H   0  0  0  0  0  0  0  0  0  0  0  0
  134.5720  121.4021   60.5236 H   0  0  0  0  0  0  0  0  0  0  0  0
  133.8390  123.0421   60.5236 H   0  0  0  0  0  0  0  0  0  0  0  0
  134.9330  118.4770   59.6960 H   0  0  0  0  0  0  0  0  0  0  0  0
  134.9300  119.9110   60.6480 H   0  0  0  0  0  0  0  0  0  0  0  0
  1  2  1  0
  2  3  1  0
  3  4  2  0
  3  5  1  0
  5  6  1  0
  6  7  1  0
  7  8  2  0
  8  9  1  0
  9 10  1  0
  9 11  2  0
 11 12  1  0
 12 13  1  0
 12 14  2  0
 14 15  1  0
 15 16  1  0
 15  5  2  0
 14  7  1  0
  1 17  1  0
  1 18  1  0
  1 19  1  0
 10 20  1  0
 10 21  1  0
 10 22  1  0
 11 23  1  0
 13 24  1  0
 13 25  1  0
 13 26  1  0
 16 27  1  0
 16 28  1  0
M  END
>  <Binding energies>  (1) 
[-5.66]

>  <Ligand effiencies>  (1) 
[-0.31444444444444447]

>  <Interactions>  (1) 
["V-B:ALA:541:CB:9864, V-A:LEU:475:CD2:4256, V-B:TYR:539:CE1:9847, V-B:TYR:539:CD1:9845, V-A:ILE:369:CD1:3236, V-A:ILE:369:CG2:3234, V-A:PRO:482:CG:4324, V-A:SER:385:CB:3406, V-A:PRO:482:CB:4323, V-A:SER:385:CA:3404, V-B:TYR:539:CB:9843, V-A:HIS:383:CG:3387, V-A:LEU:373:CD2:3278, V-A:LEU:373:CD1:3277, V-A:VAL:384:C:3394, V-B:VAL:344:CG1:7972, V-A:SER:385:C:3402, V-B:ILE:343:CD1:7965, V-A:HIS:383:CD2:3389, V-A:HIS:383:CE1:3391, H-A:SER:385:O:3403, H-A:VAL:384:O:3395, H-A:SER:385:N:3405, V-B:ILE:343:CG1:7964, H-A:VAL:384:N:3397"]

$$$$
4ba_Grossjean_2025
     RDKit          3D

 44 46  0  0  0  0  0  0  0  0999 V2000
  126.2830  137.8460   60.6090 C   0  0  0  0  0  0  0  0  0  0  0  0
  125.9000  136.5500   61.3480 C   0  0  0  0  0  0  0  0  0  0  0  0
  127.0880  135.6530   61.7530 C   0  0  0  0  0  0  0  0  0  0  0  0
  128.0610  136.1540   62.3220 O   0  0  0  0  0  0  0  0  0  0  0  0
  126.9970  134.1890   61.4350 C   0  0  0  0  0  0  0  0  0  0  0  0
  128.1700  133.4660   61.1840 C   0  0  0  0  0  0  0  0  0  0  0  0
  128.1150  132.1080   60.8850 C   0  0  0  0  0  0  0  0  0  0  0  0
  126.8890  131.4430   60.8340 C   0  0  0  0  0  0  0  0  0  0  0  0
  126.9480  130.0730   60.5140 N   0  0  0  0  0  0  0  0  0  0  0  0
  126.8550  128.9850   61.3180 C   0  0  0  0  0  0  0  0  0  0  0  0
  126.7370  129.0380   62.5430 O   0  0  0  0  0  0  0  0  0  0  0  0
  126.9290  127.6930   60.6320 C   0  0  0  0  0  0  0  0  0  0  0  0
  126.5430  127.5770   58.9170 S   0  0  0  0  0  0  0  0  0  0  0  0
  126.8070  125.8500   58.9270 C   0  0  0  0  0  0  0  0  0  0  0  0
  126.6560  125.1180   57.8240 N   0  0  0  0  0  0  0  0  0  0  0  0
  126.8870  123.7920   57.9540 C   0  0  0  0  0  0  0  0  0  0  0  0
  126.7000  122.9760   56.6880 C   0  0  0  0  0  0  0  0  0  0  0  0
  127.2680  123.1860   59.1490 C   0  0  0  0  0  0  0  0  0  0  0  0
  127.4290  123.9520   60.3150 C   0  0  0  0  0  0  0  0  0  0  0  0
  127.8510  123.2410   61.6050 C   0  0  0  0  0  0  0  0  0  0  0  0
  128.2000  121.9680   61.4100 F   0  0  0  0  0  0  0  0  0  0  0  0
  128.9000  123.8640   62.1430 F   0  0  0  0  0  0  0  0  0  0  0  0
  126.8410  123.2500   62.4750 F   0  0  0  0  0  0  0  0  0  0  0  0
  127.1870  125.3550   60.2120 C   0  0  0  0  0  0  0  0  0  0  0  0
  127.2390  126.4330   61.1690 C   0  0  0  0  0  0  0  0  0  0  0  0
  127.5650  126.2360   62.4870 N   0  0  0  0  0  0  0  0  0  0  0  0
  125.7090  132.1610   61.0780 C   0  0  0  0  0  0  0  0  0  0  0  0
  125.7660  133.5200   61.3770 C   0  0  0  0  0  0  0  0  0  0  0  0
  126.5152  138.6317   61.3430 H   0  0  0  0  0  0  0  0  0  0  0  0
  127.1650  137.6614   59.9781 H   0  0  0  0  0  0  0  0  0  0  0  0
  125.4423  138.1705   59.9781 H   0  0  0  0  0  0  0  0  0  0  0  0
  125.3550  136.8273   62.2624 H   0  0  0  0  0  0  0  0  0  0  0  0
  125.2976  135.9605   60.6412 H   0  0  0  0  0  0  0  0  0  0  0  0
  129.1437  133.9763   61.2236 H   0  0  0  0  0  0  0  0  0  0  0  0
  129.0448  131.5545   60.6874 H   0  0  0  0  0  0  0  0  0  0  0  0
  127.0970  129.8850   59.5350 H   0  0  0  0  0  0  0  0  0  0  0  0
  126.4616  121.9357   56.9542 H   0  0  0  0  0  0  0  0  0  0  0  0
  125.8760  123.4011   56.0961 H   0  0  0  0  0  0  0  0  0  0  0  0
  127.6269  122.9998   56.0961 H   0  0  0  0  0  0  0  0  0  0  0  0
  127.4439  122.1006   59.1796 H   0  0  0  0  0  0  0  0  0  0  0  0
  127.4460  126.9610   63.1810 H   0  0  0  0  0  0  0  0  0  0  0  0
  127.9440  125.3570   62.8100 H   0  0  0  0  0  0  0  0  0  0  0  0
  124.7362  131.6494   61.0331 H   0  0  0  0  0  0  0  0  0  0  0  0
  124.8357  134.0744   61.5697 H   0  0  0  0  0  0  0  0  0  0  0  0
  1  2  1  0
  2  3  1  0
  3  4  2  0
  3  5  1  0
  5  6  2  0
  6  7  1  0
  7  8  2  0
  8  9  1  0
  9 10  1  0
 10 11  2  0
 10 12  1  0
 12 13  1  0
 13 14  1  0
 14 15  2  0
 15 16  1  0
 16 17  1  0
 16 18  2  0
 18 19  1  0
 19 20  1  0
 20 21  1  0
 20 22  1  0
 20 23  1  0
 19 24  2  0
 24 25  1  0
 25 26  1  0
  8 27  1  0
 27 28  2  0
 28  5  1  0
 25 12  2  0
 24 14  1  0
  1 29  1  0
  1 30  1  0
  1 31  1  0
  2 32  1  0
  2 33  1  0
  6 34  1  0
  7 35  1  0
  9 36  1  0
 17 37  1  0
 17 38  1  0
 17 39  1  0
 18 40  1  0
 26 41  1  0
 26 42  1  0
 27 43  1  0
 28 44  1  0
M  END
>  <Binding energies>  (1) 
[-6.08]

>  <Ligand effiencies>  (1) 
[-0.19612903225806452]

>  <Interactions>  (1) 
["V-B:ASP:366:CG:8184, V-B:ASP:366:CB:8183, V-A:TYR:539:CE1:4873, H-B:TYR:531:OH:9767, V-B:PRO:540:CA:9855, V-B:ALA:541:CB:9864, V-B:ALA:541:CA:9862, V-B:ALA:541:C:9860, V-B:PRO:540:N:9856, V-B:GLU:543:CD:9880, V-B:TYR:539:C:9839, V-B:PRO:540:C:9853, V-A:TYR:539:CD1:4871, V-A:ALA:541:CB:4890, V-A:TYR:539:C:4865, V-A:TYR:539:CG:4870, V-B:PRO:482:CG:9298, V-B:LEU:475:CD2:9230, V-B:LEU:373:CD1:8251, H-B:ARG:545:NH2:9900, H-B:GLU:543:OE1:9881, H-B:GLU:543:OE2:9882, V-A:TYR:539:CB:4869"]

$$$$
4bb_Grossjean_2025
     RDKit          3D

 41 43  0  0  0  0  0  0  0  0999 V2000
  133.3190  114.6560   61.5300 C   0  0  0  0  0  0  0  0  0  0  0  0
  133.3960  115.6910   60.4060 C   0  0  0  0  0  0  0  0  0  0  0  0
  134.1060  115.4380   59.4310 O   0  0  0  0  0  0  0  0  0  0  0  0
  132.6140  116.9620   60.5550 C   0  0  0  0  0  0  0  0  0  0  0  0
  133.2900  118.1880   60.5650 C   0  0  0  0  0  0  0  0  0  0  0  0
  132.5880  119.3820   60.7030 C   0  0  0  0  0  0  0  0  0  0  0  0
  131.1970  119.3740   60.8250 C   0  0  0  0  0  0  0  0  0  0  0  0
  130.5880  120.6370   60.9620 N   0  0  0  0  0  0  0  0  0  0  0  0
  130.9410  121.6950   61.7310 C   0  0  0  0  0  0  0  0  0  0  0  0
  131.9000  121.7010   62.5010 O   0  0  0  0  0  0  0  0  0  0  0  0
  130.0690  122.8680   61.6160 C   0  0  0  0  0  0  0  0  0  0  0  0
  130.3630  124.2920   62.6120 S   0  0  0  0  0  0  0  0  0  0  0  0
  128.9730  125.1100   61.9360 C   0  0  0  0  0  0  0  0  0  0  0  0
  128.6370  126.3410   62.3170 N   0  0  0  0  0  0  0  0  0  0  0  0
  127.5420  126.8680   61.7240 C   0  0  0  0  0  0  0  0  0  0  0  0
  127.1770  128.2720   62.1720 C   0  0  0  0  0  0  0  0  0  0  0  0
  126.7820  126.2000   60.7680 C   0  0  0  0  0  0  0  0  0  0  0  0
  127.1310  124.9030   60.3620 C   0  0  0  0  0  0  0  0  0  0  0  0
  126.2640  124.2080   59.3070 C   0  0  0  0  0  0  0  0  0  0  0  0
  125.3510  123.3910   59.8370 F   0  0  0  0  0  0  0  0  0  0  0  0
  125.6120  125.1210   58.5860 F   0  0  0  0  0  0  0  0  0  0  0  0
  127.0330  123.4770   58.5000 F   0  0  0  0  0  0  0  0  0  0  0  0
  128.2820  124.3160   60.9690 C   0  0  0  0  0  0  0  0  0  0  0  0
  128.9300  123.0380   60.8120 C   0  0  0  0  0  0  0  0  0  0  0  0
  128.4740  122.0780   59.9450 N   0  0  0  0  0  0  0  0  0  0  0  0
  130.5140  118.1480   60.8230 C   0  0  0  0  0  0  0  0  0  0  0  0
  131.2180  116.9550   60.6870 C   0  0  0  0  0  0  0  0  0  0  0  0
  133.3571  115.1678   62.5029 H   0  0  0  0  0  0  0  0  0  0  0  0
  132.3766  114.0946   61.4476 H   0  0  0  0  0  0  0  0  0  0  0  0
  134.1680  113.9614   61.4476 H   0  0  0  0  0  0  0  0  0  0  0  0
  134.3851  118.2078   60.4629 H   0  0  0  0  0  0  0  0  0  0  0  0
  133.1324  120.3378   60.7160 H   0  0  0  0  0  0  0  0  0  0  0  0
  129.7480  120.7500   60.4130 H   0  0  0  0  0  0  0  0  0  0  0  0
  127.1658  128.3149   63.2711 H   0  0  0  0  0  0  0  0  0  0  0  0
  127.9196  128.9851   61.7847 H   0  0  0  0  0  0  0  0  0  0  0  0
  126.1811  128.5332   61.7847 H   0  0  0  0  0  0  0  0  0  0  0  0
  125.9021  126.6921   60.3280 H   0  0  0  0  0  0  0  0  0  0  0  0
  128.5500  122.1830   58.9430 H   0  0  0  0  0  0  0  0  0  0  0  0
  128.0430  121.2280   60.2810 H   0  0  0  0  0  0  0  0  0  0  0  0
  129.4193  118.1298   60.9292 H   0  0  0  0  0  0  0  0  0  0  0  0
  130.6747  115.9986   60.6830 H   0  0  0  0  0  0  0  0  0  0  0  0
  1  2  1  0
  2  3  2  0
  2  4  1  0
  4  5  2  0
  5  6  1  0
  6  7  2  0
  7  8  1  0
  8  9  1  0
  9 10  2  0
  9 11  1  0
 11 12  1  0
 12 13  1  0
 13 14  2  0
 14 15  1  0
 15 16  1  0
 15 17  2  0
 17 18  1  0
 18 19  1  0
 19 20  1  0
 19 21  1  0
 19 22  1  0
 18 23  2  0
 23 24  1  0
 24 25  1  0
  7 26  1  0
 26 27  2  0
 27  4  1  0
 24 11  2  0
 23 13  1  0
  1 28  1  0
  1 29  1  0
  1 30  1  0
  5 31  1  0
  6 32  1  0
  8 33  1  0
 16 34  1  0
 16 35  1  0
 16 36  1  0
 17 37  1  0
 25 38  1  0
 25 39  1  0
 26 40  1  0
 27 41  1  0
M  END
>  <Binding energies>  (1) 
[-6.65]

>  <Ligand effiencies>  (1) 
[-0.22166666666666668]

>  <Interactions>  (1) 
["V-B:ASP:366:CG:8184, V-B:ASP:366:CB:8183, V-B:PRO:540:CA:9855, V-B:ALA:541:CB:9864, V-B:PRO:540:CB:9857, V-B:PRO:540:N:9856, V-A:LEU:475:CD2:4256, V-B:GLU:543:CD:9880, V-B:TYR:539:C:9839, V-B:TYR:539:CE1:9847, V-B:TYR:539:CD1:9845, V-B:PRO:540:C:9853, H-B:TYR:539:O:9840, V-A:PRO:482:CG:4324, V-A:SER:385:CB:3406, V-A:PRO:482:CB:4323, V-A:SER:385:CA:3404, V-B:TYR:539:CB:9843, V-A:HIS:383:CB:3386, V-A:LEU:373:CD1:3277, V-A:VAL:384:C:3394, V-A:THR:477:CA:4267, V-A:CYS:476:C:4261, V-A:THR:477:CG2:4270, V-A:THR:477:CB:4269, H-A:VAL:384:N:3397"]

$$$$
4bc_Grossjean_2025
     RDKit          3D

 40 42  0  0  0  0  0  0  0  0999 V2000
  134.2620  125.1410   67.1940 C   0  0  0  0  0  0  0  0  0  0  0  0
  134.3370  125.4860   65.8150 O   0  0  0  0  0  0  0  0  0  0  0  0
  133.2300  125.2910   65.0110 C   0  0  0  0  0  0  0  0  0  0  0  0
  133.4790  124.9520   63.6820 C   0  0  0  0  0  0  0  0  0  0  0  0
  132.4260  124.7370   62.7960 C   0  0  0  0  0  0  0  0  0  0  0  0
  131.1060  124.8500   63.2330 C   0  0  0  0  0  0  0  0  0  0  0  0
  130.1090  124.6300   62.2650 N   0  0  0  0  0  0  0  0  0  0  0  0
  130.2390  124.4430   60.9280 C   0  0  0  0  0  0  0  0  0  0  0  0
  131.3160  124.4750   60.3310 O   0  0  0  0  0  0  0  0  0  0  0  0
  128.9890  124.1980   60.2020 C   0  0  0  0  0  0  0  0  0  0  0  0
  128.9960  124.0630   58.4460 S   0  0  0  0  0  0  0  0  0  0  0  0
  127.2680  123.8030   58.4130 C   0  0  0  0  0  0  0  0  0  0  0  0
  126.6140  123.6150   57.2670 N   0  0  0  0  0  0  0  0  0  0  0  0
  125.2780  123.4260   57.3690 C   0  0  0  0  0  0  0  0  0  0  0  0
  124.5540  123.2080   56.0530 C   0  0  0  0  0  0  0  0  0  0  0  0
  124.5870  123.4220   58.5780 C   0  0  0  0  0  0  0  0  0  0  0  0
  125.2700  123.6210   59.7880 C   0  0  0  0  0  0  0  0  0  0  0  0
  124.4640  123.6110   61.0930 C   0  0  0  0  0  0  0  0  0  0  0  0
  124.5690  124.7510   61.7780 F   0  0  0  0  0  0  0  0  0  0  0  0
  123.1730  123.4240   60.8230 F   0  0  0  0  0  0  0  0  0  0  0  0
  124.8970  122.6290   61.8830 F   0  0  0  0  0  0  0  0  0  0  0  0
  126.6810  123.8210   59.7160 C   0  0  0  0  0  0  0  0  0  0  0  0
  127.6930  124.0470   60.7190 C   0  0  0  0  0  0  0  0  0  0  0  0
  127.4060  124.1060   62.0590 N   0  0  0  0  0  0  0  0  0  0  0  0
  130.8470  125.2040   64.5660 C   0  0  0  0  0  0  0  0  0  0  0  0
  131.9020  125.4190   65.4490 C   0  0  0  0  0  0  0  0  0  0  0  0
  134.4561  126.0339   67.8064 H   0  0  0  0  0  0  0  0  0  0  0  0
  133.2583  124.7520   67.4206 H   0  0  0  0  0  0  0  0  0  0  0  0
  135.0136  124.3705   67.4206 H   0  0  0  0  0  0  0  0  0  0  0  0
  134.5164  124.8534   63.3298 H   0  0  0  0  0  0  0  0  0  0  0  0
  132.6360  124.4772   61.7480 H   0  0  0  0  0  0  0  0  0  0  0  0
  129.1660  124.6460   62.6240 H   0  0  0  0  0  0  0  0  0  0  0  0
  123.5180  122.8961   56.2517 H   0  0  0  0  0  0  0  0  0  0  0  0
  124.5507  124.1450   55.4767 H   0  0  0  0  0  0  0  0  0  0  0  0
  125.0686  122.4250   55.4767 H   0  0  0  0  0  0  0  0  0  0  0  0
  123.4987  123.2618   58.5848 H   0  0  0  0  0  0  0  0  0  0  0  0
  127.4520  123.2910   62.6530 H   0  0  0  0  0  0  0  0  0  0  0  0
  127.1400  124.9760   62.5000 H   0  0  0  0  0  0  0  0  0  0  0  0
  129.8090  125.3118   64.9139 H   0  0  0  0  0  0  0  0  0  0  0  0
  131.6941  125.6904   66.4945 H   0  0  0  0  0  0  0  0  0  0  0  0
  1  2  1  0
  2  3  1  0
  3  4  2  0
  4  5  1  0
  5  6  2  0
  6  7  1  0
  7  8  1  0
  8  9  2  0
  8 10  1  0
 10 11  1  0
 11 12  1  0
 12 13  2  0
 13 14  1  0
 14 15  1  0
 14 16  2  0
 16 17  1  0
 17 18  1  0
 18 19  1  0
 18 20  1  0
 18 21  1  0
 17 22  2  0
 22 23  1  0
 23 24  1  0
  6 25  1  0
 25 26  2  0
 26  3  1  0
 23 10  2  0
 22 12  1  0
  1 27  1  0
  1 28  1  0
  1 29  1  0
  4 30  1  0
  5 31  1  0
  7 32  1  0
 15 33  1  0
 15 34  1  0
 15 35  1  0
 16 36  1  0
 24 37  1  0
 24 38  1  0
 25 39  1  0
 26 40  1  0
M  END
>  <Binding energies>  (1) 
[-6.33]

>  <Ligand effiencies>  (1) 
[-0.21827586206896551]

>  <Interactions>  (1) 
["V-B:ASP:366:CG:8184, V-B:PRO:540:CA:9855, V-B:LEU:363:CA:8156, V-B:PRO:540:CB:9857, V-B:ALA:541:CA:9862, V-B:LEU:363:CD1:8160, V-B:ALA:541:C:9860, V-B:ASN:362:CB:8147, V-B:ASN:362:C:8143, V-B:ILE:538:CG2:9835, V-B:ILE:538:CB:9834, V-B:PRO:540:N:9856, V-B:GLU:543:CD:9880, V-B:TYR:539:CE1:9847, V-B:PRO:540:C:9853, V-B:TYR:531:CE2:9765, V-B:ARG:545:CZ:9898, H-A:GLY:454:N:4047, V-A:GLY:454:CA:4046, H-A:TYR:484:OH:4345, V-B:TYR:531:CZ:9766, V-A:TYR:484:CZ:4344, V-A:ARG:545:CG:4920, V-A:GLY:453:CA:4041, V-A:ARG:545:CD:4921, V-A:HIS:456:CE1:4066, V-A:ARG:545:CZ:4924, V-A:GLY:453:C:4039, H-A:ARG:545:NE:4922, H-B:ALA:541:O:9861, H-B:GLU:543:OE1:9881, H-B:GLU:543:OE2:9882, V-B:LEU:363:CB:8158, V-B:ASN:362:CA:8145, V-A:ARG:545:CB:4919, V-A:GLY:454:C:4044, V-A:ILE:455:C:4049, V-A:TYR:484:CE1:4342"]

$$$$
4bd_Grossjean_2025
     RDKit          3D

 36 38  0  0  0  0  0  0  0  0999 V2000
  132.1330  126.0060   64.9930 C   0  0  0  0  0  0  0  0  0  0  0  0
  131.7630  124.9150   64.0050 C   0  0  0  0  0  0  0  0  0  0  0  0
  130.5120  124.8910   63.3950 C   0  0  0  0  0  0  0  0  0  0  0  0
  130.1830  123.8750   62.4850 C   0  0  0  0  0  0  0  0  0  0  0  0
  128.7930  123.8890   61.8420 C   0  0  0  0  0  0  0  0  0  0  0  0
  128.0000  122.9130   62.2900 F   0  0  0  0  0  0  0  0  0  0  0  0
  128.1860  125.0460   62.1010 F   0  0  0  0  0  0  0  0  0  0  0  0
  128.9040  123.7360   60.5220 F   0  0  0  0  0  0  0  0  0  0  0  0
  131.1790  122.8880   62.2210 C   0  0  0  0  0  0  0  0  0  0  0  0
  131.2060  121.7240   61.3690 C   0  0  0  0  0  0  0  0  0  0  0  0
  130.1440  121.3570   60.5850 N   0  0  0  0  0  0  0  0  0  0  0  0
  132.4130  121.0060   61.4160 C   0  0  0  0  0  0  0  0  0  0  0  0
  132.7750  119.7790   60.7000 C   0  0  0  0  0  0  0  0  0  0  0  0
  133.8570  119.6860   60.1200 O   0  0  0  0  0  0  0  0  0  0  0  0
  131.8500  118.7870   60.7430 N   0  0  0  0  0  0  0  0  0  0  0  0
  131.8700  117.5190   60.1340 C   0  0  0  0  0  0  0  0  0  0  0  0
  133.0750  116.8160   60.2230 C   0  0  0  0  0  0  0  0  0  0  0  0
  133.1910  115.5480   59.6600 C   0  0  0  0  0  0  0  0  0  0  0  0
  132.0980  114.9760   59.0140 C   0  0  0  0  0  0  0  0  0  0  0  0
  130.8880  115.6610   58.9300 C   0  0  0  0  0  0  0  0  0  0  0  0
  130.7680  116.9300   59.4910 C   0  0  0  0  0  0  0  0  0  0  0  0
  133.5610  121.7600   62.5210 S   0  0  0  0  0  0  0  0  0  0  0  0
  132.4210  123.0260   62.9140 C   0  0  0  0  0  0  0  0  0  0  0  0
  132.7280  123.9940   63.7760 N   0  0  0  0  0  0  0  0  0  0  0  0
  132.0056  125.6302   66.0189 H   0  0  0  0  0  0  0  0  0  0  0  0
  133.1814  126.3008   64.8381 H   0  0  0  0  0  0  0  0  0  0  0  0
  131.4802  126.8777   64.8381 H   0  0  0  0  0  0  0  0  0  0  0  0
  129.7759  125.6744   63.6281 H   0  0  0  0  0  0  0  0  0  0  0  0
  129.7160  121.9960   59.9290 H   0  0  0  0  0  0  0  0  0  0  0  0
  129.7530  120.4260   60.6310 H   0  0  0  0  0  0  0  0  0  0  0  0
  131.0310  118.9670   61.3050 H   0  0  0  0  0  0  0  0  0  0  0  0
  133.9351  117.2665   60.7400 H   0  0  0  0  0  0  0  0  0  0  0  0
  134.1425  115.0000   59.7252 H   0  0  0  0  0  0  0  0  0  0  0  0
  132.1908  113.9754   58.5665 H   0  0  0  0  0  0  0  0  0  0  0  0
  130.0284  115.2002   58.4212 H   0  0  0  0  0  0  0  0  0  0  0  0
  129.8119  117.4706   59.4309 H   0  0  0  0  0  0  0  0  0  0  0  0
  1  2  1  0
  2  3  2  0
  3  4  1  0
  4  5  1  0
  5  6  1  0
  5  7  1  0
  5  8  1  0
  4  9  2  0
  9 10  1  0
 10 11  1  0
 10 12  2  0
 12 13  1  0
 13 14  2  0
 13 15  1  0
 15 16  1  0
 16 17  2  0
 17 18  1  0
 18 19  2  0
 19 20  1  0
 20 21  2  0
 12 22  1  0
 22 23  1  0
 23 24  2  0
 24  2  1  0
 23  9  1  0
 21 16  1  0
  1 25  1  0
  1 26  1  0
  1 27  1  0
  3 28  1  0
 11 29  1  0
 11 30  1  0
 15 31  1  0
 17 32  1  0
 18 33  1  0
 19 34  1  0
 20 35  1  0
 21 36  1  0
M  END
>  <Binding energies>  (1) 
[-6.74]

>  <Ligand effiencies>  (1) 
[-0.24962962962962965]

>  <Interactions>  (1) 
["V-B:ALA:541:CB:9864, V-B:ALA:541:CA:9862, V-A:LEU:475:CD2:4256, V-B:GLU:543:CD:9880, V-B:TYR:539:C:9839, V-B:TYR:539:CE1:9847, V-B:TYR:539:CD1:9845, V-B:TYR:539:CG:9844, V-A:ILE:369:CG2:3234, H-A:GLY:454:N:4047, V-A:GLY:454:CA:4046, H-A:TYR:484:OH:4345, V-A:ARG:545:CD:4921, V-A:ARG:545:CZ:4924, H-B:TYR:539:O:9840, V-A:PRO:482:CG:4324, V-A:SER:385:CB:3406, V-A:SER:385:CA:3404, V-B:TYR:539:CB:9843, V-A:HIS:383:CG:3387, V-A:LEU:373:CD2:3278, V-A:HIS:383:CB:3386, V-A:LEU:373:CD1:3277, V-B:VAL:344:CG1:7972, V-B:ILE:343:CD1:7965, V-A:HIS:383:CD2:3389, V-A:HIS:383:CE1:3391"]

$$$$
4be_Grossjean_2025
     RDKit          3D

 38 40  0  0  0  0  0  0  0  0999 V2000
  130.9030  114.9950   58.1330 C   0  0  0  0  0  0  0  0  0  0  0  0
  131.3210  115.6960   59.4110 C   0  0  0  0  0  0  0  0  0  0  0  0
  131.8710  114.9910   60.4850 C   0  0  0  0  0  0  0  0  0  0  0  0
  132.2310  115.7000   61.6310 C   0  0  0  0  0  0  0  0  0  0  0  0
  132.0340  117.0830   61.6760 C   0  0  0  0  0  0  0  0  0  0  0  0
  131.4850  117.7280   60.5630 C   0  0  0  0  0  0  0  0  0  0  0  0
  131.3070  119.1190   60.6740 N   0  0  0  0  0  0  0  0  0  0  0  0
  132.2280  120.0760   60.9470 C   0  0  0  0  0  0  0  0  0  0  0  0
  133.4230  119.8440   61.1410 O   0  0  0  0  0  0  0  0  0  0  0  0
  131.7090  121.4450   61.0250 C   0  0  0  0  0  0  0  0  0  0  0  0
  132.8210  122.8090   61.1250 S   0  0  0  0  0  0  0  0  0  0  0  0
  131.4930  123.9430   61.2110 C   0  0  0  0  0  0  0  0  0  0  0  0
  131.7060  125.2540   61.3050 N   0  0  0  0  0  0  0  0  0  0  0  0
  130.5990  126.0320   61.3620 C   0  0  0  0  0  0  0  0  0  0  0  0
  130.8620  127.5230   61.4720 C   0  0  0  0  0  0  0  0  0  0  0  0
  129.3000  125.5340   61.3250 C   0  0  0  0  0  0  0  0  0  0  0  0
  129.0700  124.1530   61.2250 C   0  0  0  0  0  0  0  0  0  0  0  0
  127.6230  123.6520   61.1850 C   0  0  0  0  0  0  0  0  0  0  0  0
  127.3620  122.8960   60.1150 F   0  0  0  0  0  0  0  0  0  0  0  0
  127.3710  122.9120   62.2640 F   0  0  0  0  0  0  0  0  0  0  0  0
  126.7860  124.6890   61.1560 F   0  0  0  0  0  0  0  0  0  0  0  0
  130.2160  123.3040   61.1670 C   0  0  0  0  0  0  0  0  0  0  0  0
  130.3730  121.8730   61.0710 C   0  0  0  0  0  0  0  0  0  0  0  0
  129.3070  121.0120   61.0240 N   0  0  0  0  0  0  0  0  0  0  0  0
  131.1260  117.0390   59.4400 N   0  0  0  0  0  0  0  0  0  0  0  0
  130.3543  114.0748   58.3822 H   0  0  0  0  0  0  0  0  0  0  0  0
  130.2543  115.6608   57.5449 H   0  0  0  0  0  0  0  0  0  0  0  0
  131.7972  114.7409   57.5449 H   0  0  0  0  0  0  0  0  0  0  0  0
  132.0166  113.9022   60.4279 H   0  0  0  0  0  0  0  0  0  0  0  0
  132.6669  115.1743   62.4934 H   0  0  0  0  0  0  0  0  0  0  0  0
  132.3069  117.6562   62.5743 H   0  0  0  0  0  0  0  0  0  0  0  0
  130.3510  119.4300   60.5750 H   0  0  0  0  0  0  0  0  0  0  0  0
  130.9125  127.8091   62.5329 H   0  0  0  0  0  0  0  0  0  0  0  0
  131.8165  127.7641   60.9814 H   0  0  0  0  0  0  0  0  0  0  0  0
  130.0476  128.0762   60.9814 H   0  0  0  0  0  0  0  0  0  0  0  0
  128.4476  126.2275   61.3745 H   0  0  0  0  0  0  0  0  0  0  0  0
  128.4160  121.2840   60.6340 H   0  0  0  0  0  0  0  0  0  0  0  0
  129.3750  120.0710   61.3870 H   0  0  0  0  0  0  0  0  0  0  0  0
  1  2  1  0
  2  3  2  0
  3  4  1  0
  4  5  2  0
  5  6  1  0
  6  7  1  0
  7  8  1  0
  8  9  2  0
  8 10  1  0
 10 11  1  0
 11 12  1  0
 12 13  2  0
 13 14  1  0
 14 15  1  0
 14 16  2  0
 16 17  1  0
 17 18  1  0
 18 19  1  0
 18 20  1  0
 18 21  1  0
 17 22  2  0
 22 23  1  0
 23 24  1  0
  6 25  2  0
 25  2  1  0
 23 10  2  0
 22 12  1  0
  1 26  1  0
  1 27  1  0
  1 28  1  0
  3 29  1  0
  4 30  1  0
  5 31  1  0
  7 32  1  0
 15 33  1  0
 15 34  1  0
 15 35  1  0
 16 36  1  0
 24 37  1  0
 24 38  1  0
M  END
>  <Binding energies>  (1) 
[-6.9]

>  <Ligand effiencies>  (1) 
[-0.24642857142857144]

>  <Interactions>  (1) 
["V-B:PRO:540:CA:9855, V-B:ALA:541:CB:9864, V-B:ALA:541:CA:9862, V-B:ALA:541:C:9860, V-B:PRO:540:N:9856, V-A:LEU:475:CD2:4256, V-B:GLU:543:CD:9880, V-B:TYR:539:C:9839, V-B:TYR:539:CE1:9847, V-B:TYR:539:CD1:9845, V-B:PRO:540:C:9853, V-B:TYR:539:CG:9844, H-B:TYR:539:O:9840, V-A:PRO:482:CG:4324, V-A:SER:385:CB:3406, V-A:PRO:482:CB:4323, V-B:TYR:539:CB:9843, V-A:HIS:383:CG:3387, V-A:HIS:383:CB:3386, V-B:VAL:344:CG1:7972, V-A:LEU:475:CG:4254, V-B:ILE:343:CD1:7965, V-A:HIS:383:CD2:3389, V-A:HIS:383:CE1:3391, V-B:ILE:343:CG1:7964"]

$$$$
4bf_Grossjean_2025
     RDKit          3D

 35 37  0  0  0  0  0  0  0  0999 V2000
  132.2310  132.1570   55.7860 C   0  0  0  0  0  0  0  0  0  0  0  0
  131.7110  131.9350   57.1960 C   0  0  0  0  0  0  0  0  0  0  0  0
  132.5850  131.8270   58.2740 C   0  0  0  0  0  0  0  0  0  0  0  0
  132.0920  131.6180   59.5710 C   0  0  0  0  0  0  0  0  0  0  0  0
  133.0920  131.5040   60.7260 C   0  0  0  0  0  0  0  0  0  0  0  0
  133.0040  132.5140   61.5950 F   0  0  0  0  0  0  0  0  0  0  0  0
  132.8750  130.3760   61.4020 F   0  0  0  0  0  0  0  0  0  0  0  0
  134.3370  131.4980   60.2460 F   0  0  0  0  0  0  0  0  0  0  0  0
  130.6760  131.5230   59.7230 C   0  0  0  0  0  0  0  0  0  0  0  0
  129.8240  131.3160   60.8680 C   0  0  0  0  0  0  0  0  0  0  0  0
  130.3170  131.1640   62.1390 N   0  0  0  0  0  0  0  0  0  0  0  0
  128.4530  131.2870   60.5660 C   0  0  0  0  0  0  0  0  0  0  0  0
  127.3220  131.0660   61.4730 C   0  0  0  0  0  0  0  0  0  0  0  0
  126.1800  131.3870   61.1400 O   0  0  0  0  0  0  0  0  0  0  0  0
  127.6330  130.4860   62.6580 N   0  0  0  0  0  0  0  0  0  0  0  0
  126.8020  130.1860   63.7540 C   0  0  0  0  0  0  0  0  0  0  0  0
  127.2440  129.7770   65.0240 C   0  0  0  0  0  0  0  0  0  0  0  0
  126.3100  129.4950   66.0240 C   0  0  0  0  0  0  0  0  0  0  0  0
  124.9530  129.6240   65.7260 C   0  0  0  0  0  0  0  0  0  0  0  0
  124.5010  130.0100   64.5070 N   0  0  0  0  0  0  0  0  0  0  0  0
  125.4210  130.2800   63.5450 C   0  0  0  0  0  0  0  0  0  0  0  0
  128.1760  131.5130   58.8400 S   0  0  0  0  0  0  0  0  0  0  0  0
  129.8910  131.6510   58.5350 C   0  0  0  0  0  0  0  0  0  0  0  0
  130.3650  131.8500   57.3060 N   0  0  0  0  0  0  0  0  0  0  0  0
  133.2418  132.5885   55.8317 H   0  0  0  0  0  0  0  0  0  0  0  0
  132.2665  131.1956   55.2527 H   0  0  0  0  0  0  0  0  0  0  0  0
  131.5612  132.8476   55.2527 H   0  0  0  0  0  0  0  0  0  0  0  0
  133.6695  131.9060   58.1080 H   0  0  0  0  0  0  0  0  0  0  0  0
  130.1890  131.8710   62.8490 H   0  0  0  0  0  0  0  0  0  0  0  0
  130.8280  130.3350   62.4090 H   0  0  0  0  0  0  0  0  0  0  0  0
  128.5980  130.2180   62.7820 H   0  0  0  0  0  0  0  0  0  0  0  0
  128.3202  129.6794   65.2296 H   0  0  0  0  0  0  0  0  0  0  0  0
  126.6375  129.1780   67.0251 H   0  0  0  0  0  0  0  0  0  0  0  0
  124.2179  129.4030   66.5140 H   0  0  0  0  0  0  0  0  0  0  0  0
  125.0629  130.5881   62.5516 H   0  0  0  0  0  0  0  0  0  0  0  0
  1  2  1  0
  2  3  2  0
  3  4  1  0
  4  5  1  0
  5  6  1  0
  5  7  1  0
  5  8  1  0
  4  9  2  0
  9 10  1  0
 10 11  1  0
 10 12  2  0
 12 13  1  0
 13 14  2  0
 13 15  1  0
 15 16  1  0
 16 17  2  0
 17 18  1  0
 18 19  2  0
 19 20  1  0
 20 21  2  0
 12 22  1  0
 22 23  1  0
 23 24  2  0
 24  2  1  0
 23  9  1  0
 21 16  1  0
  1 25  1  0
  1 26  1  0
  1 27  1  0
  3 28  1  0
 11 29  1  0
 11 30  1  0
 15 31  1  0
 17 32  1  0
 18 33  1  0
 19 34  1  0
 21 35  1  0
M  END
>  <Binding energies>  (1) 
[-6.83]

>  <Ligand effiencies>  (1) 
[-0.25296296296296295]

>  <Interactions>  (1) 
["V-A:ASP:366:CG:3210, V-A:TYR:531:CZ:4792, V-A:LEU:363:CA:3182, V-A:TYR:531:CE2:4791, V-A:PRO:540:CB:4883, V-A:PRO:540:CA:4881, V-A:LEU:363:CB:3184, V-A:LEU:363:CD1:3186, V-A:TYR:539:CE1:4873, V-A:PRO:540:C:4879, V-A:TYR:539:CD1:4871, V-A:PRO:540:N:4882, V-A:ASN:362:C:3169, V-B:ARG:545:CZ:9898, V-A:ILE:538:CB:4860, V-A:ILE:538:CG2:4861, H-B:TYR:484:OH:9319, H-B:GLY:454:N:9021, V-A:ARG:545:CZ:4924, V-A:GLU:543:CD:4906, H-A:GLU:543:OE2:4908, H-A:GLU:543:OE1:4907, V-B:HIS:456:CE1:9040, H-B:ARG:545:NH2:9900, H-B:ARG:545:NE:9896, V-B:ARG:545:CD:9895, V-B:ARG:545:CG:9894, V-A:ASN:362:CB:3173, H-A:ALA:541:O:4887, V-A:ASN:362:CA:3171, V-A:ALA:541:C:4886, V-A:ALA:541:CA:4888"]

$$$$
4bg_Grossjean_2025
     RDKit          3D

 39 41  0  0  0  0  0  0  0  0999 V2000
  124.1110  123.9520   56.8770 C   0  0  0  0  0  0  0  0  0  0  0  0
  125.0130  123.6880   58.0680 C   0  0  0  0  0  0  0  0  0  0  0  0
  124.5510  123.8580   59.3700 C   0  0  0  0  0  0  0  0  0  0  0  0
  125.3980  123.6160   60.4640 C   0  0  0  0  0  0  0  0  0  0  0  0
  124.8450  123.8180   61.8780 C   0  0  0  0  0  0  0  0  0  0  0  0
  125.7320  124.3650   62.7120 F   0  0  0  0  0  0  0  0  0  0  0  0
  123.7850  124.6250   61.8360 F   0  0  0  0  0  0  0  0  0  0  0  0
  124.4830  122.6430   62.3940 F   0  0  0  0  0  0  0  0  0  0  0  0
  126.7300  123.1930   60.1750 C   0  0  0  0  0  0  0  0  0  0  0  0
  127.8580  122.8640   61.0110 C   0  0  0  0  0  0  0  0  0  0  0  0
  127.8120  122.9300   62.3810 N   0  0  0  0  0  0  0  0  0  0  0  0
  129.0000  122.4650   60.3000 C   0  0  0  0  0  0  0  0  0  0  0  0
  130.3160  122.0940   60.8200 C   0  0  0  0  0  0  0  0  0  0  0  0
  131.0340  122.9140   61.3960 O   0  0  0  0  0  0  0  0  0  0  0  0
  130.6690  120.8010   60.6650 N   0  0  0  0  0  0  0  0  0  0  0  0
  131.9380  120.2110   61.0920 C   0  0  0  0  0  0  0  0  0  0  0  0
  132.0780  118.7390   60.7290 C   0  0  0  0  0  0  0  0  0  0  0  0
  130.9390  117.9580   60.5100 C   0  0  0  0  0  0  0  0  0  0  0  0
  131.0710  116.6230   60.1410 C   0  0  0  0  0  0  0  0  0  0  0  0
  132.3410  116.0740   59.9770 C   0  0  0  0  0  0  0  0  0  0  0  0
  133.4800  116.8500   60.1770 C   0  0  0  0  0  0  0  0  0  0  0  0
  133.3490  118.1860   60.5480 C   0  0  0  0  0  0  0  0  0  0  0  0
  128.7240  122.5200   58.5610 S   0  0  0  0  0  0  0  0  0  0  0  0
  127.0750  123.0500   58.7960 C   0  0  0  0  0  0  0  0  0  0  0  0
  126.2670  123.2840   57.7620 N   0  0  0  0  0  0  0  0  0  0  0  0
  123.1117  124.2445   57.2316 H   0  0  0  0  0  0  0  0  0  0  0  0
  124.5360  124.7634   56.2679 H   0  0  0  0  0  0  0  0  0  0  0  0
  124.0314  123.0395   56.2679 H   0  0  0  0  0  0  0  0  0  0  0  0
  123.5149  124.1843   59.5434 H   0  0  0  0  0  0  0  0  0  0  0  0
  126.9860  122.6730   62.9010 H   0  0  0  0  0  0  0  0  0  0  0  0
  128.6070  123.2480   62.9180 H   0  0  0  0  0  0  0  0  0  0  0  0
  130.0670  120.2060   60.1150 H   0  0  0  0  0  0  0  0  0  0  0  0
  132.7582  120.7667   60.6140 H   0  0  0  0  0  0  0  0  0  0  0  0
  131.9718  120.2774   62.1895 H   0  0  0  0  0  0  0  0  0  0  0  0
  129.9384  118.3992   60.6295 H   0  0  0  0  0  0  0  0  0  0  0  0
  130.1764  116.0036   59.9794 H   0  0  0  0  0  0  0  0  0  0  0  0
  132.4450  115.0180   59.6869 H   0  0  0  0  0  0  0  0  0  0  0  0
  134.4790  116.4096   60.0425 H   0  0  0  0  0  0  0  0  0  0  0  0
  134.2453  118.8057   60.6985 H   0  0  0  0  0  0  0  0  0  0  0  0
  1  2  1  0
  2  3  2  0
  3  4  1  0
  4  5  1  0
  5  6  1  0
  5  7  1  0
  5  8  1  0
  4  9  2  0
  9 10  1  0
 10 11  1  0
 10 12  2  0
 12 13  1  0
 13 14  2  0
 13 15  1  0
 15 16  1  0
 16 17  1  0
 17 18  2  0
 18 19  1  0
 19 20  2  0
 20 21  1  0
 21 22  2  0
 12 23  1  0
 23 24  1  0
 24 25  2  0
 25  2  1  0
 24  9  1  0
 22 17  1  0
  1 26  1  0
  1 27  1  0
  1 28  1  0
  3 29  1  0
 11 30  1  0
 11 31  1  0
 15 32  1  0
 16 33  1  0
 16 34  1  0
 18 35  1  0
 19 36  1  0
 20 37  1  0
 21 38  1  0
 22 39  1  0
M  END
>  <Binding energies>  (1) 
[-7.48]

>  <Ligand effiencies>  (1) 
[-0.2671428571428572]

>  <Interactions>  (1) 
["V-B:ASP:366:CG:8184, V-B:PRO:540:CA:9855, V-B:ALA:541:CB:9864, V-B:LEU:363:CA:8156, V-B:PRO:540:CB:9857, V-B:ALA:541:CA:9862, V-B:LEU:363:CD1:8160, V-B:ALA:541:C:9860, V-B:ASN:362:CB:8147, V-B:ASN:362:C:8143, V-B:PRO:540:N:9856, V-A:LEU:475:CD2:4256, V-B:GLU:543:CD:9880, V-B:TYR:539:C:9839, V-B:TYR:539:CE1:9847, V-B:TYR:539:CD1:9845, V-B:PRO:540:C:9853, V-B:TYR:539:CG:9844, V-B:TYR:539:CZ:9849, V-B:TYR:531:CE2:9765, V-B:ARG:545:CZ:9898, V-B:TYR:531:CZ:9766, H-B:TYR:539:O:9840, V-A:PRO:482:CG:4324, V-A:SER:385:CB:3406, V-A:PRO:482:CB:4323, V-A:SER:385:CA:3404, V-B:TYR:539:CB:9843, V-A:LEU:373:CD1:3277, H-B:ALA:541:O:9861, H-B:GLU:543:OE1:9881, V-A:VAL:384:C:3394, V-B:VAL:344:CG1:7972, V-B:ASN:362:CA:8145, V-B:ASN:362:CG:8148"]

$$$$
4bh_Grossjean_2025
     RDKit          3D

 51 53  0  0  0  0  0  0  0  0999 V2000
  127.7930  134.2140   61.7190 C   0  0  0  0  0  0  0  0  0  0  0  0
  126.4330  134.0830   62.1180 O   0  0  0  0  0  0  0  0  0  0  0  0
  125.7990  132.8620   61.9790 C   0  0  0  0  0  0  0  0  0  0  0  0
  125.4960  132.2720   60.7420 C   0  0  0  0  0  0  0  0  0  0  0  0
  124.8520  131.0360   60.6760 C   0  0  0  0  0  0  0  0  0  0  0  0
  124.5720  130.3900   59.3240 C   0  0  0  0  0  0  0  0  0  0  0  0
  125.6340  129.4870   58.8780 N   0  0  0  0  0  0  0  0  0  0  0  0
  125.8970  129.1630   57.5950 C   0  0  0  0  0  0  0  0  0  0  0  0
  125.2190  129.5810   56.6540 O   0  0  0  0  0  0  0  0  0  0  0  0
  127.0130  128.2420   57.3800 C   0  0  0  0  0  0  0  0  0  0  0  0
  128.5540  128.8490   56.7820 S   0  0  0  0  0  0  0  0  0  0  0  0
  129.2330  127.2380   56.7710 C   0  0  0  0  0  0  0  0  0  0  0  0
  130.4890  127.0160   56.3850 N   0  0  0  0  0  0  0  0  0  0  0  0
  130.9020  125.7280   56.4210 C   0  0  0  0  0  0  0  0  0  0  0  0
  132.3350  125.4970   55.9760 C   0  0  0  0  0  0  0  0  0  0  0  0
  130.0990  124.6670   56.8320 C   0  0  0  0  0  0  0  0  0  0  0  0
  128.7740  124.8950   57.2380 C   0  0  0  0  0  0  0  0  0  0  0  0
  127.9290  123.6970   57.6840 C   0  0  0  0  0  0  0  0  0  0  0  0
  127.5090  123.7950   58.9470 F   0  0  0  0  0  0  0  0  0  0  0  0
  126.8480  123.5950   56.9110 F   0  0  0  0  0  0  0  0  0  0  0  0
  128.6460  122.5780   57.5860 F   0  0  0  0  0  0  0  0  0  0  0  0
  128.3060  126.2420   57.2090 C   0  0  0  0  0  0  0  0  0  0  0  0
  127.0390  126.8470   57.5380 C   0  0  0  0  0  0  0  0  0  0  0  0
  125.9600  126.1220   57.9730 N   0  0  0  0  0  0  0  0  0  0  0  0
  124.5300  130.3650   61.8570 C   0  0  0  0  0  0  0  0  0  0  0  0
  124.8130  130.9340   63.1080 C   0  0  0  0  0  0  0  0  0  0  0  0
  124.5100  130.3330   64.3170 O   0  0  0  0  0  0  0  0  0  0  0  0
  125.5330  129.6480   65.0310 C   0  0  0  0  0  0  0  0  0  0  0  0
  125.4430  132.1860   63.1550 C   0  0  0  0  0  0  0  0  0  0  0  0
  125.7430  132.7470   64.3740 O   0  0  0  0  0  0  0  0  0  0  0  0
  127.1110  132.6310   64.7420 C   0  0  0  0  0  0  0  0  0  0  0  0
  128.4327  134.2756   62.6117 H   0  0  0  0  0  0  0  0  0  0  0  0
  128.0848  133.3398   61.1185 H   0  0  0  0  0  0  0  0  0  0  0  0
  127.9125  135.1278   61.1185 H   0  0  0  0  0  0  0  0  0  0  0  0
  125.7700  132.7912   59.8118 H   0  0  0  0  0  0  0  0  0  0  0  0
  123.6361  129.8168   59.3990 H   0  0  0  0  0  0  0  0  0  0  0  0
  124.5055  131.2018   58.5847 H   0  0  0  0  0  0  0  0  0  0  0  0
  126.2790  129.1760   59.5900 H   0  0  0  0  0  0  0  0  0  0  0  0
  132.9812  125.3928   56.8601 H   0  0  0  0  0  0  0  0  0  0  0  0
  132.3881  124.5787   55.3728 H   0  0  0  0  0  0  0  0  0  0  0  0
  132.6740  126.3521   55.3728 H   0  0  0  0  0  0  0  0  0  0  0  0
  130.5048  123.6446   56.8387 H   0  0  0  0  0  0  0  0  0  0  0  0
  125.8400  125.8750   58.9470 H   0  0  0  0  0  0  0  0  0  0  0  0
  125.2480  125.8010   57.3320 H   0  0  0  0  0  0  0  0  0  0  0  0
  124.0482  129.3774   61.8062 H   0  0  0  0  0  0  0  0  0  0  0  0
  125.3642  129.7610   66.1121 H   0  0  0  0  0  0  0  0  0  0  0  0
  125.5130  128.5805   64.7664 H   0  0  0  0  0  0  0  0  0  0  0  0
  126.5124  130.0731   64.7664 H   0  0  0  0  0  0  0  0  0  0  0  0
  127.1963  132.6238   65.8387 H   0  0  0  0  0  0  0  0  0  0  0  0
  127.5218  131.6948   64.3361 H   0  0  0  0  0  0  0  0  0  0  0  0
  127.6736  133.4847   64.3361 H   0  0  0  0  0  0  0  0  0  0  0  0
  1  2  1  0
  2  3  1  0
  3  4  2  0
  4  5  1  0
  5  6  1  0
  6  7  1  0
  7  8  1  0
  8  9  2  0
  8 10  1  0
 10 11  1  0
 11 12  1  0
 12 13  2  0
 13 14  1  0
 14 15  1  0
 14 16  2  0
 16 17  1  0
 17 18  1  0
 18 19  1  0
 18 20  1  0
 18 21  1  0
 17 22  2  0
 22 23  1  0
 23 24  1  0
  5 25  2  0
 25 26  1  0
 26 27  1  0
 27 28  1  0
 26 29  2  0
 29 30  1  0
 30 31  1  0
 29  3  1  0
 23 10  2  0
 22 12  1  0
  1 32  1  0
  1 33  1  0
  1 34  1  0
  4 35  1  0
  6 36  1  0
  6 37  1  0
  7 38  1  0
 15 39  1  0
 15 40  1  0
 15 41  1  0
 16 42  1  0
 24 43  1  0
 24 44  1  0
 25 45  1  0
 28 46  1  0
 28 47  1  0
 28 48  1  0
 31 49  1  0
 31 50  1  0
 31 51  1  0
M  END
>  <Binding energies>  (1) 
[-6.21]

>  <Ligand effiencies>  (1) 
[-0.1826470588235294]

>  <Interactions>  (1) 
["V-A:MET:535:CE:4833, V-B:ASP:366:CG:8184, V-A:TYR:531:CZ:4792, H-A:TYR:539:OH:4876, H-A:TYR:531:OH:4793, V-B:ASP:366:CB:8183, V-A:TYR:539:CE1:4873, H-B:TYR:531:OH:9767, V-B:MET:535:CE:9807, V-B:TYR:539:C:9839, V-B:TYR:539:CE1:9847, V-B:TYR:539:CD1:9845, V-A:TYR:539:CD1:4871, V-A:ALA:541:CB:4890, V-B:TYR:539:CG:9844, V-B:TYR:539:CZ:9849, V-B:ARG:545:CZ:9898, V-B:LEU:475:CD2:9230, H-B:TYR:484:OH:9319, H-B:ASP:366:OD1:8185, V-B:TYR:531:CZ:9766, H-B:ASP:366:OD2:8186, V-B:TYR:539:CE2:9848, H-B:GLY:454:N:9021, V-B:TYR:484:CZ:9318, V-B:TYR:484:CE2:9317, V-B:TYR:539:CD2:9846, V-A:TYR:531:CE1:4790, V-B:ASP:366:CA:8181, V-A:ASN:370:CB:3242, V-A:ASN:370:CG:3243"]

$$$$
4bi_Grossjean_2025
     RDKit          3D

 32 34  0  0  0  0  0  0  0  0999 V2000
  124.9680  123.1330   56.0170 C   0  0  0  0  0  0  0  0  0  0  0  0
  125.6530  123.3040   57.3610 C   0  0  0  0  0  0  0  0  0  0  0  0
  124.9120  123.4170   58.5340 C   0  0  0  0  0  0  0  0  0  0  0  0
  125.5600  123.5700   59.7710 C   0  0  0  0  0  0  0  0  0  0  0  0
  124.7030  123.6820   61.0360 C   0  0  0  0  0  0  0  0  0  0  0  0
  123.4020  123.8290   60.7750 F   0  0  0  0  0  0  0  0  0  0  0  0
  124.8390  122.5800   61.7740 F   0  0  0  0  0  0  0  0  0  0  0  0
  125.0880  124.7400   61.7510 F   0  0  0  0  0  0  0  0  0  0  0  0
  126.9860  123.6070   59.7610 C   0  0  0  0  0  0  0  0  0  0  0  0
  127.9710  123.7520   60.8040 C   0  0  0  0  0  0  0  0  0  0  0  0
  127.6350  123.9010   62.1260 N   0  0  0  0  0  0  0  0  0  0  0  0
  129.3000  123.7190   60.3490 C   0  0  0  0  0  0  0  0  0  0  0  0
  130.5350  123.8490   61.1250 C   0  0  0  0  0  0  0  0  0  0  0  0
  131.6150  123.4830   60.6570 O   0  0  0  0  0  0  0  0  0  0  0  0
  130.3950  124.4060   62.3550 N   0  0  0  0  0  0  0  0  0  0  0  0
  131.3920  124.6570   63.2880 C   0  0  0  0  0  0  0  0  0  0  0  0
  131.1550  125.3070   64.4990 C   0  0  0  0  0  0  0  0  0  0  0  0
  132.3810  125.3570   65.1240 C   0  0  0  0  0  0  0  0  0  0  0  0
  133.3070  124.7680   64.3300 O   0  0  0  0  0  0  0  0  0  0  0  0
  132.6670  124.3280   63.1690 N   0  0  0  0  0  0  0  0  0  0  0  0
  129.3680  123.5320   58.5980 S   0  0  0  0  0  0  0  0  0  0  0  0
  127.6240  123.4800   58.4890 C   0  0  0  0  0  0  0  0  0  0  0  0
  127.0050  123.3330   57.3180 N   0  0  0  0  0  0  0  0  0  0  0  0
  123.9118  122.8693   56.1747 H   0  0  0  0  0  0  0  0  0  0  0  0
  125.0304  124.0743   55.4512 H   0  0  0  0  0  0  0  0  0  0  0  0
  125.4655  122.3315   55.4512 H   0  0  0  0  0  0  0  0  0  0  0  0
  123.8132  123.3863   58.4921 H   0  0  0  0  0  0  0  0  0  0  0  0
  127.5190  123.1070   62.7400 H   0  0  0  0  0  0  0  0  0  0  0  0
  127.4860  124.8140   62.5310 H   0  0  0  0  0  0  0  0  0  0  0  0
  129.4630  124.6810   62.6300 H   0  0  0  0  0  0  0  0  0  0  0  0
  130.1965  125.6955   64.8736 H   0  0  0  0  0  0  0  0  0  0  0  0
  132.5770  125.8036   66.1100 H   0  0  0  0  0  0  0  0  0  0  0  0
  1  2  1  0
  2  3  2  0
  3  4  1  0
  4  5  1  0
  5  6  1  0
  5  7  1  0
  5  8  1  0
  4  9  2  0
  9 10  1  0
 10 11  1  0
 10 12  2  0
 12 13  1  0
 13 14  2  0
 13 15  1  0
 15 16  1  0
 16 17  1  0
 17 18  2  0
 18 19  1  0
 19 20  1  0
 12 21  1  0
 21 22  1  0
 22 23  2  0
 23  2  1  0
 22  9  1  0
 20 16  2  0
  1 24  1  0
  1 25  1  0
  1 26  1  0
  3 27  1  0
 11 28  1  0
 11 29  1  0
 15 30  1  0
 17 31  1  0
 18 32  1  0
M  END
>  <Binding energies>  (1) 
[-6.5]

>  <Ligand effiencies>  (1) 
[-0.25]

>  <Interactions>  (1) 
["V-B:ASP:366:CG:8184, V-B:PRO:540:CA:9855, V-B:LEU:363:CA:8156, V-B:PRO:540:CB:9857, V-B:ALA:541:CA:9862, V-B:LEU:363:CD1:8160, V-B:ALA:541:C:9860, V-B:ASN:362:CB:8147, V-B:ASN:362:C:8143, V-B:ILE:538:CG2:9835, V-B:ILE:538:CB:9834, V-B:PRO:540:N:9856, V-B:GLU:543:CD:9880, V-B:TYR:539:CE1:9847, V-B:TYR:539:CD1:9845, V-B:PRO:540:C:9853, V-B:TYR:539:CZ:9849, V-B:TYR:531:CE2:9765, V-B:ARG:545:CZ:9898, H-A:GLY:454:N:4047, H-A:TYR:484:OH:4345, V-A:ARG:545:CZ:4924, H-B:ALA:541:O:9861, H-B:GLU:543:OE1:9881, H-B:GLU:543:OE2:9882, V-B:ASN:362:CA:8145"]

$$$$
4bj_Grossjean_2025
     RDKit          3D

 32 34  0  0  0  0  0  0  0  0999 V2000
  132.3760  125.8730   64.6220 C   0  0  0  0  0  0  0  0  0  0  0  0
  131.9500  124.7200   63.7310 C   0  0  0  0  0  0  0  0  0  0  0  0
  130.6590  124.6540   63.2120 C   0  0  0  0  0  0  0  0  0  0  0  0
  130.2760  123.5780   62.3950 C   0  0  0  0  0  0  0  0  0  0  0  0
  128.8440  123.5470   61.8490 C   0  0  0  0  0  0  0  0  0  0  0  0
  128.1700  124.6740   62.0890 F   0  0  0  0  0  0  0  0  0  0  0  0
  128.8680  123.3680   60.5290 F   0  0  0  0  0  0  0  0  0  0  0  0
  128.1680  122.5490   62.4180 F   0  0  0  0  0  0  0  0  0  0  0  0
  131.2600  122.5800   62.1270 C   0  0  0  0  0  0  0  0  0  0  0  0
  131.2360  121.3610   61.3560 C   0  0  0  0  0  0  0  0  0  0  0  0
  130.1190  120.9290   60.6860 N   0  0  0  0  0  0  0  0  0  0  0  0
  132.4550  120.6640   61.3470 C   0  0  0  0  0  0  0  0  0  0  0  0
  132.7790  119.4000   60.6820 C   0  0  0  0  0  0  0  0  0  0  0  0
  133.8980  119.2090   60.2000 O   0  0  0  0  0  0  0  0  0  0  0  0
  131.7810  118.4830   60.6560 N   0  0  0  0  0  0  0  0  0  0  0  0
  131.8310  117.2110   60.1020 C   0  0  0  0  0  0  0  0  0  0  0  0
  131.3070  116.8030   58.9670 N   0  0  0  0  0  0  0  0  0  0  0  0
  131.5550  115.5270   58.7490 C   0  0  0  0  0  0  0  0  0  0  0  0
  132.2980  114.8690   59.7240 C   0  0  0  0  0  0  0  0  0  0  0  0
  132.6860  115.9930   60.9930 S   0  0  0  0  0  0  0  0  0  0  0  0
  133.6700  121.4910   62.3180 S   0  0  0  0  0  0  0  0  0  0  0  0
  132.5470  122.7700   62.7160 C   0  0  0  0  0  0  0  0  0  0  0  0
  132.9050  123.7910   63.4940 N   0  0  0  0  0  0  0  0  0  0  0  0
  132.2679  125.5805   65.6769 H   0  0  0  0  0  0  0  0  0  0  0  0
  133.4268  126.1257   64.4174 H   0  0  0  0  0  0  0  0  0  0  0  0
  131.7419  126.7482   64.4174 H   0  0  0  0  0  0  0  0  0  0  0  0
  129.9353  125.4494   63.4435 H   0  0  0  0  0  0  0  0  0  0  0  0
  130.0800  120.0250   60.2380 H   0  0  0  0  0  0  0  0  0  0  0  0
  129.2940  121.5090   60.6140 H   0  0  0  0  0  0  0  0  0  0  0  0
  130.9060  118.7380   61.0880 H   0  0  0  0  0  0  0  0  0  0  0  0
  131.1947  115.0112   57.8467 H   0  0  0  0  0  0  0  0  0  0  0  0
  132.5923  113.8095   59.6966 H   0  0  0  0  0  0  0  0  0  0  0  0
  1  2  1  0
  2  3  2  0
  3  4  1  0
  4  5  1  0
  5  6  1  0
  5  7  1  0
  5  8  1  0
  4  9  2  0
  9 10  1  0
 10 11  1  0
 10 12  2  0
 12 13  1  0
 13 14  2  0
 13 15  1  0
 15 16  1  0
 16 17  2  0
 17 18  1  0
 18 19  2  0
 19 20  1  0
 12 21  1  0
 21 22  1  0
 22 23  2  0
 23  2  1  0
 22  9  1  0
 20 16  1  0
  1 24  1  0
  1 25  1  0
  1 26  1  0
  3 27  1  0
 11 28  1  0
 11 29  1  0
 15 30  1  0
 18 31  1  0
 19 32  1  0
M  END
>  <Binding energies>  (1) 
[-6.29]

>  <Ligand effiencies>  (1) 
[-0.24192307692307694]

>  <Interactions>  (1) 
["V-B:ALA:541:CB:9864, V-B:ALA:541:CA:9862, V-A:LEU:475:CD2:4256, V-B:GLU:543:CD:9880, V-B:TYR:539:C:9839, V-B:TYR:539:CE1:9847, V-B:TYR:539:CD1:9845, V-B:PRO:540:C:9853, H-A:GLY:454:N:4047, V-A:GLY:454:CA:4046, H-A:TYR:484:OH:4345, V-A:ARG:545:CD:4921, V-A:ARG:545:CZ:4924, H-B:TYR:539:O:9840, V-A:SER:385:CB:3406, V-A:SER:385:CA:3404, V-B:TYR:539:CB:9843, V-A:HIS:383:CG:3387, V-A:HIS:383:CB:3386, V-A:LEU:373:CD1:3277, V-B:VAL:344:CG1:7972, V-B:ILE:343:CD1:7965, V-A:HIS:383:CD2:3389, V-A:HIS:383:CE1:3391"]

$$$$
4bk_Grossjean_2025
     RDKit          3D

 50 51  0  0  0  0  0  0  0  0999 V2000
  126.9820  128.9150   76.5850 C   0  0  0  0  0  0  0  0  0  0  0  0
  127.6930  128.1250   75.6450 O   0  0  0  0  0  0  0  0  0  0  0  0
  127.1310  128.1550   74.3400 C   0  0  0  0  0  0  0  0  0  0  0  0
  128.1790  127.6920   73.3200 C   0  0  0  0  0  0  0  0  0  0  0  0
  129.4730  128.0730   73.7670 O   0  0  0  0  0  0  0  0  0  0  0  0
  130.5290  127.5840   72.9510 C   0  0  0  0  0  0  0  0  0  0  0  0
  131.4760  126.7270   73.8020 C   0  0  0  0  0  0  0  0  0  0  0  0
  130.8520  126.4280   75.0420 O   0  0  0  0  0  0  0  0  0  0  0  0
  131.5620  125.4790   75.8300 C   0  0  0  0  0  0  0  0  0  0  0  0
  132.2230  124.4420   74.9050 C   0  0  0  0  0  0  0  0  0  0  0  0
  131.3540  123.3130   74.5710 N   0  0  0  0  0  0  0  0  0  0  0  0
  130.1650  123.4060   73.9390 C   0  0  0  0  0  0  0  0  0  0  0  0
  129.7010  124.4820   73.5590 O   0  0  0  0  0  0  0  0  0  0  0  0
  129.4520  122.1460   73.7200 C   0  0  0  0  0  0  0  0  0  0  0  0
  128.6650  121.8340   72.1750 S   0  0  0  0  0  0  0  0  0  0  0  0
  128.1410  120.2560   72.7120 C   0  0  0  0  0  0  0  0  0  0  0  0
  127.4300  119.4520   71.9210 N   0  0  0  0  0  0  0  0  0  0  0  0
  127.0840  118.2550   72.4470 C   0  0  0  0  0  0  0  0  0  0  0  0
  126.2770  117.3550   71.5270 C   0  0  0  0  0  0  0  0  0  0  0  0
  127.4270  117.8460   73.7330 C   0  0  0  0  0  0  0  0  0  0  0  0
  128.1730  118.6870   74.5720 C   0  0  0  0  0  0  0  0  0  0  0  0
  128.5230  118.1950   75.9800 C   0  0  0  0  0  0  0  0  0  0  0  0
  129.8380  118.1180   76.1950 F   0  0  0  0  0  0  0  0  0  0  0  0
  128.0180  119.0290   76.8880 F   0  0  0  0  0  0  0  0  0  0  0  0
  128.0160  116.9780   76.1710 F   0  0  0  0  0  0  0  0  0  0  0  0
  128.5570  119.9580   74.0470 C   0  0  0  0  0  0  0  0  0  0  0  0
  129.3090  121.0590   74.5950 C   0  0  0  0  0  0  0  0  0  0  0  0
  129.8350  121.0410   75.8610 N   0  0  0  0  0  0  0  0  0  0  0  0
  127.2579  128.6085   77.6048 H   0  0  0  0  0  0  0  0  0  0  0  0
  127.2360  129.9753   76.4395 H   0  0  0  0  0  0  0  0  0  0  0  0
  125.9009  128.7737   76.4395 H   0  0  0  0  0  0  0  0  0  0  0  0
  126.2600  127.4844   74.3006 H   0  0  0  0  0  0  0  0  0  0  0  0
  126.8154  129.1812   74.1007 H   0  0  0  0  0  0  0  0  0  0  0  0
  128.1334  126.5977   73.2179 H   0  0  0  0  0  0  0  0  0  0  0  0
  127.9746  128.1591   72.3453 H   0  0  0  0  0  0  0  0  0  0  0  0
  130.1113  126.9722   72.1379 H   0  0  0  0  0  0  0  0  0  0  0  0
  131.0849  128.4311   72.5229 H   0  0  0  0  0  0  0  0  0  0  0  0
  131.7030  125.7914   73.2699 H   0  0  0  0  0  0  0  0  0  0  0  0
  132.4099  127.2792   73.9833 H   0  0  0  0  0  0  0  0  0  0  0  0
  132.3366  125.9947   76.4166 H   0  0  0  0  0  0  0  0  0  0  0  0
  130.8645  124.9718   76.5128 H   0  0  0  0  0  0  0  0  0  0  0  0
  132.5133  124.9450   73.9708 H   0  0  0  0  0  0  0  0  0  0  0  0
  133.0879  124.0324   75.4475 H   0  0  0  0  0  0  0  0  0  0  0  0
  131.6780  122.4020   74.8570 H   0  0  0  0  0  0  0  0  0  0  0  0
  125.6629  116.6701   72.1302 H   0  0  0  0  0  0  0  0  0  0  0  0
  125.6232  117.9712   70.8923 H   0  0  0  0  0  0  0  0  0  0  0  0
  126.9606  116.7720   70.8923 H   0  0  0  0  0  0  0  0  0  0  0  0
  127.1107  116.8561   74.0937 H   0  0  0  0  0  0  0  0  0  0  0  0
  130.8320  120.9990   76.0270 H   0  0  0  0  0  0  0  0  0  0  0  0
  129.2400  121.0760   76.6780 H   0  0  0  0  0  0  0  0  0  0  0  0
  1  2  1  0
  2  3  1  0
  3  4  1  0
  4  5  1  0
  5  6  1  0
  6  7  1  0
  7  8  1  0
  8  9  1  0
  9 10  1  0
 10 11  1  0
 11 12  1  0
 12 13  2  0
 12 14  1  0
 14 15  1  0
 15 16  1  0
 16 17  2  0
 17 18  1  0
 18 19  1  0
 18 20  2  0
 20 21  1  0
 21 22  1  0
 22 23  1  0
 22 24  1  0
 22 25  1  0
 21 26  2  0
 26 27  1  0
 27 28  1  0
 27 14  2  0
 26 16  1  0
  1 29  1  0
  1 30  1  0
  1 31  1  0
  3 32  1  0
  3 33  1  0
  4 34  1  0
  4 35  1  0
  6 36  1  0
  6 37  1  0
  7 38  1  0
  7 39  1  0
  9 40  1  0
  9 41  1  0
 10 42  1  0
 10 43  1  0
 11 44  1  0
 19 45  1  0
 19 46  1  0
 19 47  1  0
 20 48  1  0
 28 49  1  0
 28 50  1  0
M  END
>  <Binding energies>  (1) 
[-6.44]

>  <Ligand effiencies>  (1) 
[-0.207741935483871]

>  <Interactions>  (1) 
["V-A:GLY:544:CA:4912, V-B:HIS:456:CG:9037, V-B:HIS:456:CD2:9039, V-B:GLU:543:C:9874, V-B:GLY:544:CA:9886, H-B:LYS:547:NZ:9923, V-A:LYS:547:CE:4948, V-A:GLY:544:C:4910, H-A:LYS:547:NZ:4949, V-B:LYS:547:CE:9922, V-A:HIS:456:CD2:4065, V-A:HIS:456:CG:4063, V-A:HIS:456:CB:4062, V-A:TYR:484:CB:4338, V-B:VAL:542:CG1:9871, V-A:ASP:473:CG:4237, V-A:TYR:484:CD2:4341, V-A:TYR:484:CG:4339, H-A:TYR:484:N:4337, V-B:GLU:543:CA:9876, H-A:ASP:473:OD2:4239, V-A:SER:483:CA:4328, V-A:SER:483:CB:4330"]

$$$$
4ca_Grossjean_2025
     RDKit          3D

 52 55  0  0  0  0  0  0  0  0999 V2000
  124.1460  134.5070   61.7070 C   0  0  0  0  0  0  0  0  0  0  0  0
  124.1820  132.9750   61.7180 C   0  0  0  0  0  0  0  0  0  0  0  0
  125.0180  132.5140   60.6650 O   0  0  0  0  0  0  0  0  0  0  0  0
  124.6490  131.4670   59.8820 C   0  0  0  0  0  0  0  0  0  0  0  0
  123.7950  131.5510   58.9930 O   0  0  0  0  0  0  0  0  0  0  0  0
  125.3840  130.1990   60.2040 C   0  0  0  0  0  0  0  0  0  0  0  0
  125.8800  129.4120   59.1560 C   0  0  0  0  0  0  0  0  0  0  0  0
  126.5700  128.2320   59.4230 C   0  0  0  0  0  0  0  0  0  0  0  0
  126.7710  127.8120   60.7370 C   0  0  0  0  0  0  0  0  0  0  0  0
  127.4890  126.6100   60.8920 N   0  0  0  0  0  0  0  0  0  0  0  0
  127.0520  125.3670   61.2120 C   0  0  0  0  0  0  0  0  0  0  0  0
  125.8680  125.0740   61.3820 O   0  0  0  0  0  0  0  0  0  0  0  0
  128.0970  124.3480   61.3320 C   0  0  0  0  0  0  0  0  0  0  0  0
  127.9050  122.7850   60.5410 S   0  0  0  0  0  0  0  0  0  0  0  0
  129.4730  122.2570   61.1030 C   0  0  0  0  0  0  0  0  0  0  0  0
  129.9470  121.0510   60.8040 N   0  0  0  0  0  0  0  0  0  0  0  0
  131.1810  120.7340   61.2730 C   0  0  0  0  0  0  0  0  0  0  0  0
  131.6930  119.3700   60.9100 C   0  0  0  0  0  0  0  0  0  0  0  0
  130.8270  118.2650   60.8670 C   0  0  0  0  0  0  0  0  0  0  0  0
  131.2960  116.9970   60.5360 C   0  0  0  0  0  0  0  0  0  0  0  0
  132.6430  116.8130   60.2440 C   0  0  0  0  0  0  0  0  0  0  0  0
  133.5240  117.8890   60.2820 C   0  0  0  0  0  0  0  0  0  0  0  0
  133.0510  119.1560   60.6130 C   0  0  0  0  0  0  0  0  0  0  0  0
  131.9230  121.6220   62.0600 C   0  0  0  0  0  0  0  0  0  0  0  0
  131.4300  122.8950   62.3850 C   0  0  0  0  0  0  0  0  0  0  0  0
  132.2970  123.8190   63.2480 C   0  0  0  0  0  0  0  0  0  0  0  0
  132.5440  124.9950   62.6700 F   0  0  0  0  0  0  0  0  0  0  0  0
  131.6830  124.0640   64.4050 F   0  0  0  0  0  0  0  0  0  0  0  0
  133.4730  123.2390   63.4890 F   0  0  0  0  0  0  0  0  0  0  0  0
  130.1440  123.2440   61.8830 C   0  0  0  0  0  0  0  0  0  0  0  0
  129.3330  124.4320   61.9950 C   0  0  0  0  0  0  0  0  0  0  0  0
  129.7370  125.5420   62.6920 N   0  0  0  0  0  0  0  0  0  0  0  0
  126.2830  128.5960   61.7930 C   0  0  0  0  0  0  0  0  0  0  0  0
  125.5950  129.7770   61.5250 C   0  0  0  0  0  0  0  0  0  0  0  0
  124.1372  134.8810   62.7414 H   0  0  0  0  0  0  0  0  0  0  0  0
  125.0354  134.8909   61.1858 H   0  0  0  0  0  0  0  0  0  0  0  0
  123.2396  134.8487   61.1858 H   0  0  0  0  0  0  0  0  0  0  0  0
  124.5792  132.6243   62.6820 H   0  0  0  0  0  0  0  0  0  0  0  0
  123.1640  132.5829   61.5769 H   0  0  0  0  0  0  0  0  0  0  0  0
  125.7232  129.7287   58.1143 H   0  0  0  0  0  0  0  0  0  0  0  0
  126.9592  127.6270   58.5909 H   0  0  0  0  0  0  0  0  0  0  0  0
  128.4800  126.6970   60.7250 H   0  0  0  0  0  0  0  0  0  0  0  0
  129.7607  118.4040   61.0987 H   0  0  0  0  0  0  0  0  0  0  0  0
  130.6032  116.1431   60.5055 H   0  0  0  0  0  0  0  0  0  0  0  0
  133.0140  115.8113   59.9815 H   0  0  0  0  0  0  0  0  0  0  0  0
  134.5892  117.7395   60.0516 H   0  0  0  0  0  0  0  0  0  0  0  0
  133.7512  120.0039   60.6427 H   0  0  0  0  0  0  0  0  0  0  0  0
  132.9123  121.3161   62.4312 H   0  0  0  0  0  0  0  0  0  0  0  0
  129.2990  125.8170   63.5600 H   0  0  0  0  0  0  0  0  0  0  0  0
  130.4940  126.1250   62.3610 H   0  0  0  0  0  0  0  0  0  0  0  0
  126.4438  128.2778   62.8336 H   0  0  0  0  0  0  0  0  0  0  0  0
  125.2130  130.3853   62.3581 H   0  0  0  0  0  0  0  0  0  0  0  0
  1  2  1  0
  2  3  1  0
  3  4  1  0
  4  5  2  0
  4  6  1  0
  6  7  2  0
  7  8  1  0
  8  9  2  0
  9 10  1  0
 10 11  1  0
 11 12  2  0
 11 13  1  0
 13 14  1  0
 14 15  1  0
 15 16  2  0
 16 17  1  0
 17 18  1  0
 18 19  2  0
 19 20  1  0
 20 21  2  0
 21 22  1  0
 22 23  2  0
 17 24  2  0
 24 25  1  0
 25 26  1  0
 26 27  1  0
 26 28  1  0
 26 29  1  0
 25 30  2  0
 30 31  1  0
 31 32  1  0
  9 33  1  0
 33 34  2  0
 34  6  1  0
 31 13  2  0
 30 15  1  0
 23 18  1  0
  1 35  1  0
  1 36  1  0
  1 37  1  0
  2 38  1  0
  2 39  1  0
  7 40  1  0
  8 41  1  0
 10 42  1  0
 19 43  1  0
 20 44  1  0
 21 45  1  0
 22 46  1  0
 23 47  1  0
 24 48  1  0
 32 49  1  0
 32 50  1  0
 33 51  1  0
 34 52  1  0
M  END
>  <Binding energies>  (1) 
[-7.48]

>  <Ligand effiencies>  (1) 
[-0.20216216216216218]

>  <Interactions>  (1) 
["V-B:ASP:366:CG:8184, H-A:TYR:539:OH:4876, V-A:TYR:539:CZ:4875, V-B:ASP:366:CB:8183, V-A:TYR:539:CE1:4873, V-B:PRO:540:CA:9855, V-B:ALA:541:CB:9864, V-A:LEU:475:CD2:4256, V-B:GLU:543:CD:9880, V-B:TYR:539:C:9839, V-B:TYR:539:CE1:9847, V-B:TYR:539:CD1:9845, V-B:PRO:540:C:9853, V-B:ILE:369:CD1:8210, V-B:ILE:369:CG2:8208, V-A:ILE:369:CG2:3234, V-B:SER:385:CA:8378, V-B:LEU:475:CD2:9230, V-A:GLY:454:CA:4046, V-A:ARG:545:CZ:4924, H-A:GLU:543:OE2:4908, H-B:ARG:545:NH2:9900, V-A:PRO:482:CG:4324, V-A:SER:385:CB:3406, V-A:PRO:482:CB:4323, V-A:SER:385:CA:3404, V-B:TYR:539:CB:9843, V-A:LEU:373:CD1:3277, V-A:GLY:453:C:4039, H-B:GLU:543:OE1:9881, H-B:GLU:543:OE2:9882, V-A:VAL:384:C:3394, V-B:SER:385:C:8376"]

$$$$
4cb_Grossjean_2025
     RDKit          3D

 49 52  0  0  0  0  0  0  0  0999 V2000
  124.0850  132.8540   61.7570 C   0  0  0  0  0  0  0  0  0  0  0  0
  124.9230  132.4720   60.6750 O   0  0  0  0  0  0  0  0  0  0  0  0
  124.5950  131.4280   59.8720 C   0  0  0  0  0  0  0  0  0  0  0  0
  123.7650  131.5040   58.9610 O   0  0  0  0  0  0  0  0  0  0  0  0
  125.3450  130.1680   60.2010 C   0  0  0  0  0  0  0  0  0  0  0  0
  125.6870  129.2870   59.1670 C   0  0  0  0  0  0  0  0  0  0  0  0
  126.3890  128.1160   59.4390 C   0  0  0  0  0  0  0  0  0  0  0  0
  126.7550  127.7980   60.7470 C   0  0  0  0  0  0  0  0  0  0  0  0
  127.4740  126.5970   60.9050 N   0  0  0  0  0  0  0  0  0  0  0  0
  127.0360  125.3520   61.2150 C   0  0  0  0  0  0  0  0  0  0  0  0
  125.8510  125.0540   61.3700 O   0  0  0  0  0  0  0  0  0  0  0  0
  128.0830  124.3340   61.3410 C   0  0  0  0  0  0  0  0  0  0  0  0
  127.9060  122.7760   60.5370 S   0  0  0  0  0  0  0  0  0  0  0  0
  129.4690  122.2480   61.1170 C   0  0  0  0  0  0  0  0  0  0  0  0
  129.9510  121.0450   60.8170 N   0  0  0  0  0  0  0  0  0  0  0  0
  131.1780  120.7280   61.3050 C   0  0  0  0  0  0  0  0  0  0  0  0
  131.6970  119.3650   60.9460 C   0  0  0  0  0  0  0  0  0  0  0  0
  130.8480  118.2480   60.9560 C   0  0  0  0  0  0  0  0  0  0  0  0
  131.3230  116.9810   60.6270 C   0  0  0  0  0  0  0  0  0  0  0  0
  132.6610  116.8130   60.2840 C   0  0  0  0  0  0  0  0  0  0  0  0
  133.5250  117.9040   60.2690 C   0  0  0  0  0  0  0  0  0  0  0  0
  133.0450  119.1670   60.5990 C   0  0  0  0  0  0  0  0  0  0  0  0
  131.9050  121.6130   62.1080 C   0  0  0  0  0  0  0  0  0  0  0  0
  131.4050  122.8830   62.4320 C   0  0  0  0  0  0  0  0  0  0  0  0
  132.2550  123.8040   63.3160 C   0  0  0  0  0  0  0  0  0  0  0  0
  132.5210  124.9790   62.7410 F   0  0  0  0  0  0  0  0  0  0  0  0
  131.6110  124.0550   64.4550 F   0  0  0  0  0  0  0  0  0  0  0  0
  133.4210  123.2190   63.5880 F   0  0  0  0  0  0  0  0  0  0  0  0
  130.1250  123.2320   61.9130 C   0  0  0  0  0  0  0  0  0  0  0  0
  129.3100  124.4180   62.0190 C   0  0  0  0  0  0  0  0  0  0  0  0
  129.7050  125.5260   62.7240 N   0  0  0  0  0  0  0  0  0  0  0  0
  126.4190  128.6760   61.7870 C   0  0  0  0  0  0  0  0  0  0  0  0
  125.7190  129.8480   61.5140 C   0  0  0  0  0  0  0  0  0  0  0  0
  124.5874  132.6250   62.7084 H   0  0  0  0  0  0  0  0  0  0  0  0
  123.8820  133.9336   61.7001 H   0  0  0  0  0  0  0  0  0  0  0  0
  123.1369  132.2991   61.7001 H   0  0  0  0  0  0  0  0  0  0  0  0
  125.3986  129.5223   58.1319 H   0  0  0  0  0  0  0  0  0  0  0  0
  126.6570  127.4365   58.6165 H   0  0  0  0  0  0  0  0  0  0  0  0
  128.4680  126.6890   60.7520 H   0  0  0  0  0  0  0  0  0  0  0  0
  129.7898  118.3752   61.2282 H   0  0  0  0  0  0  0  0  0  0  0  0
  130.6431  116.1163   60.6382 H   0  0  0  0  0  0  0  0  0  0  0  0
  133.0377  115.8129   60.0234 H   0  0  0  0  0  0  0  0  0  0  0  0
  134.5823  117.7681   59.9975 H   0  0  0  0  0  0  0  0  0  0  0  0
  133.7320  120.0260   60.5883 H   0  0  0  0  0  0  0  0  0  0  0  0
  132.8888  121.3069   62.4933 H   0  0  0  0  0  0  0  0  0  0  0  0
  129.2810  125.7770   63.6070 H   0  0  0  0  0  0  0  0  0  0  0  0
  130.4400  126.1320   62.3860 H   0  0  0  0  0  0  0  0  0  0  0  0
  126.7091  128.4383   62.8211 H   0  0  0  0  0  0  0  0  0  0  0  0
  125.4567  130.5298   62.3364 H   0  0  0  0  0  0  0  0  0  0  0  0
  1  2  1  0
  2  3  1  0
  3  4  2  0
  3  5  1  0
  5  6  2  0
  6  7  1  0
  7  8  2  0
  8  9  1  0
  9 10  1  0
 10 11  2  0
 10 12  1  0
 12 13  1  0
 13 14  1  0
 14 15  2  0
 15 16  1  0
 16 17  1  0
 17 18  2  0
 18 19  1  0
 19 20  2  0
 20 21  1  0
 21 22  2  0
 16 23  2  0
 23 24  1  0
 24 25  1  0
 25 26  1  0
 25 27  1  0
 25 28  1  0
 24 29  2  0
 29 30  1  0
 30 31  1  0
  8 32  1  0
 32 33  2  0
 33  5  1  0
 30 12  2  0
 29 14  1  0
 22 17  1  0
  1 34  1  0
  1 35  1  0
  1 36  1  0
  6 37  1  0
  7 38  1  0
  9 39  1  0
 18 40  1  0
 19 41  1  0
 20 42  1  0
 21 43  1  0
 22 44  1  0
 23 45  1  0
 31 46  1  0
 31 47  1  0
 32 48  1  0
 33 49  1  0
M  END
>  <Binding energies>  (1) 
[-7.27]

>  <Ligand effiencies>  (1) 
[-0.20194444444444443]

>  <Interactions>  (1) 
["V-B:ASP:366:CG:8184, H-A:TYR:539:OH:4876, V-A:TYR:539:CZ:4875, V-B:ASP:366:CB:8183, V-A:TYR:539:CE1:4873, V-B:PRO:540:CA:9855, V-B:ALA:541:CB:9864, V-B:PRO:540:N:9856, V-A:LEU:475:CD2:4256, V-B:GLU:543:CD:9880, V-B:TYR:539:C:9839, V-B:TYR:539:CE1:9847, V-B:TYR:539:CD1:9845, V-B:PRO:540:C:9853, V-B:ILE:369:CD1:8210, V-B:ILE:369:CG2:8208, V-A:ILE:369:CG2:3234, V-A:GLY:454:CA:4046, V-A:TYR:484:CZ:4344, V-A:ARG:545:CZ:4924, H-A:GLU:543:OE2:4908, H-B:ARG:545:NH2:9900, V-A:PRO:482:CG:4324, V-A:SER:385:CB:3406, V-A:PRO:482:CB:4323, V-A:SER:385:CA:3404, V-A:LEU:373:CD1:3277, V-A:GLY:453:C:4039, H-B:GLU:543:OE1:9881, H-B:GLU:543:OE2:9882, V-A:VAL:384:C:3394"]

$$$$
4cc_Grossjean_2025
     RDKit          3D

 47 50  0  0  0  0  0  0  0  0999 V2000
  133.8380  121.8100   61.7640 C   0  0  0  0  0  0  0  0  0  0  0  0
  133.8990  122.6970   62.8760 O   0  0  0  0  0  0  0  0  0  0  0  0
  133.0230  123.7630   62.9370 C   0  0  0  0  0  0  0  0  0  0  0  0
  133.0420  124.6460   61.8570 C   0  0  0  0  0  0  0  0  0  0  0  0
  132.1940  125.7500   61.8280 C   0  0  0  0  0  0  0  0  0  0  0  0
  131.3190  125.9920   62.8890 C   0  0  0  0  0  0  0  0  0  0  0  0
  130.4900  127.1220   62.7650 N   0  0  0  0  0  0  0  0  0  0  0  0
  130.0710  127.7590   61.6440 C   0  0  0  0  0  0  0  0  0  0  0  0
  130.3460  127.3910   60.5010 O   0  0  0  0  0  0  0  0  0  0  0  0
  129.2450  128.9490   61.8680 C   0  0  0  0  0  0  0  0  0  0  0  0
  129.4780  130.3900   60.8800 S   0  0  0  0  0  0  0  0  0  0  0  0
  128.2020  131.2320   61.7290 C   0  0  0  0  0  0  0  0  0  0  0  0
  127.8660  132.4800   61.4140 N   0  0  0  0  0  0  0  0  0  0  0  0
  126.8560  133.0490   62.1230 C   0  0  0  0  0  0  0  0  0  0  0  0
  126.5000  134.4580   61.7480 C   0  0  0  0  0  0  0  0  0  0  0  0
  125.1900  134.7910   61.3680 C   0  0  0  0  0  0  0  0  0  0  0  0
  124.8530  136.0960   61.0180 C   0  0  0  0  0  0  0  0  0  0  0  0
  125.8260  137.0900   61.0410 C   0  0  0  0  0  0  0  0  0  0  0  0
  127.1320  136.7870   61.4110 C   0  0  0  0  0  0  0  0  0  0  0  0
  127.4650  135.4800   61.7590 C   0  0  0  0  0  0  0  0  0  0  0  0
  126.2010  132.3670   63.1530 C   0  0  0  0  0  0  0  0  0  0  0  0
  126.5500  131.0500   63.4940 C   0  0  0  0  0  0  0  0  0  0  0  0
  125.7860  130.3600   64.6300 C   0  0  0  0  0  0  0  0  0  0  0  0
  126.5690  130.0180   65.6570 F   0  0  0  0  0  0  0  0  0  0  0  0
  124.8450  131.1780   65.1020 F   0  0  0  0  0  0  0  0  0  0  0  0
  125.2130  129.2460   64.1770 F   0  0  0  0  0  0  0  0  0  0  0  0
  127.6010  130.4410   62.7510 C   0  0  0  0  0  0  0  0  0  0  0  0
  128.2220  129.1400   62.8100 C   0  0  0  0  0  0  0  0  0  0  0  0
  127.8400  128.1770   63.7090 N   0  0  0  0  0  0  0  0  0  0  0  0
  131.2860  125.1020   63.9730 C   0  0  0  0  0  0  0  0  0  0  0  0
  132.1350  123.9990   63.9970 C   0  0  0  0  0  0  0  0  0  0  0  0
  133.7667  120.7735   62.1253 H   0  0  0  0  0  0  0  0  0  0  0  0
  132.9540  122.0472   61.1538 H   0  0  0  0  0  0  0  0  0  0  0  0
  134.7461  121.9240   61.1538 H   0  0  0  0  0  0  0  0  0  0  0  0
  133.7336  124.4683   61.0203 H   0  0  0  0  0  0  0  0  0  0  0  0
  132.2134  126.4337   60.9665 H   0  0  0  0  0  0  0  0  0  0  0  0
  130.1410  127.4830   63.6400 H   0  0  0  0  0  0  0  0  0  0  0  0
  124.4174  134.0083   61.3464 H   0  0  0  0  0  0  0  0  0  0  0  0
  123.8213  136.3400   60.7245 H   0  0  0  0  0  0  0  0  0  0  0  0
  125.5610  138.1213   60.7650 H   0  0  0  0  0  0  0  0  0  0  0  0
  127.8984  137.5759   61.4287 H   0  0  0  0  0  0  0  0  0  0  0  0
  128.5000  135.2438   62.0471 H   0  0  0  0  0  0  0  0  0  0  0  0
  125.3963  132.8721   63.7073 H   0  0  0  0  0  0  0  0  0  0  0  0
  127.8810  127.1920   63.4870 H   0  0  0  0  0  0  0  0  0  0  0  0
  127.4990  128.4220   64.6280 H   0  0  0  0  0  0  0  0  0  0  0  0
  130.5882  125.2760   64.8053 H   0  0  0  0  0  0  0  0  0  0  0  0
  132.1094  123.3081   64.8526 H   0  0  0  0  0  0  0  0  0  0  0  0
  1  2  1  0
  2  3  1  0
  3  4  2  0
  4  5  1  0
  5  6  2  0
  6  7  1  0
  7  8  1  0
  8  9  2  0
  8 10  1  0
 10 11  1  0
 11 12  1  0
 12 13  2  0
 13 14  1  0
 14 15  1  0
 15 16  2  0
 16 17  1  0
 17 18  2  0
 18 19  1  0
 19 20  2  0
 14 21  2  0
 21 22  1  0
 22 23  1  0
 23 24  1  0
 23 25  1  0
 23 26  1  0
 22 27  2  0
 27 28  1  0
 28 29  1  0
  6 30  1  0
 30 31  2  0
 31  3  1  0
 28 10  2  0
 27 12  1  0
 20 15  1  0
  1 32  1  0
  1 33  1  0
  1 34  1  0
  4 35  1  0
  5 36  1  0
  7 37  1  0
 16 38  1  0
 17 39  1  0
 18 40  1  0
 19 41  1  0
 20 42  1  0
 21 43  1  0
 29 44  1  0
 29 45  1  0
 30 46  1  0
 31 47  1  0
M  END
>  <Binding energies>  (1) 
[-7.48]

>  <Ligand effiencies>  (1) 
[-0.22]

>  <Interactions>  (1) 
["V-A:ASP:366:CG:3210, V-A:TYR:539:CE1:4873, V-A:LEU:475:CD2:4256, V-B:GLU:543:CD:9880, V-A:TYR:539:CD1:4871, V-A:ALA:541:CB:4890, V-B:ILE:369:CG2:8208, V-A:ILE:369:CD1:3236, V-A:ILE:369:CG2:3234, V-B:ARG:545:CZ:9898, V-B:PRO:482:CB:9297, V-B:SER:385:CA:8378, V-B:PRO:482:CG:9298, V-B:LEU:475:CD2:9230, V-B:LEU:373:CD1:8251, V-B:GLY:453:C:9013, V-B:GLY:454:CA:9020, H-A:GLY:454:N:4047, V-A:GLY:454:CA:4046, V-A:ARG:545:CZ:4924, V-A:GLU:543:CD:4906, H-A:GLU:543:OE2:4908, H-A:GLU:543:OE1:4907, V-B:TYR:484:CZ:9318, H-B:GLU:543:OE1:9881, H-B:GLU:543:OE2:9882, V-A:TYR:539:CB:4869"]

$$$$
4cd_Grossjean_2025
     RDKit          3D

 43 46  0  0  0  0  0  0  0  0999 V2000
  127.8680  128.1920   63.7390 N   0  0  0  0  0  0  0  0  0  0  0  0
  128.2550  129.1590   62.8460 C   0  0  0  0  0  0  0  0  0  0  0  0
  129.2980  128.9800   61.9230 C   0  0  0  0  0  0  0  0  0  0  0  0
  130.1600  127.8090   61.7340 C   0  0  0  0  0  0  0  0  0  0  0  0
  130.5360  127.4820   60.6090 O   0  0  0  0  0  0  0  0  0  0  0  0
  130.5000  127.1490   62.8680 N   0  0  0  0  0  0  0  0  0  0  0  0
  131.2590  125.9750   63.0290 C   0  0  0  0  0  0  0  0  0  0  0  0
  130.9080  125.1620   64.1110 C   0  0  0  0  0  0  0  0  0  0  0  0
  131.5920  123.9730   64.3460 C   0  0  0  0  0  0  0  0  0  0  0  0
  132.6240  123.5910   63.4940 C   0  0  0  0  0  0  0  0  0  0  0  0
  132.9760  124.3840   62.4050 C   0  0  0  0  0  0  0  0  0  0  0  0
  132.2940  125.5750   62.1670 C   0  0  0  0  0  0  0  0  0  0  0  0
  129.5180  130.4170   60.9260 S   0  0  0  0  0  0  0  0  0  0  0  0
  128.2230  131.2460   61.7560 C   0  0  0  0  0  0  0  0  0  0  0  0
  127.8740  132.4890   61.4320 N   0  0  0  0  0  0  0  0  0  0  0  0
  126.8640  133.0550   62.1420 C   0  0  0  0  0  0  0  0  0  0  0  0
  126.4950  134.4580   61.7560 C   0  0  0  0  0  0  0  0  0  0  0  0
  127.4590  135.4800   61.7510 C   0  0  0  0  0  0  0  0  0  0  0  0
  127.1240  136.7830   61.3930 C   0  0  0  0  0  0  0  0  0  0  0  0
  125.8140  137.0840   61.0340 C   0  0  0  0  0  0  0  0  0  0  0  0
  124.8410  136.0910   61.0270 C   0  0  0  0  0  0  0  0  0  0  0  0
  125.1810  134.7900   61.3830 C   0  0  0  0  0  0  0  0  0  0  0  0
  126.1980  132.3660   63.1590 C   0  0  0  0  0  0  0  0  0  0  0  0
  126.5550  131.0520   63.5060 C   0  0  0  0  0  0  0  0  0  0  0  0
  125.7850  130.3560   64.6340 C   0  0  0  0  0  0  0  0  0  0  0  0
  126.5640  130.0030   65.6600 F   0  0  0  0  0  0  0  0  0  0  0  0
  124.8440  131.1720   65.1090 F   0  0  0  0  0  0  0  0  0  0  0  0
  125.2120  129.2460   64.1690 F   0  0  0  0  0  0  0  0  0  0  0  0
  127.6210  130.4530   62.7760 C   0  0  0  0  0  0  0  0  0  0  0  0
  127.5000  128.4250   64.6510 H   0  0  0  0  0  0  0  0  0  0  0  0
  127.9350  127.2100   63.5130 H   0  0  0  0  0  0  0  0  0  0  0  0
  130.1780  127.5580   63.7340 H   0  0  0  0  0  0  0  0  0  0  0  0
  130.0879  125.4634   64.7792 H   0  0  0  0  0  0  0  0  0  0  0  0
  131.3182  123.3379   65.2014 H   0  0  0  0  0  0  0  0  0  0  0  0
  133.1670  122.6532   63.6828 H   0  0  0  0  0  0  0  0  0  0  0  0
  133.7901  124.0709   61.7347 H   0  0  0  0  0  0  0  0  0  0  0  0
  132.5655  126.2019   61.3049 H   0  0  0  0  0  0  0  0  0  0  0  0
  128.4959  135.2467   62.0347 H   0  0  0  0  0  0  0  0  0  0  0  0
  127.8916  137.5709   61.3940 H   0  0  0  0  0  0  0  0  0  0  0  0
  125.5466  138.1136   60.7541 H   0  0  0  0  0  0  0  0  0  0  0  0
  123.8067  136.3331   60.7412 H   0  0  0  0  0  0  0  0  0  0  0  0
  124.4081  134.0073   61.3724 H   0  0  0  0  0  0  0  0  0  0  0  0
  125.3779  132.8621   63.6987 H   0  0  0  0  0  0  0  0  0  0  0  0
  1  2  1  0
  2  3  2  0
  3  4  1  0
  4  5  2  0
  4  6  1  0
  6  7  1  0
  7  8  2  0
  8  9  1  0
  9 10  2  0
 10 11  1  0
 11 12  2  0
  3 13  1  0
 13 14  1  0
 14 15  2  0
 15 16  1  0
 16 17  1  0
 17 18  2  0
 18 19  1  0
 19 20  2  0
 20 21  1  0
 21 22  2  0
 16 23  2  0
 23 24  1  0
 24 25  1  0
 25 26  1  0
 25 27  1  0
 25 28  1  0
 24 29  2  0
 29  2  1  0
 12  7  1  0
 29 14  1  0
 22 17  1  0
  1 30  1  0
  1 31  1  0
  6 32  1  0
  8 33  1  0
  9 34  1  0
 10 35  1  0
 11 36  1  0
 12 37  1  0
 18 38  1  0
 19 39  1  0
 20 40  1  0
 21 41  1  0
 22 42  1  0
 23 43  1  0
M  END
>  <Binding energies>  (1) 
[-7.55]

>  <Ligand effiencies>  (1) 
[-0.2359375]

>  <Interactions>  (1) 
["V-A:TYR:539:CE1:4873, V-B:GLU:543:CD:9880, V-A:TYR:539:CD1:4871, V-A:ALA:541:CB:4890, V-B:ILE:369:CG2:8208, V-B:ARG:545:CZ:9898, V-B:PRO:482:CB:9297, V-B:SER:385:CA:8378, V-B:PRO:482:CG:9298, V-B:LEU:475:CD2:9230, V-B:LEU:373:CD1:8251, V-B:GLY:453:C:9013, V-B:GLY:454:CA:9020, V-A:GLY:454:CA:4046, V-A:ARG:545:CZ:4924, V-A:GLU:543:CD:4906, H-A:GLU:543:OE2:4908, H-A:GLU:543:OE1:4907, V-B:TYR:484:CZ:9318, H-B:GLU:543:OE1:9881, H-B:GLU:543:OE2:9882, V-A:TYR:539:CB:4869"]

$$$$
4ce_Grossjean_2025
     RDKit          3D

 45 48  0  0  0  0  0  0  0  0999 V2000
  133.7500  124.0330   60.8810 C   0  0  0  0  0  0  0  0  0  0  0  0
  132.9280  124.4750   62.0780 C   0  0  0  0  0  0  0  0  0  0  0  0
  132.9910  123.7950   63.2980 C   0  0  0  0  0  0  0  0  0  0  0  0
  132.2140  124.2630   64.3580 C   0  0  0  0  0  0  0  0  0  0  0  0
  131.4040  125.3860   64.1770 C   0  0  0  0  0  0  0  0  0  0  0  0
  131.3850  126.0160   62.9270 C   0  0  0  0  0  0  0  0  0  0  0  0
  130.5680  127.1550   62.8150 N   0  0  0  0  0  0  0  0  0  0  0  0
  130.1650  127.8030   61.6930 C   0  0  0  0  0  0  0  0  0  0  0  0
  130.4670  127.4490   60.5520 O   0  0  0  0  0  0  0  0  0  0  0  0
  129.3260  128.9830   61.9140 C   0  0  0  0  0  0  0  0  0  0  0  0
  129.5970  130.4520   60.9790 S   0  0  0  0  0  0  0  0  0  0  0  0
  128.2620  131.2550   61.7700 C   0  0  0  0  0  0  0  0  0  0  0  0
  127.9250  132.5050   61.4640 N   0  0  0  0  0  0  0  0  0  0  0  0
  126.8620  133.0400   62.1220 C   0  0  0  0  0  0  0  0  0  0  0  0
  126.5050  134.4490   61.7500 C   0  0  0  0  0  0  0  0  0  0  0  0
  125.1910  134.7810   61.3810 C   0  0  0  0  0  0  0  0  0  0  0  0
  124.8540  136.0860   61.0280 C   0  0  0  0  0  0  0  0  0  0  0  0
  125.8280  137.0780   61.0420 C   0  0  0  0  0  0  0  0  0  0  0  0
  127.1360  136.7760   61.4030 C   0  0  0  0  0  0  0  0  0  0  0  0
  127.4700  135.4700   61.7530 C   0  0  0  0  0  0  0  0  0  0  0  0
  126.1580  132.3250   63.0960 C   0  0  0  0  0  0  0  0  0  0  0  0
  126.5090  131.0070   63.4300 C   0  0  0  0  0  0  0  0  0  0  0  0
  125.6940  130.2820   64.5050 C   0  0  0  0  0  0  0  0  0  0  0  0
  124.9760  129.2660   64.0220 F   0  0  0  0  0  0  0  0  0  0  0  0
  126.5140  129.7850   65.4330 F   0  0  0  0  0  0  0  0  0  0  0  0
  124.8460  131.1330   65.0800 F   0  0  0  0  0  0  0  0  0  0  0  0
  127.6120  130.4310   62.7360 C   0  0  0  0  0  0  0  0  0  0  0  0
  128.2440  129.1360   62.7980 C   0  0  0  0  0  0  0  0  0  0  0  0
  127.8220  128.1440   63.6450 N   0  0  0  0  0  0  0  0  0  0  0  0
  132.1450  125.5670   61.8860 N   0  0  0  0  0  0  0  0  0  0  0  0
  134.6689  123.5389   61.2295 H   0  0  0  0  0  0  0  0  0  0  0  0
  133.1631  123.3289   60.2730 H   0  0  0  0  0  0  0  0  0  0  0  0
  134.0138  124.9109   60.2730 H   0  0  0  0  0  0  0  0  0  0  0  0
  133.6371  122.9130   63.4191 H   0  0  0  0  0  0  0  0  0  0  0  0
  132.2393  123.7503   65.3309 H   0  0  0  0  0  0  0  0  0  0  0  0
  130.7897  125.7701   65.0047 H   0  0  0  0  0  0  0  0  0  0  0  0
  130.2090  127.5050   63.6900 H   0  0  0  0  0  0  0  0  0  0  0  0
  124.4170  133.9995   61.3706 H   0  0  0  0  0  0  0  0  0  0  0  0
  123.8211  136.3305   60.7393 H   0  0  0  0  0  0  0  0  0  0  0  0
  125.5618  138.1089   60.7655 H   0  0  0  0  0  0  0  0  0  0  0  0
  127.9031  137.5643   61.4122 H   0  0  0  0  0  0  0  0  0  0  0  0
  128.5063  135.2341   62.0364 H   0  0  0  0  0  0  0  0  0  0  0  0
  125.3124  132.8046   63.6108 H   0  0  0  0  0  0  0  0  0  0  0  0
  127.0970  128.2990   64.3310 H   0  0  0  0  0  0  0  0  0  0  0  0
  128.2270  127.2190   63.6140 H   0  0  0  0  0  0  0  0  0  0  0  0
  1  2  1  0
  2  3  2  0
  3  4  1  0
  4  5  2  0
  5  6  1  0
  6  7  1  0
  7  8  1  0
  8  9  2  0
  8 10  1  0
 10 11  1  0
 11 12  1  0
 12 13  2  0
 13 14  1  0
 14 15  1  0
 15 16  2  0
 16 17  1  0
 17 18  2  0
 18 19  1  0
 19 20  2  0
 14 21  2  0
 21 22  1  0
 22 23  1  0
 23 24  1  0
 23 25  1  0
 23 26  1  0
 22 27  2  0
 27 28  1  0
 28 29  1  0
  6 30  2  0
 30  2  1  0
 28 10  2  0
 27 12  1  0
 20 15  1  0
  1 31  1  0
  1 32  1  0
  1 33  1  0
  3 34  1  0
  4 35  1  0
  5 36  1  0
  7 37  1  0
 16 38  1  0
 17 39  1  0
 18 40  1  0
 19 41  1  0
 20 42  1  0
 21 43  1  0
 29 44  1  0
 29 45  1  0
M  END
>  <Binding energies>  (1) 
[-7.74]

>  <Ligand effiencies>  (1) 
[-0.23454545454545456]

>  <Interactions>  (1) 
["V-A:TYR:539:CE1:4873, V-B:GLU:543:CD:9880, V-A:TYR:539:CD1:4871, V-A:ALA:541:CB:4890, V-B:ILE:369:CG2:8208, V-A:ILE:369:CD1:3236, V-B:ARG:545:CZ:9898, V-B:PRO:482:CB:9297, V-B:SER:385:CA:8378, V-B:PRO:482:CG:9298, V-B:LEU:475:CD2:9230, V-B:LEU:373:CD1:8251, V-B:GLY:453:C:9013, V-B:GLY:454:CA:9020, V-A:GLY:454:CA:4046, H-A:ARG:545:NH2:4926, V-A:ARG:545:CZ:4924, V-A:GLU:543:CD:4906, H-A:GLU:543:OE2:4908, H-A:GLU:543:OE1:4907, V-B:TYR:484:CZ:9318, H-B:GLU:543:OE1:9881, H-B:GLU:543:OE2:9882, V-A:TYR:539:CB:4869"]

$$$$
4cf_Grossjean_2025
     RDKit          3D

 42 45  0  0  0  0  0  0  0  0999 V2000
  128.1910  128.0890   63.6880 N   0  0  0  0  0  0  0  0  0  0  0  0
  128.5320  129.0690   62.7920 C   0  0  0  0  0  0  0  0  0  0  0  0
  129.5720  128.9310   61.8590 C   0  0  0  0  0  0  0  0  0  0  0  0
  130.4880  127.8020   61.6720 C   0  0  0  0  0  0  0  0  0  0  0  0
  130.9950  127.5820   60.5700 O   0  0  0  0  0  0  0  0  0  0  0  0
  130.7270  127.0580   62.7790 N   0  0  0  0  0  0  0  0  0  0  0  0
  131.5050  125.8940   62.9280 C   0  0  0  0  0  0  0  0  0  0  0  0
  131.5120  124.7980   62.0450 C   0  0  0  0  0  0  0  0  0  0  0  0
  132.3230  123.6950   62.3210 C   0  0  0  0  0  0  0  0  0  0  0  0
  133.1080  123.7140   63.4740 C   0  0  0  0  0  0  0  0  0  0  0  0
  133.1140  124.7540   64.3450 N   0  0  0  0  0  0  0  0  0  0  0  0
  132.3180  125.8190   64.0640 C   0  0  0  0  0  0  0  0  0  0  0  0
  129.7310  130.3770   60.8640 S   0  0  0  0  0  0  0  0  0  0  0  0
  128.4130  131.1560   61.7070 C   0  0  0  0  0  0  0  0  0  0  0  0
  128.0180  132.3880   61.3920 N   0  0  0  0  0  0  0  0  0  0  0  0
  126.9950  132.9160   62.1150 C   0  0  0  0  0  0  0  0  0  0  0  0
  126.5770  134.3080   61.7430 C   0  0  0  0  0  0  0  0  0  0  0  0
  127.5040  135.3620   61.7510 C   0  0  0  0  0  0  0  0  0  0  0  0
  127.1240  136.6570   61.4060 C   0  0  0  0  0  0  0  0  0  0  0  0
  125.8060  136.9150   61.0440 C   0  0  0  0  0  0  0  0  0  0  0  0
  124.8670  135.8890   61.0250 C   0  0  0  0  0  0  0  0  0  0  0  0
  125.2520  134.5960   61.3700 C   0  0  0  0  0  0  0  0  0  0  0  0
  126.3600  132.1960   63.1320 C   0  0  0  0  0  0  0  0  0  0  0  0
  126.7660  130.8960   63.4680 C   0  0  0  0  0  0  0  0  0  0  0  0
  126.0290  130.1660   64.5980 C   0  0  0  0  0  0  0  0  0  0  0  0
  124.9310  130.8060   65.0070 F   0  0  0  0  0  0  0  0  0  0  0  0
  125.6530  128.9560   64.1830 F   0  0  0  0  0  0  0  0  0  0  0  0
  126.8320  130.0390   65.6540 F   0  0  0  0  0  0  0  0  0  0  0  0
  127.8490  130.3380   62.7290 C   0  0  0  0  0  0  0  0  0  0  0  0
  127.2830  127.6460   63.6760 H   0  0  0  0  0  0  0  0  0  0  0  0
  128.8410  127.7720   64.3950 H   0  0  0  0  0  0  0  0  0  0  0  0
  130.2900  127.3780   63.6310 H   0  0  0  0  0  0  0  0  0  0  0  0
  130.8825  124.8101   61.1430 H   0  0  0  0  0  0  0  0  0  0  0  0
  132.3424  122.8290   61.6431 H   0  0  0  0  0  0  0  0  0  0  0  0
  133.7508  122.8470   63.6864 H   0  0  0  0  0  0  0  0  0  0  0  0
  132.3127  126.6658   64.7660 H   0  0  0  0  0  0  0  0  0  0  0  0
  128.5479  135.1620   62.0344 H   0  0  0  0  0  0  0  0  0  0  0  0
  127.8628  137.4718   61.4198 H   0  0  0  0  0  0  0  0  0  0  0  0
  125.5043  137.9370   60.7710 H   0  0  0  0  0  0  0  0  0  0  0  0
  123.8256  136.0979   60.7389 H   0  0  0  0  0  0  0  0  0  0  0  0
  124.5074  133.7865   61.3504 H   0  0  0  0  0  0  0  0  0  0  0  0
  125.5254  132.6584   63.6794 H   0  0  0  0  0  0  0  0  0  0  0  0
  1  2  1  0
  2  3  2  0
  3  4  1  0
  4  5  2  0
  4  6  1  0
  6  7  1  0
  7  8  2  0
  8  9  1  0
  9 10  2  0
 10 11  1  0
 11 12  2  0
  3 13  1  0
 13 14  1  0
 14 15  2  0
 15 16  1  0
 16 17  1  0
 17 18  2  0
 18 19  1  0
 19 20  2  0
 20 21  1  0
 21 22  2  0
 16 23  2  0
 23 24  1  0
 24 25  1  0
 25 26  1  0
 25 27  1  0
 25 28  1  0
 24 29  2  0
 29  2  1  0
 12  7  1  0
 29 14  1  0
 22 17  1  0
  1 30  1  0
  1 31  1  0
  6 32  1  0
  8 33  1  0
  9 34  1  0
 10 35  1  0
 12 36  1  0
 18 37  1  0
 19 38  1  0
 20 39  1  0
 21 40  1  0
 22 41  1  0
 23 42  1  0
M  END
>  <Binding energies>  (1) 
[-7.56]

>  <Ligand effiencies>  (1) 
[-0.23625]

>  <Interactions>  (1) 
["V-A:TYR:539:CE1:4873, V-B:GLU:543:CD:9880, V-A:TYR:539:CD1:4871, V-A:ALA:541:CB:4890, V-B:ILE:369:CG2:8208, V-B:ARG:545:CZ:9898, V-B:PRO:482:CB:9297, V-B:SER:385:CA:8378, V-B:PRO:482:CG:9298, V-B:LEU:475:CD2:9230, V-B:LEU:373:CD1:8251, V-B:GLY:454:CA:9020, H-A:GLY:454:N:4047, V-A:GLY:454:CA:4046, H-A:TYR:484:OH:4345, H-A:ARG:545:NH2:4926, V-A:ARG:545:CZ:4924, V-A:GLU:543:CD:4906, H-A:GLU:543:OE2:4908, H-A:GLU:543:OE1:4907, V-B:TYR:484:CZ:9318, H-B:GLU:543:OE1:9881, H-B:GLU:543:OE2:9882, V-A:TYR:539:CB:4869"]

$$$$
4cg_Grossjean_2025
     RDKit          3D

 46 49  0  0  0  0  0  0  0  0999 V2000
  130.4700  128.0370   62.8750 N   0  0  0  0  0  0  0  0  0  0  0  0
  130.6580  127.2060   61.8010 C   0  0  0  0  0  0  0  0  0  0  0  0
  130.5780  127.6410   60.4710 C   0  0  0  0  0  0  0  0  0  0  0  0
  130.3430  128.9940   59.9660 C   0  0  0  0  0  0  0  0  0  0  0  0
  129.3890  129.2470   59.2270 O   0  0  0  0  0  0  0  0  0  0  0  0
  131.2510  129.9260   60.3250 N   0  0  0  0  0  0  0  0  0  0  0  0
  131.2040  131.3400   59.9570 C   0  0  0  0  0  0  0  0  0  0  0  0
  131.4920  131.5920   58.4820 C   0  0  0  0  0  0  0  0  0  0  0  0
  130.4700  132.0440   57.6420 C   0  0  0  0  0  0  0  0  0  0  0  0
  130.7370  132.3060   56.3000 C   0  0  0  0  0  0  0  0  0  0  0  0
  132.0260  132.1250   55.8060 C   0  0  0  0  0  0  0  0  0  0  0  0
  133.0530  131.6900   56.6410 C   0  0  0  0  0  0  0  0  0  0  0  0
  132.7880  131.4300   57.9830 C   0  0  0  0  0  0  0  0  0  0  0  0
  130.8930  126.3240   59.3440 S   0  0  0  0  0  0  0  0  0  0  0  0
  131.1060  125.1950   60.6600 C   0  0  0  0  0  0  0  0  0  0  0  0
  131.3880  123.9140   60.4370 N   0  0  0  0  0  0  0  0  0  0  0  0
  131.5420  123.1110   61.5220 C   0  0  0  0  0  0  0  0  0  0  0  0
  131.8570  121.6710   61.2360 C   0  0  0  0  0  0  0  0  0  0  0  0
  133.1610  121.2710   60.8990 C   0  0  0  0  0  0  0  0  0  0  0  0
  133.4580  119.9380   60.6330 C   0  0  0  0  0  0  0  0  0  0  0  0
  132.4520  118.9800   60.6970 C   0  0  0  0  0  0  0  0  0  0  0  0
  131.1510  119.3480   61.0260 C   0  0  0  0  0  0  0  0  0  0  0  0
  130.8590  120.6820   61.2910 C   0  0  0  0  0  0  0  0  0  0  0  0
  131.3920  123.5970   62.8260 C   0  0  0  0  0  0  0  0  0  0  0  0
  131.0940  124.9460   63.0740 C   0  0  0  0  0  0  0  0  0  0  0  0
  130.9440  125.4110   64.5270 C   0  0  0  0  0  0  0  0  0  0  0  0
  130.8140  124.4010   65.3890 F   0  0  0  0  0  0  0  0  0  0  0  0
  132.0200  126.1100   64.8900 F   0  0  0  0  0  0  0  0  0  0  0  0
  129.8610  126.1770   64.6450 F   0  0  0  0  0  0  0  0  0  0  0  0
  130.9460  125.7990   61.9420 C   0  0  0  0  0  0  0  0  0  0  0  0
  130.2560  129.0180   62.7620 H   0  0  0  0  0  0  0  0  0  0  0  0
  130.5300  127.6920   63.8230 H   0  0  0  0  0  0  0  0  0  0  0  0
  131.9630  129.6640   60.9900 H   0  0  0  0  0  0  0  0  0  0  0  0
  130.2004  131.7269   60.1872 H   0  0  0  0  0  0  0  0  0  0  0  0
  131.9893  131.8514   60.5329 H   0  0  0  0  0  0  0  0  0  0  0  0
  129.4555  132.1927   58.0405 H   0  0  0  0  0  0  0  0  0  0  0  0
  129.9336  132.6541   55.6342 H   0  0  0  0  0  0  0  0  0  0  0  0
  132.2358  132.3275   54.7454 H   0  0  0  0  0  0  0  0  0  0  0  0
  134.0688  131.5526   56.2418 H   0  0  0  0  0  0  0  0  0  0  0  0
  133.5973  131.0976   58.6498 H   0  0  0  0  0  0  0  0  0  0  0  0
  133.9606  122.0244   60.8445 H   0  0  0  0  0  0  0  0  0  0  0  0
  134.4853  119.6429   60.3729 H   0  0  0  0  0  0  0  0  0  0  0  0
  132.6859  117.9260   60.4865 H   0  0  0  0  0  0  0  0  0  0  0  0
  130.3575  118.5879   61.0763 H   0  0  0  0  0  0  0  0  0  0  0  0
  129.8286  120.9684   61.5483 H   0  0  0  0  0  0  0  0  0  0  0  0
  131.5102  122.9070   63.6745 H   0  0  0  0  0  0  0  0  0  0  0  0
  1  2  1  0
  2  3  2  0
  3  4  1  0
  4  5  2  0
  4  6  1  0
  6  7  1  0
  7  8  1  0
  8  9  2  0
  9 10  1  0
 10 11  2  0
 11 12  1  0
 12 13  2  0
  3 14  1  0
 14 15  1  0
 15 16  2  0
 16 17  1  0
 17 18  1  0
 18 19  2  0
 19 20  1  0
 20 21  2  0
 21 22  1  0
 22 23  2  0
 17 24  2  0
 24 25  1  0
 25 26  1  0
 26 27  1  0
 26 28  1  0
 26 29  1  0
 25 30  2  0
 30  2  1  0
 13  8  1  0
 30 15  1  0
 23 18  1  0
  1 31  1  0
  1 32  1  0
  6 33  1  0
  7 34  1  0
  7 35  1  0
  9 36  1  0
 10 37  1  0
 11 38  1  0
 12 39  1  0
 13 40  1  0
 19 41  1  0
 20 42  1  0
 21 43  1  0
 22 44  1  0
 23 45  1  0
 24 46  1  0
M  END
>  <Binding energies>  (1) 
[-7.74]

>  <Ligand effiencies>  (1) 
[-0.23454545454545456]

>  <Interactions>  (1) 
["V-A:MET:535:CE:4833, V-A:ASP:366:CG:3210, V-A:TYR:531:CZ:4792, V-A:TYR:531:CE2:4791, V-A:PRO:540:CB:4883, V-A:PRO:540:CA:4881, V-A:ILE:538:CA:4858, V-A:LEU:363:CD1:3186, V-B:ALA:541:CB:9864, V-A:LEU:475:CD2:4256, V-B:GLU:543:CD:9880, V-B:TYR:539:CE1:9847, V-B:TYR:539:CD1:9845, V-A:PRO:540:N:4882, V-A:ILE:369:CG2:3234, V-A:ILE:538:CB:4860, V-A:ILE:538:CG2:4861, H-A:ASP:366:OD2:3212, V-A:TYR:484:CZ:4344, V-A:ARG:545:CZ:4924, V-A:GLU:543:CD:4906, H-A:GLU:543:OE2:4908, H-A:GLU:543:OE1:4907, V-A:SER:385:CA:3404, V-B:GLU:543:CB:9878, V-A:LEU:373:CD1:3277, V-A:TYR:484:CE2:4343"]

$$$$
4ch_Grossjean_2025
     RDKit          3D

 58 61  0  0  0  0  0  0  0  0999 V2000
  128.6130  122.8730   55.7760 C   0  0  0  0  0  0  0  0  0  0  0  0
  128.2700  122.1500   56.9540 O   0  0  0  0  0  0  0  0  0  0  0  0
  127.4530  122.7430   57.9000 C   0  0  0  0  0  0  0  0  0  0  0  0
  127.9080  123.2230   59.1380 C   0  0  0  0  0  0  0  0  0  0  0  0
  127.0260  123.8130   60.0450 C   0  0  0  0  0  0  0  0  0  0  0  0
  127.5330  124.3030   61.3960 C   0  0  0  0  0  0  0  0  0  0  0  0
  127.3520  125.7370   61.6220 N   0  0  0  0  0  0  0  0  0  0  0  0
  127.4660  126.6990   60.6820 C   0  0  0  0  0  0  0  0  0  0  0  0
  127.7150  126.4460   59.5010 O   0  0  0  0  0  0  0  0  0  0  0  0
  127.2380  128.0710   61.1380 C   0  0  0  0  0  0  0  0  0  0  0  0
  126.8940  129.3430   59.9700 S   0  0  0  0  0  0  0  0  0  0  0  0
  126.7420  130.5300   61.2430 C   0  0  0  0  0  0  0  0  0  0  0  0
  126.4690  131.8050   60.9760 N   0  0  0  0  0  0  0  0  0  0  0  0
  126.3640  132.6540   62.0310 C   0  0  0  0  0  0  0  0  0  0  0  0
  126.0610  134.0860   61.6940 C   0  0  0  0  0  0  0  0  0  0  0  0
  124.7620  134.4820   61.3400 C   0  0  0  0  0  0  0  0  0  0  0  0
  124.4750  135.8080   61.0250 C   0  0  0  0  0  0  0  0  0  0  0  0
  125.4880  136.7600   61.0610 C   0  0  0  0  0  0  0  0  0  0  0  0
  126.7850  136.3950   61.4050 C   0  0  0  0  0  0  0  0  0  0  0  0
  127.0670  135.0670   61.7170 C   0  0  0  0  0  0  0  0  0  0  0  0
  126.5500  132.2220   63.3480 C   0  0  0  0  0  0  0  0  0  0  0  0
  126.8400  130.8790   63.6420 C   0  0  0  0  0  0  0  0  0  0  0  0
  127.0320  130.4740   65.1070 C   0  0  0  0  0  0  0  0  0  0  0  0
  127.8800  129.4540   65.2620 F   0  0  0  0  0  0  0  0  0  0  0  0
  127.5160  131.5030   65.8010 F   0  0  0  0  0  0  0  0  0  0  0  0
  125.8640  130.1020   65.6300 F   0  0  0  0  0  0  0  0  0  0  0  0
  126.9390  129.9780   62.5430 C   0  0  0  0  0  0  0  0  0  0  0  0
  127.2110  128.5640   62.4520 C   0  0  0  0  0  0  0  0  0  0  0  0
  127.4320  127.7770   63.5530 N   0  0  0  0  0  0  0  0  0  0  0  0
  125.6710  123.9100   59.7230 C   0  0  0  0  0  0  0  0  0  0  0  0
  125.1890  123.4370   58.4920 C   0  0  0  0  0  0  0  0  0  0  0  0
  123.8620  123.5030   58.1080 O   0  0  0  0  0  0  0  0  0  0  0  0
  123.3370  124.7300   57.6120 C   0  0  0  0  0  0  0  0  0  0  0  0
  126.0910  122.8610   57.5870 C   0  0  0  0  0  0  0  0  0  0  0  0
  125.6300  122.3810   56.3860 O   0  0  0  0  0  0  0  0  0  0  0  0
  125.3680  123.3900   55.4200 C   0  0  0  0  0  0  0  0  0  0  0  0
  129.0690  123.8342   56.0555 H   0  0  0  0  0  0  0  0  0  0  0  0
  129.3289  122.2867   55.1813 H   0  0  0  0  0  0  0  0  0  0  0  0
  127.7060  123.0566   55.1813 H   0  0  0  0  0  0  0  0  0  0  0  0
  128.9733  123.1331   59.3968 H   0  0  0  0  0  0  0  0  0  0  0  0
  126.9929  123.7589   62.1848 H   0  0  0  0  0  0  0  0  0  0  0  0
  128.6167  124.1154   61.4131 H   0  0  0  0  0  0  0  0  0  0  0  0
  127.1990  126.0210   62.5790 H   0  0  0  0  0  0  0  0  0  0  0  0
  123.9572  133.7327   61.3108 H   0  0  0  0  0  0  0  0  0  0  0  0
  123.4513  136.1010   60.7489 H   0  0  0  0  0  0  0  0  0  0  0  0
  125.2620  137.8082   60.8159 H   0  0  0  0  0  0  0  0  0  0  0  0
  127.5839  137.1508   61.4306 H   0  0  0  0  0  0  0  0  0  0  0  0
  128.0946  134.7813   61.9860 H   0  0  0  0  0  0  0  0  0  0  0  0
  126.4676  132.9481   64.1702 H   0  0  0  0  0  0  0  0  0  0  0  0
  128.2180  127.1430   63.6080 H   0  0  0  0  0  0  0  0  0  0  0  0
  126.8160  127.8070   64.3530 H   0  0  0  0  0  0  0  0  0  0  0  0
  124.9726  124.3624   60.4424 H   0  0  0  0  0  0  0  0  0  0  0  0
  123.0597  125.3781   58.4564 H   0  0  0  0  0  0  0  0  0  0  0  0
  124.0986  125.2332   56.9982 H   0  0  0  0  0  0  0  0  0  0  0  0
  122.4471  124.5266   56.9982 H   0  0  0  0  0  0  0  0  0  0  0  0
  125.1232  124.3326   55.9315 H   0  0  0  0  0  0  0  0  0  0  0  0
  126.2583  123.5349   54.7904 H   0  0  0  0  0  0  0  0  0  0  0  0
  124.5197  123.0834   54.7904 H   0  0  0  0  0  0  0  0  0  0  0  0
  1  2  1  0
  2  3  1  0
  3  4  2  0
  4  5  1  0
  5  6  1  0
  6  7  1  0
  7  8  1  0
  8  9  2  0
  8 10  1  0
 10 11  1  0
 11 12  1  0
 12 13  2  0
 13 14  1  0
 14 15  1  0
 15 16  2  0
 16 17  1  0
 17 18  2  0
 18 19  1  0
 19 20  2  0
 14 21  2  0
 21 22  1  0
 22 23  1  0
 23 24  1  0
 23 25  1  0
 23 26  1  0
 22 27  2  0
 27 28  1  0
 28 29  1  0
  5 30  2  0
 30 31  1  0
 31 32  1  0
 32 33  1  0
 31 34  2  0
 34 35  1  0
 35 36  1  0
 34  3  1  0
 28 10  2  0
 27 12  1  0
 20 15  1  0
  1 37  1  0
  1 38  1  0
  1 39  1  0
  4 40  1  0
  6 41  1  0
  6 42  1  0
  7 43  1  0
 16 44  1  0
 17 45  1  0
 18 46  1  0
 19 47  1  0
 20 48  1  0
 21 49  1  0
 29 50  1  0
 29 51  1  0
 30 52  1  0
 33 53  1  0
 33 54  1  0
 33 55  1  0
 36 56  1  0
 36 57  1  0
 36 58  1  0
M  END
>  <Binding energies>  (1) 
[-8.04]

>  <Ligand effiencies>  (1) 
[-0.20615384615384613]

>  <Interactions>  (1) 
["V-B:ASP:366:CG:8184, V-B:ASP:366:CB:8183, V-A:TYR:539:CE1:4873, V-B:PRO:540:CA:9855, V-B:LEU:363:CA:8156, V-B:PRO:540:CB:9857, V-B:LEU:363:CD1:8160, V-B:MET:535:CE:9807, V-B:ILE:538:CG2:9835, V-B:ILE:538:CB:9834, V-B:ILE:538:CA:9832, V-B:PRO:540:CD:9859, V-B:PRO:540:N:9856, V-B:GLU:543:CD:9880, V-B:TYR:539:C:9839, V-B:TYR:539:CE1:9847, V-A:TYR:539:CD1:4871, V-A:ALA:541:CB:4890, V-B:ILE:369:CG2:8208, V-B:TYR:539:CG:9844, H-B:TYR:539:N:9842, V-B:TYR:539:CZ:9849, V-B:TYR:531:CE2:9765, V-B:PRO:482:CB:9297, V-B:SER:385:CA:8378, V-B:PRO:482:CG:9298, V-B:LEU:475:CD2:9230, V-B:LEU:373:CD1:8251, V-B:TYR:531:CZ:9766, V-B:TYR:539:CE2:9848, V-A:GLU:543:CD:4906, H-A:GLU:543:OE2:4908, V-A:GLU:543:CB:4904, V-B:TYR:484:CZ:9318, V-B:TYR:484:CE2:9317, V-A:GLU:543:CG:4905, V-B:TYR:539:CD2:9846, H-B:GLU:543:OE1:9881, H-B:GLU:543:OE2:9882, V-B:LEU:363:CB:8158, V-B:LEU:363:C:8154"]

$$$$
4ci_Grossjean_2025
     RDKit          3D

 39 42  0  0  0  0  0  0  0  0999 V2000
  132.5500  125.7960   62.0020 N   0  0  0  0  0  0  0  0  0  0  0  0
  132.0190  124.6160   62.4530 C   0  0  0  0  0  0  0  0  0  0  0  0
  131.2150  124.5220   63.6010 C   0  0  0  0  0  0  0  0  0  0  0  0
  130.7840  125.5920   64.5030 C   0  0  0  0  0  0  0  0  0  0  0  0
  130.1650  126.5680   64.0710 O   0  0  0  0  0  0  0  0  0  0  0  0
  131.1230  125.4300   65.8070 N   0  0  0  0  0  0  0  0  0  0  0  0
  130.8470  126.2850   66.8660 C   0  0  0  0  0  0  0  0  0  0  0  0
  129.6160  126.3160   67.5200 C   0  0  0  0  0  0  0  0  0  0  0  0
  129.7490  127.2820   68.4890 C   0  0  0  0  0  0  0  0  0  0  0  0
  130.9970  127.8060   68.4240 O   0  0  0  0  0  0  0  0  0  0  0  0
  131.6820  127.1660   67.3900 N   0  0  0  0  0  0  0  0  0  0  0  0
  130.6980  122.8610   63.8820 S   0  0  0  0  0  0  0  0  0  0  0  0
  131.5660  122.3040   62.4700 C   0  0  0  0  0  0  0  0  0  0  0  0
  131.5640  121.0220   62.1130 N   0  0  0  0  0  0  0  0  0  0  0  0
  132.2640  120.6840   61.0000 C   0  0  0  0  0  0  0  0  0  0  0  0
  132.2460  119.2300   60.6260 C   0  0  0  0  0  0  0  0  0  0  0  0
  131.0440  118.5040   60.6120 C   0  0  0  0  0  0  0  0  0  0  0  0
  131.0210  117.1550   60.2650 C   0  0  0  0  0  0  0  0  0  0  0  0
  132.2060  116.5100   59.9270 C   0  0  0  0  0  0  0  0  0  0  0  0
  133.4110  117.2030   59.9360 C   0  0  0  0  0  0  0  0  0  0  0  0
  133.4290  118.5510   60.2850 C   0  0  0  0  0  0  0  0  0  0  0  0
  132.9770  121.6340   60.2610 C   0  0  0  0  0  0  0  0  0  0  0  0
  132.9860  122.9890   60.6280 C   0  0  0  0  0  0  0  0  0  0  0  0
  133.7890  123.9760   59.7720 C   0  0  0  0  0  0  0  0  0  0  0  0
  134.2030  123.4510   58.6170 F   0  0  0  0  0  0  0  0  0  0  0  0
  133.0340  125.0350   59.4800 F   0  0  0  0  0  0  0  0  0  0  0  0
  134.8700  124.3770   60.4400 F   0  0  0  0  0  0  0  0  0  0  0  0
  132.2440  123.3550   61.7870 C   0  0  0  0  0  0  0  0  0  0  0  0
  133.4920  125.8570   61.6420 H   0  0  0  0  0  0  0  0  0  0  0  0
  132.0100  126.6510   62.0090 H   0  0  0  0  0  0  0  0  0  0  0  0
  131.6390  124.5960   66.0470 H   0  0  0  0  0  0  0  0  0  0  0  0
  128.7297  125.7004   67.3066 H   0  0  0  0  0  0  0  0  0  0  0  0
  128.9675  127.5816   69.2028 H   0  0  0  0  0  0  0  0  0  0  0  0
  130.1043  119.0093   60.8797 H   0  0  0  0  0  0  0  0  0  0  0  0
  130.0699  116.6024   60.2584 H   0  0  0  0  0  0  0  0  0  0  0  0
  132.1896  115.4453   59.6510 H   0  0  0  0  0  0  0  0  0  0  0  0
  134.3460  116.6889   59.6687 H   0  0  0  0  0  0  0  0  0  0  0  0
  134.3855  119.0941   60.2941 H   0  0  0  0  0  0  0  0  0  0  0  0
  133.5424  121.3126   59.3739 H   0  0  0  0  0  0  0  0  0  0  0  0
  1  2  1  0
  2  3  2  0
  3  4  1  0
  4  5  2  0
  4  6  1  0
  6  7  1  0
  7  8  1  0
  8  9  2  0
  9 10  1  0
 10 11  1  0
  3 12  1  0
 12 13  1  0
 13 14  2  0
 14 15  1  0
 15 16  1  0
 16 17  2  0
 17 18  1  0
 18 19  2  0
 19 20  1  0
 20 21  2  0
 15 22  2  0
 22 23  1  0
 23 24  1  0
 24 25  1  0
 24 26  1  0
 24 27  1  0
 23 28  2  0
 28  2  1  0
 11  7  2  0
 28 13  1  0
 21 16  1  0
  1 29  1  0
  1 30  1  0
  6 31  1  0
  8 32  1  0
  9 33  1  0
 17 34  1  0
 18 35  1  0
 19 36  1  0
 20 37  1  0
 21 38  1  0
 22 39  1  0
M  END
>  <Binding energies>  (1) 
[-7.24]

>  <Ligand effiencies>  (1) 
[-0.2335483870967742]

>  <Interactions>  (1) 
["V-A:ASP:366:CG:3210, V-A:ASP:366:CB:3209, V-B:ALA:541:CB:9864, V-A:ASP:366:CA:3207, V-A:LEU:475:CD2:4256, V-B:GLU:543:CD:9880, V-B:TYR:539:CE1:9847, V-B:TYR:539:CD1:9845, V-B:TYR:539:CG:9844, V-A:ILE:369:CB:3233, V-B:TYR:539:CZ:9849, V-A:ILE:369:CD1:3236, V-A:ILE:369:CG1:3235, V-A:ILE:369:CG2:3234, H-A:ASP:366:OD2:3212, H-A:TYR:484:OH:4345, H-A:ASP:366:OD1:3211, V-A:HIS:456:CE1:4066, V-A:ARG:545:CZ:4924, V-A:GLU:543:CD:4906, V-A:PRO:482:CG:4324, V-A:SER:385:CB:3406, V-A:PRO:482:CB:4323, V-A:SER:385:CA:3404, V-B:TYR:539:CB:9843, V-A:LEU:373:CD2:3278, V-B:GLU:543:CB:9878, V-B:GLU:543:CG:9879, V-A:LEU:373:CD1:3277, H-A:ARG:545:NE:4922, V-A:VAL:384:C:3394"]

$$$$
4cj_Grossjean_2025
     RDKit          3D

 39 42  0  0  0  0  0  0  0  0999 V2000
  127.8120  128.1270   63.6540 N   0  0  0  0  0  0  0  0  0  0  0  0
  128.2530  129.1260   62.8230 C   0  0  0  0  0  0  0  0  0  0  0  0
  129.3560  128.9820   61.9650 C   0  0  0  0  0  0  0  0  0  0  0  0
  130.2160  127.8130   61.7720 C   0  0  0  0  0  0  0  0  0  0  0  0
  130.5950  127.4880   60.6450 O   0  0  0  0  0  0  0  0  0  0  0  0
  130.5410  127.1360   62.9020 N   0  0  0  0  0  0  0  0  0  0  0  0
  131.3370  126.0020   62.9940 C   0  0  0  0  0  0  0  0  0  0  0  0
  131.8590  125.3000   62.0110 N   0  0  0  0  0  0  0  0  0  0  0  0
  132.5660  124.2840   62.4640 C   0  0  0  0  0  0  0  0  0  0  0  0
  132.6290  124.1460   63.8480 C   0  0  0  0  0  0  0  0  0  0  0  0
  131.7090  125.4220   64.5860 S   0  0  0  0  0  0  0  0  0  0  0  0
  129.6340  130.4530   61.0350 S   0  0  0  0  0  0  0  0  0  0  0  0
  128.2790  131.2470   61.8010 C   0  0  0  0  0  0  0  0  0  0  0  0
  127.9390  132.4950   61.4890 N   0  0  0  0  0  0  0  0  0  0  0  0
  126.8670  133.0270   62.1300 C   0  0  0  0  0  0  0  0  0  0  0  0
  126.5020  134.4320   61.7450 C   0  0  0  0  0  0  0  0  0  0  0  0
  127.4680  135.4510   61.7510 C   0  0  0  0  0  0  0  0  0  0  0  0
  127.1350  136.7580   61.4010 C   0  0  0  0  0  0  0  0  0  0  0  0
  125.8270  137.0640   61.0410 C   0  0  0  0  0  0  0  0  0  0  0  0
  124.8510  136.0740   61.0300 C   0  0  0  0  0  0  0  0  0  0  0  0
  125.1880  134.7690   61.3790 C   0  0  0  0  0  0  0  0  0  0  0  0
  126.1560  132.3110   63.0990 C   0  0  0  0  0  0  0  0  0  0  0  0
  126.5070  130.9940   63.4380 C   0  0  0  0  0  0  0  0  0  0  0  0
  125.6830  130.2660   64.5060 C   0  0  0  0  0  0  0  0  0  0  0  0
  126.4320  129.7420   65.4780 F   0  0  0  0  0  0  0  0  0  0  0  0
  124.8300  131.1180   65.0740 F   0  0  0  0  0  0  0  0  0  0  0  0
  124.9990  129.2680   63.9460 F   0  0  0  0  0  0  0  0  0  0  0  0
  127.6190  130.4200   62.7570 C   0  0  0  0  0  0  0  0  0  0  0  0
  127.0930  128.2850   64.3460 H   0  0  0  0  0  0  0  0  0  0  0  0
  128.1920  127.1920   63.5980 H   0  0  0  0  0  0  0  0  0  0  0  0
  130.1620  127.4780   63.7730 H   0  0  0  0  0  0  0  0  0  0  0  0
  133.0775  123.5844   61.7866 H   0  0  0  0  0  0  0  0  0  0  0  0
  133.1733  123.3567   64.3872 H   0  0  0  0  0  0  0  0  0  0  0  0
  128.5035  135.2139   62.0364 H   0  0  0  0  0  0  0  0  0  0  0  0
  127.9038  137.5447   61.4094 H   0  0  0  0  0  0  0  0  0  0  0  0
  125.5632  138.0952   60.7634 H   0  0  0  0  0  0  0  0  0  0  0  0
  123.8171  136.3207   60.7468 H   0  0  0  0  0  0  0  0  0  0  0  0
  124.4126  133.9888   61.3680 H   0  0  0  0  0  0  0  0  0  0  0  0
  125.3048  132.7892   63.6057 H   0  0  0  0  0  0  0  0  0  0  0  0
  1  2  1  0
  2  3  2  0
  3  4  1  0
  4  5  2  0
  4  6  1  0
  6  7  1  0
  7  8  2  0
  8  9  1  0
  9 10  2  0
 10 11  1  0
  3 12  1  0
 12 13  1  0
 13 14  2  0
 14 15  1  0
 15 16  1  0
 16 17  2  0
 17 18  1  0
 18 19  2  0
 19 20  1  0
 20 21  2  0
 15 22  2  0
 22 23  1  0
 23 24  1  0
 24 25  1  0
 24 26  1  0
 24 27  1  0
 23 28  2  0
 28  2  1  0
 11  7  1  0
 28 13  1  0
 21 16  1  0
  1 29  1  0
  1 30  1  0
  6 31  1  0
  9 32  1  0
 10 33  1  0
 17 34  1  0
 18 35  1  0
 19 36  1  0
 20 37  1  0
 21 38  1  0
 22 39  1  0
M  END
>  <Binding energies>  (1) 
[-7.04]

>  <Ligand effiencies>  (1) 
[-0.2270967741935484]

>  <Interactions>  (1) 
["V-A:TYR:539:CE1:4873, V-B:GLU:543:CD:9880, V-A:TYR:539:CD1:4871, V-A:ALA:541:CB:4890, V-B:ILE:369:CG2:8208, V-B:ARG:545:CZ:9898, V-B:PRO:482:CB:9297, V-B:SER:385:CA:8378, V-B:PRO:482:CG:9298, V-B:LEU:475:CD2:9230, V-B:LEU:373:CD1:8251, V-B:GLY:453:C:9013, V-B:GLY:454:CA:9020, V-A:GLY:454:CA:4046, H-A:ARG:545:NH2:4926, V-A:ARG:545:CZ:4924, V-A:GLU:543:CD:4906, H-A:GLU:543:OE2:4908, H-A:GLU:543:OE1:4907, V-B:TYR:484:CZ:9318, H-B:GLU:543:OE1:9881, H-B:GLU:543:OE2:9882, V-A:TYR:539:CB:4869"]

$$$$
4ck_Grossjean_2025
     RDKit          3D

 57 59  0  0  0  0  0  0  0  0999 V2000
  124.8970  129.9720   58.0840 C   0  0  0  0  0  0  0  0  0  0  0  0
  124.1660  131.0190   58.7020 O   0  0  0  0  0  0  0  0  0  0  0  0
  124.1670  130.9470   60.1210 C   0  0  0  0  0  0  0  0  0  0  0  0
  124.3320  132.3610   60.6930 C   0  0  0  0  0  0  0  0  0  0  0  0
  124.6380  132.2670   62.0780 O   0  0  0  0  0  0  0  0  0  0  0  0
  123.6070  131.6640   62.8480 C   0  0  0  0  0  0  0  0  0  0  0  0
  124.0310  130.2400   63.2270 C   0  0  0  0  0  0  0  0  0  0  0  0
  124.7960  130.2940   64.4240 O   0  0  0  0  0  0  0  0  0  0  0  0
  125.8820  129.3760   64.4540 C   0  0  0  0  0  0  0  0  0  0  0  0
  126.4580  129.2120   63.0390 C   0  0  0  0  0  0  0  0  0  0  0  0
  127.2960  128.0180   62.9220 N   0  0  0  0  0  0  0  0  0  0  0  0
  127.6210  127.3910   61.7720 C   0  0  0  0  0  0  0  0  0  0  0  0
  127.2520  127.7940   60.6670 O   0  0  0  0  0  0  0  0  0  0  0  0
  128.4560  126.1970   61.9090 C   0  0  0  0  0  0  0  0  0  0  0  0
  128.1360  124.7770   60.9170 S   0  0  0  0  0  0  0  0  0  0  0  0
  129.5010  123.9330   61.6100 C   0  0  0  0  0  0  0  0  0  0  0  0
  129.8170  122.6960   61.2350 N   0  0  0  0  0  0  0  0  0  0  0  0
  130.8940  122.1210   61.8300 C   0  0  0  0  0  0  0  0  0  0  0  0
  131.2340  120.7320   61.3720 C   0  0  0  0  0  0  0  0  0  0  0  0
  130.2810  119.7030   61.4260 C   0  0  0  0  0  0  0  0  0  0  0  0
  130.5920  118.4120   61.0050 C   0  0  0  0  0  0  0  0  0  0  0  0
  131.8640  118.1320   60.5200 C   0  0  0  0  0  0  0  0  0  0  0  0
  132.8260  119.1340   60.4500 C   0  0  0  0  0  0  0  0  0  0  0  0
  132.5110  120.4230   60.8720 C   0  0  0  0  0  0  0  0  0  0  0  0
  131.6540  122.7940   62.7930 C   0  0  0  0  0  0  0  0  0  0  0  0
  131.3290  124.0980   63.1970 C   0  0  0  0  0  0  0  0  0  0  0  0
  132.2020  124.7760   64.2600 C   0  0  0  0  0  0  0  0  0  0  0  0
  133.1940  123.9980   64.6960 F   0  0  0  0  0  0  0  0  0  0  0  0
  132.7520  125.8800   63.7550 F   0  0  0  0  0  0  0  0  0  0  0  0
  131.4550  125.1000   65.3160 F   0  0  0  0  0  0  0  0  0  0  0  0
  130.1990  124.7100   62.5810 C   0  0  0  0  0  0  0  0  0  0  0  0
  129.5820  126.0070   62.7250 C   0  0  0  0  0  0  0  0  0  0  0  0
  130.0530  126.9630   63.5870 N   0  0  0  0  0  0  0  0  0  0  0  0
  125.3446  129.3310   58.8578 H   0  0  0  0  0  0  0  0  0  0  0  0
  124.2202  129.3724   57.4575 H   0  0  0  0  0  0  0  0  0  0  0  0
  125.6930  130.4008   57.4575 H   0  0  0  0  0  0  0  0  0  0  0  0
  123.2162  130.5170   60.4691 H   0  0  0  0  0  0  0  0  0  0  0  0
  124.9971  130.3098   60.4601 H   0  0  0  0  0  0  0  0  0  0  0  0
  125.1495  132.8778   60.1689 H   0  0  0  0  0  0  0  0  0  0  0  0
  123.3997  132.9285   60.5560 H   0  0  0  0  0  0  0  0  0  0  0  0
  123.4369  132.2530   63.7613 H   0  0  0  0  0  0  0  0  0  0  0  0
  122.6776  131.6299   62.2606 H   0  0  0  0  0  0  0  0  0  0  0  0
  123.1377  129.6182   63.3867 H   0  0  0  0  0  0  0  0  0  0  0  0
  124.6330  129.8010   62.4177 H   0  0  0  0  0  0  0  0  0  0  0  0
  126.6650  129.7572   65.1260 H   0  0  0  0  0  0  0  0  0  0  0  0
  125.5261  128.4011   64.8186 H   0  0  0  0  0  0  0  0  0  0  0  0
  125.6258  129.1330   62.3240 H   0  0  0  0  0  0  0  0  0  0  0  0
  127.0858  130.0894   62.8245 H   0  0  0  0  0  0  0  0  0  0  0  0
  127.7090  127.6820   63.7790 H   0  0  0  0  0  0  0  0  0  0  0  0
  129.2720  119.9195   61.8070 H   0  0  0  0  0  0  0  0  0  0  0  0
  129.8335  117.6170   61.0563 H   0  0  0  0  0  0  0  0  0  0  0  0
  132.1112  117.1123   60.1897 H   0  0  0  0  0  0  0  0  0  0  0  0
  133.8309  118.9093   60.0631 H   0  0  0  0  0  0  0  0  0  0  0  0
  133.2743  121.2129   60.8131 H   0  0  0  0  0  0  0  0  0  0  0  0
  132.5231  122.2911   63.2421 H   0  0  0  0  0  0  0  0  0  0  0  0
  130.3360  126.7410   64.5310 H   0  0  0  0  0  0  0  0  0  0  0  0
  130.1410  127.9300   63.3020 H   0  0  0  0  0  0  0  0  0  0  0  0
  1  2  1  0
  2  3  1  0
  3  4  1  0
  4  5  1  0
  5  6  1  0
  6  7  1  0
  7  8  1  0
  8  9  1  0
  9 10  1  0
 10 11  1  0
 11 12  1  0
 12 13  2  0
 12 14  1  0
 14 15  1  0
 15 16  1  0
 16 17  2  0
 17 18  1  0
 18 19  1  0
 19 20  2  0
 20 21  1  0
 21 22  2  0
 22 23  1  0
 23 24  2  0
 18 25  2  0
 25 26  1  0
 26 27  1  0
 27 28  1  0
 27 29  1  0
 27 30  1  0
 26 31  2  0
 31 32  1  0
 32 33  1  0
 32 14  2  0
 31 16  1  0
 24 19  1  0
  1 34  1  0
  1 35  1  0
  1 36  1  0
  3 37  1  0
  3 38  1  0
  4 39  1  0
  4 40  1  0
  6 41  1  0
  6 42  1  0
  7 43  1  0
  7 44  1  0
  9 45  1  0
  9 46  1  0
 10 47  1  0
 10 48  1  0
 11 49  1  0
 20 50  1  0
 21 51  1  0
 22 52  1  0
 23 53  1  0
 24 54  1  0
 25 55  1  0
 33 56  1  0
 33 57  1  0
M  END
>  <Binding energies>  (1) 
[-7.12]

>  <Ligand effiencies>  (1) 
[-0.19777777777777777]

>  <Interactions>  (1) 
["V-B:ASP:366:CG:8184, H-A:TYR:539:OH:4876, V-B:ASP:366:CB:8183, V-A:TYR:539:CE1:4873, V-B:ALA:541:CB:9864, V-A:LEU:475:CD2:4256, V-B:GLU:543:CD:9880, V-B:TYR:539:CE1:9847, V-B:TYR:539:CD1:9845, V-B:ILE:369:CD1:8210, V-B:ILE:369:CG2:8208, V-A:ILE:369:CG2:3234, V-B:ARG:545:CZ:9898, V-B:GLY:453:CA:9015, V-B:GLY:453:C:9013, V-B:GLY:454:CA:9020, V-A:GLY:454:CA:4046, H-B:TYR:484:OH:9319, V-A:TYR:484:CZ:4344, H-B:GLY:454:N:9021, V-A:ARG:545:CZ:4924, V-A:GLU:543:CD:4906, H-A:GLU:543:OE2:4908, H-A:GLU:543:OE1:4907, V-B:ASP:366:CA:8181, V-A:PRO:482:CG:4324, V-A:PRO:482:CB:4323, V-A:SER:385:CA:3404, V-A:LEU:373:CD1:3277, V-A:GLY:453:C:4039, H-B:GLU:543:OE1:9881, H-B:GLU:543:OE2:9882"]

$$$$
4dd_Grossjean_2025
     RDKit          3D

 43 46  0  0  0  0  0  0  0  0999 V2000
  130.5810  125.4810   64.4620 C   0  0  0  0  0  0  0  0  0  0  0  0
  130.8840  125.0420   63.0370 C   0  0  0  0  0  0  0  0  0  0  0  0
  131.1610  123.6890   62.8080 C   0  0  0  0  0  0  0  0  0  0  0  0
  131.4480  123.2220   61.5190 C   0  0  0  0  0  0  0  0  0  0  0  0
  131.7540  121.7790   61.2450 C   0  0  0  0  0  0  0  0  0  0  0  0
  130.7410  120.8070   61.2920 C   0  0  0  0  0  0  0  0  0  0  0  0
  131.0180  119.4670   61.0350 C   0  0  0  0  0  0  0  0  0  0  0  0
  132.3170  119.0770   60.7290 C   0  0  0  0  0  0  0  0  0  0  0  0
  133.3390  120.0180   60.6750 C   0  0  0  0  0  0  0  0  0  0  0  0
  133.0580  121.3580   60.9300 C   0  0  0  0  0  0  0  0  0  0  0  0
  131.4810  124.0550   60.4430 N   0  0  0  0  0  0  0  0  0  0  0  0
  131.2110  125.3410   60.6590 C   0  0  0  0  0  0  0  0  0  0  0  0
  131.2020  126.5180   59.3650 S   0  0  0  0  0  0  0  0  0  0  0  0
  130.7800  127.8160   60.4840 C   0  0  0  0  0  0  0  0  0  0  0  0
  130.5880  129.1830   59.9950 C   0  0  0  0  0  0  0  0  0  0  0  0
  129.8740  129.9750   60.6110 O   0  0  0  0  0  0  0  0  0  0  0  0
  131.2490  129.4890   58.8520 N   0  0  0  0  0  0  0  0  0  0  0  0
  131.2370  130.6770   58.1000 C   0  0  0  0  0  0  0  0  0  0  0  0
  132.4850  131.1530   57.6870 C   0  0  0  0  0  0  0  0  0  0  0  0
  132.5780  132.3150   56.9260 C   0  0  0  0  0  0  0  0  0  0  0  0
  131.4190  133.0000   56.5690 C   0  0  0  0  0  0  0  0  0  0  0  0
  130.1690  132.5310   56.9630 C   0  0  0  0  0  0  0  0  0  0  0  0
  130.0730  131.3690   57.7240 C   0  0  0  0  0  0  0  0  0  0  0  0
  130.6640  127.3330   61.7960 C   0  0  0  0  0  0  0  0  0  0  0  0
  130.3490  128.1220   62.8750 N   0  0  0  0  0  0  0  0  0  0  0  0
  130.9030  125.9200   61.9230 C   0  0  0  0  0  0  0  0  0  0  0  0
  131.0597  124.7874   65.1690 H   0  0  0  0  0  0  0  0  0  0  0  0
  130.9713  126.4967   64.6236 H   0  0  0  0  0  0  0  0  0  0  0  0
  129.4929  125.4763   64.6236 H   0  0  0  0  0  0  0  0  0  0  0  0
  131.1532  122.9832   63.6516 H   0  0  0  0  0  0  0  0  0  0  0  0
  129.7119  121.1095   61.5359 H   0  0  0  0  0  0  0  0  0  0  0  0
  130.2120  118.7195   61.0739 H   0  0  0  0  0  0  0  0  0  0  0  0
  132.5373  118.0181   60.5285 H   0  0  0  0  0  0  0  0  0  0  0  0
  134.3653  119.7055   60.4319 H   0  0  0  0  0  0  0  0  0  0  0  0
  133.8695  122.0992   60.8842 H   0  0  0  0  0  0  0  0  0  0  0  0
  131.8520  128.7690   58.4820 H   0  0  0  0  0  0  0  0  0  0  0  0
  133.3983  130.6064   57.9648 H   0  0  0  0  0  0  0  0  0  0  0  0
  133.5619  132.6903   56.6082 H   0  0  0  0  0  0  0  0  0  0  0  0
  131.4921  133.9199   55.9703 H   0  0  0  0  0  0  0  0  0  0  0  0
  129.2591  133.0772   56.6738 H   0  0  0  0  0  0  0  0  0  0  0  0
  129.0860  130.9926   58.0309 H   0  0  0  0  0  0  0  0  0  0  0  0
  130.1410  129.1060   62.7750 H   0  0  0  0  0  0  0  0  0  0  0  0
  130.3130  127.7410   63.8100 H   0  0  0  0  0  0  0  0  0  0  0  0
  1  2  1  0
  2  3  2  0
  3  4  1  0
  4  5  1  0
  5  6  2  0
  6  7  1  0
  7  8  2  0
  8  9  1  0
  9 10  2  0
  4 11  2  0
 11 12  1  0
 12 13  1  0
 13 14  1  0
 14 15  1  0
 15 16  2  0
 15 17  1  0
 17 18  1  0
 18 19  2  0
 19 20  1  0
 20 21  2  0
 21 22  1  0
 22 23  2  0
 14 24  2  0
 24 25  1  0
 24 26  1  0
 26  2  1  0
 10  5  1  0
 26 12  2  0
 23 18  1  0
  1 27  1  0
  1 28  1  0
  1 29  1  0
  3 30  1  0
  6 31  1  0
  7 32  1  0
  8 33  1  0
  9 34  1  0
 10 35  1  0
 17 36  1  0
 19 37  1  0
 20 38  1  0
 21 39  1  0
 22 40  1  0
 23 41  1  0
 25 42  1  0
 25 43  1  0
M  END
>  <Binding energies>  (1) 
[-7.62]

>  <Ligand effiencies>  (1) 
[-0.26275862068965516]

>  <Interactions>  (1) 
["V-A:ASP:366:CG:3210, V-A:PRO:540:CB:4883, V-A:PRO:540:CA:4881, H-A:TYR:531:OH:4793, V-A:ILE:538:CA:4858, V-A:LEU:363:CD1:3186, V-B:ALA:541:CB:9864, V-A:LEU:475:CD2:4256, V-B:GLU:543:CD:9880, V-B:TYR:539:CE1:9847, V-B:TYR:539:CD1:9845, V-A:PRO:540:N:4882, V-A:TYR:539:C:4865, V-A:ILE:369:CG2:3234, V-A:ILE:538:CB:4860, V-A:PRO:540:CD:4885, V-A:ILE:538:CG2:4861, V-A:ILE:538:C:4856, H-A:ASP:366:OD2:3212, V-A:GLU:543:CD:4906, H-A:GLU:543:OE2:4908, H-A:GLU:543:OE1:4907, V-A:SER:385:CA:3404, V-A:LEU:373:CD1:3277"]

$$$$
4dg_Grossjean_2025
     RDKit          3D

 46 49  0  0  0  0  0  0  0  0999 V2000
  134.6290  124.2770   62.1180 C   0  0  0  0  0  0  0  0  0  0  0  0
  133.1210  124.2130   61.9280 C   0  0  0  0  0  0  0  0  0  0  0  0
  132.3900  125.4000   62.0450 C   0  0  0  0  0  0  0  0  0  0  0  0
  130.9990  125.4080   61.8820 C   0  0  0  0  0  0  0  0  0  0  0  0
  130.1870  126.6670   62.0010 C   0  0  0  0  0  0  0  0  0  0  0  0
  129.0120  126.6970   62.7680 C   0  0  0  0  0  0  0  0  0  0  0  0
  128.2530  127.8600   62.8790 C   0  0  0  0  0  0  0  0  0  0  0  0
  128.6610  129.0150   62.2210 C   0  0  0  0  0  0  0  0  0  0  0  0
  129.8200  129.0130   61.4500 C   0  0  0  0  0  0  0  0  0  0  0  0
  130.5740  127.8480   61.3420 C   0  0  0  0  0  0  0  0  0  0  0  0
  130.3050  124.2760   61.5850 N   0  0  0  0  0  0  0  0  0  0  0  0
  131.0000  123.1450   61.4730 C   0  0  0  0  0  0  0  0  0  0  0  0
  130.2310  121.6190   61.1020 S   0  0  0  0  0  0  0  0  0  0  0  0
  131.7800  120.7780   61.1470 C   0  0  0  0  0  0  0  0  0  0  0  0
  131.8380  119.3320   60.9390 C   0  0  0  0  0  0  0  0  0  0  0  0
  132.8840  118.7010   61.1030 O   0  0  0  0  0  0  0  0  0  0  0  0
  130.6930  118.7500   60.5250 N   0  0  0  0  0  0  0  0  0  0  0  0
  130.5110  117.3210   60.2770 C   0  0  0  0  0  0  0  0  0  0  0  0
  131.7950  116.5120   60.4250 C   0  0  0  0  0  0  0  0  0  0  0  0
  132.0220  115.7770   61.5930 C   0  0  0  0  0  0  0  0  0  0  0  0
  133.1780  115.0130   61.7190 C   0  0  0  0  0  0  0  0  0  0  0  0
  134.0990  114.9770   60.6740 C   0  0  0  0  0  0  0  0  0  0  0  0
  133.8720  115.6940   59.5020 C   0  0  0  0  0  0  0  0  0  0  0  0
  132.7150  116.4570   59.3740 C   0  0  0  0  0  0  0  0  0  0  0  0
  132.8290  121.6580   61.4530 C   0  0  0  0  0  0  0  0  0  0  0  0
  134.1410  121.2720   61.5670 N   0  0  0  0  0  0  0  0  0  0  0  0
  132.4090  123.0220   61.6320 C   0  0  0  0  0  0  0  0  0  0  0  0
  134.8631  124.2869   63.1928 H   0  0  0  0  0  0  0  0  0  0  0  0
  135.0953  123.3978   61.6493 H   0  0  0  0  0  0  0  0  0  0  0  0
  135.0191  125.1925   61.6493 H   0  0  0  0  0  0  0  0  0  0  0  0
  132.9152  126.3404   62.2682 H   0  0  0  0  0  0  0  0  0  0  0  0
  128.6846  125.7862   63.2907 H   0  0  0  0  0  0  0  0  0  0  0  0
  127.3348  127.8645   63.4847 H   0  0  0  0  0  0  0  0  0  0  0  0
  128.0648  129.9351   62.3102 H   0  0  0  0  0  0  0  0  0  0  0  0
  130.1385  129.9277   60.9286 H   0  0  0  0  0  0  0  0  0  0  0  0
  131.4885  127.8509   60.7307 H   0  0  0  0  0  0  0  0  0  0  0  0
  129.8570  119.3160   60.4890 H   0  0  0  0  0  0  0  0  0  0  0  0
  129.7709  116.9344   60.9931 H   0  0  0  0  0  0  0  0  0  0  0  0
  130.1773  117.2124   59.2345 H   0  0  0  0  0  0  0  0  0  0  0  0
  131.2873  115.8029   62.4113 H   0  0  0  0  0  0  0  0  0  0  0  0
  133.3640  114.4400   62.6394 H   0  0  0  0  0  0  0  0  0  0  0  0
  135.0147  114.3761   60.7759 H   0  0  0  0  0  0  0  0  0  0  0  0
  134.6036  115.6575   58.6813 H   0  0  0  0  0  0  0  0  0  0  0  0
  132.5246  117.0165   58.4462 H   0  0  0  0  0  0  0  0  0  0  0  0
  134.4310  120.3160   61.4230 H   0  0  0  0  0  0  0  0  0  0  0  0
  134.8650  121.9390   61.7940 H   0  0  0  0  0  0  0  0  0  0  0  0
  1  2  1  0
  2  3  2  0
  3  4  1  0
  4  5  1  0
  5  6  2  0
  6  7  1  0
  7  8  2  0
  8  9  1  0
  9 10  2  0
  4 11  2  0
 11 12  1  0
 12 13  1  0
 13 14  1  0
 14 15  1  0
 15 16  2  0
 15 17  1  0
 17 18  1  0
 18 19  1  0
 19 20  2  0
 20 21  1  0
 21 22  2  0
 22 23  1  0
 23 24  2  0
 14 25  2  0
 25 26  1  0
 25 27  1  0
 27  2  1  0
 10  5  1  0
 27 12  2  0
 24 19  1  0
  1 28  1  0
  1 29  1  0
  1 30  1  0
  3 31  1  0
  6 32  1  0
  7 33  1  0
  8 34  1  0
  9 35  1  0
 10 36  1  0
 17 37  1  0
 18 38  1  0
 18 39  1  0
 20 40  1  0
 21 41  1  0
 22 42  1  0
 23 43  1  0
 24 44  1  0
 26 45  1  0
 26 46  1  0
M  END
>  <Binding energies>  (1) 
[-8.28]

>  <Ligand effiencies>  (1) 
[-0.27599999999999997]

>  <Interactions>  (1) 
["V-B:ALA:541:CB:9864, V-A:LEU:475:CD2:4256, V-B:GLU:543:CD:9880, V-B:TYR:539:C:9839, V-B:TYR:539:CE1:9847, V-B:TYR:539:CD1:9845, V-B:TYR:539:CG:9844, V-A:ILE:369:CD1:3236, V-A:ILE:369:CG2:3234, V-A:GLY:454:CA:4046, V-A:GLY:453:CA:4041, V-A:ARG:545:CZ:4924, V-A:GLU:543:CD:4906, H-B:TYR:539:O:9840, V-A:PRO:482:CG:4324, V-A:SER:385:CB:3406, V-A:PRO:482:CB:4323, V-A:SER:385:CA:3404, V-B:TYR:539:CB:9843, V-A:HIS:383:CG:3387, V-A:LEU:373:CD2:3278, V-A:HIS:383:CB:3386, V-A:LEU:373:CD1:3277, V-A:GLY:453:C:4039, V-A:VAL:384:C:3394, V-B:VAL:344:CG1:7972, V-A:SER:385:C:3402, V-A:HIS:383:CA:3384, V-A:THR:477:CA:4267, V-A:CYS:476:C:4261, H-A:SER:385:O:3403, V-A:LEU:373:CG:3276, V-A:HIS:383:C:3382, V-A:THR:477:CG2:4270, V-A:THR:477:CB:4269"]

$$$$
4dj_Grossjean_2025
     RDKit          3D

 39 42  0  0  0  0  0  0  0  0999 V2000
  123.4530  131.4830   60.5950 C   0  0  0  0  0  0  0  0  0  0  0  0
  124.4680  132.3640   61.3090 C   0  0  0  0  0  0  0  0  0  0  0  0
  124.5310  133.7170   60.9560 C   0  0  0  0  0  0  0  0  0  0  0  0
  125.4440  134.5800   61.5730 C   0  0  0  0  0  0  0  0  0  0  0  0
  125.5300  136.0380   61.2200 C   0  0  0  0  0  0  0  0  0  0  0  0
  126.7750  136.6750   61.0900 C   0  0  0  0  0  0  0  0  0  0  0  0
  126.8620  138.0260   60.7620 C   0  0  0  0  0  0  0  0  0  0  0  0
  125.6990  138.7630   60.5630 C   0  0  0  0  0  0  0  0  0  0  0  0
  124.4530  138.1590   60.6890 C   0  0  0  0  0  0  0  0  0  0  0  0
  124.3710  136.8080   61.0150 C   0  0  0  0  0  0  0  0  0  0  0  0
  126.2930  134.1510   62.5470 N   0  0  0  0  0  0  0  0  0  0  0  0
  126.2350  132.8630   62.8830 C   0  0  0  0  0  0  0  0  0  0  0  0
  127.2730  132.1770   64.1130 S   0  0  0  0  0  0  0  0  0  0  0  0
  126.5530  130.5800   63.8970 C   0  0  0  0  0  0  0  0  0  0  0  0
  127.0210  129.4440   64.6910 C   0  0  0  0  0  0  0  0  0  0  0  0
  127.5520  128.4710   64.1480 O   0  0  0  0  0  0  0  0  0  0  0  0
  126.8200  129.5440   66.0280 N   0  0  0  0  0  0  0  0  0  0  0  0
  127.1660  128.6120   66.9960 C   0  0  0  0  0  0  0  0  0  0  0  0
  126.3790  127.7520   67.6070 N   0  0  0  0  0  0  0  0  0  0  0  0
  127.0460  127.0150   68.4730 C   0  0  0  0  0  0  0  0  0  0  0  0
  128.4100  127.2700   68.5770 C   0  0  0  0  0  0  0  0  0  0  0  0
  128.8310  128.5490   67.4770 S   0  0  0  0  0  0  0  0  0  0  0  0
  125.5580  130.6050   62.9080 C   0  0  0  0  0  0  0  0  0  0  0  0
  124.8320  129.5030   62.5280 N   0  0  0  0  0  0  0  0  0  0  0  0
  125.3550  131.8990   62.3150 C   0  0  0  0  0  0  0  0  0  0  0  0
  122.8410  130.9518   61.3389 H   0  0  0  0  0  0  0  0  0  0  0  0
  122.8034  132.1085   59.9650 H   0  0  0  0  0  0  0  0  0  0  0  0
  123.9809  130.7519   59.9650 H   0  0  0  0  0  0  0  0  0  0  0  0
  123.8533  134.1076   60.1826 H   0  0  0  0  0  0  0  0  0  0  0  0
  127.6972  136.0971   61.2499 H   0  0  0  0  0  0  0  0  0  0  0  0
  127.8457  138.5078   60.6608 H   0  0  0  0  0  0  0  0  0  0  0  0
  125.7656  139.8301   60.3044 H   0  0  0  0  0  0  0  0  0  0  0  0
  123.5361  138.7460   60.5318 H   0  0  0  0  0  0  0  0  0  0  0  0
  123.3830  136.3347   61.1139 H   0  0  0  0  0  0  0  0  0  0  0  0
  126.3680  130.3810   66.3670 H   0  0  0  0  0  0  0  0  0  0  0  0
  126.5519  126.2417   69.0795 H   0  0  0  0  0  0  0  0  0  0  0  0
  129.1087  126.7471   69.2466 H   0  0  0  0  0  0  0  0  0  0  0  0
  125.2150  128.5710   62.5710 H   0  0  0  0  0  0  0  0  0  0  0  0
  123.8830  129.5920   62.1910 H   0  0  0  0  0  0  0  0  0  0  0  0
  1  2  1  0
  2  3  2  0
  3  4  1  0
  4  5  1  0
  5  6  2  0
  6  7  1  0
  7  8  2  0
  8  9  1  0
  9 10  2  0
  4 11  2  0
 11 12  1  0
 12 13  1  0
 13 14  1  0
 14 15  1  0
 15 16  2  0
 15 17  1  0
 17 18  1  0
 18 19  2  0
 19 20  1  0
 20 21  2  0
 21 22  1  0
 14 23  2  0
 23 24  1  0
 23 25  1  0
 25  2  1  0
 10  5  1  0
 25 12  2  0
 22 18  1  0
  1 26  1  0
  1 27  1  0
  1 28  1  0
  3 29  1  0
  6 30  1  0
  7 31  1  0
  8 32  1  0
  9 33  1  0
 10 34  1  0
 17 35  1  0
 20 36  1  0
 21 37  1  0
 24 38  1  0
 24 39  1  0
M  END
>  <Binding energies>  (1) 
[-7.48]

>  <Ligand effiencies>  (1) 
[-0.2671428571428572]

>  <Interactions>  (1) 
["V-B:ASP:366:CG:8184, V-A:TYR:539:CE1:4873, V-B:GLU:543:CD:9880, V-A:TYR:539:CD1:4871, V-B:ILE:369:CD1:8210, V-A:ALA:541:CB:4890, V-A:TYR:539:CG:4870, V-B:ILE:369:CG2:8208, V-B:ARG:545:CZ:9898, V-B:PRO:482:CB:9297, V-B:SER:385:CA:8378, V-B:PRO:482:CG:9298, V-B:LEU:475:CD2:9230, V-B:SER:385:CB:8380, V-B:LEU:373:CD1:8251, V-B:ILE:369:CG1:8209, H-B:TYR:484:OH:9319, H-B:ASP:366:OD1:8185, H-B:ASP:366:OD2:8186, V-B:ILE:369:CB:8207, V-A:GLU:543:CD:4906, V-B:HIS:456:CE1:9040, H-B:ARG:545:NH2:9900, H-B:ARG:545:NE:9896, V-A:GLU:543:CB:4904, V-B:ARG:545:CG:9894, V-A:GLU:543:CG:4905, V-B:GLU:543:CB:9878, V-B:GLU:543:CG:9879, V-B:VAL:384:C:8368, V-A:VAL:344:CG1:2998, V-A:TYR:539:CB:4869, V-B:GLU:543:C:9874"]

$$$$
4ea_Grossjean_2025
     RDKit          3D

 52 55  0  0  0  0  0  0  0  0999 V2000
  125.1160  138.5830   61.0410 C   0  0  0  0  0  0  0  0  0  0  0  0
  126.1550  137.4850   60.7930 C   0  0  0  0  0  0  0  0  0  0  0  0
  125.8990  136.3890   61.6610 O   0  0  0  0  0  0  0  0  0  0  0  0
  124.9210  135.4880   61.3850 C   0  0  0  0  0  0  0  0  0  0  0  0
  123.7320  135.7960   61.2500 O   0  0  0  0  0  0  0  0  0  0  0  0
  125.4280  134.0810   61.2600 C   0  0  0  0  0  0  0  0  0  0  0  0
  124.5190  133.0470   61.0020 C   0  0  0  0  0  0  0  0  0  0  0  0
  124.9580  131.7320   60.8800 C   0  0  0  0  0  0  0  0  0  0  0  0
  126.3120  131.4220   61.0130 C   0  0  0  0  0  0  0  0  0  0  0  0
  126.6400  130.0600   60.8710 N   0  0  0  0  0  0  0  0  0  0  0  0
  126.5680  129.2480   59.7880 C   0  0  0  0  0  0  0  0  0  0  0  0
  126.1750  129.6060   58.6770 O   0  0  0  0  0  0  0  0  0  0  0  0
  126.9990  127.8660   60.0140 C   0  0  0  0  0  0  0  0  0  0  0  0
  127.9970  127.4590   61.4130 S   0  0  0  0  0  0  0  0  0  0  0  0
  128.0410  125.7730   60.9520 C   0  0  0  0  0  0  0  0  0  0  0  0
  128.6990  124.8620   61.6730 N   0  0  0  0  0  0  0  0  0  0  0  0
  128.6550  123.5900   61.2070 C   0  0  0  0  0  0  0  0  0  0  0  0
  129.4090  122.5710   62.0410 C   0  0  0  0  0  0  0  0  0  0  0  0
  127.9770  123.2100   60.0510 C   0  0  0  0  0  0  0  0  0  0  0  0
  127.2900  124.1680   59.2980 C   0  0  0  0  0  0  0  0  0  0  0  0
  126.5740  123.7500   58.0720 C   0  0  0  0  0  0  0  0  0  0  0  0
  125.1800  123.6330   58.0760 C   0  0  0  0  0  0  0  0  0  0  0  0
  124.5060  123.2420   56.9230 C   0  0  0  0  0  0  0  0  0  0  0  0
  125.2270  122.9620   55.7640 C   0  0  0  0  0  0  0  0  0  0  0  0
  126.6160  123.0700   55.7500 C   0  0  0  0  0  0  0  0  0  0  0  0
  127.2880  123.4620   56.9050 C   0  0  0  0  0  0  0  0  0  0  0  0
  127.3100  125.5160   59.7530 C   0  0  0  0  0  0  0  0  0  0  0  0
  126.7260  126.7270   59.2390 C   0  0  0  0  0  0  0  0  0  0  0  0
  125.9730  126.7470   58.0930 N   0  0  0  0  0  0  0  0  0  0  0  0
  127.2300  132.4520   61.2720 C   0  0  0  0  0  0  0  0  0  0  0  0
  126.7890  133.7660   61.3930 C   0  0  0  0  0  0  0  0  0  0  0  0
  124.9827  138.7239   62.1238 H   0  0  0  0  0  0  0  0  0  0  0  0
  125.4620  139.5241   60.5887 H   0  0  0  0  0  0  0  0  0  0  0  0
  124.1572  138.2895   60.5887 H   0  0  0  0  0  0  0  0  0  0  0  0
  126.0909  137.1483   59.7478 H   0  0  0  0  0  0  0  0  0  0  0  0
  127.1624  137.8812   60.9882 H   0  0  0  0  0  0  0  0  0  0  0  0
  123.4485  133.2764   60.8949 H   0  0  0  0  0  0  0  0  0  0  0  0
  124.2320  130.9309   60.6772 H   0  0  0  0  0  0  0  0  0  0  0  0
  126.9810  129.6310   61.7180 H   0  0  0  0  0  0  0  0  0  0  0  0
  129.2521  122.7830   63.1089 H   0  0  0  0  0  0  0  0  0  0  0  0
  129.0387  121.5614   61.8093 H   0  0  0  0  0  0  0  0  0  0  0  0
  130.4827  122.6299   61.8093 H   0  0  0  0  0  0  0  0  0  0  0  0
  127.9818  122.1577   59.7306 H   0  0  0  0  0  0  0  0  0  0  0  0
  124.6145  123.8509   58.9940 H   0  0  0  0  0  0  0  0  0  0  0  0
  123.4095  123.1544   56.9266 H   0  0  0  0  0  0  0  0  0  0  0  0
  124.6949  122.6530   54.8522 H   0  0  0  0  0  0  0  0  0  0  0  0
  127.1788  122.8468   54.8316 H   0  0  0  0  0  0  0  0  0  0  0  0
  128.3848  123.5454   56.8991 H   0  0  0  0  0  0  0  0  0  0  0  0
  125.6990  125.8970   57.6200 H   0  0  0  0  0  0  0  0  0  0  0  0
  125.6660  127.6180   57.6800 H   0  0  0  0  0  0  0  0  0  0  0  0
  128.2998  132.2198   61.3795 H   0  0  0  0  0  0  0  0  0  0  0  0
  127.5153  134.5670   61.5952 H   0  0  0  0  0  0  0  0  0  0  0  0
  1  2  1  0
  2  3  1  0
  3  4  1  0
  4  5  2  0
  4  6  1  0
  6  7  2  0
  7  8  1  0
  8  9  2  0
  9 10  1  0
 10 11  1  0
 11 12  2  0
 11 13  1  0
 13 14  1  0
 14 15  1  0
 15 16  2  0
 16 17  1  0
 17 18  1  0
 17 19  2  0
 19 20  1  0
 20 21  1  0
 21 22  2  0
 22 23  1  0
 23 24  2  0
 24 25  1  0
 25 26  2  0
 20 27  2  0
 27 28  1  0
 28 29  1  0
  9 30  1  0
 30 31  2  0
 31  6  1  0
 28 13  2  0
 27 15  1  0
 26 21  1  0
  1 32  1  0
  1 33  1  0
  1 34  1  0
  2 35  1  0
  2 36  1  0
  7 37  1  0
  8 38  1  0
 10 39  1  0
 18 40  1  0
 18 41  1  0
 18 42  1  0
 19 43  1  0
 22 44  1  0
 23 45  1  0
 24 46  1  0
 25 47  1  0
 26 48  1  0
 29 49  1  0
 29 50  1  0
 30 51  1  0
 31 52  1  0
M  END
>  <Binding energies>  (1) 
[-7.27]

>  <Ligand effiencies>  (1) 
[-0.2138235294117647]

>  <Interactions>  (1) 
["V-B:ASP:366:CG:8184, V-B:ASP:366:CB:8183, V-A:TYR:539:CE1:4873, H-B:TYR:531:OH:9767, V-B:PRO:540:CA:9855, V-B:ALA:541:CB:9864, V-B:PRO:540:CB:9857, V-B:LEU:363:CD1:8160, V-B:MET:535:CE:9807, V-B:ILE:538:CG2:9835, V-B:ILE:538:CB:9834, V-B:ILE:538:CA:9832, V-A:TYR:539:CD1:4871, V-A:TYR:539:CG:4870, V-B:ILE:369:CG2:8208, V-B:TYR:531:CE2:9765, V-B:SER:385:CA:8378, V-B:PRO:482:CG:9298, V-B:LEU:475:CD2:9230, V-B:SER:385:CB:8380, V-B:LEU:373:CD1:8251, V-B:TYR:531:CZ:9766, H-B:ASP:366:OD2:8186, V-A:TYR:539:CB:4869"]

$$$$
4eb_Grossjean_2025
     RDKit          3D

 49 52  0  0  0  0  0  0  0  0999 V2000
  132.3710  115.3810   58.4010 C   0  0  0  0  0  0  0  0  0  0  0  0
  133.4010  115.0580   59.3240 O   0  0  0  0  0  0  0  0  0  0  0  0
  133.3890  115.5590   60.5870 C   0  0  0  0  0  0  0  0  0  0  0  0
  133.9600  115.0170   61.5380 O   0  0  0  0  0  0  0  0  0  0  0  0
  132.6110  116.8370   60.7110 C   0  0  0  0  0  0  0  0  0  0  0  0
  133.2700  118.0590   60.5180 C   0  0  0  0  0  0  0  0  0  0  0  0
  132.5770  119.2610   60.6260 C   0  0  0  0  0  0  0  0  0  0  0  0
  131.2140  119.2680   60.9280 C   0  0  0  0  0  0  0  0  0  0  0  0
  130.6180  120.5420   61.0120 N   0  0  0  0  0  0  0  0  0  0  0  0
  131.0830  121.6950   61.5510 C   0  0  0  0  0  0  0  0  0  0  0  0
  132.1840  121.8150   62.0900 O   0  0  0  0  0  0  0  0  0  0  0  0
  130.1740  122.8410   61.4550 C   0  0  0  0  0  0  0  0  0  0  0  0
  130.3490  124.2120   62.5530 S   0  0  0  0  0  0  0  0  0  0  0  0
  128.9960  125.0380   61.8140 C   0  0  0  0  0  0  0  0  0  0  0  0
  128.5870  126.2360   62.2340 N   0  0  0  0  0  0  0  0  0  0  0  0
  127.5270  126.7670   61.5770 C   0  0  0  0  0  0  0  0  0  0  0  0
  127.0790  128.1310   62.0710 C   0  0  0  0  0  0  0  0  0  0  0  0
  126.8730  126.1360   60.5220 C   0  0  0  0  0  0  0  0  0  0  0  0
  127.3060  124.8790   60.0850 C   0  0  0  0  0  0  0  0  0  0  0  0
  126.6000  124.2200   58.9610 C   0  0  0  0  0  0  0  0  0  0  0  0
  125.2490  123.8830   59.0820 C   0  0  0  0  0  0  0  0  0  0  0  0
  124.5840  123.2650   58.0250 C   0  0  0  0  0  0  0  0  0  0  0  0
  125.2740  122.9820   56.8480 C   0  0  0  0  0  0  0  0  0  0  0  0
  126.6210  123.3120   56.7200 C   0  0  0  0  0  0  0  0  0  0  0  0
  127.2840  123.9290   57.7770 C   0  0  0  0  0  0  0  0  0  0  0  0
  128.4150  124.2870   60.7480 C   0  0  0  0  0  0  0  0  0  0  0  0
  129.1070  123.0380   60.5650 C   0  0  0  0  0  0  0  0  0  0  0  0
  128.7420  122.1330   59.6010 N   0  0  0  0  0  0  0  0  0  0  0  0
  130.5470  118.0500   61.1230 C   0  0  0  0  0  0  0  0  0  0  0  0
  131.2410  116.8480   61.0140 C   0  0  0  0  0  0  0  0  0  0  0  0
  131.4620  115.6661   58.9509 H   0  0  0  0  0  0  0  0  0  0  0  0
  132.6954  116.2205   57.7686 H   0  0  0  0  0  0  0  0  0  0  0  0
  132.1579  114.5066   57.7686 H   0  0  0  0  0  0  0  0  0  0  0  0
  134.3437  118.0680   60.2792 H   0  0  0  0  0  0  0  0  0  0  0  0
  133.1071  120.2125   60.4723 H   0  0  0  0  0  0  0  0  0  0  0  0
  129.6970  120.5900   60.6030 H   0  0  0  0  0  0  0  0  0  0  0  0
  127.0761  128.1398   63.1710 H   0  0  0  0  0  0  0  0  0  0  0  0
  127.7715  128.9010   61.7000 H   0  0  0  0  0  0  0  0  0  0  0  0
  126.0649  128.3404   61.7000 H   0  0  0  0  0  0  0  0  0  0  0  0
  126.0175  126.6247   60.0329 H   0  0  0  0  0  0  0  0  0  0  0  0
  124.7093  124.1062   60.0141 H   0  0  0  0  0  0  0  0  0  0  0  0
  123.5201  123.0020   58.1192 H   0  0  0  0  0  0  0  0  0  0  0  0
  124.7504  122.4938   56.0128 H   0  0  0  0  0  0  0  0  0  0  0  0
  127.1587  123.0860   55.7874 H   0  0  0  0  0  0  0  0  0  0  0  0
  128.3486  124.1882   57.6805 H   0  0  0  0  0  0  0  0  0  0  0  0
  128.0950  121.3820   59.7960 H   0  0  0  0  0  0  0  0  0  0  0  0
  129.1080  122.1880   58.6600 H   0  0  0  0  0  0  0  0  0  0  0  0
  129.4734  118.0443   61.3625 H   0  0  0  0  0  0  0  0  0  0  0  0
  130.7098  115.8970   61.1670 H   0  0  0  0  0  0  0  0  0  0  0  0
  1  2  1  0
  2  3  1  0
  3  4  2  0
  3  5  1  0
  5  6  2  0
  6  7  1  0
  7  8  2  0
  8  9  1  0
  9 10  1  0
 10 11  2  0
 10 12  1  0
 12 13  1  0
 13 14  1  0
 14 15  2  0
 15 16  1  0
 16 17  1  0
 16 18  2  0
 18 19  1  0
 19 20  1  0
 20 21  2  0
 21 22  1  0
 22 23  2  0
 23 24  1  0
 24 25  2  0
 19 26  2  0
 26 27  1  0
 27 28  1  0
  8 29  1  0
 29 30  2  0
 30  5  1  0
 27 12  2  0
 26 14  1  0
 25 20  1  0
  1 31  1  0
  1 32  1  0
  1 33  1  0
  6 34  1  0
  7 35  1  0
  9 36  1  0
 17 37  1  0
 17 38  1  0
 17 39  1  0
 18 40  1  0
 21 41  1  0
 22 42  1  0
 23 43  1  0
 24 44  1  0
 25 45  1  0
 28 46  1  0
 28 47  1  0
 29 48  1  0
 30 49  1  0
M  END
>  <Binding energies>  (1) 
[-8.45]

>  <Ligand effiencies>  (1) 
[-0.25606060606060604]

>  <Interactions>  (1) 
["V-B:ASP:366:CG:8184, V-B:PRO:540:CA:9855, V-B:ALA:541:CB:9864, V-B:PRO:540:CB:9857, V-B:LEU:363:CD1:8160, V-B:PRO:540:CG:9858, V-B:ILE:538:CB:9834, V-B:PRO:540:CD:9859, V-B:PRO:540:N:9856, V-A:LEU:475:CD2:4256, V-B:TYR:539:C:9839, V-B:TYR:539:CE1:9847, V-B:TYR:539:CD1:9845, H-B:TYR:539:O:9840, V-A:PRO:482:CG:4324, V-A:SER:385:CB:3406, V-A:PRO:482:CB:4323, V-A:SER:385:CA:3404, V-A:HIS:383:CG:3387, V-A:LEU:373:CD2:3278, V-A:HIS:383:CB:3386, V-A:LEU:373:CD1:3277, V-B:ILE:343:CD1:7965, V-A:HIS:383:CD2:3389, H-A:HIS:383:ND1:3388, V-A:LEU:373:CG:3276, H-A:SER:385:N:3405, H-A:SER:385:OG:3407"]

$$$$
8a_Ghoteimi_2023
     RDKit          3D

 67 71  0  0  0  0  0  0  0  0999 V2000
  125.9710  133.5540   61.6890 C   0  0  0  0  0  0  0  0  0  0  0  0
  124.5860  133.7010   61.0530 C   0  0  0  0  0  0  0  0  0  0  0  0
  123.9670  132.4240   60.9670 O   0  0  0  0  0  0  0  0  0  0  0  0
  124.1340  131.6360   59.8720 C   0  0  0  0  0  0  0  0  0  0  0  0
  123.6630  131.9050   58.7630 O   0  0  0  0  0  0  0  0  0  0  0  0
  124.9440  130.4030   60.1470 C   0  0  0  0  0  0  0  0  0  0  0  0
  125.3650  129.6080   59.0740 C   0  0  0  0  0  0  0  0  0  0  0  0
  126.1160  128.4570   59.2960 C   0  0  0  0  0  0  0  0  0  0  0  0
  126.4630  128.0760   60.5940 C   0  0  0  0  0  0  0  0  0  0  0  0
  127.2200  126.8920   60.6980 N   0  0  0  0  0  0  0  0  0  0  0  0
  127.1610  125.7470   59.9740 C   0  0  0  0  0  0  0  0  0  0  0  0
  126.3750  125.5520   59.0470 O   0  0  0  0  0  0  0  0  0  0  0  0
  128.1240  124.7130   60.3620 C   0  0  0  0  0  0  0  0  0  0  0  0
  128.2710  123.2320   59.4170 S   0  0  0  0  0  0  0  0  0  0  0  0
  129.5100  122.6160   60.4860 C   0  0  0  0  0  0  0  0  0  0  0  0
  130.0620  121.4180   60.3010 N   0  0  0  0  0  0  0  0  0  0  0  0
  131.0130  121.0330   61.1930 C   0  0  0  0  0  0  0  0  0  0  0  0
  131.6040  119.6760   60.9790 C   0  0  0  0  0  0  0  0  0  0  0  0
  132.9420  119.5230   60.5870 C   0  0  0  0  0  0  0  0  0  0  0  0
  133.4830  118.2580   60.3780 C   0  0  0  0  0  0  0  0  0  0  0  0
  132.7050  117.1160   60.5570 C   0  0  0  0  0  0  0  0  0  0  0  0
  133.3250  115.9030   60.3250 O   0  0  0  0  0  0  0  0  0  0  0  0
  132.9590  114.7750   61.1120 C   0  0  0  0  0  0  0  0  0  0  0  0
  131.3680  117.2570   60.9550 C   0  0  0  0  0  0  0  0  0  0  0  0
  130.8280  118.5250   61.1610 C   0  0  0  0  0  0  0  0  0  0  0  0
  131.4120  121.8460   62.2560 C   0  0  0  0  0  0  0  0  0  0  0  0
  130.8470  123.1120   62.4440 C   0  0  0  0  0  0  0  0  0  0  0  0
  131.3310  123.9490   63.5720 C   0  0  0  0  0  0  0  0  0  0  0  0
  130.5100  124.1790   64.6780 C   0  0  0  0  0  0  0  0  0  0  0  0
  130.9670  124.9460   65.7460 C   0  0  0  0  0  0  0  0  0  0  0  0
  132.2520  125.4910   65.7300 C   0  0  0  0  0  0  0  0  0  0  0  0
  132.6190  126.2370   66.8340 O   0  0  0  0  0  0  0  0  0  0  0  0
  131.6930  127.1670   67.3820 C   0  0  0  0  0  0  0  0  0  0  0  0
  133.0810  125.2540   64.6230 C   0  0  0  0  0  0  0  0  0  0  0  0
  132.6210  124.4840   63.5560 C   0  0  0  0  0  0  0  0  0  0  0  0
  129.8330  123.5270   61.5350 C   0  0  0  0  0  0  0  0  0  0  0  0
  129.0120  124.7090   61.4500 C   0  0  0  0  0  0  0  0  0  0  0  0
  129.0880  125.7270   62.3680 N   0  0  0  0  0  0  0  0  0  0  0  0
  126.0500  128.8690   61.6750 C   0  0  0  0  0  0  0  0  0  0  0  0
  125.2980  130.0200   61.4510 C   0  0  0  0  0  0  0  0  0  0  0  0
  125.8743  133.5643   62.7847 H   0  0  0  0  0  0  0  0  0  0  0  0
  126.4221  132.6029   61.3696 H   0  0  0  0  0  0  0  0  0  0  0  0
  126.6117  134.3892   61.3696 H   0  0  0  0  0  0  0  0  0  0  0  0
  123.9672  134.3677   61.6715 H   0  0  0  0  0  0  0  0  0  0  0  0
  124.6887  134.1278   60.0444 H   0  0  0  0  0  0  0  0  0  0  0  0
  125.0998  129.8956   58.0459 H   0  0  0  0  0  0  0  0  0  0  0  0
  126.4386  127.8428   58.4424 H   0  0  0  0  0  0  0  0  0  0  0  0
  127.9210  126.9160   61.4220 H   0  0  0  0  0  0  0  0  0  0  0  0
  133.5713  120.4137   60.4430 H   0  0  0  0  0  0  0  0  0  0  0  0
  134.5340  118.1588   60.0688 H   0  0  0  0  0  0  0  0  0  0  0  0
  133.0417  115.0299   62.1789 H   0  0  0  0  0  0  0  0  0  0  0  0
  131.9219  114.4889   60.8827 H   0  0  0  0  0  0  0  0  0  0  0  0
  133.6305  113.9345   60.8827 H   0  0  0  0  0  0  0  0  0  0  0  0
  130.7435  116.3640   61.1051 H   0  0  0  0  0  0  0  0  0  0  0  0
  129.7771  118.6230   61.4710 H   0  0  0  0  0  0  0  0  0  0  0  0
  132.1811  121.4860   62.9552 H   0  0  0  0  0  0  0  0  0  0  0  0
  129.4967  123.7518   64.7054 H   0  0  0  0  0  0  0  0  0  0  0  0
  130.3099  125.1241   66.6100 H   0  0  0  0  0  0  0  0  0  0  0  0
  131.7362  127.1236   68.4803 H   0  0  0  0  0  0  0  0  0  0  0  0
  131.9497  128.1821   67.0448 H   0  0  0  0  0  0  0  0  0  0  0  0
  130.6768  126.9146   67.0448 H   0  0  0  0  0  0  0  0  0  0  0  0
  134.0962  125.6768   64.5971 H   0  0  0  0  0  0  0  0  0  0  0  0
  133.2791  124.2963   62.6948 H   0  0  0  0  0  0  0  0  0  0  0  0
  128.6290  125.6610   63.2660 H   0  0  0  0  0  0  0  0  0  0  0  0
  129.6070  126.5730   62.1820 H   0  0  0  0  0  0  0  0  0  0  0  0
  126.3205  128.5813   62.7017 H   0  0  0  0  0  0  0  0  0  0  0  0
  124.9780  130.6355   62.3046 H   0  0  0  0  0  0  0  0  0  0  0  0
  1  2  1  0
  2  3  1  0
  3  4  1  0
  4  5  2  0
  4  6  1  0
  6  7  2  0
  7  8  1  0
  8  9  2  0
  9 10  1  0
 10 11  1  0
 11 12  2  0
 11 13  1  0
 13 14  1  0
 14 15  1  0
 15 16  2  0
 16 17  1  0
 17 18  1  0
 18 19  2  0
 19 20  1  0
 20 21  2  0
 21 22  1  0
 22 23  1  0
 21 24  1  0
 24 25  2  0
 17 26  2  0
 26 27  1  0
 27 28  1  0
 28 29  2  0
 29 30  1  0
 30 31  2  0
 31 32  1  0
 32 33  1  0
 31 34  1  0
 34 35  2  0
 27 36  2  0
 36 37  1  0
 37 38  1  0
  9 39  1  0
 39 40  2  0
 40  6  1  0
 37 13  2  0
 36 15  1  0
 25 18  1  0
 35 28  1  0
  1 41  1  0
  1 42  1  0
  1 43  1  0
  2 44  1  0
  2 45  1  0
  7 46  1  0
  8 47  1  0
 10 48  1  0
 19 49  1  0
 20 50  1  0
 23 51  1  0
 23 52  1  0
 23 53  1  0
 24 54  1  0
 25 55  1  0
 26 56  1  0
 29 57  1  0
 30 58  1  0
 33 59  1  0
 33 60  1  0
 33 61  1  0
 34 62  1  0
 35 63  1  0
 38 64  1  0
 38 65  1  0
 39 66  1  0
 40 67  1  0
M  END
>  <Binding energies>  (1) 
[-8.49]

>  <Ligand effiencies>  (1) 
[-0.19744186046511628]

>  <Interactions>  (1) 
["V-B:ASP:366:CG:8184, H-A:TYR:539:OH:4876, V-A:TYR:539:CZ:4875, V-B:ASP:366:CB:8183, V-A:TYR:539:CE1:4873, V-B:PRO:540:CA:9855, V-A:LEU:475:CD2:4256, V-B:GLU:543:CD:9880, V-B:TYR:539:CE1:9847, V-B:TYR:539:CD1:9845, V-A:TYR:539:CD1:4871, V-B:ILE:369:CD1:8210, V-B:ILE:369:CG2:8208, V-A:ILE:369:CG2:3234, V-B:LEU:475:CD2:9230, H-A:TYR:484:OH:4345, V-A:TYR:484:CZ:4344, V-B:ILE:369:CB:8207, V-A:ARG:545:CG:4920, V-A:ARG:545:CD:4921, V-A:HIS:456:CE1:4066, V-A:ARG:545:CZ:4924, V-A:GLU:543:CD:4906, V-A:GLU:543:CG:4905, V-A:PRO:482:CG:4324, V-A:SER:385:CB:3406, V-A:PRO:482:CB:4323, V-A:SER:385:CA:3404, V-A:HIS:383:CG:3387, V-B:GLU:543:CB:9878, V-A:HIS:383:CB:3386, V-A:LEU:373:CD1:3277, H-A:ARG:545:NE:4922, H-B:GLU:543:OE1:9881, H-B:GLU:543:OE2:9882, V-A:THR:477:CA:4267"]

$$$$
8b_Ghoteimi_2023
     RDKit          3D

 54 58  0  0  0  0  0  0  0  0999 V2000
  124.2430  139.3090   60.6320 C   0  0  0  0  0  0  0  0  0  0  0  0
  124.2880  138.4220   61.7450 O   0  0  0  0  0  0  0  0  0  0  0  0
  125.0540  137.2750   61.6620 C   0  0  0  0  0  0  0  0  0  0  0  0
  124.3670  136.0800   61.4600 C   0  0  0  0  0  0  0  0  0  0  0  0
  125.0550  134.8750   61.3640 C   0  0  0  0  0  0  0  0  0  0  0  0
  126.4530  134.8330   61.4690 C   0  0  0  0  0  0  0  0  0  0  0  0
  127.1980  133.5400   61.3680 C   0  0  0  0  0  0  0  0  0  0  0  0
  128.2630  133.3700   60.4780 C   0  0  0  0  0  0  0  0  0  0  0  0
  128.9440  132.1510   60.4040 C   0  0  0  0  0  0  0  0  0  0  0  0
  130.0610  132.0020   59.4430 C   0  0  0  0  0  0  0  0  0  0  0  0
  131.3370  131.6610   59.8950 C   0  0  0  0  0  0  0  0  0  0  0  0
  132.3830  131.5110   58.9900 C   0  0  0  0  0  0  0  0  0  0  0  0
  132.1720  131.7010   57.6230 C   0  0  0  0  0  0  0  0  0  0  0  0
  133.2680  131.5290   56.7990 O   0  0  0  0  0  0  0  0  0  0  0  0
  134.3610  130.7390   57.2530 C   0  0  0  0  0  0  0  0  0  0  0  0
  130.8890  132.0470   57.1720 C   0  0  0  0  0  0  0  0  0  0  0  0
  129.8430  132.1960   58.0780 C   0  0  0  0  0  0  0  0  0  0  0  0
  128.5270  131.1000   61.2630 C   0  0  0  0  0  0  0  0  0  0  0  0
  128.9930  129.7510   61.4530 C   0  0  0  0  0  0  0  0  0  0  0  0
  130.0410  129.2290   60.7380 N   0  0  0  0  0  0  0  0  0  0  0  0
  128.2820  129.0350   62.4290 C   0  0  0  0  0  0  0  0  0  0  0  0
  128.4860  127.6570   62.8780 C   0  0  0  0  0  0  0  0  0  0  0  0
  127.5600  126.8430   62.8530 O   0  0  0  0  0  0  0  0  0  0  0  0
  129.7390  127.3650   63.3100 N   0  0  0  0  0  0  0  0  0  0  0  0
  130.2080  126.1470   63.7830 C   0  0  0  0  0  0  0  0  0  0  0  0
  130.4310  125.0450   62.9590 C   0  0  0  0  0  0  0  0  0  0  0  0
  130.8810  124.0540   63.8000 C   0  0  0  0  0  0  0  0  0  0  0  0
  130.9310  124.5340   65.0650 O   0  0  0  0  0  0  0  0  0  0  0  0
  130.5030  125.8630   65.0420 N   0  0  0  0  0  0  0  0  0  0  0  0
  127.0080  130.0260   63.1420 S   0  0  0  0  0  0  0  0  0  0  0  0
  127.4350  131.3870   62.1320 C   0  0  0  0  0  0  0  0  0  0  0  0
  126.7840  132.5480   62.2010 N   0  0  0  0  0  0  0  0  0  0  0  0
  127.1390  136.0380   61.6690 C   0  0  0  0  0  0  0  0  0  0  0  0
  126.4520  137.2460   61.7660 C   0  0  0  0  0  0  0  0  0  0  0  0
  124.1903  140.3470   60.9923 H   0  0  0  0  0  0  0  0  0  0  0  0
  125.1489  139.1781   60.0220 H   0  0  0  0  0  0  0  0  0  0  0  0
  123.3550  139.0871   60.0220 H   0  0  0  0  0  0  0  0  0  0  0  0
  123.2703  136.0895   61.3756 H   0  0  0  0  0  0  0  0  0  0  0  0
  124.4949  133.9420   61.2035 H   0  0  0  0  0  0  0  0  0  0  0  0
  128.5683  134.2041   59.8292 H   0  0  0  0  0  0  0  0  0  0  0  0
  131.5160  131.5105   60.9699 H   0  0  0  0  0  0  0  0  0  0  0  0
  133.3849  131.2404   59.3546 H   0  0  0  0  0  0  0  0  0  0  0  0
  134.3745  130.7293   58.3529 H   0  0  0  0  0  0  0  0  0  0  0  0
  134.2506  129.7106   56.8785 H   0  0  0  0  0  0  0  0  0  0  0  0
  135.3028  131.1664   56.8785 H   0  0  0  0  0  0  0  0  0  0  0  0
  130.7092  132.2011   56.0978 H   0  0  0  0  0  0  0  0  0  0  0  0
  128.8402  132.4678   57.7168 H   0  0  0  0  0  0  0  0  0  0  0  0
  130.9980  129.3700   61.0290 H   0  0  0  0  0  0  0  0  0  0  0  0
  129.8930  128.6900   59.8960 H   0  0  0  0  0  0  0  0  0  0  0  0
  130.4170  128.1120   63.2860 H   0  0  0  0  0  0  0  0  0  0  0  0
  130.2798  124.9816   61.8713 H   0  0  0  0  0  0  0  0  0  0  0  0
  131.1564  123.0340   63.4937 H   0  0  0  0  0  0  0  0  0  0  0  0
  128.2359  136.0302   61.7506 H   0  0  0  0  0  0  0  0  0  0  0  0
  127.0088  138.1813   61.9249 H   0  0  0  0  0  0  0  0  0  0  0  0
  1  2  1  0
  2  3  1  0
  3  4  2  0
  4  5  1  0
  5  6  2  0
  6  7  1  0
  7  8  2  0
  8  9  1  0
  9 10  1  0
 10 11  2  0
 11 12  1  0
 12 13  2  0
 13 14  1  0
 14 15  1  0
 13 16  1  0
 16 17  2  0
  9 18  2  0
 18 19  1  0
 19 20  1  0
 19 21  2  0
 21 22  1  0
 22 23  2  0
 22 24  1  0
 24 25  1  0
 25 26  1  0
 26 27  2  0
 27 28  1  0
 28 29  1  0
 21 30  1  0
 30 31  1  0
 31 32  2  0
  6 33  1  0
 33 34  2  0
 34  3  1  0
 32  7  1  0
 17 10  1  0
 31 18  1  0
 29 25  2  0
  1 35  1  0
  1 36  1  0
  1 37  1  0
  4 38  1  0
  5 39  1  0
  8 40  1  0
 11 41  1  0
 12 42  1  0
 15 43  1  0
 15 44  1  0
 15 45  1  0
 16 46  1  0
 17 47  1  0
 20 48  1  0
 20 49  1  0
 24 50  1  0
 26 51  1  0
 27 52  1  0
 33 53  1  0
 34 54  1  0
M  END
>  <Binding energies>  (1) 
[-7.78]

>  <Ligand effiencies>  (1) 
[-0.2102702702702703]

>  <Interactions>  (1) 
["V-A:ASP:366:CG:3210, V-A:TYR:531:CZ:4792, V-A:LEU:363:CA:3182, V-A:TYR:531:CE2:4791, V-A:PRO:540:CB:4883, V-A:PRO:540:CA:4881, V-A:ASP:366:CB:3209, V-A:LEU:363:CB:3184, H-A:TYR:531:OH:4793, V-A:LEU:363:CD1:3186, V-A:TYR:539:CE1:4873, V-B:GLU:543:CD:9880, V-A:TYR:539:CD1:4871, V-A:ALA:541:CB:4890, V-A:PRO:540:N:4882, V-A:TYR:539:C:4865, V-B:ILE:369:CG2:8208, V-B:PRO:482:CB:9297, V-B:SER:385:CA:8378, V-B:PRO:482:CG:9298, V-B:LEU:475:CD2:9230, V-B:SER:385:CB:8380, V-B:LEU:373:CD1:8251, H-A:ASP:366:OD2:3212, H-A:TYR:484:OH:4345, V-A:GLU:543:CD:4906, H-A:GLU:543:OE2:4908, H-A:GLU:543:OE1:4907, H-B:ARG:545:NH2:9900, V-B:HIS:383:CG:8361, V-B:VAL:384:C:8368, V-B:HIS:383:CB:8360, V-B:LEU:373:CD2:8252, V-B:SER:385:C:8376, H-B:SER:385:N:8379, V-A:LEU:363:C:3180, V-A:LEU:363:CG:3185"]

$$$$
8c_Ghoteimi_2023
     RDKit          3D

 54 58  0  0  0  0  0  0  0  0999 V2000
  124.3860  139.3360   60.5970 C   0  0  0  0  0  0  0  0  0  0  0  0
  124.4320  138.4940   61.7430 O   0  0  0  0  0  0  0  0  0  0  0  0
  125.0400  137.2570   61.6470 C   0  0  0  0  0  0  0  0  0  0  0  0
  126.4300  137.2360   61.7540 C   0  0  0  0  0  0  0  0  0  0  0  0
  127.1270  136.0350   61.6660 C   0  0  0  0  0  0  0  0  0  0  0  0
  126.4530  134.8220   61.4680 C   0  0  0  0  0  0  0  0  0  0  0  0
  127.1970  133.5280   61.3690 C   0  0  0  0  0  0  0  0  0  0  0  0
  128.2620  133.3570   60.4800 C   0  0  0  0  0  0  0  0  0  0  0  0
  128.9440  132.1370   60.4080 C   0  0  0  0  0  0  0  0  0  0  0  0
  130.0620  131.9860   59.4500 C   0  0  0  0  0  0  0  0  0  0  0  0
  131.3360  131.6360   59.9040 C   0  0  0  0  0  0  0  0  0  0  0  0
  132.3830  131.4850   59.0000 C   0  0  0  0  0  0  0  0  0  0  0  0
  132.1770  131.6830   57.6340 C   0  0  0  0  0  0  0  0  0  0  0  0
  133.2730  131.5090   56.8120 O   0  0  0  0  0  0  0  0  0  0  0  0
  134.3490  130.6880   57.2530 C   0  0  0  0  0  0  0  0  0  0  0  0
  130.8970  132.0380   57.1800 C   0  0  0  0  0  0  0  0  0  0  0  0
  129.8490  132.1880   58.0850 C   0  0  0  0  0  0  0  0  0  0  0  0
  128.5250  131.0870   61.2680 C   0  0  0  0  0  0  0  0  0  0  0  0
  128.9890  129.7380   61.4580 C   0  0  0  0  0  0  0  0  0  0  0  0
  130.0370  129.2130   60.7430 N   0  0  0  0  0  0  0  0  0  0  0  0
  128.2760  129.0220   62.4330 C   0  0  0  0  0  0  0  0  0  0  0  0
  128.4780  127.6430   62.8820 C   0  0  0  0  0  0  0  0  0  0  0  0
  127.5490  126.8330   62.8650 O   0  0  0  0  0  0  0  0  0  0  0  0
  129.7310  127.3480   63.3060 N   0  0  0  0  0  0  0  0  0  0  0  0
  130.1860  126.1240   63.7770 C   0  0  0  0  0  0  0  0  0  0  0  0
  130.5290  125.8080   65.0070 N   0  0  0  0  0  0  0  0  0  0  0  0
  130.9120  124.5500   65.0950 C   0  0  0  0  0  0  0  0  0  0  0  0
  130.8870  123.8140   63.9150 C   0  0  0  0  0  0  0  0  0  0  0  0
  130.3290  124.8360   62.6240 S   0  0  0  0  0  0  0  0  0  0  0  0
  127.0030  130.0150   63.1470 S   0  0  0  0  0  0  0  0  0  0  0  0
  127.4330  131.3750   62.1360 C   0  0  0  0  0  0  0  0  0  0  0  0
  126.7820  132.5370   62.2030 N   0  0  0  0  0  0  0  0  0  0  0  0
  125.0550  134.8500   61.3640 C   0  0  0  0  0  0  0  0  0  0  0  0
  124.3540  136.0500   61.4510 C   0  0  0  0  0  0  0  0  0  0  0  0
  124.3286  140.3871   60.9163 H   0  0  0  0  0  0  0  0  0  0  0  0
  125.2937  139.1849   59.9943 H   0  0  0  0  0  0  0  0  0  0  0  0
  123.5001  139.0870   59.9943 H   0  0  0  0  0  0  0  0  0  0  0  0
  126.9798  138.1760   61.9092 H   0  0  0  0  0  0  0  0  0  0  0  0
  128.2235  136.0374   61.7531 H   0  0  0  0  0  0  0  0  0  0  0  0
  128.5674  134.1902   59.8300 H   0  0  0  0  0  0  0  0  0  0  0  0
  131.5118  131.4794   60.9785 H   0  0  0  0  0  0  0  0  0  0  0  0
  133.3825  131.2069   59.3655 H   0  0  0  0  0  0  0  0  0  0  0  0
  134.3707  130.6714   58.3527 H   0  0  0  0  0  0  0  0  0  0  0  0
  134.2091  129.6650   56.8736 H   0  0  0  0  0  0  0  0  0  0  0  0
  135.2987  131.0931   56.8736 H   0  0  0  0  0  0  0  0  0  0  0  0
  130.7211  132.1982   56.1060 H   0  0  0  0  0  0  0  0  0  0  0  0
  128.8486  132.4670   57.7226 H   0  0  0  0  0  0  0  0  0  0  0  0
  129.8830  128.6730   59.9030 H   0  0  0  0  0  0  0  0  0  0  0  0
  130.9950  129.3460   61.0310 H   0  0  0  0  0  0  0  0  0  0  0  0
  130.4170  128.0890   63.2760 H   0  0  0  0  0  0  0  0  0  0  0  0
  131.2337  124.1066   66.0489 H   0  0  0  0  0  0  0  0  0  0  0  0
  131.1738  122.7568   63.8149 H   0  0  0  0  0  0  0  0  0  0  0  0
  124.5040  133.9103   61.2115 H   0  0  0  0  0  0  0  0  0  0  0  0
  123.2573  136.0510   61.3656 H   0  0  0  0  0  0  0  0  0  0  0  0
  1  2  1  0
  2  3  1  0
  3  4  2  0
  4  5  1  0
  5  6  2  0
  6  7  1  0
  7  8  2  0
  8  9  1  0
  9 10  1  0
 10 11  2  0
 11 12  1  0
 12 13  2  0
 13 14  1  0
 14 15  1  0
 13 16  1  0
 16 17  2  0
  9 18  2  0
 18 19  1  0
 19 20  1  0
 19 21  2  0
 21 22  1  0
 22 23  2  0
 22 24  1  0
 24 25  1  0
 25 26  2  0
 26 27  1  0
 27 28  2  0
 28 29  1  0
 21 30  1  0
 30 31  1  0
 31 32  2  0
  6 33  1  0
 33 34  2  0
 34  3  1  0
 32  7  1  0
 17 10  1  0
 31 18  1  0
 29 25  1  0
  1 35  1  0
  1 36  1  0
  1 37  1  0
  4 38  1  0
  5 39  1  0
  8 40  1  0
 11 41  1  0
 12 42  1  0
 15 43  1  0
 15 44  1  0
 15 45  1  0
 16 46  1  0
 17 47  1  0
 20 48  1  0
 20 49  1  0
 24 50  1  0
 27 51  1  0
 28 52  1  0
 33 53  1  0
 34 54  1  0
M  END
>  <Binding energies>  (1) 
[-8.01]

>  <Ligand effiencies>  (1) 
[-0.21648648648648647]

>  <Interactions>  (1) 
["V-A:ASP:366:CG:3210, V-A:TYR:531:CZ:4792, V-A:LEU:363:CA:3182, V-A:TYR:531:CE2:4791, V-A:PRO:540:CB:4883, V-A:PRO:540:CA:4881, V-A:ASP:366:CB:3209, V-A:LEU:363:CB:3184, H-A:TYR:531:OH:4793, V-A:LEU:363:CD1:3186, V-A:TYR:539:CE1:4873, V-B:GLU:543:CD:9880, V-A:TYR:539:CD1:4871, V-A:ALA:541:CB:4890, V-A:PRO:540:N:4882, V-A:TYR:539:C:4865, V-B:ILE:369:CG2:8208, V-B:PRO:482:CB:9297, V-B:SER:385:CA:8378, V-B:PRO:482:CG:9298, V-B:LEU:475:CD2:9230, V-B:SER:385:CB:8380, V-B:LEU:373:CD1:8251, H-A:ASP:366:OD2:3212, V-A:TYR:484:CZ:4344, V-A:GLU:543:CD:4906, H-A:GLU:543:OE2:4908, H-A:GLU:543:OE1:4907, H-B:ARG:545:NH2:9900, V-B:GLU:543:CB:9878, V-B:HIS:383:CG:8361, V-B:VAL:384:C:8368, V-B:HIS:383:CB:8360, V-B:LEU:373:CD2:8252, V-B:SER:385:C:8376, V-A:LEU:363:C:3180"]

$$$$
8d_Ghoteimi_2023
     RDKit          3D

 50 53  0  0  0  0  0  0  0  0999 V2000
  127.7790  122.8350   55.5810 C   0  0  0  0  0  0  0  0  0  0  0  0
  126.6460  122.1250   56.0640 O   0  0  0  0  0  0  0  0  0  0  0  0
  125.9060  122.6120   57.0930 C   0  0  0  0  0  0  0  0  0  0  0  0
  124.6860  122.4630   57.1960 O   0  0  0  0  0  0  0  0  0  0  0  0
  126.7160  123.3470   58.0880 C   0  0  0  0  0  0  0  0  0  0  0  0
  128.0200  122.5220   58.9440 S   0  0  0  0  0  0  0  0  0  0  0  0
  128.4090  123.9760   59.8340 C   0  0  0  0  0  0  0  0  0  0  0  0
  129.3960  124.0100   60.7290 N   0  0  0  0  0  0  0  0  0  0  0  0
  129.6160  125.1930   61.3640 C   0  0  0  0  0  0  0  0  0  0  0  0
  130.7260  125.2030   62.3660 C   0  0  0  0  0  0  0  0  0  0  0  0
  132.0430  124.9020   61.9920 C   0  0  0  0  0  0  0  0  0  0  0  0
  133.0720  124.9110   62.9290 C   0  0  0  0  0  0  0  0  0  0  0  0
  132.8130  125.2210   64.2630 C   0  0  0  0  0  0  0  0  0  0  0  0
  133.8950  125.2070   65.1220 O   0  0  0  0  0  0  0  0  0  0  0  0
  133.6900  125.4940   66.5020 C   0  0  0  0  0  0  0  0  0  0  0  0
  131.5000  125.5260   64.6480 C   0  0  0  0  0  0  0  0  0  0  0  0
  130.4730  125.5150   63.7080 C   0  0  0  0  0  0  0  0  0  0  0  0
  128.8460  126.3310   61.1080 C   0  0  0  0  0  0  0  0  0  0  0  0
  127.8120  126.2960   60.1660 C   0  0  0  0  0  0  0  0  0  0  0  0
  127.0200  127.5210   59.9110 C   0  0  0  0  0  0  0  0  0  0  0  0
  126.9210  128.0360   58.6170 C   0  0  0  0  0  0  0  0  0  0  0  0
  126.1840  129.1930   58.3780 C   0  0  0  0  0  0  0  0  0  0  0  0
  125.5330  129.8480   59.4240 C   0  0  0  0  0  0  0  0  0  0  0  0
  124.8260  130.9870   59.0940 O   0  0  0  0  0  0  0  0  0  0  0  0
  123.4630  131.0970   59.4850 C   0  0  0  0  0  0  0  0  0  0  0  0
  125.6310  129.3250   60.7250 C   0  0  0  0  0  0  0  0  0  0  0  0
  126.3690  128.1690   60.9620 C   0  0  0  0  0  0  0  0  0  0  0  0
  127.5670  125.0720   59.4900 C   0  0  0  0  0  0  0  0  0  0  0  0
  126.6100  124.6840   58.4910 C   0  0  0  0  0  0  0  0  0  0  0  0
  125.6750  125.5520   57.9860 N   0  0  0  0  0  0  0  0  0  0  0  0
  128.3698  123.2052   56.4318 H   0  0  0  0  0  0  0  0  0  0  0  0
  128.3989  122.1635   54.9687 H   0  0  0  0  0  0  0  0  0  0  0  0
  127.4450  123.6856   54.9687 H   0  0  0  0  0  0  0  0  0  0  0  0
  132.2662  124.6553   60.9435 H   0  0  0  0  0  0  0  0  0  0  0  0
  134.0984  124.6714   62.6141 H   0  0  0  0  0  0  0  0  0  0  0  0
  134.2213  124.7502   67.1140 H   0  0  0  0  0  0  0  0  0  0  0  0
  134.0761  126.4987   66.7288 H   0  0  0  0  0  0  0  0  0  0  0  0
  132.6144  125.4547   66.7288 H   0  0  0  0  0  0  0  0  0  0  0  0
  131.2803  125.7749   65.6967 H   0  0  0  0  0  0  0  0  0  0  0  0
  129.4471  125.7550   64.0240 H   0  0  0  0  0  0  0  0  0  0  0  0
  129.0550  127.2636   61.6526 H   0  0  0  0  0  0  0  0  0  0  0  0
  127.4268  127.5262   57.7838 H   0  0  0  0  0  0  0  0  0  0  0  0
  126.1144  129.5940   57.3561 H   0  0  0  0  0  0  0  0  0  0  0  0
  123.3958  131.1024   60.5829 H   0  0  0  0  0  0  0  0  0  0  0  0
  123.0418  132.0321   59.0872 H   0  0  0  0  0  0  0  0  0  0  0  0
  122.8973  130.2416   59.0872 H   0  0  0  0  0  0  0  0  0  0  0  0
  125.1226  129.8312   61.5588 H   0  0  0  0  0  0  0  0  0  0  0  0
  126.4396  127.7641   61.9823 H   0  0  0  0  0  0  0  0  0  0  0  0
  125.7000  125.8520   57.0220 H   0  0  0  0  0  0  0  0  0  0  0  0
  124.9270  125.9160   58.5580 H   0  0  0  0  0  0  0  0  0  0  0  0
  1  2  1  0
  2  3  1  0
  3  4  2  0
  3  5  1  0
  5  6  1  0
  6  7  1  0
  7  8  2  0
  8  9  1  0
  9 10  1  0
 10 11  2  0
 11 12  1  0
 12 13  2  0
 13 14  1  0
 14 15  1  0
 13 16  1  0
 16 17  2  0
  9 18  2  0
 18 19  1  0
 19 20  1  0
 20 21  2  0
 21 22  1  0
 22 23  2  0
 23 24  1  0
 24 25  1  0
 23 26  1  0
 26 27  2  0
 19 28  2  0
 28 29  1  0
 29 30  1  0
 29  5  2  0
 28  7  1  0
 17 10  1  0
 27 20  1  0
  1 31  1  0
  1 32  1  0
  1 33  1  0
 11 34  1  0
 12 35  1  0
 15 36  1  0
 15 37  1  0
 15 38  1  0
 16 39  1  0
 17 40  1  0
 18 41  1  0
 21 42  1  0
 22 43  1  0
 25 44  1  0
 25 45  1  0
 25 46  1  0
 26 47  1  0
 27 48  1  0
 30 49  1  0
 30 50  1  0
M  END
>  <Binding energies>  (1) 
[-7.75]

>  <Ligand effiencies>  (1) 
[-0.2421875]

>  <Interactions>  (1) 
["V-B:ASP:366:CG:8184, H-A:TYR:539:OH:4876, V-B:ASP:366:CB:8183, H-B:TYR:531:OH:9767, V-B:PRO:540:CA:9855, V-B:PRO:540:CB:9857, V-B:MET:535:CE:9807, V-B:ILE:538:CB:9834, V-B:ILE:538:CA:9832, V-B:PRO:540:CD:9859, V-B:PRO:540:N:9856, V-B:GLU:543:CD:9880, V-B:TYR:539:C:9839, V-B:TYR:539:CE1:9847, V-B:TYR:539:CD1:9845, V-B:ILE:369:CD1:8210, V-B:ILE:369:CG2:8208, H-B:TYR:539:N:9842, H-A:GLY:454:N:4047, H-A:TYR:484:OH:4345, H-B:ASP:366:OD1:8185, V-B:TYR:531:CZ:9766, H-B:ASP:366:OD2:8186, V-A:TYR:484:CZ:4344, V-B:ILE:369:CB:8207, V-A:ARG:545:CG:4920, V-A:ARG:545:CD:4921, V-A:HIS:456:CE1:4066, V-A:ARG:545:CZ:4924, V-B:ASP:366:CA:8181, H-A:ARG:545:NE:4922"]

$$$$
9a_Ghoteimi_2023
     RDKit          3D

 85 91  0  0  0  0  0  0  0  0999 V2000
  129.3090  132.1870   73.3720 C   0  0  0  0  0  0  0  0  0  0  0  0
  129.7470  130.7610   73.0220 C   0  0  0  0  0  0  0  0  0  0  0  0
  128.7220  129.8470   73.3900 O   0  0  0  0  0  0  0  0  0  0  0  0
  128.9330  128.5060   73.3550 C   0  0  0  0  0  0  0  0  0  0  0  0
  128.8870  127.7840   74.3570 O   0  0  0  0  0  0  0  0  0  0  0  0
  129.2350  127.9880   71.9790 C   0  0  0  0  0  0  0  0  0  0  0  0
  128.1890  127.4950   71.1880 C   0  0  0  0  0  0  0  0  0  0  0  0
  128.4370  127.0060   69.9090 C   0  0  0  0  0  0  0  0  0  0  0  0
  129.7330  127.0000   69.3920 C   0  0  0  0  0  0  0  0  0  0  0  0
  129.8650  126.4820   68.0890 N   0  0  0  0  0  0  0  0  0  0  0  0
  129.5210  127.0180   66.8920 C   0  0  0  0  0  0  0  0  0  0  0  0
  129.0010  128.1260   66.7530 O   0  0  0  0  0  0  0  0  0  0  0  0
  129.8160  126.1830   65.7240 C   0  0  0  0  0  0  0  0  0  0  0  0
  130.3260  124.5070   65.9340 S   0  0  0  0  0  0  0  0  0  0  0  0
  130.4380  124.2770   64.2050 C   0  0  0  0  0  0  0  0  0  0  0  0
  130.7890  123.1050   63.6770 N   0  0  0  0  0  0  0  0  0  0  0  0
  130.8340  123.0270   62.3210 C   0  0  0  0  0  0  0  0  0  0  0  0
  131.2190  121.7000   61.7510 C   0  0  0  0  0  0  0  0  0  0  0  0
  132.5130  121.4820   61.2670 C   0  0  0  0  0  0  0  0  0  0  0  0
  132.8800  120.2490   60.7360 C   0  0  0  0  0  0  0  0  0  0  0  0
  131.9700  119.1820   60.6820 C   0  0  0  0  0  0  0  0  0  0  0  0
  132.3180  117.9430   60.1340 N   0  0  0  0  0  0  0  0  0  0  0  0
  133.4030  117.1220   60.7090 C   0  0  0  0  0  0  0  0  0  0  0  0
  133.8850  115.9880   59.7810 C   0  0  0  0  0  0  0  0  0  0  0  0
  132.7870  115.1790   59.3900 O   0  0  0  0  0  0  0  0  0  0  0  0
  131.8110  115.9330   58.6880 C   0  0  0  0  0  0  0  0  0  0  0  0
  131.2660  117.0600   59.5880 C   0  0  0  0  0  0  0  0  0  0  0  0
  130.6690  119.4100   61.1550 C   0  0  0  0  0  0  0  0  0  0  0  0
  130.3020  120.6440   61.6830 C   0  0  0  0  0  0  0  0  0  0  0  0
  130.5580  124.1240   61.5020 C   0  0  0  0  0  0  0  0  0  0  0  0
  130.2090  125.3630   62.0520 C   0  0  0  0  0  0  0  0  0  0  0  0
  129.9600  126.5060   61.1370 C   0  0  0  0  0  0  0  0  0  0  0  0
  128.7540  126.6100   60.4400 C   0  0  0  0  0  0  0  0  0  0  0  0
  128.5180  127.6890   59.5940 C   0  0  0  0  0  0  0  0  0  0  0  0
  129.4750  128.7040   59.4350 C   0  0  0  0  0  0  0  0  0  0  0  0
  129.2650  129.7900   58.5820 N   0  0  0  0  0  0  0  0  0  0  0  0
  128.3730  129.6280   57.4170 C   0  0  0  0  0  0  0  0  0  0  0  0
  127.9320  130.9700   56.7940 C   0  0  0  0  0  0  0  0  0  0  0  0
  129.0710  131.7470   56.4560 O   0  0  0  0  0  0  0  0  0  0  0  0
  129.8670  132.0350   57.5950 C   0  0  0  0  0  0  0  0  0  0  0  0
  130.3590  130.7210   58.2400 C   0  0  0  0  0  0  0  0  0  0  0  0
  130.6810  128.5900   60.1410 C   0  0  0  0  0  0  0  0  0  0  0  0
  130.9190  127.5090   60.9840 C   0  0  0  0  0  0  0  0  0  0  0  0
  130.1200  125.4570   63.4710 C   0  0  0  0  0  0  0  0  0  0  0  0
  129.7440  126.5240   64.3650 C   0  0  0  0  0  0  0  0  0  0  0  0
  129.3400  127.7550   63.9150 N   0  0  0  0  0  0  0  0  0  0  0  0
  130.7870  127.4950   70.1760 C   0  0  0  0  0  0  0  0  0  0  0  0
  130.5370  127.9830   71.4560 C   0  0  0  0  0  0  0  0  0  0  0  0
  129.2737  132.3018   74.4654 H   0  0  0  0  0  0  0  0  0  0  0  0
  130.0280  132.9052   72.9509 H   0  0  0  0  0  0  0  0  0  0  0  0
  128.3109  132.3778   72.9509 H   0  0  0  0  0  0  0  0  0  0  0  0
  129.9313  130.6891   71.9399 H   0  0  0  0  0  0  0  0  0  0  0  0
  130.6700  130.5163   73.5680 H   0  0  0  0  0  0  0  0  0  0  0  0
  127.1619  127.4945   71.5817 H   0  0  0  0  0  0  0  0  0  0  0  0
  127.6050  126.6213   69.3009 H   0  0  0  0  0  0  0  0  0  0  0  0
  130.2880  125.5670   68.0530 H   0  0  0  0  0  0  0  0  0  0  0  0
  133.2511  122.2966   61.3066 H   0  0  0  0  0  0  0  0  0  0  0  0
  133.9011  120.1083   60.3519 H   0  0  0  0  0  0  0  0  0  0  0  0
  134.2578  117.7796   60.9257 H   0  0  0  0  0  0  0  0  0  0  0  0
  132.9984  116.6450   61.6139 H   0  0  0  0  0  0  0  0  0  0  0  0
  134.3527  116.4241   58.8860 H   0  0  0  0  0  0  0  0  0  0  0  0
  134.6159  115.3674   60.3201 H   0  0  0  0  0  0  0  0  0  0  0  0
  132.2681  116.3734   57.7896 H   0  0  0  0  0  0  0  0  0  0  0  0
  130.9824  115.2699   58.3988 H   0  0  0  0  0  0  0  0  0  0  0  0
  130.5709  117.6728   58.9953 H   0  0  0  0  0  0  0  0  0  0  0  0
  130.7729  116.5780   60.4451 H   0  0  0  0  0  0  0  0  0  0  0  0
  129.9266  118.5997   61.1077 H   0  0  0  0  0  0  0  0  0  0  0  0
  129.2765  120.7921   62.0524 H   0  0  0  0  0  0  0  0  0  0  0  0
  130.6157  124.0128   60.4092 H   0  0  0  0  0  0  0  0  0  0  0  0
  127.9850  125.8328   60.5609 H   0  0  0  0  0  0  0  0  0  0  0  0
  127.5684  127.7477   59.0420 H   0  0  0  0  0  0  0  0  0  0  0  0
  128.9031  129.0445   56.6499 H   0  0  0  0  0  0  0  0  0  0  0  0
  127.4643  129.1189   57.7708 H   0  0  0  0  0  0  0  0  0  0  0  0
  127.3427  130.7738   55.8862 H   0  0  0  0  0  0  0  0  0  0  0  0
  127.3217  131.5229   57.5233 H   0  0  0  0  0  0  0  0  0  0  0  0
  130.7346  132.6386   57.2902 H   0  0  0  0  0  0  0  0  0  0  0  0
  129.2635  132.5929   58.3262 H   0  0  0  0  0  0  0  0  0  0  0  0
  131.0366  130.2185   57.5341 H   0  0  0  0  0  0  0  0  0  0  0  0
  130.8627  130.9896   59.1803 H   0  0  0  0  0  0  0  0  0  0  0  0
  131.4509  129.3673   60.0266 H   0  0  0  0  0  0  0  0  0  0  0  0
  131.8695  127.4442   61.5338 H   0  0  0  0  0  0  0  0  0  0  0  0
  129.9830  128.4000   63.4760 H   0  0  0  0  0  0  0  0  0  0  0  0
  128.3810  128.0610   64.0090 H   0  0  0  0  0  0  0  0  0  0  0  0
  131.8126  127.4974   69.7784 H   0  0  0  0  0  0  0  0  0  0  0  0
  131.3690  128.3686   72.0635 H   0  0  0  0  0  0  0  0  0  0  0  0
  1  2  1  0
  2  3  1  0
  3  4  1  0
  4  5  2  0
  4  6  1  0
  6  7  2  0
  7  8  1  0
  8  9  2  0
  9 10  1  0
 10 11  1  0
 11 12  2  0
 11 13  1  0
 13 14  1  0
 14 15  1  0
 15 16  2  0
 16 17  1  0
 17 18  1  0
 18 19  2  0
 19 20  1  0
 20 21  2  0
 21 22  1  0
 22 23  1  0
 23 24  1  0
 24 25  1  0
 25 26  1  0
 26 27  1  0
 21 28  1  0
 28 29  2  0
 17 30  2  0
 30 31  1  0
 31 32  1  0
 32 33  2  0
 33 34  1  0
 34 35  2  0
 35 36  1  0
 36 37  1  0
 37 38  1  0
 38 39  1  0
 39 40  1  0
 40 41  1  0
 35 42  1  0
 42 43  2  0
 31 44  2  0
 44 45  1  0
 45 46  1  0
  9 47  1  0
 47 48  2  0
 48  6  1  0
 45 13  2  0
 44 15  1  0
 29 18  1  0
 43 32  1  0
 27 22  1  0
 41 36  1  0
  1 49  1  0
  1 50  1  0
  1 51  1  0
  2 52  1  0
  2 53  1  0
  7 54  1  0
  8 55  1  0
 10 56  1  0
 19 57  1  0
 20 58  1  0
 23 59  1  0
 23 60  1  0
 24 61  1  0
 24 62  1  0
 26 63  1  0
 26 64  1  0
 27 65  1  0
 27 66  1  0
 28 67  1  0
 29 68  1  0
 30 69  1  0
 33 70  1  0
 34 71  1  0
 37 72  1  0
 37 73  1  0
 38 74  1  0
 38 75  1  0
 40 76  1  0
 40 77  1  0
 41 78  1  0
 41 79  1  0
 42 80  1  0
 43 81  1  0
 46 82  1  0
 46 83  1  0
 47 84  1  0
 48 85  1  0
M  END
>  <Binding energies>  (1) 
[-7.12]

>  <Ligand effiencies>  (1) 
[-0.1396078431372549]

>  <Interactions>  (1) 
["V-A:MET:535:CE:4833, V-A:ASP:366:CG:3210, V-A:TYR:539:CZ:4875, V-A:TYR:539:CE1:4873, V-B:ALA:541:CB:9864, V-A:LEU:475:CD2:4256, V-B:GLU:543:CD:9880, V-B:TYR:539:CE1:9847, V-B:TYR:539:CD1:9845, V-B:TYR:539:CG:9844, V-A:ILE:369:CG2:3234, H-A:TYR:484:OH:4345, V-A:TYR:484:CZ:4344, V-A:HIS:456:CE1:4066, V-A:GLU:543:CD:4906, H-A:GLU:543:OE2:4908, H-A:GLU:543:OE1:4907, V-B:HIS:456:CE1:9040, V-A:GLU:543:CG:4905, V-A:PRO:482:CG:4324, V-A:SER:385:CB:3406, V-A:SER:385:CA:3404, V-B:TYR:539:CB:9843, V-A:HIS:383:CG:3387, V-A:LEU:373:CD2:3278, V-B:GLU:543:CB:9878, V-B:GLU:543:CG:9879, V-A:HIS:383:CB:3386, V-A:LEU:373:CD1:3277, H-B:GLU:543:OE1:9881, H-B:GLU:543:OE2:9882, V-A:TYR:484:CE2:4343, V-A:VAL:384:C:3394, V-B:ILE:343:CD1:7965, V-A:HIS:383:CD2:3389, V-A:GLY:544:CA:4912, V-B:HIS:456:CD2:9039, V-B:GLY:544:C:9884, V-B:GLU:543:C:9874, V-A:GLU:543:C:4900, H-B:LYS:547:NZ:9923, V-A:LYS:547:CE:4948, V-A:GLY:544:C:4910, H-A:LYS:547:NZ:4949, H-A:HIS:383:ND1:3388, V-A:HIS:456:CD2:4065, H-B:HIS:456:NE2:9041, H-A:HIS:456:ND1:4064, H-B:GLU:543:O:9875"]

$$$$
9b_Ghoteimi_2023
     RDKit          3D

 72 78  0  0  0  0  0  0  0  0999 V2000
  130.5050  128.1610   62.6840 N   0  0  0  0  0  0  0  0  0  0  0  0
  130.8130  127.3490   61.6220 C   0  0  0  0  0  0  0  0  0  0  0  0
  130.8870  127.8040   60.2970 C   0  0  0  0  0  0  0  0  0  0  0  0
  130.6920  129.1630   59.7850 C   0  0  0  0  0  0  0  0  0  0  0  0
  130.0100  129.9780   60.4090 O   0  0  0  0  0  0  0  0  0  0  0  0
  131.3000  129.4330   58.6020 N   0  0  0  0  0  0  0  0  0  0  0  0
  131.2730  130.6250   57.8890 C   0  0  0  0  0  0  0  0  0  0  0  0
  132.3690  131.1120   57.1800 C   0  0  0  0  0  0  0  0  0  0  0  0
  131.9380  132.2930   56.6210 C   0  0  0  0  0  0  0  0  0  0  0  0
  130.6480  132.5050   56.9770 O   0  0  0  0  0  0  0  0  0  0  0  0
  130.2380  131.4410   57.7800 N   0  0  0  0  0  0  0  0  0  0  0  0
  131.2730  126.4850   59.1910 S   0  0  0  0  0  0  0  0  0  0  0  0
  131.3140  125.3340   60.5050 C   0  0  0  0  0  0  0  0  0  0  0  0
  131.5500  124.0410   60.2930 N   0  0  0  0  0  0  0  0  0  0  0  0
  131.5430  123.2260   61.3800 C   0  0  0  0  0  0  0  0  0  0  0  0
  131.7900  121.7770   61.1120 C   0  0  0  0  0  0  0  0  0  0  0  0
  133.0470  121.3220   60.6970 C   0  0  0  0  0  0  0  0  0  0  0  0
  133.2670  119.9730   60.4340 C   0  0  0  0  0  0  0  0  0  0  0  0
  132.2340  119.0310   60.5640 C   0  0  0  0  0  0  0  0  0  0  0  0
  132.4410  117.6710   60.3070 N   0  0  0  0  0  0  0  0  0  0  0  0
  131.6940  116.9670   59.2460 C   0  0  0  0  0  0  0  0  0  0  0  0
  132.2870  115.5920   58.8740 C   0  0  0  0  0  0  0  0  0  0  0  0
  132.4030  114.7850   60.0340 O   0  0  0  0  0  0  0  0  0  0  0  0
  133.2600  115.3770   60.9960 C   0  0  0  0  0  0  0  0  0  0  0  0
  132.7020  116.7490   61.4320 C   0  0  0  0  0  0  0  0  0  0  0  0
  130.9830  119.4900   61.0000 C   0  0  0  0  0  0  0  0  0  0  0  0
  130.7640  120.8390   61.2670 C   0  0  0  0  0  0  0  0  0  0  0  0
  131.3270  123.7090   62.6730 C   0  0  0  0  0  0  0  0  0  0  0  0
  131.0990  125.0710   62.9030 C   0  0  0  0  0  0  0  0  0  0  0  0
  130.9050  125.5390   64.2990 C   0  0  0  0  0  0  0  0  0  0  0  0
  129.7430  126.2230   64.6580 C   0  0  0  0  0  0  0  0  0  0  0  0
  129.5500  126.6450   65.9700 C   0  0  0  0  0  0  0  0  0  0  0  0
  130.5140  126.3960   66.9590 C   0  0  0  0  0  0  0  0  0  0  0  0
  130.3330  126.7970   68.2850 N   0  0  0  0  0  0  0  0  0  0  0  0
  131.2850  127.7520   68.8860 C   0  0  0  0  0  0  0  0  0  0  0  0
  131.2100  127.7950   70.4280 C   0  0  0  0  0  0  0  0  0  0  0  0
  129.8820  128.0810   70.8420 O   0  0  0  0  0  0  0  0  0  0  0  0
  128.9660  127.0980   70.3840 C   0  0  0  0  0  0  0  0  0  0  0  0
  128.9860  127.0330   68.8420 C   0  0  0  0  0  0  0  0  0  0  0  0
  131.6690  125.6910   66.5900 C   0  0  0  0  0  0  0  0  0  0  0  0
  131.8620  125.2680   65.2780 C   0  0  0  0  0  0  0  0  0  0  0  0
  131.0680  125.9380   61.7740 C   0  0  0  0  0  0  0  0  0  0  0  0
  130.5620  127.8340   63.6390 H   0  0  0  0  0  0  0  0  0  0  0  0
  130.2110  129.1180   62.5470 H   0  0  0  0  0  0  0  0  0  0  0  0
  131.8400  128.6900   58.1840 H   0  0  0  0  0  0  0  0  0  0  0  0
  133.3638  130.6518   57.0872 H   0  0  0  0  0  0  0  0  0  0  0  0
  132.5432  132.9579   55.9872 H   0  0  0  0  0  0  0  0  0  0  0  0
  133.8717  122.0399   60.5771 H   0  0  0  0  0  0  0  0  0  0  0  0
  134.2668  119.6394   60.1191 H   0  0  0  0  0  0  0  0  0  0  0  0
  130.6603  116.8170   59.5909 H   0  0  0  0  0  0  0  0  0  0  0  0
  131.7503  117.5946   58.3444 H   0  0  0  0  0  0  0  0  0  0  0  0
  131.6266  115.0945   58.1485 H   0  0  0  0  0  0  0  0  0  0  0  0
  133.2842  115.7359   58.4326 H   0  0  0  0  0  0  0  0  0  0  0  0
  133.3316  114.7179   61.8738 H   0  0  0  0  0  0  0  0  0  0  0  0
  134.2562  115.5186   60.5515 H   0  0  0  0  0  0  0  0  0  0  0  0
  131.7577  116.5839   61.9715 H   0  0  0  0  0  0  0  0  0  0  0  0
  133.4696  117.2216   62.0624 H   0  0  0  0  0  0  0  0  0  0  0  0
  130.1603  118.7721   61.1335 H   0  0  0  0  0  0  0  0  0  0  0  0
  129.7711  121.1713   61.6042 H   0  0  0  0  0  0  0  0  0  0  0  0
  131.3362  123.0096   63.5220 H   0  0  0  0  0  0  0  0  0  0  0  0
  128.9743  126.4301   63.8989 H   0  0  0  0  0  0  0  0  0  0  0  0
  128.6276  127.1820   66.2359 H   0  0  0  0  0  0  0  0  0  0  0  0
  132.3045  127.4606   68.5933 H   0  0  0  0  0  0  0  0  0  0  0  0
  131.0204  128.7540   68.5173 H   0  0  0  0  0  0  0  0  0  0  0  0
  131.5164  126.8200   70.8349 H   0  0  0  0  0  0  0  0  0  0  0  0
  131.8817  128.5825   70.8003 H   0  0  0  0  0  0  0  0  0  0  0  0
  129.2498  126.1172   70.7933 H   0  0  0  0  0  0  0  0  0  0  0  0
  127.9532  127.3647   70.7203 H   0  0  0  0  0  0  0  0  0  0  0  0
  128.3260  126.2146   68.5184 H   0  0  0  0  0  0  0  0  0  0  0  0
  128.6463  128.0109   68.4702 H   0  0  0  0  0  0  0  0  0  0  0  0
  132.4338  125.4690   67.3488 H   0  0  0  0  0  0  0  0  0  0  0  0
  132.7753  124.7162   65.0109 H   0  0  0  0  0  0  0  0  0  0  0  0
  1  2  1  0
  2  3  2  0
  3  4  1  0
  4  5  2  0
  4  6  1  0
  6  7  1  0
  7  8  1  0
  8  9  2  0
  9 10  1  0
 10 11  1  0
  3 12  1  0
 12 13  1  0
 13 14  2  0
 14 15  1  0
 15 16  1  0
 16 17  2  0
 17 18  1  0
 18 19  2  0
 19 20  1  0
 20 21  1  0
 21 22  1  0
 22 23  1  0
 23 24  1  0
 24 25  1  0
 19 26  1  0
 26 27  2  0
 15 28  2  0
 28 29  1  0
 29 30  1  0
 30 31  2  0
 31 32  1  0
 32 33  2  0
 33 34  1  0
 34 35  1  0
 35 36  1  0
 36 37  1  0
 37 38  1  0
 38 39  1  0
 33 40  1  0
 40 41  2  0
 29 42  2  0
 42  2  1  0
 11  7  2  0
 42 13  1  0
 27 16  1  0
 41 30  1  0
 25 20  1  0
 39 34  1  0
  1 43  1  0
  1 44  1  0
  6 45  1  0
  8 46  1  0
  9 47  1  0
 17 48  1  0
 18 49  1  0
 21 50  1  0
 21 51  1  0
 22 52  1  0
 22 53  1  0
 24 54  1  0
 24 55  1  0
 25 56  1  0
 25 57  1  0
 26 58  1  0
 27 59  1  0
 28 60  1  0
 31 61  1  0
 32 62  1  0
 35 63  1  0
 35 64  1  0
 36 65  1  0
 36 66  1  0
 38 67  1  0
 38 68  1  0
 39 69  1  0
 39 70  1  0
 40 71  1  0
 41 72  1  0
M  END
>  <Binding energies>  (1) 
[-7.71]

>  <Ligand effiencies>  (1) 
[-0.17133333333333334]

>  <Interactions>  (1) 
["V-A:ASP:366:CG:3210, V-A:TYR:531:CZ:4792, V-A:TYR:531:CE2:4791, H-A:TYR:531:OH:4793, H-A:TYR:539:N:4868, V-B:ALA:541:CB:9864, V-A:LEU:475:CD2:4256, V-B:GLU:543:CD:9880, V-B:TYR:539:CE1:9847, V-B:TYR:539:CD1:9845, V-B:TYR:539:CG:9844, V-A:ILE:369:CG2:3234, V-A:ILE:538:CB:4860, V-A:PRO:540:CD:4885, V-A:ILE:538:CG2:4861, H-A:ASP:366:OD2:3212, V-A:TYR:484:CZ:4344, V-A:ARG:545:CG:4920, V-A:HIS:456:CE1:4066, V-A:ARG:545:CZ:4924, V-A:GLU:543:CD:4906, H-A:GLU:543:OE2:4908, H-A:GLU:543:OE1:4907, V-B:HIS:456:CE1:9040, V-A:GLU:543:CG:4905, V-A:SER:385:CB:3406, V-A:SER:385:CA:3404, V-B:TYR:539:CB:9843, V-A:HIS:383:CG:3387, V-A:LEU:373:CD2:3278, V-B:GLU:543:CB:9878, V-B:GLU:543:CG:9879, V-A:HIS:383:CB:3386, V-A:LEU:373:CD1:3277, V-A:HIS:383:CD2:3389, V-A:GLY:544:CA:4912, V-B:GLU:543:C:9874, V-A:GLU:543:C:4900, V-A:GLY:544:C:4910, H-A:HIS:383:ND1:3388, V-A:HIS:456:CD2:4065, H-B:HIS:456:NE2:9041"]

$$$$
9c_Ghoteimi_2023
     RDKit          3D

 72 78  0  0  0  0  0  0  0  0999 V2000
  130.5000  128.0570   62.6520 N   0  0  0  0  0  0  0  0  0  0  0  0
  130.8130  127.2340   61.6010 C   0  0  0  0  0  0  0  0  0  0  0  0
  130.8890  127.6730   60.2700 C   0  0  0  0  0  0  0  0  0  0  0  0
  130.6830  129.0250   59.7420 C   0  0  0  0  0  0  0  0  0  0  0  0
  129.9790  129.8380   60.3440 O   0  0  0  0  0  0  0  0  0  0  0  0
  131.3100  129.2920   58.5690 N   0  0  0  0  0  0  0  0  0  0  0  0
  131.2680  130.4800   57.8530 C   0  0  0  0  0  0  0  0  0  0  0  0
  130.2090  131.1120   57.3960 N   0  0  0  0  0  0  0  0  0  0  0  0
  130.5420  132.2140   56.7530 C   0  0  0  0  0  0  0  0  0  0  0  0
  131.9040  132.4950   56.6770 C   0  0  0  0  0  0  0  0  0  0  0  0
  132.7860  131.2420   57.4970 S   0  0  0  0  0  0  0  0  0  0  0  0
  131.2850  126.3440   59.1810 S   0  0  0  0  0  0  0  0  0  0  0  0
  131.3290  125.2090   60.5090 C   0  0  0  0  0  0  0  0  0  0  0  0
  131.5750  123.9150   60.3130 N   0  0  0  0  0  0  0  0  0  0  0  0
  131.5700  123.1130   61.4100 C   0  0  0  0  0  0  0  0  0  0  0  0
  131.8270  121.6630   61.1590 C   0  0  0  0  0  0  0  0  0  0  0  0
  133.1120  121.1950   60.8600 C   0  0  0  0  0  0  0  0  0  0  0  0
  133.3450  119.8450   60.6180 C   0  0  0  0  0  0  0  0  0  0  0  0
  132.2960  118.9120   60.6530 C   0  0  0  0  0  0  0  0  0  0  0  0
  132.5150  117.5500   60.4190 N   0  0  0  0  0  0  0  0  0  0  0  0
  131.8700  116.8510   59.2880 C   0  0  0  0  0  0  0  0  0  0  0  0
  132.4860  115.4700   58.9750 C   0  0  0  0  0  0  0  0  0  0  0  0
  132.4790  114.6620   60.1410 O   0  0  0  0  0  0  0  0  0  0  0  0
  133.2410  115.2490   61.1840 C   0  0  0  0  0  0  0  0  0  0  0  0
  132.6530  116.6250   61.5630 C   0  0  0  0  0  0  0  0  0  0  0  0
  131.0140  119.3830   60.9710 C   0  0  0  0  0  0  0  0  0  0  0  0
  130.7830  120.7330   61.2170 C   0  0  0  0  0  0  0  0  0  0  0  0
  131.3480  123.6100   62.6960 C   0  0  0  0  0  0  0  0  0  0  0  0
  131.1110  124.9730   62.9090 C   0  0  0  0  0  0  0  0  0  0  0  0
  130.9130  125.4570   64.2980 C   0  0  0  0  0  0  0  0  0  0  0  0
  129.7680  126.1810   64.6350 C   0  0  0  0  0  0  0  0  0  0  0  0
  129.5700  126.6220   65.9410 C   0  0  0  0  0  0  0  0  0  0  0  0
  130.5130  126.3520   66.9440 C   0  0  0  0  0  0  0  0  0  0  0  0
  130.3290  126.7750   68.2640 N   0  0  0  0  0  0  0  0  0  0  0  0
  131.2420  127.7890   68.8280 C   0  0  0  0  0  0  0  0  0  0  0  0
  131.1810  127.8730   70.3690 C   0  0  0  0  0  0  0  0  0  0  0  0
  129.8460  128.1080   70.7910 O   0  0  0  0  0  0  0  0  0  0  0  0
  128.9740  127.0700   70.3720 C   0  0  0  0  0  0  0  0  0  0  0  0
  128.9800  126.9610   68.8320 C   0  0  0  0  0  0  0  0  0  0  0  0
  131.6490  125.6050   66.5990 C   0  0  0  0  0  0  0  0  0  0  0  0
  131.8470  125.1640   65.2930 C   0  0  0  0  0  0  0  0  0  0  0  0
  131.0770  125.8260   61.7700 C   0  0  0  0  0  0  0  0  0  0  0  0
  130.6430  127.7750   63.6120 H   0  0  0  0  0  0  0  0  0  0  0  0
  130.1130  128.9780   62.5020 H   0  0  0  0  0  0  0  0  0  0  0  0
  131.8710  128.5570   58.1650 H   0  0  0  0  0  0  0  0  0  0  0  0
  129.7866  132.8742   56.3020 H   0  0  0  0  0  0  0  0  0  0  0  0
  132.3494  133.3686   56.1786 H   0  0  0  0  0  0  0  0  0  0  0  0
  133.9504  121.9057   60.8157 H   0  0  0  0  0  0  0  0  0  0  0  0
  134.3666  119.5031   60.3958 H   0  0  0  0  0  0  0  0  0  0  0  0
  130.8062  116.7094   59.5292 H   0  0  0  0  0  0  0  0  0  0  0  0
  132.0202  117.4779   58.3967 H   0  0  0  0  0  0  0  0  0  0  0  0
  131.8969  114.9781   58.1870 H   0  0  0  0  0  0  0  0  0  0  0  0
  133.5232  115.6052   58.6346 H   0  0  0  0  0  0  0  0  0  0  0  0
  133.2205  114.5899   62.0644 H   0  0  0  0  0  0  0  0  0  0  0  0
  134.2772  115.3834   60.8401 H   0  0  0  0  0  0  0  0  0  0  0  0
  131.6575  116.4673   62.0036 H   0  0  0  0  0  0  0  0  0  0  0  0
  133.3566  117.0908   62.2686 H   0  0  0  0  0  0  0  0  0  0  0  0
  130.1760  118.6726   61.0270 H   0  0  0  0  0  0  0  0  0  0  0  0
  129.7658  121.0738   61.4604 H   0  0  0  0  0  0  0  0  0  0  0  0
  131.3595  122.9209   63.5534 H   0  0  0  0  0  0  0  0  0  0  0  0
  129.0167  126.4048   63.8633 H   0  0  0  0  0  0  0  0  0  0  0  0
  128.6614  127.1900   66.1897 H   0  0  0  0  0  0  0  0  0  0  0  0
  132.2709  127.5362   68.5321 H   0  0  0  0  0  0  0  0  0  0  0  0
  130.9273  128.7669   68.4347 H   0  0  0  0  0  0  0  0  0  0  0  0
  131.5376  126.9257   70.7997 H   0  0  0  0  0  0  0  0  0  0  0  0
  131.8184  128.7019   70.7105 H   0  0  0  0  0  0  0  0  0  0  0  0
  129.3091  126.1162   70.8055 H   0  0  0  0  0  0  0  0  0  0  0  0
  127.9532  127.2980   70.7127 H   0  0  0  0  0  0  0  0  0  0  0  0
  128.3573  126.1023   68.5406 H   0  0  0  0  0  0  0  0  0  0  0  0
  128.5890  127.9104   68.4373 H   0  0  0  0  0  0  0  0  0  0  0  0
  132.3943  125.3640   67.3713 H   0  0  0  0  0  0  0  0  0  0  0  0
  132.7457  124.5807   65.0438 H   0  0  0  0  0  0  0  0  0  0  0  0
  1  2  1  0
  2  3  2  0
  3  4  1  0
  4  5  2  0
  4  6  1  0
  6  7  1  0
  7  8  2  0
  8  9  1  0
  9 10  2  0
 10 11  1  0
  3 12  1  0
 12 13  1  0
 13 14  2  0
 14 15  1  0
 15 16  1  0
 16 17  2  0
 17 18  1  0
 18 19  2  0
 19 20  1  0
 20 21  1  0
 21 22  1  0
 22 23  1  0
 23 24  1  0
 24 25  1  0
 19 26  1  0
 26 27  2  0
 15 28  2  0
 28 29  1  0
 29 30  1  0
 30 31  2  0
 31 32  1  0
 32 33  2  0
 33 34  1  0
 34 35  1  0
 35 36  1  0
 36 37  1  0
 37 38  1  0
 38 39  1  0
 33 40  1  0
 40 41  2  0
 29 42  2  0
 42  2  1  0
 11  7  1  0
 42 13  1  0
 27 16  1  0
 41 30  1  0
 25 20  1  0
 39 34  1  0
  1 43  1  0
  1 44  1  0
  6 45  1  0
  9 46  1  0
 10 47  1  0
 17 48  1  0
 18 49  1  0
 21 50  1  0
 21 51  1  0
 22 52  1  0
 22 53  1  0
 24 54  1  0
 24 55  1  0
 25 56  1  0
 25 57  1  0
 26 58  1  0
 27 59  1  0
 28 60  1  0
 31 61  1  0
 32 62  1  0
 35 63  1  0
 35 64  1  0
 36 65  1  0
 36 66  1  0
 38 67  1  0
 38 68  1  0
 39 69  1  0
 39 70  1  0
 40 71  1  0
 41 72  1  0
M  END
>  <Binding energies>  (1) 
[-7.69]

>  <Ligand effiencies>  (1) 
[-0.1708888888888889]

>  <Interactions>  (1) 
["V-A:ASP:366:CG:3210, V-A:TYR:531:CE2:4791, V-A:ASP:366:CB:3209, H-A:TYR:531:OH:4793, V-A:LEU:363:CD1:3186, V-B:ALA:541:CB:9864, V-A:LEU:475:CD2:4256, V-B:GLU:543:CD:9880, V-B:TYR:539:CE1:9847, V-B:TYR:539:CD1:9845, V-A:PRO:540:N:4882, V-B:TYR:539:CG:9844, V-A:ILE:369:CG2:3234, V-A:ILE:538:CB:4860, V-A:PRO:540:CD:4885, V-A:ILE:538:CG2:4861, H-A:ASP:366:OD2:3212, V-A:TYR:484:CZ:4344, V-A:ARG:545:CG:4920, V-A:HIS:456:CE1:4066, V-A:GLU:543:CD:4906, H-A:GLU:543:OE2:4908, H-A:GLU:543:OE1:4907, V-B:HIS:456:CE1:9040, V-A:GLU:543:CG:4905, V-A:SER:385:CB:3406, V-A:SER:385:CA:3404, V-B:TYR:539:CB:9843, V-A:HIS:383:CG:3387, V-A:LEU:373:CD2:3278, V-B:GLU:543:CB:9878, V-B:GLU:543:CG:9879, V-A:HIS:383:CB:3386, V-A:LEU:373:CD1:3277, V-A:THR:477:CA:4267, V-A:HIS:383:CD2:3389, V-A:GLY:544:CA:4912, V-B:GLU:543:C:9874, V-A:GLU:543:C:4900, V-A:GLY:544:C:4910, H-A:HIS:383:ND1:3388, H-B:HIS:456:NE2:9041, V-A:THR:477:CG2:4270"]

$$$$
9d_Ghoteimi_2023
     RDKit          3D

 68 73  0  0  0  0  0  0  0  0999 V2000
  128.2530  128.4630   67.3680 C   0  0  0  0  0  0  0  0  0  0  0  0
  128.6800  127.1260   67.1530 O   0  0  0  0  0  0  0  0  0  0  0  0
  129.9810  126.8460   66.8770 C   0  0  0  0  0  0  0  0  0  0  0  0
  130.9330  127.2770   67.5330 O   0  0  0  0  0  0  0  0  0  0  0  0
  130.1440  125.9680   65.6970 C   0  0  0  0  0  0  0  0  0  0  0  0
  130.8180  124.3500   65.8940 S   0  0  0  0  0  0  0  0  0  0  0  0
  130.6440  124.0270   64.1850 C   0  0  0  0  0  0  0  0  0  0  0  0
  130.9790  122.8500   63.6600 N   0  0  0  0  0  0  0  0  0  0  0  0
  130.7890  122.6930   62.3230 C   0  0  0  0  0  0  0  0  0  0  0  0
  131.1490  121.3550   61.7610 C   0  0  0  0  0  0  0  0  0  0  0  0
  130.2090  120.3200   61.7360 C   0  0  0  0  0  0  0  0  0  0  0  0
  130.5350  119.0700   61.2170 C   0  0  0  0  0  0  0  0  0  0  0  0
  131.8110  118.8130   60.6900 C   0  0  0  0  0  0  0  0  0  0  0  0
  132.1580  117.5570   60.1800 N   0  0  0  0  0  0  0  0  0  0  0  0
  132.8710  116.5630   61.0070 C   0  0  0  0  0  0  0  0  0  0  0  0
  133.4730  115.3950   60.1990 C   0  0  0  0  0  0  0  0  0  0  0  0
  132.4660  114.7770   59.4160 O   0  0  0  0  0  0  0  0  0  0  0  0
  131.8920  115.6890   58.4940 C   0  0  0  0  0  0  0  0  0  0  0  0
  131.2410  116.8680   59.2480 C   0  0  0  0  0  0  0  0  0  0  0  0
  132.7540  119.8510   60.7310 C   0  0  0  0  0  0  0  0  0  0  0  0
  132.4280  121.1000   61.2530 C   0  0  0  0  0  0  0  0  0  0  0  0
  130.2980  123.7210   61.5140 C   0  0  0  0  0  0  0  0  0  0  0  0
  129.9620  124.9660   62.0580 C   0  0  0  0  0  0  0  0  0  0  0  0
  129.4700  126.0340   61.1480 C   0  0  0  0  0  0  0  0  0  0  0  0
  130.3660  126.8100   60.4100 C   0  0  0  0  0  0  0  0  0  0  0  0
  129.8990  127.7960   59.5450 C   0  0  0  0  0  0  0  0  0  0  0  0
  128.5230  128.0210   59.3840 C   0  0  0  0  0  0  0  0  0  0  0  0
  128.0300  129.0100   58.5300 N   0  0  0  0  0  0  0  0  0  0  0  0
  126.8700  128.7030   57.6700 C   0  0  0  0  0  0  0  0  0  0  0  0
  126.1960  129.9630   57.0850 C   0  0  0  0  0  0  0  0  0  0  0  0
  127.1510  130.7460   56.3860 O   0  0  0  0  0  0  0  0  0  0  0  0
  128.2080  131.1670   57.2360 C   0  0  0  0  0  0  0  0  0  0  0  0
  128.9340  129.9360   57.8210 C   0  0  0  0  0  0  0  0  0  0  0  0
  127.6330  127.2360   60.1320 C   0  0  0  0  0  0  0  0  0  0  0  0
  128.1000  126.2520   60.9970 C   0  0  0  0  0  0  0  0  0  0  0  0
  130.1140  125.1380   63.4630 C   0  0  0  0  0  0  0  0  0  0  0  0
  129.8210  126.2250   64.3590 C   0  0  0  0  0  0  0  0  0  0  0  0
  129.2530  127.4010   63.9430 N   0  0  0  0  0  0  0  0  0  0  0  0
  128.1905  128.6587   68.4487 H   0  0  0  0  0  0  0  0  0  0  0  0
  128.9744  129.1563   66.9110 H   0  0  0  0  0  0  0  0  0  0  0  0
  127.2633  128.6098   66.9110 H   0  0  0  0  0  0  0  0  0  0  0  0
  129.1979  120.4960   62.1319 H   0  0  0  0  0  0  0  0  0  0  0  0
  129.7801  118.2699   61.2198 H   0  0  0  0  0  0  0  0  0  0  0  0
  133.6878  117.0750   61.5368 H   0  0  0  0  0  0  0  0  0  0  0  0
  132.1299  116.1280   61.6937 H   0  0  0  0  0  0  0  0  0  0  0  0
  134.2640  115.7789   59.5380 H   0  0  0  0  0  0  0  0  0  0  0  0
  133.8947  114.6545   60.8946 H   0  0  0  0  0  0  0  0  0  0  0  0
  132.6770  116.0735   57.8262 H   0  0  0  0  0  0  0  0  0  0  0  0
  131.1215  115.1688   57.9060 H   0  0  0  0  0  0  0  0  0  0  0  0
  130.8847  117.5993   58.5075 H   0  0  0  0  0  0  0  0  0  0  0  0
  130.4229  116.4499   59.8528 H   0  0  0  0  0  0  0  0  0  0  0  0
  133.7685  119.6751   60.3440 H   0  0  0  0  0  0  0  0  0  0  0  0
  133.1859  121.8971   61.2663 H   0  0  0  0  0  0  0  0  0  0  0  0
  130.1738  123.5494   60.4346 H   0  0  0  0  0  0  0  0  0  0  0  0
  131.4481  126.6412   60.5127 H   0  0  0  0  0  0  0  0  0  0  0  0
  130.6183  128.4070   58.9800 H   0  0  0  0  0  0  0  0  0  0  0  0
  127.2101  128.0699   56.8372 H   0  0  0  0  0  0  0  0  0  0  0  0
  126.1233  128.1945   58.2976 H   0  0  0  0  0  0  0  0  0  0  0  0
  125.3968  129.6600   56.3926 H   0  0  0  0  0  0  0  0  0  0  0  0
  125.7727  130.5596   57.9065 H   0  0  0  0  0  0  0  0  0  0  0  0
  128.9225  131.7711   56.6577 H   0  0  0  0  0  0  0  0  0  0  0  0
  127.7935  131.7679   58.0589 H   0  0  0  0  0  0  0  0  0  0  0  0
  129.4168  129.3906   56.9967 H   0  0  0  0  0  0  0  0  0  0  0  0
  129.6643  130.3060   58.5556 H   0  0  0  0  0  0  0  0  0  0  0  0
  126.5500  127.4011   60.0330 H   0  0  0  0  0  0  0  0  0  0  0  0
  127.3840  125.6411   61.5663 H   0  0  0  0  0  0  0  0  0  0  0  0
  128.2520  127.5380   63.9420 H   0  0  0  0  0  0  0  0  0  0  0  0
  129.8180  128.1760   63.6250 H   0  0  0  0  0  0  0  0  0  0  0  0
  1  2  1  0
  2  3  1  0
  3  4  2  0
  3  5  1  0
  5  6  1  0
  6  7  1  0
  7  8  2  0
  8  9  1  0
  9 10  1  0
 10 11  2  0
 11 12  1  0
 12 13  2  0
 13 14  1  0
 14 15  1  0
 15 16  1  0
 16 17  1  0
 17 18  1  0
 18 19  1  0
 13 20  1  0
 20 21  2  0
  9 22  2  0
 22 23  1  0
 23 24  1  0
 24 25  2  0
 25 26  1  0
 26 27  2  0
 27 28  1  0
 28 29  1  0
 29 30  1  0
 30 31  1  0
 31 32  1  0
 32 33  1  0
 27 34  1  0
 34 35  2  0
 23 36  2  0
 36 37  1  0
 37 38  1  0
 37  5  2  0
 36  7  1  0
 21 10  1  0
 35 24  1  0
 19 14  1  0
 33 28  1  0
  1 39  1  0
  1 40  1  0
  1 41  1  0
 11 42  1  0
 12 43  1  0
 15 44  1  0
 15 45  1  0
 16 46  1  0
 16 47  1  0
 18 48  1  0
 18 49  1  0
 19 50  1  0
 19 51  1  0
 20 52  1  0
 21 53  1  0
 22 54  1  0
 25 55  1  0
 26 56  1  0
 29 57  1  0
 29 58  1  0
 30 59  1  0
 30 60  1  0
 32 61  1  0
 32 62  1  0
 33 63  1  0
 33 64  1  0
 34 65  1  0
 35 66  1  0
 38 67  1  0
 38 68  1  0
M  END
>  <Binding energies>  (1) 
[-6.51]

>  <Ligand effiencies>  (1) 
[-0.16275]

>  <Interactions>  (1) 
["V-A:MET:535:CE:4833, H-A:TYR:539:OH:4876, V-A:TYR:539:CZ:4875, V-A:TYR:539:CE1:4873, V-B:ALA:541:CB:9864, V-A:LEU:475:CD2:4256, V-B:GLU:543:CD:9880, V-B:TYR:539:CE1:9847, V-B:TYR:539:CD1:9845, V-B:TYR:539:CG:9844, V-A:ILE:369:CG2:3234, H-A:TYR:484:OH:4345, V-A:TYR:484:CZ:4344, V-A:HIS:456:CE1:4066, V-A:GLU:543:CD:4906, H-A:GLU:543:OE2:4908, H-A:GLU:543:OE1:4907, V-B:HIS:456:CE1:9040, V-A:GLU:543:CB:4904, V-A:GLU:543:CG:4905, V-A:PRO:482:CG:4324, V-A:SER:385:CB:3406, V-A:PRO:482:CB:4323, V-A:SER:385:CA:3404, V-B:TYR:539:CB:9843, V-A:HIS:383:CG:3387, V-A:LEU:373:CD2:3278, V-B:GLU:543:CB:9878, V-B:GLU:543:CG:9879, V-A:HIS:383:CB:3386, V-A:LEU:373:CD1:3277, H-B:GLU:543:OE1:9881, H-B:GLU:543:OE2:9882, V-A:TYR:484:CE2:4343, V-A:VAL:384:C:3394, V-B:VAL:344:CG1:7972, V-B:ILE:343:CD1:7965, V-A:HIS:383:CD2:3389, H-A:HIS:383:ND1:3388"]

$$$$
RR10_Rahimova_2017
     RDKit          3D

 66 70  0  0  0  0  0  0  0  0999 V2000
  129.1260  132.4630   55.3870 C   0  0  0  0  0  0  0  0  0  0  0  0
  130.0170  132.6110   56.6330 C   0  0  1  0  0  0  0  0  0  0  0  0
  129.3000  132.1260   57.9150 C   0  0  0  0  0  0  0  0  0  0  0  0
  130.1990  132.3160   59.1570 C   0  0  0  0  0  0  0  0  0  0  0  0
  131.5530  131.5720   59.0190 C   0  0  1  0  0  0  0  0  0  0  0  0
  131.3520  130.1180   59.0430 N   0  0  0  0  0  0  0  0  0  0  0  0
  130.5030  129.4600   59.8550 C   0  0  0  0  0  0  0  0  0  0  0  0
  129.7740  130.0320   60.6690 O   0  0  0  0  0  0  0  0  0  0  0  0
  130.4840  127.9220   59.7410 C   0  0  1  0  0  0  0  0  0  0  0  0
  131.2590  127.4910   58.4680 C   0  0  0  0  0  0  0  0  0  0  0  0
  131.3220  125.9460   58.3990 C   0  0  0  0  0  0  0  0  0  0  0  0
  131.8580  125.3160   59.7050 C   0  0  0  0  0  0  0  0  0  0  0  0
  131.1060  125.8280   60.8830 N   0  0  0  0  0  0  0  0  0  0  0  0
  131.4280  124.9600   62.3930 S   0  0  0  0  0  0  0  0  0  0  0  0
  130.1390  124.6110   63.0020 O   0  0  0  0  0  0  0  0  0  0  0  0
  132.4210  125.7290   63.1530 O   0  0  0  0  0  0  0  0  0  0  0  0
  132.1940  123.4180   61.8900 C   0  0  0  0  0  0  0  0  0  0  0  0
  133.5840  123.3580   61.7500 C   0  0  0  0  0  0  0  0  0  0  0  0
  134.2420  122.1880   61.3590 C   0  0  0  0  0  0  0  0  0  0  0  0
  133.4380  121.0720   61.1150 C   0  0  0  0  0  0  0  0  0  0  0  0
  133.6950  119.7810   60.7190 N   0  0  0  0  0  0  0  0  0  0  0  0
  132.4910  119.1130   60.6380 C   0  0  0  0  0  0  0  0  0  0  0  0
  132.3640  117.6750   60.2270 C   0  0  0  0  0  0  0  0  0  0  0  0
  131.1390  117.1730   59.7650 C   0  0  0  0  0  0  0  0  0  0  0  0
  131.0210  115.8410   59.3800 C   0  0  0  0  0  0  0  0  0  0  0  0
  132.1290  115.0000   59.4550 C   0  0  0  0  0  0  0  0  0  0  0  0
  133.3530  115.4820   59.9100 C   0  0  0  0  0  0  0  0  0  0  0  0
  133.4690  116.8150   60.2960 C   0  0  0  0  0  0  0  0  0  0  0  0
  131.4770  119.8850   60.9610 N   0  0  0  0  0  0  0  0  0  0  0  0
  132.0300  121.1040   61.2570 C   0  0  0  0  0  0  0  0  0  0  0  0
  131.3980  122.2910   61.6540 C   0  0  0  0  0  0  0  0  0  0  0  0
  131.1340  127.3080   61.0050 C   0  0  0  0  0  0  0  0  0  0  0  0
  132.2520  132.0560   57.7200 C   0  0  0  0  0  0  0  0  0  0  0  0
  131.3590  131.8600   56.4740 C   0  0  0  0  0  0  0  0  0  0  0  0
  128.0854  132.2901   55.6988 H   0  0  0  0  0  0  0  0  0  0  0  0
  129.1807  133.3825   54.7858 H   0  0  0  0  0  0  0  0  0  0  0  0
  129.4750  131.6105   54.7858 H   0  0  0  0  0  0  0  0  0  0  0  0
  130.2265  133.6862   56.7335 H   0  0  0  0  0  0  0  0  0  0  0  0
  128.3736  132.7036   58.0496 H   0  0  0  0  0  0  0  0  0  0  0  0
  129.0737  131.0550   57.8064 H   0  0  0  0  0  0  0  0  0  0  0  0
  130.3967  133.3898   59.2904 H   0  0  0  0  0  0  0  0  0  0  0  0
  129.6695  131.8959   60.0248 H   0  0  0  0  0  0  0  0  0  0  0  0
  132.2063  131.8044   59.8729 H   0  0  0  0  0  0  0  0  0  0  0  0
  131.9900  129.5750   58.4810 H   0  0  0  0  0  0  0  0  0  0  0  0
  129.4472  127.5628   59.6634 H   0  0  0  0  0  0  0  0  0  0  0  0
  130.7428  127.8769   57.5765 H   0  0  0  0  0  0  0  0  0  0  0  0
  132.2803  127.8977   58.5059 H   0  0  0  0  0  0  0  0  0  0  0  0
  130.3094  125.5598   58.2108 H   0  0  0  0  0  0  0  0  0  0  0  0
  132.0152  125.6758   57.5888 H   0  0  0  0  0  0  0  0  0  0  0  0
  131.7451  124.2231   59.6516 H   0  0  0  0  0  0  0  0  0  0  0  0
  132.9186  125.5849   59.8182 H   0  0  0  0  0  0  0  0  0  0  0  0
  134.1790  124.2604   61.9541 H   0  0  0  0  0  0  0  0  0  0  0  0
  135.3358  122.1483   61.2492 H   0  0  0  0  0  0  0  0  0  0  0  0
  134.5840  119.3500   60.5080 H   0  0  0  0  0  0  0  0  0  0  0  0
  130.2643  117.8374   59.7064 H   0  0  0  0  0  0  0  0  0  0  0  0
  130.0571  115.4539   59.0180 H   0  0  0  0  0  0  0  0  0  0  0  0
  132.0359  113.9466   59.1522 H   0  0  0  0  0  0  0  0  0  0  0  0
  134.2246  114.8131   59.9644 H   0  0  0  0  0  0  0  0  0  0  0  0
  134.4353  117.1962   60.6579 H   0  0  0  0  0  0  0  0  0  0  0  0
  130.3058  122.3354   61.7767 H   0  0  0  0  0  0  0  0  0  0  0  0
  130.5708  127.6166   61.8981 H   0  0  0  0  0  0  0  0  0  0  0  0
  132.1729  127.6569   61.0997 H   0  0  0  0  0  0  0  0  0  0  0  0
  132.4896  133.1252   57.8219 H   0  0  0  0  0  0  0  0  0  0  0  0
  133.1641  131.4569   57.5817 H   0  0  0  0  0  0  0  0  0  0  0  0
  131.8856  132.2470   55.5891 H   0  0  0  0  0  0  0  0  0  0  0  0
  131.1492  130.7865   56.3575 H   0  0  0  0  0  0  0  0  0  0  0  0
  1  2  1  0
  2  3  1  0
  3  4  1  0
  4  5  1  0
  5  6  1  0
  6  7  1  0
  7  8  2  0
  7  9  1  0
  9 10  1  0
 10 11  1  0
 11 12  1  0
 12 13  1  0
 13 14  1  0
 14 15  2  0
 14 16  2  0
 14 17  1  0
 17 18  2  0
 18 19  1  0
 19 20  2  0
 20 21  1  0
 21 22  1  0
 22 23  1  0
 23 24  2  0
 24 25  1  0
 25 26  2  0
 26 27  1  0
 27 28  2  0
 22 29  2  0
 29 30  1  0
 30 31  2  0
 13 32  1  0
  5 33  1  0
 33 34  1  0
 34  2  1  0
 32  9  1  0
 31 17  1  0
 30 20  1  0
 28 23  1  0
  1 35  1  0
  1 36  1  0
  1 37  1  0
  2 38  1  1
  3 39  1  0
  3 40  1  0
  4 41  1  0
  4 42  1  0
  5 43  1  1
  6 44  1  0
  9 45  1  6
 10 46  1  0
 10 47  1  0
 11 48  1  0
 11 49  1  0
 12 50  1  0
 12 51  1  0
 18 52  1  0
 19 53  1  0
 21 54  1  0
 24 55  1  0
 25 56  1  0
 26 57  1  0
 27 58  1  0
 28 59  1  0
 31 60  1  0
 32 61  1  0
 32 62  1  0
 33 63  1  0
 33 64  1  0
 34 65  1  0
 34 66  1  0
M  END
>  <Binding energies>  (1) 
[-10.89]

>  <Ligand effiencies>  (1) 
[-0.3025]

>  <Interactions>  (1) 
["V-A:MET:535:CE:4833, V-A:TYR:539:CE2:4874, V-A:ASP:366:CG:3210, V-A:PRO:540:CB:4883, V-A:PRO:540:CA:4881, V-A:ASP:366:CB:3209, H-A:TYR:531:OH:4793, V-A:ILE:538:CA:4858, V-A:TYR:539:CE1:4873, V-A:TYR:539:CD2:4872, V-A:LEU:475:CD2:4256, V-B:TYR:539:CE1:9847, V-B:TYR:539:CD1:9845, V-A:TYR:539:CD1:4871, V-A:PRO:540:N:4882, V-A:TYR:539:C:4865, V-B:TYR:539:CG:9844, V-A:ILE:369:CD1:3236, V-A:ILE:369:CG1:3235, V-A:ILE:369:CG2:3234, V-A:PRO:540:CD:4885, H-A:ASP:366:OD2:3212, H-A:ARG:545:NH2:4926, V-A:PRO:482:CG:4324, V-A:SER:385:CB:3406, V-A:SER:385:CA:3404, V-B:TYR:539:CB:9843, V-A:HIS:383:CG:3387, V-A:LEU:373:CD2:3278, V-A:HIS:383:CB:3386, V-A:LEU:373:CD1:3277, V-A:VAL:384:C:3394, V-B:VAL:344:CG1:7972, V-A:SER:385:C:3402, V-A:HIS:383:CD2:3389, V-A:HIS:383:CE1:3391, H-A:SER:385:O:3403, H-A:VAL:384:O:3395"]

$$$$
RR11_Rahimova_2017
     RDKit          3D

 55 60  0  0  0  0  0  0  0  0999 V2000
  132.7100  115.4090   59.7050 N   0  0  0  0  0  0  0  0  0  0  0  0
  132.3030  116.6900   60.0750 C   0  0  0  0  0  0  0  0  0  0  0  0
  130.9500  116.9590   60.2670 C   0  0  0  0  0  0  0  0  0  0  0  0
  130.5450  118.2370   60.6390 C   0  0  0  0  0  0  0  0  0  0  0  0
  131.4870  119.2570   60.8230 C   0  0  0  0  0  0  0  0  0  0  0  0
  131.0490  120.6330   61.2300 C   0  0  0  0  0  0  0  0  0  0  0  0
  131.8100  121.4970   61.8670 N   0  0  0  0  0  0  0  0  0  0  0  0
  131.0330  122.6140   62.0270 C   0  0  0  0  0  0  0  0  0  0  0  0
  131.3530  123.8360   62.6340 C   0  0  0  0  0  0  0  0  0  0  0  0
  130.3800  124.8430   62.6560 C   0  0  0  0  0  0  0  0  0  0  0  0
  130.6970  126.1790   63.3150 C   0  0  0  0  0  0  0  0  0  0  0  0
  130.0700  127.3620   62.5900 C   0  0  0  0  0  0  0  0  0  0  0  0
  130.5220  127.7040   61.3110 C   0  0  0  0  0  0  0  0  0  0  0  0
  129.9720  128.7750   60.6020 C   0  0  0  0  0  0  0  0  0  0  0  0
  128.9390  129.5040   61.2050 C   0  0  0  0  0  0  0  0  0  0  0  0
  128.2480  130.5870   60.7270 N   0  0  0  0  0  0  0  0  0  0  0  0
  127.3910  130.8980   61.6760 C   0  0  0  0  0  0  0  0  0  0  0  0
  126.4220  132.0430   61.6030 C   0  0  0  0  0  0  0  0  0  0  0  0
  126.8840  133.3650   61.5870 C   0  0  0  0  0  0  0  0  0  0  0  0
  125.9860  134.4280   61.5300 C   0  0  0  0  0  0  0  0  0  0  0  0
  124.6170  134.1750   61.4880 C   0  0  0  0  0  0  0  0  0  0  0  0
  123.7160  135.2380   61.4350 N   0  0  0  0  0  0  0  0  0  0  0  0
  124.1430  132.8650   61.4980 C   0  0  0  0  0  0  0  0  0  0  0  0
  125.0420  131.8040   61.5550 C   0  0  0  0  0  0  0  0  0  0  0  0
  127.4900  130.0510   62.7590 N   0  0  0  0  0  0  0  0  0  0  0  0
  128.4830  129.1380   62.4930 C   0  0  0  0  0  0  0  0  0  0  0  0
  129.0250  128.0650   63.2050 C   0  0  0  0  0  0  0  0  0  0  0  0
  129.1120  124.6230   62.1070 C   0  0  0  0  0  0  0  0  0  0  0  0
  128.7610  123.4150   61.4990 C   0  0  0  0  0  0  0  0  0  0  0  0
  129.7460  122.4240   61.4700 C   0  0  0  0  0  0  0  0  0  0  0  0
  129.7940  121.1430   60.9720 N   0  0  0  0  0  0  0  0  0  0  0  0
  132.8450  118.9730   60.6250 C   0  0  0  0  0  0  0  0  0  0  0  0
  133.2530  117.6950   60.2530 C   0  0  0  0  0  0  0  0  0  0  0  0
  132.1120  114.8490   59.1130 H   0  0  0  0  0  0  0  0  0  0  0  0
  133.6150  115.0710   59.9980 H   0  0  0  0  0  0  0  0  0  0  0  0
  130.2038  116.1634   60.1249 H   0  0  0  0  0  0  0  0  0  0  0  0
  129.4760  118.4481   60.7899 H   0  0  0  0  0  0  0  0  0  0  0  0
  132.3441  124.0001   63.0821 H   0  0  0  0  0  0  0  0  0  0  0  0
  130.3181  126.1595   64.3475 H   0  0  0  0  0  0  0  0  0  0  0  0
  131.7883  126.3125   63.2813 H   0  0  0  0  0  0  0  0  0  0  0  0
  131.3301  127.1154   60.8523 H   0  0  0  0  0  0  0  0  0  0  0  0
  130.3396  129.0381   59.5992 H   0  0  0  0  0  0  0  0  0  0  0  0
  127.9651  133.5654   61.6197 H   0  0  0  0  0  0  0  0  0  0  0  0
  126.3566  135.4636   61.5182 H   0  0  0  0  0  0  0  0  0  0  0  0
  122.9370  135.2620   62.0780 H   0  0  0  0  0  0  0  0  0  0  0  0
  123.8720  135.9890   60.7780 H   0  0  0  0  0  0  0  0  0  0  0  0
  123.0611  132.6697   61.4609 H   0  0  0  0  0  0  0  0  0  0  0  0
  124.6665  130.7701   61.5624 H   0  0  0  0  0  0  0  0  0  0  0  0
  126.9140  130.1340   63.5840 H   0  0  0  0  0  0  0  0  0  0  0  0
  128.6496  127.7854   64.2004 H   0  0  0  0  0  0  0  0  0  0  0  0
  128.3653  125.4293   62.1558 H   0  0  0  0  0  0  0  0  0  0  0  0
  127.7628  123.2526   61.0663 H   0  0  0  0  0  0  0  0  0  0  0  0
  129.0720  120.6260   60.4930 H   0  0  0  0  0  0  0  0  0  0  0  0
  133.5944  119.7661   60.7646 H   0  0  0  0  0  0  0  0  0  0  0  0
  134.3207  117.4789   60.1001 H   0  0  0  0  0  0  0  0  0  0  0  0
  1  2  1  0
  2  3  2  0
  3  4  1  0
  4  5  2  0
  5  6  1  0
  6  7  2  0
  7  8  1  0
  8  9  2  0
  9 10  1  0
 10 11  1  0
 11 12  1  0
 12 13  2  0
 13 14  1  0
 14 15  2  0
 15 16  1  0
 16 17  2  0
 17 18  1  0
 18 19  2  0
 19 20  1  0
 20 21  2  0
 21 22  1  0
 21 23  1  0
 23 24  2  0
 17 25  1  0
 25 26  1  0
 26 27  2  0
 10 28  2  0
 28 29  1  0
 29 30  2  0
 30 31  1  0
  5 32  1  0
 32 33  2  0
 33  2  1  0
 31  6  1  0
 30  8  1  0
 27 12  1  0
 26 15  1  0
 24 18  1  0
  1 34  1  0
  1 35  1  0
  3 36  1  0
  4 37  1  0
  9 38  1  0
 11 39  1  0
 11 40  1  0
 13 41  1  0
 14 42  1  0
 19 43  1  0
 20 44  1  0
 22 45  1  0
 22 46  1  0
 23 47  1  0
 24 48  1  0
 25 49  1  0
 27 50  1  0
 28 51  1  0
 29 52  1  0
 31 53  1  0
 32 54  1  0
 33 55  1  0
M  END
>  <Binding energies>  (1) 
[-7.53]

>  <Ligand effiencies>  (1) 
[-0.1930769230769231]

>  <Interactions>  (1) 
["V-A:TYR:539:CE1:4873, V-B:ALA:541:CB:9864, V-A:LEU:475:CD2:4256, V-B:GLU:543:CD:9880, V-B:TYR:539:C:9839, V-B:TYR:539:CE1:9847, V-B:TYR:539:CD1:9845, V-A:TYR:539:CD1:4871, V-B:ILE:369:CD1:8210, V-B:ILE:369:CG2:8208, V-B:TYR:539:CG:9844, V-B:SER:385:CA:8378, V-B:LEU:475:CD2:9230, V-B:SER:385:CB:8380, V-B:LEU:373:CD1:8251, V-A:GLU:543:CD:4906, H-A:GLU:543:OE1:4907, H-B:TYR:539:O:9840, V-A:PRO:482:CG:4324, V-A:SER:385:CB:3406, V-A:PRO:482:CB:4323, V-A:SER:385:CA:3404, V-B:TYR:539:CB:9843, V-A:HIS:383:CG:3387, V-A:LEU:373:CD2:3278, V-A:HIS:383:CB:3386, V-A:LEU:373:CD1:3277, H-B:SER:385:O:8377, V-B:VAL:344:CG1:7972, V-B:SER:385:C:8376, V-A:HIS:383:CD2:3389, H-B:VAL:384:O:8369, H-A:HIS:383:NE2:3392"]

$$$$
RR11_Rahimova_2017-again1
     RDKit          3D

 56 61  0  0  0  0  0  0  0  0999 V2000
  133.1410  125.1120   55.9660 N   0  0  0  0  0  0  0  0  0  0  0  0
  131.9960  125.7930   56.3760 C   0  0  0  0  0  0  0  0  0  0  0  0
  131.9710  126.4250   57.6180 C   0  0  0  0  0  0  0  0  0  0  0  0
  130.8250  127.1030   58.0270 C   0  0  0  0  0  0  0  0  0  0  0  0
  129.6960  127.1530   57.2000 C   0  0  0  0  0  0  0  0  0  0  0  0
  128.4580  127.8770   57.6470 C   0  0  0  0  0  0  0  0  0  0  0  0
  127.4210  128.1180   56.8760 N   0  0  0  0  0  0  0  0  0  0  0  0
  126.5370  128.8090   57.6630 C   0  0  0  0  0  0  0  0  0  0  0  0
  125.2720  129.3170   57.3420 C   0  0  0  0  0  0  0  0  0  0  0  0
  124.5690  130.0060   58.3320 C   0  0  0  0  0  0  0  0  0  0  0  0
  125.0990  130.1940   59.6130 C   0  0  0  0  0  0  0  0  0  0  0  0
  124.2910  130.9560   60.6530 C   0  0  0  0  0  0  0  0  0  0  0  0
  124.9550  130.9610   62.0230 C   0  0  0  0  0  0  0  0  0  0  0  0
  125.2120  132.1800   62.6620 C   0  0  0  0  0  0  0  0  0  0  0  0
  125.8200  132.2470   63.9180 C   0  0  0  0  0  0  0  0  0  0  0  0
  126.1590  131.0300   64.5160 C   0  0  0  0  0  0  0  0  0  0  0  0
  126.7720  130.7310   65.7260 N   0  0  0  0  0  0  0  0  0  0  0  0
  126.8970  129.3680   65.8680 C   0  0  0  0  0  0  0  0  0  0  0  0
  127.5160  128.6380   67.0160 C   0  0  0  0  0  0  0  0  0  0  0  0
  128.8440  128.8940   67.3770 C   0  0  0  0  0  0  0  0  0  0  0  0
  129.4230  128.2230   68.4510 C   0  0  0  0  0  0  0  0  0  0  0  0
  128.6760  127.2910   69.1690 C   0  0  0  0  0  0  0  0  0  0  0  0
  129.2550  126.6230   70.2470 N   0  0  0  0  0  0  0  0  0  0  0  0
  127.3530  127.0280   68.8170 C   0  0  0  0  0  0  0  0  0  0  0  0
  126.7750  127.6990   67.7440 C   0  0  0  0  0  0  0  0  0  0  0  0
  126.3480  128.8080   64.7380 N   0  0  0  0  0  0  0  0  0  0  0  0
  125.8900  129.8030   63.8860 C   0  0  0  0  0  0  0  0  0  0  0  0
  125.2760  129.7410   62.6330 C   0  0  0  0  0  0  0  0  0  0  0  0
  126.3520  129.6740   59.9650 C   0  0  0  0  0  0  0  0  0  0  0  0
  127.0550  128.9930   58.9680 C   0  0  0  0  0  0  0  0  0  0  0  0
  128.2830  128.3770   58.9200 N   0  0  0  0  0  0  0  0  0  0  0  0
  129.7350  126.5140   55.9540 C   0  0  0  0  0  0  0  0  0  0  0  0
  130.8800  125.8370   55.5430 C   0  0  0  0  0  0  0  0  0  0  0  0
  134.0370  125.3720   56.3500 H   0  0  0  0  0  0  0  0  0  0  0  0
  133.0650  124.3930   55.2600 H   0  0  0  0  0  0  0  0  0  0  0  0
  132.8537  126.3885   58.2733 H   0  0  0  0  0  0  0  0  0  0  0  0
  130.8067  127.6028   59.0067 H   0  0  0  0  0  0  0  0  0  0  0  0
  124.8444  129.1771   56.3382 H   0  0  0  0  0  0  0  0  0  0  0  0
  123.5733  130.4113   58.0990 H   0  0  0  0  0  0  0  0  0  0  0  0
  124.1735  131.9961   60.3148 H   0  0  0  0  0  0  0  0  0  0  0  0
  123.3196  130.4502   60.7558 H   0  0  0  0  0  0  0  0  0  0  0  0
  124.9259  133.1153   62.1587 H   0  0  0  0  0  0  0  0  0  0  0  0
  126.0218  133.2091   64.4115 H   0  0  0  0  0  0  0  0  0  0  0  0
  127.1010  131.3810   66.4250 H   0  0  0  0  0  0  0  0  0  0  0  0
  129.4333  129.6291   66.8093 H   0  0  0  0  0  0  0  0  0  0  0  0
  130.4666  128.4279   68.7318 H   0  0  0  0  0  0  0  0  0  0  0  0
  129.5730  127.1510   71.0470 H   0  0  0  0  0  0  0  0  0  0  0  0
  129.3770  125.6220   70.2040 H   0  0  0  0  0  0  0  0  0  0  0  0
  126.7672  126.2914   69.3865 H   0  0  0  0  0  0  0  0  0  0  0  0
  125.7312  127.4909   67.4663 H   0  0  0  0  0  0  0  0  0  0  0  0
  126.3140  127.8100   64.5930 H   0  0  0  0  0  0  0  0  0  0  0  0
  125.0547  128.7790   62.1475 H   0  0  0  0  0  0  0  0  0  0  0  0
  126.7625  129.7963   60.9782 H   0  0  0  0  0  0  0  0  0  0  0  0
  128.9740  128.2870   59.6510 H   0  0  0  0  0  0  0  0  0  0  0  0
  128.8545  126.5474   55.2955 H   0  0  0  0  0  0  0  0  0  0  0  0
  130.9035  125.3380   54.5630 H   0  0  0  0  0  0  0  0  0  0  0  0
  1  2  1  0
  2  3  2  0
  3  4  1  0
  4  5  2  0
  5  6  1  0
  6  7  2  0
  7  8  1  0
  8  9  2  0
  9 10  1  0
 10 11  2  0
 11 12  1  0
 12 13  1  0
 13 14  2  0
 14 15  1  0
 15 16  2  0
 16 17  1  0
 17 18  1  0
 18 19  1  0
 19 20  2  0
 20 21  1  0
 21 22  2  0
 22 23  1  0
 22 24  1  0
 24 25  2  0
 18 26  2  0
 26 27  1  0
 27 28  2  0
 11 29  1  0
 29 30  2  0
 30 31  1  0
  5 32  1  0
 32 33  2  0
 33  2  1  0
 31  6  1  0
 30  8  1  0
 28 13  1  0
 27 16  1  0
 25 19  1  0
  1 34  1  0
  1 35  1  0
  3 36  1  0
  4 37  1  0
  9 38  1  0
 10 39  1  0
 12 40  1  0
 12 41  1  0
 14 42  1  0
 15 43  1  0
 17 44  1  0
 20 45  1  0
 21 46  1  0
 23 47  1  0
 23 48  1  0
 24 49  1  0
 25 50  1  0
 26 51  1  0
 28 52  1  0
 29 53  1  0
 31 54  1  0
 32 55  1  0
 33 56  1  0
M  CHG  1  26   1
M  END
>  <Binding energies>  (1) 
[-8.54]

>  <Ligand effiencies>  (1) 
[-0.21349999999999997]

>  <Interactions>  (1) 
["V-B:ASP:366:CG:8184, V-A:ASP:366:CG:3210, V-A:TYR:531:CZ:4792, V-A:ASP:366:CB:3209, V-B:ASP:366:CB:8183, H-B:TYR:531:OH:9767, V-B:MET:535:CE:9807, V-A:ASP:366:CA:3207, V-A:ASP:366:C:3205, V-B:GLU:543:CD:9880, V-B:TYR:539:CZ:9849, V-B:ARG:545:CZ:9898, H-B:TYR:539:OH:9850, V-B:LEU:475:CD2:9230, V-B:GLY:454:CA:9020, H-B:TYR:484:OH:9319, V-B:TYR:531:CZ:9766, V-A:HIS:456:CE1:4066, V-A:GLU:543:CD:4906, V-B:TYR:531:CE1:9764, V-B:HIS:456:CE1:9040, V-A:GLU:543:CB:4904, V-B:TYR:484:CZ:9318, V-B:TYR:484:CE2:9317, V-B:ARG:545:CG:9894, V-A:GLU:543:CG:4905, V-A:TYR:531:CE1:4790, V-B:ASP:366:CA:8181, V-B:GLU:543:CB:9878, V-B:GLU:543:CG:9879, H-A:ASP:366:O:3206, H-B:GLU:543:OE1:9881, H-B:GLU:543:OE2:9882, V-A:ASN:370:CB:3242, V-B:ASP:366:C:8179, V-B:GLU:543:C:9874, V-A:GLU:543:C:4900, V-A:HIS:456:CD2:4065, V-A:ASN:370:CG:3243, H-B:GLU:543:O:9875, H-A:GLU:543:O:4901, V-A:ASN:370:CA:3240"]

$$$$
RR11_Rahimova_2017-again2
     RDKit          3D

 57 62  0  0  0  0  0  0  0  0999 V2000
  124.1390  130.3540   56.4180 N   0  0  0  0  0  0  0  0  0  0  0  0
  125.3110  129.6540   56.6980 C   0  0  0  0  0  0  0  0  0  0  0  0
  126.3390  129.6180   55.7590 C   0  0  0  0  0  0  0  0  0  0  0  0
  127.5080  128.9140   56.0370 C   0  0  0  0  0  0  0  0  0  0  0  0
  127.6540  128.2410   57.2560 C   0  0  0  0  0  0  0  0  0  0  0  0
  128.9040  127.4770   57.5510 C   0  0  0  0  0  0  0  0  0  0  0  0
  129.2700  126.9320   58.7610 N   0  0  0  0  0  0  0  0  0  0  0  0
  130.4890  126.2780   58.6400 C   0  0  0  0  0  0  0  0  0  0  0  0
  131.2610  125.5720   59.5660 C   0  0  0  0  0  0  0  0  0  0  0  0
  132.4550  125.0080   59.0990 C   0  0  0  0  0  0  0  0  0  0  0  0
  133.3360  124.2230   60.0610 C   0  0  0  0  0  0  0  0  0  0  0  0
  132.7620  124.1600   61.4690 C   0  0  0  0  0  0  0  0  0  0  0  0
  132.4540  122.9170   62.0340 C   0  0  0  0  0  0  0  0  0  0  0  0
  131.9250  122.7960   63.3210 C   0  0  0  0  0  0  0  0  0  0  0  0
  131.7200  123.9830   64.0290 C   0  0  0  0  0  0  0  0  0  0  0  0
  131.2120  124.2270   65.2970 N   0  0  0  0  0  0  0  0  0  0  0  0
  131.2020  125.5790   65.5510 C   0  0  0  0  0  0  0  0  0  0  0  0
  130.7170  126.2560   66.7920 C   0  0  0  0  0  0  0  0  0  0  0  0
  129.4670  125.9310   67.3310 C   0  0  0  0  0  0  0  0  0  0  0  0
  129.0200  126.5530   68.4930 C   0  0  0  0  0  0  0  0  0  0  0  0
  129.8210  127.5050   69.1220 C   0  0  0  0  0  0  0  0  0  0  0  0
  129.3760  128.1240   70.2890 N   0  0  0  0  0  0  0  0  0  0  0  0
  131.0650  127.8390   68.5910 C   0  0  0  0  0  0  0  0  0  0  0  0
  131.5130  127.2160   67.4300 C   0  0  0  0  0  0  0  0  0  0  0  0
  131.7170  126.1870   64.4300 N   0  0  0  0  0  0  0  0  0  0  0  0
  132.0400  125.2330   63.4740 C   0  0  0  0  0  0  0  0  0  0  0  0
  132.5750  125.3480   62.1880 C   0  0  0  0  0  0  0  0  0  0  0  0
  132.8630  125.1750   57.7700 C   0  0  0  0  0  0  0  0  0  0  0  0
  132.0980  125.8850   56.8410 C   0  0  0  0  0  0  0  0  0  0  0  0
  130.8980  126.4300   57.3050 C   0  0  0  0  0  0  0  0  0  0  0  0
  129.9100  127.1670   56.6660 N   0  0  0  0  0  0  0  0  0  0  0  0
  126.6160  128.2870   58.1950 C   0  0  0  0  0  0  0  0  0  0  0  0
  125.4480  128.9920   57.9170 C   0  0  0  0  0  0  0  0  0  0  0  0
  124.1650  131.1280   55.7700 H   0  0  0  0  0  0  0  0  0  0  0  0
  123.2900  130.1230   56.9140 H   0  0  0  0  0  0  0  0  0  0  0  0
  126.2278  130.1446   54.7997 H   0  0  0  0  0  0  0  0  0  0  0  0
  128.3202  128.8866   55.2956 H   0  0  0  0  0  0  0  0  0  0  0  0
  128.6970  127.0170   59.5870 H   0  0  0  0  0  0  0  0  0  0  0  0
  130.9455  125.4640   60.6142 H   0  0  0  0  0  0  0  0  0  0  0  0
  133.4452  123.1970   59.6798 H   0  0  0  0  0  0  0  0  0  0  0  0
  134.3043  124.7414   60.1211 H   0  0  0  0  0  0  0  0  0  0  0  0
  132.6345  122.0056   61.4452 H   0  0  0  0  0  0  0  0  0  0  0  0
  131.6819  121.8151   63.7555 H   0  0  0  0  0  0  0  0  0  0  0  0
  130.8820  123.5490   65.9680 H   0  0  0  0  0  0  0  0  0  0  0  0
  128.8349  125.1804   66.8339 H   0  0  0  0  0  0  0  0  0  0  0  0
  128.0373  126.2941   68.9140 H   0  0  0  0  0  0  0  0  0  0  0  0
  129.0020  129.0600   70.2450 H   0  0  0  0  0  0  0  0  0  0  0  0
  129.4930  127.6550   71.1760 H   0  0  0  0  0  0  0  0  0  0  0  0
  131.6919  128.5937   69.0885 H   0  0  0  0  0  0  0  0  0  0  0  0
  132.4959  127.4784   67.0117 H   0  0  0  0  0  0  0  0  0  0  0  0
  131.8190  127.1900   64.3570 H   0  0  0  0  0  0  0  0  0  0  0  0
  132.8373  126.3267   61.7598 H   0  0  0  0  0  0  0  0  0  0  0  0
  133.8169  124.7328   57.4467 H   0  0  0  0  0  0  0  0  0  0  0  0
  132.4238  126.0086   55.7977 H   0  0  0  0  0  0  0  0  0  0  0  0
  129.8850  127.4540   55.6980 H   0  0  0  0  0  0  0  0  0  0  0  0
  126.7240  127.7638   59.1565 H   0  0  0  0  0  0  0  0  0  0  0  0
  124.6353  129.0265   58.6575 H   0  0  0  0  0  0  0  0  0  0  0  0
  1  2  1  0
  2  3  2  0
  3  4  1  0
  4  5  2  0
  5  6  1  0
  6  7  1  0
  7  8  1  0
  8  9  2  0
  9 10  1  0
 10 11  1  0
 11 12  1  0
 12 13  2  0
 13 14  1  0
 14 15  2  0
 15 16  1  0
 16 17  1  0
 17 18  1  0
 18 19  2  0
 19 20  1  0
 20 21  2  0
 21 22  1  0
 21 23  1  0
 23 24  2  0
 17 25  2  0
 25 26  1  0
 26 27  2  0
 10 28  2  0
 28 29  1  0
 29 30  2  0
 30 31  1  0
  5 32  1  0
 32 33  2  0
 33  2  1  0
 31  6  2  0
 30  8  1  0
 27 12  1  0
 26 15  1  0
 24 18  1  0
  1 34  1  0
  1 35  1  0
  3 36  1  0
  4 37  1  0
  7 38  1  0
  9 39  1  0
 11 40  1  0
 11 41  1  0
 13 42  1  0
 14 43  1  0
 16 44  1  0
 19 45  1  0
 20 46  1  0
 22 47  1  0
 22 48  1  0
 23 49  1  0
 24 50  1  0
 25 51  1  0
 27 52  1  0
 28 53  1  0
 29 54  1  0
 31 55  1  0
 32 56  1  0
 33 57  1  0
M  CHG  2  25   1  31   1
M  END
>  <Binding energies>  (1) 
[-8.51]

>  <Ligand effiencies>  (1) 
[-0.2075609756097561]

>  <Interactions>  (1) 
["V-A:MET:535:CE:4833, V-B:ASP:366:CG:8184, V-A:ASP:366:CG:3210, V-A:TYR:531:CZ:4792, H-A:TYR:539:OH:4876, H-B:ASP:366:O:8180, V-A:ASP:366:CB:3209, H-A:TYR:531:OH:4793, V-A:TYR:539:CZ:4875, V-B:ASP:366:CB:8183, V-B:MET:535:CE:9807, V-A:ASP:366:CA:3207, V-A:LEU:475:CD2:4256, V-B:GLU:543:CD:9880, V-B:TYR:539:CZ:9849, H-A:TYR:484:OH:4345, V-B:TYR:531:CZ:9766, V-A:TYR:484:CZ:4344, V-A:ARG:545:CG:4920, V-A:HIS:456:CE1:4066, V-A:ARG:545:CZ:4924, V-A:GLU:543:CD:4906, H-A:GLU:543:OE2:4908, V-B:TYR:531:CE1:9764, V-B:HIS:456:CE1:9040, V-A:GLU:543:CB:4904, V-A:GLU:543:CG:4905, V-A:TYR:531:CE1:4790, V-B:ASN:370:CG:8217, V-B:ASP:366:CA:8181, V-B:ASN:370:CB:8216, V-B:GLU:543:CB:9878, V-B:GLU:543:CG:9879, H-B:GLU:543:OE1:9881, V-A:TYR:484:CE2:4343, V-B:ASP:366:C:8179, H-A:MET:535:SD:4832, V-B:HIS:456:CD2:9039, V-B:GLU:543:C:9874, V-A:GLU:543:C:4900, H-A:GLU:543:O:4901, V-B:ASN:370:CA:8214"]

$$$$
RR12_Rahimova_2017
     RDKit          3D

 51 53  0  0  0  0  0  0  0  0999 V2000
  124.5490  123.1270   62.3530 C   0  0  0  0  0  0  0  0  0  0  0  0
  124.8470  123.6510   60.9420 C   0  0  0  0  0  0  0  0  0  0  0  0
  126.1900  124.3990   60.8600 C   0  0  0  0  0  0  0  0  0  0  0  0
  127.0540  123.8010   59.8450 N   0  0  0  0  0  0  0  0  0  0  0  0
  128.3440  123.3200   60.0110 C   0  0  0  0  0  0  0  0  0  0  0  0
  129.1100  123.3830   61.3210 C   0  0  0  0  0  0  0  0  0  0  0  0
  130.3940  122.5340   61.2910 C   0  0  0  0  0  0  0  0  0  0  0  0
  130.1080  121.0280   61.1420 C   0  0  0  0  0  0  0  0  0  0  0  0
  131.3100  120.1950   61.1510 N   0  0  0  0  0  0  0  0  0  0  0  0
  132.5240  120.5860   60.7200 C   0  0  0  0  0  0  0  0  0  0  0  0
  132.7480  121.7080   60.2620 O   0  0  0  0  0  0  0  0  0  0  0  0
  133.6390  119.5390   60.8380 C   0  0  0  0  0  0  0  0  0  0  0  0
  133.1010  118.3270   61.3680 O   0  0  0  0  0  0  0  0  0  0  0  0
  132.7100  117.3240   60.5020 C   0  0  0  0  0  0  0  0  0  0  0  0
  131.3590  117.3020   60.1470 C   0  0  0  0  0  0  0  0  0  0  0  0
  130.8720  116.3310   59.2770 C   0  0  0  0  0  0  0  0  0  0  0  0
  131.7390  115.3750   58.7560 C   0  0  0  0  0  0  0  0  0  0  0  0
  133.0890  115.3800   59.1010 C   0  0  0  0  0  0  0  0  0  0  0  0
  133.5750  116.3520   59.9730 C   0  0  0  0  0  0  0  0  0  0  0  0
  128.8550  122.8140   58.9150 N   0  0  0  0  0  0  0  0  0  0  0  0
  127.8660  122.9340   57.9790 C   0  0  0  0  0  0  0  0  0  0  0  0
  127.8730  122.5400   56.6320 C   0  0  0  0  0  0  0  0  0  0  0  0
  126.7230  122.7670   55.8750 C   0  0  0  0  0  0  0  0  0  0  0  0
  125.5950  123.3690   56.4330 C   0  0  0  0  0  0  0  0  0  0  0  0
  125.5570  123.7740   57.7690 C   0  0  0  0  0  0  0  0  0  0  0  0
  126.7120  123.5460   58.5290 C   0  0  0  0  0  0  0  0  0  0  0  0
  124.9493  123.8308   63.0976 H   0  0  0  0  0  0  0  0  0  0  0  0
  123.4613  123.0313   62.4865 H   0  0  0  0  0  0  0  0  0  0  0  0
  125.0228  122.1433   62.4865 H   0  0  0  0  0  0  0  0  0  0  0  0
  124.8759  122.7979   60.2481 H   0  0  0  0  0  0  0  0  0  0  0  0
  124.0520  124.3633   60.6762 H   0  0  0  0  0  0  0  0  0  0  0  0
  126.0019  125.4510   60.5995 H   0  0  0  0  0  0  0  0  0  0  0  0
  126.6924  124.3310   61.8362 H   0  0  0  0  0  0  0  0  0  0  0  0
  129.3831  124.4297   61.5206 H   0  0  0  0  0  0  0  0  0  0  0  0
  128.4589  122.9790   62.1102 H   0  0  0  0  0  0  0  0  0  0  0  0
  131.0119  122.8605   60.4415 H   0  0  0  0  0  0  0  0  0  0  0  0
  130.9113  122.6804   62.2507 H   0  0  0  0  0  0  0  0  0  0  0  0
  129.4620  120.7136   61.9750 H   0  0  0  0  0  0  0  0  0  0  0  0
  129.6289  120.8884   60.1617 H   0  0  0  0  0  0  0  0  0  0  0  0
  131.2040  119.2600   61.5170 H   0  0  0  0  0  0  0  0  0  0  0  0
  134.0671  119.3458   59.8433 H   0  0  0  0  0  0  0  0  0  0  0  0
  134.4251  119.9151   61.5093 H   0  0  0  0  0  0  0  0  0  0  0  0
  130.6745  118.0584   60.5585 H   0  0  0  0  0  0  0  0  0  0  0  0
  129.8069  116.3192   59.0024 H   0  0  0  0  0  0  0  0  0  0  0  0
  131.3553  114.6090   58.0661 H   0  0  0  0  0  0  0  0  0  0  0  0
  133.7679  114.6201   58.6868 H   0  0  0  0  0  0  0  0  0  0  0  0
  134.6400  116.3582   60.2481 H   0  0  0  0  0  0  0  0  0  0  0  0
  128.7596  122.0658   56.1858 H   0  0  0  0  0  0  0  0  0  0  0  0
  126.7055  122.4653   54.8173 H   0  0  0  0  0  0  0  0  0  0  0  0
  124.7087  123.5295   55.8016 H   0  0  0  0  0  0  0  0  0  0  0  0
  124.6646  124.2485   58.2032 H   0  0  0  0  0  0  0  0  0  0  0  0
  1  2  1  0
  2  3  1  0
  3  4  1  0
  4  5  1  0
  5  6  1  0
  6  7  1  0
  7  8  1  0
  8  9  1  0
  9 10  1  0
 10 11  2  0
 10 12  1  0
 12 13  1  0
 13 14  1  0
 14 15  2  0
 15 16  1  0
 16 17  2  0
 17 18  1  0
 18 19  2  0
  5 20  2  0
 20 21  1  0
 21 22  2  0
 22 23  1  0
 23 24  2  0
 24 25  1  0
 25 26  2  0
 26  4  1  0
 19 14  1  0
 26 21  1  0
  1 27  1  0
  1 28  1  0
  1 29  1  0
  2 30  1  0
  2 31  1  0
  3 32  1  0
  3 33  1  0
  6 34  1  0
  6 35  1  0
  7 36  1  0
  7 37  1  0
  8 38  1  0
  8 39  1  0
  9 40  1  0
 12 41  1  0
 12 42  1  0
 15 43  1  0
 16 44  1  0
 17 45  1  0
 18 46  1  0
 19 47  1  0
 22 48  1  0
 23 49  1  0
 24 50  1  0
 25 51  1  0
M  END
>  <Binding energies>  (1) 
[-7.83]

>  <Ligand effiencies>  (1) 
[-0.29]

>  <Interactions>  (1) 
["V-B:PRO:540:CA:9855, V-B:ALA:541:CB:9864, V-B:PRO:540:CB:9857, V-B:ALA:541:C:9860, V-B:MET:535:CE:9807, V-B:ASN:362:CB:8147, V-B:ILE:538:CG2:9835, V-B:ILE:538:CB:9834, V-B:ILE:538:CA:9832, V-B:PRO:540:N:9856, V-A:LEU:475:CD2:4256, V-B:TYR:539:C:9839, V-B:TYR:539:CE1:9847, V-B:TYR:539:CD1:9845, V-B:PRO:540:C:9853, V-B:TYR:539:CG:9844, V-B:TYR:531:CE2:9765, V-A:ILE:369:CG2:3234, V-B:TYR:539:CA:9841, H-B:TYR:539:O:9840, V-B:ILE:538:C:9830, V-B:TYR:539:CD2:9846, V-A:PRO:482:CG:4324, V-A:SER:385:CB:3406, V-A:SER:385:CA:3404, V-B:TYR:539:CB:9843, V-A:HIS:383:CG:3387, V-A:LEU:373:CD2:3278, V-A:HIS:383:CB:3386, V-A:LEU:373:CD1:3277, V-A:VAL:384:C:3394, V-B:VAL:344:CG1:7972, V-A:SER:385:C:3402, V-A:HIS:383:CA:3384, V-B:ILE:343:CD1:7965, V-A:HIS:383:CD2:3389, V-A:HIS:383:CE1:3391, V-B:ASN:362:CG:8148"]

$$$$
RR13_Rahimova_2017
     RDKit          3D

 84 90  0  0  0  0  0  0  0  0999 V2000
  127.7050  123.3590   60.1370 Cl  0  0  0  0  0  0  0  0  0  0  0  0
  128.0920  123.3520   58.4490 C   0  0  0  0  0  0  0  0  0  0  0  0
  127.3110  122.5590   57.6060 C   0  0  0  0  0  0  0  0  0  0  0  0
  127.5850  122.4940   56.2420 C   0  0  0  0  0  0  0  0  0  0  0  0
  128.6480  123.2210   55.7130 C   0  0  0  0  0  0  0  0  0  0  0  0
  129.4320  124.0150   56.5480 C   0  0  0  0  0  0  0  0  0  0  0  0
  129.1640  124.1030   57.9230 C   0  0  0  0  0  0  0  0  0  0  0  0
  130.0630  124.9700   58.8320 C   0  0  1  0  0  0  0  0  0  0  0  0
  131.5490  124.7430   58.5150 C   0  0  0  0  0  0  0  0  0  0  0  0
  132.2020  125.1770   57.4590 N   0  0  0  0  0  0  0  0  0  0  0  0
  133.5040  124.7050   57.5950 N   0  0  0  0  0  0  0  0  0  0  0  0
  133.6190  123.9580   58.7510 N   0  0  0  0  0  0  0  0  0  0  0  0
  132.3940  123.9760   59.2880 N   0  0  0  0  0  0  0  0  0  0  0  0
  132.1360  123.3110   60.5600 C   0  0  0  0  0  0  0  0  0  0  0  0
  133.1300  122.1520   60.7670 C   0  0  0  0  0  0  0  0  0  0  0  0
  132.4300  120.8050   60.8610 C   0  0  0  0  0  0  0  0  0  0  0  0
  133.1140  119.6380   60.5130 C   0  0  0  0  0  0  0  0  0  0  0  0
  132.4700  118.4060   60.5920 C   0  0  0  0  0  0  0  0  0  0  0  0
  131.1440  118.3460   61.0180 C   0  0  0  0  0  0  0  0  0  0  0  0
  130.4570  119.5060   61.3650 C   0  0  0  0  0  0  0  0  0  0  0  0
  131.1000  120.7390   61.2860 C   0  0  0  0  0  0  0  0  0  0  0  0
  129.6970  126.4060   58.8270 N   0  0  0  0  0  0  0  0  0  0  0  0
  128.9090  126.7430   60.0270 C   0  0  0  0  0  0  0  0  0  0  0  0
  128.6380  128.2640   60.0960 C   0  0  0  0  0  0  0  0  0  0  0  0
  127.8630  128.7070   58.9250 N   0  0  0  0  0  0  0  0  0  0  0  0
  127.5090  130.1440   58.9900 C   0  0  1  0  0  0  0  0  0  0  0  0
  128.3460  131.0780   58.0870 C   0  0  0  0  0  0  0  0  0  0  0  0
  127.8940  131.2730   56.7750 C   0  0  0  0  0  0  0  0  0  0  0  0
  128.5770  132.1120   55.8950 C   0  0  0  0  0  0  0  0  0  0  0  0
  129.7310  132.7670   56.3160 C   0  0  0  0  0  0  0  0  0  0  0  0
  130.2050  132.5740   57.6100 C   0  0  0  0  0  0  0  0  0  0  0  0
  129.5310  131.7320   58.4980 C   0  0  0  0  0  0  0  0  0  0  0  0
  130.2390  131.5040   60.0620 Cl  0  0  0  0  0  0  0  0  0  0  0  0
  126.0170  130.4060   58.7760 C   0  0  0  0  0  0  0  0  0  0  0  0
  125.2960  129.9420   57.7810 N   0  0  0  0  0  0  0  0  0  0  0  0
  124.0040  130.4100   57.9950 N   0  0  0  0  0  0  0  0  0  0  0  0
  123.9560  131.1570   59.1540 N   0  0  0  0  0  0  0  0  0  0  0  0
  125.2060  131.1230   59.6310 N   0  0  0  0  0  0  0  0  0  0  0  0
  125.5390  131.8380   60.8590 C   0  0  0  0  0  0  0  0  0  0  0  0
  124.5410  132.9860   61.0990 C   0  0  0  0  0  0  0  0  0  0  0  0
  125.2380  134.3290   61.2490 C   0  0  0  0  0  0  0  0  0  0  0  0
  124.5240  135.5130   61.0430 C   0  0  0  0  0  0  0  0  0  0  0  0
  125.1610  136.7430   61.1870 C   0  0  0  0  0  0  0  0  0  0  0  0
  126.5100  136.7850   61.5360 C   0  0  0  0  0  0  0  0  0  0  0  0
  127.2270  135.6080   61.7430 C   0  0  0  0  0  0  0  0  0  0  0  0
  126.5910  134.3780   61.6000 C   0  0  0  0  0  0  0  0  0  0  0  0
  128.6570  128.3730   57.7280 C   0  0  0  0  0  0  0  0  0  0  0  0
  128.9160  126.8500   57.6590 C   0  0  0  0  0  0  0  0  0  0  0  0
  126.4728  121.9811   58.0224 H   0  0  0  0  0  0  0  0  0  0  0  0
  126.9628  121.8695   55.5840 H   0  0  0  0  0  0  0  0  0  0  0  0
  128.8689  123.1687   54.6367 H   0  0  0  0  0  0  0  0  0  0  0  0
  130.2737  124.5814   56.1230 H   0  0  0  0  0  0  0  0  0  0  0  0
  129.8842  124.6338   59.8640 H   0  0  0  0  0  0  0  0  0  0  0  0
  132.2489  124.0369   61.3787 H   0  0  0  0  0  0  0  0  0  0  0  0
  131.1124  122.9084   60.5529 H   0  0  0  0  0  0  0  0  0  0  0  0
  133.8295  122.1293   59.9184 H   0  0  0  0  0  0  0  0  0  0  0  0
  133.6580  122.3253   61.7163 H   0  0  0  0  0  0  0  0  0  0  0  0
  134.1600  119.6921   60.1770 H   0  0  0  0  0  0  0  0  0  0  0  0
  133.0051  117.4843   60.3195 H   0  0  0  0  0  0  0  0  0  0  0  0
  130.6356  117.3726   61.0806 H   0  0  0  0  0  0  0  0  0  0  0  0
  129.4108  119.4491   61.7001 H   0  0  0  0  0  0  0  0  0  0  0  0
  130.5621  121.6593   61.5576 H   0  0  0  0  0  0  0  0  0  0  0  0
  127.9492  126.2069   59.9906 H   0  0  0  0  0  0  0  0  0  0  0  0
  129.4798  126.4455   60.9190 H   0  0  0  0  0  0  0  0  0  0  0  0
  128.0704  128.4887   61.0110 H   0  0  0  0  0  0  0  0  0  0  0  0
  129.6011  128.7953   60.1049 H   0  0  0  0  0  0  0  0  0  0  0  0
  127.7715  130.4061   60.0256 H   0  0  0  0  0  0  0  0  0  0  0  0
  126.9853  130.7557   56.4335 H   0  0  0  0  0  0  0  0  0  0  0  0
  128.2045  132.2560   54.8700 H   0  0  0  0  0  0  0  0  0  0  0  0
  130.2673  133.4360   55.6269 H   0  0  0  0  0  0  0  0  0  0  0  0
  131.1199  133.0897   57.9371 H   0  0  0  0  0  0  0  0  0  0  0  0
  125.4986  131.1393   61.7076 H   0  0  0  0  0  0  0  0  0  0  0  0
  126.5509  132.2588   60.7638 H   0  0  0  0  0  0  0  0  0  0  0  0
  123.8494  133.0389   60.2452 H   0  0  0  0  0  0  0  0  0  0  0  0
  124.0039  132.7770   62.0359 H   0  0  0  0  0  0  0  0  0  0  0  0
  123.4598  135.4732   60.7674 H   0  0  0  0  0  0  0  0  0  0  0  0
  124.6024  137.6769   61.0261 H   0  0  0  0  0  0  0  0  0  0  0  0
  127.0134  137.7565   61.6491 H   0  0  0  0  0  0  0  0  0  0  0  0
  128.2911  135.6508   62.0183 H   0  0  0  0  0  0  0  0  0  0  0  0
  127.1518  133.4458   61.7628 H   0  0  0  0  0  0  0  0  0  0  0  0
  128.1069  128.6880   56.8290 H   0  0  0  0  0  0  0  0  0  0  0  0
  129.6229  128.8965   57.7837 H   0  0  0  0  0  0  0  0  0  0  0  0
  127.9526  126.3192   57.6447 H   0  0  0  0  0  0  0  0  0  0  0  0
  129.4854  126.6270   56.7446 H   0  0  0  0  0  0  0  0  0  0  0  0
  1  2  1  0
  2  3  2  0
  3  4  1  0
  4  5  2  0
  5  6  1  0
  6  7  2  0
  7  8  1  0
  8  9  1  0
  9 10  2  0
 10 11  1  0
 11 12  2  0
 12 13  1  0
 13 14  1  0
 14 15  1  0
 15 16  1  0
 16 17  2  0
 17 18  1  0
 18 19  2  0
 19 20  1  0
 20 21  2  0
  8 22  1  0
 22 23  1  0
 23 24  1  0
 24 25  1  0
 25 26  1  0
 26 27  1  0
 27 28  2  0
 28 29  1  0
 29 30  2  0
 30 31  1  0
 31 32  2  0
 32 33  1  0
 26 34  1  0
 34 35  2  0
 35 36  1  0
 36 37  2  0
 37 38  1  0
 38 39  1  0
 39 40  1  0
 40 41  1  0
 41 42  2  0
 42 43  1  0
 43 44  2  0
 44 45  1  0
 45 46  2  0
 25 47  1  0
 47 48  1  0
  7  2  1  0
 13  9  1  0
 21 16  1  0
 48 22  1  0
 32 27  1  0
 38 34  1  0
 46 41  1  0
  3 49  1  0
  4 50  1  0
  5 51  1  0
  6 52  1  0
  8 53  1  1
 14 54  1  0
 14 55  1  0
 15 56  1  0
 15 57  1  0
 17 58  1  0
 18 59  1  0
 19 60  1  0
 20 61  1  0
 21 62  1  0
 23 63  1  0
 23 64  1  0
 24 65  1  0
 24 66  1  0
 26 67  1  1
 28 68  1  0
 29 69  1  0
 30 70  1  0
 31 71  1  0
 39 72  1  0
 39 73  1  0
 40 74  1  0
 40 75  1  0
 42 76  1  0
 43 77  1  0
 44 78  1  0
 45 79  1  0
 46 80  1  0
 47 81  1  0
 47 82  1  0
 48 83  1  0
 48 84  1  0
M  END
>  <Binding energies>  (1) 
[-15.34]

>  <Ligand effiencies>  (1) 
[-0.31958333333333333]

>  <Interactions>  (1) 
["V-A:MET:535:CE:4833, V-A:TYR:539:CE2:4874, H-A:TYR:539:OH:4876, V-A:PRO:540:CA:4881, V-A:ILE:538:CA:4858, V-A:TYR:539:CZ:4875, V-A:TYR:539:CE1:4873, V-A:TYR:539:CD2:4872, V-B:PRO:540:CA:9855, V-B:ALA:541:CB:9864, V-B:MET:535:CE:9807, V-B:ILE:538:CB:9834, V-B:ILE:538:CA:9832, V-B:PRO:540:N:9856, V-A:LEU:475:CD2:4256, V-B:TYR:539:C:9839, V-B:TYR:539:CE1:9847, V-B:TYR:539:CD1:9845, V-A:TYR:539:CD1:4871, V-A:ALA:541:CB:4890, V-A:PRO:540:N:4882, V-A:TYR:539:C:4865, V-B:ILE:369:CG2:8208, V-B:TYR:539:CZ:9849, V-A:ILE:369:CG2:3234, H-B:TYR:539:OH:9850, V-B:PRO:482:CB:9297, V-B:SER:385:CA:8378, V-B:PRO:482:CG:9298, V-B:LEU:475:CD2:9230, V-B:SER:385:CB:8380, V-B:LEU:373:CD1:8251, V-A:ILE:538:C:4856, V-B:TYR:539:CE2:9848, V-B:TYR:539:CA:9841, V-B:ILE:538:C:9830, V-B:TYR:539:CD2:9846, V-A:PRO:482:CG:4324, V-A:SER:385:CB:3406, V-A:PRO:482:CB:4323, V-A:SER:385:CA:3404, V-A:LEU:373:CD1:3277"]

$$$$
RR14_Rahimova_2017
     RDKit          3D

 76 80  0  0  0  0  0  0  0  0999 V2000
  126.2630  138.8840   60.1190 C   0  0  0  0  0  0  0  0  0  0  0  0
  126.8010  137.9090   61.0070 O   0  0  0  0  0  0  0  0  0  0  0  0
  126.1120  136.7290   61.2070 C   0  0  0  0  0  0  0  0  0  0  0  0
  126.8760  135.6110   61.5450 C   0  0  0  0  0  0  0  0  0  0  0  0
  126.2720  134.3740   61.7420 C   0  0  0  0  0  0  0  0  0  0  0  0
  124.8890  134.2400   61.5960 C   0  0  0  0  0  0  0  0  0  0  0  0
  124.2320  132.8730   61.7460 C   0  0  0  0  0  0  0  0  0  0  0  0
  124.6500  131.9150   60.7230 N   0  0  0  0  0  0  0  0  0  0  0  0
  124.1250  131.9660   59.4940 N   0  0  0  0  0  0  0  0  0  0  0  0
  124.7140  130.9160   58.8170 N   0  0  0  0  0  0  0  0  0  0  0  0
  125.5890  130.2360   59.6570 N   0  0  0  0  0  0  0  0  0  0  0  0
  125.5290  130.8560   60.8120 C   0  0  0  0  0  0  0  0  0  0  0  0
  126.3000  130.4580   62.0630 C   0  0  0  0  0  0  0  0  0  0  0  0
  127.7530  130.6350   61.9080 N   0  0  0  0  0  0  0  0  0  0  0  0
  128.3550  129.5610   61.1080 C   0  0  0  0  0  0  0  0  0  0  0  0
  128.2970  128.1790   61.7960 C   0  0  0  0  0  0  0  0  0  0  0  0
  128.0930  127.0060   60.8130 C   0  0  0  0  0  0  0  0  0  0  0  0
  127.7710  125.7400   61.4800 N   0  0  0  0  0  0  0  0  0  0  0  0
  128.7230  124.6960   61.0800 C   0  0  0  0  0  0  0  0  0  0  0  0
  128.3810  123.3360   61.7240 C   0  0  0  0  0  0  0  0  0  0  0  0
  127.0340  122.9800   61.4300 O   0  0  0  0  0  0  0  0  0  0  0  0
  126.1030  123.9390   61.9190 C   0  0  0  0  0  0  0  0  0  0  0  0
  126.3760  125.3180   61.2790 C   0  0  0  0  0  0  0  0  0  0  0  0
  128.0420  131.9460   61.3090 C   0  0  0  0  0  0  0  0  0  0  0  0
  129.1640  131.9780   60.2740 C   0  0  0  0  0  0  0  0  0  0  0  0
  128.8900  132.0500   58.9480 C   0  0  0  0  0  0  0  0  0  0  0  0
  129.9550  132.0420   57.9240 C   0  0  0  0  0  0  0  0  0  0  0  0
  129.7090  132.1350   56.5440 C   0  0  0  0  0  0  0  0  0  0  0  0
  128.2950  132.2540   55.9920 C   0  0  0  0  0  0  0  0  0  0  0  0
  130.7900  132.1210   55.6580 C   0  0  0  0  0  0  0  0  0  0  0  0
  132.0970  132.0160   56.1310 C   0  0  0  0  0  0  0  0  0  0  0  0
  132.3520  131.9260   57.5030 C   0  0  0  0  0  0  0  0  0  0  0  0
  133.7920  131.8150   57.9890 C   0  0  0  0  0  0  0  0  0  0  0  0
  131.2740  131.9390   58.4020 C   0  0  0  0  0  0  0  0  0  0  0  0
  131.4840  131.8470   59.7940 N   0  0  0  0  0  0  0  0  0  0  0  0
  130.5390  131.8500   60.7670 C   0  0  0  0  0  0  0  0  0  0  0  0
  130.8630  131.7470   61.9510 O   0  0  0  0  0  0  0  0  0  0  0  0
  124.1120  135.3580   61.2870 C   0  0  0  0  0  0  0  0  0  0  0  0
  124.7180  136.5960   61.0890 C   0  0  0  0  0  0  0  0  0  0  0  0
  125.8121  139.7011   60.7012 H   0  0  0  0  0  0  0  0  0  0  0  0
  127.0671  139.2859   59.4850 H   0  0  0  0  0  0  0  0  0  0  0  0
  125.4943  138.4180   59.4850 H   0  0  0  0  0  0  0  0  0  0  0  0
  127.9659  135.7092   61.6566 H   0  0  0  0  0  0  0  0  0  0  0  0
  126.8834  133.5006   62.0129 H   0  0  0  0  0  0  0  0  0  0  0  0
  124.4945  132.4659   62.7336 H   0  0  0  0  0  0  0  0  0  0  0  0
  123.1476  133.0184   61.6326 H   0  0  0  0  0  0  0  0  0  0  0  0
  125.9561  131.0801   62.9025 H   0  0  0  0  0  0  0  0  0  0  0  0
  126.1105  129.3903   62.2477 H   0  0  0  0  0  0  0  0  0  0  0  0
  127.8182  129.4967   60.1500 H   0  0  0  0  0  0  0  0  0  0  0  0
  129.4172  129.8126   60.9725 H   0  0  0  0  0  0  0  0  0  0  0  0
  129.2420  128.0196   62.3359 H   0  0  0  0  0  0  0  0  0  0  0  0
  127.4269  128.1904   62.4688 H   0  0  0  0  0  0  0  0  0  0  0  0
  127.2684  127.2611   60.1312 H   0  0  0  0  0  0  0  0  0  0  0  0
  129.0429  126.8602   60.2778 H   0  0  0  0  0  0  0  0  0  0  0  0
  128.6961  124.5892   59.9855 H   0  0  0  0  0  0  0  0  0  0  0  0
  129.7247  124.9955   61.4219 H   0  0  0  0  0  0  0  0  0  0  0  0
  129.0564  122.5647   61.3254 H   0  0  0  0  0  0  0  0  0  0  0  0
  128.5030  123.4133   62.8145 H   0  0  0  0  0  0  0  0  0  0  0  0
  125.0821  123.6165   61.6667 H   0  0  0  0  0  0  0  0  0  0  0  0
  126.2105  124.0211   63.0107 H   0  0  0  0  0  0  0  0  0  0  0  0
  126.1731  125.2574   60.1996 H   0  0  0  0  0  0  0  0  0  0  0  0
  125.7193  126.0576   61.7604 H   0  0  0  0  0  0  0  0  0  0  0  0
  127.1233  132.3022   60.8201 H   0  0  0  0  0  0  0  0  0  0  0  0
  128.3866  132.5808   62.1386 H   0  0  0  0  0  0  0  0  0  0  0  0
  127.8408  132.1165   58.6242 H   0  0  0  0  0  0  0  0  0  0  0  0
  127.5798  132.3142   56.8256 H   0  0  0  0  0  0  0  0  0  0  0  0
  128.2171  133.1619   55.3758 H   0  0  0  0  0  0  0  0  0  0  0  0
  128.0665  131.3719   55.3758 H   0  0  0  0  0  0  0  0  0  0  0  0
  130.6073  132.1936   54.5757 H   0  0  0  0  0  0  0  0  0  0  0  0
  132.9352  132.0038   55.4188 H   0  0  0  0  0  0  0  0  0  0  0  0
  133.8087  131.8137   59.0889 H   0  0  0  0  0  0  0  0  0  0  0  0
  134.2344  130.8801   57.6145 H   0  0  0  0  0  0  0  0  0  0  0  0
  134.3724  132.6711   57.6145 H   0  0  0  0  0  0  0  0  0  0  0  0
  132.4310  131.7630   60.1290 H   0  0  0  0  0  0  0  0  0  0  0  0
  123.0198  135.2608   61.1998 H   0  0  0  0  0  0  0  0  0  0  0  0
  124.1031  137.4733   60.8393 H   0  0  0  0  0  0  0  0  0  0  0  0
  1  2  1  0
  2  3  1  0
  3  4  2  0
  4  5  1  0
  5  6  2  0
  6  7  1  0
  7  8  1  0
  8  9  1  0
  9 10  2  0
 10 11  1  0
 11 12  2  0
 12 13  1  0
 13 14  1  0
 14 15  1  0
 15 16  1  0
 16 17  1  0
 17 18  1  0
 18 19  1  0
 19 20  1  0
 20 21  1  0
 21 22  1  0
 22 23  1  0
 14 24  1  0
 24 25  1  0
 25 26  2  0
 26 27  1  0
 27 28  2  0
 28 29  1  0
 28 30  1  0
 30 31  2  0
 31 32  1  0
 32 33  1  0
 32 34  2  0
 34 35  1  0
 35 36  1  0
 36 37  2  0
  6 38  1  0
 38 39  2  0
 39  3  1  0
 12  8  1  0
 23 18  1  0
 36 25  1  0
 34 27  1  0
  1 40  1  0
  1 41  1  0
  1 42  1  0
  4 43  1  0
  5 44  1  0
  7 45  1  0
  7 46  1  0
 13 47  1  0
 13 48  1  0
 15 49  1  0
 15 50  1  0
 16 51  1  0
 16 52  1  0
 17 53  1  0
 17 54  1  0
 19 55  1  0
 19 56  1  0
 20 57  1  0
 20 58  1  0
 22 59  1  0
 22 60  1  0
 23 61  1  0
 23 62  1  0
 24 63  1  0
 24 64  1  0
 26 65  1  0
 29 66  1  0
 29 67  1  0
 29 68  1  0
 30 69  1  0
 31 70  1  0
 33 71  1  0
 33 72  1  0
 33 73  1  0
 35 74  1  0
 38 75  1  0
 39 76  1  0
M  END
>  <Binding energies>  (1) 
[-11.17]

>  <Ligand effiencies>  (1) 
[-0.27925]

>  <Interactions>  (1) 
["V-A:MET:535:CE:4833, V-B:ASP:366:CG:8184, V-A:TYR:539:CE2:4874, V-A:LEU:363:CA:3182, V-A:TYR:531:CE2:4791, H-A:ALA:541:N:4889, H-A:TYR:539:OH:4876, V-A:PRO:540:CB:4883, V-A:PRO:540:CA:4881, V-A:LEU:363:CB:3184, V-A:ILE:538:CA:4858, V-A:LEU:363:CD1:3186, V-A:TYR:539:CZ:4875, V-A:TYR:539:CE1:4873, V-A:TYR:539:CD2:4872, V-B:ALA:541:CB:9864, V-B:GLU:543:CD:9880, V-A:PRO:540:C:4879, V-A:TYR:539:CD1:4871, V-B:ILE:369:CD1:8210, V-A:PRO:540:N:4882, V-A:TYR:539:CG:4870, V-B:ILE:369:CG2:8208, V-A:ILE:538:CB:4860, V-B:SER:385:CA:8378, V-B:PRO:482:CG:9298, V-B:LEU:475:CD2:9230, V-A:ILE:538:CG2:4861, V-B:SER:385:CB:8380, V-B:LEU:373:CD1:8251, H-A:ASP:366:OD2:3212, H-B:ALA:541:N:9863, V-A:PRO:540:CG:4884, V-B:SER:385:C:8376, V-A:VAL:344:CG1:2998, V-A:TYR:539:CB:4869"]

$$$$
RR15_Rahimova_2017
     RDKit          3D

 85 89  0  0  0  0  0  0  0  0999 V2000
  133.8860  122.9640   62.1290 C   0  0  0  0  0  0  0  0  0  0  0  0
  133.8360  122.6450   60.7420 O   0  0  0  0  0  0  0  0  0  0  0  0
  133.1840  123.4990   59.8700 C   0  0  0  0  0  0  0  0  0  0  0  0
  133.8430  124.2810   58.9080 C   0  0  0  0  0  0  0  0  0  0  0  0
  133.1260  125.1220   58.0610 C   0  0  0  0  0  0  0  0  0  0  0  0
  131.7330  125.2090   58.1510 C   0  0  0  0  0  0  0  0  0  0  0  0
  130.9590  126.1230   57.2410 C   0  0  0  0  0  0  0  0  0  0  0  0
  130.9010  125.9510   55.9270 N   0  0  0  0  0  0  0  0  0  0  0  0
  130.1160  126.9770   55.4420 N   0  0  0  0  0  0  0  0  0  0  0  0
  129.7510  127.6390   56.5410 N   0  0  0  0  0  0  0  0  0  0  0  0
  129.0350  128.9120   56.4760 C   0  0  0  0  0  0  0  0  0  0  0  0
  127.5020  128.8050   56.6700 C   0  0  0  0  0  0  0  0  0  0  0  0
  126.7990  128.6320   55.6710 O   0  0  0  0  0  0  0  0  0  0  0  0
  126.9720  128.8710   57.9300 N   0  0  0  0  0  0  0  0  0  0  0  0
  126.4260  127.6730   58.5970 C   0  0  0  0  0  0  0  0  0  0  0  0
  127.5100  126.6700   59.0490 C   0  0  0  0  0  0  0  0  0  0  0  0
  127.0490  125.1940   59.0970 C   0  0  0  0  0  0  0  0  0  0  0  0
  127.1340  124.5070   57.8040 N   0  0  0  0  0  0  0  0  0  0  0  0
  128.2430  123.5440   57.7220 C   0  0  0  0  0  0  0  0  0  0  0  0
  128.2360  122.7880   56.3760 C   0  0  0  0  0  0  0  0  0  0  0  0
  126.9700  122.1720   56.1660 O   0  0  0  0  0  0  0  0  0  0  0  0
  125.9040  123.1150   56.1410 C   0  0  0  0  0  0  0  0  0  0  0  0
  125.8460  123.8780   57.4820 C   0  0  0  0  0  0  0  0  0  0  0  0
  127.0710  130.0830   58.8000 C   0  0  2  0  0  0  0  0  0  0  0  0
  125.6980  130.7560   59.1140 C   0  0  0  0  0  0  0  0  0  0  0  0
  124.6970  130.4990   58.4460 O   0  0  0  0  0  0  0  0  0  0  0  0
  125.6860  131.5860   60.1720 N   0  0  0  0  0  0  0  0  0  0  0  0
  124.5030  132.2450   60.7140 C   0  0  0  0  0  0  0  0  0  0  0  0
  124.8860  133.2990   61.7680 C   0  0  2  0  0  0  0  0  0  0  0  0
  124.0540  134.5930   61.7410 C   0  0  0  0  0  0  0  0  0  0  0  0
  124.9350  135.5960   61.0350 C   0  0  0  0  0  0  0  0  0  0  0  0
  126.3150  135.1510   61.4870 C   0  0  0  0  0  0  0  0  0  0  0  0
  126.2130  133.7320   61.4360 O   0  0  0  0  0  0  0  0  0  0  0  0
  128.2060  130.9880   58.3360 C   0  0  0  0  0  0  0  0  0  0  0  0
  129.4050  130.9680   59.0590 C   0  0  0  0  0  0  0  0  0  0  0  0
  130.4750  131.7730   58.6810 C   0  0  0  0  0  0  0  0  0  0  0  0
  130.3550  132.6060   57.5730 C   0  0  0  0  0  0  0  0  0  0  0  0
  131.3950  133.3880   57.2040 F   0  0  0  0  0  0  0  0  0  0  0  0
  129.1710  132.6390   56.8400 C   0  0  0  0  0  0  0  0  0  0  0  0
  128.1010  131.8330   57.2190 C   0  0  0  0  0  0  0  0  0  0  0  0
  130.2830  127.1690   57.6760 N   0  0  0  0  0  0  0  0  0  0  0  0
  131.0770  124.4260   59.1100 C   0  0  0  0  0  0  0  0  0  0  0  0
  131.7870  123.5700   59.9690 C   0  0  0  0  0  0  0  0  0  0  0  0
  131.1850  122.7750   60.9290 O   0  0  0  0  0  0  0  0  0  0  0  0
  129.8390  122.3480   60.7460 C   0  0  0  0  0  0  0  0  0  0  0  0
  133.7425  122.0482   62.7213 H   0  0  0  0  0  0  0  0  0  0  0  0
  134.8644  123.4060   62.3685 H   0  0  0  0  0  0  0  0  0  0  0  0
  133.0898  123.6842   62.3685 H   0  0  0  0  0  0  0  0  0  0  0  0
  134.9384  124.2287   58.8224 H   0  0  0  0  0  0  0  0  0  0  0  0
  133.6612  125.7248   57.3126 H   0  0  0  0  0  0  0  0  0  0  0  0
  129.4344  129.5699   57.2619 H   0  0  0  0  0  0  0  0  0  0  0  0
  129.1922  129.3045   55.4605 H   0  0  0  0  0  0  0  0  0  0  0  0
  125.8596  127.9958   59.4830 H   0  0  0  0  0  0  0  0  0  0  0  0
  125.7926  127.1546   57.8621 H   0  0  0  0  0  0  0  0  0  0  0  0
  128.3557  126.7417   58.3492 H   0  0  0  0  0  0  0  0  0  0  0  0
  127.7755  126.9451   60.0804 H   0  0  0  0  0  0  0  0  0  0  0  0
  127.6817  124.6560   59.8183 H   0  0  0  0  0  0  0  0  0  0  0  0
  125.9886  125.1980   59.3896 H   0  0  0  0  0  0  0  0  0  0  0  0
  129.1951  124.0855   57.8231 H   0  0  0  0  0  0  0  0  0  0  0  0
  128.1232  122.8092   58.5317 H   0  0  0  0  0  0  0  0  0  0  0  0
  128.4350  123.4976   55.5594 H   0  0  0  0  0  0  0  0  0  0  0  0
  129.0147  122.0113   56.3959 H   0  0  0  0  0  0  0  0  0  0  0  0
  126.0686  123.8299   55.3214 H   0  0  0  0  0  0  0  0  0  0  0  0
  124.9537  122.5833   55.9854 H   0  0  0  0  0  0  0  0  0  0  0  0
  125.0744  124.6591   57.4149 H   0  0  0  0  0  0  0  0  0  0  0  0
  125.6076  123.1567   58.2775 H   0  0  0  0  0  0  0  0  0  0  0  0
  127.3676  129.7667   59.8109 H   0  0  0  0  0  0  0  0  0  0  0  0
  126.5440  131.7220   60.6870 H   0  0  0  0  0  0  0  0  0  0  0  0
  123.9600  132.7383   59.8943 H   0  0  0  0  0  0  0  0  0  0  0  0
  123.8711  131.4845   61.1960 H   0  0  0  0  0  0  0  0  0  0  0  0
  124.7441  132.8187   62.7474 H   0  0  0  0  0  0  0  0  0  0  0  0
  123.1166  134.4407   61.1860 H   0  0  0  0  0  0  0  0  0  0  0  0
  123.7668  134.9261   62.7493 H   0  0  0  0  0  0  0  0  0  0  0  0
  124.8277  135.5274   59.9424 H   0  0  0  0  0  0  0  0  0  0  0  0
  124.7008  136.6448   61.2697 H   0  0  0  0  0  0  0  0  0  0  0  0
  127.0948  135.5183   60.8037 H   0  0  0  0  0  0  0  0  0  0  0  0
  126.5968  135.5351   62.4785 H   0  0  0  0  0  0  0  0  0  0  0  0
  129.5019  130.3092   59.9346 H   0  0  0  0  0  0  0  0  0  0  0  0
  131.4125  131.7510   59.2561 H   0  0  0  0  0  0  0  0  0  0  0  0
  129.0817  133.2995   55.9649 H   0  0  0  0  0  0  0  0  0  0  0  0
  127.1664  131.8581   56.6394 H   0  0  0  0  0  0  0  0  0  0  0  0
  129.9815  124.4826   59.1923 H   0  0  0  0  0  0  0  0  0  0  0  0
  129.3654  122.1977   61.7274 H   0  0  0  0  0  0  0  0  0  0  0  0
  129.2843  123.1143   60.1846 H   0  0  0  0  0  0  0  0  0  0  0  0
  129.8275  121.4021   60.1846 H   0  0  0  0  0  0  0  0  0  0  0  0
  1  2  1  0
  2  3  1  0
  3  4  2  0
  4  5  1  0
  5  6  2  0
  6  7  1  0
  7  8  1  0
  8  9  2  0
  9 10  1  0
 10 11  1  0
 11 12  1  0
 12 13  2  0
 12 14  1  0
 14 15  1  0
 15 16  1  0
 16 17  1  0
 17 18  1  0
 18 19  1  0
 19 20  1  0
 20 21  1  0
 21 22  1  0
 22 23  1  0
 14 24  1  0
 24 25  1  0
 25 26  2  0
 25 27  1  0
 27 28  1  0
 28 29  1  0
 29 30  1  0
 30 31  1  0
 31 32  1  0
 32 33  1  0
 24 34  1  0
 34 35  2  0
 35 36  1  0
 36 37  2  0
 37 38  1  0
 37 39  1  0
 39 40  2  0
 10 41  1  0
  6 42  1  0
 42 43  2  0
 43 44  1  0
 44 45  1  0
 43  3  1  0
 41  7  2  0
 23 18  1  0
 33 29  1  0
 40 34  1  0
  1 46  1  0
  1 47  1  0
  1 48  1  0
  4 49  1  0
  5 50  1  0
 11 51  1  0
 11 52  1  0
 15 53  1  0
 15 54  1  0
 16 55  1  0
 16 56  1  0
 17 57  1  0
 17 58  1  0
 19 59  1  0
 19 60  1  0
 20 61  1  0
 20 62  1  0
 22 63  1  0
 22 64  1  0
 23 65  1  0
 23 66  1  0
 24 67  1  1
 27 68  1  0
 28 69  1  0
 28 70  1  0
 29 71  1  1
 30 72  1  0
 30 73  1  0
 31 74  1  0
 31 75  1  0
 32 76  1  0
 32 77  1  0
 35 78  1  0
 36 79  1  0
 39 80  1  0
 40 81  1  0
 42 82  1  0
 45 83  1  0
 45 84  1  0
 45 85  1  0
M  END
>  <Binding energies>  (1) 
[-10.16]

>  <Ligand effiencies>  (1) 
[-0.22086956521739132]

>  <Interactions>  (1) 
["V-A:MET:535:CE:4833, V-B:ASP:366:CG:8184, V-A:TYR:539:CE2:4874, V-A:ASP:366:CG:3210, H-A:TYR:539:OH:4876, V-A:PRO:540:CB:4883, V-A:PRO:540:CA:4881, V-A:ASP:366:CB:3209, H-A:TYR:531:OH:4793, V-A:ILE:538:CA:4858, V-A:TYR:539:CZ:4875, V-B:ASP:366:CB:8183, V-A:TYR:539:CE1:4873, V-A:TYR:539:CD2:4872, H-B:TYR:531:OH:9767, V-B:MET:535:CE:9807, V-A:ASP:366:CA:3207, V-B:ILE:538:CG2:9835, V-B:ILE:538:CB:9834, V-B:ILE:538:CA:9832, V-A:ASP:366:C:3205, V-B:TYR:539:CE1:9847, V-B:TYR:539:CD1:9845, V-A:TYR:539:CD1:4871, V-B:ILE:369:CD1:8210, V-A:PRO:540:N:4882, V-A:TYR:539:CA:4867, V-A:TYR:539:C:4865, V-A:TYR:539:CG:4870, V-B:ILE:369:CG2:8208, V-B:TYR:539:CG:9844, V-A:ILE:369:CB:3233, H-B:TYR:539:N:9842, V-B:TYR:539:CZ:9849, V-A:ILE:369:CD1:3236, V-A:ILE:369:CG2:3234, V-A:ILE:538:CB:4860, V-B:SER:385:CA:8378, V-A:PRO:540:CD:4885, V-B:LEU:475:CD2:9230, V-B:LEU:373:CD1:8251, V-A:ILE:538:C:4856, V-A:GLY:454:CA:4046, V-B:TYR:539:CE2:9848, V-A:PRO:540:CG:4884, V-B:TYR:539:CD2:9846, V-B:SER:385:C:8376"]

$$$$
RR16_Rahimova_2017
     RDKit          3D

 80 85  0  0  0  0  0  0  0  0999 V2000
  122.7490  130.6560   62.2720 O   0  0  0  0  0  0  0  0  0  0  0  0
  124.0910  131.2470   62.3220 S   0  0  0  0  0  0  0  0  0  0  0  0
  125.0710  130.8080   63.3220 O   0  0  0  0  0  0  0  0  0  0  0  0
  123.8970  132.9940   62.4750 N   0  0  0  0  0  0  0  0  0  0  0  0
  124.7090  133.9250   61.6570 C   0  0  0  0  0  0  0  0  0  0  0  0
  124.1220  135.3560   61.7810 C   0  0  0  0  0  0  0  0  0  0  0  0
  124.6470  136.4220   60.8000 C   0  0  0  0  0  0  0  0  0  0  0  0
  125.9110  137.1520   61.2880 C   0  0  0  0  0  0  0  0  0  0  0  0
  126.9640  136.2770   61.9920 C   0  0  0  0  0  0  0  0  0  0  0  0
  127.1390  134.8350   61.4760 C   0  0  0  0  0  0  0  0  0  0  0  0
  126.1920  133.7710   62.0660 C   0  0  0  0  0  0  0  0  0  0  0  0
  124.8180  131.0200   60.7030 C   0  0  0  0  0  0  0  0  0  0  0  0
  124.0190  130.6590   59.6160 C   0  0  0  0  0  0  0  0  0  0  0  0
  124.6120  130.3670   58.3910 C   0  0  0  0  0  0  0  0  0  0  0  0
  126.0010  130.4370   58.2590 C   0  0  0  0  0  0  0  0  0  0  0  0
  126.7780  129.9260   56.7280 S   0  0  0  0  0  0  0  0  0  0  0  0
  127.5250  131.0790   56.2080 O   0  0  0  0  0  0  0  0  0  0  0  0
  125.7470  129.2790   55.9060 O   0  0  0  0  0  0  0  0  0  0  0  0
  127.9450  128.6860   57.2260 N   0  0  0  0  0  0  0  0  0  0  0  0
  128.1220  127.5790   56.2510 C   0  0  0  0  0  0  0  0  0  0  0  0
  128.8980  126.4120   56.8930 C   0  0  0  0  0  0  0  0  0  0  0  0
  130.2330  126.8850   57.5190 C   0  0  0  0  0  0  0  0  0  0  0  0
  130.9980  125.7490   58.2040 C   0  0  0  0  0  0  0  0  0  0  0  0
  132.3550  125.5490   57.9120 C   0  0  0  0  0  0  0  0  0  0  0  0
  133.0920  124.5310   58.5190 C   0  0  0  0  0  0  0  0  0  0  0  0
  134.4190  124.3530   58.2240 O   0  0  0  0  0  0  0  0  0  0  0  0
  132.4390  123.6990   59.4410 C   0  0  0  0  0  0  0  0  0  0  0  0
  132.8990  122.6530   60.1880 N   0  0  0  0  0  0  0  0  0  0  0  0
  131.8500  122.2000   60.9570 N   0  0  0  0  0  0  0  0  0  0  0  0
  130.7560  122.9250   60.6550 N   0  0  0  0  0  0  0  0  0  0  0  0
  129.5130  122.7160   61.3860 C   0  0  0  0  0  0  0  0  0  0  0  0
  128.2800  123.0210   60.5470 C   0  0  0  0  0  0  0  0  0  0  0  0
  127.1700  123.6420   61.1300 C   0  0  0  0  0  0  0  0  0  0  0  0
  126.0470  123.9430   60.3580 C   0  0  0  0  0  0  0  0  0  0  0  0
  126.0280  123.6250   58.9990 C   0  0  0  0  0  0  0  0  0  0  0  0
  127.1320  123.0080   58.4110 C   0  0  0  0  0  0  0  0  0  0  0  0
  127.1160  122.6230   56.7290 Cl  0  0  0  0  0  0  0  0  0  0  0  0
  128.2550  122.7030   59.1850 C   0  0  0  0  0  0  0  0  0  0  0  0
  131.0670  123.9020   59.7230 C   0  0  0  0  0  0  0  0  0  0  0  0
  130.3260  124.9190   59.1140 C   0  0  0  0  0  0  0  0  0  0  0  0
  130.0470  128.1220   58.4370 C   0  0  0  0  0  0  0  0  0  0  0  0
  129.2250  129.2300   57.7500 C   0  0  0  0  0  0  0  0  0  0  0  0
  126.7950  130.8390   59.3360 C   0  0  0  0  0  0  0  0  0  0  0  0
  126.2020  131.1280   60.5600 C   0  0  0  0  0  0  0  0  0  0  0  0
  122.9830  133.3360   62.7840 H   0  0  0  0  0  0  0  0  0  0  0  0
  124.6696  133.6922   60.5826 H   0  0  0  0  0  0  0  0  0  0  0  0
  123.0342  135.2807   61.6362 H   0  0  0  0  0  0  0  0  0  0  0  0
  124.4382  135.7061   62.7747 H   0  0  0  0  0  0  0  0  0  0  0  0
  124.8793  135.9287   59.8447 H   0  0  0  0  0  0  0  0  0  0  0  0
  123.8576  137.1819   60.7027 H   0  0  0  0  0  0  0  0  0  0  0  0
  126.3897  137.6177   60.4139 H   0  0  0  0  0  0  0  0  0  0  0  0
  125.5657  137.8699   62.0465 H   0  0  0  0  0  0  0  0  0  0  0  0
  127.9352  136.7840   61.8937 H   0  0  0  0  0  0  0  0  0  0  0  0
  126.5983  136.1671   63.0236 H   0  0  0  0  0  0  0  0  0  0  0  0
  126.9872  134.8496   60.3866 H   0  0  0  0  0  0  0  0  0  0  0  0
  128.1480  134.5336   61.7941 H   0  0  0  0  0  0  0  0  0  0  0  0
  126.5382  132.7818   61.7320 H   0  0  0  0  0  0  0  0  0  0  0  0
  126.2268  133.8969   63.1582 H   0  0  0  0  0  0  0  0  0  0  0  0
  122.9260  130.6056   59.7274 H   0  0  0  0  0  0  0  0  0  0  0  0
  123.9893  130.0822   57.5301 H   0  0  0  0  0  0  0  0  0  0  0  0
  127.1338  127.2213   55.9264 H   0  0  0  0  0  0  0  0  0  0  0  0
  128.6925  127.9532   55.3881 H   0  0  0  0  0  0  0  0  0  0  0  0
  128.2758  125.9608   57.6799 H   0  0  0  0  0  0  0  0  0  0  0  0
  129.1300  125.6807   56.1047 H   0  0  0  0  0  0  0  0  0  0  0  0
  130.8681  127.2142   56.6834 H   0  0  0  0  0  0  0  0  0  0  0  0
  132.8508  126.2108   57.1866 H   0  0  0  0  0  0  0  0  0  0  0  0
  134.6260  124.5040   57.2990 H   0  0  0  0  0  0  0  0  0  0  0  0
  129.4674  121.6657   61.7098 H   0  0  0  0  0  0  0  0  0  0  0  0
  129.5111  123.4060   62.2426 H   0  0  0  0  0  0  0  0  0  0  0  0
  127.1825  123.8939   62.2007 H   0  0  0  0  0  0  0  0  0  0  0  0
  125.1765  124.4310   60.8207 H   0  0  0  0  0  0  0  0  0  0  0  0
  125.1419  123.8611   58.3915 H   0  0  0  0  0  0  0  0  0  0  0  0
  129.1227  122.2109   58.7213 H   0  0  0  0  0  0  0  0  0  0  0  0
  129.2589  125.0628   59.3392 H   0  0  0  0  0  0  0  0  0  0  0  0
  129.5257  127.8092   59.3537 H   0  0  0  0  0  0  0  0  0  0  0  0
  131.0429  128.5291   58.6660 H   0  0  0  0  0  0  0  0  0  0  0  0
  129.0081  130.0239   58.4798 H   0  0  0  0  0  0  0  0  0  0  0  0
  129.8084  129.6335   56.9093 H   0  0  0  0  0  0  0  0  0  0  0  0
  127.8849  130.9265   59.2161 H   0  0  0  0  0  0  0  0  0  0  0  0
  126.8219  131.4408   61.4131 H   0  0  0  0  0  0  0  0  0  0  0  0
  1  2  2  0
  2  3  2  0
  2  4  1  0
  4  5  1  0
  5  6  1  0
  6  7  1  0
  7  8  1  0
  8  9  1  0
  9 10  1  0
 10 11  1  0
  2 12  1  0
 12 13  2  0
 13 14  1  0
 14 15  2  0
 15 16  1  0
 16 17  2  0
 16 18  2  0
 16 19  1  0
 19 20  1  0
 20 21  1  0
 21 22  1  0
 22 23  1  0
 23 24  2  0
 24 25  1  0
 25 26  1  0
 25 27  2  0
 27 28  1  0
 28 29  2  0
 29 30  1  0
 30 31  1  0
 31 32  1  0
 32 33  2  0
 33 34  1  0
 34 35  2  0
 35 36  1  0
 36 37  1  0
 36 38  2  0
 30 39  1  0
 39 40  2  0
 22 41  1  0
 41 42  1  0
 15 43  1  0
 43 44  2  0
 11  5  1  0
 44 12  1  0
 42 19  1  0
 40 23  1  0
 39 27  1  0
 38 32  1  0
  4 45  1  0
  5 46  1  0
  6 47  1  0
  6 48  1  0
  7 49  1  0
  7 50  1  0
  8 51  1  0
  8 52  1  0
  9 53  1  0
  9 54  1  0
 10 55  1  0
 10 56  1  0
 11 57  1  0
 11 58  1  0
 13 59  1  0
 14 60  1  0
 20 61  1  0
 20 62  1  0
 21 63  1  0
 21 64  1  0
 22 65  1  0
 24 66  1  0
 26 67  1  0
 31 68  1  0
 31 69  1  0
 33 70  1  0
 34 71  1  0
 35 72  1  0
 38 73  1  0
 40 74  1  0
 41 75  1  0
 41 76  1  0
 42 77  1  0
 42 78  1  0
 43 79  1  0
 44 80  1  0
M  END
>  <Binding energies>  (1) 
[-11.24]

>  <Ligand effiencies>  (1) 
[-0.23416666666666666]

>  <Interactions>  (1) 
["V-A:MET:535:CE:4833, V-B:ASP:366:CG:8184, V-A:ASP:366:CG:3210, H-A:TYR:539:OH:4876, V-A:ASP:366:CB:3209, V-A:TYR:539:CZ:4875, V-B:ASP:366:CB:8183, V-A:TYR:539:CE1:4873, H-B:TYR:531:OH:9767, V-B:PRO:540:CA:9855, V-B:ALA:541:CB:9864, V-B:PRO:540:CB:9857, V-B:MET:535:CE:9807, V-A:ASP:366:CA:3207, V-B:ILE:538:CA:9832, V-B:PRO:540:N:9856, V-B:TYR:539:C:9839, V-B:TYR:539:CE1:9847, V-B:TYR:539:CD1:9845, V-A:TYR:539:CD1:4871, V-B:ILE:369:CD1:8210, V-A:ALA:541:CB:4890, V-B:ILE:369:CG2:8208, V-B:TYR:539:CZ:9849, H-B:TYR:539:OH:9850, V-B:PRO:482:CB:9297, V-B:SER:385:CA:8378, V-B:PRO:482:CG:9298, V-B:LEU:475:CD2:9230, V-B:SER:385:CB:8380, V-B:LEU:373:CD1:8251, H-B:GLY:454:N:9021, H-B:ASN:370:ND2:8219, V-B:ASP:366:CA:8181, H-A:ASP:366:O:3206, H-B:SER:385:O:8377, V-B:SER:385:C:8376"]

$$$$
RR17_Rahimova_2017
     RDKit          3D

 63 66  0  0  0  0  0  0  0  0999 V2000
  130.8800  115.1880   58.0170 C   0  0  0  0  0  0  0  0  0  0  0  0
  130.9860  114.6450   59.4450 C   0  0  0  0  0  0  0  0  0  0  0  0
  132.1700  115.1620   60.0450 O   0  0  0  0  0  0  0  0  0  0  0  0
  132.2540  116.5140   60.3220 C   0  0  0  0  0  0  0  0  0  0  0  0
  131.0700  117.1480   60.6960 C   0  0  0  0  0  0  0  0  0  0  0  0
  131.0560  118.5070   60.9930 C   0  0  0  0  0  0  0  0  0  0  0  0
  132.2330  119.2650   60.9190 C   0  0  0  0  0  0  0  0  0  0  0  0
  132.1870  120.7300   61.2460 C   0  0  0  0  0  0  0  0  0  0  0  0
  131.1570  121.2890   61.6340 O   0  0  0  0  0  0  0  0  0  0  0  0
  133.4950  121.5310   61.0610 C   0  0  0  0  0  0  0  0  0  0  0  0
  133.3030  123.2850   61.5400 S   0  0  0  0  0  0  0  0  0  0  0  0
  133.0290  124.0080   59.9470 C   0  0  0  0  0  0  0  0  0  0  0  0
  133.9640  124.2920   59.0710 N   0  0  0  0  0  0  0  0  0  0  0  0
  133.3470  124.8360   57.9510 N   0  0  0  0  0  0  0  0  0  0  0  0
  132.0600  124.8550   58.1910 C   0  0  0  0  0  0  0  0  0  0  0  0
  131.0070  125.3630   57.2170 C   0  0  0  0  0  0  0  0  0  0  0  0
  130.3060  124.3010   56.4990 N   0  0  0  0  0  0  0  0  0  0  0  0
  128.9390  124.0140   56.6700 C   0  0  0  0  0  0  0  0  0  0  0  0
  128.4450  122.8600   56.0630 C   0  0  0  0  0  0  0  0  0  0  0  0
  127.1010  122.5200   56.1870 C   0  0  0  0  0  0  0  0  0  0  0  0
  126.2350  123.3300   56.9270 C   0  0  0  0  0  0  0  0  0  0  0  0
  124.7610  122.9450   57.0490 C   0  0  0  0  0  0  0  0  0  0  0  0
  123.9560  123.8310   56.4560 F   0  0  0  0  0  0  0  0  0  0  0  0
  124.5430  121.7540   56.4900 F   0  0  0  0  0  0  0  0  0  0  0  0
  124.4320  122.8790   58.3390 F   0  0  0  0  0  0  0  0  0  0  0  0
  126.7310  124.4840   57.5440 C   0  0  0  0  0  0  0  0  0  0  0  0
  128.0740  124.8230   57.4200 C   0  0  0  0  0  0  0  0  0  0  0  0
  131.7900  124.3540   59.4480 N   0  0  0  0  0  0  0  0  0  0  0  0
  130.5380  124.2010   60.0620 C   0  0  0  0  0  0  0  0  0  0  0  0
  130.1090  125.1470   60.9920 C   0  0  0  0  0  0  0  0  0  0  0  0
  128.8680  124.9930   61.6040 C   0  0  0  0  0  0  0  0  0  0  0  0
  128.0530  123.8940   61.2870 C   0  0  0  0  0  0  0  0  0  0  0  0
  126.8100  123.6610   61.8430 O   0  0  0  0  0  0  0  0  0  0  0  0
  125.6750  123.5600   60.9890 C   0  0  0  0  0  0  0  0  0  0  0  0
  128.5010  122.9560   60.3540 C   0  0  0  0  0  0  0  0  0  0  0  0
  129.7400  123.1040   59.7380 C   0  0  0  0  0  0  0  0  0  0  0  0
  133.4240  118.6270   60.5430 C   0  0  0  0  0  0  0  0  0  0  0  0
  133.4360  117.2660   60.2480 C   0  0  0  0  0  0  0  0  0  0  0  0
  130.6693  116.2671   58.0498 H   0  0  0  0  0  0  0  0  0  0  0  0
  131.8288  115.0155   57.4878 H   0  0  0  0  0  0  0  0  0  0  0  0
  130.0658  114.6714   57.4878 H   0  0  0  0  0  0  0  0  0  0  0  0
  130.1079  114.9613   60.0271 H   0  0  0  0  0  0  0  0  0  0  0  0
  131.0257  113.5459   59.4254 H   0  0  0  0  0  0  0  0  0  0  0  0
  130.1375  116.5678   60.7569 H   0  0  0  0  0  0  0  0  0  0  0  0
  130.1134  118.9909   61.2884 H   0  0  0  0  0  0  0  0  0  0  0  0
  134.2796  121.0772   61.6843 H   0  0  0  0  0  0  0  0  0  0  0  0
  133.7630  121.4991   59.9946 H   0  0  0  0  0  0  0  0  0  0  0  0
  130.2657  125.9476   57.7816 H   0  0  0  0  0  0  0  0  0  0  0  0
  131.5332  125.9662   56.4625 H   0  0  0  0  0  0  0  0  0  0  0  0
  130.8700  123.6170   56.0180 H   0  0  0  0  0  0  0  0  0  0  0  0
  129.1212  122.2148   55.4829 H   0  0  0  0  0  0  0  0  0  0  0  0
  126.7189  121.6103   55.7007 H   0  0  0  0  0  0  0  0  0  0  0  0
  126.0559  125.1255   58.1294 H   0  0  0  0  0  0  0  0  0  0  0  0
  128.4587  125.7286   57.9119 H   0  0  0  0  0  0  0  0  0  0  0  0
  130.7462  126.0085   61.2403 H   0  0  0  0  0  0  0  0  0  0  0  0
  128.5242  125.7355   62.3392 H   0  0  0  0  0  0  0  0  0  0  0  0
  124.7632  123.4789   61.5990 H   0  0  0  0  0  0  0  0  0  0  0  0
  125.6129  124.4562   60.3542 H   0  0  0  0  0  0  0  0  0  0  0  0
  125.7721  122.6669   60.3542 H   0  0  0  0  0  0  0  0  0  0  0  0
  127.8682  122.0918   60.1037 H   0  0  0  0  0  0  0  0  0  0  0  0
  130.0866  122.3630   59.0027 H   0  0  0  0  0  0  0  0  0  0  0  0
  134.3568  119.2066   60.4806 H   0  0  0  0  0  0  0  0  0  0  0  0
  134.3774  116.7780   59.9554 H   0  0  0  0  0  0  0  0  0  0  0  0
  1  2  1  0
  2  3  1  0
  3  4  1  0
  4  5  2  0
  5  6  1  0
  6  7  2  0
  7  8  1  0
  8  9  2  0
  8 10  1  0
 10 11  1  0
 11 12  1  0
 12 13  2  0
 13 14  1  0
 14 15  2  0
 15 16  1  0
 16 17  1  0
 17 18  1  0
 18 19  2  0
 19 20  1  0
 20 21  2  0
 21 22  1  0
 22 23  1  0
 22 24  1  0
 22 25  1  0
 21 26  1  0
 26 27  2  0
 15 28  1  0
 28 29  1  0
 29 30  2  0
 30 31  1  0
 31 32  2  0
 32 33  1  0
 33 34  1  0
 32 35  1  0
 35 36  2  0
  7 37  1  0
 37 38  2  0
 38  4  1  0
 28 12  1  0
 36 29  1  0
 27 18  1  0
  1 39  1  0
  1 40  1  0
  1 41  1  0
  2 42  1  0
  2 43  1  0
  5 44  1  0
  6 45  1  0
 10 46  1  0
 10 47  1  0
 16 48  1  0
 16 49  1  0
 17 50  1  0
 19 51  1  0
 20 52  1  0
 26 53  1  0
 27 54  1  0
 30 55  1  0
 31 56  1  0
 34 57  1  0
 34 58  1  0
 34 59  1  0
 35 60  1  0
 36 61  1  0
 37 62  1  0
 38 63  1  0
M  END
>  <Binding energies>  (1) 
[-9.59]

>  <Ligand effiencies>  (1) 
[-0.2458974358974359]

>  <Interactions>  (1) 
["V-B:PRO:540:CA:9855, V-B:LEU:363:CA:8156, V-B:PRO:540:CB:9857, V-B:LEU:363:CD1:8160, V-B:MET:535:CE:9807, V-B:PRO:540:CG:9858, V-B:ILE:538:CG1:9836, V-B:ILE:538:CG2:9835, V-B:ILE:538:CB:9834, V-B:ILE:538:CA:9832, V-B:ILE:538:CD1:9837, V-B:PRO:540:CD:9859, V-B:PRO:540:N:9856, V-A:LEU:475:CD2:4256, V-B:TYR:539:CE1:9847, V-B:TYR:539:CD1:9845, V-B:PRO:540:C:9853, V-B:TYR:539:CG:9844, V-B:TYR:539:CZ:9849, V-A:ILE:369:CD1:3236, V-B:TYR:531:CE2:9765, V-A:ILE:369:CG2:3234, H-B:TYR:539:OH:9850, V-B:TYR:531:CZ:9766, V-B:TYR:539:CE2:9848, H-B:ALA:541:N:9863, V-B:ILE:538:C:9830, V-B:TYR:539:CD2:9846, V-A:PRO:482:CG:4324, V-A:SER:385:CB:3406, V-A:PRO:482:CB:4323, V-A:SER:385:CA:3404, V-B:TYR:539:CB:9843, V-A:HIS:383:CG:3387, V-A:LEU:373:CD1:3277, V-A:VAL:384:C:3394, V-B:VAL:344:CG1:7972, V-B:ILE:343:CD1:7965, V-A:HIS:383:CD2:3389, V-A:HIS:383:CE1:3391, V-B:ILE:343:CG1:7964, V-B:TYR:531:CD2:9763"]

$$$$
RR18_Rahimova_2017
     RDKit          3D

 56 61  0  0  0  0  0  0  0  0999 V2000
  133.1200  125.5090   56.3140 C   0  0  0  0  0  0  0  0  0  0  0  0
  132.8680  125.1440   57.7550 C   0  0  0  0  0  0  0  0  0  0  0  0
  133.6130  124.5080   58.7350 C   0  0  0  0  0  0  0  0  0  0  0  0
  132.8200  124.4680   59.8810 C   0  0  0  0  0  0  0  0  0  0  0  0
  131.6200  125.0810   59.5620 C   0  0  0  0  0  0  0  0  0  0  0  0
  130.3410  125.3750   60.3420 C   0  0  1  0  0  0  0  0  0  0  0  0
  130.1740  124.4070   61.5510 C   0  0  0  0  0  0  0  0  0  0  0  0
  129.9790  122.9770   61.3310 C   0  0  0  0  0  0  0  0  0  0  0  0
  128.8700  122.5050   61.0740 O   0  0  0  0  0  0  0  0  0  0  0  0
  131.1120  122.2420   61.4190 N   0  0  0  0  0  0  0  0  0  0  0  0
  131.3100  120.8510   61.2890 C   0  0  0  0  0  0  0  0  0  0  0  0
  130.2690  119.9080   61.3770 C   0  0  0  0  0  0  0  0  0  0  0  0
  130.5330  118.5460   61.2460 C   0  0  0  0  0  0  0  0  0  0  0  0
  131.8360  118.1040   61.0330 C   0  0  0  0  0  0  0  0  0  0  0  0
  132.8780  119.0250   60.9560 C   0  0  0  0  0  0  0  0  0  0  0  0
  132.6280  120.3950   61.0850 C   0  0  0  0  0  0  0  0  0  0  0  0
  133.8050  121.3630   60.9970 C   0  0  0  0  0  0  0  0  0  0  0  0
  130.3180  124.9080   62.8060 C   0  0  0  0  0  0  0  0  0  0  0  0
  130.4820  126.2270   63.1010 N   0  0  0  0  0  0  0  0  0  0  0  0
  130.4240  127.0960   62.1610 C   0  0  0  0  0  0  0  0  0  0  0  0
  130.4660  128.8260   62.4040 S   0  0  0  0  0  0  0  0  0  0  0  0
  130.2980  129.1310   60.6470 C   0  0  0  0  0  0  0  0  0  0  0  0
  130.2460  130.3540   60.0150 C   0  0  0  0  0  0  0  0  0  0  0  0
  130.2460  131.5960   60.8010 C   0  0  0  0  0  0  0  0  0  0  0  0
  130.3130  131.7630   62.0190 O   0  0  0  0  0  0  0  0  0  0  0  0
  130.1350  132.6130   59.9410 N   0  0  0  0  0  0  0  0  0  0  0  0
  130.0920  132.2080   58.6410 C   0  0  0  0  0  0  0  0  0  0  0  0
  129.9950  133.0030   57.5000 C   0  0  0  0  0  0  0  0  0  0  0  0
  129.9980  132.3890   56.2510 C   0  0  0  0  0  0  0  0  0  0  0  0
  130.1080  131.0030   56.1640 C   0  0  0  0  0  0  0  0  0  0  0  0
  130.2040  130.2270   57.3220 C   0  0  0  0  0  0  0  0  0  0  0  0
  130.1790  130.8270   58.5950 C   0  0  0  0  0  0  0  0  0  0  0  0
  130.2080  127.8360   59.9710 C   0  0  0  0  0  0  0  0  0  0  0  0
  130.0340  127.6500   58.7700 O   0  0  0  0  0  0  0  0  0  0  0  0
  130.3170  126.7960   60.8410 N   0  0  0  0  0  0  0  0  0  0  0  0
  131.6570  125.4890   58.2650 O   0  0  0  0  0  0  0  0  0  0  0  0
  133.7444  126.4134   56.2687 H   0  0  0  0  0  0  0  0  0  0  0  0
  133.6388  124.6796   55.8110 H   0  0  0  0  0  0  0  0  0  0  0  0
  132.1606  125.7002   55.8110 H   0  0  0  0  0  0  0  0  0  0  0  0
  134.6334  124.1111   58.6292 H   0  0  0  0  0  0  0  0  0  0  0  0
  133.0951  124.0326   60.8530 H   0  0  0  0  0  0  0  0  0  0  0  0
  129.5046  125.2235   59.6439 H   0  0  0  0  0  0  0  0  0  0  0  0
  131.9640  122.7650   61.5510 H   0  0  0  0  0  0  0  0  0  0  0  0
  129.2378  120.2491   61.5507 H   0  0  0  0  0  0  0  0  0  0  0  0
  129.7103  117.8187   61.3110 H   0  0  0  0  0  0  0  0  0  0  0  0
  132.0422  117.0288   60.9257 H   0  0  0  0  0  0  0  0  0  0  0  0
  133.9068  118.6717   60.7923 H   0  0  0  0  0  0  0  0  0  0  0  0
  134.1339  121.6335   62.0112 H   0  0  0  0  0  0  0  0  0  0  0  0
  134.6351  120.8829   60.4582 H   0  0  0  0  0  0  0  0  0  0  0  0
  133.4941  122.2702   60.4582 H   0  0  0  0  0  0  0  0  0  0  0  0
  130.3008  124.1961   63.6444 H   0  0  0  0  0  0  0  0  0  0  0  0
  130.1080  133.5800   60.2300 H   0  0  0  0  0  0  0  0  0  0  0  0
  129.9174  134.0969   57.5854 H   0  0  0  0  0  0  0  0  0  0  0  0
  129.9139  132.9952   55.3370 H   0  0  0  0  0  0  0  0  0  0  0  0
  130.1194  130.5165   55.1775 H   0  0  0  0  0  0  0  0  0  0  0  0
  130.3002  129.1345   57.2378 H   0  0  0  0  0  0  0  0  0  0  0  0
  1  2  1  0
  2  3  2  0
  3  4  1  0
  4  5  2  0
  5  6  1  0
  6  7  1  0
  7  8  1  0
  8  9  2  0
  8 10  1  0
 10 11  1  0
 11 12  2  0
 12 13  1  0
 13 14  2  0
 14 15  1  0
 15 16  2  0
 16 17  1  0
  7 18  2  0
 18 19  1  0
 19 20  2  0
 20 21  1  0
 21 22  1  0
 22 23  2  0
 23 24  1  0
 24 25  2  0
 24 26  1  0
 26 27  1  0
 27 28  2  0
 28 29  1  0
 29 30  2  0
 30 31  1  0
 31 32  2  0
 22 33  1  0
 33 34  2  0
 33 35  1  0
  5 36  1  0
 36  2  1  0
 35  6  1  0
 16 11  1  0
 35 20  1  0
 32 23  1  0
 32 27  1  0
  1 37  1  0
  1 38  1  0
  1 39  1  0
  3 40  1  0
  4 41  1  0
  6 42  1  6
 10 43  1  0
 12 44  1  0
 13 45  1  0
 14 46  1  0
 15 47  1  0
 17 48  1  0
 17 49  1  0
 17 50  1  0
 18 51  1  0
 26 52  1  0
 28 53  1  0
 29 54  1  0
 30 55  1  0
 31 56  1  0
M  END
>  <Binding energies>  (1) 
[-8.92]

>  <Ligand effiencies>  (1) 
[-0.23473684210526316]

>  <Interactions>  (1) 
["V-A:MET:535:CE:4833, V-A:ASP:366:CG:3210, V-A:TYR:531:CZ:4792, H-A:ALA:541:N:4889, V-A:PRO:540:CB:4883, V-A:PRO:540:CA:4881, V-A:ASP:366:CB:3209, V-A:ILE:538:CA:4858, V-B:ALA:541:CB:9864, V-A:ASP:366:CA:3207, V-A:ASP:366:C:3205, V-A:LEU:475:CD2:4256, V-B:TYR:539:CE1:9847, V-B:TYR:539:CD1:9845, V-A:PRO:540:C:4879, V-A:TYR:539:CD1:4871, V-A:PRO:540:N:4882, V-A:TYR:539:CA:4867, V-A:TYR:539:C:4865, V-A:TYR:539:CG:4870, V-A:ILE:369:CB:3233, V-B:TYR:539:CZ:9849, V-A:ILE:369:CD1:3236, V-A:ILE:369:CG2:3234, V-A:PRO:540:CD:4885, H-A:ARG:545:NH2:4926, H-B:ALA:541:N:9863, V-A:GLU:543:CD:4906, V-A:TYR:531:CE1:4790, V-A:PRO:482:CG:4324, V-A:SER:385:CB:3406, V-A:PRO:482:CB:4323, V-A:SER:385:CA:3404, V-A:LEU:373:CD1:3277, H-A:TYR:539:O:4866, V-A:ASN:370:CB:3242"]

$$$$
RR19_Rahimova_2017
     RDKit          3D

 72 77  0  0  0  0  0  0  0  0999 V2000
  134.2320  123.0730   60.9570 O   0  0  0  0  0  0  0  0  0  0  0  0
  133.0080  122.9870   60.8230 C   0  0  0  0  0  0  0  0  0  0  0  0
  132.2610  123.6380   59.8950 N   0  0  0  0  0  0  0  0  0  0  0  0
  132.5830  124.3500   58.7660 C   0  0  0  0  0  0  0  0  0  0  0  0
  134.1140  124.4180   58.0470 S   0  0  0  0  0  0  0  0  0  0  0  0
  131.4570  124.9960   58.3180 N   0  0  0  0  0  0  0  0  0  0  0  0
  131.1840  125.7030   57.1930 C   0  0  0  0  0  0  0  0  0  0  0  0
  131.8890  125.7730   56.1830 O   0  0  0  0  0  0  0  0  0  0  0  0
  129.8520  126.4930   57.2550 C   0  0  2  0  0  0  0  0  0  0  0  0
  129.7580  127.5230   58.4180 C   0  0  0  0  0  0  0  0  0  0  0  0
  129.9060  126.9380   59.8140 C   0  0  0  0  0  0  0  0  0  0  0  0
  131.1090  127.0860   60.5370 C   0  0  0  0  0  0  0  0  0  0  0  0
  131.1990  126.6140   61.8400 C   0  0  0  0  0  0  0  0  0  0  0  0
  130.1030  126.0120   62.4450 C   0  0  0  0  0  0  0  0  0  0  0  0
  128.9030  125.8870   61.7560 C   0  0  0  0  0  0  0  0  0  0  0  0
  128.7910  126.3540   60.4530 C   0  0  0  0  0  0  0  0  0  0  0  0
  128.6790  125.5770   57.2390 N   0  0  0  0  0  0  0  0  0  0  0  0
  127.4420  126.0020   57.6250 C   0  0  0  0  0  0  0  0  0  0  0  0
  127.1340  127.1200   58.0440 O   0  0  0  0  0  0  0  0  0  0  0  0
  126.5440  124.8380   57.4290 C   0  0  0  0  0  0  0  0  0  0  0  0
  125.1760  124.6890   57.6620 C   0  0  0  0  0  0  0  0  0  0  0  0
  124.5780  123.4570   57.3740 C   0  0  0  0  0  0  0  0  0  0  0  0
  125.3450  122.4020   56.8620 C   0  0  0  0  0  0  0  0  0  0  0  0
  126.7160  122.5720   56.6350 C   0  0  0  0  0  0  0  0  0  0  0  0
  127.2930  123.8080   56.9300 C   0  0  0  0  0  0  0  0  0  0  0  0
  128.6910  124.2860   56.7910 C   0  0  0  0  0  0  0  0  0  0  0  0
  129.6530  123.6520   56.3550 O   0  0  0  0  0  0  0  0  0  0  0  0
  132.1940  122.0790   61.7830 C   0  0  2  0  0  0  0  0  0  0  0  0
  132.6600  122.1500   63.2650 C   0  0  0  0  0  0  0  0  0  0  0  0
  132.1470  123.3670   64.0150 C   0  0  0  0  0  0  0  0  0  0  0  0
  130.9250  123.3010   64.7180 C   0  0  0  0  0  0  0  0  0  0  0  0
  130.5080  124.3810   65.4860 C   0  0  0  0  0  0  0  0  0  0  0  0
  131.3010  125.5160   65.5890 C   0  0  0  0  0  0  0  0  0  0  0  0
  132.5260  125.5790   64.9340 C   0  0  0  0  0  0  0  0  0  0  0  0
  132.9600  124.5110   64.1600 C   0  0  0  0  0  0  0  0  0  0  0  0
  132.0850  120.6690   61.3120 N   0  0  0  0  0  0  0  0  0  0  0  0
  130.8770  120.0570   61.1530 C   0  0  0  0  0  0  0  0  0  0  0  0
  129.7640  120.5350   61.3760 O   0  0  0  0  0  0  0  0  0  0  0  0
  131.1890  118.6950   60.6540 C   0  0  0  0  0  0  0  0  0  0  0  0
  130.3510  117.6290   60.3230 C   0  0  0  0  0  0  0  0  0  0  0  0
  130.9300  116.4390   59.8670 C   0  0  0  0  0  0  0  0  0  0  0  0
  132.3220  116.3310   59.7460 C   0  0  0  0  0  0  0  0  0  0  0  0
  133.1450  117.4130   60.0810 C   0  0  0  0  0  0  0  0  0  0  0  0
  132.5480  118.5900   60.5360 C   0  0  0  0  0  0  0  0  0  0  0  0
  133.1430  119.8810   60.9570 C   0  0  0  0  0  0  0  0  0  0  0  0
  134.3370  120.1800   60.9800 O   0  0  0  0  0  0  0  0  0  0  0  0
  131.2680  123.4880   60.0060 H   0  0  0  0  0  0  0  0  0  0  0  0
  130.7140  125.0320   59.0010 H   0  0  0  0  0  0  0  0  0  0  0  0
  129.8377  127.1022   56.3392 H   0  0  0  0  0  0  0  0  0  0  0  0
  130.5527  128.2702   58.2760 H   0  0  0  0  0  0  0  0  0  0  0  0
  128.7438  127.9461   58.3701 H   0  0  0  0  0  0  0  0  0  0  0  0
  131.9756  127.5753   60.0683 H   0  0  0  0  0  0  0  0  0  0  0  0
  132.1427  126.7173   62.3956 H   0  0  0  0  0  0  0  0  0  0  0  0
  130.1856  125.6326   63.4742 H   0  0  0  0  0  0  0  0  0  0  0  0
  128.0376  125.4159   62.2449 H   0  0  0  0  0  0  0  0  0  0  0  0
  127.8332  126.2688   59.9187 H   0  0  0  0  0  0  0  0  0  0  0  0
  124.5805  125.5222   58.0635 H   0  0  0  0  0  0  0  0  0  0  0  0
  123.5014  123.3162   57.5503 H   0  0  0  0  0  0  0  0  0  0  0  0
  124.8681  121.4365   56.6376 H   0  0  0  0  0  0  0  0  0  0  0  0
  127.3252  121.7491   56.2328 H   0  0  0  0  0  0  0  0  0  0  0  0
  131.1800  122.5046   61.7581 H   0  0  0  0  0  0  0  0  0  0  0  0
  132.3031  121.2480   63.7836 H   0  0  0  0  0  0  0  0  0  0  0  0
  133.7575  122.2235   63.2509 H   0  0  0  0  0  0  0  0  0  0  0  0
  130.3034  122.3954   64.6579 H   0  0  0  0  0  0  0  0  0  0  0  0
  129.5447  124.3367   66.0152 H   0  0  0  0  0  0  0  0  0  0  0  0
  130.9584  126.3699   66.1919 H   0  0  0  0  0  0  0  0  0  0  0  0
  133.1532  126.4777   65.0293 H   0  0  0  0  0  0  0  0  0  0  0  0
  133.9385  124.5569   63.6595 H   0  0  0  0  0  0  0  0  0  0  0  0
  129.2591  117.7221   60.4184 H   0  0  0  0  0  0  0  0  0  0  0  0
  130.2895  115.5847   59.6024 H   0  0  0  0  0  0  0  0  0  0  0  0
  132.7696  115.3927   59.3865 H   0  0  0  0  0  0  0  0  0  0  0  0
  134.2384  117.3373   59.9877 H   0  0  0  0  0  0  0  0  0  0  0  0
  1  2  2  0
  2  3  1  0
  3  4  1  0
  4  5  2  0
  4  6  1  0
  6  7  1  0
  7  8  2  0
  7  9  1  0
  9 10  1  0
 10 11  1  0
 11 12  2  0
 12 13  1  0
 13 14  2  0
 14 15  1  0
 15 16  2  0
  9 17  1  0
 17 18  1  0
 18 19  2  0
 18 20  1  0
 20 21  2  0
 21 22  1  0
 22 23  2  0
 23 24  1  0
 24 25  2  0
 25 26  1  0
 26 27  2  0
  2 28  1  0
 28 29  1  0
 29 30  1  0
 30 31  2  0
 31 32  1  0
 32 33  2  0
 33 34  1  0
 34 35  2  0
 28 36  1  0
 36 37  1  0
 37 38  2  0
 37 39  1  0
 39 40  2  0
 40 41  1  0
 41 42  2  0
 42 43  1  0
 43 44  2  0
 44 45  1  0
 45 46  2  0
 16 11  1  0
 26 17  1  0
 35 30  1  0
 45 36  1  0
 25 20  1  0
 44 39  1  0
  3 47  1  0
  6 48  1  0
  9 49  1  6
 10 50  1  0
 10 51  1  0
 12 52  1  0
 13 53  1  0
 14 54  1  0
 15 55  1  0
 16 56  1  0
 21 57  1  0
 22 58  1  0
 23 59  1  0
 24 60  1  0
 28 61  1  1
 29 62  1  0
 29 63  1  0
 31 64  1  0
 32 65  1  0
 33 66  1  0
 34 67  1  0
 35 68  1  0
 40 69  1  0
 41 70  1  0
 42 71  1  0
 43 72  1  0
M  END
>  <Binding energies>  (1) 
[-11.84]

>  <Ligand effiencies>  (1) 
[-0.24666666666666667]

>  <Interactions>  (1) 
["V-B:ASP:366:CG:8184, V-A:ASP:366:CG:3210, V-A:ASP:366:CB:3209, H-A:TYR:531:OH:4793, V-B:ASP:366:CB:8183, H-B:TYR:531:OH:9767, V-B:PRO:540:CA:9855, V-B:PRO:540:CB:9857, V-B:LEU:363:CD1:8160, V-B:MET:535:CE:9807, V-A:ASP:366:CA:3207, V-B:PRO:540:CG:9858, V-B:ILE:538:CG2:9835, V-B:ILE:538:CB:9834, V-B:ILE:538:CA:9832, V-B:PRO:540:CD:9859, V-A:ASP:366:C:3205, V-B:PRO:540:N:9856, V-A:LEU:475:CD2:4256, V-B:GLU:543:CD:9880, V-B:TYR:539:C:9839, V-B:TYR:539:CE1:9847, V-B:TYR:539:CD1:9845, V-B:TYR:539:CG:9844, V-A:ILE:369:CB:3233, V-B:TYR:539:CZ:9849, V-B:TYR:531:CE2:9765, V-A:ILE:369:CG2:3234, H-B:TYR:539:OH:9850, V-A:GLY:454:CA:4046, V-B:TYR:531:CZ:9766, V-A:TYR:484:CZ:4344, V-A:ARG:545:CD:4921, V-A:HIS:456:CE1:4066, V-A:ARG:545:CZ:4924, H-B:ALA:541:N:9863, V-A:PRO:482:CG:4324, V-A:SER:385:CB:3406, V-A:PRO:482:CB:4323, V-A:SER:385:CA:3404, V-B:TYR:539:CB:9843, V-B:GLU:543:CB:9878, V-B:GLU:543:CG:9879, V-A:LEU:373:CD1:3277, V-A:TYR:484:CE2:4343, V-B:VAL:344:CG1:7972"]

$$$$
RR19_Rahimova_2017-again1
     RDKit          3D

 71 76  0  0  0  0  0  0  0  0999 V2000
  124.1660  131.5060   59.2960 O   0  0  0  0  0  0  0  0  0  0  0  0
  125.1660  131.0380   59.8460 C   0  0  0  0  0  0  0  0  0  0  0  0
  125.9830  130.0890   59.3290 N   0  0  0  0  0  0  0  0  0  0  0  0
  126.0620  129.5030   58.0970 C   0  0  0  0  0  0  0  0  0  0  0  0
  125.0680  129.6660   56.7520 S   0  0  0  0  0  0  0  0  0  0  0  0
  127.2230  128.7500   58.0910 N   0  0  0  0  0  0  0  0  0  0  0  0
  128.2170  128.7730   58.9180 C   0  0  0  0  0  0  0  0  0  0  0  0
  128.3700  129.4100   59.9790 O   0  0  0  0  0  0  0  0  0  0  0  0
  129.4380  127.8750   58.5250 C   0  0  2  0  0  0  0  0  0  0  0  0
  130.4830  128.6720   57.6750 C   0  0  0  0  0  0  0  0  0  0  0  0
  130.2320  130.1770   57.6100 C   0  0  0  0  0  0  0  0  0  0  0  0
  129.5510  130.7240   56.5200 C   0  0  0  0  0  0  0  0  0  0  0  0
  129.3090  132.0940   56.4670 C   0  0  0  0  0  0  0  0  0  0  0  0
  129.7510  132.9140   57.5040 C   0  0  0  0  0  0  0  0  0  0  0  0
  130.4350  132.3750   58.5920 C   0  0  0  0  0  0  0  0  0  0  0  0
  130.6780  131.0050   58.6440 C   0  0  0  0  0  0  0  0  0  0  0  0
  129.0460  126.5480   57.9470 N   0  0  0  0  0  0  0  0  0  0  0  0
  127.9500  125.8710   58.3930 C   0  0  0  0  0  0  0  0  0  0  0  0
  127.1720  126.2110   59.2850 O   0  0  0  0  0  0  0  0  0  0  0  0
  127.8920  124.6320   57.5750 C   0  0  0  0  0  0  0  0  0  0  0  0
  126.9900  123.5670   57.5920 C   0  0  0  0  0  0  0  0  0  0  0  0
  127.1830  122.5130   56.6920 C   0  0  0  0  0  0  0  0  0  0  0  0
  128.2590  122.5370   55.7950 C   0  0  0  0  0  0  0  0  0  0  0  0
  129.1510  123.6140   55.7940 C   0  0  0  0  0  0  0  0  0  0  0  0
  128.9430  124.6550   56.7000 C   0  0  0  0  0  0  0  0  0  0  0  0
  129.7020  125.9070   56.9320 C   0  0  0  0  0  0  0  0  0  0  0  0
  130.7080  126.2850   56.3340 O   0  0  0  0  0  0  0  0  0  0  0  0
  125.5720  131.5410   61.2630 C   0  0  2  0  0  0  0  0  0  0  0  0
  124.7460  130.9010   62.4150 C   0  0  0  0  0  0  0  0  0  0  0  0
  125.5730  130.5180   63.6290 C   0  0  0  0  0  0  0  0  0  0  0  0
  126.7610  131.2200   63.9260 C   0  0  0  0  0  0  0  0  0  0  0  0
  127.4640  130.9350   65.0890 C   0  0  0  0  0  0  0  0  0  0  0  0
  126.9890  129.9790   65.9790 C   0  0  0  0  0  0  0  0  0  0  0  0
  125.8010  129.3070   65.7180 C   0  0  0  0  0  0  0  0  0  0  0  0
  125.0830  129.5780   64.5610 C   0  0  0  0  0  0  0  0  0  0  0  0
  125.6450  133.0290   61.3830 N   0  0  0  0  0  0  0  0  0  0  0  0
  126.8360  133.6900   61.3600 C   0  0  0  0  0  0  0  0  0  0  0  0
  127.9640  133.1970   61.3220 O   0  0  0  0  0  0  0  0  0  0  0  0
  126.4880  135.1320   61.3780 C   0  0  0  0  0  0  0  0  0  0  0  0
  127.2980  136.2690   61.3550 C   0  0  0  0  0  0  0  0  0  0  0  0
  126.6860  137.5270   61.3600 C   0  0  0  0  0  0  0  0  0  0  0  0
  125.2890  137.6330   61.3900 C   0  0  0  0  0  0  0  0  0  0  0  0
  124.4940  136.4820   61.4160 C   0  0  0  0  0  0  0  0  0  0  0  0
  125.1240  135.2370   61.4080 C   0  0  0  0  0  0  0  0  0  0  0  0
  124.5630  133.8630   61.4010 C   0  0  0  0  0  0  0  0  0  0  0  0
  123.3730  133.5450   61.3990 O   0  0  0  0  0  0  0  0  0  0  0  0
  126.7360  129.8210   59.9450 H   0  0  0  0  0  0  0  0  0  0  0  0
  129.9525  127.6025   59.4583 H   0  0  0  0  0  0  0  0  0  0  0  0
  131.4786  128.5085   58.1133 H   0  0  0  0  0  0  0  0  0  0  0  0
  130.3993  128.2964   56.6445 H   0  0  0  0  0  0  0  0  0  0  0  0
  129.2060  130.0724   55.7036 H   0  0  0  0  0  0  0  0  0  0  0  0
  128.7715  132.5274   55.6107 H   0  0  0  0  0  0  0  0  0  0  0  0
  129.5582  133.9962   57.4632 H   0  0  0  0  0  0  0  0  0  0  0  0
  130.7813  133.0289   59.4059 H   0  0  0  0  0  0  0  0  0  0  0  0
  131.2207  130.5745   59.4985 H   0  0  0  0  0  0  0  0  0  0  0  0
  126.1460  123.5564   58.2974 H   0  0  0  0  0  0  0  0  0  0  0  0
  126.4866  121.6615   56.6888 H   0  0  0  0  0  0  0  0  0  0  0  0
  128.4027  121.7057   55.0890 H   0  0  0  0  0  0  0  0  0  0  0  0
  129.9989  123.6401   55.0937 H   0  0  0  0  0  0  0  0  0  0  0  0
  126.6032  131.1785   61.3863 H   0  0  0  0  0  0  0  0  0  0  0  0
  123.9789  131.6225   62.7327 H   0  0  0  0  0  0  0  0  0  0  0  0
  124.3140  129.9706   62.0179 H   0  0  0  0  0  0  0  0  0  0  0  0
  127.1300  131.9931   63.2359 H   0  0  0  0  0  0  0  0  0  0  0  0
  128.4011  131.4683   65.3069 H   0  0  0  0  0  0  0  0  0  0  0  0
  127.5560  129.7533   66.8942 H   0  0  0  0  0  0  0  0  0  0  0  0
  125.4279  128.5572   66.4311 H   0  0  0  0  0  0  0  0  0  0  0  0
  124.1316  129.0598   64.3705 H   0  0  0  0  0  0  0  0  0  0  0  0
  128.3940  136.1776   61.3334 H   0  0  0  0  0  0  0  0  0  0  0  0
  127.3040  138.4368   61.3403 H   0  0  0  0  0  0  0  0  0  0  0  0
  124.8152  138.6257   61.3931 H   0  0  0  0  0  0  0  0  0  0  0  0
  123.3969  136.5569   61.4422 H   0  0  0  0  0  0  0  0  0  0  0  0
  1  2  2  0
  2  3  1  0
  3  4  1  0
  4  5  2  0
  4  6  1  0
  6  7  2  0
  7  8  1  0
  7  9  1  0
  9 10  1  0
 10 11  1  0
 11 12  2  0
 12 13  1  0
 13 14  2  0
 14 15  1  0
 15 16  2  0
  9 17  1  0
 17 18  1  0
 18 19  2  0
 18 20  1  0
 20 21  2  0
 21 22  1  0
 22 23  2  0
 23 24  1  0
 24 25  2  0
 25 26  1  0
 26 27  2  0
  2 28  1  0
 28 29  1  0
 29 30  1  0
 30 31  2  0
 31 32  1  0
 32 33  2  0
 33 34  1  0
 34 35  2  0
 28 36  1  0
 36 37  1  0
 37 38  2  0
 37 39  1  0
 39 40  2  0
 40 41  1  0
 41 42  2  0
 42 43  1  0
 43 44  2  0
 44 45  1  0
 45 46  2  0
 16 11  1  0
 26 17  1  0
 35 30  1  0
 45 36  1  0
 25 20  1  0
 44 39  1  0
  3 47  1  0
  9 48  1  1
 10 49  1  0
 10 50  1  0
 12 51  1  0
 13 52  1  0
 14 53  1  0
 15 54  1  0
 16 55  1  0
 21 56  1  0
 22 57  1  0
 23 58  1  0
 24 59  1  0
 28 60  1  1
 29 61  1  0
 29 62  1  0
 31 63  1  0
 32 64  1  0
 33 65  1  0
 34 66  1  0
 35 67  1  0
 40 68  1  0
 41 69  1  0
 42 70  1  0
 43 71  1  0
M  CHG  1   8  -1
M  END
>  <Binding energies>  (1) 
[-11.11]

>  <Ligand effiencies>  (1) 
[-0.23638297872340425]

>  <Interactions>  (1) 
["V-A:MET:535:CE:4833, V-B:ASP:366:CG:8184, H-A:TYR:539:OH:4876, V-A:PRO:540:CB:4883, V-A:PRO:540:CA:4881, H-A:TYR:531:OH:4793, V-B:ASP:366:CB:8183, V-A:TYR:539:CE1:4873, V-B:MET:535:CE:9807, V-B:ILE:538:CA:9832, V-B:PRO:540:N:9856, V-B:TYR:539:C:9839, V-B:TYR:539:CE1:9847, V-A:TYR:539:CD1:4871, V-A:PRO:540:N:4882, V-A:TYR:539:CA:4867, V-A:TYR:539:C:4865, V-A:TYR:539:CG:4870, V-B:ILE:369:CG2:8208, V-B:TYR:539:CG:9844, V-B:TYR:539:CZ:9849, V-B:ARG:545:CZ:9898, V-B:PRO:482:CB:9297, V-B:SER:385:CA:8378, V-B:PRO:482:CG:9298, V-B:LEU:475:CD2:9230, V-B:SER:385:CB:8380, V-B:LEU:373:CD1:8251, V-B:TYR:531:CZ:9766, V-B:TYR:539:CE2:9848, V-B:TYR:539:CA:9841, V-A:GLU:543:CD:4906, V-B:TYR:531:CE1:9764, V-B:HIS:456:CE1:9040, V-B:ARG:545:CD:9895, V-A:GLU:543:CB:4904, V-B:TYR:484:CZ:9318, V-B:TYR:484:CE2:9317, V-B:ILE:538:C:9830, V-B:TYR:539:CD2:9846, V-A:TYR:539:CB:4869"]

$$$$
RR1_Rahimova_2017
     RDKit          3D

 68 71  0  0  0  0  0  0  0  0999 V2000
  127.3370  129.0500   74.8430 C   0  0  0  0  0  0  0  0  0  0  0  0
  128.5990  128.5080   74.4730 O   0  0  0  0  0  0  0  0  0  0  0  0
  128.8070  128.1150   73.1650 C   0  0  0  0  0  0  0  0  0  0  0  0
  130.0580  128.1150   72.5280 C   0  0  0  0  0  0  0  0  0  0  0  0
  130.1700  127.7080   71.2020 C   0  0  0  0  0  0  0  0  0  0  0  0
  129.0430  127.2890   70.4940 C   0  0  0  0  0  0  0  0  0  0  0  0
  129.2510  126.9400   69.1460 N   0  0  0  0  0  0  0  0  0  0  0  0
  129.1620  127.7100   68.0400 C   0  0  0  0  0  0  0  0  0  0  0  0
  128.7980  128.8860   68.0310 O   0  0  0  0  0  0  0  0  0  0  0  0
  129.5510  127.0000   66.7330 C   0  0  0  0  0  0  0  0  0  0  0  0
  130.4320  125.4120   66.9370 S   0  0  0  0  0  0  0  0  0  0  0  0
  130.8720  125.1630   65.2500 C   0  0  0  0  0  0  0  0  0  0  0  0
  131.7490  124.2820   64.8400 N   0  0  0  0  0  0  0  0  0  0  0  0
  131.7550  124.4300   63.5190 C   0  0  0  0  0  0  0  0  0  0  0  0
  132.6230  123.5950   62.6210 C   0  0  0  0  0  0  0  0  0  0  0  0
  133.0360  124.0580   61.3610 C   0  0  0  0  0  0  0  0  0  0  0  0
  133.8410  123.2580   60.5470 C   0  0  0  0  0  0  0  0  0  0  0  0
  134.2170  122.0000   61.0160 C   0  0  0  0  0  0  0  0  0  0  0  0
  133.8360  121.5210   62.2270 N   0  0  0  0  0  0  0  0  0  0  0  0
  133.0560  122.3150   63.0040 C   0  0  0  0  0  0  0  0  0  0  0  0
  130.9420  125.3570   63.0500 N   0  0  0  0  0  0  0  0  0  0  0  0
  130.3730  125.8320   64.1620 N   0  0  0  0  0  0  0  0  0  0  0  0
  129.3630  126.8880   64.0870 C   0  0  0  0  0  0  0  0  0  0  0  0
  129.2250  127.5600   62.7100 C   0  0  0  0  0  0  0  0  0  0  0  0
  128.2120  127.3920   62.0230 O   0  0  0  0  0  0  0  0  0  0  0  0
  130.2760  128.3170   62.3400 N   0  0  0  0  0  0  0  0  0  0  0  0
  130.1630  129.0700   61.1800 N   0  0  0  0  0  0  0  0  0  0  0  0
  130.6510  130.3300   61.1960 C   0  0  0  0  0  0  0  0  0  0  0  0
  131.2810  130.8160   62.1420 O   0  0  0  0  0  0  0  0  0  0  0  0
  130.4050  131.1450   59.9430 C   0  0  0  0  0  0  0  0  0  0  0  0
  129.1460  131.7110   59.7140 C   0  0  0  0  0  0  0  0  0  0  0  0
  128.8940  132.4520   58.5640 C   0  0  0  0  0  0  0  0  0  0  0  0
  129.8970  132.6450   57.6010 C   0  0  0  0  0  0  0  0  0  0  0  0
  129.7090  133.3590   56.4310 O   0  0  0  0  0  0  0  0  0  0  0  0
  128.9480  132.7860   55.3740 C   0  0  0  0  0  0  0  0  0  0  0  0
  131.1630  132.0800   57.8080 C   0  0  0  0  0  0  0  0  0  0  0  0
  132.1100  132.2830   56.8180 O   0  0  0  0  0  0  0  0  0  0  0  0
  133.3230  131.5390   56.8420 C   0  0  0  0  0  0  0  0  0  0  0  0
  131.4060  131.3390   58.9780 C   0  0  0  0  0  0  0  0  0  0  0  0
  127.7910  127.2860   71.1280 C   0  0  0  0  0  0  0  0  0  0  0  0
  127.6830  127.6930   72.4540 C   0  0  0  0  0  0  0  0  0  0  0  0
  127.2596  129.0833   75.9398 H   0  0  0  0  0  0  0  0  0  0  0  0
  127.2422  130.0682   74.4377 H   0  0  0  0  0  0  0  0  0  0  0  0
  126.5333  128.4177   74.4377 H   0  0  0  0  0  0  0  0  0  0  0  0
  130.9534  128.4380   73.0793 H   0  0  0  0  0  0  0  0  0  0  0  0
  131.1532  127.7166   70.7089 H   0  0  0  0  0  0  0  0  0  0  0  0
  129.4650  125.9650   68.9960 H   0  0  0  0  0  0  0  0  0  0  0  0
  128.6294  126.8064   66.1645 H   0  0  0  0  0  0  0  0  0  0  0  0
  130.2535  127.6730   66.2195 H   0  0  0  0  0  0  0  0  0  0  0  0
  132.7243  125.0542   61.0140 H   0  0  0  0  0  0  0  0  0  0  0  0
  134.1706  123.6121   59.5591 H   0  0  0  0  0  0  0  0  0  0  0  0
  134.8504  121.3680   60.3761 H   0  0  0  0  0  0  0  0  0  0  0  0
  132.7458  121.9347   63.9885 H   0  0  0  0  0  0  0  0  0  0  0  0
  128.3898  126.4486   64.3512 H   0  0  0  0  0  0  0  0  0  0  0  0
  129.6900  127.6757   64.7817 H   0  0  0  0  0  0  0  0  0  0  0  0
  131.0080  128.6330   62.9610 H   0  0  0  0  0  0  0  0  0  0  0  0
  129.3220  128.8410   60.6710 H   0  0  0  0  0  0  0  0  0  0  0  0
  128.3444  131.5680   60.4536 H   0  0  0  0  0  0  0  0  0  0  0  0
  127.8979  132.8915   58.4075 H   0  0  0  0  0  0  0  0  0  0  0  0
  128.1365  132.1749   55.7959 H   0  0  0  0  0  0  0  0  0  0  0  0
  128.5194  133.5875   54.7545 H   0  0  0  0  0  0  0  0  0  0  0  0
  129.5999  132.1525   54.7545 H   0  0  0  0  0  0  0  0  0  0  0  0
  133.6206  131.3565   57.8851 H   0  0  0  0  0  0  0  0  0  0  0  0
  133.1734  130.5771   56.3297 H   0  0  0  0  0  0  0  0  0  0  0  0
  134.1126  132.1084   56.3297 H   0  0  0  0  0  0  0  0  0  0  0  0
  132.4022  130.9018   59.1407 H   0  0  0  0  0  0  0  0  0  0  0  0
  126.8958  126.9621   70.5770 H   0  0  0  0  0  0  0  0  0  0  0  0
  126.7001  127.6820   72.9477 H   0  0  0  0  0  0  0  0  0  0  0  0
  1  2  1  0
  2  3  1  0
  3  4  2  0
  4  5  1  0
  5  6  2  0
  6  7  1  0
  7  8  1  0
  8  9  2  0
  8 10  1  0
 10 11  1  0
 11 12  1  0
 12 13  2  0
 13 14  1  0
 14 15  1  0
 15 16  2  0
 16 17  1  0
 17 18  2  0
 18 19  1  0
 19 20  2  0
 14 21  2  0
 21 22  1  0
 22 23  1  0
 23 24  1  0
 24 25  2  0
 24 26  1  0
 26 27  1  0
 27 28  1  0
 28 29  2  0
 28 30  1  0
 30 31  2  0
 31 32  1  0
 32 33  2  0
 33 34  1  0
 34 35  1  0
 33 36  1  0
 36 37  1  0
 37 38  1  0
 36 39  2  0
  6 40  1  0
 40 41  2  0
 41  3  1  0
 22 12  1  0
 39 30  1  0
 20 15  1  0
  1 42  1  0
  1 43  1  0
  1 44  1  0
  4 45  1  0
  5 46  1  0
  7 47  1  0
 10 48  1  0
 10 49  1  0
 16 50  1  0
 17 51  1  0
 18 52  1  0
 20 53  1  0
 23 54  1  0
 23 55  1  0
 26 56  1  0
 27 57  1  0
 31 58  1  0
 32 59  1  0
 35 60  1  0
 35 61  1  0
 35 62  1  0
 38 63  1  0
 38 64  1  0
 38 65  1  0
 39 66  1  0
 40 67  1  0
 41 68  1  0
M  END
>  <Binding energies>  (1) 
[-9.05]

>  <Ligand effiencies>  (1) 
[-0.2056818181818182]

>  <Interactions>  (1) 
["V-A:MET:535:CE:4833, V-A:TYR:539:CE2:4874, V-A:TYR:531:CZ:4792, V-A:LEU:363:CA:3182, V-A:TYR:531:CE2:4791, V-A:PRO:540:CB:4883, V-A:PRO:540:CA:4881, V-A:ILE:538:CA:4858, V-A:LEU:363:CD1:3186, H-A:TYR:539:N:4868, V-A:TYR:539:CZ:4875, V-A:TYR:539:CE1:4873, V-A:TYR:539:CD2:4872, V-A:LEU:475:CD2:4256, V-B:GLU:543:CD:9880, V-A:TYR:539:CD1:4871, V-A:PRO:540:N:4882, V-A:TYR:539:C:4865, V-A:TYR:539:CG:4870, V-A:ILE:369:CB:3233, V-A:ILE:369:CD1:3236, V-A:ILE:369:CG1:3235, V-A:ILE:369:CG2:3234, V-A:ILE:538:C:4856, H-A:GLY:454:N:4047, V-A:GLY:454:CA:4046, H-A:TYR:484:OH:4345, H-A:ARG:545:NH2:4926, V-A:HIS:456:CE1:4066, V-A:GLU:543:CD:4906, H-A:GLU:543:OE2:4908, H-A:GLU:543:OE1:4907, V-B:HIS:456:CE1:9040, V-A:GLU:543:CG:4905, V-B:GLU:543:CG:9879, V-A:GLY:544:CA:4912, V-B:HIS:456:CG:9037, V-B:HIS:456:CD2:9039, V-B:HIS:456:CB:9036, V-B:GLY:544:C:9884, V-B:GLU:543:C:9874, V-B:GLY:544:CA:9886, V-A:GLU:543:C:4900, H-B:LYS:547:NZ:9923, V-A:LYS:547:CE:4948, V-A:GLY:544:C:4910, H-A:LYS:547:NZ:4949, H-B:HIS:456:NE2:9041, H-A:HIS:456:NE2:4067, H-B:GLU:543:O:9875"]

$$$$
RR20_Rahimova_2017
     RDKit          3D

 68 73  0  0  0  0  0  0  0  0999 V2000
  133.1350  115.3460   59.1960 C   0  0  0  0  0  0  0  0  0  0  0  0
  132.5600  116.6290   59.7690 C   0  0  0  0  0  0  0  0  0  0  0  0
  131.1840  116.8510   59.7300 C   0  0  0  0  0  0  0  0  0  0  0  0
  130.6540  118.0230   60.2640 C   0  0  0  0  0  0  0  0  0  0  0  0
  131.4970  118.9880   60.8280 C   0  0  0  0  0  0  0  0  0  0  0  0
  130.8990  120.2440   61.4210 C   0  0  0  0  0  0  0  0  0  0  0  0
  129.7480  120.1770   61.8590 O   0  0  0  0  0  0  0  0  0  0  0  0
  131.6470  121.3860   61.4620 N   0  0  0  0  0  0  0  0  0  0  0  0
  133.1160  121.3490   61.3880 C   0  0  0  0  0  0  0  0  0  0  0  0
  133.5770  122.7940   61.3070 C   0  0  0  0  0  0  0  0  0  0  0  0
  132.3180  123.5280   60.9610 C   0  0  0  0  0  0  0  0  0  0  0  0
  132.1390  124.8810   60.6730 C   0  0  0  0  0  0  0  0  0  0  0  0
  130.8530  125.4170   60.5320 C   0  0  0  0  0  0  0  0  0  0  0  0
  130.6600  126.8730   60.2130 C   0  0  0  0  0  0  0  0  0  0  0  0
  130.2580  127.6810   61.1810 N   0  0  0  0  0  0  0  0  0  0  0  0
  130.1430  128.9270   60.7960 C   0  0  0  0  0  0  0  0  0  0  0  0
  129.7520  130.0220   61.5520 N   0  0  0  0  0  0  0  0  0  0  0  0
  129.1940  131.1700   61.0960 C   0  0  0  0  0  0  0  0  0  0  0  0
  128.9340  131.3860   59.9110 O   0  0  0  0  0  0  0  0  0  0  0  0
  128.8380  132.2650   62.1290 C   0  0  0  0  0  0  0  0  0  0  0  0
  127.6730  133.0770   61.7300 N   0  0  0  0  0  0  0  0  0  0  0  0
  126.4290  132.6280   62.3720 C   0  0  0  0  0  0  0  0  0  0  0  0
  125.2130  133.3270   61.7240 C   0  0  0  0  0  0  0  0  0  0  0  0
  125.4170  134.8310   61.5390 C   0  0  0  0  0  0  0  0  0  0  0  0
  124.3430  135.6700   61.2220 C   0  0  0  0  0  0  0  0  0  0  0  0
  124.5360  137.0340   61.0150 C   0  0  0  0  0  0  0  0  0  0  0  0
  125.8120  137.5770   61.1260 C   0  0  0  0  0  0  0  0  0  0  0  0
  126.8880  136.7540   61.4500 C   0  0  0  0  0  0  0  0  0  0  0  0
  126.7090  135.3820   61.6590 C   0  0  0  0  0  0  0  0  0  0  0  0
  127.8800  134.4900   62.0710 C   0  0  0  0  0  0  0  0  0  0  0  0
  130.5280  129.2000   59.1420 S   0  0  0  0  0  0  0  0  0  0  0  0
  130.8610  127.4940   58.9610 C   0  0  0  0  0  0  0  0  0  0  0  0
  131.2590  126.9290   57.6150 C   0  0  0  0  0  0  0  0  0  0  0  0
  129.7500  124.5750   60.7430 C   0  0  0  0  0  0  0  0  0  0  0  0
  129.9260  123.2260   61.0500 C   0  0  0  0  0  0  0  0  0  0  0  0
  131.2160  122.6840   61.1030 C   0  0  0  0  0  0  0  0  0  0  0  0
  132.8750  118.7440   60.8900 C   0  0  0  0  0  0  0  0  0  0  0  0
  133.4060  117.5710   60.3570 C   0  0  0  0  0  0  0  0  0  0  0  0
  133.4339  114.6790   60.0180 H   0  0  0  0  0  0  0  0  0  0  0  0
  132.3742  114.8474   58.5774 H   0  0  0  0  0  0  0  0  0  0  0  0
  134.0134  115.5821   58.5774 H   0  0  0  0  0  0  0  0  0  0  0  0
  130.5179  116.1014   59.2780 H   0  0  0  0  0  0  0  0  0  0  0  0
  129.5672  118.1914   60.2425 H   0  0  0  0  0  0  0  0  0  0  0  0
  133.5303  120.8671   62.2859 H   0  0  0  0  0  0  0  0  0  0  0  0
  133.4573  120.7717   60.5161 H   0  0  0  0  0  0  0  0  0  0  0  0
  133.9816  123.1350   62.2714 H   0  0  0  0  0  0  0  0  0  0  0  0
  134.3860  122.9517   60.5785 H   0  0  0  0  0  0  0  0  0  0  0  0
  133.0168  125.5335   60.5555 H   0  0  0  0  0  0  0  0  0  0  0  0
  129.9110  129.9520   62.5480 H   0  0  0  0  0  0  0  0  0  0  0  0
  128.6145  131.7802   63.0908 H   0  0  0  0  0  0  0  0  0  0  0  0
  129.7018  132.9422   62.2014 H   0  0  0  0  0  0  0  0  0  0  0  0
  126.3297  131.5392   62.2507 H   0  0  0  0  0  0  0  0  0  0  0  0
  126.4634  132.8846   63.4411 H   0  0  0  0  0  0  0  0  0  0  0  0
  125.0325  132.8739   60.7381 H   0  0  0  0  0  0  0  0  0  0  0  0
  124.3566  133.1919   62.4010 H   0  0  0  0  0  0  0  0  0  0  0  0
  123.3316  135.2464   61.1350 H   0  0  0  0  0  0  0  0  0  0  0  0
  123.6817  137.6800   60.7644 H   0  0  0  0  0  0  0  0  0  0  0  0
  125.9706  138.6525   60.9585 H   0  0  0  0  0  0  0  0  0  0  0  0
  127.8939  137.1893   61.5430 H   0  0  0  0  0  0  0  0  0  0  0  0
  128.7873  134.8445   61.5600 H   0  0  0  0  0  0  0  0  0  0  0  0
  127.9731  134.5540   63.1652 H   0  0  0  0  0  0  0  0  0  0  0  0
  131.8868  126.0378   57.7625 H   0  0  0  0  0  0  0  0  0  0  0  0
  130.3555  126.6520   57.0520 H   0  0  0  0  0  0  0  0  0  0  0  0
  131.8241  127.6864   57.0520 H   0  0  0  0  0  0  0  0  0  0  0  0
  128.7322  124.9850   60.6651 H   0  0  0  0  0  0  0  0  0  0  0  0
  129.0523  122.5884   61.2503 H   0  0  0  0  0  0  0  0  0  0  0  0
  133.5410  119.4817   61.3615 H   0  0  0  0  0  0  0  0  0  0  0  0
  134.4898  117.3877   60.3995 H   0  0  0  0  0  0  0  0  0  0  0  0
  1  2  1  0
  2  3  2  0
  3  4  1  0
  4  5  2  0
  5  6  1  0
  6  7  2  0
  6  8  1  0
  8  9  1  0
  9 10  1  0
 10 11  1  0
 11 12  2  0
 12 13  1  0
 13 14  1  0
 14 15  1  0
 15 16  2  0
 16 17  1  0
 17 18  1  0
 18 19  2  0
 18 20  1  0
 20 21  1  0
 21 22  1  0
 22 23  1  0
 23 24  1  0
 24 25  2  0
 25 26  1  0
 26 27  2  0
 27 28  1  0
 28 29  2  0
 29 30  1  0
 16 31  1  0
 31 32  1  0
 32 33  1  0
 13 34  2  0
 34 35  1  0
 35 36  2  0
  5 37  1  0
 37 38  2  0
 38  2  1  0
 36  8  1  0
 36 11  1  0
 32 14  2  0
 30 21  1  0
 29 24  1  0
  1 39  1  0
  1 40  1  0
  1 41  1  0
  3 42  1  0
  4 43  1  0
  9 44  1  0
  9 45  1  0
 10 46  1  0
 10 47  1  0
 12 48  1  0
 17 49  1  0
 20 50  1  0
 20 51  1  0
 22 52  1  0
 22 53  1  0
 23 54  1  0
 23 55  1  0
 25 56  1  0
 26 57  1  0
 27 58  1  0
 28 59  1  0
 30 60  1  0
 30 61  1  0
 33 62  1  0
 33 63  1  0
 33 64  1  0
 34 65  1  0
 35 66  1  0
 37 67  1  0
 38 68  1  0
M  END
>  <Binding energies>  (1) 
[-10.91]

>  <Ligand effiencies>  (1) 
[-0.27974358974358976]

>  <Interactions>  (1) 
["V-A:ASP:366:CG:3210, V-A:ASP:366:CB:3209, V-A:TYR:539:CE1:4873, V-B:ALA:541:CB:9864, V-A:LEU:475:CD2:4256, V-B:TYR:539:C:9839, V-B:TYR:539:CE1:9847, V-B:TYR:539:CD1:9845, V-A:TYR:539:CD1:4871, V-A:ALA:541:CB:4890, V-B:ILE:369:CG2:8208, V-B:TYR:539:CG:9844, V-A:ILE:369:CD1:3236, V-A:ILE:369:CG2:3234, V-B:PRO:482:CB:9297, V-B:SER:385:CA:8378, V-B:PRO:482:CG:9298, V-B:LEU:475:CD2:9230, V-B:SER:385:CB:8380, V-B:LEU:373:CD1:8251, H-A:ARG:545:NH2:4926, H-B:ALA:541:N:9863, V-A:GLU:543:CD:4906, H-A:GLU:543:OE2:4908, H-A:GLU:543:OE1:4907, V-A:PRO:482:CG:4324, V-A:SER:385:CB:3406, V-A:SER:385:CA:3404, V-B:TYR:539:CB:9843, V-A:HIS:383:CG:3387, V-A:LEU:373:CD2:3278, V-A:HIS:383:CB:3386, V-A:LEU:373:CD1:3277, V-A:VAL:384:C:3394, V-B:VAL:344:CG1:7972, V-A:ALA:541:CA:4888, V-A:HIS:383:CA:3384, V-A:HIS:383:CD2:3389"]

$$$$
RR20_Rahimova_2017-again1
     RDKit          3D

 68 73  0  0  0  0  0  0  0  0999 V2000
  131.8480  114.6610   59.7830 C   0  0  0  0  0  0  0  0  0  0  0  0
  132.0030  116.1430   60.0750 C   0  0  0  0  0  0  0  0  0  0  0  0
  130.8730  116.9570   60.1650 C   0  0  0  0  0  0  0  0  0  0  0  0
  131.0140  118.3140   60.4390 C   0  0  0  0  0  0  0  0  0  0  0  0
  132.2860  118.8720   60.6150 C   0  0  0  0  0  0  0  0  0  0  0  0
  132.4180  120.3450   60.9310 C   0  0  0  0  0  0  0  0  0  0  0  0
  133.5480  120.7840   61.1570 O   0  0  0  0  0  0  0  0  0  0  0  0
  131.3010  121.1310   60.9250 N   0  0  0  0  0  0  0  0  0  0  0  0
  130.1120  120.7810   61.7190 C   0  0  0  0  0  0  0  0  0  0  0  0
  129.1470  121.9470   61.5830 C   0  0  0  0  0  0  0  0  0  0  0  0
  130.0170  123.0340   61.0260 C   0  0  0  0  0  0  0  0  0  0  0  0
  129.6970  124.3680   60.7670 C   0  0  0  0  0  0  0  0  0  0  0  0
  130.5990  125.1990   60.0840 C   0  0  0  0  0  0  0  0  0  0  0  0
  130.2540  126.6320   59.7990 C   0  0  0  0  0  0  0  0  0  0  0  0
  130.8190  127.2160   58.7540 N   0  0  0  0  0  0  0  0  0  0  0  0
  130.4680  128.4680   58.5850 C   0  0  0  0  0  0  0  0  0  0  0  0
  130.8940  129.3630   57.6400 N   0  0  0  0  0  0  0  0  0  0  0  0
  130.1200  130.1100   56.9260 C   0  0  0  0  0  0  0  0  0  0  0  0
  128.8850  130.2760   56.9430 O   0  0  0  0  0  0  0  0  0  0  0  0
  130.8650  130.9550   55.8720 C   0  0  0  0  0  0  0  0  0  0  0  0
  131.1040  132.3930   56.4170 N   0  0  2  0  0  0  0  0  0  0  0  0
  132.5760  132.6400   56.8070 C   0  0  0  0  0  0  0  0  0  0  0  0
  132.9630  131.7460   57.9990 C   0  0  0  0  0  0  0  0  0  0  0  0
  131.9580  131.8050   59.1450 C   0  0  0  0  0  0  0  0  0  0  0  0
  132.3450  131.4030   60.4290 C   0  0  0  0  0  0  0  0  0  0  0  0
  131.4420  131.3990   61.4890 C   0  0  0  0  0  0  0  0  0  0  0  0
  130.1290  131.8010   61.2750 C   0  0  0  0  0  0  0  0  0  0  0  0
  129.7320  132.2150   60.0070 C   0  0  0  0  0  0  0  0  0  0  0  0
  130.6270  132.2350   58.9310 C   0  0  0  0  0  0  0  0  0  0  0  0
  130.1400  132.7530   57.5720 C   0  0  0  0  0  0  0  0  0  0  0  0
  129.3760  129.0360   59.7930 S   0  0  0  0  0  0  0  0  0  0  0  0
  129.3740  127.4540   60.5330 C   0  0  0  0  0  0  0  0  0  0  0  0
  128.5030  127.1700   61.7380 C   0  0  0  0  0  0  0  0  0  0  0  0
  131.8040  124.6460   59.6310 C   0  0  0  0  0  0  0  0  0  0  0  0
  132.1180  123.3080   59.8730 C   0  0  0  0  0  0  0  0  0  0  0  0
  131.2450  122.5100   60.6230 C   0  0  0  0  0  0  0  0  0  0  0  0
  133.4130  118.0430   60.5540 C   0  0  0  0  0  0  0  0  0  0  0  0
  133.2720  116.6850   60.2800 C   0  0  0  0  0  0  0  0  0  0  0  0
  131.7898  114.1048   60.7302 H   0  0  0  0  0  0  0  0  0  0  0  0
  130.9277  114.4957   59.2036 H   0  0  0  0  0  0  0  0  0  0  0  0
  132.7142  114.3089   59.2036 H   0  0  0  0  0  0  0  0  0  0  0  0
  129.8714  116.5262   60.0194 H   0  0  0  0  0  0  0  0  0  0  0  0
  130.1212  118.9518   60.5177 H   0  0  0  0  0  0  0  0  0  0  0  0
  129.6529  119.8599   61.3307 H   0  0  0  0  0  0  0  0  0  0  0  0
  130.3744  120.6012   62.7720 H   0  0  0  0  0  0  0  0  0  0  0  0
  128.3260  121.7035   60.8926 H   0  0  0  0  0  0  0  0  0  0  0  0
  128.6590  122.2215   62.5298 H   0  0  0  0  0  0  0  0  0  0  0  0
  128.7297  124.7714   61.1010 H   0  0  0  0  0  0  0  0  0  0  0  0
  131.8336  130.4850   55.6463 H   0  0  0  0  0  0  0  0  0  0  0  0
  130.2563  131.0113   54.9575 H   0  0  0  0  0  0  0  0  0  0  0  0
  130.9030  133.0190   55.6480 H   0  0  0  0  0  0  0  0  0  0  0  0
  133.2241  132.4048   55.9499 H   0  0  0  0  0  0  0  0  0  0  0  0
  132.7015  133.6951   57.0917 H   0  0  0  0  0  0  0  0  0  0  0  0
  133.0324  130.7058   57.6480 H   0  0  0  0  0  0  0  0  0  0  0  0
  133.9236  132.1159   58.3870 H   0  0  0  0  0  0  0  0  0  0  0  0
  133.3831  131.0840   60.6040 H   0  0  0  0  0  0  0  0  0  0  0  0
  131.7662  131.0794   62.4904 H   0  0  0  0  0  0  0  0  0  0  0  0
  129.4065  131.7920   62.1044 H   0  0  0  0  0  0  0  0  0  0  0  0
  128.6914  132.5337   59.8468 H   0  0  0  0  0  0  0  0  0  0  0  0
  129.1552  132.3116   57.3592 H   0  0  0  0  0  0  0  0  0  0  0  0
  130.0887  133.8501   57.6330 H   0  0  0  0  0  0  0  0  0  0  0  0
  129.0769  127.3571   62.6576 H   0  0  0  0  0  0  0  0  0  0  0  0
  127.6211  127.8271   61.7161 H   0  0  0  0  0  0  0  0  0  0  0  0
  128.1780  126.1193   61.7161 H   0  0  0  0  0  0  0  0  0  0  0  0
  132.5139  125.2766   59.0757 H   0  0  0  0  0  0  0  0  0  0  0  0
  133.0502  122.8806   59.4751 H   0  0  0  0  0  0  0  0  0  0  0  0
  134.4140  118.4664   60.7233 H   0  0  0  0  0  0  0  0  0  0  0  0
  134.1611  116.0397   60.2252 H   0  0  0  0  0  0  0  0  0  0  0  0
  1  2  1  0
  2  3  2  0
  3  4  1  0
  4  5  2  0
  5  6  1  0
  6  7  2  0
  6  8  1  0
  8  9  1  0
  9 10  1  0
 10 11  1  0
 11 12  2  0
 12 13  1  0
 13 14  1  0
 14 15  1  0
 15 16  2  0
 16 17  1  0
 17 18  2  0
 18 19  1  0
 18 20  1  0
 20 21  1  0
 21 22  1  0
 22 23  1  0
 23 24  1  0
 24 25  2  0
 25 26  1  0
 26 27  2  0
 27 28  1  0
 28 29  2  0
 29 30  1  0
 16 31  1  0
 31 32  1  0
 32 33  1  0
 13 34  2  0
 34 35  1  0
 35 36  2  0
  5 37  1  0
 37 38  2  0
 38  2  1  0
 36  8  1  0
 36 11  1  0
 32 14  2  0
 30 21  1  0
 29 24  1  0
  1 39  1  0
  1 40  1  0
  1 41  1  0
  3 42  1  0
  4 43  1  0
  9 44  1  0
  9 45  1  0
 10 46  1  0
 10 47  1  0
 12 48  1  0
 20 49  1  0
 20 50  1  0
 21 51  1  6
 22 52  1  0
 22 53  1  0
 23 54  1  0
 23 55  1  0
 25 56  1  0
 26 57  1  0
 27 58  1  0
 28 59  1  0
 30 60  1  0
 30 61  1  0
 33 62  1  0
 33 63  1  0
 33 64  1  0
 34 65  1  0
 35 66  1  0
 37 67  1  0
 38 68  1  0
M  CHG  2  19  -1  21   1
M  END
>  <Binding energies>  (1) 
[-9.1]

>  <Ligand effiencies>  (1) 
[-0.23333333333333334]

>  <Interactions>  (1) 
["V-A:MET:535:CE:4833, V-A:TYR:531:CZ:4792, V-A:LEU:363:CA:3182, V-A:TYR:531:CE2:4791, V-A:PRO:540:CB:4883, V-A:PRO:540:CA:4881, H-A:TYR:531:OH:4793, V-A:ILE:538:CA:4858, V-A:LEU:363:CD1:3186, V-B:ALA:541:CB:9864, V-B:ALA:541:CA:9862, V-A:LEU:475:CD2:4256, V-B:TYR:539:CE1:9847, V-B:TYR:539:CD1:9845, V-A:PRO:540:N:4882, V-A:TYR:539:CA:4867, V-A:TYR:539:C:4865, V-B:TYR:539:CG:9844, V-B:TYR:539:CZ:9849, V-A:ILE:538:CB:4860, V-A:PRO:540:CD:4885, V-A:ILE:538:CG2:4861, V-A:PRO:540:CG:4884, V-A:PRO:482:CG:4324, V-A:SER:385:CB:3406, V-A:PRO:482:CB:4323, V-A:SER:385:CA:3404, V-B:TYR:539:CB:9843, V-A:HIS:383:CG:3387, V-A:HIS:383:CB:3386, V-A:LEU:373:CD1:3277, V-A:VAL:384:C:3394, V-B:VAL:344:CG1:7972, V-A:HIS:383:CD2:3389, V-A:HIS:383:CE1:3391"]

$$$$
RR21_Rahimova_2017
     RDKit          3D

 62 67  0  0  0  0  0  0  0  0999 V2000
  123.1420  124.5500   57.6160 C   0  0  0  0  0  0  0  0  0  0  0  0
  123.5380  123.5390   58.5370 O   0  0  0  0  0  0  0  0  0  0  0  0
  124.7360  123.6730   59.2140 C   0  0  0  0  0  0  0  0  0  0  0  0
  124.8590  123.6570   60.6140 C   0  0  0  0  0  0  0  0  0  0  0  0
  126.1070  123.7970   61.2190 C   0  0  0  0  0  0  0  0  0  0  0  0
  127.2630  123.9520   60.4440 C   0  0  0  0  0  0  0  0  0  0  0  0
  128.6030  124.0960   61.0970 C   0  0  0  0  0  0  0  0  0  0  0  0
  129.5550  123.2200   60.8410 N   0  0  0  0  0  0  0  0  0  0  0  0
  130.6270  123.5970   61.5530 N   0  0  0  0  0  0  0  0  0  0  0  0
  131.8480  122.8750   61.4930 C   0  0  0  0  0  0  0  0  0  0  0  0
  133.0540  123.4720   61.8910 C   0  0  0  0  0  0  0  0  0  0  0  0
  134.2450  122.7520   61.8320 C   0  0  0  0  0  0  0  0  0  0  0  0
  134.2340  121.4360   61.3760 C   0  0  0  0  0  0  0  0  0  0  0  0
  133.0440  120.8340   60.9750 C   0  0  0  0  0  0  0  0  0  0  0  0
  131.8520  121.5510   61.0320 C   0  0  0  0  0  0  0  0  0  0  0  0
  130.3500  124.7420   62.2570 C   0  0  0  0  0  0  0  0  0  0  0  0
  129.0340  125.0950   62.0000 C   0  0  0  0  0  0  0  0  0  0  0  0
  128.3050  126.2570   62.4830 C   0  0  0  0  0  0  0  0  0  0  0  0
  127.5930  127.1570   61.7660 C   0  0  0  0  0  0  0  0  0  0  0  0
  127.3410  127.1970   60.0070 S   0  0  0  0  0  0  0  0  0  0  0  0
  126.3400  128.6300   60.1970 C   0  0  0  0  0  0  0  0  0  0  0  0
  125.7220  129.2970   59.2720 N   0  0  0  0  0  0  0  0  0  0  0  0
  124.9280  130.4400   59.5640 C   0  0  0  0  0  0  0  0  0  0  0  0
  124.2960  131.1120   58.7500 O   0  0  0  0  0  0  0  0  0  0  0  0
  124.8950  130.8000   61.0240 C   0  0  0  0  0  0  0  0  0  0  0  0
  124.0860  132.0290   61.4580 C   0  0  0  0  0  0  0  0  0  0  0  0
  124.8730  133.3380   61.4420 C   0  0  0  0  0  0  0  0  0  0  0  0
  126.2690  133.3160   61.4940 C   0  0  0  0  0  0  0  0  0  0  0  0
  126.9870  134.5090   61.4620 C   0  0  0  0  0  0  0  0  0  0  0  0
  126.3110  135.7270   61.3770 C   0  0  0  0  0  0  0  0  0  0  0  0
  127.0980  137.0240   61.3300 C   0  0  0  0  0  0  0  0  0  0  0  0
  124.9150  135.7510   61.3130 C   0  0  0  0  0  0  0  0  0  0  0  0
  124.1980  134.5590   61.3450 C   0  0  0  0  0  0  0  0  0  0  0  0
  125.5220  130.1290   61.9350 N   0  0  0  0  0  0  0  0  0  0  0  0
  126.2580  129.0160   61.5090 N   0  0  0  0  0  0  0  0  0  0  0  0
  126.9190  128.2670   62.4250 C   0  0  0  0  0  0  0  0  0  0  0  0
  126.9360  128.4940   63.6410 O   0  0  0  0  0  0  0  0  0  0  0  0
  127.1400  123.9750   59.0510 C   0  0  0  0  0  0  0  0  0  0  0  0
  125.8920  123.8360   58.4440 C   0  0  0  0  0  0  0  0  0  0  0  0
  125.8090  123.8610   57.0930 F   0  0  0  0  0  0  0  0  0  0  0  0
  122.7953  125.4350   58.1697 H   0  0  0  0  0  0  0  0  0  0  0  0
  123.9986  124.8256   56.9834 H   0  0  0  0  0  0  0  0  0  0  0  0
  122.3261  124.1705   56.9834 H   0  0  0  0  0  0  0  0  0  0  0  0
  123.9619  123.5328   61.2383 H   0  0  0  0  0  0  0  0  0  0  0  0
  126.1845  123.7856   62.3162 H   0  0  0  0  0  0  0  0  0  0  0  0
  133.0588  124.5115   62.2506 H   0  0  0  0  0  0  0  0  0  0  0  0
  135.1899  123.2207   62.1441 H   0  0  0  0  0  0  0  0  0  0  0  0
  135.1742  120.8668   61.3322 H   0  0  0  0  0  0  0  0  0  0  0  0
  133.0458  119.7949   60.6142 H   0  0  0  0  0  0  0  0  0  0  0  0
  130.9112  121.0776   60.7146 H   0  0  0  0  0  0  0  0  0  0  0  0
  131.0492  125.2844   62.9104 H   0  0  0  0  0  0  0  0  0  0  0  0
  128.3364  126.4258   63.5695 H   0  0  0  0  0  0  0  0  0  0  0  0
  123.2282  132.1345   60.7775 H   0  0  0  0  0  0  0  0  0  0  0  0
  123.7852  131.8553   62.5017 H   0  0  0  0  0  0  0  0  0  0  0  0
  126.8014  132.3557   61.5603 H   0  0  0  0  0  0  0  0  0  0  0  0
  128.0861  134.4912   61.5037 H   0  0  0  0  0  0  0  0  0  0  0  0
  127.3048  137.3648   62.3552 H   0  0  0  0  0  0  0  0  0  0  0  0
  128.0476  136.8577   60.8003 H   0  0  0  0  0  0  0  0  0  0  0  0
  126.5119  137.7895   60.8003 H   0  0  0  0  0  0  0  0  0  0  0  0
  124.3837  136.7112   61.2374 H   0  0  0  0  0  0  0  0  0  0  0  0
  123.0993  134.5770   61.2940 H   0  0  0  0  0  0  0  0  0  0  0  0
  128.0370  124.1041   58.4275 H   0  0  0  0  0  0  0  0  0  0  0  0
  1  2  1  0
  2  3  1  0
  3  4  2  0
  4  5  1  0
  5  6  2  0
  6  7  1  0
  7  8  2  0
  8  9  1  0
  9 10  1  0
 10 11  2  0
 11 12  1  0
 12 13  2  0
 13 14  1  0
 14 15  2  0
  9 16  1  0
 16 17  2  0
 17 18  1  0
 18 19  2  0
 19 20  1  0
 20 21  1  0
 21 22  2  0
 22 23  1  0
 23 24  2  0
 23 25  1  0
 25 26  1  0
 26 27  1  0
 27 28  2  0
 28 29  1  0
 29 30  2  0
 30 31  1  0
 30 32  1  0
 32 33  2  0
 25 34  2  0
 34 35  1  0
 35 36  1  0
 36 37  2  0
  6 38  1  0
 38 39  2  0
 39 40  1  0
 39  3  1  0
 17  7  1  0
 36 19  1  0
 15 10  1  0
 35 21  1  0
 33 27  1  0
  1 41  1  0
  1 42  1  0
  1 43  1  0
  4 44  1  0
  5 45  1  0
 11 46  1  0
 12 47  1  0
 13 48  1  0
 14 49  1  0
 15 50  1  0
 16 51  1  0
 18 52  1  0
 26 53  1  0
 26 54  1  0
 28 55  1  0
 29 56  1  0
 31 57  1  0
 31 58  1  0
 31 59  1  0
 32 60  1  0
 33 61  1  0
 38 62  1  0
M  END
>  <Binding energies>  (1) 
[-9.52]

>  <Ligand effiencies>  (1) 
[-0.238]

>  <Interactions>  (1) 
["V-B:ASP:366:CG:8184, H-A:TYR:539:OH:4876, V-B:ASP:366:CB:8183, V-A:TYR:539:CE1:4873, V-B:PRO:540:CA:9855, V-B:LEU:363:CA:8156, V-B:PRO:540:CB:9857, V-B:LEU:363:CD1:8160, V-A:LEU:475:CD2:4256, V-B:GLU:543:CD:9880, V-B:TYR:539:CE1:9847, V-B:TYR:539:CD1:9845, V-A:TYR:539:CD1:4871, V-B:ILE:369:CD1:8210, V-B:ILE:369:CG2:8208, V-A:ILE:369:CD1:3236, V-B:TYR:531:CE2:9765, V-A:ILE:369:CG1:3235, V-A:ILE:369:CG2:3234, V-B:PRO:482:CB:9297, V-B:SER:385:CA:8378, V-B:PRO:482:CG:9298, V-B:LEU:475:CD2:9230, V-B:LEU:373:CD1:8251, V-A:GLY:454:CA:4046, V-B:TYR:531:CZ:9766, H-B:ARG:545:NH2:9900, V-A:SER:385:C:3402, V-B:LEU:363:CB:8158, V-A:TYR:539:CB:4869, V-B:LEU:363:CG:8159, V-B:LEU:363:C:8154, H-B:LEU:363:N:8157"]

$$$$
RR22_Rahimova_2017
     RDKit          3D

 49 54  0  0  0  0  0  0  0  0999 V2000
  126.1130  122.8650   61.0270 O   0  0  0  0  0  0  0  0  0  0  0  0
  127.2890  123.1580   60.8220 C   0  0  0  0  0  0  0  0  0  0  0  0
  128.2820  123.3710   61.7630 N   0  0  0  0  0  0  0  0  0  0  0  0
  129.6250  123.6460   61.3540 C   0  0  1  0  0  0  0  0  0  0  0  0
  129.9640  124.8840   61.9850 O   0  0  0  0  0  0  0  0  0  0  0  0
  131.0480  124.9060   62.8630 C   0  0  0  0  0  0  0  0  0  0  0  0
  131.1270  125.9980   63.7280 C   0  0  0  0  0  0  0  0  0  0  0  0
  132.2050  126.1100   64.6060 C   0  0  0  0  0  0  0  0  0  0  0  0
  133.2050  125.1370   64.6120 C   0  0  0  0  0  0  0  0  0  0  0  0
  133.1270  124.0450   63.7460 C   0  0  0  0  0  0  0  0  0  0  0  0
  132.0400  123.9060   62.8780 C   0  0  0  0  0  0  0  0  0  0  0  0
  131.8840  122.7870   61.8730 C   0  0  1  0  0  0  0  0  0  0  0  0
  132.4110  121.3890   62.1240 C   0  0  0  0  0  0  0  0  0  0  0  0
  131.3940  120.5770   61.3160 C   0  0  0  0  0  0  0  0  0  0  0  0
  131.6420  119.1850   60.8890 C   0  0  0  0  0  0  0  0  0  0  0  0
  132.9520  118.7140   60.7170 C   0  0  0  0  0  0  0  0  0  0  0  0
  133.1800  117.4010   60.3160 C   0  0  0  0  0  0  0  0  0  0  0  0
  132.1020  116.5510   60.0850 C   0  0  0  0  0  0  0  0  0  0  0  0
  130.7960  117.0030   60.2520 C   0  0  0  0  0  0  0  0  0  0  0  0
  130.5660  118.3160   60.6540 C   0  0  0  0  0  0  0  0  0  0  0  0
  130.3300  121.2540   61.0980 N   0  0  0  0  0  0  0  0  0  0  0  0
  130.4880  122.5100   61.7090 N   0  0  0  0  0  0  0  0  0  0  0  0
  129.5790  123.9080   59.8550 C   0  0  0  0  0  0  0  0  0  0  0  0
  130.5790  124.5260   59.1840 C   0  0  0  0  0  0  0  0  0  0  0  0
  130.6720  124.8230   57.7410 C   0  0  0  0  0  0  0  0  0  0  0  0
  129.9920  124.0850   56.7610 C   0  0  0  0  0  0  0  0  0  0  0  0
  130.1280  124.4240   55.4140 C   0  0  0  0  0  0  0  0  0  0  0  0
  130.9530  125.4970   55.0780 C   0  0  0  0  0  0  0  0  0  0  0  0
  131.6290  126.2230   56.0030 N   0  0  0  0  0  0  0  0  0  0  0  0
  131.4820  125.8790   57.3090 C   0  0  0  0  0  0  0  0  0  0  0  0
  128.0290  123.3890   59.1770 S   0  0  0  0  0  0  0  0  0  0  0  0
  128.0670  123.3800   62.7480 H   0  0  0  0  0  0  0  0  0  0  0  0
  130.3416  126.7681   63.7175 H   0  0  0  0  0  0  0  0  0  0  0  0
  132.2668  126.9660   65.2941 H   0  0  0  0  0  0  0  0  0  0  0  0
  134.0573  125.2307   65.3011 H   0  0  0  0  0  0  0  0  0  0  0  0
  133.9260  123.2890   63.7466 H   0  0  0  0  0  0  0  0  0  0  0  0
  132.4817  123.2165   61.0555 H   0  0  0  0  0  0  0  0  0  0  0  0
  133.4337  121.2623   61.7393 H   0  0  0  0  0  0  0  0  0  0  0  0
  132.4944  121.1069   63.1839 H   0  0  0  0  0  0  0  0  0  0  0  0
  133.8035  119.3859   60.9000 H   0  0  0  0  0  0  0  0  0  0  0  0
  134.2090  117.0359   60.1820 H   0  0  0  0  0  0  0  0  0  0  0  0
  132.2837  115.5135   59.7679 H   0  0  0  0  0  0  0  0  0  0  0  0
  129.9492  116.3256   60.0671 H   0  0  0  0  0  0  0  0  0  0  0  0
  129.5346  118.6741   60.7881 H   0  0  0  0  0  0  0  0  0  0  0  0
  131.4351  124.8495   59.7943 H   0  0  0  0  0  0  0  0  0  0  0  0
  129.3520  123.2397   57.0539 H   0  0  0  0  0  0  0  0  0  0  0  0
  129.5965  123.8577   54.6350 H   0  0  0  0  0  0  0  0  0  0  0  0
  131.0601  125.7662   54.0168 H   0  0  0  0  0  0  0  0  0  0  0  0
  132.0281  126.4608   58.0661 H   0  0  0  0  0  0  0  0  0  0  0  0
  1  2  2  0
  2  3  1  0
  3  4  1  0
  4  5  1  1
  5  6  1  0
  6  7  2  0
  7  8  1  0
  8  9  2  0
  9 10  1  0
 10 11  2  0
 11 12  1  0
 12 13  1  0
 13 14  1  0
 14 15  1  0
 15 16  2  0
 16 17  1  0
 17 18  2  0
 18 19  1  0
 19 20  2  0
 14 21  2  0
 21 22  1  0
  4 23  1  0
 23 24  2  0
 24 25  1  0
 25 26  2  0
 26 27  1  0
 27 28  2  0
 28 29  1  0
 29 30  2  0
 23 31  1  0
 31  2  1  0
 22  4  1  0
 30 25  1  0
 11  6  1  0
 22 12  1  0
 20 15  1  0
  3 32  1  0
  7 33  1  0
  8 34  1  0
  9 35  1  0
 10 36  1  0
 12 37  1  6
 13 38  1  0
 13 39  1  0
 16 40  1  0
 17 41  1  0
 18 42  1  0
 19 43  1  0
 20 44  1  0
 24 45  1  0
 26 46  1  0
 27 47  1  0
 28 48  1  0
 30 49  1  0
M  END
>  <Binding energies>  (1) 
[-9.55]

>  <Ligand effiencies>  (1) 
[-0.2984375]

>  <Interactions>  (1) 
["H-A:TYR:531:OH:4793, V-B:PRO:540:CA:9855, V-B:ALA:541:CB:9864, V-B:MET:535:CE:9807, V-A:LEU:475:CD2:4256, V-B:TYR:539:C:9839, V-B:TYR:539:CE1:9847, V-B:TYR:539:CD1:9845, V-B:PRO:540:C:9853, V-B:TYR:539:CG:9844, V-B:TYR:539:CZ:9849, H-B:TYR:539:OH:9850, V-A:GLY:454:CA:4046, V-B:TYR:539:CE2:9848, V-A:ARG:545:CD:4921, V-A:ARG:545:CZ:4924, H-B:ALA:541:N:9863, V-A:TYR:531:CE1:4790, V-A:PRO:482:CG:4324, V-A:SER:385:CB:3406, V-A:PRO:482:CB:4323, V-A:SER:385:CA:3404, V-B:TYR:539:CB:9843, V-A:LEU:373:CD1:3277, H-B:GLU:543:OE1:9881, V-B:VAL:344:CG1:7972, V-A:ASN:370:CG:3243"]

$$$$
RR23_Rahimova_2017
     RDKit          3D

 65 70  0  0  0  0  0  0  0  0999 V2000
  131.3750  116.2870   59.9070 C   0  0  0  0  0  0  0  0  0  0  0  0
  131.7840  117.6770   60.3580 C   0  0  0  0  0  0  0  0  0  0  0  0
  130.8360  118.5400   60.9100 C   0  0  0  0  0  0  0  0  0  0  0  0
  131.2150  119.8120   61.3330 C   0  0  0  0  0  0  0  0  0  0  0  0
  132.5420  120.2350   61.1960 C   0  0  0  0  0  0  0  0  0  0  0  0
  132.9370  121.6120   61.6800 C   0  0  0  0  0  0  0  0  0  0  0  0
  133.5890  121.6850   62.7240 O   0  0  0  0  0  0  0  0  0  0  0  0
  132.5760  122.7090   60.9490 N   0  0  0  0  0  0  0  0  0  0  0  0
  133.5830  123.5910   60.3380 C   0  0  0  0  0  0  0  0  0  0  0  0
  132.8150  124.5970   59.4950 C   0  0  0  0  0  0  0  0  0  0  0  0
  131.4550  123.9760   59.3920 C   0  0  0  0  0  0  0  0  0  0  0  0
  130.3470  124.4050   58.6620 C   0  0  0  0  0  0  0  0  0  0  0  0
  129.1040  123.7720   58.8210 C   0  0  0  0  0  0  0  0  0  0  0  0
  127.8590  124.2120   58.0370 C   0  0  2  0  0  0  0  0  0  0  0  0
  127.8220  125.6440   57.8300 N   0  0  0  0  0  0  0  0  0  0  0  0
  126.6300  126.0890   57.8060 C   0  0  0  0  0  0  0  0  0  0  0  0
  126.2180  127.3770   57.6600 N   0  0  0  0  0  0  0  0  0  0  0  0
  126.9690  128.5040   57.6440 C   0  0  0  0  0  0  0  0  0  0  0  0
  128.1990  128.5470   57.7230 O   0  0  0  0  0  0  0  0  0  0  0  0
  126.1850  129.8210   57.5210 C   0  0  0  0  0  0  0  0  0  0  0  0
  126.0870  130.4530   58.8560 N   0  0  0  0  0  0  0  0  0  0  0  0
  127.2820  130.5560   59.5560 N   0  0  0  0  0  0  0  0  0  0  0  0
  127.3320  131.0880   60.7350 N   0  0  0  0  0  0  0  0  0  0  0  0
  126.1640  131.5760   61.3270 C   0  0  0  0  0  0  0  0  0  0  0  0
  126.2510  132.1420   62.6000 C   0  0  0  0  0  0  0  0  0  0  0  0
  125.1020  132.6380   63.2180 C   0  0  0  0  0  0  0  0  0  0  0  0
  123.8680  132.5670   62.5660 C   0  0  0  0  0  0  0  0  0  0  0  0
  123.7790  132.0000   61.2930 C   0  0  0  0  0  0  0  0  0  0  0  0
  124.9320  131.5050   60.6730 C   0  0  0  0  0  0  0  0  0  0  0  0
  124.8560  130.8850   59.2980 C   0  0  0  0  0  0  0  0  0  0  0  0
  123.8090  130.7700   58.6530 O   0  0  0  0  0  0  0  0  0  0  0  0
  125.3150  124.8940   58.0040 S   0  0  0  0  0  0  0  0  0  0  0  0
  126.5220  123.7140   58.6330 C   0  0  2  0  0  0  0  0  0  0  0  0
  126.4250  123.6670   60.1730 C   0  0  0  0  0  0  0  0  0  0  0  0
  128.9880  122.7390   59.7580 C   0  0  0  0  0  0  0  0  0  0  0  0
  130.0920  122.3240   60.5040 C   0  0  0  0  0  0  0  0  0  0  0  0
  131.3470  122.9060   60.2810 C   0  0  0  0  0  0  0  0  0  0  0  0
  133.4940  119.3530   60.6670 C   0  0  0  0  0  0  0  0  0  0  0  0
  133.1150  118.0820   60.2460 C   0  0  0  0  0  0  0  0  0  0  0  0
  131.1892  115.6555   60.7883 H   0  0  0  0  0  0  0  0  0  0  0  0
  130.4581  116.3525   59.3029 H   0  0  0  0  0  0  0  0  0  0  0  0
  132.1813  115.8455   59.3029 H   0  0  0  0  0  0  0  0  0  0  0  0
  129.7897  118.2157   61.0110 H   0  0  0  0  0  0  0  0  0  0  0  0
  130.4681  120.4868   61.7766 H   0  0  0  0  0  0  0  0  0  0  0  0
  134.1590  124.1094   61.1187 H   0  0  0  0  0  0  0  0  0  0  0  0
  134.2965  123.0193   59.7264 H   0  0  0  0  0  0  0  0  0  0  0  0
  132.7665  125.5763   59.9935 H   0  0  0  0  0  0  0  0  0  0  0  0
  133.2802  124.7903   58.5171 H   0  0  0  0  0  0  0  0  0  0  0  0
  130.4475  125.2440   57.9577 H   0  0  0  0  0  0  0  0  0  0  0  0
  127.9622  123.7178   57.0597 H   0  0  0  0  0  0  0  0  0  0  0  0
  125.2200  127.5180   57.6010 H   0  0  0  0  0  0  0  0  0  0  0  0
  126.7088  130.4983   56.8304 H   0  0  0  0  0  0  0  0  0  0  0  0
  125.1762  129.6168   57.1327 H   0  0  0  0  0  0  0  0  0  0  0  0
  127.2218  132.1969   63.1144 H   0  0  0  0  0  0  0  0  0  0  0  0
  125.1680  133.0858   64.2206 H   0  0  0  0  0  0  0  0  0  0  0  0
  122.9648  132.9586   63.0567 H   0  0  0  0  0  0  0  0  0  0  0  0
  122.8076  131.9427   60.7801 H   0  0  0  0  0  0  0  0  0  0  0  0
  126.3757  122.6635   58.3413 H   0  0  0  0  0  0  0  0  0  0  0  0
  127.3330  124.1070   60.6112 H   0  0  0  0  0  0  0  0  0  0  0  0
  125.5448  124.2385   60.5026 H   0  0  0  0  0  0  0  0  0  0  0  0
  126.3281  122.6220   60.5026 H   0  0  0  0  0  0  0  0  0  0  0  0
  128.0150  122.2483   59.9083 H   0  0  0  0  0  0  0  0  0  0  0  0
  129.9770  121.5401   61.2670 H   0  0  0  0  0  0  0  0  0  0  0  0
  134.5451  119.6667   60.5843 H   0  0  0  0  0  0  0  0  0  0  0  0
  133.8647  117.3961   59.8247 H   0  0  0  0  0  0  0  0  0  0  0  0
  1  2  1  0
  2  3  2  0
  3  4  1  0
  4  5  2  0
  5  6  1  0
  6  7  2  0
  6  8  1  0
  8  9  1  0
  9 10  1  0
 10 11  1  0
 11 12  2  0
 12 13  1  0
 13 14  1  0
 14 15  1  0
 15 16  2  0
 16 17  1  0
 17 18  1  0
 18 19  2  0
 18 20  1  0
 20 21  1  0
 21 22  1  0
 22 23  2  0
 23 24  1  0
 24 25  2  0
 25 26  1  0
 26 27  2  0
 27 28  1  0
 28 29  2  0
 29 30  1  0
 30 31  2  0
 16 32  1  0
 32 33  1  0
 33 34  1  0
 13 35  2  0
 35 36  1  0
 36 37  2  0
  5 38  1  0
 38 39  2  0
 39  2  1  0
 37  8  1  0
 37 11  1  0
 33 14  1  0
 30 21  1  0
 29 24  1  0
  1 40  1  0
  1 41  1  0
  1 42  1  0
  3 43  1  0
  4 44  1  0
  9 45  1  0
  9 46  1  0
 10 47  1  0
 10 48  1  0
 12 49  1  0
 14 50  1  6
 17 51  1  0
 20 52  1  0
 20 53  1  0
 25 54  1  0
 26 55  1  0
 27 56  1  0
 28 57  1  0
 33 58  1  6
 34 59  1  0
 34 60  1  0
 34 61  1  0
 35 62  1  0
 36 63  1  0
 38 64  1  0
 39 65  1  0
M  END
>  <Binding energies>  (1) 
[-10.59]

>  <Ligand effiencies>  (1) 
[-0.26475]

>  <Interactions>  (1) 
["V-B:ASP:366:CG:8184, V-A:ASP:366:CG:3210, H-A:TYR:539:OH:4876, V-A:TYR:539:CZ:4875, V-B:ASP:366:CB:8183, V-A:TYR:539:CE1:4873, H-B:TYR:531:OH:9767, V-B:PRO:540:CA:9855, V-B:PRO:540:CB:9857, V-A:LEU:475:CD2:4256, V-B:TYR:539:C:9839, V-B:TYR:539:CE1:9847, V-B:TYR:539:CD1:9845, V-B:ILE:369:CD1:8210, V-B:ILE:369:CG2:8208, V-B:TYR:539:CZ:9849, V-A:ILE:369:CD1:3236, V-A:ILE:369:CG2:3234, V-B:LEU:475:CD2:9230, V-B:GLY:454:CA:9020, H-A:GLY:454:N:4047, V-B:TYR:531:CZ:9766, H-B:ASP:366:OD2:8186, V-B:ILE:369:CB:8207, V-A:PRO:482:CG:4324, V-A:SER:385:CB:3406, V-A:PRO:482:CB:4323, V-A:SER:385:CA:3404, V-B:TYR:539:CB:9843, V-A:LEU:373:CD1:3277, V-B:VAL:344:CG1:7972, V-A:SER:385:C:3402"]

$$$$
RR24_Rahimova_2017
     RDKit          3D

 65 71  0  0  0  0  0  0  0  0999 V2000
  131.0050  124.6700   58.2930 C   0  0  0  0  0  0  0  0  0  0  0  0
  130.3090  124.5220   56.9330 C   0  0  2  0  0  0  0  0  0  0  0  0
  130.5640  125.7250   55.9780 C   0  0  0  0  0  0  0  0  0  0  0  0
  131.6390  125.8800   55.3900 O   0  0  0  0  0  0  0  0  0  0  0  0
  129.4930  126.5690   55.9030 O   0  0  0  0  0  0  0  0  0  0  0  0
  129.4370  127.6710   56.7260 C   0  0  0  0  0  0  0  0  0  0  0  0
  128.5160  128.6840   56.4520 C   0  0  0  0  0  0  0  0  0  0  0  0
  128.4430  129.7980   57.2820 C   0  0  0  0  0  0  0  0  0  0  0  0
  129.2850  129.9020   58.3940 C   0  0  0  0  0  0  0  0  0  0  0  0
  129.2140  131.1410   59.2940 C   0  0  1  0  0  0  0  0  0  0  0  0
  127.8950  131.1950   60.1000 C   0  0  0  0  0  0  0  0  0  0  0  0
  127.8630  131.3790   61.4330 C   0  0  0  0  0  0  0  0  0  0  0  0
  129.0060  131.5320   62.1790 N   0  0  0  0  0  0  0  0  0  0  0  0
  130.2500  131.5020   61.5940 C   0  0  0  0  0  0  0  0  0  0  0  0
  131.2750  131.6770   62.4670 N   0  0  0  0  0  0  0  0  0  0  0  0
  132.5790  131.6000   62.0830 C   0  0  0  0  0  0  0  0  0  0  0  0
  133.4510  131.4470   62.9410 O   0  0  0  0  0  0  0  0  0  0  0  0
  132.7620  131.5380   60.7110 N   0  0  0  0  0  0  0  0  0  0  0  0
  134.1610  131.5440   60.2360 C   0  0  0  0  0  0  0  0  0  0  0  0
  131.7940  131.3580   59.7370 C   0  0  0  0  0  0  0  0  0  0  0  0
  132.0360  131.2590   58.5300 O   0  0  0  0  0  0  0  0  0  0  0  0
  130.4240  131.3170   60.2590 C   0  0  0  0  0  0  0  0  0  0  0  0
  126.4940  131.3860   61.9220 C   0  0  0  0  0  0  0  0  0  0  0  0
  125.9390  131.5330   63.1940 C   0  0  0  0  0  0  0  0  0  0  0  0
  124.5500  131.4920   63.3400 C   0  0  0  0  0  0  0  0  0  0  0  0
  123.7290  131.3070   62.2230 C   0  0  0  0  0  0  0  0  0  0  0  0
  124.2920  131.1610   60.9520 C   0  0  0  0  0  0  0  0  0  0  0  0
  125.6800  131.2010   60.8120 C   0  0  0  0  0  0  0  0  0  0  0  0
  126.5270  131.0780   59.6070 C   0  0  0  0  0  0  0  0  0  0  0  0
  126.2030  130.9130   58.4320 O   0  0  0  0  0  0  0  0  0  0  0  0
  130.1940  128.8770   58.6760 C   0  0  0  0  0  0  0  0  0  0  0  0
  130.2650  127.7610   57.8480 C   0  0  0  0  0  0  0  0  0  0  0  0
  128.8570  124.2080   57.0770 N   0  0  0  0  0  0  0  0  0  0  0  0
  128.2430  123.2900   56.2790 C   0  0  0  0  0  0  0  0  0  0  0  0
  128.7510  122.6290   55.3710 O   0  0  0  0  0  0  0  0  0  0  0  0
  126.8300  123.2550   56.7320 C   0  0  0  0  0  0  0  0  0  0  0  0
  125.7440  122.5040   56.2790 C   0  0  0  0  0  0  0  0  0  0  0  0
  124.5040  122.6760   56.9060 C   0  0  0  0  0  0  0  0  0  0  0  0
  124.3680  123.5830   57.9640 C   0  0  0  0  0  0  0  0  0  0  0  0
  125.4690  124.3260   58.4040 C   0  0  0  0  0  0  0  0  0  0  0  0
  126.6960  124.1420   57.7660 C   0  0  0  0  0  0  0  0  0  0  0  0
  128.0200  124.7690   58.0030 C   0  0  0  0  0  0  0  0  0  0  0  0
  128.3040  125.6110   58.8550 O   0  0  0  0  0  0  0  0  0  0  0  0
  130.2724  124.5142   59.0987 H   0  0  0  0  0  0  0  0  0  0  0  0
  131.8075  123.9224   58.3775 H   0  0  0  0  0  0  0  0  0  0  0  0
  131.4339  125.6794   58.3775 H   0  0  0  0  0  0  0  0  0  0  0  0
  130.7777  123.6539   56.4465 H   0  0  0  0  0  0  0  0  0  0  0  0
  127.8491  128.6013   55.5811 H   0  0  0  0  0  0  0  0  0  0  0  0
  127.7214  130.5989   57.0633 H   0  0  0  0  0  0  0  0  0  0  0  0
  129.2518  131.9835   58.5877 H   0  0  0  0  0  0  0  0  0  0  0  0
  128.9360  131.6710   63.1770 H   0  0  0  0  0  0  0  0  0  0  0  0
  131.0980  131.8450   63.4460 H   0  0  0  0  0  0  0  0  0  0  0  0
  134.8416  131.5469   61.1001 H   0  0  0  0  0  0  0  0  0  0  0  0
  134.3453  130.6466   59.6271 H   0  0  0  0  0  0  0  0  0  0  0  0
  134.3376  132.4429   59.6271 H   0  0  0  0  0  0  0  0  0  0  0  0
  126.5870  131.6793   64.0708 H   0  0  0  0  0  0  0  0  0  0  0  0
  124.1004  131.6057   64.3375 H   0  0  0  0  0  0  0  0  0  0  0  0
  122.6362  131.2763   62.3451 H   0  0  0  0  0  0  0  0  0  0  0  0
  123.6482  131.0162   60.0719 H   0  0  0  0  0  0  0  0  0  0  0  0
  130.8534  128.9532   59.5532 H   0  0  0  0  0  0  0  0  0  0  0  0
  130.9724  126.9502   58.0765 H   0  0  0  0  0  0  0  0  0  0  0  0
  125.8599  121.7928   55.4478 H   0  0  0  0  0  0  0  0  0  0  0  0
  123.6332  122.0963   56.5661 H   0  0  0  0  0  0  0  0  0  0  0  0
  123.3906  123.7121   58.4518 H   0  0  0  0  0  0  0  0  0  0  0  0
  125.3693  125.0398   59.2350 H   0  0  0  0  0  0  0  0  0  0  0  0
  1  2  1  0
  2  3  1  0
  3  4  2  0
  3  5  1  0
  5  6  1  0
  6  7  2  0
  7  8  1  0
  8  9  2  0
  9 10  1  0
 10 11  1  0
 11 12  2  0
 12 13  1  0
 13 14  1  0
 14 15  1  0
 15 16  1  0
 16 17  2  0
 16 18  1  0
 18 19  1  0
 18 20  1  0
 20 21  2  0
 20 22  1  0
 12 23  1  0
 23 24  2  0
 24 25  1  0
 25 26  2  0
 26 27  1  0
 27 28  2  0
 28 29  1  0
 29 30  2  0
  9 31  1  0
 31 32  2  0
  2 33  1  0
 33 34  1  0
 34 35  2  0
 34 36  1  0
 36 37  2  0
 37 38  1  0
 38 39  2  0
 39 40  1  0
 40 41  2  0
 41 42  1  0
 42 43  2  0
 32  6  1  0
 42 33  1  0
 22 10  1  0
 28 23  1  0
 41 36  1  0
 29 11  1  0
 22 14  2  0
  1 44  1  0
  1 45  1  0
  1 46  1  0
  2 47  1  6
  7 48  1  0
  8 49  1  0
 10 50  1  6
 13 51  1  0
 15 52  1  0
 19 53  1  0
 19 54  1  0
 19 55  1  0
 24 56  1  0
 25 57  1  0
 26 58  1  0
 27 59  1  0
 31 60  1  0
 32 61  1  0
 37 62  1  0
 38 63  1  0
 39 64  1  0
 40 65  1  0
M  END
>  <Binding energies>  (1) 
[-11.83]

>  <Ligand effiencies>  (1) 
[-0.2628888888888889]

>  <Interactions>  (1) 
["V-A:MET:535:CE:4833, V-A:ASP:366:CG:3210, V-A:LEU:363:CA:3182, H-A:TYR:539:OH:4876, V-A:PRO:540:CB:4883, V-A:PRO:540:CA:4881, H-A:TYR:531:OH:4793, V-A:TYR:539:CE1:4873, V-B:PRO:540:CA:9855, V-B:LEU:363:CA:8156, V-B:PRO:540:CB:9857, V-B:LEU:363:CD1:8160, V-B:MET:535:CE:9807, V-B:PRO:540:CG:9858, V-B:ILE:538:CG2:9835, V-B:ILE:538:CB:9834, V-B:ILE:538:CA:9832, V-B:PRO:540:CD:9859, V-B:PRO:540:N:9856, V-B:TYR:539:CE1:9847, V-B:ILE:369:CD1:8210, V-A:ALA:541:CB:4890, V-A:ASN:362:C:3169, H-B:TYR:539:N:9842, V-B:TYR:539:CZ:9849, H-B:TYR:539:OH:9850, V-B:GLY:454:CA:9020, H-A:ARG:545:NH2:4926, V-A:GLU:543:CD:4906, H-A:GLU:543:OE1:4907, V-A:ASN:362:CB:3173, H-A:ASN:370:ND2:3245, H-A:ALA:541:O:4887, V-A:ASN:362:CA:3171, V-A:ALA:541:C:4886, V-A:ALA:541:CA:4888, H-A:ASN:362:ND2:3176"]

$$$$
RR24_Rahimova_2017-again1
     RDKit          3D

 63 69  0  0  0  0  0  0  0  0999 V2000
  129.1060  132.9580   56.7540 C   0  0  0  0  0  0  0  0  0  0  0  0
  129.7960  131.6040   56.9670 C   0  0  2  0  0  0  0  0  0  0  0  0
  128.8260  130.3920   56.8510 C   0  0  0  0  0  0  0  0  0  0  0  0
  127.6790  130.4240   57.3120 O   0  0  0  0  0  0  0  0  0  0  0  0
  129.3950  129.3210   56.2230 O   0  0  0  0  0  0  0  0  0  0  0  0
  129.3360  128.0780   56.8100 C   0  0  0  0  0  0  0  0  0  0  0  0
  129.4480  126.9350   56.0150 C   0  0  0  0  0  0  0  0  0  0  0  0
  129.4090  125.6750   56.6030 C   0  0  0  0  0  0  0  0  0  0  0  0
  129.2670  125.5490   57.9890 C   0  0  0  0  0  0  0  0  0  0  0  0
  129.2230  124.1600   58.6420 C   0  0  1  0  0  0  0  0  0  0  0  0
  130.3950  123.9680   59.6330 C   0  0  0  0  0  0  0  0  0  0  0  0
  131.7350  123.9310   59.4600 C   0  0  0  0  0  0  0  0  0  0  0  0
  132.3350  124.0230   58.3220 O   0  0  0  0  0  0  0  0  0  0  0  0
  132.4100  123.8000   60.7510 C   0  0  0  0  0  0  0  0  0  0  0  0
  133.7630  123.7310   61.1070 C   0  0  0  0  0  0  0  0  0  0  0  0
  134.1160  123.6110   62.4520 C   0  0  0  0  0  0  0  0  0  0  0  0
  133.1250  123.5590   63.4340 C   0  0  0  0  0  0  0  0  0  0  0  0
  131.7780  123.6270   63.0740 C   0  0  0  0  0  0  0  0  0  0  0  0
  131.4260  123.7500   61.7280 C   0  0  0  0  0  0  0  0  0  0  0  0
  130.1400  123.8250   61.0570 C   0  0  0  0  0  0  0  0  0  0  0  0
  128.9560  123.7710   61.5410 N   0  0  0  0  0  0  0  0  0  0  0  0
  127.8560  123.7350   60.7360 C   0  0  0  0  0  0  0  0  0  0  0  0
  126.6980  123.5140   61.4240 N   0  0  0  0  0  0  0  0  0  0  0  0
  125.5830  123.4740   60.7840 C   0  0  0  0  0  0  0  0  0  0  0  0
  124.5960  123.2730   61.5110 O   0  0  0  0  0  0  0  0  0  0  0  0
  125.5100  123.6390   59.4020 N   0  0  0  0  0  0  0  0  0  0  0  0
  124.2410  123.6000   58.6370 C   0  0  0  0  0  0  0  0  0  0  0  0
  126.6310  123.8490   58.6230 C   0  0  0  0  0  0  0  0  0  0  0  0
  126.6130  123.9760   57.3950 O   0  0  0  0  0  0  0  0  0  0  0  0
  127.8870  123.9040   59.3780 C   0  0  0  0  0  0  0  0  0  0  0  0
  129.1680  126.6960   58.7830 C   0  0  0  0  0  0  0  0  0  0  0  0
  129.2080  127.9570   58.1960 C   0  0  0  0  0  0  0  0  0  0  0  0
  130.5930  131.5740   58.2290 N   0  0  0  0  0  0  0  0  0  0  0  0
  129.9910  131.5340   59.4510 C   0  0  0  0  0  0  0  0  0  0  0  0
  128.7820  131.5210   59.6910 O   0  0  0  0  0  0  0  0  0  0  0  0
  131.1010  131.5090   60.4360 C   0  0  0  0  0  0  0  0  0  0  0  0
  131.0840  131.4720   61.8320 C   0  0  0  0  0  0  0  0  0  0  0  0
  132.3050  131.4570   62.5150 C   0  0  0  0  0  0  0  0  0  0  0  0
  133.5130  131.4780   61.8060 C   0  0  0  0  0  0  0  0  0  0  0  0
  133.5090  131.5140   60.4070 C   0  0  0  0  0  0  0  0  0  0  0  0
  132.2810  131.5300   59.7440 C   0  0  0  0  0  0  0  0  0  0  0  0
  131.9590  131.5660   58.2950 C   0  0  0  0  0  0  0  0  0  0  0  0
  132.7540  131.5820   57.3550 O   0  0  0  0  0  0  0  0  0  0  0  0
  128.8758  133.4098   57.7302 H   0  0  0  0  0  0  0  0  0  0  0  0
  129.7740  133.6252   56.1896 H   0  0  0  0  0  0  0  0  0  0  0  0
  128.1736  132.8096   56.1896 H   0  0  0  0  0  0  0  0  0  0  0  0
  130.5061  131.4937   56.1342 H   0  0  0  0  0  0  0  0  0  0  0  0
  129.5669  127.0311   54.9257 H   0  0  0  0  0  0  0  0  0  0  0  0
  129.4901  124.7747   55.9761 H   0  0  0  0  0  0  0  0  0  0  0  0
  129.3148  123.4314   57.8230 H   0  0  0  0  0  0  0  0  0  0  0  0
  134.5422  123.7711   60.3316 H   0  0  0  0  0  0  0  0  0  0  0  0
  135.1766  123.5573   62.7387 H   0  0  0  0  0  0  0  0  0  0  0  0
  133.4061  123.4643   64.4932 H   0  0  0  0  0  0  0  0  0  0  0  0
  130.9969  123.5839   63.8473 H   0  0  0  0  0  0  0  0  0  0  0  0
  123.3921  123.5739   59.3361 H   0  0  0  0  0  0  0  0  0  0  0  0
  124.1670  124.4963   58.0036 H   0  0  0  0  0  0  0  0  0  0  0  0
  124.2222  122.7009   58.0036 H   0  0  0  0  0  0  0  0  0  0  0  0
  129.0583  126.6012   59.8734 H   0  0  0  0  0  0  0  0  0  0  0  0
  129.1389  128.8582   58.8229 H   0  0  0  0  0  0  0  0  0  0  0  0
  130.1317  131.4550   62.3824 H   0  0  0  0  0  0  0  0  0  0  0  0
  132.3165  131.4286   63.6146 H   0  0  0  0  0  0  0  0  0  0  0  0
  134.4684  131.4661   62.3510 H   0  0  0  0  0  0  0  0  0  0  0  0
  134.4529  131.5293   59.8424 H   0  0  0  0  0  0  0  0  0  0  0  0
  1  2  1  0
  2  3  1  0
  3  4  2  0
  3  5  1  0
  5  6  1  0
  6  7  2  0
  7  8  1  0
  8  9  2  0
  9 10  1  0
 10 11  1  0
 11 12  2  0
 12 13  1  0
 12 14  1  0
 14 15  2  0
 15 16  1  0
 16 17  2  0
 17 18  1  0
 18 19  2  0
 19 20  1  0
 20 21  2  0
 21 22  1  0
 22 23  1  0
 23 24  2  0
 24 25  1  0
 24 26  1  0
 26 27  1  0
 26 28  1  0
 28 29  2  0
 28 30  1  0
  9 31  1  0
 31 32  2  0
  2 33  1  0
 33 34  1  0
 34 35  2  0
 34 36  1  0
 36 37  2  0
 37 38  1  0
 38 39  2  0
 39 40  1  0
 40 41  2  0
 41 42  1  0
 42 43  2  0
 32  6  1  0
 42 33  1  0
 30 10  1  0
 41 36  1  0
 20 11  1  0
 30 22  2  0
 19 14  1  0
  1 44  1  0
  1 45  1  0
  1 46  1  0
  2 47  1  6
  7 48  1  0
  8 49  1  0
 10 50  1  6
 15 51  1  0
 16 52  1  0
 17 53  1  0
 18 54  1  0
 27 55  1  0
 27 56  1  0
 27 57  1  0
 31 58  1  0
 32 59  1  0
 37 60  1  0
 38 61  1  0
 39 62  1  0
 40 63  1  0
M  CHG  2  13  -1  25  -1
M  END
>  <Binding energies>  (1) 
[-8.75]

>  <Ligand effiencies>  (1) 
[-0.20348837209302326]

>  <Interactions>  (1) 
["V-A:MET:535:CE:4833, V-A:TYR:539:CE2:4874, V-A:ASP:366:CG:3210, V-A:LEU:363:CA:3182, V-A:PRO:540:CB:4883, V-A:PRO:540:CA:4881, H-A:TYR:531:OH:4793, V-A:ILE:538:CA:4858, V-A:TYR:539:CZ:4875, V-A:TYR:539:CE1:4873, V-A:TYR:539:CD2:4872, V-B:PRO:540:CA:9855, V-B:LEU:363:CA:8156, V-B:PRO:540:CB:9857, V-B:LEU:363:CD1:8160, V-B:MET:535:CE:9807, V-B:TYR:539:CE1:9847, V-B:PRO:540:C:9853, V-A:TYR:539:CD1:4871, V-A:TYR:539:CA:4867, V-A:ASN:362:C:3169, V-A:TYR:539:C:4865, V-A:TYR:539:CG:4870, V-B:TYR:539:CZ:9849, V-A:ILE:369:CD1:3236, H-B:TYR:539:OH:9850, V-A:GLY:454:CA:4046, V-A:GLY:453:CA:4041, V-A:ARG:545:CZ:4924, H-B:ALA:541:N:9863, V-A:GLU:543:CD:4906, V-A:ASN:362:CB:3173, V-A:GLY:453:C:4039, V-A:ASN:362:CA:3171, V-A:ALA:541:C:4886, V-A:ASN:362:CG:3174"]

$$$$
RR25_Rahimova_2017
     RDKit          3D

 63 68  0  0  0  0  0  0  0  0999 V2000
  133.3960  125.1220   56.2850 O   0  0  0  0  0  0  0  0  0  0  0  0
  132.9020  125.1450   57.4140 C   0  0  0  0  0  0  0  0  0  0  0  0
  133.5500  124.4090   58.3740 O   0  0  0  0  0  0  0  0  0  0  0  0
  133.2480  124.5480   59.7170 C   0  0  0  0  0  0  0  0  0  0  0  0
  134.2570  124.2270   60.6230 C   0  0  0  0  0  0  0  0  0  0  0  0
  134.0180  124.3360   61.9910 C   0  0  0  0  0  0  0  0  0  0  0  0
  132.7710  124.7620   62.4720 C   0  0  0  0  0  0  0  0  0  0  0  0
  132.5230  124.8860   63.9300 N   0  0  0  0  0  0  0  0  0  0  0  0
  133.4720  125.1340   64.6690 O   0  0  0  0  0  0  0  0  0  0  0  0
  131.3770  124.7350   64.3450 O   0  0  0  0  0  0  0  0  0  0  0  0
  131.7640  125.0690   61.5420 C   0  0  0  0  0  0  0  0  0  0  0  0
  131.9850  124.9570   60.1670 C   0  0  0  0  0  0  0  0  0  0  0  0
  130.9330  125.2870   59.1230 C   0  0  0  0  0  0  0  0  0  0  0  0
  131.6170  125.8970   57.8660 C   0  0  2  0  0  0  0  0  0  0  0  0
  130.5800  126.1570   56.7350 C   0  0  0  0  0  0  0  0  0  0  0  0
  130.4190  125.2390   55.9260 O   0  0  0  0  0  0  0  0  0  0  0  0
  129.7990  127.2780   56.7070 N   0  0  0  0  0  0  0  0  0  0  0  0
  130.1480  128.5160   57.4360 C   0  0  0  0  0  0  0  0  0  0  0  0
  128.8560  129.1630   57.9760 C   0  0  0  0  0  0  0  0  0  0  0  0
  127.8830  129.3900   56.9030 N   0  0  0  0  0  0  0  0  0  0  0  0
  126.7080  130.1250   57.3900 C   0  0  0  0  0  0  0  0  0  0  0  0
  125.8150  129.2770   58.3350 C   0  0  0  0  0  0  0  0  0  0  0  0
  125.7250  129.7460   59.7480 N   0  0  0  0  0  0  0  0  0  0  0  0
  126.4350  128.9980   60.6630 C   0  0  0  0  0  0  0  0  0  0  0  0
  127.0760  127.9860   60.3580 O   0  0  0  0  0  0  0  0  0  0  0  0
  126.3860  129.5260   62.0840 C   0  0  0  0  0  0  0  0  0  0  0  0
  127.0940  128.8580   63.0910 C   0  0  0  0  0  0  0  0  0  0  0  0
  127.0780  129.3200   64.4060 C   0  0  0  0  0  0  0  0  0  0  0  0
  126.3600  130.4620   64.7550 C   0  0  0  0  0  0  0  0  0  0  0  0
  125.6290  131.1700   63.7710 C   0  0  0  0  0  0  0  0  0  0  0  0
  124.8800  132.3370   64.0560 C   0  0  0  0  0  0  0  0  0  0  0  0
  124.1850  132.9880   63.0390 C   0  0  0  0  0  0  0  0  0  0  0  0
  124.2130  132.5070   61.7320 C   0  0  0  0  0  0  0  0  0  0  0  0
  124.9400  131.3560   61.4030 C   0  0  0  0  0  0  0  0  0  0  0  0
  125.6510  130.6880   62.4330 C   0  0  0  0  0  0  0  0  0  0  0  0
  124.9530  130.8690   59.9660 C   0  0  0  0  0  0  0  0  0  0  0  0
  124.3300  131.4510   59.0720 O   0  0  0  0  0  0  0  0  0  0  0  0
  127.5080  128.1130   56.2930 C   0  0  0  0  0  0  0  0  0  0  0  0
  128.7330  127.3890   55.6850 C   0  0  0  0  0  0  0  0  0  0  0  0
  135.2385  123.8888   60.2593 H   0  0  0  0  0  0  0  0  0  0  0  0
  134.8176  124.0847   62.7034 H   0  0  0  0  0  0  0  0  0  0  0  0
  130.7809  125.4046   61.9039 H   0  0  0  0  0  0  0  0  0  0  0  0
  130.3984  124.3685   58.8392 H   0  0  0  0  0  0  0  0  0  0  0  0
  130.2208  126.0143   59.5399 H   0  0  0  0  0  0  0  0  0  0  0  0
  132.0071  126.8834   58.1573 H   0  0  0  0  0  0  0  0  0  0  0  0
  130.8173  128.2737   58.2746 H   0  0  0  0  0  0  0  0  0  0  0  0
  130.6578  129.2154   56.7571 H   0  0  0  0  0  0  0  0  0  0  0  0
  128.4097  128.4967   58.7289 H   0  0  0  0  0  0  0  0  0  0  0  0
  129.1151  130.1355   58.4201 H   0  0  0  0  0  0  0  0  0  0  0  0
  127.0525  131.0149   57.9373 H   0  0  0  0  0  0  0  0  0  0  0  0
  126.0998  130.3938   56.5137 H   0  0  0  0  0  0  0  0  0  0  0  0
  124.7971  129.2689   57.9180 H   0  0  0  0  0  0  0  0  0  0  0  0
  126.2913  128.2866   58.3820 H   0  0  0  0  0  0  0  0  0  0  0  0
  127.6711  127.9556   62.8405 H   0  0  0  0  0  0  0  0  0  0  0  0
  127.6400  128.7754   65.1790 H   0  0  0  0  0  0  0  0  0  0  0  0
  126.3612  130.8141   65.7971 H   0  0  0  0  0  0  0  0  0  0  0  0
  124.8467  132.7306   65.0826 H   0  0  0  0  0  0  0  0  0  0  0  0
  123.6063  133.8942   63.2713 H   0  0  0  0  0  0  0  0  0  0  0  0
  123.6559  133.0390   60.9467 H   0  0  0  0  0  0  0  0  0  0  0  0
  127.0584  127.4684   57.0627 H   0  0  0  0  0  0  0  0  0  0  0  0
  126.7923  128.3164   55.4828 H   0  0  0  0  0  0  0  0  0  0  0  0
  128.4368  126.3828   55.3535 H   0  0  0  0  0  0  0  0  0  0  0  0
  129.1083  127.9631   54.8250 H   0  0  0  0  0  0  0  0  0  0  0  0
  1  2  2  0
  2  3  1  0
  3  4  1  0
  4  5  2  0
  5  6  1  0
  6  7  2  0
  7  8  1  0
  8  9  2  0
  8 10  1  0
  7 11  1  0
 11 12  2  0
 12 13  1  0
 13 14  1  0
 14 15  1  0
 15 16  2  0
 15 17  1  0
 17 18  1  0
 18 19  1  0
 19 20  1  0
 20 21  1  0
 21 22  1  0
 22 23  1  0
 23 24  1  0
 24 25  2  0
 24 26  1  0
 26 27  2  0
 27 28  1  0
 28 29  2  0
 29 30  1  0
 30 31  2  0
 31 32  1  0
 32 33  2  0
 33 34  1  0
 34 35  2  0
 34 36  1  0
 36 37  2  0
 20 38  1  0
 38 39  1  0
 14  2  1  0
 39 17  1  0
 12  4  1  0
 36 23  1  0
 35 26  1  0
 35 30  1  0
  5 40  1  0
  6 41  1  0
 11 42  1  0
 13 43  1  0
 13 44  1  0
 14 45  1  1
 18 46  1  0
 18 47  1  0
 19 48  1  0
 19 49  1  0
 21 50  1  0
 21 51  1  0
 22 52  1  0
 22 53  1  0
 27 54  1  0
 28 55  1  0
 29 56  1  0
 31 57  1  0
 32 58  1  0
 33 59  1  0
 38 60  1  0
 38 61  1  0
 39 62  1  0
 39 63  1  0
M  CHG  2   8   1  10  -1
M  END
>  <Binding energies>  (1) 
[-10.21]

>  <Ligand effiencies>  (1) 
[-0.2617948717948718]

>  <Interactions>  (1) 
["V-A:MET:535:CE:4833, V-B:ASP:366:CG:8184, V-A:ASP:366:CG:3210, H-A:TYR:539:OH:4876, V-A:ASP:366:CB:3209, V-A:TYR:539:CZ:4875, V-B:ASP:366:CB:8183, V-A:TYR:539:CE1:4873, V-B:MET:535:CE:9807, V-A:ASP:366:CA:3207, V-A:ASP:366:C:3205, V-B:ILE:369:CD1:8210, V-B:ILE:369:CG2:8208, V-B:TYR:539:CZ:9849, V-A:ILE:369:CD1:3236, V-A:ILE:369:CG2:3234, H-B:TYR:539:OH:9850, V-B:LEU:475:CD2:9230, V-B:GLY:454:CA:9020, H-A:GLY:454:N:4047, H-A:TYR:484:OH:4345, V-A:GLY:453:CA:4041, V-A:ARG:545:CZ:4924, V-A:GLU:543:CD:4906, H-A:ARG:545:NE:4922"]

$$$$
RR26_Rahimova_2017
     RDKit          3D

 59 65  0  0  0  0  0  0  0  0999 V2000
  128.5540  130.8500   57.6110 C   0  0  0  0  0  0  0  0  0  0  0  0
  129.9840  131.3000   57.3400 C   0  0  0  0  0  0  0  0  0  0  0  0
  130.1830  132.5460   56.7350 C   0  0  0  0  0  0  0  0  0  0  0  0
  131.4700  133.0260   56.5000 C   0  0  0  0  0  0  0  0  0  0  0  0
  132.5730  132.2640   56.8750 C   0  0  0  0  0  0  0  0  0  0  0  0
  132.3880  131.0220   57.4780 C   0  0  0  0  0  0  0  0  0  0  0  0
  131.0990  130.5190   57.7150 C   0  0  0  0  0  0  0  0  0  0  0  0
  130.9890  129.1650   58.3560 C   0  0  0  0  0  0  0  0  0  0  0  0
  130.9760  128.0410   57.6450 N   0  0  0  0  0  0  0  0  0  0  0  0
  130.8830  127.1320   58.5780 C   0  0  0  0  0  0  0  0  0  0  0  0
  130.7930  125.4100   58.6230 S   0  0  0  0  0  0  0  0  0  0  0  0
  130.7120  125.4850   60.4240 C   0  0  0  0  0  0  0  0  0  0  0  0
  130.6110  124.4530   61.2910 C   0  0  0  0  0  0  0  0  0  0  0  0
  130.5510  123.0320   60.9900 C   0  0  0  0  0  0  0  0  0  0  0  0
  131.4760  122.0490   61.3090 C   0  0  0  0  0  0  0  0  0  0  0  0
  130.9850  120.8480   60.8650 N   0  0  0  0  0  0  0  0  0  0  0  0
  131.5780  119.5630   60.9720 C   0  0  0  0  0  0  0  0  0  0  0  0
  130.8660  118.4870   61.5210 C   0  0  0  0  0  0  0  0  0  0  0  0
  131.4610  117.2320   61.6240 C   0  0  0  0  0  0  0  0  0  0  0  0
  132.7660  117.0490   61.1750 C   0  0  0  0  0  0  0  0  0  0  0  0
  133.4830  118.1090   60.6240 C   0  0  0  0  0  0  0  0  0  0  0  0
  132.8920  119.3650   60.5230 C   0  0  0  0  0  0  0  0  0  0  0  0
  129.7780  121.0180   60.3040 N   0  0  0  0  0  0  0  0  0  0  0  0
  129.5110  122.3070   60.3660 C   0  0  0  0  0  0  0  0  0  0  0  0
  128.2240  122.8300   59.8070 C   0  0  0  0  0  0  0  0  0  0  0  0
  127.4050  123.6700   60.5780 C   0  0  0  0  0  0  0  0  0  0  0  0
  126.2010  124.1600   60.0670 C   0  0  0  0  0  0  0  0  0  0  0  0
  125.8060  123.8110   58.7780 C   0  0  0  0  0  0  0  0  0  0  0  0
  126.6250  122.9870   57.9910 C   0  0  0  0  0  0  0  0  0  0  0  0
  127.8230  122.4940   58.5060 C   0  0  0  0  0  0  0  0  0  0  0  0
  126.2530  122.5790   56.7250 O   0  0  0  0  0  0  0  0  0  0  0  0
  125.2330  123.3860   56.1270 C   0  0  0  0  0  0  0  0  0  0  0  0
  124.1060  123.6830   57.1460 C   0  0  0  0  0  0  0  0  0  0  0  0
  124.6330  124.3560   58.2950 O   0  0  0  0  0  0  0  0  0  0  0  0
  130.7510  126.8560   60.9240 C   0  0  0  0  0  0  0  0  0  0  0  0
  130.7100  127.2600   62.0880 O   0  0  0  0  0  0  0  0  0  0  0  0
  130.8490  127.6910   59.8010 N   0  0  0  0  0  0  0  0  0  0  0  0
  130.9220  129.0190   59.6700 N   0  0  0  0  0  0  0  0  0  0  0  0
  128.3858  130.7971   58.6968 H   0  0  0  0  0  0  0  0  0  0  0  0
  127.8522  131.5707   57.1660 H   0  0  0  0  0  0  0  0  0  0  0  0
  128.3914  129.8573   57.1660 H   0  0  0  0  0  0  0  0  0  0  0  0
  129.3140  133.1533   56.4417 H   0  0  0  0  0  0  0  0  0  0  0  0
  131.6140  134.0048   56.0192 H   0  0  0  0  0  0  0  0  0  0  0  0
  133.5901  132.6424   56.6952 H   0  0  0  0  0  0  0  0  0  0  0  0
  133.2648  130.4267   57.7728 H   0  0  0  0  0  0  0  0  0  0  0  0
  130.5690  124.7217   62.3568 H   0  0  0  0  0  0  0  0  0  0  0  0
  132.4340  122.2051   61.8266 H   0  0  0  0  0  0  0  0  0  0  0  0
  129.8339  118.6346   61.8716 H   0  0  0  0  0  0  0  0  0  0  0  0
  130.9026  116.3895   62.0580 H   0  0  0  0  0  0  0  0  0  0  0  0
  133.2358  116.0577   61.2560 H   0  0  0  0  0  0  0  0  0  0  0  0
  134.5128  117.9537   60.2700 H   0  0  0  0  0  0  0  0  0  0  0  0
  133.4565  120.2041   60.0902 H   0  0  0  0  0  0  0  0  0  0  0  0
  127.7152  123.9456   61.5967 H   0  0  0  0  0  0  0  0  0  0  0  0
  125.5678  124.8184   60.6798 H   0  0  0  0  0  0  0  0  0  0  0  0
  128.4561  121.8390   57.8895 H   0  0  0  0  0  0  0  0  0  0  0  0
  125.6746  124.3352   55.7894 H   0  0  0  0  0  0  0  0  0  0  0  0
  124.8045  122.8408   55.2731 H   0  0  0  0  0  0  0  0  0  0  0  0
  123.3463  124.3204   56.6699 H   0  0  0  0  0  0  0  0  0  0  0  0
  123.6563  122.7316   57.4662 H   0  0  0  0  0  0  0  0  0  0  0  0
  1  2  1  0
  2  3  2  0
  3  4  1  0
  4  5  2  0
  5  6  1  0
  6  7  2  0
  7  8  1  0
  8  9  1  0
  9 10  2  0
 10 11  1  0
 11 12  1  0
 12 13  2  0
 13 14  1  0
 14 15  2  0
 15 16  1  0
 16 17  1  0
 17 18  2  0
 18 19  1  0
 19 20  2  0
 20 21  1  0
 21 22  2  0
 16 23  1  0
 23 24  2  0
 24 25  1  0
 25 26  2  0
 26 27  1  0
 27 28  2  0
 28 29  1  0
 29 30  2  0
 29 31  1  0
 31 32  1  0
 32 33  1  0
 33 34  1  0
 12 35  1  0
 35 36  2  0
 35 37  1  0
 37 38  1  0
  7  2  1  0
 38  8  2  0
 37 10  1  0
 24 14  1  0
 30 25  1  0
 22 17  1  0
 34 28  1  0
  1 39  1  0
  1 40  1  0
  1 41  1  0
  3 42  1  0
  4 43  1  0
  5 44  1  0
  6 45  1  0
 13 46  1  0
 15 47  1  0
 18 48  1  0
 19 49  1  0
 20 50  1  0
 21 51  1  0
 22 52  1  0
 26 53  1  0
 27 54  1  0
 30 55  1  0
 32 56  1  0
 32 57  1  0
 33 58  1  0
 33 59  1  0
M  END
>  <Binding energies>  (1) 
[-9.87]

>  <Ligand effiencies>  (1) 
[-0.25973684210526315]

>  <Interactions>  (1) 
["V-A:ASP:366:CG:3210, V-A:TYR:531:CE2:4791, V-A:PRO:540:CB:4883, H-A:TYR:531:OH:4793, V-A:ILE:538:CA:4858, V-A:LEU:363:CD1:3186, H-B:TYR:531:OH:9767, V-B:PRO:540:CA:9855, V-B:LEU:363:CA:8156, V-B:PRO:540:CB:9857, V-B:LEU:363:CD1:8160, V-B:ILE:538:CG2:9835, V-B:ILE:538:CB:9834, V-B:PRO:540:N:9856, V-A:LEU:475:CD2:4256, V-B:TYR:539:C:9839, V-B:TYR:539:CE1:9847, V-B:TYR:539:CD1:9845, V-A:PRO:540:N:4882, V-A:TYR:539:C:4865, H-B:TYR:539:N:9842, V-B:TYR:531:CE2:9765, V-A:ILE:369:CG2:3234, V-A:ILE:538:CB:4860, V-A:PRO:540:CD:4885, V-A:ILE:538:CG2:4861, V-A:ILE:538:C:4856, V-B:TYR:531:CZ:9766, H-A:ARG:545:NH2:4926, V-A:PRO:482:CG:4324, V-A:SER:385:CB:3406, V-A:PRO:482:CB:4323, V-A:SER:385:CA:3404, V-A:LEU:373:CD1:3277, V-A:VAL:384:C:3394, V-A:LEU:475:CG:4254"]

$$$$
RR27_Rahimova_2017
     RDKit          3D

 66 71  0  0  0  0  0  0  0  0999 V2000
  129.3440  132.5750   60.7300 O   0  0  0  0  0  0  0  0  0  0  0  0
  128.1410  132.3710   60.9180 C   0  0  0  0  0  0  0  0  0  0  0  0
  127.4660  133.0270   62.1570 C   0  0  0  0  0  0  0  0  0  0  0  0
  126.7790  132.0060   63.0830 C   0  0  0  0  0  0  0  0  0  0  0  0
  125.4650  132.1870   63.5400 C   0  0  0  0  0  0  0  0  0  0  0  0
  124.8740  131.2430   64.3750 C   0  0  0  0  0  0  0  0  0  0  0  0
  125.5930  130.1150   64.7570 C   0  0  0  0  0  0  0  0  0  0  0  0
  126.8990  129.9220   64.3140 C   0  0  0  0  0  0  0  0  0  0  0  0
  127.4900  130.8670   63.4800 C   0  0  0  0  0  0  0  0  0  0  0  0
  126.5920  134.2330   61.7600 C   0  0  0  0  0  0  0  0  0  0  0  0
  125.2570  134.0770   61.3640 C   0  0  0  0  0  0  0  0  0  0  0  0
  124.4990  135.1880   61.0000 C   0  0  0  0  0  0  0  0  0  0  0  0
  125.0750  136.4550   61.0260 C   0  0  0  0  0  0  0  0  0  0  0  0
  126.4030  136.6230   61.4070 C   0  0  0  0  0  0  0  0  0  0  0  0
  127.1600  135.5130   61.7690 C   0  0  0  0  0  0  0  0  0  0  0  0
  127.3740  131.7190   59.9980 N   0  0  0  0  0  0  0  0  0  0  0  0
  126.0160  131.2290   60.2760 C   0  0  0  0  0  0  0  0  0  0  0  0
  126.1650  129.8120   60.8750 C   0  0  0  0  0  0  0  0  0  0  0  0
  126.9910  128.8540   59.9590 C   0  0  0  0  0  0  0  0  0  0  0  0
  127.2640  127.4630   60.5600 C   0  0  0  0  0  0  0  0  0  0  0  0
  128.2770  127.3850   61.4730 N   0  0  0  0  0  0  0  0  0  0  0  0
  128.5430  126.1830   62.0550 C   0  0  0  0  0  0  0  0  0  0  0  0
  129.5280  125.9800   62.9850 O   0  0  0  0  0  0  0  0  0  0  0  0
  127.7630  125.0680   61.6900 C   0  0  0  0  0  0  0  0  0  0  0  0
  127.7570  123.7580   62.0720 N   0  0  0  0  0  0  0  0  0  0  0  0
  126.7560  123.1270   61.3580 N   0  0  0  0  0  0  0  0  0  0  0  0
  126.1530  124.0330   60.5590 N   0  0  0  0  0  0  0  0  0  0  0  0
  125.0660  123.6300   59.6690 C   0  0  0  0  0  0  0  0  0  0  0  0
  125.4940  123.4630   58.2170 C   0  0  0  0  0  0  0  0  0  0  0  0
  124.5340  123.4080   57.2020 C   0  0  0  0  0  0  0  0  0  0  0  0
  124.9270  123.2660   55.8710 C   0  0  0  0  0  0  0  0  0  0  0  0
  126.2810  123.1840   55.5470 C   0  0  0  0  0  0  0  0  0  0  0  0
  127.2450  123.2480   56.5540 C   0  0  0  0  0  0  0  0  0  0  0  0
  128.9230  123.1740   56.1530 Cl  0  0  0  0  0  0  0  0  0  0  0  0
  126.8520  123.3820   57.8860 C   0  0  0  0  0  0  0  0  0  0  0  0
  126.7520  125.2700   60.7270 C   0  0  0  0  0  0  0  0  0  0  0  0
  126.4750  126.4350   60.1350 N   0  0  0  0  0  0  0  0  0  0  0  0
  128.2690  129.5460   59.3940 C   0  0  0  0  0  0  0  0  0  0  0  0
  128.0100  130.9880   58.8900 C   0  0  0  0  0  0  0  0  0  0  0  0
  128.2677  133.4452   62.7834 H   0  0  0  0  0  0  0  0  0  0  0  0
  124.8986  133.0799   63.2368 H   0  0  0  0  0  0  0  0  0  0  0  0
  123.8434  131.3882   64.7311 H   0  0  0  0  0  0  0  0  0  0  0  0
  125.1253  129.3682   65.4154 H   0  0  0  0  0  0  0  0  0  0  0  0
  127.4607  129.0276   64.6214 H   0  0  0  0  0  0  0  0  0  0  0  0
  128.5223  130.7179   63.1306 H   0  0  0  0  0  0  0  0  0  0  0  0
  124.8059  133.0740   61.3404 H   0  0  0  0  0  0  0  0  0  0  0  0
  123.4499  135.0644   60.6934 H   0  0  0  0  0  0  0  0  0  0  0  0
  124.4746  137.3321   60.7426 H   0  0  0  0  0  0  0  0  0  0  0  0
  126.8515  137.6273   61.4219 H   0  0  0  0  0  0  0  0  0  0  0  0
  128.2118  135.6418   62.0643 H   0  0  0  0  0  0  0  0  0  0  0  0
  125.5139  131.8930   60.9951 H   0  0  0  0  0  0  0  0  0  0  0  0
  125.4093  131.2074   59.3587 H   0  0  0  0  0  0  0  0  0  0  0  0
  126.6721  129.8927   61.8478 H   0  0  0  0  0  0  0  0  0  0  0  0
  125.1557  129.3864   60.9763 H   0  0  0  0  0  0  0  0  0  0  0  0
  126.3373  128.6392   59.1007 H   0  0  0  0  0  0  0  0  0  0  0  0
  129.3160  125.2760   63.6020 H   0  0  0  0  0  0  0  0  0  0  0  0
  124.6633  122.6702   60.0250 H   0  0  0  0  0  0  0  0  0  0  0  0
  124.3160  124.4343   59.6927 H   0  0  0  0  0  0  0  0  0  0  0  0
  123.4654  123.4769   57.4538 H   0  0  0  0  0  0  0  0  0  0  0  0
  124.1681  123.2187   55.0762 H   0  0  0  0  0  0  0  0  0  0  0  0
  126.5892  123.0688   54.4974 H   0  0  0  0  0  0  0  0  0  0  0  0
  127.6125  123.4242   58.6797 H   0  0  0  0  0  0  0  0  0  0  0  0
  129.0267  129.5848   60.1905 H   0  0  0  0  0  0  0  0  0  0  0  0
  128.6069  128.9538   58.5308 H   0  0  0  0  0  0  0  0  0  0  0  0
  128.9602  131.4693   58.6151 H   0  0  0  0  0  0  0  0  0  0  0  0
  127.3654  130.9843   57.9987 H   0  0  0  0  0  0  0  0  0  0  0  0
  1  2  2  0
  2  3  1  0
  3  4  1  0
  4  5  2  0
  5  6  1  0
  6  7  2  0
  7  8  1  0
  8  9  2  0
  3 10  1  0
 10 11  2  0
 11 12  1  0
 12 13  2  0
 13 14  1  0
 14 15  2  0
  2 16  1  0
 16 17  1  0
 17 18  1  0
 18 19  1  0
 19 20  1  0
 20 21  2  0
 21 22  1  0
 22 23  1  0
 22 24  2  0
 24 25  1  0
 25 26  2  0
 26 27  1  0
 27 28  1  0
 28 29  1  0
 29 30  2  0
 30 31  1  0
 31 32  2  0
 32 33  1  0
 33 34  1  0
 33 35  2  0
 27 36  1  0
 36 37  2  0
 19 38  1  0
 38 39  1  0
  9  4  1  0
 15 10  1  0
 39 16  1  0
 37 20  1  0
 36 24  1  0
 35 29  1  0
  3 40  1  0
  5 41  1  0
  6 42  1  0
  7 43  1  0
  8 44  1  0
  9 45  1  0
 11 46  1  0
 12 47  1  0
 13 48  1  0
 14 49  1  0
 15 50  1  0
 17 51  1  0
 17 52  1  0
 18 53  1  0
 18 54  1  0
 19 55  1  0
 23 56  1  0
 28 57  1  0
 28 58  1  0
 30 59  1  0
 31 60  1  0
 32 61  1  0
 35 62  1  0
 38 63  1  0
 38 64  1  0
 39 65  1  0
 39 66  1  0
M  END
>  <Binding energies>  (1) 
[-10.82]

>  <Ligand effiencies>  (1) 
[-0.2705]

>  <Interactions>  (1) 
["V-B:ASP:366:CG:8184, H-A:ALA:541:N:4889, V-A:TYR:539:CE1:4873, V-B:PRO:540:CA:9855, V-B:PRO:540:CB:9857, V-B:LEU:363:CD1:8160, V-B:MET:535:CE:9807, V-B:ILE:538:CG2:9835, V-B:ILE:538:CB:9834, V-B:ILE:538:CA:9832, V-B:PRO:540:N:9856, V-B:GLU:543:CD:9880, V-B:TYR:539:CE1:9847, V-B:TYR:539:CD1:9845, V-A:TYR:539:CD1:4871, V-A:ALA:541:CB:4890, V-B:ILE:369:CG2:8208, V-B:TYR:539:CZ:9849, V-B:TYR:531:CE2:9765, V-B:ARG:545:CZ:9898, V-B:SER:385:CA:8378, V-B:PRO:482:CG:9298, V-B:LEU:475:CD2:9230, V-B:LEU:373:CD1:8251, V-B:GLY:454:CA:9020, V-B:TYR:531:CZ:9766, V-B:TYR:539:CE2:9848, H-B:ALA:541:N:9863, V-A:GLU:543:CD:4906, H-B:ARG:545:NH2:9900, V-B:TYR:539:CD2:9846, H-B:GLU:543:OE1:9881, H-B:GLU:543:OE2:9882"]

$$$$
RR27_Rahimova_2017-again1
     RDKit          3D

 66 71  0  0  0  0  0  0  0  0999 V2000
  131.2520  126.2500   61.2050 O   0  0  0  0  0  0  0  0  0  0  0  0
  130.2690  125.9840   61.9040 C   0  0  0  0  0  0  0  0  0  0  0  0
  130.3900  124.8160   62.9300 C   0  0  0  0  0  0  0  0  0  0  0  0
  131.2630  125.1850   64.1440 C   0  0  0  0  0  0  0  0  0  0  0  0
  132.6650  125.1420   64.0940 C   0  0  0  0  0  0  0  0  0  0  0  0
  133.4210  125.4850   65.2120 C   0  0  0  0  0  0  0  0  0  0  0  0
  132.7800  125.8710   66.3860 C   0  0  0  0  0  0  0  0  0  0  0  0
  131.3910  125.9190   66.4510 C   0  0  0  0  0  0  0  0  0  0  0  0
  130.6360  125.5770   65.3330 C   0  0  0  0  0  0  0  0  0  0  0  0
  130.7960  123.4930   62.2540 C   0  0  0  0  0  0  0  0  0  0  0  0
  129.9430  122.3790   62.2530 C   0  0  0  0  0  0  0  0  0  0  0  0
  130.3410  121.1870   61.6530 C   0  0  0  0  0  0  0  0  0  0  0  0
  131.5920  121.1030   61.0490 C   0  0  0  0  0  0  0  0  0  0  0  0
  132.4500  122.1980   61.0430 C   0  0  0  0  0  0  0  0  0  0  0  0
  132.0560  123.3880   61.6490 C   0  0  0  0  0  0  0  0  0  0  0  0
  129.1630  126.7840   61.9050 N   0  0  0  0  0  0  0  0  0  0  0  0
  127.8710  126.3900   62.4830 C   0  0  0  0  0  0  0  0  0  0  0  0
  127.0990  125.5900   61.4080 C   0  0  0  0  0  0  0  0  0  0  0  0
  127.1330  126.1880   59.9630 C   0  0  0  0  0  0  0  0  0  0  0  0
  126.9270  125.1400   58.8640 C   0  0  0  0  0  0  0  0  0  0  0  0
  127.8750  124.8750   58.0200 N   0  0  0  0  0  0  0  0  0  0  0  0
  127.5780  123.9320   57.0830 C   0  0  0  0  0  0  0  0  0  0  0  0
  126.3780  123.2500   56.9560 C   0  0  0  0  0  0  0  0  0  0  0  0
  126.4300  122.4140   55.9330 N   0  0  0  0  0  0  0  0  0  0  0  0
  127.6930  122.5350   55.3600 N   0  0  0  0  0  0  0  0  0  0  0  0
  128.3740  123.4430   56.0800 N   0  0  0  0  0  0  0  0  0  0  0  0
  129.7360  123.8150   55.7210 C   0  0  0  0  0  0  0  0  0  0  0  0
  130.2810  124.9750   56.5410 C   0  0  0  0  0  0  0  0  0  0  0  0
  131.2490  124.7450   57.5240 C   0  0  0  0  0  0  0  0  0  0  0  0
  131.7440  125.8060   58.2840 C   0  0  0  0  0  0  0  0  0  0  0  0
  131.2760  127.1010   58.0630 C   0  0  0  0  0  0  0  0  0  0  0  0
  130.3150  127.3370   57.0790 C   0  0  0  0  0  0  0  0  0  0  0  0
  129.7340  128.9390   56.8090 Cl  0  0  0  0  0  0  0  0  0  0  0  0
  129.8200  126.2780   56.3180 C   0  0  0  0  0  0  0  0  0  0  0  0
  125.2950  123.5250   57.9000 C   0  0  0  0  0  0  0  0  0  0  0  0
  124.1750  123.0240   57.9480 O   0  0  0  0  0  0  0  0  0  0  0  0
  125.7010  124.4860   58.8020 N   0  0  0  0  0  0  0  0  0  0  0  0
  128.3230  127.1490   59.6480 C   0  0  0  0  0  0  0  0  0  0  0  0
  129.0040  127.8150   60.8690 C   0  0  0  0  0  0  0  0  0  0  0  0
  129.3849  124.6429   63.3421 H   0  0  0  0  0  0  0  0  0  0  0  0
  133.1697  124.8355   63.1659 H   0  0  0  0  0  0  0  0  0  0  0  0
  134.5196  125.4511   65.1677 H   0  0  0  0  0  0  0  0  0  0  0  0
  133.3768  126.1404   67.2699 H   0  0  0  0  0  0  0  0  0  0  0  0
  130.8918  126.2259   67.3819 H   0  0  0  0  0  0  0  0  0  0  0  0
  129.5378  125.6150   65.3839 H   0  0  0  0  0  0  0  0  0  0  0  0
  128.9537  122.4476   62.7291 H   0  0  0  0  0  0  0  0  0  0  0  0
  129.6696  120.3157   61.6564 H   0  0  0  0  0  0  0  0  0  0  0  0
  131.9051  120.1625   60.5721 H   0  0  0  0  0  0  0  0  0  0  0  0
  133.4361  122.1240   60.5612 H   0  0  0  0  0  0  0  0  0  0  0  0
  132.7378  124.2512   61.6530 H   0  0  0  0  0  0  0  0  0  0  0  0
  128.0340  125.7626   63.3717 H   0  0  0  0  0  0  0  0  0  0  0  0
  127.2982  127.2785   62.7872 H   0  0  0  0  0  0  0  0  0  0  0  0
  127.5293  124.5786   61.3654 H   0  0  0  0  0  0  0  0  0  0  0  0
  126.0436  125.6130   61.7173 H   0  0  0  0  0  0  0  0  0  0  0  0
  126.2505  126.8446   59.9558 H   0  0  0  0  0  0  0  0  0  0  0  0
  130.3879  122.9425   55.8748 H   0  0  0  0  0  0  0  0  0  0  0  0
  129.7179  124.1400   54.6703 H   0  0  0  0  0  0  0  0  0  0  0  0
  131.6214  123.7248   57.6987 H   0  0  0  0  0  0  0  0  0  0  0  0
  132.5036  125.6206   59.0577 H   0  0  0  0  0  0  0  0  0  0  0  0
  131.6643  127.9363   58.6642 H   0  0  0  0  0  0  0  0  0  0  0  0
  129.0653  126.4672   55.5404 H   0  0  0  0  0  0  0  0  0  0  0  0
  125.0070  124.7370   59.4910 H   0  0  0  0  0  0  0  0  0  0  0  0
  129.0887  126.5704   59.1106 H   0  0  0  0  0  0  0  0  0  0  0  0
  127.8888  127.9750   59.0656 H   0  0  0  0  0  0  0  0  0  0  0  0
  129.9885  128.2113   60.5797 H   0  0  0  0  0  0  0  0  0  0  0  0
  128.3940  128.6498   61.2445 H   0  0  0  0  0  0  0  0  0  0  0  0
  1  2  2  0
  2  3  1  0
  3  4  1  0
  4  5  2  0
  5  6  1  0
  6  7  2  0
  7  8  1  0
  8  9  2  0
  3 10  1  0
 10 11  2  0
 11 12  1  0
 12 13  2  0
 13 14  1  0
 14 15  2  0
  2 16  1  0
 16 17  1  0
 17 18  1  0
 18 19  1  0
 19 20  1  0
 20 21  2  0
 21 22  1  0
 22 23  2  0
 23 24  1  0
 24 25  2  0
 25 26  1  0
 26 27  1  0
 27 28  1  0
 28 29  2  0
 29 30  1  0
 30 31  2  0
 31 32  1  0
 32 33  1  0
 32 34  2  0
 23 35  1  0
 35 36  2  0
 35 37  1  0
 19 38  1  0
 38 39  1  0
  9  4  1  0
 15 10  1  0
 39 16  1  0
 37 20  1  0
 26 22  1  0
 34 28  1  0
  3 40  1  0
  5 41  1  0
  6 42  1  0
  7 43  1  0
  8 44  1  0
  9 45  1  0
 11 46  1  0
 12 47  1  0
 13 48  1  0
 14 49  1  0
 15 50  1  0
 17 51  1  0
 17 52  1  0
 18 53  1  0
 18 54  1  0
 19 55  1  0
 27 56  1  0
 27 57  1  0
 29 58  1  0
 30 59  1  0
 31 60  1  0
 34 61  1  0
 37 62  1  0
 38 63  1  0
 38 64  1  0
 39 65  1  0
 39 66  1  0
M  END
>  <Binding energies>  (1) 
[-10.16]

>  <Ligand effiencies>  (1) 
[-0.254]

>  <Interactions>  (1) 
["V-A:MET:535:CE:4833, V-B:ASP:366:CG:8184, V-A:ASP:366:CG:3210, V-A:ASP:366:CB:3209, V-B:PRO:540:CA:9855, V-B:ALA:541:CB:9864, V-B:PRO:540:CB:9857, V-B:MET:535:CE:9807, V-A:LEU:475:CD2:4256, V-B:GLU:543:CD:9880, V-B:TYR:539:CE1:9847, V-B:TYR:539:CD1:9845, H-B:TYR:539:N:9842, V-B:TYR:539:CZ:9849, H-B:ASP:366:OD2:8186, V-B:TYR:539:CE2:9848, V-A:ARG:545:CG:4920, H-A:ARG:545:NH2:4926, V-A:ARG:545:CD:4921, V-A:HIS:456:CE1:4066, V-A:ARG:545:CZ:4924"]

$$$$
RR28_Rahimova_2017
     RDKit          3D

 82 85  0  0  0  0  0  0  0  0999 V2000
  130.7030  122.6870   64.6520 C   0  0  0  0  0  0  0  0  0  0  0  0
  130.6730  122.3700   63.1610 C   0  0  0  0  0  0  0  0  0  0  0  0
  129.5980  122.3570   62.5640 O   0  0  0  0  0  0  0  0  0  0  0  0
  131.8640  122.1180   62.5800 N   0  0  0  0  0  0  0  0  0  0  0  0
  132.1380  121.7780   61.1650 C   0  0  0  0  0  0  0  0  0  0  0  0
  132.0340  120.2340   61.0080 C   0  0  0  0  0  0  0  0  0  0  0  0
  133.1840  119.4960   60.6850 C   0  0  0  0  0  0  0  0  0  0  0  0
  133.1270  118.1140   60.5320 C   0  0  0  0  0  0  0  0  0  0  0  0
  131.9180  117.4370   60.6970 C   0  0  0  0  0  0  0  0  0  0  0  0
  131.8750  115.9200   60.5210 C   0  0  0  0  0  0  0  0  0  0  0  0
  131.7130  115.2790   61.6810 F   0  0  0  0  0  0  0  0  0  0  0  0
  130.8690  115.5760   59.7170 F   0  0  0  0  0  0  0  0  0  0  0  0
  133.0200  115.5090   59.9750 F   0  0  0  0  0  0  0  0  0  0  0  0
  130.7660  118.1600   61.0180 C   0  0  0  0  0  0  0  0  0  0  0  0
  130.8240  119.5430   61.1700 C   0  0  0  0  0  0  0  0  0  0  0  0
  133.5230  122.3670   60.7160 C   0  0  0  0  0  0  0  0  0  0  0  0
  133.5540  123.9160   60.6970 C   0  0  0  0  0  0  0  0  0  0  0  0
  132.4930  124.3430   59.7700 N   0  0  0  0  0  0  0  0  0  0  0  0
  132.7800  124.5870   58.4620 C   0  0  0  0  0  0  0  0  0  0  0  0
  133.9390  124.6280   58.0440 O   0  0  0  0  0  0  0  0  0  0  0  0
  131.6300  124.9860   57.5060 C   0  0  0  0  0  0  0  0  0  0  0  0
  130.4610  125.7850   58.1460 C   0  0  0  0  0  0  0  0  0  0  0  0
  130.1520  127.1440   57.4770 C   0  0  0  0  0  0  0  0  0  0  0  0
  130.4950  127.3020   56.3020 O   0  0  0  0  0  0  0  0  0  0  0  0
  129.3990  128.0680   58.1390 N   0  0  0  0  0  0  0  0  0  0  0  0
  129.2370  128.0810   59.5980 C   0  0  0  0  0  0  0  0  0  0  0  0
  130.4420  128.8600   60.1690 C   0  0  0  0  0  0  0  0  0  0  0  0
  130.6090  130.3150   59.6060 C   0  0  0  0  0  0  0  0  0  0  0  0
  131.9750  130.7950   59.9030 N   0  0  0  0  0  0  0  0  0  0  0  0
  132.3980  131.4840   60.9810 C   0  0  0  0  0  0  0  0  0  0  0  0
  133.8760  131.8630   61.0040 C   0  0  0  0  0  0  0  0  0  0  0  0
  131.6720  131.8130   61.9180 O   0  0  0  0  0  0  0  0  0  0  0  0
  129.6080  131.2340   60.3790 C   0  0  0  0  0  0  0  0  0  0  0  0
  128.9610  130.8320   61.5590 C   0  0  0  0  0  0  0  0  0  0  0  0
  128.0770  131.6820   62.2180 C   0  0  0  0  0  0  0  0  0  0  0  0
  127.8130  132.9560   61.7100 C   0  0  0  0  0  0  0  0  0  0  0  0
  126.8480  133.9020   62.4240 C   0  0  0  0  0  0  0  0  0  0  0  0
  125.6490  133.8780   61.8390 F   0  0  0  0  0  0  0  0  0  0  0  0
  126.7120  133.5140   63.6910 F   0  0  0  0  0  0  0  0  0  0  0  0
  127.2830  135.1640   62.4170 F   0  0  0  0  0  0  0  0  0  0  0  0
  128.4410  133.3670   60.5340 C   0  0  0  0  0  0  0  0  0  0  0  0
  129.3250  132.5150   59.8780 C   0  0  0  0  0  0  0  0  0  0  0  0
  130.3580  130.2950   58.0480 C   0  0  0  0  0  0  0  0  0  0  0  0
  129.1880  129.4000   57.5580 C   0  0  0  0  0  0  0  0  0  0  0  0
  131.1410  123.9990   60.2340 C   0  0  0  0  0  0  0  0  0  0  0  0
  131.0510  122.4510   60.2660 C   0  0  0  0  0  0  0  0  0  0  0  0
  130.6147  121.7535   65.2272 H   0  0  0  0  0  0  0  0  0  0  0  0
  131.6521  123.1835   64.9023 H   0  0  0  0  0  0  0  0  0  0  0  0
  129.8638  123.3527   64.9023 H   0  0  0  0  0  0  0  0  0  0  0  0
  132.6780  122.1370   63.1750 H   0  0  0  0  0  0  0  0  0  0  0  0
  134.1432  120.0174   60.5510 H   0  0  0  0  0  0  0  0  0  0  0  0
  134.0389  117.5529   60.2799 H   0  0  0  0  0  0  0  0  0  0  0  0
  129.8090  117.6342   61.1512 H   0  0  0  0  0  0  0  0  0  0  0  0
  129.9095  120.1007   61.4203 H   0  0  0  0  0  0  0  0  0  0  0  0
  134.2961  122.0110   61.4129 H   0  0  0  0  0  0  0  0  0  0  0  0
  133.7036  122.0252   59.6862 H   0  0  0  0  0  0  0  0  0  0  0  0
  133.3607  124.3125   61.7047 H   0  0  0  0  0  0  0  0  0  0  0  0
  134.5373  124.2907   60.3765 H   0  0  0  0  0  0  0  0  0  0  0  0
  132.0588  125.6021   56.7019 H   0  0  0  0  0  0  0  0  0  0  0  0
  131.1890  124.0395   57.1600 H   0  0  0  0  0  0  0  0  0  0  0  0
  129.5543  125.1645   58.0919 H   0  0  0  0  0  0  0  0  0  0  0  0
  130.7740  126.0144   59.1753 H   0  0  0  0  0  0  0  0  0  0  0  0
  128.2969  128.5827   59.8710 H   0  0  0  0  0  0  0  0  0  0  0  0
  129.1983  127.0586   60.0019 H   0  0  0  0  0  0  0  0  0  0  0  0
  130.3207  128.9268   61.2603 H   0  0  0  0  0  0  0  0  0  0  0  0
  131.3422  128.3048   59.8665 H   0  0  0  0  0  0  0  0  0  0  0  0
  132.6560  130.6080   59.1820 H   0  0  0  0  0  0  0  0  0  0  0  0
  134.2160  131.9502   62.0465 H   0  0  0  0  0  0  0  0  0  0  0  0
  134.4618  131.0860   60.4910 H   0  0  0  0  0  0  0  0  0  0  0  0
  134.0156  132.8260   60.4910 H   0  0  0  0  0  0  0  0  0  0  0  0
  129.1558  129.8300   61.9689 H   0  0  0  0  0  0  0  0  0  0  0  0
  127.5841  131.3487   63.1432 H   0  0  0  0  0  0  0  0  0  0  0  0
  128.2370  134.3671   60.1240 H   0  0  0  0  0  0  0  0  0  0  0  0
  129.8108  132.8513   58.9502 H   0  0  0  0  0  0  0  0  0  0  0  0
  130.1496  131.3264   57.7275 H   0  0  0  0  0  0  0  0  0  0  0  0
  131.2676  129.8613   57.6069 H   0  0  0  0  0  0  0  0  0  0  0  0
  128.2271  129.8134   57.8982 H   0  0  0  0  0  0  0  0  0  0  0  0
  129.1624  129.3513   56.4594 H   0  0  0  0  0  0  0  0  0  0  0  0
  130.9721  124.4078   61.2411 H   0  0  0  0  0  0  0  0  0  0  0  0
  130.3775  124.4222   59.5647 H   0  0  0  0  0  0  0  0  0  0  0  0
  130.0594  122.1684   60.6493 H   0  0  0  0  0  0  0  0  0  0  0  0
  131.2194  122.0974   59.2381 H   0  0  0  0  0  0  0  0  0  0  0  0
  1  2  1  0
  2  3  2  0
  2  4  1  0
  4  5  1  0
  5  6  1  0
  6  7  2  0
  7  8  1  0
  8  9  2  0
  9 10  1  0
 10 11  1  0
 10 12  1  0
 10 13  1  0
  9 14  1  0
 14 15  2  0
  5 16  1  0
 16 17  1  0
 17 18  1  0
 18 19  1  0
 19 20  2  0
 19 21  1  0
 21 22  1  0
 22 23  1  0
 23 24  2  0
 23 25  1  0
 25 26  1  0
 26 27  1  0
 27 28  1  0
 28 29  1  0
 29 30  1  0
 30 31  1  0
 30 32  2  0
 28 33  1  0
 33 34  2  0
 34 35  1  0
 35 36  2  0
 36 37  1  0
 37 38  1  0
 37 39  1  0
 37 40  1  0
 36 41  1  0
 41 42  2  0
 28 43  1  0
 43 44  1  0
 18 45  1  0
 45 46  1  0
 46  5  1  0
 15  6  1  0
 44 25  1  0
 42 33  1  0
  1 47  1  0
  1 48  1  0
  1 49  1  0
  4 50  1  0
  7 51  1  0
  8 52  1  0
 14 53  1  0
 15 54  1  0
 16 55  1  0
 16 56  1  0
 17 57  1  0
 17 58  1  0
 21 59  1  0
 21 60  1  0
 22 61  1  0
 22 62  1  0
 26 63  1  0
 26 64  1  0
 27 65  1  0
 27 66  1  0
 29 67  1  0
 31 68  1  0
 31 69  1  0
 31 70  1  0
 34 71  1  0
 35 72  1  0
 41 73  1  0
 42 74  1  0
 43 75  1  0
 43 76  1  0
 44 77  1  0
 44 78  1  0
 45 79  1  0
 45 80  1  0
 46 81  1  0
 46 82  1  0
M  END
>  <Binding energies>  (1) 
[-10.4]

>  <Ligand effiencies>  (1) 
[-0.21666666666666667]

>  <Interactions>  (1) 
["V-A:ASP:366:CG:3210, H-A:ALA:541:N:4889, V-A:PRO:540:CB:4883, V-A:PRO:540:CA:4881, V-A:ASP:366:CB:3209, H-A:TYR:531:OH:4793, V-A:TYR:539:CE1:4873, V-B:ALA:541:CB:9864, V-A:LEU:475:CD2:4256, V-B:TYR:539:CE1:9847, V-B:TYR:539:CD1:9845, V-A:TYR:539:CD1:4871, V-A:ALA:541:CB:4890, V-A:PRO:540:N:4882, V-A:ASN:362:C:3169, V-A:TYR:539:C:4865, V-B:TYR:539:CZ:9849, V-A:ILE:369:CD1:3236, V-A:ILE:369:CG2:3234, H-B:TYR:539:OH:9850, V-B:LEU:475:CD2:9230, H-A:ASP:366:OD2:3212, V-A:TYR:484:CZ:4344, V-A:ASN:362:CB:3173, V-A:PRO:482:CG:4324, V-A:SER:385:CB:3406, V-A:PRO:482:CB:4323, V-A:SER:385:CA:3404, V-A:HIS:383:CG:3387, V-B:GLU:543:CB:9878, V-A:HIS:383:CB:3386, V-A:LEU:373:CD1:3277, V-A:TYR:484:CE2:4343, V-B:VAL:344:CG1:7972, V-A:ASN:362:CA:3171, V-B:LEU:475:CG:9228"]

$$$$
RR29_Rahimova_2017
     RDKit          3D

 35 36  0  0  0  0  0  0  0  0999 V2000
  123.1620  130.7570   62.1420 C   0  0  0  0  0  0  0  0  0  0  0  0
  124.1600  131.3910   63.0990 C   0  0  0  0  0  0  0  0  0  0  0  0
  124.3030  132.9160   62.8990 C   0  0  0  0  0  0  0  0  0  0  0  0
  124.9890  133.2540   61.5590 C   0  0  0  0  0  0  0  0  0  0  0  0
  125.4170  134.7110   61.4800 C   0  0  0  0  0  0  0  0  0  0  0  0
  126.7590  135.0650   61.7210 C   0  0  0  0  0  0  0  0  0  0  0  0
  127.1750  136.4020   61.6530 C   0  0  0  0  0  0  0  0  0  0  0  0
  126.2130  137.3590   61.3520 C   0  0  0  0  0  0  0  0  0  0  0  0
  124.9090  137.0230   61.1200 C   0  0  0  0  0  0  0  0  0  0  0  0
  124.4700  135.7040   61.1710 C   0  0  0  0  0  0  0  0  0  0  0  0
  124.2020  138.1440   60.8190 O   0  0  0  0  0  0  0  0  0  0  0  0
  125.0650  139.2180   61.0810 C   0  0  0  0  0  0  0  0  0  0  0  0
  126.3640  138.7020   61.2030 O   0  0  0  0  0  0  0  0  0  0  0  0
  124.7700  130.6380   63.9380 N   0  0  0  0  0  0  0  0  0  0  0  0
  125.7360  131.1950   64.7470 N   0  0  0  0  0  0  0  0  0  0  0  0
  127.0420  130.8890   64.6780 C   0  0  0  0  0  0  0  0  0  0  0  0
  127.5790  130.0280   63.8120 N   0  0  0  0  0  0  0  0  0  0  0  0
  127.8610  131.4870   65.5300 N   0  0  0  0  0  0  0  0  0  0  0  0
  122.3707  130.2543   62.7174 H   0  0  0  0  0  0  0  0  0  0  0  0
  122.7152  131.5372   61.5083 H   0  0  0  0  0  0  0  0  0  0  0  0
  123.6784  130.0210   61.5083 H   0  0  0  0  0  0  0  0  0  0  0  0
  123.3024  133.3727   62.9124 H   0  0  0  0  0  0  0  0  0  0  0  0
  124.9277  133.3115   63.7134 H   0  0  0  0  0  0  0  0  0  0  0  0
  125.8791  132.6175   61.4470 H   0  0  0  0  0  0  0  0  0  0  0  0
  124.2614  133.0733   60.7540 H   0  0  0  0  0  0  0  0  0  0  0  0
  127.4909  134.2812   61.9660 H   0  0  0  0  0  0  0  0  0  0  0  0
  128.2234  136.6832   61.8312 H   0  0  0  0  0  0  0  0  0  0  0  0
  123.4184  135.4464   60.9764 H   0  0  0  0  0  0  0  0  0  0  0  0
  125.0254  139.9410   60.2529 H   0  0  0  0  0  0  0  0  0  0  0  0
  124.7674  139.7345   62.0055 H   0  0  0  0  0  0  0  0  0  0  0  0
  125.4190  131.8510   65.4470 H   0  0  0  0  0  0  0  0  0  0  0  0
  128.5640  130.0720   63.5960 H   0  0  0  0  0  0  0  0  0  0  0  0
  126.9890  129.3390   63.3670 H   0  0  0  0  0  0  0  0  0  0  0  0
  127.4990  131.8830   66.3860 H   0  0  0  0  0  0  0  0  0  0  0  0
  128.8480  131.5420   65.3250 H   0  0  0  0  0  0  0  0  0  0  0  0
  1  2  1  0
  2  3  1  0
  3  4  1  0
  4  5  1  0
  5  6  2  0
  6  7  1  0
  7  8  2  0
  8  9  1  0
  9 10  2  0
  9 11  1  0
 11 12  1  0
 12 13  1  0
  2 14  2  0
 14 15  1  0
 15 16  1  0
 16 17  1  0
 16 18  2  0
 10  5  1  0
 13  8  1  0
  1 19  1  0
  1 20  1  0
  1 21  1  0
  3 22  1  0
  3 23  1  0
  4 24  1  0
  4 25  1  0
  6 26  1  0
  7 27  1  0
 10 28  1  0
 12 29  1  0
 12 30  1  0
 15 31  1  0
 17 32  1  0
 17 33  1  0
 18 34  1  0
 18 35  1  0
M  CHG  1  18   1
M  END
>  <Binding energies>  (1) 
[-7.68]

>  <Ligand effiencies>  (1) 
[-0.33391304347826084]

>  <Interactions>  (1) 
["V-A:TYR:539:CE1:4873, V-A:TYR:539:CD1:4871, V-B:ILE:369:CD1:8210, V-B:ILE:369:CG2:8208, V-B:PRO:482:CB:9297, V-B:SER:385:CA:8378, V-B:PRO:482:CG:9298, V-B:LEU:475:CD2:9230, V-B:SER:385:CB:8380, V-B:LEU:373:CD1:8251, V-B:GLY:453:CA:9015, V-B:GLY:453:C:9013, V-B:GLY:454:CA:9020, H-B:TYR:484:OH:9319, H-B:GLY:454:N:9021, V-A:GLU:543:CD:4906, H-A:GLU:543:OE2:4908, H-A:GLU:543:OE1:4907, V-A:GLU:543:CB:4904, V-B:TYR:484:CZ:9318, V-B:TYR:484:CE2:9317, V-A:GLU:543:CG:4905, H-B:GLU:543:OE2:9882"]

$$$$
RR29_Rahimova_2017-again1
     RDKit          3D

 34 35  0  0  0  0  0  0  0  0999 V2000
  123.3770  131.1010   61.5570 C   0  0  0  0  0  0  0  0  0  0  0  0
  124.1480  131.2320   62.8620 C   0  0  0  0  0  0  0  0  0  0  0  0
  124.8990  132.5700   63.0000 C   0  0  0  0  0  0  0  0  0  0  0  0
  125.5700  132.9820   61.6730 C   0  0  0  0  0  0  0  0  0  0  0  0
  125.8050  134.4820   61.5870 C   0  0  0  0  0  0  0  0  0  0  0  0
  127.1010  135.0020   61.7750 C   0  0  0  0  0  0  0  0  0  0  0  0
  127.3420  136.3810   61.6980 C   0  0  0  0  0  0  0  0  0  0  0  0
  126.2560  137.2100   61.4410 C   0  0  0  0  0  0  0  0  0  0  0  0
  124.9960  136.7110   61.2610 C   0  0  0  0  0  0  0  0  0  0  0  0
  124.7310  135.3480   61.3210 C   0  0  0  0  0  0  0  0  0  0  0  0
  124.1420  137.7340   60.9950 O   0  0  0  0  0  0  0  0  0  0  0  0
  124.8730  138.9080   61.2300 C   0  0  0  0  0  0  0  0  0  0  0  0
  126.2300  138.5600   61.2940 O   0  0  0  0  0  0  0  0  0  0  0  0
  124.1310  130.2570   63.7020 N   0  0  0  0  0  0  0  0  0  0  0  0
  124.8230  130.3980   64.7870 N   0  0  0  0  0  0  0  0  0  0  0  0
  125.8540  129.6480   64.9300 C   0  0  0  0  0  0  0  0  0  0  0  0
  126.3490  128.6580   64.0350 N   0  0  0  0  0  0  0  0  0  0  0  0
  126.6700  129.7360   66.0780 N   0  0  0  0  0  0  0  0  0  0  0  0
  122.3142  130.9204   61.7756 H   0  0  0  0  0  0  0  0  0  0  0  0
  123.4792  132.0294   60.9759 H   0  0  0  0  0  0  0  0  0  0  0  0
  123.7801  130.2585   60.9759 H   0  0  0  0  0  0  0  0  0  0  0  0
  124.1845  133.3518   63.2969 H   0  0  0  0  0  0  0  0  0  0  0  0
  125.6845  132.4478   63.7603 H   0  0  0  0  0  0  0  0  0  0  0  0
  126.5385  132.4669   61.5914 H   0  0  0  0  0  0  0  0  0  0  0  0
  124.8945  132.6994   60.8521 H   0  0  0  0  0  0  0  0  0  0  0  0
  127.9352  134.3165   61.9851 H   0  0  0  0  0  0  0  0  0  0  0  0
  128.3530  136.7918   61.8358 H   0  0  0  0  0  0  0  0  0  0  0  0
  123.7136  134.9599   61.1653 H   0  0  0  0  0  0  0  0  0  0  0  0
  124.7078  139.6226   60.4102 H   0  0  0  0  0  0  0  0  0  0  0  0
  124.5517  139.3801   62.1702 H   0  0  0  0  0  0  0  0  0  0  0  0
  125.8900  128.4490   63.1600 H   0  0  0  0  0  0  0  0  0  0  0  0
  127.1720  128.1100   64.2340 H   0  0  0  0  0  0  0  0  0  0  0  0
  126.4730  130.3820   66.8280 H   0  0  0  0  0  0  0  0  0  0  0  0
  127.4830  129.1540   66.2110 H   0  0  0  0  0  0  0  0  0  0  0  0
  1  2  1  0
  2  3  1  0
  3  4  1  0
  4  5  1  0
  5  6  2  0
  6  7  1  0
  7  8  2  0
  8  9  1  0
  9 10  2  0
  9 11  1  0
 11 12  1  0
 12 13  1  0
  2 14  2  0
 14 15  1  0
 15 16  2  0
 16 17  1  0
 16 18  1  0
 10  5  1  0
 13  8  1  0
  1 19  1  0
  1 20  1  0
  1 21  1  0
  3 22  1  0
  3 23  1  0
  4 24  1  0
  4 25  1  0
  6 26  1  0
  7 27  1  0
 10 28  1  0
 12 29  1  0
 12 30  1  0
 17 31  1  0
 17 32  1  0
 18 33  1  0
 18 34  1  0
M  END
>  <Binding energies>  (1) 
[-6.91]

>  <Ligand effiencies>  (1) 
[-0.3140909090909091]

>  <Interactions>  (1) 
["V-A:TYR:539:CE1:4873, V-B:GLU:543:CD:9880, V-A:TYR:539:CD1:4871, V-B:ILE:369:CD1:8210, V-A:ALA:541:CB:4890, V-B:ILE:369:CG2:8208, V-B:ARG:545:CZ:9898, V-B:PRO:482:CB:9297, V-B:SER:385:CA:8378, V-B:PRO:482:CG:9298, V-B:LEU:475:CD2:9230, V-B:SER:385:CB:8380, V-B:LEU:373:CD1:8251, V-B:GLY:454:CA:9020, H-B:TYR:484:OH:9319, H-B:ASP:366:OD1:8185, H-B:GLY:454:N:9021, H-A:GLU:543:OE2:4908, H-A:GLU:543:OE1:4907, V-B:HIS:456:CE1:9040, H-B:ARG:545:NH2:9900, V-B:TYR:484:CZ:9318, H-B:GLU:543:OE2:9882, H-B:SER:385:N:8379"]

$$$$
RR2_Rahimova_2017
     RDKit          3D

 76 80  0  0  0  0  0  0  0  0999 V2000
  124.1220  132.3760   61.0010 C   0  0  0  0  0  0  0  0  0  0  0  0
  123.8410  131.8810   59.6970 O   0  0  0  0  0  0  0  0  0  0  0  0
  124.6100  130.8520   59.1860 C   0  0  0  0  0  0  0  0  0  0  0  0
  125.7720  130.3560   59.7930 C   0  0  0  0  0  0  0  0  0  0  0  0
  126.4860  129.3180   59.2010 C   0  0  0  0  0  0  0  0  0  0  0  0
  126.0600  128.7550   57.9910 C   0  0  0  0  0  0  0  0  0  0  0  0
  126.8590  127.6290   57.3630 C   0  0  0  0  0  0  0  0  0  0  0  0
  127.8740  127.8790   56.7030 O   0  0  0  0  0  0  0  0  0  0  0  0
  126.3800  126.3800   57.5660 N   0  0  0  0  0  0  0  0  0  0  0  0
  127.0220  125.3200   56.9350 N   0  0  0  0  0  0  0  0  0  0  0  0
  126.3430  124.1660   56.7760 C   0  0  0  0  0  0  0  0  0  0  0  0
  125.2560  123.9100   57.3020 O   0  0  0  0  0  0  0  0  0  0  0  0
  126.9980  123.1360   55.8470 C   0  0  0  0  0  0  0  0  0  0  0  0
  128.6510  122.5560   56.3760 S   0  0  0  0  0  0  0  0  0  0  0  0
  129.4020  124.0880   56.8370 C   0  0  0  0  0  0  0  0  0  0  0  0
  130.2340  124.7370   56.0620 N   0  0  0  0  0  0  0  0  0  0  0  0
  130.6790  125.8470   56.7640 N   0  0  0  0  0  0  0  0  0  0  0  0
  130.0750  125.8450   57.9290 C   0  0  0  0  0  0  0  0  0  0  0  0
  130.2850  126.9010   58.9650 C   0  0  0  0  0  0  0  0  0  0  0  0
  129.6760  128.1500   58.8180 C   0  0  0  0  0  0  0  0  0  0  0  0
  129.8720  129.1420   59.7740 C   0  0  0  0  0  0  0  0  0  0  0  0
  130.6670  128.8880   60.8980 C   0  0  0  0  0  0  0  0  0  0  0  0
  130.9080  129.8530   61.8870 N   0  0  0  0  0  0  0  0  0  0  0  0
  131.1890  131.5800   61.5700 S   0  0  0  0  0  0  0  0  0  0  0  0
  132.5790  131.8410   61.9610 O   0  0  0  0  0  0  0  0  0  0  0  0
  130.0830  132.3380   62.1680 O   0  0  0  0  0  0  0  0  0  0  0  0
  131.1130  131.7470   59.7890 C   0  0  0  0  0  0  0  0  0  0  0  0
  132.2260  131.4510   58.9980 C   0  0  0  0  0  0  0  0  0  0  0  0
  132.1520  131.6030   57.6160 C   0  0  0  0  0  0  0  0  0  0  0  0
  130.9660  132.0450   57.0250 C   0  0  0  0  0  0  0  0  0  0  0  0
  130.8920  132.2240   55.5200 C   0  0  0  0  0  0  0  0  0  0  0  0
  129.8560  132.3440   57.8190 C   0  0  0  0  0  0  0  0  0  0  0  0
  129.9290  132.1930   59.2000 C   0  0  0  0  0  0  0  0  0  0  0  0
  131.2720  127.6400   61.0450 C   0  0  0  0  0  0  0  0  0  0  0  0
  131.0820  126.6490   60.0860 C   0  0  0  0  0  0  0  0  0  0  0  0
  129.2450  124.7430   58.0440 N   0  0  0  0  0  0  0  0  0  0  0  0
  128.4580  124.3500   59.1470 C   0  0  0  0  0  0  0  0  0  0  0  0
  128.4020  123.0060   59.5190 C   0  0  0  0  0  0  0  0  0  0  0  0
  127.6270  122.6260   60.6110 C   0  0  0  0  0  0  0  0  0  0  0  0
  126.9050  123.5750   61.3360 C   0  0  0  0  0  0  0  0  0  0  0  0
  126.1640  123.1020   62.4020 O   0  0  0  0  0  0  0  0  0  0  0  0
  124.8310  123.5680   62.5840 C   0  0  0  0  0  0  0  0  0  0  0  0
  126.9670  124.9250   60.9530 C   0  0  0  0  0  0  0  0  0  0  0  0
  127.7420  125.3110   59.8640 C   0  0  0  0  0  0  0  0  0  0  0  0
  124.8920  129.2530   57.3920 C   0  0  0  0  0  0  0  0  0  0  0  0
  124.1790  130.2900   57.9860 C   0  0  0  0  0  0  0  0  0  0  0  0
  123.7252  131.6770   61.7519 H   0  0  0  0  0  0  0  0  0  0  0  0
  125.2101  132.4735   61.1296 H   0  0  0  0  0  0  0  0  0  0  0  0
  123.6480  133.3603   61.1296 H   0  0  0  0  0  0  0  0  0  0  0  0
  126.1214  130.7891   60.7418 H   0  0  0  0  0  0  0  0  0  0  0  0
  127.3948  128.9356   59.6887 H   0  0  0  0  0  0  0  0  0  0  0  0
  125.3910  126.2060   57.6760 H   0  0  0  0  0  0  0  0  0  0  0  0
  127.7720  125.6140   56.3250 H   0  0  0  0  0  0  0  0  0  0  0  0
  126.3335  122.2616   55.7850 H   0  0  0  0  0  0  0  0  0  0  0  0
  127.1451  123.6430   54.8819 H   0  0  0  0  0  0  0  0  0  0  0  0
  129.0394  128.3498   57.9435 H   0  0  0  0  0  0  0  0  0  0  0  0
  129.4012  130.1279   59.6463 H   0  0  0  0  0  0  0  0  0  0  0  0
  130.8960  129.5500   62.8500 H   0  0  0  0  0  0  0  0  0  0  0  0
  133.1575  131.0991   59.4655 H   0  0  0  0  0  0  0  0  0  0  0  0
  133.0272  131.3751   56.9898 H   0  0  0  0  0  0  0  0  0  0  0  0
  130.4811  133.2178   55.2887 H   0  0  0  0  0  0  0  0  0  0  0  0
  131.9006  132.1351   55.0901 H   0  0  0  0  0  0  0  0  0  0  0  0
  130.2406  131.4488   55.0901 H   0  0  0  0  0  0  0  0  0  0  0  0
  128.9250  132.6985   57.3525 H   0  0  0  0  0  0  0  0  0  0  0  0
  129.0551  132.4247   59.8266 H   0  0  0  0  0  0  0  0  0  0  0  0
  131.9026  127.4377   61.9233 H   0  0  0  0  0  0  0  0  0  0  0  0
  131.5597  125.6659   60.2103 H   0  0  0  0  0  0  0  0  0  0  0  0
  128.9671  122.2513   58.9524 H   0  0  0  0  0  0  0  0  0  0  0  0
  127.5832  121.5670   60.9055 H   0  0  0  0  0  0  0  0  0  0  0  0
  124.6129  123.6443   63.6595 H   0  0  0  0  0  0  0  0  0  0  0  0
  124.7215  124.5577   62.1166 H   0  0  0  0  0  0  0  0  0  0  0  0
  124.1287  122.8621   62.1166 H   0  0  0  0  0  0  0  0  0  0  0  0
  126.4001  125.6806   61.5167 H   0  0  0  0  0  0  0  0  0  0  0  0
  127.7906  126.3695   59.5687 H   0  0  0  0  0  0  0  0  0  0  0  0
  124.5374  128.8198   56.4451 H   0  0  0  0  0  0  0  0  0  0  0  0
  123.2663  130.6697   57.5035 H   0  0  0  0  0  0  0  0  0  0  0  0
  1  2  1  0
  2  3  1  0
  3  4  2  0
  4  5  1  0
  5  6  2  0
  6  7  1  0
  7  8  2  0
  7  9  1  0
  9 10  1  0
 10 11  1  0
 11 12  2  0
 11 13  1  0
 13 14  1  0
 14 15  1  0
 15 16  2  0
 16 17  1  0
 17 18  2  0
 18 19  1  0
 19 20  2  0
 20 21  1  0
 21 22  2  0
 22 23  1  0
 23 24  1  0
 24 25  2  0
 24 26  2  0
 24 27  1  0
 27 28  2  0
 28 29  1  0
 29 30  2  0
 30 31  1  0
 30 32  1  0
 32 33  2  0
 22 34  1  0
 34 35  2  0
 18 36  1  0
 36 37  1  0
 37 38  2  0
 38 39  1  0
 39 40  2  0
 40 41  1  0
 41 42  1  0
 40 43  1  0
 43 44  2  0
  6 45  1  0
 45 46  2  0
 46  3  1  0
 36 15  1  0
 44 37  1  0
 35 19  1  0
 33 27  1  0
  1 47  1  0
  1 48  1  0
  1 49  1  0
  4 50  1  0
  5 51  1  0
  9 52  1  0
 10 53  1  0
 13 54  1  0
 13 55  1  0
 20 56  1  0
 21 57  1  0
 23 58  1  0
 28 59  1  0
 29 60  1  0
 31 61  1  0
 31 62  1  0
 31 63  1  0
 32 64  1  0
 33 65  1  0
 34 66  1  0
 35 67  1  0
 38 68  1  0
 39 69  1  0
 42 70  1  0
 42 71  1  0
 42 72  1  0
 43 73  1  0
 44 74  1  0
 45 75  1  0
 46 76  1  0
M  END
>  <Binding energies>  (1) 
[-11.03]

>  <Ligand effiencies>  (1) 
[-0.2251020408163265]

>  <Interactions>  (1) 
["V-A:MET:535:CE:4833, V-B:ASP:366:CG:8184, V-A:ASP:366:CG:3210, H-A:ALA:541:N:4889, H-A:TYR:539:OH:4876, V-A:PRO:540:CB:4883, V-A:PRO:540:CA:4881, H-A:TYR:531:OH:4793, V-A:ILE:538:CA:4858, V-A:TYR:539:CZ:4875, V-B:ASP:366:CB:8183, V-A:TYR:539:CE1:4873, H-B:TYR:531:OH:9767, V-B:PRO:540:CA:9855, V-B:ALA:541:C:9860, V-B:MET:535:CE:9807, V-B:ASN:362:CB:8147, V-B:ILE:538:CG2:9835, V-B:ILE:538:CB:9834, V-B:ILE:538:CA:9832, V-B:PRO:540:N:9856, V-B:TYR:539:C:9839, V-B:TYR:539:CE1:9847, V-B:PRO:540:C:9853, V-B:ILE:369:CD1:8210, V-A:PRO:540:N:4882, V-A:TYR:539:C:4865, V-B:ILE:369:CG2:8208, H-B:TYR:539:N:9842, V-B:TYR:539:CZ:9849, V-B:ARG:545:CZ:9898, H-B:TYR:539:OH:9850, V-A:ILE:538:CB:4860, V-A:ILE:538:CG2:4861, V-B:TYR:531:CZ:9766, H-B:ASP:366:OD2:8186, V-B:ILE:369:CB:8207, H-A:ARG:545:NH2:4926, H-B:ALA:541:N:9863, V-A:GLU:543:CD:4906, H-A:GLU:543:OE2:4908, H-A:GLU:543:OE1:4907, V-B:TYR:531:CE1:9764, V-B:ASP:366:CA:8181, V-B:ASP:366:C:8179, V-B:ASN:362:CG:8148"]

$$$$
RR30_Rahimova_2017
     RDKit          3D

 29 30  0  0  0  0  0  0  0  0999 V2000
  125.9870  138.8540   60.0070 C   0  0  0  0  0  0  0  0  0  0  0  0
  125.3650  137.8960   61.0340 C   0  0  0  0  0  0  0  0  0  0  0  0
  126.2630  136.7170   61.3350 C   0  0  0  0  0  0  0  0  0  0  0  0
  127.5070  136.7290   61.7440 N   0  0  0  0  0  0  0  0  0  0  0  0
  127.8840  135.3940   61.8640 N   0  0  0  0  0  0  0  0  0  0  0  0
  126.8390  134.6900   61.5090 C   0  0  0  0  0  0  0  0  0  0  0  0
  126.6900  132.9330   61.4650 S   0  0  0  0  0  0  0  0  0  0  0  0
  128.3180  132.4650   62.1310 C   0  0  0  0  0  0  0  0  0  0  0  0
  129.3990  132.4290   61.0470 C   0  0  0  0  0  0  0  0  0  0  0  0
  130.5750  132.2650   61.3750 O   0  0  0  0  0  0  0  0  0  0  0  0
  128.9690  132.6190   59.7790 N   0  0  0  0  0  0  0  0  0  0  0  0
  129.7560  132.6320   58.6370 C   0  0  0  0  0  0  0  0  0  0  0  0
  129.5130  133.2240   57.4890 N   0  0  0  0  0  0  0  0  0  0  0  0
  130.5300  133.0200   56.5640 N   0  0  0  0  0  0  0  0  0  0  0  0
  131.5150  132.2850   57.0270 C   0  0  0  0  0  0  0  0  0  0  0  0
  132.7330  131.9220   56.2090 C   0  0  0  0  0  0  0  0  0  0  0  0
  131.2650  131.7750   58.6750 S   0  0  0  0  0  0  0  0  0  0  0  0
  125.7750  135.4620   61.1660 O   0  0  0  0  0  0  0  0  0  0  0  0
  126.5131  139.6643   60.5330 H   0  0  0  0  0  0  0  0  0  0  0  0
  126.7000  138.3028   59.3762 H   0  0  0  0  0  0  0  0  0  0  0  0
  125.1934  139.2810   59.3762 H   0  0  0  0  0  0  0  0  0  0  0  0
  125.1813  138.4484   61.9674 H   0  0  0  0  0  0  0  0  0  0  0  0
  124.4289  137.5063   60.6075 H   0  0  0  0  0  0  0  0  0  0  0  0
  128.6103  133.1969   62.8984 H   0  0  0  0  0  0  0  0  0  0  0  0
  128.2311  131.4534   62.5543 H   0  0  0  0  0  0  0  0  0  0  0  0
  127.9820  132.7740   59.6370 H   0  0  0  0  0  0  0  0  0  0  0  0
  133.5664  131.6736   56.8826 H   0  0  0  0  0  0  0  0  0  0  0  0
  132.5030  131.0534   55.5745 H   0  0  0  0  0  0  0  0  0  0  0  0
  133.0161  132.7748   55.5745 H   0  0  0  0  0  0  0  0  0  0  0  0
  1  2  1  0
  2  3  1  0
  3  4  2  0
  4  5  1  0
  5  6  2  0
  6  7  1  0
  7  8  1  0
  8  9  1  0
  9 10  2  0
  9 11  1  0
 11 12  1  0
 12 13  2  0
 13 14  1  0
 14 15  2  0
 15 16  1  0
 15 17  1  0
  6 18  1  0
 18  3  1  0
 17 12  1  0
  1 19  1  0
  1 20  1  0
  1 21  1  0
  2 22  1  0
  2 23  1  0
  8 24  1  0
  8 25  1  0
 11 26  1  0
 16 27  1  0
 16 28  1  0
 16 29  1  0
M  END
>  <Binding energies>  (1) 
[-7.36]

>  <Ligand effiencies>  (1) 
[-0.3873684210526316]

>  <Interactions>  (1) 
["V-A:TYR:531:CZ:4792, V-A:TYR:531:CE2:4791, H-A:ALA:541:N:4889, V-A:PRO:540:CB:4883, V-A:PRO:540:CA:4881, V-A:LEU:363:CD1:3186, H-A:TYR:539:N:4868, V-A:TYR:539:CE1:4873, V-A:TYR:539:CD1:4871, V-A:ALA:541:CB:4890, V-A:PRO:540:N:4882, V-A:TYR:539:C:4865, V-A:ILE:538:CB:4860, V-A:PRO:540:CD:4885, V-B:LEU:475:CD2:9230, V-A:ILE:538:CG2:4861, V-B:SER:385:CB:8380, V-B:LEU:373:CD1:8251, H-A:TYR:539:O:4866, V-A:TYR:539:CB:4869"]

$$$$
RR31_Rahimova_2017
     RDKit          3D

 44 45  0  0  0  0  0  0  0  0999 V2000
  131.4340  114.9310   59.0930 C   0  0  0  0  0  0  0  0  0  0  0  0
  131.5600  116.3220   59.7000 C   0  0  0  0  0  0  0  0  0  0  0  0
  130.4090  117.0860   59.8970 C   0  0  0  0  0  0  0  0  0  0  0  0
  130.4900  118.3610   60.4530 C   0  0  0  0  0  0  0  0  0  0  0  0
  131.7250  118.9080   60.8360 C   0  0  0  0  0  0  0  0  0  0  0  0
  131.8240  120.1890   61.3850 N   0  0  0  0  0  0  0  0  0  0  0  0
  132.9740  121.0710   61.1080 C   0  0  0  0  0  0  0  0  0  0  0  0
  133.1180  122.2490   62.1000 C   0  0  0  0  0  0  0  0  0  0  0  0
  131.8890  123.0460   62.1490 N   0  0  0  0  0  0  0  0  0  0  0  0
  132.0070  124.1920   63.0560 C   0  0  0  0  0  0  0  0  0  0  0  0
  131.0190  124.1300   64.2380 C   0  0  0  0  0  0  0  0  0  0  0  0
  130.9080  125.4740   64.9760 C   0  0  0  0  0  0  0  0  0  0  0  0
  129.7900  126.3210   64.3560 N   0  0  0  0  0  0  0  0  0  0  0  0
  130.8150  122.1650   62.6070 C   0  0  0  0  0  0  0  0  0  0  0  0
  130.6080  120.9940   61.6200 C   0  0  0  0  0  0  0  0  0  0  0  0
  132.8750  118.1340   60.6240 C   0  0  0  0  0  0  0  0  0  0  0  0
  132.8070  116.8520   60.0660 C   0  0  0  0  0  0  0  0  0  0  0  0
  134.0940  116.0630   59.8580 C   0  0  0  0  0  0  0  0  0  0  0  0
  131.3664  114.1844   59.8980 H   0  0  0  0  0  0  0  0  0  0  0  0
  130.5278  114.8830   58.4713 H   0  0  0  0  0  0  0  0  0  0  0  0
  132.3168  114.7209   58.4713 H   0  0  0  0  0  0  0  0  0  0  0  0
  129.4285  116.6778   59.6106 H   0  0  0  0  0  0  0  0  0  0  0  0
  129.5710  118.9488   60.5942 H   0  0  0  0  0  0  0  0  0  0  0  0
  133.8920  120.4667   61.1534 H   0  0  0  0  0  0  0  0  0  0  0  0
  132.8047  121.5113   60.1143 H   0  0  0  0  0  0  0  0  0  0  0  0
  133.3290  121.8508   63.1035 H   0  0  0  0  0  0  0  0  0  0  0  0
  133.9417  122.8945   61.7612 H   0  0  0  0  0  0  0  0  0  0  0  0
  133.0312  124.2179   63.4564 H   0  0  0  0  0  0  0  0  0  0  0  0
  131.7694  125.0960   62.4761 H   0  0  0  0  0  0  0  0  0  0  0  0
  130.0256  123.8537   63.8547 H   0  0  0  0  0  0  0  0  0  0  0  0
  131.3955  123.3834   64.9528 H   0  0  0  0  0  0  0  0  0  0  0  0
  130.6804  125.2898   66.0363 H   0  0  0  0  0  0  0  0  0  0  0  0
  131.8620  126.0145   64.8881 H   0  0  0  0  0  0  0  0  0  0  0  0
  129.1500  126.6300   65.0740 H   0  0  0  0  0  0  0  0  0  0  0  0
  129.2780  125.7770   63.6760 H   0  0  0  0  0  0  0  0  0  0  0  0
  130.1800  127.1320   63.8970 H   0  0  0  0  0  0  0  0  0  0  0  0
  131.0768  121.7611   63.5961 H   0  0  0  0  0  0  0  0  0  0  0  0
  129.8828  122.7461   62.6655 H   0  0  0  0  0  0  0  0  0  0  0  0
  129.8277  120.3330   62.0252 H   0  0  0  0  0  0  0  0  0  0  0  0
  130.3255  121.4365   60.6534 H   0  0  0  0  0  0  0  0  0  0  0  0
  133.8563  118.5451   60.9035 H   0  0  0  0  0  0  0  0  0  0  0  0
  134.5244  115.7992   60.8353 H   0  0  0  0  0  0  0  0  0  0  0  0
  133.8739  115.1444   59.2943 H   0  0  0  0  0  0  0  0  0  0  0  0
  134.8128  116.6759   59.2943 H   0  0  0  0  0  0  0  0  0  0  0  0
  1  2  1  0
  2  3  2  0
  3  4  1  0
  4  5  2  0
  5  6  1  0
  6  7  1  0
  7  8  1  0
  8  9  1  0
  9 10  1  0
 10 11  1  0
 11 12  1  0
 12 13  1  0
  9 14  1  0
 14 15  1  0
  5 16  1  0
 16 17  2  0
 17 18  1  0
 17  2  1  0
 15  6  1  0
  1 19  1  0
  1 20  1  0
  1 21  1  0
  3 22  1  0
  4 23  1  0
  7 24  1  0
  7 25  1  0
  8 26  1  0
  8 27  1  0
 10 28  1  0
 10 29  1  0
 11 30  1  0
 11 31  1  0
 12 32  1  0
 12 33  1  0
 13 34  1  0
 13 35  1  0
 13 36  1  0
 14 37  1  0
 14 38  1  0
 15 39  1  0
 15 40  1  0
 16 41  1  0
 18 42  1  0
 18 43  1  0
 18 44  1  0
M  CHG  1  13   1
M  END
>  <Binding energies>  (1) 
[-8.07]

>  <Ligand effiencies>  (1) 
[-0.3842857142857143]

>  <Interactions>  (1) 
["V-B:ALA:541:CB:9864, V-A:LEU:475:CD2:4256, V-B:GLU:543:CD:9880, V-B:TYR:539:C:9839, V-B:TYR:539:CE1:9847, V-B:TYR:539:CD1:9845, V-B:TYR:539:CG:9844, V-A:ILE:369:CG2:3234, V-A:GLY:454:CA:4046, V-A:GLU:543:CD:4906, H-A:GLU:543:OE2:4908, H-A:GLU:543:OE1:4907, V-A:PRO:482:CG:4324, V-A:SER:385:CB:3406, V-A:PRO:482:CB:4323, V-A:SER:385:CA:3404, V-B:TYR:539:CB:9843, V-A:HIS:383:CG:3387, V-A:LEU:373:CD2:3278, V-A:HIS:383:CB:3386, V-A:LEU:373:CD1:3277, H-B:GLU:543:OE1:9881, H-B:GLU:543:OE2:9882, V-A:VAL:384:C:3394, V-B:VAL:344:CG1:7972, V-A:HIS:383:CD2:3389, V-A:HIS:383:CE1:3391, V-A:VAL:384:CA:3396, V-A:HIS:383:C:3382"]

$$$$
RR32_Rahimova_2017
     RDKit          3D

 37 39  0  0  0  0  0  0  0  0999 V2000
  132.3800  131.1280   61.3280 C   0  0  0  0  0  0  0  0  0  0  0  0
  131.3610  131.6420   60.3160 C   0  0  0  0  0  0  0  0  0  0  0  0
  130.0830  131.9670   60.7730 C   0  0  0  0  0  0  0  0  0  0  0  0
  129.1290  132.4430   59.8790 C   0  0  0  0  0  0  0  0  0  0  0  0
  127.8630  132.7650   60.3360 N   0  0  0  0  0  0  0  0  0  0  0  0
  126.9480  131.6480   60.6340 C   0  0  0  0  0  0  0  0  0  0  0  0
  125.5080  132.1080   60.9620 C   0  0  0  0  0  0  0  0  0  0  0  0
  125.5170  133.0210   62.1050 N   0  0  0  0  0  0  0  0  0  0  0  0
  124.1560  133.4300   62.4340 C   0  0  0  0  0  0  0  0  0  0  0  0
  126.3240  134.1850   61.7460 C   0  0  0  0  0  0  0  0  0  0  0  0
  127.7750  133.7560   61.4260 C   0  0  0  0  0  0  0  0  0  0  0  0
  129.3830  132.6070   58.5550 N   0  0  0  0  0  0  0  0  0  0  0  0
  130.6190  132.2960   58.0780 C   0  0  0  0  0  0  0  0  0  0  0  0
  130.8560  132.4750   56.6930 C   0  0  0  0  0  0  0  0  0  0  0  0
  132.0990  132.1720   56.1510 C   0  0  0  0  0  0  0  0  0  0  0  0
  133.1230  131.6930   56.9590 C   0  0  0  0  0  0  0  0  0  0  0  0
  132.9240  131.5060   58.3230 C   0  0  0  0  0  0  0  0  0  0  0  0
  131.6650  131.8020   58.9240 C   0  0  0  0  0  0  0  0  0  0  0  0
  132.0106  131.3143   62.3472 H   0  0  0  0  0  0  0  0  0  0  0  0
  132.5276  130.0476   61.1833 H   0  0  0  0  0  0  0  0  0  0  0  0
  133.3366  131.6514   61.1833 H   0  0  0  0  0  0  0  0  0  0  0  0
  129.8306  131.8472   61.8369 H   0  0  0  0  0  0  0  0  0  0  0  0
  126.9114  130.9834   59.7582 H   0  0  0  0  0  0  0  0  0  0  0  0
  127.3380  131.1364   61.5263 H   0  0  0  0  0  0  0  0  0  0  0  0
  125.0835  132.6240   60.0882 H   0  0  0  0  0  0  0  0  0  0  0  0
  124.8980  131.2272   61.2111 H   0  0  0  0  0  0  0  0  0  0  0  0
  124.0379  133.4655   63.5271 H   0  0  0  0  0  0  0  0  0  0  0  0
  123.9604  134.4266   62.0115 H   0  0  0  0  0  0  0  0  0  0  0  0
  123.4434  132.7063   62.0115 H   0  0  0  0  0  0  0  0  0  0  0  0
  125.8862  134.6710   60.8616 H   0  0  0  0  0  0  0  0  0  0  0  0
  126.3374  134.8856   62.5939 H   0  0  0  0  0  0  0  0  0  0  0  0
  128.3467  134.6490   61.1332 H   0  0  0  0  0  0  0  0  0  0  0  0
  128.1822  133.2821   62.3313 H   0  0  0  0  0  0  0  0  0  0  0  0
  130.0532  132.8552   56.0442 H   0  0  0  0  0  0  0  0  0  0  0  0
  132.2738  132.3124   55.0741 H   0  0  0  0  0  0  0  0  0  0  0  0
  134.1019  131.4591   56.5151 H   0  0  0  0  0  0  0  0  0  0  0  0
  133.7473  131.1254   58.9453 H   0  0  0  0  0  0  0  0  0  0  0  0
  1  2  1  0
  2  3  2  0
  3  4  1  0
  4  5  1  0
  5  6  1  0
  6  7  1  0
  7  8  1  0
  8  9  1  0
  8 10  1  0
 10 11  1  0
  4 12  2  0
 12 13  1  0
 13 14  2  0
 14 15  1  0
 15 16  2  0
 16 17  1  0
 17 18  2  0
 18  2  1  0
 11  5  1  0
 18 13  1  0
  1 19  1  0
  1 20  1  0
  1 21  1  0
  3 22  1  0
  6 23  1  0
  6 24  1  0
  7 25  1  0
  7 26  1  0
  9 27  1  0
  9 28  1  0
  9 29  1  0
 10 30  1  0
 10 31  1  0
 11 32  1  0
 11 33  1  0
 14 34  1  0
 15 35  1  0
 16 36  1  0
 17 37  1  0
M  END
>  <Binding energies>  (1) 
[-6.67]

>  <Ligand effiencies>  (1) 
[-0.3705555555555555]

>  <Interactions>  (1) 
["V-A:TYR:531:CZ:4792, V-A:TYR:531:CE2:4791, V-A:PRO:540:CB:4883, V-A:PRO:540:CA:4881, V-A:LEU:363:CD1:3186, V-A:TYR:539:CE1:4873, V-A:TYR:539:CD1:4871, V-B:ILE:369:CD1:8210, V-A:ALA:541:CB:4890, V-A:PRO:540:N:4882, V-A:TYR:539:C:4865, V-B:ILE:369:CG2:8208, V-A:ILE:538:CB:4860, V-B:LEU:475:CD2:9230, V-A:ILE:538:CG2:4861, V-B:GLY:454:CA:9020"]

$$$$
RR32_Rahimova_2017-again1
     RDKit          3D

 38 40  0  0  0  0  0  0  0  0999 V2000
  123.7730  123.9440   57.5390 C   0  0  0  0  0  0  0  0  0  0  0  0
  125.1870  123.7020   58.0470 C   0  0  0  0  0  0  0  0  0  0  0  0
  125.4750  123.8190   59.4070 C   0  0  0  0  0  0  0  0  0  0  0  0
  126.7750  123.5920   59.8720 C   0  0  0  0  0  0  0  0  0  0  0  0
  127.0890  123.7140   61.2300 N   0  0  0  0  0  0  0  0  0  0  0  0
  128.4730  123.4960   61.6980 C   0  0  0  0  0  0  0  0  0  0  0  0
  129.3380  124.7760   61.6090 C   0  0  0  0  0  0  0  0  0  0  0  0
  128.7070  125.8590   62.5070 N   0  0  0  0  0  0  0  0  0  0  0  0
  129.5220  127.1650   62.4430 C   0  0  0  0  0  0  0  0  0  0  0  0
  127.2550  126.0980   62.0450 C   0  0  0  0  0  0  0  0  0  0  0  0
  126.4930  124.7530   62.0960 C   0  0  0  0  0  0  0  0  0  0  0  0
  127.7890  123.2810   59.0180 N   0  0  0  0  0  0  0  0  0  0  0  0
  127.5370  123.1570   57.6870 C   0  0  0  0  0  0  0  0  0  0  0  0
  128.6120  122.8170   56.8300 C   0  0  0  0  0  0  0  0  0  0  0  0
  128.3990  122.6770   55.4620 C   0  0  0  0  0  0  0  0  0  0  0  0
  127.1320  122.8690   54.9200 C   0  0  0  0  0  0  0  0  0  0  0  0
  126.0560  123.2060   55.7370 C   0  0  0  0  0  0  0  0  0  0  0  0
  126.2330  123.3570   57.1400 C   0  0  0  0  0  0  0  0  0  0  0  0
  123.0911  124.0607   58.3942 H   0  0  0  0  0  0  0  0  0  0  0  0
  123.7544  124.8584   56.9278 H   0  0  0  0  0  0  0  0  0  0  0  0
  123.4514  123.0878   56.9278 H   0  0  0  0  0  0  0  0  0  0  0  0
  124.6783  124.0903   60.1153 H   0  0  0  0  0  0  0  0  0  0  0  0
  128.4425  123.1632   62.7460 H   0  0  0  0  0  0  0  0  0  0  0  0
  128.9306  122.7378   61.0456 H   0  0  0  0  0  0  0  0  0  0  0  0
  130.3596  124.5577   61.9536 H   0  0  0  0  0  0  0  0  0  0  0  0
  129.3812  125.1290   60.5681 H   0  0  0  0  0  0  0  0  0  0  0  0
  128.6890  125.5170   63.4570 H   0  0  0  0  0  0  0  0  0  0  0  0
  129.7388  127.5123   63.4640 H   0  0  0  0  0  0  0  0  0  0  0  0
  130.4665  126.9820   61.9097 H   0  0  0  0  0  0  0  0  0  0  0  0
  128.9426  127.9330   61.9097 H   0  0  0  0  0  0  0  0  0  0  0  0
  126.7687  126.8249   62.7122 H   0  0  0  0  0  0  0  0  0  0  0  0
  127.2477  126.4953   61.0193 H   0  0  0  0  0  0  0  0  0  0  0  0
  126.4968  124.3879   63.1336 H   0  0  0  0  0  0  0  0  0  0  0  0
  125.4734  124.9403   61.7282 H   0  0  0  0  0  0  0  0  0  0  0  0
  129.6182  122.6631   57.2469 H   0  0  0  0  0  0  0  0  0  0  0  0
  129.2394  122.4123   54.8035 H   0  0  0  0  0  0  0  0  0  0  0  0
  126.9791  122.7536   53.8368 H   0  0  0  0  0  0  0  0  0  0  0  0
  125.0607  123.3567   55.2935 H   0  0  0  0  0  0  0  0  0  0  0  0
  1  2  1  0
  2  3  2  0
  3  4  1  0
  4  5  1  0
  5  6  1  0
  6  7  1  0
  7  8  1  0
  8  9  1  0
  8 10  1  0
 10 11  1  0
  4 12  2  0
 12 13  1  0
 13 14  2  0
 14 15  1  0
 15 16  2  0
 16 17  1  0
 17 18  2  0
 18  2  1  0
 11  5  1  0
 18 13  1  0
  1 19  1  0
  1 20  1  0
  1 21  1  0
  3 22  1  0
  6 23  1  0
  6 24  1  0
  7 25  1  0
  7 26  1  0
  8 27  1  0
  9 28  1  0
  9 29  1  0
  9 30  1  0
 10 31  1  0
 10 32  1  0
 11 33  1  0
 11 34  1  0
 14 35  1  0
 15 36  1  0
 16 37  1  0
 17 38  1  0
M  CHG  1   8   1
M  END
>  <Binding energies>  (1) 
[-7.33]

>  <Ligand effiencies>  (1) 
[-0.3857894736842105]

>  <Interactions>  (1) 
["V-B:ASP:366:CB:8183, V-B:PRO:540:CA:9855, V-B:ALA:541:CB:9864, V-B:LEU:363:CA:8156, V-B:PRO:540:CB:9857, V-B:LEU:363:CD1:8160, V-B:MET:535:CE:9807, V-B:ILE:538:CG2:9835, V-B:ILE:538:CB:9834, V-B:ILE:538:CA:9832, V-B:PRO:540:N:9856, V-B:GLU:543:CD:9880, V-B:TYR:539:C:9839, V-B:TYR:539:CE1:9847, V-B:TYR:539:CD1:9845, V-B:TYR:539:CG:9844, V-B:TYR:539:CZ:9849, V-B:TYR:531:CE2:9765, V-B:TYR:531:CZ:9766, V-B:TYR:539:CE2:9848, V-B:ILE:538:C:9830, V-B:TYR:539:CD2:9846, H-B:GLU:543:OE1:9881, H-B:GLU:543:OE2:9882, V-B:LEU:363:CB:8158"]

$$$$
RR32_Rahimova_2017-again2
     RDKit          3D

 39 41  0  0  0  0  0  0  0  0999 V2000
  123.7620  124.0740   57.4240 C   0  0  0  0  0  0  0  0  0  0  0  0
  125.1570  123.7860   57.9630 C   0  0  0  0  0  0  0  0  0  0  0  0
  125.4170  123.8940   59.3320 C   0  0  0  0  0  0  0  0  0  0  0  0
  126.6960  123.6390   59.8460 C   0  0  0  0  0  0  0  0  0  0  0  0
  127.0120  123.7220   61.2500 N   0  0  0  0  0  0  0  0  0  0  0  0
  128.3840  123.4260   61.7400 C   0  0  0  0  0  0  0  0  0  0  0  0
  129.2850  124.6870   61.6450 C   0  0  0  0  0  0  0  0  0  0  0  0
  128.6710  125.8250   62.4950 N   0  0  0  0  0  0  0  0  0  0  0  0
  129.5090  127.1130   62.3800 C   0  0  0  0  0  0  0  0  0  0  0  0
  127.2050  126.0780   62.0680 C   0  0  0  0  0  0  0  0  0  0  0  0
  126.4140  124.7460   62.1450 C   0  0  0  0  0  0  0  0  0  0  0  0
  127.6630  123.2770   58.9790 N   0  0  0  0  0  0  0  0  0  0  0  0
  127.5010  123.1440   57.6190 C   0  0  0  0  0  0  0  0  0  0  0  0
  128.5850  122.7590   56.7990 C   0  0  0  0  0  0  0  0  0  0  0  0
  128.3840  122.6300   55.4270 C   0  0  0  0  0  0  0  0  0  0  0  0
  127.1320  122.8760   54.8670 C   0  0  0  0  0  0  0  0  0  0  0  0
  126.0530  123.2570   55.6650 C   0  0  0  0  0  0  0  0  0  0  0  0
  126.2090  123.4020   57.0730 C   0  0  0  0  0  0  0  0  0  0  0  0
  123.0667  124.2175   58.2642 H   0  0  0  0  0  0  0  0  0  0  0  0
  123.7875  124.9858   56.8092 H   0  0  0  0  0  0  0  0  0  0  0  0
  123.4243  123.2266   56.8092 H   0  0  0  0  0  0  0  0  0  0  0  0
  124.6059  124.1834   60.0163 H   0  0  0  0  0  0  0  0  0  0  0  0
  128.3301  123.0990   62.7889 H   0  0  0  0  0  0  0  0  0  0  0  0
  128.8192  122.6326   61.1146 H   0  0  0  0  0  0  0  0  0  0  0  0
  130.2902  124.4487   62.0227 H   0  0  0  0  0  0  0  0  0  0  0  0
  129.3545  125.0097   60.5957 H   0  0  0  0  0  0  0  0  0  0  0  0
  128.6630  125.5210   63.4590 H   0  0  0  0  0  0  0  0  0  0  0  0
  129.7506  127.4844   63.3868 H   0  0  0  0  0  0  0  0  0  0  0  0
  130.4401  126.8972   61.8355 H   0  0  0  0  0  0  0  0  0  0  0  0
  128.9345  127.8769   61.8355 H   0  0  0  0  0  0  0  0  0  0  0  0
  126.7477  126.8169   62.7424 H   0  0  0  0  0  0  0  0  0  0  0  0
  127.1814  126.4627   61.0377 H   0  0  0  0  0  0  0  0  0  0  0  0
  126.4334  124.3749   63.1803 H   0  0  0  0  0  0  0  0  0  0  0  0
  125.3788  124.9328   61.8232 H   0  0  0  0  0  0  0  0  0  0  0  0
  128.5770  123.0840   59.3600 H   0  0  0  0  0  0  0  0  0  0  0  0
  129.5744  122.5638   57.2382 H   0  0  0  0  0  0  0  0  0  0  0  0
  129.2214  122.3311   54.7793 H   0  0  0  0  0  0  0  0  0  0  0  0
  126.9926  122.7683   53.7812 H   0  0  0  0  0  0  0  0  0  0  0  0
  125.0732  123.4471   55.2026 H   0  0  0  0  0  0  0  0  0  0  0  0
  1  2  1  0
  2  3  2  0
  3  4  1  0
  4  5  1  0
  5  6  1  0
  6  7  1  0
  7  8  1  0
  8  9  1  0
  8 10  1  0
 10 11  1  0
  4 12  2  0
 12 13  1  0
 13 14  2  0
 14 15  1  0
 15 16  2  0
 16 17  1  0
 17 18  2  0
 18  2  1  0
 11  5  1  0
 18 13  1  0
  1 19  1  0
  1 20  1  0
  1 21  1  0
  3 22  1  0
  6 23  1  0
  6 24  1  0
  7 25  1  0
  7 26  1  0
  8 27  1  0
  9 28  1  0
  9 29  1  0
  9 30  1  0
 10 31  1  0
 10 32  1  0
 11 33  1  0
 11 34  1  0
 12 35  1  0
 14 36  1  0
 15 37  1  0
 16 38  1  0
 17 39  1  0
M  CHG  2   8   1  12   1
M  END
>  <Binding energies>  (1) 
[-7.45]

>  <Ligand effiencies>  (1) 
[-0.3725]

>  <Interactions>  (1) 
["V-B:ASP:366:CB:8183, V-B:PRO:540:CA:9855, V-B:ALA:541:CB:9864, V-B:LEU:363:CA:8156, V-B:PRO:540:CB:9857, V-B:LEU:363:CD1:8160, V-B:MET:535:CE:9807, V-B:ILE:538:CG2:9835, V-B:ILE:538:CB:9834, V-B:ILE:538:CA:9832, V-B:PRO:540:N:9856, V-B:GLU:543:CD:9880, V-B:TYR:539:C:9839, V-B:TYR:539:CE1:9847, V-B:TYR:539:CD1:9845, V-B:TYR:539:CG:9844, V-B:TYR:539:CZ:9849, V-B:TYR:531:CE2:9765, V-B:ARG:545:CZ:9898, V-B:TYR:531:CZ:9766, V-B:TYR:539:CE2:9848, H-B:TYR:539:O:9840, V-B:ILE:538:C:9830, V-B:TYR:539:CD2:9846, H-B:GLU:543:OE1:9881, H-B:GLU:543:OE2:9882, V-B:LEU:363:CB:8158"]

$$$$
RR33_Rahimova_2017
     RDKit          3D

 36 37  0  0  0  0  0  0  0  0999 V2000
  133.0930  114.9660   61.7440 C   0  0  0  0  0  0  0  0  0  0  0  0
  132.8240  115.0460   60.2380 C   0  0  0  0  0  0  0  0  0  0  0  0
  133.2190  116.3330   59.7710 O   0  0  0  0  0  0  0  0  0  0  0  0
  132.5160  117.4490   60.1820 C   0  0  0  0  0  0  0  0  0  0  0  0
  133.2320  118.6420   60.2580 C   0  0  0  0  0  0  0  0  0  0  0  0
  132.6090  119.8180   60.6660 C   0  0  0  0  0  0  0  0  0  0  0  0
  131.2530  119.8170   61.0060 C   0  0  0  0  0  0  0  0  0  0  0  0
  130.5840  121.0800   61.4450 C   0  0  0  0  0  0  0  0  0  0  0  0
  129.5160  121.6450   60.9260 N   0  0  0  0  0  0  0  0  0  0  0  0
  129.3100  122.7340   61.6510 C   0  0  0  0  0  0  0  0  0  0  0  0
  128.1440  123.6530   61.3590 C   0  0  0  0  0  0  0  0  0  0  0  0
  126.9690  123.2490   62.1160 N   0  0  0  0  0  0  0  0  0  0  0  0
  125.8100  124.0320   61.7210 C   0  0  0  0  0  0  0  0  0  0  0  0
  130.2850  122.8290   62.6370 C   0  0  0  0  0  0  0  0  0  0  0  0
  130.5940  123.8010   63.7500 C   0  0  0  0  0  0  0  0  0  0  0  0
  131.1040  121.7620   62.4990 O   0  0  0  0  0  0  0  0  0  0  0  0
  130.5290  118.6230   60.9270 C   0  0  0  0  0  0  0  0  0  0  0  0
  131.1530  117.4460   60.5200 C   0  0  0  0  0  0  0  0  0  0  0  0
  132.1801  115.2375   62.2944 H   0  0  0  0  0  0  0  0  0  0  0  0
  133.3900  113.9407   62.0095 H   0  0  0  0  0  0  0  0  0  0  0  0
  133.9020  115.6624   62.0095 H   0  0  0  0  0  0  0  0  0  0  0  0
  133.4030  114.2694   59.7168 H   0  0  0  0  0  0  0  0  0  0  0  0
  131.7537  114.8876   60.0396 H   0  0  0  0  0  0  0  0  0  0  0  0
  134.2996  118.6546   59.9931 H   0  0  0  0  0  0  0  0  0  0  0  0
  133.1864  120.7526   60.7212 H   0  0  0  0  0  0  0  0  0  0  0  0
  128.4166  124.6818   61.6370 H   0  0  0  0  0  0  0  0  0  0  0  0
  127.9097  123.5972   60.2857 H   0  0  0  0  0  0  0  0  0  0  0  0
  127.1420  123.3940   63.1010 H   0  0  0  0  0  0  0  0  0  0  0  0
  125.2841  124.3873   62.6194 H   0  0  0  0  0  0  0  0  0  0  0  0
  126.1372  124.8949   61.1223 H   0  0  0  0  0  0  0  0  0  0  0  0
  125.1316  123.4064   61.1223 H   0  0  0  0  0  0  0  0  0  0  0  0
  130.4374  123.3084   64.7210 H   0  0  0  0  0  0  0  0  0  0  0  0
  131.6408  124.1293   63.6700 H   0  0  0  0  0  0  0  0  0  0  0  0
  129.9289  124.6735   63.6700 H   0  0  0  0  0  0  0  0  0  0  0  0
  129.4604  118.6133   61.1878 H   0  0  0  0  0  0  0  0  0  0  0  0
  130.5762  116.5111   60.4632 H   0  0  0  0  0  0  0  0  0  0  0  0
  1  2  1  0
  2  3  1  0
  3  4  1  0
  4  5  2  0
  5  6  1  0
  6  7  2  0
  7  8  1  0
  8  9  2  0
  9 10  1  0
 10 11  1  0
 11 12  1  0
 12 13  1  0
 10 14  2  0
 14 15  1  0
 14 16  1  0
  7 17  1  0
 17 18  2  0
 18  4  1  0
 16  8  1  0
  1 19  1  0
  1 20  1  0
  1 21  1  0
  2 22  1  0
  2 23  1  0
  5 24  1  0
  6 25  1  0
 11 26  1  0
 11 27  1  0
 12 28  1  0
 13 29  1  0
 13 30  1  0
 13 31  1  0
 15 32  1  0
 15 33  1  0
 15 34  1  0
 17 35  1  0
 18 36  1  0
M  END
>  <Binding energies>  (1) 
[-6.3]

>  <Ligand effiencies>  (1) 
[-0.33157894736842103]

>  <Interactions>  (1) 
["V-B:PRO:540:CA:9855, V-B:ALA:541:CB:9864, V-A:LEU:475:CD2:4256, V-B:GLU:543:CD:9880, V-B:TYR:539:CE1:9847, V-B:TYR:539:CD1:9845, V-A:ILE:369:CG2:3234, H-B:ALA:541:N:9863, V-A:PRO:482:CG:4324, V-A:SER:385:CB:3406, V-A:PRO:482:CB:4323, V-A:SER:385:CA:3404, V-B:TYR:539:CB:9843, V-A:HIS:383:CG:3387, V-A:HIS:383:CB:3386, V-A:LEU:373:CD1:3277, H-B:ALA:541:O:9861, H-B:GLU:543:OE1:9881, V-A:THR:477:CA:4267, V-A:CYS:476:C:4261, V-A:THR:477:CG2:4270, V-A:THR:477:CB:4269"]

$$$$
RR33_Rahimova_2017-again1
     RDKit          3D

 37 38  0  0  0  0  0  0  0  0999 V2000
  124.4980  123.5700   56.4780 C   0  0  0  0  0  0  0  0  0  0  0  0
  125.8380  123.4670   55.7440 C   0  0  0  0  0  0  0  0  0  0  0  0
  126.6470  122.4970   56.4010 O   0  0  0  0  0  0  0  0  0  0  0  0
  127.2350  122.8110   57.6110 C   0  0  0  0  0  0  0  0  0  0  0  0
  128.6270  122.9050   57.6220 C   0  0  0  0  0  0  0  0  0  0  0  0
  129.3080  123.2180   58.7950 C   0  0  0  0  0  0  0  0  0  0  0  0
  128.6020  123.4410   59.9820 C   0  0  0  0  0  0  0  0  0  0  0  0
  129.3300  123.7780   61.2430 C   0  0  0  0  0  0  0  0  0  0  0  0
  129.3910  124.9450   61.8470 N   0  0  0  0  0  0  0  0  0  0  0  0
  130.1440  124.7480   62.9190 C   0  0  0  0  0  0  0  0  0  0  0  0
  130.4590  125.8820   63.8760 C   0  0  0  0  0  0  0  0  0  0  0  0
  129.3810  126.9700   63.7380 N   0  0  0  0  0  0  0  0  0  0  0  0
  129.5940  127.8950   62.5310 C   0  0  0  0  0  0  0  0  0  0  0  0
  130.5580  123.4220   62.9570 C   0  0  0  0  0  0  0  0  0  0  0  0
  131.4100  122.5880   63.8820 C   0  0  0  0  0  0  0  0  0  0  0  0
  130.0280  122.8020   61.8770 O   0  0  0  0  0  0  0  0  0  0  0  0
  127.2060  123.3480   59.9750 C   0  0  0  0  0  0  0  0  0  0  0  0
  126.5260  123.0360   58.8010 C   0  0  0  0  0  0  0  0  0  0  0  0
  124.6728  123.5566   57.5639 H   0  0  0  0  0  0  0  0  0  0  0  0
  123.9982  124.5092   56.1987 H   0  0  0  0  0  0  0  0  0  0  0  0
  123.8605  122.7182   56.1987 H   0  0  0  0  0  0  0  0  0  0  0  0
  125.6661  123.1604   54.7017 H   0  0  0  0  0  0  0  0  0  0  0  0
  126.3445  124.4434   55.7514 H   0  0  0  0  0  0  0  0  0  0  0  0
  129.1919  122.7300   56.6945 H   0  0  0  0  0  0  0  0  0  0  0  0
  130.4056  123.2903   58.7886 H   0  0  0  0  0  0  0  0  0  0  0  0
  130.4684  125.5014   64.9080 H   0  0  0  0  0  0  0  0  0  0  0  0
  131.4459  126.3053   63.6375 H   0  0  0  0  0  0  0  0  0  0  0  0
  128.4780  126.5260   63.6570 H   0  0  0  0  0  0  0  0  0  0  0  0
  129.3790  127.5290   64.5800 H   0  0  0  0  0  0  0  0  0  0  0  0
  129.8278  128.9103   62.8839 H   0  0  0  0  0  0  0  0  0  0  0  0
  130.4286  127.5171   61.9222 H   0  0  0  0  0  0  0  0  0  0  0  0
  128.6782  127.9202   61.9222 H   0  0  0  0  0  0  0  0  0  0  0  0
  131.1627  122.8301   64.9262 H   0  0  0  0  0  0  0  0  0  0  0  0
  131.2159  121.5212   63.6971 H   0  0  0  0  0  0  0  0  0  0  0  0
  132.4724  122.8048   63.6971 H   0  0  0  0  0  0  0  0  0  0  0  0
  126.6421  123.5225   60.9032 H   0  0  0  0  0  0  0  0  0  0  0  0
  125.4283  122.9655   58.8061 H   0  0  0  0  0  0  0  0  0  0  0  0
  1  2  1  0
  2  3  1  0
  3  4  1  0
  4  5  2  0
  5  6  1  0
  6  7  2  0
  7  8  1  0
  8  9  2  0
  9 10  1  0
 10 11  1  0
 11 12  1  0
 12 13  1  0
 10 14  2  0
 14 15  1  0
 14 16  1  0
  7 17  1  0
 17 18  2  0
 18  4  1  0
 16  8  1  0
  1 19  1  0
  1 20  1  0
  1 21  1  0
  2 22  1  0
  2 23  1  0
  5 24  1  0
  6 25  1  0
 11 26  1  0
 11 27  1  0
 12 28  1  0
 12 29  1  0
 13 30  1  0
 13 31  1  0
 13 32  1  0
 15 33  1  0
 15 34  1  0
 15 35  1  0
 17 36  1  0
 18 37  1  0
M  CHG  1  12   1
M  END
>  <Binding energies>  (1) 
[-6.53]

>  <Ligand effiencies>  (1) 
[-0.3265]

>  <Interactions>  (1) 
["V-B:PRO:540:CA:9855, V-B:PRO:540:CB:9857, V-B:LEU:363:CD1:8160, V-B:MET:535:CE:9807, V-B:ILE:538:CG2:9835, V-B:ILE:538:CB:9834, V-B:PRO:540:N:9856, V-A:LEU:475:CD2:4256, V-B:GLU:543:CD:9880, V-B:TYR:539:C:9839, V-B:TYR:539:CE1:9847, V-B:TYR:539:CD1:9845, V-B:TYR:539:CG:9844, H-B:TYR:539:N:9842, V-B:TYR:539:CZ:9849, V-B:TYR:531:CE2:9765, V-B:TYR:531:CZ:9766, V-A:GLU:543:CD:4906, H-A:GLU:543:OE2:4908, H-A:GLU:543:OE1:4907, H-B:GLU:543:OE1:9881, H-B:GLU:543:OE2:9882"]

$$$$
RR3_Rahimova_2017
     RDKit          3D

 63 69  0  0  0  0  0  0  0  0999 V2000
  132.9610  115.0060   58.9300 C   0  0  0  0  0  0  0  0  0  0  0  0
  131.6590  115.4970   58.9040 C   0  0  0  0  0  0  0  0  0  0  0  0
  131.3720  116.7210   59.5010 C   0  0  0  0  0  0  0  0  0  0  0  0
  132.3780  117.4700   60.1290 C   0  0  0  0  0  0  0  0  0  0  0  0
  132.0670  118.7870   60.7690 C   0  0  0  0  0  0  0  0  0  0  0  0
  130.7580  119.1130   61.1470 C   0  0  0  0  0  0  0  0  0  0  0  0
  130.4690  120.3400   61.7390 C   0  0  0  0  0  0  0  0  0  0  0  0
  131.4850  121.2740   61.9590 C   0  0  0  0  0  0  0  0  0  0  0  0
  131.1800  122.5960   62.5900 C   0  0  0  0  0  0  0  0  0  0  0  0
  131.8700  123.0020   63.6500 N   0  0  0  0  0  0  0  0  0  0  0  0
  131.4230  124.1960   63.9540 C   0  0  0  0  0  0  0  0  0  0  0  0
  131.9050  125.0190   65.0610 C   0  0  0  0  0  0  0  0  0  0  0  0
  133.2260  125.1600   65.4500 C   0  0  0  0  0  0  0  0  0  0  0  0
  133.3160  126.0140   66.5180 N   0  0  0  0  0  0  0  0  0  0  0  0
  132.0610  126.4600   66.8690 C   0  0  0  0  0  0  0  0  0  0  0  0
  131.6510  127.3330   67.8820 C   0  0  0  0  0  0  0  0  0  0  0  0
  130.2850  127.5900   67.9830 C   0  0  0  0  0  0  0  0  0  0  0  0
  129.3630  127.0070   67.1200 C   0  0  0  0  0  0  0  0  0  0  0  0
  129.7700  126.1380   66.1090 C   0  0  0  0  0  0  0  0  0  0  0  0
  131.1380  125.8450   65.9640 C   0  0  0  0  0  0  0  0  0  0  0  0
  130.4290  124.5790   63.0970 N   0  0  0  0  0  0  0  0  0  0  0  0
  130.2250  123.5550   62.2090 C   0  0  0  0  0  0  0  0  0  0  0  0
  129.1670  123.5930   61.1550 C   0  0  0  0  0  0  0  0  0  0  0  0
  127.8430  123.3000   61.4820 C   0  0  0  0  0  0  0  0  0  0  0  0
  126.8570  123.3220   60.5020 C   0  0  0  0  0  0  0  0  0  0  0  0
  127.1690  123.6420   59.1720 C   0  0  0  0  0  0  0  0  0  0  0  0
  126.1090  123.6450   58.1160 C   0  0  0  0  0  0  0  0  0  0  0  0
  126.4090  123.2800   56.7950 C   0  0  0  0  0  0  0  0  0  0  0  0
  125.4210  123.2790   55.8120 C   0  0  0  0  0  0  0  0  0  0  0  0
  124.1200  123.6440   56.1430 C   0  0  0  0  0  0  0  0  0  0  0  0
  123.8000  124.0090   57.4470 C   0  0  0  0  0  0  0  0  0  0  0  0
  124.7900  124.0100   58.4250 C   0  0  0  0  0  0  0  0  0  0  0  0
  128.5000  123.9510   58.8600 C   0  0  0  0  0  0  0  0  0  0  0  0
  129.4900  123.9290   59.8390 C   0  0  0  0  0  0  0  0  0  0  0  0
  132.7950  120.9530   61.5980 C   0  0  0  0  0  0  0  0  0  0  0  0
  133.0800  119.7260   61.0050 C   0  0  0  0  0  0  0  0  0  0  0  0
  133.6830  116.9550   60.1430 C   0  0  0  0  0  0  0  0  0  0  0  0
  133.9750  115.7320   59.5480 C   0  0  0  0  0  0  0  0  0  0  0  0
  133.1900  114.0385   58.4594 H   0  0  0  0  0  0  0  0  0  0  0  0
  130.8606  114.9204   58.4140 H   0  0  0  0  0  0  0  0  0  0  0  0
  130.3419  117.1064   59.4801 H   0  0  0  0  0  0  0  0  0  0  0  0
  129.9473  118.3899   60.9738 H   0  0  0  0  0  0  0  0  0  0  0  0
  129.4360  120.5751   62.0349 H   0  0  0  0  0  0  0  0  0  0  0  0
  134.0801  124.6589   64.9710 H   0  0  0  0  0  0  0  0  0  0  0  0
  134.1970  126.2520   66.9500 H   0  0  0  0  0  0  0  0  0  0  0  0
  132.3748  127.7963   68.5686 H   0  0  0  0  0  0  0  0  0  0  0  0
  129.9260  128.2729   68.7670 H   0  0  0  0  0  0  0  0  0  0  0  0
  128.2935  127.2358   67.2375 H   0  0  0  0  0  0  0  0  0  0  0  0
  129.0297  125.6865   65.4322 H   0  0  0  0  0  0  0  0  0  0  0  0
  129.9160  125.4480   63.1300 H   0  0  0  0  0  0  0  0  0  0  0  0
  127.5778  123.0504   62.5200 H   0  0  0  0  0  0  0  0  0  0  0  0
  125.8176  123.0852   60.7732 H   0  0  0  0  0  0  0  0  0  0  0  0
  127.4372  122.9909   56.5317 H   0  0  0  0  0  0  0  0  0  0  0  0
  125.6687  122.9911   54.7796 H   0  0  0  0  0  0  0  0  0  0  0  0
  123.3389  123.6440   55.3685 H   0  0  0  0  0  0  0  0  0  0  0  0
  122.7694  124.2954   57.7036 H   0  0  0  0  0  0  0  0  0  0  0  0
  124.5349  124.3010   59.4547 H   0  0  0  0  0  0  0  0  0  0  0  0
  128.7666  124.2149   57.8260 H   0  0  0  0  0  0  0  0  0  0  0  0
  130.5287  124.1769   59.5749 H   0  0  0  0  0  0  0  0  0  0  0  0
  133.6058  121.6730   61.7830 H   0  0  0  0  0  0  0  0  0  0  0  0
  134.1153  119.4903   60.7176 H   0  0  0  0  0  0  0  0  0  0  0  0
  134.4863  117.5262   60.6312 H   0  0  0  0  0  0  0  0  0  0  0  0
  135.0028  115.3404   59.5658 H   0  0  0  0  0  0  0  0  0  0  0  0
  1  2  2  0
  2  3  1  0
  3  4  2  0
  4  5  1  0
  5  6  2  0
  6  7  1  0
  7  8  2  0
  8  9  1  0
  9 10  1  0
 10 11  2  0
 11 12  1  0
 12 13  2  0
 13 14  1  0
 14 15  1  0
 15 16  2  0
 16 17  1  0
 17 18  2  0
 18 19  1  0
 19 20  2  0
 11 21  1  0
 21 22  1  0
 22 23  1  0
 23 24  2  0
 24 25  1  0
 25 26  2  0
 26 27  1  0
 27 28  2  0
 28 29  1  0
 29 30  2  0
 30 31  1  0
 31 32  2  0
 26 33  1  0
 33 34  2  0
  8 35  1  0
 35 36  2  0
  4 37  1  0
 37 38  2  0
 38  1  1  0
 36  5  1  0
 22  9  2  0
 34 23  1  0
 20 12  1  0
 32 27  1  0
 20 15  1  0
  1 39  1  0
  2 40  1  0
  3 41  1  0
  6 42  1  0
  7 43  1  0
 13 44  1  0
 14 45  1  0
 16 46  1  0
 17 47  1  0
 18 48  1  0
 19 49  1  0
 21 50  1  0
 24 51  1  0
 25 52  1  0
 28 53  1  0
 29 54  1  0
 30 55  1  0
 31 56  1  0
 32 57  1  0
 33 58  1  0
 34 59  1  0
 35 60  1  0
 36 61  1  0
 37 62  1  0
 38 63  1  0
M  END
>  <Binding energies>  (1) 
[-9.59]

>  <Ligand effiencies>  (1) 
[-0.23975]

>  <Interactions>  (1) 
["V-B:ASP:366:CG:8184, V-B:ASP:366:CB:8183, V-B:PRO:540:CA:9855, V-B:ALA:541:CB:9864, V-B:LEU:363:CA:8156, V-B:PRO:540:CB:9857, V-B:LEU:363:CD1:8160, V-B:ILE:538:CG2:9835, V-B:ILE:538:CB:9834, V-A:LEU:475:CD2:4256, V-B:GLU:543:CD:9880, V-B:TYR:539:CE1:9847, V-B:TYR:539:CD1:9845, V-B:PRO:540:C:9853, V-B:TYR:539:CG:9844, V-B:TYR:531:CE2:9765, V-A:ILE:369:CG2:3234, V-A:GLY:454:CA:4046, H-A:TYR:484:OH:4345, V-B:TYR:531:CZ:9766, V-A:ARG:545:CG:4920, V-A:ARG:545:CD:4921, V-A:HIS:456:CE1:4066, V-A:ARG:545:CZ:4924, V-A:GLU:543:CD:4906, V-A:GLU:543:CG:4905, V-A:PRO:482:CG:4324, V-A:SER:385:CB:3406, V-A:PRO:482:CB:4323, V-A:SER:385:CA:3404, V-B:TYR:539:CB:9843, V-A:HIS:383:CG:3387, V-A:LEU:373:CD2:3278, V-B:GLU:543:CB:9878, V-B:GLU:543:CG:9879, V-A:HIS:383:CB:3386, V-A:LEU:373:CD1:3277, H-B:GLU:543:OE1:9881, V-A:VAL:384:C:3394, V-B:VAL:344:CG1:7972, V-B:LEU:363:CB:8158, V-A:HIS:383:CA:3384, V-B:ILE:343:CD1:7965, V-A:HIS:383:CD2:3389, V-A:HIS:383:CE1:3391, H-A:HIS:456:ND1:4064, V-A:LEU:373:CG:3276, V-A:HIS:383:C:3382, H-A:ILE:455:O:4050, V-A:ARG:545:CB:4919, V-B:TYR:531:CD2:9763"]

$$$$
RR4_Rahimova_2017
     RDKit          3D

 66 70  0  0  0  0  0  0  0  0999 V2000
  123.6890  130.9780   59.5050 C   0  0  0  0  0  0  0  0  0  0  0  0
  124.4940  130.6800   58.3710 O   0  0  0  0  0  0  0  0  0  0  0  0
  125.5820  129.8410   58.5180 C   0  0  0  0  0  0  0  0  0  0  0  0
  126.1970  129.4030   57.3470 C   0  0  0  0  0  0  0  0  0  0  0  0
  127.3000  128.5570   57.3980 C   0  0  0  0  0  0  0  0  0  0  0  0
  127.8210  128.1200   58.6250 C   0  0  0  0  0  0  0  0  0  0  0  0
  129.0120  127.2050   58.6770 C   0  0  0  0  0  0  0  0  0  0  0  0
  129.6810  126.9000   59.8670 C   0  0  0  0  0  0  0  0  0  0  0  0
  130.7850  126.0370   59.8630 C   0  0  0  0  0  0  0  0  0  0  0  0
  131.4320  125.7350   61.1760 C   0  0  0  0  0  0  0  0  0  0  0  0
  132.7300  125.2180   61.2160 C   0  0  0  0  0  0  0  0  0  0  0  0
  133.3450  124.9440   62.4350 C   0  0  0  0  0  0  0  0  0  0  0  0
  132.6780  125.1880   63.6350 C   0  0  0  0  0  0  0  0  0  0  0  0
  133.3670  124.8870   64.7950 O   0  0  0  0  0  0  0  0  0  0  0  0
  133.0210  125.5590   66.0020 C   0  0  0  0  0  0  0  0  0  0  0  0
  131.3780  125.7130   63.6000 C   0  0  0  0  0  0  0  0  0  0  0  0
  130.7650  125.9850   62.3800 C   0  0  0  0  0  0  0  0  0  0  0  0
  131.2230  125.5060   58.6250 C   0  0  0  0  0  0  0  0  0  0  0  0
  132.3720  124.5980   58.5660 C   0  0  0  0  0  0  0  0  0  0  0  0
  133.2790  123.8810   58.5180 N   0  0  0  0  0  0  0  0  0  0  0  0
  130.5180  125.8800   57.4590 C   0  0  0  0  0  0  0  0  0  0  0  0
  130.9340  125.3210   55.8210 S   0  0  0  0  0  0  0  0  0  0  0  0
  129.7660  123.9940   55.3720 C   0  0  0  0  0  0  0  0  0  0  0  0
  128.9360  123.4520   56.5440 C   0  0  0  0  0  0  0  0  0  0  0  0
  128.8790  122.2400   56.7640 O   0  0  0  0  0  0  0  0  0  0  0  0
  128.2930  124.3980   57.2680 N   0  0  0  0  0  0  0  0  0  0  0  0
  127.4710  124.2280   58.3840 C   0  0  0  0  0  0  0  0  0  0  0  0
  128.0690  124.2910   60.0210 S   0  0  0  0  0  0  0  0  0  0  0  0
  126.4860  123.9920   60.6700 C   0  0  0  0  0  0  0  0  0  0  0  0
  125.5300  123.8460   59.6530 C   0  0  0  0  0  0  0  0  0  0  0  0
  126.0870  123.9950   58.3590 C   0  0  0  0  0  0  0  0  0  0  0  0
  125.3030  123.9070   57.1310 C   0  0  0  0  0  0  0  0  0  0  0  0
  124.6820  123.8360   56.1570 N   0  0  0  0  0  0  0  0  0  0  0  0
  124.0480  123.6120   59.9710 C   0  0  0  0  0  0  0  0  0  0  0  0
  123.7450  123.9640   61.4450 C   0  0  0  0  0  0  0  0  0  0  0  0
  124.7930  123.3790   62.4080 C   0  0  0  0  0  0  0  0  0  0  0  0
  126.1970  123.9720   62.1660 C   0  0  0  0  0  0  0  0  0  0  0  0
  129.4340  126.6910   57.4940 N   0  0  0  0  0  0  0  0  0  0  0  0
  127.1970  128.5690   59.8000 C   0  0  0  0  0  0  0  0  0  0  0  0
  126.0930  129.4160   59.7520 C   0  0  0  0  0  0  0  0  0  0  0  0
  124.2569  130.7678   60.4233 H   0  0  0  0  0  0  0  0  0  0  0  0
  123.4055  132.0406   59.4844 H   0  0  0  0  0  0  0  0  0  0  0  0
  122.7819  130.3561   59.4844 H   0  0  0  0  0  0  0  0  0  0  0  0
  125.8062  129.7296   56.3720 H   0  0  0  0  0  0  0  0  0  0  0  0
  127.7713  128.2253   56.4611 H   0  0  0  0  0  0  0  0  0  0  0  0
  129.3375  127.3414   60.8142 H   0  0  0  0  0  0  0  0  0  0  0  0
  133.2700  125.0260   60.2771 H   0  0  0  0  0  0  0  0  0  0  0  0
  134.3648  124.5319   62.4514 H   0  0  0  0  0  0  0  0  0  0  0  0
  133.3343  124.9505   66.8632 H   0  0  0  0  0  0  0  0  0  0  0  0
  133.5293  126.5339   66.0376 H   0  0  0  0  0  0  0  0  0  0  0  0
  131.9322  125.7116   66.0376 H   0  0  0  0  0  0  0  0  0  0  0  0
  130.8410  125.9105   64.5395 H   0  0  0  0  0  0  0  0  0  0  0  0
  129.7466  126.4004   62.3626 H   0  0  0  0  0  0  0  0  0  0  0  0
  129.0732  124.3882   54.6139 H   0  0  0  0  0  0  0  0  0  0  0  0
  130.3737  123.1539   55.0046 H   0  0  0  0  0  0  0  0  0  0  0  0
  128.4270  125.3560   56.9800 H   0  0  0  0  0  0  0  0  0  0  0  0
  123.4332  124.2452   59.3145 H   0  0  0  0  0  0  0  0  0  0  0  0
  123.8133  122.5502   59.8048 H   0  0  0  0  0  0  0  0  0  0  0  0
  123.7358  125.0586   61.5534 H   0  0  0  0  0  0  0  0  0  0  0  0
  122.7683  123.5287   61.7029 H   0  0  0  0  0  0  0  0  0  0  0  0
  124.4878  123.5999   63.4415 H   0  0  0  0  0  0  0  0  0  0  0  0
  124.8478  122.2946   62.2317 H   0  0  0  0  0  0  0  0  0  0  0  0
  126.2354  124.9979   62.5611 H   0  0  0  0  0  0  0  0  0  0  0  0
  126.9501  123.3549   62.6779 H   0  0  0  0  0  0  0  0  0  0  0  0
  127.5875  128.2457   60.7762 H   0  0  0  0  0  0  0  0  0  0  0  0
  125.6200  129.7529   60.6862 H   0  0  0  0  0  0  0  0  0  0  0  0
  1  2  1  0
  2  3  1  0
  3  4  2  0
  4  5  1  0
  5  6  2  0
  6  7  1  0
  7  8  2  0
  8  9  1  0
  9 10  1  0
 10 11  2  0
 11 12  1  0
 12 13  2  0
 13 14  1  0
 14 15  1  0
 13 16  1  0
 16 17  2  0
  9 18  2  0
 18 19  1  0
 19 20  3  0
 18 21  1  0
 21 22  1  0
 22 23  1  0
 23 24  1  0
 24 25  2  0
 24 26  1  0
 26 27  1  0
 27 28  1  0
 28 29  1  0
 29 30  2  0
 30 31  1  0
 31 32  1  0
 32 33  3  0
 30 34  1  0
 34 35  1  0
 35 36  1  0
 36 37  1  0
 21 38  2  0
  6 39  1  0
 39 40  2  0
 40  3  1  0
 38  7  1  0
 17 10  1  0
 31 27  2  0
 37 29  1  0
  1 41  1  0
  1 42  1  0
  1 43  1  0
  4 44  1  0
  5 45  1  0
  8 46  1  0
 11 47  1  0
 12 48  1  0
 15 49  1  0
 15 50  1  0
 15 51  1  0
 16 52  1  0
 17 53  1  0
 23 54  1  0
 23 55  1  0
 26 56  1  0
 34 57  1  0
 34 58  1  0
 35 59  1  0
 35 60  1  0
 36 61  1  0
 36 62  1  0
 37 63  1  0
 37 64  1  0
 39 65  1  0
 40 66  1  0
M  END
>  <Binding energies>  (1) 
[-10.07]

>  <Ligand effiencies>  (1) 
[-0.24560975609756097]

>  <Interactions>  (1) 
["V-B:ASP:366:CG:8184, V-A:ASP:366:CG:3210, H-A:TYR:539:OH:4876, H-A:TYR:531:OH:4793, V-B:ASP:366:CB:8183, H-B:TYR:531:OH:9767, V-B:PRO:540:CA:9855, V-B:LEU:363:CA:8156, V-B:PRO:540:CB:9857, V-B:ALA:541:C:9860, V-B:MET:535:CE:9807, V-B:ASN:362:CB:8147, V-B:ASN:362:C:8143, V-B:GLU:543:CD:9880, V-B:TYR:539:CE1:9847, V-B:TYR:539:CD1:9845, V-B:ILE:369:CD1:8210, V-B:ILE:369:CG2:8208, H-B:TYR:539:N:9842, V-B:TYR:539:CZ:9849, V-B:TYR:531:CE2:9765, V-B:ARG:545:CZ:9898, H-B:TYR:539:OH:9850, H-A:GLY:454:N:4047, H-A:TYR:484:OH:4345, V-B:TYR:539:CE2:9848, V-B:ILE:369:CB:8207, V-A:ARG:545:CG:4920, V-A:ARG:545:CD:4921, V-A:HIS:456:CE1:4066, V-A:ARG:545:CZ:4924, V-B:ASP:366:CA:8181, H-A:ASN:370:ND2:3245, H-A:ARG:545:NE:4922, V-B:ASN:362:CA:8145, V-B:ASN:362:CG:8148"]

$$$$
RR5_Rahimova_2017
     RDKit          3D

 77 82  0  0  0  0  0  0  0  0999 V2000
  132.3340  125.6470   60.6860 O   0  0  0  0  0  0  0  0  0  0  0  0
  132.1300  124.8590   59.7640 C   0  0  0  0  0  0  0  0  0  0  0  0
  132.6450  125.1880   58.3500 C   0  0  0  0  0  0  0  0  0  0  0  0
  131.9330  126.4170   57.6810 C   0  0  2  0  0  0  0  0  0  0  0  0
  131.2150  127.3070   58.6160 N   0  0  0  0  0  0  0  0  0  0  0  0
  130.3180  128.2650   58.1650 C   0  0  0  0  0  0  0  0  0  0  0  0
  129.9780  128.4630   56.9960 O   0  0  0  0  0  0  0  0  0  0  0  0
  129.8800  128.9670   59.2240 O   0  0  0  0  0  0  0  0  0  0  0  0
  129.0830  130.1370   59.0620 C   0  0  0  0  0  0  0  0  0  0  0  0
  129.9620  131.4070   59.0840 C   0  0  0  0  0  0  0  0  0  0  0  0
  131.0310  131.3880   60.1620 C   0  0  0  0  0  0  0  0  0  0  0  0
  130.8960  131.2550   61.5470 C   0  0  0  0  0  0  0  0  0  0  0  0
  132.0320  131.2410   62.3590 C   0  0  0  0  0  0  0  0  0  0  0  0
  133.3010  131.3620   61.7910 C   0  0  0  0  0  0  0  0  0  0  0  0
  133.4390  131.4990   60.4080 C   0  0  0  0  0  0  0  0  0  0  0  0
  132.3010  131.5120   59.5980 C   0  0  0  0  0  0  0  0  0  0  0  0
  132.1520  131.6480   58.1410 C   0  0  0  0  0  0  0  0  0  0  0  0
  133.1030  131.8120   57.1310 C   0  0  0  0  0  0  0  0  0  0  0  0
  132.6870  131.9410   55.8050 C   0  0  0  0  0  0  0  0  0  0  0  0
  131.3260  131.9030   55.4910 C   0  0  0  0  0  0  0  0  0  0  0  0
  130.3800  131.7350   56.5030 C   0  0  0  0  0  0  0  0  0  0  0  0
  130.7930  131.6030   57.8310 C   0  0  0  0  0  0  0  0  0  0  0  0
  130.9690  125.9510   56.5610 C   0  0  0  0  0  0  0  0  0  0  0  0
  131.2650  125.8610   55.3870 O   0  0  0  0  0  0  0  0  0  0  0  0
  129.7530  125.6430   57.1010 O   0  0  0  0  0  0  0  0  0  0  0  0
  131.4980  123.6710   59.8910 N   0  0  0  0  0  0  0  0  0  0  0  0
  130.8590  122.9650   61.0420 C   0  0  0  0  0  0  0  0  0  0  0  0
  129.3360  123.1080   60.7090 C   0  0  0  0  0  0  0  0  0  0  0  0
  128.3640  123.1380   61.7230 C   0  0  0  0  0  0  0  0  0  0  0  0
  127.0120  123.2680   61.4150 C   0  0  0  0  0  0  0  0  0  0  0  0
  126.6090  123.3600   60.0870 C   0  0  0  0  0  0  0  0  0  0  0  0
  127.5490  123.3340   59.0640 C   0  0  0  0  0  0  0  0  0  0  0  0
  128.9010  123.2150   59.3730 C   0  0  0  0  0  0  0  0  0  0  0  0
  131.3450  121.4770   61.0050 C   0  0  0  0  0  0  0  0  0  0  0  0
  132.6680  121.1410   60.6760 C   0  0  0  0  0  0  0  0  0  0  0  0
  133.0740  119.8090   60.6310 C   0  0  0  0  0  0  0  0  0  0  0  0
  132.1620  118.7970   60.9110 C   0  0  0  0  0  0  0  0  0  0  0  0
  130.8470  119.1050   61.2440 C   0  0  0  0  0  0  0  0  0  0  0  0
  130.4460  120.4360   61.2970 C   0  0  0  0  0  0  0  0  0  0  0  0
  131.2790  123.7570   62.3260 C   0  0  0  0  0  0  0  0  0  0  0  0
  130.5430  124.8750   62.7590 C   0  0  0  0  0  0  0  0  0  0  0  0
  130.9160  125.5880   63.8950 C   0  0  0  0  0  0  0  0  0  0  0  0
  132.0320  125.1920   64.6230 C   0  0  0  0  0  0  0  0  0  0  0  0
  132.7710  124.0830   64.2280 C   0  0  0  0  0  0  0  0  0  0  0  0
  132.3950  123.3730   63.0920 C   0  0  0  0  0  0  0  0  0  0  0  0
  133.7213  125.4055   58.4158 H   0  0  0  0  0  0  0  0  0  0  0  0
  132.4274  124.3127   57.7204 H   0  0  0  0  0  0  0  0  0  0  0  0
  132.7521  127.0188   57.2603 H   0  0  0  0  0  0  0  0  0  0  0  0
  131.5150  127.3290   59.5800 H   0  0  0  0  0  0  0  0  0  0  0  0
  128.5530  130.0819   58.0997 H   0  0  0  0  0  0  0  0  0  0  0  0
  128.3639  130.1915   59.8926 H   0  0  0  0  0  0  0  0  0  0  0  0
  129.2035  132.1903   59.2290 H   0  0  0  0  0  0  0  0  0  0  0  0
  129.8964  131.1615   61.9965 H   0  0  0  0  0  0  0  0  0  0  0  0
  131.9264  131.1344   63.4487 H   0  0  0  0  0  0  0  0  0  0  0  0
  134.1938  131.3495   62.4335 H   0  0  0  0  0  0  0  0  0  0  0  0
  134.4385  131.5961   59.9590 H   0  0  0  0  0  0  0  0  0  0  0  0
  134.1742  131.8393   57.3795 H   0  0  0  0  0  0  0  0  0  0  0  0
  133.4316  132.0728   55.0061 H   0  0  0  0  0  0  0  0  0  0  0  0
  131.0001  132.0056   54.4454 H   0  0  0  0  0  0  0  0  0  0  0  0
  129.3087  131.7065   56.2550 H   0  0  0  0  0  0  0  0  0  0  0  0
  129.2710  126.4240   57.3800 H   0  0  0  0  0  0  0  0  0  0  0  0
  131.3310  123.1970   59.0150 H   0  0  0  0  0  0  0  0  0  0  0  0
  128.6752  123.0577   62.7750 H   0  0  0  0  0  0  0  0  0  0  0  0
  126.2639  123.2979   62.2209 H   0  0  0  0  0  0  0  0  0  0  0  0
  125.5400  123.4539   59.8452 H   0  0  0  0  0  0  0  0  0  0  0  0
  127.2262  123.4071   58.0150 H   0  0  0  0  0  0  0  0  0  0  0  0
  129.6424  123.2043   58.5605 H   0  0  0  0  0  0  0  0  0  0  0  0
  133.3919  121.9382   60.4513 H   0  0  0  0  0  0  0  0  0  0  0  0
  134.1139  119.5582   60.3745 H   0  0  0  0  0  0  0  0  0  0  0  0
  132.4828  117.7457   60.8688 H   0  0  0  0  0  0  0  0  0  0  0  0
  130.1289  118.3013   61.4640 H   0  0  0  0  0  0  0  0  0  0  0  0
  129.4087  120.6780   61.5718 H   0  0  0  0  0  0  0  0  0  0  0  0
  129.6567  125.1915   62.1896 H   0  0  0  0  0  0  0  0  0  0  0  0
  130.3296  126.4618   64.2154 H   0  0  0  0  0  0  0  0  0  0  0  0
  132.3319  125.7593   65.5164 H   0  0  0  0  0  0  0  0  0  0  0  0
  133.6491  123.7681   64.8109 H   0  0  0  0  0  0  0  0  0  0  0  0
  132.9818  122.4941   62.7867 H   0  0  0  0  0  0  0  0  0  0  0  0
  1  2  2  0
  2  3  1  0
  3  4  1  0
  4  5  1  0
  5  6  1  0
  6  7  2  0
  6  8  1  0
  8  9  1  0
  9 10  1  0
 10 11  1  0
 11 12  2  0
 12 13  1  0
 13 14  2  0
 14 15  1  0
 15 16  2  0
 16 17  1  0
 17 18  2  0
 18 19  1  0
 19 20  2  0
 20 21  1  0
 21 22  2  0
  4 23  1  0
 23 24  2  0
 23 25  1  0
  2 26  1  0
 26 27  1  0
 27 28  1  0
 28 29  2  0
 29 30  1  0
 30 31  2  0
 31 32  1  0
 32 33  2  0
 27 34  1  0
 34 35  2  0
 35 36  1  0
 36 37  2  0
 37 38  1  0
 38 39  2  0
 27 40  1  0
 40 41  2  0
 41 42  1  0
 42 43  2  0
 43 44  1  0
 44 45  2  0
 22 10  1  0
 33 28  1  0
 39 34  1  0
 45 40  1  0
 16 11  1  0
 22 17  1  0
  3 46  1  0
  3 47  1  0
  4 48  1  6
  5 49  1  0
  9 50  1  0
  9 51  1  0
 10 52  1  0
 12 53  1  0
 13 54  1  0
 14 55  1  0
 15 56  1  0
 18 57  1  0
 19 58  1  0
 20 59  1  0
 21 60  1  0
 25 61  1  0
 26 62  1  0
 29 63  1  0
 30 64  1  0
 31 65  1  0
 32 66  1  0
 33 67  1  0
 35 68  1  0
 36 69  1  0
 37 70  1  0
 38 71  1  0
 39 72  1  0
 41 73  1  0
 42 74  1  0
 43 75  1  0
 44 76  1  0
 45 77  1  0
M  END
>  <Binding energies>  (1) 
[-11.17]

>  <Ligand effiencies>  (1) 
[-0.23270833333333332]

>  <Interactions>  (1) 
["V-A:MET:535:CE:4833, V-A:ASP:366:CG:3210, V-A:TYR:531:CZ:4792, V-A:TYR:531:CE2:4791, V-A:PRO:540:CB:4883, V-A:PRO:540:CA:4881, V-A:ASP:366:CB:3209, H-A:TYR:531:OH:4793, V-A:ILE:538:CA:4858, V-A:LEU:363:CD1:3186, V-B:PRO:540:CA:9855, V-B:ALA:541:CB:9864, V-B:PRO:540:CB:9857, V-A:ASP:366:CA:3207, V-B:PRO:540:N:9856, V-A:LEU:475:CD2:4256, V-B:GLU:543:CD:9880, V-B:TYR:539:CE1:9847, V-B:TYR:539:CD1:9845, V-B:PRO:540:C:9853, V-A:ASN:362:C:3169, V-A:ILE:369:CG2:3234, H-B:TYR:539:OH:9850, V-A:ILE:538:CB:4860, V-A:ILE:538:CG2:4861, H-A:ASP:366:OD2:3212, V-A:GLY:454:CA:4046, H-A:ASP:366:OD1:3211, V-A:ARG:545:CZ:4924, V-A:GLU:543:CD:4906, V-A:ASN:362:CB:3173, H-A:ASN:370:ND2:3245, V-A:PRO:482:CG:4324, V-A:PRO:482:CB:4323, V-A:SER:385:CA:3404, V-A:LEU:373:CD1:3277"]

$$$$
RR5_Rahimova_2017-again1
     RDKit          3D

 76 81  0  0  0  0  0  0  0  0999 V2000
  124.4310  130.5100   60.7850 O   0  0  0  0  0  0  0  0  0  0  0  0
  125.1060  130.5880   59.7580 C   0  0  0  0  0  0  0  0  0  0  0  0
  124.5000  130.0870   58.4310 C   0  0  0  0  0  0  0  0  0  0  0  0
  125.3380  129.0390   57.6280 C   0  0  2  0  0  0  0  0  0  0  0  0
  126.0450  128.1550   58.5790 N   0  0  0  0  0  0  0  0  0  0  0  0
  126.9040  127.1520   58.1430 C   0  0  0  0  0  0  0  0  0  0  0  0
  127.1600  126.8630   56.9700 O   0  0  0  0  0  0  0  0  0  0  0  0
  127.4230  126.5310   59.2190 O   0  0  0  0  0  0  0  0  0  0  0  0
  128.3760  125.4840   59.0700 C   0  0  0  0  0  0  0  0  0  0  0  0
  127.6720  124.1140   59.1290 C   0  0  0  0  0  0  0  0  0  0  0  0
  126.6630  124.0000   60.2570 C   0  0  0  0  0  0  0  0  0  0  0  0
  126.8490  124.1240   61.6360 C   0  0  0  0  0  0  0  0  0  0  0  0
  125.7600  123.9940   62.5010 C   0  0  0  0  0  0  0  0  0  0  0  0
  124.4870  123.7360   61.9910 C   0  0  0  0  0  0  0  0  0  0  0  0
  124.2980  123.6060   60.6140 C   0  0  0  0  0  0  0  0  0  0  0  0
  125.3880  123.7380   59.7510 C   0  0  0  0  0  0  0  0  0  0  0  0
  125.4790  123.6400   58.2860 C   0  0  0  0  0  0  0  0  0  0  0  0
  124.5040  123.3830   57.3200 C   0  0  0  0  0  0  0  0  0  0  0  0
  124.8650  123.3290   55.9730 C   0  0  0  0  0  0  0  0  0  0  0  0
  126.1940  123.5300   55.5940 C   0  0  0  0  0  0  0  0  0  0  0  0
  127.1660  123.7880   56.5630 C   0  0  0  0  0  0  0  0  0  0  0  0
  126.8080  123.8460   57.9130 C   0  0  0  0  0  0  0  0  0  0  0  0
  126.3350  129.7280   56.6120 C   0  0  0  0  0  0  0  0  0  0  0  0
  127.0060  130.6660   57.1020 O   0  0  0  0  0  0  0  0  0  0  0  0
  126.3810  129.2520   55.4520 O   0  0  0  0  0  0  0  0  0  0  0  0
  126.3060  131.2060   59.7150 N   0  0  0  0  0  0  0  0  0  0  0  0
  127.1080  131.7930   60.8180 C   0  0  0  0  0  0  0  0  0  0  0  0
  126.6050  133.2370   61.1370 C   0  0  0  0  0  0  0  0  0  0  0  0
  127.5130  134.2700   61.4300 C   0  0  0  0  0  0  0  0  0  0  0  0
  127.0690  135.5610   61.7020 C   0  0  0  0  0  0  0  0  0  0  0  0
  125.7070  135.8390   61.6800 C   0  0  0  0  0  0  0  0  0  0  0  0
  124.7870  134.8370   61.3880 C   0  0  0  0  0  0  0  0  0  0  0  0
  125.2330  133.5460   61.1180 C   0  0  0  0  0  0  0  0  0  0  0  0
  126.9950  131.0540   62.1900 C   0  0  0  0  0  0  0  0  0  0  0  0
  126.8530  131.7750   63.3890 C   0  0  0  0  0  0  0  0  0  0  0  0
  126.7530  131.1200   64.6130 C   0  0  0  0  0  0  0  0  0  0  0  0
  126.7890  129.7300   64.6550 C   0  0  0  0  0  0  0  0  0  0  0  0
  126.9190  128.9920   63.4820 C   0  0  0  0  0  0  0  0  0  0  0  0
  127.0180  129.6510   62.2600 C   0  0  0  0  0  0  0  0  0  0  0  0
  128.5700  131.8300   60.2530 C   0  0  0  0  0  0  0  0  0  0  0  0
  129.6680  131.3940   61.0150 C   0  0  0  0  0  0  0  0  0  0  0  0
  130.9570  131.4160   60.4920 C   0  0  0  0  0  0  0  0  0  0  0  0
  131.1680  131.8610   59.1920 C   0  0  0  0  0  0  0  0  0  0  0  0
  130.0970  132.2760   58.4080 C   0  0  0  0  0  0  0  0  0  0  0  0
  128.8080  132.2550   58.9340 C   0  0  0  0  0  0  0  0  0  0  0  0
  123.5263  129.6298   58.6608 H   0  0  0  0  0  0  0  0  0  0  0  0
  124.4492  130.9744   57.7830 H   0  0  0  0  0  0  0  0  0  0  0  0
  124.6548  128.4332   57.0146 H   0  0  0  0  0  0  0  0  0  0  0  0
  125.9490  128.3330   59.5690 H   0  0  0  0  0  0  0  0  0  0  0  0
  128.8845  125.5902   58.1004 H   0  0  0  0  0  0  0  0  0  0  0  0
  129.1102  125.5468   59.8867 H   0  0  0  0  0  0  0  0  0  0  0  0
  128.5193  123.4206   59.2350 H   0  0  0  0  0  0  0  0  0  0  0  0
  127.8523  124.3239   62.0403 H   0  0  0  0  0  0  0  0  0  0  0  0
  125.9062  124.0952   63.5865 H   0  0  0  0  0  0  0  0  0  0  0  0
  123.6314  123.6349   62.6749 H   0  0  0  0  0  0  0  0  0  0  0  0
  123.2954  123.4006   60.2107 H   0  0  0  0  0  0  0  0  0  0  0  0
  123.4574  123.2240   57.6190 H   0  0  0  0  0  0  0  0  0  0  0  0
  124.1008  123.1276   55.2079 H   0  0  0  0  0  0  0  0  0  0  0  0
  126.4754  123.4851   54.5315 H   0  0  0  0  0  0  0  0  0  0  0  0
  128.2128  123.9455   56.2641 H   0  0  0  0  0  0  0  0  0  0  0  0
  126.7980  131.1540   58.8350 H   0  0  0  0  0  0  0  0  0  0  0  0
  128.5916  134.0544   61.4445 H   0  0  0  0  0  0  0  0  0  0  0  0
  127.7921  136.3571   61.9331 H   0  0  0  0  0  0  0  0  0  0  0  0
  125.3542  136.8585   61.8950 H   0  0  0  0  0  0  0  0  0  0  0  0
  123.7108  135.0640   61.3705 H   0  0  0  0  0  0  0  0  0  0  0  0
  124.5024  132.7569   60.8867 H   0  0  0  0  0  0  0  0  0  0  0  0
  126.8204  132.8741   63.3590 H   0  0  0  0  0  0  0  0  0  0  0  0
  126.6460  131.6985   65.5424 H   0  0  0  0  0  0  0  0  0  0  0  0
  126.7142  129.2106   65.6217 H   0  0  0  0  0  0  0  0  0  0  0  0
  126.9434  127.8929   63.5206 H   0  0  0  0  0  0  0  0  0  0  0  0
  127.1158  129.0642   61.3347 H   0  0  0  0  0  0  0  0  0  0  0  0
  129.5055  131.0300   62.0402 H   0  0  0  0  0  0  0  0  0  0  0  0
  131.8069  131.0822   61.1054 H   0  0  0  0  0  0  0  0  0  0  0  0
  132.1881  131.8850   58.7811 H   0  0  0  0  0  0  0  0  0  0  0  0
  130.2674  132.6193   57.3769 H   0  0  0  0  0  0  0  0  0  0  0  0
  127.9625  132.5760   58.3078 H   0  0  0  0  0  0  0  0  0  0  0  0
  1  2  2  0
  2  3  1  0
  3  4  1  0
  4  5  1  0
  5  6  1  0
  6  7  2  0
  6  8  1  0
  8  9  1  0
  9 10  1  0
 10 11  1  0
 11 12  2  0
 12 13  1  0
 13 14  2  0
 14 15  1  0
 15 16  2  0
 16 17  1  0
 17 18  2  0
 18 19  1  0
 19 20  2  0
 20 21  1  0
 21 22  2  0
  4 23  1  0
 23 24  2  0
 23 25  1  0
  2 26  1  0
 26 27  1  0
 27 28  1  0
 28 29  2  0
 29 30  1  0
 30 31  2  0
 31 32  1  0
 32 33  2  0
 27 34  1  0
 34 35  2  0
 35 36  1  0
 36 37  2  0
 37 38  1  0
 38 39  2  0
 27 40  1  0
 40 41  2  0
 41 42  1  0
 42 43  2  0
 43 44  1  0
 44 45  2  0
 22 10  1  0
 33 28  1  0
 39 34  1  0
 45 40  1  0
 16 11  1  0
 22 17  1  0
  3 46  1  0
  3 47  1  0
  4 48  1  6
  5 49  1  0
  9 50  1  0
  9 51  1  0
 10 52  1  0
 12 53  1  0
 13 54  1  0
 14 55  1  0
 15 56  1  0
 18 57  1  0
 19 58  1  0
 20 59  1  0
 21 60  1  0
 26 61  1  0
 29 62  1  0
 30 63  1  0
 31 64  1  0
 32 65  1  0
 33 66  1  0
 35 67  1  0
 36 68  1  0
 37 69  1  0
 38 70  1  0
 39 71  1  0
 41 72  1  0
 42 73  1  0
 43 74  1  0
 44 75  1  0
 45 76  1  0
M  CHG  1  25  -1
M  END
>  <Binding energies>  (1) 
[-11.15]

>  <Ligand effiencies>  (1) 
[-0.2372340425531915]

>  <Interactions>  (1) 
["V-B:ASP:366:CG:8184, H-A:TYR:539:OH:4876, V-A:PRO:540:CB:4883, V-A:PRO:540:CA:4881, V-A:TYR:539:CZ:4875, V-B:ASP:366:CB:8183, V-A:TYR:539:CE1:4873, H-B:TYR:531:OH:9767, V-B:PRO:540:CA:9855, V-B:PRO:540:CB:9857, V-B:LEU:363:CD1:8160, V-B:MET:535:CE:9807, V-B:ASN:362:CB:8147, V-B:ASN:362:C:8143, V-B:ILE:538:CG2:9835, V-B:ILE:538:CB:9834, V-B:ILE:538:CA:9832, V-B:GLU:543:CD:9880, V-A:TYR:539:CD1:4871, V-A:ALA:541:CB:4890, V-A:PRO:540:N:4882, V-A:TYR:539:C:4865, V-B:ILE:369:CG2:8208, V-B:TYR:531:CE2:9765, V-B:ARG:545:CZ:9898, V-B:LEU:475:CD2:9230, H-B:ASP:366:OD1:8185, V-B:TYR:531:CZ:9766, H-B:ASP:366:OD2:8186, H-B:ASN:370:ND2:8219, V-B:ASP:366:CA:8181, V-B:ASP:366:C:8179"]

$$$$
RR6_Rahimova_2017
     RDKit          3D

 63 66  0  0  0  0  0  0  0  0999 V2000
  132.3070  132.2740   56.4630 C   0  0  0  0  0  0  0  0  0  0  0  0
  131.1850  133.0750   56.8090 O   0  0  0  0  0  0  0  0  0  0  0  0
  130.0660  132.5180   57.3390 C   0  0  0  0  0  0  0  0  0  0  0  0
  129.0440  133.1610   57.5980 O   0  0  0  0  0  0  0  0  0  0  0  0
  130.1930  131.0400   57.5770 C   0  0  0  0  0  0  0  0  0  0  0  0
  130.7750  130.5230   58.7440 C   0  0  0  0  0  0  0  0  0  0  0  0
  130.8860  129.1470   58.9320 C   0  0  0  0  0  0  0  0  0  0  0  0
  130.4170  128.2630   57.9490 C   0  0  0  0  0  0  0  0  0  0  0  0
  130.5040  126.8600   58.0240 N   0  0  0  0  0  0  0  0  0  0  0  0
  130.8640  125.9730   57.0710 C   0  0  0  0  0  0  0  0  0  0  0  0
  131.2030  126.2570   55.9220 O   0  0  0  0  0  0  0  0  0  0  0  0
  130.7710  124.4970   57.4730 C   0  0  0  0  0  0  0  0  0  0  0  0
  129.4210  124.1400   58.6470 S   0  0  0  0  0  0  0  0  0  0  0  0
  130.1850  123.5620   60.1480 C   0  0  0  0  0  0  0  0  0  0  0  0
  130.5030  122.2450   60.1420 N   0  0  0  0  0  0  0  0  0  0  0  0
  131.1170  121.6960   61.2200 C   0  0  0  0  0  0  0  0  0  0  0  0
  131.4900  120.2470   61.1080 C   0  0  0  0  0  0  0  0  0  0  0  0
  130.5540  119.2370   61.3820 C   0  0  0  0  0  0  0  0  0  0  0  0
  130.9040  117.8920   61.2910 C   0  0  0  0  0  0  0  0  0  0  0  0
  132.1980  117.5310   60.9190 C   0  0  0  0  0  0  0  0  0  0  0  0
  132.5770  116.0650   60.8300 C   0  0  0  0  0  0  0  0  0  0  0  0
  133.1410  118.5180   60.6400 C   0  0  0  0  0  0  0  0  0  0  0  0
  132.7860  119.8600   60.7320 C   0  0  0  0  0  0  0  0  0  0  0  0
  131.4150  122.4710   62.3450 C   0  0  0  0  0  0  0  0  0  0  0  0
  131.0920  123.8350   62.3780 C   0  0  0  0  0  0  0  0  0  0  0  0
  131.4560  124.6070   63.6030 C   0  0  0  0  0  0  0  0  0  0  0  0
  130.4550  125.1430   64.4190 C   0  0  0  0  0  0  0  0  0  0  0  0
  130.7840  125.8510   65.5720 C   0  0  0  0  0  0  0  0  0  0  0  0
  132.1180  126.0310   65.9350 C   0  0  0  0  0  0  0  0  0  0  0  0
  132.3510  126.7440   67.0950 O   0  0  0  0  0  0  0  0  0  0  0  0
  131.2650  127.4150   67.7260 C   0  0  0  0  0  0  0  0  0  0  0  0
  133.1270  125.4900   65.1230 C   0  0  0  0  0  0  0  0  0  0  0  0
  132.7930  124.7830   63.9710 C   0  0  0  0  0  0  0  0  0  0  0  0
  130.4520  124.4020   61.2480 C   0  0  0  0  0  0  0  0  0  0  0  0
  130.0610  125.8150   61.2280 C   0  0  0  0  0  0  0  0  0  0  0  0
  129.7540  126.9310   61.2110 N   0  0  0  0  0  0  0  0  0  0  0  0
  129.8220  128.7730   56.7950 C   0  0  0  0  0  0  0  0  0  0  0  0
  129.7150  130.1490   56.6080 C   0  0  0  0  0  0  0  0  0  0  0  0
  132.8019  131.9207   57.3796 H   0  0  0  0  0  0  0  0  0  0  0  0
  131.9719  131.4097   55.8708 H   0  0  0  0  0  0  0  0  0  0  0  0
  133.0156  132.8717   55.8708 H   0  0  0  0  0  0  0  0  0  0  0  0
  131.1472  131.2104   59.5179 H   0  0  0  0  0  0  0  0  0  0  0  0
  131.3420  128.7533   59.8524 H   0  0  0  0  0  0  0  0  0  0  0  0
  130.1700  126.4690   58.8920 H   0  0  0  0  0  0  0  0  0  0  0  0
  130.6079  123.8992   56.5641 H   0  0  0  0  0  0  0  0  0  0  0  0
  131.7134  124.2420   57.9798 H   0  0  0  0  0  0  0  0  0  0  0  0
  129.5294  119.5120   61.6728 H   0  0  0  0  0  0  0  0  0  0  0  0
  130.1587  117.1140   61.5129 H   0  0  0  0  0  0  0  0  0  0  0  0
  132.6838  115.6517   61.8438 H   0  0  0  0  0  0  0  0  0  0  0  0
  131.7914  115.5153   60.2908 H   0  0  0  0  0  0  0  0  0  0  0  0
  133.5306  115.9649   60.2908 H   0  0  0  0  0  0  0  0  0  0  0  0
  134.1635  118.2369   60.3477 H   0  0  0  0  0  0  0  0  0  0  0  0
  133.5353  120.6328   60.5057 H   0  0  0  0  0  0  0  0  0  0  0  0
  131.9073  122.0064   63.2120 H   0  0  0  0  0  0  0  0  0  0  0  0
  129.3981  125.0041   64.1476 H   0  0  0  0  0  0  0  0  0  0  0  0
  129.9855  126.2714   66.2011 H   0  0  0  0  0  0  0  0  0  0  0  0
  131.3763  127.3462   68.8182 H   0  0  0  0  0  0  0  0  0  0  0  0
  131.2620  128.4726   67.4236 H   0  0  0  0  0  0  0  0  0  0  0  0
  130.3178  126.9445   67.4236 H   0  0  0  0  0  0  0  0  0  0  0  0
  134.1837  125.6249   65.3973 H   0  0  0  0  0  0  0  0  0  0  0  0
  133.5902  124.3581   63.3434 H   0  0  0  0  0  0  0  0  0  0  0  0
  129.4354  128.0849   56.0288 H   0  0  0  0  0  0  0  0  0  0  0  0
  129.2506  130.5396   55.6905 H   0  0  0  0  0  0  0  0  0  0  0  0
  1  2  1  0
  2  3  1  0
  3  4  2  0
  3  5  1  0
  5  6  2  0
  6  7  1  0
  7  8  2  0
  8  9  1  0
  9 10  1  0
 10 11  2  0
 10 12  1  0
 12 13  1  0
 13 14  1  0
 14 15  2  0
 15 16  1  0
 16 17  1  0
 17 18  2  0
 18 19  1  0
 19 20  2  0
 20 21  1  0
 20 22  1  0
 22 23  2  0
 16 24  2  0
 24 25  1  0
 25 26  1  0
 26 27  2  0
 27 28  1  0
 28 29  2  0
 29 30  1  0
 30 31  1  0
 29 32  1  0
 32 33  2  0
 25 34  2  0
 34 35  1  0
 35 36  3  0
  8 37  1  0
 37 38  2  0
 38  5  1  0
 34 14  1  0
 23 17  1  0
 33 26  1  0
  1 39  1  0
  1 40  1  0
  1 41  1  0
  6 42  1  0
  7 43  1  0
  9 44  1  0
 12 45  1  0
 12 46  1  0
 18 47  1  0
 19 48  1  0
 21 49  1  0
 21 50  1  0
 21 51  1  0
 22 52  1  0
 23 53  1  0
 24 54  1  0
 27 55  1  0
 28 56  1  0
 31 57  1  0
 31 58  1  0
 31 59  1  0
 32 60  1  0
 33 61  1  0
 37 62  1  0
 38 63  1  0
M  END
>  <Binding energies>  (1) 
[-9.45]

>  <Ligand effiencies>  (1) 
[-0.24230769230769228]

>  <Interactions>  (1) 
["V-A:MET:535:CE:4833, V-A:ASP:366:CG:3210, V-A:TYR:531:CE2:4791, H-A:TYR:531:OH:4793, V-A:LEU:363:CD1:3186, H-A:TYR:539:N:4868, V-B:ALA:541:CB:9864, V-A:LEU:475:CD2:4256, V-B:GLU:543:CD:9880, V-B:TYR:539:CE1:9847, V-B:TYR:539:CD1:9845, V-A:PRO:540:N:4882, V-A:TYR:539:C:4865, V-B:TYR:539:CZ:9849, V-A:ILE:369:CG2:3234, V-A:ILE:538:CB:4860, V-A:PRO:540:CD:4885, V-A:ILE:538:CG2:4861, V-A:ARG:545:CG:4920, V-A:ARG:545:CD:4921, V-A:HIS:456:CE1:4066, V-A:ARG:545:CZ:4924, V-A:GLU:543:CD:4906, V-A:GLU:543:CG:4905, V-A:PRO:482:CG:4324, V-A:SER:385:CB:3406, V-A:PRO:482:CB:4323, V-A:SER:385:CA:3404, V-A:LEU:373:CD1:3277, H-A:ARG:545:NE:4922"]

$$$$
RR7_Rahimova_2017
     RDKit          3D

 80 86  0  0  0  0  0  0  0  0999 V2000
  123.8580  130.7850   62.4770 C   0  0  0  0  0  0  0  0  0  0  0  0
  124.5440  131.7570   61.6940 O   0  0  0  0  0  0  0  0  0  0  0  0
  125.7430  131.4160   61.0980 C   0  0  0  0  0  0  0  0  0  0  0  0
  126.8550  132.1750   61.4570 C   0  0  0  0  0  0  0  0  0  0  0  0
  128.1060  131.9030   60.9120 C   0  0  0  0  0  0  0  0  0  0  0  0
  128.2730  130.8660   59.9820 C   0  0  0  0  0  0  0  0  0  0  0  0
  129.6700  130.5170   59.3800 C   0  0  0  0  0  0  0  0  0  0  0  0
  129.6590  129.0940   59.1280 O   0  0  0  0  0  0  0  0  0  0  0  0
  130.0670  128.1800   60.1520 C   0  0  0  0  0  0  0  0  0  0  0  0
  128.8210  127.6780   60.8990 C   0  0  1  0  0  0  0  0  0  0  0  0
  128.6670  126.3010   60.5660 O   0  0  0  0  0  0  0  0  0  0  0  0
  128.6970  125.4820   61.7000 C   0  0  1  0  0  0  0  0  0  0  0  0
  129.3010  124.2040   61.3760 N   0  0  0  0  0  0  0  0  0  0  0  0
  128.6890  123.0830   60.8430 C   0  0  0  0  0  0  0  0  0  0  0  0
  129.4650  122.0380   60.6930 N   0  0  0  0  0  0  0  0  0  0  0  0
  130.6700  122.4510   61.1940 C   0  0  0  0  0  0  0  0  0  0  0  0
  131.9080  121.7940   61.3330 C   0  0  0  0  0  0  0  0  0  0  0  0
  132.0210  120.4640   60.8870 N   0  0  0  0  0  0  0  0  0  0  0  0
  131.1640  119.4310   61.0630 C   0  0  0  0  0  0  0  0  0  0  0  0
  130.1050  119.5060   61.6920 O   0  0  0  0  0  0  0  0  0  0  0  0
  131.5930  118.1120   60.4550 C   0  0  0  0  0  0  0  0  0  0  0  0
  130.6340  117.2770   59.8620 C   0  0  0  0  0  0  0  0  0  0  0  0
  131.0080  116.0630   59.2920 C   0  0  0  0  0  0  0  0  0  0  0  0
  132.3450  115.6760   59.3060 C   0  0  0  0  0  0  0  0  0  0  0  0
  133.3120  116.4930   59.8860 C   0  0  0  0  0  0  0  0  0  0  0  0
  132.9390  117.7070   60.4580 C   0  0  0  0  0  0  0  0  0  0  0  0
  132.9580  122.4630   61.8980 N   0  0  0  0  0  0  0  0  0  0  0  0
  132.7510  123.7430   62.3020 C   0  0  0  0  0  0  0  0  0  0  0  0
  131.6050  124.4700   62.2130 N   0  0  0  0  0  0  0  0  0  0  0  0
  130.5960  123.7920   61.6500 C   0  0  0  0  0  0  0  0  0  0  0  0
  129.4350  126.2920   62.7600 C   0  0  0  0  0  0  0  0  0  0  0  0
  128.9350  127.6880   62.4310 C   0  0  2  0  0  0  0  0  0  0  0  0
  127.6990  127.9730   63.0630 O   0  0  0  0  0  0  0  0  0  0  0  0
  129.9170  131.2170   58.0180 C   0  0  0  0  0  0  0  0  0  0  0  0
  129.1880  132.3650   57.6690 C   0  0  0  0  0  0  0  0  0  0  0  0
  129.3920  132.9930   56.4450 C   0  0  0  0  0  0  0  0  0  0  0  0
  130.3280  132.4780   55.5530 C   0  0  0  0  0  0  0  0  0  0  0  0
  131.0620  131.3410   55.8780 C   0  0  0  0  0  0  0  0  0  0  0  0
  130.8570  130.7120   57.1030 C   0  0  0  0  0  0  0  0  0  0  0  0
  130.8970  130.8770   60.2650 C   0  0  0  0  0  0  0  0  0  0  0  0
  132.1200  131.2300   59.6720 C   0  0  0  0  0  0  0  0  0  0  0  0
  133.2270  131.5450   60.4540 C   0  0  0  0  0  0  0  0  0  0  0  0
  133.1240  131.5020   61.8420 C   0  0  0  0  0  0  0  0  0  0  0  0
  131.9260  131.1420   62.4510 C   0  0  0  0  0  0  0  0  0  0  0  0
  130.8200  130.8280   61.6660 C   0  0  0  0  0  0  0  0  0  0  0  0
  127.1530  130.0960   59.6360 C   0  0  0  0  0  0  0  0  0  0  0  0
  125.9020  130.3670   60.1810 C   0  0  0  0  0  0  0  0  0  0  0  0
  124.0102  131.0006   63.5449 H   0  0  0  0  0  0  0  0  0  0  0  0
  122.7832  130.8197   62.2454 H   0  0  0  0  0  0  0  0  0  0  0  0
  124.2508  129.7840   62.2454 H   0  0  0  0  0  0  0  0  0  0  0  0
  126.7427  132.9976   62.1786 H   0  0  0  0  0  0  0  0  0  0  0  0
  128.9738  132.5079   61.2137 H   0  0  0  0  0  0  0  0  0  0  0  0
  130.5931  127.3276   59.6975 H   0  0  0  0  0  0  0  0  0  0  0  0
  130.7433  128.6875   60.8557 H   0  0  0  0  0  0  0  0  0  0  0  0
  127.9993  128.3478   60.6054 H   0  0  0  0  0  0  0  0  0  0  0  0
  127.7011  125.2154   62.0836 H   0  0  0  0  0  0  0  0  0  0  0  0
  127.6249  123.0702   60.5646 H   0  0  0  0  0  0  0  0  0  0  0  0
  132.8640  120.2670   60.3690 H   0  0  0  0  0  0  0  0  0  0  0  0
  129.5778  117.5840   59.8473 H   0  0  0  0  0  0  0  0  0  0  0  0
  130.2497  115.4121   58.8323 H   0  0  0  0  0  0  0  0  0  0  0  0
  132.6401  114.7170   58.8552 H   0  0  0  0  0  0  0  0  0  0  0  0
  134.3667  116.1808   59.8924 H   0  0  0  0  0  0  0  0  0  0  0  0
  133.7029  118.3531   60.9151 H   0  0  0  0  0  0  0  0  0  0  0  0
  133.6137  124.2529   62.7556 H   0  0  0  0  0  0  0  0  0  0  0  0
  129.1496  125.9867   63.7775 H   0  0  0  0  0  0  0  0  0  0  0  0
  130.5292  126.1796   62.7466 H   0  0  0  0  0  0  0  0  0  0  0  0
  129.6079  128.4779   62.7959 H   0  0  0  0  0  0  0  0  0  0  0  0
  127.6250  127.4270   63.8500 H   0  0  0  0  0  0  0  0  0  0  0  0
  128.4467  132.7726   58.3720 H   0  0  0  0  0  0  0  0  0  0  0  0
  128.8161  133.8928   56.1830 H   0  0  0  0  0  0  0  0  0  0  0  0
  130.4889  132.9732   54.5840 H   0  0  0  0  0  0  0  0  0  0  0  0
  131.8018  130.9406   55.1692 H   0  0  0  0  0  0  0  0  0  0  0  0
  131.4358  129.8118   57.3571 H   0  0  0  0  0  0  0  0  0  0  0  0
  132.2039  131.2578   58.5756 H   0  0  0  0  0  0  0  0  0  0  0  0
  134.1781  131.8264   59.9784 H   0  0  0  0  0  0  0  0  0  0  0  0
  133.9968  131.7547   62.4619 H   0  0  0  0  0  0  0  0  0  0  0  0
  131.8530  131.1056   63.5480 H   0  0  0  0  0  0  0  0  0  0  0  0
  129.8751  130.5382   62.1489 H   0  0  0  0  0  0  0  0  0  0  0  0
  127.2654  129.2657   58.9233 H   0  0  0  0  0  0  0  0  0  0  0  0
  125.0343  129.7561   59.8915 H   0  0  0  0  0  0  0  0  0  0  0  0
  1  2  1  0
  2  3  1  0
  3  4  2  0
  4  5  1  0
  5  6  2  0
  6  7  1  0
  7  8  1  0
  8  9  1  0
  9 10  1  0
 10 11  1  0
 11 12  1  0
 12 13  1  0
 13 14  1  0
 14 15  2  0
 15 16  1  0
 16 17  2  0
 17 18  1  0
 18 19  1  0
 19 20  2  0
 19 21  1  0
 21 22  2  0
 22 23  1  0
 23 24  2  0
 24 25  1  0
 25 26  2  0
 17 27  1  0
 27 28  2  0
 28 29  1  0
 29 30  2  0
 12 31  1  0
 31 32  1  0
 32 33  1  0
  7 34  1  0
 34 35  2  0
 35 36  1  0
 36 37  2  0
 37 38  1  0
 38 39  2  0
  7 40  1  0
 40 41  2  0
 41 42  1  0
 42 43  2  0
 43 44  1  0
 44 45  2  0
  6 46  1  0
 46 47  2  0
 47  3  1  0
 32 10  1  0
 39 34  1  0
 45 40  1  0
 30 13  1  0
 30 16  1  0
 26 21  1  0
  1 48  1  0
  1 49  1  0
  1 50  1  0
  4 51  1  0
  5 52  1  0
  9 53  1  0
  9 54  1  0
 10 55  1  1
 12 56  1  1
 14 57  1  0
 18 58  1  0
 22 59  1  0
 23 60  1  0
 24 61  1  0
 25 62  1  0
 26 63  1  0
 28 64  1  0
 31 65  1  0
 31 66  1  0
 32 67  1  6
 33 68  1  0
 35 69  1  0
 36 70  1  0
 37 71  1  0
 38 72  1  0
 39 73  1  0
 41 74  1  0
 42 75  1  0
 43 76  1  0
 44 77  1  0
 45 78  1  0
 46 79  1  0
 47 80  1  0
M  END
>  <Binding energies>  (1) 
[-10.8]

>  <Ligand effiencies>  (1) 
[-0.22040816326530613]

>  <Interactions>  (1) 
["V-A:MET:535:CE:4833, V-A:TYR:539:CE2:4874, V-A:ASP:366:CG:3210, V-A:TYR:531:CZ:4792, V-A:TYR:531:CE2:4791, V-A:PRO:540:CB:4883, V-A:PRO:540:CA:4881, V-A:ILE:538:CA:4858, V-A:TYR:539:CZ:4875, V-A:TYR:539:CE1:4873, V-A:TYR:539:CD2:4872, V-A:LEU:475:CD2:4256, V-B:GLU:543:CD:9880, V-B:TYR:539:CE1:9847, V-B:TYR:539:CD1:9845, V-A:TYR:539:CD1:4871, V-B:ILE:369:CD1:8210, V-A:TYR:539:CA:4867, V-A:ASN:362:C:3169, V-A:TYR:539:C:4865, V-A:TYR:539:CG:4870, V-B:TYR:539:CG:9844, V-A:ILE:538:CB:4860, V-A:ILE:538:CG2:4861, V-A:ILE:538:C:4856, V-B:GLY:453:CA:9015, V-A:ARG:545:CZ:4924, V-A:GLU:543:CD:4906, H-B:ARG:545:NH2:9900, V-A:ASN:362:CB:3173, V-A:PRO:482:CG:4324, V-A:SER:385:CB:3406, V-A:SER:385:CA:3404, V-B:TYR:539:CB:9843, V-A:HIS:383:CG:3387, V-A:LEU:373:CD2:3278, V-A:HIS:383:CB:3386, V-A:LEU:373:CD1:3277, H-B:GLU:543:OE1:9881, H-B:GLU:543:OE2:9882, V-A:VAL:384:C:3394, V-B:VAL:344:CG1:7972, V-A:HIS:383:CD2:3389"]

$$$$
RR8_A_Rahimova_2017
     RDKit          3D

 73 77  0  0  0  0  0  0  0  0999 V2000
  129.7540  132.4330   61.3860 O   0  0  0  0  0  0  0  0  0  0  0  0
  129.3120  131.2800   61.4460 C   0  0  0  0  0  0  0  0  0  0  0  0
  129.7070  130.2570   60.6260 O   0  0  0  0  0  0  0  0  0  0  0  0
  128.9400  130.0110   59.4800 C   0  0  1  0  0  0  0  0  0  0  0  0
  128.1880  128.8390   59.6040 O   0  0  0  0  0  0  0  0  0  0  0  0
  126.8950  128.9740   59.0200 C   0  0  2  0  0  0  0  0  0  0  0  0
  126.7080  127.8560   57.9800 C   0  0  0  0  0  0  0  0  0  0  0  0
  127.4760  126.7280   58.3760 O   0  0  0  0  0  0  0  0  0  0  0  0
  126.7410  125.7600   59.1140 C   0  0  0  0  0  0  0  0  0  0  0  0
  126.2890  124.6400   58.1890 C   0  0  0  0  0  0  0  0  0  0  0  0
  124.9280  124.3530   58.0550 C   0  0  0  0  0  0  0  0  0  0  0  0
  124.5120  123.3320   57.2040 C   0  0  0  0  0  0  0  0  0  0  0  0
  125.4570  122.6030   56.4860 C   0  0  0  0  0  0  0  0  0  0  0  0
  126.8160  122.8860   56.6090 C   0  0  0  0  0  0  0  0  0  0  0  0
  127.2320  123.9070   57.4590 C   0  0  0  0  0  0  0  0  0  0  0  0
  126.8950  130.4030   58.4600 C   0  0  1  0  0  0  0  0  0  0  0  0
  125.6450  131.0690   58.6250 O   0  0  0  0  0  0  0  0  0  0  0  0
  124.7480  130.4770   59.5570 C   0  0  0  0  0  0  0  0  0  0  0  0
  124.5320  131.4150   60.7370 C   0  0  0  0  0  0  0  0  0  0  0  0
  125.1910  132.6480   60.7730 C   0  0  0  0  0  0  0  0  0  0  0  0
  125.0050  133.5070   61.8520 C   0  0  0  0  0  0  0  0  0  0  0  0
  124.1620  133.1300   62.8970 C   0  0  0  0  0  0  0  0  0  0  0  0
  123.5080  131.9010   62.8730 C   0  0  0  0  0  0  0  0  0  0  0  0
  123.6950  131.0410   61.7930 C   0  0  0  0  0  0  0  0  0  0  0  0
  127.9070  131.1210   59.3340 C   0  0  2  0  0  0  0  0  0  0  0  0
  128.4040  132.2830   58.6750 O   0  0  0  0  0  0  0  0  0  0  0  0
  128.7880  132.1050   57.3160 C   0  0  0  0  0  0  0  0  0  0  0  0
  130.3040  132.0740   57.2050 C   0  0  0  0  0  0  0  0  0  0  0  0
  130.9230  132.2320   55.9600 C   0  0  0  0  0  0  0  0  0  0  0  0
  132.3120  132.2130   55.8650 C   0  0  0  0  0  0  0  0  0  0  0  0
  133.0800  132.0400   57.0150 C   0  0  0  0  0  0  0  0  0  0  0  0
  132.4720  131.8880   58.2590 C   0  0  0  0  0  0  0  0  0  0  0  0
  131.0820  131.9070   58.3550 C   0  0  0  0  0  0  0  0  0  0  0  0
  128.2800  130.8520   62.4490 C   0  0  0  0  0  0  0  0  0  0  0  0
  127.8590  129.5170   62.5570 C   0  0  0  0  0  0  0  0  0  0  0  0
  126.9000  129.1510   63.4970 C   0  0  0  0  0  0  0  0  0  0  0  0
  126.3350  130.1080   64.3510 C   0  0  0  0  0  0  0  0  0  0  0  0
  125.3140  129.7170   65.3530 N   0  0  0  0  0  0  0  0  0  0  0  0
  125.6840  129.1680   66.3860 O   0  0  0  0  0  0  0  0  0  0  0  0
  124.1340  129.9560   65.1140 O   0  0  0  0  0  0  0  0  0  0  0  0
  126.7540  131.4400   64.2410 C   0  0  0  0  0  0  0  0  0  0  0  0
  127.7130  131.8070   63.3020 C   0  0  0  0  0  0  0  0  0  0  0  0
  129.6383  129.9421   58.6329 H   0  0  0  0  0  0  0  0  0  0  0  0
  126.0424  128.8551   59.7048 H   0  0  0  0  0  0  0  0  0  0  0  0
  125.6452  127.5780   57.9233 H   0  0  0  0  0  0  0  0  0  0  0  0
  127.0408  128.2059   56.9917 H   0  0  0  0  0  0  0  0  0  0  0  0
  127.3796  125.3433   59.9068 H   0  0  0  0  0  0  0  0  0  0  0  0
  125.8581  126.2391   59.5622 H   0  0  0  0  0  0  0  0  0  0  0  0
  124.1851  124.9335   58.6217 H   0  0  0  0  0  0  0  0  0  0  0  0
  123.4414  123.1022   57.0993 H   0  0  0  0  0  0  0  0  0  0  0  0
  125.1274  121.7959   55.8152 H   0  0  0  0  0  0  0  0  0  0  0  0
  127.5557  122.3060   56.0377 H   0  0  0  0  0  0  0  0  0  0  0  0
  128.3030  124.1380   57.5571 H   0  0  0  0  0  0  0  0  0  0  0  0
  127.1093  130.3937   57.3811 H   0  0  0  0  0  0  0  0  0  0  0  0
  123.7841  130.2841   59.0633 H   0  0  0  0  0  0  0  0  0  0  0  0
  125.1759  129.5310   59.9203 H   0  0  0  0  0  0  0  0  0  0  0  0
  125.8571  132.9392   59.9475 H   0  0  0  0  0  0  0  0  0  0  0  0
  125.5203  134.4784   61.8804 H   0  0  0  0  0  0  0  0  0  0  0  0
  124.0123  133.8101   63.7485 H   0  0  0  0  0  0  0  0  0  0  0  0
  122.8469  131.6105   63.7028 H   0  0  0  0  0  0  0  0  0  0  0  0
  123.1839  130.0672   61.7709 H   0  0  0  0  0  0  0  0  0  0  0  0
  127.5404  131.5145   60.2935 H   0  0  0  0  0  0  0  0  0  0  0  0
  128.3757  131.1562   56.9420 H   0  0  0  0  0  0  0  0  0  0  0  0
  128.3987  132.9419   56.7177 H   0  0  0  0  0  0  0  0  0  0  0  0
  130.3120  132.3713   55.0560 H   0  0  0  0  0  0  0  0  0  0  0  0
  132.8008  132.3340   54.8870 H   0  0  0  0  0  0  0  0  0  0  0  0
  134.1773  132.0233   56.9396 H   0  0  0  0  0  0  0  0  0  0  0  0
  133.0864  131.7536   59.1615 H   0  0  0  0  0  0  0  0  0  0  0  0
  130.5967  131.7906   59.3353 H   0  0  0  0  0  0  0  0  0  0  0  0
  128.2908  128.7537   61.8930 H   0  0  0  0  0  0  0  0  0  0  0  0
  126.5824  128.1004   63.5704 H   0  0  0  0  0  0  0  0  0  0  0  0
  126.3206  132.2036   64.9036 H   0  0  0  0  0  0  0  0  0  0  0  0
  128.0290  132.8581   63.2289 H   0  0  0  0  0  0  0  0  0  0  0  0
  1  2  2  0
  2  3  1  0
  3  4  1  0
  4  5  1  0
  5  6  1  0
  6  7  1  0
  7  8  1  0
  8  9  1  0
  9 10  1  0
 10 11  2  0
 11 12  1  0
 12 13  2  0
 13 14  1  0
 14 15  2  0
  6 16  1  0
 16 17  1  0
 17 18  1  0
 18 19  1  0
 19 20  2  0
 20 21  1  0
 21 22  2  0
 22 23  1  0
 23 24  2  0
 16 25  1  0
 25 26  1  0
 26 27  1  0
 27 28  1  0
 28 29  2  0
 29 30  1  0
 30 31  2  0
 31 32  1  0
 32 33  2  0
  2 34  1  0
 34 35  2  0
 35 36  1  0
 36 37  2  0
 37 38  1  0
 38 39  2  0
 38 40  1  0
 37 41  1  0
 41 42  2  0
 25  4  1  0
 33 28  1  0
 42 34  1  0
 15 10  1  0
 24 19  1  0
  4 43  1  6
  6 44  1  1
  7 45  1  0
  7 46  1  0
  9 47  1  0
  9 48  1  0
 11 49  1  0
 12 50  1  0
 13 51  1  0
 14 52  1  0
 15 53  1  0
 16 54  1  6
 18 55  1  0
 18 56  1  0
 20 57  1  0
 21 58  1  0
 22 59  1  0
 23 60  1  0
 24 61  1  0
 25 62  1  1
 27 63  1  0
 27 64  1  0
 29 65  1  0
 30 66  1  0
 31 67  1  0
 32 68  1  0
 33 69  1  0
 35 70  1  0
 36 71  1  0
 41 72  1  0
 42 73  1  0
M  CHG  2  38   1  40  -1
M  END
>  <Binding energies>  (1) 
[-10.32]

>  <Ligand effiencies>  (1) 
[-0.24571428571428572]

>  <Interactions>  (1) 
["V-A:MET:535:CE:4833, V-B:ASP:366:CG:8184, V-A:TYR:531:CE2:4791, H-A:ALA:541:N:4889, H-A:TYR:539:OH:4876, V-A:PRO:540:CB:4883, V-A:PRO:540:CA:4881, V-A:ILE:538:CA:4858, V-A:LEU:363:CD1:3186, V-A:TYR:539:CZ:4875, V-B:ASP:366:CB:8183, V-A:TYR:539:CE1:4873, V-B:PRO:540:CB:9857, V-B:LEU:363:CD1:8160, V-B:ILE:538:CG2:9835, V-B:ILE:538:CB:9834, V-B:ILE:538:CA:9832, V-B:PRO:540:CD:9859, V-B:PRO:540:N:9856, V-A:TYR:539:CD1:4871, V-B:ILE:369:CD1:8210, V-A:ALA:541:CB:4890, V-A:PRO:540:N:4882, V-B:ILE:369:CG2:8208, V-B:TYR:531:CE2:9765, V-B:ARG:545:CZ:9898, V-A:ILE:538:CB:4860, V-B:LEU:475:CD2:9230, V-A:ILE:538:CG2:4861, V-B:GLY:453:CA:9015, V-B:GLY:453:C:9013, V-B:GLY:454:CA:9020, H-B:TYR:484:OH:9319, H-B:GLY:454:N:9021, V-A:GLU:543:CD:4906, H-B:ARG:545:NE:9896"]

$$$$
RR8_B_Rahimova_2017
     RDKit          3D

 73 77  0  0  0  0  0  0  0  0999 V2000
  134.2300  123.9980   58.2190 O   0  0  0  0  0  0  0  0  0  0  0  0
  133.1700  124.2990   58.7770 C   0  0  0  0  0  0  0  0  0  0  0  0
  131.9730  124.4520   58.1320 O   0  0  0  0  0  0  0  0  0  0  0  0
  131.9260  125.3060   57.0150 C   0  0  2  0  0  0  0  0  0  0  0  0
  132.1080  126.6460   57.3750 O   0  0  0  0  0  0  0  0  0  0  0  0
  130.8610  127.2910   57.6330 C   0  0  2  0  0  0  0  0  0  0  0  0
  130.8580  127.8460   59.0690 C   0  0  0  0  0  0  0  0  0  0  0  0
  130.1240  129.0640   59.0970 O   0  0  0  0  0  0  0  0  0  0  0  0
  130.9180  130.2410   59.1090 C   0  0  0  0  0  0  0  0  0  0  0  0
  130.5670  131.0950   57.9000 C   0  0  0  0  0  0  0  0  0  0  0  0
  129.3070  131.6960   57.8180 C   0  0  0  0  0  0  0  0  0  0  0  0
  128.9700  132.4580   56.7020 C   0  0  0  0  0  0  0  0  0  0  0  0
  129.8960  132.6200   55.6740 C   0  0  0  0  0  0  0  0  0  0  0  0
  131.1560  132.0300   55.7520 C   0  0  0  0  0  0  0  0  0  0  0  0
  131.4910  131.2650   56.8660 C   0  0  0  0  0  0  0  0  0  0  0  0
  129.8090  126.2140   57.3410 C   0  0  1  0  0  0  0  0  0  0  0  0
  128.6470  126.8150   56.7620 O   0  0  0  0  0  0  0  0  0  0  0  0
  128.6450  128.2390   56.6390 C   0  0  0  0  0  0  0  0  0  0  0  0
  127.2680  128.8400   56.9080 C   0  0  0  0  0  0  0  0  0  0  0  0
  126.7400  128.8300   58.2020 C   0  0  0  0  0  0  0  0  0  0  0  0
  125.4980  129.4080   58.4500 C   0  0  0  0  0  0  0  0  0  0  0  0
  124.7860  129.9900   57.4030 C   0  0  0  0  0  0  0  0  0  0  0  0
  125.3040  129.9990   56.1100 C   0  0  0  0  0  0  0  0  0  0  0  0
  126.5490  129.4240   55.8620 C   0  0  0  0  0  0  0  0  0  0  0  0
  130.5300  125.2580   56.3960 C   0  0  2  0  0  0  0  0  0  0  0  0
  129.9250  123.9680   56.4390 O   0  0  0  0  0  0  0  0  0  0  0  0
  129.2370  123.6520   57.6400 C   0  0  0  0  0  0  0  0  0  0  0  0
  127.7590  123.5210   57.3200 C   0  0  0  0  0  0  0  0  0  0  0  0
  127.3440  123.1170   56.0470 C   0  0  0  0  0  0  0  0  0  0  0  0
  125.9850  123.0190   55.7600 C   0  0  0  0  0  0  0  0  0  0  0  0
  125.0470  123.3250   56.7430 C   0  0  0  0  0  0  0  0  0  0  0  0
  125.4530  123.7270   58.0140 C   0  0  0  0  0  0  0  0  0  0  0  0
  126.8110  123.8240   58.3030 C   0  0  0  0  0  0  0  0  0  0  0  0
  133.0660  124.5730   60.2500 C   0  0  0  0  0  0  0  0  0  0  0  0
  131.9520  125.2200   60.8040 C   0  0  0  0  0  0  0  0  0  0  0  0
  131.8870  125.4680   62.1710 C   0  0  0  0  0  0  0  0  0  0  0  0
  132.9360  125.0870   63.0160 C   0  0  0  0  0  0  0  0  0  0  0  0
  132.8760  125.3770   64.4700 N   0  0  0  0  0  0  0  0  0  0  0  0
  133.9290  125.4890   65.0920 O   0  0  0  0  0  0  0  0  0  0  0  0
  131.7740  125.4990   65.0010 O   0  0  0  0  0  0  0  0  0  0  0  0
  134.0450  124.4350   62.4630 C   0  0  0  0  0  0  0  0  0  0  0  0
  134.1080  124.1790   61.0970 C   0  0  0  0  0  0  0  0  0  0  0  0
  132.7193  124.9686   56.3318 H   0  0  0  0  0  0  0  0  0  0  0  0
  130.6547  128.1730   57.0089 H   0  0  0  0  0  0  0  0  0  0  0  0
  130.3870  127.1167   59.7445 H   0  0  0  0  0  0  0  0  0  0  0  0
  131.8918  128.0294   59.3970 H   0  0  0  0  0  0  0  0  0  0  0  0
  130.7200  130.8087   60.0301 H   0  0  0  0  0  0  0  0  0  0  0  0
  131.9830  129.9681   59.0714 H   0  0  0  0  0  0  0  0  0  0  0  0
  128.5819  131.5669   58.6351 H   0  0  0  0  0  0  0  0  0  0  0  0
  127.9784  132.9292   56.6327 H   0  0  0  0  0  0  0  0  0  0  0  0
  129.6298  133.2200   54.7913 H   0  0  0  0  0  0  0  0  0  0  0  0
  131.8823  132.1680   54.9375 H   0  0  0  0  0  0  0  0  0  0  0  0
  132.4831  130.7945   56.9320 H   0  0  0  0  0  0  0  0  0  0  0  0
  129.4391  125.6847   58.2315 H   0  0  0  0  0  0  0  0  0  0  0  0
  129.3613  128.6578   57.3612 H   0  0  0  0  0  0  0  0  0  0  0  0
  128.9258  128.4886   55.6052 H   0  0  0  0  0  0  0  0  0  0  0  0
  127.3052  128.3659   59.0237 H   0  0  0  0  0  0  0  0  0  0  0  0
  125.0806  129.4053   59.4677 H   0  0  0  0  0  0  0  0  0  0  0  0
  123.8049  130.4470   57.5996 H   0  0  0  0  0  0  0  0  0  0  0  0
  124.7334  130.4576   55.2890 H   0  0  0  0  0  0  0  0  0  0  0  0
  126.9652  129.4299   54.8438 H   0  0  0  0  0  0  0  0  0  0  0  0
  130.5131  125.5086   55.3251 H   0  0  0  0  0  0  0  0  0  0  0  0
  129.6153  122.7027   58.0471 H   0  0  0  0  0  0  0  0  0  0  0  0
  129.3950  124.4432   58.3877 H   0  0  0  0  0  0  0  0  0  0  0  0
  128.0894  122.8772   55.2744 H   0  0  0  0  0  0  0  0  0  0  0  0
  125.6534  122.7011   54.7605 H   0  0  0  0  0  0  0  0  0  0  0  0
  123.9739  123.2485   56.5136 H   0  0  0  0  0  0  0  0  0  0  0  0
  124.7048  123.9662   58.7841 H   0  0  0  0  0  0  0  0  0  0  0  0
  127.1389  124.1390   59.3046 H   0  0  0  0  0  0  0  0  0  0  0  0
  131.1232  125.5338   60.1524 H   0  0  0  0  0  0  0  0  0  0  0  0
  131.0026  125.9684   62.5923 H   0  0  0  0  0  0  0  0  0  0  0  0
  134.8741  124.1223   63.1148 H   0  0  0  0  0  0  0  0  0  0  0  0
  134.9846  123.6623   60.6790 H   0  0  0  0  0  0  0  0  0  0  0  0
  1  2  2  0
  2  3  1  0
  3  4  1  0
  4  5  1  0
  5  6  1  0
  6  7  1  0
  7  8  1  0
  8  9  1  0
  9 10  1  0
 10 11  2  0
 11 12  1  0
 12 13  2  0
 13 14  1  0
 14 15  2  0
  6 16  1  0
 16 17  1  0
 17 18  1  0
 18 19  1  0
 19 20  2  0
 20 21  1  0
 21 22  2  0
 22 23  1  0
 23 24  2  0
 16 25  1  0
 25 26  1  0
 26 27  1  0
 27 28  1  0
 28 29  2  0
 29 30  1  0
 30 31  2  0
 31 32  1  0
 32 33  2  0
  2 34  1  0
 34 35  2  0
 35 36  1  0
 36 37  2  0
 37 38  1  0
 38 39  2  0
 38 40  1  0
 37 41  1  0
 41 42  2  0
 25  4  1  0
 33 28  1  0
 42 34  1  0
 15 10  1  0
 24 19  1  0
  4 43  1  6
  6 44  1  6
  7 45  1  0
  7 46  1  0
  9 47  1  0
  9 48  1  0
 11 49  1  0
 12 50  1  0
 13 51  1  0
 14 52  1  0
 15 53  1  0
 16 54  1  1
 18 55  1  0
 18 56  1  0
 20 57  1  0
 21 58  1  0
 22 59  1  0
 23 60  1  0
 24 61  1  0
 25 62  1  6
 27 63  1  0
 27 64  1  0
 29 65  1  0
 30 66  1  0
 31 67  1  0
 32 68  1  0
 33 69  1  0
 35 70  1  0
 36 71  1  0
 41 72  1  0
 42 73  1  0
M  CHG  2  38   1  40  -1
M  END
>  <Binding energies>  (1) 
[-10.67]

>  <Ligand effiencies>  (1) 
[-0.254047619047619]

>  <Interactions>  (1) 
["V-A:MET:535:CE:4833, V-B:ASP:366:CG:8184, V-A:TYR:539:CE2:4874, V-A:ASP:366:CG:3210, V-A:ASP:366:CB:3209, H-A:TYR:531:OH:4793, V-A:ILE:538:CA:4858, V-A:TYR:539:CZ:4875, V-B:ASP:366:CB:8183, V-A:TYR:539:CE1:4873, V-A:TYR:539:CD2:4872, V-B:PRO:540:CA:9855, V-B:PRO:540:CB:9857, V-B:LEU:363:CD1:8160, V-B:MET:535:CE:9807, V-A:ASP:366:CA:3207, V-B:ILE:538:CG2:9835, V-B:ILE:538:CB:9834, V-B:ILE:538:CA:9832, V-B:TYR:539:CE1:9847, V-B:TYR:539:CD1:9845, V-A:TYR:539:CD1:4871, V-A:TYR:539:CG:4870, V-B:TYR:539:CZ:9849, V-A:ILE:369:CD1:3236, V-B:TYR:531:CE2:9765, V-A:ILE:369:CG2:3234, H-B:TYR:539:OH:9850, V-A:ILE:538:CB:4860, V-A:ILE:538:CG2:4861, V-A:ILE:538:C:4856, H-A:GLY:454:N:4047, V-A:GLY:454:CA:4046, H-A:TYR:484:OH:4345, V-B:TYR:531:CZ:9766, V-A:GLY:453:CA:4041, V-A:ARG:545:CZ:4924, V-B:TYR:531:CE1:9764, V-B:ASN:370:CG:8217, V-B:ASP:366:CA:8181, V-B:ASN:370:CB:8216, V-A:GLY:453:C:4039, H-A:ARG:545:NE:4922, H-A:ARG:545:NH1:4925"]

$$$$
RR9_Rahimova_2017
     RDKit          3D

 64 68  0  0  0  0  0  0  0  0999 V2000
  131.2490  115.3720   58.4810 C   0  0  0  0  0  0  0  0  0  0  0  0
  131.7300  114.9850   59.8830 C   0  0  0  0  0  0  0  0  0  0  0  0
  132.7730  115.8750   60.2710 O   0  0  0  0  0  0  0  0  0  0  0  0
  132.4790  117.2060   60.4970 C   0  0  0  0  0  0  0  0  0  0  0  0
  131.1750  117.4990   60.8920 C   0  0  0  0  0  0  0  0  0  0  0  0
  130.7870  118.8110   61.1390 C   0  0  0  0  0  0  0  0  0  0  0  0
  131.6950  119.8720   60.9990 C   0  0  0  0  0  0  0  0  0  0  0  0
  131.2810  121.2890   61.2600 C   0  0  0  0  0  0  0  0  0  0  0  0
  129.9390  121.6920   61.1770 C   0  0  0  0  0  0  0  0  0  0  0  0
  129.5540  123.0190   61.4350 C   0  0  0  0  0  0  0  0  0  0  0  0
  128.0900  123.3650   61.4290 C   0  0  0  0  0  0  0  0  0  0  0  0
  127.3340  122.8880   62.2760 O   0  0  0  0  0  0  0  0  0  0  0  0
  127.6860  124.1880   60.4410 N   0  0  0  0  0  0  0  0  0  0  0  0
  126.2990  124.5630   60.1470 C   0  0  0  0  0  0  0  0  0  0  0  0
  125.5960  123.5760   59.1860 C   0  0  0  0  0  0  0  0  0  0  0  0
  126.3470  123.3080   57.8870 C   0  0  0  0  0  0  0  0  0  0  0  0
  127.6560  122.8170   57.9220 C   0  0  0  0  0  0  0  0  0  0  0  0
  128.3270  122.5410   56.7330 C   0  0  0  0  0  0  0  0  0  0  0  0
  127.6900  122.7610   55.5140 C   0  0  0  0  0  0  0  0  0  0  0  0
  126.3870  123.2550   55.4720 C   0  0  0  0  0  0  0  0  0  0  0  0
  125.7150  123.5300   56.6600 C   0  0  0  0  0  0  0  0  0  0  0  0
  130.5980  123.9250   61.7470 C   0  0  0  0  0  0  0  0  0  0  0  0
  130.7660  125.3280   62.0450 C   0  0  0  0  0  0  0  0  0  0  0  0
  129.7540  126.4260   62.0460 C   0  0  0  0  0  0  0  0  0  0  0  0
  129.2060  126.8780   60.8420 C   0  0  0  0  0  0  0  0  0  0  0  0
  128.2740  127.9130   60.8440 C   0  0  0  0  0  0  0  0  0  0  0  0
  127.8840  128.4970   62.0510 C   0  0  0  0  0  0  0  0  0  0  0  0
  126.8820  129.6380   62.0510 C   0  0  0  0  0  0  0  0  0  0  0  0
  128.4310  128.0500   63.2540 C   0  0  0  0  0  0  0  0  0  0  0  0
  129.3600  127.0130   63.2510 C   0  0  0  0  0  0  0  0  0  0  0  0
  132.0230  125.5930   62.3220 N   0  0  0  0  0  0  0  0  0  0  0  0
  132.7270  124.4590   62.1720 N   0  0  0  0  0  0  0  0  0  0  0  0
  131.9150  123.4110   61.8110 C   0  0  0  0  0  0  0  0  0  0  0  0
  132.2860  122.1530   61.5780 N   0  0  0  0  0  0  0  0  0  0  0  0
  133.0040  119.5700   60.5990 C   0  0  0  0  0  0  0  0  0  0  0  0
  133.3960  118.2560   60.3520 C   0  0  0  0  0  0  0  0  0  0  0  0
  130.3944  116.0596   58.5634 H   0  0  0  0  0  0  0  0  0  0  0  0
  132.0666  115.8669   57.9365 H   0  0  0  0  0  0  0  0  0  0  0  0
  130.9406  114.4674   57.9365 H   0  0  0  0  0  0  0  0  0  0  0  0
  130.8948  115.0611   60.5948 H   0  0  0  0  0  0  0  0  0  0  0  0
  132.1032  113.9502   59.8784 H   0  0  0  0  0  0  0  0  0  0  0  0
  130.4455  116.6841   61.0095 H   0  0  0  0  0  0  0  0  0  0  0  0
  129.7526  119.0207   61.4489 H   0  0  0  0  0  0  0  0  0  0  0  0
  129.1715  120.9528   60.9040 H   0  0  0  0  0  0  0  0  0  0  0  0
  128.3910  124.5970   59.8450 H   0  0  0  0  0  0  0  0  0  0  0  0
  125.7364  124.5929   61.0917 H   0  0  0  0  0  0  0  0  0  0  0  0
  126.3220  125.5446   59.6510 H   0  0  0  0  0  0  0  0  0  0  0  0
  125.4681  122.6183   59.7117 H   0  0  0  0  0  0  0  0  0  0  0  0
  124.6421  124.0447   58.9024 H   0  0  0  0  0  0  0  0  0  0  0  0
  128.1553  122.6489   58.8877 H   0  0  0  0  0  0  0  0  0  0  0  0
  129.3553  122.1511   56.7566 H   0  0  0  0  0  0  0  0  0  0  0  0
  128.2202  122.5428   54.5753 H   0  0  0  0  0  0  0  0  0  0  0  0
  125.8921  123.4267   54.5047 H   0  0  0  0  0  0  0  0  0  0  0  0
  124.6875  123.9217   56.6331 H   0  0  0  0  0  0  0  0  0  0  0  0
  129.5113  126.4156   59.8917 H   0  0  0  0  0  0  0  0  0  0  0  0
  127.8456  128.2700   59.8958 H   0  0  0  0  0  0  0  0  0  0  0  0
  126.6401  129.9135   63.0881 H   0  0  0  0  0  0  0  0  0  0  0  0
  127.3149  130.5062   61.5325 H   0  0  0  0  0  0  0  0  0  0  0  0
  125.9652  129.3209   61.5325 H   0  0  0  0  0  0  0  0  0  0  0  0
  128.1288  128.5161   64.2034 H   0  0  0  0  0  0  0  0  0  0  0  0
  129.7850  126.6548   64.2002 H   0  0  0  0  0  0  0  0  0  0  0  0
  133.7250  124.4500   62.3260 H   0  0  0  0  0  0  0  0  0  0  0  0
  133.7340  120.3840   60.4781 H   0  0  0  0  0  0  0  0  0  0  0  0
  134.4294  118.0418   60.0419 H   0  0  0  0  0  0  0  0  0  0  0  0
  1  2  1  0
  2  3  1  0
  3  4  1  0
  4  5  2  0
  5  6  1  0
  6  7  2  0
  7  8  1  0
  8  9  2  0
  9 10  1  0
 10 11  1  0
 11 12  2  0
 11 13  1  0
 13 14  1  0
 14 15  1  0
 15 16  1  0
 16 17  2  0
 17 18  1  0
 18 19  2  0
 19 20  1  0
 20 21  2  0
 10 22  2  0
 22 23  1  0
 23 24  1  0
 24 25  2  0
 25 26  1  0
 26 27  2  0
 27 28  1  0
 27 29  1  0
 29 30  2  0
 23 31  2  0
 31 32  1  0
 32 33  1  0
 33 34  2  0
  7 35  1  0
 35 36  2  0
 36  4  1  0
 34  8  1  0
 21 16  1  0
 33 22  1  0
 30 24  1  0
  1 37  1  0
  1 38  1  0
  1 39  1  0
  2 40  1  0
  2 41  1  0
  5 42  1  0
  6 43  1  0
  9 44  1  0
 13 45  1  0
 14 46  1  0
 14 47  1  0
 15 48  1  0
 15 49  1  0
 17 50  1  0
 18 51  1  0
 19 52  1  0
 20 53  1  0
 21 54  1  0
 25 55  1  0
 26 56  1  0
 28 57  1  0
 28 58  1  0
 28 59  1  0
 29 60  1  0
 30 61  1  0
 32 62  1  0
 35 63  1  0
 36 64  1  0
M  END
>  <Binding energies>  (1) 
[-9.57]

>  <Ligand effiencies>  (1) 
[-0.2518421052631579]

>  <Interactions>  (1) 
["V-B:PRO:540:CA:9855, V-B:ALA:541:CB:9864, V-B:PRO:540:CB:9857, V-B:MET:535:CE:9807, V-B:ILE:538:CG2:9835, V-B:ILE:538:CB:9834, V-B:ILE:538:CA:9832, V-B:PRO:540:N:9856, V-A:LEU:475:CD2:4256, V-B:GLU:543:CD:9880, V-B:TYR:539:C:9839, V-B:TYR:539:CE1:9847, V-B:TYR:539:CD1:9845, V-B:TYR:539:CG:9844, V-B:TYR:539:CZ:9849, V-A:ILE:369:CG2:3234, H-A:ASP:366:OD1:3211, V-B:TYR:539:CE2:9848, H-A:ARG:545:NH2:4926, H-B:ALA:541:N:9863, V-A:GLU:543:CD:4906, V-B:ILE:538:C:9830, V-B:TYR:539:CD2:9846, V-A:PRO:482:CG:4324, V-A:SER:385:CB:3406, V-A:PRO:482:CB:4323, V-A:SER:385:CA:3404, V-B:TYR:539:CB:9843, V-A:HIS:383:CG:3387, V-A:HIS:383:CB:3386, V-A:LEU:373:CD1:3277, V-B:VAL:344:CG1:7972, V-B:ILE:343:CD1:7965, V-A:HIS:383:CD2:3389, V-A:HIS:383:CE1:3391, V-B:ILE:343:CG1:7964"]

$$$$
