1a_Grossjean_2025
     RDKit          3D

 26 27  0  0  0  0  0  0  0  0999 V2000
  132.7830  132.3670   56.9780 C   0  0  0  0  0  0  0  0  0  0  0  0
  131.5440  132.4300   56.0810 C   0  0  0  0  0  0  0  0  0  0  0  0
  130.4520  132.9680   56.8160 O   0  0  0  0  0  0  0  0  0  0  0  0
  129.9220  132.2990   57.8730 C   0  0  0  0  0  0  0  0  0  0  0  0
  129.6150  132.8440   58.9380 O   0  0  0  0  0  0  0  0  0  0  0  0
  129.7600  130.8270   57.6230 C   0  0  0  0  0  0  0  0  0  0  0  0
  130.6980  129.9350   58.1590 C   0  0  0  0  0  0  0  0  0  0  0  0
  130.5770  128.5660   57.9420 C   0  0  0  0  0  0  0  0  0  0  0  0
  129.5210  128.0590   57.1830 C   0  0  0  0  0  0  0  0  0  0  0  0
  129.5000  126.6600   57.0250 N   0  0  0  0  0  0  0  0  0  0  0  0
  130.2400  125.8660   56.2230 C   0  0  0  0  0  0  0  0  0  0  0  0
  131.1150  126.2490   55.4460 O   0  0  0  0  0  0  0  0  0  0  0  0
  129.9330  124.3700   56.3180 C   0  0  0  0  0  0  0  0  0  0  0  0
  129.7320  123.8190   58.0390 S   0  0  0  0  0  0  0  0  0  0  0  0
  127.9870  123.7280   58.3710 C   0  0  0  0  0  0  0  0  0  0  0  0
  127.6400  124.1740   59.6040 N   0  0  0  0  0  0  0  0  0  0  0  0
  126.3350  124.1440   59.9630 C   0  0  0  0  0  0  0  0  0  0  0  0
  126.0240  124.6460   61.3610 C   0  0  0  0  0  0  0  0  0  0  0  0
  125.3310  123.6830   59.1140 C   0  0  0  0  0  0  0  0  0  0  0  0
  125.6760  123.2410   57.8320 C   0  0  0  0  0  0  0  0  0  0  0  0
  124.5570  122.7540   56.9130 C   0  0  0  0  0  0  0  0  0  0  0  0
  127.0320  123.2660   57.4340 C   0  0  0  0  0  0  0  0  0  0  0  0
  127.4110  122.8530   56.0790 C   0  0  0  0  0  0  0  0  0  0  0  0
  127.7080  122.5270   55.0100 N   0  0  0  0  0  0  0  0  0  0  0  0
  128.5730  128.9450   56.6490 C   0  0  0  0  0  0  0  0  0  0  0  0
  128.6940  130.3140   56.8670 C   0  0  0  0  0  0  0  0  0  0  0  0
  1  2  1  0
  2  3  1  0
  3  4  1  0
  4  5  2  0
  4  6  1  0
  6  7  2  0
  7  8  1  0
  8  9  2  0
  9 10  1  0
 10 11  1  0
 11 12  2  0
 11 13  1  0
 13 14  1  0
 14 15  1  0
 15 16  2  0
 16 17  1  0
 17 18  1  0
 17 19  2  0
 19 20  1  0
 20 21  1  0
 20 22  2  0
 22 23  1  0
 23 24  3  0
  9 25  1  0
 25 26  2  0
 26  6  1  0
 22 15  1  0
M  END
>  <Binding energies>  (1) 
[-8.0]

>  <Ligand effiencies>  (1) 
[-0.2962962962962963]

>  <Interactions>  (1) 
["V-A:MET:535:CE:4833, V-A:PRO:540:CB:4883, V-A:PRO:540:CA:4881, H-A:TYR:531:OH:4793, V-A:ILE:538:CA:4858, V-A:LEU:363:CD1:3186, H-A:TYR:539:N:4868, V-B:PRO:540:CA:9855, V-B:PRO:540:CB:9857, V-B:LEU:363:CD1:8160, V-B:MET:535:CE:9807, V-B:PRO:540:CG:9858, V-B:ILE:538:CG2:9835, V-B:ILE:538:CB:9834, V-B:ILE:538:CA:9832, V-B:PRO:540:CD:9859, V-B:PRO:540:N:9856, V-B:TYR:539:CE1:9847, V-A:PRO:540:N:4882, V-A:TYR:539:C:4865, H-B:TYR:539:N:9842, V-B:TYR:539:CZ:9849, V-A:ILE:538:CB:4860, V-A:PRO:540:CD:4885, V-A:ILE:538:CG2:4861, V-B:TYR:539:CE2:9848, V-A:PRO:540:CG:4884"]

$$$$
1aa_Ghoteimi_2023
     RDKit          3D

 40 43  0  0  0  0  0  0  0  0999 V2000
  128.9740  123.1950   57.2670 C   0  0  0  0  0  0  0  0  0  0  0  0
  127.7420  123.1070   56.3610 C   0  0  0  0  0  0  0  0  0  0  0  0
  126.7380  122.3290   57.0010 O   0  0  0  0  0  0  0  0  0  0  0  0
  125.6860  122.9180   57.6240 C   0  0  0  0  0  0  0  0  0  0  0  0
  124.5070  122.6570   57.3640 O   0  0  0  0  0  0  0  0  0  0  0  0
  126.0970  123.9210   58.6630 C   0  0  0  0  0  0  0  0  0  0  0  0
  126.5130  125.2170   58.3200 C   0  0  0  0  0  0  0  0  0  0  0  0
  126.8880  126.1270   59.3060 C   0  0  0  0  0  0  0  0  0  0  0  0
  126.8510  125.7550   60.6580 C   0  0  0  0  0  0  0  0  0  0  0  0
  127.2070  126.5860   61.7370 N   0  0  0  0  0  0  0  0  0  0  0  0
  127.6630  127.8600   61.7480 C   0  0  0  0  0  0  0  0  0  0  0  0
  127.8470  128.5500   60.7460 O   0  0  0  0  0  0  0  0  0  0  0  0
  127.9680  128.4860   63.1190 C   0  0  0  0  0  0  0  0  0  0  0  0
  127.2630  129.7250   63.2720 O   0  0  0  0  0  0  0  0  0  0  0  0
  127.6510  130.8460   62.5520 C   0  0  0  0  0  0  0  0  0  0  0  0
  128.8420  130.8050   61.8940 N   0  0  0  0  0  0  0  0  0  0  0  0
  129.2630  131.8880   61.1890 C   0  0  0  0  0  0  0  0  0  0  0  0
  130.5860  131.7620   60.4900 C   0  0  0  0  0  0  0  0  0  0  0  0
  130.6700  131.8030   59.0900 C   0  0  0  0  0  0  0  0  0  0  0  0
  131.8950  131.6840   58.4400 C   0  0  0  0  0  0  0  0  0  0  0  0
  133.0720  131.5220   59.1660 C   0  0  0  0  0  0  0  0  0  0  0  0
  134.2400  131.4110   58.4360 O   0  0  0  0  0  0  0  0  0  0  0  0
  134.2400  130.6420   57.2380 C   0  0  0  0  0  0  0  0  0  0  0  0
  133.0050  131.4840   60.5660 C   0  0  0  0  0  0  0  0  0  0  0  0
  131.7790  131.6040   61.2130 C   0  0  0  0  0  0  0  0  0  0  0  0
  128.4730  133.0420   61.1160 C   0  0  0  0  0  0  0  0  0  0  0  0
  127.2380  133.1070   61.7750 C   0  0  0  0  0  0  0  0  0  0  0  0
  126.4390  134.3620   61.6500 C   0  0  0  0  0  0  0  0  0  0  0  0
  127.0730  135.6070   61.6980 C   0  0  0  0  0  0  0  0  0  0  0  0
  126.3370  136.7820   61.5720 C   0  0  0  0  0  0  0  0  0  0  0  0
  124.9550  136.7370   61.3900 C   0  0  0  0  0  0  0  0  0  0  0  0
  124.3070  137.9510   61.2750 O   0  0  0  0  0  0  0  0  0  0  0  0
  125.0780  139.1400   61.1440 C   0  0  0  0  0  0  0  0  0  0  0  0
  124.3150  135.4890   61.3330 C   0  0  0  0  0  0  0  0  0  0  0  0
  125.0540  134.3160   61.4600 C   0  0  0  0  0  0  0  0  0  0  0  0
  126.8210  131.9800   62.5210 C   0  0  0  0  0  0  0  0  0  0  0  0
  125.5680  131.9700   63.2780 C   0  0  0  0  0  0  0  0  0  0  0  0
  124.5780  131.9610   63.8760 N   0  0  0  0  0  0  0  0  0  0  0  0
  126.4410  124.4660   61.0020 C   0  0  0  0  0  0  0  0  0  0  0  0
  126.0670  123.5580   60.0160 C   0  0  0  0  0  0  0  0  0  0  0  0
  1  2  1  0
  2  3  1  0
  3  4  1  0
  4  5  2  0
  4  6  1  0
  6  7  2  0
  7  8  1  0
  8  9  2  0
  9 10  1  0
 10 11  1  0
 11 12  2  0
 11 13  1  0
 13 14  1  0
 14 15  1  0
 15 16  2  0
 16 17  1  0
 17 18  1  0
 18 19  2  0
 19 20  1  0
 20 21  2  0
 21 22  1  0
 22 23  1  0
 21 24  1  0
 24 25  2  0
 17 26  2  0
 26 27  1  0
 27 28  1  0
 28 29  2  0
 29 30  1  0
 30 31  2  0
 31 32  1  0
 32 33  1  0
 31 34  1  0
 34 35  2  0
 27 36  2  0
 36 37  1  0
 37 38  3  0
  9 39  1  0
 39 40  2  0
 40  6  1  0
 36 15  1  0
 25 18  1  0
 35 28  1  0
M  END
>  <Binding energies>  (2) 
[-9.44]

>  <Ligand effiencies>  (2) 
[-0.23024390243902437]

>  <Interactions>  (2) 
["V-B:ASP:366:CG:8184, V-A:ASP:366:CG:3210, V-A:TYR:531:CZ:4792, V-A:LEU:363:CA:3182, V-A:TYR:531:CE2:4791, V-A:PRO:540:CB:4883, V-A:PRO:540:CA:4881, V-A:ASP:366:CB:3209, V-A:LEU:363:CB:3184, V-A:LEU:363:CD1:3186, V-A:TYR:539:CE1:4873, V-B:PRO:540:CA:9855, V-B:PRO:540:CB:9857, V-B:MET:535:CE:9807, V-B:PRO:540:CD:9859, V-B:PRO:540:N:9856, V-B:GLU:543:CD:9880, V-B:TYR:539:CE1:9847, V-B:TYR:539:CD1:9845, V-A:PRO:540:C:4879, V-A:TYR:539:CD1:4871, V-A:ALA:541:CB:4890, V-A:PRO:540:N:4882, V-B:ILE:369:CG2:8208, V-B:TYR:539:CG:9844, H-B:TYR:539:N:9842, V-B:TYR:539:CZ:9849, V-B:PRO:482:CB:9297, V-B:SER:385:CA:8378, V-B:PRO:482:CG:9298, V-B:LEU:475:CD2:9230, V-B:SER:385:CB:8380, V-B:LEU:373:CD1:8251, H-B:TYR:484:OH:9319, V-B:TYR:539:CE2:9848, H-B:GLY:454:N:9021, V-A:GLU:543:CD:4906, V-A:ASN:362:CB:3173, H-B:GLU:543:OE1:9881, H-B:GLU:543:OE2:9882, H-A:LEU:363:N:3183, H-B:SER:385:N:8379, V-A:LEU:363:C:3180"]

$$$$
1b_Grossjean_2025
     RDKit          3D

 25 26  0  0  0  0  0  0  0  0999 V2000
  131.9490  115.4110   58.3100 C   0  0  0  0  0  0  0  0  0  0  0  0
  132.5680  114.8850   59.4760 O   0  0  0  0  0  0  0  0  0  0  0  0
  133.1230  115.7070   60.4030 C   0  0  0  0  0  0  0  0  0  0  0  0
  134.1320  115.4160   61.0530 O   0  0  0  0  0  0  0  0  0  0  0  0
  132.3920  117.0100   60.5550 C   0  0  0  0  0  0  0  0  0  0  0  0
  130.9960  117.0670   60.6890 C   0  0  0  0  0  0  0  0  0  0  0  0
  130.3490  118.2910   60.8270 C   0  0  0  0  0  0  0  0  0  0  0  0
  131.0780  119.4800   60.8340 C   0  0  0  0  0  0  0  0  0  0  0  0
  130.3190  120.6580   60.9780 N   0  0  0  0  0  0  0  0  0  0  0  0
  130.2480  121.5270   62.0100 C   0  0  0  0  0  0  0  0  0  0  0  0
  130.8760  121.4380   63.0650 O   0  0  0  0  0  0  0  0  0  0  0  0
  129.3040  122.7130   61.8040 C   0  0  0  0  0  0  0  0  0  0  0  0
  129.0510  123.0890   60.0430 S   0  0  0  0  0  0  0  0  0  0  0  0
  127.3000  123.2870   59.7900 C   0  0  0  0  0  0  0  0  0  0  0  0
  126.6080  123.5390   60.9290 N   0  0  0  0  0  0  0  0  0  0  0  0
  125.2670  123.7080   60.8510 C   0  0  0  0  0  0  0  0  0  0  0  0
  124.5620  124.0000   62.1620 C   0  0  0  0  0  0  0  0  0  0  0  0
  124.5680  123.6230   59.6490 C   0  0  0  0  0  0  0  0  0  0  0  0
  125.2690  123.3420   58.4730 C   0  0  0  0  0  0  0  0  0  0  0  0
  124.4780  123.2380   57.1700 C   0  0  0  0  0  0  0  0  0  0  0  0
  126.6700  123.1620   58.5290 C   0  0  0  0  0  0  0  0  0  0  0  0
  127.4200  122.8230   57.3170 C   0  0  0  0  0  0  0  0  0  0  0  0
  128.0090  122.5560   56.3580 N   0  0  0  0  0  0  0  0  0  0  0  0
  132.4740  119.4320   60.7010 C   0  0  0  0  0  0  0  0  0  0  0  0
  133.1200  118.2070   60.5630 C   0  0  0  0  0  0  0  0  0  0  0  0
  1  2  1  0
  2  3  1  0
  3  4  2  0
  3  5  1  0
  5  6  2  0
  6  7  1  0
  7  8  2  0
  8  9  1  0
  9 10  1  0
 10 11  2  0
 10 12  1  0
 12 13  1  0
 13 14  1  0
 14 15  2  0
 15 16  1  0
 16 17  1  0
 16 18  2  0
 18 19  1  0
 19 20  1  0
 19 21  2  0
 21 22  1  0
 22 23  3  0
  8 24  1  0
 24 25  2  0
 25  5  1  0
 21 14  1  0
M  END
>  <Binding energies>  (3) 
[-8.71]

>  <Ligand effiencies>  (3) 
[-0.335]

>  <Interactions>  (3) 
["V-B:ASP:366:CG:8184, V-B:PRO:540:CA:9855, V-B:ALA:541:CB:9864, V-B:PRO:540:CB:9857, V-B:LEU:363:CD1:8160, V-B:ASN:362:CB:8147, V-B:PRO:540:CD:9859, V-B:PRO:540:N:9856, V-A:LEU:475:CD2:4256, V-B:TYR:539:C:9839, V-B:TYR:539:CE1:9847, V-B:TYR:539:CD1:9845, H-B:TYR:539:N:9842, V-B:TYR:531:CE2:9765, V-B:ARG:545:CZ:9898, H-B:ALA:541:N:9863, H-B:TYR:539:O:9840, V-A:PRO:482:CG:4324, V-A:SER:385:CB:3406, V-A:PRO:482:CB:4323, V-A:SER:385:CA:3404, V-B:TYR:539:CB:9843, V-A:HIS:383:CG:3387, V-A:LEU:373:CD2:3278, V-A:HIS:383:CB:3386, V-A:LEU:373:CD1:3277, V-B:ILE:343:CD1:7965, V-A:HIS:383:CD2:3389, V-A:HIS:383:CE1:3391, H-A:HIS:383:ND1:3388, H-A:SER:385:N:3405, V-B:ILE:343:CG1:7964"]

$$$$
1c_Grossjean_2025
     RDKit          3D

 23 24  0  0  0  0  0  0  0  0999 V2000
  133.8520  114.6370   61.0320 C   0  0  0  0  0  0  0  0  0  0  0  0
  133.2090  115.3030   59.9510 O   0  0  0  0  0  0  0  0  0  0  0  0
  132.5510  116.4940   60.1890 C   0  0  0  0  0  0  0  0  0  0  0  0
  131.1630  116.4780   60.0470 C   0  0  0  0  0  0  0  0  0  0  0  0
  130.4110  117.6280   60.2670 C   0  0  0  0  0  0  0  0  0  0  0  0
  131.0480  118.8200   60.6430 C   0  0  0  0  0  0  0  0  0  0  0  0
  130.3860  120.0410   60.8800 N   0  0  0  0  0  0  0  0  0  0  0  0
  130.8720  121.1950   61.3840 C   0  0  0  0  0  0  0  0  0  0  0  0
  132.0390  121.3920   61.7230 O   0  0  0  0  0  0  0  0  0  0  0  0
  129.8550  122.3300   61.5220 C   0  0  0  0  0  0  0  0  0  0  0  0
  129.2920  122.9340   59.9030 S   0  0  0  0  0  0  0  0  0  0  0  0
  127.5340  123.2100   59.9860 C   0  0  0  0  0  0  0  0  0  0  0  0
  127.0840  123.4440   61.2450 N   0  0  0  0  0  0  0  0  0  0  0  0
  125.7620  123.6670   61.4340 C   0  0  0  0  0  0  0  0  0  0  0  0
  125.3360  123.9310   62.8660 C   0  0  0  0  0  0  0  0  0  0  0  0
  124.8420  123.6570   60.3880 C   0  0  0  0  0  0  0  0  0  0  0  0
  125.2910  123.3930   59.0900 C   0  0  0  0  0  0  0  0  0  0  0  0
  124.2600  123.3710   57.9630 C   0  0  0  0  0  0  0  0  0  0  0  0
  126.6670  123.1550   58.8700 C   0  0  0  0  0  0  0  0  0  0  0  0
  127.1470  122.8230   57.5260 C   0  0  0  0  0  0  0  0  0  0  0  0
  127.5260  122.5610   56.4650 N   0  0  0  0  0  0  0  0  0  0  0  0
  132.4370  118.8440   60.7760 C   0  0  0  0  0  0  0  0  0  0  0  0
  133.1860  117.6920   60.5540 C   0  0  0  0  0  0  0  0  0  0  0  0
  1  2  1  0
  2  3  1  0
  3  4  2  0
  4  5  1  0
  5  6  2  0
  6  7  1  0
  7  8  1  0
  8  9  2  0
  8 10  1  0
 10 11  1  0
 11 12  1  0
 12 13  2  0
 13 14  1  0
 14 15  1  0
 14 16  2  0
 16 17  1  0
 17 18  1  0
 17 19  2  0
 19 20  1  0
 20 21  3  0
  6 22  1  0
 22 23  2  0
 23  3  1  0
 19 12  1  0
M  END
>  <Binding energies>  (4) 
[-8.56]

>  <Ligand effiencies>  (4) 
[-0.3566666666666667]

>  <Interactions>  (4) 
["V-B:PRO:540:CA:9855, V-B:ALA:541:CB:9864, V-B:LEU:363:CA:8156, V-B:PRO:540:CB:9857, V-B:LEU:363:CD1:8160, V-B:ASN:362:CB:8147, V-B:PRO:540:N:9856, V-A:LEU:475:CD2:4256, V-B:GLU:543:CD:9880, V-B:TYR:539:C:9839, V-B:TYR:539:CE1:9847, V-B:TYR:539:CD1:9845, V-B:TYR:539:CG:9844, H-B:TYR:539:N:9842, V-B:ARG:545:CZ:9898, H-B:ALA:541:N:9863, H-B:TYR:539:O:9840, V-A:PRO:482:CG:4324, V-A:SER:385:CB:3406, V-A:PRO:482:CB:4323, V-A:SER:385:CA:3404, V-B:TYR:539:CB:9843, V-A:HIS:383:CG:3387, V-A:HIS:383:CB:3386, V-A:LEU:373:CD1:3277, V-B:VAL:344:CG1:7972, V-A:HIS:383:CA:3384, V-A:THR:477:CA:4267, V-A:HIS:383:C:3382, V-A:THR:477:CG2:4270, V-A:THR:477:CB:4269"]

$$$$
1d_Grossjean_2025
     RDKit          3D

 21 22  0  0  0  0  0  0  0  0999 V2000
  132.4050  131.1280   62.5920 C   0  0  0  0  0  0  0  0  0  0  0  0
  131.8450  131.5180   61.2380 C   0  0  0  0  0  0  0  0  0  0  0  0
  132.6360  131.5130   60.0920 C   0  0  0  0  0  0  0  0  0  0  0  0
  132.0630  131.8730   58.8670 C   0  0  0  0  0  0  0  0  0  0  0  0
  132.9470  131.8440   57.6220 C   0  0  0  0  0  0  0  0  0  0  0  0
  130.6980  132.2400   58.8240 C   0  0  0  0  0  0  0  0  0  0  0  0
  130.0640  132.5730   57.5470 C   0  0  0  0  0  0  0  0  0  0  0  0
  129.5670  132.8360   56.5350 N   0  0  0  0  0  0  0  0  0  0  0  0
  129.9770  132.2400   60.0410 C   0  0  0  0  0  0  0  0  0  0  0  0
  128.2560  132.6740   60.1720 S   0  0  0  0  0  0  0  0  0  0  0  0
  128.0320  133.5290   61.7610 C   0  0  0  0  0  0  0  0  0  0  0  0
  126.8940  134.5500   61.7110 C   0  0  0  0  0  0  0  0  0  0  0  0
  125.7720  134.2180   62.0940 O   0  0  0  0  0  0  0  0  0  0  0  0
  127.2360  135.7750   61.2570 N   0  0  0  0  0  0  0  0  0  0  0  0
  126.4420  136.9220   61.0700 C   0  0  0  0  0  0  0  0  0  0  0  0
  127.1110  138.0500   60.5880 C   0  0  0  0  0  0  0  0  0  0  0  0
  126.4180  139.2350   60.3620 C   0  0  0  0  0  0  0  0  0  0  0  0
  125.0490  139.2930   60.6110 C   0  0  0  0  0  0  0  0  0  0  0  0
  124.3680  138.1740   61.0830 C   0  0  0  0  0  0  0  0  0  0  0  0
  125.0590  136.9870   61.3110 C   0  0  0  0  0  0  0  0  0  0  0  0
  130.5370  131.8690   61.2210 N   0  0  0  0  0  0  0  0  0  0  0  0
  1  2  1  0
  2  3  2  0
  3  4  1  0
  4  5  1  0
  4  6  2  0
  6  7  1  0
  7  8  3  0
  6  9  1  0
  9 10  1  0
 10 11  1  0
 11 12  1  0
 12 13  2  0
 12 14  1  0
 14 15  1  0
 15 16  2  0
 16 17  1  0
 17 18  2  0
 18 19  1  0
 19 20  2  0
  9 21  2  0
 21  2  1  0
 20 15  1  0
M  END
>  <Binding energies>  (5) 
[-9.05]

>  <Ligand effiencies>  (5) 
[-0.4113636363636364]

>  <Interactions>  (5) 
["H-A:ALA:541:N:4889, V-A:PRO:540:CB:4883, V-A:PRO:540:CA:4881, V-A:LEU:363:CD1:3186, H-A:TYR:539:N:4868, V-A:TYR:539:CE1:4873, V-A:PRO:540:C:4879, V-A:TYR:539:CD1:4871, V-A:ALA:541:CB:4890, V-A:PRO:540:N:4882, V-A:TYR:539:C:4865, V-A:TYR:539:CG:4870, V-B:PRO:482:CB:9297, V-B:SER:385:CA:8378, V-B:PRO:482:CG:9298, V-B:LEU:475:CD2:9230, V-B:SER:385:CB:8380, V-B:LEU:373:CD1:8251, V-A:ARG:545:CZ:4924, V-A:GLU:543:CD:4906, V-A:ASN:362:CB:3173, V-B:VAL:384:C:8368, H-A:TYR:539:O:4866, V-A:VAL:344:CG1:2998, V-A:TYR:539:CB:4869"]

$$$$
1e_Grossjean_2025
     RDKit          3D

 22 23  0  0  0  0  0  0  0  0999 V2000
  131.5750  116.5810   60.5820 C   0  0  0  0  0  0  0  0  0  0  0  0
  131.8100  118.0740   60.7140 C   0  0  0  0  0  0  0  0  0  0  0  0
  133.0890  118.6260   60.5980 C   0  0  0  0  0  0  0  0  0  0  0  0
  133.2290  120.0080   60.7340 C   0  0  0  0  0  0  0  0  0  0  0  0
  132.1030  120.7960   60.9810 C   0  0  0  0  0  0  0  0  0  0  0  0
  130.8500  120.1790   61.0800 C   0  0  0  0  0  0  0  0  0  0  0  0
  129.7550  121.0220   61.3400 N   0  0  0  0  0  0  0  0  0  0  0  0
  129.7430  122.2110   61.9810 C   0  0  0  0  0  0  0  0  0  0  0  0
  130.7330  122.7620   62.4670 O   0  0  0  0  0  0  0  0  0  0  0  0
  128.3740  122.8800   62.1170 C   0  0  0  0  0  0  0  0  0  0  0  0
  127.4980  122.9680   60.5260 S   0  0  0  0  0  0  0  0  0  0  0  0
  128.6520  123.4770   59.2670 C   0  0  0  0  0  0  0  0  0  0  0  0
  129.7290  124.1420   59.7590 N   0  0  0  0  0  0  0  0  0  0  0  0
  130.6740  124.5820   58.8960 C   0  0  0  0  0  0  0  0  0  0  0  0
  131.8500  125.3090   59.5190 C   0  0  0  0  0  0  0  0  0  0  0  0
  130.5820  124.3900   57.5190 C   0  0  0  0  0  0  0  0  0  0  0  0
  129.4660  123.7280   56.9990 C   0  0  0  0  0  0  0  0  0  0  0  0
  129.3800  123.5470   55.4840 C   0  0  0  0  0  0  0  0  0  0  0  0
  128.4640  123.2630   57.8810 C   0  0  0  0  0  0  0  0  0  0  0  0
  127.2600  122.6200   57.3470 C   0  0  0  0  0  0  0  0  0  0  0  0
  126.3110  122.1130   56.9230 N   0  0  0  0  0  0  0  0  0  0  0  0
  130.7060  118.8260   60.9520 N   0  0  0  0  0  0  0  0  0  0  0  0
  1  2  1  0
  2  3  2  0
  3  4  1  0
  4  5  2  0
  5  6  1  0
  6  7  1  0
  7  8  1  0
  8  9  2  0
  8 10  1  0
 10 11  1  0
 11 12  1  0
 12 13  2  0
 13 14  1  0
 14 15  1  0
 14 16  2  0
 16 17  1  0
 17 18  1  0
 17 19  2  0
 19 20  1  0
 20 21  3  0
  6 22  2  0
 22  2  1  0
 19 12  1  0
M  END
>  <Binding energies>  (6) 
[-7.38]

>  <Ligand effiencies>  (6) 
[-0.3208695652173913]

>  <Interactions>  (6) 
["V-A:ASP:366:CG:3210, V-B:PRO:540:CA:9855, V-B:ALA:541:CB:9864, V-B:ALA:541:CA:9862, V-B:MET:535:CE:9807, V-B:PRO:540:N:9856, V-A:LEU:475:CD2:4256, V-B:TYR:539:C:9839, V-B:TYR:539:CE1:9847, V-B:TYR:539:CD1:9845, H-B:TYR:539:N:9842, V-B:TYR:539:CZ:9849, V-A:ILE:369:CG2:3234, V-B:TYR:539:CE2:9848, H-B:ALA:541:N:9863, H-B:TYR:539:O:9840, V-B:TYR:539:CD2:9846, V-A:PRO:482:CG:4324, V-A:SER:385:CB:3406, V-A:PRO:482:CB:4323, V-A:SER:385:CA:3404, V-A:LEU:373:CD1:3277"]

$$$$
1f_Grossjean_2025
     RDKit          3D

 21 22  0  0  0  0  0  0  0  0999 V2000
  125.4020  123.6420   62.8040 C   0  0  0  0  0  0  0  0  0  0  0  0
  125.8900  123.4350   61.3830 C   0  0  0  0  0  0  0  0  0  0  0  0
  125.0540  123.6380   60.2880 C   0  0  0  0  0  0  0  0  0  0  0  0
  125.5570  123.4200   59.0000 C   0  0  0  0  0  0  0  0  0  0  0  0
  124.6160  123.6310   57.8160 C   0  0  0  0  0  0  0  0  0  0  0  0
  126.9000  123.0070   58.8430 C   0  0  0  0  0  0  0  0  0  0  0  0
  127.4270  122.7190   57.5060 C   0  0  0  0  0  0  0  0  0  0  0  0
  127.8420  122.4920   56.4500 N   0  0  0  0  0  0  0  0  0  0  0  0
  127.6840  122.8530   60.0100 C   0  0  0  0  0  0  0  0  0  0  0  0
  129.3910  122.3410   60.0080 S   0  0  0  0  0  0  0  0  0  0  0  0
  129.6440  121.1750   61.3890 C   0  0  0  0  0  0  0  0  0  0  0  0
  130.8070  120.1900   61.1990 C   0  0  0  0  0  0  0  0  0  0  0  0
  131.9730  120.5850   61.2410 O   0  0  0  0  0  0  0  0  0  0  0  0
  130.4300  118.9150   60.9660 N   0  0  0  0  0  0  0  0  0  0  0  0
  131.2200  117.7680   60.7560 C   0  0  0  0  0  0  0  0  0  0  0  0
  131.9880  117.1120   61.7360 C   0  0  0  0  0  0  0  0  0  0  0  0
  132.7250  115.9760   61.3890 C   0  0  0  0  0  0  0  0  0  0  0  0
  132.6740  115.5220   60.0710 C   0  0  0  0  0  0  0  0  0  0  0  0
  131.9380  116.1340   59.1100 N   0  0  0  0  0  0  0  0  0  0  0  0
  131.2270  117.2360   59.4620 C   0  0  0  0  0  0  0  0  0  0  0  0
  127.1800  123.0440   61.2550 N   0  0  0  0  0  0  0  0  0  0  0  0
  1  2  1  0
  2  3  2  0
  3  4  1  0
  4  5  1  0
  4  6  2  0
  6  7  1  0
  7  8  3  0
  6  9  1  0
  9 10  1  0
 10 11  1  0
 11 12  1  0
 12 13  2  0
 12 14  1  0
 14 15  1  0
 15 16  2  0
 16 17  1  0
 17 18  2  0
 18 19  1  0
 19 20  2  0
  9 21  2  0
 21  2  1  0
 20 15  1  0
M  END
>  <Binding energies>  (7) 
[-8.73]

>  <Ligand effiencies>  (7) 
[-0.39681818181818185]

>  <Interactions>  (7) 
["V-B:PRO:540:CA:9855, V-B:ALA:541:CB:9864, V-B:PRO:540:CB:9857, V-B:LEU:363:CD1:8160, V-B:ALA:541:C:9860, V-B:ASN:362:CB:8147, V-B:PRO:540:N:9856, V-A:LEU:475:CD2:4256, V-B:GLU:543:CD:9880, V-B:TYR:539:C:9839, V-B:TYR:539:CE1:9847, V-B:TYR:539:CD1:9845, V-B:PRO:540:C:9853, V-B:TYR:539:CG:9844, H-B:TYR:539:N:9842, V-B:ARG:545:CZ:9898, H-B:ALA:541:N:9863, H-B:TYR:539:O:9840, V-A:PRO:482:CG:4324, V-A:SER:385:CB:3406, V-A:PRO:482:CB:4323, V-A:SER:385:CA:3404, V-B:TYR:539:CB:9843, V-A:HIS:383:CG:3387, V-A:HIS:383:CB:3386, V-A:LEU:373:CD1:3277, V-A:LEU:475:CG:4254"]

$$$$
1g_Grossjean_2025
     RDKit          3D

 22 23  0  0  0  0  0  0  0  0999 V2000
  125.3870  123.6580   62.5820 C   0  0  0  0  0  0  0  0  0  0  0  0
  125.7910  123.4500   61.1350 C   0  0  0  0  0  0  0  0  0  0  0  0
  124.8850  123.6330   60.0910 C   0  0  0  0  0  0  0  0  0  0  0  0
  125.3100  123.4120   58.7770 C   0  0  0  0  0  0  0  0  0  0  0  0
  124.2950  123.6040   57.6500 C   0  0  0  0  0  0  0  0  0  0  0  0
  126.6450  123.0180   58.5390 C   0  0  0  0  0  0  0  0  0  0  0  0
  127.0980  122.7290   57.1750 C   0  0  0  0  0  0  0  0  0  0  0  0
  127.4520  122.5010   56.0970 N   0  0  0  0  0  0  0  0  0  0  0  0
  127.5020  122.8810   59.6560 C   0  0  0  0  0  0  0  0  0  0  0  0
  129.2120  122.4030   59.5380 S   0  0  0  0  0  0  0  0  0  0  0  0
  129.9740  122.7190   61.1580 C   0  0  0  0  0  0  0  0  0  0  0  0
  130.2600  121.4230   61.9190 C   0  0  0  0  0  0  0  0  0  0  0  0
  130.6060  121.4650   63.1000 O   0  0  0  0  0  0  0  0  0  0  0  0
  130.1150  120.2810   61.2240 N   0  0  0  0  0  0  0  0  0  0  0  0
  130.2790  118.9320   61.7660 C   0  0  0  0  0  0  0  0  0  0  0  0
  131.1100  118.0000   60.8890 C   0  0  0  0  0  0  0  0  0  0  0  0
  130.4850  117.2290   59.9030 C   0  0  0  0  0  0  0  0  0  0  0  0
  131.2420  116.3790   59.1010 C   0  0  0  0  0  0  0  0  0  0  0  0
  132.6220  116.3060   59.2850 C   0  0  0  0  0  0  0  0  0  0  0  0
  133.2500  117.0750   60.2610 C   0  0  0  0  0  0  0  0  0  0  0  0
  132.4940  117.9240   61.0650 C   0  0  0  0  0  0  0  0  0  0  0  0
  127.0750  123.0760   60.9300 N   0  0  0  0  0  0  0  0  0  0  0  0
  1  2  1  0
  2  3  2  0
  3  4  1  0
  4  5  1  0
  4  6  2  0
  6  7  1  0
  7  8  3  0
  6  9  1  0
  9 10  1  0
 10 11  1  0
 11 12  1  0
 12 13  2  0
 12 14  1  0
 14 15  1  0
 15 16  1  0
 16 17  2  0
 17 18  1  0
 18 19  2  0
 19 20  1  0
 20 21  2  0
  9 22  2  0
 22  2  1  0
 21 16  1  0
M  END
>  <Binding energies>  (8) 
[-8.93]

>  <Ligand effiencies>  (8) 
[-0.3882608695652174]

>  <Interactions>  (8) 
["V-B:PRO:540:CA:9855, V-B:ALA:541:CB:9864, V-B:LEU:363:CA:8156, V-B:PRO:540:CB:9857, V-B:LEU:363:CD1:8160, V-B:ALA:541:C:9860, V-B:ASN:362:CB:8147, V-B:PRO:540:N:9856, V-A:LEU:475:CD2:4256, V-B:GLU:543:CD:9880, V-B:TYR:539:C:9839, V-B:TYR:539:CE1:9847, V-B:TYR:539:CD1:9845, V-B:PRO:540:C:9853, V-B:TYR:539:CG:9844, H-B:TYR:539:N:9842, V-B:TYR:531:CE2:9765, V-B:ARG:545:CZ:9898, H-B:ALA:541:N:9863, H-B:TYR:539:O:9840, V-A:PRO:482:CG:4324, V-A:SER:385:CB:3406, V-A:PRO:482:CB:4323, V-A:SER:385:CA:3404, V-B:TYR:539:CB:9843, V-A:LEU:373:CD2:3278, V-A:LEU:373:CD1:3277, V-A:VAL:384:C:3394, V-B:VAL:344:CG1:7972"]

$$$$
1h_Grossjean_2025
     RDKit          3D

 28 29  0  0  0  0  0  0  0  0999 V2000
  125.2590  129.6110   56.9340 C   0  0  0  0  0  0  0  0  0  0  0  0
  126.2720  129.2910   55.9870 O   0  0  0  0  0  0  0  0  0  0  0  0
  127.5390  128.9650   56.4340 C   0  0  0  0  0  0  0  0  0  0  0  0
  128.0480  127.6560   56.4630 C   0  0  0  0  0  0  0  0  0  0  0  0
  129.3330  127.4000   56.9400 C   0  0  0  0  0  0  0  0  0  0  0  0
  129.8820  125.9760   56.9450 C   0  0  0  0  0  0  0  0  0  0  0  0
  129.8590  125.3340   58.2600 N   0  0  0  0  0  0  0  0  0  0  0  0
  130.8550  124.5950   58.7810 C   0  0  0  0  0  0  0  0  0  0  0  0
  131.9270  124.3940   58.2110 O   0  0  0  0  0  0  0  0  0  0  0  0
  130.5990  123.9830   60.1580 C   0  0  0  0  0  0  0  0  0  0  0  0
  129.5380  122.5090   60.0620 S   0  0  0  0  0  0  0  0  0  0  0  0
  128.2760  122.8160   58.8360 C   0  0  0  0  0  0  0  0  0  0  0  0
  128.6590  122.6570   57.5420 N   0  0  0  0  0  0  0  0  0  0  0  0
  127.7490  122.8700   56.5630 C   0  0  0  0  0  0  0  0  0  0  0  0
  128.2510  122.6680   55.1450 C   0  0  0  0  0  0  0  0  0  0  0  0
  126.4350  123.2480   56.8260 C   0  0  0  0  0  0  0  0  0  0  0  0
  126.0290  123.4170   58.1530 C   0  0  0  0  0  0  0  0  0  0  0  0
  124.5830  123.8290   58.4200 C   0  0  0  0  0  0  0  0  0  0  0  0
  126.9620  123.1990   59.1930 C   0  0  0  0  0  0  0  0  0  0  0  0
  126.5660  123.3710   60.5930 C   0  0  0  0  0  0  0  0  0  0  0  0
  126.2520  123.5080   61.6990 N   0  0  0  0  0  0  0  0  0  0  0  0
  130.1370  128.4610   57.3600 C   0  0  0  0  0  0  0  0  0  0  0  0
  129.6560  129.7800   57.3370 C   0  0  0  0  0  0  0  0  0  0  0  0
  130.3950  130.8770   57.7390 O   0  0  0  0  0  0  0  0  0  0  0  0
  131.8170  130.8010   57.7410 C   0  0  0  0  0  0  0  0  0  0  0  0
  128.3520  130.0170   56.8810 C   0  0  0  0  0  0  0  0  0  0  0  0
  127.8700  131.3030   56.8470 O   0  0  0  0  0  0  0  0  0  0  0  0
  128.5840  132.1650   55.9720 C   0  0  0  0  0  0  0  0  0  0  0  0
  1  2  1  0
  2  3  1  0
  3  4  2  0
  4  5  1  0
  5  6  1  0
  6  7  1  0
  7  8  1  0
  8  9  2  0
  8 10  1  0
 10 11  1  0
 11 12  1  0
 12 13  2  0
 13 14  1  0
 14 15  1  0
 14 16  2  0
 16 17  1  0
 17 18  1  0
 17 19  2  0
 19 20  1  0
 20 21  3  0
  5 22  2  0
 22 23  1  0
 23 24  1  0
 24 25  1  0
 23 26  2  0
 26 27  1  0
 27 28  1  0
 26  3  1  0
 19 12  1  0
M  END
>  <Binding energies>  (9) 
[-6.63]

>  <Ligand effiencies>  (9) 
[-0.2286206896551724]

>  <Interactions>  (9) 
["V-A:MET:535:CE:4833, V-A:TYR:539:CE2:4874, H-A:TYR:539:OH:4876, V-A:TYR:539:CZ:4875, V-B:ASP:366:CB:8183, V-A:TYR:539:CE1:4873, V-A:TYR:539:CD2:4872, H-B:TYR:531:OH:9767, V-B:PRO:540:CA:9855, V-B:PRO:540:CB:9857, V-B:MET:535:CE:9807, V-B:ILE:538:CA:9832, V-B:PRO:540:N:9856, V-B:TYR:539:C:9839, V-B:TYR:539:CE1:9847, V-B:TYR:539:CD1:9845, V-B:PRO:540:C:9853, V-B:TYR:539:CZ:9849, H-B:TYR:539:OH:9850, V-B:TYR:531:CZ:9766, V-B:TYR:539:CE2:9848, H-B:ALA:541:N:9863, V-B:TYR:531:CE1:9764, V-B:ILE:538:C:9830, V-B:TYR:539:CD2:9846"]

$$$$
1i_Grossjean_2025
     RDKit          3D

 20 21  0  0  0  0  0  0  0  0999 V2000
  125.1860  123.8920   62.6600 C   0  0  0  0  0  0  0  0  0  0  0  0
  125.7250  123.5710   61.2790 C   0  0  0  0  0  0  0  0  0  0  0  0
  124.9140  123.6280   60.1480 C   0  0  0  0  0  0  0  0  0  0  0  0
  125.4680  123.3320   58.8980 C   0  0  0  0  0  0  0  0  0  0  0  0
  124.5630  123.4180   57.6710 C   0  0  0  0  0  0  0  0  0  0  0  0
  126.8340  122.9760   58.8140 C   0  0  0  0  0  0  0  0  0  0  0  0
  127.4470  122.7110   57.5100 C   0  0  0  0  0  0  0  0  0  0  0  0
  127.9290  122.5040   56.4780 N   0  0  0  0  0  0  0  0  0  0  0  0
  127.5760  122.9200   60.0180 C   0  0  0  0  0  0  0  0  0  0  0  0
  129.3010  122.4910   60.0970 S   0  0  0  0  0  0  0  0  0  0  0  0
  129.6560  121.9530   61.7970 C   0  0  0  0  0  0  0  0  0  0  0  0
  130.9040  122.6310   62.3670 C   0  0  0  0  0  0  0  0  0  0  0  0
  132.0080  122.3570   61.8950 O   0  0  0  0  0  0  0  0  0  0  0  0
  130.6840  123.5070   63.3710 N   0  0  0  0  0  0  0  0  0  0  0  0
  131.6300  124.2490   64.0630 C   0  0  0  0  0  0  0  0  0  0  0  0
  131.3020  125.1360   65.0860 C   0  0  0  0  0  0  0  0  0  0  0  0
  132.5030  125.6610   65.5040 C   0  0  0  0  0  0  0  0  0  0  0  0
  133.5030  125.1190   64.7690 O   0  0  0  0  0  0  0  0  0  0  0  0
  132.9370  124.2260   63.8570 N   0  0  0  0  0  0  0  0  0  0  0  0
  127.0340  123.2290   61.2230 N   0  0  0  0  0  0  0  0  0  0  0  0
  1  2  1  0
  2  3  2  0
  3  4  1  0
  4  5  1  0
  4  6  2  0
  6  7  1  0
  7  8  3  0
  6  9  1  0
  9 10  1  0
 10 11  1  0
 11 12  1  0
 12 13  2  0
 12 14  1  0
 14 15  1  0
 15 16  1  0
 16 17  2  0
 17 18  1  0
 18 19  1  0
  9 20  2  0
 20  2  1  0
 19 15  2  0
M  END
>  <Binding energies>  (10) 
[-8.05]

>  <Ligand effiencies>  (10) 
[-0.38333333333333336]

>  <Interactions>  (10) 
["V-B:PRO:540:CA:9855, V-B:ALA:541:CB:9864, V-B:PRO:540:CB:9857, V-B:LEU:363:CD1:8160, V-B:ASN:362:CB:8147, V-B:PRO:540:N:9856, V-A:LEU:475:CD2:4256, V-B:GLU:543:CD:9880, V-B:TYR:539:C:9839, V-B:PRO:540:C:9853, H-B:TYR:539:N:9842, V-B:ARG:545:CZ:9898, H-A:GLY:454:N:4047, H-A:TYR:484:OH:4345, V-A:ARG:545:CG:4920, V-A:ARG:545:CD:4921, V-A:ARG:545:CZ:4924, H-B:ALA:541:N:9863, H-A:ARG:545:NE:4922, H-B:GLU:543:OE1:9881"]

$$$$
1k_Grossjean_2025
     RDKit          3D

 25 25  0  0  0  0  0  0  0  0999 V2000
  132.5180  125.5100   65.1830 C   0  0  0  0  0  0  0  0  0  0  0  0
  133.6940  125.1530   64.4750 O   0  0  0  0  0  0  0  0  0  0  0  0
  133.5290  125.1620   63.0630 C   0  0  0  0  0  0  0  0  0  0  0  0
  132.9020  123.8360   62.6120 C   0  0  0  0  0  0  0  0  0  0  0  0
  133.8830  123.0510   61.9460 O   0  0  0  0  0  0  0  0  0  0  0  0
  133.5570  122.7570   60.5940 C   0  0  0  0  0  0  0  0  0  0  0  0
  134.1850  123.8150   59.6770 C   0  0  0  0  0  0  0  0  0  0  0  0
  133.5080  123.8210   58.4270 O   0  0  0  0  0  0  0  0  0  0  0  0
  133.1040  125.1160   58.0020 C   0  0  0  0  0  0  0  0  0  0  0  0
  131.7960  125.5090   58.7130 C   0  0  0  0  0  0  0  0  0  0  0  0
  130.5880  125.0010   58.0620 N   0  0  0  0  0  0  0  0  0  0  0  0
  130.2670  125.1870   56.7700 C   0  0  0  0  0  0  0  0  0  0  0  0
  130.9780  125.8160   55.9840 O   0  0  0  0  0  0  0  0  0  0  0  0
  128.9350  124.5650   56.3220 C   0  0  0  0  0  0  0  0  0  0  0  0
  128.6210  122.8630   56.9080 S   0  0  0  0  0  0  0  0  0  0  0  0
  128.2720  122.9010   58.6600 C   0  0  0  0  0  0  0  0  0  0  0  0
  129.3050  122.5690   59.4780 N   0  0  0  0  0  0  0  0  0  0  0  0
  129.1050  122.5680   60.8160 C   0  0  0  0  0  0  0  0  0  0  0  0
  130.3020  122.1780   61.6610 C   0  0  0  0  0  0  0  0  0  0  0  0
  127.8820  122.9020   61.3930 C   0  0  0  0  0  0  0  0  0  0  0  0
  126.8130  123.2530   60.5630 C   0  0  0  0  0  0  0  0  0  0  0  0
  125.4810  123.6160   61.2160 C   0  0  0  0  0  0  0  0  0  0  0  0
  126.9990  123.2560   59.1630 C   0  0  0  0  0  0  0  0  0  0  0  0
  125.8950  123.6160   58.2680 C   0  0  0  0  0  0  0  0  0  0  0  0
  125.0220  123.9000   57.5630 N   0  0  0  0  0  0  0  0  0  0  0  0
  1  2  1  0
  2  3  1  0
  3  4  1  0
  4  5  1  0
  5  6  1  0
  6  7  1  0
  7  8  1  0
  8  9  1  0
  9 10  1  0
 10 11  1  0
 11 12  1  0
 12 13  2  0
 12 14  1  0
 14 15  1  0
 15 16  1  0
 16 17  2  0
 17 18  1  0
 18 19  1  0
 18 20  2  0
 20 21  1  0
 21 22  1  0
 21 23  2  0
 23 24  1  0
 24 25  3  0
 23 16  1  0
M  END
>  <Binding energies>  (11) 
[-6.43]

>  <Ligand effiencies>  (11) 
[-0.24730769230769228]

>  <Interactions>  (11) 
["V-A:ASP:366:CG:3210, V-A:ASP:366:CB:3209, H-A:TYR:531:OH:4793, H-B:TYR:531:OH:9767, V-B:PRO:540:CA:9855, V-B:ALA:541:CB:9864, V-B:PRO:540:CB:9857, V-B:MET:535:CE:9807, V-A:ASP:366:CA:3207, V-A:ASP:366:C:3205, V-B:PRO:540:N:9856, V-B:TYR:539:C:9839, V-B:TYR:539:CE1:9847, V-B:TYR:539:CD1:9845, V-B:PRO:540:C:9853, V-A:ILE:369:CB:3233, V-B:TYR:539:CZ:9849, V-A:ILE:369:CD1:3236, V-A:ILE:369:CG1:3235, V-A:ILE:369:CG2:3234, H-B:TYR:539:OH:9850, H-A:GLY:454:N:4047, H-A:TYR:484:OH:4345, H-A:ARG:545:NH2:4926, V-A:GLY:453:CA:4041, V-A:ARG:545:CD:4921, V-A:ARG:545:CZ:4924, H-A:ARG:545:NE:4922"]

$$$$
1l_Grossjean_2025
     RDKit          3D

 17 17  0  0  0  0  0  0  0  0999 V2000
  126.6850  137.6220   60.6710 C   0  0  0  0  0  0  0  0  0  0  0  0
  126.6440  136.6790   61.7330 O   0  0  0  0  0  0  0  0  0  0  0  0
  127.4480  135.5820   61.4250 N   0  0  0  0  0  0  0  0  0  0  0  0
  127.0100  134.3460   61.7310 C   0  0  0  0  0  0  0  0  0  0  0  0
  125.8480  134.0940   62.0600 O   0  0  0  0  0  0  0  0  0  0  0  0
  128.0660  133.2360   61.6280 C   0  0  0  0  0  0  0  0  0  0  0  0
  128.4650  132.7050   59.9280 S   0  0  0  0  0  0  0  0  0  0  0  0
  130.1870  132.2390   59.8810 C   0  0  0  0  0  0  0  0  0  0  0  0
  130.7520  131.9460   61.0810 N   0  0  0  0  0  0  0  0  0  0  0  0
  132.0560  131.5850   61.1180 C   0  0  0  0  0  0  0  0  0  0  0  0
  132.6150  131.2730   62.4940 C   0  0  0  0  0  0  0  0  0  0  0  0
  132.8460  131.5000   59.9740 C   0  0  0  0  0  0  0  0  0  0  0  0
  132.2750  131.7980   58.7320 C   0  0  0  0  0  0  0  0  0  0  0  0
  133.1590  131.6980   57.4900 C   0  0  0  0  0  0  0  0  0  0  0  0
  130.9160  132.1770   58.6700 C   0  0  0  0  0  0  0  0  0  0  0  0
  130.2910  132.4950   57.3820 C   0  0  0  0  0  0  0  0  0  0  0  0
  129.8000  132.7460   56.3650 N   0  0  0  0  0  0  0  0  0  0  0  0
  1  2  1  0
  2  3  1  0
  3  4  1  0
  4  5  2  0
  4  6  1  0
  6  7  1  0
  7  8  1  0
  8  9  2  0
  9 10  1  0
 10 11  1  0
 10 12  2  0
 12 13  1  0
 13 14  1  0
 13 15  2  0
 15 16  1  0
 16 17  3  0
 15  8  1  0
M  END
>  <Binding energies>  (12) 
[-6.68]

>  <Ligand effiencies>  (12) 
[-0.3711111111111111]

>  <Interactions>  (12) 
["V-A:ASP:366:CG:3210, V-A:LEU:363:CA:3182, V-A:TYR:531:CE2:4791, H-A:ALA:541:N:4889, V-A:PRO:540:CB:4883, V-A:PRO:540:CA:4881, V-A:LEU:363:CD1:3186, H-A:TYR:539:N:4868, V-A:TYR:539:CE1:4873, V-A:PRO:540:C:4879, V-A:TYR:539:CD1:4871, V-A:ALA:541:CB:4890, V-A:PRO:540:N:4882, V-A:TYR:539:C:4865, V-A:TYR:539:CG:4870, V-B:PRO:482:CG:9298, V-B:LEU:475:CD2:9230, V-A:ARG:545:CZ:4924, V-A:GLU:543:CD:4906, V-A:ASN:362:CB:3173, H-A:TYR:539:O:4866, V-A:TYR:539:CB:4869"]

$$$$
1m_Grossjean_2025
     RDKit          3D

 20 20  0  0  0  0  0  0  0  0999 V2000
  133.0880  115.4110   60.5880 C   0  0  0  0  0  0  0  0  0  0  0  0
  132.4520  116.2020   59.5940 O   0  0  0  0  0  0  0  0  0  0  0  0
  131.3900  116.9720   59.9070 C   0  0  0  0  0  0  0  0  0  0  0  0
  130.2130  116.7150   59.6360 O   0  0  0  0  0  0  0  0  0  0  0  0
  131.8170  118.2420   60.6720 C   0  0  0  0  0  0  0  0  0  0  0  0
  130.7090  119.1900   60.8650 N   0  0  0  0  0  0  0  0  0  0  0  0
  130.8350  120.4820   61.2260 C   0  0  0  0  0  0  0  0  0  0  0  0
  131.9240  121.0120   61.4540 O   0  0  0  0  0  0  0  0  0  0  0  0
  129.5210  121.2650   61.3480 C   0  0  0  0  0  0  0  0  0  0  0  0
  129.2970  122.5760   60.0970 S   0  0  0  0  0  0  0  0  0  0  0  0
  127.5650  122.9800   60.0280 C   0  0  0  0  0  0  0  0  0  0  0  0
  127.0070  123.1900   61.2480 N   0  0  0  0  0  0  0  0  0  0  0  0
  125.6950  123.5110   61.3180 C   0  0  0  0  0  0  0  0  0  0  0  0
  125.1480  123.7500   62.7120 C   0  0  0  0  0  0  0  0  0  0  0  0
  124.8870  123.6230   60.1880 C   0  0  0  0  0  0  0  0  0  0  0  0
  125.4440  123.3820   58.9270 C   0  0  0  0  0  0  0  0  0  0  0  0
  124.5350  123.4950   57.7050 C   0  0  0  0  0  0  0  0  0  0  0  0
  126.8130  123.0450   58.8290 C   0  0  0  0  0  0  0  0  0  0  0  0
  127.4050  122.7410   57.5240 C   0  0  0  0  0  0  0  0  0  0  0  0
  127.8720  122.5010   56.4940 N   0  0  0  0  0  0  0  0  0  0  0  0
  1  2  1  0
  2  3  1  0
  3  4  2  0
  3  5  1  0
  5  6  1  0
  6  7  1  0
  7  8  2  0
  7  9  1  0
  9 10  1  0
 10 11  1  0
 11 12  2  0
 12 13  1  0
 13 14  1  0
 13 15  2  0
 15 16  1  0
 16 17  1  0
 16 18  2  0
 18 19  1  0
 19 20  3  0
 18 11  1  0
M  END
>  <Binding energies>  (13) 
[-7.08]

>  <Ligand effiencies>  (13) 
[-0.33714285714285713]

>  <Interactions>  (13) 
["V-B:PRO:540:CA:9855, V-B:ALA:541:CB:9864, V-B:PRO:540:CB:9857, V-B:ALA:541:CA:9862, V-B:LEU:363:CD1:8160, V-B:ALA:541:C:9860, V-B:ASN:362:CB:8147, V-B:PRO:540:N:9856, V-A:LEU:475:CD2:4256, V-B:GLU:543:CD:9880, V-B:TYR:539:C:9839, V-B:TYR:539:CE1:9847, V-B:TYR:539:CD1:9845, V-B:PRO:540:C:9853, H-B:TYR:539:N:9842, V-B:ARG:545:CZ:9898, H-B:ALA:541:N:9863, H-B:TYR:539:O:9840, V-A:PRO:482:CG:4324, V-A:SER:385:CB:3406, V-B:TYR:539:CB:9843, V-A:HIS:383:CG:3387, V-A:HIS:383:CB:3386, V-A:LEU:373:CD1:3277"]

$$$$
1n_Grossjean_2025
     RDKit          3D

 27 28  0  0  0  0  0  0  0  0999 V2000
  124.5170  122.8230   56.9790 C   0  0  0  0  0  0  0  0  0  0  0  0
  125.5050  123.1090   55.8440 C   0  0  0  0  0  0  0  0  0  0  0  0
  126.7230  122.4180   56.0930 O   0  0  0  0  0  0  0  0  0  0  0  0
  127.5670  122.8170   57.0790 C   0  0  0  0  0  0  0  0  0  0  0  0
  128.2210  122.0330   57.7720 O   0  0  0  0  0  0  0  0  0  0  0  0
  127.6340  124.3090   57.2340 C   0  0  0  0  0  0  0  0  0  0  0  0
  126.7020  125.0180   58.0090 C   0  0  0  0  0  0  0  0  0  0  0  0
  126.7910  126.4010   58.1300 C   0  0  0  0  0  0  0  0  0  0  0  0
  127.8030  127.1050   57.4760 C   0  0  0  0  0  0  0  0  0  0  0  0
  127.7960  128.5020   57.6630 N   0  0  0  0  0  0  0  0  0  0  0  0
  127.1710  129.4650   56.9520 C   0  0  0  0  0  0  0  0  0  0  0  0
  126.4540  129.2750   55.9700 O   0  0  0  0  0  0  0  0  0  0  0  0
  127.3930  130.9010   57.4440 C   0  0  0  0  0  0  0  0  0  0  0  0
  127.5360  131.0010   58.9770 C   0  0  0  0  0  0  0  0  0  0  0  0
  128.4640  132.4540   59.5550 S   0  0  0  0  0  0  0  0  0  0  0  0
  130.1960  132.1110   59.3330 C   0  0  0  0  0  0  0  0  0  0  0  0
  130.8390  131.7970   60.4860 N   0  0  0  0  0  0  0  0  0  0  0  0
  132.1590  131.5010   60.4350 C   0  0  0  0  0  0  0  0  0  0  0  0
  132.8080  131.1490   61.7600 C   0  0  0  0  0  0  0  0  0  0  0  0
  132.8870  131.5120   59.2470 C   0  0  0  0  0  0  0  0  0  0  0  0
  132.2370  131.8540   58.0560 C   0  0  0  0  0  0  0  0  0  0  0  0
  133.0580  131.8720   56.7680 C   0  0  0  0  0  0  0  0  0  0  0  0
  130.8600  132.1720   58.0860 C   0  0  0  0  0  0  0  0  0  0  0  0
  130.1730  132.5840   56.8600 C   0  0  0  0  0  0  0  0  0  0  0  0
  129.6320  132.9090   55.8900 N   0  0  0  0  0  0  0  0  0  0  0  0
  128.7440  126.4030   56.7090 C   0  0  0  0  0  0  0  0  0  0  0  0
  128.6560  125.0190   56.5920 C   0  0  0  0  0  0  0  0  0  0  0  0
  1  2  1  0
  2  3  1  0
  3  4  1  0
  4  5  2  0
  4  6  1  0
  6  7  2  0
  7  8  1  0
  8  9  2  0
  9 10  1  0
 10 11  1  0
 11 12  2  0
 11 13  1  0
 13 14  1  0
 14 15  1  0
 15 16  1  0
 16 17  2  0
 17 18  1  0
 18 19  1  0
 18 20  2  0
 20 21  1  0
 21 22  1  0
 21 23  2  0
 23 24  1  0
 24 25  3  0
  9 26  1  0
 26 27  2  0
 27  6  1  0
 23 16  1  0
M  END
>  <Binding energies>  (14) 
[-8.81]

>  <Ligand effiencies>  (14) 
[-0.31464285714285717]

>  <Interactions>  (14) 
["V-A:MET:535:CE:4833, V-A:ASP:366:CG:3210, V-A:TYR:531:CE2:4791, H-A:ALA:541:N:4889, V-A:PRO:540:CB:4883, V-A:PRO:540:CA:4881, V-A:LEU:363:CD1:3186, H-A:TYR:539:N:4868, V-A:TYR:539:CZ:4875, V-A:TYR:539:CE1:4873, H-B:TYR:531:OH:9767, V-B:PRO:540:CB:9857, V-B:LEU:363:CD1:8160, V-B:MET:535:CE:9807, V-B:PRO:540:CG:9858, V-B:ILE:538:CG2:9835, V-B:ILE:538:CB:9834, V-B:ILE:538:CA:9832, V-B:PRO:540:CD:9859, V-B:PRO:540:N:9856, V-B:TYR:539:C:9839, V-A:PRO:540:N:4882, V-A:TYR:539:C:4865, H-B:TYR:539:N:9842, V-B:TYR:531:CE2:9765, V-A:ARG:545:CZ:4924, V-A:ASN:362:CB:3173"]

$$$$
1q_Grossjean_2025
     RDKit          3D

 21 21  0  0  0  0  0  0  0  0999 V2000
  123.7490  127.6770   74.5080 C   0  0  0  0  0  0  0  0  0  0  0  0
  124.6680  127.9090   75.5660 O   0  0  0  0  0  0  0  0  0  0  0  0
  125.1720  129.1490   75.7810 C   0  0  0  0  0  0  0  0  0  0  0  0
  124.5980  130.0620   76.3760 O   0  0  0  0  0  0  0  0  0  0  0  0
  126.5740  129.3720   75.1730 C   0  0  0  0  0  0  0  0  0  0  0  0
  126.9470  128.3380   74.1960 N   0  0  0  0  0  0  0  0  0  0  0  0
  128.0230  128.3690   73.3860 C   0  0  0  0  0  0  0  0  0  0  0  0
  128.8360  129.2950   73.3810 O   0  0  0  0  0  0  0  0  0  0  0  0
  128.2020  127.1570   72.4600 C   0  0  0  0  0  0  0  0  0  0  0  0
  129.6550  126.9190   72.0030 C   0  0  0  0  0  0  0  0  0  0  0  0
  130.8930  127.3180   73.2730 S   0  0  0  0  0  0  0  0  0  0  0  0
  131.3810  125.8080   74.0820 C   0  0  0  0  0  0  0  0  0  0  0  0
  130.4210  124.8500   74.0610 N   0  0  0  0  0  0  0  0  0  0  0  0
  130.6750  123.6570   74.6480 C   0  0  0  0  0  0  0  0  0  0  0  0
  129.5470  122.6440   74.5980 C   0  0  0  0  0  0  0  0  0  0  0  0
  131.8900  123.3670   75.2650 C   0  0  0  0  0  0  0  0  0  0  0  0
  132.8960  124.3380   75.2710 C   0  0  0  0  0  0  0  0  0  0  0  0
  134.2260  123.9890   75.9390 C   0  0  0  0  0  0  0  0  0  0  0  0
  132.6550  125.5900   74.6620 C   0  0  0  0  0  0  0  0  0  0  0  0
  133.7170  126.5970   74.6090 C   0  0  0  0  0  0  0  0  0  0  0  0
  134.5590  127.3900   74.5690 N   0  0  0  0  0  0  0  0  0  0  0  0
  1  2  1  0
  2  3  1  0
  3  4  2  0
  3  5  1  0
  5  6  1  0
  6  7  1  0
  7  8  2  0
  7  9  1  0
  9 10  1  0
 10 11  1  0
 11 12  1  0
 12 13  2  0
 13 14  1  0
 14 15  1  0
 14 16  2  0
 16 17  1  0
 17 18  1  0
 17 19  2  0
 19 20  1  0
 20 21  3  0
 19 12  1  0
M  END
>  <Binding energies>  (15) 
[-6.62]

>  <Ligand effiencies>  (15) 
[-0.3009090909090909]

>  <Interactions>  (15) 
["V-A:HIS:456:CE1:4066, V-A:LYS:547:CG:4946, V-B:HIS:456:CG:9037, V-B:HIS:456:CD2:9039, V-B:VAL:458:CG2:9058, V-B:HIS:456:CA:9034, V-B:HIS:456:CB:9036, V-B:VAL:457:C:9044, V-B:HIS:456:C:9032, V-B:GLY:544:C:9884, V-B:GLY:544:CA:9886, V-A:LYS:547:CD:4947, H-B:LYS:547:NZ:9923, V-A:LYS:547:CE:4948, H-A:LYS:547:NZ:4949, V-B:LYS:547:CE:9922, V-A:HIS:456:CD2:4065, H-B:HIS:456:NE2:9041, V-A:HIS:456:CG:4063, V-A:HIS:456:CB:4062, V-A:LYS:471:CD:4216, V-A:VAL:458:CG2:4084, V-B:LYS:547:CG:9920, V-A:HIS:456:C:4058, V-A:ASP:473:CG:4237, H-B:GLY:544:O:9885, V-A:LYS:471:CG:4215, V-B:ARG:545:C:9889"]

$$$$
2a_Grossjean_2025
     RDKit          3D

 29 30  0  0  0  0  0  0  0  0999 V2000
  124.8740  122.9230   56.4730 C   0  0  0  0  0  0  0  0  0  0  0  0
  126.3200  122.9510   55.9710 C   0  0  0  0  0  0  0  0  0  0  0  0
  127.1460  122.2280   56.8760 O   0  0  0  0  0  0  0  0  0  0  0  0
  127.8970  122.8720   57.8070 C   0  0  0  0  0  0  0  0  0  0  0  0
  128.5470  122.2900   58.6790 O   0  0  0  0  0  0  0  0  0  0  0  0
  127.8730  124.3670   57.6540 C   0  0  0  0  0  0  0  0  0  0  0  0
  126.8650  125.1550   58.2280 C   0  0  0  0  0  0  0  0  0  0  0  0
  126.8710  126.5370   58.0670 C   0  0  0  0  0  0  0  0  0  0  0  0
  127.8760  127.1590   57.3240 C   0  0  0  0  0  0  0  0  0  0  0  0
  127.7740  128.5580   57.2150 N   0  0  0  0  0  0  0  0  0  0  0  0
  127.0810  129.3120   56.3350 C   0  0  0  0  0  0  0  0  0  0  0  0
  126.3980  128.8800   55.4060 O   0  0  0  0  0  0  0  0  0  0  0  0
  127.1810  130.8270   56.5410 C   0  0  0  0  0  0  0  0  0  0  0  0
  127.5020  131.3010   58.2720 S   0  0  0  0  0  0  0  0  0  0  0  0
  129.2670  131.3790   58.5590 C   0  0  0  0  0  0  0  0  0  0  0  0
  129.6930  130.8810   59.7480 N   0  0  0  0  0  0  0  0  0  0  0  0
  131.0130  130.9190   60.0380 C   0  0  0  0  0  0  0  0  0  0  0  0
  131.4080  130.3690   61.3960 C   0  0  0  0  0  0  0  0  0  0  0  0
  131.9590  131.4410   59.1610 C   0  0  0  0  0  0  0  0  0  0  0  0
  131.5430  131.9540   57.9220 C   0  0  0  0  0  0  0  0  0  0  0  0
  132.6030  132.5280   56.9630 C   0  0  0  0  0  0  0  0  0  0  0  0
  132.2190  133.7250   56.5200 F   0  0  0  0  0  0  0  0  0  0  0  0
  133.7700  132.6530   57.5960 F   0  0  0  0  0  0  0  0  0  0  0  0
  132.8060  131.7510   55.8960 F   0  0  0  0  0  0  0  0  0  0  0  0
  130.1600  131.9230   57.6080 C   0  0  0  0  0  0  0  0  0  0  0  0
  129.6700  132.4480   56.3290 C   0  0  0  0  0  0  0  0  0  0  0  0
  129.2830  132.8630   55.3200 N   0  0  0  0  0  0  0  0  0  0  0  0
  128.8910  126.3790   56.7540 C   0  0  0  0  0  0  0  0  0  0  0  0
  128.8860  124.9960   56.9200 C   0  0  0  0  0  0  0  0  0  0  0  0
  1  2  1  0
  2  3  1  0
  3  4  1  0
  4  5  2  0
  4  6  1  0
  6  7  2  0
  7  8  1  0
  8  9  2  0
  9 10  1  0
 10 11  1  0
 11 12  2  0
 11 13  1  0
 13 14  1  0
 14 15  1  0
 15 16  2  0
 16 17  1  0
 17 18  1  0
 17 19  2  0
 19 20  1  0
 20 21  1  0
 21 22  1  0
 21 23  1  0
 21 24  1  0
 20 25  2  0
 25 26  1  0
 26 27  3  0
  9 28  1  0
 28 29  2  0
 29  6  1  0
 25 15  1  0
M  END
>  <Binding energies>  (16) 
[-7.77]

>  <Ligand effiencies>  (16) 
[-0.259]

>  <Interactions>  (16) 
["V-A:MET:535:CE:4833, V-A:TYR:539:CE2:4874, V-A:TYR:531:CZ:4792, V-A:LEU:363:CA:3182, V-A:TYR:531:CE2:4791, H-A:TYR:539:OH:4876, V-A:PRO:540:CB:4883, V-A:PRO:540:CA:4881, V-A:LEU:363:CB:3184, V-A:ILE:538:CA:4858, V-A:LEU:363:CD1:3186, H-A:TYR:539:N:4868, V-A:TYR:539:CZ:4875, V-A:TYR:539:CE1:4873, H-B:TYR:531:OH:9767, V-B:LEU:363:CD1:8160, V-B:MET:535:CE:9807, V-B:ILE:538:CG2:9835, V-B:ILE:538:CB:9834, V-B:ILE:538:CA:9832, V-B:PRO:540:CD:9859, V-B:PRO:540:N:9856, V-B:TYR:539:C:9839, V-B:TYR:539:CD1:9845, V-A:PRO:540:N:4882, V-A:TYR:539:CA:4867, V-A:TYR:539:C:4865, H-B:TYR:539:N:9842, V-B:TYR:531:CE2:9765, V-A:ILE:538:CB:4860, V-A:PRO:540:CD:4885, V-A:ILE:538:CG2:4861, V-A:ILE:538:C:4856, V-A:PRO:540:CG:4884, V-A:LEU:363:CG:3185, V-A:ILE:538:CG1:4862"]

$$$$
2b_Grossjean_2025
     RDKit          3D

 28 29  0  0  0  0  0  0  0  0999 V2000
  131.0710  115.0030   58.4560 C   0  0  0  0  0  0  0  0  0  0  0  0
  132.2820  115.7370   58.5730 O   0  0  0  0  0  0  0  0  0  0  0  0
  132.7620  116.1060   59.7880 C   0  0  0  0  0  0  0  0  0  0  0  0
  133.4910  115.3860   60.4780 O   0  0  0  0  0  0  0  0  0  0  0  0
  132.3140  117.4740   60.2130 C   0  0  0  0  0  0  0  0  0  0  0  0
  133.1930  118.5660   60.2450 C   0  0  0  0  0  0  0  0  0  0  0  0
  132.7460  119.8220   60.6450 C   0  0  0  0  0  0  0  0  0  0  0  0
  131.4150  120.0150   61.0150 C   0  0  0  0  0  0  0  0  0  0  0  0
  131.0710  121.3220   61.4090 N   0  0  0  0  0  0  0  0  0  0  0  0
  129.8590  121.9120   61.4750 C   0  0  0  0  0  0  0  0  0  0  0  0
  128.7910  121.3840   61.1600 O   0  0  0  0  0  0  0  0  0  0  0  0
  129.8640  123.3620   61.9700 C   0  0  0  0  0  0  0  0  0  0  0  0
  129.3830  124.5610   60.6840 S   0  0  0  0  0  0  0  0  0  0  0  0
  127.8160  124.0890   59.9650 C   0  0  0  0  0  0  0  0  0  0  0  0
  126.7700  124.0160   60.8270 N   0  0  0  0  0  0  0  0  0  0  0  0
  125.5560  123.6600   60.3530 C   0  0  0  0  0  0  0  0  0  0  0  0
  124.4440  123.5890   61.3820 C   0  0  0  0  0  0  0  0  0  0  0  0
  125.3290  123.3720   59.0100 C   0  0  0  0  0  0  0  0  0  0  0  0
  126.3930  123.4480   58.0990 C   0  0  0  0  0  0  0  0  0  0  0  0
  126.1240  123.1310   56.6160 C   0  0  0  0  0  0  0  0  0  0  0  0
  127.0600  122.3030   56.1500 F   0  0  0  0  0  0  0  0  0  0  0  0
  124.9290  122.5540   56.4800 F   0  0  0  0  0  0  0  0  0  0  0  0
  126.1320  124.2210   55.8450 F   0  0  0  0  0  0  0  0  0  0  0  0
  127.6750  123.8140   58.5840 C   0  0  0  0  0  0  0  0  0  0  0  0
  128.8240  123.9040   57.6780 C   0  0  0  0  0  0  0  0  0  0  0  0
  129.7310  123.9750   56.9630 N   0  0  0  0  0  0  0  0  0  0  0  0
  130.5310  118.9270   60.9940 C   0  0  0  0  0  0  0  0  0  0  0  0
  130.9790  117.6710   60.5940 C   0  0  0  0  0  0  0  0  0  0  0  0
  1  2  1  0
  2  3  1  0
  3  4  2  0
  3  5  1  0
  5  6  2  0
  6  7  1  0
  7  8  2  0
  8  9  1  0
  9 10  1  0
 10 11  2  0
 10 12  1  0
 12 13  1  0
 13 14  1  0
 14 15  2  0
 15 16  1  0
 16 17  1  0
 16 18  2  0
 18 19  1  0
 19 20  1  0
 20 21  1  0
 20 22  1  0
 20 23  1  0
 19 24  2  0
 24 25  1  0
 25 26  3  0
  8 27  1  0
 27 28  2  0
 28  5  1  0
 24 14  1  0
M  END
>  <Binding energies>  (17) 
[-7.37]

>  <Ligand effiencies>  (17) 
[-0.2541379310344828]

>  <Interactions>  (17) 
["V-B:PRO:540:CA:9855, V-B:ALA:541:CB:9864, V-B:PRO:540:CB:9857, V-B:LEU:363:CD1:8160, V-B:MET:535:CE:9807, V-B:ASN:362:CB:8147, V-B:ASN:362:C:8143, V-B:ILE:538:CG2:9835, V-B:ILE:538:CB:9834, V-B:ILE:538:CA:9832, V-B:PRO:540:CD:9859, V-B:PRO:540:N:9856, V-A:LEU:475:CD2:4256, V-B:TYR:539:C:9839, V-B:TYR:539:CE1:9847, V-B:TYR:539:CD1:9845, V-B:TYR:531:CE2:9765, V-A:ILE:369:CG2:3234, H-B:TYR:539:OH:9850, V-B:TYR:531:CZ:9766, V-B:TYR:539:CA:9841, H-B:ALA:541:N:9863, V-B:ILE:538:C:9830, V-A:PRO:482:CG:4324, V-A:SER:385:CB:3406, V-A:PRO:482:CB:4323, V-A:SER:385:CA:3404, V-B:TYR:539:CB:9843, V-A:HIS:383:CG:3387, V-A:LEU:373:CD2:3278, V-A:LEU:373:CD1:3277, V-B:VAL:344:CG1:7972, V-B:ILE:343:CD1:7965, V-A:HIS:383:CD2:3389, V-A:HIS:383:CE1:3391, V-B:ILE:343:CG1:7964"]

$$$$
2c_Grossjean_2025
     RDKit          3D

 26 27  0  0  0  0  0  0  0  0999 V2000
  134.2970  114.9960   60.6580 C   0  0  0  0  0  0  0  0  0  0  0  0
  133.0550  115.2040   59.9920 O   0  0  0  0  0  0  0  0  0  0  0  0
  132.3620  116.3780   60.2110 C   0  0  0  0  0  0  0  0  0  0  0  0
  133.1170  117.4830   60.6010 C   0  0  0  0  0  0  0  0  0  0  0  0
  132.5070  118.7110   60.8470 C   0  0  0  0  0  0  0  0  0  0  0  0
  131.1170  118.8410   60.7120 C   0  0  0  0  0  0  0  0  0  0  0  0
  130.4160  120.0430   60.9200 N   0  0  0  0  0  0  0  0  0  0  0  0
  130.8450  121.1770   61.5140 C   0  0  0  0  0  0  0  0  0  0  0  0
  131.9520  121.3200   62.0360 O   0  0  0  0  0  0  0  0  0  0  0  0
  129.8190  122.3210   61.5410 C   0  0  0  0  0  0  0  0  0  0  0  0
  129.3120  122.9600   59.9070 S   0  0  0  0  0  0  0  0  0  0  0  0
  127.5430  123.2240   59.8940 C   0  0  0  0  0  0  0  0  0  0  0  0
  126.9710  123.4330   61.1080 N   0  0  0  0  0  0  0  0  0  0  0  0
  125.6370  123.6300   61.1760 C   0  0  0  0  0  0  0  0  0  0  0  0
  125.0730  123.8400   62.5680 C   0  0  0  0  0  0  0  0  0  0  0  0
  124.8200  123.6370   60.0480 C   0  0  0  0  0  0  0  0  0  0  0  0
  125.3890  123.4310   58.7830 C   0  0  0  0  0  0  0  0  0  0  0  0
  124.4730  123.4430   57.5440 C   0  0  0  0  0  0  0  0  0  0  0  0
  123.2750  123.9320   57.8680 F   0  0  0  0  0  0  0  0  0  0  0  0
  125.0060  124.2030   56.5870 F   0  0  0  0  0  0  0  0  0  0  0  0
  124.2830  122.2250   57.0310 F   0  0  0  0  0  0  0  0  0  0  0  0
  126.7880  123.2170   58.6970 C   0  0  0  0  0  0  0  0  0  0  0  0
  127.4370  122.9940   57.4010 C   0  0  0  0  0  0  0  0  0  0  0  0
  127.9490  122.8180   56.3780 N   0  0  0  0  0  0  0  0  0  0  0  0
  130.3590  117.7420   60.3060 C   0  0  0  0  0  0  0  0  0  0  0  0
  130.9730  116.5170   60.0610 C   0  0  0  0  0  0  0  0  0  0  0  0
  1  2  1  0
  2  3  1  0
  3  4  2  0
  4  5  1  0
  5  6  2  0
  6  7  1  0
  7  8  1  0
  8  9  2  0
  8 10  1  0
 10 11  1  0
 11 12  1  0
 12 13  2  0
 13 14  1  0
 14 15  1  0
 14 16  2  0
 16 17  1  0
 17 18  1  0
 18 19  1  0
 18 20  1  0
 18 21  1  0
 17 22  2  0
 22 23  1  0
 23 24  3  0
  6 25  1  0
 25 26  2  0
 26  3  1  0
 22 12  1  0
M  END
>  <Binding energies>  (18) 
[-8.28]

>  <Ligand effiencies>  (18) 
[-0.30666666666666664]

>  <Interactions>  (18) 
["V-B:ASP:366:CG:8184, V-B:ASP:366:CB:8183, V-B:PRO:540:CA:9855, V-B:ALA:541:CB:9864, V-B:LEU:363:CA:8156, V-B:PRO:540:CB:9857, V-B:LEU:363:CD1:8160, V-B:ASN:362:CB:8147, V-B:PRO:540:CG:9858, V-B:ILE:538:CB:9834, V-B:PRO:540:CD:9859, V-B:PRO:540:N:9856, V-A:LEU:475:CD2:4256, V-B:GLU:543:CD:9880, V-B:TYR:539:C:9839, V-B:TYR:539:CE1:9847, V-B:TYR:539:CD1:9845, V-B:PRO:540:C:9853, V-B:TYR:539:CG:9844, H-B:TYR:539:N:9842, V-B:TYR:531:CE2:9765, V-B:ARG:545:CZ:9898, V-B:TYR:531:CZ:9766, H-B:ALA:541:N:9863, H-B:TYR:539:O:9840, V-A:PRO:482:CG:4324, V-A:SER:385:CB:3406, V-A:PRO:482:CB:4323, V-A:SER:385:CA:3404, V-B:TYR:539:CB:9843, V-A:HIS:383:CG:3387, V-A:HIS:383:CB:3386, V-A:LEU:373:CD1:3277, V-A:VAL:384:C:3394, V-B:VAL:344:CG1:7972, V-B:LEU:363:CB:8158, V-A:HIS:383:CA:3384, V-A:THR:477:CA:4267, V-B:LEU:363:CG:8159, V-B:LEU:363:C:8154, V-A:VAL:384:CA:3396, V-A:HIS:383:C:3382, V-A:THR:477:CG2:4270, V-A:THR:477:CB:4269"]

$$$$
2d_Ghoteimi_2023
     RDKit          3D

 38 42  0  0  0  0  0  0  0  0999 V2000
  134.4140  125.1660   67.3140 C   0  0  0  0  0  0  0  0  0  0  0  0
  134.1870  124.7180   65.9860 O   0  0  0  0  0  0  0  0  0  0  0  0
  133.3170  125.3640   65.1830 C   0  0  0  0  0  0  0  0  0  0  0  0
  133.4330  125.4970   63.9620 O   0  0  0  0  0  0  0  0  0  0  0  0
  132.1310  125.9240   65.9820 C   0  0  0  0  0  0  0  0  0  0  0  0
  130.5460  125.2690   65.3580 S   0  0  0  0  0  0  0  0  0  0  0  0
  130.7930  124.7010   63.6880 C   0  0  0  0  0  0  0  0  0  0  0  0
  130.7950  125.7040   62.7760 N   0  0  0  0  0  0  0  0  0  0  0  0
  130.9670  125.4150   61.4620 C   0  0  0  0  0  0  0  0  0  0  0  0
  130.9390  126.5700   60.5140 C   0  0  0  0  0  0  0  0  0  0  0  0
  131.2170  126.3840   59.1550 C   0  0  0  0  0  0  0  0  0  0  0  0
  131.1930  127.4550   58.2660 C   0  0  0  0  0  0  0  0  0  0  0  0
  130.8800  128.7510   58.7030 C   0  0  0  0  0  0  0  0  0  0  0  0
  130.8690  129.8420   57.8260 N   0  0  0  0  0  0  0  0  0  0  0  0
  129.6900  130.7220   57.7020 C   0  0  0  0  0  0  0  0  0  0  0  0
  129.7170  131.6190   56.4480 C   0  0  0  0  0  0  0  0  0  0  0  0
  130.9170  132.3760   56.4200 O   0  0  0  0  0  0  0  0  0  0  0  0
  132.0600  131.5390   56.3790 C   0  0  0  0  0  0  0  0  0  0  0  0
  132.1000  130.6340   57.6290 C   0  0  0  0  0  0  0  0  0  0  0  0
  130.6150  128.9360   60.0670 C   0  0  0  0  0  0  0  0  0  0  0  0
  130.6410  127.8650   60.9560 C   0  0  0  0  0  0  0  0  0  0  0  0
  131.1470  124.0980   61.0310 C   0  0  0  0  0  0  0  0  0  0  0  0
  131.1830  123.0470   61.9550 C   0  0  0  0  0  0  0  0  0  0  0  0
  131.4080  121.6690   61.4250 C   0  0  0  0  0  0  0  0  0  0  0  0
  130.3860  120.7200   61.4820 C   0  0  0  0  0  0  0  0  0  0  0  0
  130.5800  119.4360   60.9800 C   0  0  0  0  0  0  0  0  0  0  0  0
  131.8080  119.0640   60.4070 C   0  0  0  0  0  0  0  0  0  0  0  0
  132.0220  117.7850   59.8850 N   0  0  0  0  0  0  0  0  0  0  0  0
  130.8940  116.9030   59.5250 C   0  0  0  0  0  0  0  0  0  0  0  0
  131.3080  115.7040   58.6460 C   0  0  0  0  0  0  0  0  0  0  0  0
  132.3440  114.9700   59.2820 O   0  0  0  0  0  0  0  0  0  0  0  0
  133.4940  115.7720   59.5040 C   0  0  0  0  0  0  0  0  0  0  0  0
  133.1360  116.9710   60.4090 C   0  0  0  0  0  0  0  0  0  0  0  0
  132.8220  120.0290   60.3380 C   0  0  0  0  0  0  0  0  0  0  0  0
  132.6260  121.3130   60.8400 C   0  0  0  0  0  0  0  0  0  0  0  0
  131.0070  123.3500   63.3280 C   0  0  0  0  0  0  0  0  0  0  0  0
  131.0560  122.2870   64.3370 C   0  0  0  0  0  0  0  0  0  0  0  0
  131.0950  121.4440   65.1300 N   0  0  0  0  0  0  0  0  0  0  0  0
  1  2  1  0
  2  3  1  0
  3  4  2  0
  3  5  1  0
  5  6  1  0
  6  7  1  0
  7  8  2  0
  8  9  1  0
  9 10  1  0
 10 11  2  0
 11 12  1  0
 12 13  2  0
 13 14  1  0
 14 15  1  0
 15 16  1  0
 16 17  1  0
 17 18  1  0
 18 19  1  0
 13 20  1  0
 20 21  2  0
  9 22  2  0
 22 23  1  0
 23 24  1  0
 24 25  2  0
 25 26  1  0
 26 27  2  0
 27 28  1  0
 28 29  1  0
 29 30  1  0
 30 31  1  0
 31 32  1  0
 32 33  1  0
 27 34  1  0
 34 35  2  0
 23 36  2  0
 36 37  1  0
 37 38  3  0
 36  7  1  0
 21 10  1  0
 35 24  1  0
 19 14  1  0
 33 28  1  0
M  END
>  <Binding energies>  (19) 
[-8.97]

>  <Ligand effiencies>  (19) 
[-0.23605263157894738]

>  <Interactions>  (19) 
["V-A:MET:535:CE:4833, V-A:ASP:366:CG:3210, V-A:TYR:531:CZ:4792, V-A:TYR:531:CE2:4791, V-A:ASP:366:CB:3209, H-A:TYR:539:N:4868, V-B:ALA:541:CB:9864, V-A:LEU:475:CD2:4256, V-B:GLU:543:CD:9880, V-B:TYR:539:CE1:9847, V-B:TYR:539:CD1:9845, V-B:TYR:539:CG:9844, V-A:ILE:369:CG2:3234, H-A:GLY:454:N:4047, V-A:GLY:454:CA:4046, H-A:TYR:484:OH:4345, V-A:TYR:484:CZ:4344, V-A:ARG:545:CG:4920, H-A:ARG:545:NH2:4926, V-A:ARG:545:CD:4921, V-A:HIS:456:CE1:4066, V-A:ARG:545:CZ:4924, V-A:PRO:482:CG:4324, V-A:SER:385:CB:3406, V-A:SER:385:CA:3404, V-B:TYR:539:CB:9843, V-A:HIS:383:CG:3387, V-A:LEU:373:CD2:3278, V-A:HIS:383:CB:3386, V-A:LEU:373:CD1:3277, H-A:ARG:545:NE:4922, V-A:TYR:484:CE2:4343, V-A:VAL:384:C:3394, V-B:VAL:344:CG1:7972, V-A:HIS:383:CA:3384, H-A:ARG:545:NH1:4925, V-B:ILE:343:CD1:7965, V-A:HIS:383:CD2:3389, H-A:HIS:383:ND1:3388, H-A:ILE:455:N:4052, V-B:ILE:343:CG1:7964, V-A:ARG:545:CB:4919, V-A:GLY:454:C:4044, V-A:ILE:455:C:4049, V-A:ILE:455:CA:4051, V-A:TYR:484:CE1:4342"]

$$$$
2d_Grossjean_2025
     RDKit          3D

 24 25  0  0  0  0  0  0  0  0999 V2000
  132.4800  131.1420   62.5390 C   0  0  0  0  0  0  0  0  0  0  0  0
  131.8250  131.5000   61.2180 C   0  0  0  0  0  0  0  0  0  0  0  0
  132.5530  131.5480   60.0320 C   0  0  0  0  0  0  0  0  0  0  0  0
  131.9010  131.8800   58.8350 C   0  0  0  0  0  0  0  0  0  0  0  0
  132.7210  131.9180   57.5310 C   0  0  0  0  0  0  0  0  0  0  0  0
  132.7290  133.1550   57.0330 F   0  0  0  0  0  0  0  0  0  0  0  0
  133.9780  131.5410   57.7710 F   0  0  0  0  0  0  0  0  0  0  0  0
  132.2320  131.1090   56.5900 F   0  0  0  0  0  0  0  0  0  0  0  0
  130.5120  132.1650   58.8760 C   0  0  0  0  0  0  0  0  0  0  0  0
  129.7750  132.4710   57.6470 C   0  0  0  0  0  0  0  0  0  0  0  0
  129.1940  132.7120   56.6760 N   0  0  0  0  0  0  0  0  0  0  0  0
  129.8590  132.1160   60.1310 C   0  0  0  0  0  0  0  0  0  0  0  0
  128.1300  132.4750   60.3680 S   0  0  0  0  0  0  0  0  0  0  0  0
  127.9380  133.4520   61.8960 C   0  0  0  0  0  0  0  0  0  0  0  0
  126.8370  134.5120   61.7950 C   0  0  0  0  0  0  0  0  0  0  0  0
  125.6860  134.2110   62.1120 O   0  0  0  0  0  0  0  0  0  0  0  0
  127.2270  135.7150   61.3240 N   0  0  0  0  0  0  0  0  0  0  0  0
  126.4630  136.8800   61.1210 C   0  0  0  0  0  0  0  0  0  0  0  0
  127.1440  137.9730   60.5810 C   0  0  0  0  0  0  0  0  0  0  0  0
  126.4750  139.1720   60.3500 C   0  0  0  0  0  0  0  0  0  0  0  0
  125.1230  139.2810   60.6680 C   0  0  0  0  0  0  0  0  0  0  0  0
  124.4370  138.2020   61.2190 C   0  0  0  0  0  0  0  0  0  0  0  0
  125.1020  137.0020   61.4510 C   0  0  0  0  0  0  0  0  0  0  0  0
  130.5010  131.7730   61.2750 N   0  0  0  0  0  0  0  0  0  0  0  0
  1  2  1  0
  2  3  2  0
  3  4  1  0
  4  5  1  0
  5  6  1  0
  5  7  1  0
  5  8  1  0
  4  9  2  0
  9 10  1  0
 10 11  3  0
  9 12  1  0
 12 13  1  0
 13 14  1  0
 14 15  1  0
 15 16  2  0
 15 17  1  0
 17 18  1  0
 18 19  2  0
 19 20  1  0
 20 21  2  0
 21 22  1  0
 22 23  2  0
 12 24  2  0
 24  2  1  0
 23 18  1  0
M  END
>  <Binding energies>  (20) 
[-8.68]

>  <Ligand effiencies>  (20) 
[-0.3472]

>  <Interactions>  (20) 
["V-A:TYR:531:CZ:4792, V-A:LEU:363:CA:3182, V-A:TYR:531:CE2:4791, H-A:ALA:541:N:4889, V-A:PRO:540:CB:4883, V-A:PRO:540:CA:4881, V-A:ASP:366:CB:3209, V-A:LEU:363:CB:3184, V-A:LEU:363:CD1:3186, H-A:TYR:539:N:4868, V-A:TYR:539:CE1:4873, V-A:TYR:539:CD1:4871, V-A:ALA:541:CB:4890, V-A:PRO:540:N:4882, V-A:TYR:539:C:4865, V-A:TYR:539:CG:4870, V-A:ILE:538:CB:4860, V-B:PRO:482:CB:9297, V-B:SER:385:CA:8378, V-A:PRO:540:CD:4885, V-B:PRO:482:CG:9298, V-B:LEU:475:CD2:9230, V-B:SER:385:CB:8380, V-B:LEU:373:CD1:8251, V-A:ARG:545:CZ:4924, V-A:GLU:543:CD:4906, V-A:PRO:540:CG:4884, V-A:ASN:362:CB:3173, V-B:VAL:384:C:8368, H-A:TYR:539:O:4866, V-A:VAL:344:CG1:2998, V-A:TYR:539:CB:4869, V-A:LEU:363:CG:3185"]

$$$$
2e_Grossjean_2025
     RDKit          3D

 25 26  0  0  0  0  0  0  0  0999 V2000
  134.6140  125.1360   66.5910 C   0  0  0  0  0  0  0  0  0  0  0  0
  133.4970  125.2470   65.5710 C   0  0  0  0  0  0  0  0  0  0  0  0
  132.1800  125.5150   65.9550 C   0  0  0  0  0  0  0  0  0  0  0  0
  131.2060  125.6150   64.9600 C   0  0  0  0  0  0  0  0  0  0  0  0
  131.5670  125.4450   63.6210 C   0  0  0  0  0  0  0  0  0  0  0  0
  132.9030  125.1690   63.3070 C   0  0  0  0  0  0  0  0  0  0  0  0
  133.2180  125.0510   61.9430 N   0  0  0  0  0  0  0  0  0  0  0  0
  133.3130  123.9230   61.2040 C   0  0  0  0  0  0  0  0  0  0  0  0
  133.0580  122.7880   61.6110 O   0  0  0  0  0  0  0  0  0  0  0  0
  133.8220  124.1060   59.7710 C   0  0  0  0  0  0  0  0  0  0  0  0
  132.7250  125.1770   58.7880 S   0  0  0  0  0  0  0  0  0  0  0  0
  131.1550  124.3410   58.7480 C   0  0  0  0  0  0  0  0  0  0  0  0
  130.8910  123.5820   59.8400 N   0  0  0  0  0  0  0  0  0  0  0  0
  129.7380  122.8760   59.8720 C   0  0  0  0  0  0  0  0  0  0  0  0
  129.5060  122.0490   61.1220 C   0  0  0  0  0  0  0  0  0  0  0  0
  128.8160  122.8920   58.8270 C   0  0  0  0  0  0  0  0  0  0  0  0
  129.0790  123.6650   57.6860 C   0  0  0  0  0  0  0  0  0  0  0  0
  128.0600  123.6560   56.5310 C   0  0  0  0  0  0  0  0  0  0  0  0
  127.5620  124.8800   56.3500 F   0  0  0  0  0  0  0  0  0  0  0  0
  128.6530  123.2600   55.4040 F   0  0  0  0  0  0  0  0  0  0  0  0
  127.0330  122.8340   56.7560 F   0  0  0  0  0  0  0  0  0  0  0  0
  130.2800  124.4150   57.6400 C   0  0  0  0  0  0  0  0  0  0  0  0
  130.6270  125.2190   56.4640 C   0  0  0  0  0  0  0  0  0  0  0  0
  130.9000  125.8530   55.5340 N   0  0  0  0  0  0  0  0  0  0  0  0
  133.8620  125.0780   64.2740 N   0  0  0  0  0  0  0  0  0  0  0  0
  1  2  1  0
  2  3  2  0
  3  4  1  0
  4  5  2  0
  5  6  1  0
  6  7  1  0
  7  8  1  0
  8  9  2  0
  8 10  1  0
 10 11  1  0
 11 12  1  0
 12 13  2  0
 13 14  1  0
 14 15  1  0
 14 16  2  0
 16 17  1  0
 17 18  1  0
 18 19  1  0
 18 20  1  0
 18 21  1  0
 17 22  2  0
 22 23  1  0
 23 24  3  0
  6 25  2  0
 25  2  1  0
 22 12  1  0
M  END
>  <Binding energies>  (21) 
[-7.38]

>  <Ligand effiencies>  (21) 
[-0.28384615384615386]

>  <Interactions>  (21) 
["V-A:ASP:366:CG:3210, H-A:TYR:531:OH:4793, V-B:ALA:541:CB:9864, V-B:MET:535:CE:9807, V-A:ASP:366:CA:3207, V-B:PRO:540:N:9856, V-B:GLU:543:CD:9880, V-B:TYR:539:C:9839, V-B:TYR:539:CE1:9847, V-B:TYR:539:CD1:9845, V-A:ILE:369:CB:3233, V-B:TYR:539:CZ:9849, V-A:ILE:369:CD1:3236, V-A:ILE:369:CG2:3234, H-B:TYR:539:OH:9850, H-A:ASP:366:OD2:3212, H-A:GLY:454:N:4047, V-A:GLY:454:CA:4046, H-A:TYR:484:OH:4345, H-A:ASP:366:OD1:3211, V-A:TYR:484:CZ:4344, V-B:TYR:539:CE2:9848, V-A:ARG:545:CG:4920, H-A:ARG:545:NH2:4926, V-A:GLY:453:CA:4041, V-A:ARG:545:CD:4921, V-A:HIS:456:CE1:4066, V-A:ARG:545:CZ:4924, V-B:TYR:539:CD2:9846, H-A:ASN:370:ND2:3245, V-A:GLY:453:C:4039, H-A:ARG:545:NE:4922, H-A:ARG:545:NH1:4925, V-A:ARG:545:CB:4919, V-A:GLY:454:C:4044, V-A:ILE:455:C:4049"]

$$$$
2f_Grossjean_2025
     RDKit          3D

 24 25  0  0  0  0  0  0  0  0999 V2000
  124.9990  123.7760   62.6030 C   0  0  0  0  0  0  0  0  0  0  0  0
  125.5780  123.5320   61.2230 C   0  0  0  0  0  0  0  0  0  0  0  0
  124.7950  123.6330   60.0750 C   0  0  0  0  0  0  0  0  0  0  0  0
  125.3750  123.3890   58.8200 C   0  0  0  0  0  0  0  0  0  0  0  0
  124.4900  123.4940   57.5640 C   0  0  0  0  0  0  0  0  0  0  0  0
  124.2290  122.2760   57.0830 F   0  0  0  0  0  0  0  0  0  0  0  0
  123.3380  124.0940   57.8680 F   0  0  0  0  0  0  0  0  0  0  0  0
  125.0630  124.1960   56.5840 F   0  0  0  0  0  0  0  0  0  0  0  0
  126.7520  123.0530   58.7630 C   0  0  0  0  0  0  0  0  0  0  0  0
  127.3890  122.7350   57.4830 C   0  0  0  0  0  0  0  0  0  0  0  0
  127.8930  122.4850   56.4710 N   0  0  0  0  0  0  0  0  0  0  0  0
  127.4750  123.0000   59.9790 C   0  0  0  0  0  0  0  0  0  0  0  0
  129.2090  122.6070   60.0940 S   0  0  0  0  0  0  0  0  0  0  0  0
  129.4910  121.7470   61.6790 C   0  0  0  0  0  0  0  0  0  0  0  0
  130.6550  122.2930   62.5180 C   0  0  0  0  0  0  0  0  0  0  0  0
  131.7600  121.7500   62.4870 O   0  0  0  0  0  0  0  0  0  0  0  0
  130.3450  123.3690   63.2730 N   0  0  0  0  0  0  0  0  0  0  0  0
  131.1620  124.1180   64.1410 C   0  0  0  0  0  0  0  0  0  0  0  0
  130.7260  124.7820   65.3030 C   0  0  0  0  0  0  0  0  0  0  0  0
  131.6450  125.4890   66.0810 C   0  0  0  0  0  0  0  0  0  0  0  0
  132.9810  125.5120   65.6800 C   0  0  0  0  0  0  0  0  0  0  0  0
  133.4280  124.8740   64.5690 N   0  0  0  0  0  0  0  0  0  0  0  0
  132.5230  124.1900   63.8230 C   0  0  0  0  0  0  0  0  0  0  0  0
  126.8920  123.2160   61.1830 N   0  0  0  0  0  0  0  0  0  0  0  0
  1  2  1  0
  2  3  2  0
  3  4  1  0
  4  5  1  0
  5  6  1  0
  5  7  1  0
  5  8  1  0
  4  9  2  0
  9 10  1  0
 10 11  3  0
  9 12  1  0
 12 13  1  0
 13 14  1  0
 14 15  1  0
 15 16  2  0
 15 17  1  0
 17 18  1  0
 18 19  2  0
 19 20  1  0
 20 21  2  0
 21 22  1  0
 22 23  2  0
 12 24  2  0
 24  2  1  0
 23 18  1  0
M  END
>  <Binding energies>  (22) 
[-8.25]

>  <Ligand effiencies>  (22) 
[-0.33]

>  <Interactions>  (22) 
["V-B:ASP:366:CG:8184, V-B:ASP:366:CB:8183, V-B:PRO:540:CA:9855, V-B:ALA:541:CB:9864, V-B:LEU:363:CA:8156, V-B:PRO:540:CB:9857, V-B:ALA:541:CA:9862, V-B:LEU:363:CD1:8160, V-B:ASN:362:CB:8147, V-B:PRO:540:CG:9858, V-B:ILE:538:CB:9834, V-B:PRO:540:CD:9859, V-B:PRO:540:N:9856, V-A:LEU:475:CD2:4256, V-B:GLU:543:CD:9880, V-B:TYR:539:C:9839, V-B:PRO:540:C:9853, H-B:TYR:539:N:9842, V-B:TYR:531:CE2:9765, V-B:ARG:545:CZ:9898, H-A:GLY:454:N:4047, V-A:GLY:454:CA:4046, H-A:TYR:484:OH:4345, V-B:TYR:531:CZ:9766, V-A:TYR:484:CZ:4344, V-A:ARG:545:CG:4920, V-A:ARG:545:CD:4921, V-A:HIS:456:CE1:4066, V-A:ARG:545:CZ:4924, H-B:ALA:541:N:9863, V-B:GLU:543:CB:9878, H-A:ARG:545:NE:4922, H-B:GLU:543:OE1:9881, V-B:LEU:363:CB:8158, V-B:LEU:363:CG:8159, V-B:LEU:363:C:8154"]

$$$$
2g_Grossjean_2025
     RDKit          3D

 25 26  0  0  0  0  0  0  0  0999 V2000
  124.8940  123.8390   62.2670 C   0  0  0  0  0  0  0  0  0  0  0  0
  125.5010  123.5600   60.9050 C   0  0  0  0  0  0  0  0  0  0  0  0
  124.7440  123.6360   59.7390 C   0  0  0  0  0  0  0  0  0  0  0  0
  125.3510  123.3610   58.5030 C   0  0  0  0  0  0  0  0  0  0  0  0
  124.4940  123.4420   57.2240 C   0  0  0  0  0  0  0  0  0  0  0  0
  124.1870  122.2170   56.7960 F   0  0  0  0  0  0  0  0  0  0  0  0
  123.3660  124.1070   57.4770 F   0  0  0  0  0  0  0  0  0  0  0  0
  125.1170  124.0700   56.2250 F   0  0  0  0  0  0  0  0  0  0  0  0
  126.7270  123.0210   58.4840 C   0  0  0  0  0  0  0  0  0  0  0  0
  127.3950  122.6690   57.2280 C   0  0  0  0  0  0  0  0  0  0  0  0
  127.9210  122.3920   56.2350 N   0  0  0  0  0  0  0  0  0  0  0  0
  127.4240  122.9980   59.7170 C   0  0  0  0  0  0  0  0  0  0  0  0
  129.1560  122.6160   59.8710 S   0  0  0  0  0  0  0  0  0  0  0  0
  129.3590  121.5880   61.3650 C   0  0  0  0  0  0  0  0  0  0  0  0
  130.7660  121.0030   61.5560 C   0  0  0  0  0  0  0  0  0  0  0  0
  131.6160  121.5840   62.2330 O   0  0  0  0  0  0  0  0  0  0  0  0
  130.9950  119.8340   60.9310 N   0  0  0  0  0  0  0  0  0  0  0  0
  132.2500  119.0820   60.9700 C   0  0  0  0  0  0  0  0  0  0  0  0
  132.1630  117.6810   60.3740 C   0  0  0  0  0  0  0  0  0  0  0  0
  130.9430  117.2110   59.8780 C   0  0  0  0  0  0  0  0  0  0  0  0
  130.8690  115.9470   59.2980 C   0  0  0  0  0  0  0  0  0  0  0  0
  132.0150  115.1610   59.2060 C   0  0  0  0  0  0  0  0  0  0  0  0
  133.2370  115.6300   59.6870 C   0  0  0  0  0  0  0  0  0  0  0  0
  133.3120  116.8930   60.2660 C   0  0  0  0  0  0  0  0  0  0  0  0
  126.8160  123.2440   60.9030 N   0  0  0  0  0  0  0  0  0  0  0  0
  1  2  1  0
  2  3  2  0
  3  4  1  0
  4  5  1  0
  5  6  1  0
  5  7  1  0
  5  8  1  0
  4  9  2  0
  9 10  1  0
 10 11  3  0
  9 12  1  0
 12 13  1  0
 13 14  1  0
 14 15  1  0
 15 16  2  0
 15 17  1  0
 17 18  1  0
 18 19  1  0
 19 20  2  0
 20 21  1  0
 21 22  2  0
 22 23  1  0
 23 24  2  0
 12 25  2  0
 25  2  1  0
 24 19  1  0
M  END
>  <Binding energies>  (23) 
[-9.27]

>  <Ligand effiencies>  (23) 
[-0.3565384615384615]

>  <Interactions>  (23) 
["V-B:ASP:366:CG:8184, V-B:ASP:366:CB:8183, V-B:PRO:540:CA:9855, V-B:ALA:541:CB:9864, V-B:LEU:363:CA:8156, V-B:PRO:540:CB:9857, V-B:LEU:363:CD1:8160, V-B:ASN:362:CB:8147, V-B:PRO:540:CG:9858, V-B:ILE:538:CG2:9835, V-B:ILE:538:CB:9834, V-B:PRO:540:CD:9859, V-B:PRO:540:N:9856, V-A:LEU:475:CD2:4256, V-B:TYR:539:C:9839, V-B:TYR:539:CE1:9847, V-B:TYR:539:CD1:9845, V-B:PRO:540:C:9853, V-B:TYR:539:CG:9844, H-B:TYR:539:N:9842, V-B:TYR:531:CE2:9765, V-B:ARG:545:CZ:9898, V-B:TYR:531:CZ:9766, H-B:ALA:541:N:9863, H-B:TYR:539:O:9840, V-A:PRO:482:CG:4324, V-A:SER:385:CB:3406, V-A:SER:385:CA:3404, V-B:TYR:539:CB:9843, V-A:HIS:383:CG:3387, V-A:LEU:373:CD2:3278, V-A:HIS:383:CB:3386, V-A:LEU:373:CD1:3277, V-A:VAL:384:C:3394, V-B:VAL:344:CG1:7972, V-B:LEU:363:CB:8158, V-A:HIS:383:CD2:3389, V-B:LEU:363:CG:8159, V-A:HIS:383:CE1:3391, V-B:LEU:363:C:8154"]

$$$$
2h_Grossjean_2025
     RDKit          3D

 31 32  0  0  0  0  0  0  0  0999 V2000
  125.0560  130.0240   65.1520 C   0  0  0  0  0  0  0  0  0  0  0  0
  124.5010  130.6090   63.9800 O   0  0  0  0  0  0  0  0  0  0  0  0
  125.0270  130.2790   62.7430 C   0  0  0  0  0  0  0  0  0  0  0  0
  125.9700  129.2590   62.5390 C   0  0  0  0  0  0  0  0  0  0  0  0
  126.4480  128.9790   61.2610 C   0  0  0  0  0  0  0  0  0  0  0  0
  125.9970  129.7090   60.1600 C   0  0  0  0  0  0  0  0  0  0  0  0
  126.5210  129.3710   58.7660 C   0  0  0  0  0  0  0  0  0  0  0  0
  127.0480  130.5270   58.0400 N   0  0  0  0  0  0  0  0  0  0  0  0
  127.5150  130.4970   56.7790 C   0  0  0  0  0  0  0  0  0  0  0  0
  127.6230  129.4600   56.1230 O   0  0  0  0  0  0  0  0  0  0  0  0
  127.9060  131.8580   56.1860 C   0  0  0  0  0  0  0  0  0  0  0  0
  129.5820  132.4340   56.6170 S   0  0  0  0  0  0  0  0  0  0  0  0
  129.7260  132.3190   58.3870 C   0  0  0  0  0  0  0  0  0  0  0  0
  128.6100  132.7070   59.0510 N   0  0  0  0  0  0  0  0  0  0  0  0
  128.6170  132.6780   60.4020 C   0  0  0  0  0  0  0  0  0  0  0  0
  127.3380  133.1330   61.0780 C   0  0  0  0  0  0  0  0  0  0  0  0
  129.7220  132.2590   61.1400 C   0  0  0  0  0  0  0  0  0  0  0  0
  130.8790  131.8340   60.4690 C   0  0  0  0  0  0  0  0  0  0  0  0
  132.0890  131.3650   61.3020 C   0  0  0  0  0  0  0  0  0  0  0  0
  133.2220  131.7320   60.7040 F   0  0  0  0  0  0  0  0  0  0  0  0
  132.1000  131.8830   62.5320 F   0  0  0  0  0  0  0  0  0  0  0  0
  132.0740  130.0380   61.4250 F   0  0  0  0  0  0  0  0  0  0  0  0
  130.8850  131.8520   59.0510 C   0  0  0  0  0  0  0  0  0  0  0  0
  132.0460  131.3630   58.3030 C   0  0  0  0  0  0  0  0  0  0  0  0
  132.9630  130.9730   57.7150 N   0  0  0  0  0  0  0  0  0  0  0  0
  125.0730  130.7480   60.3520 C   0  0  0  0  0  0  0  0  0  0  0  0
  124.6270  131.4740   59.2740 O   0  0  0  0  0  0  0  0  0  0  0  0
  123.3270  131.1150   58.8230 C   0  0  0  0  0  0  0  0  0  0  0  0
  124.5770  131.0160   61.6400 C   0  0  0  0  0  0  0  0  0  0  0  0
  123.6580  132.0200   61.8290 O   0  0  0  0  0  0  0  0  0  0  0  0
  124.2190  133.2440   62.2810 C   0  0  0  0  0  0  0  0  0  0  0  0
  1  2  1  0
  2  3  1  0
  3  4  2  0
  4  5  1  0
  5  6  2  0
  6  7  1  0
  7  8  1  0
  8  9  1  0
  9 10  2  0
  9 11  1  0
 11 12  1  0
 12 13  1  0
 13 14  2  0
 14 15  1  0
 15 16  1  0
 15 17  2  0
 17 18  1  0
 18 19  1  0
 19 20  1  0
 19 21  1  0
 19 22  1  0
 18 23  2  0
 23 24  1  0
 24 25  3  0
  6 26  1  0
 26 27  1  0
 27 28  1  0
 26 29  2  0
 29 30  1  0
 30 31  1  0
 29  3  1  0
 23 13  1  0
M  END
>  <Binding energies>  (24) 
[-6.41]

>  <Ligand effiencies>  (24) 
[-0.2003125]

>  <Interactions>  (24) 
["V-A:MET:535:CE:4833, V-B:ASP:366:CG:8184, V-A:TYR:539:CE2:4874, V-A:ASP:366:CG:3210, H-A:TYR:539:OH:4876, V-A:PRO:540:CB:4883, V-A:PRO:540:CA:4881, H-A:TYR:531:OH:4793, H-A:TYR:539:N:4868, V-A:TYR:539:CZ:4875, V-B:ASP:366:CB:8183, V-A:TYR:539:CE1:4873, V-A:TYR:539:CD2:4872, V-A:PRO:540:C:4879, V-A:TYR:539:CD1:4871, V-B:ILE:369:CD1:8210, V-A:ALA:541:CB:4890, V-A:PRO:540:N:4882, V-A:TYR:539:C:4865, V-B:ILE:369:CG2:8208, V-B:ARG:545:CZ:9898, V-B:LEU:475:CD2:9230, V-B:GLY:454:CA:9020, H-B:GLY:454:N:9021, V-B:ILE:369:CB:8207, V-A:ARG:545:CZ:4924, V-A:GLU:543:CD:4906, V-A:ASN:362:CB:3173, V-B:ASP:366:CA:8181, V-B:ASP:366:C:8179, V-A:ALA:541:C:4886, V-A:ALA:541:CA:4888"]

$$$$
2i_Grossjean_2025
     RDKit          3D

 23 24  0  0  0  0  0  0  0  0999 V2000
  132.8260  131.1290   62.2640 C   0  0  0  0  0  0  0  0  0  0  0  0
  132.0730  131.5130   61.0040 C   0  0  0  0  0  0  0  0  0  0  0  0
  132.6920  131.5180   59.7570 C   0  0  0  0  0  0  0  0  0  0  0  0
  131.9520  131.8790   58.6220 C   0  0  0  0  0  0  0  0  0  0  0  0
  132.6520  131.8790   57.2490 C   0  0  0  0  0  0  0  0  0  0  0  0
  131.9490  131.1530   56.3780 F   0  0  0  0  0  0  0  0  0  0  0  0
  132.7560  133.1260   56.7890 F   0  0  0  0  0  0  0  0  0  0  0  0
  133.8830  131.3650   57.2980 F   0  0  0  0  0  0  0  0  0  0  0  0
  130.5870  132.2290   58.7860 C   0  0  0  0  0  0  0  0  0  0  0  0
  129.7670  132.6130   57.6330 C   0  0  0  0  0  0  0  0  0  0  0  0
  129.1180  132.9170   56.7230 N   0  0  0  0  0  0  0  0  0  0  0  0
  130.0400  132.2000   60.0890 C   0  0  0  0  0  0  0  0  0  0  0  0
  128.3380  132.6290   60.4180 S   0  0  0  0  0  0  0  0  0  0  0  0
  128.2140  133.1560   62.1540 C   0  0  0  0  0  0  0  0  0  0  0  0
  127.0340  132.5000   62.8750 C   0  0  0  0  0  0  0  0  0  0  0  0
  125.9120  132.9970   62.7610 O   0  0  0  0  0  0  0  0  0  0  0  0
  127.3310  131.4140   63.6210 N   0  0  0  0  0  0  0  0  0  0  0  0
  126.4460  130.6630   64.3760 C   0  0  0  0  0  0  0  0  0  0  0  0
  126.6940  129.6950   65.3610 C   0  0  0  0  0  0  0  0  0  0  0  0
  125.4460  129.2850   65.7700 C   0  0  0  0  0  0  0  0  0  0  0  0
  124.5040  129.9710   65.0790 O   0  0  0  0  0  0  0  0  0  0  0  0
  125.1540  130.8440   64.2040 N   0  0  0  0  0  0  0  0  0  0  0  0
  130.7740  131.8460   61.1750 N   0  0  0  0  0  0  0  0  0  0  0  0
  1  2  1  0
  2  3  2  0
  3  4  1  0
  4  5  1  0
  5  6  1  0
  5  7  1  0
  5  8  1  0
  4  9  2  0
  9 10  1  0
 10 11  3  0
  9 12  1  0
 12 13  1  0
 13 14  1  0
 14 15  1  0
 15 16  2  0
 15 17  1  0
 17 18  1  0
 18 19  1  0
 19 20  2  0
 20 21  1  0
 21 22  1  0
 12 23  2  0
 23  2  1  0
 22 18  2  0
M  END
>  <Binding energies>  (25) 
[-7.97]

>  <Ligand effiencies>  (25) 
[-0.33208333333333334]

>  <Interactions>  (25) 
["V-A:ASP:366:CG:3210, V-A:TYR:531:CZ:4792, V-A:LEU:363:CA:3182, V-A:TYR:531:CE2:4791, H-A:ALA:541:N:4889, V-A:PRO:540:CB:4883, V-A:PRO:540:CA:4881, V-A:ASP:366:CB:3209, V-A:LEU:363:CB:3184, V-A:LEU:363:CD1:3186, H-A:TYR:539:N:4868, V-A:TYR:539:CD1:4871, V-A:ALA:541:CB:4890, V-A:PRO:540:N:4882, V-A:TYR:539:C:4865, V-B:ARG:545:CZ:9898, V-A:ILE:538:CB:4860, V-A:PRO:540:CD:4885, V-B:LEU:475:CD2:9230, V-A:ILE:538:CG2:4861, H-B:TYR:484:OH:9319, H-B:GLY:454:N:9021, V-A:ARG:545:CZ:4924, V-A:GLU:543:CD:4906, H-A:GLU:543:OE1:4907, H-B:ARG:545:NE:9896, V-B:ARG:545:CD:9895, V-A:PRO:540:CG:4884, V-B:ARG:545:CG:9894, V-A:ASN:362:CB:3173, V-A:LEU:363:CG:3185"]

$$$$
2k_Grossjean_2025
     RDKit          3D

 28 28  0  0  0  0  0  0  0  0999 V2000
  129.7230  127.1540   56.0330 C   0  0  0  0  0  0  0  0  0  0  0  0
  130.6580  126.2560   55.4540 O   0  0  0  0  0  0  0  0  0  0  0  0
  130.5480  124.9270   55.9490 C   0  0  0  0  0  0  0  0  0  0  0  0
  129.8270  124.9370   57.3030 C   0  0  0  0  0  0  0  0  0  0  0  0
  130.7930  124.8600   58.3420 O   0  0  0  0  0  0  0  0  0  0  0  0
  131.8250  125.8350   58.2550 C   0  0  0  0  0  0  0  0  0  0  0  0
  133.1190  125.1340   57.8230 C   0  0  0  0  0  0  0  0  0  0  0  0
  133.1880  123.8910   58.5050 O   0  0  0  0  0  0  0  0  0  0  0  0
  134.0980  123.8480   59.5940 C   0  0  0  0  0  0  0  0  0  0  0  0
  133.3050  123.9430   60.9110 C   0  0  0  0  0  0  0  0  0  0  0  0
  131.9580  123.3760   60.8090 N   0  0  0  0  0  0  0  0  0  0  0  0
  131.3490  122.6290   61.7500 C   0  0  0  0  0  0  0  0  0  0  0  0
  131.8610  122.3600   62.8380 O   0  0  0  0  0  0  0  0  0  0  0  0
  129.9560  122.0990   61.3810 C   0  0  0  0  0  0  0  0  0  0  0  0
  129.3890  122.4960   59.6910 S   0  0  0  0  0  0  0  0  0  0  0  0
  127.6550  122.9300   59.7320 C   0  0  0  0  0  0  0  0  0  0  0  0
  127.1480  123.2120   60.9600 N   0  0  0  0  0  0  0  0  0  0  0  0
  125.8420  123.5430   61.0660 C   0  0  0  0  0  0  0  0  0  0  0  0
  125.3490  123.8320   62.4700 C   0  0  0  0  0  0  0  0  0  0  0  0
  124.9940  123.6200   59.9640 C   0  0  0  0  0  0  0  0  0  0  0  0
  125.4990  123.3420   58.6850 C   0  0  0  0  0  0  0  0  0  0  0  0
  124.5480  123.4370   57.4760 C   0  0  0  0  0  0  0  0  0  0  0  0
  123.3800  124.0040   57.7810 F   0  0  0  0  0  0  0  0  0  0  0  0
  125.1090  124.1670   56.5100 F   0  0  0  0  0  0  0  0  0  0  0  0
  124.2900  122.2180   57.0010 F   0  0  0  0  0  0  0  0  0  0  0  0
  126.8660  122.9840   58.5590 C   0  0  0  0  0  0  0  0  0  0  0  0
  127.4450  122.6790   57.2470 C   0  0  0  0  0  0  0  0  0  0  0  0
  127.9020  122.4390   56.2110 N   0  0  0  0  0  0  0  0  0  0  0  0
  1  2  1  0
  2  3  1  0
  3  4  1  0
  4  5  1  0
  5  6  1  0
  6  7  1  0
  7  8  1  0
  8  9  1  0
  9 10  1  0
 10 11  1  0
 11 12  1  0
 12 13  2  0
 12 14  1  0
 14 15  1  0
 15 16  1  0
 16 17  2  0
 17 18  1  0
 18 19  1  0
 18 20  2  0
 20 21  1  0
 21 22  1  0
 22 23  1  0
 22 24  1  0
 22 25  1  0
 21 26  2  0
 26 27  1  0
 27 28  3  0
 26 16  1  0
M  END
>  <Binding energies>  (26) 
[-6.33]

>  <Ligand effiencies>  (26) 
[-0.21827586206896551]

>  <Interactions>  (26) 
["V-A:MET:535:CE:4833, V-B:ASP:366:CG:8184, V-A:ASP:366:CG:3210, V-A:ASP:366:CB:3209, H-A:TYR:531:OH:4793, V-B:ASP:366:CB:8183, V-B:PRO:540:CA:9855, V-B:ALA:541:CB:9864, V-B:LEU:363:CA:8156, V-B:PRO:540:CB:9857, V-B:LEU:363:CD1:8160, V-B:MET:535:CE:9807, V-A:ASP:366:CA:3207, V-B:ASN:362:CB:8147, V-B:PRO:540:CG:9858, V-B:ILE:538:CG2:9835, V-B:ILE:538:CB:9834, V-B:PRO:540:CD:9859, V-A:ASP:366:C:3205, V-B:PRO:540:N:9856, V-B:GLU:543:CD:9880, V-B:TYR:539:C:9839, V-B:TYR:539:CE1:9847, V-B:PRO:540:C:9853, V-A:ILE:369:CB:3233, H-B:TYR:539:N:9842, V-B:TYR:539:CZ:9849, V-A:ILE:369:CD1:3236, V-B:TYR:531:CE2:9765, V-A:ILE:369:CG2:3234, V-B:ARG:545:CZ:9898, H-B:TYR:539:OH:9850, V-B:TYR:531:CZ:9766, H-B:ALA:541:N:9863, V-B:LEU:363:CB:8158, V-B:LEU:363:CG:8159, V-B:LEU:363:C:8154"]

$$$$
3aa_Grossjean_2025
     RDKit          3D

 34 36  0  0  0  0  0  0  0  0999 V2000
  133.3530  131.6930   57.5940 C   0  0  0  0  0  0  0  0  0  0  0  0
  132.5260  132.3310   56.4740 C   0  0  0  0  0  0  0  0  0  0  0  0
  131.4980  133.1340   57.0410 O   0  0  0  0  0  0  0  0  0  0  0  0
  130.2190  132.6840   57.1120 C   0  0  0  0  0  0  0  0  0  0  0  0
  129.3370  133.0130   56.3140 O   0  0  0  0  0  0  0  0  0  0  0  0
  129.9790  131.7560   58.2690 C   0  0  0  0  0  0  0  0  0  0  0  0
  130.1670  130.3700   58.1620 C   0  0  0  0  0  0  0  0  0  0  0  0
  129.9400  129.5400   59.2560 C   0  0  0  0  0  0  0  0  0  0  0  0
  129.5280  130.0750   60.4770 C   0  0  0  0  0  0  0  0  0  0  0  0
  129.3310  129.1480   61.5210 N   0  0  0  0  0  0  0  0  0  0  0  0
  128.5970  128.0130   61.5360 C   0  0  0  0  0  0  0  0  0  0  0  0
  127.9230  127.5860   60.5980 O   0  0  0  0  0  0  0  0  0  0  0  0
  128.6230  127.2310   62.8490 C   0  0  0  0  0  0  0  0  0  0  0  0
  130.2960  126.6460   63.2550 S   0  0  0  0  0  0  0  0  0  0  0  0
  130.6030  125.2070   62.2550 C   0  0  0  0  0  0  0  0  0  0  0  0
  129.5700  124.8810   61.4420 N   0  0  0  0  0  0  0  0  0  0  0  0
  129.6710  123.8010   60.6250 C   0  0  0  0  0  0  0  0  0  0  0  0
  128.4920  123.5140   59.7450 C   0  0  0  0  0  0  0  0  0  0  0  0
  127.1970  123.8860   60.1410 C   0  0  0  0  0  0  0  0  0  0  0  0
  126.0970  123.6240   59.3280 C   0  0  0  0  0  0  0  0  0  0  0  0
  126.2780  122.9850   58.1070 C   0  0  0  0  0  0  0  0  0  0  0  0
  127.5500  122.6080   57.6910 C   0  0  0  0  0  0  0  0  0  0  0  0
  128.6490  122.8740   58.5040 C   0  0  0  0  0  0  0  0  0  0  0  0
  130.8320  123.0220   60.6050 C   0  0  0  0  0  0  0  0  0  0  0  0
  131.9080  123.3290   61.4520 C   0  0  0  0  0  0  0  0  0  0  0  0
  133.1650  122.4400   61.4080 C   0  0  0  0  0  0  0  0  0  0  0  0
  133.0740  121.4570   60.5110 F   0  0  0  0  0  0  0  0  0  0  0  0
  134.2350  123.1700   61.0910 F   0  0  0  0  0  0  0  0  0  0  0  0
  133.3650  121.8780   62.6010 F   0  0  0  0  0  0  0  0  0  0  0  0
  131.7910  124.4470   62.3130 C   0  0  0  0  0  0  0  0  0  0  0  0
  132.8600  124.7820   63.2590 C   0  0  0  0  0  0  0  0  0  0  0  0
  133.7040  125.0450   64.0070 N   0  0  0  0  0  0  0  0  0  0  0  0
  129.3250  131.4590   60.5880 C   0  0  0  0  0  0  0  0  0  0  0  0
  129.5510  132.2870   59.4930 C   0  0  0  0  0  0  0  0  0  0  0  0
  1  2  1  0
  2  3  1  0
  3  4  1  0
  4  5  2  0
  4  6  1  0
  6  7  2  0
  7  8  1  0
  8  9  2  0
  9 10  1  0
 10 11  1  0
 11 12  2  0
 11 13  1  0
 13 14  1  0
 14 15  1  0
 15 16  2  0
 16 17  1  0
 17 18  1  0
 18 19  2  0
 19 20  1  0
 20 21  2  0
 21 22  1  0
 22 23  2  0
 17 24  2  0
 24 25  1  0
 25 26  1  0
 26 27  1  0
 26 28  1  0
 26 29  1  0
 25 30  2  0
 30 31  1  0
 31 32  3  0
  9 33  1  0
 33 34  2  0
 34  6  1  0
 30 15  1  0
 23 18  1  0
M  END
>  <Binding energies>  (27) 
[-8.21]

>  <Ligand effiencies>  (27) 
[-0.2345714285714286]

>  <Interactions>  (27) 
["V-A:LEU:363:CA:3182, V-A:TYR:531:CE2:4791, V-A:PRO:540:CB:4883, V-A:PRO:540:CA:4881, V-A:LEU:363:CB:3184, V-A:LEU:363:CD1:3186, H-A:TYR:539:N:4868, V-B:PRO:540:CA:9855, V-B:PRO:540:CB:9857, V-B:PRO:540:CD:9859, V-B:PRO:540:N:9856, V-A:LEU:475:CD2:4256, V-B:GLU:543:CD:9880, V-B:TYR:539:C:9839, V-B:TYR:539:CE1:9847, V-B:TYR:539:CD1:9845, V-A:PRO:540:N:4882, V-A:TYR:539:C:4865, V-A:ILE:369:CB:3233, V-A:ILE:369:CD1:3236, V-A:ILE:369:CG1:3235, V-A:ILE:369:CG2:3234, V-A:ILE:538:CB:4860, V-A:PRO:540:CD:4885, V-A:ILE:538:CG2:4861, H-A:GLY:454:N:4047, V-A:GLY:454:CA:4046, H-A:ARG:545:NH2:4926, V-A:ARG:545:CZ:4924, V-B:TYR:539:CA:9841, H-A:GLU:543:OE2:4908, H-A:GLU:543:OE1:4907, H-A:ARG:545:NE:4922"]

$$$$
3ad_Grossjean_2025
     RDKit          3D

 29 31  0  0  0  0  0  0  0  0999 V2000
  133.5150  123.9940   60.9280 N   0  0  0  0  0  0  0  0  0  0  0  0
  132.5160  123.8790   60.3540 C   0  0  0  0  0  0  0  0  0  0  0  0
  131.2510  123.7370   59.6250 C   0  0  0  0  0  0  0  0  0  0  0  0
  130.9830  124.5250   58.4800 C   0  0  0  0  0  0  0  0  0  0  0  0
  131.9980  125.5330   57.9070 C   0  0  0  0  0  0  0  0  0  0  0  0
  131.7190  125.8920   56.6520 F   0  0  0  0  0  0  0  0  0  0  0  0
  132.0090  126.6410   58.6500 F   0  0  0  0  0  0  0  0  0  0  0  0
  133.2220  125.0010   57.9060 F   0  0  0  0  0  0  0  0  0  0  0  0
  129.7390  124.3840   57.8460 C   0  0  0  0  0  0  0  0  0  0  0  0
  128.7900  123.4850   58.3430 C   0  0  0  0  0  0  0  0  0  0  0  0
  127.4400  123.3060   57.7140 C   0  0  0  0  0  0  0  0  0  0  0  0
  127.3190  123.0170   56.3460 C   0  0  0  0  0  0  0  0  0  0  0  0
  126.0700  122.8480   55.7550 C   0  0  0  0  0  0  0  0  0  0  0  0
  124.9200  122.9670   56.5300 C   0  0  0  0  0  0  0  0  0  0  0  0
  125.0120  123.2500   57.8880 C   0  0  0  0  0  0  0  0  0  0  0  0
  126.2640  123.4170   58.4740 C   0  0  0  0  0  0  0  0  0  0  0  0
  129.0490  122.7370   59.4450 N   0  0  0  0  0  0  0  0  0  0  0  0
  130.2500  122.8400   60.0610 C   0  0  0  0  0  0  0  0  0  0  0  0
  130.4200  121.7770   61.4780 S   0  0  0  0  0  0  0  0  0  0  0  0
  132.1830  121.3660   61.6360 C   0  0  0  0  0  0  0  0  0  0  0  0
  132.5810  120.1800   60.7550 C   0  0  0  0  0  0  0  0  0  0  0  0
  133.4790  120.3260   59.9250 O   0  0  0  0  0  0  0  0  0  0  0  0
  131.8910  119.0390   60.9720 N   0  0  0  0  0  0  0  0  0  0  0  0
  132.0140  117.7810   60.3540 C   0  0  0  0  0  0  0  0  0  0  0  0
  130.8320  117.2440   59.8350 C   0  0  0  0  0  0  0  0  0  0  0  0
  130.8410  116.0020   59.2070 C   0  0  0  0  0  0  0  0  0  0  0  0
  132.0320  115.2910   59.1010 C   0  0  0  0  0  0  0  0  0  0  0  0
  133.2150  115.8100   59.6200 C   0  0  0  0  0  0  0  0  0  0  0  0
  133.2110  117.0520   60.2490 C   0  0  0  0  0  0  0  0  0  0  0  0
  1  2  3  0
  2  3  1  0
  3  4  2  0
  4  5  1  0
  5  6  1  0
  5  7  1  0
  5  8  1  0
  4  9  1  0
  9 10  2  0
 10 11  1  0
 11 12  2  0
 12 13  1  0
 13 14  2  0
 14 15  1  0
 15 16  2  0
 10 17  1  0
 17 18  2  0
 18 19  1  0
 19 20  1  0
 20 21  1  0
 21 22  2  0
 21 23  1  0
 23 24  1  0
 24 25  2  0
 25 26  1  0
 26 27  2  0
 27 28  1  0
 28 29  2  0
 18  3  1  0
 29 24  1  0
 16 11  1  0
M  END
>  <Binding energies>  (28) 
[-8.62]

>  <Ligand effiencies>  (28) 
[-0.28733333333333333]

>  <Interactions>  (28) 
["V-A:ASP:366:CG:3210, V-A:TYR:531:CZ:4792, V-A:ASP:366:CB:3209, V-B:PRO:540:CA:9855, V-B:PRO:540:CB:9857, V-B:LEU:363:CD1:8160, V-B:MET:535:CE:9807, V-A:ASP:366:CA:3207, V-B:ILE:538:CG2:9835, V-B:ILE:538:CB:9834, V-B:ILE:538:CA:9832, V-B:PRO:540:CD:9859, V-A:ASP:366:C:3205, V-B:PRO:540:N:9856, V-A:LEU:475:CD2:4256, V-B:TYR:539:CE1:9847, V-B:TYR:539:CD1:9845, V-B:TYR:539:CG:9844, V-B:TYR:539:CZ:9849, V-B:TYR:531:CE2:9765, V-A:ILE:369:CG2:3234, H-B:TYR:539:O:9840, V-A:TYR:531:CE1:4790, V-A:PRO:482:CG:4324, V-A:SER:385:CB:3406, V-A:SER:385:CA:3404, V-B:TYR:539:CB:9843, V-A:HIS:383:CG:3387, V-A:LEU:373:CD2:3278, V-A:HIS:383:CB:3386, V-A:LEU:373:CD1:3277, V-A:VAL:384:C:3394, V-B:VAL:344:CG1:7972, V-A:HIS:383:CD2:3389, V-A:HIS:383:CE1:3391"]

$$$$
3ai_Grossjean_2025
     RDKit          3D

 28 30  0  0  0  0  0  0  0  0999 V2000
  130.9910  125.0470   62.4420 N   0  0  0  0  0  0  0  0  0  0  0  0
  131.1740  123.9410   62.1540 C   0  0  0  0  0  0  0  0  0  0  0  0
  131.4060  122.5400   61.7900 C   0  0  0  0  0  0  0  0  0  0  0  0
  132.7220  122.0420   61.6320 C   0  0  0  0  0  0  0  0  0  0  0  0
  133.9740  122.9080   61.8710 C   0  0  0  0  0  0  0  0  0  0  0  0
  133.7950  123.8230   62.8270 F   0  0  0  0  0  0  0  0  0  0  0  0
  134.9980  122.1370   62.2390 F   0  0  0  0  0  0  0  0  0  0  0  0
  134.3020  123.5590   60.7540 F   0  0  0  0  0  0  0  0  0  0  0  0
  132.8900  120.7060   61.2360 C   0  0  0  0  0  0  0  0  0  0  0  0
  131.7780  119.8920   61.0020 C   0  0  0  0  0  0  0  0  0  0  0  0
  131.8980  118.4630   60.5670 C   0  0  0  0  0  0  0  0  0  0  0  0
  130.7580  117.7190   60.2250 C   0  0  0  0  0  0  0  0  0  0  0  0
  130.8630  116.3930   59.8150 C   0  0  0  0  0  0  0  0  0  0  0  0
  132.1140  115.7900   59.7420 C   0  0  0  0  0  0  0  0  0  0  0  0
  133.2600  116.5060   60.0730 C   0  0  0  0  0  0  0  0  0  0  0  0
  133.1510  117.8320   60.4820 C   0  0  0  0  0  0  0  0  0  0  0  0
  130.5180  120.3760   61.1470 N   0  0  0  0  0  0  0  0  0  0  0  0
  130.3300  121.6550   61.5520 C   0  0  0  0  0  0  0  0  0  0  0  0
  128.6140  122.1050   61.7080 S   0  0  0  0  0  0  0  0  0  0  0  0
  128.4400  123.8420   61.1780 C   0  0  0  0  0  0  0  0  0  0  0  0
  127.8700  124.0360   59.7650 C   0  0  0  0  0  0  0  0  0  0  0  0
  127.7260  125.1660   59.2920 O   0  0  0  0  0  0  0  0  0  0  0  0
  127.5550  122.8890   59.1220 N   0  0  0  0  0  0  0  0  0  0  0  0
  127.0310  122.7580   57.8420 C   0  0  0  0  0  0  0  0  0  0  0  0
  125.7840  123.2610   57.4740 C   0  0  0  0  0  0  0  0  0  0  0  0
  125.6400  122.9260   56.1480 C   0  0  0  0  0  0  0  0  0  0  0  0
  126.7430  122.2570   55.7370 O   0  0  0  0  0  0  0  0  0  0  0  0
  127.6190  122.1580   56.8200 N   0  0  0  0  0  0  0  0  0  0  0  0
  1  2  3  0
  2  3  1  0
  3  4  2  0
  4  5  1  0
  5  6  1  0
  5  7  1  0
  5  8  1  0
  4  9  1  0
  9 10  2  0
 10 11  1  0
 11 12  2  0
 12 13  1  0
 13 14  2  0
 14 15  1  0
 15 16  2  0
 10 17  1  0
 17 18  2  0
 18 19  1  0
 19 20  1  0
 20 21  1  0
 21 22  2  0
 21 23  1  0
 23 24  1  0
 24 25  1  0
 25 26  2  0
 26 27  1  0
 27 28  1  0
 18  3  1  0
 28 24  2  0
 16 11  1  0
M  END
>  <Binding energies>  (29) 
[-8.53]

>  <Ligand effiencies>  (29) 
[-0.2941379310344827]

>  <Interactions>  (29) 
["V-B:PRO:540:CA:9855, V-B:ALA:541:CB:9864, V-B:PRO:540:CB:9857, V-B:ILE:538:CG2:9835, V-B:ILE:538:CB:9834, V-B:ILE:538:CA:9832, V-B:PRO:540:N:9856, V-A:LEU:475:CD2:4256, V-B:TYR:539:C:9839, V-B:TYR:539:CE1:9847, V-B:TYR:539:CD1:9845, V-B:TYR:539:CG:9844, V-A:ILE:369:CB:3233, H-B:TYR:539:N:9842, V-A:ILE:369:CD1:3236, V-A:ILE:369:CG1:3235, V-A:ILE:369:CG2:3234, V-A:GLY:454:CA:4046, V-A:GLY:453:CA:4041, H-B:ALA:541:N:9863, H-B:TYR:539:O:9840, V-A:PRO:482:CG:4324, V-A:SER:385:CB:3406, V-A:PRO:482:CB:4323, V-A:SER:385:CA:3404, V-B:TYR:539:CB:9843, V-A:LEU:373:CD1:3277, V-A:GLY:453:C:4039, V-A:VAL:384:C:3394, V-B:VAL:344:CG1:7972, V-A:SER:385:C:3402"]

$$$$
3aj_Grossjean_2025
     RDKit          3D

 28 30  0  0  0  0  0  0  0  0999 V2000
  130.7740  125.6460   62.3740 N   0  0  0  0  0  0  0  0  0  0  0  0
  130.9310  124.5420   62.0650 C   0  0  0  0  0  0  0  0  0  0  0  0
  131.1260  123.1430   61.6740 C   0  0  0  0  0  0  0  0  0  0  0  0
  130.0220  122.3310   61.3150 C   0  0  0  0  0  0  0  0  0  0  0  0
  128.5770  122.8640   61.2700 C   0  0  0  0  0  0  0  0  0  0  0  0
  127.7860  122.1470   60.4690 F   0  0  0  0  0  0  0  0  0  0  0  0
  128.0430  122.8380   62.4920 F   0  0  0  0  0  0  0  0  0  0  0  0
  128.5670  124.1200   60.8210 F   0  0  0  0  0  0  0  0  0  0  0  0
  130.2570  120.9850   60.9940 C   0  0  0  0  0  0  0  0  0  0  0  0
  131.5540  120.4640   61.0340 C   0  0  0  0  0  0  0  0  0  0  0  0
  131.8590  119.0330   60.7100 C   0  0  0  0  0  0  0  0  0  0  0  0
  133.1850  118.6010   60.5570 C   0  0  0  0  0  0  0  0  0  0  0  0
  133.4760  117.2710   60.2600 C   0  0  0  0  0  0  0  0  0  0  0  0
  132.4400  116.3550   60.1110 C   0  0  0  0  0  0  0  0  0  0  0  0
  131.1170  116.7590   60.2600 C   0  0  0  0  0  0  0  0  0  0  0  0
  130.8310  118.0880   60.5580 C   0  0  0  0  0  0  0  0  0  0  0  0
  132.6080  121.2450   61.3860 N   0  0  0  0  0  0  0  0  0  0  0  0
  132.4100  122.5530   61.6760 C   0  0  0  0  0  0  0  0  0  0  0  0
  133.9070  123.4210   62.0920 S   0  0  0  0  0  0  0  0  0  0  0  0
  134.4330  124.3650   60.6210 C   0  0  0  0  0  0  0  0  0  0  0  0
  133.5300  124.2040   59.3890 C   0  0  0  0  0  0  0  0  0  0  0  0
  133.9110  123.5660   58.4060 O   0  0  0  0  0  0  0  0  0  0  0  0
  132.3250  124.8080   59.4910 N   0  0  0  0  0  0  0  0  0  0  0  0
  131.3190  124.8160   58.5340 C   0  0  0  0  0  0  0  0  0  0  0  0
  130.1500  124.2140   58.5860 N   0  0  0  0  0  0  0  0  0  0  0  0
  129.4380  124.4400   57.5000 C   0  0  0  0  0  0  0  0  0  0  0  0
  130.0330  125.2450   56.5310 C   0  0  0  0  0  0  0  0  0  0  0  0
  131.6090  125.7230   57.0840 S   0  0  0  0  0  0  0  0  0  0  0  0
  1  2  3  0
  2  3  1  0
  3  4  2  0
  4  5  1  0
  5  6  1  0
  5  7  1  0
  5  8  1  0
  4  9  1  0
  9 10  2  0
 10 11  1  0
 11 12  2  0
 12 13  1  0
 13 14  2  0
 14 15  1  0
 15 16  2  0
 10 17  1  0
 17 18  2  0
 18 19  1  0
 19 20  1  0
 20 21  1  0
 21 22  2  0
 21 23  1  0
 23 24  1  0
 24 25  2  0
 25 26  1  0
 26 27  2  0
 27 28  1  0
 18  3  1  0
 28 24  1  0
 16 11  1  0
M  END
>  <Binding energies>  (30) 
[-7.25]

>  <Ligand effiencies>  (30) 
[-0.25]

>  <Interactions>  (30) 
["V-A:ASP:366:CG:3210, V-B:PRO:540:CA:9855, V-B:ALA:541:CB:9864, V-B:ALA:541:CA:9862, V-B:MET:535:CE:9807, V-A:ASP:366:CA:3207, V-B:PRO:540:N:9856, V-A:LEU:475:CD2:4256, V-B:GLU:543:CD:9880, V-B:TYR:539:C:9839, V-B:TYR:539:CE1:9847, V-B:TYR:539:CD1:9845, V-B:PRO:540:C:9853, V-B:TYR:539:CG:9844, V-B:TYR:539:CZ:9849, V-A:ILE:369:CD1:3236, V-A:ILE:369:CG2:3234, H-B:TYR:539:OH:9850, H-A:GLY:454:N:4047, H-A:ASP:366:OD1:3211, V-A:PRO:482:CG:4324, V-A:SER:385:CB:3406, V-A:PRO:482:CB:4323, V-A:SER:385:CA:3404, V-B:TYR:539:CB:9843, V-A:LEU:373:CD1:3277, V-A:VAL:384:C:3394, V-B:VAL:344:CG1:7972"]

$$$$
3ak_Grossjean_2025
     RDKit          3D

 33 34  0  0  0  0  0  0  0  0999 V2000
  132.4660  131.4980   62.4820 C   0  0  0  0  0  0  0  0  0  0  0  0
  133.3030  132.2140   61.5880 O   0  0  0  0  0  0  0  0  0  0  0  0
  133.5350  131.5330   60.3620 C   0  0  0  0  0  0  0  0  0  0  0  0
  132.2140  131.4290   59.5910 C   0  0  0  0  0  0  0  0  0  0  0  0
  132.3110  132.2030   58.4000 O   0  0  0  0  0  0  0  0  0  0  0  0
  132.4860  131.4600   57.1970 C   0  0  0  0  0  0  0  0  0  0  0  0
  131.9230  132.1620   55.9470 C   0  0  0  0  0  0  0  0  0  0  0  0
  130.8820  133.0470   56.3380 O   0  0  0  0  0  0  0  0  0  0  0  0
  129.6210  132.7460   55.7550 C   0  0  0  0  0  0  0  0  0  0  0  0
  128.7230  132.0230   56.7750 C   0  0  0  0  0  0  0  0  0  0  0  0
  129.3220  131.9090   58.1060 N   0  0  0  0  0  0  0  0  0  0  0  0
  128.6560  131.6970   59.2570 C   0  0  0  0  0  0  0  0  0  0  0  0
  127.4330  131.5550   59.3040 O   0  0  0  0  0  0  0  0  0  0  0  0
  129.4520  131.6280   60.5720 C   0  0  0  0  0  0  0  0  0  0  0  0
  129.2490  133.0350   61.7250 S   0  0  0  0  0  0  0  0  0  0  0  0
  127.5230  133.4930   61.7720 C   0  0  0  0  0  0  0  0  0  0  0  0
  127.2490  134.7790   61.4380 N   0  0  0  0  0  0  0  0  0  0  0  0
  125.9670  135.2240   61.4500 C   0  0  0  0  0  0  0  0  0  0  0  0
  125.7550  136.6580   61.0670 C   0  0  0  0  0  0  0  0  0  0  0  0
  124.4620  137.2000   61.0020 C   0  0  0  0  0  0  0  0  0  0  0  0
  124.2590  138.5320   60.6500 C   0  0  0  0  0  0  0  0  0  0  0  0
  125.3510  139.3430   60.3590 C   0  0  0  0  0  0  0  0  0  0  0  0
  126.6420  138.8320   60.4180 C   0  0  0  0  0  0  0  0  0  0  0  0
  126.8420  137.5000   60.7710 C   0  0  0  0  0  0  0  0  0  0  0  0
  124.9130  134.3670   61.7880 C   0  0  0  0  0  0  0  0  0  0  0  0
  125.1690  133.0330   62.1350 C   0  0  0  0  0  0  0  0  0  0  0  0
  123.9830  132.1200   62.5040 C   0  0  0  0  0  0  0  0  0  0  0  0
  122.9390  132.8580   62.8820 F   0  0  0  0  0  0  0  0  0  0  0  0
  123.6310  131.3810   61.4510 F   0  0  0  0  0  0  0  0  0  0  0  0
  124.2650  131.2820   63.5040 F   0  0  0  0  0  0  0  0  0  0  0  0
  126.5100  132.5780   62.1310 C   0  0  0  0  0  0  0  0  0  0  0  0
  126.8370  131.1930   62.4860 C   0  0  0  0  0  0  0  0  0  0  0  0
  127.0950  130.1000   62.7670 N   0  0  0  0  0  0  0  0  0  0  0  0
  1  2  1  0
  2  3  1  0
  3  4  1  0
  4  5  1  0
  5  6  1  0
  6  7  1  0
  7  8  1  0
  8  9  1  0
  9 10  1  0
 10 11  1  0
 11 12  1  0
 12 13  2  0
 12 14  1  0
 14 15  1  0
 15 16  1  0
 16 17  2  0
 17 18  1  0
 18 19  1  0
 19 20  2  0
 20 21  1  0
 21 22  2  0
 22 23  1  0
 23 24  2  0
 18 25  2  0
 25 26  1  0
 26 27  1  0
 27 28  1  0
 27 29  1  0
 27 30  1  0
 26 31  2  0
 31 32  1  0
 32 33  3  0
 31 16  1  0
 24 19  1  0
M  END
>  <Binding energies>  (31) 
[-7.62]

>  <Ligand effiencies>  (31) 
[-0.22411764705882353]

>  <Interactions>  (31) 
["V-A:MET:535:CE:4833, V-A:TYR:539:CE2:4874, V-A:ASP:366:CG:3210, V-A:LEU:363:CA:3182, V-A:TYR:531:CE2:4791, H-A:ALA:541:N:4889, V-A:PRO:540:CB:4883, V-A:PRO:540:CA:4881, V-A:ILE:538:CA:4858, V-A:LEU:363:CD1:3186, H-A:TYR:539:N:4868, V-A:TYR:539:CZ:4875, V-A:TYR:539:CE1:4873, V-A:TYR:539:CD2:4872, V-A:TYR:539:CD1:4871, V-B:ILE:369:CD1:8210, V-A:ALA:541:CB:4890, V-A:ASN:362:C:3169, V-A:TYR:539:CG:4870, V-B:ILE:369:CG2:8208, V-A:ILE:538:CB:4860, V-B:PRO:482:CB:9297, V-B:SER:385:CA:8378, V-B:PRO:482:CG:9298, V-B:LEU:475:CD2:9230, V-A:ILE:538:CG2:4861, V-B:SER:385:CB:8380, V-B:LEU:373:CD1:8251, V-A:ILE:538:C:4856, V-B:GLY:453:C:9013, V-B:GLY:454:CA:9020, V-B:ILE:369:CG1:8209, V-A:ARG:545:CZ:4924, V-A:GLU:543:CD:4906, V-A:ASN:362:CB:3173, V-B:VAL:384:C:8368, V-B:LEU:373:CD2:8252, V-B:SER:385:C:8376, V-A:VAL:344:CG1:2998, V-A:ALA:541:C:4886, V-A:TYR:539:CB:4869"]

$$$$
3bk_Grossjean_2025
     RDKit          3D

 30 31  0  0  0  0  0  0  0  0999 V2000
  124.1920  123.6280   58.3140 C   0  0  0  0  0  0  0  0  0  0  0  0
  124.5000  122.6970   57.2880 O   0  0  0  0  0  0  0  0  0  0  0  0
  124.9220  123.3090   56.0770 C   0  0  0  0  0  0  0  0  0  0  0  0
  126.4200  123.0490   55.8630 C   0  0  0  0  0  0  0  0  0  0  0  0
  126.8960  122.1770   56.8780 O   0  0  0  0  0  0  0  0  0  0  0  0
  128.2860  122.3120   57.1460 C   0  0  0  0  0  0  0  0  0  0  0  0
  128.4890  123.3470   58.2600 C   0  0  0  0  0  0  0  0  0  0  0  0
  129.7700  123.9460   58.1200 O   0  0  0  0  0  0  0  0  0  0  0  0
  130.1160  124.8200   59.1860 C   0  0  0  0  0  0  0  0  0  0  0  0
  131.4080  125.5710   58.8320 C   0  0  0  0  0  0  0  0  0  0  0  0
  132.5150  125.2280   59.7260 N   0  0  0  0  0  0  0  0  0  0  0  0
  133.4550  124.2980   59.4820 C   0  0  0  0  0  0  0  0  0  0  0  0
  133.5030  123.6290   58.4490 O   0  0  0  0  0  0  0  0  0  0  0  0
  134.5240  124.1100   60.5620 C   0  0  0  0  0  0  0  0  0  0  0  0
  133.8070  123.5470   62.1380 S   0  0  0  0  0  0  0  0  0  0  0  0
  132.3360  122.5940   61.8010 C   0  0  0  0  0  0  0  0  0  0  0  0
  132.5370  121.3040   61.4300 N   0  0  0  0  0  0  0  0  0  0  0  0
  131.4740  120.5040   61.1500 C   0  0  0  0  0  0  0  0  0  0  0  0
  131.7840  119.0880   60.7680 C   0  0  0  0  0  0  0  0  0  0  0  0
  130.7520  118.1550   60.5750 C   0  0  0  0  0  0  0  0  0  0  0  0
  131.0350  116.8360   60.2270 C   0  0  0  0  0  0  0  0  0  0  0  0
  132.3560  116.4320   60.0650 C   0  0  0  0  0  0  0  0  0  0  0  0
  133.3960  117.3380   60.2460 C   0  0  0  0  0  0  0  0  0  0  0  0
  133.1100  118.6550   60.5930 C   0  0  0  0  0  0  0  0  0  0  0  0
  130.1650  120.9910   61.2440 C   0  0  0  0  0  0  0  0  0  0  0  0
  129.9400  122.3180   61.6240 C   0  0  0  0  0  0  0  0  0  0  0  0
  128.4960  122.8090   61.7140 C   0  0  0  0  0  0  0  0  0  0  0  0
  131.0430  123.1500   61.9110 C   0  0  0  0  0  0  0  0  0  0  0  0
  130.8370  124.5440   62.3140 C   0  0  0  0  0  0  0  0  0  0  0  0
  130.6750  125.6450   62.6310 N   0  0  0  0  0  0  0  0  0  0  0  0
  1  2  1  0
  2  3  1  0
  3  4  1  0
  4  5  1  0
  5  6  1  0
  6  7  1  0
  7  8  1  0
  8  9  1  0
  9 10  1  0
 10 11  1  0
 11 12  1  0
 12 13  2  0
 12 14  1  0
 14 15  1  0
 15 16  1  0
 16 17  2  0
 17 18  1  0
 18 19  1  0
 19 20  2  0
 20 21  1  0
 21 22  2  0
 22 23  1  0
 23 24  2  0
 18 25  2  0
 25 26  1  0
 26 27  1  0
 26 28  2  0
 28 29  1  0
 29 30  3  0
 28 16  1  0
 24 19  1  0
M  END
>  <Binding energies>  (32) 
[-8.12]

>  <Ligand effiencies>  (32) 
[-0.2619354838709677]

>  <Interactions>  (32) 
["V-A:ASP:366:CG:3210, V-A:ASP:366:CB:3209, V-B:PRO:540:CA:9855, V-B:ALA:541:CB:9864, V-B:LEU:363:CA:8156, V-B:PRO:540:CB:9857, V-B:LEU:363:CD1:8160, V-B:MET:535:CE:9807, V-A:ASP:366:CA:3207, V-B:ILE:538:CG2:9835, V-B:ILE:538:CB:9834, V-B:ILE:538:CA:9832, V-B:PRO:540:N:9856, V-A:LEU:475:CD2:4256, V-B:TYR:539:C:9839, V-B:TYR:539:CE1:9847, V-B:TYR:539:CD1:9845, V-B:TYR:539:CG:9844, V-A:ILE:369:CB:3233, H-B:TYR:539:N:9842, V-B:TYR:539:CZ:9849, V-A:ILE:369:CD1:3236, V-B:TYR:531:CE2:9765, V-A:ILE:369:CG1:3235, V-A:ILE:369:CG2:3234, H-B:TYR:539:OH:9850, H-A:ASP:366:OD2:3212, H-A:GLY:454:N:4047, H-A:ASP:366:OD1:3211, V-B:TYR:531:CZ:9766, V-B:TYR:539:CE2:9848, V-B:TYR:539:CA:9841, V-B:TYR:539:CD2:9846, V-A:PRO:482:CG:4324, V-A:SER:385:CB:3406, V-A:PRO:482:CB:4323, V-A:SER:385:CA:3404, V-B:TYR:539:CB:9843, V-A:LEU:373:CD1:3277, V-A:VAL:384:C:3394, V-B:VAL:344:CG1:7972"]

$$$$
3cb_Grossjean_2025
     RDKit          3D

 30 32  0  0  0  0  0  0  0  0999 V2000
  133.3940  114.7910   61.1420 C   0  0  0  0  0  0  0  0  0  0  0  0
  132.0220  114.9360   60.8050 O   0  0  0  0  0  0  0  0  0  0  0  0
  131.6280  115.8020   59.8370 C   0  0  0  0  0  0  0  0  0  0  0  0
  131.2280  115.4430   58.7250 O   0  0  0  0  0  0  0  0  0  0  0  0
  131.7280  117.2420   60.2510 C   0  0  0  0  0  0  0  0  0  0  0  0
  130.6040  117.9820   60.6470 C   0  0  0  0  0  0  0  0  0  0  0  0
  130.7320  119.3140   61.0280 C   0  0  0  0  0  0  0  0  0  0  0  0
  131.9810  119.9380   61.0170 C   0  0  0  0  0  0  0  0  0  0  0  0
  131.9950  121.2870   61.4240 N   0  0  0  0  0  0  0  0  0  0  0  0
  133.0310  122.1450   61.5490 C   0  0  0  0  0  0  0  0  0  0  0  0
  134.2060  121.8740   61.2930 O   0  0  0  0  0  0  0  0  0  0  0  0
  132.6400  123.5490   62.0340 C   0  0  0  0  0  0  0  0  0  0  0  0
  130.8450  123.8780   62.0710 S   0  0  0  0  0  0  0  0  0  0  0  0
  130.2880  124.0510   60.3890 C   0  0  0  0  0  0  0  0  0  0  0  0
  131.2330  124.5520   59.5560 N   0  0  0  0  0  0  0  0  0  0  0  0
  130.9220  124.7270   58.2530 C   0  0  0  0  0  0  0  0  0  0  0  0
  132.0310  125.2790   57.3780 C   0  0  0  0  0  0  0  0  0  0  0  0
  129.6680  124.4170   57.7330 C   0  0  0  0  0  0  0  0  0  0  0  0
  128.6710  123.9130   58.5770 C   0  0  0  0  0  0  0  0  0  0  0  0
  127.3390  123.6020   57.9730 C   0  0  0  0  0  0  0  0  0  0  0  0
  127.2570  122.8060   56.8230 C   0  0  0  0  0  0  0  0  0  0  0  0
  126.0210  122.5010   56.2580 C   0  0  0  0  0  0  0  0  0  0  0  0
  124.8570  122.9900   56.8460 C   0  0  0  0  0  0  0  0  0  0  0  0
  124.9200  123.7760   57.9930 C   0  0  0  0  0  0  0  0  0  0  0  0
  126.1570  124.0770   58.5560 C   0  0  0  0  0  0  0  0  0  0  0  0
  128.9770  123.7360   59.9520 C   0  0  0  0  0  0  0  0  0  0  0  0
  127.9450  123.3010   60.8980 C   0  0  0  0  0  0  0  0  0  0  0  0
  127.1310  122.9570   61.6450 N   0  0  0  0  0  0  0  0  0  0  0  0
  133.1110  119.2040   60.6260 C   0  0  0  0  0  0  0  0  0  0  0  0
  132.9810  117.8700   60.2460 C   0  0  0  0  0  0  0  0  0  0  0  0
  1  2  1  0
  2  3  1  0
  3  4  2  0
  3  5  1  0
  5  6  2  0
  6  7  1  0
  7  8  2  0
  8  9  1  0
  9 10  1  0
 10 11  2  0
 10 12  1  0
 12 13  1  0
 13 14  1  0
 14 15  2  0
 15 16  1  0
 16 17  1  0
 16 18  2  0
 18 19  1  0
 19 20  1  0
 20 21  2  0
 21 22  1  0
 22 23  2  0
 23 24  1  0
 24 25  2  0
 19 26  2  0
 26 27  1  0
 27 28  3  0
  8 29  1  0
 29 30  2  0
 30  5  1  0
 26 14  1  0
 25 20  1  0
M  END
>  <Binding energies>  (33) 
[-9.35]

>  <Ligand effiencies>  (33) 
[-0.3016129032258064]

>  <Interactions>  (33) 
["V-A:ASP:366:CB:3209, V-B:PRO:540:CA:9855, V-B:PRO:540:CB:9857, V-B:LEU:363:CD1:8160, V-B:ILE:538:CG2:9835, V-B:ILE:538:CB:9834, V-B:ILE:538:CA:9832, V-B:PRO:540:CD:9859, V-B:PRO:540:N:9856, V-A:LEU:475:CD2:4256, V-B:TYR:539:C:9839, V-B:TYR:539:CE1:9847, V-B:TYR:539:CD1:9845, V-B:TYR:539:CZ:9849, V-B:TYR:531:CE2:9765, V-A:ILE:369:CG2:3234, H-B:ALA:541:N:9863, V-B:ILE:538:C:9830, V-A:PRO:482:CG:4324, V-A:SER:385:CB:3406, V-A:PRO:482:CB:4323, V-A:SER:385:CA:3404, V-B:TYR:539:CB:9843, V-A:HIS:383:CG:3387, V-A:HIS:383:CB:3386, V-A:LEU:373:CD1:3277, V-B:VAL:344:CG1:7972, V-A:THR:477:CA:4267, V-A:THR:477:CG2:4270, V-A:THR:477:CB:4269"]

$$$$
3ch_Grossjean_2025
     RDKit          3D

 32 34  0  0  0  0  0  0  0  0999 V2000
  129.7110  121.9830   61.3890 C   0  0  0  0  0  0  0  0  0  0  0  0
  130.9640  122.6120   61.6410 O   0  0  0  0  0  0  0  0  0  0  0  0
  131.0010  123.7970   62.3530 C   0  0  0  0  0  0  0  0  0  0  0  0
  129.9450  124.7210   62.3970 C   0  0  0  0  0  0  0  0  0  0  0  0
  130.0510  125.9000   63.1500 C   0  0  0  0  0  0  0  0  0  0  0  0
  129.0460  126.8800   63.2590 N   0  0  0  0  0  0  0  0  0  0  0  0
  128.9190  128.0600   62.6130 C   0  0  0  0  0  0  0  0  0  0  0  0
  129.6950  128.4970   61.7640 O   0  0  0  0  0  0  0  0  0  0  0  0
  127.6720  128.8720   62.9640 C   0  0  0  0  0  0  0  0  0  0  0  0
  127.8780  130.6390   62.5960 S   0  0  0  0  0  0  0  0  0  0  0  0
  128.0470  130.7580   60.8280 C   0  0  0  0  0  0  0  0  0  0  0  0
  126.9260  130.4200   60.1440 N   0  0  0  0  0  0  0  0  0  0  0  0
  126.9540  130.4710   58.7930 C   0  0  0  0  0  0  0  0  0  0  0  0
  125.6690  130.0750   58.0910 C   0  0  0  0  0  0  0  0  0  0  0  0
  128.0870  130.8530   58.0790 C   0  0  0  0  0  0  0  0  0  0  0  0
  129.2530  131.2140   58.7680 C   0  0  0  0  0  0  0  0  0  0  0  0
  130.4480  131.6080   57.9600 C   0  0  0  0  0  0  0  0  0  0  0  0
  130.3450  132.6260   57.0050 C   0  0  0  0  0  0  0  0  0  0  0  0
  131.4510  132.9930   56.2420 C   0  0  0  0  0  0  0  0  0  0  0  0
  132.6660  132.3390   56.4310 C   0  0  0  0  0  0  0  0  0  0  0  0
  132.7830  131.3200   57.3720 C   0  0  0  0  0  0  0  0  0  0  0  0
  131.6740  130.9550   58.1320 C   0  0  0  0  0  0  0  0  0  0  0  0
  129.2340  131.1850   60.1860 C   0  0  0  0  0  0  0  0  0  0  0  0
  130.3930  131.6420   60.9600 C   0  0  0  0  0  0  0  0  0  0  0  0
  131.3080  132.0000   61.5710 N   0  0  0  0  0  0  0  0  0  0  0  0
  131.2340  126.1580   63.8440 C   0  0  0  0  0  0  0  0  0  0  0  0
  132.3050  125.2510   63.8140 C   0  0  0  0  0  0  0  0  0  0  0  0
  133.5000  125.4440   64.4860 O   0  0  0  0  0  0  0  0  0  0  0  0
  133.5030  125.4950   65.9090 C   0  0  0  0  0  0  0  0  0  0  0  0
  132.1770  124.0760   63.0630 C   0  0  0  0  0  0  0  0  0  0  0  0
  133.2120  123.1710   63.0390 O   0  0  0  0  0  0  0  0  0  0  0  0
  133.9040  123.1150   61.8000 C   0  0  0  0  0  0  0  0  0  0  0  0
  1  2  1  0
  2  3  1  0
  3  4  2  0
  4  5  1  0
  5  6  1  0
  6  7  1  0
  7  8  2  0
  7  9  1  0
  9 10  1  0
 10 11  1  0
 11 12  2  0
 12 13  1  0
 13 14  1  0
 13 15  2  0
 15 16  1  0
 16 17  1  0
 17 18  2  0
 18 19  1  0
 19 20  2  0
 20 21  1  0
 21 22  2  0
 16 23  2  0
 23 24  1  0
 24 25  3  0
  5 26  2  0
 26 27  1  0
 27 28  1  0
 28 29  1  0
 27 30  2  0
 30 31  1  0
 31 32  1  0
 30  3  1  0
 23 11  1  0
 22 17  1  0
M  END
>  <Binding energies>  (34) 
[-7.7]

>  <Ligand effiencies>  (34) 
[-0.23333333333333334]

>  <Interactions>  (34) 
["V-A:TYR:531:CE2:4791, H-A:ALA:541:N:4889, V-A:PRO:540:CA:4881, V-A:ILE:538:CA:4858, V-A:LEU:363:CD1:3186, V-A:TYR:539:CZ:4875, V-A:TYR:539:CE1:4873, V-B:ALA:541:CB:9864, V-B:GLU:543:CD:9880, V-A:PRO:540:N:4882, V-A:TYR:539:C:4865, V-A:ILE:369:CD1:3236, V-A:ILE:538:CB:4860, V-A:PRO:540:CD:4885, V-A:ILE:538:CG2:4861, V-A:ILE:538:C:4856, H-A:GLY:454:N:4047, V-A:GLY:454:CA:4046, H-A:TYR:484:OH:4345, V-A:ARG:545:CG:4920, H-A:ARG:545:NH2:4926, V-A:ARG:545:CD:4921, V-A:HIS:456:CE1:4066, V-A:ARG:545:CZ:4924, V-A:GLU:543:CD:4906, H-A:GLU:543:OE2:4908, H-A:ARG:545:NE:4922, H-B:GLU:543:OE1:9881, H-B:GLU:543:OE2:9882, H-A:ARG:545:NH1:4925"]

$$$$
3ci_Grossjean_2025
     RDKit          3D

 25 27  0  0  0  0  0  0  0  0999 V2000
  130.1630  121.6980   61.9030 C   0  0  0  0  0  0  0  0  0  0  0  0
  129.9950  122.5060   60.6300 C   0  0  0  0  0  0  0  0  0  0  0  0
  128.8020  122.5010   59.9140 C   0  0  0  0  0  0  0  0  0  0  0  0
  128.6890  123.2770   58.7510 C   0  0  0  0  0  0  0  0  0  0  0  0
  127.3850  123.2540   58.0230 C   0  0  0  0  0  0  0  0  0  0  0  0
  127.3220  122.8650   56.6790 C   0  0  0  0  0  0  0  0  0  0  0  0
  126.1050  122.8530   56.0020 C   0  0  0  0  0  0  0  0  0  0  0  0
  124.9450  123.2370   56.6670 C   0  0  0  0  0  0  0  0  0  0  0  0
  124.9910  123.6350   58.0000 C   0  0  0  0  0  0  0  0  0  0  0  0
  126.2090  123.6450   58.6740 C   0  0  0  0  0  0  0  0  0  0  0  0
  129.8130  124.0380   58.3380 C   0  0  0  0  0  0  0  0  0  0  0  0
  129.7680  124.8360   57.1070 C   0  0  0  0  0  0  0  0  0  0  0  0
  129.7310  125.4650   56.1360 N   0  0  0  0  0  0  0  0  0  0  0  0
  130.9860  123.9890   59.1290 C   0  0  0  0  0  0  0  0  0  0  0  0
  132.4520  124.9250   58.7130 S   0  0  0  0  0  0  0  0  0  0  0  0
  133.9110  124.1400   59.4740 C   0  0  0  0  0  0  0  0  0  0  0  0
  133.7590  123.9080   60.9820 C   0  0  0  0  0  0  0  0  0  0  0  0
  133.9800  122.7860   61.4430 O   0  0  0  0  0  0  0  0  0  0  0  0
  133.3680  124.9810   61.7050 N   0  0  0  0  0  0  0  0  0  0  0  0
  133.1840  125.0470   63.0790 C   0  0  0  0  0  0  0  0  0  0  0  0
  131.9260  125.0380   63.6790 C   0  0  0  0  0  0  0  0  0  0  0  0
  132.1730  125.1210   65.0310 C   0  0  0  0  0  0  0  0  0  0  0  0
  133.5120  125.1760   65.2320 O   0  0  0  0  0  0  0  0  0  0  0  0
  134.1410  125.1300   63.9880 N   0  0  0  0  0  0  0  0  0  0  0  0
  131.0710  123.2290   60.2500 N   0  0  0  0  0  0  0  0  0  0  0  0
  1  2  1  0
  2  3  2  0
  3  4  1  0
  4  5  1  0
  5  6  2  0
  6  7  1  0
  7  8  2  0
  8  9  1  0
  9 10  2  0
  4 11  2  0
 11 12  1  0
 12 13  3  0
 11 14  1  0
 14 15  1  0
 15 16  1  0
 16 17  1  0
 17 18  2  0
 17 19  1  0
 19 20  1  0
 20 21  1  0
 21 22  2  0
 22 23  1  0
 23 24  1  0
 14 25  2  0
 25  2  1  0
 10  5  1  0
 24 20  2  0
M  END
>  <Binding energies>  (35) 
[-8.81]

>  <Ligand effiencies>  (35) 
[-0.33884615384615385]

>  <Interactions>  (35) 
["V-A:ASP:366:CG:3210, V-A:ASP:366:CB:3209, V-B:PRO:540:CA:9855, V-B:ALA:541:CB:9864, V-B:PRO:540:CB:9857, V-B:LEU:363:CD1:8160, V-B:MET:535:CE:9807, V-A:ASP:366:CA:3207, V-B:ILE:538:CG2:9835, V-B:ILE:538:CB:9834, V-B:ILE:538:CA:9832, V-B:PRO:540:N:9856, V-A:LEU:475:CD2:4256, V-B:TYR:539:C:9839, V-B:TYR:539:CE1:9847, V-B:TYR:539:CD1:9845, V-A:ILE:369:CB:3233, V-B:TYR:539:CZ:9849, V-A:ILE:369:CD1:3236, V-B:TYR:531:CE2:9765, V-A:ILE:369:CG2:3234, H-B:TYR:539:OH:9850, H-A:ASP:366:OD2:3212, H-A:GLY:454:N:4047, H-A:TYR:484:OH:4345, H-A:ASP:366:OD1:3211, H-A:ARG:545:NH2:4926, V-A:ARG:545:CZ:4924, H-A:ARG:545:NE:4922, H-A:ARG:545:NH1:4925"]

$$$$
3ck_Grossjean_2025
     RDKit          3D

 30 31  0  0  0  0  0  0  0  0999 V2000
  129.7520  127.2010   55.9590 C   0  0  0  0  0  0  0  0  0  0  0  0
  130.8340  126.5580   55.3030 O   0  0  0  0  0  0  0  0  0  0  0  0
  130.8530  125.1490   55.4910 C   0  0  0  0  0  0  0  0  0  0  0  0
  129.8910  124.7700   56.6240 C   0  0  0  0  0  0  0  0  0  0  0  0
  130.6400  124.4430   57.7880 O   0  0  0  0  0  0  0  0  0  0  0  0
  131.4710  125.4980   58.2540 C   0  0  0  0  0  0  0  0  0  0  0  0
  132.9390  125.1190   58.0210 C   0  0  0  0  0  0  0  0  0  0  0  0
  133.2200  123.9410   58.7620 O   0  0  0  0  0  0  0  0  0  0  0  0
  134.3310  124.0400   59.6390 C   0  0  0  0  0  0  0  0  0  0  0  0
  133.9330  123.5240   61.0350 C   0  0  0  0  0  0  0  0  0  0  0  0
  132.7500  124.1850   61.5930 N   0  0  0  0  0  0  0  0  0  0  0  0
  132.7050  124.8670   62.7520 C   0  0  0  0  0  0  0  0  0  0  0  0
  133.6890  125.0340   63.4760 O   0  0  0  0  0  0  0  0  0  0  0  0
  131.3310  125.4430   63.1290 C   0  0  0  0  0  0  0  0  0  0  0  0
  130.2820  125.9490   61.7230 S   0  0  0  0  0  0  0  0  0  0  0  0
  129.5590  124.4950   60.9780 C   0  0  0  0  0  0  0  0  0  0  0  0
  130.0680  123.3090   61.3950 N   0  0  0  0  0  0  0  0  0  0  0  0
  129.5710  122.1670   60.8700 C   0  0  0  0  0  0  0  0  0  0  0  0
  130.1910  120.8810   61.3830 C   0  0  0  0  0  0  0  0  0  0  0  0
  128.5570  122.1590   59.9160 C   0  0  0  0  0  0  0  0  0  0  0  0
  128.0200  123.3720   59.4660 C   0  0  0  0  0  0  0  0  0  0  0  0
  126.9500  123.3170   58.4250 C   0  0  0  0  0  0  0  0  0  0  0  0
  125.6330  123.6610   58.7510 C   0  0  0  0  0  0  0  0  0  0  0  0
  124.6280  123.6010   57.7880 C   0  0  0  0  0  0  0  0  0  0  0  0
  124.9380  123.1910   56.4940 C   0  0  0  0  0  0  0  0  0  0  0  0
  126.2420  122.8370   56.1560 C   0  0  0  0  0  0  0  0  0  0  0  0
  127.2430  122.8970   57.1210 C   0  0  0  0  0  0  0  0  0  0  0  0
  128.5240  124.5780   60.0180 C   0  0  0  0  0  0  0  0  0  0  0  0
  127.9720  125.8760   59.6150 C   0  0  0  0  0  0  0  0  0  0  0  0
  127.5350  126.9000   59.2970 N   0  0  0  0  0  0  0  0  0  0  0  0
  1  2  1  0
  2  3  1  0
  3  4  1  0
  4  5  1  0
  5  6  1  0
  6  7  1  0
  7  8  1  0
  8  9  1  0
  9 10  1  0
 10 11  1  0
 11 12  1  0
 12 13  2  0
 12 14  1  0
 14 15  1  0
 15 16  1  0
 16 17  2  0
 17 18  1  0
 18 19  1  0
 18 20  2  0
 20 21  1  0
 21 22  1  0
 22 23  2  0
 23 24  1  0
 24 25  2  0
 25 26  1  0
 26 27  2  0
 21 28  2  0
 28 29  1  0
 29 30  3  0
 28 16  1  0
 27 22  1  0
M  END
>  <Binding energies>  (36) 
[-6.86]

>  <Ligand effiencies>  (36) 
[-0.22129032258064518]

>  <Interactions>  (36) 
["V-A:MET:535:CE:4833, V-A:ASP:366:CG:3210, V-A:ASP:366:CB:3209, H-A:TYR:531:OH:4793, V-B:PRO:540:CA:9855, V-B:ALA:541:CB:9864, V-B:PRO:540:CB:9857, V-B:LEU:363:CD1:8160, V-B:MET:535:CE:9807, V-A:ASP:366:CA:3207, V-B:ILE:538:CG2:9835, V-B:ILE:538:CB:9834, V-B:ILE:538:CA:9832, V-B:PRO:540:N:9856, V-A:LEU:475:CD2:4256, V-B:TYR:539:C:9839, V-B:TYR:539:CE1:9847, V-B:TYR:539:CD1:9845, V-A:ILE:369:CB:3233, V-B:TYR:539:CZ:9849, V-A:ILE:369:CD1:3236, V-B:TYR:531:CE2:9765, V-A:ILE:369:CG1:3235, V-A:ILE:369:CG2:3234, H-B:TYR:539:OH:9850, H-A:GLY:454:N:4047, H-A:ARG:545:NH2:4926, V-A:ARG:545:CZ:4924, H-A:ARG:545:NH1:4925"]

$$$$
4aa_Grossjean_2025
     RDKit          3D

 26 28  0  0  0  0  0  0  0  0999 V2000
  130.8380  115.3610   58.3420 C   0  0  0  0  0  0  0  0  0  0  0  0
  132.3680  115.4110   58.3990 C   0  0  0  0  0  0  0  0  0  0  0  0
  132.8180  114.7550   59.5780 O   0  0  0  0  0  0  0  0  0  0  0  0
  133.3200  115.4600   60.6240 C   0  0  0  0  0  0  0  0  0  0  0  0
  134.1640  115.0100   61.4060 O   0  0  0  0  0  0  0  0  0  0  0  0
  132.7430  116.8410   60.7400 C   0  0  0  0  0  0  0  0  0  0  0  0
  131.4300  116.9980   61.2020 C   0  0  0  0  0  0  0  0  0  0  0  0
  130.8640  118.2650   61.3160 C   0  0  0  0  0  0  0  0  0  0  0  0
  131.6020  119.4010   60.9800 C   0  0  0  0  0  0  0  0  0  0  0  0
  130.9310  120.6300   61.1250 N   0  0  0  0  0  0  0  0  0  0  0  0
  131.2880  121.7460   61.8060 C   0  0  0  0  0  0  0  0  0  0  0  0
  132.3110  121.8440   62.4850 O   0  0  0  0  0  0  0  0  0  0  0  0
  130.3490  122.8650   61.7100 C   0  0  0  0  0  0  0  0  0  0  0  0
  130.8070  124.4650   62.2990 S   0  0  0  0  0  0  0  0  0  0  0  0
  129.2390  125.1180   61.8820 C   0  0  0  0  0  0  0  0  0  0  0  0
  128.9270  126.3970   62.0980 N   0  0  0  0  0  0  0  0  0  0  0  0
  127.6770  126.7740   61.7330 C   0  0  0  0  0  0  0  0  0  0  0  0
  127.3410  128.2320   61.9920 C   0  0  0  0  0  0  0  0  0  0  0  0
  126.7440  125.9130   61.1610 C   0  0  0  0  0  0  0  0  0  0  0  0
  127.0740  124.5730   60.9350 C   0  0  0  0  0  0  0  0  0  0  0  0
  126.0220  123.6710   60.3080 C   0  0  0  0  0  0  0  0  0  0  0  0
  128.3750  124.1380   61.3080 C   0  0  0  0  0  0  0  0  0  0  0  0
  129.0320  122.8610   61.2250 C   0  0  0  0  0  0  0  0  0  0  0  0
  128.4090  121.7500   60.7120 N   0  0  0  0  0  0  0  0  0  0  0  0
  132.9150  119.2550   60.5110 C   0  0  0  0  0  0  0  0  0  0  0  0
  133.4780  117.9860   60.3940 C   0  0  0  0  0  0  0  0  0  0  0  0
  1  2  1  0
  2  3  1  0
  3  4  1  0
  4  5  2  0
  4  6  1  0
  6  7  2  0
  7  8  1  0
  8  9  2  0
  9 10  1  0
 10 11  1  0
 11 12  2  0
 11 13  1  0
 13 14  1  0
 14 15  1  0
 15 16  2  0
 16 17  1  0
 17 18  1  0
 17 19  2  0
 19 20  1  0
 20 21  1  0
 20 22  2  0
 22 23  1  0
 23 24  1  0
  9 25  1  0
 25 26  2  0
 26  6  1  0
 23 13  2  0
 22 15  1  0
M  END
>  <Binding energies>  (37) 
[-6.95]

>  <Ligand effiencies>  (37) 
[-0.2396551724137931]

>  <Interactions>  (37) 
["V-B:ASP:366:CG:8184, V-B:PRO:540:CA:9855, V-B:ALA:541:CB:9864, V-B:PRO:540:CB:9857, V-B:ALA:541:CA:9862, V-B:PRO:540:N:9856, V-A:LEU:475:CD2:4256, V-B:TYR:539:C:9839, V-B:TYR:539:CE1:9847, V-B:TYR:539:CD1:9845, V-B:PRO:540:C:9853, V-A:ILE:369:CG2:3234, H-B:TYR:539:O:9840, V-A:PRO:482:CG:4324, V-A:SER:385:CB:3406, V-A:PRO:482:CB:4323, V-A:SER:385:CA:3404, V-B:TYR:539:CB:9843, V-A:HIS:383:CG:3387, V-A:LEU:373:CD2:3278, V-A:HIS:383:CB:3386, V-A:LEU:373:CD1:3277, V-A:VAL:384:C:3394, V-B:VAL:344:CG1:7972, V-B:ILE:343:CD1:7965, V-A:HIS:383:CD2:3389, V-A:HIS:383:CE1:3391, H-A:HIS:383:ND1:3388, V-A:LEU:373:CG:3276, H-A:SER:385:N:3405, V-B:ILE:343:CG1:7964, H-A:SER:385:OG:3407"]

$$$$
4ab_Grossjean_2025
     RDKit          3D

 25 27  0  0  0  0  0  0  0  0999 V2000
  132.0940  115.3790   58.1910 C   0  0  0  0  0  0  0  0  0  0  0  0
  133.2170  115.0150   58.9800 O   0  0  0  0  0  0  0  0  0  0  0  0
  133.3960  115.5330   60.2220 C   0  0  0  0  0  0  0  0  0  0  0  0
  134.1120  115.0100   61.0820 O   0  0  0  0  0  0  0  0  0  0  0  0
  132.6280  116.8040   60.4500 C   0  0  0  0  0  0  0  0  0  0  0  0
  133.2850  118.0330   60.3080 C   0  0  0  0  0  0  0  0  0  0  0  0
  132.6010  119.2290   60.5150 C   0  0  0  0  0  0  0  0  0  0  0  0
  131.2490  119.2200   60.8590 C   0  0  0  0  0  0  0  0  0  0  0  0
  130.6600  120.4840   61.0510 N   0  0  0  0  0  0  0  0  0  0  0  0
  131.1620  121.6030   61.6290 C   0  0  0  0  0  0  0  0  0  0  0  0
  132.2780  121.6750   62.1460 O   0  0  0  0  0  0  0  0  0  0  0  0
  130.2660  122.7610   61.6280 C   0  0  0  0  0  0  0  0  0  0  0  0
  130.8090  124.3070   62.2860 S   0  0  0  0  0  0  0  0  0  0  0  0
  129.2570  125.0440   61.9620 C   0  0  0  0  0  0  0  0  0  0  0  0
  129.0050  126.3190   62.2600 N   0  0  0  0  0  0  0  0  0  0  0  0
  127.7610  126.7660   61.9600 C   0  0  0  0  0  0  0  0  0  0  0  0
  127.4930  128.2180   62.3120 C   0  0  0  0  0  0  0  0  0  0  0  0
  126.7740  125.9770   61.3730 C   0  0  0  0  0  0  0  0  0  0  0  0
  127.0420  124.6390   61.0630 C   0  0  0  0  0  0  0  0  0  0  0  0
  125.9320  123.8170   60.4240 C   0  0  0  0  0  0  0  0  0  0  0  0
  128.3350  124.1320   61.3660 C   0  0  0  0  0  0  0  0  0  0  0  0
  128.9340  122.8370   61.1920 C   0  0  0  0  0  0  0  0  0  0  0  0
  128.2500  121.7810   60.6440 N   0  0  0  0  0  0  0  0  0  0  0  0
  130.5850  117.9930   61.0090 C   0  0  0  0  0  0  0  0  0  0  0  0
  131.2700  116.7990   60.8040 C   0  0  0  0  0  0  0  0  0  0  0  0
  1  2  1  0
  2  3  1  0
  3  4  2  0
  3  5  1  0
  5  6  2  0
  6  7  1  0
  7  8  2  0
  8  9  1  0
  9 10  1  0
 10 11  2  0
 10 12  1  0
 12 13  1  0
 13 14  1  0
 14 15  2  0
 15 16  1  0
 16 17  1  0
 16 18  2  0
 18 19  1  0
 19 20  1  0
 19 21  2  0
 21 22  1  0
 22 23  1  0
  8 24  1  0
 24 25  2  0
 25  5  1  0
 22 12  2  0
 21 14  1  0
M  END
>  <Binding energies>  (38) 
[-6.94]

>  <Ligand effiencies>  (38) 
[-0.24785714285714286]

>  <Interactions>  (38) 
["V-B:PRO:540:CA:9855, V-B:ALA:541:CB:9864, V-B:PRO:540:CB:9857, V-B:ALA:541:CA:9862, V-B:PRO:540:N:9856, V-A:LEU:475:CD2:4256, V-B:GLU:543:CD:9880, V-B:TYR:539:C:9839, V-B:TYR:539:CE1:9847, V-B:TYR:539:CD1:9845, V-B:PRO:540:C:9853, H-B:TYR:539:O:9840, V-A:PRO:482:CG:4324, V-A:SER:385:CB:3406, V-A:PRO:482:CB:4323, V-A:SER:385:CA:3404, V-A:HIS:383:CG:3387, V-A:LEU:373:CD2:3278, V-A:HIS:383:CB:3386, V-A:LEU:373:CD1:3277, V-A:VAL:384:C:3394, V-B:ILE:343:CD1:7965, V-A:HIS:383:CD2:3389, V-A:HIS:383:CE1:3391, H-A:HIS:383:ND1:3388, H-A:SER:385:N:3405, V-B:ILE:343:CG1:7964, H-B:PRO:540:O:9854"]

$$$$
4ac_Grossjean_2025
     RDKit          3D

 23 25  0  0  0  0  0  0  0  0999 V2000
  123.9480  129.6300   67.3760 C   0  0  0  0  0  0  0  0  0  0  0  0
  123.7630  129.5500   65.9670 O   0  0  0  0  0  0  0  0  0  0  0  0
  124.8230  129.8390   65.1300 C   0  0  0  0  0  0  0  0  0  0  0  0
  124.5010  130.2290   63.8300 C   0  0  0  0  0  0  0  0  0  0  0  0
  125.5030  130.5400   62.9150 C   0  0  0  0  0  0  0  0  0  0  0  0
  126.8440  130.4740   63.2930 C   0  0  0  0  0  0  0  0  0  0  0  0
  127.7870  130.7940   62.2980 N   0  0  0  0  0  0  0  0  0  0  0  0
  127.9990  131.9730   61.6650 C   0  0  0  0  0  0  0  0  0  0  0  0
  127.3300  132.9900   61.8610 O   0  0  0  0  0  0  0  0  0  0  0  0
  129.0970  131.9770   60.6950 C   0  0  0  0  0  0  0  0  0  0  0  0
  128.7700  132.2110   58.9780 S   0  0  0  0  0  0  0  0  0  0  0  0
  130.4700  132.0810   58.5870 C   0  0  0  0  0  0  0  0  0  0  0  0
  130.9160  132.1820   57.3350 N   0  0  0  0  0  0  0  0  0  0  0  0
  132.2550  132.0620   57.1690 C   0  0  0  0  0  0  0  0  0  0  0  0
  132.7430  132.1810   55.7370 C   0  0  0  0  0  0  0  0  0  0  0  0
  133.1500  131.8440   58.2150 C   0  0  0  0  0  0  0  0  0  0  0  0
  132.6780  131.7380   59.5290 C   0  0  0  0  0  0  0  0  0  0  0  0
  133.6930  131.5010   60.6360 C   0  0  0  0  0  0  0  0  0  0  0  0
  131.2790  131.8610   59.7410 C   0  0  0  0  0  0  0  0  0  0  0  0
  130.4710  131.8080   60.9310 C   0  0  0  0  0  0  0  0  0  0  0  0
  131.0130  131.6070   62.1750 N   0  0  0  0  0  0  0  0  0  0  0  0
  127.1770  130.0710   64.5940 C   0  0  0  0  0  0  0  0  0  0  0  0
  126.1720  129.7590   65.5070 C   0  0  0  0  0  0  0  0  0  0  0  0
  1  2  1  0
  2  3  1  0
  3  4  2  0
  4  5  1  0
  5  6  2  0
  6  7  1  0
  7  8  1  0
  8  9  2  0
  8 10  1  0
 10 11  1  0
 11 12  1  0
 12 13  2  0
 13 14  1  0
 14 15  1  0
 14 16  2  0
 16 17  1  0
 17 18  1  0
 17 19  2  0
 19 20  1  0
 20 21  1  0
  6 22  1  0
 22 23  2  0
 23  3  1  0
 20 10  2  0
 19 12  1  0
M  END
>  <Binding energies>  (39) 
[-6.94]

>  <Ligand effiencies>  (39) 
[-0.26692307692307693]

>  <Interactions>  (39) 
["V-A:ASP:366:CG:3210, V-A:TYR:531:CZ:4792, V-A:LEU:363:CA:3182, V-A:TYR:531:CE2:4791, V-A:PRO:540:CB:4883, V-A:PRO:540:CA:4881, V-A:LEU:363:CD1:3186, V-A:TYR:539:CE1:4873, V-A:TYR:539:CD1:4871, V-A:ALA:541:CB:4890, V-A:PRO:540:N:4882, V-A:ASN:362:C:3169, V-A:TYR:539:C:4865, V-B:ARG:545:CZ:9898, V-A:ILE:538:CB:4860, V-A:PRO:540:CD:4885, V-A:ILE:538:CG2:4861, V-B:GLY:453:CA:9015, V-B:GLY:454:CA:9020, H-B:TYR:484:OH:9319, H-B:GLY:454:N:9021, V-A:GLU:543:CD:4906, H-A:GLU:543:OE2:4908, H-A:GLU:543:OE1:4907, V-B:HIS:456:CE1:9040, H-B:ARG:545:NE:9896, V-B:ARG:545:CD:9895, V-B:TYR:484:CZ:9318, V-A:PRO:540:CG:4884, V-B:ARG:545:CG:9894, V-A:ASN:362:CB:3173, H-A:ALA:541:O:4887, V-A:ALA:541:CA:4888, V-B:ARG:545:CB:9893, V-B:ILE:455:C:9023"]

$$$$
4ad_Grossjean_2025
     RDKit          3D

 21 23  0  0  0  0  0  0  0  0999 V2000
  132.3830  125.9310   65.1500 C   0  0  0  0  0  0  0  0  0  0  0  0
  131.9730  124.8620   64.1550 C   0  0  0  0  0  0  0  0  0  0  0  0
  130.6920  124.8440   63.6080 C   0  0  0  0  0  0  0  0  0  0  0  0
  130.3350  123.8460   62.6930 C   0  0  0  0  0  0  0  0  0  0  0  0
  128.9240  123.8660   62.1250 C   0  0  0  0  0  0  0  0  0  0  0  0
  131.3170  122.8760   62.3540 C   0  0  0  0  0  0  0  0  0  0  0  0
  131.2940  121.7400   61.4720 C   0  0  0  0  0  0  0  0  0  0  0  0
  130.1820  121.4040   60.7420 N   0  0  0  0  0  0  0  0  0  0  0  0
  132.5020  121.0250   61.4310 C   0  0  0  0  0  0  0  0  0  0  0  0
  132.8220  119.8210   60.6610 C   0  0  0  0  0  0  0  0  0  0  0  0
  133.8420  119.7700   59.9710 O   0  0  0  0  0  0  0  0  0  0  0  0
  131.9360  118.8020   60.7820 N   0  0  0  0  0  0  0  0  0  0  0  0
  131.9290  117.5430   60.1510 C   0  0  0  0  0  0  0  0  0  0  0  0
  133.1220  116.8180   60.2200 C   0  0  0  0  0  0  0  0  0  0  0  0
  133.2120  115.5570   59.6350 C   0  0  0  0  0  0  0  0  0  0  0  0
  132.1040  115.0160   58.9880 C   0  0  0  0  0  0  0  0  0  0  0  0
  130.9060  115.7220   58.9250 C   0  0  0  0  0  0  0  0  0  0  0  0
  130.8130  116.9830   59.5070 C   0  0  0  0  0  0  0  0  0  0  0  0
  133.7080  121.7520   62.4930 S   0  0  0  0  0  0  0  0  0  0  0  0
  132.5910  123.0040   62.9850 C   0  0  0  0  0  0  0  0  0  0  0  0
  132.9340  123.9540   63.8560 N   0  0  0  0  0  0  0  0  0  0  0  0
  1  2  1  0
  2  3  2  0
  3  4  1  0
  4  5  1  0
  4  6  2  0
  6  7  1  0
  7  8  1  0
  7  9  2  0
  9 10  1  0
 10 11  2  0
 10 12  1  0
 12 13  1  0
 13 14  2  0
 14 15  1  0
 15 16  2  0
 16 17  1  0
 17 18  2  0
  9 19  1  0
 19 20  1  0
 20 21  2  0
 21  2  1  0
 20  6  1  0
 18 13  1  0
M  END
>  <Binding energies>  (40) 
[-7.19]

>  <Ligand effiencies>  (40) 
[-0.29958333333333337]

>  <Interactions>  (40) 
["V-A:LEU:475:CD2:4256, V-B:GLU:543:CD:9880, V-B:TYR:539:CE1:9847, V-B:TYR:539:CD1:9845, V-B:TYR:539:CG:9844, V-A:ILE:369:CD1:3236, V-A:ILE:369:CG2:3234, H-A:GLY:454:N:4047, V-A:GLY:454:CA:4046, H-A:TYR:484:OH:4345, V-A:ARG:545:CD:4921, V-A:ARG:545:CZ:4924, H-B:TYR:539:O:9840, V-A:PRO:482:CG:4324, V-A:SER:385:CB:3406, V-A:SER:385:CA:3404, V-B:TYR:539:CB:9843, V-A:HIS:383:CG:3387, V-A:LEU:373:CD2:3278, V-A:HIS:383:CB:3386, V-A:LEU:373:CD1:3277, V-B:VAL:344:CG1:7972, V-B:ILE:343:CD1:7965, V-A:HIS:383:CD2:3389, V-A:HIS:383:CE1:3391"]

$$$$
4ae_Grossjean_2025
     RDKit          3D

 22 24  0  0  0  0  0  0  0  0999 V2000
  130.8670  115.0130   58.0130 C   0  0  0  0  0  0  0  0  0  0  0  0
  131.4230  115.5380   59.3210 C   0  0  0  0  0  0  0  0  0  0  0  0
  132.0190  114.6880   60.2570 C   0  0  0  0  0  0  0  0  0  0  0  0
  132.5010  115.2410   61.4430 C   0  0  0  0  0  0  0  0  0  0  0  0
  132.3770  116.6150   61.6650 C   0  0  0  0  0  0  0  0  0  0  0  0
  131.7770  117.4100   60.6820 C   0  0  0  0  0  0  0  0  0  0  0  0
  131.6630  118.7810   60.9710 N   0  0  0  0  0  0  0  0  0  0  0  0
  132.6330  119.7290   60.9840 C   0  0  0  0  0  0  0  0  0  0  0  0
  133.8180  119.5010   60.7350 O   0  0  0  0  0  0  0  0  0  0  0  0
  132.1840  121.0810   61.3240 C   0  0  0  0  0  0  0  0  0  0  0  0
  130.4880  121.5310   61.1350 S   0  0  0  0  0  0  0  0  0  0  0  0
  130.8110  123.1630   61.6710 C   0  0  0  0  0  0  0  0  0  0  0  0
  129.8490  124.0820   61.7530 N   0  0  0  0  0  0  0  0  0  0  0  0
  130.2330  125.3100   62.1770 C   0  0  0  0  0  0  0  0  0  0  0  0
  129.1240  126.3430   62.2550 C   0  0  0  0  0  0  0  0  0  0  0  0
  131.5440  125.6370   62.5210 C   0  0  0  0  0  0  0  0  0  0  0  0
  132.5510  124.6690   62.4350 C   0  0  0  0  0  0  0  0  0  0  0  0
  133.9670  125.0740   62.8170 C   0  0  0  0  0  0  0  0  0  0  0  0
  132.1860  123.3690   61.9920 C   0  0  0  0  0  0  0  0  0  0  0  0
  132.9480  122.1650   61.7870 C   0  0  0  0  0  0  0  0  0  0  0  0
  134.2970  122.1010   62.0260 N   0  0  0  0  0  0  0  0  0  0  0  0
  131.2960  116.8750   59.5220 N   0  0  0  0  0  0  0  0  0  0  0  0
  1  2  1  0
  2  3  2  0
  3  4  1  0
  4  5  2  0
  5  6  1  0
  6  7  1  0
  7  8  1  0
  8  9  2  0
  8 10  1  0
 10 11  1  0
 11 12  1  0
 12 13  2  0
 13 14  1  0
 14 15  1  0
 14 16  2  0
 16 17  1  0
 17 18  1  0
 17 19  2  0
 19 20  1  0
 20 21  1  0
  6 22  2  0
 22  2  1  0
 20 10  2  0
 19 12  1  0
M  END
>  <Binding energies>  (41) 
[-7.15]

>  <Ligand effiencies>  (41) 
[-0.28600000000000003]

>  <Interactions>  (41) 
["V-B:ALA:541:CB:9864, V-A:LEU:475:CD2:4256, V-B:GLU:543:CD:9880, V-B:TYR:539:CE1:9847, V-B:TYR:539:CD1:9845, V-A:ILE:369:CD1:3236, V-A:ILE:369:CG2:3234, V-A:GLY:454:CA:4046, V-A:GLY:453:CA:4041, V-A:ARG:545:CZ:4924, H-B:TYR:539:O:9840, V-A:PRO:482:CG:4324, V-A:SER:385:CB:3406, V-A:PRO:482:CB:4323, V-A:SER:385:CA:3404, V-B:TYR:539:CB:9843, V-A:HIS:383:CG:3387, V-A:HIS:383:CB:3386, V-A:GLY:453:C:4039, V-B:VAL:344:CG1:7972, V-A:LEU:475:CG:4254, V-A:THR:477:CA:4267, V-B:ILE:343:CD1:7965, V-A:HIS:383:CD2:3389, V-A:HIS:383:CE1:3391, H-A:SER:385:O:3403, V-B:ILE:343:CG1:7964"]

$$$$
4af_Grossjean_2025
     RDKit          3D

 21 23  0  0  0  0  0  0  0  0999 V2000
  132.3570  132.2480   55.8120 C   0  0  0  0  0  0  0  0  0  0  0  0
  131.8180  132.0290   57.2140 C   0  0  0  0  0  0  0  0  0  0  0  0
  132.6800  131.8720   58.2970 C   0  0  0  0  0  0  0  0  0  0  0  0
  132.1610  131.6680   59.5810 C   0  0  0  0  0  0  0  0  0  0  0  0
  133.1420  131.5010   60.7310 C   0  0  0  0  0  0  0  0  0  0  0  0
  130.7480  131.6270   59.7260 C   0  0  0  0  0  0  0  0  0  0  0  0
  129.8960  131.4380   60.8700 C   0  0  0  0  0  0  0  0  0  0  0  0
  130.3970  131.2490   62.1330 N   0  0  0  0  0  0  0  0  0  0  0  0
  128.5250  131.4650   60.5700 C   0  0  0  0  0  0  0  0  0  0  0  0
  127.3900  131.2780   61.4760 C   0  0  0  0  0  0  0  0  0  0  0  0
  126.2830  131.7400   61.1980 O   0  0  0  0  0  0  0  0  0  0  0  0
  127.6550  130.5640   62.5970 N   0  0  0  0  0  0  0  0  0  0  0  0
  126.8110  130.2490   63.6790 C   0  0  0  0  0  0  0  0  0  0  0  0
  127.2380  129.8560   64.9600 C   0  0  0  0  0  0  0  0  0  0  0  0
  126.2930  129.5540   65.9420 C   0  0  0  0  0  0  0  0  0  0  0  0
  124.9390  129.6480   65.6180 C   0  0  0  0  0  0  0  0  0  0  0  0
  124.5000  130.0170   64.3880 N   0  0  0  0  0  0  0  0  0  0  0  0
  125.4310  130.3070   63.4440 C   0  0  0  0  0  0  0  0  0  0  0  0
  128.2550  131.7260   58.8450 S   0  0  0  0  0  0  0  0  0  0  0  0
  129.9760  131.8010   58.5390 C   0  0  0  0  0  0  0  0  0  0  0  0
  130.4660  131.9960   57.3150 N   0  0  0  0  0  0  0  0  0  0  0  0
  1  2  1  0
  2  3  2  0
  3  4  1  0
  4  5  1  0
  4  6  2  0
  6  7  1  0
  7  8  1  0
  7  9  2  0
  9 10  1  0
 10 11  2  0
 10 12  1  0
 12 13  1  0
 13 14  2  0
 14 15  1  0
 15 16  2  0
 16 17  1  0
 17 18  2  0
  9 19  1  0
 19 20  1  0
 20 21  2  0
 21  2  1  0
 20  6  1  0
 18 13  1  0
M  END
>  <Binding energies>  (42) 
[-7.13]

>  <Ligand effiencies>  (42) 
[-0.2970833333333333]

>  <Interactions>  (42) 
["V-A:ASP:366:CG:3210, V-A:TYR:531:CE2:4791, V-A:PRO:540:CB:4883, V-A:PRO:540:CA:4881, V-A:LEU:363:CD1:3186, V-A:TYR:539:CZ:4875, V-A:TYR:539:CE1:4873, V-A:TYR:539:CD1:4871, V-A:PRO:540:N:4882, V-B:ARG:545:CZ:9898, V-A:ILE:538:CB:4860, V-A:ILE:538:CG2:4861, H-B:TYR:484:OH:9319, H-B:GLY:454:N:9021, V-A:GLU:543:CD:4906, H-A:GLU:543:OE2:4908, H-A:GLU:543:OE1:4907, V-B:HIS:456:CE1:9040, H-B:ARG:545:NH2:9900, H-B:ARG:545:NE:9896, V-B:ARG:545:CD:9895, V-B:ARG:545:CG:9894, V-A:ASN:362:CB:3173, H-A:ALA:541:O:4887"]

$$$$
4ag_Grossjean_2025
     RDKit          3D

 22 24  0  0  0  0  0  0  0  0999 V2000
  133.5840  131.4930   57.2490 C   0  0  0  0  0  0  0  0  0  0  0  0
  132.6490  131.6910   58.4280 C   0  0  0  0  0  0  0  0  0  0  0  0
  133.0930  131.5000   59.7350 C   0  0  0  0  0  0  0  0  0  0  0  0
  132.2140  131.6890   60.8070 C   0  0  0  0  0  0  0  0  0  0  0  0
  132.7450  131.4680   62.2160 C   0  0  0  0  0  0  0  0  0  0  0  0
  130.8790  132.0750   60.5110 C   0  0  0  0  0  0  0  0  0  0  0  0
  129.7410  132.3480   61.3460 C   0  0  0  0  0  0  0  0  0  0  0  0
  129.7980  132.2630   62.7150 N   0  0  0  0  0  0  0  0  0  0  0  0
  128.5850  132.7020   60.6350 C   0  0  0  0  0  0  0  0  0  0  0  0
  127.2660  133.0510   61.1610 C   0  0  0  0  0  0  0  0  0  0  0  0
  126.5380  132.2040   61.6840 O   0  0  0  0  0  0  0  0  0  0  0  0
  126.8930  134.3410   61.0220 N   0  0  0  0  0  0  0  0  0  0  0  0
  125.6350  134.9150   61.4960 C   0  0  0  0  0  0  0  0  0  0  0  0
  125.4880  136.4050   61.2090 C   0  0  0  0  0  0  0  0  0  0  0  0
  124.2160  136.9550   61.0220 C   0  0  0  0  0  0  0  0  0  0  0  0
  124.0770  138.3200   60.7850 C   0  0  0  0  0  0  0  0  0  0  0  0
  125.2080  139.1330   60.7460 C   0  0  0  0  0  0  0  0  0  0  0  0
  126.4770  138.5940   60.9470 C   0  0  0  0  0  0  0  0  0  0  0  0
  126.6160  137.2290   61.1850 C   0  0  0  0  0  0  0  0  0  0  0  0
  128.8830  132.7160   58.8970 S   0  0  0  0  0  0  0  0  0  0  0  0
  130.5490  132.2390   59.1320 C   0  0  0  0  0  0  0  0  0  0  0  0
  131.3850  132.0610   58.1080 N   0  0  0  0  0  0  0  0  0  0  0  0
  1  2  1  0
  2  3  2  0
  3  4  1  0
  4  5  1  0
  4  6  2  0
  6  7  1  0
  7  8  1  0
  7  9  2  0
  9 10  1  0
 10 11  2  0
 10 12  1  0
 12 13  1  0
 13 14  1  0
 14 15  2  0
 15 16  1  0
 16 17  2  0
 17 18  1  0
 18 19  2  0
  9 20  1  0
 20 21  1  0
 21 22  2  0
 22  2  1  0
 21  6  1  0
 19 14  1  0
M  END
>  <Binding energies>  (43) 
[-7.67]

>  <Ligand effiencies>  (43) 
[-0.3068]

>  <Interactions>  (43) 
["V-A:ASP:366:CG:3210, V-A:LEU:363:CA:3182, V-A:TYR:531:CE2:4791, V-A:PRO:540:CB:4883, V-A:PRO:540:CA:4881, V-A:LEU:363:CB:3184, V-A:LEU:363:CD1:3186, V-A:TYR:539:CE1:4873, V-A:PRO:540:C:4879, V-A:TYR:539:CD1:4871, V-A:ALA:541:CB:4890, V-A:PRO:540:N:4882, V-A:TYR:539:C:4865, V-A:TYR:539:CG:4870, V-B:PRO:482:CB:9297, V-B:SER:385:CA:8378, V-B:PRO:482:CG:9298, V-B:LEU:475:CD2:9230, V-B:SER:385:CB:8380, V-B:LEU:373:CD1:8251, V-A:ARG:545:CZ:4924, V-A:GLU:543:CD:4906, H-A:GLU:543:OE1:4907, V-A:ASN:362:CB:3173, V-B:VAL:384:C:8368, V-B:LEU:373:CD2:8252, H-A:TYR:539:O:4866, H-A:ALA:541:O:4887, V-A:VAL:344:CG1:2998, V-A:ALA:541:CA:4888, V-A:TYR:539:CB:4869"]

$$$$
4ah_Grossjean_2025
     RDKit          3D

 28 30  0  0  0  0  0  0  0  0999 V2000
  128.6310  122.8380   55.4540 C   0  0  0  0  0  0  0  0  0  0  0  0
  128.5780  122.1220   56.6820 O   0  0  0  0  0  0  0  0  0  0  0  0
  127.9140  122.6760   57.7630 C   0  0  0  0  0  0  0  0  0  0  0  0
  128.5580  123.2040   58.8920 C   0  0  0  0  0  0  0  0  0  0  0  0
  127.8220  123.7460   59.9470 C   0  0  0  0  0  0  0  0  0  0  0  0
  128.5410  124.3580   61.1440 C   0  0  0  0  0  0  0  0  0  0  0  0
  127.9670  125.6300   61.5840 N   0  0  0  0  0  0  0  0  0  0  0  0
  127.8920  126.7520   60.8390 C   0  0  0  0  0  0  0  0  0  0  0  0
  128.3480  126.8230   59.6960 O   0  0  0  0  0  0  0  0  0  0  0  0
  127.2710  127.9090   61.4840 C   0  0  0  0  0  0  0  0  0  0  0  0
  126.0860  128.8810   60.6090 S   0  0  0  0  0  0  0  0  0  0  0  0
  125.9120  129.9710   61.9660 C   0  0  0  0  0  0  0  0  0  0  0  0
  125.0820  131.0130   61.9330 N   0  0  0  0  0  0  0  0  0  0  0  0
  125.0390  131.7770   63.0510 C   0  0  0  0  0  0  0  0  0  0  0  0
  124.0900  132.9590   62.9910 C   0  0  0  0  0  0  0  0  0  0  0  0
  125.8000  131.5250   64.1900 C   0  0  0  0  0  0  0  0  0  0  0  0
  126.6730  130.4320   64.2230 C   0  0  0  0  0  0  0  0  0  0  0  0
  127.4830  130.1980   65.4890 C   0  0  0  0  0  0  0  0  0  0  0  0
  126.7460  129.6070   63.0670 C   0  0  0  0  0  0  0  0  0  0  0  0
  127.5200  128.4340   62.7600 C   0  0  0  0  0  0  0  0  0  0  0  0
  128.4090  127.8870   63.6500 N   0  0  0  0  0  0  0  0  0  0  0  0
  126.4300  123.7880   59.8640 C   0  0  0  0  0  0  0  0  0  0  0  0
  125.7580  123.2630   58.7490 C   0  0  0  0  0  0  0  0  0  0  0  0
  124.3820  123.2580   58.6090 O   0  0  0  0  0  0  0  0  0  0  0  0
  123.7390  124.3700   57.9960 C   0  0  0  0  0  0  0  0  0  0  0  0
  126.5120  122.7030   57.7080 C   0  0  0  0  0  0  0  0  0  0  0  0
  125.8690  122.2010   56.6020 O   0  0  0  0  0  0  0  0  0  0  0  0
  125.3980  123.1980   55.7050 C   0  0  0  0  0  0  0  0  0  0  0  0
  1  2  1  0
  2  3  1  0
  3  4  2  0
  4  5  1  0
  5  6  1  0
  6  7  1  0
  7  8  1  0
  8  9  2  0
  8 10  1  0
 10 11  1  0
 11 12  1  0
 12 13  2  0
 13 14  1  0
 14 15  1  0
 14 16  2  0
 16 17  1  0
 17 18  1  0
 17 19  2  0
 19 20  1  0
 20 21  1  0
  5 22  2  0
 22 23  1  0
 23 24  1  0
 24 25  1  0
 23 26  2  0
 26 27  1  0
 27 28  1  0
 26  3  1  0
 20 10  2  0
 19 12  1  0
M  END
>  <Binding energies>  (44) 
[-6.96]

>  <Ligand effiencies>  (44) 
[-0.22451612903225807]

>  <Interactions>  (44) 
["V-B:ASP:366:CG:8184, V-B:ASP:366:CB:8183, V-B:PRO:540:CA:9855, V-B:LEU:363:CA:8156, V-B:PRO:540:CB:9857, V-B:LEU:363:CD1:8160, V-B:MET:535:CE:9807, V-B:ILE:538:CG2:9835, V-B:ILE:538:CB:9834, V-B:ILE:538:CA:9832, V-B:PRO:540:CD:9859, V-B:PRO:540:N:9856, V-B:GLU:543:CD:9880, V-B:TYR:539:C:9839, V-B:TYR:539:CE1:9847, V-B:TYR:539:CD1:9845, V-B:ILE:369:CD1:8210, V-B:TYR:539:CG:9844, H-B:TYR:539:N:9842, V-B:TYR:539:CZ:9849, V-B:TYR:531:CE2:9765, V-B:LEU:475:CD2:9230, V-B:GLY:454:CA:9020, V-B:TYR:539:CE2:9848, V-A:GLU:543:CD:4906, H-A:GLU:543:OE2:4908, H-A:GLU:543:OE1:4907, V-A:GLU:543:CB:4904, V-B:TYR:539:CD2:9846, H-B:GLU:543:OE1:9881, H-B:GLU:543:OE2:9882"]

$$$$
4ai_Grossjean_2025
     RDKit          3D

 20 22  0  0  0  0  0  0  0  0999 V2000
  132.4130  132.2550   55.8370 C   0  0  0  0  0  0  0  0  0  0  0  0
  131.8480  132.0370   57.2290 C   0  0  0  0  0  0  0  0  0  0  0  0
  132.6910  131.8600   58.3240 C   0  0  0  0  0  0  0  0  0  0  0  0
  132.1490  131.6670   59.6000 C   0  0  0  0  0  0  0  0  0  0  0  0
  133.1100  131.4800   60.7640 C   0  0  0  0  0  0  0  0  0  0  0  0
  130.7330  131.6590   59.7250 C   0  0  0  0  0  0  0  0  0  0  0  0
  129.8610  131.4920   60.8560 C   0  0  0  0  0  0  0  0  0  0  0  0
  130.3400  131.2840   62.1250 N   0  0  0  0  0  0  0  0  0  0  0  0
  128.4960  131.5660   60.5400 C   0  0  0  0  0  0  0  0  0  0  0  0
  127.3440  131.4310   61.4340 C   0  0  0  0  0  0  0  0  0  0  0  0
  126.2470  131.8950   61.1220 O   0  0  0  0  0  0  0  0  0  0  0  0
  127.5820  130.7580   62.5890 N   0  0  0  0  0  0  0  0  0  0  0  0
  126.6760  130.4780   63.6030 C   0  0  0  0  0  0  0  0  0  0  0  0
  126.9990  129.7100   64.7220 C   0  0  0  0  0  0  0  0  0  0  0  0
  125.8460  129.6660   65.4720 C   0  0  0  0  0  0  0  0  0  0  0  0
  124.8790  130.3710   64.8390 O   0  0  0  0  0  0  0  0  0  0  0  0
  125.4170  130.8820   63.6560 N   0  0  0  0  0  0  0  0  0  0  0  0
  128.2560  131.8240   58.8100 S   0  0  0  0  0  0  0  0  0  0  0  0
  129.9830  131.8510   58.5260 C   0  0  0  0  0  0  0  0  0  0  0  0
  130.4950  132.0340   57.3090 N   0  0  0  0  0  0  0  0  0  0  0  0
  1  2  1  0
  2  3  2  0
  3  4  1  0
  4  5  1  0
  4  6  2  0
  6  7  1  0
  7  8  1  0
  7  9  2  0
  9 10  1  0
 10 11  2  0
 10 12  1  0
 12 13  1  0
 13 14  1  0
 14 15  2  0
 15 16  1  0
 16 17  1  0
  9 18  1  0
 18 19  1  0
 19 20  2  0
 20  2  1  0
 19  6  1  0
 17 13  2  0
M  END
>  <Binding energies>  (45) 
[-6.78]

>  <Ligand effiencies>  (45) 
[-0.2947826086956522]

>  <Interactions>  (45) 
["V-A:ASP:366:CG:3210, V-A:TYR:531:CE2:4791, V-A:PRO:540:CB:4883, V-A:PRO:540:CA:4881, V-A:LEU:363:CD1:3186, V-A:TYR:539:CZ:4875, V-A:TYR:539:CE1:4873, V-A:TYR:539:CD1:4871, V-A:PRO:540:N:4882, V-B:ARG:545:CZ:9898, V-A:ILE:538:CB:4860, V-A:ILE:538:CG2:4861, H-B:TYR:484:OH:9319, H-B:GLY:454:N:9021, V-A:GLU:543:CD:4906, H-A:GLU:543:OE2:4908, H-A:GLU:543:OE1:4907, V-A:ASN:362:CB:3173, H-A:ALA:541:O:4887"]

$$$$
4aj_Grossjean_2025
     RDKit          3D

 20 22  0  0  0  0  0  0  0  0999 V2000
  132.2900  125.8460   64.5810 C   0  0  0  0  0  0  0  0  0  0  0  0
  131.8880  124.6500   63.7360 C   0  0  0  0  0  0  0  0  0  0  0  0
  130.5670  124.4680   63.3340 C   0  0  0  0  0  0  0  0  0  0  0  0
  130.2190  123.3550   62.5600 C   0  0  0  0  0  0  0  0  0  0  0  0
  128.7630  123.2010   62.1450 C   0  0  0  0  0  0  0  0  0  0  0  0
  131.2480  122.4410   62.2100 C   0  0  0  0  0  0  0  0  0  0  0  0
  131.2450  121.2220   61.4460 C   0  0  0  0  0  0  0  0  0  0  0  0
  130.1020  120.7130   60.8850 N   0  0  0  0  0  0  0  0  0  0  0  0
  132.5070  120.6190   61.3300 C   0  0  0  0  0  0  0  0  0  0  0  0
  132.8630  119.3780   60.6400 C   0  0  0  0  0  0  0  0  0  0  0  0
  133.8650  119.3200   59.9240 O   0  0  0  0  0  0  0  0  0  0  0  0
  132.0310  118.3300   60.8600 N   0  0  0  0  0  0  0  0  0  0  0  0
  132.1480  117.0490   60.3390 C   0  0  0  0  0  0  0  0  0  0  0  0
  133.1130  116.1780   60.5470 N   0  0  0  0  0  0  0  0  0  0  0  0
  132.8980  115.0520   59.8940 C   0  0  0  0  0  0  0  0  0  0  0  0
  131.7340  114.9940   59.1320 C   0  0  0  0  0  0  0  0  0  0  0  0
  130.8820  116.5020   59.2890 S   0  0  0  0  0  0  0  0  0  0  0  0
  133.7380  121.5480   62.1870 S   0  0  0  0  0  0  0  0  0  0  0  0
  132.5610  122.7430   62.6830 C   0  0  0  0  0  0  0  0  0  0  0  0
  132.8970  123.8010   63.4210 N   0  0  0  0  0  0  0  0  0  0  0  0
  1  2  1  0
  2  3  2  0
  3  4  1  0
  4  5  1  0
  4  6  2  0
  6  7  1  0
  7  8  1  0
  7  9  2  0
  9 10  1  0
 10 11  2  0
 10 12  1  0
 12 13  1  0
 13 14  2  0
 14 15  1  0
 15 16  2  0
 16 17  1  0
  9 18  1  0
 18 19  1  0
 19 20  2  0
 20  2  1  0
 19  6  1  0
 17 13  1  0
M  END
>  <Binding energies>  (46) 
[-6.75]

>  <Ligand effiencies>  (46) 
[-0.29347826086956524]

>  <Interactions>  (46) 
["V-B:ALA:541:CB:9864, V-A:LEU:475:CD2:4256, V-B:GLU:543:CD:9880, V-B:TYR:539:C:9839, V-B:TYR:539:CE1:9847, V-B:TYR:539:CD1:9845, V-B:TYR:539:CG:9844, V-A:ILE:369:CD1:3236, V-A:ILE:369:CG2:3234, H-A:GLY:454:N:4047, V-A:GLY:454:CA:4046, H-A:TYR:484:OH:4345, V-A:ARG:545:CZ:4924, H-B:TYR:539:O:9840, V-A:PRO:482:CG:4324, V-A:SER:385:CA:3404, V-B:TYR:539:CB:9843, V-A:HIS:383:CG:3387, V-A:HIS:383:CB:3386, V-A:LEU:373:CD1:3277, V-B:VAL:344:CG1:7972, V-A:HIS:383:CD2:3389, V-A:HIS:383:CE1:3391"]

$$$$
4ak_Grossjean_2025
     RDKit          3D

 25 26  0  0  0  0  0  0  0  0999 V2000
  131.5530  126.2470   74.1570 C   0  0  0  0  0  0  0  0  0  0  0  0
  130.1720  125.9590   74.0090 O   0  0  0  0  0  0  0  0  0  0  0  0
  129.6940  126.1420   72.6820 C   0  0  0  0  0  0  0  0  0  0  0  0
  129.6890  127.6370   72.3420 C   0  0  0  0  0  0  0  0  0  0  0  0
  128.3970  128.1740   72.5940 O   0  0  0  0  0  0  0  0  0  0  0  0
  127.5810  127.3440   73.4100 C   0  0  0  0  0  0  0  0  0  0  0  0
  126.6830  128.2230   74.2900 C   0  0  0  0  0  0  0  0  0  0  0  0
  127.1170  128.1350   75.6400 O   0  0  0  0  0  0  0  0  0  0  0  0
  127.0570  129.3690   76.3440 C   0  0  0  0  0  0  0  0  0  0  0  0
  126.3560  130.4220   75.4670 C   0  0  0  0  0  0  0  0  0  0  0  0
  127.2380  131.5070   75.0360 N   0  0  0  0  0  0  0  0  0  0  0  0
  128.4050  131.3490   74.3780 C   0  0  0  0  0  0  0  0  0  0  0  0
  128.8350  130.2410   74.0510 O   0  0  0  0  0  0  0  0  0  0  0  0
  129.1350  132.5750   74.0610 C   0  0  0  0  0  0  0  0  0  0  0  0
  129.7860  132.8300   72.4420 S   0  0  0  0  0  0  0  0  0  0  0  0
  130.4260  134.3930   72.8960 C   0  0  0  0  0  0  0  0  0  0  0  0
  131.0960  135.1590   72.0330 N   0  0  0  0  0  0  0  0  0  0  0  0
  131.5410  136.3460   72.5130 C   0  0  0  0  0  0  0  0  0  0  0  0
  132.3000  137.2030   71.5160 C   0  0  0  0  0  0  0  0  0  0  0  0
  131.3320  136.7810   73.8200 C   0  0  0  0  0  0  0  0  0  0  0  0
  130.6280  135.9760   74.7230 C   0  0  0  0  0  0  0  0  0  0  0  0
  130.4290  136.4920   76.1390 C   0  0  0  0  0  0  0  0  0  0  0  0
  130.1470  134.7230   74.2560 C   0  0  0  0  0  0  0  0  0  0  0  0
  129.4040  133.6710   74.8960 C   0  0  0  0  0  0  0  0  0  0  0  0
  129.0060  133.7460   76.2070 N   0  0  0  0  0  0  0  0  0  0  0  0
  1  2  1  0
  2  3  1  0
  3  4  1  0
  4  5  1  0
  5  6  1  0
  6  7  1  0
  7  8  1  0
  8  9  1  0
  9 10  1  0
 10 11  1  0
 11 12  1  0
 12 13  2  0
 12 14  1  0
 14 15  1  0
 15 16  1  0
 16 17  2  0
 17 18  1  0
 18 19  1  0
 18 20  2  0
 20 21  1  0
 21 22  1  0
 21 23  2  0
 23 24  1  0
 24 25  1  0
 24 14  2  0
 23 16  1  0
M  END
>  <Binding energies>  (47) 
[-6.45]

>  <Ligand effiencies>  (47) 
[-0.23035714285714287]

>  <Interactions>  (47) 
["V-A:GLY:544:CA:4912, V-B:HIS:456:CG:9037, V-B:HIS:456:CD2:9039, V-B:HIS:456:CB:9036, V-B:TYR:484:CD2:9315, V-B:GLY:544:C:9884, V-B:GLY:544:CA:9886, V-A:GLU:543:C:4900, V-B:ASP:473:CG:9211, H-B:LYS:547:NZ:9923, V-A:LYS:547:CE:4948, V-B:TYR:484:CG:9313, V-B:TYR:484:CB:9312, H-A:LYS:547:NZ:4949, V-B:LYS:547:CE:9922, V-A:HIS:456:CD2:4065, H-B:HIS:456:NE2:9041, V-A:HIS:456:CG:4063, V-A:HIS:456:CB:4062, H-B:ASP:473:OD2:9213, V-A:VAL:542:CG1:4897, H-B:TYR:484:N:9311, V-B:SER:483:CB:9304, V-B:SER:483:CA:9302"]

$$$$
4al_Grossjean_2025
     RDKit          3D

 16 17  0  0  0  0  0  0  0  0999 V2000
  131.2040  115.4300   58.5020 C   0  0  0  0  0  0  0  0  0  0  0  0
  131.9220  115.5490   59.7210 O   0  0  0  0  0  0  0  0  0  0  0  0
  132.8960  116.4850   59.8670 C   0  0  0  0  0  0  0  0  0  0  0  0
  134.0950  116.2680   59.6760 O   0  0  0  0  0  0  0  0  0  0  0  0
  132.3700  117.8020   60.2850 C   0  0  0  0  0  0  0  0  0  0  0  0
  130.6510  117.9940   60.6380 S   0  0  0  0  0  0  0  0  0  0  0  0
  130.8740  119.6870   61.0140 C   0  0  0  0  0  0  0  0  0  0  0  0
  129.8580  120.4660   61.3860 N   0  0  0  0  0  0  0  0  0  0  0  0
  130.1660  121.7610   61.6490 C   0  0  0  0  0  0  0  0  0  0  0  0
  128.9960  122.6300   62.0710 C   0  0  0  0  0  0  0  0  0  0  0  0
  131.4520  122.2870   61.5500 C   0  0  0  0  0  0  0  0  0  0  0  0
  132.5160  121.4670   61.1590 C   0  0  0  0  0  0  0  0  0  0  0  0
  133.9010  122.0860   61.0640 C   0  0  0  0  0  0  0  0  0  0  0  0
  132.2310  120.1040   60.8750 C   0  0  0  0  0  0  0  0  0  0  0  0
  133.0610  119.0070   60.4580 C   0  0  0  0  0  0  0  0  0  0  0  0
  134.4100  119.1400   60.2500 N   0  0  0  0  0  0  0  0  0  0  0  0
  1  2  1  0
  2  3  1  0
  3  4  2  0
  3  5  1  0
  5  6  1  0
  6  7  1  0
  7  8  2  0
  8  9  1  0
  9 10  1  0
  9 11  2  0
 11 12  1  0
 12 13  1  0
 12 14  2  0
 14 15  1  0
 15 16  1  0
 15  5  2  0
 14  7  1  0
M  END
>  <Binding energies>  (48) 
[-5.66]

>  <Ligand effiencies>  (48) 
[-0.31444444444444447]

>  <Interactions>  (48) 
["V-B:ALA:541:CB:9864, V-A:LEU:475:CD2:4256, V-B:TYR:539:CE1:9847, V-B:TYR:539:CD1:9845, V-A:ILE:369:CD1:3236, V-A:ILE:369:CG2:3234, V-A:PRO:482:CG:4324, V-A:SER:385:CB:3406, V-A:PRO:482:CB:4323, V-A:SER:385:CA:3404, V-B:TYR:539:CB:9843, V-A:HIS:383:CG:3387, V-A:LEU:373:CD2:3278, V-A:LEU:373:CD1:3277, V-A:VAL:384:C:3394, V-B:VAL:344:CG1:7972, V-A:SER:385:C:3402, V-B:ILE:343:CD1:7965, V-A:HIS:383:CD2:3389, V-A:HIS:383:CE1:3391, H-A:SER:385:O:3403, H-A:VAL:384:O:3395, H-A:SER:385:N:3405, V-B:ILE:343:CG1:7964, H-A:VAL:384:N:3397"]

$$$$
4bc_Grossjean_2025
     RDKit          3D

 26 28  0  0  0  0  0  0  0  0999 V2000
  134.2620  125.1410   67.1940 C   0  0  0  0  0  0  0  0  0  0  0  0
  134.3370  125.4860   65.8150 O   0  0  0  0  0  0  0  0  0  0  0  0
  133.2300  125.2910   65.0110 C   0  0  0  0  0  0  0  0  0  0  0  0
  133.4790  124.9520   63.6820 C   0  0  0  0  0  0  0  0  0  0  0  0
  132.4260  124.7370   62.7960 C   0  0  0  0  0  0  0  0  0  0  0  0
  131.1060  124.8500   63.2330 C   0  0  0  0  0  0  0  0  0  0  0  0
  130.1090  124.6300   62.2650 N   0  0  0  0  0  0  0  0  0  0  0  0
  130.2390  124.4430   60.9280 C   0  0  0  0  0  0  0  0  0  0  0  0
  131.3160  124.4750   60.3310 O   0  0  0  0  0  0  0  0  0  0  0  0
  128.9890  124.1980   60.2020 C   0  0  0  0  0  0  0  0  0  0  0  0
  128.9960  124.0630   58.4460 S   0  0  0  0  0  0  0  0  0  0  0  0
  127.2680  123.8030   58.4130 C   0  0  0  0  0  0  0  0  0  0  0  0
  126.6140  123.6150   57.2670 N   0  0  0  0  0  0  0  0  0  0  0  0
  125.2780  123.4260   57.3690 C   0  0  0  0  0  0  0  0  0  0  0  0
  124.5540  123.2080   56.0530 C   0  0  0  0  0  0  0  0  0  0  0  0
  124.5870  123.4220   58.5780 C   0  0  0  0  0  0  0  0  0  0  0  0
  125.2700  123.6210   59.7880 C   0  0  0  0  0  0  0  0  0  0  0  0
  124.4640  123.6110   61.0930 C   0  0  0  0  0  0  0  0  0  0  0  0
  124.5690  124.7510   61.7780 F   0  0  0  0  0  0  0  0  0  0  0  0
  123.1730  123.4240   60.8230 F   0  0  0  0  0  0  0  0  0  0  0  0
  124.8970  122.6290   61.8830 F   0  0  0  0  0  0  0  0  0  0  0  0
  126.6810  123.8210   59.7160 C   0  0  0  0  0  0  0  0  0  0  0  0
  127.6930  124.0470   60.7190 C   0  0  0  0  0  0  0  0  0  0  0  0
  127.4060  124.1060   62.0590 N   0  0  0  0  0  0  0  0  0  0  0  0
  130.8470  125.2040   64.5660 C   0  0  0  0  0  0  0  0  0  0  0  0
  131.9020  125.4190   65.4490 C   0  0  0  0  0  0  0  0  0  0  0  0
  1  2  1  0
  2  3  1  0
  3  4  2  0
  4  5  1  0
  5  6  2  0
  6  7  1  0
  7  8  1  0
  8  9  2  0
  8 10  1  0
 10 11  1  0
 11 12  1  0
 12 13  2  0
 13 14  1  0
 14 15  1  0
 14 16  2  0
 16 17  1  0
 17 18  1  0
 18 19  1  0
 18 20  1  0
 18 21  1  0
 17 22  2  0
 22 23  1  0
 23 24  1  0
  6 25  1  0
 25 26  2  0
 26  3  1  0
 23 10  2  0
 22 12  1  0
M  END
>  <Binding energies>  (49) 
[-6.33]

>  <Ligand effiencies>  (49) 
[-0.21827586206896551]

>  <Interactions>  (49) 
["V-B:ASP:366:CG:8184, V-B:PRO:540:CA:9855, V-B:LEU:363:CA:8156, V-B:PRO:540:CB:9857, V-B:ALA:541:CA:9862, V-B:LEU:363:CD1:8160, V-B:ALA:541:C:9860, V-B:ASN:362:CB:8147, V-B:ASN:362:C:8143, V-B:ILE:538:CG2:9835, V-B:ILE:538:CB:9834, V-B:PRO:540:N:9856, V-B:GLU:543:CD:9880, V-B:TYR:539:CE1:9847, V-B:PRO:540:C:9853, V-B:TYR:531:CE2:9765, V-B:ARG:545:CZ:9898, H-A:GLY:454:N:4047, V-A:GLY:454:CA:4046, H-A:TYR:484:OH:4345, V-B:TYR:531:CZ:9766, V-A:TYR:484:CZ:4344, V-A:ARG:545:CG:4920, V-A:GLY:453:CA:4041, V-A:ARG:545:CD:4921, V-A:HIS:456:CE1:4066, V-A:ARG:545:CZ:4924, V-A:GLY:453:C:4039, H-A:ARG:545:NE:4922, H-B:ALA:541:O:9861, H-B:GLU:543:OE1:9881, H-B:GLU:543:OE2:9882, V-B:LEU:363:CB:8158, V-B:ASN:362:CA:8145, V-A:ARG:545:CB:4919, V-A:GLY:454:C:4044, V-A:ILE:455:C:4049, V-A:TYR:484:CE1:4342"]

$$$$
4bf_Grossjean_2025
     RDKit          3D

 24 26  0  0  0  0  0  0  0  0999 V2000
  132.2310  132.1570   55.7860 C   0  0  0  0  0  0  0  0  0  0  0  0
  131.7110  131.9350   57.1960 C   0  0  0  0  0  0  0  0  0  0  0  0
  132.5850  131.8270   58.2740 C   0  0  0  0  0  0  0  0  0  0  0  0
  132.0920  131.6180   59.5710 C   0  0  0  0  0  0  0  0  0  0  0  0
  133.0920  131.5040   60.7260 C   0  0  0  0  0  0  0  0  0  0  0  0
  133.0040  132.5140   61.5950 F   0  0  0  0  0  0  0  0  0  0  0  0
  132.8750  130.3760   61.4020 F   0  0  0  0  0  0  0  0  0  0  0  0
  134.3370  131.4980   60.2460 F   0  0  0  0  0  0  0  0  0  0  0  0
  130.6760  131.5230   59.7230 C   0  0  0  0  0  0  0  0  0  0  0  0
  129.8240  131.3160   60.8680 C   0  0  0  0  0  0  0  0  0  0  0  0
  130.3170  131.1640   62.1390 N   0  0  0  0  0  0  0  0  0  0  0  0
  128.4530  131.2870   60.5660 C   0  0  0  0  0  0  0  0  0  0  0  0
  127.3220  131.0660   61.4730 C   0  0  0  0  0  0  0  0  0  0  0  0
  126.1800  131.3870   61.1400 O   0  0  0  0  0  0  0  0  0  0  0  0
  127.6330  130.4860   62.6580 N   0  0  0  0  0  0  0  0  0  0  0  0
  126.8020  130.1860   63.7540 C   0  0  0  0  0  0  0  0  0  0  0  0
  127.2440  129.7770   65.0240 C   0  0  0  0  0  0  0  0  0  0  0  0
  126.3100  129.4950   66.0240 C   0  0  0  0  0  0  0  0  0  0  0  0
  124.9530  129.6240   65.7260 C   0  0  0  0  0  0  0  0  0  0  0  0
  124.5010  130.0100   64.5070 N   0  0  0  0  0  0  0  0  0  0  0  0
  125.4210  130.2800   63.5450 C   0  0  0  0  0  0  0  0  0  0  0  0
  128.1760  131.5130   58.8400 S   0  0  0  0  0  0  0  0  0  0  0  0
  129.8910  131.6510   58.5350 C   0  0  0  0  0  0  0  0  0  0  0  0
  130.3650  131.8500   57.3060 N   0  0  0  0  0  0  0  0  0  0  0  0
  1  2  1  0
  2  3  2  0
  3  4  1  0
  4  5  1  0
  5  6  1  0
  5  7  1  0
  5  8  1  0
  4  9  2  0
  9 10  1  0
 10 11  1  0
 10 12  2  0
 12 13  1  0
 13 14  2  0
 13 15  1  0
 15 16  1  0
 16 17  2  0
 17 18  1  0
 18 19  2  0
 19 20  1  0
 20 21  2  0
 12 22  1  0
 22 23  1  0
 23 24  2  0
 24  2  1  0
 23  9  1  0
 21 16  1  0
M  END
>  <Binding energies>  (50) 
[-6.83]

>  <Ligand effiencies>  (50) 
[-0.25296296296296295]

>  <Interactions>  (50) 
["V-A:ASP:366:CG:3210, V-A:TYR:531:CZ:4792, V-A:LEU:363:CA:3182, V-A:TYR:531:CE2:4791, V-A:PRO:540:CB:4883, V-A:PRO:540:CA:4881, V-A:LEU:363:CB:3184, V-A:LEU:363:CD1:3186, V-A:TYR:539:CE1:4873, V-A:PRO:540:C:4879, V-A:TYR:539:CD1:4871, V-A:PRO:540:N:4882, V-A:ASN:362:C:3169, V-B:ARG:545:CZ:9898, V-A:ILE:538:CB:4860, V-A:ILE:538:CG2:4861, H-B:TYR:484:OH:9319, H-B:GLY:454:N:9021, V-A:ARG:545:CZ:4924, V-A:GLU:543:CD:4906, H-A:GLU:543:OE2:4908, H-A:GLU:543:OE1:4907, V-B:HIS:456:CE1:9040, H-B:ARG:545:NH2:9900, H-B:ARG:545:NE:9896, V-B:ARG:545:CD:9895, V-B:ARG:545:CG:9894, V-A:ASN:362:CB:3173, H-A:ALA:541:O:4887, V-A:ASN:362:CA:3171, V-A:ALA:541:C:4886, V-A:ALA:541:CA:4888"]

$$$$
4bh_Grossjean_2025
     RDKit          3D

 31 33  0  0  0  0  0  0  0  0999 V2000
  127.7930  134.2140   61.7190 C   0  0  0  0  0  0  0  0  0  0  0  0
  126.4330  134.0830   62.1180 O   0  0  0  0  0  0  0  0  0  0  0  0
  125.7990  132.8620   61.9790 C   0  0  0  0  0  0  0  0  0  0  0  0
  125.4960  132.2720   60.7420 C   0  0  0  0  0  0  0  0  0  0  0  0
  124.8520  131.0360   60.6760 C   0  0  0  0  0  0  0  0  0  0  0  0
  124.5720  130.3900   59.3240 C   0  0  0  0  0  0  0  0  0  0  0  0
  125.6340  129.4870   58.8780 N   0  0  0  0  0  0  0  0  0  0  0  0
  125.8970  129.1630   57.5950 C   0  0  0  0  0  0  0  0  0  0  0  0
  125.2190  129.5810   56.6540 O   0  0  0  0  0  0  0  0  0  0  0  0
  127.0130  128.2420   57.3800 C   0  0  0  0  0  0  0  0  0  0  0  0
  128.5540  128.8490   56.7820 S   0  0  0  0  0  0  0  0  0  0  0  0
  129.2330  127.2380   56.7710 C   0  0  0  0  0  0  0  0  0  0  0  0
  130.4890  127.0160   56.3850 N   0  0  0  0  0  0  0  0  0  0  0  0
  130.9020  125.7280   56.4210 C   0  0  0  0  0  0  0  0  0  0  0  0
  132.3350  125.4970   55.9760 C   0  0  0  0  0  0  0  0  0  0  0  0
  130.0990  124.6670   56.8320 C   0  0  0  0  0  0  0  0  0  0  0  0
  128.7740  124.8950   57.2380 C   0  0  0  0  0  0  0  0  0  0  0  0
  127.9290  123.6970   57.6840 C   0  0  0  0  0  0  0  0  0  0  0  0
  127.5090  123.7950   58.9470 F   0  0  0  0  0  0  0  0  0  0  0  0
  126.8480  123.5950   56.9110 F   0  0  0  0  0  0  0  0  0  0  0  0
  128.6460  122.5780   57.5860 F   0  0  0  0  0  0  0  0  0  0  0  0
  128.3060  126.2420   57.2090 C   0  0  0  0  0  0  0  0  0  0  0  0
  127.0390  126.8470   57.5380 C   0  0  0  0  0  0  0  0  0  0  0  0
  125.9600  126.1220   57.9730 N   0  0  0  0  0  0  0  0  0  0  0  0
  124.5300  130.3650   61.8570 C   0  0  0  0  0  0  0  0  0  0  0  0
  124.8130  130.9340   63.1080 C   0  0  0  0  0  0  0  0  0  0  0  0
  124.5100  130.3330   64.3170 O   0  0  0  0  0  0  0  0  0  0  0  0
  125.5330  129.6480   65.0310 C   0  0  0  0  0  0  0  0  0  0  0  0
  125.4430  132.1860   63.1550 C   0  0  0  0  0  0  0  0  0  0  0  0
  125.7430  132.7470   64.3740 O   0  0  0  0  0  0  0  0  0  0  0  0
  127.1110  132.6310   64.7420 C   0  0  0  0  0  0  0  0  0  0  0  0
  1  2  1  0
  2  3  1  0
  3  4  2  0
  4  5  1  0
  5  6  1  0
  6  7  1  0
  7  8  1  0
  8  9  2  0
  8 10  1  0
 10 11  1  0
 11 12  1  0
 12 13  2  0
 13 14  1  0
 14 15  1  0
 14 16  2  0
 16 17  1  0
 17 18  1  0
 18 19  1  0
 18 20  1  0
 18 21  1  0
 17 22  2  0
 22 23  1  0
 23 24  1  0
  5 25  2  0
 25 26  1  0
 26 27  1  0
 27 28  1  0
 26 29  2  0
 29 30  1  0
 30 31  1  0
 29  3  1  0
 23 10  2  0
 22 12  1  0
M  END
>  <Binding energies>  (51) 
[-6.21]

>  <Ligand effiencies>  (51) 
[-0.1826470588235294]

>  <Interactions>  (51) 
["V-A:MET:535:CE:4833, V-B:ASP:366:CG:8184, V-A:TYR:531:CZ:4792, H-A:TYR:539:OH:4876, H-A:TYR:531:OH:4793, V-B:ASP:366:CB:8183, V-A:TYR:539:CE1:4873, H-B:TYR:531:OH:9767, V-B:MET:535:CE:9807, V-B:TYR:539:C:9839, V-B:TYR:539:CE1:9847, V-B:TYR:539:CD1:9845, V-A:TYR:539:CD1:4871, V-A:ALA:541:CB:4890, V-B:TYR:539:CG:9844, V-B:TYR:539:CZ:9849, V-B:ARG:545:CZ:9898, V-B:LEU:475:CD2:9230, H-B:TYR:484:OH:9319, H-B:ASP:366:OD1:8185, V-B:TYR:531:CZ:9766, H-B:ASP:366:OD2:8186, V-B:TYR:539:CE2:9848, H-B:GLY:454:N:9021, V-B:TYR:484:CZ:9318, V-B:TYR:484:CE2:9317, V-B:TYR:539:CD2:9846, V-A:TYR:531:CE1:4790, V-B:ASP:366:CA:8181, V-A:ASN:370:CB:3242, V-A:ASN:370:CG:3243"]

$$$$
4bi_Grossjean_2025
     RDKit          3D

 23 25  0  0  0  0  0  0  0  0999 V2000
  124.9680  123.1330   56.0170 C   0  0  0  0  0  0  0  0  0  0  0  0
  125.6530  123.3040   57.3610 C   0  0  0  0  0  0  0  0  0  0  0  0
  124.9120  123.4170   58.5340 C   0  0  0  0  0  0  0  0  0  0  0  0
  125.5600  123.5700   59.7710 C   0  0  0  0  0  0  0  0  0  0  0  0
  124.7030  123.6820   61.0360 C   0  0  0  0  0  0  0  0  0  0  0  0
  123.4020  123.8290   60.7750 F   0  0  0  0  0  0  0  0  0  0  0  0
  124.8390  122.5800   61.7740 F   0  0  0  0  0  0  0  0  0  0  0  0
  125.0880  124.7400   61.7510 F   0  0  0  0  0  0  0  0  0  0  0  0
  126.9860  123.6070   59.7610 C   0  0  0  0  0  0  0  0  0  0  0  0
  127.9710  123.7520   60.8040 C   0  0  0  0  0  0  0  0  0  0  0  0
  127.6350  123.9010   62.1260 N   0  0  0  0  0  0  0  0  0  0  0  0
  129.3000  123.7190   60.3490 C   0  0  0  0  0  0  0  0  0  0  0  0
  130.5350  123.8490   61.1250 C   0  0  0  0  0  0  0  0  0  0  0  0
  131.6150  123.4830   60.6570 O   0  0  0  0  0  0  0  0  0  0  0  0
  130.3950  124.4060   62.3550 N   0  0  0  0  0  0  0  0  0  0  0  0
  131.3920  124.6570   63.2880 C   0  0  0  0  0  0  0  0  0  0  0  0
  131.1550  125.3070   64.4990 C   0  0  0  0  0  0  0  0  0  0  0  0
  132.3810  125.3570   65.1240 C   0  0  0  0  0  0  0  0  0  0  0  0
  133.3070  124.7680   64.3300 O   0  0  0  0  0  0  0  0  0  0  0  0
  132.6670  124.3280   63.1690 N   0  0  0  0  0  0  0  0  0  0  0  0
  129.3680  123.5320   58.5980 S   0  0  0  0  0  0  0  0  0  0  0  0
  127.6240  123.4800   58.4890 C   0  0  0  0  0  0  0  0  0  0  0  0
  127.0050  123.3330   57.3180 N   0  0  0  0  0  0  0  0  0  0  0  0
  1  2  1  0
  2  3  2  0
  3  4  1  0
  4  5  1  0
  5  6  1  0
  5  7  1  0
  5  8  1  0
  4  9  2  0
  9 10  1  0
 10 11  1  0
 10 12  2  0
 12 13  1  0
 13 14  2  0
 13 15  1  0
 15 16  1  0
 16 17  1  0
 17 18  2  0
 18 19  1  0
 19 20  1  0
 12 21  1  0
 21 22  1  0
 22 23  2  0
 23  2  1  0
 22  9  1  0
 20 16  2  0
M  END
>  <Binding energies>  (52) 
[-6.5]

>  <Ligand effiencies>  (52) 
[-0.25]

>  <Interactions>  (52) 
["V-B:ASP:366:CG:8184, V-B:PRO:540:CA:9855, V-B:LEU:363:CA:8156, V-B:PRO:540:CB:9857, V-B:ALA:541:CA:9862, V-B:LEU:363:CD1:8160, V-B:ALA:541:C:9860, V-B:ASN:362:CB:8147, V-B:ASN:362:C:8143, V-B:ILE:538:CG2:9835, V-B:ILE:538:CB:9834, V-B:PRO:540:N:9856, V-B:GLU:543:CD:9880, V-B:TYR:539:CE1:9847, V-B:TYR:539:CD1:9845, V-B:PRO:540:C:9853, V-B:TYR:539:CZ:9849, V-B:TYR:531:CE2:9765, V-B:ARG:545:CZ:9898, H-A:GLY:454:N:4047, H-A:TYR:484:OH:4345, V-A:ARG:545:CZ:4924, H-B:ALA:541:O:9861, H-B:GLU:543:OE1:9881, H-B:GLU:543:OE2:9882, V-B:ASN:362:CA:8145"]

$$$$
4bj_Grossjean_2025
     RDKit          3D

 23 25  0  0  0  0  0  0  0  0999 V2000
  132.3760  125.8730   64.6220 C   0  0  0  0  0  0  0  0  0  0  0  0
  131.9500  124.7200   63.7310 C   0  0  0  0  0  0  0  0  0  0  0  0
  130.6590  124.6540   63.2120 C   0  0  0  0  0  0  0  0  0  0  0  0
  130.2760  123.5780   62.3950 C   0  0  0  0  0  0  0  0  0  0  0  0
  128.8440  123.5470   61.8490 C   0  0  0  0  0  0  0  0  0  0  0  0
  128.1700  124.6740   62.0890 F   0  0  0  0  0  0  0  0  0  0  0  0
  128.8680  123.3680   60.5290 F   0  0  0  0  0  0  0  0  0  0  0  0
  128.1680  122.5490   62.4180 F   0  0  0  0  0  0  0  0  0  0  0  0
  131.2600  122.5800   62.1270 C   0  0  0  0  0  0  0  0  0  0  0  0
  131.2360  121.3610   61.3560 C   0  0  0  0  0  0  0  0  0  0  0  0
  130.1190  120.9290   60.6860 N   0  0  0  0  0  0  0  0  0  0  0  0
  132.4550  120.6640   61.3470 C   0  0  0  0  0  0  0  0  0  0  0  0
  132.7790  119.4000   60.6820 C   0  0  0  0  0  0  0  0  0  0  0  0
  133.8980  119.2090   60.2000 O   0  0  0  0  0  0  0  0  0  0  0  0
  131.7810  118.4830   60.6560 N   0  0  0  0  0  0  0  0  0  0  0  0
  131.8310  117.2110   60.1020 C   0  0  0  0  0  0  0  0  0  0  0  0
  131.3070  116.8030   58.9670 N   0  0  0  0  0  0  0  0  0  0  0  0
  131.5550  115.5270   58.7490 C   0  0  0  0  0  0  0  0  0  0  0  0
  132.2980  114.8690   59.7240 C   0  0  0  0  0  0  0  0  0  0  0  0
  132.6860  115.9930   60.9930 S   0  0  0  0  0  0  0  0  0  0  0  0
  133.6700  121.4910   62.3180 S   0  0  0  0  0  0  0  0  0  0  0  0
  132.5470  122.7700   62.7160 C   0  0  0  0  0  0  0  0  0  0  0  0
  132.9050  123.7910   63.4940 N   0  0  0  0  0  0  0  0  0  0  0  0
  1  2  1  0
  2  3  2  0
  3  4  1  0
  4  5  1  0
  5  6  1  0
  5  7  1  0
  5  8  1  0
  4  9  2  0
  9 10  1  0
 10 11  1  0
 10 12  2  0
 12 13  1  0
 13 14  2  0
 13 15  1  0
 15 16  1  0
 16 17  2  0
 17 18  1  0
 18 19  2  0
 19 20  1  0
 12 21  1  0
 21 22  1  0
 22 23  2  0
 23  2  1  0
 22  9  1  0
 20 16  1  0
M  END
>  <Binding energies>  (53) 
[-6.29]

>  <Ligand effiencies>  (53) 
[-0.24192307692307694]

>  <Interactions>  (53) 
["V-B:ALA:541:CB:9864, V-B:ALA:541:CA:9862, V-A:LEU:475:CD2:4256, V-B:GLU:543:CD:9880, V-B:TYR:539:C:9839, V-B:TYR:539:CE1:9847, V-B:TYR:539:CD1:9845, V-B:PRO:540:C:9853, H-A:GLY:454:N:4047, V-A:GLY:454:CA:4046, H-A:TYR:484:OH:4345, V-A:ARG:545:CD:4921, V-A:ARG:545:CZ:4924, H-B:TYR:539:O:9840, V-A:SER:385:CB:3406, V-A:SER:385:CA:3404, V-B:TYR:539:CB:9843, V-A:HIS:383:CG:3387, V-A:HIS:383:CB:3386, V-A:LEU:373:CD1:3277, V-B:VAL:344:CG1:7972, V-B:ILE:343:CD1:7965, V-A:HIS:383:CD2:3389, V-A:HIS:383:CE1:3391"]

$$$$
4bk_Grossjean_2025
     RDKit          3D

 28 29  0  0  0  0  0  0  0  0999 V2000
  126.9820  128.9150   76.5850 C   0  0  0  0  0  0  0  0  0  0  0  0
  127.6930  128.1250   75.6450 O   0  0  0  0  0  0  0  0  0  0  0  0
  127.1310  128.1550   74.3400 C   0  0  0  0  0  0  0  0  0  0  0  0
  128.1790  127.6920   73.3200 C   0  0  0  0  0  0  0  0  0  0  0  0
  129.4730  128.0730   73.7670 O   0  0  0  0  0  0  0  0  0  0  0  0
  130.5290  127.5840   72.9510 C   0  0  0  0  0  0  0  0  0  0  0  0
  131.4760  126.7270   73.8020 C   0  0  0  0  0  0  0  0  0  0  0  0
  130.8520  126.4280   75.0420 O   0  0  0  0  0  0  0  0  0  0  0  0
  131.5620  125.4790   75.8300 C   0  0  0  0  0  0  0  0  0  0  0  0
  132.2230  124.4420   74.9050 C   0  0  0  0  0  0  0  0  0  0  0  0
  131.3540  123.3130   74.5710 N   0  0  0  0  0  0  0  0  0  0  0  0
  130.1650  123.4060   73.9390 C   0  0  0  0  0  0  0  0  0  0  0  0
  129.7010  124.4820   73.5590 O   0  0  0  0  0  0  0  0  0  0  0  0
  129.4520  122.1460   73.7200 C   0  0  0  0  0  0  0  0  0  0  0  0
  128.6650  121.8340   72.1750 S   0  0  0  0  0  0  0  0  0  0  0  0
  128.1410  120.2560   72.7120 C   0  0  0  0  0  0  0  0  0  0  0  0
  127.4300  119.4520   71.9210 N   0  0  0  0  0  0  0  0  0  0  0  0
  127.0840  118.2550   72.4470 C   0  0  0  0  0  0  0  0  0  0  0  0
  126.2770  117.3550   71.5270 C   0  0  0  0  0  0  0  0  0  0  0  0
  127.4270  117.8460   73.7330 C   0  0  0  0  0  0  0  0  0  0  0  0
  128.1730  118.6870   74.5720 C   0  0  0  0  0  0  0  0  0  0  0  0
  128.5230  118.1950   75.9800 C   0  0  0  0  0  0  0  0  0  0  0  0
  129.8380  118.1180   76.1950 F   0  0  0  0  0  0  0  0  0  0  0  0
  128.0180  119.0290   76.8880 F   0  0  0  0  0  0  0  0  0  0  0  0
  128.0160  116.9780   76.1710 F   0  0  0  0  0  0  0  0  0  0  0  0
  128.5570  119.9580   74.0470 C   0  0  0  0  0  0  0  0  0  0  0  0
  129.3090  121.0590   74.5950 C   0  0  0  0  0  0  0  0  0  0  0  0
  129.8350  121.0410   75.8610 N   0  0  0  0  0  0  0  0  0  0  0  0
  1  2  1  0
  2  3  1  0
  3  4  1  0
  4  5  1  0
  5  6  1  0
  6  7  1  0
  7  8  1  0
  8  9  1  0
  9 10  1  0
 10 11  1  0
 11 12  1  0
 12 13  2  0
 12 14  1  0
 14 15  1  0
 15 16  1  0
 16 17  2  0
 17 18  1  0
 18 19  1  0
 18 20  2  0
 20 21  1  0
 21 22  1  0
 22 23  1  0
 22 24  1  0
 22 25  1  0
 21 26  2  0
 26 27  1  0
 27 28  1  0
 27 14  2  0
 26 16  1  0
M  END
>  <Binding energies>  (54) 
[-6.44]

>  <Ligand effiencies>  (54) 
[-0.207741935483871]

>  <Interactions>  (54) 
["V-A:GLY:544:CA:4912, V-B:HIS:456:CG:9037, V-B:HIS:456:CD2:9039, V-B:GLU:543:C:9874, V-B:GLY:544:CA:9886, H-B:LYS:547:NZ:9923, V-A:LYS:547:CE:4948, V-A:GLY:544:C:4910, H-A:LYS:547:NZ:4949, V-B:LYS:547:CE:9922, V-A:HIS:456:CD2:4065, V-A:HIS:456:CG:4063, V-A:HIS:456:CB:4062, V-A:TYR:484:CB:4338, V-B:VAL:542:CG1:9871, V-A:ASP:473:CG:4237, V-A:TYR:484:CD2:4341, V-A:TYR:484:CG:4339, H-A:TYR:484:N:4337, V-B:GLU:543:CA:9876, H-A:ASP:473:OD2:4239, V-A:SER:483:CA:4328, V-A:SER:483:CB:4330"]

$$$$
4cd_Grossjean_2025
     RDKit          3D

 29 32  0  0  0  0  0  0  0  0999 V2000
  127.8680  128.1920   63.7390 N   0  0  0  0  0  0  0  0  0  0  0  0
  128.2550  129.1590   62.8460 C   0  0  0  0  0  0  0  0  0  0  0  0
  129.2980  128.9800   61.9230 C   0  0  0  0  0  0  0  0  0  0  0  0
  130.1600  127.8090   61.7340 C   0  0  0  0  0  0  0  0  0  0  0  0
  130.5360  127.4820   60.6090 O   0  0  0  0  0  0  0  0  0  0  0  0
  130.5000  127.1490   62.8680 N   0  0  0  0  0  0  0  0  0  0  0  0
  131.2590  125.9750   63.0290 C   0  0  0  0  0  0  0  0  0  0  0  0
  130.9080  125.1620   64.1110 C   0  0  0  0  0  0  0  0  0  0  0  0
  131.5920  123.9730   64.3460 C   0  0  0  0  0  0  0  0  0  0  0  0
  132.6240  123.5910   63.4940 C   0  0  0  0  0  0  0  0  0  0  0  0
  132.9760  124.3840   62.4050 C   0  0  0  0  0  0  0  0  0  0  0  0
  132.2940  125.5750   62.1670 C   0  0  0  0  0  0  0  0  0  0  0  0
  129.5180  130.4170   60.9260 S   0  0  0  0  0  0  0  0  0  0  0  0
  128.2230  131.2460   61.7560 C   0  0  0  0  0  0  0  0  0  0  0  0
  127.8740  132.4890   61.4320 N   0  0  0  0  0  0  0  0  0  0  0  0
  126.8640  133.0550   62.1420 C   0  0  0  0  0  0  0  0  0  0  0  0
  126.4950  134.4580   61.7560 C   0  0  0  0  0  0  0  0  0  0  0  0
  127.4590  135.4800   61.7510 C   0  0  0  0  0  0  0  0  0  0  0  0
  127.1240  136.7830   61.3930 C   0  0  0  0  0  0  0  0  0  0  0  0
  125.8140  137.0840   61.0340 C   0  0  0  0  0  0  0  0  0  0  0  0
  124.8410  136.0910   61.0270 C   0  0  0  0  0  0  0  0  0  0  0  0
  125.1810  134.7900   61.3830 C   0  0  0  0  0  0  0  0  0  0  0  0
  126.1980  132.3660   63.1590 C   0  0  0  0  0  0  0  0  0  0  0  0
  126.5550  131.0520   63.5060 C   0  0  0  0  0  0  0  0  0  0  0  0
  125.7850  130.3560   64.6340 C   0  0  0  0  0  0  0  0  0  0  0  0
  126.5640  130.0030   65.6600 F   0  0  0  0  0  0  0  0  0  0  0  0
  124.8440  131.1720   65.1090 F   0  0  0  0  0  0  0  0  0  0  0  0
  125.2120  129.2460   64.1690 F   0  0  0  0  0  0  0  0  0  0  0  0
  127.6210  130.4530   62.7760 C   0  0  0  0  0  0  0  0  0  0  0  0
  1  2  1  0
  2  3  2  0
  3  4  1  0
  4  5  2  0
  4  6  1  0
  6  7  1  0
  7  8  2  0
  8  9  1  0
  9 10  2  0
 10 11  1  0
 11 12  2  0
  3 13  1  0
 13 14  1  0
 14 15  2  0
 15 16  1  0
 16 17  1  0
 17 18  2  0
 18 19  1  0
 19 20  2  0
 20 21  1  0
 21 22  2  0
 16 23  2  0
 23 24  1  0
 24 25  1  0
 25 26  1  0
 25 27  1  0
 25 28  1  0
 24 29  2  0
 29  2  1  0
 12  7  1  0
 29 14  1  0
 22 17  1  0
M  END
>  <Binding energies>  (55) 
[-7.55]

>  <Ligand effiencies>  (55) 
[-0.2359375]

>  <Interactions>  (55) 
["V-A:TYR:539:CE1:4873, V-B:GLU:543:CD:9880, V-A:TYR:539:CD1:4871, V-A:ALA:541:CB:4890, V-B:ILE:369:CG2:8208, V-B:ARG:545:CZ:9898, V-B:PRO:482:CB:9297, V-B:SER:385:CA:8378, V-B:PRO:482:CG:9298, V-B:LEU:475:CD2:9230, V-B:LEU:373:CD1:8251, V-B:GLY:453:C:9013, V-B:GLY:454:CA:9020, V-A:GLY:454:CA:4046, V-A:ARG:545:CZ:4924, V-A:GLU:543:CD:4906, H-A:GLU:543:OE2:4908, H-A:GLU:543:OE1:4907, V-B:TYR:484:CZ:9318, H-B:GLU:543:OE1:9881, H-B:GLU:543:OE2:9882, V-A:TYR:539:CB:4869"]

$$$$
4cg_Grossjean_2025
     RDKit          3D

 30 33  0  0  0  0  0  0  0  0999 V2000
  130.4700  128.0370   62.8750 N   0  0  0  0  0  0  0  0  0  0  0  0
  130.6580  127.2060   61.8010 C   0  0  0  0  0  0  0  0  0  0  0  0
  130.5780  127.6410   60.4710 C   0  0  0  0  0  0  0  0  0  0  0  0
  130.3430  128.9940   59.9660 C   0  0  0  0  0  0  0  0  0  0  0  0
  129.3890  129.2470   59.2270 O   0  0  0  0  0  0  0  0  0  0  0  0
  131.2510  129.9260   60.3250 N   0  0  0  0  0  0  0  0  0  0  0  0
  131.2040  131.3400   59.9570 C   0  0  0  0  0  0  0  0  0  0  0  0
  131.4920  131.5920   58.4820 C   0  0  0  0  0  0  0  0  0  0  0  0
  130.4700  132.0440   57.6420 C   0  0  0  0  0  0  0  0  0  0  0  0
  130.7370  132.3060   56.3000 C   0  0  0  0  0  0  0  0  0  0  0  0
  132.0260  132.1250   55.8060 C   0  0  0  0  0  0  0  0  0  0  0  0
  133.0530  131.6900   56.6410 C   0  0  0  0  0  0  0  0  0  0  0  0
  132.7880  131.4300   57.9830 C   0  0  0  0  0  0  0  0  0  0  0  0
  130.8930  126.3240   59.3440 S   0  0  0  0  0  0  0  0  0  0  0  0
  131.1060  125.1950   60.6600 C   0  0  0  0  0  0  0  0  0  0  0  0
  131.3880  123.9140   60.4370 N   0  0  0  0  0  0  0  0  0  0  0  0
  131.5420  123.1110   61.5220 C   0  0  0  0  0  0  0  0  0  0  0  0
  131.8570  121.6710   61.2360 C   0  0  0  0  0  0  0  0  0  0  0  0
  133.1610  121.2710   60.8990 C   0  0  0  0  0  0  0  0  0  0  0  0
  133.4580  119.9380   60.6330 C   0  0  0  0  0  0  0  0  0  0  0  0
  132.4520  118.9800   60.6970 C   0  0  0  0  0  0  0  0  0  0  0  0
  131.1510  119.3480   61.0260 C   0  0  0  0  0  0  0  0  0  0  0  0
  130.8590  120.6820   61.2910 C   0  0  0  0  0  0  0  0  0  0  0  0
  131.3920  123.5970   62.8260 C   0  0  0  0  0  0  0  0  0  0  0  0
  131.0940  124.9460   63.0740 C   0  0  0  0  0  0  0  0  0  0  0  0
  130.9440  125.4110   64.5270 C   0  0  0  0  0  0  0  0  0  0  0  0
  130.8140  124.4010   65.3890 F   0  0  0  0  0  0  0  0  0  0  0  0
  132.0200  126.1100   64.8900 F   0  0  0  0  0  0  0  0  0  0  0  0
  129.8610  126.1770   64.6450 F   0  0  0  0  0  0  0  0  0  0  0  0
  130.9460  125.7990   61.9420 C   0  0  0  0  0  0  0  0  0  0  0  0
  1  2  1  0
  2  3  2  0
  3  4  1  0
  4  5  2  0
  4  6  1  0
  6  7  1  0
  7  8  1  0
  8  9  2  0
  9 10  1  0
 10 11  2  0
 11 12  1  0
 12 13  2  0
  3 14  1  0
 14 15  1  0
 15 16  2  0
 16 17  1  0
 17 18  1  0
 18 19  2  0
 19 20  1  0
 20 21  2  0
 21 22  1  0
 22 23  2  0
 17 24  2  0
 24 25  1  0
 25 26  1  0
 26 27  1  0
 26 28  1  0
 26 29  1  0
 25 30  2  0
 30  2  1  0
 13  8  1  0
 30 15  1  0
 23 18  1  0
M  END
>  <Binding energies>  (56) 
[-7.74]

>  <Ligand effiencies>  (56) 
[-0.23454545454545456]

>  <Interactions>  (56) 
["V-A:MET:535:CE:4833, V-A:ASP:366:CG:3210, V-A:TYR:531:CZ:4792, V-A:TYR:531:CE2:4791, V-A:PRO:540:CB:4883, V-A:PRO:540:CA:4881, V-A:ILE:538:CA:4858, V-A:LEU:363:CD1:3186, V-B:ALA:541:CB:9864, V-A:LEU:475:CD2:4256, V-B:GLU:543:CD:9880, V-B:TYR:539:CE1:9847, V-B:TYR:539:CD1:9845, V-A:PRO:540:N:4882, V-A:ILE:369:CG2:3234, V-A:ILE:538:CB:4860, V-A:ILE:538:CG2:4861, H-A:ASP:366:OD2:3212, V-A:TYR:484:CZ:4344, V-A:ARG:545:CZ:4924, V-A:GLU:543:CD:4906, H-A:GLU:543:OE2:4908, H-A:GLU:543:OE1:4907, V-A:SER:385:CA:3404, V-B:GLU:543:CB:9878, V-A:LEU:373:CD1:3277, V-A:TYR:484:CE2:4343"]

$$$$
4ch_Grossjean_2025
     RDKit          3D

 36 39  0  0  0  0  0  0  0  0999 V2000
  128.6130  122.8730   55.7760 C   0  0  0  0  0  0  0  0  0  0  0  0
  128.2700  122.1500   56.9540 O   0  0  0  0  0  0  0  0  0  0  0  0
  127.4530  122.7430   57.9000 C   0  0  0  0  0  0  0  0  0  0  0  0
  127.9080  123.2230   59.1380 C   0  0  0  0  0  0  0  0  0  0  0  0
  127.0260  123.8130   60.0450 C   0  0  0  0  0  0  0  0  0  0  0  0
  127.5330  124.3030   61.3960 C   0  0  0  0  0  0  0  0  0  0  0  0
  127.3520  125.7370   61.6220 N   0  0  0  0  0  0  0  0  0  0  0  0
  127.4660  126.6990   60.6820 C   0  0  0  0  0  0  0  0  0  0  0  0
  127.7150  126.4460   59.5010 O   0  0  0  0  0  0  0  0  0  0  0  0
  127.2380  128.0710   61.1380 C   0  0  0  0  0  0  0  0  0  0  0  0
  126.8940  129.3430   59.9700 S   0  0  0  0  0  0  0  0  0  0  0  0
  126.7420  130.5300   61.2430 C   0  0  0  0  0  0  0  0  0  0  0  0
  126.4690  131.8050   60.9760 N   0  0  0  0  0  0  0  0  0  0  0  0
  126.3640  132.6540   62.0310 C   0  0  0  0  0  0  0  0  0  0  0  0
  126.0610  134.0860   61.6940 C   0  0  0  0  0  0  0  0  0  0  0  0
  124.7620  134.4820   61.3400 C   0  0  0  0  0  0  0  0  0  0  0  0
  124.4750  135.8080   61.0250 C   0  0  0  0  0  0  0  0  0  0  0  0
  125.4880  136.7600   61.0610 C   0  0  0  0  0  0  0  0  0  0  0  0
  126.7850  136.3950   61.4050 C   0  0  0  0  0  0  0  0  0  0  0  0
  127.0670  135.0670   61.7170 C   0  0  0  0  0  0  0  0  0  0  0  0
  126.5500  132.2220   63.3480 C   0  0  0  0  0  0  0  0  0  0  0  0
  126.8400  130.8790   63.6420 C   0  0  0  0  0  0  0  0  0  0  0  0
  127.0320  130.4740   65.1070 C   0  0  0  0  0  0  0  0  0  0  0  0
  127.8800  129.4540   65.2620 F   0  0  0  0  0  0  0  0  0  0  0  0
  127.5160  131.5030   65.8010 F   0  0  0  0  0  0  0  0  0  0  0  0
  125.8640  130.1020   65.6300 F   0  0  0  0  0  0  0  0  0  0  0  0
  126.9390  129.9780   62.5430 C   0  0  0  0  0  0  0  0  0  0  0  0
  127.2110  128.5640   62.4520 C   0  0  0  0  0  0  0  0  0  0  0  0
  127.4320  127.7770   63.5530 N   0  0  0  0  0  0  0  0  0  0  0  0
  125.6710  123.9100   59.7230 C   0  0  0  0  0  0  0  0  0  0  0  0
  125.1890  123.4370   58.4920 C   0  0  0  0  0  0  0  0  0  0  0  0
  123.8620  123.5030   58.1080 O   0  0  0  0  0  0  0  0  0  0  0  0
  123.3370  124.7300   57.6120 C   0  0  0  0  0  0  0  0  0  0  0  0
  126.0910  122.8610   57.5870 C   0  0  0  0  0  0  0  0  0  0  0  0
  125.6300  122.3810   56.3860 O   0  0  0  0  0  0  0  0  0  0  0  0
  125.3680  123.3900   55.4200 C   0  0  0  0  0  0  0  0  0  0  0  0
  1  2  1  0
  2  3  1  0
  3  4  2  0
  4  5  1  0
  5  6  1  0
  6  7  1  0
  7  8  1  0
  8  9  2  0
  8 10  1  0
 10 11  1  0
 11 12  1  0
 12 13  2  0
 13 14  1  0
 14 15  1  0
 15 16  2  0
 16 17  1  0
 17 18  2  0
 18 19  1  0
 19 20  2  0
 14 21  2  0
 21 22  1  0
 22 23  1  0
 23 24  1  0
 23 25  1  0
 23 26  1  0
 22 27  2  0
 27 28  1  0
 28 29  1  0
  5 30  2  0
 30 31  1  0
 31 32  1  0
 32 33  1  0
 31 34  2  0
 34 35  1  0
 35 36  1  0
 34  3  1  0
 28 10  2  0
 27 12  1  0
 20 15  1  0
M  END
>  <Binding energies>  (57) 
[-8.04]

>  <Ligand effiencies>  (57) 
[-0.20615384615384613]

>  <Interactions>  (57) 
["V-B:ASP:366:CG:8184, V-B:ASP:366:CB:8183, V-A:TYR:539:CE1:4873, V-B:PRO:540:CA:9855, V-B:LEU:363:CA:8156, V-B:PRO:540:CB:9857, V-B:LEU:363:CD1:8160, V-B:MET:535:CE:9807, V-B:ILE:538:CG2:9835, V-B:ILE:538:CB:9834, V-B:ILE:538:CA:9832, V-B:PRO:540:CD:9859, V-B:PRO:540:N:9856, V-B:GLU:543:CD:9880, V-B:TYR:539:C:9839, V-B:TYR:539:CE1:9847, V-A:TYR:539:CD1:4871, V-A:ALA:541:CB:4890, V-B:ILE:369:CG2:8208, V-B:TYR:539:CG:9844, H-B:TYR:539:N:9842, V-B:TYR:539:CZ:9849, V-B:TYR:531:CE2:9765, V-B:PRO:482:CB:9297, V-B:SER:385:CA:8378, V-B:PRO:482:CG:9298, V-B:LEU:475:CD2:9230, V-B:LEU:373:CD1:8251, V-B:TYR:531:CZ:9766, V-B:TYR:539:CE2:9848, V-A:GLU:543:CD:4906, H-A:GLU:543:OE2:4908, V-A:GLU:543:CB:4904, V-B:TYR:484:CZ:9318, V-B:TYR:484:CE2:9317, V-A:GLU:543:CG:4905, V-B:TYR:539:CD2:9846, H-B:GLU:543:OE1:9881, H-B:GLU:543:OE2:9882, V-B:LEU:363:CB:8158, V-B:LEU:363:C:8154"]

$$$$
4cj_Grossjean_2025
     RDKit          3D

 28 31  0  0  0  0  0  0  0  0999 V2000
  127.8120  128.1270   63.6540 N   0  0  0  0  0  0  0  0  0  0  0  0
  128.2530  129.1260   62.8230 C   0  0  0  0  0  0  0  0  0  0  0  0
  129.3560  128.9820   61.9650 C   0  0  0  0  0  0  0  0  0  0  0  0
  130.2160  127.8130   61.7720 C   0  0  0  0  0  0  0  0  0  0  0  0
  130.5950  127.4880   60.6450 O   0  0  0  0  0  0  0  0  0  0  0  0
  130.5410  127.1360   62.9020 N   0  0  0  0  0  0  0  0  0  0  0  0
  131.3370  126.0020   62.9940 C   0  0  0  0  0  0  0  0  0  0  0  0
  131.8590  125.3000   62.0110 N   0  0  0  0  0  0  0  0  0  0  0  0
  132.5660  124.2840   62.4640 C   0  0  0  0  0  0  0  0  0  0  0  0
  132.6290  124.1460   63.8480 C   0  0  0  0  0  0  0  0  0  0  0  0
  131.7090  125.4220   64.5860 S   0  0  0  0  0  0  0  0  0  0  0  0
  129.6340  130.4530   61.0350 S   0  0  0  0  0  0  0  0  0  0  0  0
  128.2790  131.2470   61.8010 C   0  0  0  0  0  0  0  0  0  0  0  0
  127.9390  132.4950   61.4890 N   0  0  0  0  0  0  0  0  0  0  0  0
  126.8670  133.0270   62.1300 C   0  0  0  0  0  0  0  0  0  0  0  0
  126.5020  134.4320   61.7450 C   0  0  0  0  0  0  0  0  0  0  0  0
  127.4680  135.4510   61.7510 C   0  0  0  0  0  0  0  0  0  0  0  0
  127.1350  136.7580   61.4010 C   0  0  0  0  0  0  0  0  0  0  0  0
  125.8270  137.0640   61.0410 C   0  0  0  0  0  0  0  0  0  0  0  0
  124.8510  136.0740   61.0300 C   0  0  0  0  0  0  0  0  0  0  0  0
  125.1880  134.7690   61.3790 C   0  0  0  0  0  0  0  0  0  0  0  0
  126.1560  132.3110   63.0990 C   0  0  0  0  0  0  0  0  0  0  0  0
  126.5070  130.9940   63.4380 C   0  0  0  0  0  0  0  0  0  0  0  0
  125.6830  130.2660   64.5060 C   0  0  0  0  0  0  0  0  0  0  0  0
  126.4320  129.7420   65.4780 F   0  0  0  0  0  0  0  0  0  0  0  0
  124.8300  131.1180   65.0740 F   0  0  0  0  0  0  0  0  0  0  0  0
  124.9990  129.2680   63.9460 F   0  0  0  0  0  0  0  0  0  0  0  0
  127.6190  130.4200   62.7570 C   0  0  0  0  0  0  0  0  0  0  0  0
  1  2  1  0
  2  3  2  0
  3  4  1  0
  4  5  2  0
  4  6  1  0
  6  7  1  0
  7  8  2  0
  8  9  1  0
  9 10  2  0
 10 11  1  0
  3 12  1  0
 12 13  1  0
 13 14  2  0
 14 15  1  0
 15 16  1  0
 16 17  2  0
 17 18  1  0
 18 19  2  0
 19 20  1  0
 20 21  2  0
 15 22  2  0
 22 23  1  0
 23 24  1  0
 24 25  1  0
 24 26  1  0
 24 27  1  0
 23 28  2  0
 28  2  1  0
 11  7  1  0
 28 13  1  0
 21 16  1  0
M  END
>  <Binding energies>  (58) 
[-7.04]

>  <Ligand effiencies>  (58) 
[-0.2270967741935484]

>  <Interactions>  (58) 
["V-A:TYR:539:CE1:4873, V-B:GLU:543:CD:9880, V-A:TYR:539:CD1:4871, V-A:ALA:541:CB:4890, V-B:ILE:369:CG2:8208, V-B:ARG:545:CZ:9898, V-B:PRO:482:CB:9297, V-B:SER:385:CA:8378, V-B:PRO:482:CG:9298, V-B:LEU:475:CD2:9230, V-B:LEU:373:CD1:8251, V-B:GLY:453:C:9013, V-B:GLY:454:CA:9020, V-A:GLY:454:CA:4046, H-A:ARG:545:NH2:4926, V-A:ARG:545:CZ:4924, V-A:GLU:543:CD:4906, H-A:GLU:543:OE2:4908, H-A:GLU:543:OE1:4907, V-B:TYR:484:CZ:9318, H-B:GLU:543:OE1:9881, H-B:GLU:543:OE2:9882, V-A:TYR:539:CB:4869"]

$$$$
4ck_Grossjean_2025
     RDKit          3D

 33 35  0  0  0  0  0  0  0  0999 V2000
  124.8970  129.9720   58.0840 C   0  0  0  0  0  0  0  0  0  0  0  0
  124.1660  131.0190   58.7020 O   0  0  0  0  0  0  0  0  0  0  0  0
  124.1670  130.9470   60.1210 C   0  0  0  0  0  0  0  0  0  0  0  0
  124.3320  132.3610   60.6930 C   0  0  0  0  0  0  0  0  0  0  0  0
  124.6380  132.2670   62.0780 O   0  0  0  0  0  0  0  0  0  0  0  0
  123.6070  131.6640   62.8480 C   0  0  0  0  0  0  0  0  0  0  0  0
  124.0310  130.2400   63.2270 C   0  0  0  0  0  0  0  0  0  0  0  0
  124.7960  130.2940   64.4240 O   0  0  0  0  0  0  0  0  0  0  0  0
  125.8820  129.3760   64.4540 C   0  0  0  0  0  0  0  0  0  0  0  0
  126.4580  129.2120   63.0390 C   0  0  0  0  0  0  0  0  0  0  0  0
  127.2960  128.0180   62.9220 N   0  0  0  0  0  0  0  0  0  0  0  0
  127.6210  127.3910   61.7720 C   0  0  0  0  0  0  0  0  0  0  0  0
  127.2520  127.7940   60.6670 O   0  0  0  0  0  0  0  0  0  0  0  0
  128.4560  126.1970   61.9090 C   0  0  0  0  0  0  0  0  0  0  0  0
  128.1360  124.7770   60.9170 S   0  0  0  0  0  0  0  0  0  0  0  0
  129.5010  123.9330   61.6100 C   0  0  0  0  0  0  0  0  0  0  0  0
  129.8170  122.6960   61.2350 N   0  0  0  0  0  0  0  0  0  0  0  0
  130.8940  122.1210   61.8300 C   0  0  0  0  0  0  0  0  0  0  0  0
  131.2340  120.7320   61.3720 C   0  0  0  0  0  0  0  0  0  0  0  0
  130.2810  119.7030   61.4260 C   0  0  0  0  0  0  0  0  0  0  0  0
  130.5920  118.4120   61.0050 C   0  0  0  0  0  0  0  0  0  0  0  0
  131.8640  118.1320   60.5200 C   0  0  0  0  0  0  0  0  0  0  0  0
  132.8260  119.1340   60.4500 C   0  0  0  0  0  0  0  0  0  0  0  0
  132.5110  120.4230   60.8720 C   0  0  0  0  0  0  0  0  0  0  0  0
  131.6540  122.7940   62.7930 C   0  0  0  0  0  0  0  0  0  0  0  0
  131.3290  124.0980   63.1970 C   0  0  0  0  0  0  0  0  0  0  0  0
  132.2020  124.7760   64.2600 C   0  0  0  0  0  0  0  0  0  0  0  0
  133.1940  123.9980   64.6960 F   0  0  0  0  0  0  0  0  0  0  0  0
  132.7520  125.8800   63.7550 F   0  0  0  0  0  0  0  0  0  0  0  0
  131.4550  125.1000   65.3160 F   0  0  0  0  0  0  0  0  0  0  0  0
  130.1990  124.7100   62.5810 C   0  0  0  0  0  0  0  0  0  0  0  0
  129.5820  126.0070   62.7250 C   0  0  0  0  0  0  0  0  0  0  0  0
  130.0530  126.9630   63.5870 N   0  0  0  0  0  0  0  0  0  0  0  0
  1  2  1  0
  2  3  1  0
  3  4  1  0
  4  5  1  0
  5  6  1  0
  6  7  1  0
  7  8  1  0
  8  9  1  0
  9 10  1  0
 10 11  1  0
 11 12  1  0
 12 13  2  0
 12 14  1  0
 14 15  1  0
 15 16  1  0
 16 17  2  0
 17 18  1  0
 18 19  1  0
 19 20  2  0
 20 21  1  0
 21 22  2  0
 22 23  1  0
 23 24  2  0
 18 25  2  0
 25 26  1  0
 26 27  1  0
 27 28  1  0
 27 29  1  0
 27 30  1  0
 26 31  2  0
 31 32  1  0
 32 33  1  0
 32 14  2  0
 31 16  1  0
 24 19  1  0
M  END
>  <Binding energies>  (59) 
[-7.12]

>  <Ligand effiencies>  (59) 
[-0.19777777777777777]

>  <Interactions>  (59) 
["V-B:ASP:366:CG:8184, H-A:TYR:539:OH:4876, V-B:ASP:366:CB:8183, V-A:TYR:539:CE1:4873, V-B:ALA:541:CB:9864, V-A:LEU:475:CD2:4256, V-B:GLU:543:CD:9880, V-B:TYR:539:CE1:9847, V-B:TYR:539:CD1:9845, V-B:ILE:369:CD1:8210, V-B:ILE:369:CG2:8208, V-A:ILE:369:CG2:3234, V-B:ARG:545:CZ:9898, V-B:GLY:453:CA:9015, V-B:GLY:453:C:9013, V-B:GLY:454:CA:9020, V-A:GLY:454:CA:4046, H-B:TYR:484:OH:9319, V-A:TYR:484:CZ:4344, H-B:GLY:454:N:9021, V-A:ARG:545:CZ:4924, V-A:GLU:543:CD:4906, H-A:GLU:543:OE2:4908, H-A:GLU:543:OE1:4907, V-B:ASP:366:CA:8181, V-A:PRO:482:CG:4324, V-A:PRO:482:CB:4323, V-A:SER:385:CA:3404, V-A:LEU:373:CD1:3277, V-A:GLY:453:C:4039, H-B:GLU:543:OE1:9881, H-B:GLU:543:OE2:9882"]

$$$$
4dd_Grossjean_2025
     RDKit          3D

 26 29  0  0  0  0  0  0  0  0999 V2000
  130.5810  125.4810   64.4620 C   0  0  0  0  0  0  0  0  0  0  0  0
  130.8840  125.0420   63.0370 C   0  0  0  0  0  0  0  0  0  0  0  0
  131.1610  123.6890   62.8080 C   0  0  0  0  0  0  0  0  0  0  0  0
  131.4480  123.2220   61.5190 C   0  0  0  0  0  0  0  0  0  0  0  0
  131.7540  121.7790   61.2450 C   0  0  0  0  0  0  0  0  0  0  0  0
  130.7410  120.8070   61.2920 C   0  0  0  0  0  0  0  0  0  0  0  0
  131.0180  119.4670   61.0350 C   0  0  0  0  0  0  0  0  0  0  0  0
  132.3170  119.0770   60.7290 C   0  0  0  0  0  0  0  0  0  0  0  0
  133.3390  120.0180   60.6750 C   0  0  0  0  0  0  0  0  0  0  0  0
  133.0580  121.3580   60.9300 C   0  0  0  0  0  0  0  0  0  0  0  0
  131.4810  124.0550   60.4430 N   0  0  0  0  0  0  0  0  0  0  0  0
  131.2110  125.3410   60.6590 C   0  0  0  0  0  0  0  0  0  0  0  0
  131.2020  126.5180   59.3650 S   0  0  0  0  0  0  0  0  0  0  0  0
  130.7800  127.8160   60.4840 C   0  0  0  0  0  0  0  0  0  0  0  0
  130.5880  129.1830   59.9950 C   0  0  0  0  0  0  0  0  0  0  0  0
  129.8740  129.9750   60.6110 O   0  0  0  0  0  0  0  0  0  0  0  0
  131.2490  129.4890   58.8520 N   0  0  0  0  0  0  0  0  0  0  0  0
  131.2370  130.6770   58.1000 C   0  0  0  0  0  0  0  0  0  0  0  0
  132.4850  131.1530   57.6870 C   0  0  0  0  0  0  0  0  0  0  0  0
  132.5780  132.3150   56.9260 C   0  0  0  0  0  0  0  0  0  0  0  0
  131.4190  133.0000   56.5690 C   0  0  0  0  0  0  0  0  0  0  0  0
  130.1690  132.5310   56.9630 C   0  0  0  0  0  0  0  0  0  0  0  0
  130.0730  131.3690   57.7240 C   0  0  0  0  0  0  0  0  0  0  0  0
  130.6640  127.3330   61.7960 C   0  0  0  0  0  0  0  0  0  0  0  0
  130.3490  128.1220   62.8750 N   0  0  0  0  0  0  0  0  0  0  0  0
  130.9030  125.9200   61.9230 C   0  0  0  0  0  0  0  0  0  0  0  0
  1  2  1  0
  2  3  2  0
  3  4  1  0
  4  5  1  0
  5  6  2  0
  6  7  1  0
  7  8  2  0
  8  9  1  0
  9 10  2  0
  4 11  2  0
 11 12  1  0
 12 13  1  0
 13 14  1  0
 14 15  1  0
 15 16  2  0
 15 17  1  0
 17 18  1  0
 18 19  2  0
 19 20  1  0
 20 21  2  0
 21 22  1  0
 22 23  2  0
 14 24  2  0
 24 25  1  0
 24 26  1  0
 26  2  1  0
 10  5  1  0
 26 12  2  0
 23 18  1  0
M  END
>  <Binding energies>  (60) 
[-7.62]

>  <Ligand effiencies>  (60) 
[-0.26275862068965516]

>  <Interactions>  (60) 
["V-A:ASP:366:CG:3210, V-A:PRO:540:CB:4883, V-A:PRO:540:CA:4881, H-A:TYR:531:OH:4793, V-A:ILE:538:CA:4858, V-A:LEU:363:CD1:3186, V-B:ALA:541:CB:9864, V-A:LEU:475:CD2:4256, V-B:GLU:543:CD:9880, V-B:TYR:539:CE1:9847, V-B:TYR:539:CD1:9845, V-A:PRO:540:N:4882, V-A:TYR:539:C:4865, V-A:ILE:369:CG2:3234, V-A:ILE:538:CB:4860, V-A:PRO:540:CD:4885, V-A:ILE:538:CG2:4861, V-A:ILE:538:C:4856, H-A:ASP:366:OD2:3212, V-A:GLU:543:CD:4906, H-A:GLU:543:OE2:4908, H-A:GLU:543:OE1:4907, V-A:SER:385:CA:3404, V-A:LEU:373:CD1:3277"]

$$$$
4dg_Grossjean_2025
     RDKit          3D

 27 30  0  0  0  0  0  0  0  0999 V2000
  134.6290  124.2770   62.1180 C   0  0  0  0  0  0  0  0  0  0  0  0
  133.1210  124.2130   61.9280 C   0  0  0  0  0  0  0  0  0  0  0  0
  132.3900  125.4000   62.0450 C   0  0  0  0  0  0  0  0  0  0  0  0
  130.9990  125.4080   61.8820 C   0  0  0  0  0  0  0  0  0  0  0  0
  130.1870  126.6670   62.0010 C   0  0  0  0  0  0  0  0  0  0  0  0
  129.0120  126.6970   62.7680 C   0  0  0  0  0  0  0  0  0  0  0  0
  128.2530  127.8600   62.8790 C   0  0  0  0  0  0  0  0  0  0  0  0
  128.6610  129.0150   62.2210 C   0  0  0  0  0  0  0  0  0  0  0  0
  129.8200  129.0130   61.4500 C   0  0  0  0  0  0  0  0  0  0  0  0
  130.5740  127.8480   61.3420 C   0  0  0  0  0  0  0  0  0  0  0  0
  130.3050  124.2760   61.5850 N   0  0  0  0  0  0  0  0  0  0  0  0
  131.0000  123.1450   61.4730 C   0  0  0  0  0  0  0  0  0  0  0  0
  130.2310  121.6190   61.1020 S   0  0  0  0  0  0  0  0  0  0  0  0
  131.7800  120.7780   61.1470 C   0  0  0  0  0  0  0  0  0  0  0  0
  131.8380  119.3320   60.9390 C   0  0  0  0  0  0  0  0  0  0  0  0
  132.8840  118.7010   61.1030 O   0  0  0  0  0  0  0  0  0  0  0  0
  130.6930  118.7500   60.5250 N   0  0  0  0  0  0  0  0  0  0  0  0
  130.5110  117.3210   60.2770 C   0  0  0  0  0  0  0  0  0  0  0  0
  131.7950  116.5120   60.4250 C   0  0  0  0  0  0  0  0  0  0  0  0
  132.0220  115.7770   61.5930 C   0  0  0  0  0  0  0  0  0  0  0  0
  133.1780  115.0130   61.7190 C   0  0  0  0  0  0  0  0  0  0  0  0
  134.0990  114.9770   60.6740 C   0  0  0  0  0  0  0  0  0  0  0  0
  133.8720  115.6940   59.5020 C   0  0  0  0  0  0  0  0  0  0  0  0
  132.7150  116.4570   59.3740 C   0  0  0  0  0  0  0  0  0  0  0  0
  132.8290  121.6580   61.4530 C   0  0  0  0  0  0  0  0  0  0  0  0
  134.1410  121.2720   61.5670 N   0  0  0  0  0  0  0  0  0  0  0  0
  132.4090  123.0220   61.6320 C   0  0  0  0  0  0  0  0  0  0  0  0
  1  2  1  0
  2  3  2  0
  3  4  1  0
  4  5  1  0
  5  6  2  0
  6  7  1  0
  7  8  2  0
  8  9  1  0
  9 10  2  0
  4 11  2  0
 11 12  1  0
 12 13  1  0
 13 14  1  0
 14 15  1  0
 15 16  2  0
 15 17  1  0
 17 18  1  0
 18 19  1  0
 19 20  2  0
 20 21  1  0
 21 22  2  0
 22 23  1  0
 23 24  2  0
 14 25  2  0
 25 26  1  0
 25 27  1  0
 27  2  1  0
 10  5  1  0
 27 12  2  0
 24 19  1  0
M  END
>  <Binding energies>  (61) 
[-8.28]

>  <Ligand effiencies>  (61) 
[-0.27599999999999997]

>  <Interactions>  (61) 
["V-B:ALA:541:CB:9864, V-A:LEU:475:CD2:4256, V-B:GLU:543:CD:9880, V-B:TYR:539:C:9839, V-B:TYR:539:CE1:9847, V-B:TYR:539:CD1:9845, V-B:TYR:539:CG:9844, V-A:ILE:369:CD1:3236, V-A:ILE:369:CG2:3234, V-A:GLY:454:CA:4046, V-A:GLY:453:CA:4041, V-A:ARG:545:CZ:4924, V-A:GLU:543:CD:4906, H-B:TYR:539:O:9840, V-A:PRO:482:CG:4324, V-A:SER:385:CB:3406, V-A:PRO:482:CB:4323, V-A:SER:385:CA:3404, V-B:TYR:539:CB:9843, V-A:HIS:383:CG:3387, V-A:LEU:373:CD2:3278, V-A:HIS:383:CB:3386, V-A:LEU:373:CD1:3277, V-A:GLY:453:C:4039, V-A:VAL:384:C:3394, V-B:VAL:344:CG1:7972, V-A:SER:385:C:3402, V-A:HIS:383:CA:3384, V-A:THR:477:CA:4267, V-A:CYS:476:C:4261, H-A:SER:385:O:3403, V-A:LEU:373:CG:3276, V-A:HIS:383:C:3382, V-A:THR:477:CG2:4270, V-A:THR:477:CB:4269"]

$$$$
4dj_Grossjean_2025
     RDKit          3D

 25 28  0  0  0  0  0  0  0  0999 V2000
  123.4530  131.4830   60.5950 C   0  0  0  0  0  0  0  0  0  0  0  0
  124.4680  132.3640   61.3090 C   0  0  0  0  0  0  0  0  0  0  0  0
  124.5310  133.7170   60.9560 C   0  0  0  0  0  0  0  0  0  0  0  0
  125.4440  134.5800   61.5730 C   0  0  0  0  0  0  0  0  0  0  0  0
  125.5300  136.0380   61.2200 C   0  0  0  0  0  0  0  0  0  0  0  0
  126.7750  136.6750   61.0900 C   0  0  0  0  0  0  0  0  0  0  0  0
  126.8620  138.0260   60.7620 C   0  0  0  0  0  0  0  0  0  0  0  0
  125.6990  138.7630   60.5630 C   0  0  0  0  0  0  0  0  0  0  0  0
  124.4530  138.1590   60.6890 C   0  0  0  0  0  0  0  0  0  0  0  0
  124.3710  136.8080   61.0150 C   0  0  0  0  0  0  0  0  0  0  0  0
  126.2930  134.1510   62.5470 N   0  0  0  0  0  0  0  0  0  0  0  0
  126.2350  132.8630   62.8830 C   0  0  0  0  0  0  0  0  0  0  0  0
  127.2730  132.1770   64.1130 S   0  0  0  0  0  0  0  0  0  0  0  0
  126.5530  130.5800   63.8970 C   0  0  0  0  0  0  0  0  0  0  0  0
  127.0210  129.4440   64.6910 C   0  0  0  0  0  0  0  0  0  0  0  0
  127.5520  128.4710   64.1480 O   0  0  0  0  0  0  0  0  0  0  0  0
  126.8200  129.5440   66.0280 N   0  0  0  0  0  0  0  0  0  0  0  0
  127.1660  128.6120   66.9960 C   0  0  0  0  0  0  0  0  0  0  0  0
  126.3790  127.7520   67.6070 N   0  0  0  0  0  0  0  0  0  0  0  0
  127.0460  127.0150   68.4730 C   0  0  0  0  0  0  0  0  0  0  0  0
  128.4100  127.2700   68.5770 C   0  0  0  0  0  0  0  0  0  0  0  0
  128.8310  128.5490   67.4770 S   0  0  0  0  0  0  0  0  0  0  0  0
  125.5580  130.6050   62.9080 C   0  0  0  0  0  0  0  0  0  0  0  0
  124.8320  129.5030   62.5280 N   0  0  0  0  0  0  0  0  0  0  0  0
  125.3550  131.8990   62.3150 C   0  0  0  0  0  0  0  0  0  0  0  0
  1  2  1  0
  2  3  2  0
  3  4  1  0
  4  5  1  0
  5  6  2  0
  6  7  1  0
  7  8  2  0
  8  9  1  0
  9 10  2  0
  4 11  2  0
 11 12  1  0
 12 13  1  0
 13 14  1  0
 14 15  1  0
 15 16  2  0
 15 17  1  0
 17 18  1  0
 18 19  2  0
 19 20  1  0
 20 21  2  0
 21 22  1  0
 14 23  2  0
 23 24  1  0
 23 25  1  0
 25  2  1  0
 10  5  1  0
 25 12  2  0
 22 18  1  0
M  END
>  <Binding energies>  (62) 
[-7.48]

>  <Ligand effiencies>  (62) 
[-0.2671428571428572]

>  <Interactions>  (62) 
["V-B:ASP:366:CG:8184, V-A:TYR:539:CE1:4873, V-B:GLU:543:CD:9880, V-A:TYR:539:CD1:4871, V-B:ILE:369:CD1:8210, V-A:ALA:541:CB:4890, V-A:TYR:539:CG:4870, V-B:ILE:369:CG2:8208, V-B:ARG:545:CZ:9898, V-B:PRO:482:CB:9297, V-B:SER:385:CA:8378, V-B:PRO:482:CG:9298, V-B:LEU:475:CD2:9230, V-B:SER:385:CB:8380, V-B:LEU:373:CD1:8251, V-B:ILE:369:CG1:8209, H-B:TYR:484:OH:9319, H-B:ASP:366:OD1:8185, H-B:ASP:366:OD2:8186, V-B:ILE:369:CB:8207, V-A:GLU:543:CD:4906, V-B:HIS:456:CE1:9040, H-B:ARG:545:NH2:9900, H-B:ARG:545:NE:9896, V-A:GLU:543:CB:4904, V-B:ARG:545:CG:9894, V-A:GLU:543:CG:4905, V-B:GLU:543:CB:9878, V-B:GLU:543:CG:9879, V-B:VAL:384:C:8368, V-A:VAL:344:CG1:2998, V-A:TYR:539:CB:4869, V-B:GLU:543:C:9874"]

$$$$
4ea_Grossjean_2025
     RDKit          3D

 31 34  0  0  0  0  0  0  0  0999 V2000
  125.1160  138.5830   61.0410 C   0  0  0  0  0  0  0  0  0  0  0  0
  126.1550  137.4850   60.7930 C   0  0  0  0  0  0  0  0  0  0  0  0
  125.8990  136.3890   61.6610 O   0  0  0  0  0  0  0  0  0  0  0  0
  124.9210  135.4880   61.3850 C   0  0  0  0  0  0  0  0  0  0  0  0
  123.7320  135.7960   61.2500 O   0  0  0  0  0  0  0  0  0  0  0  0
  125.4280  134.0810   61.2600 C   0  0  0  0  0  0  0  0  0  0  0  0
  124.5190  133.0470   61.0020 C   0  0  0  0  0  0  0  0  0  0  0  0
  124.9580  131.7320   60.8800 C   0  0  0  0  0  0  0  0  0  0  0  0
  126.3120  131.4220   61.0130 C   0  0  0  0  0  0  0  0  0  0  0  0
  126.6400  130.0600   60.8710 N   0  0  0  0  0  0  0  0  0  0  0  0
  126.5680  129.2480   59.7880 C   0  0  0  0  0  0  0  0  0  0  0  0
  126.1750  129.6060   58.6770 O   0  0  0  0  0  0  0  0  0  0  0  0
  126.9990  127.8660   60.0140 C   0  0  0  0  0  0  0  0  0  0  0  0
  127.9970  127.4590   61.4130 S   0  0  0  0  0  0  0  0  0  0  0  0
  128.0410  125.7730   60.9520 C   0  0  0  0  0  0  0  0  0  0  0  0
  128.6990  124.8620   61.6730 N   0  0  0  0  0  0  0  0  0  0  0  0
  128.6550  123.5900   61.2070 C   0  0  0  0  0  0  0  0  0  0  0  0
  129.4090  122.5710   62.0410 C   0  0  0  0  0  0  0  0  0  0  0  0
  127.9770  123.2100   60.0510 C   0  0  0  0  0  0  0  0  0  0  0  0
  127.2900  124.1680   59.2980 C   0  0  0  0  0  0  0  0  0  0  0  0
  126.5740  123.7500   58.0720 C   0  0  0  0  0  0  0  0  0  0  0  0
  125.1800  123.6330   58.0760 C   0  0  0  0  0  0  0  0  0  0  0  0
  124.5060  123.2420   56.9230 C   0  0  0  0  0  0  0  0  0  0  0  0
  125.2270  122.9620   55.7640 C   0  0  0  0  0  0  0  0  0  0  0  0
  126.6160  123.0700   55.7500 C   0  0  0  0  0  0  0  0  0  0  0  0
  127.2880  123.4620   56.9050 C   0  0  0  0  0  0  0  0  0  0  0  0
  127.3100  125.5160   59.7530 C   0  0  0  0  0  0  0  0  0  0  0  0
  126.7260  126.7270   59.2390 C   0  0  0  0  0  0  0  0  0  0  0  0
  125.9730  126.7470   58.0930 N   0  0  0  0  0  0  0  0  0  0  0  0
  127.2300  132.4520   61.2720 C   0  0  0  0  0  0  0  0  0  0  0  0
  126.7890  133.7660   61.3930 C   0  0  0  0  0  0  0  0  0  0  0  0
  1  2  1  0
  2  3  1  0
  3  4  1  0
  4  5  2  0
  4  6  1  0
  6  7  2  0
  7  8  1  0
  8  9  2  0
  9 10  1  0
 10 11  1  0
 11 12  2  0
 11 13  1  0
 13 14  1  0
 14 15  1  0
 15 16  2  0
 16 17  1  0
 17 18  1  0
 17 19  2  0
 19 20  1  0
 20 21  1  0
 21 22  2  0
 22 23  1  0
 23 24  2  0
 24 25  1  0
 25 26  2  0
 20 27  2  0
 27 28  1  0
 28 29  1  0
  9 30  1  0
 30 31  2  0
 31  6  1  0
 28 13  2  0
 27 15  1  0
 26 21  1  0
M  END
>  <Binding energies>  (63) 
[-7.27]

>  <Ligand effiencies>  (63) 
[-0.2138235294117647]

>  <Interactions>  (63) 
["V-B:ASP:366:CG:8184, V-B:ASP:366:CB:8183, V-A:TYR:539:CE1:4873, H-B:TYR:531:OH:9767, V-B:PRO:540:CA:9855, V-B:ALA:541:CB:9864, V-B:PRO:540:CB:9857, V-B:LEU:363:CD1:8160, V-B:MET:535:CE:9807, V-B:ILE:538:CG2:9835, V-B:ILE:538:CB:9834, V-B:ILE:538:CA:9832, V-A:TYR:539:CD1:4871, V-A:TYR:539:CG:4870, V-B:ILE:369:CG2:8208, V-B:TYR:531:CE2:9765, V-B:SER:385:CA:8378, V-B:PRO:482:CG:9298, V-B:LEU:475:CD2:9230, V-B:SER:385:CB:8380, V-B:LEU:373:CD1:8251, V-B:TYR:531:CZ:9766, H-B:ASP:366:OD2:8186, V-A:TYR:539:CB:4869"]

$$$$
4eb_Grossjean_2025
     RDKit          3D

 30 33  0  0  0  0  0  0  0  0999 V2000
  132.3710  115.3810   58.4010 C   0  0  0  0  0  0  0  0  0  0  0  0
  133.4010  115.0580   59.3240 O   0  0  0  0  0  0  0  0  0  0  0  0
  133.3890  115.5590   60.5870 C   0  0  0  0  0  0  0  0  0  0  0  0
  133.9600  115.0170   61.5380 O   0  0  0  0  0  0  0  0  0  0  0  0
  132.6110  116.8370   60.7110 C   0  0  0  0  0  0  0  0  0  0  0  0
  133.2700  118.0590   60.5180 C   0  0  0  0  0  0  0  0  0  0  0  0
  132.5770  119.2610   60.6260 C   0  0  0  0  0  0  0  0  0  0  0  0
  131.2140  119.2680   60.9280 C   0  0  0  0  0  0  0  0  0  0  0  0
  130.6180  120.5420   61.0120 N   0  0  0  0  0  0  0  0  0  0  0  0
  131.0830  121.6950   61.5510 C   0  0  0  0  0  0  0  0  0  0  0  0
  132.1840  121.8150   62.0900 O   0  0  0  0  0  0  0  0  0  0  0  0
  130.1740  122.8410   61.4550 C   0  0  0  0  0  0  0  0  0  0  0  0
  130.3490  124.2120   62.5530 S   0  0  0  0  0  0  0  0  0  0  0  0
  128.9960  125.0380   61.8140 C   0  0  0  0  0  0  0  0  0  0  0  0
  128.5870  126.2360   62.2340 N   0  0  0  0  0  0  0  0  0  0  0  0
  127.5270  126.7670   61.5770 C   0  0  0  0  0  0  0  0  0  0  0  0
  127.0790  128.1310   62.0710 C   0  0  0  0  0  0  0  0  0  0  0  0
  126.8730  126.1360   60.5220 C   0  0  0  0  0  0  0  0  0  0  0  0
  127.3060  124.8790   60.0850 C   0  0  0  0  0  0  0  0  0  0  0  0
  126.6000  124.2200   58.9610 C   0  0  0  0  0  0  0  0  0  0  0  0
  125.2490  123.8830   59.0820 C   0  0  0  0  0  0  0  0  0  0  0  0
  124.5840  123.2650   58.0250 C   0  0  0  0  0  0  0  0  0  0  0  0
  125.2740  122.9820   56.8480 C   0  0  0  0  0  0  0  0  0  0  0  0
  126.6210  123.3120   56.7200 C   0  0  0  0  0  0  0  0  0  0  0  0
  127.2840  123.9290   57.7770 C   0  0  0  0  0  0  0  0  0  0  0  0
  128.4150  124.2870   60.7480 C   0  0  0  0  0  0  0  0  0  0  0  0
  129.1070  123.0380   60.5650 C   0  0  0  0  0  0  0  0  0  0  0  0
  128.7420  122.1330   59.6010 N   0  0  0  0  0  0  0  0  0  0  0  0
  130.5470  118.0500   61.1230 C   0  0  0  0  0  0  0  0  0  0  0  0
  131.2410  116.8480   61.0140 C   0  0  0  0  0  0  0  0  0  0  0  0
  1  2  1  0
  2  3  1  0
  3  4  2  0
  3  5  1  0
  5  6  2  0
  6  7  1  0
  7  8  2  0
  8  9  1  0
  9 10  1  0
 10 11  2  0
 10 12  1  0
 12 13  1  0
 13 14  1  0
 14 15  2  0
 15 16  1  0
 16 17  1  0
 16 18  2  0
 18 19  1  0
 19 20  1  0
 20 21  2  0
 21 22  1  0
 22 23  2  0
 23 24  1  0
 24 25  2  0
 19 26  2  0
 26 27  1  0
 27 28  1  0
  8 29  1  0
 29 30  2  0
 30  5  1  0
 27 12  2  0
 26 14  1  0
 25 20  1  0
M  END
>  <Binding energies>  (64) 
[-8.45]

>  <Ligand effiencies>  (64) 
[-0.25606060606060604]

>  <Interactions>  (64) 
["V-B:ASP:366:CG:8184, V-B:PRO:540:CA:9855, V-B:ALA:541:CB:9864, V-B:PRO:540:CB:9857, V-B:LEU:363:CD1:8160, V-B:PRO:540:CG:9858, V-B:ILE:538:CB:9834, V-B:PRO:540:CD:9859, V-B:PRO:540:N:9856, V-A:LEU:475:CD2:4256, V-B:TYR:539:C:9839, V-B:TYR:539:CE1:9847, V-B:TYR:539:CD1:9845, H-B:TYR:539:O:9840, V-A:PRO:482:CG:4324, V-A:SER:385:CB:3406, V-A:PRO:482:CB:4323, V-A:SER:385:CA:3404, V-A:HIS:383:CG:3387, V-A:LEU:373:CD2:3278, V-A:HIS:383:CB:3386, V-A:LEU:373:CD1:3277, V-B:ILE:343:CD1:7965, V-A:HIS:383:CD2:3389, H-A:HIS:383:ND1:3388, V-A:LEU:373:CG:3276, H-A:SER:385:N:3405, H-A:SER:385:OG:3407"]

$$$$
8b_Ghoteimi_2023
     RDKit          3D

 34 38  0  0  0  0  0  0  0  0999 V2000
  124.2430  139.3090   60.6320 C   0  0  0  0  0  0  0  0  0  0  0  0
  124.2880  138.4220   61.7450 O   0  0  0  0  0  0  0  0  0  0  0  0
  125.0540  137.2750   61.6620 C   0  0  0  0  0  0  0  0  0  0  0  0
  124.3670  136.0800   61.4600 C   0  0  0  0  0  0  0  0  0  0  0  0
  125.0550  134.8750   61.3640 C   0  0  0  0  0  0  0  0  0  0  0  0
  126.4530  134.8330   61.4690 C   0  0  0  0  0  0  0  0  0  0  0  0
  127.1980  133.5400   61.3680 C   0  0  0  0  0  0  0  0  0  0  0  0
  128.2630  133.3700   60.4780 C   0  0  0  0  0  0  0  0  0  0  0  0
  128.9440  132.1510   60.4040 C   0  0  0  0  0  0  0  0  0  0  0  0
  130.0610  132.0020   59.4430 C   0  0  0  0  0  0  0  0  0  0  0  0
  131.3370  131.6610   59.8950 C   0  0  0  0  0  0  0  0  0  0  0  0
  132.3830  131.5110   58.9900 C   0  0  0  0  0  0  0  0  0  0  0  0
  132.1720  131.7010   57.6230 C   0  0  0  0  0  0  0  0  0  0  0  0
  133.2680  131.5290   56.7990 O   0  0  0  0  0  0  0  0  0  0  0  0
  134.3610  130.7390   57.2530 C   0  0  0  0  0  0  0  0  0  0  0  0
  130.8890  132.0470   57.1720 C   0  0  0  0  0  0  0  0  0  0  0  0
  129.8430  132.1960   58.0780 C   0  0  0  0  0  0  0  0  0  0  0  0
  128.5270  131.1000   61.2630 C   0  0  0  0  0  0  0  0  0  0  0  0
  128.9930  129.7510   61.4530 C   0  0  0  0  0  0  0  0  0  0  0  0
  130.0410  129.2290   60.7380 N   0  0  0  0  0  0  0  0  0  0  0  0
  128.2820  129.0350   62.4290 C   0  0  0  0  0  0  0  0  0  0  0  0
  128.4860  127.6570   62.8780 C   0  0  0  0  0  0  0  0  0  0  0  0
  127.5600  126.8430   62.8530 O   0  0  0  0  0  0  0  0  0  0  0  0
  129.7390  127.3650   63.3100 N   0  0  0  0  0  0  0  0  0  0  0  0
  130.2080  126.1470   63.7830 C   0  0  0  0  0  0  0  0  0  0  0  0
  130.4310  125.0450   62.9590 C   0  0  0  0  0  0  0  0  0  0  0  0
  130.8810  124.0540   63.8000 C   0  0  0  0  0  0  0  0  0  0  0  0
  130.9310  124.5340   65.0650 O   0  0  0  0  0  0  0  0  0  0  0  0
  130.5030  125.8630   65.0420 N   0  0  0  0  0  0  0  0  0  0  0  0
  127.0080  130.0260   63.1420 S   0  0  0  0  0  0  0  0  0  0  0  0
  127.4350  131.3870   62.1320 C   0  0  0  0  0  0  0  0  0  0  0  0
  126.7840  132.5480   62.2010 N   0  0  0  0  0  0  0  0  0  0  0  0
  127.1390  136.0380   61.6690 C   0  0  0  0  0  0  0  0  0  0  0  0
  126.4520  137.2460   61.7660 C   0  0  0  0  0  0  0  0  0  0  0  0
  1  2  1  0
  2  3  1  0
  3  4  2  0
  4  5  1  0
  5  6  2  0
  6  7  1  0
  7  8  2  0
  8  9  1  0
  9 10  1  0
 10 11  2  0
 11 12  1  0
 12 13  2  0
 13 14  1  0
 14 15  1  0
 13 16  1  0
 16 17  2  0
  9 18  2  0
 18 19  1  0
 19 20  1  0
 19 21  2  0
 21 22  1  0
 22 23  2  0
 22 24  1  0
 24 25  1  0
 25 26  1  0
 26 27  2  0
 27 28  1  0
 28 29  1  0
 21 30  1  0
 30 31  1  0
 31 32  2  0
  6 33  1  0
 33 34  2  0
 34  3  1  0
 32  7  1  0
 17 10  1  0
 31 18  1  0
 29 25  2  0
M  END
>  <Binding energies>  (65) 
[-7.78]

>  <Ligand effiencies>  (65) 
[-0.2102702702702703]

>  <Interactions>  (65) 
["V-A:ASP:366:CG:3210, V-A:TYR:531:CZ:4792, V-A:LEU:363:CA:3182, V-A:TYR:531:CE2:4791, V-A:PRO:540:CB:4883, V-A:PRO:540:CA:4881, V-A:ASP:366:CB:3209, V-A:LEU:363:CB:3184, H-A:TYR:531:OH:4793, V-A:LEU:363:CD1:3186, V-A:TYR:539:CE1:4873, V-B:GLU:543:CD:9880, V-A:TYR:539:CD1:4871, V-A:ALA:541:CB:4890, V-A:PRO:540:N:4882, V-A:TYR:539:C:4865, V-B:ILE:369:CG2:8208, V-B:PRO:482:CB:9297, V-B:SER:385:CA:8378, V-B:PRO:482:CG:9298, V-B:LEU:475:CD2:9230, V-B:SER:385:CB:8380, V-B:LEU:373:CD1:8251, H-A:ASP:366:OD2:3212, H-A:TYR:484:OH:4345, V-A:GLU:543:CD:4906, H-A:GLU:543:OE2:4908, H-A:GLU:543:OE1:4907, H-B:ARG:545:NH2:9900, V-B:HIS:383:CG:8361, V-B:VAL:384:C:8368, V-B:HIS:383:CB:8360, V-B:LEU:373:CD2:8252, V-B:SER:385:C:8376, H-B:SER:385:N:8379, V-A:LEU:363:C:3180, V-A:LEU:363:CG:3185"]

$$$$
9d_Ghoteimi_2023
     RDKit          3D

 38 43  0  0  0  0  0  0  0  0999 V2000
  128.2530  128.4630   67.3680 C   0  0  0  0  0  0  0  0  0  0  0  0
  128.6800  127.1260   67.1530 O   0  0  0  0  0  0  0  0  0  0  0  0
  129.9810  126.8460   66.8770 C   0  0  0  0  0  0  0  0  0  0  0  0
  130.9330  127.2770   67.5330 O   0  0  0  0  0  0  0  0  0  0  0  0
  130.1440  125.9680   65.6970 C   0  0  0  0  0  0  0  0  0  0  0  0
  130.8180  124.3500   65.8940 S   0  0  0  0  0  0  0  0  0  0  0  0
  130.6440  124.0270   64.1850 C   0  0  0  0  0  0  0  0  0  0  0  0
  130.9790  122.8500   63.6600 N   0  0  0  0  0  0  0  0  0  0  0  0
  130.7890  122.6930   62.3230 C   0  0  0  0  0  0  0  0  0  0  0  0
  131.1490  121.3550   61.7610 C   0  0  0  0  0  0  0  0  0  0  0  0
  130.2090  120.3200   61.7360 C   0  0  0  0  0  0  0  0  0  0  0  0
  130.5350  119.0700   61.2170 C   0  0  0  0  0  0  0  0  0  0  0  0
  131.8110  118.8130   60.6900 C   0  0  0  0  0  0  0  0  0  0  0  0
  132.1580  117.5570   60.1800 N   0  0  0  0  0  0  0  0  0  0  0  0
  132.8710  116.5630   61.0070 C   0  0  0  0  0  0  0  0  0  0  0  0
  133.4730  115.3950   60.1990 C   0  0  0  0  0  0  0  0  0  0  0  0
  132.4660  114.7770   59.4160 O   0  0  0  0  0  0  0  0  0  0  0  0
  131.8920  115.6890   58.4940 C   0  0  0  0  0  0  0  0  0  0  0  0
  131.2410  116.8680   59.2480 C   0  0  0  0  0  0  0  0  0  0  0  0
  132.7540  119.8510   60.7310 C   0  0  0  0  0  0  0  0  0  0  0  0
  132.4280  121.1000   61.2530 C   0  0  0  0  0  0  0  0  0  0  0  0
  130.2980  123.7210   61.5140 C   0  0  0  0  0  0  0  0  0  0  0  0
  129.9620  124.9660   62.0580 C   0  0  0  0  0  0  0  0  0  0  0  0
  129.4700  126.0340   61.1480 C   0  0  0  0  0  0  0  0  0  0  0  0
  130.3660  126.8100   60.4100 C   0  0  0  0  0  0  0  0  0  0  0  0
  129.8990  127.7960   59.5450 C   0  0  0  0  0  0  0  0  0  0  0  0
  128.5230  128.0210   59.3840 C   0  0  0  0  0  0  0  0  0  0  0  0
  128.0300  129.0100   58.5300 N   0  0  0  0  0  0  0  0  0  0  0  0
  126.8700  128.7030   57.6700 C   0  0  0  0  0  0  0  0  0  0  0  0
  126.1960  129.9630   57.0850 C   0  0  0  0  0  0  0  0  0  0  0  0
  127.1510  130.7460   56.3860 O   0  0  0  0  0  0  0  0  0  0  0  0
  128.2080  131.1670   57.2360 C   0  0  0  0  0  0  0  0  0  0  0  0
  128.9340  129.9360   57.8210 C   0  0  0  0  0  0  0  0  0  0  0  0
  127.6330  127.2360   60.1320 C   0  0  0  0  0  0  0  0  0  0  0  0
  128.1000  126.2520   60.9970 C   0  0  0  0  0  0  0  0  0  0  0  0
  130.1140  125.1380   63.4630 C   0  0  0  0  0  0  0  0  0  0  0  0
  129.8210  126.2250   64.3590 C   0  0  0  0  0  0  0  0  0  0  0  0
  129.2530  127.4010   63.9430 N   0  0  0  0  0  0  0  0  0  0  0  0
  1  2  1  0
  2  3  1  0
  3  4  2  0
  3  5  1  0
  5  6  1  0
  6  7  1  0
  7  8  2  0
  8  9  1  0
  9 10  1  0
 10 11  2  0
 11 12  1  0
 12 13  2  0
 13 14  1  0
 14 15  1  0
 15 16  1  0
 16 17  1  0
 17 18  1  0
 18 19  1  0
 13 20  1  0
 20 21  2  0
  9 22  2  0
 22 23  1  0
 23 24  1  0
 24 25  2  0
 25 26  1  0
 26 27  2  0
 27 28  1  0
 28 29  1  0
 29 30  1  0
 30 31  1  0
 31 32  1  0
 32 33  1  0
 27 34  1  0
 34 35  2  0
 23 36  2  0
 36 37  1  0
 37 38  1  0
 37  5  2  0
 36  7  1  0
 21 10  1  0
 35 24  1  0
 19 14  1  0
 33 28  1  0
M  END
>  <Binding energies>  (66) 
[-6.51]

>  <Ligand effiencies>  (66) 
[-0.16275]

>  <Interactions>  (66) 
["V-A:MET:535:CE:4833, H-A:TYR:539:OH:4876, V-A:TYR:539:CZ:4875, V-A:TYR:539:CE1:4873, V-B:ALA:541:CB:9864, V-A:LEU:475:CD2:4256, V-B:GLU:543:CD:9880, V-B:TYR:539:CE1:9847, V-B:TYR:539:CD1:9845, V-B:TYR:539:CG:9844, V-A:ILE:369:CG2:3234, H-A:TYR:484:OH:4345, V-A:TYR:484:CZ:4344, V-A:HIS:456:CE1:4066, V-A:GLU:543:CD:4906, H-A:GLU:543:OE2:4908, H-A:GLU:543:OE1:4907, V-B:HIS:456:CE1:9040, V-A:GLU:543:CB:4904, V-A:GLU:543:CG:4905, V-A:PRO:482:CG:4324, V-A:SER:385:CB:3406, V-A:PRO:482:CB:4323, V-A:SER:385:CA:3404, V-B:TYR:539:CB:9843, V-A:HIS:383:CG:3387, V-A:LEU:373:CD2:3278, V-B:GLU:543:CB:9878, V-B:GLU:543:CG:9879, V-A:HIS:383:CB:3386, V-A:LEU:373:CD1:3277, H-B:GLU:543:OE1:9881, H-B:GLU:543:OE2:9882, V-A:TYR:484:CE2:4343, V-A:VAL:384:C:3394, V-B:VAL:344:CG1:7972, V-B:ILE:343:CD1:7965, V-A:HIS:383:CD2:3389, H-A:HIS:383:ND1:3388"]

$$$$
RR10_Rahimova_2017
     RDKit          3D

 34 38  0  0  0  0  0  0  0  0999 V2000
  129.1260  132.4630   55.3870 C   0  0  0  0  0  0  0  0  0  0  0  0
  130.0170  132.6110   56.6330 C   0  0  1  0  0  0  0  0  0  0  0  0
  129.3000  132.1260   57.9150 C   0  0  0  0  0  0  0  0  0  0  0  0
  130.1990  132.3160   59.1570 C   0  0  0  0  0  0  0  0  0  0  0  0
  131.5530  131.5720   59.0190 C   0  0  1  0  0  0  0  0  0  0  0  0
  131.3520  130.1180   59.0430 N   0  0  0  0  0  0  0  0  0  0  0  0
  130.5030  129.4600   59.8550 C   0  0  0  0  0  0  0  0  0  0  0  0
  129.7740  130.0320   60.6690 O   0  0  0  0  0  0  0  0  0  0  0  0
  130.4840  127.9220   59.7410 C   0  0  1  0  0  0  0  0  0  0  0  0
  131.2590  127.4910   58.4680 C   0  0  0  0  0  0  0  0  0  0  0  0
  131.3220  125.9460   58.3990 C   0  0  0  0  0  0  0  0  0  0  0  0
  131.8580  125.3160   59.7050 C   0  0  0  0  0  0  0  0  0  0  0  0
  131.1060  125.8280   60.8830 N   0  0  0  0  0  0  0  0  0  0  0  0
  131.4280  124.9600   62.3930 S   0  0  0  0  0  0  0  0  0  0  0  0
  130.1390  124.6110   63.0020 O   0  0  0  0  0  0  0  0  0  0  0  0
  132.4210  125.7290   63.1530 O   0  0  0  0  0  0  0  0  0  0  0  0
  132.1940  123.4180   61.8900 C   0  0  0  0  0  0  0  0  0  0  0  0
  133.5840  123.3580   61.7500 C   0  0  0  0  0  0  0  0  0  0  0  0
  134.2420  122.1880   61.3590 C   0  0  0  0  0  0  0  0  0  0  0  0
  133.4380  121.0720   61.1150 C   0  0  0  0  0  0  0  0  0  0  0  0
  133.6950  119.7810   60.7190 N   0  0  0  0  0  0  0  0  0  0  0  0
  132.4910  119.1130   60.6380 C   0  0  0  0  0  0  0  0  0  0  0  0
  132.3640  117.6750   60.2270 C   0  0  0  0  0  0  0  0  0  0  0  0
  131.1390  117.1730   59.7650 C   0  0  0  0  0  0  0  0  0  0  0  0
  131.0210  115.8410   59.3800 C   0  0  0  0  0  0  0  0  0  0  0  0
  132.1290  115.0000   59.4550 C   0  0  0  0  0  0  0  0  0  0  0  0
  133.3530  115.4820   59.9100 C   0  0  0  0  0  0  0  0  0  0  0  0
  133.4690  116.8150   60.2960 C   0  0  0  0  0  0  0  0  0  0  0  0
  131.4770  119.8850   60.9610 N   0  0  0  0  0  0  0  0  0  0  0  0
  132.0300  121.1040   61.2570 C   0  0  0  0  0  0  0  0  0  0  0  0
  131.3980  122.2910   61.6540 C   0  0  0  0  0  0  0  0  0  0  0  0
  131.1340  127.3080   61.0050 C   0  0  0  0  0  0  0  0  0  0  0  0
  132.2520  132.0560   57.7200 C   0  0  0  0  0  0  0  0  0  0  0  0
  131.3590  131.8600   56.4740 C   0  0  0  0  0  0  0  0  0  0  0  0
  2  1  1  6
  2  3  1  0
  3  4  1  0
  4  5  1  0
  5  6  1  6
  6  7  1  0
  7  8  2  0
  9  7  1  1
  9 10  1  0
 10 11  1  0
 11 12  1  0
 12 13  1  0
 13 14  1  0
 14 15  2  0
 14 16  2  0
 14 17  1  0
 17 18  2  0
 18 19  1  0
 19 20  2  0
 20 21  1  0
 21 22  1  0
 22 23  1  0
 23 24  2  0
 24 25  1  0
 25 26  2  0
 26 27  1  0
 27 28  2  0
 22 29  2  0
 29 30  1  0
 30 31  2  0
 13 32  1  0
  5 33  1  0
 33 34  1  0
 34  2  1  0
 32  9  1  0
 31 17  1  0
 30 20  1  0
 28 23  1  0
M  END
>  <Binding energies>  (67) 
[-10.89]

>  <Ligand effiencies>  (67) 
[-0.3025]

>  <Interactions>  (67) 
["V-A:MET:535:CE:4833, V-A:TYR:539:CE2:4874, V-A:ASP:366:CG:3210, V-A:PRO:540:CB:4883, V-A:PRO:540:CA:4881, V-A:ASP:366:CB:3209, H-A:TYR:531:OH:4793, V-A:ILE:538:CA:4858, V-A:TYR:539:CE1:4873, V-A:TYR:539:CD2:4872, V-A:LEU:475:CD2:4256, V-B:TYR:539:CE1:9847, V-B:TYR:539:CD1:9845, V-A:TYR:539:CD1:4871, V-A:PRO:540:N:4882, V-A:TYR:539:C:4865, V-B:TYR:539:CG:9844, V-A:ILE:369:CD1:3236, V-A:ILE:369:CG1:3235, V-A:ILE:369:CG2:3234, V-A:PRO:540:CD:4885, H-A:ASP:366:OD2:3212, H-A:ARG:545:NH2:4926, V-A:PRO:482:CG:4324, V-A:SER:385:CB:3406, V-A:SER:385:CA:3404, V-B:TYR:539:CB:9843, V-A:HIS:383:CG:3387, V-A:LEU:373:CD2:3278, V-A:HIS:383:CB:3386, V-A:LEU:373:CD1:3277, V-A:VAL:384:C:3394, V-B:VAL:344:CG1:7972, V-A:SER:385:C:3402, V-A:HIS:383:CD2:3389, V-A:HIS:383:CE1:3391, H-A:SER:385:O:3403, H-A:VAL:384:O:3395"]

$$$$
RR12_Rahimova_2017
     RDKit          3D

 26 28  0  0  0  0  0  0  0  0999 V2000
  124.5490  123.1270   62.3530 C   0  0  0  0  0  0  0  0  0  0  0  0
  124.8470  123.6510   60.9420 C   0  0  0  0  0  0  0  0  0  0  0  0
  126.1900  124.3990   60.8600 C   0  0  0  0  0  0  0  0  0  0  0  0
  127.0540  123.8010   59.8450 N   0  0  0  0  0  0  0  0  0  0  0  0
  128.3440  123.3200   60.0110 C   0  0  0  0  0  0  0  0  0  0  0  0
  129.1100  123.3830   61.3210 C   0  0  0  0  0  0  0  0  0  0  0  0
  130.3940  122.5340   61.2910 C   0  0  0  0  0  0  0  0  0  0  0  0
  130.1080  121.0280   61.1420 C   0  0  0  0  0  0  0  0  0  0  0  0
  131.3100  120.1950   61.1510 N   0  0  0  0  0  0  0  0  0  0  0  0
  132.5240  120.5860   60.7200 C   0  0  0  0  0  0  0  0  0  0  0  0
  132.7480  121.7080   60.2620 O   0  0  0  0  0  0  0  0  0  0  0  0
  133.6390  119.5390   60.8380 C   0  0  0  0  0  0  0  0  0  0  0  0
  133.1010  118.3270   61.3680 O   0  0  0  0  0  0  0  0  0  0  0  0
  132.7100  117.3240   60.5020 C   0  0  0  0  0  0  0  0  0  0  0  0
  131.3590  117.3020   60.1470 C   0  0  0  0  0  0  0  0  0  0  0  0
  130.8720  116.3310   59.2770 C   0  0  0  0  0  0  0  0  0  0  0  0
  131.7390  115.3750   58.7560 C   0  0  0  0  0  0  0  0  0  0  0  0
  133.0890  115.3800   59.1010 C   0  0  0  0  0  0  0  0  0  0  0  0
  133.5750  116.3520   59.9730 C   0  0  0  0  0  0  0  0  0  0  0  0
  128.8550  122.8140   58.9150 N   0  0  0  0  0  0  0  0  0  0  0  0
  127.8660  122.9340   57.9790 C   0  0  0  0  0  0  0  0  0  0  0  0
  127.8730  122.5400   56.6320 C   0  0  0  0  0  0  0  0  0  0  0  0
  126.7230  122.7670   55.8750 C   0  0  0  0  0  0  0  0  0  0  0  0
  125.5950  123.3690   56.4330 C   0  0  0  0  0  0  0  0  0  0  0  0
  125.5570  123.7740   57.7690 C   0  0  0  0  0  0  0  0  0  0  0  0
  126.7120  123.5460   58.5290 C   0  0  0  0  0  0  0  0  0  0  0  0
  1  2  1  0
  2  3  1  0
  3  4  1  0
  4  5  1  0
  5  6  1  0
  6  7  1  0
  7  8  1  0
  8  9  1  0
  9 10  1  0
 10 11  2  0
 10 12  1  0
 12 13  1  0
 13 14  1  0
 14 15  2  0
 15 16  1  0
 16 17  2  0
 17 18  1  0
 18 19  2  0
  5 20  2  0
 20 21  1  0
 21 22  2  0
 22 23  1  0
 23 24  2  0
 24 25  1  0
 25 26  2  0
 26  4  1  0
 19 14  1  0
 26 21  1  0
M  END
>  <Binding energies>  (68) 
[-7.83]

>  <Ligand effiencies>  (68) 
[-0.29]

>  <Interactions>  (68) 
["V-B:PRO:540:CA:9855, V-B:ALA:541:CB:9864, V-B:PRO:540:CB:9857, V-B:ALA:541:C:9860, V-B:MET:535:CE:9807, V-B:ASN:362:CB:8147, V-B:ILE:538:CG2:9835, V-B:ILE:538:CB:9834, V-B:ILE:538:CA:9832, V-B:PRO:540:N:9856, V-A:LEU:475:CD2:4256, V-B:TYR:539:C:9839, V-B:TYR:539:CE1:9847, V-B:TYR:539:CD1:9845, V-B:PRO:540:C:9853, V-B:TYR:539:CG:9844, V-B:TYR:531:CE2:9765, V-A:ILE:369:CG2:3234, V-B:TYR:539:CA:9841, H-B:TYR:539:O:9840, V-B:ILE:538:C:9830, V-B:TYR:539:CD2:9846, V-A:PRO:482:CG:4324, V-A:SER:385:CB:3406, V-A:SER:385:CA:3404, V-B:TYR:539:CB:9843, V-A:HIS:383:CG:3387, V-A:LEU:373:CD2:3278, V-A:HIS:383:CB:3386, V-A:LEU:373:CD1:3277, V-A:VAL:384:C:3394, V-B:VAL:344:CG1:7972, V-A:SER:385:C:3402, V-A:HIS:383:CA:3384, V-B:ILE:343:CD1:7965, V-A:HIS:383:CD2:3389, V-A:HIS:383:CE1:3391, V-B:ASN:362:CG:8148"]

$$$$
RR13_Rahimova_2017
     RDKit          3D

 48 54  0  0  0  0  0  0  0  0999 V2000
  127.7050  123.3590   60.1370 Cl  0  0  0  0  0  0  0  0  0  0  0  0
  128.0920  123.3520   58.4490 C   0  0  0  0  0  0  0  0  0  0  0  0
  127.3110  122.5590   57.6060 C   0  0  0  0  0  0  0  0  0  0  0  0
  127.5850  122.4940   56.2420 C   0  0  0  0  0  0  0  0  0  0  0  0
  128.6480  123.2210   55.7130 C   0  0  0  0  0  0  0  0  0  0  0  0
  129.4320  124.0150   56.5480 C   0  0  0  0  0  0  0  0  0  0  0  0
  129.1640  124.1030   57.9230 C   0  0  0  0  0  0  0  0  0  0  0  0
  130.0630  124.9700   58.8320 C   0  0  1  0  0  0  0  0  0  0  0  0
  131.5490  124.7430   58.5150 C   0  0  0  0  0  0  0  0  0  0  0  0
  132.2020  125.1770   57.4590 N   0  0  0  0  0  0  0  0  0  0  0  0
  133.5040  124.7050   57.5950 N   0  0  0  0  0  0  0  0  0  0  0  0
  133.6190  123.9580   58.7510 N   0  0  0  0  0  0  0  0  0  0  0  0
  132.3940  123.9760   59.2880 N   0  0  0  0  0  0  0  0  0  0  0  0
  132.1360  123.3110   60.5600 C   0  0  0  0  0  0  0  0  0  0  0  0
  133.1300  122.1520   60.7670 C   0  0  0  0  0  0  0  0  0  0  0  0
  132.4300  120.8050   60.8610 C   0  0  0  0  0  0  0  0  0  0  0  0
  133.1140  119.6380   60.5130 C   0  0  0  0  0  0  0  0  0  0  0  0
  132.4700  118.4060   60.5920 C   0  0  0  0  0  0  0  0  0  0  0  0
  131.1440  118.3460   61.0180 C   0  0  0  0  0  0  0  0  0  0  0  0
  130.4570  119.5060   61.3650 C   0  0  0  0  0  0  0  0  0  0  0  0
  131.1000  120.7390   61.2860 C   0  0  0  0  0  0  0  0  0  0  0  0
  129.6970  126.4060   58.8270 N   0  0  0  0  0  0  0  0  0  0  0  0
  128.9090  126.7430   60.0270 C   0  0  0  0  0  0  0  0  0  0  0  0
  128.6380  128.2640   60.0960 C   0  0  0  0  0  0  0  0  0  0  0  0
  127.8630  128.7070   58.9250 N   0  0  0  0  0  0  0  0  0  0  0  0
  127.5090  130.1440   58.9900 C   0  0  1  0  0  0  0  0  0  0  0  0
  128.3460  131.0780   58.0870 C   0  0  0  0  0  0  0  0  0  0  0  0
  127.8940  131.2730   56.7750 C   0  0  0  0  0  0  0  0  0  0  0  0
  128.5770  132.1120   55.8950 C   0  0  0  0  0  0  0  0  0  0  0  0
  129.7310  132.7670   56.3160 C   0  0  0  0  0  0  0  0  0  0  0  0
  130.2050  132.5740   57.6100 C   0  0  0  0  0  0  0  0  0  0  0  0
  129.5310  131.7320   58.4980 C   0  0  0  0  0  0  0  0  0  0  0  0
  130.2390  131.5040   60.0620 Cl  0  0  0  0  0  0  0  0  0  0  0  0
  126.0170  130.4060   58.7760 C   0  0  0  0  0  0  0  0  0  0  0  0
  125.2960  129.9420   57.7810 N   0  0  0  0  0  0  0  0  0  0  0  0
  124.0040  130.4100   57.9950 N   0  0  0  0  0  0  0  0  0  0  0  0
  123.9560  131.1570   59.1540 N   0  0  0  0  0  0  0  0  0  0  0  0
  125.2060  131.1230   59.6310 N   0  0  0  0  0  0  0  0  0  0  0  0
  125.5390  131.8380   60.8590 C   0  0  0  0  0  0  0  0  0  0  0  0
  124.5410  132.9860   61.0990 C   0  0  0  0  0  0  0  0  0  0  0  0
  125.2380  134.3290   61.2490 C   0  0  0  0  0  0  0  0  0  0  0  0
  124.5240  135.5130   61.0430 C   0  0  0  0  0  0  0  0  0  0  0  0
  125.1610  136.7430   61.1870 C   0  0  0  0  0  0  0  0  0  0  0  0
  126.5100  136.7850   61.5360 C   0  0  0  0  0  0  0  0  0  0  0  0
  127.2270  135.6080   61.7430 C   0  0  0  0  0  0  0  0  0  0  0  0
  126.5910  134.3780   61.6000 C   0  0  0  0  0  0  0  0  0  0  0  0
  128.6570  128.3730   57.7280 C   0  0  0  0  0  0  0  0  0  0  0  0
  128.9160  126.8500   57.6590 C   0  0  0  0  0  0  0  0  0  0  0  0
  1  2  1  0
  2  3  2  0
  3  4  1  0
  4  5  2  0
  5  6  1  0
  6  7  2  0
  7  8  1  0
  8  9  1  0
  9 10  2  0
 10 11  1  0
 11 12  2  0
 12 13  1  0
 13 14  1  0
 14 15  1  0
 15 16  1  0
 16 17  2  0
 17 18  1  0
 18 19  2  0
 19 20  1  0
 20 21  2  0
  8 22  1  6
 22 23  1  0
 23 24  1  0
 24 25  1  0
 26 25  1  6
 26 27  1  0
 27 28  2  0
 28 29  1  0
 29 30  2  0
 30 31  1  0
 31 32  2  0
 32 33  1  0
 26 34  1  0
 34 35  2  0
 35 36  1  0
 36 37  2  0
 37 38  1  0
 38 39  1  0
 39 40  1  0
 40 41  1  0
 41 42  2  0
 42 43  1  0
 43 44  2  0
 44 45  1  0
 45 46  2  0
 25 47  1  0
 47 48  1  0
  7  2  1  0
 13  9  1  0
 21 16  1  0
 48 22  1  0
 32 27  1  0
 38 34  1  0
 46 41  1  0
M  END
>  <Binding energies>  (69) 
[-15.34]

>  <Ligand effiencies>  (69) 
[-0.31958333333333333]

>  <Interactions>  (69) 
["V-A:MET:535:CE:4833, V-A:TYR:539:CE2:4874, H-A:TYR:539:OH:4876, V-A:PRO:540:CA:4881, V-A:ILE:538:CA:4858, V-A:TYR:539:CZ:4875, V-A:TYR:539:CE1:4873, V-A:TYR:539:CD2:4872, V-B:PRO:540:CA:9855, V-B:ALA:541:CB:9864, V-B:MET:535:CE:9807, V-B:ILE:538:CB:9834, V-B:ILE:538:CA:9832, V-B:PRO:540:N:9856, V-A:LEU:475:CD2:4256, V-B:TYR:539:C:9839, V-B:TYR:539:CE1:9847, V-B:TYR:539:CD1:9845, V-A:TYR:539:CD1:4871, V-A:ALA:541:CB:4890, V-A:PRO:540:N:4882, V-A:TYR:539:C:4865, V-B:ILE:369:CG2:8208, V-B:TYR:539:CZ:9849, V-A:ILE:369:CG2:3234, H-B:TYR:539:OH:9850, V-B:PRO:482:CB:9297, V-B:SER:385:CA:8378, V-B:PRO:482:CG:9298, V-B:LEU:475:CD2:9230, V-B:SER:385:CB:8380, V-B:LEU:373:CD1:8251, V-A:ILE:538:C:4856, V-B:TYR:539:CE2:9848, V-B:TYR:539:CA:9841, V-B:ILE:538:C:9830, V-B:TYR:539:CD2:9846, V-A:PRO:482:CG:4324, V-A:SER:385:CB:3406, V-A:PRO:482:CB:4323, V-A:SER:385:CA:3404, V-A:LEU:373:CD1:3277"]

$$$$
RR14_Rahimova_2017
     RDKit          3D

 39 43  0  0  0  0  0  0  0  0999 V2000
  126.2630  138.8840   60.1190 C   0  0  0  0  0  0  0  0  0  0  0  0
  126.8010  137.9090   61.0070 O   0  0  0  0  0  0  0  0  0  0  0  0
  126.1120  136.7290   61.2070 C   0  0  0  0  0  0  0  0  0  0  0  0
  126.8760  135.6110   61.5450 C   0  0  0  0  0  0  0  0  0  0  0  0
  126.2720  134.3740   61.7420 C   0  0  0  0  0  0  0  0  0  0  0  0
  124.8890  134.2400   61.5960 C   0  0  0  0  0  0  0  0  0  0  0  0
  124.2320  132.8730   61.7460 C   0  0  0  0  0  0  0  0  0  0  0  0
  124.6500  131.9150   60.7230 N   0  0  0  0  0  0  0  0  0  0  0  0
  124.1250  131.9660   59.4940 N   0  0  0  0  0  0  0  0  0  0  0  0
  124.7140  130.9160   58.8170 N   0  0  0  0  0  0  0  0  0  0  0  0
  125.5890  130.2360   59.6570 N   0  0  0  0  0  0  0  0  0  0  0  0
  125.5290  130.8560   60.8120 C   0  0  0  0  0  0  0  0  0  0  0  0
  126.3000  130.4580   62.0630 C   0  0  0  0  0  0  0  0  0  0  0  0
  127.7530  130.6350   61.9080 N   0  0  0  0  0  0  0  0  0  0  0  0
  128.3550  129.5610   61.1080 C   0  0  0  0  0  0  0  0  0  0  0  0
  128.2970  128.1790   61.7960 C   0  0  0  0  0  0  0  0  0  0  0  0
  128.0930  127.0060   60.8130 C   0  0  0  0  0  0  0  0  0  0  0  0
  127.7710  125.7400   61.4800 N   0  0  0  0  0  0  0  0  0  0  0  0
  128.7230  124.6960   61.0800 C   0  0  0  0  0  0  0  0  0  0  0  0
  128.3810  123.3360   61.7240 C   0  0  0  0  0  0  0  0  0  0  0  0
  127.0340  122.9800   61.4300 O   0  0  0  0  0  0  0  0  0  0  0  0
  126.1030  123.9390   61.9190 C   0  0  0  0  0  0  0  0  0  0  0  0
  126.3760  125.3180   61.2790 C   0  0  0  0  0  0  0  0  0  0  0  0
  128.0420  131.9460   61.3090 C   0  0  0  0  0  0  0  0  0  0  0  0
  129.1640  131.9780   60.2740 C   0  0  0  0  0  0  0  0  0  0  0  0
  128.8900  132.0500   58.9480 C   0  0  0  0  0  0  0  0  0  0  0  0
  129.9550  132.0420   57.9240 C   0  0  0  0  0  0  0  0  0  0  0  0
  129.7090  132.1350   56.5440 C   0  0  0  0  0  0  0  0  0  0  0  0
  128.2950  132.2540   55.9920 C   0  0  0  0  0  0  0  0  0  0  0  0
  130.7900  132.1210   55.6580 C   0  0  0  0  0  0  0  0  0  0  0  0
  132.0970  132.0160   56.1310 C   0  0  0  0  0  0  0  0  0  0  0  0
  132.3520  131.9260   57.5030 C   0  0  0  0  0  0  0  0  0  0  0  0
  133.7920  131.8150   57.9890 C   0  0  0  0  0  0  0  0  0  0  0  0
  131.2740  131.9390   58.4020 C   0  0  0  0  0  0  0  0  0  0  0  0
  131.4840  131.8470   59.7940 N   0  0  0  0  0  0  0  0  0  0  0  0
  130.5390  131.8500   60.7670 C   0  0  0  0  0  0  0  0  0  0  0  0
  130.8630  131.7470   61.9510 O   0  0  0  0  0  0  0  0  0  0  0  0
  124.1120  135.3580   61.2870 C   0  0  0  0  0  0  0  0  0  0  0  0
  124.7180  136.5960   61.0890 C   0  0  0  0  0  0  0  0  0  0  0  0
  1  2  1  0
  2  3  1  0
  3  4  2  0
  4  5  1  0
  5  6  2  0
  6  7  1  0
  7  8  1  0
  8  9  1  0
  9 10  2  0
 10 11  1  0
 11 12  2  0
 12 13  1  0
 13 14  1  0
 14 15  1  0
 15 16  1  0
 16 17  1  0
 17 18  1  0
 18 19  1  0
 19 20  1  0
 20 21  1  0
 21 22  1  0
 22 23  1  0
 14 24  1  0
 24 25  1  0
 25 26  2  0
 26 27  1  0
 27 28  2  0
 28 29  1  0
 28 30  1  0
 30 31  2  0
 31 32  1  0
 32 33  1  0
 32 34  2  0
 34 35  1  0
 35 36  1  0
 36 37  2  0
  6 38  1  0
 38 39  2  0
 39  3  1  0
 12  8  1  0
 23 18  1  0
 36 25  1  0
 34 27  1  0
M  END
>  <Binding energies>  (70) 
[-11.17]

>  <Ligand effiencies>  (70) 
[-0.27925]

>  <Interactions>  (70) 
["V-A:MET:535:CE:4833, V-B:ASP:366:CG:8184, V-A:TYR:539:CE2:4874, V-A:LEU:363:CA:3182, V-A:TYR:531:CE2:4791, H-A:ALA:541:N:4889, H-A:TYR:539:OH:4876, V-A:PRO:540:CB:4883, V-A:PRO:540:CA:4881, V-A:LEU:363:CB:3184, V-A:ILE:538:CA:4858, V-A:LEU:363:CD1:3186, V-A:TYR:539:CZ:4875, V-A:TYR:539:CE1:4873, V-A:TYR:539:CD2:4872, V-B:ALA:541:CB:9864, V-B:GLU:543:CD:9880, V-A:PRO:540:C:4879, V-A:TYR:539:CD1:4871, V-B:ILE:369:CD1:8210, V-A:PRO:540:N:4882, V-A:TYR:539:CG:4870, V-B:ILE:369:CG2:8208, V-A:ILE:538:CB:4860, V-B:SER:385:CA:8378, V-B:PRO:482:CG:9298, V-B:LEU:475:CD2:9230, V-A:ILE:538:CG2:4861, V-B:SER:385:CB:8380, V-B:LEU:373:CD1:8251, H-A:ASP:366:OD2:3212, H-B:ALA:541:N:9863, V-A:PRO:540:CG:4884, V-B:SER:385:C:8376, V-A:VAL:344:CG1:2998, V-A:TYR:539:CB:4869"]

$$$$
RR15_Rahimova_2017
     RDKit          3D

 45 49  0  0  0  0  0  0  0  0999 V2000
  133.8860  122.9640   62.1290 C   0  0  0  0  0  0  0  0  0  0  0  0
  133.8360  122.6450   60.7420 O   0  0  0  0  0  0  0  0  0  0  0  0
  133.1840  123.4990   59.8700 C   0  0  0  0  0  0  0  0  0  0  0  0
  133.8430  124.2810   58.9080 C   0  0  0  0  0  0  0  0  0  0  0  0
  133.1260  125.1220   58.0610 C   0  0  0  0  0  0  0  0  0  0  0  0
  131.7330  125.2090   58.1510 C   0  0  0  0  0  0  0  0  0  0  0  0
  130.9590  126.1230   57.2410 C   0  0  0  0  0  0  0  0  0  0  0  0
  130.9010  125.9510   55.9270 N   0  0  0  0  0  0  0  0  0  0  0  0
  130.1160  126.9770   55.4420 N   0  0  0  0  0  0  0  0  0  0  0  0
  129.7510  127.6390   56.5410 N   0  0  0  0  0  0  0  0  0  0  0  0
  129.0350  128.9120   56.4760 C   0  0  0  0  0  0  0  0  0  0  0  0
  127.5020  128.8050   56.6700 C   0  0  0  0  0  0  0  0  0  0  0  0
  126.7990  128.6320   55.6710 O   0  0  0  0  0  0  0  0  0  0  0  0
  126.9720  128.8710   57.9300 N   0  0  0  0  0  0  0  0  0  0  0  0
  126.4260  127.6730   58.5970 C   0  0  0  0  0  0  0  0  0  0  0  0
  127.5100  126.6700   59.0490 C   0  0  0  0  0  0  0  0  0  0  0  0
  127.0490  125.1940   59.0970 C   0  0  0  0  0  0  0  0  0  0  0  0
  127.1340  124.5070   57.8040 N   0  0  0  0  0  0  0  0  0  0  0  0
  128.2430  123.5440   57.7220 C   0  0  0  0  0  0  0  0  0  0  0  0
  128.2360  122.7880   56.3760 C   0  0  0  0  0  0  0  0  0  0  0  0
  126.9700  122.1720   56.1660 O   0  0  0  0  0  0  0  0  0  0  0  0
  125.9040  123.1150   56.1410 C   0  0  0  0  0  0  0  0  0  0  0  0
  125.8460  123.8780   57.4820 C   0  0  0  0  0  0  0  0  0  0  0  0
  127.0710  130.0830   58.8000 C   0  0  2  0  0  0  0  0  0  0  0  0
  125.6980  130.7560   59.1140 C   0  0  0  0  0  0  0  0  0  0  0  0
  124.6970  130.4990   58.4460 O   0  0  0  0  0  0  0  0  0  0  0  0
  125.6860  131.5860   60.1720 N   0  0  0  0  0  0  0  0  0  0  0  0
  124.5030  132.2450   60.7140 C   0  0  0  0  0  0  0  0  0  0  0  0
  124.8860  133.2990   61.7680 C   0  0  2  0  0  0  0  0  0  0  0  0
  124.0540  134.5930   61.7410 C   0  0  0  0  0  0  0  0  0  0  0  0
  124.9350  135.5960   61.0350 C   0  0  0  0  0  0  0  0  0  0  0  0
  126.3150  135.1510   61.4870 C   0  0  0  0  0  0  0  0  0  0  0  0
  126.2130  133.7320   61.4360 O   0  0  0  0  0  0  0  0  0  0  0  0
  128.2060  130.9880   58.3360 C   0  0  0  0  0  0  0  0  0  0  0  0
  129.4050  130.9680   59.0590 C   0  0  0  0  0  0  0  0  0  0  0  0
  130.4750  131.7730   58.6810 C   0  0  0  0  0  0  0  0  0  0  0  0
  130.3550  132.6060   57.5730 C   0  0  0  0  0  0  0  0  0  0  0  0
  131.3950  133.3880   57.2040 F   0  0  0  0  0  0  0  0  0  0  0  0
  129.1710  132.6390   56.8400 C   0  0  0  0  0  0  0  0  0  0  0  0
  128.1010  131.8330   57.2190 C   0  0  0  0  0  0  0  0  0  0  0  0
  130.2830  127.1690   57.6760 N   0  0  0  0  0  0  0  0  0  0  0  0
  131.0770  124.4260   59.1100 C   0  0  0  0  0  0  0  0  0  0  0  0
  131.7870  123.5700   59.9690 C   0  0  0  0  0  0  0  0  0  0  0  0
  131.1850  122.7750   60.9290 O   0  0  0  0  0  0  0  0  0  0  0  0
  129.8390  122.3480   60.7460 C   0  0  0  0  0  0  0  0  0  0  0  0
  1  2  1  0
  2  3  1  0
  3  4  2  0
  4  5  1  0
  5  6  2  0
  6  7  1  0
  7  8  1  0
  8  9  2  0
  9 10  1  0
 10 11  1  0
 11 12  1  0
 12 13  2  0
 12 14  1  0
 14 15  1  0
 15 16  1  0
 16 17  1  0
 17 18  1  0
 18 19  1  0
 19 20  1  0
 20 21  1  0
 21 22  1  0
 22 23  1  0
 24 14  1  6
 24 25  1  0
 25 26  2  0
 25 27  1  0
 27 28  1  0
 29 28  1  6
 29 30  1  0
 30 31  1  0
 31 32  1  0
 32 33  1  0
 24 34  1  0
 34 35  2  0
 35 36  1  0
 36 37  2  0
 37 38  1  0
 37 39  1  0
 39 40  2  0
 10 41  1  0
  6 42  1  0
 42 43  2  0
 43 44  1  0
 44 45  1  0
 43  3  1  0
 41  7  2  0
 23 18  1  0
 33 29  1  0
 40 34  1  0
M  END
>  <Binding energies>  (71) 
[-10.16]

>  <Ligand effiencies>  (71) 
[-0.22086956521739132]

>  <Interactions>  (71) 
["V-A:MET:535:CE:4833, V-B:ASP:366:CG:8184, V-A:TYR:539:CE2:4874, V-A:ASP:366:CG:3210, H-A:TYR:539:OH:4876, V-A:PRO:540:CB:4883, V-A:PRO:540:CA:4881, V-A:ASP:366:CB:3209, H-A:TYR:531:OH:4793, V-A:ILE:538:CA:4858, V-A:TYR:539:CZ:4875, V-B:ASP:366:CB:8183, V-A:TYR:539:CE1:4873, V-A:TYR:539:CD2:4872, H-B:TYR:531:OH:9767, V-B:MET:535:CE:9807, V-A:ASP:366:CA:3207, V-B:ILE:538:CG2:9835, V-B:ILE:538:CB:9834, V-B:ILE:538:CA:9832, V-A:ASP:366:C:3205, V-B:TYR:539:CE1:9847, V-B:TYR:539:CD1:9845, V-A:TYR:539:CD1:4871, V-B:ILE:369:CD1:8210, V-A:PRO:540:N:4882, V-A:TYR:539:CA:4867, V-A:TYR:539:C:4865, V-A:TYR:539:CG:4870, V-B:ILE:369:CG2:8208, V-B:TYR:539:CG:9844, V-A:ILE:369:CB:3233, H-B:TYR:539:N:9842, V-B:TYR:539:CZ:9849, V-A:ILE:369:CD1:3236, V-A:ILE:369:CG2:3234, V-A:ILE:538:CB:4860, V-B:SER:385:CA:8378, V-A:PRO:540:CD:4885, V-B:LEU:475:CD2:9230, V-B:LEU:373:CD1:8251, V-A:ILE:538:C:4856, V-A:GLY:454:CA:4046, V-B:TYR:539:CE2:9848, V-A:PRO:540:CG:4884, V-B:TYR:539:CD2:9846, V-B:SER:385:C:8376"]

$$$$
RR17_Rahimova_2017
     RDKit          3D

 38 41  0  0  0  0  0  0  0  0999 V2000
  130.8800  115.1880   58.0170 C   0  0  0  0  0  0  0  0  0  0  0  0
  130.9860  114.6450   59.4450 C   0  0  0  0  0  0  0  0  0  0  0  0
  132.1700  115.1620   60.0450 O   0  0  0  0  0  0  0  0  0  0  0  0
  132.2540  116.5140   60.3220 C   0  0  0  0  0  0  0  0  0  0  0  0
  131.0700  117.1480   60.6960 C   0  0  0  0  0  0  0  0  0  0  0  0
  131.0560  118.5070   60.9930 C   0  0  0  0  0  0  0  0  0  0  0  0
  132.2330  119.2650   60.9190 C   0  0  0  0  0  0  0  0  0  0  0  0
  132.1870  120.7300   61.2460 C   0  0  0  0  0  0  0  0  0  0  0  0
  131.1570  121.2890   61.6340 O   0  0  0  0  0  0  0  0  0  0  0  0
  133.4950  121.5310   61.0610 C   0  0  0  0  0  0  0  0  0  0  0  0
  133.3030  123.2850   61.5400 S   0  0  0  0  0  0  0  0  0  0  0  0
  133.0290  124.0080   59.9470 C   0  0  0  0  0  0  0  0  0  0  0  0
  133.9640  124.2920   59.0710 N   0  0  0  0  0  0  0  0  0  0  0  0
  133.3470  124.8360   57.9510 N   0  0  0  0  0  0  0  0  0  0  0  0
  132.0600  124.8550   58.1910 C   0  0  0  0  0  0  0  0  0  0  0  0
  131.0070  125.3630   57.2170 C   0  0  0  0  0  0  0  0  0  0  0  0
  130.3060  124.3010   56.4990 N   0  0  0  0  0  0  0  0  0  0  0  0
  128.9390  124.0140   56.6700 C   0  0  0  0  0  0  0  0  0  0  0  0
  128.4450  122.8600   56.0630 C   0  0  0  0  0  0  0  0  0  0  0  0
  127.1010  122.5200   56.1870 C   0  0  0  0  0  0  0  0  0  0  0  0
  126.2350  123.3300   56.9270 C   0  0  0  0  0  0  0  0  0  0  0  0
  124.7610  122.9450   57.0490 C   0  0  0  0  0  0  0  0  0  0  0  0
  123.9560  123.8310   56.4560 F   0  0  0  0  0  0  0  0  0  0  0  0
  124.5430  121.7540   56.4900 F   0  0  0  0  0  0  0  0  0  0  0  0
  124.4320  122.8790   58.3390 F   0  0  0  0  0  0  0  0  0  0  0  0
  126.7310  124.4840   57.5440 C   0  0  0  0  0  0  0  0  0  0  0  0
  128.0740  124.8230   57.4200 C   0  0  0  0  0  0  0  0  0  0  0  0
  131.7900  124.3540   59.4480 N   0  0  0  0  0  0  0  0  0  0  0  0
  130.5380  124.2010   60.0620 C   0  0  0  0  0  0  0  0  0  0  0  0
  130.1090  125.1470   60.9920 C   0  0  0  0  0  0  0  0  0  0  0  0
  128.8680  124.9930   61.6040 C   0  0  0  0  0  0  0  0  0  0  0  0
  128.0530  123.8940   61.2870 C   0  0  0  0  0  0  0  0  0  0  0  0
  126.8100  123.6610   61.8430 O   0  0  0  0  0  0  0  0  0  0  0  0
  125.6750  123.5600   60.9890 C   0  0  0  0  0  0  0  0  0  0  0  0
  128.5010  122.9560   60.3540 C   0  0  0  0  0  0  0  0  0  0  0  0
  129.7400  123.1040   59.7380 C   0  0  0  0  0  0  0  0  0  0  0  0
  133.4240  118.6270   60.5430 C   0  0  0  0  0  0  0  0  0  0  0  0
  133.4360  117.2660   60.2480 C   0  0  0  0  0  0  0  0  0  0  0  0
  1  2  1  0
  2  3  1  0
  3  4  1  0
  4  5  2  0
  5  6  1  0
  6  7  2  0
  7  8  1  0
  8  9  2  0
  8 10  1  0
 10 11  1  0
 11 12  1  0
 12 13  2  0
 13 14  1  0
 14 15  2  0
 15 16  1  0
 16 17  1  0
 17 18  1  0
 18 19  2  0
 19 20  1  0
 20 21  2  0
 21 22  1  0
 22 23  1  0
 22 24  1  0
 22 25  1  0
 21 26  1  0
 26 27  2  0
 15 28  1  0
 28 29  1  0
 29 30  2  0
 30 31  1  0
 31 32  2  0
 32 33  1  0
 33 34  1  0
 32 35  1  0
 35 36  2  0
  7 37  1  0
 37 38  2  0
 38  4  1  0
 28 12  1  0
 36 29  1  0
 27 18  1  0
M  END
>  <Binding energies>  (72) 
[-9.59]

>  <Ligand effiencies>  (72) 
[-0.2458974358974359]

>  <Interactions>  (72) 
["V-B:PRO:540:CA:9855, V-B:LEU:363:CA:8156, V-B:PRO:540:CB:9857, V-B:LEU:363:CD1:8160, V-B:MET:535:CE:9807, V-B:PRO:540:CG:9858, V-B:ILE:538:CG1:9836, V-B:ILE:538:CG2:9835, V-B:ILE:538:CB:9834, V-B:ILE:538:CA:9832, V-B:ILE:538:CD1:9837, V-B:PRO:540:CD:9859, V-B:PRO:540:N:9856, V-A:LEU:475:CD2:4256, V-B:TYR:539:CE1:9847, V-B:TYR:539:CD1:9845, V-B:PRO:540:C:9853, V-B:TYR:539:CG:9844, V-B:TYR:539:CZ:9849, V-A:ILE:369:CD1:3236, V-B:TYR:531:CE2:9765, V-A:ILE:369:CG2:3234, H-B:TYR:539:OH:9850, V-B:TYR:531:CZ:9766, V-B:TYR:539:CE2:9848, H-B:ALA:541:N:9863, V-B:ILE:538:C:9830, V-B:TYR:539:CD2:9846, V-A:PRO:482:CG:4324, V-A:SER:385:CB:3406, V-A:PRO:482:CB:4323, V-A:SER:385:CA:3404, V-B:TYR:539:CB:9843, V-A:HIS:383:CG:3387, V-A:LEU:373:CD1:3277, V-A:VAL:384:C:3394, V-B:VAL:344:CG1:7972, V-B:ILE:343:CD1:7965, V-A:HIS:383:CD2:3389, V-A:HIS:383:CE1:3391, V-B:ILE:343:CG1:7964, V-B:TYR:531:CD2:9763"]

$$$$
RR19_Rahimova_2017
     RDKit          3D

 46 51  0  0  0  0  0  0  0  0999 V2000
  134.2320  123.0730   60.9570 O   0  0  0  0  0  0  0  0  0  0  0  0
  133.0080  122.9870   60.8230 C   0  0  0  0  0  0  0  0  0  0  0  0
  132.2610  123.6380   59.8950 N   0  0  0  0  0  0  0  0  0  0  0  0
  132.5830  124.3500   58.7660 C   0  0  0  0  0  0  0  0  0  0  0  0
  134.1140  124.4180   58.0470 S   0  0  0  0  0  0  0  0  0  0  0  0
  131.4570  124.9960   58.3180 N   0  0  0  0  0  0  0  0  0  0  0  0
  131.1840  125.7030   57.1930 C   0  0  0  0  0  0  0  0  0  0  0  0
  131.8890  125.7730   56.1830 O   0  0  0  0  0  0  0  0  0  0  0  0
  129.8520  126.4930   57.2550 C   0  0  2  0  0  0  0  0  0  0  0  0
  129.7580  127.5230   58.4180 C   0  0  0  0  0  0  0  0  0  0  0  0
  129.9060  126.9380   59.8140 C   0  0  0  0  0  0  0  0  0  0  0  0
  131.1090  127.0860   60.5370 C   0  0  0  0  0  0  0  0  0  0  0  0
  131.1990  126.6140   61.8400 C   0  0  0  0  0  0  0  0  0  0  0  0
  130.1030  126.0120   62.4450 C   0  0  0  0  0  0  0  0  0  0  0  0
  128.9030  125.8870   61.7560 C   0  0  0  0  0  0  0  0  0  0  0  0
  128.7910  126.3540   60.4530 C   0  0  0  0  0  0  0  0  0  0  0  0
  128.6790  125.5770   57.2390 N   0  0  0  0  0  0  0  0  0  0  0  0
  127.4420  126.0020   57.6250 C   0  0  0  0  0  0  0  0  0  0  0  0
  127.1340  127.1200   58.0440 O   0  0  0  0  0  0  0  0  0  0  0  0
  126.5440  124.8380   57.4290 C   0  0  0  0  0  0  0  0  0  0  0  0
  125.1760  124.6890   57.6620 C   0  0  0  0  0  0  0  0  0  0  0  0
  124.5780  123.4570   57.3740 C   0  0  0  0  0  0  0  0  0  0  0  0
  125.3450  122.4020   56.8620 C   0  0  0  0  0  0  0  0  0  0  0  0
  126.7160  122.5720   56.6350 C   0  0  0  0  0  0  0  0  0  0  0  0
  127.2930  123.8080   56.9300 C   0  0  0  0  0  0  0  0  0  0  0  0
  128.6910  124.2860   56.7910 C   0  0  0  0  0  0  0  0  0  0  0  0
  129.6530  123.6520   56.3550 O   0  0  0  0  0  0  0  0  0  0  0  0
  132.1940  122.0790   61.7830 C   0  0  2  0  0  0  0  0  0  0  0  0
  132.6600  122.1500   63.2650 C   0  0  0  0  0  0  0  0  0  0  0  0
  132.1470  123.3670   64.0150 C   0  0  0  0  0  0  0  0  0  0  0  0
  130.9250  123.3010   64.7180 C   0  0  0  0  0  0  0  0  0  0  0  0
  130.5080  124.3810   65.4860 C   0  0  0  0  0  0  0  0  0  0  0  0
  131.3010  125.5160   65.5890 C   0  0  0  0  0  0  0  0  0  0  0  0
  132.5260  125.5790   64.9340 C   0  0  0  0  0  0  0  0  0  0  0  0
  132.9600  124.5110   64.1600 C   0  0  0  0  0  0  0  0  0  0  0  0
  132.0850  120.6690   61.3120 N   0  0  0  0  0  0  0  0  0  0  0  0
  130.8770  120.0570   61.1530 C   0  0  0  0  0  0  0  0  0  0  0  0
  129.7640  120.5350   61.3760 O   0  0  0  0  0  0  0  0  0  0  0  0
  131.1890  118.6950   60.6540 C   0  0  0  0  0  0  0  0  0  0  0  0
  130.3510  117.6290   60.3230 C   0  0  0  0  0  0  0  0  0  0  0  0
  130.9300  116.4390   59.8670 C   0  0  0  0  0  0  0  0  0  0  0  0
  132.3220  116.3310   59.7460 C   0  0  0  0  0  0  0  0  0  0  0  0
  133.1450  117.4130   60.0810 C   0  0  0  0  0  0  0  0  0  0  0  0
  132.5480  118.5900   60.5360 C   0  0  0  0  0  0  0  0  0  0  0  0
  133.1430  119.8810   60.9570 C   0  0  0  0  0  0  0  0  0  0  0  0
  134.3370  120.1800   60.9800 O   0  0  0  0  0  0  0  0  0  0  0  0
  1  2  2  0
  2  3  1  0
  3  4  1  0
  4  5  2  0
  4  6  1  0
  6  7  1  0
  7  8  2  0
  7  9  1  0
  9 10  1  1
 10 11  1  0
 11 12  2  0
 12 13  1  0
 13 14  2  0
 14 15  1  0
 15 16  2  0
  9 17  1  0
 17 18  1  0
 18 19  2  0
 18 20  1  0
 20 21  2  0
 21 22  1  0
 22 23  2  0
 23 24  1  0
 24 25  2  0
 25 26  1  0
 26 27  2  0
  2 28  1  0
 28 29  1  1
 29 30  1  0
 30 31  2  0
 31 32  1  0
 32 33  2  0
 33 34  1  0
 34 35  2  0
 28 36  1  0
 36 37  1  0
 37 38  2  0
 37 39  1  0
 39 40  2  0
 40 41  1  0
 41 42  2  0
 42 43  1  0
 43 44  2  0
 44 45  1  0
 45 46  2  0
 16 11  1  0
 26 17  1  0
 35 30  1  0
 45 36  1  0
 25 20  1  0
 44 39  1  0
M  END
>  <Binding energies>  (73) 
[-11.84]

>  <Ligand effiencies>  (73) 
[-0.24666666666666667]

>  <Interactions>  (73) 
["V-B:ASP:366:CG:8184, V-A:ASP:366:CG:3210, V-A:ASP:366:CB:3209, H-A:TYR:531:OH:4793, V-B:ASP:366:CB:8183, H-B:TYR:531:OH:9767, V-B:PRO:540:CA:9855, V-B:PRO:540:CB:9857, V-B:LEU:363:CD1:8160, V-B:MET:535:CE:9807, V-A:ASP:366:CA:3207, V-B:PRO:540:CG:9858, V-B:ILE:538:CG2:9835, V-B:ILE:538:CB:9834, V-B:ILE:538:CA:9832, V-B:PRO:540:CD:9859, V-A:ASP:366:C:3205, V-B:PRO:540:N:9856, V-A:LEU:475:CD2:4256, V-B:GLU:543:CD:9880, V-B:TYR:539:C:9839, V-B:TYR:539:CE1:9847, V-B:TYR:539:CD1:9845, V-B:TYR:539:CG:9844, V-A:ILE:369:CB:3233, V-B:TYR:539:CZ:9849, V-B:TYR:531:CE2:9765, V-A:ILE:369:CG2:3234, H-B:TYR:539:OH:9850, V-A:GLY:454:CA:4046, V-B:TYR:531:CZ:9766, V-A:TYR:484:CZ:4344, V-A:ARG:545:CD:4921, V-A:HIS:456:CE1:4066, V-A:ARG:545:CZ:4924, H-B:ALA:541:N:9863, V-A:PRO:482:CG:4324, V-A:SER:385:CB:3406, V-A:PRO:482:CB:4323, V-A:SER:385:CA:3404, V-B:TYR:539:CB:9843, V-B:GLU:543:CB:9878, V-B:GLU:543:CG:9879, V-A:LEU:373:CD1:3277, V-A:TYR:484:CE2:4343, V-B:VAL:344:CG1:7972"]

$$$$
RR1_Rahimova_2017
     RDKit          3D

 41 44  0  0  0  0  0  0  0  0999 V2000
  127.3370  129.0500   74.8430 C   0  0  0  0  0  0  0  0  0  0  0  0
  128.5990  128.5080   74.4730 O   0  0  0  0  0  0  0  0  0  0  0  0
  128.8070  128.1150   73.1650 C   0  0  0  0  0  0  0  0  0  0  0  0
  130.0580  128.1150   72.5280 C   0  0  0  0  0  0  0  0  0  0  0  0
  130.1700  127.7080   71.2020 C   0  0  0  0  0  0  0  0  0  0  0  0
  129.0430  127.2890   70.4940 C   0  0  0  0  0  0  0  0  0  0  0  0
  129.2510  126.9400   69.1460 N   0  0  0  0  0  0  0  0  0  0  0  0
  129.1620  127.7100   68.0400 C   0  0  0  0  0  0  0  0  0  0  0  0
  128.7980  128.8860   68.0310 O   0  0  0  0  0  0  0  0  0  0  0  0
  129.5510  127.0000   66.7330 C   0  0  0  0  0  0  0  0  0  0  0  0
  130.4320  125.4120   66.9370 S   0  0  0  0  0  0  0  0  0  0  0  0
  130.8720  125.1630   65.2500 C   0  0  0  0  0  0  0  0  0  0  0  0
  131.7490  124.2820   64.8400 N   0  0  0  0  0  0  0  0  0  0  0  0
  131.7550  124.4300   63.5190 C   0  0  0  0  0  0  0  0  0  0  0  0
  132.6230  123.5950   62.6210 C   0  0  0  0  0  0  0  0  0  0  0  0
  133.0360  124.0580   61.3610 C   0  0  0  0  0  0  0  0  0  0  0  0
  133.8410  123.2580   60.5470 C   0  0  0  0  0  0  0  0  0  0  0  0
  134.2170  122.0000   61.0160 C   0  0  0  0  0  0  0  0  0  0  0  0
  133.8360  121.5210   62.2270 N   0  0  0  0  0  0  0  0  0  0  0  0
  133.0560  122.3150   63.0040 C   0  0  0  0  0  0  0  0  0  0  0  0
  130.9420  125.3570   63.0500 N   0  0  0  0  0  0  0  0  0  0  0  0
  130.3730  125.8320   64.1620 N   0  0  0  0  0  0  0  0  0  0  0  0
  129.3630  126.8880   64.0870 C   0  0  0  0  0  0  0  0  0  0  0  0
  129.2250  127.5600   62.7100 C   0  0  0  0  0  0  0  0  0  0  0  0
  128.2120  127.3920   62.0230 O   0  0  0  0  0  0  0  0  0  0  0  0
  130.2760  128.3170   62.3400 N   0  0  0  0  0  0  0  0  0  0  0  0
  130.1630  129.0700   61.1800 N   0  0  0  0  0  0  0  0  0  0  0  0
  130.6510  130.3300   61.1960 C   0  0  0  0  0  0  0  0  0  0  0  0
  131.2810  130.8160   62.1420 O   0  0  0  0  0  0  0  0  0  0  0  0
  130.4050  131.1450   59.9430 C   0  0  0  0  0  0  0  0  0  0  0  0
  129.1460  131.7110   59.7140 C   0  0  0  0  0  0  0  0  0  0  0  0
  128.8940  132.4520   58.5640 C   0  0  0  0  0  0  0  0  0  0  0  0
  129.8970  132.6450   57.6010 C   0  0  0  0  0  0  0  0  0  0  0  0
  129.7090  133.3590   56.4310 O   0  0  0  0  0  0  0  0  0  0  0  0
  128.9480  132.7860   55.3740 C   0  0  0  0  0  0  0  0  0  0  0  0
  131.1630  132.0800   57.8080 C   0  0  0  0  0  0  0  0  0  0  0  0
  132.1100  132.2830   56.8180 O   0  0  0  0  0  0  0  0  0  0  0  0
  133.3230  131.5390   56.8420 C   0  0  0  0  0  0  0  0  0  0  0  0
  131.4060  131.3390   58.9780 C   0  0  0  0  0  0  0  0  0  0  0  0
  127.7910  127.2860   71.1280 C   0  0  0  0  0  0  0  0  0  0  0  0
  127.6830  127.6930   72.4540 C   0  0  0  0  0  0  0  0  0  0  0  0
  1  2  1  0
  2  3  1  0
  3  4  2  0
  4  5  1  0
  5  6  2  0
  6  7  1  0
  7  8  1  0
  8  9  2  0
  8 10  1  0
 10 11  1  0
 11 12  1  0
 12 13  2  0
 13 14  1  0
 14 15  1  0
 15 16  2  0
 16 17  1  0
 17 18  2  0
 18 19  1  0
 19 20  2  0
 14 21  2  0
 21 22  1  0
 22 23  1  0
 23 24  1  0
 24 25  2  0
 24 26  1  0
 26 27  1  0
 27 28  1  0
 28 29  2  0
 28 30  1  0
 30 31  2  0
 31 32  1  0
 32 33  2  0
 33 34  1  0
 34 35  1  0
 33 36  1  0
 36 37  1  0
 37 38  1  0
 36 39  2  0
  6 40  1  0
 40 41  2  0
 41  3  1  0
 22 12  1  0
 39 30  1  0
 20 15  1  0
M  END
>  <Binding energies>  (74) 
[-9.05]

>  <Ligand effiencies>  (74) 
[-0.2056818181818182]

>  <Interactions>  (74) 
["V-A:MET:535:CE:4833, V-A:TYR:539:CE2:4874, V-A:TYR:531:CZ:4792, V-A:LEU:363:CA:3182, V-A:TYR:531:CE2:4791, V-A:PRO:540:CB:4883, V-A:PRO:540:CA:4881, V-A:ILE:538:CA:4858, V-A:LEU:363:CD1:3186, H-A:TYR:539:N:4868, V-A:TYR:539:CZ:4875, V-A:TYR:539:CE1:4873, V-A:TYR:539:CD2:4872, V-A:LEU:475:CD2:4256, V-B:GLU:543:CD:9880, V-A:TYR:539:CD1:4871, V-A:PRO:540:N:4882, V-A:TYR:539:C:4865, V-A:TYR:539:CG:4870, V-A:ILE:369:CB:3233, V-A:ILE:369:CD1:3236, V-A:ILE:369:CG1:3235, V-A:ILE:369:CG2:3234, V-A:ILE:538:C:4856, H-A:GLY:454:N:4047, V-A:GLY:454:CA:4046, H-A:TYR:484:OH:4345, H-A:ARG:545:NH2:4926, V-A:HIS:456:CE1:4066, V-A:GLU:543:CD:4906, H-A:GLU:543:OE2:4908, H-A:GLU:543:OE1:4907, V-B:HIS:456:CE1:9040, V-A:GLU:543:CG:4905, V-B:GLU:543:CG:9879, V-A:GLY:544:CA:4912, V-B:HIS:456:CG:9037, V-B:HIS:456:CD2:9039, V-B:HIS:456:CB:9036, V-B:GLY:544:C:9884, V-B:GLU:543:C:9874, V-B:GLY:544:CA:9886, V-A:GLU:543:C:4900, H-B:LYS:547:NZ:9923, V-A:LYS:547:CE:4948, V-A:GLY:544:C:4910, H-A:LYS:547:NZ:4949, H-B:HIS:456:NE2:9041, H-A:HIS:456:NE2:4067, H-B:GLU:543:O:9875"]

$$$$
RR22_Rahimova_2017
     RDKit          3D

 31 36  0  0  0  0  0  0  0  0999 V2000
  126.1130  122.8650   61.0270 O   0  0  0  0  0  0  0  0  0  0  0  0
  127.2890  123.1580   60.8220 C   0  0  0  0  0  0  0  0  0  0  0  0
  128.2820  123.3710   61.7630 N   0  0  0  0  0  0  0  0  0  0  0  0
  129.6250  123.6460   61.3540 C   0  0  1  0  0  0  0  0  0  0  0  0
  129.9640  124.8840   61.9850 O   0  0  0  0  0  0  0  0  0  0  0  0
  131.0480  124.9060   62.8630 C   0  0  0  0  0  0  0  0  0  0  0  0
  131.1270  125.9980   63.7280 C   0  0  0  0  0  0  0  0  0  0  0  0
  132.2050  126.1100   64.6060 C   0  0  0  0  0  0  0  0  0  0  0  0
  133.2050  125.1370   64.6120 C   0  0  0  0  0  0  0  0  0  0  0  0
  133.1270  124.0450   63.7460 C   0  0  0  0  0  0  0  0  0  0  0  0
  132.0400  123.9060   62.8780 C   0  0  0  0  0  0  0  0  0  0  0  0
  131.8840  122.7870   61.8730 C   0  0  1  0  0  0  0  0  0  0  0  0
  132.4110  121.3890   62.1240 C   0  0  0  0  0  0  0  0  0  0  0  0
  131.3940  120.5770   61.3160 C   0  0  0  0  0  0  0  0  0  0  0  0
  131.6420  119.1850   60.8890 C   0  0  0  0  0  0  0  0  0  0  0  0
  132.9520  118.7140   60.7170 C   0  0  0  0  0  0  0  0  0  0  0  0
  133.1800  117.4010   60.3160 C   0  0  0  0  0  0  0  0  0  0  0  0
  132.1020  116.5510   60.0850 C   0  0  0  0  0  0  0  0  0  0  0  0
  130.7960  117.0030   60.2520 C   0  0  0  0  0  0  0  0  0  0  0  0
  130.5660  118.3160   60.6540 C   0  0  0  0  0  0  0  0  0  0  0  0
  130.3300  121.2540   61.0980 N   0  0  0  0  0  0  0  0  0  0  0  0
  130.4880  122.5100   61.7090 N   0  0  0  0  0  0  0  0  0  0  0  0
  129.5790  123.9080   59.8550 C   0  0  0  0  0  0  0  0  0  0  0  0
  130.5790  124.5260   59.1840 C   0  0  0  0  0  0  0  0  0  0  0  0
  130.6720  124.8230   57.7410 C   0  0  0  0  0  0  0  0  0  0  0  0
  129.9920  124.0850   56.7610 C   0  0  0  0  0  0  0  0  0  0  0  0
  130.1280  124.4240   55.4140 C   0  0  0  0  0  0  0  0  0  0  0  0
  130.9530  125.4970   55.0780 C   0  0  0  0  0  0  0  0  0  0  0  0
  131.6290  126.2230   56.0030 N   0  0  0  0  0  0  0  0  0  0  0  0
  131.4820  125.8790   57.3090 C   0  0  0  0  0  0  0  0  0  0  0  0
  128.0290  123.3890   59.1770 S   0  0  0  0  0  0  0  0  0  0  0  0
  1  2  2  0
  2  3  1  0
  4  3  1  1
  4  5  1  0
  5  6  1  0
  6  7  2  0
  7  8  1  0
  8  9  2  0
  9 10  1  0
 10 11  2  0
 11 12  1  0
 12 13  1  1
 13 14  1  0
 14 15  1  0
 15 16  2  0
 16 17  1  0
 17 18  2  0
 18 19  1  0
 19 20  2  0
 14 21  2  0
 21 22  1  0
  4 23  1  0
 23 24  2  0
 24 25  1  0
 25 26  2  0
 26 27  1  0
 27 28  2  0
 28 29  1  0
 29 30  2  0
 23 31  1  0
 31  2  1  0
 22  4  1  0
 30 25  1  0
 11  6  1  0
 22 12  1  0
 20 15  1  0
M  END
>  <Binding energies>  (75) 
[-9.55]

>  <Ligand effiencies>  (75) 
[-0.2984375]

>  <Interactions>  (75) 
["H-A:TYR:531:OH:4793, V-B:PRO:540:CA:9855, V-B:ALA:541:CB:9864, V-B:MET:535:CE:9807, V-A:LEU:475:CD2:4256, V-B:TYR:539:C:9839, V-B:TYR:539:CE1:9847, V-B:TYR:539:CD1:9845, V-B:PRO:540:C:9853, V-B:TYR:539:CG:9844, V-B:TYR:539:CZ:9849, H-B:TYR:539:OH:9850, V-A:GLY:454:CA:4046, V-B:TYR:539:CE2:9848, V-A:ARG:545:CD:4921, V-A:ARG:545:CZ:4924, H-B:ALA:541:N:9863, V-A:TYR:531:CE1:4790, V-A:PRO:482:CG:4324, V-A:SER:385:CB:3406, V-A:PRO:482:CB:4323, V-A:SER:385:CA:3404, V-B:TYR:539:CB:9843, V-A:LEU:373:CD1:3277, H-B:GLU:543:OE1:9881, V-B:VAL:344:CG1:7972, V-A:ASN:370:CG:3243"]

$$$$
RR24_Rahimova_2017
     RDKit          3D

 43 49  0  0  0  0  0  0  0  0999 V2000
  131.0050  124.6700   58.2930 C   0  0  0  0  0  0  0  0  0  0  0  0
  130.3090  124.5220   56.9330 C   0  0  2  0  0  0  0  0  0  0  0  0
  130.5640  125.7250   55.9780 C   0  0  0  0  0  0  0  0  0  0  0  0
  131.6390  125.8800   55.3900 O   0  0  0  0  0  0  0  0  0  0  0  0
  129.4930  126.5690   55.9030 O   0  0  0  0  0  0  0  0  0  0  0  0
  129.4370  127.6710   56.7260 C   0  0  0  0  0  0  0  0  0  0  0  0
  128.5160  128.6840   56.4520 C   0  0  0  0  0  0  0  0  0  0  0  0
  128.4430  129.7980   57.2820 C   0  0  0  0  0  0  0  0  0  0  0  0
  129.2850  129.9020   58.3940 C   0  0  0  0  0  0  0  0  0  0  0  0
  129.2140  131.1410   59.2940 C   0  0  1  0  0  0  0  0  0  0  0  0
  127.8950  131.1950   60.1000 C   0  0  0  0  0  0  0  0  0  0  0  0
  127.8630  131.3790   61.4330 C   0  0  0  0  0  0  0  0  0  0  0  0
  129.0060  131.5320   62.1790 N   0  0  0  0  0  0  0  0  0  0  0  0
  130.2500  131.5020   61.5940 C   0  0  0  0  0  0  0  0  0  0  0  0
  131.2750  131.6770   62.4670 N   0  0  0  0  0  0  0  0  0  0  0  0
  132.5790  131.6000   62.0830 C   0  0  0  0  0  0  0  0  0  0  0  0
  133.4510  131.4470   62.9410 O   0  0  0  0  0  0  0  0  0  0  0  0
  132.7620  131.5380   60.7110 N   0  0  0  0  0  0  0  0  0  0  0  0
  134.1610  131.5440   60.2360 C   0  0  0  0  0  0  0  0  0  0  0  0
  131.7940  131.3580   59.7370 C   0  0  0  0  0  0  0  0  0  0  0  0
  132.0360  131.2590   58.5300 O   0  0  0  0  0  0  0  0  0  0  0  0
  130.4240  131.3170   60.2590 C   0  0  0  0  0  0  0  0  0  0  0  0
  126.4940  131.3860   61.9220 C   0  0  0  0  0  0  0  0  0  0  0  0
  125.9390  131.5330   63.1940 C   0  0  0  0  0  0  0  0  0  0  0  0
  124.5500  131.4920   63.3400 C   0  0  0  0  0  0  0  0  0  0  0  0
  123.7290  131.3070   62.2230 C   0  0  0  0  0  0  0  0  0  0  0  0
  124.2920  131.1610   60.9520 C   0  0  0  0  0  0  0  0  0  0  0  0
  125.6800  131.2010   60.8120 C   0  0  0  0  0  0  0  0  0  0  0  0
  126.5270  131.0780   59.6070 C   0  0  0  0  0  0  0  0  0  0  0  0
  126.2030  130.9130   58.4320 O   0  0  0  0  0  0  0  0  0  0  0  0
  130.1940  128.8770   58.6760 C   0  0  0  0  0  0  0  0  0  0  0  0
  130.2650  127.7610   57.8480 C   0  0  0  0  0  0  0  0  0  0  0  0
  128.8570  124.2080   57.0770 N   0  0  0  0  0  0  0  0  0  0  0  0
  128.2430  123.2900   56.2790 C   0  0  0  0  0  0  0  0  0  0  0  0
  128.7510  122.6290   55.3710 O   0  0  0  0  0  0  0  0  0  0  0  0
  126.8300  123.2550   56.7320 C   0  0  0  0  0  0  0  0  0  0  0  0
  125.7440  122.5040   56.2790 C   0  0  0  0  0  0  0  0  0  0  0  0
  124.5040  122.6760   56.9060 C   0  0  0  0  0  0  0  0  0  0  0  0
  124.3680  123.5830   57.9640 C   0  0  0  0  0  0  0  0  0  0  0  0
  125.4690  124.3260   58.4040 C   0  0  0  0  0  0  0  0  0  0  0  0
  126.6960  124.1420   57.7660 C   0  0  0  0  0  0  0  0  0  0  0  0
  128.0200  124.7690   58.0030 C   0  0  0  0  0  0  0  0  0  0  0  0
  128.3040  125.6110   58.8550 O   0  0  0  0  0  0  0  0  0  0  0  0
  2  1  1  1
  2  3  1  0
  3  4  2  0
  3  5  1  0
  5  6  1  0
  6  7  2  0
  7  8  1  0
  8  9  2  0
 10  9  1  1
 10 11  1  0
 11 12  2  0
 12 13  1  0
 13 14  1  0
 14 15  1  0
 15 16  1  0
 16 17  2  0
 16 18  1  0
 18 19  1  0
 18 20  1  0
 20 21  2  0
 20 22  1  0
 12 23  1  0
 23 24  2  0
 24 25  1  0
 25 26  2  0
 26 27  1  0
 27 28  2  0
 28 29  1  0
 29 30  2  0
  9 31  1  0
 31 32  2  0
  2 33  1  0
 33 34  1  0
 34 35  2  0
 34 36  1  0
 36 37  2  0
 37 38  1  0
 38 39  2  0
 39 40  1  0
 40 41  2  0
 41 42  1  0
 42 43  2  0
 32  6  1  0
 42 33  1  0
 22 10  1  0
 28 23  1  0
 41 36  1  0
 29 11  1  0
 22 14  2  0
M  END
>  <Binding energies>  (76) 
[-11.83]

>  <Ligand effiencies>  (76) 
[-0.2628888888888889]

>  <Interactions>  (76) 
["V-A:MET:535:CE:4833, V-A:ASP:366:CG:3210, V-A:LEU:363:CA:3182, H-A:TYR:539:OH:4876, V-A:PRO:540:CB:4883, V-A:PRO:540:CA:4881, H-A:TYR:531:OH:4793, V-A:TYR:539:CE1:4873, V-B:PRO:540:CA:9855, V-B:LEU:363:CA:8156, V-B:PRO:540:CB:9857, V-B:LEU:363:CD1:8160, V-B:MET:535:CE:9807, V-B:PRO:540:CG:9858, V-B:ILE:538:CG2:9835, V-B:ILE:538:CB:9834, V-B:ILE:538:CA:9832, V-B:PRO:540:CD:9859, V-B:PRO:540:N:9856, V-B:TYR:539:CE1:9847, V-B:ILE:369:CD1:8210, V-A:ALA:541:CB:4890, V-A:ASN:362:C:3169, H-B:TYR:539:N:9842, V-B:TYR:539:CZ:9849, H-B:TYR:539:OH:9850, V-B:GLY:454:CA:9020, H-A:ARG:545:NH2:4926, V-A:GLU:543:CD:4906, H-A:GLU:543:OE1:4907, V-A:ASN:362:CB:3173, H-A:ASN:370:ND2:3245, H-A:ALA:541:O:4887, V-A:ASN:362:CA:3171, V-A:ALA:541:C:4886, V-A:ALA:541:CA:4888, H-A:ASN:362:ND2:3176"]

$$$$
RR25_Rahimova_2017
     RDKit          3D

 39 44  0  0  0  0  0  0  0  0999 V2000
  133.3960  125.1220   56.2850 O   0  0  0  0  0  0  0  0  0  0  0  0
  132.9020  125.1450   57.4140 C   0  0  0  0  0  0  0  0  0  0  0  0
  133.5500  124.4090   58.3740 O   0  0  0  0  0  0  0  0  0  0  0  0
  133.2480  124.5480   59.7170 C   0  0  0  0  0  0  0  0  0  0  0  0
  134.2570  124.2270   60.6230 C   0  0  0  0  0  0  0  0  0  0  0  0
  134.0180  124.3360   61.9910 C   0  0  0  0  0  0  0  0  0  0  0  0
  132.7710  124.7620   62.4720 C   0  0  0  0  0  0  0  0  0  0  0  0
  132.5230  124.8860   63.9300 N   0  0  0  0  0  0  0  0  0  0  0  0
  133.4720  125.1340   64.6690 O   0  0  0  0  0  0  0  0  0  0  0  0
  131.3770  124.7350   64.3450 O   0  0  0  0  0  0  0  0  0  0  0  0
  131.7640  125.0690   61.5420 C   0  0  0  0  0  0  0  0  0  0  0  0
  131.9850  124.9570   60.1670 C   0  0  0  0  0  0  0  0  0  0  0  0
  130.9330  125.2870   59.1230 C   0  0  0  0  0  0  0  0  0  0  0  0
  131.6170  125.8970   57.8660 C   0  0  2  0  0  0  0  0  0  0  0  0
  130.5800  126.1570   56.7350 C   0  0  0  0  0  0  0  0  0  0  0  0
  130.4190  125.2390   55.9260 O   0  0  0  0  0  0  0  0  0  0  0  0
  129.7990  127.2780   56.7070 N   0  0  0  0  0  0  0  0  0  0  0  0
  130.1480  128.5160   57.4360 C   0  0  0  0  0  0  0  0  0  0  0  0
  128.8560  129.1630   57.9760 C   0  0  0  0  0  0  0  0  0  0  0  0
  127.8830  129.3900   56.9030 N   0  0  0  0  0  0  0  0  0  0  0  0
  126.7080  130.1250   57.3900 C   0  0  0  0  0  0  0  0  0  0  0  0
  125.8150  129.2770   58.3350 C   0  0  0  0  0  0  0  0  0  0  0  0
  125.7250  129.7460   59.7480 N   0  0  0  0  0  0  0  0  0  0  0  0
  126.4350  128.9980   60.6630 C   0  0  0  0  0  0  0  0  0  0  0  0
  127.0760  127.9860   60.3580 O   0  0  0  0  0  0  0  0  0  0  0  0
  126.3860  129.5260   62.0840 C   0  0  0  0  0  0  0  0  0  0  0  0
  127.0940  128.8580   63.0910 C   0  0  0  0  0  0  0  0  0  0  0  0
  127.0780  129.3200   64.4060 C   0  0  0  0  0  0  0  0  0  0  0  0
  126.3600  130.4620   64.7550 C   0  0  0  0  0  0  0  0  0  0  0  0
  125.6290  131.1700   63.7710 C   0  0  0  0  0  0  0  0  0  0  0  0
  124.8800  132.3370   64.0560 C   0  0  0  0  0  0  0  0  0  0  0  0
  124.1850  132.9880   63.0390 C   0  0  0  0  0  0  0  0  0  0  0  0
  124.2130  132.5070   61.7320 C   0  0  0  0  0  0  0  0  0  0  0  0
  124.9400  131.3560   61.4030 C   0  0  0  0  0  0  0  0  0  0  0  0
  125.6510  130.6880   62.4330 C   0  0  0  0  0  0  0  0  0  0  0  0
  124.9530  130.8690   59.9660 C   0  0  0  0  0  0  0  0  0  0  0  0
  124.3300  131.4510   59.0720 O   0  0  0  0  0  0  0  0  0  0  0  0
  127.5080  128.1130   56.2930 C   0  0  0  0  0  0  0  0  0  0  0  0
  128.7330  127.3890   55.6850 C   0  0  0  0  0  0  0  0  0  0  0  0
  1  2  2  0
  2  3  1  0
  3  4  1  0
  4  5  2  0
  5  6  1  0
  6  7  2  0
  7  8  1  0
  8  9  2  0
  8 10  1  0
  7 11  1  0
 11 12  2  0
 12 13  1  0
 13 14  1  0
 14 15  1  6
 15 16  2  0
 15 17  1  0
 17 18  1  0
 18 19  1  0
 19 20  1  0
 20 21  1  0
 21 22  1  0
 22 23  1  0
 23 24  1  0
 24 25  2  0
 24 26  1  0
 26 27  2  0
 27 28  1  0
 28 29  2  0
 29 30  1  0
 30 31  2  0
 31 32  1  0
 32 33  2  0
 33 34  1  0
 34 35  2  0
 34 36  1  0
 36 37  2  0
 20 38  1  0
 38 39  1  0
 14  2  1  0
 39 17  1  0
 12  4  1  0
 36 23  1  0
 35 26  1  0
 35 30  1  0
M  CHG  2   8   1  10  -1
M  END
>  <Binding energies>  (77) 
[-10.21]

>  <Ligand effiencies>  (77) 
[-0.2617948717948718]

>  <Interactions>  (77) 
["V-A:MET:535:CE:4833, V-B:ASP:366:CG:8184, V-A:ASP:366:CG:3210, H-A:TYR:539:OH:4876, V-A:ASP:366:CB:3209, V-A:TYR:539:CZ:4875, V-B:ASP:366:CB:8183, V-A:TYR:539:CE1:4873, V-B:MET:535:CE:9807, V-A:ASP:366:CA:3207, V-A:ASP:366:C:3205, V-B:ILE:369:CD1:8210, V-B:ILE:369:CG2:8208, V-B:TYR:539:CZ:9849, V-A:ILE:369:CD1:3236, V-A:ILE:369:CG2:3234, H-B:TYR:539:OH:9850, V-B:LEU:475:CD2:9230, V-B:GLY:454:CA:9020, H-A:GLY:454:N:4047, H-A:TYR:484:OH:4345, V-A:GLY:453:CA:4041, V-A:ARG:545:CZ:4924, V-A:GLU:543:CD:4906, H-A:ARG:545:NE:4922"]

$$$$
RR27_Rahimova_2017
     RDKit          3D

 39 44  0  0  0  0  0  0  0  0999 V2000
  129.3440  132.5750   60.7300 O   0  0  0  0  0  0  0  0  0  0  0  0
  128.1410  132.3710   60.9180 C   0  0  0  0  0  0  0  0  0  0  0  0
  127.4660  133.0270   62.1570 C   0  0  0  0  0  0  0  0  0  0  0  0
  126.7790  132.0060   63.0830 C   0  0  0  0  0  0  0  0  0  0  0  0
  125.4650  132.1870   63.5400 C   0  0  0  0  0  0  0  0  0  0  0  0
  124.8740  131.2430   64.3750 C   0  0  0  0  0  0  0  0  0  0  0  0
  125.5930  130.1150   64.7570 C   0  0  0  0  0  0  0  0  0  0  0  0
  126.8990  129.9220   64.3140 C   0  0  0  0  0  0  0  0  0  0  0  0
  127.4900  130.8670   63.4800 C   0  0  0  0  0  0  0  0  0  0  0  0
  126.5920  134.2330   61.7600 C   0  0  0  0  0  0  0  0  0  0  0  0
  125.2570  134.0770   61.3640 C   0  0  0  0  0  0  0  0  0  0  0  0
  124.4990  135.1880   61.0000 C   0  0  0  0  0  0  0  0  0  0  0  0
  125.0750  136.4550   61.0260 C   0  0  0  0  0  0  0  0  0  0  0  0
  126.4030  136.6230   61.4070 C   0  0  0  0  0  0  0  0  0  0  0  0
  127.1600  135.5130   61.7690 C   0  0  0  0  0  0  0  0  0  0  0  0
  127.3740  131.7190   59.9980 N   0  0  0  0  0  0  0  0  0  0  0  0
  126.0160  131.2290   60.2760 C   0  0  0  0  0  0  0  0  0  0  0  0
  126.1650  129.8120   60.8750 C   0  0  0  0  0  0  0  0  0  0  0  0
  126.9910  128.8540   59.9590 C   0  0  0  0  0  0  0  0  0  0  0  0
  127.2640  127.4630   60.5600 C   0  0  0  0  0  0  0  0  0  0  0  0
  128.2770  127.3850   61.4730 N   0  0  0  0  0  0  0  0  0  0  0  0
  128.5430  126.1830   62.0550 C   0  0  0  0  0  0  0  0  0  0  0  0
  129.5280  125.9800   62.9850 O   0  0  0  0  0  0  0  0  0  0  0  0
  127.7630  125.0680   61.6900 C   0  0  0  0  0  0  0  0  0  0  0  0
  127.7570  123.7580   62.0720 N   0  0  0  0  0  0  0  0  0  0  0  0
  126.7560  123.1270   61.3580 N   0  0  0  0  0  0  0  0  0  0  0  0
  126.1530  124.0330   60.5590 N   0  0  0  0  0  0  0  0  0  0  0  0
  125.0660  123.6300   59.6690 C   0  0  0  0  0  0  0  0  0  0  0  0
  125.4940  123.4630   58.2170 C   0  0  0  0  0  0  0  0  0  0  0  0
  124.5340  123.4080   57.2020 C   0  0  0  0  0  0  0  0  0  0  0  0
  124.9270  123.2660   55.8710 C   0  0  0  0  0  0  0  0  0  0  0  0
  126.2810  123.1840   55.5470 C   0  0  0  0  0  0  0  0  0  0  0  0
  127.2450  123.2480   56.5540 C   0  0  0  0  0  0  0  0  0  0  0  0
  128.9230  123.1740   56.1530 Cl  0  0  0  0  0  0  0  0  0  0  0  0
  126.8520  123.3820   57.8860 C   0  0  0  0  0  0  0  0  0  0  0  0
  126.7520  125.2700   60.7270 C   0  0  0  0  0  0  0  0  0  0  0  0
  126.4750  126.4350   60.1350 N   0  0  0  0  0  0  0  0  0  0  0  0
  128.2690  129.5460   59.3940 C   0  0  0  0  0  0  0  0  0  0  0  0
  128.0100  130.9880   58.8900 C   0  0  0  0  0  0  0  0  0  0  0  0
  1  2  2  0
  2  3  1  0
  3  4  1  0
  4  5  2  0
  5  6  1  0
  6  7  2  0
  7  8  1  0
  8  9  2  0
  3 10  1  0
 10 11  2  0
 11 12  1  0
 12 13  2  0
 13 14  1  0
 14 15  2  0
  2 16  1  0
 16 17  1  0
 17 18  1  0
 18 19  1  0
 19 20  1  0
 20 21  2  0
 21 22  1  0
 22 23  1  0
 22 24  2  0
 24 25  1  0
 25 26  2  0
 26 27  1  0
 27 28  1  0
 28 29  1  0
 29 30  2  0
 30 31  1  0
 31 32  2  0
 32 33  1  0
 33 34  1  0
 33 35  2  0
 27 36  1  0
 36 37  2  0
 19 38  1  0
 38 39  1  0
  9  4  1  0
 15 10  1  0
 39 16  1  0
 37 20  1  0
 36 24  1  0
 35 29  1  0
M  END
>  <Binding energies>  (78) 
[-10.82]

>  <Ligand effiencies>  (78) 
[-0.2705]

>  <Interactions>  (78) 
["V-B:ASP:366:CG:8184, H-A:ALA:541:N:4889, V-A:TYR:539:CE1:4873, V-B:PRO:540:CA:9855, V-B:PRO:540:CB:9857, V-B:LEU:363:CD1:8160, V-B:MET:535:CE:9807, V-B:ILE:538:CG2:9835, V-B:ILE:538:CB:9834, V-B:ILE:538:CA:9832, V-B:PRO:540:N:9856, V-B:GLU:543:CD:9880, V-B:TYR:539:CE1:9847, V-B:TYR:539:CD1:9845, V-A:TYR:539:CD1:4871, V-A:ALA:541:CB:4890, V-B:ILE:369:CG2:8208, V-B:TYR:539:CZ:9849, V-B:TYR:531:CE2:9765, V-B:ARG:545:CZ:9898, V-B:SER:385:CA:8378, V-B:PRO:482:CG:9298, V-B:LEU:475:CD2:9230, V-B:LEU:373:CD1:8251, V-B:GLY:454:CA:9020, V-B:TYR:531:CZ:9766, V-B:TYR:539:CE2:9848, H-B:ALA:541:N:9863, V-A:GLU:543:CD:4906, H-B:ARG:545:NH2:9900, V-B:TYR:539:CD2:9846, H-B:GLU:543:OE1:9881, H-B:GLU:543:OE2:9882"]

$$$$
RR28_Rahimova_2017
     RDKit          3D

 46 49  0  0  0  0  0  0  0  0999 V2000
  130.7030  122.6870   64.6520 C   0  0  0  0  0  0  0  0  0  0  0  0
  130.6730  122.3700   63.1610 C   0  0  0  0  0  0  0  0  0  0  0  0
  129.5980  122.3570   62.5640 O   0  0  0  0  0  0  0  0  0  0  0  0
  131.8640  122.1180   62.5800 N   0  0  0  0  0  0  0  0  0  0  0  0
  132.1380  121.7780   61.1650 C   0  0  0  0  0  0  0  0  0  0  0  0
  132.0340  120.2340   61.0080 C   0  0  0  0  0  0  0  0  0  0  0  0
  133.1840  119.4960   60.6850 C   0  0  0  0  0  0  0  0  0  0  0  0
  133.1270  118.1140   60.5320 C   0  0  0  0  0  0  0  0  0  0  0  0
  131.9180  117.4370   60.6970 C   0  0  0  0  0  0  0  0  0  0  0  0
  131.8750  115.9200   60.5210 C   0  0  0  0  0  0  0  0  0  0  0  0
  131.7130  115.2790   61.6810 F   0  0  0  0  0  0  0  0  0  0  0  0
  130.8690  115.5760   59.7170 F   0  0  0  0  0  0  0  0  0  0  0  0
  133.0200  115.5090   59.9750 F   0  0  0  0  0  0  0  0  0  0  0  0
  130.7660  118.1600   61.0180 C   0  0  0  0  0  0  0  0  0  0  0  0
  130.8240  119.5430   61.1700 C   0  0  0  0  0  0  0  0  0  0  0  0
  133.5230  122.3670   60.7160 C   0  0  0  0  0  0  0  0  0  0  0  0
  133.5540  123.9160   60.6970 C   0  0  0  0  0  0  0  0  0  0  0  0
  132.4930  124.3430   59.7700 N   0  0  0  0  0  0  0  0  0  0  0  0
  132.7800  124.5870   58.4620 C   0  0  0  0  0  0  0  0  0  0  0  0
  133.9390  124.6280   58.0440 O   0  0  0  0  0  0  0  0  0  0  0  0
  131.6300  124.9860   57.5060 C   0  0  0  0  0  0  0  0  0  0  0  0
  130.4610  125.7850   58.1460 C   0  0  0  0  0  0  0  0  0  0  0  0
  130.1520  127.1440   57.4770 C   0  0  0  0  0  0  0  0  0  0  0  0
  130.4950  127.3020   56.3020 O   0  0  0  0  0  0  0  0  0  0  0  0
  129.3990  128.0680   58.1390 N   0  0  0  0  0  0  0  0  0  0  0  0
  129.2370  128.0810   59.5980 C   0  0  0  0  0  0  0  0  0  0  0  0
  130.4420  128.8600   60.1690 C   0  0  0  0  0  0  0  0  0  0  0  0
  130.6090  130.3150   59.6060 C   0  0  0  0  0  0  0  0  0  0  0  0
  131.9750  130.7950   59.9030 N   0  0  0  0  0  0  0  0  0  0  0  0
  132.3980  131.4840   60.9810 C   0  0  0  0  0  0  0  0  0  0  0  0
  133.8760  131.8630   61.0040 C   0  0  0  0  0  0  0  0  0  0  0  0
  131.6720  131.8130   61.9180 O   0  0  0  0  0  0  0  0  0  0  0  0
  129.6080  131.2340   60.3790 C   0  0  0  0  0  0  0  0  0  0  0  0
  128.9610  130.8320   61.5590 C   0  0  0  0  0  0  0  0  0  0  0  0
  128.0770  131.6820   62.2180 C   0  0  0  0  0  0  0  0  0  0  0  0
  127.8130  132.9560   61.7100 C   0  0  0  0  0  0  0  0  0  0  0  0
  126.8480  133.9020   62.4240 C   0  0  0  0  0  0  0  0  0  0  0  0
  125.6490  133.8780   61.8390 F   0  0  0  0  0  0  0  0  0  0  0  0
  126.7120  133.5140   63.6910 F   0  0  0  0  0  0  0  0  0  0  0  0
  127.2830  135.1640   62.4170 F   0  0  0  0  0  0  0  0  0  0  0  0
  128.4410  133.3670   60.5340 C   0  0  0  0  0  0  0  0  0  0  0  0
  129.3250  132.5150   59.8780 C   0  0  0  0  0  0  0  0  0  0  0  0
  130.3580  130.2950   58.0480 C   0  0  0  0  0  0  0  0  0  0  0  0
  129.1880  129.4000   57.5580 C   0  0  0  0  0  0  0  0  0  0  0  0
  131.1410  123.9990   60.2340 C   0  0  0  0  0  0  0  0  0  0  0  0
  131.0510  122.4510   60.2660 C   0  0  0  0  0  0  0  0  0  0  0  0
  1  2  1  0
  2  3  2  0
  2  4  1  0
  4  5  1  0
  5  6  1  0
  6  7  2  0
  7  8  1  0
  8  9  2  0
  9 10  1  0
 10 11  1  0
 10 12  1  0
 10 13  1  0
  9 14  1  0
 14 15  2  0
  5 16  1  0
 16 17  1  0
 17 18  1  0
 18 19  1  0
 19 20  2  0
 19 21  1  0
 21 22  1  0
 22 23  1  0
 23 24  2  0
 23 25  1  0
 25 26  1  0
 26 27  1  0
 27 28  1  0
 28 29  1  0
 29 30  1  0
 30 31  1  0
 30 32  2  0
 28 33  1  0
 33 34  2  0
 34 35  1  0
 35 36  2  0
 36 37  1  0
 37 38  1  0
 37 39  1  0
 37 40  1  0
 36 41  1  0
 41 42  2  0
 28 43  1  0
 43 44  1  0
 18 45  1  0
 45 46  1  0
 46  5  1  0
 15  6  1  0
 44 25  1  0
 42 33  1  0
M  END
>  <Binding energies>  (79) 
[-10.4]

>  <Ligand effiencies>  (79) 
[-0.21666666666666667]

>  <Interactions>  (79) 
["V-A:ASP:366:CG:3210, H-A:ALA:541:N:4889, V-A:PRO:540:CB:4883, V-A:PRO:540:CA:4881, V-A:ASP:366:CB:3209, H-A:TYR:531:OH:4793, V-A:TYR:539:CE1:4873, V-B:ALA:541:CB:9864, V-A:LEU:475:CD2:4256, V-B:TYR:539:CE1:9847, V-B:TYR:539:CD1:9845, V-A:TYR:539:CD1:4871, V-A:ALA:541:CB:4890, V-A:PRO:540:N:4882, V-A:ASN:362:C:3169, V-A:TYR:539:C:4865, V-B:TYR:539:CZ:9849, V-A:ILE:369:CD1:3236, V-A:ILE:369:CG2:3234, H-B:TYR:539:OH:9850, V-B:LEU:475:CD2:9230, H-A:ASP:366:OD2:3212, V-A:TYR:484:CZ:4344, V-A:ASN:362:CB:3173, V-A:PRO:482:CG:4324, V-A:SER:385:CB:3406, V-A:PRO:482:CB:4323, V-A:SER:385:CA:3404, V-A:HIS:383:CG:3387, V-B:GLU:543:CB:9878, V-A:HIS:383:CB:3386, V-A:LEU:373:CD1:3277, V-A:TYR:484:CE2:4343, V-B:VAL:344:CG1:7972, V-A:ASN:362:CA:3171, V-B:LEU:475:CG:9228"]

$$$$
RR29_Rahimova_2017
     RDKit          3D

 18 19  0  0  0  0  0  0  0  0999 V2000
  123.1620  130.7570   62.1420 C   0  0  0  0  0  0  0  0  0  0  0  0
  124.1600  131.3910   63.0990 C   0  0  0  0  0  0  0  0  0  0  0  0
  124.3030  132.9160   62.8990 C   0  0  0  0  0  0  0  0  0  0  0  0
  124.9890  133.2540   61.5590 C   0  0  0  0  0  0  0  0  0  0  0  0
  125.4170  134.7110   61.4800 C   0  0  0  0  0  0  0  0  0  0  0  0
  126.7590  135.0650   61.7210 C   0  0  0  0  0  0  0  0  0  0  0  0
  127.1750  136.4020   61.6530 C   0  0  0  0  0  0  0  0  0  0  0  0
  126.2130  137.3590   61.3520 C   0  0  0  0  0  0  0  0  0  0  0  0
  124.9090  137.0230   61.1200 C   0  0  0  0  0  0  0  0  0  0  0  0
  124.4700  135.7040   61.1710 C   0  0  0  0  0  0  0  0  0  0  0  0
  124.2020  138.1440   60.8190 O   0  0  0  0  0  0  0  0  0  0  0  0
  125.0650  139.2180   61.0810 C   0  0  0  0  0  0  0  0  0  0  0  0
  126.3640  138.7020   61.2030 O   0  0  0  0  0  0  0  0  0  0  0  0
  124.7700  130.6380   63.9380 N   0  0  0  0  0  0  0  0  0  0  0  0
  125.7360  131.1950   64.7470 N   0  0  0  0  0  0  0  0  0  0  0  0
  127.0420  130.8890   64.6780 C   0  0  0  0  0  0  0  0  0  0  0  0
  127.5790  130.0280   63.8120 N   0  0  0  0  0  0  0  0  0  0  0  0
  127.8610  131.4870   65.5300 N   0  0  0  0  0  0  0  0  0  0  0  0
  1  2  1  0
  2  3  1  0
  3  4  1  0
  4  5  1  0
  5  6  2  0
  6  7  1  0
  7  8  2  0
  8  9  1  0
  9 10  2  0
  9 11  1  0
 11 12  1  0
 12 13  1  0
  2 14  2  0
 14 15  1  0
 15 16  1  0
 16 17  1  0
 16 18  2  0
 10  5  1  0
 13  8  1  0
M  CHG  1  18   1
M  END
>  <Binding energies>  (80) 
[-7.68]

>  <Ligand effiencies>  (80) 
[-0.33391304347826084]

>  <Interactions>  (80) 
["V-A:TYR:539:CE1:4873, V-A:TYR:539:CD1:4871, V-B:ILE:369:CD1:8210, V-B:ILE:369:CG2:8208, V-B:PRO:482:CB:9297, V-B:SER:385:CA:8378, V-B:PRO:482:CG:9298, V-B:LEU:475:CD2:9230, V-B:SER:385:CB:8380, V-B:LEU:373:CD1:8251, V-B:GLY:453:CA:9015, V-B:GLY:453:C:9013, V-B:GLY:454:CA:9020, H-B:TYR:484:OH:9319, H-B:GLY:454:N:9021, V-A:GLU:543:CD:4906, H-A:GLU:543:OE2:4908, H-A:GLU:543:OE1:4907, V-A:GLU:543:CB:4904, V-B:TYR:484:CZ:9318, V-B:TYR:484:CE2:9317, V-A:GLU:543:CG:4905, H-B:GLU:543:OE2:9882"]

$$$$
RR30_Rahimova_2017
     RDKit          3D

 18 19  0  0  0  0  0  0  0  0999 V2000
  125.9870  138.8540   60.0070 C   0  0  0  0  0  0  0  0  0  0  0  0
  125.3650  137.8960   61.0340 C   0  0  0  0  0  0  0  0  0  0  0  0
  126.2630  136.7170   61.3350 C   0  0  0  0  0  0  0  0  0  0  0  0
  127.5070  136.7290   61.7440 N   0  0  0  0  0  0  0  0  0  0  0  0
  127.8840  135.3940   61.8640 N   0  0  0  0  0  0  0  0  0  0  0  0
  126.8390  134.6900   61.5090 C   0  0  0  0  0  0  0  0  0  0  0  0
  126.6900  132.9330   61.4650 S   0  0  0  0  0  0  0  0  0  0  0  0
  128.3180  132.4650   62.1310 C   0  0  0  0  0  0  0  0  0  0  0  0
  129.3990  132.4290   61.0470 C   0  0  0  0  0  0  0  0  0  0  0  0
  130.5750  132.2650   61.3750 O   0  0  0  0  0  0  0  0  0  0  0  0
  128.9690  132.6190   59.7790 N   0  0  0  0  0  0  0  0  0  0  0  0
  129.7560  132.6320   58.6370 C   0  0  0  0  0  0  0  0  0  0  0  0
  129.5130  133.2240   57.4890 N   0  0  0  0  0  0  0  0  0  0  0  0
  130.5300  133.0200   56.5640 N   0  0  0  0  0  0  0  0  0  0  0  0
  131.5150  132.2850   57.0270 C   0  0  0  0  0  0  0  0  0  0  0  0
  132.7330  131.9220   56.2090 C   0  0  0  0  0  0  0  0  0  0  0  0
  131.2650  131.7750   58.6750 S   0  0  0  0  0  0  0  0  0  0  0  0
  125.7750  135.4620   61.1660 O   0  0  0  0  0  0  0  0  0  0  0  0
  1  2  1  0
  2  3  1  0
  3  4  2  0
  4  5  1  0
  5  6  2  0
  6  7  1  0
  7  8  1  0
  8  9  1  0
  9 10  2  0
  9 11  1  0
 11 12  1  0
 12 13  2  0
 13 14  1  0
 14 15  2  0
 15 16  1  0
 15 17  1  0
  6 18  1  0
 18  3  1  0
 17 12  1  0
M  END
>  <Binding energies>  (81) 
[-7.36]

>  <Ligand effiencies>  (81) 
[-0.3873684210526316]

>  <Interactions>  (81) 
["V-A:TYR:531:CZ:4792, V-A:TYR:531:CE2:4791, H-A:ALA:541:N:4889, V-A:PRO:540:CB:4883, V-A:PRO:540:CA:4881, V-A:LEU:363:CD1:3186, H-A:TYR:539:N:4868, V-A:TYR:539:CE1:4873, V-A:TYR:539:CD1:4871, V-A:ALA:541:CB:4890, V-A:PRO:540:N:4882, V-A:TYR:539:C:4865, V-A:ILE:538:CB:4860, V-A:PRO:540:CD:4885, V-B:LEU:475:CD2:9230, V-A:ILE:538:CG2:4861, V-B:SER:385:CB:8380, V-B:LEU:373:CD1:8251, H-A:TYR:539:O:4866, V-A:TYR:539:CB:4869"]

$$$$
RR31_Rahimova_2017
     RDKit          3D

 18 19  0  0  0  0  0  0  0  0999 V2000
  131.4340  114.9310   59.0930 C   0  0  0  0  0  0  0  0  0  0  0  0
  131.5600  116.3220   59.7000 C   0  0  0  0  0  0  0  0  0  0  0  0
  130.4090  117.0860   59.8970 C   0  0  0  0  0  0  0  0  0  0  0  0
  130.4900  118.3610   60.4530 C   0  0  0  0  0  0  0  0  0  0  0  0
  131.7250  118.9080   60.8360 C   0  0  0  0  0  0  0  0  0  0  0  0
  131.8240  120.1890   61.3850 N   0  0  0  0  0  0  0  0  0  0  0  0
  132.9740  121.0710   61.1080 C   0  0  0  0  0  0  0  0  0  0  0  0
  133.1180  122.2490   62.1000 C   0  0  0  0  0  0  0  0  0  0  0  0
  131.8890  123.0460   62.1490 N   0  0  0  0  0  0  0  0  0  0  0  0
  132.0070  124.1920   63.0560 C   0  0  0  0  0  0  0  0  0  0  0  0
  131.0190  124.1300   64.2380 C   0  0  0  0  0  0  0  0  0  0  0  0
  130.9080  125.4740   64.9760 C   0  0  0  0  0  0  0  0  0  0  0  0
  129.7900  126.3210   64.3560 N   0  0  0  0  0  0  0  0  0  0  0  0
  130.8150  122.1650   62.6070 C   0  0  0  0  0  0  0  0  0  0  0  0
  130.6080  120.9940   61.6200 C   0  0  0  0  0  0  0  0  0  0  0  0
  132.8750  118.1340   60.6240 C   0  0  0  0  0  0  0  0  0  0  0  0
  132.8070  116.8520   60.0660 C   0  0  0  0  0  0  0  0  0  0  0  0
  134.0940  116.0630   59.8580 C   0  0  0  0  0  0  0  0  0  0  0  0
  1  2  1  0
  2  3  2  0
  3  4  1  0
  4  5  2  0
  5  6  1  0
  6  7  1  0
  7  8  1  0
  8  9  1  0
  9 10  1  0
 10 11  1  0
 11 12  1  0
 12 13  1  0
  9 14  1  0
 14 15  1  0
  5 16  1  0
 16 17  2  0
 17 18  1  0
 17  2  1  0
 15  6  1  0
M  CHG  1  13   1
M  END
>  <Binding energies>  (82) 
[-8.07]

>  <Ligand effiencies>  (82) 
[-0.3842857142857143]

>  <Interactions>  (82) 
["V-B:ALA:541:CB:9864, V-A:LEU:475:CD2:4256, V-B:GLU:543:CD:9880, V-B:TYR:539:C:9839, V-B:TYR:539:CE1:9847, V-B:TYR:539:CD1:9845, V-B:TYR:539:CG:9844, V-A:ILE:369:CG2:3234, V-A:GLY:454:CA:4046, V-A:GLU:543:CD:4906, H-A:GLU:543:OE2:4908, H-A:GLU:543:OE1:4907, V-A:PRO:482:CG:4324, V-A:SER:385:CB:3406, V-A:PRO:482:CB:4323, V-A:SER:385:CA:3404, V-B:TYR:539:CB:9843, V-A:HIS:383:CG:3387, V-A:LEU:373:CD2:3278, V-A:HIS:383:CB:3386, V-A:LEU:373:CD1:3277, H-B:GLU:543:OE1:9881, H-B:GLU:543:OE2:9882, V-A:VAL:384:C:3394, V-B:VAL:344:CG1:7972, V-A:HIS:383:CD2:3389, V-A:HIS:383:CE1:3391, V-A:VAL:384:CA:3396, V-A:HIS:383:C:3382"]

$$$$
RR32_Rahimova_2017
     RDKit          3D

 18 20  0  0  0  0  0  0  0  0999 V2000
  132.3800  131.1280   61.3280 C   0  0  0  0  0  0  0  0  0  0  0  0
  131.3610  131.6420   60.3160 C   0  0  0  0  0  0  0  0  0  0  0  0
  130.0830  131.9670   60.7730 C   0  0  0  0  0  0  0  0  0  0  0  0
  129.1290  132.4430   59.8790 C   0  0  0  0  0  0  0  0  0  0  0  0
  127.8630  132.7650   60.3360 N   0  0  0  0  0  0  0  0  0  0  0  0
  126.9480  131.6480   60.6340 C   0  0  0  0  0  0  0  0  0  0  0  0
  125.5080  132.1080   60.9620 C   0  0  0  0  0  0  0  0  0  0  0  0
  125.5170  133.0210   62.1050 N   0  0  0  0  0  0  0  0  0  0  0  0
  124.1560  133.4300   62.4340 C   0  0  0  0  0  0  0  0  0  0  0  0
  126.3240  134.1850   61.7460 C   0  0  0  0  0  0  0  0  0  0  0  0
  127.7750  133.7560   61.4260 C   0  0  0  0  0  0  0  0  0  0  0  0
  129.3830  132.6070   58.5550 N   0  0  0  0  0  0  0  0  0  0  0  0
  130.6190  132.2960   58.0780 C   0  0  0  0  0  0  0  0  0  0  0  0
  130.8560  132.4750   56.6930 C   0  0  0  0  0  0  0  0  0  0  0  0
  132.0990  132.1720   56.1510 C   0  0  0  0  0  0  0  0  0  0  0  0
  133.1230  131.6930   56.9590 C   0  0  0  0  0  0  0  0  0  0  0  0
  132.9240  131.5060   58.3230 C   0  0  0  0  0  0  0  0  0  0  0  0
  131.6650  131.8020   58.9240 C   0  0  0  0  0  0  0  0  0  0  0  0
  1  2  1  0
  2  3  2  0
  3  4  1  0
  4  5  1  0
  5  6  1  0
  6  7  1  0
  7  8  1  0
  8  9  1  0
  8 10  1  0
 10 11  1  0
  4 12  2  0
 12 13  1  0
 13 14  2  0
 14 15  1  0
 15 16  2  0
 16 17  1  0
 17 18  2  0
 18  2  1  0
 11  5  1  0
 18 13  1  0
M  END
>  <Binding energies>  (83) 
[-6.67]

>  <Ligand effiencies>  (83) 
[-0.3705555555555555]

>  <Interactions>  (83) 
["V-A:TYR:531:CZ:4792, V-A:TYR:531:CE2:4791, V-A:PRO:540:CB:4883, V-A:PRO:540:CA:4881, V-A:LEU:363:CD1:3186, V-A:TYR:539:CE1:4873, V-A:TYR:539:CD1:4871, V-B:ILE:369:CD1:8210, V-A:ALA:541:CB:4890, V-A:PRO:540:N:4882, V-A:TYR:539:C:4865, V-B:ILE:369:CG2:8208, V-A:ILE:538:CB:4860, V-B:LEU:475:CD2:9230, V-A:ILE:538:CG2:4861, V-B:GLY:454:CA:9020"]

$$$$
RR5_Rahimova_2017
     RDKit          3D

 45 50  0  0  0  0  0  0  0  0999 V2000
  132.3340  125.6470   60.6860 O   0  0  0  0  0  0  0  0  0  0  0  0
  132.1300  124.8590   59.7640 C   0  0  0  0  0  0  0  0  0  0  0  0
  132.6450  125.1880   58.3500 C   0  0  0  0  0  0  0  0  0  0  0  0
  131.9330  126.4170   57.6810 C   0  0  2  0  0  0  0  0  0  0  0  0
  131.2150  127.3070   58.6160 N   0  0  0  0  0  0  0  0  0  0  0  0
  130.3180  128.2650   58.1650 C   0  0  0  0  0  0  0  0  0  0  0  0
  129.9780  128.4630   56.9960 O   0  0  0  0  0  0  0  0  0  0  0  0
  129.8800  128.9670   59.2240 O   0  0  0  0  0  0  0  0  0  0  0  0
  129.0830  130.1370   59.0620 C   0  0  0  0  0  0  0  0  0  0  0  0
  129.9620  131.4070   59.0840 C   0  0  0  0  0  0  0  0  0  0  0  0
  131.0310  131.3880   60.1620 C   0  0  0  0  0  0  0  0  0  0  0  0
  130.8960  131.2550   61.5470 C   0  0  0  0  0  0  0  0  0  0  0  0
  132.0320  131.2410   62.3590 C   0  0  0  0  0  0  0  0  0  0  0  0
  133.3010  131.3620   61.7910 C   0  0  0  0  0  0  0  0  0  0  0  0
  133.4390  131.4990   60.4080 C   0  0  0  0  0  0  0  0  0  0  0  0
  132.3010  131.5120   59.5980 C   0  0  0  0  0  0  0  0  0  0  0  0
  132.1520  131.6480   58.1410 C   0  0  0  0  0  0  0  0  0  0  0  0
  133.1030  131.8120   57.1310 C   0  0  0  0  0  0  0  0  0  0  0  0
  132.6870  131.9410   55.8050 C   0  0  0  0  0  0  0  0  0  0  0  0
  131.3260  131.9030   55.4910 C   0  0  0  0  0  0  0  0  0  0  0  0
  130.3800  131.7350   56.5030 C   0  0  0  0  0  0  0  0  0  0  0  0
  130.7930  131.6030   57.8310 C   0  0  0  0  0  0  0  0  0  0  0  0
  130.9690  125.9510   56.5610 C   0  0  0  0  0  0  0  0  0  0  0  0
  131.2650  125.8610   55.3870 O   0  0  0  0  0  0  0  0  0  0  0  0
  129.7530  125.6430   57.1010 O   0  0  0  0  0  0  0  0  0  0  0  0
  131.4980  123.6710   59.8910 N   0  0  0  0  0  0  0  0  0  0  0  0
  130.8590  122.9650   61.0420 C   0  0  0  0  0  0  0  0  0  0  0  0
  129.3360  123.1080   60.7090 C   0  0  0  0  0  0  0  0  0  0  0  0
  128.3640  123.1380   61.7230 C   0  0  0  0  0  0  0  0  0  0  0  0
  127.0120  123.2680   61.4150 C   0  0  0  0  0  0  0  0  0  0  0  0
  126.6090  123.3600   60.0870 C   0  0  0  0  0  0  0  0  0  0  0  0
  127.5490  123.3340   59.0640 C   0  0  0  0  0  0  0  0  0  0  0  0
  128.9010  123.2150   59.3730 C   0  0  0  0  0  0  0  0  0  0  0  0
  131.3450  121.4770   61.0050 C   0  0  0  0  0  0  0  0  0  0  0  0
  132.6680  121.1410   60.6760 C   0  0  0  0  0  0  0  0  0  0  0  0
  133.0740  119.8090   60.6310 C   0  0  0  0  0  0  0  0  0  0  0  0
  132.1620  118.7970   60.9110 C   0  0  0  0  0  0  0  0  0  0  0  0
  130.8470  119.1050   61.2440 C   0  0  0  0  0  0  0  0  0  0  0  0
  130.4460  120.4360   61.2970 C   0  0  0  0  0  0  0  0  0  0  0  0
  131.2790  123.7570   62.3260 C   0  0  0  0  0  0  0  0  0  0  0  0
  130.5430  124.8750   62.7590 C   0  0  0  0  0  0  0  0  0  0  0  0
  130.9160  125.5880   63.8950 C   0  0  0  0  0  0  0  0  0  0  0  0
  132.0320  125.1920   64.6230 C   0  0  0  0  0  0  0  0  0  0  0  0
  132.7710  124.0830   64.2280 C   0  0  0  0  0  0  0  0  0  0  0  0
  132.3950  123.3730   63.0920 C   0  0  0  0  0  0  0  0  0  0  0  0
  1  2  2  0
  2  3  1  0
  4  3  1  1
  4  5  1  0
  5  6  1  0
  6  7  2  0
  6  8  1  0
  8  9  1  0
  9 10  1  0
 10 11  1  0
 11 12  2  0
 12 13  1  0
 13 14  2  0
 14 15  1  0
 15 16  2  0
 16 17  1  0
 17 18  2  0
 18 19  1  0
 19 20  2  0
 20 21  1  0
 21 22  2  0
  4 23  1  0
 23 24  2  0
 23 25  1  0
  2 26  1  0
 26 27  1  0
 27 28  1  0
 28 29  2  0
 29 30  1  0
 30 31  2  0
 31 32  1  0
 32 33  2  0
 27 34  1  0
 34 35  2  0
 35 36  1  0
 36 37  2  0
 37 38  1  0
 38 39  2  0
 27 40  1  0
 40 41  2  0
 41 42  1  0
 42 43  2  0
 43 44  1  0
 44 45  2  0
 22 10  1  0
 33 28  1  0
 39 34  1  0
 45 40  1  0
 16 11  1  0
 22 17  1  0
M  END
>  <Binding energies>  (84) 
[-11.17]

>  <Ligand effiencies>  (84) 
[-0.23270833333333332]

>  <Interactions>  (84) 
["V-A:MET:535:CE:4833, V-A:ASP:366:CG:3210, V-A:TYR:531:CZ:4792, V-A:TYR:531:CE2:4791, V-A:PRO:540:CB:4883, V-A:PRO:540:CA:4881, V-A:ASP:366:CB:3209, H-A:TYR:531:OH:4793, V-A:ILE:538:CA:4858, V-A:LEU:363:CD1:3186, V-B:PRO:540:CA:9855, V-B:ALA:541:CB:9864, V-B:PRO:540:CB:9857, V-A:ASP:366:CA:3207, V-B:PRO:540:N:9856, V-A:LEU:475:CD2:4256, V-B:GLU:543:CD:9880, V-B:TYR:539:CE1:9847, V-B:TYR:539:CD1:9845, V-B:PRO:540:C:9853, V-A:ASN:362:C:3169, V-A:ILE:369:CG2:3234, H-B:TYR:539:OH:9850, V-A:ILE:538:CB:4860, V-A:ILE:538:CG2:4861, H-A:ASP:366:OD2:3212, V-A:GLY:454:CA:4046, H-A:ASP:366:OD1:3211, V-A:ARG:545:CZ:4924, V-A:GLU:543:CD:4906, V-A:ASN:362:CB:3173, H-A:ASN:370:ND2:3245, V-A:PRO:482:CG:4324, V-A:PRO:482:CB:4323, V-A:SER:385:CA:3404, V-A:LEU:373:CD1:3277"]

$$$$
