1a_Grossjean_2025
     RDKit          3D

 26 27  0  0  0  0  0  0  0  0999 V2000
  125.4160  122.5670   55.9030 C   0  0  0  0  0  0  0  0  0  0  0  0
  126.4850  122.3660   54.8240 C   0  0  0  0  0  0  0  0  0  0  0  0
  127.6150  123.1750   55.1200 O   0  0  0  0  0  0  0  0  0  0  0  0
  127.7950  123.7030   56.3590 C   0  0  0  0  0  0  0  0  0  0  0  0
  127.8680  123.0190   57.3840 O   0  0  0  0  0  0  0  0  0  0  0  0
  127.8800  125.2020   56.3600 C   0  0  0  0  0  0  0  0  0  0  0  0
  127.0990  125.9300   57.2660 C   0  0  0  0  0  0  0  0  0  0  0  0
  127.1520  127.3210   57.2880 C   0  0  0  0  0  0  0  0  0  0  0  0
  127.9840  128.0120   56.4060 C   0  0  0  0  0  0  0  0  0  0  0  0
  127.9570  129.4160   56.5140 N   0  0  0  0  0  0  0  0  0  0  0  0
  126.9150  130.2720   56.4450 C   0  0  0  0  0  0  0  0  0  0  0  0
  125.7390  129.9540   56.2660 O   0  0  0  0  0  0  0  0  0  0  0  0
  127.2700  131.7510   56.6070 C   0  0  0  0  0  0  0  0  0  0  0  0
  128.1480  132.0790   58.1650 S   0  0  0  0  0  0  0  0  0  0  0  0
  129.8840  131.8330   57.8620 C   0  0  0  0  0  0  0  0  0  0  0  0
  130.1830  131.5860   56.5620 N   0  0  0  0  0  0  0  0  0  0  0  0
  131.4770  131.3790   56.2200 C   0  0  0  0  0  0  0  0  0  0  0  0
  131.7330  131.0960   54.7510 C   0  0  0  0  0  0  0  0  0  0  0  0
  132.5150  131.4190   57.1470 C   0  0  0  0  0  0  0  0  0  0  0  0
  132.2200  131.6940   58.4870 C   0  0  0  0  0  0  0  0  0  0  0  0
  133.3760  131.7490   59.4830 C   0  0  0  0  0  0  0  0  0  0  0  0
  130.8760  131.9170   58.8670 C   0  0  0  0  0  0  0  0  0  0  0  0
  130.5490  132.2550   60.2550 C   0  0  0  0  0  0  0  0  0  0  0  0
  130.2930  132.5210   61.3510 N   0  0  0  0  0  0  0  0  0  0  0  0
  128.7770  127.2900   55.5010 C   0  0  0  0  0  0  0  0  0  0  0  0
  128.7220  125.8990   55.4790 C   0  0  0  0  0  0  0  0  0  0  0  0
  1  2  1  0
  2  3  1  0
  3  4  1  0
  4  5  2  0
  4  6  1  0
  6  7  2  0
  7  8  1  0
  8  9  2  0
  9 10  1  0
 10 11  1  0
 11 12  2  0
 11 13  1  0
 13 14  1  0
 14 15  1  0
 15 16  2  0
 16 17  1  0
 17 18  1  0
 17 19  2  0
 19 20  1  0
 20 21  1  0
 20 22  2  0
 22 23  1  0
 23 24  3  0
  9 25  1  0
 25 26  2  0
 26  6  1  0
 22 15  1  0
M  END
>  <Binding energies>  (1) 
[-7.34]

>  <Ligand effiencies>  (1) 
[-0.27185185185185184]

>  <Interactions>  (1) 
["V-B:MET:535:CE:9806, V-B:LEU:363:CD1:8160, V-B:TYR:539:CE1:9846, V-B:TYR:539:CZ:9848, V-B:PRO:540:CD:9858, H-A:TYR:539:OH:4878, V-B:ILE:538:CA:9831, V-A:TYR:539:CE2:4876, H-B:TYR:531:OH:9766, V-A:MET:535:CE:4835, V-B:TYR:539:CD1:9844, V-A:TYR:531:CZ:4794, V-A:LEU:363:CA:3184, V-A:PRO:540:CB:4885, V-A:LEU:363:CD1:3188, V-A:TYR:531:CE2:4793, V-A:ASP:366:CG:3212, V-A:PRO:540:CA:4883, V-B:ILE:538:CD1:9836, V-A:MET:535:CG:4833, H-A:ALA:541:N:4891, V-A:TYR:539:CZ:4877, V-A:ILE:538:CG2:4863, V-A:TYR:539:CE1:4875, V-A:TYR:531:CD2:4791"]

$$$$
1aa_Ghoteimi_2023
     RDKit          3D

 40 43  0  0  0  0  0  0  0  0999 V2000
  126.9260  131.0270   56.6260 C   0  0  0  0  0  0  0  0  0  0  0  0
  125.4710  130.6260   56.3660 C   0  0  0  0  0  0  0  0  0  0  0  0
  124.8670  130.2170   57.5870 O   0  0  0  0  0  0  0  0  0  0  0  0
  124.3630  131.1280   58.4590 C   0  0  0  0  0  0  0  0  0  0  0  0
  123.7160  132.1200   58.1090 O   0  0  0  0  0  0  0  0  0  0  0  0
  124.6710  130.8100   59.8940 C   0  0  0  0  0  0  0  0  0  0  0  0
  123.8810  131.2960   60.9480 C   0  0  0  0  0  0  0  0  0  0  0  0
  124.1900  130.9840   62.2700 C   0  0  0  0  0  0  0  0  0  0  0  0
  125.2980  130.1750   62.5610 C   0  0  0  0  0  0  0  0  0  0  0  0
  125.7060  129.7960   63.8540 N   0  0  0  0  0  0  0  0  0  0  0  0
  125.0410  129.8390   65.0310 C   0  0  0  0  0  0  0  0  0  0  0  0
  123.8850  130.2410   65.1720 O   0  0  0  0  0  0  0  0  0  0  0  0
  125.7880  129.3470   66.2810 C   0  0  0  0  0  0  0  0  0  0  0  0
  127.2050  129.4240   66.0800 O   0  0  0  0  0  0  0  0  0  0  0  0
  128.0300  128.3870   66.4940 C   0  0  0  0  0  0  0  0  0  0  0  0
  128.0770  128.0980   67.8240 N   0  0  0  0  0  0  0  0  0  0  0  0
  128.8840  127.0990   68.2690 C   0  0  0  0  0  0  0  0  0  0  0  0
  128.8780  126.8420   69.7490 C   0  0  0  0  0  0  0  0  0  0  0  0
  128.2140  125.7280   70.2850 C   0  0  0  0  0  0  0  0  0  0  0  0
  128.2050  125.4890   71.6570 C   0  0  0  0  0  0  0  0  0  0  0  0
  128.8600  126.3510   72.5330 C   0  0  0  0  0  0  0  0  0  0  0  0
  128.7970  126.0340   73.8760 O   0  0  0  0  0  0  0  0  0  0  0  0
  129.8830  125.3350   74.4760 C   0  0  0  0  0  0  0  0  0  0  0  0
  129.5330  127.4640   72.0120 C   0  0  0  0  0  0  0  0  0  0  0  0
  129.5400  127.7010   70.6400 C   0  0  0  0  0  0  0  0  0  0  0  0
  129.6530  126.3490   67.3720 C   0  0  0  0  0  0  0  0  0  0  0  0
  129.6140  126.6190   65.9970 C   0  0  0  0  0  0  0  0  0  0  0  0
  130.4490  125.7760   65.0910 C   0  0  0  0  0  0  0  0  0  0  0  0
  131.7840  126.1150   64.8470 C   0  0  0  0  0  0  0  0  0  0  0  0
  132.5720  125.3290   64.0110 C   0  0  0  0  0  0  0  0  0  0  0  0
  132.0470  124.1880   63.4070 C   0  0  0  0  0  0  0  0  0  0  0  0
  132.9020  123.4700   62.5940 O   0  0  0  0  0  0  0  0  0  0  0  0
  132.8230  122.0490   62.5850 C   0  0  0  0  0  0  0  0  0  0  0  0
  130.7110  123.8390   63.6550 C   0  0  0  0  0  0  0  0  0  0  0  0
  129.9240  124.6270   64.4910 C   0  0  0  0  0  0  0  0  0  0  0  0
  128.7850  127.6740   65.5480 C   0  0  0  0  0  0  0  0  0  0  0  0
  128.7130  128.0570   64.1370 C   0  0  0  0  0  0  0  0  0  0  0  0
  128.6540  128.3620   63.0230 N   0  0  0  0  0  0  0  0  0  0  0  0
  126.0860  129.6920   61.5160 C   0  0  0  0  0  0  0  0  0  0  0  0
  125.7770  130.0050   60.1960 C   0  0  0  0  0  0  0  0  0  0  0  0
  1  2  1  0
  2  3  1  0
  3  4  1  0
  4  5  2  0
  4  6  1  0
  6  7  2  0
  7  8  1  0
  8  9  2  0
  9 10  1  0
 10 11  1  0
 11 12  2  0
 11 13  1  0
 13 14  1  0
 14 15  1  0
 15 16  2  0
 16 17  1  0
 17 18  1  0
 18 19  2  0
 19 20  1  0
 20 21  2  0
 21 22  1  0
 22 23  1  0
 21 24  1  0
 24 25  2  0
 17 26  2  0
 26 27  1  0
 27 28  1  0
 28 29  2  0
 29 30  1  0
 30 31  2  0
 31 32  1  0
 32 33  1  0
 31 34  1  0
 34 35  2  0
 27 36  2  0
 36 37  1  0
 37 38  3  0
  9 39  1  0
 39 40  2  0
 40  6  1  0
 36 15  1  0
 25 18  1  0
 35 28  1  0
M  END
>  <Binding energies>  (2) 
[-9.62]

>  <Ligand effiencies>  (2) 
[-0.2346341463414634]

>  <Interactions>  (2) 
["V-A:HIS:456:CE1:4069, V-A:GLU:543:CG:4907, V-A:HIS:456:CD2:4067, V-B:GLU:543:CD:9879, V-A:GLU:543:CD:4908, V-B:HIS:456:CE1:9041, H-B:LYS:547:NZ:9922, V-B:GLU:543:C:9873, V-B:GLU:543:CB:9877, V-B:GLU:543:CG:9878, V-B:ASP:366:CG:8184, V-A:LEU:475:CD2:4258, V-B:ASP:366:CA:8181, V-A:ARG:545:CZ:4926, H-A:TYR:539:OH:4878, V-A:TYR:539:CE2:4876, H-B:TYR:531:OH:9766, V-A:MET:535:CE:4835, V-B:ASP:366:CB:8183, V-B:TYR:531:CZ:9765, V-A:TYR:539:CZ:4877, H-B:ARG:545:NE:9895, H-B:GLY:454:N:9021, V-B:ARG:545:CZ:9897, V-B:TYR:531:CE1:9763, V-B:ILE:369:CD1:8210, H-B:ASN:370:N:8215"]

$$$$
1b_Grossjean_2025
     RDKit          3D

 25 26  0  0  0  0  0  0  0  0999 V2000
  124.7020  124.1980   57.9730 C   0  0  0  0  0  0  0  0  0  0  0  0
  125.2890  123.7410   56.7620 O   0  0  0  0  0  0  0  0  0  0  0  0
  126.2530  122.7840   56.7710 C   0  0  0  0  0  0  0  0  0  0  0  0
  126.1600  121.7180   56.1540 O   0  0  0  0  0  0  0  0  0  0  0  0
  127.4490  123.1550   57.6000 C   0  0  0  0  0  0  0  0  0  0  0  0
  127.8020  122.4410   58.7550 C   0  0  0  0  0  0  0  0  0  0  0  0
  128.9160  122.8110   59.5020 C   0  0  0  0  0  0  0  0  0  0  0  0
  129.7000  123.8970   59.1140 C   0  0  0  0  0  0  0  0  0  0  0  0
  130.8000  124.1810   59.9450 N   0  0  0  0  0  0  0  0  0  0  0  0
  132.1150  124.2720   59.6470 C   0  0  0  0  0  0  0  0  0  0  0  0
  132.6080  124.1190   58.5300 O   0  0  0  0  0  0  0  0  0  0  0  0
  133.0320  124.6060   60.8250 C   0  0  0  0  0  0  0  0  0  0  0  0
  132.8740  123.4030   62.1800 S   0  0  0  0  0  0  0  0  0  0  0  0
  132.5320  124.3200   63.6670 C   0  0  0  0  0  0  0  0  0  0  0  0
  133.6190  124.5030   64.4570 N   0  0  0  0  0  0  0  0  0  0  0  0
  133.4720  125.1900   65.6150 C   0  0  0  0  0  0  0  0  0  0  0  0
  134.7330  125.3690   66.4410 C   0  0  0  0  0  0  0  0  0  0  0  0
  132.2470  125.7070   66.0320 C   0  0  0  0  0  0  0  0  0  0  0  0
  131.1170  125.5030   65.2340 C   0  0  0  0  0  0  0  0  0  0  0  0
  129.7820  126.0650   65.7200 C   0  0  0  0  0  0  0  0  0  0  0  0
  131.2460  124.7890   64.0210 C   0  0  0  0  0  0  0  0  0  0  0  0
  130.0680  124.5260   63.1910 C   0  0  0  0  0  0  0  0  0  0  0  0
  129.1360  124.3200   62.5370 N   0  0  0  0  0  0  0  0  0  0  0  0
  129.3540  124.6170   57.9600 C   0  0  0  0  0  0  0  0  0  0  0  0
  128.2400  124.2450   57.2140 C   0  0  0  0  0  0  0  0  0  0  0  0
  1  2  1  0
  2  3  1  0
  3  4  2  0
  3  5  1  0
  5  6  2  0
  6  7  1  0
  7  8  2  0
  8  9  1  0
  9 10  1  0
 10 11  2  0
 10 12  1  0
 12 13  1  0
 13 14  1  0
 14 15  2  0
 15 16  1  0
 16 17  1  0
 16 18  2  0
 18 19  1  0
 19 20  1  0
 19 21  2  0
 21 22  1  0
 22 23  3  0
  8 24  1  0
 24 25  2  0
 25  5  1  0
 21 14  1  0
M  END
>  <Binding energies>  (3) 
[-7.46]

>  <Ligand effiencies>  (3) 
[-0.28692307692307695]

>  <Interactions>  (3) 
["V-A:HIS:456:CE1:4069, V-B:GLU:543:CD:9879, V-B:GLU:543:CG:9878, V-B:LEU:363:CD1:8160, V-B:TYR:539:CD2:9845, V-B:PRO:540:CA:9854, V-B:TYR:539:CE2:9847, V-B:PRO:540:N:9855, V-B:TYR:539:CE1:9846, V-B:PRO:540:CB:9856, H-B:TYR:539:N:9841, V-A:ILE:369:CG2:3236, V-B:TYR:539:CZ:9848, V-B:TYR:539:C:9838, V-B:PRO:540:CD:9858, V-A:ARG:545:CZ:4926, H-B:TYR:539:OH:9849, H-A:GLY:454:N:4049, V-A:ASP:366:CG:3212, H-A:TYR:484:OH:4347, V-A:GLY:454:CA:4048, V-A:ARG:545:CD:4923, V-A:ARG:545:CG:4922, V-A:GLY:453:C:4041, V-A:GLY:453:CA:4043"]

$$$$
1c_Grossjean_2025
     RDKit          3D

 23 24  0  0  0  0  0  0  0  0999 V2000
  131.9320  120.4920   60.9960 C   0  0  0  0  0  0  0  0  0  0  0  0
  131.2600  121.3460   61.9150 O   0  0  0  0  0  0  0  0  0  0  0  0
  130.0490  121.9040   61.5530 C   0  0  0  0  0  0  0  0  0  0  0  0
  129.4840  122.8040   62.4570 C   0  0  0  0  0  0  0  0  0  0  0  0
  128.2660  123.4190   62.1820 C   0  0  0  0  0  0  0  0  0  0  0  0
  127.5960  123.1410   60.9820 C   0  0  0  0  0  0  0  0  0  0  0  0
  126.3570  123.6980   60.6080 N   0  0  0  0  0  0  0  0  0  0  0  0
  125.1300  123.4870   61.1320 C   0  0  0  0  0  0  0  0  0  0  0  0
  124.8770  122.7490   62.0840 O   0  0  0  0  0  0  0  0  0  0  0  0
  123.9900  124.2560   60.4610 C   0  0  0  0  0  0  0  0  0  0  0  0
  123.9040  123.9170   58.6770 S   0  0  0  0  0  0  0  0  0  0  0  0
  125.3750  124.5650   57.9100 C   0  0  0  0  0  0  0  0  0  0  0  0
  125.7390  125.7840   58.3830 N   0  0  0  0  0  0  0  0  0  0  0  0
  126.8430  126.3770   57.8740 C   0  0  0  0  0  0  0  0  0  0  0  0
  127.1920  127.7330   58.4600 C   0  0  0  0  0  0  0  0  0  0  0  0
  127.6180  125.7930   56.8750 C   0  0  0  0  0  0  0  0  0  0  0  0
  127.2390  124.5480   56.3620 C   0  0  0  0  0  0  0  0  0  0  0  0
  128.0940  123.9360   55.2550 C   0  0  0  0  0  0  0  0  0  0  0  0
  126.0870  123.9100   56.8770 C   0  0  0  0  0  0  0  0  0  0  0  0
  125.6430  122.6320   56.3150 C   0  0  0  0  0  0  0  0  0  0  0  0
  125.2940  121.6230   55.8710 N   0  0  0  0  0  0  0  0  0  0  0  0
  128.1520  122.2320   60.0800 C   0  0  0  0  0  0  0  0  0  0  0  0
  129.3700  121.6190   60.3590 C   0  0  0  0  0  0  0  0  0  0  0  0
  1  2  1  0
  2  3  1  0
  3  4  2  0
  4  5  1  0
  5  6  2  0
  6  7  1  0
  7  8  1  0
  8  9  2  0
  8 10  1  0
 10 11  1  0
 11 12  1  0
 12 13  2  0
 13 14  1  0
 14 15  1  0
 14 16  2  0
 16 17  1  0
 17 18  1  0
 17 19  2  0
 19 20  1  0
 20 21  3  0
  6 22  1  0
 22 23  2  0
 23  3  1  0
 19 12  1  0
M  END
>  <Binding energies>  (4) 
[-6.82]

>  <Ligand effiencies>  (4) 
[-0.2841666666666667]

>  <Interactions>  (4) 
["V-B:MET:535:CE:9806, V-B:ASP:366:CG:8184, V-B:LEU:363:CA:8156, V-B:LEU:363:CD1:8160, V-B:ASN:362:C:8143, V-A:TRP:381:CH2:3371, V-B:TYR:539:CD2:9845, V-B:PRO:540:CA:9854, V-B:TYR:539:CE2:9847, V-B:PRO:540:C:9852, V-B:ALA:541:CB:9863, V-B:PRO:540:N:9855, V-A:LEU:475:CD2:4258, V-B:TYR:539:CE1:9846, V-B:PRO:540:CB:9856, H-B:TYR:539:N:9841, H-B:ALA:541:N:9862, V-A:ILE:369:CG2:3236, V-B:TYR:539:CZ:9848, V-B:TYR:539:C:9838, V-B:PRO:540:CD:9858, H-B:TYR:531:OH:9766, V-B:TYR:539:CD1:9844, V-B:ASN:362:CB:8147, H-B:LEU:363:N:8157"]

$$$$
1d_Grossjean_2025
     RDKit          3D

 21 22  0  0  0  0  0  0  0  0999 V2000
  129.6230  126.3830   57.4320 C   0  0  0  0  0  0  0  0  0  0  0  0
  128.6250  125.3470   56.9520 C   0  0  0  0  0  0  0  0  0  0  0  0
  128.7300  124.7610   55.6930 C   0  0  0  0  0  0  0  0  0  0  0  0
  127.7860  123.8030   55.3070 C   0  0  0  0  0  0  0  0  0  0  0  0
  127.9320  123.1630   53.9270 C   0  0  0  0  0  0  0  0  0  0  0  0
  126.7460  123.4590   56.2000 C   0  0  0  0  0  0  0  0  0  0  0  0
  125.7750  122.4250   55.8370 C   0  0  0  0  0  0  0  0  0  0  0  0
  125.0090  121.6060   55.5480 N   0  0  0  0  0  0  0  0  0  0  0  0
  126.7020  124.1230   57.4490 C   0  0  0  0  0  0  0  0  0  0  0  0
  125.4660  123.8160   58.6910 S   0  0  0  0  0  0  0  0  0  0  0  0
  126.1080  124.4550   60.2670 C   0  0  0  0  0  0  0  0  0  0  0  0
  127.0910  123.4850   60.9250 C   0  0  0  0  0  0  0  0  0  0  0  0
  126.8590  123.0760   62.0630 O   0  0  0  0  0  0  0  0  0  0  0  0
  128.1500  123.1310   60.1660 N   0  0  0  0  0  0  0  0  0  0  0  0
  129.2330  122.2850   60.4670 C   0  0  0  0  0  0  0  0  0  0  0  0
  130.5010  122.8620   60.3610 C   0  0  0  0  0  0  0  0  0  0  0  0
  131.6410  122.1140   60.6420 C   0  0  0  0  0  0  0  0  0  0  0  0
  131.5130  120.7850   61.0380 C   0  0  0  0  0  0  0  0  0  0  0  0
  130.2550  120.1990   61.1560 C   0  0  0  0  0  0  0  0  0  0  0  0
  129.1130  120.9450   60.8740 C   0  0  0  0  0  0  0  0  0  0  0  0
  127.6360  125.0350   57.8220 N   0  0  0  0  0  0  0  0  0  0  0  0
  1  2  1  0
  2  3  2  0
  3  4  1  0
  4  5  1  0
  4  6  2  0
  6  7  1  0
  7  8  3  0
  6  9  1  0
  9 10  1  0
 10 11  1  0
 11 12  1  0
 12 13  2  0
 12 14  1  0
 14 15  1  0
 15 16  2  0
 16 17  1  0
 17 18  2  0
 18 19  1  0
 19 20  2  0
  9 21  2  0
 21  2  1  0
 20 15  1  0
M  END
>  <Binding energies>  (5) 
[-7.05]

>  <Ligand effiencies>  (5) 
[-0.32045454545454544]

>  <Interactions>  (5) 
["V-B:MET:535:CE:9806, V-B:LEU:363:CD1:8160, V-B:TYR:539:CD2:9845, V-B:PRO:540:CA:9854, V-B:TYR:539:CE2:9847, V-B:PRO:540:C:9852, V-B:ALA:541:CB:9863, V-B:PRO:540:N:9855, V-A:LEU:475:CD2:4258, V-B:TYR:539:CE1:9846, H-B:TYR:539:N:9841, H-B:ALA:541:N:9862, V-A:ILE:369:CG2:3236, V-B:TYR:539:CZ:9848, V-B:TYR:539:C:9838, V-B:PRO:540:CD:9858, V-B:TYR:539:CD1:9844, V-B:ALA:541:CA:9861, V-B:MET:535:CB:9803, V-B:MET:535:CG:9804"]

$$$$
1e_Grossjean_2025
     RDKit          3D

 22 23  0  0  0  0  0  0  0  0999 V2000
  129.8400  120.5320   60.7670 C   0  0  0  0  0  0  0  0  0  0  0  0
  129.2530  121.8120   61.3310 C   0  0  0  0  0  0  0  0  0  0  0  0
  129.8850  122.5160   62.3590 C   0  0  0  0  0  0  0  0  0  0  0  0
  129.2850  123.6850   62.8290 C   0  0  0  0  0  0  0  0  0  0  0  0
  128.0820  124.1170   62.2680 C   0  0  0  0  0  0  0  0  0  0  0  0
  127.5040  123.3680   61.2370 C   0  0  0  0  0  0  0  0  0  0  0  0
  126.2870  123.8460   60.7200 N   0  0  0  0  0  0  0  0  0  0  0  0
  125.0300  123.5520   61.1200 C   0  0  0  0  0  0  0  0  0  0  0  0
  124.7420  122.7760   62.0320 O   0  0  0  0  0  0  0  0  0  0  0  0
  123.9060  124.2320   60.3350 C   0  0  0  0  0  0  0  0  0  0  0  0
  124.0000  123.8670   58.5570 S   0  0  0  0  0  0  0  0  0  0  0  0
  125.4690  124.6280   57.8950 C   0  0  0  0  0  0  0  0  0  0  0  0
  125.7250  125.8530   58.4210 N   0  0  0  0  0  0  0  0  0  0  0  0
  126.8150  126.5320   57.9930 C   0  0  0  0  0  0  0  0  0  0  0  0
  127.0420  127.8880   58.6310 C   0  0  0  0  0  0  0  0  0  0  0  0
  127.6800  126.0290   57.0230 C   0  0  0  0  0  0  0  0  0  0  0  0
  127.4120  124.7790   56.4560 C   0  0  0  0  0  0  0  0  0  0  0  0
  128.3660  124.2580   55.3820 C   0  0  0  0  0  0  0  0  0  0  0  0
  126.2770  124.0530   56.8850 C   0  0  0  0  0  0  0  0  0  0  0  0
  125.9500  122.7700   56.2600 C   0  0  0  0  0  0  0  0  0  0  0  0
  125.6940  121.7550   55.7640 N   0  0  0  0  0  0  0  0  0  0  0  0
  128.0840  122.2200   60.7750 N   0  0  0  0  0  0  0  0  0  0  0  0
  1  2  1  0
  2  3  2  0
  3  4  1  0
  4  5  2  0
  5  6  1  0
  6  7  1  0
  7  8  1  0
  8  9  2  0
  8 10  1  0
 10 11  1  0
 11 12  1  0
 12 13  2  0
 13 14  1  0
 14 15  1  0
 14 16  2  0
 16 17  1  0
 17 18  1  0
 17 19  2  0
 19 20  1  0
 20 21  3  0
  6 22  2  0
 22  2  1  0
 19 12  1  0
M  END
>  <Binding energies>  (6) 
[-7.27]

>  <Ligand effiencies>  (6) 
[-0.3160869565217391]

>  <Interactions>  (6) 
["V-B:GLU:543:CD:9879, V-B:MET:535:CE:9806, V-B:ASP:366:CG:8184, V-B:LEU:363:CA:8156, V-B:ASN:362:C:8143, V-B:TYR:539:CD2:9845, V-B:PRO:540:CA:9854, V-B:TYR:539:CE2:9847, V-B:ALA:541:CB:9863, V-B:PRO:540:N:9855, V-B:TYR:539:CE1:9846, V-B:PRO:540:CB:9856, H-B:TYR:539:N:9841, H-B:ALA:541:N:9862, V-B:TYR:539:CZ:9848, H-B:TYR:531:OH:9766, V-B:ASN:362:CB:8147"]

$$$$
1f_Grossjean_2025
     RDKit          3D

 21 22  0  0  0  0  0  0  0  0999 V2000
  129.6450  120.8600   60.9210 C   0  0  0  0  0  0  0  0  0  0  0  0
  129.0850  122.2700   60.9060 C   0  0  0  0  0  0  0  0  0  0  0  0
  129.8690  123.3620   60.5410 C   0  0  0  0  0  0  0  0  0  0  0  0
  129.3020  124.6400   60.5570 C   0  0  0  0  0  0  0  0  0  0  0  0
  130.1860  125.8240   60.1710 C   0  0  0  0  0  0  0  0  0  0  0  0
  127.9480  124.7920   60.9350 C   0  0  0  0  0  0  0  0  0  0  0  0
  127.3520  126.1280   61.0130 C   0  0  0  0  0  0  0  0  0  0  0  0
  126.8830  127.1840   61.0730 N   0  0  0  0  0  0  0  0  0  0  0  0
  127.2190  123.6240   61.2630 C   0  0  0  0  0  0  0  0  0  0  0  0
  125.5090  123.6180   61.7610 S   0  0  0  0  0  0  0  0  0  0  0  0
  124.5480  124.5660   60.5330 C   0  0  0  0  0  0  0  0  0  0  0  0
  124.5970  124.0090   59.1020 C   0  0  0  0  0  0  0  0  0  0  0  0
  123.5610  123.6720   58.5270 O   0  0  0  0  0  0  0  0  0  0  0  0
  125.8390  123.9080   58.5820 N   0  0  0  0  0  0  0  0  0  0  0  0
  126.2480  123.4520   57.3140 C   0  0  0  0  0  0  0  0  0  0  0  0
  127.3050  123.9860   56.5530 C   0  0  0  0  0  0  0  0  0  0  0  0
  127.6070  123.4320   55.3060 C   0  0  0  0  0  0  0  0  0  0  0  0
  126.8460  122.3550   54.8510 C   0  0  0  0  0  0  0  0  0  0  0  0
  125.8260  121.8190   55.5670 N   0  0  0  0  0  0  0  0  0  0  0  0
  125.5440  122.3680   56.7770 C   0  0  0  0  0  0  0  0  0  0  0  0
  127.7860  122.3910   61.2670 N   0  0  0  0  0  0  0  0  0  0  0  0
  1  2  1  0
  2  3  2  0
  3  4  1  0
  4  5  1  0
  4  6  2  0
  6  7  1  0
  7  8  3  0
  6  9  1  0
  9 10  1  0
 10 11  1  0
 11 12  1  0
 12 13  2  0
 12 14  1  0
 14 15  1  0
 15 16  2  0
 16 17  1  0
 17 18  2  0
 18 19  1  0
 19 20  2  0
  9 21  2  0
 21  2  1  0
 20 15  1  0
M  END
>  <Binding energies>  (7) 
[-6.7]

>  <Ligand effiencies>  (7) 
[-0.30454545454545456]

>  <Interactions>  (7) 
["V-B:MET:535:CE:9806, V-B:ASP:366:CG:8184, V-B:LEU:363:CA:8156, V-B:LEU:363:CD1:8160, V-B:ASN:362:C:8143, V-B:TYR:539:CD2:9845, V-B:PRO:540:CA:9854, V-B:TYR:539:CE2:9847, V-B:ALA:541:CB:9863, V-B:PRO:540:N:9855, V-B:TYR:539:CE1:9846, V-B:PRO:540:CB:9856, H-B:TYR:539:N:9841, H-B:ALA:541:N:9862, V-B:TYR:539:CZ:9848, V-B:TYR:539:C:9838, V-B:PRO:540:CD:9858, V-B:ILE:538:CA:9831, V-B:TYR:539:CD1:9844, V-B:ILE:538:CD1:9836, H-B:LEU:363:N:8157"]

$$$$
1g_Grossjean_2025
     RDKit          3D

 22 23  0  0  0  0  0  0  0  0999 V2000
  126.8220  127.9810   58.5560 C   0  0  0  0  0  0  0  0  0  0  0  0
  126.6570  126.5970   57.9580 C   0  0  0  0  0  0  0  0  0  0  0  0
  127.5760  126.0830   57.0450 C   0  0  0  0  0  0  0  0  0  0  0  0
  127.3640  124.8060   56.5140 C   0  0  0  0  0  0  0  0  0  0  0  0
  128.3760  124.2690   55.5030 C   0  0  0  0  0  0  0  0  0  0  0  0
  126.2310  124.0670   56.9210 C   0  0  0  0  0  0  0  0  0  0  0  0
  125.9600  122.7490   56.3400 C   0  0  0  0  0  0  0  0  0  0  0  0
  125.7480  121.7100   55.8770 N   0  0  0  0  0  0  0  0  0  0  0  0
  125.3650  124.6570   57.8720 C   0  0  0  0  0  0  0  0  0  0  0  0
  123.9010  123.8660   58.5010 S   0  0  0  0  0  0  0  0  0  0  0  0
  123.8100  124.2350   60.2790 C   0  0  0  0  0  0  0  0  0  0  0  0
  125.1500  124.0110   60.9800 C   0  0  0  0  0  0  0  0  0  0  0  0
  125.3820  122.9370   61.5390 O   0  0  0  0  0  0  0  0  0  0  0  0
  126.0180  125.0360   60.9470 N   0  0  0  0  0  0  0  0  0  0  0  0
  127.3720  125.0200   61.4990 C   0  0  0  0  0  0  0  0  0  0  0  0
  128.1670  123.7580   61.1770 C   0  0  0  0  0  0  0  0  0  0  0  0
  128.0230  123.1430   59.9290 C   0  0  0  0  0  0  0  0  0  0  0  0
  128.7490  121.9920   59.6340 C   0  0  0  0  0  0  0  0  0  0  0  0
  129.6200  121.4630   60.5850 C   0  0  0  0  0  0  0  0  0  0  0  0
  129.7710  122.0730   61.8270 C   0  0  0  0  0  0  0  0  0  0  0  0
  129.0450  123.2240   62.1240 C   0  0  0  0  0  0  0  0  0  0  0  0
  125.5660  125.9060   58.3640 N   0  0  0  0  0  0  0  0  0  0  0  0
  1  2  1  0
  2  3  2  0
  3  4  1  0
  4  5  1  0
  4  6  2  0
  6  7  1  0
  7  8  3  0
  6  9  1  0
  9 10  1  0
 10 11  1  0
 11 12  1  0
 12 13  2  0
 12 14  1  0
 14 15  1  0
 15 16  1  0
 16 17  2  0
 17 18  1  0
 18 19  2  0
 19 20  1  0
 20 21  2  0
  9 22  2  0
 22  2  1  0
 21 16  1  0
M  END
>  <Binding energies>  (8) 
[-7.37]

>  <Ligand effiencies>  (8) 
[-0.3204347826086957]

>  <Interactions>  (8) 
["V-B:MET:535:CE:9806, V-B:ASP:366:CG:8184, V-B:LEU:363:CA:8156, V-B:ASN:362:C:8143, V-B:TYR:539:CD2:9845, V-B:PRO:540:CA:9854, V-B:TYR:539:CE2:9847, V-B:ALA:541:CB:9863, V-B:PRO:540:N:9855, V-B:TYR:539:CE1:9846, V-B:PRO:540:CB:9856, H-B:TYR:539:N:9841, H-B:ALA:541:N:9862, V-B:TYR:539:CZ:9848, V-B:TYR:539:C:9838, V-B:PRO:540:CD:9858, H-B:TYR:531:OH:9766, V-B:ASN:362:CB:8147, H-B:ASP:366:OD2:8186, H-B:LEU:363:N:8157"]

$$$$
1h_Grossjean_2025
     RDKit          3D

 28 29  0  0  0  0  0  0  0  0999 V2000
  129.9420  121.0610   60.7430 C   0  0  0  0  0  0  0  0  0  0  0  0
  130.6830  122.0830   60.0860 O   0  0  0  0  0  0  0  0  0  0  0  0
  130.1780  123.3700   60.0490 C   0  0  0  0  0  0  0  0  0  0  0  0
  129.0580  123.7940   60.7810 C   0  0  0  0  0  0  0  0  0  0  0  0
  128.5960  125.1070   60.6840 C   0  0  0  0  0  0  0  0  0  0  0  0
  127.3910  125.5610   61.5020 C   0  0  0  0  0  0  0  0  0  0  0  0
  126.1040  125.3280   60.8460 N   0  0  0  0  0  0  0  0  0  0  0  0
  125.4490  124.1530   60.8150 C   0  0  0  0  0  0  0  0  0  0  0  0
  125.8540  123.1310   61.3670 O   0  0  0  0  0  0  0  0  0  0  0  0
  124.1350  124.1260   60.0340 C   0  0  0  0  0  0  0  0  0  0  0  0
  124.3940  123.7220   58.2800 S   0  0  0  0  0  0  0  0  0  0  0  0
  125.7630  124.7000   57.6820 C   0  0  0  0  0  0  0  0  0  0  0  0
  125.8550  125.9570   58.1900 N   0  0  0  0  0  0  0  0  0  0  0  0
  126.8730  126.7510   57.7830 C   0  0  0  0  0  0  0  0  0  0  0  0
  126.9110  128.1380   58.3970 C   0  0  0  0  0  0  0  0  0  0  0  0
  127.8300  126.3340   56.8610 C   0  0  0  0  0  0  0  0  0  0  0  0
  127.7440  125.0430   56.3290 C   0  0  0  0  0  0  0  0  0  0  0  0
  128.8050  124.6050   55.3220 C   0  0  0  0  0  0  0  0  0  0  0  0
  126.6900  124.1960   56.7410 C   0  0  0  0  0  0  0  0  0  0  0  0
  126.5740  122.8400   56.1990 C   0  0  0  0  0  0  0  0  0  0  0  0
  126.4820  121.7680   55.7700 N   0  0  0  0  0  0  0  0  0  0  0  0
  129.2770  126.0190   59.8770 C   0  0  0  0  0  0  0  0  0  0  0  0
  130.4040  125.6240   59.1380 C   0  0  0  0  0  0  0  0  0  0  0  0
  131.1260  126.4730   58.3190 O   0  0  0  0  0  0  0  0  0  0  0  0
  131.4000  127.8000   58.7540 C   0  0  0  0  0  0  0  0  0  0  0  0
  130.8380  124.2940   59.2250 C   0  0  0  0  0  0  0  0  0  0  0  0
  131.9420  123.8940   58.5120 O   0  0  0  0  0  0  0  0  0  0  0  0
  133.1610  124.4670   58.9650 C   0  0  0  0  0  0  0  0  0  0  0  0
  1  2  1  0
  2  3  1  0
  3  4  2  0
  4  5  1  0
  5  6  1  0
  6  7  1  0
  7  8  1  0
  8  9  2  0
  8 10  1  0
 10 11  1  0
 11 12  1  0
 12 13  2  0
 13 14  1  0
 14 15  1  0
 14 16  2  0
 16 17  1  0
 17 18  1  0
 17 19  2  0
 19 20  1  0
 20 21  3  0
  5 22  2  0
 22 23  1  0
 23 24  1  0
 24 25  1  0
 23 26  2  0
 26 27  1  0
 27 28  1  0
 26  3  1  0
 19 12  1  0
M  END
>  <Binding energies>  (9) 
[-6.36]

>  <Ligand effiencies>  (9) 
[-0.2193103448275862]

>  <Interactions>  (9) 
["V-B:LEU:363:CA:8156, V-B:ASN:362:C:8143, V-B:TYR:539:CD2:9845, V-B:PRO:540:CA:9854, V-B:TYR:539:CE2:9847, V-B:ALA:541:CB:9863, V-B:TYR:539:CE1:9846, V-B:PRO:540:CB:9856, H-B:TYR:539:N:9841, H-B:ALA:541:N:9862, V-A:ILE:369:CG2:3236, V-B:TYR:539:CZ:9848, V-A:ILE:369:CB:3235, V-A:ASP:366:CB:3211, H-A:TYR:531:OH:4795, H-B:TYR:531:OH:9766, H-B:TYR:539:OH:9849, V-B:TYR:539:CD1:9844, V-A:ASP:366:CA:3209, V-A:ASP:366:CG:3212, V-A:ASP:366:C:3207, H-B:ASP:366:OD2:8186"]

$$$$
1i_Grossjean_2025
     RDKit          3D

 20 21  0  0  0  0  0  0  0  0999 V2000
  132.7000  125.2960   57.9370 C   0  0  0  0  0  0  0  0  0  0  0  0
  132.6470  124.6320   59.3000 C   0  0  0  0  0  0  0  0  0  0  0  0
  133.5470  124.9660   60.3090 C   0  0  0  0  0  0  0  0  0  0  0  0
  133.4440  124.3280   61.5500 C   0  0  0  0  0  0  0  0  0  0  0  0
  134.4320  124.7230   62.6460 C   0  0  0  0  0  0  0  0  0  0  0  0
  132.4350  123.3570   61.7470 C   0  0  0  0  0  0  0  0  0  0  0  0
  132.2780  122.7130   63.0530 C   0  0  0  0  0  0  0  0  0  0  0  0
  132.1550  122.2070   64.0870 N   0  0  0  0  0  0  0  0  0  0  0  0
  131.5810  123.0640   60.6570 C   0  0  0  0  0  0  0  0  0  0  0  0
  130.2610  121.8720   60.7280 S   0  0  0  0  0  0  0  0  0  0  0  0
  128.7820  122.7260   61.3520 C   0  0  0  0  0  0  0  0  0  0  0  0
  127.6320  122.6950   60.3440 C   0  0  0  0  0  0  0  0  0  0  0  0
  126.4710  122.7560   60.7510 O   0  0  0  0  0  0  0  0  0  0  0  0
  127.9970  122.6050   59.0460 N   0  0  0  0  0  0  0  0  0  0  0  0
  127.1620  122.5550   57.9390 C   0  0  0  0  0  0  0  0  0  0  0  0
  126.1730  123.5050   57.6890 C   0  0  0  0  0  0  0  0  0  0  0  0
  125.5780  123.1020   56.5150 C   0  0  0  0  0  0  0  0  0  0  0  0
  126.1770  121.9670   56.0830 O   0  0  0  0  0  0  0  0  0  0  0  0
  127.1780  121.6290   56.9950 N   0  0  0  0  0  0  0  0  0  0  0  0
  131.6760  123.7030   59.4640 N   0  0  0  0  0  0  0  0  0  0  0  0
  1  2  1  0
  2  3  2  0
  3  4  1  0
  4  5  1  0
  4  6  2  0
  6  7  1  0
  7  8  3  0
  6  9  1  0
  9 10  1  0
 10 11  1  0
 11 12  1  0
 12 13  2  0
 12 14  1  0
 14 15  1  0
 15 16  1  0
 16 17  2  0
 17 18  1  0
 18 19  1  0
  9 20  2  0
 20  2  1  0
 19 15  2  0
M  END
>  <Binding energies>  (10) 
[-6.95]

>  <Ligand effiencies>  (10) 
[-0.33095238095238094]

>  <Interactions>  (10) 
["V-B:MET:535:CE:9806, V-B:LEU:363:CD1:8160, V-B:TYR:539:CD2:9845, V-B:PRO:540:CA:9854, V-B:TYR:539:CE2:9847, V-B:PRO:540:C:9852, V-B:ALA:541:CB:9863, V-B:PRO:540:N:9855, V-A:LEU:475:CD2:4258, V-B:PRO:540:CB:9856, H-B:TYR:539:N:9841, H-B:ALA:541:N:9862, V-A:ILE:369:CG2:3236, V-A:ASP:366:CB:3211, V-B:TYR:539:C:9838, H-B:TYR:539:OH:9849, V-A:ASP:366:CA:3209, V-A:ASP:366:CG:3212, H-A:TYR:484:OH:4347, V-A:ASP:366:C:3207, V-A:ILE:369:CD1:3238, H-B:TYR:539:O:9839, V-A:GLY:453:C:4041, V-A:GLY:453:CA:4043"]

$$$$
1k_Grossjean_2025
     RDKit          3D

 25 25  0  0  0  0  0  0  0  0999 V2000
  126.8670  122.4800   54.9690 C   0  0  0  0  0  0  0  0  0  0  0  0
  126.1150  121.6620   55.8510 O   0  0  0  0  0  0  0  0  0  0  0  0
  125.1670  122.3850   56.6240 C   0  0  0  0  0  0  0  0  0  0  0  0
  125.8890  123.1240   57.7590 C   0  0  0  0  0  0  0  0  0  0  0  0
  124.9630  123.9550   58.4470 O   0  0  0  0  0  0  0  0  0  0  0  0
  125.1060  123.9230   59.8610 C   0  0  0  0  0  0  0  0  0  0  0  0
  126.5950  123.9750   60.2230 C   0  0  0  0  0  0  0  0  0  0  0  0
  126.8580  123.0630   61.2820 O   0  0  0  0  0  0  0  0  0  0  0  0
  128.2430  122.8440   61.5170 C   0  0  0  0  0  0  0  0  0  0  0  0
  128.7160  121.6180   60.7130 C   0  0  0  0  0  0  0  0  0  0  0  0
  130.1700  121.4680   60.6570 N   0  0  0  0  0  0  0  0  0  0  0  0
  130.8600  120.4150   61.1310 C   0  0  0  0  0  0  0  0  0  0  0  0
  130.3210  119.4450   61.6680 O   0  0  0  0  0  0  0  0  0  0  0  0
  132.3860  120.4940   60.9660 C   0  0  0  0  0  0  0  0  0  0  0  0
  133.2120  121.8340   61.8910 S   0  0  0  0  0  0  0  0  0  0  0  0
  132.4150  123.3880   61.5110 C   0  0  0  0  0  0  0  0  0  0  0  0
  131.9150  123.5060   60.2530 N   0  0  0  0  0  0  0  0  0  0  0  0
  131.3070  124.6610   59.8970 C   0  0  0  0  0  0  0  0  0  0  0  0
  130.7840  124.7190   58.4750 C   0  0  0  0  0  0  0  0  0  0  0  0
  131.1640  125.7360   60.7720 C   0  0  0  0  0  0  0  0  0  0  0  0
  131.6670  125.6240   62.0720 C   0  0  0  0  0  0  0  0  0  0  0  0
  131.5000  126.8140   63.0150 C   0  0  0  0  0  0  0  0  0  0  0  0
  132.3100  124.4280   62.4630 C   0  0  0  0  0  0  0  0  0  0  0  0
  132.8500  124.2850   63.8180 C   0  0  0  0  0  0  0  0  0  0  0  0
  133.2770  124.1730   64.8880 N   0  0  0  0  0  0  0  0  0  0  0  0
  1  2  1  0
  2  3  1  0
  3  4  1  0
  4  5  1  0
  5  6  1  0
  6  7  1  0
  7  8  1  0
  8  9  1  0
  9 10  1  0
 10 11  1  0
 11 12  1  0
 12 13  2  0
 12 14  1  0
 14 15  1  0
 15 16  1  0
 16 17  2  0
 17 18  1  0
 18 19  1  0
 18 20  2  0
 20 21  1  0
 21 22  1  0
 21 23  2  0
 23 24  1  0
 24 25  3  0
 23 16  1  0
M  END
>  <Binding energies>  (11) 
[-5.69]

>  <Ligand effiencies>  (11) 
[-0.21884615384615386]

>  <Interactions>  (11) 
["V-B:MET:535:CE:9806, V-B:LEU:363:CD1:8160, V-A:TRP:381:CH2:3371, V-B:TYR:539:CD2:9845, V-B:PRO:540:CA:9854, V-B:TYR:539:CE2:9847, V-B:PRO:540:C:9852, V-B:ALA:541:CB:9863, V-B:PRO:540:N:9855, V-A:LEU:475:CD2:4258, V-B:TYR:539:CE1:9846, V-B:PRO:540:CB:9856, H-B:TYR:539:N:9841, H-B:ALA:541:N:9862, V-A:ILE:369:CG2:3236, V-B:TYR:539:CZ:9848, V-B:TYR:539:C:9838, V-B:PRO:540:CD:9858, V-A:ARG:545:CZ:4926, V-B:ILE:538:CA:9831, V-B:PRO:540:CG:9857, V-B:TYR:539:CD1:9844, H-A:GLY:454:N:4049, H-A:TYR:484:OH:4347, V-B:ALA:541:CA:9861"]

$$$$
1l_Grossjean_2025
     RDKit          3D

 17 17  0  0  0  0  0  0  0  0999 V2000
  128.1800  122.6980   60.4020 C   0  0  0  0  0  0  0  0  0  0  0  0
  127.3020  123.1240   61.4340 O   0  0  0  0  0  0  0  0  0  0  0  0
  126.2490  123.8570   60.8880 N   0  0  0  0  0  0  0  0  0  0  0  0
  124.9870  123.5590   61.2540 C   0  0  0  0  0  0  0  0  0  0  0  0
  124.7060  122.8310   62.2100 O   0  0  0  0  0  0  0  0  0  0  0  0
  123.8900  124.2070   60.3970 C   0  0  0  0  0  0  0  0  0  0  0  0
  124.0180  123.8850   58.6050 S   0  0  0  0  0  0  0  0  0  0  0  0
  125.5090  124.6630   58.0060 C   0  0  0  0  0  0  0  0  0  0  0  0
  125.8410  125.8380   58.6010 N   0  0  0  0  0  0  0  0  0  0  0  0
  126.9600  126.4830   58.1930 C   0  0  0  0  0  0  0  0  0  0  0  0
  127.2640  127.7880   58.9040 C   0  0  0  0  0  0  0  0  0  0  0  0
  127.7880  125.9900   57.1880 C   0  0  0  0  0  0  0  0  0  0  0  0
  127.4580  124.7790   56.5700 C   0  0  0  0  0  0  0  0  0  0  0  0
  128.3810  124.2560   55.4700 C   0  0  0  0  0  0  0  0  0  0  0  0
  126.2940  124.0910   56.9790 C   0  0  0  0  0  0  0  0  0  0  0  0
  125.9230  122.8200   56.3470 C   0  0  0  0  0  0  0  0  0  0  0  0
  125.6320  121.8180   55.8490 N   0  0  0  0  0  0  0  0  0  0  0  0
  1  2  1  0
  2  3  1  0
  3  4  1  0
  4  5  2  0
  4  6  1  0
  6  7  1  0
  7  8  1  0
  8  9  2  0
  9 10  1  0
 10 11  1  0
 10 12  2  0
 12 13  1  0
 13 14  1  0
 13 15  2  0
 15 16  1  0
 16 17  3  0
 15  8  1  0
M  END
>  <Binding energies>  (12) 
[-5.99]

>  <Ligand effiencies>  (12) 
[-0.3327777777777778]

>  <Interactions>  (12) 
["V-B:MET:535:CE:9806, V-B:ASP:366:CG:8184, V-B:LEU:363:CA:8156, V-B:ASN:362:C:8143, V-B:PRO:540:CA:9854, V-B:PRO:540:N:9855, V-B:TYR:539:CE1:9846, V-B:PRO:540:CB:9856, H-B:TYR:539:N:9841, H-B:ALA:541:N:9862, V-B:TYR:539:CZ:9848, H-B:TYR:531:OH:9766, V-B:ASN:362:CB:8147"]

$$$$
1m_Grossjean_2025
     RDKit          3D

 20 20  0  0  0  0  0  0  0  0999 V2000
  123.9250  124.3460   59.6450 C   0  0  0  0  0  0  0  0  0  0  0  0
  123.9390  123.4990   60.7860 O   0  0  0  0  0  0  0  0  0  0  0  0
  124.8370  123.6940   61.7730 C   0  0  0  0  0  0  0  0  0  0  0  0
  124.7960  123.1760   62.8930 O   0  0  0  0  0  0  0  0  0  0  0  0
  125.9610  124.6550   61.3340 C   0  0  0  0  0  0  0  0  0  0  0  0
  127.2040  124.4660   62.0980 N   0  0  0  0  0  0  0  0  0  0  0  0
  128.0190  123.3970   62.0210 C   0  0  0  0  0  0  0  0  0  0  0  0
  127.7920  122.4310   61.2910 O   0  0  0  0  0  0  0  0  0  0  0  0
  129.2640  123.4490   62.9160 C   0  0  0  0  0  0  0  0  0  0  0  0
  130.1820  125.0260   62.8550 S   0  0  0  0  0  0  0  0  0  0  0  0
  130.7060  125.4220   64.5100 C   0  0  0  0  0  0  0  0  0  0  0  0
  129.6990  125.8610   65.3080 N   0  0  0  0  0  0  0  0  0  0  0  0
  129.9800  126.1860   66.5910 C   0  0  0  0  0  0  0  0  0  0  0  0
  128.8010  126.6490   67.4260 C   0  0  0  0  0  0  0  0  0  0  0  0
  131.2640  126.1000   67.1250 C   0  0  0  0  0  0  0  0  0  0  0  0
  132.3140  125.6740   66.3050 C   0  0  0  0  0  0  0  0  0  0  0  0
  133.7150  125.6030   66.9070 C   0  0  0  0  0  0  0  0  0  0  0  0
  132.0450  125.3300   64.9600 C   0  0  0  0  0  0  0  0  0  0  0  0
  133.1380  124.9300   64.0700 C   0  0  0  0  0  0  0  0  0  0  0  0
  134.0010  124.6130   63.3680 N   0  0  0  0  0  0  0  0  0  0  0  0
  1  2  1  0
  2  3  1  0
  3  4  2  0
  3  5  1  0
  5  6  1  0
  6  7  1  0
  7  8  2  0
  7  9  1  0
  9 10  1  0
 10 11  1  0
 11 12  2  0
 12 13  1  0
 13 14  1  0
 13 15  2  0
 15 16  1  0
 16 17  1  0
 16 18  2  0
 18 19  1  0
 19 20  3  0
 18 11  1  0
M  END
>  <Binding energies>  (13) 
[-5.96]

>  <Ligand effiencies>  (13) 
[-0.2838095238095238]

>  <Interactions>  (13) 
["V-A:HIS:456:CE1:4069, V-B:GLU:543:CD:9879, V-B:GLU:543:CB:9877, V-B:GLU:543:CG:9878, V-B:ASP:366:CG:8184, V-B:LEU:363:CA:8156, V-B:ASN:362:C:8143, V-B:PRO:540:CA:9854, V-B:ALA:541:CB:9863, V-B:PRO:540:CB:9856, H-B:ALA:541:N:9862, V-A:ARG:545:CZ:4926, H-A:GLY:454:N:4049, V-B:ASN:362:CB:8147, V-A:ARG:545:CD:4923, V-A:ARG:545:CG:4922, H-B:GLU:543:OE2:9881, H-B:LEU:363:N:8157, H-B:ASN:362:ND2:8150"]

$$$$
1n_Grossjean_2025
     RDKit          3D

 27 28  0  0  0  0  0  0  0  0999 V2000
  126.8840  122.4250   54.3740 C   0  0  0  0  0  0  0  0  0  0  0  0
  125.5290  122.3510   55.0850 C   0  0  0  0  0  0  0  0  0  0  0  0
  125.7260  121.9560   56.4380 O   0  0  0  0  0  0  0  0  0  0  0  0
  126.7680  122.4370   57.1630 C   0  0  0  0  0  0  0  0  0  0  0  0
  127.7440  121.7530   57.4870 O   0  0  0  0  0  0  0  0  0  0  0  0
  126.6220  123.8880   57.5230 C   0  0  0  0  0  0  0  0  0  0  0  0
  127.6270  124.8270   57.2430 C   0  0  0  0  0  0  0  0  0  0  0  0
  127.4610  126.1640   57.5920 C   0  0  0  0  0  0  0  0  0  0  0  0
  126.2960  126.5890   58.2320 C   0  0  0  0  0  0  0  0  0  0  0  0
  126.2360  127.9610   58.5450 N   0  0  0  0  0  0  0  0  0  0  0  0
  126.4990  129.0350   57.7700 C   0  0  0  0  0  0  0  0  0  0  0  0
  126.8500  128.9960   56.5910 O   0  0  0  0  0  0  0  0  0  0  0  0
  126.3330  130.4000   58.4510 C   0  0  0  0  0  0  0  0  0  0  0  0
  127.1460  131.5210   57.7680 C   0  0  0  0  0  0  0  0  0  0  0  0
  128.2310  132.4550   58.8890 S   0  0  0  0  0  0  0  0  0  0  0  0
  129.9110  132.1660   58.3780 C   0  0  0  0  0  0  0  0  0  0  0  0
  130.0570  132.0400   57.0350 N   0  0  0  0  0  0  0  0  0  0  0  0
  131.2960  131.8340   56.5310 C   0  0  0  0  0  0  0  0  0  0  0  0
  131.3830  131.7140   55.0220 C   0  0  0  0  0  0  0  0  0  0  0  0
  132.4290  131.7400   57.3360 C   0  0  0  0  0  0  0  0  0  0  0  0
  132.2870  131.8480   58.7240 C   0  0  0  0  0  0  0  0  0  0  0  0
  133.5410  131.7280   59.5880 C   0  0  0  0  0  0  0  0  0  0  0  0
  131.0010  132.0580   59.2730 C   0  0  0  0  0  0  0  0  0  0  0  0
  130.8220  132.1220   60.7250 C   0  0  0  0  0  0  0  0  0  0  0  0
  130.6830  132.1720   61.8730 N   0  0  0  0  0  0  0  0  0  0  0  0
  125.2840  125.6580   58.5060 C   0  0  0  0  0  0  0  0  0  0  0  0
  125.4500  124.3220   58.1530 C   0  0  0  0  0  0  0  0  0  0  0  0
  1  2  1  0
  2  3  1  0
  3  4  1  0
  4  5  2  0
  4  6  1  0
  6  7  2  0
  7  8  1  0
  8  9  2  0
  9 10  1  0
 10 11  1  0
 11 12  2  0
 11 13  1  0
 13 14  1  0
 14 15  1  0
 15 16  1  0
 16 17  2  0
 17 18  1  0
 18 19  1  0
 18 20  2  0
 20 21  1  0
 21 22  1  0
 21 23  2  0
 23 24  1  0
 24 25  3  0
  9 26  1  0
 26 27  2  0
 27  6  1  0
 23 16  1  0
M  END
>  <Binding energies>  (14) 
[-8.43]

>  <Ligand effiencies>  (14) 
[-0.30107142857142855]

>  <Interactions>  (14) 
["V-B:MET:535:CE:9806, V-B:ASP:366:CG:8184, V-B:LEU:363:CD1:8160, V-B:PRO:540:CA:9854, V-B:PRO:540:N:9855, V-B:TYR:539:CE1:9846, H-B:TYR:539:N:9841, V-B:TYR:539:C:9838, V-B:PRO:540:CD:9858, V-B:ILE:538:CA:9831, V-A:TYR:539:CE2:4876, H-B:TYR:531:OH:9766, V-A:PRO:540:N:4884, V-A:MET:535:CE:4835, V-B:TYR:539:CD1:9844, V-B:ASP:366:CB:8183, V-A:LEU:363:CA:3184, V-B:ILE:538:CG2:9834, V-A:PRO:540:CB:4885, V-A:LEU:363:CD1:3188, V-A:TYR:531:CE2:4793, V-A:ASP:366:CG:3212, V-A:PRO:540:CA:4883, V-B:ILE:538:CD1:9836, V-A:MET:535:CG:4833, H-B:ASP:366:OD2:8186, H-A:ALA:541:N:4891, V-A:TYR:539:CZ:4877, V-A:ILE:538:CB:4862, V-A:ILE:538:CG2:4863"]

$$$$
1q_Grossjean_2025
     RDKit          3D

 21 21  0  0  0  0  0  0  0  0999 V2000
  133.7010  124.9040   61.9720 C   0  0  0  0  0  0  0  0  0  0  0  0
  133.9720  124.1970   63.1740 O   0  0  0  0  0  0  0  0  0  0  0  0
  133.2510  124.4440   64.2950 C   0  0  0  0  0  0  0  0  0  0  0  0
  133.6740  125.0020   65.3090 O   0  0  0  0  0  0  0  0  0  0  0  0
  131.7970  123.9300   64.2340 C   0  0  0  0  0  0  0  0  0  0  0  0
  131.5800  122.9470   63.1620 N   0  0  0  0  0  0  0  0  0  0  0  0
  130.3900  122.4420   62.7830 C   0  0  0  0  0  0  0  0  0  0  0  0
  129.3240  122.7630   63.3110 O   0  0  0  0  0  0  0  0  0  0  0  0
  130.4250  121.4360   61.6240 C   0  0  0  0  0  0  0  0  0  0  0  0
  129.0720  121.2420   60.9120 C   0  0  0  0  0  0  0  0  0  0  0  0
  128.7260  122.5050   59.6500 S   0  0  0  0  0  0  0  0  0  0  0  0
  127.0540  123.0800   59.8660 C   0  0  0  0  0  0  0  0  0  0  0  0
  126.6560  123.1060   61.1640 N   0  0  0  0  0  0  0  0  0  0  0  0
  125.4020  123.5230   61.4540 C   0  0  0  0  0  0  0  0  0  0  0  0
  125.0250  123.5080   62.9240 C   0  0  0  0  0  0  0  0  0  0  0  0
  124.5030  123.9380   60.4740 C   0  0  0  0  0  0  0  0  0  0  0  0
  124.9100  123.9400   59.1370 C   0  0  0  0  0  0  0  0  0  0  0  0
  123.9110  124.4180   58.0820 C   0  0  0  0  0  0  0  0  0  0  0  0
  126.2160  123.5110   58.8090 C   0  0  0  0  0  0  0  0  0  0  0  0
  126.6770  123.5600   57.4200 C   0  0  0  0  0  0  0  0  0  0  0  0
  127.0390  123.6010   56.3220 N   0  0  0  0  0  0  0  0  0  0  0  0
  1  2  1  0
  2  3  1  0
  3  4  2  0
  3  5  1  0
  5  6  1  0
  6  7  1  0
  7  8  2  0
  7  9  1  0
  9 10  1  0
 10 11  1  0
 11 12  1  0
 12 13  2  0
 13 14  1  0
 14 15  1  0
 14 16  2  0
 16 17  1  0
 17 18  1  0
 17 19  2  0
 19 20  1  0
 20 21  3  0
 19 12  1  0
M  END
>  <Binding energies>  (15) 
[-6.39]

>  <Ligand effiencies>  (15) 
[-0.29045454545454547]

>  <Interactions>  (15) 
["V-B:GLU:543:CD:9879, V-B:GLU:543:CG:9878, V-B:LEU:363:CA:8156, V-B:LEU:363:CD1:8160, V-B:ASN:362:C:8143, V-B:TYR:539:CD2:9845, V-B:PRO:540:CA:9854, V-B:PRO:540:C:9852, V-B:ALA:541:CB:9863, V-B:PRO:540:N:9855, V-A:LEU:475:CD2:4258, V-B:PRO:540:CB:9856, H-B:ALA:541:N:9862, V-B:TYR:539:C:9838, H-A:GLY:454:N:4049, V-B:ASN:362:CB:8147, V-A:ASP:366:CG:3212, H-A:TYR:484:OH:4347, V-A:GLY:454:CA:4048, V-A:ILE:369:CD1:3238, V-B:ALA:541:C:9859, V-B:ALA:541:CA:9861, V-B:ASN:362:CG:8148, V-B:TYR:531:CE2:9764, H-A:ARG:545:NE:4924, V-B:LEU:363:CB:8158"]

$$$$
2a_Grossjean_2025
     RDKit          3D

 29 30  0  0  0  0  0  0  0  0999 V2000
  123.9540  124.6290   58.3730 C   0  0  0  0  0  0  0  0  0  0  0  0
  124.6560  124.1880   57.0860 C   0  0  0  0  0  0  0  0  0  0  0  0
  125.1510  122.8640   57.2500 O   0  0  0  0  0  0  0  0  0  0  0  0
  126.3700  122.5070   56.7690 C   0  0  0  0  0  0  0  0  0  0  0  0
  126.5290  121.8480   55.7370 O   0  0  0  0  0  0  0  0  0  0  0  0
  127.5080  123.0150   57.6080 C   0  0  0  0  0  0  0  0  0  0  0  0
  127.8590  122.4120   58.8250 C   0  0  0  0  0  0  0  0  0  0  0  0
  128.9180  122.9080   59.5790 C   0  0  0  0  0  0  0  0  0  0  0  0
  129.6420  124.0180   59.1400 C   0  0  0  0  0  0  0  0  0  0  0  0
  130.6810  124.4410   59.9890 N   0  0  0  0  0  0  0  0  0  0  0  0
  132.0160  124.4590   59.7850 C   0  0  0  0  0  0  0  0  0  0  0  0
  132.5900  124.0610   58.7700 O   0  0  0  0  0  0  0  0  0  0  0  0
  132.8530  125.0270   60.9360 C   0  0  0  0  0  0  0  0  0  0  0  0
  133.1580  123.8200   62.2690 S   0  0  0  0  0  0  0  0  0  0  0  0
  132.8440  124.5810   63.8580 C   0  0  0  0  0  0  0  0  0  0  0  0
  133.9250  124.7230   64.6660 N   0  0  0  0  0  0  0  0  0  0  0  0
  133.7590  125.2800   65.8870 C   0  0  0  0  0  0  0  0  0  0  0  0
  135.0080  125.3790   66.7430 C   0  0  0  0  0  0  0  0  0  0  0  0
  132.5230  125.7240   66.3490 C   0  0  0  0  0  0  0  0  0  0  0  0
  131.3940  125.5950   65.5260 C   0  0  0  0  0  0  0  0  0  0  0  0
  130.0330  126.0920   66.0510 C   0  0  0  0  0  0  0  0  0  0  0  0
  130.1930  126.7130   67.2200 F   0  0  0  0  0  0  0  0  0  0  0  0
  129.4910  126.9430   65.1780 F   0  0  0  0  0  0  0  0  0  0  0  0
  129.1600  125.1000   66.2390 F   0  0  0  0  0  0  0  0  0  0  0  0
  131.5530  125.0100   64.2440 C   0  0  0  0  0  0  0  0  0  0  0  0
  130.4060  124.8480   63.3450 C   0  0  0  0  0  0  0  0  0  0  0  0
  129.5000  124.7210   62.6350 N   0  0  0  0  0  0  0  0  0  0  0  0
  129.3020  124.6210   57.9210 C   0  0  0  0  0  0  0  0  0  0  0  0
  128.2450  124.1210   57.1650 C   0  0  0  0  0  0  0  0  0  0  0  0
  1  2  1  0
  2  3  1  0
  3  4  1  0
  4  5  2  0
  4  6  1  0
  6  7  2  0
  7  8  1  0
  8  9  2  0
  9 10  1  0
 10 11  1  0
 11 12  2  0
 11 13  1  0
 13 14  1  0
 14 15  1  0
 15 16  2  0
 16 17  1  0
 17 18  1  0
 17 19  2  0
 19 20  1  0
 20 21  1  0
 21 22  1  0
 21 23  1  0
 21 24  1  0
 20 25  2  0
 25 26  1  0
 26 27  3  0
  9 28  1  0
 28 29  2  0
 29  6  1  0
 25 15  1  0
M  END
>  <Binding energies>  (16) 
[-7.6]

>  <Ligand effiencies>  (16) 
[-0.2533333333333333]

>  <Interactions>  (16) 
["V-A:HIS:456:CE1:4069, V-B:GLU:543:CD:9879, V-A:GLU:543:CD:4908, V-B:GLU:543:CB:9877, V-B:GLU:543:CG:9878, V-B:MET:535:CE:9806, V-B:LEU:363:CA:8156, V-B:LEU:363:CD1:8160, V-B:TYR:539:CD2:9845, V-B:PRO:540:CA:9854, V-B:TYR:539:CE2:9847, V-B:PRO:540:N:9855, V-B:TYR:539:CE1:9846, H-B:TYR:539:N:9841, V-B:TYR:539:CZ:9848, V-B:TYR:539:C:9838, V-B:PRO:540:CD:9858, V-A:ARG:545:CZ:4926, H-B:TYR:539:OH:9849, V-B:ASP:366:CB:8183, H-A:GLY:454:N:4049, V-A:ASP:366:CG:3212, H-A:TYR:484:OH:4347, V-A:GLY:454:CA:4048, V-B:TYR:531:CZ:9765, V-B:TYR:531:CE2:9764, V-A:ARG:545:CD:4923, V-A:ILE:455:C:4051, V-A:ARG:545:CG:4922, V-A:GLY:453:C:4041, V-A:GLY:453:CA:4043"]

$$$$
2b_Grossjean_2025
     RDKit          3D

 28 29  0  0  0  0  0  0  0  0999 V2000
  124.8000  124.2340   57.5800 C   0  0  0  0  0  0  0  0  0  0  0  0
  125.1370  122.8950   57.2440 O   0  0  0  0  0  0  0  0  0  0  0  0
  126.3700  122.5820   56.7700 C   0  0  0  0  0  0  0  0  0  0  0  0
  126.5590  121.9860   55.7050 O   0  0  0  0  0  0  0  0  0  0  0  0
  127.4830  123.0290   57.6730 C   0  0  0  0  0  0  0  0  0  0  0  0
  128.3430  124.0810   57.3260 C   0  0  0  0  0  0  0  0  0  0  0  0
  129.3670  124.4700   58.1850 C   0  0  0  0  0  0  0  0  0  0  0  0
  129.5490  123.8240   59.4070 C   0  0  0  0  0  0  0  0  0  0  0  0
  130.6170  124.2930   60.1960 N   0  0  0  0  0  0  0  0  0  0  0  0
  131.8610  124.6670   59.8280 C   0  0  0  0  0  0  0  0  0  0  0  0
  132.3040  124.6360   58.6790 O   0  0  0  0  0  0  0  0  0  0  0  0
  132.7630  125.1460   60.9690 C   0  0  0  0  0  0  0  0  0  0  0  0
  132.9940  123.8930   62.2740 S   0  0  0  0  0  0  0  0  0  0  0  0
  132.7390  124.6320   63.8810 C   0  0  0  0  0  0  0  0  0  0  0  0
  133.8450  124.7470   64.6590 N   0  0  0  0  0  0  0  0  0  0  0  0
  133.7250  125.2920   65.8900 C   0  0  0  0  0  0  0  0  0  0  0  0
  135.0050  125.3730   66.7010 C   0  0  0  0  0  0  0  0  0  0  0  0
  132.5110  125.7510   66.3930 C   0  0  0  0  0  0  0  0  0  0  0  0
  131.3550  125.6490   65.6040 C   0  0  0  0  0  0  0  0  0  0  0  0
  130.0210  126.1660   66.1740 C   0  0  0  0  0  0  0  0  0  0  0  0
  129.4670  127.0330   65.3250 F   0  0  0  0  0  0  0  0  0  0  0  0
  129.1780  125.1480   66.3630 F   0  0  0  0  0  0  0  0  0  0  0  0
  130.1650  126.7880   67.3460 F   0  0  0  0  0  0  0  0  0  0  0  0
  131.4660  125.0730   64.3130 C   0  0  0  0  0  0  0  0  0  0  0  0
  130.2900  124.9360   63.4480 C   0  0  0  0  0  0  0  0  0  0  0  0
  129.3620  124.8290   62.7650 N   0  0  0  0  0  0  0  0  0  0  0  0
  128.6980  122.7650   59.7590 C   0  0  0  0  0  0  0  0  0  0  0  0
  127.6760  122.3770   58.8980 C   0  0  0  0  0  0  0  0  0  0  0  0
  1  2  1  0
  2  3  1  0
  3  4  2  0
  3  5  1  0
  5  6  2  0
  6  7  1  0
  7  8  2  0
  8  9  1  0
  9 10  1  0
 10 11  2  0
 10 12  1  0
 12 13  1  0
 13 14  1  0
 14 15  2  0
 15 16  1  0
 16 17  1  0
 16 18  2  0
 18 19  1  0
 19 20  1  0
 20 21  1  0
 20 22  1  0
 20 23  1  0
 19 24  2  0
 24 25  1  0
 25 26  3  0
  8 27  1  0
 27 28  2  0
 28  5  1  0
 24 14  1  0
M  END
>  <Binding energies>  (17) 
[-7.12]

>  <Ligand effiencies>  (17) 
[-0.24551724137931036]

>  <Interactions>  (17) 
["V-A:HIS:456:CE1:4069, V-B:GLU:543:CD:9879, V-A:GLU:543:CD:4908, V-B:GLU:543:CB:9877, V-B:GLU:543:CG:9878, V-B:LEU:363:CD1:8160, V-B:TYR:539:CD2:9845, V-B:PRO:540:CA:9854, V-B:TYR:539:CE2:9847, V-B:PRO:540:N:9855, V-B:TYR:539:CE1:9846, H-B:TYR:539:N:9841, V-B:TYR:539:CZ:9848, V-B:TYR:539:C:9838, V-B:PRO:540:CD:9858, V-A:ARG:545:CZ:4926, H-B:TYR:539:OH:9849, H-A:GLY:454:N:4049, V-A:ASP:366:CG:3212, H-A:TYR:484:OH:4347, V-A:GLY:454:CA:4048, V-A:ARG:545:CD:4923, V-A:ILE:455:C:4051, V-A:ARG:545:CG:4922, V-A:GLY:453:C:4041, V-A:GLY:453:CA:4043"]

$$$$
2c_Grossjean_2025
     RDKit          3D

 26 27  0  0  0  0  0  0  0  0999 V2000
  125.7690  122.8460   55.9200 C   0  0  0  0  0  0  0  0  0  0  0  0
  126.6600  122.0150   56.6570 O   0  0  0  0  0  0  0  0  0  0  0  0
  127.5750  122.5990   57.5110 C   0  0  0  0  0  0  0  0  0  0  0  0
  128.1380  123.8040   57.0900 C   0  0  0  0  0  0  0  0  0  0  0  0
  129.0720  124.4680   57.8820 C   0  0  0  0  0  0  0  0  0  0  0  0
  129.4630  123.9190   59.1110 C   0  0  0  0  0  0  0  0  0  0  0  0
  130.3840  124.5240   59.9860 N   0  0  0  0  0  0  0  0  0  0  0  0
  131.6290  124.9740   59.7190 C   0  0  0  0  0  0  0  0  0  0  0  0
  132.1940  124.8690   58.6290 O   0  0  0  0  0  0  0  0  0  0  0  0
  132.3530  125.6180   60.9110 C   0  0  0  0  0  0  0  0  0  0  0  0
  133.1680  124.4520   62.0580 S   0  0  0  0  0  0  0  0  0  0  0  0
  132.8640  124.9670   63.7440 C   0  0  0  0  0  0  0  0  0  0  0  0
  133.9550  125.0040   64.5530 N   0  0  0  0  0  0  0  0  0  0  0  0
  133.7990  125.3750   65.8420 C   0  0  0  0  0  0  0  0  0  0  0  0
  135.0610  125.3750   66.6840 C   0  0  0  0  0  0  0  0  0  0  0  0
  132.5640  125.7320   66.3770 C   0  0  0  0  0  0  0  0  0  0  0  0
  131.4250  125.7090   65.5590 C   0  0  0  0  0  0  0  0  0  0  0  0
  130.0660  126.1080   66.1660 C   0  0  0  0  0  0  0  0  0  0  0  0
  129.4810  127.0340   65.4050 F   0  0  0  0  0  0  0  0  0  0  0  0
  129.2670  125.0420   66.2410 F   0  0  0  0  0  0  0  0  0  0  0  0
  130.1790  126.6130   67.3970 F   0  0  0  0  0  0  0  0  0  0  0  0
  131.5730  125.3160   64.2050 C   0  0  0  0  0  0  0  0  0  0  0  0
  130.4160  125.2710   63.3040 C   0  0  0  0  0  0  0  0  0  0  0  0
  129.5030  125.2360   62.5940 N   0  0  0  0  0  0  0  0  0  0  0  0
  128.8920  122.7210   59.5440 C   0  0  0  0  0  0  0  0  0  0  0  0
  127.9580  122.0610   58.7500 C   0  0  0  0  0  0  0  0  0  0  0  0
  1  2  1  0
  2  3  1  0
  3  4  2  0
  4  5  1  0
  5  6  2  0
  6  7  1  0
  7  8  1  0
  8  9  2  0
  8 10  1  0
 10 11  1  0
 11 12  1  0
 12 13  2  0
 13 14  1  0
 14 15  1  0
 14 16  2  0
 16 17  1  0
 17 18  1  0
 18 19  1  0
 18 20  1  0
 18 21  1  0
 17 22  2  0
 22 23  1  0
 23 24  3  0
  6 25  1  0
 25 26  2  0
 26  3  1  0
 22 12  1  0
M  END
>  <Binding energies>  (18) 
[-6.37]

>  <Ligand effiencies>  (18) 
[-0.23592592592592593]

>  <Interactions>  (18) 
["V-A:HIS:456:CE1:4069, V-B:GLU:543:CD:9879, V-A:GLU:543:CD:4908, V-B:GLU:543:CB:9877, V-B:GLU:543:CG:9878, V-B:MET:535:CE:9806, V-B:LEU:363:CD1:8160, V-B:TYR:539:CD2:9845, V-B:PRO:540:CA:9854, V-B:TYR:539:CE2:9847, V-B:PRO:540:N:9855, V-B:TYR:539:CE1:9846, H-B:TYR:539:N:9841, V-B:TYR:539:CZ:9848, V-A:ASP:366:CB:3211, V-B:TYR:539:C:9838, V-A:ARG:545:CZ:4926, H-B:TYR:539:OH:9849, V-B:TYR:539:CD1:9844, H-A:GLY:454:N:4049, V-A:ASP:366:CG:3212, V-B:TYR:539:CG:9843, V-A:GLY:454:CA:4048, H-A:ARG:545:NH1:4927, V-A:ARG:545:CD:4923, V-A:ILE:455:C:4051, V-A:ARG:545:CG:4922, V-A:GLY:453:C:4041, V-A:GLY:453:CA:4043"]

$$$$
2d_Ghoteimi_2023
     RDKit          3D

 38 42  0  0  0  0  0  0  0  0999 V2000
  124.3100  130.2030   63.5960 C   0  0  0  0  0  0  0  0  0  0  0  0
  123.8000  129.8970   64.8840 O   0  0  0  0  0  0  0  0  0  0  0  0
  124.6330  129.7520   65.9350 C   0  0  0  0  0  0  0  0  0  0  0  0
  124.3080  129.8300   67.1240 O   0  0  0  0  0  0  0  0  0  0  0  0
  126.0700  129.4650   65.4730 C   0  0  0  0  0  0  0  0  0  0  0  0
  127.2770  129.8540   66.7860 S   0  0  0  0  0  0  0  0  0  0  0  0
  128.2230  128.3850   67.1300 C   0  0  0  0  0  0  0  0  0  0  0  0
  128.3320  128.1160   68.4540 N   0  0  0  0  0  0  0  0  0  0  0  0
  129.0330  127.0280   68.8620 C   0  0  0  0  0  0  0  0  0  0  0  0
  129.1240  126.8060   70.3380 C   0  0  0  0  0  0  0  0  0  0  0  0
  129.8980  127.6530   71.1390 C   0  0  0  0  0  0  0  0  0  0  0  0
  129.9880  127.4520   72.5140 C   0  0  0  0  0  0  0  0  0  0  0  0
  129.2970  126.4030   73.1390 C   0  0  0  0  0  0  0  0  0  0  0  0
  129.3900  126.1760   74.5170 N   0  0  0  0  0  0  0  0  0  0  0  0
  130.2890  125.1440   75.0700 C   0  0  0  0  0  0  0  0  0  0  0  0
  129.9870  124.7860   76.5400 C   0  0  0  0  0  0  0  0  0  0  0  0
  130.0120  125.9580   77.3390 O   0  0  0  0  0  0  0  0  0  0  0  0
  129.0410  126.8990   76.9140 C   0  0  0  0  0  0  0  0  0  0  0  0
  129.3100  127.3160   75.4530 C   0  0  0  0  0  0  0  0  0  0  0  0
  128.5340  125.5490   72.3300 C   0  0  0  0  0  0  0  0  0  0  0  0
  128.4460  125.7480   70.9560 C   0  0  0  0  0  0  0  0  0  0  0  0
  129.6430  126.1750   67.9390 C   0  0  0  0  0  0  0  0  0  0  0  0
  129.5180  126.4110   66.5640 C   0  0  0  0  0  0  0  0  0  0  0  0
  130.1730  125.4430   65.6350 C   0  0  0  0  0  0  0  0  0  0  0  0
  129.8280  124.0910   65.6730 C   0  0  0  0  0  0  0  0  0  0  0  0
  130.4230  123.1810   64.8030 C   0  0  0  0  0  0  0  0  0  0  0  0
  131.3860  123.6000   63.8700 C   0  0  0  0  0  0  0  0  0  0  0  0
  131.9870  122.7070   62.9790 N   0  0  0  0  0  0  0  0  0  0  0  0
  131.1810  121.8490   62.0890 C   0  0  0  0  0  0  0  0  0  0  0  0
  131.9980  121.2090   60.9460 C   0  0  0  0  0  0  0  0  0  0  0  0
  133.1010  120.4930   61.4790 O   0  0  0  0  0  0  0  0  0  0  0  0
  133.9670  121.3390   62.2200 C   0  0  0  0  0  0  0  0  0  0  0  0
  133.2000  121.9790   63.3980 C   0  0  0  0  0  0  0  0  0  0  0  0
  131.7130  124.9620   63.8280 C   0  0  0  0  0  0  0  0  0  0  0  0
  131.1170  125.8710   64.6970 C   0  0  0  0  0  0  0  0  0  0  0  0
  128.7830  127.5460   66.1380 C   0  0  0  0  0  0  0  0  0  0  0  0
  128.6070  127.8250   64.7100 C   0  0  0  0  0  0  0  0  0  0  0  0
  128.4710  128.0410   63.5810 N   0  0  0  0  0  0  0  0  0  0  0  0
  1  2  1  0
  2  3  1  0
  3  4  2  0
  3  5  1  0
  5  6  1  0
  6  7  1  0
  7  8  2  0
  8  9  1  0
  9 10  1  0
 10 11  2  0
 11 12  1  0
 12 13  2  0
 13 14  1  0
 14 15  1  0
 15 16  1  0
 16 17  1  0
 17 18  1  0
 18 19  1  0
 13 20  1  0
 20 21  2  0
  9 22  2  0
 22 23  1  0
 23 24  1  0
 24 25  2  0
 25 26  1  0
 26 27  2  0
 27 28  1  0
 28 29  1  0
 29 30  1  0
 30 31  1  0
 31 32  1  0
 32 33  1  0
 27 34  1  0
 34 35  2  0
 23 36  2  0
 36 37  1  0
 37 38  3  0
 36  7  1  0
 21 10  1  0
 35 24  1  0
 19 14  1  0
 33 28  1  0
M  END
>  <Binding energies>  (19) 
[-8.57]

>  <Ligand effiencies>  (19) 
[-0.22552631578947369]

>  <Interactions>  (19) 
["V-A:HIS:456:CE1:4069, V-A:GLU:543:CG:4907, V-A:HIS:456:CD2:4067, V-B:GLU:543:CD:9879, V-A:GLU:543:CD:4908, V-B:HIS:456:CE1:9041, V-B:LYS:547:CE:9921, V-B:GLU:543:CB:9877, V-B:GLU:543:CG:9878, V-B:TYR:539:CD2:9845, V-B:TYR:539:CE2:9847, V-B:ALA:541:CB:9863, V-A:LEU:475:CD2:4258, V-A:ILE:369:CG2:3236, V-A:TYR:484:CE1:4344, V-A:GLY:454:CA:4048, V-A:ILE:369:CD1:3238, H-B:TYR:484:OH:9319, H-B:ARG:545:NE:9895, H-B:GLY:454:N:9021, H-B:ARG:545:NH2:9899, V-B:ARG:545:CZ:9897, V-B:ARG:545:CD:9894, H-B:ARG:545:NH1:9898"]

$$$$
2d_Grossjean_2025
     RDKit          3D

 24 25  0  0  0  0  0  0  0  0999 V2000
  126.6870  128.2260   58.8090 C   0  0  0  0  0  0  0  0  0  0  0  0
  126.5760  126.8740   58.1280 C   0  0  0  0  0  0  0  0  0  0  0  0
  127.4900  126.4680   57.1590 C   0  0  0  0  0  0  0  0  0  0  0  0
  127.3480  125.2070   56.5630 C   0  0  0  0  0  0  0  0  0  0  0  0
  128.3750  124.7710   55.4990 C   0  0  0  0  0  0  0  0  0  0  0  0
  129.4770  124.3100   56.0920 F   0  0  0  0  0  0  0  0  0  0  0  0
  127.8600  123.8060   54.7350 F   0  0  0  0  0  0  0  0  0  0  0  0
  128.7400  125.7690   54.6930 F   0  0  0  0  0  0  0  0  0  0  0  0
  126.2640  124.3850   56.9650 C   0  0  0  0  0  0  0  0  0  0  0  0
  126.0980  123.0400   56.4060 C   0  0  0  0  0  0  0  0  0  0  0  0
  125.9690  121.9780   55.9650 N   0  0  0  0  0  0  0  0  0  0  0  0
  125.3710  124.8910   57.9390 C   0  0  0  0  0  0  0  0  0  0  0  0
  123.9430  124.0060   58.5350 S   0  0  0  0  0  0  0  0  0  0  0  0
  123.8740  124.1600   60.3500 C   0  0  0  0  0  0  0  0  0  0  0  0
  125.0590  123.4920   61.0530 C   0  0  0  0  0  0  0  0  0  0  0  0
  124.8460  122.7570   62.0190 O   0  0  0  0  0  0  0  0  0  0  0  0
  126.2780  123.7970   60.5600 N   0  0  0  0  0  0  0  0  0  0  0  0
  127.5440  123.3470   60.9800 C   0  0  0  0  0  0  0  0  0  0  0  0
  128.2350  122.5340   60.0780 C   0  0  0  0  0  0  0  0  0  0  0  0
  129.4930  122.0350   60.4050 C   0  0  0  0  0  0  0  0  0  0  0  0
  130.0570  122.3430   61.6410 C   0  0  0  0  0  0  0  0  0  0  0  0
  129.3720  123.1420   62.5530 C   0  0  0  0  0  0  0  0  0  0  0  0
  128.1150  123.6430   62.2290 C   0  0  0  0  0  0  0  0  0  0  0  0
  125.5360  126.1040   58.5200 N   0  0  0  0  0  0  0  0  0  0  0  0
  1  2  1  0
  2  3  2  0
  3  4  1  0
  4  5  1  0
  5  6  1  0
  5  7  1  0
  5  8  1  0
  4  9  2  0
  9 10  1  0
 10 11  3  0
  9 12  1  0
 12 13  1  0
 13 14  1  0
 14 15  1  0
 15 16  2  0
 15 17  1  0
 17 18  1  0
 18 19  2  0
 19 20  1  0
 20 21  2  0
 21 22  1  0
 22 23  2  0
 12 24  2  0
 24  2  1  0
 23 18  1  0
M  END
>  <Binding energies>  (20) 
[-6.28]

>  <Ligand effiencies>  (20) 
[-0.25120000000000003]

>  <Interactions>  (20) 
["V-B:MET:535:CE:9806, V-B:ASP:366:CG:8184, V-B:LEU:363:CA:8156, V-B:ASN:362:C:8143, V-B:TYR:539:CD2:9845, V-B:PRO:540:CA:9854, V-B:TYR:539:CE2:9847, V-B:ALA:541:CB:9863, V-B:TYR:539:CE1:9846, V-B:PRO:540:CB:9856, H-B:TYR:539:N:9841, H-B:ALA:541:N:9862, V-B:TYR:539:CZ:9848, H-B:TYR:531:OH:9766, V-B:TYR:539:CD1:9844, V-B:ASN:362:CB:8147, H-B:ASP:366:OD2:8186, V-B:MET:535:CG:9804"]

$$$$
2e_Grossjean_2025
     RDKit          3D

 25 26  0  0  0  0  0  0  0  0999 V2000
  129.6440  120.6060   61.1290 C   0  0  0  0  0  0  0  0  0  0  0  0
  129.2180  122.0280   61.4390 C   0  0  0  0  0  0  0  0  0  0  0  0
  130.0610  122.9140   62.1140 C   0  0  0  0  0  0  0  0  0  0  0  0
  129.6060  124.2110   62.3540 C   0  0  0  0  0  0  0  0  0  0  0  0
  128.3320  124.5870   61.9200 C   0  0  0  0  0  0  0  0  0  0  0  0
  127.5350  123.6460   61.2580 C   0  0  0  0  0  0  0  0  0  0  0  0
  126.2810  124.0900   60.8050 N   0  0  0  0  0  0  0  0  0  0  0  0
  125.0580  123.6400   61.1640 C   0  0  0  0  0  0  0  0  0  0  0  0
  124.8440  122.7900   62.0290 O   0  0  0  0  0  0  0  0  0  0  0  0
  123.8770  124.2250   60.3830 C   0  0  0  0  0  0  0  0  0  0  0  0
  124.0080  123.8930   58.5970 S   0  0  0  0  0  0  0  0  0  0  0  0
  125.4050  124.8430   58.0380 C   0  0  0  0  0  0  0  0  0  0  0  0
  125.4950  126.0850   58.5760 N   0  0  0  0  0  0  0  0  0  0  0  0
  126.5030  126.8910   58.1710 C   0  0  0  0  0  0  0  0  0  0  0  0
  126.5450  128.2640   58.8130 C   0  0  0  0  0  0  0  0  0  0  0  0
  127.4460  126.4990   57.2220 C   0  0  0  0  0  0  0  0  0  0  0  0
  127.3600  125.2210   56.6500 C   0  0  0  0  0  0  0  0  0  0  0  0
  128.3960  124.8110   55.5870 C   0  0  0  0  0  0  0  0  0  0  0  0
  128.7250  125.8640   54.8370 F   0  0  0  0  0  0  0  0  0  0  0  0
  129.4950  124.3420   56.1790 F   0  0  0  0  0  0  0  0  0  0  0  0
  127.9440  123.8600   54.7670 F   0  0  0  0  0  0  0  0  0  0  0  0
  126.3130  124.3630   57.0670 C   0  0  0  0  0  0  0  0  0  0  0  0
  126.1520  123.0260   56.4850 C   0  0  0  0  0  0  0  0  0  0  0  0
  126.0240  121.9720   56.0250 N   0  0  0  0  0  0  0  0  0  0  0  0
  127.9770  122.3780   61.0120 N   0  0  0  0  0  0  0  0  0  0  0  0
  1  2  1  0
  2  3  2  0
  3  4  1  0
  4  5  2  0
  5  6  1  0
  6  7  1  0
  7  8  1  0
  8  9  2  0
  8 10  1  0
 10 11  1  0
 11 12  1  0
 12 13  2  0
 13 14  1  0
 14 15  1  0
 14 16  2  0
 16 17  1  0
 17 18  1  0
 18 19  1  0
 18 20  1  0
 18 21  1  0
 17 22  2  0
 22 23  1  0
 23 24  3  0
  6 25  2  0
 25  2  1  0
 22 12  1  0
M  END
>  <Binding energies>  (21) 
[-6.65]

>  <Ligand effiencies>  (21) 
[-0.2557692307692308]

>  <Interactions>  (21) 
["V-B:MET:535:CE:9806, V-B:ASP:366:CG:8184, V-B:LEU:363:CA:8156, V-B:ASN:362:C:8143, V-B:TYR:539:CD2:9845, V-B:PRO:540:CA:9854, V-B:TYR:539:CE2:9847, V-B:ALA:541:CB:9863, V-B:TYR:539:CE1:9846, V-B:PRO:540:CB:9856, H-B:TYR:539:N:9841, H-B:ALA:541:N:9862, V-B:TYR:539:CZ:9848, H-B:TYR:531:OH:9766, V-B:TYR:539:CD1:9844, V-B:ASN:362:CB:8147, H-B:ASP:366:OD2:8186"]

$$$$
2f_Grossjean_2025
     RDKit          3D

 24 25  0  0  0  0  0  0  0  0999 V2000
  128.9010  121.2440   60.7490 C   0  0  0  0  0  0  0  0  0  0  0  0
  128.4390  122.6470   60.4010 C   0  0  0  0  0  0  0  0  0  0  0  0
  129.1710  123.4640   59.5420 C   0  0  0  0  0  0  0  0  0  0  0  0
  128.7060  124.7570   59.2570 C   0  0  0  0  0  0  0  0  0  0  0  0
  129.5360  125.6500   58.3150 C   0  0  0  0  0  0  0  0  0  0  0  0
  128.7860  126.0520   57.2870 F   0  0  0  0  0  0  0  0  0  0  0  0
  129.9760  126.7210   58.9740 F   0  0  0  0  0  0  0  0  0  0  0  0
  130.6000  125.0220   57.8110 F   0  0  0  0  0  0  0  0  0  0  0  0
  127.4930  125.1880   59.8520 C   0  0  0  0  0  0  0  0  0  0  0  0
  126.9960  126.5480   59.6310 C   0  0  0  0  0  0  0  0  0  0  0  0
  126.6030  127.6230   59.4540 N   0  0  0  0  0  0  0  0  0  0  0  0
  126.8030  124.2800   60.6910 C   0  0  0  0  0  0  0  0  0  0  0  0
  125.2640  124.6470   61.5100 S   0  0  0  0  0  0  0  0  0  0  0  0
  123.9010  124.1640   60.3960 C   0  0  0  0  0  0  0  0  0  0  0  0
  124.2570  124.1410   58.9030 C   0  0  0  0  0  0  0  0  0  0  0  0
  123.6080  124.8040   58.0930 O   0  0  0  0  0  0  0  0  0  0  0  0
  125.2960  123.3380   58.5870 N   0  0  0  0  0  0  0  0  0  0  0  0
  125.8870  123.0910   57.3340 C   0  0  0  0  0  0  0  0  0  0  0  0
  126.9540  123.8200   56.7760 C   0  0  0  0  0  0  0  0  0  0  0  0
  127.4510  123.4660   55.5200 C   0  0  0  0  0  0  0  0  0  0  0  0
  126.8720  122.3860   54.8530 C   0  0  0  0  0  0  0  0  0  0  0  0
  125.8490  121.6620   55.3730 N   0  0  0  0  0  0  0  0  0  0  0  0
  125.3770  122.0180   56.5940 C   0  0  0  0  0  0  0  0  0  0  0  0
  127.2790  123.0430   60.9730 N   0  0  0  0  0  0  0  0  0  0  0  0
  1  2  1  0
  2  3  2  0
  3  4  1  0
  4  5  1  0
  5  6  1  0
  5  7  1  0
  5  8  1  0
  4  9  2  0
  9 10  1  0
 10 11  3  0
  9 12  1  0
 12 13  1  0
 13 14  1  0
 14 15  1  0
 15 16  2  0
 15 17  1  0
 17 18  1  0
 18 19  2  0
 19 20  1  0
 20 21  2  0
 21 22  1  0
 22 23  2  0
 12 24  2  0
 24  2  1  0
 23 18  1  0
M  END
>  <Binding energies>  (22) 
[-6.24]

>  <Ligand effiencies>  (22) 
[-0.24960000000000002]

>  <Interactions>  (22) 
["V-B:MET:535:CE:9806, V-B:ASP:366:CG:8184, V-B:LEU:363:CA:8156, V-B:LEU:363:CD1:8160, V-B:ASN:362:C:8143, V-B:TYR:539:CD2:9845, V-B:PRO:540:CA:9854, V-B:TYR:539:CE2:9847, V-B:PRO:540:C:9852, V-B:ALA:541:CB:9863, V-B:PRO:540:N:9855, V-B:TYR:539:CE1:9846, V-B:PRO:540:CB:9856, H-B:TYR:539:N:9841, H-B:ALA:541:N:9862, V-B:TYR:539:CZ:9848, V-B:TYR:539:C:9838, V-B:PRO:540:CD:9858, V-B:ILE:538:CA:9831, H-B:TYR:531:OH:9766, V-B:PRO:540:CG:9857, V-B:TYR:539:CD1:9844, V-B:ILE:538:CG2:9834, V-B:ASN:362:CB:8147, V-B:ILE:538:CD1:9836, V-B:ALA:541:CA:9861, H-B:ARG:545:NH2:9899"]

$$$$
2g_Grossjean_2025
     RDKit          3D

 25 26  0  0  0  0  0  0  0  0999 V2000
  132.9420  124.9590   58.2760 C   0  0  0  0  0  0  0  0  0  0  0  0
  132.7390  124.3460   59.6490 C   0  0  0  0  0  0  0  0  0  0  0  0
  133.2360  124.9530   60.8000 C   0  0  0  0  0  0  0  0  0  0  0  0
  133.0280  124.3420   62.0460 C   0  0  0  0  0  0  0  0  0  0  0  0
  133.5930  125.0240   63.3080 C   0  0  0  0  0  0  0  0  0  0  0  0
  134.8580  125.3940   63.1050 F   0  0  0  0  0  0  0  0  0  0  0  0
  132.8680  126.1040   63.6010 F   0  0  0  0  0  0  0  0  0  0  0  0
  133.5770  124.2250   64.3770 F   0  0  0  0  0  0  0  0  0  0  0  0
  132.3050  123.1220   62.0920 C   0  0  0  0  0  0  0  0  0  0  0  0
  132.1090  122.4150   63.3600 C   0  0  0  0  0  0  0  0  0  0  0  0
  131.9550  121.8570   64.3620 N   0  0  0  0  0  0  0  0  0  0  0  0
  131.8110  122.5950   60.8740 C   0  0  0  0  0  0  0  0  0  0  0  0
  130.8660  121.0920   60.7530 S   0  0  0  0  0  0  0  0  0  0  0  0
  129.2160  121.4240   61.4570 C   0  0  0  0  0  0  0  0  0  0  0  0
  128.3890  122.4680   60.6920 C   0  0  0  0  0  0  0  0  0  0  0  0
  127.2450  122.7630   61.0420 O   0  0  0  0  0  0  0  0  0  0  0  0
  128.9980  123.0190   59.6270 N   0  0  0  0  0  0  0  0  0  0  0  0
  128.4190  124.0380   58.7500 C   0  0  0  0  0  0  0  0  0  0  0  0
  127.3130  123.5240   57.8340 C   0  0  0  0  0  0  0  0  0  0  0  0
  127.6430  122.8780   56.6390 C   0  0  0  0  0  0  0  0  0  0  0  0
  126.6350  122.3740   55.8200 C   0  0  0  0  0  0  0  0  0  0  0  0
  125.3030  122.5090   56.2020 C   0  0  0  0  0  0  0  0  0  0  0  0
  124.9680  123.1410   57.3990 C   0  0  0  0  0  0  0  0  0  0  0  0
  125.9750  123.6440   58.2180 C   0  0  0  0  0  0  0  0  0  0  0  0
  132.0420  123.1880   59.6760 N   0  0  0  0  0  0  0  0  0  0  0  0
  1  2  1  0
  2  3  2  0
  3  4  1  0
  4  5  1  0
  5  6  1  0
  5  7  1  0
  5  8  1  0
  4  9  2  0
  9 10  1  0
 10 11  3  0
  9 12  1  0
 12 13  1  0
 13 14  1  0
 14 15  1  0
 15 16  2  0
 15 17  1  0
 17 18  1  0
 18 19  1  0
 19 20  2  0
 20 21  1  0
 21 22  2  0
 22 23  1  0
 23 24  2  0
 12 25  2  0
 25  2  1  0
 24 19  1  0
M  END
>  <Binding energies>  (23) 
[-6.74]

>  <Ligand effiencies>  (23) 
[-0.25923076923076926]

>  <Interactions>  (23) 
["V-B:MET:535:CE:9806, V-B:LEU:363:CD1:8160, V-B:TYR:539:CD2:9845, V-B:PRO:540:CA:9854, V-B:TYR:539:CE2:9847, V-B:ALA:541:CB:9863, V-B:PRO:540:N:9855, V-A:LEU:475:CD2:4258, V-B:TYR:539:CE1:9846, V-B:PRO:540:CB:9856, H-B:ALA:541:N:9862, V-A:ILE:369:CG2:3236, V-B:TYR:539:CZ:9848, V-A:ASP:366:CB:3211, V-B:PRO:540:CD:9858, V-A:ARG:545:CZ:4926, V-B:TYR:539:CD1:9844, V-A:ASP:366:CA:3209, V-A:ASP:366:CG:3212, H-A:TYR:484:OH:4347, V-A:ASP:366:C:3207, V-B:TYR:539:CG:9843, V-A:GLY:454:CA:4048, V-A:ILE:369:CD1:3238, V-B:ALA:541:CA:9861, V-A:GLY:453:C:4041, V-A:GLY:453:CA:4043"]

$$$$
2h_Grossjean_2025
     RDKit          3D

 31 32  0  0  0  0  0  0  0  0999 V2000
  126.1140  124.3940   61.3060 C   0  0  0  0  0  0  0  0  0  0  0  0
  126.7240  123.1090   61.3650 O   0  0  0  0  0  0  0  0  0  0  0  0
  127.9560  122.9710   61.9790 C   0  0  0  0  0  0  0  0  0  0  0  0
  128.2780  123.5310   63.2250 C   0  0  0  0  0  0  0  0  0  0  0  0
  129.5390  123.3410   63.7850 C   0  0  0  0  0  0  0  0  0  0  0  0
  130.5060  122.5900   63.1140 C   0  0  0  0  0  0  0  0  0  0  0  0
  131.8750  122.3780   63.7570 C   0  0  0  0  0  0  0  0  0  0  0  0
  132.1800  123.3390   64.8180 N   0  0  0  0  0  0  0  0  0  0  0  0
  132.9810  124.4110   64.6790 C   0  0  0  0  0  0  0  0  0  0  0  0
  133.6140  124.6520   63.6500 O   0  0  0  0  0  0  0  0  0  0  0  0
  133.0570  125.3430   65.8970 C   0  0  0  0  0  0  0  0  0  0  0  0
  131.4890  125.5550   66.8040 S   0  0  0  0  0  0  0  0  0  0  0  0
  130.3840  126.4370   65.7230 C   0  0  0  0  0  0  0  0  0  0  0  0
  130.5970  126.1910   64.4070 N   0  0  0  0  0  0  0  0  0  0  0  0
  129.8250  126.8240   63.4970 C   0  0  0  0  0  0  0  0  0  0  0  0
  130.1240  126.5070   62.0440 C   0  0  0  0  0  0  0  0  0  0  0  0
  128.8150  127.7150   63.8550 C   0  0  0  0  0  0  0  0  0  0  0  0
  128.5660  127.9660   65.2130 C   0  0  0  0  0  0  0  0  0  0  0  0
  127.4400  128.9480   65.5910 C   0  0  0  0  0  0  0  0  0  0  0  0
  126.4670  128.8950   64.6810 F   0  0  0  0  0  0  0  0  0  0  0  0
  126.8930  128.6740   66.7780 F   0  0  0  0  0  0  0  0  0  0  0  0
  127.9150  130.1920   65.6450 F   0  0  0  0  0  0  0  0  0  0  0  0
  129.3630  127.3040   66.1820 C   0  0  0  0  0  0  0  0  0  0  0  0
  129.1050  127.4860   67.6120 C   0  0  0  0  0  0  0  0  0  0  0  0
  128.8970  127.6300   68.7410 N   0  0  0  0  0  0  0  0  0  0  0  0
  130.2060  122.0440   61.8570 C   0  0  0  0  0  0  0  0  0  0  0  0
  131.1540  121.3050   61.1890 O   0  0  0  0  0  0  0  0  0  0  0  0
  130.8340  119.9270   61.0520 C   0  0  0  0  0  0  0  0  0  0  0  0
  128.9270  122.2200   61.3030 C   0  0  0  0  0  0  0  0  0  0  0  0
  128.6240  121.6710   60.0800 O   0  0  0  0  0  0  0  0  0  0  0  0
  128.3630  122.6280   59.0620 C   0  0  0  0  0  0  0  0  0  0  0  0
  1  2  1  0
  2  3  1  0
  3  4  2  0
  4  5  1  0
  5  6  2  0
  6  7  1  0
  7  8  1  0
  8  9  1  0
  9 10  2  0
  9 11  1  0
 11 12  1  0
 12 13  1  0
 13 14  2  0
 14 15  1  0
 15 16  1  0
 15 17  2  0
 17 18  1  0
 18 19  1  0
 19 20  1  0
 19 21  1  0
 19 22  1  0
 18 23  2  0
 23 24  1  0
 24 25  3  0
  6 26  1  0
 26 27  1  0
 27 28  1  0
 26 29  2  0
 29 30  1  0
 30 31  1  0
 29  3  1  0
 23 13  1  0
M  END
>  <Binding energies>  (24) 
[-5.86]

>  <Ligand effiencies>  (24) 
[-0.183125]

>  <Interactions>  (24) 
["V-A:GLU:543:CG:4907, V-B:GLU:543:CD:9879, V-A:GLU:543:CD:4908, V-B:HIS:456:CE1:9041, V-B:GLU:543:CG:9878, V-A:TRP:381:CH2:3371, V-B:TYR:539:CD2:9845, V-B:PRO:540:CA:9854, V-B:TYR:539:CE2:9847, V-B:ALA:541:CB:9863, V-A:LEU:475:CD2:4258, H-B:ALA:541:N:9862, V-B:TYR:539:CZ:9848, V-B:TYR:539:C:9838, V-A:ARG:545:CZ:4926, H-A:GLY:454:N:4049, H-A:TYR:484:OH:4347, V-A:TYR:484:CZ:4346, V-A:GLY:454:CA:4048, V-B:ALA:541:CA:9861, V-A:ARG:545:CD:4923"]

$$$$
2i_Grossjean_2025
     RDKit          3D

 23 24  0  0  0  0  0  0  0  0999 V2000
  130.1600  123.7970   65.5490 C   0  0  0  0  0  0  0  0  0  0  0  0
  129.8450  123.2950   64.1520 C   0  0  0  0  0  0  0  0  0  0  0  0
  130.7950  122.6250   63.3860 C   0  0  0  0  0  0  0  0  0  0  0  0
  130.4540  122.1790   62.1010 C   0  0  0  0  0  0  0  0  0  0  0  0
  131.5170  121.4390   61.2660 C   0  0  0  0  0  0  0  0  0  0  0  0
  132.6300  121.2790   61.9850 F   0  0  0  0  0  0  0  0  0  0  0  0
  131.0610  120.2400   60.9020 F   0  0  0  0  0  0  0  0  0  0  0  0
  131.8500  122.0970   60.1530 F   0  0  0  0  0  0  0  0  0  0  0  0
  129.1430  122.4300   61.6220 C   0  0  0  0  0  0  0  0  0  0  0  0
  128.7330  121.9850   60.2870 C   0  0  0  0  0  0  0  0  0  0  0  0
  128.4080  121.6340   59.2320 N   0  0  0  0  0  0  0  0  0  0  0  0
  128.2430  123.1200   62.4660 C   0  0  0  0  0  0  0  0  0  0  0  0
  126.5700  123.4990   61.9680 S   0  0  0  0  0  0  0  0  0  0  0  0
  126.6460  124.6570   60.5690 C   0  0  0  0  0  0  0  0  0  0  0  0
  125.8770  124.1440   59.3490 C   0  0  0  0  0  0  0  0  0  0  0  0
  124.6540  124.2920   59.3060 O   0  0  0  0  0  0  0  0  0  0  0  0
  126.6180  123.5290   58.4030 N   0  0  0  0  0  0  0  0  0  0  0  0
  126.1550  122.9690   57.2240 C   0  0  0  0  0  0  0  0  0  0  0  0
  125.0190  123.2780   56.4620 C   0  0  0  0  0  0  0  0  0  0  0  0
  125.0630  122.4060   55.3980 C   0  0  0  0  0  0  0  0  0  0  0  0
  126.1650  121.6250   55.5100 O   0  0  0  0  0  0  0  0  0  0  0  0
  126.8490  121.9980   56.6700 N   0  0  0  0  0  0  0  0  0  0  0  0
  128.5920  123.5420   63.7080 N   0  0  0  0  0  0  0  0  0  0  0  0
  1  2  1  0
  2  3  2  0
  3  4  1  0
  4  5  1  0
  5  6  1  0
  5  7  1  0
  5  8  1  0
  4  9  2  0
  9 10  1  0
 10 11  3  0
  9 12  1  0
 12 13  1  0
 13 14  1  0
 14 15  1  0
 15 16  2  0
 15 17  1  0
 17 18  1  0
 18 19  1  0
 19 20  2  0
 20 21  1  0
 21 22  1  0
 12 23  2  0
 23  2  1  0
 22 18  2  0
M  END
>  <Binding energies>  (25) 
[-6.4]

>  <Ligand effiencies>  (25) 
[-0.26666666666666666]

>  <Interactions>  (25) 
["V-B:GLU:543:CG:9878, V-B:MET:535:CE:9806, V-B:LEU:363:CD1:8160, V-A:TRP:381:CH2:3371, V-B:TYR:539:CD2:9845, V-B:PRO:540:CA:9854, V-B:TYR:539:CE2:9847, V-B:PRO:540:C:9852, V-B:ALA:541:CB:9863, V-B:PRO:540:N:9855, V-A:LEU:475:CD2:4258, V-B:PRO:540:CB:9856, H-B:TYR:539:N:9841, H-B:ALA:541:N:9862, V-A:ILE:369:CG2:3236, V-B:TYR:539:C:9838, V-B:PRO:540:CD:9858, V-B:ILE:538:CA:9831, V-B:ILE:538:CG2:9834, V-A:TYR:484:CE1:4344, V-B:ILE:538:CD1:9836, V-A:TYR:484:CZ:4346, V-B:ALA:541:CA:9861"]

$$$$
2k_Grossjean_2025
     RDKit          3D

 28 28  0  0  0  0  0  0  0  0999 V2000
  126.4870  122.3790   54.6390 C   0  0  0  0  0  0  0  0  0  0  0  0
  126.0630  121.7830   55.8550 O   0  0  0  0  0  0  0  0  0  0  0  0
  126.8920  122.1060   56.9640 C   0  0  0  0  0  0  0  0  0  0  0  0
  127.2290  123.6020   56.9400 C   0  0  0  0  0  0  0  0  0  0  0  0
  126.2360  124.3120   57.6660 O   0  0  0  0  0  0  0  0  0  0  0  0
  125.0650  124.6100   56.9150 C   0  0  0  0  0  0  0  0  0  0  0  0
  123.8750  124.6800   57.8810 C   0  0  0  0  0  0  0  0  0  0  0  0
  124.1060  123.7450   58.9240 O   0  0  0  0  0  0  0  0  0  0  0  0
  123.8830  124.2380   60.2360 C   0  0  0  0  0  0  0  0  0  0  0  0
  125.2370  124.3600   60.9600 C   0  0  0  0  0  0  0  0  0  0  0  0
  126.3080  123.6090   60.3000 N   0  0  0  0  0  0  0  0  0  0  0  0
  127.3540  123.0280   60.9190 C   0  0  0  0  0  0  0  0  0  0  0  0
  127.5100  123.0400   62.1410 O   0  0  0  0  0  0  0  0  0  0  0  0
  128.3790  122.3490   59.9980 C   0  0  0  0  0  0  0  0  0  0  0  0
  129.7710  121.5270   60.8490 S   0  0  0  0  0  0  0  0  0  0  0  0
  131.0820  122.7110   61.1220 C   0  0  0  0  0  0  0  0  0  0  0  0
  131.6590  123.2190   60.0030 N   0  0  0  0  0  0  0  0  0  0  0  0
  132.6610  124.1170   60.1340 C   0  0  0  0  0  0  0  0  0  0  0  0
  133.2600  124.6280   58.8390 C   0  0  0  0  0  0  0  0  0  0  0  0
  133.1210  124.5530   61.3740 C   0  0  0  0  0  0  0  0  0  0  0  0
  132.5340  124.0480   62.5440 C   0  0  0  0  0  0  0  0  0  0  0  0
  133.0510  124.5450   63.9070 C   0  0  0  0  0  0  0  0  0  0  0  0
  132.2070  125.3900   64.5030 F   0  0  0  0  0  0  0  0  0  0  0  0
  133.2330  123.5120   64.7320 F   0  0  0  0  0  0  0  0  0  0  0  0
  134.2120  125.1820   63.7500 F   0  0  0  0  0  0  0  0  0  0  0  0
  131.4870  123.0990   62.4210 C   0  0  0  0  0  0  0  0  0  0  0  0
  130.8400  122.5350   63.6100 C   0  0  0  0  0  0  0  0  0  0  0  0
  130.3300  122.0910   64.5490 N   0  0  0  0  0  0  0  0  0  0  0  0
  1  2  1  0
  2  3  1  0
  3  4  1  0
  4  5  1  0
  5  6  1  0
  6  7  1  0
  7  8  1  0
  8  9  1  0
  9 10  1  0
 10 11  1  0
 11 12  1  0
 12 13  2  0
 12 14  1  0
 14 15  1  0
 15 16  1  0
 16 17  2  0
 17 18  1  0
 18 19  1  0
 18 20  2  0
 20 21  1  0
 21 22  1  0
 22 23  1  0
 22 24  1  0
 22 25  1  0
 21 26  2  0
 26 27  1  0
 27 28  3  0
 26 16  1  0
M  END
>  <Binding energies>  (26) 
[-5.85]

>  <Ligand effiencies>  (26) 
[-0.20172413793103447]

>  <Interactions>  (26) 
["V-B:MET:535:CE:9806, V-B:ASP:366:CG:8184, V-B:LEU:363:CA:8156, V-B:LEU:363:CD1:8160, V-B:ASN:362:C:8143, V-B:TYR:539:CD2:9845, V-B:PRO:540:CA:9854, V-B:TYR:539:CE2:9847, V-B:PRO:540:C:9852, V-B:ALA:541:CB:9863, V-B:PRO:540:N:9855, V-A:LEU:475:CD2:4258, V-B:TYR:539:CE1:9846, V-B:PRO:540:CB:9856, H-B:TYR:539:N:9841, H-B:ALA:541:N:9862, V-A:ILE:369:CG2:3236, V-A:ILE:369:CB:3235, V-A:ASP:366:CB:3211, V-B:TYR:539:C:9838, V-B:PRO:540:CD:9858, V-A:ARG:545:CZ:4926, V-B:ILE:538:CA:9831, V-B:TYR:539:CD1:9844, V-B:ASP:366:CB:8183, V-A:ASP:366:CA:3209, V-B:ASN:362:CB:8147, V-A:ASP:366:CG:3212, H-A:TYR:484:OH:4347, V-A:ASP:366:C:3207, V-B:ILE:538:CD1:9836, V-B:TYR:539:CA:9840, V-B:TYR:539:CG:9843, V-A:GLY:454:CA:4048, V-A:ILE:369:CD1:3238, V-B:TYR:531:CZ:9765, V-B:TYR:531:CE2:9764, V-A:GLY:453:C:4041, V-A:GLY:453:CA:4043"]

$$$$
3aa_Grossjean_2025
     RDKit          3D

 34 36  0  0  0  0  0  0  0  0999 V2000
  133.9940  125.3560   66.2140 C   0  0  0  0  0  0  0  0  0  0  0  0
  132.9190  125.2990   65.1230 C   0  0  0  0  0  0  0  0  0  0  0  0
  133.3440  124.4260   64.0840 O   0  0  0  0  0  0  0  0  0  0  0  0
  133.9650  124.9070   62.9770 C   0  0  0  0  0  0  0  0  0  0  0  0
  135.1350  125.3020   62.9710 O   0  0  0  0  0  0  0  0  0  0  0  0
  133.0820  124.9260   61.7620 C   0  0  0  0  0  0  0  0  0  0  0  0
  131.8150  125.5300   61.7740 C   0  0  0  0  0  0  0  0  0  0  0  0
  131.0240  125.5340   60.6280 C   0  0  0  0  0  0  0  0  0  0  0  0
  131.4830  124.9440   59.4490 C   0  0  0  0  0  0  0  0  0  0  0  0
  130.6060  125.0070   58.3480 N   0  0  0  0  0  0  0  0  0  0  0  0
  129.7070  125.9610   58.0160 C   0  0  0  0  0  0  0  0  0  0  0  0
  129.4740  126.9800   58.6670 O   0  0  0  0  0  0  0  0  0  0  0  0
  128.9270  125.7110   56.7250 C   0  0  0  0  0  0  0  0  0  0  0  0
  128.0930  124.0950   56.7430 S   0  0  0  0  0  0  0  0  0  0  0  0
  127.6580  123.7510   58.4330 C   0  0  0  0  0  0  0  0  0  0  0  0
  128.6950  123.3020   59.1800 N   0  0  0  0  0  0  0  0  0  0  0  0
  128.5000  122.9990   60.4890 C   0  0  0  0  0  0  0  0  0  0  0  0
  129.7000  122.5220   61.2520 C   0  0  0  0  0  0  0  0  0  0  0  0
  129.8700  122.8650   62.6030 C   0  0  0  0  0  0  0  0  0  0  0  0
  130.9820  122.4250   63.3180 C   0  0  0  0  0  0  0  0  0  0  0  0
  131.9380  121.6350   62.6900 C   0  0  0  0  0  0  0  0  0  0  0  0
  131.7910  121.2800   61.3530 C   0  0  0  0  0  0  0  0  0  0  0  0
  130.6780  121.7190   60.6410 C   0  0  0  0  0  0  0  0  0  0  0  0
  127.2430  123.1520   61.0830 C   0  0  0  0  0  0  0  0  0  0  0  0
  126.1500  123.5990   60.3250 C   0  0  0  0  0  0  0  0  0  0  0  0
  124.7790  123.7430   61.0120 C   0  0  0  0  0  0  0  0  0  0  0  0
  124.5820  124.9600   61.5260 F   0  0  0  0  0  0  0  0  0  0  0  0
  123.7990  123.5180   60.1360 F   0  0  0  0  0  0  0  0  0  0  0  0
  124.6760  122.8640   62.0100 F   0  0  0  0  0  0  0  0  0  0  0  0
  126.3550  123.8980   58.9560 C   0  0  0  0  0  0  0  0  0  0  0  0
  125.2370  124.3130   58.1020 C   0  0  0  0  0  0  0  0  0  0  0  0
  124.3550  124.6400   57.4280 N   0  0  0  0  0  0  0  0  0  0  0  0
  132.7430  124.3270   59.4340 C   0  0  0  0  0  0  0  0  0  0  0  0
  133.5310  124.3220   60.5800 C   0  0  0  0  0  0  0  0  0  0  0  0
  1  2  1  0
  2  3  1  0
  3  4  1  0
  4  5  2  0
  4  6  1  0
  6  7  2  0
  7  8  1  0
  8  9  2  0
  9 10  1  0
 10 11  1  0
 11 12  2  0
 11 13  1  0
 13 14  1  0
 14 15  1  0
 15 16  2  0
 16 17  1  0
 17 18  1  0
 18 19  2  0
 19 20  1  0
 20 21  2  0
 21 22  1  0
 22 23  2  0
 17 24  2  0
 24 25  1  0
 25 26  1  0
 26 27  1  0
 26 28  1  0
 26 29  1  0
 25 30  2  0
 30 31  1  0
 31 32  3  0
  9 33  1  0
 33 34  2  0
 34  6  1  0
 30 15  1  0
 23 18  1  0
M  END
>  <Binding energies>  (27) 
[-7.77]

>  <Ligand effiencies>  (27) 
[-0.22199999999999998]

>  <Interactions>  (27) 
["V-B:ASP:366:CG:8184, V-B:LEU:363:CA:8156, V-B:ASN:362:C:8143, V-B:TYR:539:CD2:9845, V-B:PRO:540:CA:9854, V-B:TYR:539:CE2:9847, V-B:PRO:540:C:9852, V-B:ALA:541:CB:9863, V-A:LEU:475:CD2:4258, V-B:PRO:540:CB:9856, V-A:ILE:369:CG2:3236, V-B:TYR:539:CZ:9848, V-A:ILE:369:CB:3235, V-A:ARG:545:CZ:4926, H-B:TYR:531:OH:9766, H-B:TYR:539:OH:9849, H-A:GLY:454:N:4049, V-A:ASP:366:CA:3209, V-B:ASN:362:CB:8147, V-A:ASP:366:CG:3212, H-A:ARG:545:NH1:4927, V-A:ILE:369:CD1:3238, V-B:ALA:541:C:9859, V-B:ALA:541:CA:9861, V-A:ARG:545:CD:4923, V-A:ARG:545:CG:4922, V-B:ARG:545:CZ:9897, V-B:LEU:363:CB:8158, V-A:GLY:453:CA:4043"]

$$$$
3ad_Grossjean_2025
     RDKit          3D

 29 31  0  0  0  0  0  0  0  0999 V2000
  123.8160  124.4990   58.0260 N   0  0  0  0  0  0  0  0  0  0  0  0
  124.7900  124.0410   58.4500 C   0  0  0  0  0  0  0  0  0  0  0  0
  126.0240  123.4620   58.9910 C   0  0  0  0  0  0  0  0  0  0  0  0
  126.3400  123.5870   60.3660 C   0  0  0  0  0  0  0  0  0  0  0  0
  125.4090  124.2870   61.3740 C   0  0  0  0  0  0  0  0  0  0  0  0
  124.1260  124.2430   61.0110 F   0  0  0  0  0  0  0  0  0  0  0  0
  125.5100  123.7000   62.5690 F   0  0  0  0  0  0  0  0  0  0  0  0
  125.7460  125.5720   61.4940 F   0  0  0  0  0  0  0  0  0  0  0  0
  127.5560  123.0560   60.8240 C   0  0  0  0  0  0  0  0  0  0  0  0
  128.4300  122.4200   59.9360 C   0  0  0  0  0  0  0  0  0  0  0  0
  129.7470  121.8480   60.3690 C   0  0  0  0  0  0  0  0  0  0  0  0
  130.8950  122.6540   60.4260 C   0  0  0  0  0  0  0  0  0  0  0  0
  132.1200  122.1300   60.8290 C   0  0  0  0  0  0  0  0  0  0  0  0
  132.2140  120.7870   61.1810 C   0  0  0  0  0  0  0  0  0  0  0  0
  131.0910  119.9690   61.1360 C   0  0  0  0  0  0  0  0  0  0  0  0
  129.8670  120.4970   60.7340 C   0  0  0  0  0  0  0  0  0  0  0  0
  128.1240  122.3080   58.6190 N   0  0  0  0  0  0  0  0  0  0  0  0
  126.9480  122.7950   58.1570 C   0  0  0  0  0  0  0  0  0  0  0  0
  126.7100  122.5480   56.4110 S   0  0  0  0  0  0  0  0  0  0  0  0
  127.6220  123.8660   55.5510 C   0  0  0  0  0  0  0  0  0  0  0  0
  128.1940  124.9010   56.5210 C   0  0  0  0  0  0  0  0  0  0  0  0
  127.7580  126.0530   56.4930 O   0  0  0  0  0  0  0  0  0  0  0  0
  129.1580  124.4480   57.3500 N   0  0  0  0  0  0  0  0  0  0  0  0
  129.8730  125.1240   58.3560 C   0  0  0  0  0  0  0  0  0  0  0  0
  131.2600  125.1730   58.1850 C   0  0  0  0  0  0  0  0  0  0  0  0
  132.0620  125.8150   59.1240 C   0  0  0  0  0  0  0  0  0  0  0  0
  131.4790  126.4060   60.2410 C   0  0  0  0  0  0  0  0  0  0  0  0
  130.1000  126.3590   60.4280 C   0  0  0  0  0  0  0  0  0  0  0  0
  129.2940  125.7180   59.4910 C   0  0  0  0  0  0  0  0  0  0  0  0
  1  2  3  0
  2  3  1  0
  3  4  2  0
  4  5  1  0
  5  6  1  0
  5  7  1  0
  5  8  1  0
  4  9  1  0
  9 10  2  0
 10 11  1  0
 11 12  2  0
 12 13  1  0
 13 14  2  0
 14 15  1  0
 15 16  2  0
 10 17  1  0
 17 18  2  0
 18 19  1  0
 19 20  1  0
 20 21  1  0
 21 22  2  0
 21 23  1  0
 23 24  1  0
 24 25  2  0
 25 26  1  0
 26 27  2  0
 27 28  1  0
 28 29  2  0
 18  3  1  0
 29 24  1  0
 16 11  1  0
M  END
>  <Binding energies>  (28) 
[-7.15]

>  <Ligand effiencies>  (28) 
[-0.23833333333333334]

>  <Interactions>  (28) 
["V-B:GLU:543:CD:9879, V-B:GLU:543:CG:9878, V-B:MET:535:CE:9806, V-B:ASP:366:CG:8184, V-B:ASN:362:C:8143, V-A:TRP:381:CH2:3371, V-B:TYR:539:CD2:9845, V-B:PRO:540:CA:9854, V-B:TYR:539:CE2:9847, V-B:PRO:540:C:9852, V-B:ALA:541:CB:9863, V-B:PRO:540:N:9855, V-A:LEU:475:CD2:4258, V-B:TYR:539:CE1:9846, V-B:PRO:540:CB:9856, H-B:TYR:539:N:9841, V-A:ILE:369:CG2:3236, V-B:TYR:539:CZ:9848, V-A:ASP:366:CB:3211, V-B:TYR:539:C:9838, H-B:TYR:531:OH:9766, H-B:TYR:539:OH:9849, V-B:ASN:362:CA:8145, V-B:ASN:362:CB:8147, V-A:ASP:366:CG:3212"]

$$$$
3ai_Grossjean_2025
     RDKit          3D

 28 30  0  0  0  0  0  0  0  0999 V2000
  133.2590  122.7850   61.6890 N   0  0  0  0  0  0  0  0  0  0  0  0
  132.2460  122.8150   61.1300 C   0  0  0  0  0  0  0  0  0  0  0  0
  130.9620  122.8530   60.4240 C   0  0  0  0  0  0  0  0  0  0  0  0
  130.0150  121.8120   60.5870 C   0  0  0  0  0  0  0  0  0  0  0  0
  130.2460  120.6190   61.5340 C   0  0  0  0  0  0  0  0  0  0  0  0
  131.3200  119.8970   61.2050 F   0  0  0  0  0  0  0  0  0  0  0  0
  130.4240  121.0560   62.7820 F   0  0  0  0  0  0  0  0  0  0  0  0
  129.1940  119.8010   61.5070 F   0  0  0  0  0  0  0  0  0  0  0  0
  128.8220  121.8700   59.8520 C   0  0  0  0  0  0  0  0  0  0  0  0
  128.5810  122.9340   58.9770 C   0  0  0  0  0  0  0  0  0  0  0  0
  127.3290  123.0410   58.1590 C   0  0  0  0  0  0  0  0  0  0  0  0
  127.2230  122.3870   56.9220 C   0  0  0  0  0  0  0  0  0  0  0  0
  126.0620  122.4780   56.1590 C   0  0  0  0  0  0  0  0  0  0  0  0
  124.9870  123.2260   56.6260 C   0  0  0  0  0  0  0  0  0  0  0  0
  125.0650  123.8820   57.8500 C   0  0  0  0  0  0  0  0  0  0  0  0
  126.2270  123.7890   58.6100 C   0  0  0  0  0  0  0  0  0  0  0  0
  129.4950  123.9250   58.8170 N   0  0  0  0  0  0  0  0  0  0  0  0
  130.6440  123.9040   59.5340 C   0  0  0  0  0  0  0  0  0  0  0  0
  131.7080  125.2940   59.2090 S   0  0  0  0  0  0  0  0  0  0  0  0
  131.3830  126.5580   60.4860 C   0  0  0  0  0  0  0  0  0  0  0  0
  131.4300  126.0450   61.9330 C   0  0  0  0  0  0  0  0  0  0  0  0
  130.4170  125.6030   62.4780 O   0  0  0  0  0  0  0  0  0  0  0  0
  132.6450  126.1290   62.5210 N   0  0  0  0  0  0  0  0  0  0  0  0
  132.9840  125.7380   63.8100 C   0  0  0  0  0  0  0  0  0  0  0  0
  132.2130  126.0510   64.9290 C   0  0  0  0  0  0  0  0  0  0  0  0
  132.8830  125.4930   65.9930 C   0  0  0  0  0  0  0  0  0  0  0  0
  133.9990  124.8740   65.5390 O   0  0  0  0  0  0  0  0  0  0  0  0
  134.0510  125.0360   64.1540 N   0  0  0  0  0  0  0  0  0  0  0  0
  1  2  3  0
  2  3  1  0
  3  4  2  0
  4  5  1  0
  5  6  1  0
  5  7  1  0
  5  8  1  0
  4  9  1  0
  9 10  2  0
 10 11  1  0
 11 12  2  0
 12 13  1  0
 13 14  2  0
 14 15  1  0
 15 16  2  0
 10 17  1  0
 17 18  2  0
 18 19  1  0
 19 20  1  0
 20 21  1  0
 21 22  2  0
 21 23  1  0
 23 24  1  0
 24 25  1  0
 25 26  2  0
 26 27  1  0
 27 28  1  0
 18  3  1  0
 28 24  2  0
 16 11  1  0
M  END
>  <Binding energies>  (29) 
[-8.0]

>  <Ligand effiencies>  (29) 
[-0.27586206896551724]

>  <Interactions>  (29) 
["V-A:HIS:456:CE1:4069, V-B:MET:535:CE:9806, V-A:TRP:381:CZ2:3369, V-B:LEU:363:CD1:8160, V-A:TRP:381:CH2:3371, V-B:TYR:539:CD2:9845, V-B:PRO:540:CA:9854, V-A:PRO:482:CG:4326, V-B:TYR:539:CE2:9847, V-A:PRO:482:CB:4325, V-B:PRO:540:C:9852, V-B:ALA:541:CB:9863, V-B:PRO:540:N:9855, V-A:LEU:475:CD2:4258, V-B:TYR:539:CE1:9846, V-B:PRO:540:CB:9856, V-A:ILE:369:CG2:3236, V-B:TYR:539:CZ:9848, V-B:TYR:539:C:9838, V-B:PRO:540:CD:9858, V-A:ARG:545:CZ:4926, H-B:TYR:539:OH:9849, V-B:TYR:539:CD1:9844, H-A:GLY:454:N:4049, V-A:ASP:366:CG:3212, H-A:TYR:484:OH:4347, V-B:TYR:539:CG:9843, H-A:ARG:545:NH1:4927, H-A:ASP:366:OD1:3213, V-B:ALA:541:CA:9861, H-A:ASP:366:OD2:3214, V-A:ARG:545:CD:4923, V-A:LEU:475:CD1:4257"]

$$$$
3aj_Grossjean_2025
     RDKit          3D

 28 30  0  0  0  0  0  0  0  0999 V2000
  133.3150  122.3610   61.7270 N   0  0  0  0  0  0  0  0  0  0  0  0
  132.2970  122.4480   61.1850 C   0  0  0  0  0  0  0  0  0  0  0  0
  131.0060  122.5560   60.4990 C   0  0  0  0  0  0  0  0  0  0  0  0
  130.0110  121.5630   60.6690 C   0  0  0  0  0  0  0  0  0  0  0  0
  130.1970  120.3490   61.6010 C   0  0  0  0  0  0  0  0  0  0  0  0
  129.1730  119.4940   61.5460 F   0  0  0  0  0  0  0  0  0  0  0  0
  131.3000  119.6800   61.2630 F   0  0  0  0  0  0  0  0  0  0  0  0
  130.3090  120.7580   62.8650 F   0  0  0  0  0  0  0  0  0  0  0  0
  128.8100  121.6880   59.9530 C   0  0  0  0  0  0  0  0  0  0  0  0
  128.6100  122.7700   59.0900 C   0  0  0  0  0  0  0  0  0  0  0  0
  127.3530  122.9470   58.2950 C   0  0  0  0  0  0  0  0  0  0  0  0
  127.2360  122.3990   57.0090 C   0  0  0  0  0  0  0  0  0  0  0  0
  126.0680  122.5550   56.2660 C   0  0  0  0  0  0  0  0  0  0  0  0
  124.9990  123.2660   56.8030 C   0  0  0  0  0  0  0  0  0  0  0  0
  125.0890  123.8170   58.0770 C   0  0  0  0  0  0  0  0  0  0  0  0
  126.2570  123.6570   58.8160 C   0  0  0  0  0  0  0  0  0  0  0  0
  129.5700  123.7160   58.9250 N   0  0  0  0  0  0  0  0  0  0  0  0
  130.7280  123.6300   59.6230 C   0  0  0  0  0  0  0  0  0  0  0  0
  131.8550  124.9680   59.2950 S   0  0  0  0  0  0  0  0  0  0  0  0
  131.5600  126.2660   60.5440 C   0  0  0  0  0  0  0  0  0  0  0  0
  131.5520  125.7770   62.0000 C   0  0  0  0  0  0  0  0  0  0  0  0
  130.5850  125.1580   62.4520 O   0  0  0  0  0  0  0  0  0  0  0  0
  132.6650  126.0800   62.7030 N   0  0  0  0  0  0  0  0  0  0  0  0
  132.9220  125.7550   64.0290 C   0  0  0  0  0  0  0  0  0  0  0  0
  134.0200  125.2350   64.5340 N   0  0  0  0  0  0  0  0  0  0  0  0
  133.9200  125.0600   65.8370 C   0  0  0  0  0  0  0  0  0  0  0  0
  132.7130  125.4430   66.4180 C   0  0  0  0  0  0  0  0  0  0  0  0
  131.6620  126.0620   65.1800 S   0  0  0  0  0  0  0  0  0  0  0  0
  1  2  3  0
  2  3  1  0
  3  4  2  0
  4  5  1  0
  5  6  1  0
  5  7  1  0
  5  8  1  0
  4  9  1  0
  9 10  2  0
 10 11  1  0
 11 12  2  0
 12 13  1  0
 13 14  2  0
 14 15  1  0
 15 16  2  0
 10 17  1  0
 17 18  2  0
 18 19  1  0
 19 20  1  0
 20 21  1  0
 21 22  2  0
 21 23  1  0
 23 24  1  0
 24 25  2  0
 25 26  1  0
 26 27  2  0
 27 28  1  0
 18  3  1  0
 28 24  1  0
 16 11  1  0
M  END
>  <Binding energies>  (30) 
[-7.57]

>  <Ligand effiencies>  (30) 
[-0.2610344827586207]

>  <Interactions>  (30) 
["V-A:HIS:456:CE1:4069, V-A:GLU:543:CD:4908, V-B:MET:535:CE:9806, V-A:TRP:381:CZ2:3369, V-B:LEU:363:CD1:8160, V-A:TRP:381:CH2:3371, V-B:TYR:539:CD2:9845, V-B:PRO:540:CA:9854, V-A:PRO:482:CG:4326, V-B:TYR:539:CE2:9847, V-A:PRO:482:CB:4325, V-B:PRO:540:C:9852, V-B:ALA:541:CB:9863, V-B:PRO:540:N:9855, V-A:LEU:475:CD2:4258, V-B:TYR:539:CE1:9846, V-B:PRO:540:CB:9856, V-A:ILE:369:CG2:3236, V-B:TYR:539:CZ:9848, V-B:TYR:539:C:9838, V-B:PRO:540:CD:9858, V-A:ARG:545:CZ:4926, H-B:TYR:539:OH:9849, V-B:TYR:539:CD1:9844, H-A:GLY:454:N:4049, V-A:ASP:366:CG:3212, V-B:TYR:539:CG:9843, V-A:GLY:454:CA:4048, H-A:ARG:545:NH1:4927, H-A:ARG:545:NH2:4928, H-A:ASP:366:OD1:3213, V-B:ALA:541:CA:9861, H-A:ASP:366:OD2:3214, H-A:ARG:545:NE:4924, V-A:ARG:545:CD:4923, V-A:LEU:475:CD1:4257, V-A:GLY:453:C:4041"]

$$$$
3ak_Grossjean_2025
     RDKit          3D

 33 34  0  0  0  0  0  0  0  0999 V2000
  123.6030  131.7280   59.3000 C   0  0  0  0  0  0  0  0  0  0  0  0
  123.8630  131.8440   57.9100 O   0  0  0  0  0  0  0  0  0  0  0  0
  124.2670  130.6230   57.3070 C   0  0  0  0  0  0  0  0  0  0  0  0
  125.7950  130.6110   57.1790 C   0  0  0  0  0  0  0  0  0  0  0  0
  126.1680  129.6680   56.1800 O   0  0  0  0  0  0  0  0  0  0  0  0
  127.3820  128.9610   56.4240 C   0  0  0  0  0  0  0  0  0  0  0  0
  127.1910  127.6590   57.2220 C   0  0  0  0  0  0  0  0  0  0  0  0
  127.6350  126.5610   56.4380 O   0  0  0  0  0  0  0  0  0  0  0  0
  128.9780  126.6810   55.9860 C   0  0  0  0  0  0  0  0  0  0  0  0
  129.7780  125.4190   56.3560 C   0  0  0  0  0  0  0  0  0  0  0  0
  130.4790  125.5240   57.6370 N   0  0  0  0  0  0  0  0  0  0  0  0
  131.8140  125.4930   57.8130 C   0  0  0  0  0  0  0  0  0  0  0  0
  132.6070  125.3870   56.8770 O   0  0  0  0  0  0  0  0  0  0  0  0
  132.3760  125.5940   59.2410 C   0  0  0  0  0  0  0  0  0  0  0  0
  131.1690  125.4300   60.6080 S   0  0  0  0  0  0  0  0  0  0  0  0
  130.2520  123.9140   60.3840 C   0  0  0  0  0  0  0  0  0  0  0  0
  129.1840  123.9920   59.5520 N   0  0  0  0  0  0  0  0  0  0  0  0
  128.4200  122.8930   59.3230 C   0  0  0  0  0  0  0  0  0  0  0  0
  127.2600  123.0700   58.3890 C   0  0  0  0  0  0  0  0  0  0  0  0
  127.2470  122.4410   57.1350 C   0  0  0  0  0  0  0  0  0  0  0  0
  126.1710  122.5970   56.2650 C   0  0  0  0  0  0  0  0  0  0  0  0
  125.0900  123.3870   56.6400 C   0  0  0  0  0  0  0  0  0  0  0  0
  125.0760  124.0190   57.8780 C   0  0  0  0  0  0  0  0  0  0  0  0
  126.1530  123.8590   58.7460 C   0  0  0  0  0  0  0  0  0  0  0  0
  128.7290  121.6680   59.9240 C   0  0  0  0  0  0  0  0  0  0  0  0
  129.8290  121.5590   60.7870 C   0  0  0  0  0  0  0  0  0  0  0  0
  130.1360  120.1940   61.4320 C   0  0  0  0  0  0  0  0  0  0  0  0
  129.1500  119.3350   61.1730 F   0  0  0  0  0  0  0  0  0  0  0  0
  131.2760  119.7030   60.9430 F   0  0  0  0  0  0  0  0  0  0  0  0
  130.2680  120.2650   62.7590 F   0  0  0  0  0  0  0  0  0  0  0  0
  130.6150  122.7120   61.0300 C   0  0  0  0  0  0  0  0  0  0  0  0
  131.7760  122.6580   61.9230 C   0  0  0  0  0  0  0  0  0  0  0  0
  132.6930  122.6150   62.6300 N   0  0  0  0  0  0  0  0  0  0  0  0
  1  2  1  0
  2  3  1  0
  3  4  1  0
  4  5  1  0
  5  6  1  0
  6  7  1  0
  7  8  1  0
  8  9  1  0
  9 10  1  0
 10 11  1  0
 11 12  1  0
 12 13  2  0
 12 14  1  0
 14 15  1  0
 15 16  1  0
 16 17  2  0
 17 18  1  0
 18 19  1  0
 19 20  2  0
 20 21  1  0
 21 22  2  0
 22 23  1  0
 23 24  2  0
 18 25  2  0
 25 26  1  0
 26 27  1  0
 27 28  1  0
 27 29  1  0
 27 30  1  0
 26 31  2  0
 31 32  1  0
 32 33  3  0
 31 16  1  0
 24 19  1  0
M  END
>  <Binding energies>  (31) 
[-6.92]

>  <Ligand effiencies>  (31) 
[-0.20352941176470588]

>  <Interactions>  (31) 
["V-B:MET:535:CE:9806, V-A:TRP:381:CZ2:3369, V-B:LEU:363:CD1:8160, V-A:TRP:381:CH2:3371, V-B:TYR:539:CD2:9845, V-B:PRO:540:CA:9854, V-A:PRO:482:CG:4326, V-B:TYR:539:CE2:9847, V-A:PRO:482:CB:4325, V-B:PRO:540:C:9852, V-B:ALA:541:CB:9863, V-B:PRO:540:N:9855, V-A:LEU:475:CD2:4258, V-B:TYR:539:CE1:9846, V-B:PRO:540:CB:9856, V-B:TYR:539:CZ:9848, V-A:ASP:366:CB:3211, V-B:TYR:539:C:9838, V-B:PRO:540:CD:9858, V-B:ASP:366:CA:8181, H-A:TYR:539:OH:4878, V-B:ASP:366:C:8179, H-A:TYR:531:OH:4795, H-B:TYR:531:OH:9766, V-A:MET:535:CE:4835, H-B:TYR:539:OH:9849, V-B:TYR:539:CD1:9844, V-B:ASP:366:CB:8183, V-A:ASP:366:CA:3209, V-A:ASP:366:CG:3212, V-B:TYR:539:CG:9843, V-B:ALA:541:CA:9861, V-B:TYR:531:CZ:9765, V-A:TYR:539:CZ:4877, V-A:LEU:475:CD1:4257, V-B:ILE:369:CG2:8208, V-B:ILE:369:CB:8207, V-B:TYR:531:CE1:9763, V-A:LEU:475:CG:4256"]

$$$$
3bk_Grossjean_2025
     RDKit          3D

 30 31  0  0  0  0  0  0  0  0999 V2000
  123.8700  132.0880   59.2120 C   0  0  0  0  0  0  0  0  0  0  0  0
  123.8780  131.9310   57.8020 O   0  0  0  0  0  0  0  0  0  0  0  0
  124.2590  130.6290   57.3790 C   0  0  0  0  0  0  0  0  0  0  0  0
  125.7620  130.6080   57.0680 C   0  0  0  0  0  0  0  0  0  0  0  0
  125.9920  129.8260   55.9050 O   0  0  0  0  0  0  0  0  0  0  0  0
  127.2500  129.1650   55.8960 C   0  0  0  0  0  0  0  0  0  0  0  0
  128.1380  129.7520   57.0010 C   0  0  0  0  0  0  0  0  0  0  0  0
  128.6380  128.6980   57.8140 O   0  0  0  0  0  0  0  0  0  0  0  0
  128.6940  127.4400   57.1540 C   0  0  0  0  0  0  0  0  0  0  0  0
  128.5950  126.3140   58.1930 C   0  0  0  0  0  0  0  0  0  0  0  0
  129.9090  125.8600   58.6510 N   0  0  0  0  0  0  0  0  0  0  0  0
  130.9610  125.5890   57.8590 C   0  0  0  0  0  0  0  0  0  0  0  0
  130.9430  125.7130   56.6340 O   0  0  0  0  0  0  0  0  0  0  0  0
  132.2420  125.1300   58.5600 C   0  0  0  0  0  0  0  0  0  0  0  0
  131.9420  124.6760   60.2980 S   0  0  0  0  0  0  0  0  0  0  0  0
  130.7320  123.3650   60.3550 C   0  0  0  0  0  0  0  0  0  0  0  0
  129.5200  123.6530   59.8150 N   0  0  0  0  0  0  0  0  0  0  0  0
  128.5350  122.7160   59.8170 C   0  0  0  0  0  0  0  0  0  0  0  0
  127.2350  123.1090   59.1820 C   0  0  0  0  0  0  0  0  0  0  0  0
  126.9600  122.7770   57.8460 C   0  0  0  0  0  0  0  0  0  0  0  0
  125.7560  123.1440   57.2500 C   0  0  0  0  0  0  0  0  0  0  0  0
  124.8090  123.8500   57.9830 C   0  0  0  0  0  0  0  0  0  0  0  0
  125.0550  124.1870   59.3100 C   0  0  0  0  0  0  0  0  0  0  0  0
  126.2590  123.8170   59.9040 C   0  0  0  0  0  0  0  0  0  0  0  0
  128.7530  121.4470   60.3660 C   0  0  0  0  0  0  0  0  0  0  0  0
  129.9950  121.1340   60.9280 C   0  0  0  0  0  0  0  0  0  0  0  0
  130.1900  119.7380   61.5170 C   0  0  0  0  0  0  0  0  0  0  0  0
  131.0170  122.1070   60.9290 C   0  0  0  0  0  0  0  0  0  0  0  0
  132.3290  121.8070   61.5090 C   0  0  0  0  0  0  0  0  0  0  0  0
  133.3650  121.5700   61.9670 N   0  0  0  0  0  0  0  0  0  0  0  0
  1  2  1  0
  2  3  1  0
  3  4  1  0
  4  5  1  0
  5  6  1  0
  6  7  1  0
  7  8  1  0
  8  9  1  0
  9 10  1  0
 10 11  1  0
 11 12  1  0
 12 13  2  0
 12 14  1  0
 14 15  1  0
 15 16  1  0
 16 17  2  0
 17 18  1  0
 18 19  1  0
 19 20  2  0
 20 21  1  0
 21 22  2  0
 22 23  1  0
 23 24  2  0
 18 25  2  0
 25 26  1  0
 26 27  1  0
 26 28  2  0
 28 29  1  0
 29 30  3  0
 28 16  1  0
 24 19  1  0
M  END
>  <Binding energies>  (32) 
[-6.82]

>  <Ligand effiencies>  (32) 
[-0.22]

>  <Interactions>  (32) 
["V-B:LEU:363:CD1:8160, V-B:TYR:539:CD2:9845, V-B:PRO:540:CA:9854, V-A:PRO:482:CG:4326, V-B:TYR:539:CE2:9847, V-A:PRO:482:CB:4325, V-B:PRO:540:C:9852, V-B:ALA:541:CB:9863, V-B:PRO:540:N:9855, V-A:LEU:475:CD2:4258, V-B:PRO:540:CB:9856, V-A:ILE:369:CG2:3236, V-B:TYR:539:CZ:9848, V-A:ASP:366:CB:3211, V-B:TYR:539:C:9838, V-B:ASP:366:CA:8181, H-A:TYR:539:OH:4878, V-B:ASP:366:C:8179, V-A:TYR:539:CE2:4876, H-A:TYR:531:OH:4795, H-B:TYR:531:OH:9766, V-A:MET:535:CE:4835, H-B:TYR:539:OH:9849, V-B:ASP:366:CB:8183, V-B:TYR:531:CZ:9765, V-A:TYR:539:CZ:4877, V-B:ILE:369:CG2:8208, V-B:ILE:369:CB:8207, V-B:TYR:531:CE1:9763"]

$$$$
3cb_Grossjean_2025
     RDKit          3D

 30 32  0  0  0  0  0  0  0  0999 V2000
  124.2770  129.7470   66.4460 C   0  0  0  0  0  0  0  0  0  0  0  0
  123.9930  130.0730   65.0940 O   0  0  0  0  0  0  0  0  0  0  0  0
  124.6590  131.0740   64.4610 C   0  0  0  0  0  0  0  0  0  0  0  0
  125.1420  132.0470   65.0470 O   0  0  0  0  0  0  0  0  0  0  0  0
  124.7470  130.8800   62.9740 C   0  0  0  0  0  0  0  0  0  0  0  0
  123.7350  131.3160   62.1060 C   0  0  0  0  0  0  0  0  0  0  0  0
  123.8490  131.1230   60.7320 C   0  0  0  0  0  0  0  0  0  0  0  0
  124.9710  130.4890   60.1970 C   0  0  0  0  0  0  0  0  0  0  0  0
  124.9850  130.3490   58.7940 N   0  0  0  0  0  0  0  0  0  0  0  0
  124.3920  131.1010   57.8420 C   0  0  0  0  0  0  0  0  0  0  0  0
  123.7150  132.1080   58.0570 O   0  0  0  0  0  0  0  0  0  0  0  0
  124.6390  130.6180   56.4040 C   0  0  0  0  0  0  0  0  0  0  0  0
  126.3010  130.9840   55.7440 S   0  0  0  0  0  0  0  0  0  0  0  0
  127.4970  130.2670   56.8510 C   0  0  0  0  0  0  0  0  0  0  0  0
  127.0920  129.0940   57.3960 N   0  0  0  0  0  0  0  0  0  0  0  0
  127.9200  128.4570   58.2530 C   0  0  0  0  0  0  0  0  0  0  0  0
  127.4070  127.1450   58.8140 C   0  0  0  0  0  0  0  0  0  0  0  0
  129.1700  128.9610   58.6020 C   0  0  0  0  0  0  0  0  0  0  0  0
  129.6030  130.1800   58.0640 C   0  0  0  0  0  0  0  0  0  0  0  0
  130.9500  130.6820   58.4740 C   0  0  0  0  0  0  0  0  0  0  0  0
  131.1260  131.2810   59.7280 C   0  0  0  0  0  0  0  0  0  0  0  0
  132.3790  131.7410   60.1240 C   0  0  0  0  0  0  0  0  0  0  0  0
  133.4660  131.6020   59.2650 C   0  0  0  0  0  0  0  0  0  0  0  0
  133.3110  131.0030   58.0190 C   0  0  0  0  0  0  0  0  0  0  0  0
  132.0570  130.5410   57.6270 C   0  0  0  0  0  0  0  0  0  0  0  0
  128.7390  130.8680   57.1720 C   0  0  0  0  0  0  0  0  0  0  0  0
  129.1000  132.1900   56.6520 C   0  0  0  0  0  0  0  0  0  0  0  0
  129.3850  133.2340   56.2420 N   0  0  0  0  0  0  0  0  0  0  0  0
  125.9900  130.0540   61.0580 C   0  0  0  0  0  0  0  0  0  0  0  0
  125.8750  130.2480   62.4320 C   0  0  0  0  0  0  0  0  0  0  0  0
  1  2  1  0
  2  3  1  0
  3  4  2  0
  3  5  1  0
  5  6  2  0
  6  7  1  0
  7  8  2  0
  8  9  1  0
  9 10  1  0
 10 11  2  0
 10 12  1  0
 12 13  1  0
 13 14  1  0
 14 15  2  0
 15 16  1  0
 16 17  1  0
 16 18  2  0
 18 19  1  0
 19 20  1  0
 20 21  2  0
 21 22  1  0
 22 23  2  0
 23 24  1  0
 24 25  2  0
 19 26  2  0
 26 27  1  0
 27 28  3  0
  8 29  1  0
 29 30  2  0
 30  5  1  0
 26 14  1  0
 25 20  1  0
M  END
>  <Binding energies>  (33) 
[-8.37]

>  <Ligand effiencies>  (33) 
[-0.26999999999999996]

>  <Interactions>  (33) 
["V-B:ASP:366:CG:8184, V-A:ASP:366:CB:3211, V-B:ASP:366:CA:8181, H-A:TYR:539:OH:4878, V-B:ASP:366:C:8179, V-A:TYR:539:CE2:4876, H-B:TYR:531:OH:9766, V-A:MET:535:CE:4835, V-B:ASP:366:CB:8183, V-A:LEU:363:CA:3184, V-A:PRO:540:CB:4885, V-A:LEU:363:CD1:3188, V-A:TYR:531:CE2:4793, V-A:ASP:366:CG:3212, V-A:PRO:540:CA:4883, H-B:ASP:366:OD2:8186, V-B:TYR:531:CZ:9765, H-B:TYR:484:OH:9319, V-A:TYR:539:CZ:4877, H-A:TYR:539:N:4870, H-B:ARG:545:NE:9895, H-B:GLY:454:N:9021, V-B:GLY:454:CA:9020, H-B:ARG:545:NH2:9899, V-B:ARG:545:CZ:9897, V-B:ARG:545:CD:9894, V-B:ARG:545:CG:9893, V-B:TYR:531:CE1:9763, V-B:ASN:370:CB:8216, V-B:ILE:369:CD1:8210, H-B:ASN:370:N:8215"]

$$$$
3ch_Grossjean_2025
     RDKit          3D

 32 34  0  0  0  0  0  0  0  0999 V2000
  125.4770  130.6610   59.2650 C   0  0  0  0  0  0  0  0  0  0  0  0
  126.8070  131.0980   59.5250 O   0  0  0  0  0  0  0  0  0  0  0  0
  127.7690  130.9830   58.5380 C   0  0  0  0  0  0  0  0  0  0  0  0
  127.9950  129.8140   57.7950 C   0  0  0  0  0  0  0  0  0  0  0  0
  128.9840  129.7740   56.8010 C   0  0  0  0  0  0  0  0  0  0  0  0
  129.2790  128.6520   56.0020 N   0  0  0  0  0  0  0  0  0  0  0  0
  128.4650  127.9130   55.2170 C   0  0  0  0  0  0  0  0  0  0  0  0
  127.2620  128.1130   55.0470 O   0  0  0  0  0  0  0  0  0  0  0  0
  129.1390  126.7680   54.4620 C   0  0  0  0  0  0  0  0  0  0  0  0
  129.7850  125.4930   55.5840 S   0  0  0  0  0  0  0  0  0  0  0  0
  128.3780  124.5400   56.1120 C   0  0  0  0  0  0  0  0  0  0  0  0
  127.9060  123.6880   55.1690 N   0  0  0  0  0  0  0  0  0  0  0  0
  126.8320  122.9220   55.4690 C   0  0  0  0  0  0  0  0  0  0  0  0
  126.3530  121.9970   54.3670 C   0  0  0  0  0  0  0  0  0  0  0  0
  126.1930  122.9770   56.7050 C   0  0  0  0  0  0  0  0  0  0  0  0
  126.6710  123.8460   57.6960 C   0  0  0  0  0  0  0  0  0  0  0  0
  125.9480  123.8770   59.0040 C   0  0  0  0  0  0  0  0  0  0  0  0
  126.6280  123.5800   60.1910 C   0  0  0  0  0  0  0  0  0  0  0  0
  125.9590  123.5990   61.4120 C   0  0  0  0  0  0  0  0  0  0  0  0
  124.6020  123.9130   61.4490 C   0  0  0  0  0  0  0  0  0  0  0  0
  123.9100  124.2040   60.2770 C   0  0  0  0  0  0  0  0  0  0  0  0
  124.5820  124.1820   59.0580 C   0  0  0  0  0  0  0  0  0  0  0  0
  127.8090  124.6410   57.4030 C   0  0  0  0  0  0  0  0  0  0  0  0
  128.4080  125.4960   58.4320 C   0  0  0  0  0  0  0  0  0  0  0  0
  128.8800  126.1730   59.2430 N   0  0  0  0  0  0  0  0  0  0  0  0
  129.7610  130.9100   56.5690 C   0  0  0  0  0  0  0  0  0  0  0  0
  129.5550  132.0900   57.3000 C   0  0  0  0  0  0  0  0  0  0  0  0
  130.2850  133.2520   57.1140 O   0  0  0  0  0  0  0  0  0  0  0  0
  131.6800  133.1670   56.8430 C   0  0  0  0  0  0  0  0  0  0  0  0
  128.5580  132.1130   58.2830 C   0  0  0  0  0  0  0  0  0  0  0  0
  128.3350  133.2680   58.9950 O   0  0  0  0  0  0  0  0  0  0  0  0
  128.6140  133.1560   60.3830 C   0  0  0  0  0  0  0  0  0  0  0  0
  1  2  1  0
  2  3  1  0
  3  4  2  0
  4  5  1  0
  5  6  1  0
  6  7  1  0
  7  8  2  0
  7  9  1  0
  9 10  1  0
 10 11  1  0
 11 12  2  0
 12 13  1  0
 13 14  1  0
 13 15  2  0
 15 16  1  0
 16 17  1  0
 17 18  2  0
 18 19  1  0
 19 20  2  0
 20 21  1  0
 21 22  2  0
 16 23  2  0
 23 24  1  0
 24 25  3  0
  5 26  2  0
 26 27  1  0
 27 28  1  0
 28 29  1  0
 27 30  2  0
 30 31  1  0
 31 32  1  0
 30  3  1  0
 23 11  1  0
 22 17  1  0
M  END
>  <Binding energies>  (34) 
[-8.07]

>  <Ligand effiencies>  (34) 
[-0.24454545454545457]

>  <Interactions>  (34) 
["V-B:MET:535:CE:9806, V-B:ASP:366:CG:8184, V-B:LEU:363:CA:8156, V-B:ASN:362:C:8143, V-B:PRO:540:CA:9854, V-B:PRO:540:N:9855, V-B:TYR:539:CE1:9846, V-B:PRO:540:CB:9856, V-B:TYR:539:CZ:9848, V-A:TYR:539:CD2:4874, V-B:ILE:538:CA:9831, V-A:TYR:539:C:4867, V-A:TYR:539:CE2:4876, H-A:TYR:531:OH:4795, H-B:TYR:531:OH:9766, V-A:PRO:540:N:4884, V-A:MET:535:CE:4835, V-A:TYR:531:CE1:4792, H-B:TYR:539:OH:9849, V-B:TYR:539:CD1:9844, V-B:ASP:366:CB:8183, V-B:ASN:362:CB:8147, V-A:PRO:540:CB:4885, V-A:LEU:363:CD1:3188, V-A:PRO:540:CA:4883, V-B:ILE:538:CD1:9836, V-A:PRO:540:CD:4887, H-A:TYR:539:N:4870, V-A:ILE:538:CB:4862, V-B:ILE:538:CB:9833, V-B:ILE:538:C:9829, V-B:VAL:537:C:9821"]

$$$$
3ci_Grossjean_2025
     RDKit          3D

 25 27  0  0  0  0  0  0  0  0999 V2000
  129.8710  121.4520   61.5500 C   0  0  0  0  0  0  0  0  0  0  0  0
  129.6830  122.4100   60.3890 C   0  0  0  0  0  0  0  0  0  0  0  0
  128.5800  122.3270   59.5440 C   0  0  0  0  0  0  0  0  0  0  0  0
  128.4420  123.2460   58.4940 C   0  0  0  0  0  0  0  0  0  0  0  0
  127.2350  123.1290   57.6220 C   0  0  0  0  0  0  0  0  0  0  0  0
  125.9950  123.6260   58.0440 C   0  0  0  0  0  0  0  0  0  0  0  0
  124.8710  123.5070   57.2310 C   0  0  0  0  0  0  0  0  0  0  0  0
  124.9800  122.8820   55.9930 C   0  0  0  0  0  0  0  0  0  0  0  0
  126.2030  122.3740   55.5610 C   0  0  0  0  0  0  0  0  0  0  0  0
  127.3250  122.4960   56.3760 C   0  0  0  0  0  0  0  0  0  0  0  0
  129.4490  124.2290   58.3220 C   0  0  0  0  0  0  0  0  0  0  0  0
  129.3810  125.1890   57.2150 C   0  0  0  0  0  0  0  0  0  0  0  0
  129.3250  125.9470   56.3410 N   0  0  0  0  0  0  0  0  0  0  0  0
  130.5360  124.2450   59.2300 C   0  0  0  0  0  0  0  0  0  0  0  0
  131.8490  125.4540   59.1200 S   0  0  0  0  0  0  0  0  0  0  0  0
  133.4210  124.6920   59.6410 C   0  0  0  0  0  0  0  0  0  0  0  0
  133.4570  124.3290   61.1300 C   0  0  0  0  0  0  0  0  0  0  0  0
  133.6080  123.1510   61.4590 O   0  0  0  0  0  0  0  0  0  0  0  0
  133.3000  125.3610   61.9890 N   0  0  0  0  0  0  0  0  0  0  0  0
  133.3210  125.3100   63.3760 C   0  0  0  0  0  0  0  0  0  0  0  0
  132.1970  125.5570   64.1630 C   0  0  0  0  0  0  0  0  0  0  0  0
  132.6300  125.4130   65.4620 C   0  0  0  0  0  0  0  0  0  0  0  0
  133.9470  125.0940   65.4550 O   0  0  0  0  0  0  0  0  0  0  0  0
  134.3740  125.0340   64.1280 N   0  0  0  0  0  0  0  0  0  0  0  0
  130.6480  123.3440   60.2390 N   0  0  0  0  0  0  0  0  0  0  0  0
  1  2  1  0
  2  3  2  0
  3  4  1  0
  4  5  1  0
  5  6  2  0
  6  7  1  0
  7  8  2  0
  8  9  1  0
  9 10  2  0
  4 11  2  0
 11 12  1  0
 12 13  3  0
 11 14  1  0
 14 15  1  0
 15 16  1  0
 16 17  1  0
 17 18  2  0
 17 19  1  0
 19 20  1  0
 20 21  1  0
 21 22  2  0
 22 23  1  0
 23 24  1  0
 14 25  2  0
 25  2  1  0
 10  5  1  0
 24 20  2  0
M  END
>  <Binding energies>  (35) 
[-8.37]

>  <Ligand effiencies>  (35) 
[-0.32192307692307687]

>  <Interactions>  (35) 
["V-B:MET:535:CE:9806, V-B:LEU:363:CD1:8160, V-B:TYR:539:CD2:9845, V-B:PRO:540:CA:9854, V-B:TYR:539:CE2:9847, V-B:ALA:541:CB:9863, V-B:PRO:540:N:9855, V-B:TYR:539:CE1:9846, V-B:PRO:540:CB:9856, V-A:ILE:369:CG2:3236, V-B:TYR:539:CZ:9848, V-A:ILE:369:CB:3235, V-A:ASP:366:CB:3211, V-B:TYR:539:C:9838, V-A:ARG:545:CZ:4926, V-B:ILE:538:CA:9831, H-A:TYR:531:OH:4795, H-B:TYR:539:OH:9849, V-B:TYR:539:CD1:9844, H-A:GLY:454:N:4049, V-A:ASP:366:CA:3209, V-A:ASP:366:CG:3212, H-A:TYR:484:OH:4347, V-B:ILE:538:CD1:9836, V-B:TYR:539:CG:9843, H-A:ARG:545:NH1:4927, V-A:ILE:369:CD1:3238, H-A:ASP:366:OD1:3213, H-A:ASP:366:OD2:3214, H-A:ARG:545:NE:4924"]

$$$$
3ck_Grossjean_2025
     RDKit          3D

 30 31  0  0  0  0  0  0  0  0999 V2000
  129.0450  132.8790   56.7940 C   0  0  0  0  0  0  0  0  0  0  0  0
  130.0430  133.5060   56.0040 O   0  0  0  0  0  0  0  0  0  0  0  0
  131.3560  133.0300   56.2690 C   0  0  0  0  0  0  0  0  0  0  0  0
  131.6800  131.8670   55.3230 C   0  0  0  0  0  0  0  0  0  0  0  0
  131.9630  130.7020   56.0890 O   0  0  0  0  0  0  0  0  0  0  0  0
  132.9600  130.8950   57.0840 C   0  0  0  0  0  0  0  0  0  0  0  0
  132.3850  130.5050   58.4510 C   0  0  0  0  0  0  0  0  0  0  0  0
  131.3280  129.5790   58.2440 O   0  0  0  0  0  0  0  0  0  0  0  0
  130.0940  129.9390   58.8450 C   0  0  0  0  0  0  0  0  0  0  0  0
  128.9510  129.7470   57.8310 C   0  0  0  0  0  0  0  0  0  0  0  0
  129.2760  128.8160   56.7460 N   0  0  0  0  0  0  0  0  0  0  0  0
  128.3910  128.2570   55.9010 C   0  0  0  0  0  0  0  0  0  0  0  0
  127.1820  128.4960   55.9330 O   0  0  0  0  0  0  0  0  0  0  0  0
  128.9850  127.2890   54.8650 C   0  0  0  0  0  0  0  0  0  0  0  0
  129.6800  125.7440   55.5470 S   0  0  0  0  0  0  0  0  0  0  0  0
  128.3420  124.6740   56.0540 C   0  0  0  0  0  0  0  0  0  0  0  0
  127.9160  123.7860   55.1210 N   0  0  0  0  0  0  0  0  0  0  0  0
  126.9030  122.9480   55.4350 C   0  0  0  0  0  0  0  0  0  0  0  0
  126.4800  121.9860   54.3420 C   0  0  0  0  0  0  0  0  0  0  0  0
  126.2780  122.9600   56.6790 C   0  0  0  0  0  0  0  0  0  0  0  0
  126.6970  123.8730   57.6560 C   0  0  0  0  0  0  0  0  0  0  0  0
  125.9820  123.8660   58.9680 C   0  0  0  0  0  0  0  0  0  0  0  0
  124.6290  124.2220   59.0330 C   0  0  0  0  0  0  0  0  0  0  0  0
  123.9590  124.2270   60.2540 C   0  0  0  0  0  0  0  0  0  0  0  0
  124.6420  123.8820   61.4170 C   0  0  0  0  0  0  0  0  0  0  0  0
  125.9900  123.5340   61.3690 C   0  0  0  0  0  0  0  0  0  0  0  0
  126.6570  123.5290   60.1480 C   0  0  0  0  0  0  0  0  0  0  0  0
  127.7670  124.7500   57.3440 C   0  0  0  0  0  0  0  0  0  0  0  0
  128.2760  125.6980   58.3420 C   0  0  0  0  0  0  0  0  0  0  0  0
  128.6770  126.4460   59.1290 N   0  0  0  0  0  0  0  0  0  0  0  0
  1  2  1  0
  2  3  1  0
  3  4  1  0
  4  5  1  0
  5  6  1  0
  6  7  1  0
  7  8  1  0
  8  9  1  0
  9 10  1  0
 10 11  1  0
 11 12  1  0
 12 13  2  0
 12 14  1  0
 14 15  1  0
 15 16  1  0
 16 17  2  0
 17 18  1  0
 18 19  1  0
 18 20  2  0
 20 21  1  0
 21 22  1  0
 22 23  2  0
 23 24  1  0
 24 25  2  0
 25 26  1  0
 26 27  2  0
 21 28  2  0
 28 29  1  0
 29 30  3  0
 28 16  1  0
 27 22  1  0
M  END
>  <Binding energies>  (36) 
[-7.1]

>  <Ligand effiencies>  (36) 
[-0.22903225806451613]

>  <Interactions>  (36) 
["V-B:MET:535:CE:9806, V-B:ASP:366:CG:8184, V-B:LEU:363:CA:8156, V-B:ASN:362:C:8143, V-B:PRO:540:CA:9854, V-B:PRO:540:N:9855, V-B:TYR:539:CE1:9846, V-B:PRO:540:CB:9856, V-B:TYR:539:CZ:9848, V-A:ASP:366:CB:3211, V-A:TYR:539:CD2:4874, V-B:ILE:538:CA:9831, V-A:TYR:539:CE2:4876, H-A:TYR:531:OH:4795, H-B:TYR:531:OH:9766, V-A:TYR:539:CG:4872, V-A:PRO:540:N:4884, V-A:MET:535:CE:4835, H-B:TYR:539:OH:9849, V-B:TYR:539:CD1:9844, V-A:TYR:531:CZ:4794, V-B:ASN:362:CB:8147, V-A:LEU:363:CD1:3188, V-A:TYR:531:CE2:4793, V-A:ASP:366:CG:3212, V-B:ILE:538:CD1:9836, V-A:PRO:540:CD:4887, V-A:TYR:539:CZ:4877, H-A:TYR:539:N:4870, V-A:ILE:538:CB:4862, V-A:ILE:538:CA:4860, V-A:ILE:538:CG2:4863, V-B:ILE:538:CB:9833, V-B:ILE:538:C:9829, V-A:TYR:539:CE1:4875, V-A:TYR:539:CD1:4873, V-B:VAL:537:C:9821"]

$$$$
4aa_Grossjean_2025
     RDKit          3D

 26 28  0  0  0  0  0  0  0  0999 V2000
  129.8790  125.1180   67.4990 C   0  0  0  0  0  0  0  0  0  0  0  0
  130.7930  126.1910   66.8980 C   0  0  0  0  0  0  0  0  0  0  0  0
  132.1460  125.7680   66.9970 O   0  0  0  0  0  0  0  0  0  0  0  0
  132.7890  125.2180   65.9350 C   0  0  0  0  0  0  0  0  0  0  0  0
  134.0160  125.0810   65.8780 O   0  0  0  0  0  0  0  0  0  0  0  0
  131.8610  124.7960   64.8330 C   0  0  0  0  0  0  0  0  0  0  0  0
  131.7330  125.6080   63.6980 C   0  0  0  0  0  0  0  0  0  0  0  0
  130.8770  125.2470   62.6620 C   0  0  0  0  0  0  0  0  0  0  0  0
  130.1380  124.0650   62.7340 C   0  0  0  0  0  0  0  0  0  0  0  0
  129.2980  123.8010   61.6350 N   0  0  0  0  0  0  0  0  0  0  0  0
  128.0080  123.3890   61.6010 C   0  0  0  0  0  0  0  0  0  0  0  0
  127.3400  123.1230   62.6010 O   0  0  0  0  0  0  0  0  0  0  0  0
  127.4320  123.2470   60.2620 C   0  0  0  0  0  0  0  0  0  0  0  0
  128.2580  122.2790   59.0370 S   0  0  0  0  0  0  0  0  0  0  0  0
  127.0300  122.6520   57.8490 C   0  0  0  0  0  0  0  0  0  0  0  0
  127.0840  122.1750   56.6040 N   0  0  0  0  0  0  0  0  0  0  0  0
  126.0720  122.5440   55.7810 C   0  0  0  0  0  0  0  0  0  0  0  0
  126.1560  121.9950   54.3680 C   0  0  0  0  0  0  0  0  0  0  0  0
  125.0170  123.3660   56.1700 C   0  0  0  0  0  0  0  0  0  0  0  0
  124.9620  123.8630   57.4770 C   0  0  0  0  0  0  0  0  0  0  0  0
  123.7900  124.7570   57.8550 C   0  0  0  0  0  0  0  0  0  0  0  0
  126.0080  123.5030   58.3690 C   0  0  0  0  0  0  0  0  0  0  0  0
  126.2650  123.8300   59.7460 C   0  0  0  0  0  0  0  0  0  0  0  0
  125.4280  124.6390   60.4730 N   0  0  0  0  0  0  0  0  0  0  0  0
  130.2550  123.2490   63.8680 C   0  0  0  0  0  0  0  0  0  0  0  0
  131.1100  123.6130   64.9060 C   0  0  0  0  0  0  0  0  0  0  0  0
  1  2  1  0
  2  3  1  0
  3  4  1  0
  4  5  2  0
  4  6  1  0
  6  7  2  0
  7  8  1  0
  8  9  2  0
  9 10  1  0
 10 11  1  0
 11 12  2  0
 11 13  1  0
 13 14  1  0
 14 15  1  0
 15 16  2  0
 16 17  1  0
 17 18  1  0
 17 19  2  0
 19 20  1  0
 20 21  1  0
 20 22  2  0
 22 23  1  0
 23 24  1  0
  9 25  1  0
 25 26  2  0
 26  6  1  0
 23 13  2  0
 22 15  1  0
M  END
>  <Binding energies>  (37) 
[-8.04]

>  <Ligand effiencies>  (37) 
[-0.2772413793103448]

>  <Interactions>  (37) 
["V-A:HIS:456:CE1:4069, V-A:GLU:543:CD:4908, V-B:GLU:543:CB:9877, V-B:GLU:543:CG:9878, V-B:MET:535:CE:9806, V-B:LEU:363:CA:8156, V-B:LEU:363:CD1:8160, V-B:TYR:539:CD2:9845, V-B:PRO:540:CA:9854, V-B:TYR:539:CE2:9847, V-B:ALA:541:CB:9863, V-B:PRO:540:N:9855, V-B:PRO:540:CB:9856, H-B:TYR:539:N:9841, H-B:ALA:541:N:9862, V-B:TYR:539:CZ:9848, V-B:TYR:539:C:9838, V-B:ILE:538:CA:9831, V-B:TYR:539:CD1:9844, V-B:ASP:366:CB:8183, H-A:GLY:454:N:4049, V-B:ILE:538:CG2:9834, H-A:TYR:484:OH:4347, V-A:TYR:484:CE1:4344, V-B:ILE:538:CD1:9836, V-B:TYR:539:CG:9843, V-A:TYR:484:CZ:4346, H-B:ASP:366:OD2:8186, V-B:TYR:531:CZ:9765, V-B:TYR:531:CE2:9764, H-A:ARG:545:NE:4924, H-B:GLU:543:OE2:9881, V-B:ILE:538:CB:9833, V-B:ILE:538:C:9829, H-A:HIS:456:ND1:4066, V-B:VAL:537:C:9821, V-B:ILE:538:CG1:9835"]

$$$$
4ab_Grossjean_2025
     RDKit          3D

 25 27  0  0  0  0  0  0  0  0999 V2000
  135.0150  125.3680   66.6810 C   0  0  0  0  0  0  0  0  0  0  0  0
  133.9730  125.0540   65.7670 O   0  0  0  0  0  0  0  0  0  0  0  0
  132.6930  125.4350   66.0100 C   0  0  0  0  0  0  0  0  0  0  0  0
  132.3470  126.0520   67.0230 O   0  0  0  0  0  0  0  0  0  0  0  0
  131.7380  125.0260   64.9260 C   0  0  0  0  0  0  0  0  0  0  0  0
  132.0070  125.3970   63.6020 C   0  0  0  0  0  0  0  0  0  0  0  0
  131.1390  125.0340   62.5750 C   0  0  0  0  0  0  0  0  0  0  0  0
  129.9930  124.2880   62.8480 C   0  0  0  0  0  0  0  0  0  0  0  0
  129.1840  123.9830   61.7370 N   0  0  0  0  0  0  0  0  0  0  0  0
  127.9330  123.4650   61.6830 C   0  0  0  0  0  0  0  0  0  0  0  0
  127.2820  123.1200   62.6710 O   0  0  0  0  0  0  0  0  0  0  0  0
  127.3800  123.3060   60.3370 C   0  0  0  0  0  0  0  0  0  0  0  0
  128.2400  122.3490   59.1280 S   0  0  0  0  0  0  0  0  0  0  0  0
  127.0240  122.6940   57.9200 C   0  0  0  0  0  0  0  0  0  0  0  0
  127.1060  122.2150   56.6780 N   0  0  0  0  0  0  0  0  0  0  0  0
  126.0990  122.5600   55.8390 C   0  0  0  0  0  0  0  0  0  0  0  0
  126.2140  122.0080   54.4300 C   0  0  0  0  0  0  0  0  0  0  0  0
  125.0210  123.3610   56.2090 C   0  0  0  0  0  0  0  0  0  0  0  0
  124.9380  123.8630   57.5130 C   0  0  0  0  0  0  0  0  0  0  0  0
  123.7430  124.7340   57.8690 C   0  0  0  0  0  0  0  0  0  0  0  0
  125.9780  123.5260   58.4220 C   0  0  0  0  0  0  0  0  0  0  0  0
  126.2100  123.8650   59.8000 C   0  0  0  0  0  0  0  0  0  0  0  0
  125.3490  124.6630   60.5120 N   0  0  0  0  0  0  0  0  0  0  0  0
  129.7120  123.9160   64.1720 C   0  0  0  0  0  0  0  0  0  0  0  0
  130.5800  124.2820   65.1980 C   0  0  0  0  0  0  0  0  0  0  0  0
  1  2  1  0
  2  3  1  0
  3  4  2  0
  3  5  1  0
  5  6  2  0
  6  7  1  0
  7  8  2  0
  8  9  1  0
  9 10  1  0
 10 11  2  0
 10 12  1  0
 12 13  1  0
 13 14  1  0
 14 15  2  0
 15 16  1  0
 16 17  1  0
 16 18  2  0
 18 19  1  0
 19 20  1  0
 19 21  2  0
 21 22  1  0
 22 23  1  0
  8 24  1  0
 24 25  2  0
 25  5  1  0
 22 12  2  0
 21 14  1  0
M  END
>  <Binding energies>  (38) 
[-8.09]

>  <Ligand effiencies>  (38) 
[-0.2889285714285714]

>  <Interactions>  (38) 
["V-A:HIS:456:CE1:4069, V-B:GLU:543:CD:9879, V-B:GLU:543:CG:9878, V-B:MET:535:CE:9806, V-B:LEU:363:CA:8156, V-B:LEU:363:CD1:8160, V-B:TYR:539:CD2:9845, V-B:PRO:540:CA:9854, V-B:TYR:539:CE2:9847, V-B:ALA:541:CB:9863, V-B:PRO:540:N:9855, V-B:PRO:540:CB:9856, H-B:TYR:539:N:9841, H-B:ALA:541:N:9862, V-B:TYR:539:C:9838, V-A:ARG:545:CZ:4926, V-B:ILE:538:CA:9831, V-B:TYR:539:CD1:9844, V-B:ASP:366:CB:8183, H-A:GLY:454:N:4049, V-B:ILE:538:CG2:9834, H-A:TYR:484:OH:4347, V-B:ILE:538:CD1:9836, V-A:GLY:454:CA:4048, H-B:ASP:366:OD2:8186, V-B:TYR:531:CZ:9765, V-B:TYR:531:CE2:9764, H-A:ARG:545:NE:4924, V-A:ARG:545:CD:4923, V-A:ILE:455:C:4051, V-A:ARG:545:CG:4922, H-B:GLU:543:OE2:9881, V-B:ILE:538:CB:9833, V-B:ILE:538:C:9829, H-A:HIS:456:ND1:4066, V-B:LEU:363:CB:8158, V-A:GLY:453:C:4041, V-A:GLY:453:CA:4043, V-B:VAL:537:C:9821, V-B:ILE:538:CG1:9835"]

$$$$
4ac_Grossjean_2025
     RDKit          3D

 23 25  0  0  0  0  0  0  0  0999 V2000
  133.8510  125.3750   66.7500 C   0  0  0  0  0  0  0  0  0  0  0  0
  134.0580  125.0090   65.3900 O   0  0  0  0  0  0  0  0  0  0  0  0
  132.9640  124.7650   64.5830 C   0  0  0  0  0  0  0  0  0  0  0  0
  133.2290  124.4870   63.2430 C   0  0  0  0  0  0  0  0  0  0  0  0
  132.1890  124.2280   62.3530 C   0  0  0  0  0  0  0  0  0  0  0  0
  130.8670  124.2350   62.7980 C   0  0  0  0  0  0  0  0  0  0  0  0
  129.8830  123.9750   61.8260 N   0  0  0  0  0  0  0  0  0  0  0  0
  128.5980  123.5800   61.9910 C   0  0  0  0  0  0  0  0  0  0  0  0
  128.0850  123.3440   63.0870 O   0  0  0  0  0  0  0  0  0  0  0  0
  127.8220  123.4330   60.7570 C   0  0  0  0  0  0  0  0  0  0  0  0
  128.4150  122.4130   59.4460 S   0  0  0  0  0  0  0  0  0  0  0  0
  127.0160  122.7790   58.4630 C   0  0  0  0  0  0  0  0  0  0  0  0
  126.8560  122.2660   57.2430 N   0  0  0  0  0  0  0  0  0  0  0  0
  125.7280  122.6300   56.5870 C   0  0  0  0  0  0  0  0  0  0  0  0
  125.5650  122.0340   55.2010 C   0  0  0  0  0  0  0  0  0  0  0  0
  124.7660  123.4890   57.1170 C   0  0  0  0  0  0  0  0  0  0  0  0
  124.9380  124.0270   58.3970 C   0  0  0  0  0  0  0  0  0  0  0  0
  123.8610  124.9590   58.9310 C   0  0  0  0  0  0  0  0  0  0  0  0
  126.1080  123.6650   59.1170 C   0  0  0  0  0  0  0  0  0  0  0  0
  126.5910  124.0210   60.4240 C   0  0  0  0  0  0  0  0  0  0  0  0
  125.8970  124.8630   61.2560 N   0  0  0  0  0  0  0  0  0  0  0  0
  130.5900  124.5250   64.1420 C   0  0  0  0  0  0  0  0  0  0  0  0
  131.6330  124.7840   65.0280 C   0  0  0  0  0  0  0  0  0  0  0  0
  1  2  1  0
  2  3  1  0
  3  4  2  0
  4  5  1  0
  5  6  2  0
  6  7  1  0
  7  8  1  0
  8  9  2  0
  8 10  1  0
 10 11  1  0
 11 12  1  0
 12 13  2  0
 13 14  1  0
 14 15  1  0
 14 16  2  0
 16 17  1  0
 17 18  1  0
 17 19  2  0
 19 20  1  0
 20 21  1  0
  6 22  1  0
 22 23  2  0
 23  3  1  0
 20 10  2  0
 19 12  1  0
M  END
>  <Binding energies>  (39) 
[-7.86]

>  <Ligand effiencies>  (39) 
[-0.30230769230769233]

>  <Interactions>  (39) 
["V-A:HIS:456:CE1:4069, V-B:MET:535:CE:9806, V-B:ASP:366:CG:8184, V-B:LEU:363:CA:8156, V-B:LEU:363:CD1:8160, V-B:ASN:362:C:8143, V-B:TYR:539:CD2:9845, V-B:PRO:540:CA:9854, V-B:TYR:539:CE2:9847, V-B:ALA:541:CB:9863, V-B:PRO:540:N:9855, V-B:PRO:540:CB:9856, H-B:TYR:539:N:9841, V-B:TYR:539:C:9838, V-B:PRO:540:CD:9858, V-A:ARG:545:CZ:4926, V-B:ILE:538:CA:9831, V-B:ASP:366:CB:8183, H-A:GLY:454:N:4049, V-B:ILE:538:CG2:9834, H-A:TYR:484:OH:4347, V-B:ILE:538:CD1:9836, H-B:ASP:366:OD2:8186, H-A:ARG:545:NE:4924, V-A:ARG:545:CD:4923, V-A:ARG:545:CG:4922, H-B:GLU:543:OE2:9881, V-B:ILE:538:CB:9833, V-B:ILE:538:C:9829"]

$$$$
4ad_Grossjean_2025
     RDKit          3D

 21 23  0  0  0  0  0  0  0  0999 V2000
  126.4900  122.0580   54.5930 C   0  0  0  0  0  0  0  0  0  0  0  0
  126.2280  122.6080   55.9820 C   0  0  0  0  0  0  0  0  0  0  0  0
  125.1230  123.4170   56.2370 C   0  0  0  0  0  0  0  0  0  0  0  0
  124.9020  123.9160   57.5270 C   0  0  0  0  0  0  0  0  0  0  0  0
  123.6830  124.7970   57.7550 C   0  0  0  0  0  0  0  0  0  0  0  0
  125.8350  123.5680   58.5400 C   0  0  0  0  0  0  0  0  0  0  0  0
  125.9150  123.8950   59.9380 C   0  0  0  0  0  0  0  0  0  0  0  0
  124.9790  124.6830   60.5600 N   0  0  0  0  0  0  0  0  0  0  0  0
  127.0250  123.3380   60.5930 C   0  0  0  0  0  0  0  0  0  0  0  0
  127.4210  123.4760   61.9960 C   0  0  0  0  0  0  0  0  0  0  0  0
  126.6610  123.1250   62.9000 O   0  0  0  0  0  0  0  0  0  0  0  0
  128.6570  123.9950   62.2020 N   0  0  0  0  0  0  0  0  0  0  0  0
  129.3120  124.2940   63.4120 C   0  0  0  0  0  0  0  0  0  0  0  0
  129.5290  123.2130   64.2720 C   0  0  0  0  0  0  0  0  0  0  0  0
  130.1780  123.4050   65.4890 C   0  0  0  0  0  0  0  0  0  0  0  0
  130.6190  124.6770   65.8430 C   0  0  0  0  0  0  0  0  0  0  0  0
  130.4200  125.7590   64.9900 C   0  0  0  0  0  0  0  0  0  0  0  0
  129.7710  125.5710   63.7730 C   0  0  0  0  0  0  0  0  0  0  0  0
  128.0050  122.3810   59.4800 S   0  0  0  0  0  0  0  0  0  0  0  0
  126.9260  122.7340   58.1500 C   0  0  0  0  0  0  0  0  0  0  0  0
  127.1380  122.2560   56.9220 N   0  0  0  0  0  0  0  0  0  0  0  0
  1  2  1  0
  2  3  2  0
  3  4  1  0
  4  5  1  0
  4  6  2  0
  6  7  1  0
  7  8  1  0
  7  9  2  0
  9 10  1  0
 10 11  2  0
 10 12  1  0
 12 13  1  0
 13 14  2  0
 14 15  1  0
 15 16  2  0
 16 17  1  0
 17 18  2  0
  9 19  1  0
 19 20  1  0
 20 21  2  0
 21  2  1  0
 20  6  1  0
 18 13  1  0
M  END
>  <Binding energies>  (40) 
[-7.54]

>  <Ligand effiencies>  (40) 
[-0.31416666666666665]

>  <Interactions>  (40) 
["V-B:GLU:543:CD:9879, V-B:GLU:543:CG:9878, V-B:MET:535:CE:9806, V-B:ASP:366:CG:8184, V-B:LEU:363:CA:8156, V-B:LEU:363:CD1:8160, V-B:TYR:539:CD2:9845, V-B:PRO:540:CA:9854, V-B:TYR:539:CE2:9847, V-B:ALA:541:CB:9863, V-B:PRO:540:N:9855, V-B:TYR:539:CE1:9846, V-B:PRO:540:CB:9856, H-B:TYR:539:N:9841, H-B:ALA:541:N:9862, V-B:TYR:539:C:9838, V-B:ILE:538:CA:9831, V-B:TYR:539:CD1:9844, V-B:ASP:366:CB:8183, V-A:TYR:484:CE1:4344, V-B:ILE:538:CD1:9836, V-A:TYR:484:CZ:4346, H-B:ASP:366:OD2:8186, V-B:TYR:531:CZ:9765, V-B:TYR:531:CE2:9764, H-B:GLU:543:OE2:9881, V-B:ILE:538:C:9829, V-B:LEU:363:CB:8158"]

$$$$
4ae_Grossjean_2025
     RDKit          3D

 22 24  0  0  0  0  0  0  0  0999 V2000
  129.8610  126.2130   65.9290 C   0  0  0  0  0  0  0  0  0  0  0  0
  130.2400  125.0810   64.9950 C   0  0  0  0  0  0  0  0  0  0  0  0
  131.3370  124.2540   65.2550 C   0  0  0  0  0  0  0  0  0  0  0  0
  131.6310  123.2370   64.3470 C   0  0  0  0  0  0  0  0  0  0  0  0
  130.8320  123.0720   63.2130 C   0  0  0  0  0  0  0  0  0  0  0  0
  129.7440  123.9300   63.0170 C   0  0  0  0  0  0  0  0  0  0  0  0
  128.9910  123.7280   61.8480 N   0  0  0  0  0  0  0  0  0  0  0  0
  127.6910  123.3570   61.7300 C   0  0  0  0  0  0  0  0  0  0  0  0
  126.9540  123.1270   62.6900 O   0  0  0  0  0  0  0  0  0  0  0  0
  127.1960  123.2360   60.3570 C   0  0  0  0  0  0  0  0  0  0  0  0
  128.0750  122.2660   59.1750 S   0  0  0  0  0  0  0  0  0  0  0  0
  126.9270  122.6670   57.9190 C   0  0  0  0  0  0  0  0  0  0  0  0
  127.0510  122.2030   56.6750 N   0  0  0  0  0  0  0  0  0  0  0  0
  126.0970  122.5940   55.7970 C   0  0  0  0  0  0  0  0  0  0  0  0
  126.2610  122.0610   54.3850 C   0  0  0  0  0  0  0  0  0  0  0  0
  125.0300  123.4280   56.1290 C   0  0  0  0  0  0  0  0  0  0  0  0
  124.9030  123.9120   57.4370 C   0  0  0  0  0  0  0  0  0  0  0  0
  123.7250  124.8220   57.7510 C   0  0  0  0  0  0  0  0  0  0  0  0
  125.8870  123.5250   58.3860 C   0  0  0  0  0  0  0  0  0  0  0  0
  126.0620  123.8330   59.7810 C   0  0  0  0  0  0  0  0  0  0  0  0
  125.1920  124.6400   60.4690 N   0  0  0  0  0  0  0  0  0  0  0  0
  129.4540  124.9320   63.8980 N   0  0  0  0  0  0  0  0  0  0  0  0
  1  2  1  0
  2  3  2  0
  3  4  1  0
  4  5  2  0
  5  6  1  0
  6  7  1  0
  7  8  1  0
  8  9  2  0
  8 10  1  0
 10 11  1  0
 11 12  1  0
 12 13  2  0
 13 14  1  0
 14 15  1  0
 14 16  2  0
 16 17  1  0
 17 18  1  0
 17 19  2  0
 19 20  1  0
 20 21  1  0
  6 22  2  0
 22  2  1  0
 20 10  2  0
 19 12  1  0
M  END
>  <Binding energies>  (41) 
[-7.43]

>  <Ligand effiencies>  (41) 
[-0.29719999999999996]

>  <Interactions>  (41) 
["V-B:GLU:543:CD:9879, V-A:GLU:543:CD:4908, V-B:GLU:543:CG:9878, V-B:MET:535:CE:9806, V-B:ASP:366:CG:8184, V-B:LEU:363:CA:8156, V-B:LEU:363:CD1:8160, V-B:TYR:539:CD2:9845, V-B:PRO:540:CA:9854, V-B:TYR:539:CE2:9847, V-B:ALA:541:CB:9863, V-B:PRO:540:N:9855, V-B:TYR:539:CE1:9846, V-B:PRO:540:CB:9856, H-B:TYR:539:N:9841, H-B:ALA:541:N:9862, V-B:TYR:539:C:9838, V-B:ILE:538:CA:9831, V-B:TYR:539:CD1:9844, V-B:ASP:366:CB:8183, V-B:ILE:538:CD1:9836, V-A:TYR:484:CZ:4346, H-B:ASP:366:OD2:8186, V-B:TYR:531:CZ:9765, V-B:TYR:531:CE2:9764, H-B:GLU:543:OE2:9881, V-B:ILE:538:CB:9833, V-B:ILE:538:C:9829, V-B:VAL:537:C:9821, V-B:ILE:538:CG1:9835"]

$$$$
4af_Grossjean_2025
     RDKit          3D

 21 23  0  0  0  0  0  0  0  0999 V2000
  126.5370  122.0820   54.5500 C   0  0  0  0  0  0  0  0  0  0  0  0
  126.2590  122.6090   55.9470 C   0  0  0  0  0  0  0  0  0  0  0  0
  125.1490  123.4120   56.2030 C   0  0  0  0  0  0  0  0  0  0  0  0
  124.9130  123.8890   57.4980 C   0  0  0  0  0  0  0  0  0  0  0  0
  123.6910  124.7620   57.7270 C   0  0  0  0  0  0  0  0  0  0  0  0
  125.8370  123.5260   58.5160 C   0  0  0  0  0  0  0  0  0  0  0  0
  125.9020  123.8330   59.9200 C   0  0  0  0  0  0  0  0  0  0  0  0
  124.9610  124.6130   60.5430 N   0  0  0  0  0  0  0  0  0  0  0  0
  127.0030  123.2630   60.5780 C   0  0  0  0  0  0  0  0  0  0  0  0
  127.3910  123.3920   61.9840 C   0  0  0  0  0  0  0  0  0  0  0  0
  126.5930  123.1230   62.8820 O   0  0  0  0  0  0  0  0  0  0  0  0
  128.6650  123.8030   62.1980 N   0  0  0  0  0  0  0  0  0  0  0  0
  129.3280  124.0700   63.4110 C   0  0  0  0  0  0  0  0  0  0  0  0
  129.5840  123.1290   64.4250 C   0  0  0  0  0  0  0  0  0  0  0  0
  130.2370  123.5300   65.5910 C   0  0  0  0  0  0  0  0  0  0  0  0
  130.6170  124.8670   65.7190 C   0  0  0  0  0  0  0  0  0  0  0  0
  130.3750  125.7950   64.7590 N   0  0  0  0  0  0  0  0  0  0  0  0
  129.7380  125.3900   63.6320 C   0  0  0  0  0  0  0  0  0  0  0  0
  127.9980  122.3260   59.4600 S   0  0  0  0  0  0  0  0  0  0  0  0
  126.9320  122.6990   58.1240 C   0  0  0  0  0  0  0  0  0  0  0  0
  127.1590  122.2430   56.8920 N   0  0  0  0  0  0  0  0  0  0  0  0
  1  2  1  0
  2  3  2  0
  3  4  1  0
  4  5  1  0
  4  6  2  0
  6  7  1  0
  7  8  1  0
  7  9  2  0
  9 10  1  0
 10 11  2  0
 10 12  1  0
 12 13  1  0
 13 14  2  0
 14 15  1  0
 15 16  2  0
 16 17  1  0
 17 18  2  0
  9 19  1  0
 19 20  1  0
 20 21  2  0
 21  2  1  0
 20  6  1  0
 18 13  1  0
M  END
>  <Binding energies>  (42) 
[-7.17]

>  <Ligand effiencies>  (42) 
[-0.29875]

>  <Interactions>  (42) 
["V-B:GLU:543:CD:9879, V-B:GLU:543:CG:9878, V-B:MET:535:CE:9806, V-B:ASP:366:CG:8184, V-B:LEU:363:CA:8156, V-B:LEU:363:CD1:8160, V-B:TYR:539:CD2:9845, V-B:PRO:540:CA:9854, V-B:TYR:539:CE2:9847, V-B:PRO:540:C:9852, V-B:ALA:541:CB:9863, V-B:PRO:540:N:9855, V-B:TYR:539:CE1:9846, V-B:PRO:540:CB:9856, H-B:TYR:539:N:9841, H-B:ALA:541:N:9862, V-B:TYR:539:C:9838, V-B:ILE:538:CA:9831, V-B:TYR:539:CD1:9844, V-B:ASP:366:CB:8183, V-A:TYR:484:CE1:4344, V-B:ILE:538:CD1:9836, V-A:TYR:484:CZ:4346, H-B:ASP:366:OD2:8186, V-B:TYR:531:CZ:9765, V-B:TYR:531:CE2:9764, H-B:GLU:543:OE2:9881, V-B:ILE:538:C:9829, V-B:LEU:363:CB:8158, V-B:VAL:537:C:9821"]

$$$$
4ag_Grossjean_2025
     RDKit          3D

 22 24  0  0  0  0  0  0  0  0999 V2000
  126.3880  122.1080   54.4650 C   0  0  0  0  0  0  0  0  0  0  0  0
  126.2390  122.6340   55.8810 C   0  0  0  0  0  0  0  0  0  0  0  0
  125.1780  123.4690   56.2270 C   0  0  0  0  0  0  0  0  0  0  0  0
  125.0580  123.9410   57.5390 C   0  0  0  0  0  0  0  0  0  0  0  0
  123.8830  124.8500   57.8690 C   0  0  0  0  0  0  0  0  0  0  0  0
  126.0440  123.5410   58.4800 C   0  0  0  0  0  0  0  0  0  0  0  0
  126.2250  123.8310   59.8770 C   0  0  0  0  0  0  0  0  0  0  0  0
  125.3600  124.6340   60.5780 N   0  0  0  0  0  0  0  0  0  0  0  0
  127.3550  123.2240   60.4420 C   0  0  0  0  0  0  0  0  0  0  0  0
  127.8300  123.2950   61.8240 C   0  0  0  0  0  0  0  0  0  0  0  0
  127.0630  123.1320   62.7760 O   0  0  0  0  0  0  0  0  0  0  0  0
  129.1420  123.5660   61.9890 N   0  0  0  0  0  0  0  0  0  0  0  0
  129.8330  123.6580   63.2740 C   0  0  0  0  0  0  0  0  0  0  0  0
  131.2830  124.1160   63.1660 C   0  0  0  0  0  0  0  0  0  0  0  0
  131.9120  124.7010   64.2680 C   0  0  0  0  0  0  0  0  0  0  0  0
  133.2440  125.0980   64.1800 C   0  0  0  0  0  0  0  0  0  0  0  0
  133.9460  124.8970   62.9930 C   0  0  0  0  0  0  0  0  0  0  0  0
  133.3300  124.3000   61.8950 C   0  0  0  0  0  0  0  0  0  0  0  0
  131.9990  123.9030   61.9840 C   0  0  0  0  0  0  0  0  0  0  0  0
  128.2270  122.2590   59.2510 S   0  0  0  0  0  0  0  0  0  0  0  0
  127.0790  122.6830   58.0010 C   0  0  0  0  0  0  0  0  0  0  0  0
  127.1950  122.2300   56.7520 N   0  0  0  0  0  0  0  0  0  0  0  0
  1  2  1  0
  2  3  2  0
  3  4  1  0
  4  5  1  0
  4  6  2  0
  6  7  1  0
  7  8  1  0
  7  9  2  0
  9 10  1  0
 10 11  2  0
 10 12  1  0
 12 13  1  0
 13 14  1  0
 14 15  2  0
 15 16  1  0
 16 17  2  0
 17 18  1  0
 18 19  2  0
  9 20  1  0
 20 21  1  0
 21 22  2  0
 22  2  1  0
 21  6  1  0
 19 14  1  0
M  END
>  <Binding energies>  (43) 
[-7.58]

>  <Ligand effiencies>  (43) 
[-0.3032]

>  <Interactions>  (43) 
["V-B:MET:535:CE:9806, V-B:LEU:363:CA:8156, V-B:LEU:363:CD1:8160, V-B:TYR:539:CD2:9845, V-B:PRO:540:CA:9854, V-B:TYR:539:CE2:9847, V-B:ALA:541:CB:9863, V-B:PRO:540:N:9855, V-B:TYR:539:CE1:9846, V-B:PRO:540:CB:9856, H-B:TYR:539:N:9841, H-B:ALA:541:N:9862, V-B:TYR:539:C:9838, V-A:ARG:545:CZ:4926, V-B:ILE:538:CA:9831, V-B:TYR:539:CD1:9844, V-B:ASP:366:CB:8183, V-B:ILE:538:CD1:9836, V-A:ILE:369:CD1:3238, H-B:ASP:366:OD2:8186, V-B:TYR:531:CZ:9765, V-B:TYR:531:CE2:9764, H-B:GLU:543:OE2:9881, V-B:ILE:538:CB:9833, V-B:ILE:538:C:9829, V-A:GLY:453:CA:4043, V-B:VAL:537:C:9821"]

$$$$
4ah_Grossjean_2025
     RDKit          3D

 28 30  0  0  0  0  0  0  0  0999 V2000
  129.9830  125.3040   67.5040 C   0  0  0  0  0  0  0  0  0  0  0  0
  131.3150  125.4420   67.0250 O   0  0  0  0  0  0  0  0  0  0  0  0
  131.5310  125.7210   65.6860 C   0  0  0  0  0  0  0  0  0  0  0  0
  130.6280  126.4300   64.8790 C   0  0  0  0  0  0  0  0  0  0  0  0
  130.9110  126.6730   63.5340 C   0  0  0  0  0  0  0  0  0  0  0  0
  129.9400  127.4850   62.6840 C   0  0  0  0  0  0  0  0  0  0  0  0
  129.2320  126.6890   61.6820 N   0  0  0  0  0  0  0  0  0  0  0  0
  128.9440  125.3750   61.7880 C   0  0  0  0  0  0  0  0  0  0  0  0
  129.2940  124.6940   62.7530 O   0  0  0  0  0  0  0  0  0  0  0  0
  128.2200  124.7840   60.6630 C   0  0  0  0  0  0  0  0  0  0  0  0
  129.1070  124.0290   59.3380 S   0  0  0  0  0  0  0  0  0  0  0  0
  127.6200  123.6670   58.4900 C   0  0  0  0  0  0  0  0  0  0  0  0
  127.6120  123.0380   57.3150 N   0  0  0  0  0  0  0  0  0  0  0  0
  126.3940  122.8170   56.7650 C   0  0  0  0  0  0  0  0  0  0  0  0
  126.4080  122.1030   55.4260 C   0  0  0  0  0  0  0  0  0  0  0  0
  125.1950  123.2060   57.3580 C   0  0  0  0  0  0  0  0  0  0  0  0
  125.2050  123.8680   58.5910 C   0  0  0  0  0  0  0  0  0  0  0  0
  123.8700  124.2740   59.1980 C   0  0  0  0  0  0  0  0  0  0  0  0
  126.4660  124.1200   59.1980 C   0  0  0  0  0  0  0  0  0  0  0  0
  126.8380  124.7640   60.4280 C   0  0  0  0  0  0  0  0  0  0  0  0
  125.9110  125.2970   61.2880 N   0  0  0  0  0  0  0  0  0  0  0  0
  132.1180  126.2290   62.9940 C   0  0  0  0  0  0  0  0  0  0  0  0
  133.0370  125.5120   63.7760 C   0  0  0  0  0  0  0  0  0  0  0  0
  134.2440  125.0300   63.3020 O   0  0  0  0  0  0  0  0  0  0  0  0
  134.3490  124.6330   61.9380 C   0  0  0  0  0  0  0  0  0  0  0  0
  132.7280  125.2590   65.1200 C   0  0  0  0  0  0  0  0  0  0  0  0
  133.6270  124.5750   65.9030 O   0  0  0  0  0  0  0  0  0  0  0  0
  134.2830  125.3820   66.8710 C   0  0  0  0  0  0  0  0  0  0  0  0
  1  2  1  0
  2  3  1  0
  3  4  2  0
  4  5  1  0
  5  6  1  0
  6  7  1  0
  7  8  1  0
  8  9  2  0
  8 10  1  0
 10 11  1  0
 11 12  1  0
 12 13  2  0
 13 14  1  0
 14 15  1  0
 14 16  2  0
 16 17  1  0
 17 18  1  0
 17 19  2  0
 19 20  1  0
 20 21  1  0
  5 22  2  0
 22 23  1  0
 23 24  1  0
 24 25  1  0
 23 26  2  0
 26 27  1  0
 27 28  1  0
 26  3  1  0
 20 10  2  0
 19 12  1  0
M  END
>  <Binding energies>  (44) 
[-6.95]

>  <Ligand effiencies>  (44) 
[-0.2241935483870968]

>  <Interactions>  (44) 
["V-A:HIS:456:CE1:4069, V-A:GLU:543:CD:4908, V-B:GLU:543:CB:9877, V-B:GLU:543:CG:9878, V-B:MET:535:CE:9806, V-B:ASP:366:CG:8184, V-B:LEU:363:CA:8156, V-B:LEU:363:CD1:8160, V-B:ASN:362:C:8143, V-B:PRO:540:CA:9854, V-B:TYR:539:CE2:9847, V-B:PRO:540:N:9855, V-B:TYR:539:CE1:9846, V-B:PRO:540:CB:9856, V-B:PRO:540:CD:9858, V-A:ARG:545:CZ:4926, V-B:ILE:538:CA:9831, V-B:TYR:539:CD1:9844, H-A:GLY:454:N:4049, V-A:ASP:366:CG:3212, H-A:TYR:484:OH:4347, V-B:ILE:538:CD1:9836, H-A:ARG:545:NH1:4927, V-A:ILE:369:CD1:3238, H-B:ASP:366:OD2:8186, V-A:ARG:545:CD:4923, V-A:ARG:545:CG:4922, H-B:GLU:543:OE2:9881, V-B:ILE:538:C:9829, V-B:LEU:363:CB:8158"]

$$$$
4ai_Grossjean_2025
     RDKit          3D

 20 22  0  0  0  0  0  0  0  0999 V2000
  126.4250  122.3400   54.4430 C   0  0  0  0  0  0  0  0  0  0  0  0
  126.2470  122.8000   55.8780 C   0  0  0  0  0  0  0  0  0  0  0  0
  125.1940  123.6390   56.2370 C   0  0  0  0  0  0  0  0  0  0  0  0
  125.0460  124.0460   57.5680 C   0  0  0  0  0  0  0  0  0  0  0  0
  123.8790  124.9600   57.9100 C   0  0  0  0  0  0  0  0  0  0  0  0
  125.9960  123.5770   58.5150 C   0  0  0  0  0  0  0  0  0  0  0  0
  126.1420  123.7910   59.9290 C   0  0  0  0  0  0  0  0  0  0  0  0
  125.2770  124.5830   60.6430 N   0  0  0  0  0  0  0  0  0  0  0  0
  127.2330  123.1170   60.4990 C   0  0  0  0  0  0  0  0  0  0  0  0
  127.6790  123.1200   61.8940 C   0  0  0  0  0  0  0  0  0  0  0  0
  126.8600  123.1260   62.8160 O   0  0  0  0  0  0  0  0  0  0  0  0
  129.0230  123.1000   62.0750 N   0  0  0  0  0  0  0  0  0  0  0  0
  129.7130  123.0870   63.2800 C   0  0  0  0  0  0  0  0  0  0  0  0
  129.6380  124.1230   64.2120 C   0  0  0  0  0  0  0  0  0  0  0  0
  130.4560  123.7330   65.2470 C   0  0  0  0  0  0  0  0  0  0  0  0
  130.9940  122.5250   64.9560 O   0  0  0  0  0  0  0  0  0  0  0  0
  130.5150  122.1250   63.7080 N   0  0  0  0  0  0  0  0  0  0  0  0
  128.1310  122.2120   59.2780 S   0  0  0  0  0  0  0  0  0  0  0  0
  127.0280  122.7240   58.0200 C   0  0  0  0  0  0  0  0  0  0  0  0
  127.1730  122.3340   56.7520 N   0  0  0  0  0  0  0  0  0  0  0  0
  1  2  1  0
  2  3  2  0
  3  4  1  0
  4  5  1  0
  4  6  2  0
  6  7  1  0
  7  8  1  0
  7  9  2  0
  9 10  1  0
 10 11  2  0
 10 12  1  0
 12 13  1  0
 13 14  1  0
 14 15  2  0
 15 16  1  0
 16 17  1  0
  9 18  1  0
 18 19  1  0
 19 20  2  0
 20  2  1  0
 19  6  1  0
 17 13  2  0
M  END
>  <Binding energies>  (45) 
[-6.94]

>  <Ligand effiencies>  (45) 
[-0.3017391304347826]

>  <Interactions>  (45) 
["V-B:GLU:543:CD:9879, V-B:GLU:543:CG:9878, V-B:MET:535:CE:9806, V-B:ASP:366:CG:8184, V-B:LEU:363:CA:8156, V-B:LEU:363:CD1:8160, V-B:TYR:539:CD2:9845, V-B:PRO:540:CA:9854, V-B:TYR:539:CE2:9847, V-B:PRO:540:C:9852, V-B:ALA:541:CB:9863, V-B:PRO:540:N:9855, V-B:TYR:539:CE1:9846, V-B:PRO:540:CB:9856, H-B:TYR:539:N:9841, H-B:ALA:541:N:9862, V-B:TYR:539:C:9838, V-B:ILE:538:CA:9831, V-B:TYR:539:CD1:9844, V-B:ASP:366:CB:8183, H-A:TYR:484:OH:4347, V-A:TYR:484:CE1:4344, V-B:ILE:538:CD1:9836, V-A:TYR:484:CZ:4346, H-B:ASP:366:OD2:8186, V-B:ALA:541:CA:9861, V-B:TYR:531:CZ:9765, V-B:TYR:531:CE2:9764, H-B:GLU:543:OE2:9881"]

$$$$
4aj_Grossjean_2025
     RDKit          3D

 20 22  0  0  0  0  0  0  0  0999 V2000
  126.5300  122.1200   54.5160 C   0  0  0  0  0  0  0  0  0  0  0  0
  126.2810  122.6380   55.9210 C   0  0  0  0  0  0  0  0  0  0  0  0
  125.1920  123.4600   56.2000 C   0  0  0  0  0  0  0  0  0  0  0  0
  124.9840  123.9300   57.5020 C   0  0  0  0  0  0  0  0  0  0  0  0
  123.7810  124.8250   57.7550 C   0  0  0  0  0  0  0  0  0  0  0  0
  125.9120  123.5390   58.5040 C   0  0  0  0  0  0  0  0  0  0  0  0
  126.0020  123.8320   59.9090 C   0  0  0  0  0  0  0  0  0  0  0  0
  125.0900  124.6300   60.5510 N   0  0  0  0  0  0  0  0  0  0  0  0
  127.0940  123.2250   60.5490 C   0  0  0  0  0  0  0  0  0  0  0  0
  127.4900  123.3140   61.9560 C   0  0  0  0  0  0  0  0  0  0  0  0
  126.6660  123.1380   62.8550 O   0  0  0  0  0  0  0  0  0  0  0  0
  128.8000  123.5860   62.1750 N   0  0  0  0  0  0  0  0  0  0  0  0
  129.4320  123.7110   63.4050 C   0  0  0  0  0  0  0  0  0  0  0  0
  129.6150  122.7800   64.3170 N   0  0  0  0  0  0  0  0  0  0  0  0
  130.2600  123.2510   65.3670 C   0  0  0  0  0  0  0  0  0  0  0  0
  130.6140  124.5970   65.3190 C   0  0  0  0  0  0  0  0  0  0  0  0
  130.0680  125.2710   63.8130 S   0  0  0  0  0  0  0  0  0  0  0  0
  128.0550  122.2800   59.4100 S   0  0  0  0  0  0  0  0  0  0  0  0
  126.9840  122.6920   58.0900 C   0  0  0  0  0  0  0  0  0  0  0  0
  127.1860  122.2430   56.8510 N   0  0  0  0  0  0  0  0  0  0  0  0
  1  2  1  0
  2  3  2  0
  3  4  1  0
  4  5  1  0
  4  6  2  0
  6  7  1  0
  7  8  1  0
  7  9  2  0
  9 10  1  0
 10 11  2  0
 10 12  1  0
 12 13  1  0
 13 14  2  0
 14 15  1  0
 15 16  2  0
 16 17  1  0
  9 18  1  0
 18 19  1  0
 19 20  2  0
 20  2  1  0
 19  6  1  0
 17 13  1  0
M  END
>  <Binding energies>  (46) 
[-7.0]

>  <Ligand effiencies>  (46) 
[-0.30434782608695654]

>  <Interactions>  (46) 
["V-B:GLU:543:CG:9878, V-B:MET:535:CE:9806, V-B:ASP:366:CG:8184, V-B:LEU:363:CA:8156, V-B:LEU:363:CD1:8160, V-B:TYR:539:CD2:9845, V-B:PRO:540:CA:9854, V-B:TYR:539:CE2:9847, V-B:PRO:540:C:9852, V-B:ALA:541:CB:9863, V-B:PRO:540:N:9855, V-B:TYR:539:CE1:9846, V-B:PRO:540:CB:9856, H-B:TYR:539:N:9841, H-B:ALA:541:N:9862, V-B:TYR:539:C:9838, V-B:ILE:538:CA:9831, V-B:TYR:539:CD1:9844, V-B:ASP:366:CB:8183, V-A:TYR:484:CE1:4344, V-B:ILE:538:CD1:9836, V-A:TYR:484:CZ:4346, H-B:ASP:366:OD2:8186, V-B:ALA:541:CA:9861, V-B:TYR:531:CZ:9765, V-B:TYR:531:CE2:9764, H-B:GLU:543:OE2:9881, V-B:ILE:538:C:9829, V-B:VAL:537:C:9821"]

$$$$
4ak_Grossjean_2025
     RDKit          3D

 25 26  0  0  0  0  0  0  0  0999 V2000
  128.6250  124.2140   57.9690 C   0  0  0  0  0  0  0  0  0  0  0  0
  128.0930  123.0650   58.6110 O   0  0  0  0  0  0  0  0  0  0  0  0
  127.5950  122.0890   57.7040 C   0  0  0  0  0  0  0  0  0  0  0  0
  127.2850  122.7540   56.3570 C   0  0  0  0  0  0  0  0  0  0  0  0
  126.3700  121.9430   55.6310 O   0  0  0  0  0  0  0  0  0  0  0  0
  125.0330  122.4240   55.6550 C   0  0  0  0  0  0  0  0  0  0  0  0
  124.9720  123.7120   56.4840 C   0  0  0  0  0  0  0  0  0  0  0  0
  124.6940  123.3860   57.8400 O   0  0  0  0  0  0  0  0  0  0  0  0
  124.3450  124.5070   58.6410 C   0  0  0  0  0  0  0  0  0  0  0  0
  124.6220  124.1820   60.1200 C   0  0  0  0  0  0  0  0  0  0  0  0
  126.0420  124.0020   60.4240 N   0  0  0  0  0  0  0  0  0  0  0  0
  126.5360  123.5090   61.5770 C   0  0  0  0  0  0  0  0  0  0  0  0
  125.8110  123.1340   62.5000 O   0  0  0  0  0  0  0  0  0  0  0  0
  127.9930  123.4340   61.6730 C   0  0  0  0  0  0  0  0  0  0  0  0
  128.9070  124.7590   62.3940 S   0  0  0  0  0  0  0  0  0  0  0  0
  130.4180  123.9160   62.1390 C   0  0  0  0  0  0  0  0  0  0  0  0
  131.5890  124.4430   62.4990 N   0  0  0  0  0  0  0  0  0  0  0  0
  132.6850  123.6870   62.2430 C   0  0  0  0  0  0  0  0  0  0  0  0
  134.0080  124.3030   62.6600 C   0  0  0  0  0  0  0  0  0  0  0  0
  132.6370  122.4300   61.6440 C   0  0  0  0  0  0  0  0  0  0  0  0
  131.4060  121.8790   61.2680 C   0  0  0  0  0  0  0  0  0  0  0  0
  131.4050  120.5070   60.6130 C   0  0  0  0  0  0  0  0  0  0  0  0
  130.2350  122.6430   61.5190 C   0  0  0  0  0  0  0  0  0  0  0  0
  128.8410  122.3910   61.2690 C   0  0  0  0  0  0  0  0  0  0  0  0
  128.3990  121.2320   60.6850 N   0  0  0  0  0  0  0  0  0  0  0  0
  1  2  1  0
  2  3  1  0
  3  4  1  0
  4  5  1  0
  5  6  1  0
  6  7  1  0
  7  8  1  0
  8  9  1  0
  9 10  1  0
 10 11  1  0
 11 12  1  0
 12 13  2  0
 12 14  1  0
 14 15  1  0
 15 16  1  0
 16 17  2  0
 17 18  1  0
 18 19  1  0
 18 20  2  0
 20 21  1  0
 21 22  1  0
 21 23  2  0
 23 24  1  0
 24 25  1  0
 24 14  2  0
 23 16  1  0
M  END
>  <Binding energies>  (47) 
[-5.82]

>  <Ligand effiencies>  (47) 
[-0.20785714285714288]

>  <Interactions>  (47) 
["V-B:MET:535:CE:9806, V-B:LEU:363:CA:8156, V-B:LEU:363:CD1:8160, V-A:TRP:381:CH2:3371, V-B:TYR:539:CD2:9845, V-B:PRO:540:CA:9854, V-B:TYR:539:CE2:9847, V-B:PRO:540:C:9852, V-B:ALA:541:CB:9863, V-B:PRO:540:N:9855, V-A:LEU:475:CD2:4258, V-B:TYR:539:CE1:9846, V-B:PRO:540:CB:9856, H-B:TYR:539:N:9841, H-B:ALA:541:N:9862, V-A:ILE:369:CG2:3236, V-B:TYR:539:CZ:9848, V-B:TYR:539:C:9838, V-B:PRO:540:CD:9858, V-B:TYR:539:CD1:9844, V-B:ILE:538:CG2:9834, V-B:ILE:538:CD1:9836, V-B:TYR:539:CA:9840, V-B:TYR:539:CG:9843, V-A:ILE:369:CD1:3238, V-B:ALA:541:CA:9861, H-B:TYR:539:O:9839"]

$$$$
4al_Grossjean_2025
     RDKit          3D

 16 17  0  0  0  0  0  0  0  0999 V2000
  129.5770  123.9330   63.0910 C   0  0  0  0  0  0  0  0  0  0  0  0
  129.0050  123.2820   61.9670 O   0  0  0  0  0  0  0  0  0  0  0  0
  127.6570  123.1770   61.8340 C   0  0  0  0  0  0  0  0  0  0  0  0
  126.8720  123.1240   62.7840 O   0  0  0  0  0  0  0  0  0  0  0  0
  127.2190  123.1320   60.4220 C   0  0  0  0  0  0  0  0  0  0  0  0
  128.1300  122.1800   59.2470 S   0  0  0  0  0  0  0  0  0  0  0  0
  127.0340  122.6400   57.9640 C   0  0  0  0  0  0  0  0  0  0  0  0
  127.1930  122.2080   56.7130 N   0  0  0  0  0  0  0  0  0  0  0  0
  126.2750  122.6390   55.8120 C   0  0  0  0  0  0  0  0  0  0  0  0
  126.4740  122.1360   54.3940 C   0  0  0  0  0  0  0  0  0  0  0  0
  125.2130  123.4820   56.1320 C   0  0  0  0  0  0  0  0  0  0  0  0
  125.0490  123.9340   57.4460 C   0  0  0  0  0  0  0  0  0  0  0  0
  123.8760  124.8530   57.7470 C   0  0  0  0  0  0  0  0  0  0  0  0
  125.9930  123.5030   58.4170 C   0  0  0  0  0  0  0  0  0  0  0  0
  126.1240  123.7660   59.8230 C   0  0  0  0  0  0  0  0  0  0  0  0
  125.2490  124.5690   60.5100 N   0  0  0  0  0  0  0  0  0  0  0  0
  1  2  1  0
  2  3  1  0
  3  4  2  0
  3  5  1  0
  5  6  1  0
  6  7  1  0
  7  8  2  0
  8  9  1  0
  9 10  1  0
  9 11  2  0
 11 12  1  0
 12 13  1  0
 12 14  2  0
 14 15  1  0
 15 16  1  0
 15  5  2  0
 14  7  1  0
M  END
>  <Binding energies>  (48) 
[-6.02]

>  <Ligand effiencies>  (48) 
[-0.33444444444444443]

>  <Interactions>  (48) 
["V-B:MET:535:CE:9806, V-B:LEU:363:CA:8156, V-B:LEU:363:CD1:8160, V-B:TYR:539:CD2:9845, V-B:PRO:540:CA:9854, V-B:TYR:539:CE2:9847, V-B:PRO:540:C:9852, V-B:ALA:541:CB:9863, V-B:PRO:540:N:9855, V-B:TYR:539:CE1:9846, V-B:PRO:540:CB:9856, H-B:TYR:539:N:9841, H-B:ALA:541:N:9862, V-B:TYR:539:C:9838, V-B:ILE:538:CA:9831, V-B:TYR:539:CD1:9844, V-B:ASP:366:CB:8183, V-B:ILE:538:CD1:9836, H-B:ASP:366:OD2:8186, V-B:ALA:541:CA:9861, V-B:TYR:531:CZ:9765, V-B:TYR:531:CE2:9764, H-B:GLU:543:OE2:9881, V-B:ILE:538:C:9829, V-B:VAL:537:C:9821"]

$$$$
4bc_Grossjean_2025
     RDKit          3D

 26 28  0  0  0  0  0  0  0  0999 V2000
  126.1270  122.4020   55.3690 C   0  0  0  0  0  0  0  0  0  0  0  0
  125.5930  122.2990   56.6850 O   0  0  0  0  0  0  0  0  0  0  0  0
  126.3460  122.7470   57.7540 C   0  0  0  0  0  0  0  0  0  0  0  0
  127.6810  122.3460   57.7860 C   0  0  0  0  0  0  0  0  0  0  0  0
  128.5170  122.7480   58.8250 C   0  0  0  0  0  0  0  0  0  0  0  0
  128.0280  123.5660   59.8440 C   0  0  0  0  0  0  0  0  0  0  0  0
  128.9410  123.9080   60.8590 N   0  0  0  0  0  0  0  0  0  0  0  0
  130.1270  124.5560   60.7610 C   0  0  0  0  0  0  0  0  0  0  0  0
  130.6200  124.9310   59.6960 O   0  0  0  0  0  0  0  0  0  0  0  0
  130.8230  124.7910   62.0300 C   0  0  0  0  0  0  0  0  0  0  0  0
  132.5570  124.5070   62.1570 S   0  0  0  0  0  0  0  0  0  0  0  0
  132.5580  124.9840   63.8390 C   0  0  0  0  0  0  0  0  0  0  0  0
  133.6790  124.9850   64.5600 N   0  0  0  0  0  0  0  0  0  0  0  0
  133.5550  125.3720   65.8500 C   0  0  0  0  0  0  0  0  0  0  0  0
  134.8430  125.3710   66.6530 C   0  0  0  0  0  0  0  0  0  0  0  0
  132.3480  125.7540   66.4310 C   0  0  0  0  0  0  0  0  0  0  0  0
  131.1640  125.7550   65.6760 C   0  0  0  0  0  0  0  0  0  0  0  0
  129.8600  126.1810   66.3610 C   0  0  0  0  0  0  0  0  0  0  0  0
  130.0630  126.8580   67.4930 F   0  0  0  0  0  0  0  0  0  0  0  0
  129.1610  126.9680   65.5440 F   0  0  0  0  0  0  0  0  0  0  0  0
  129.1360  125.1040   66.6630 F   0  0  0  0  0  0  0  0  0  0  0  0
  131.2610  125.3530   64.3110 C   0  0  0  0  0  0  0  0  0  0  0  0
  130.2900  125.2350   63.2510 C   0  0  0  0  0  0  0  0  0  0  0  0
  128.9620  125.5320   63.4270 N   0  0  0  0  0  0  0  0  0  0  0  0
  126.6820  123.9620   59.8260 C   0  0  0  0  0  0  0  0  0  0  0  0
  125.8490  123.5580   58.7870 C   0  0  0  0  0  0  0  0  0  0  0  0
  1  2  1  0
  2  3  1  0
  3  4  2  0
  4  5  1  0
  5  6  2  0
  6  7  1  0
  7  8  1  0
  8  9  2  0
  8 10  1  0
 10 11  1  0
 11 12  1  0
 12 13  2  0
 13 14  1  0
 14 15  1  0
 14 16  2  0
 16 17  1  0
 17 18  1  0
 18 19  1  0
 18 20  1  0
 18 21  1  0
 17 22  2  0
 22 23  1  0
 23 24  1  0
  6 25  1  0
 25 26  2  0
 26  3  1  0
 23 10  2  0
 22 12  1  0
M  END
>  <Binding energies>  (49) 
[-6.28]

>  <Ligand effiencies>  (49) 
[-0.21655172413793106]

>  <Interactions>  (49) 
["V-A:HIS:456:CE1:4069, V-B:GLU:543:CD:9879, V-A:GLU:543:CD:4908, V-B:GLU:543:CB:9877, V-B:GLU:543:CG:9878, V-B:GLU:543:CA:9875, V-B:MET:535:CE:9806, V-B:TYR:539:CD2:9845, V-B:PRO:540:CA:9854, V-B:TYR:539:CE2:9847, V-B:PRO:540:N:9855, V-B:TYR:539:CE1:9846, V-B:PRO:540:CB:9856, H-B:TYR:539:N:9841, V-B:TYR:539:CZ:9848, V-B:TYR:539:C:9838, V-B:PRO:540:CD:9858, V-A:ARG:545:CZ:4926, V-B:ILE:538:CA:9831, V-B:TYR:539:CD1:9844, H-A:GLY:454:N:4049, V-B:ILE:538:CD1:9836, V-B:TYR:539:CG:9843, V-A:GLY:454:CA:4048, V-A:ARG:545:CD:4923, V-A:ILE:455:C:4051, V-A:ARG:545:CG:4922, H-B:GLU:543:OE2:9881, V-A:GLY:453:C:4041, V-A:GLY:453:CA:4043"]

$$$$
4bf_Grossjean_2025
     RDKit          3D

 24 26  0  0  0  0  0  0  0  0999 V2000
  126.8740  122.0240   54.8390 C   0  0  0  0  0  0  0  0  0  0  0  0
  126.7980  123.2800   55.6890 C   0  0  0  0  0  0  0  0  0  0  0  0
  125.8010  123.4380   56.6480 C   0  0  0  0  0  0  0  0  0  0  0  0
  125.7400  124.6050   57.4240 C   0  0  0  0  0  0  0  0  0  0  0  0
  124.6240  124.7360   58.4660 C   0  0  0  0  0  0  0  0  0  0  0  0
  123.8820  123.6300   58.5770 F   0  0  0  0  0  0  0  0  0  0  0  0
  125.1510  124.9850   59.6650 F   0  0  0  0  0  0  0  0  0  0  0  0
  123.8050  125.7330   58.1280 F   0  0  0  0  0  0  0  0  0  0  0  0
  126.7330  125.6020   57.1840 C   0  0  0  0  0  0  0  0  0  0  0  0
  126.9850  126.8970   57.7660 C   0  0  0  0  0  0  0  0  0  0  0  0
  126.2080  127.4210   58.7670 N   0  0  0  0  0  0  0  0  0  0  0  0
  128.0940  127.5660   57.2220 C   0  0  0  0  0  0  0  0  0  0  0  0
  128.6100  128.8970   57.5520 C   0  0  0  0  0  0  0  0  0  0  0  0
  128.0430  129.6000   58.3890 O   0  0  0  0  0  0  0  0  0  0  0  0
  129.7350  129.2650   56.8900 N   0  0  0  0  0  0  0  0  0  0  0  0
  130.4480  130.4780   56.9390 C   0  0  0  0  0  0  0  0  0  0  0  0
  131.7870  130.6200   57.3410 C   0  0  0  0  0  0  0  0  0  0  0  0
  132.3730  131.8880   57.3580 C   0  0  0  0  0  0  0  0  0  0  0  0
  131.6000  132.9860   56.9760 C   0  0  0  0  0  0  0  0  0  0  0  0
  130.3050  132.8760   56.5910 N   0  0  0  0  0  0  0  0  0  0  0  0
  129.7490  131.6370   56.5800 C   0  0  0  0  0  0  0  0  0  0  0  0
  128.8600  126.6050   55.9590 S   0  0  0  0  0  0  0  0  0  0  0  0
  127.7000  125.3150   56.1710 C   0  0  0  0  0  0  0  0  0  0  0  0
  127.7540  124.2040   55.4370 N   0  0  0  0  0  0  0  0  0  0  0  0
  1  2  1  0
  2  3  2  0
  3  4  1  0
  4  5  1  0
  5  6  1  0
  5  7  1  0
  5  8  1  0
  4  9  2  0
  9 10  1  0
 10 11  1  0
 10 12  2  0
 12 13  1  0
 13 14  2  0
 13 15  1  0
 15 16  1  0
 16 17  2  0
 17 18  1  0
 18 19  2  0
 19 20  1  0
 20 21  2  0
 12 22  1  0
 22 23  1  0
 23 24  2  0
 24  2  1  0
 23  9  1  0
 21 16  1  0
M  END
>  <Binding energies>  (50) 
[-6.53]

>  <Ligand effiencies>  (50) 
[-0.24185185185185187]

>  <Interactions>  (50) 
["V-B:MET:535:CE:9806, V-B:ASP:366:CG:8184, V-B:LEU:363:CA:8156, V-B:LEU:363:CD1:8160, V-B:PRO:540:CA:9854, V-B:TYR:539:CE1:9846, V-B:PRO:540:CB:9856, V-B:ILE:538:CA:9831, V-A:TYR:539:C:4867, H-A:TYR:531:OH:4795, H-B:TYR:531:OH:9766, V-A:PRO:540:N:4884, V-A:MET:535:CE:4835, V-B:TYR:539:CD1:9844, V-A:TYR:531:CZ:4794, V-B:ASP:366:CB:8183, V-A:PRO:540:CB:4885, V-A:LEU:363:CD1:3188, V-A:TYR:531:CE2:4793, V-A:PRO:540:CA:4883, V-B:ILE:538:CD1:9836, V-B:TYR:539:CG:9843, H-B:ASP:366:OD2:8186, V-B:TYR:531:CZ:9765, V-B:TYR:531:CE2:9764, V-A:PRO:540:CD:4887, H-A:TYR:539:N:4870, V-B:ILE:538:C:9829, V-B:LEU:363:CB:8158"]

$$$$
4bh_Grossjean_2025
     RDKit          3D

 31 33  0  0  0  0  0  0  0  0999 V2000
  125.4230  122.3340   55.7260 C   0  0  0  0  0  0  0  0  0  0  0  0
  126.8390  122.3270   55.8700 O   0  0  0  0  0  0  0  0  0  0  0  0
  127.4160  122.9740   56.9470 C   0  0  0  0  0  0  0  0  0  0  0  0
  127.0650  122.7360   58.2850 C   0  0  0  0  0  0  0  0  0  0  0  0
  127.6880  123.4290   59.3240 C   0  0  0  0  0  0  0  0  0  0  0  0
  127.3260  123.1230   60.7720 C   0  0  0  0  0  0  0  0  0  0  0  0
  128.3420  123.5570   61.7320 N   0  0  0  0  0  0  0  0  0  0  0  0
  129.6340  123.1690   61.7320 C   0  0  0  0  0  0  0  0  0  0  0  0
  130.0820  122.3560   60.9200 O   0  0  0  0  0  0  0  0  0  0  0  0
  130.4750  123.7360   62.7860 C   0  0  0  0  0  0  0  0  0  0  0  0
  132.2080  123.4210   62.7960 S   0  0  0  0  0  0  0  0  0  0  0  0
  132.4090  124.3370   64.2710 C   0  0  0  0  0  0  0  0  0  0  0  0
  133.6060  124.4870   64.8380 N   0  0  0  0  0  0  0  0  0  0  0  0
  133.6360  125.2200   65.9760 C   0  0  0  0  0  0  0  0  0  0  0  0
  135.0080  125.3770   66.6060 C   0  0  0  0  0  0  0  0  0  0  0  0
  132.5100  125.8010   66.5530 C   0  0  0  0  0  0  0  0  0  0  0  0
  131.2470  125.6450   65.9620 C   0  0  0  0  0  0  0  0  0  0  0  0
  130.0370  126.3050   66.6320 C   0  0  0  0  0  0  0  0  0  0  0  0
  129.1080  125.4280   67.0160 F   0  0  0  0  0  0  0  0  0  0  0  0
  130.4310  126.9690   67.7180 F   0  0  0  0  0  0  0  0  0  0  0  0
  129.4590  127.1540   65.7820 F   0  0  0  0  0  0  0  0  0  0  0  0
  131.1790  124.8760   64.7620 C   0  0  0  0  0  0  0  0  0  0  0  0
  130.0880  124.5020   63.8960 C   0  0  0  0  0  0  0  0  0  0  0  0
  128.7900  124.8720   64.1360 N   0  0  0  0  0  0  0  0  0  0  0  0
  128.6930  124.3510   59.0280 C   0  0  0  0  0  0  0  0  0  0  0  0
  129.0590  124.6160   57.7000 C   0  0  0  0  0  0  0  0  0  0  0  0
  130.0350  125.5260   57.3340 O   0  0  0  0  0  0  0  0  0  0  0  0
  131.1890  125.6780   58.1540 C   0  0  0  0  0  0  0  0  0  0  0  0
  128.4080  123.9250   56.6680 C   0  0  0  0  0  0  0  0  0  0  0  0
  128.7700  124.1610   55.3620 O   0  0  0  0  0  0  0  0  0  0  0  0
  128.7520  125.5340   54.9980 C   0  0  0  0  0  0  0  0  0  0  0  0
  1  2  1  0
  2  3  1  0
  3  4  2  0
  4  5  1  0
  5  6  1  0
  6  7  1  0
  7  8  1  0
  8  9  2  0
  8 10  1  0
 10 11  1  0
 11 12  1  0
 12 13  2  0
 13 14  1  0
 14 15  1  0
 14 16  2  0
 16 17  1  0
 17 18  1  0
 18 19  1  0
 18 20  1  0
 18 21  1  0
 17 22  2  0
 22 23  1  0
 23 24  1  0
  5 25  2  0
 25 26  1  0
 26 27  1  0
 27 28  1  0
 26 29  2  0
 29 30  1  0
 30 31  1  0
 29  3  1  0
 23 10  2  0
 22 12  1  0
M  END
>  <Binding energies>  (51) 
[-6.09]

>  <Ligand effiencies>  (51) 
[-0.17911764705882352]

>  <Interactions>  (51) 
["V-A:HIS:456:CE1:4069, V-B:GLU:543:CD:9879, V-A:GLU:543:CD:4908, V-B:GLU:543:CB:9877, V-B:GLU:543:CG:9878, V-B:MET:535:CE:9806, V-B:LEU:363:CD1:8160, V-B:PRO:540:CA:9854, V-B:TYR:539:CE2:9847, V-B:PRO:540:C:9852, V-B:ALA:541:CB:9863, V-B:PRO:540:N:9855, V-B:TYR:539:CE1:9846, V-B:PRO:540:CB:9856, H-B:TYR:539:N:9841, V-B:TYR:539:CZ:9848, V-B:TYR:539:C:9838, V-B:PRO:540:CD:9858, V-A:ARG:545:CZ:4926, V-B:ILE:538:CA:9831, H-A:TYR:531:OH:4795, H-B:TYR:539:OH:9849, V-B:TYR:539:CD1:9844, H-A:GLY:454:N:4049, V-B:ILE:538:CG2:9834, H-A:TYR:484:OH:4347, V-B:ILE:538:CD1:9836, V-A:GLY:454:CA:4048, V-A:ARG:545:CD:4923, V-A:ILE:455:C:4051, V-A:ARG:545:CG:4922, H-B:GLU:543:OE1:9880, H-B:GLU:543:OE2:9881, V-A:GLY:453:C:4041, V-A:GLY:453:CA:4043"]

$$$$
4bi_Grossjean_2025
     RDKit          3D

 23 25  0  0  0  0  0  0  0  0999 V2000
  126.7310  122.3820   56.5440 C   0  0  0  0  0  0  0  0  0  0  0  0
  127.0210  122.7290   57.9930 C   0  0  0  0  0  0  0  0  0  0  0  0
  126.0240  123.2350   58.8230 C   0  0  0  0  0  0  0  0  0  0  0  0
  126.3050  123.5470   60.1630 C   0  0  0  0  0  0  0  0  0  0  0  0
  125.1740  124.0940   61.0400 C   0  0  0  0  0  0  0  0  0  0  0  0
  124.8970  123.3100   62.0840 F   0  0  0  0  0  0  0  0  0  0  0  0
  125.5120  125.2910   61.5190 F   0  0  0  0  0  0  0  0  0  0  0  0
  124.0580  124.2080   60.3180 F   0  0  0  0  0  0  0  0  0  0  0  0
  127.6400  123.3270   60.6170 C   0  0  0  0  0  0  0  0  0  0  0  0
  128.2880  123.5270   61.8900 C   0  0  0  0  0  0  0  0  0  0  0  0
  127.6330  124.0290   62.9850 N   0  0  0  0  0  0  0  0  0  0  0  0
  129.6430  123.1570   61.9090 C   0  0  0  0  0  0  0  0  0  0  0  0
  130.5970  123.2380   63.0190 C   0  0  0  0  0  0  0  0  0  0  0  0
  130.7030  122.3130   63.8270 O   0  0  0  0  0  0  0  0  0  0  0  0
  131.3400  124.3720   63.0660 N   0  0  0  0  0  0  0  0  0  0  0  0
  132.3190  124.7040   63.9940 C   0  0  0  0  0  0  0  0  0  0  0  0
  132.0270  125.1800   65.2710 C   0  0  0  0  0  0  0  0  0  0  0  0
  133.2510  125.3860   65.8660 C   0  0  0  0  0  0  0  0  0  0  0  0
  134.2290  125.0510   64.9910 O   0  0  0  0  0  0  0  0  0  0  0  0
  133.6250  124.6200   63.8080 N   0  0  0  0  0  0  0  0  0  0  0  0
  130.1650  122.5680   60.3320 S   0  0  0  0  0  0  0  0  0  0  0  0
  128.5670  122.8030   59.6650 C   0  0  0  0  0  0  0  0  0  0  0  0
  128.2940  122.5070   58.3940 N   0  0  0  0  0  0  0  0  0  0  0  0
  1  2  1  0
  2  3  2  0
  3  4  1  0
  4  5  1  0
  5  6  1  0
  5  7  1  0
  5  8  1  0
  4  9  2  0
  9 10  1  0
 10 11  1  0
 10 12  2  0
 12 13  1  0
 13 14  2  0
 13 15  1  0
 15 16  1  0
 16 17  1  0
 17 18  2  0
 18 19  1  0
 19 20  1  0
 12 21  1  0
 21 22  1  0
 22 23  2  0
 23  2  1  0
 22  9  1  0
 20 16  2  0
M  END
>  <Binding energies>  (52) 
[-6.67]

>  <Ligand effiencies>  (52) 
[-0.25653846153846155]

>  <Interactions>  (52) 
["V-B:GLU:543:CD:9879, V-B:GLU:543:CG:9878, V-B:ASP:366:CG:8184, V-B:LEU:363:CA:8156, V-B:ASN:362:C:8143, V-B:TYR:539:CD2:9845, V-B:PRO:540:CA:9854, V-B:TYR:539:CE2:9847, V-B:PRO:540:C:9852, V-B:ALA:541:CB:9863, V-B:PRO:540:N:9855, V-B:TYR:539:CE1:9846, V-B:PRO:540:CB:9856, V-B:TYR:539:C:9838, V-B:PRO:540:CD:9858, V-A:ARG:545:CZ:4926, V-B:TYR:539:CD1:9844, H-A:GLY:454:N:4049, V-B:ASN:362:CB:8147, H-A:TYR:484:OH:4347, V-B:TYR:539:CG:9843, H-A:ARG:545:NH1:4927, H-A:ARG:545:NE:4924, V-A:ARG:545:CD:4923, H-B:GLU:543:OE2:9881"]

$$$$
4bj_Grossjean_2025
     RDKit          3D

 23 25  0  0  0  0  0  0  0  0999 V2000
  126.8120  121.9880   54.7780 C   0  0  0  0  0  0  0  0  0  0  0  0
  126.7730  123.2250   55.6580 C   0  0  0  0  0  0  0  0  0  0  0  0
  125.7710  123.3960   56.6100 C   0  0  0  0  0  0  0  0  0  0  0  0
  125.7430  124.5480   57.4120 C   0  0  0  0  0  0  0  0  0  0  0  0
  124.6190  124.6940   58.4450 C   0  0  0  0  0  0  0  0  0  0  0  0
  123.7810  125.6930   58.1640 F   0  0  0  0  0  0  0  0  0  0  0  0
  123.9030  123.5710   58.4930 F   0  0  0  0  0  0  0  0  0  0  0  0
  125.1420  124.9360   59.6470 F   0  0  0  0  0  0  0  0  0  0  0  0
  126.7760  125.5110   57.2070 C   0  0  0  0  0  0  0  0  0  0  0  0
  127.0670  126.7840   57.8210 C   0  0  0  0  0  0  0  0  0  0  0  0
  126.2900  127.3220   58.8150 N   0  0  0  0  0  0  0  0  0  0  0  0
  128.2140  127.4150   57.3160 C   0  0  0  0  0  0  0  0  0  0  0  0
  128.7890  128.7070   57.6980 C   0  0  0  0  0  0  0  0  0  0  0  0
  128.2730  129.3890   58.5870 O   0  0  0  0  0  0  0  0  0  0  0  0
  129.9070  129.0700   57.0240 N   0  0  0  0  0  0  0  0  0  0  0  0
  130.6480  130.2310   57.2010 C   0  0  0  0  0  0  0  0  0  0  0  0
  131.8350  130.3570   57.7530 N   0  0  0  0  0  0  0  0  0  0  0  0
  132.2420  131.6100   57.7480 C   0  0  0  0  0  0  0  0  0  0  0  0
  131.3740  132.5370   57.1810 C   0  0  0  0  0  0  0  0  0  0  0  0
  129.9470  131.7120   56.6290 S   0  0  0  0  0  0  0  0  0  0  0  0
  128.9620  126.4560   56.0400 S   0  0  0  0  0  0  0  0  0  0  0  0
  127.7450  125.2110   56.2020 C   0  0  0  0  0  0  0  0  0  0  0  0
  127.7660  124.1180   55.4400 N   0  0  0  0  0  0  0  0  0  0  0  0
  1  2  1  0
  2  3  2  0
  3  4  1  0
  4  5  1  0
  5  6  1  0
  5  7  1  0
  5  8  1  0
  4  9  2  0
  9 10  1  0
 10 11  1  0
 10 12  2  0
 12 13  1  0
 13 14  2  0
 13 15  1  0
 15 16  1  0
 16 17  2  0
 17 18  1  0
 18 19  2  0
 19 20  1  0
 12 21  1  0
 21 22  1  0
 22 23  2  0
 23  2  1  0
 22  9  1  0
 20 16  1  0
M  END
>  <Binding energies>  (53) 
[-5.66]

>  <Ligand effiencies>  (53) 
[-0.21769230769230768]

>  <Interactions>  (53) 
["V-B:MET:535:CE:9806, V-B:ASP:366:CG:8184, V-B:LEU:363:CA:8156, V-B:LEU:363:CD1:8160, V-B:PRO:540:CA:9854, V-B:TYR:539:CE1:9846, V-B:PRO:540:CB:9856, V-B:ILE:538:CA:9831, V-A:TYR:539:C:4867, H-A:TYR:531:OH:4795, H-B:TYR:531:OH:9766, V-A:PRO:540:N:4884, V-A:MET:535:CE:4835, V-B:TYR:539:CD1:9844, V-B:ASP:366:CB:8183, V-A:LEU:363:CD1:3188, V-A:PRO:540:CA:4883, V-B:ILE:538:CD1:9836, H-B:ASP:366:OD2:8186, V-B:TYR:531:CZ:9765, V-B:TYR:531:CE2:9764, V-B:ILE:538:C:9829, V-B:LEU:363:CB:8158"]

$$$$
4bk_Grossjean_2025
     RDKit          3D

 28 29  0  0  0  0  0  0  0  0999 V2000
  129.3740  124.7370   58.5180 C   0  0  0  0  0  0  0  0  0  0  0  0
  128.0690  124.3380   58.1270 O   0  0  0  0  0  0  0  0  0  0  0  0
  128.0230  123.7400   56.8380 C   0  0  0  0  0  0  0  0  0  0  0  0
  127.3700  122.3560   56.9380 C   0  0  0  0  0  0  0  0  0  0  0  0
  126.8190  122.0010   55.6770 O   0  0  0  0  0  0  0  0  0  0  0  0
  125.4010  122.0940   55.6240 C   0  0  0  0  0  0  0  0  0  0  0  0
  124.9570  123.4450   56.2000 C   0  0  0  0  0  0  0  0  0  0  0  0
  124.8680  123.3470   57.6140 O   0  0  0  0  0  0  0  0  0  0  0  0
  124.1450  124.4110   58.2210 C   0  0  0  0  0  0  0  0  0  0  0  0
  124.5290  124.5060   59.7080 C   0  0  0  0  0  0  0  0  0  0  0  0
  125.8260  123.9050   60.0190 N   0  0  0  0  0  0  0  0  0  0  0  0
  126.3400  123.7590   61.2580 C   0  0  0  0  0  0  0  0  0  0  0  0
  125.7340  124.1150   62.2710 O   0  0  0  0  0  0  0  0  0  0  0  0
  127.6650  123.1420   61.3370 C   0  0  0  0  0  0  0  0  0  0  0  0
  128.1820  121.9980   60.1020 S   0  0  0  0  0  0  0  0  0  0  0  0
  129.7370  121.7990   60.8740 C   0  0  0  0  0  0  0  0  0  0  0  0
  130.6630  120.9820   60.3740 N   0  0  0  0  0  0  0  0  0  0  0  0
  131.8280  120.9130   61.0590 C   0  0  0  0  0  0  0  0  0  0  0  0
  132.8690  119.9780   60.4690 C   0  0  0  0  0  0  0  0  0  0  0  0
  132.0850  121.6330   62.2220 C   0  0  0  0  0  0  0  0  0  0  0  0
  131.1140  122.4940   62.7560 C   0  0  0  0  0  0  0  0  0  0  0  0
  131.4420  123.2620   64.0400 C   0  0  0  0  0  0  0  0  0  0  0  0
  132.6590  122.9900   64.5160 F   0  0  0  0  0  0  0  0  0  0  0  0
  131.3880  124.5740   63.8070 F   0  0  0  0  0  0  0  0  0  0  0  0
  130.5630  122.9480   64.9910 F   0  0  0  0  0  0  0  0  0  0  0  0
  129.8740  122.5910   62.0570 C   0  0  0  0  0  0  0  0  0  0  0  0
  128.6720  123.3530   62.2910 C   0  0  0  0  0  0  0  0  0  0  0  0
  128.5290  124.2040   63.3570 N   0  0  0  0  0  0  0  0  0  0  0  0
  1  2  1  0
  2  3  1  0
  3  4  1  0
  4  5  1  0
  5  6  1  0
  6  7  1  0
  7  8  1  0
  8  9  1  0
  9 10  1  0
 10 11  1  0
 11 12  1  0
 12 13  2  0
 12 14  1  0
 14 15  1  0
 15 16  1  0
 16 17  2  0
 17 18  1  0
 18 19  1  0
 18 20  2  0
 20 21  1  0
 21 22  1  0
 22 23  1  0
 22 24  1  0
 22 25  1  0
 21 26  2  0
 26 27  1  0
 27 28  1  0
 27 14  2  0
 26 16  1  0
M  END
>  <Binding energies>  (54) 
[-5.09]

>  <Ligand effiencies>  (54) 
[-0.16419354838709677]

>  <Interactions>  (54) 
["V-B:GLU:543:CD:9879, V-B:GLU:543:CG:9878, V-B:MET:535:CE:9806, V-A:TRP:381:CZ2:3369, V-B:ASP:366:CG:8184, V-B:LEU:363:CA:8156, V-B:LEU:363:CD1:8160, V-A:TRP:381:CH2:3371, V-B:TYR:539:CD2:9845, V-B:PRO:540:CA:9854, V-B:TYR:539:CE2:9847, V-B:PRO:540:C:9852, V-B:ALA:541:CB:9863, V-B:PRO:540:N:9855, V-A:LEU:475:CD2:4258, V-B:TYR:539:CE1:9846, V-B:PRO:540:CB:9856, H-B:TYR:539:N:9841, V-A:ILE:369:CG2:3236, V-B:TYR:539:CZ:9848, V-B:TYR:539:C:9838, V-B:PRO:540:CD:9858, V-B:ILE:538:CA:9831, V-B:TYR:539:CD1:9844, V-B:ILE:538:CG2:9834, V-A:TYR:484:CE1:4344, V-B:ILE:538:CD1:9836, V-B:TYR:539:CA:9840, V-B:TYR:539:CG:9843, V-A:TYR:484:CZ:4346, V-A:GLY:454:CA:4048, H-B:ARG:545:NH2:9899, H-B:GLU:543:OE1:9880, H-B:GLU:543:OE2:9881"]

$$$$
4cd_Grossjean_2025
     RDKit          3D

 29 32  0  0  0  0  0  0  0  0999 V2000
  127.8850  123.7950   63.3580 N   0  0  0  0  0  0  0  0  0  0  0  0
  128.5170  123.4840   62.1810 C   0  0  0  0  0  0  0  0  0  0  0  0
  129.9010  123.2620   62.0860 C   0  0  0  0  0  0  0  0  0  0  0  0
  130.9110  123.3270   63.1460 C   0  0  0  0  0  0  0  0  0  0  0  0
  131.5610  122.3280   63.4560 O   0  0  0  0  0  0  0  0  0  0  0  0
  131.0660  124.5420   63.7270 N   0  0  0  0  0  0  0  0  0  0  0  0
  131.9000  124.9260   64.7930 C   0  0  0  0  0  0  0  0  0  0  0  0
  131.2870  125.6480   65.8210 C   0  0  0  0  0  0  0  0  0  0  0  0
  132.0260  126.0620   66.9260 C   0  0  0  0  0  0  0  0  0  0  0  0
  133.3800  125.7470   67.0080 C   0  0  0  0  0  0  0  0  0  0  0  0
  134.0000  125.0170   65.9980 C   0  0  0  0  0  0  0  0  0  0  0  0
  133.2640  124.6010   64.8910 C   0  0  0  0  0  0  0  0  0  0  0  0
  130.3710  122.8760   60.4320 S   0  0  0  0  0  0  0  0  0  0  0  0
  128.7190  123.0240   59.8800 C   0  0  0  0  0  0  0  0  0  0  0  0
  128.3940  122.8350   58.6030 N   0  0  0  0  0  0  0  0  0  0  0  0
  127.0860  122.9850   58.2670 C   0  0  0  0  0  0  0  0  0  0  0  0
  126.7500  122.7690   56.8200 C   0  0  0  0  0  0  0  0  0  0  0  0
  127.6200  123.2060   55.8070 C   0  0  0  0  0  0  0  0  0  0  0  0
  127.3150  123.0080   54.4630 C   0  0  0  0  0  0  0  0  0  0  0  0
  126.1310  122.3680   54.1120 C   0  0  0  0  0  0  0  0  0  0  0  0
  125.2540  121.9230   55.0940 C   0  0  0  0  0  0  0  0  0  0  0  0
  125.5630  122.1210   56.4370 C   0  0  0  0  0  0  0  0  0  0  0  0
  126.1100  123.3040   59.2160 C   0  0  0  0  0  0  0  0  0  0  0  0
  126.4430  123.5010   60.5670 C   0  0  0  0  0  0  0  0  0  0  0  0
  125.3230  123.8520   61.5540 C   0  0  0  0  0  0  0  0  0  0  0  0
  125.3880  123.1530   62.6900 F   0  0  0  0  0  0  0  0  0  0  0  0
  125.3940  125.1430   61.8750 F   0  0  0  0  0  0  0  0  0  0  0  0
  124.1380  123.6000   60.9990 F   0  0  0  0  0  0  0  0  0  0  0  0
  127.8120  123.3580   60.9280 C   0  0  0  0  0  0  0  0  0  0  0  0
  1  2  1  0
  2  3  2  0
  3  4  1  0
  4  5  2  0
  4  6  1  0
  6  7  1  0
  7  8  2  0
  8  9  1  0
  9 10  2  0
 10 11  1  0
 11 12  2  0
  3 13  1  0
 13 14  1  0
 14 15  2  0
 15 16  1  0
 16 17  1  0
 17 18  2  0
 18 19  1  0
 19 20  2  0
 20 21  1  0
 21 22  2  0
 16 23  2  0
 23 24  1  0
 24 25  1  0
 25 26  1  0
 25 27  1  0
 25 28  1  0
 24 29  2  0
 29  2  1  0
 12  7  1  0
 29 14  1  0
 22 17  1  0
M  END
>  <Binding energies>  (55) 
[-7.73]

>  <Ligand effiencies>  (55) 
[-0.2415625]

>  <Interactions>  (55) 
["V-A:HIS:456:CE1:4069, V-B:GLU:543:CD:9879, V-B:GLU:543:CG:9878, V-B:MET:535:CE:9806, V-B:ASP:366:CG:8184, V-B:LEU:363:CD1:8160, V-B:ASN:362:C:8143, V-B:PRO:540:CA:9854, V-B:TYR:539:CE2:9847, V-B:PRO:540:C:9852, V-B:ALA:541:CB:9863, V-B:PRO:540:N:9855, V-B:TYR:539:CE1:9846, V-B:PRO:540:CB:9856, V-B:TYR:539:CZ:9848, V-B:TYR:539:C:9838, V-B:PRO:540:CD:9858, V-A:ARG:545:CZ:4926, V-B:ILE:538:CA:9831, V-B:TYR:539:CD1:9844, V-B:ILE:538:CG2:9834, V-B:ASN:362:CB:8147, V-B:ILE:538:CD1:9836, V-A:GLY:454:CA:4048, V-B:ALA:541:C:9859, V-B:ALA:541:CA:9861, V-A:ARG:545:CD:4923, V-A:ARG:545:CG:4922, V-B:ARG:545:CZ:9897, H-B:GLU:543:OE2:9881, V-B:ILE:538:CB:9833, V-B:ILE:538:C:9829, V-A:GLY:453:C:4041, V-A:GLY:453:CA:4043, V-B:MET:535:CB:9803, V-B:VAL:537:C:9821, V-B:ILE:538:CG1:9835"]

$$$$
4cg_Grossjean_2025
     RDKit          3D

 30 33  0  0  0  0  0  0  0  0999 V2000
  131.3650  124.9910   66.7810 N   0  0  0  0  0  0  0  0  0  0  0  0
  130.9150  125.8090   65.7760 C   0  0  0  0  0  0  0  0  0  0  0  0
  131.4320  125.7800   64.4730 C   0  0  0  0  0  0  0  0  0  0  0  0
  132.4590  124.8990   63.9190 C   0  0  0  0  0  0  0  0  0  0  0  0
  133.6000  124.8700   64.3840 O   0  0  0  0  0  0  0  0  0  0  0  0
  132.0900  124.1590   62.8520 N   0  0  0  0  0  0  0  0  0  0  0  0
  132.9410  123.1970   62.1530 C   0  0  0  0  0  0  0  0  0  0  0  0
  132.1940  121.9520   61.6880 C   0  0  0  0  0  0  0  0  0  0  0  0
  130.7980  121.9140   61.7570 C   0  0  0  0  0  0  0  0  0  0  0  0
  130.1100  120.7910   61.3040 C   0  0  0  0  0  0  0  0  0  0  0  0
  130.8190  119.7150   60.7750 C   0  0  0  0  0  0  0  0  0  0  0  0
  132.2090  119.7540   60.6890 C   0  0  0  0  0  0  0  0  0  0  0  0
  132.8980  120.8770   61.1400 C   0  0  0  0  0  0  0  0  0  0  0  0
  130.6160  126.9440   63.4320 S   0  0  0  0  0  0  0  0  0  0  0  0
  129.6040  127.4780   64.7540 C   0  0  0  0  0  0  0  0  0  0  0  0
  128.6940  128.4340   64.5890 N   0  0  0  0  0  0  0  0  0  0  0  0
  127.9500  128.7800   65.6720 C   0  0  0  0  0  0  0  0  0  0  0  0
  126.9320  129.8630   65.4530 C   0  0  0  0  0  0  0  0  0  0  0  0
  125.5690  129.6320   65.6990 C   0  0  0  0  0  0  0  0  0  0  0  0
  124.6220  130.6310   65.4970 C   0  0  0  0  0  0  0  0  0  0  0  0
  125.0260  131.8830   65.0410 C   0  0  0  0  0  0  0  0  0  0  0  0
  126.3680  132.1380   64.7860 C   0  0  0  0  0  0  0  0  0  0  0  0
  127.3120  131.1350   64.9890 C   0  0  0  0  0  0  0  0  0  0  0  0
  128.1390  128.1760   66.9200 C   0  0  0  0  0  0  0  0  0  0  0  0
  129.0970  127.1670   67.1060 C   0  0  0  0  0  0  0  0  0  0  0  0
  129.2520  126.5490   68.5000 C   0  0  0  0  0  0  0  0  0  0  0  0
  129.3800  125.2210   68.4730 F   0  0  0  0  0  0  0  0  0  0  0  0
  130.3390  127.0430   69.0940 F   0  0  0  0  0  0  0  0  0  0  0  0
  128.1800  126.8300   69.2400 F   0  0  0  0  0  0  0  0  0  0  0  0
  129.8720  126.7870   65.9720 C   0  0  0  0  0  0  0  0  0  0  0  0
  1  2  1  0
  2  3  2  0
  3  4  1  0
  4  5  2  0
  4  6  1  0
  6  7  1  0
  7  8  1  0
  8  9  2  0
  9 10  1  0
 10 11  2  0
 11 12  1  0
 12 13  2  0
  3 14  1  0
 14 15  1  0
 15 16  2  0
 16 17  1  0
 17 18  1  0
 18 19  2  0
 19 20  1  0
 20 21  2  0
 21 22  1  0
 22 23  2  0
 17 24  2  0
 24 25  1  0
 25 26  1  0
 26 27  1  0
 26 28  1  0
 26 29  1  0
 25 30  2  0
 30  2  1  0
 13  8  1  0
 30 15  1  0
 23 18  1  0
M  END
>  <Binding energies>  (56) 
[-7.38]

>  <Ligand effiencies>  (56) 
[-0.22363636363636363]

>  <Interactions>  (56) 
["V-A:HIS:456:CE1:4069, V-A:GLU:543:CG:4907, V-B:GLU:543:CD:9879, V-A:GLU:543:CD:4908, V-B:HIS:456:CE1:9041, H-A:HIS:456:NE2:4070, V-B:GLU:543:CB:9877, V-B:GLU:543:CG:9878, V-B:GLU:543:CA:9875, V-A:TRP:381:CZ2:3369, V-A:TRP:381:CH2:3371, V-B:TYR:539:CD2:9845, V-B:TYR:539:CE2:9847, V-B:ALA:541:CB:9863, V-A:LEU:475:CD2:4258, V-A:ILE:369:CG2:3236, H-A:GLY:454:N:4049, H-A:TYR:484:OH:4347, V-A:TYR:484:CE1:4344, V-A:TYR:484:CZ:4346, V-A:ILE:369:CD1:3238, V-B:GLY:454:CA:9020, V-B:ARG:545:CZ:9897, V-B:LEU:475:CD1:9229"]

$$$$
4ch_Grossjean_2025
     RDKit          3D

 36 39  0  0  0  0  0  0  0  0999 V2000
  129.3360  128.9690   75.1860 C   0  0  0  0  0  0  0  0  0  0  0  0
  130.2450  128.3350   74.2930 O   0  0  0  0  0  0  0  0  0  0  0  0
  129.7760  127.8250   73.0970 C   0  0  0  0  0  0  0  0  0  0  0  0
  129.8340  128.5130   71.8740 C   0  0  0  0  0  0  0  0  0  0  0  0
  129.3420  127.9350   70.7030 C   0  0  0  0  0  0  0  0  0  0  0  0
  129.3880  128.7090   69.3900 C   0  0  0  0  0  0  0  0  0  0  0  0
  129.7850  127.9050   68.2330 N   0  0  0  0  0  0  0  0  0  0  0  0
  129.0500  126.9220   67.6720 C   0  0  0  0  0  0  0  0  0  0  0  0
  127.9270  126.6190   68.0800 O   0  0  0  0  0  0  0  0  0  0  0  0
  129.6500  126.2530   66.5170 C   0  0  0  0  0  0  0  0  0  0  0  0
  130.3220  124.6340   66.6860 S   0  0  0  0  0  0  0  0  0  0  0  0
  130.7530  124.5890   64.9940 C   0  0  0  0  0  0  0  0  0  0  0  0
  131.3580  123.5320   64.4580 N   0  0  0  0  0  0  0  0  0  0  0  0
  131.6500  123.5860   63.1330 C   0  0  0  0  0  0  0  0  0  0  0  0
  132.3370  122.3800   62.5610 C   0  0  0  0  0  0  0  0  0  0  0  0
  133.6630  122.0740   62.9110 C   0  0  0  0  0  0  0  0  0  0  0  0
  134.3070  120.9570   62.3840 C   0  0  0  0  0  0  0  0  0  0  0  0
  133.6320  120.1280   61.4960 C   0  0  0  0  0  0  0  0  0  0  0  0
  132.3200  120.4090   61.1290 C   0  0  0  0  0  0  0  0  0  0  0  0
  131.6810  121.5280   61.6560 C   0  0  0  0  0  0  0  0  0  0  0  0
  131.3480  124.7090   62.3560 C   0  0  0  0  0  0  0  0  0  0  0  0
  130.7110  125.8320   62.9100 C   0  0  0  0  0  0  0  0  0  0  0  0
  130.4100  127.0280   62.0010 C   0  0  0  0  0  0  0  0  0  0  0  0
  130.9940  128.1570   62.4110 F   0  0  0  0  0  0  0  0  0  0  0  0
  130.8450  126.7790   60.7670 F   0  0  0  0  0  0  0  0  0  0  0  0
  129.0960  127.2490   61.9680 F   0  0  0  0  0  0  0  0  0  0  0  0
  130.3890  125.7790   64.2960 C   0  0  0  0  0  0  0  0  0  0  0  0
  129.7480  126.7100   65.1940 C   0  0  0  0  0  0  0  0  0  0  0  0
  129.2860  127.9360   64.7880 N   0  0  0  0  0  0  0  0  0  0  0  0
  128.7690  126.6640   70.7510 C   0  0  0  0  0  0  0  0  0  0  0  0
  128.6960  125.9530   71.9600 C   0  0  0  0  0  0  0  0  0  0  0  0
  128.1440  124.6910   72.0810 O   0  0  0  0  0  0  0  0  0  0  0  0
  128.9530  123.6150   72.5440 C   0  0  0  0  0  0  0  0  0  0  0  0
  129.2090  126.5430   73.1250 C   0  0  0  0  0  0  0  0  0  0  0  0
  129.1310  125.8650   74.3170 O   0  0  0  0  0  0  0  0  0  0  0  0
  130.3870  125.4340   74.8220 C   0  0  0  0  0  0  0  0  0  0  0  0
  1  2  1  0
  2  3  1  0
  3  4  2  0
  4  5  1  0
  5  6  1  0
  6  7  1  0
  7  8  1  0
  8  9  2  0
  8 10  1  0
 10 11  1  0
 11 12  1  0
 12 13  2  0
 13 14  1  0
 14 15  1  0
 15 16  2  0
 16 17  1  0
 17 18  2  0
 18 19  1  0
 19 20  2  0
 14 21  2  0
 21 22  1  0
 22 23  1  0
 23 24  1  0
 23 25  1  0
 23 26  1  0
 22 27  2  0
 27 28  1  0
 28 29  1  0
  5 30  2  0
 30 31  1  0
 31 32  1  0
 32 33  1  0
 31 34  2  0
 34 35  1  0
 35 36  1  0
 34  3  1  0
 28 10  2  0
 27 12  1  0
 20 15  1  0
M  END
>  <Binding energies>  (57) 
[-7.08]

>  <Ligand effiencies>  (57) 
[-0.18153846153846154]

>  <Interactions>  (57) 
["V-A:LYS:547:CE:4950, V-A:HIS:456:CE1:4069, V-A:GLU:543:CB:4906, V-A:GLU:543:CG:4907, V-A:HIS:456:CD2:4067, V-B:GLU:543:CD:9879, V-A:GLU:543:CD:4908, V-B:HIS:456:CE1:9041, H-A:LYS:547:NZ:4951, H-B:LYS:547:NZ:9922, V-B:GLU:543:CB:9877, V-B:GLU:543:CG:9878, V-A:TRP:381:CH2:3371, V-A:LEU:475:CD2:4258, V-A:ILE:369:CG2:3236, H-A:TYR:484:OH:4347, V-A:TYR:484:CE1:4344, V-A:TYR:484:CZ:4346, V-A:GLY:454:CA:4048, V-A:ILE:369:CD1:3238, H-B:GLU:543:OE1:9880, H-B:GLU:543:OE2:9881, H-A:GLU:543:OE1:4909, H-A:GLU:543:OE2:4910"]

$$$$
4cj_Grossjean_2025
     RDKit          3D

 28 31  0  0  0  0  0  0  0  0999 V2000
  128.3260  123.8120   63.5460 N   0  0  0  0  0  0  0  0  0  0  0  0
  128.8950  123.5850   62.3190 C   0  0  0  0  0  0  0  0  0  0  0  0
  130.2810  123.4730   62.1230 C   0  0  0  0  0  0  0  0  0  0  0  0
  131.3540  123.5580   63.1170 C   0  0  0  0  0  0  0  0  0  0  0  0
  132.1490  122.6270   63.2690 O   0  0  0  0  0  0  0  0  0  0  0  0
  131.3900  124.7060   63.8380 N   0  0  0  0  0  0  0  0  0  0  0  0
  132.2990  125.0360   64.8350 C   0  0  0  0  0  0  0  0  0  0  0  0
  133.6120  124.9790   64.7810 N   0  0  0  0  0  0  0  0  0  0  0  0
  134.1620  125.3710   65.9130 C   0  0  0  0  0  0  0  0  0  0  0  0
  133.2840  125.7610   66.9200 C   0  0  0  0  0  0  0  0  0  0  0  0
  131.6520  125.6020   66.3420 S   0  0  0  0  0  0  0  0  0  0  0  0
  130.6630  123.1710   60.4300 S   0  0  0  0  0  0  0  0  0  0  0  0
  128.9700  123.2000   59.9970 C   0  0  0  0  0  0  0  0  0  0  0  0
  128.5710  123.0110   58.7420 N   0  0  0  0  0  0  0  0  0  0  0  0
  127.2350  123.0430   58.5030 C   0  0  0  0  0  0  0  0  0  0  0  0
  126.8180  122.8130   57.0780 C   0  0  0  0  0  0  0  0  0  0  0  0
  127.6480  123.2030   56.0150 C   0  0  0  0  0  0  0  0  0  0  0  0
  127.2640  122.9980   54.6920 C   0  0  0  0  0  0  0  0  0  0  0  0
  126.0390  122.4000   54.4130 C   0  0  0  0  0  0  0  0  0  0  0  0
  125.1980  122.0070   55.4470 C   0  0  0  0  0  0  0  0  0  0  0  0
  125.5850  122.2130   56.7680 C   0  0  0  0  0  0  0  0  0  0  0  0
  126.3080  123.2890   59.5210 C   0  0  0  0  0  0  0  0  0  0  0  0
  126.7170  123.4920   60.8480 C   0  0  0  0  0  0  0  0  0  0  0  0
  125.6480  123.7530   61.9150 C   0  0  0  0  0  0  0  0  0  0  0  0
  125.9250  123.1770   63.0860 F   0  0  0  0  0  0  0  0  0  0  0  0
  125.5390  125.0640   62.1310 F   0  0  0  0  0  0  0  0  0  0  0  0
  124.4730  123.2760   61.5030 F   0  0  0  0  0  0  0  0  0  0  0  0
  128.1160  123.4410   61.1130 C   0  0  0  0  0  0  0  0  0  0  0  0
  1  2  1  0
  2  3  2  0
  3  4  1  0
  4  5  2  0
  4  6  1  0
  6  7  1  0
  7  8  2  0
  8  9  1  0
  9 10  2  0
 10 11  1  0
  3 12  1  0
 12 13  1  0
 13 14  2  0
 14 15  1  0
 15 16  1  0
 16 17  2  0
 17 18  1  0
 18 19  2  0
 19 20  1  0
 20 21  2  0
 15 22  2  0
 22 23  1  0
 23 24  1  0
 24 25  1  0
 24 26  1  0
 24 27  1  0
 23 28  2  0
 28  2  1  0
 11  7  1  0
 28 13  1  0
 21 16  1  0
M  END
>  <Binding energies>  (58) 
[-7.8]

>  <Ligand effiencies>  (58) 
[-0.25161290322580643]

>  <Interactions>  (58) 
["V-A:HIS:456:CE1:4069, V-B:GLU:543:CD:9879, V-B:GLU:543:CG:9878, V-B:MET:535:CE:9806, V-B:LEU:363:CD1:8160, V-B:ASN:362:C:8143, V-B:PRO:540:CA:9854, V-B:TYR:539:CE2:9847, V-B:PRO:540:C:9852, V-B:ALA:541:CB:9863, V-B:PRO:540:N:9855, V-B:TYR:539:CE1:9846, V-B:PRO:540:CB:9856, V-B:TYR:539:CZ:9848, V-B:TYR:539:C:9838, V-B:PRO:540:CD:9858, V-A:ARG:545:CZ:4926, V-B:ILE:538:CA:9831, V-B:PRO:540:CG:9857, V-B:TYR:539:CD1:9844, H-A:GLY:454:N:4049, V-B:ILE:538:CG2:9834, V-B:ASN:362:CB:8147, H-A:TYR:484:OH:4347, V-B:ILE:538:CD1:9836, V-A:GLY:454:CA:4048, V-B:ALA:541:C:9859, V-B:ALA:541:CA:9861, V-A:ARG:545:CD:4923, V-A:ARG:545:CG:4922, V-B:ARG:545:CZ:9897, H-B:GLU:543:OE1:9880, H-B:GLU:543:OE2:9881, V-B:ILE:538:CB:9833, V-B:ILE:538:C:9829, V-A:GLY:453:C:4041, V-A:GLY:453:CA:4043"]

$$$$
4ck_Grossjean_2025
     RDKit          3D

 33 35  0  0  0  0  0  0  0  0999 V2000
  126.8540  122.4050   54.6500 C   0  0  0  0  0  0  0  0  0  0  0  0
  126.0530  121.6290   55.5280 O   0  0  0  0  0  0  0  0  0  0  0  0
  125.2490  122.4120   56.4000 C   0  0  0  0  0  0  0  0  0  0  0  0
  126.1570  123.1360   57.4020 C   0  0  0  0  0  0  0  0  0  0  0  0
  125.4540  124.2450   57.9470 O   0  0  0  0  0  0  0  0  0  0  0  0
  124.3940  123.8720   58.8180 C   0  0  0  0  0  0  0  0  0  0  0  0
  124.8130  124.1500   60.2670 C   0  0  0  0  0  0  0  0  0  0  0  0
  126.0990  123.5870   60.4870 O   0  0  0  0  0  0  0  0  0  0  0  0
  127.1620  124.5280   60.3970 C   0  0  0  0  0  0  0  0  0  0  0  0
  128.3590  124.0330   61.2220 C   0  0  0  0  0  0  0  0  0  0  0  0
  128.4740  124.7340   62.5010 N   0  0  0  0  0  0  0  0  0  0  0  0
  129.6000  125.2800   63.0050 C   0  0  0  0  0  0  0  0  0  0  0  0
  130.6750  125.2640   62.4020 O   0  0  0  0  0  0  0  0  0  0  0  0
  129.4720  125.9100   64.3190 C   0  0  0  0  0  0  0  0  0  0  0  0
  130.3030  125.2240   65.7130 S   0  0  0  0  0  0  0  0  0  0  0  0
  129.7170  126.5060   66.7470 C   0  0  0  0  0  0  0  0  0  0  0  0
  130.0290  126.5530   68.0400 N   0  0  0  0  0  0  0  0  0  0  0  0
  129.5250  127.5870   68.7640 C   0  0  0  0  0  0  0  0  0  0  0  0
  129.9110  127.6220   70.2150 C   0  0  0  0  0  0  0  0  0  0  0  0
  129.1820  126.8960   71.1710 C   0  0  0  0  0  0  0  0  0  0  0  0
  129.5330  126.9260   72.5180 C   0  0  0  0  0  0  0  0  0  0  0  0
  130.6230  127.6850   72.9300 C   0  0  0  0  0  0  0  0  0  0  0  0
  131.3660  128.4090   72.0040 C   0  0  0  0  0  0  0  0  0  0  0  0
  131.0120  128.3750   70.6570 C   0  0  0  0  0  0  0  0  0  0  0  0
  128.7180  128.5710   68.1850 C   0  0  0  0  0  0  0  0  0  0  0  0
  128.3810  128.5300   66.8220 C   0  0  0  0  0  0  0  0  0  0  0  0
  127.4890  129.6390   66.2530 C   0  0  0  0  0  0  0  0  0  0  0  0
  127.3000  130.6480   67.1050 F   0  0  0  0  0  0  0  0  0  0  0  0
  128.0440  130.1440   65.1520 F   0  0  0  0  0  0  0  0  0  0  0  0
  126.2890  129.1410   65.9520 F   0  0  0  0  0  0  0  0  0  0  0  0
  128.9020  127.4490   66.0540 C   0  0  0  0  0  0  0  0  0  0  0  0
  128.7870  127.0860   64.6620 C   0  0  0  0  0  0  0  0  0  0  0  0
  128.0660  127.8240   63.7590 N   0  0  0  0  0  0  0  0  0  0  0  0
  1  2  1  0
  2  3  1  0
  3  4  1  0
  4  5  1  0
  5  6  1  0
  6  7  1  0
  7  8  1  0
  8  9  1  0
  9 10  1  0
 10 11  1  0
 11 12  1  0
 12 13  2  0
 12 14  1  0
 14 15  1  0
 15 16  1  0
 16 17  2  0
 17 18  1  0
 18 19  1  0
 19 20  2  0
 20 21  1  0
 21 22  2  0
 22 23  1  0
 23 24  2  0
 18 25  2  0
 25 26  1  0
 26 27  1  0
 27 28  1  0
 27 29  1  0
 27 30  1  0
 26 31  2  0
 31 32  1  0
 32 33  1  0
 32 14  2  0
 31 16  1  0
 24 19  1  0
M  END
>  <Binding energies>  (59) 
[-6.57]

>  <Ligand effiencies>  (59) 
[-0.1825]

>  <Interactions>  (59) 
["V-A:HIS:456:CE1:4069, V-A:GLU:543:CB:4906, V-A:GLU:543:CG:4907, V-B:GLU:543:CD:9879, V-A:GLU:543:CD:4908, V-B:HIS:456:CE1:9041, V-B:GLU:543:CG:9878, V-B:MET:535:CE:9806, V-B:LEU:363:CA:8156, V-B:LEU:363:CD1:8160, V-B:PRO:540:CA:9854, V-B:PRO:540:N:9855, V-B:TYR:539:CE1:9846, V-B:PRO:540:CB:9856, H-B:TYR:539:N:9841, H-B:ALA:541:N:9862, V-B:PRO:540:CD:9858, V-B:ILE:538:CA:9831, V-B:TYR:539:CD1:9844, V-B:ILE:538:CD1:9836, V-A:GLY:544:C:4912, V-B:TYR:484:CE1:9316, V-B:TYR:484:CZ:9318, H-B:GLU:543:OE1:9880, H-B:GLU:543:OE2:9881, H-A:GLU:543:OE1:4909"]

$$$$
4dd_Grossjean_2025
     RDKit          3D

 26 29  0  0  0  0  0  0  0  0999 V2000
  125.4440  123.8310   61.6040 C   0  0  0  0  0  0  0  0  0  0  0  0
  126.5500  123.5220   60.6060 C   0  0  0  0  0  0  0  0  0  0  0  0
  126.1950  123.3210   59.2670 C   0  0  0  0  0  0  0  0  0  0  0  0
  127.1660  123.0330   58.3000 C   0  0  0  0  0  0  0  0  0  0  0  0
  126.8130  122.8070   56.8600 C   0  0  0  0  0  0  0  0  0  0  0  0
  125.6280  122.1430   56.5050 C   0  0  0  0  0  0  0  0  0  0  0  0
  125.2930  121.9320   55.1700 C   0  0  0  0  0  0  0  0  0  0  0  0
  126.1440  122.3830   54.1670 C   0  0  0  0  0  0  0  0  0  0  0  0
  127.3230  123.0450   54.4890 C   0  0  0  0  0  0  0  0  0  0  0  0
  127.6530  123.2560   55.8250 C   0  0  0  0  0  0  0  0  0  0  0  0
  128.4850  122.9260   58.6170 N   0  0  0  0  0  0  0  0  0  0  0  0
  128.8260  123.1240   59.8900 C   0  0  0  0  0  0  0  0  0  0  0  0
  130.4870  123.0350   60.4310 S   0  0  0  0  0  0  0  0  0  0  0  0
  130.0150  123.4040   62.0910 C   0  0  0  0  0  0  0  0  0  0  0  0
  131.0270  123.5040   63.1440 C   0  0  0  0  0  0  0  0  0  0  0  0
  131.8130  122.5780   63.3500 O   0  0  0  0  0  0  0  0  0  0  0  0
  131.0270  124.6660   63.8420 N   0  0  0  0  0  0  0  0  0  0  0  0
  131.8210  125.0560   64.9360 C   0  0  0  0  0  0  0  0  0  0  0  0
  133.1750  124.7160   64.8590 C   0  0  0  0  0  0  0  0  0  0  0  0
  134.0470  125.0700   65.8860 C   0  0  0  0  0  0  0  0  0  0  0  0
  133.5650  125.7710   66.9880 C   0  0  0  0  0  0  0  0  0  0  0  0
  132.2220  126.1270   67.0710 C   0  0  0  0  0  0  0  0  0  0  0  0
  131.3480  125.7740   66.0470 C   0  0  0  0  0  0  0  0  0  0  0  0
  128.6260  123.5790   62.1950 C   0  0  0  0  0  0  0  0  0  0  0  0
  127.9790  123.8700   63.3700 N   0  0  0  0  0  0  0  0  0  0  0  0
  127.9240  123.4270   60.9480 C   0  0  0  0  0  0  0  0  0  0  0  0
  1  2  1  0
  2  3  2  0
  3  4  1  0
  4  5  1  0
  5  6  2  0
  6  7  1  0
  7  8  2  0
  8  9  1  0
  9 10  2  0
  4 11  2  0
 11 12  1  0
 12 13  1  0
 13 14  1  0
 14 15  1  0
 15 16  2  0
 15 17  1  0
 17 18  1  0
 18 19  2  0
 19 20  1  0
 20 21  2  0
 21 22  1  0
 22 23  2  0
 14 24  2  0
 24 25  1  0
 24 26  1  0
 26  2  1  0
 10  5  1  0
 26 12  2  0
 23 18  1  0
M  END
>  <Binding energies>  (60) 
[-7.83]

>  <Ligand effiencies>  (60) 
[-0.27]

>  <Interactions>  (60) 
["V-A:HIS:456:CE1:4069, V-B:GLU:543:CD:9879, V-B:GLU:543:CG:9878, V-B:MET:535:CE:9806, V-B:LEU:363:CD1:8160, V-B:PRO:540:CA:9854, V-B:TYR:539:CE2:9847, V-B:ALA:541:CB:9863, V-B:PRO:540:N:9855, V-B:TYR:539:CE1:9846, V-B:PRO:540:CB:9856, V-B:TYR:539:CZ:9848, V-B:TYR:539:C:9838, V-B:PRO:540:CD:9858, V-A:ARG:545:CZ:4926, V-B:ILE:538:CA:9831, V-B:TYR:539:CD1:9844, V-B:ILE:538:CG2:9834, V-B:ILE:538:CD1:9836, V-A:GLY:454:CA:4048, V-A:ARG:545:CD:4923, V-A:ARG:545:CG:4922, H-B:GLU:543:OE1:9880, H-B:GLU:543:OE2:9881, V-B:ILE:538:CB:9833, V-B:ILE:538:C:9829, V-A:GLY:453:C:4041, V-A:GLY:453:CA:4043, V-B:MET:535:CB:9803, V-B:ILE:538:CG1:9835"]

$$$$
4dg_Grossjean_2025
     RDKit          3D

 27 30  0  0  0  0  0  0  0  0999 V2000
  130.9670  126.5570   63.3790 C   0  0  0  0  0  0  0  0  0  0  0  0
  131.0180  125.8100   62.0550 C   0  0  0  0  0  0  0  0  0  0  0  0
  130.9710  124.4110   62.0840 C   0  0  0  0  0  0  0  0  0  0  0  0
  131.0130  123.6650   60.9000 C   0  0  0  0  0  0  0  0  0  0  0  0
  130.9630  122.1620   60.9000 C   0  0  0  0  0  0  0  0  0  0  0  0
  129.7560  121.4810   61.1260 C   0  0  0  0  0  0  0  0  0  0  0  0
  129.7050  120.0890   61.1300 C   0  0  0  0  0  0  0  0  0  0  0  0
  130.8650  119.3560   60.9080 C   0  0  0  0  0  0  0  0  0  0  0  0
  132.0760  120.0040   60.6850 C   0  0  0  0  0  0  0  0  0  0  0  0
  132.1220  121.3950   60.6820 C   0  0  0  0  0  0  0  0  0  0  0  0
  131.0830  124.2600   59.6780 N   0  0  0  0  0  0  0  0  0  0  0  0
  131.1280  125.5910   59.6490 C   0  0  0  0  0  0  0  0  0  0  0  0
  131.2250  126.4810   58.1470 S   0  0  0  0  0  0  0  0  0  0  0  0
  131.2320  128.0190   59.0090 C   0  0  0  0  0  0  0  0  0  0  0  0
  131.3490  129.2750   58.2700 C   0  0  0  0  0  0  0  0  0  0  0  0
  130.6650  129.4970   57.2680 O   0  0  0  0  0  0  0  0  0  0  0  0
  132.2710  130.1460   58.7300 N   0  0  0  0  0  0  0  0  0  0  0  0
  132.5450  131.4670   58.1640 C   0  0  0  0  0  0  0  0  0  0  0  0
  131.3490  132.0740   57.4390 C   0  0  0  0  0  0  0  0  0  0  0  0
  130.2230  132.4690   58.1670 C   0  0  0  0  0  0  0  0  0  0  0  0
  129.1420  133.0530   57.5120 C   0  0  0  0  0  0  0  0  0  0  0  0
  129.1950  133.2510   56.1340 C   0  0  0  0  0  0  0  0  0  0  0  0
  130.3210  132.8750   55.4050 C   0  0  0  0  0  0  0  0  0  0  0  0
  131.4020  132.2920   56.0590 C   0  0  0  0  0  0  0  0  0  0  0  0
  131.1770  127.8260   60.3980 C   0  0  0  0  0  0  0  0  0  0  0  0
  131.1830  128.8490   61.3110 N   0  0  0  0  0  0  0  0  0  0  0  0
  131.1040  126.4440   60.7890 C   0  0  0  0  0  0  0  0  0  0  0  0
  1  2  1  0
  2  3  2  0
  3  4  1  0
  4  5  1  0
  5  6  2  0
  6  7  1  0
  7  8  2  0
  8  9  1  0
  9 10  2  0
  4 11  2  0
 11 12  1  0
 12 13  1  0
 13 14  1  0
 14 15  1  0
 15 16  2  0
 15 17  1  0
 17 18  1  0
 18 19  1  0
 19 20  2  0
 20 21  1  0
 21 22  2  0
 22 23  1  0
 23 24  2  0
 14 25  2  0
 25 26  1  0
 25 27  1  0
 27  2  1  0
 10  5  1  0
 27 12  2  0
 24 19  1  0
M  END
>  <Binding energies>  (61) 
[-7.74]

>  <Ligand effiencies>  (61) 
[-0.258]

>  <Interactions>  (61) 
["V-A:TRP:381:CZ2:3369, V-A:TRP:381:CZ3:3370, V-A:TRP:381:CH2:3371, V-B:TYR:539:CD2:9845, V-B:TYR:539:CE2:9847, V-A:PRO:482:CB:4325, V-B:ALA:541:CB:9863, V-A:LEU:475:CD2:4258, V-A:ILE:369:CG2:3236, V-A:ASP:366:CB:3211, V-A:TYR:539:CD2:4874, V-A:TYR:539:C:4867, V-A:TYR:539:CE2:4876, H-A:TYR:531:OH:4795, V-A:TYR:539:CG:4872, V-A:PRO:540:N:4884, V-A:MET:535:CE:4835, V-A:PRO:540:CB:4885, V-A:LEU:363:CD1:3188, V-A:ASP:366:CG:3212, V-A:PRO:540:CA:4883, V-B:ALA:541:CA:9861, H-A:ASP:366:OD2:3214, V-A:TYR:539:CZ:4877, H-A:GLU:543:OE1:4909, V-A:ILE:538:CB:4862, V-A:ILE:538:CA:4860, V-A:ILE:538:CG2:4863, V-A:TYR:539:CE1:4875, V-A:TYR:539:CD1:4873, V-A:ILE:538:C:4858"]

$$$$
4dj_Grossjean_2025
     RDKit          3D

 25 28  0  0  0  0  0  0  0  0999 V2000
  125.7270  123.8630   61.9230 C   0  0  0  0  0  0  0  0  0  0  0  0
  126.7790  123.5540   60.8690 C   0  0  0  0  0  0  0  0  0  0  0  0
  126.3520  123.3470   59.5520 C   0  0  0  0  0  0  0  0  0  0  0  0
  127.2700  123.0570   58.5350 C   0  0  0  0  0  0  0  0  0  0  0  0
  126.8420  122.8350   57.1120 C   0  0  0  0  0  0  0  0  0  0  0  0
  125.6190  122.2110   56.8160 C   0  0  0  0  0  0  0  0  0  0  0  0
  125.2170  122.0030   55.5000 C   0  0  0  0  0  0  0  0  0  0  0  0
  126.0380  122.4140   54.4550 C   0  0  0  0  0  0  0  0  0  0  0  0
  127.2560  123.0310   54.7180 C   0  0  0  0  0  0  0  0  0  0  0  0
  127.6540  123.2380   56.0360 C   0  0  0  0  0  0  0  0  0  0  0  0
  128.6080  122.9800   58.7750 N   0  0  0  0  0  0  0  0  0  0  0  0
  129.0150  123.1760   60.0280 C   0  0  0  0  0  0  0  0  0  0  0  0
  130.7040  123.0990   60.4780 S   0  0  0  0  0  0  0  0  0  0  0  0
  130.3200  123.4550   62.1640 C   0  0  0  0  0  0  0  0  0  0  0  0
  131.3840  123.5320   63.1650 C   0  0  0  0  0  0  0  0  0  0  0  0
  132.1540  122.5830   63.3410 O   0  0  0  0  0  0  0  0  0  0  0  0
  131.4440  124.6910   63.8660 N   0  0  0  0  0  0  0  0  0  0  0  0
  132.3500  125.0160   64.8650 C   0  0  0  0  0  0  0  0  0  0  0  0
  133.6620  124.9280   64.8270 N   0  0  0  0  0  0  0  0  0  0  0  0
  134.2080  125.3240   65.9600 C   0  0  0  0  0  0  0  0  0  0  0  0
  133.3290  125.7490   66.9520 C   0  0  0  0  0  0  0  0  0  0  0  0
  131.7010  125.6160   66.3580 S   0  0  0  0  0  0  0  0  0  0  0  0
  128.9370  123.6180   62.3430 C   0  0  0  0  0  0  0  0  0  0  0  0
  128.3530  123.8990   63.5530 N   0  0  0  0  0  0  0  0  0  0  0  0
  128.1690  123.4660   61.1370 C   0  0  0  0  0  0  0  0  0  0  0  0
  1  2  1  0
  2  3  2  0
  3  4  1  0
  4  5  1  0
  5  6  2  0
  6  7  1  0
  7  8  2  0
  8  9  1  0
  9 10  2  0
  4 11  2  0
 11 12  1  0
 12 13  1  0
 13 14  1  0
 14 15  1  0
 15 16  2  0
 15 17  1  0
 17 18  1  0
 18 19  2  0
 19 20  1  0
 20 21  2  0
 21 22  1  0
 14 23  2  0
 23 24  1  0
 23 25  1  0
 25  2  1  0
 10  5  1  0
 25 12  2  0
 22 18  1  0
M  END
>  <Binding energies>  (62) 
[-8.09]

>  <Ligand effiencies>  (62) 
[-0.2889285714285714]

>  <Interactions>  (62) 
["V-A:HIS:456:CE1:4069, V-B:GLU:543:CD:9879, V-B:GLU:543:CG:9878, V-B:MET:535:CE:9806, V-B:LEU:363:CD1:8160, V-B:PRO:540:CA:9854, V-B:TYR:539:CE2:9847, V-B:ALA:541:CB:9863, V-B:PRO:540:N:9855, V-B:TYR:539:CE1:9846, V-B:PRO:540:CB:9856, V-B:TYR:539:CZ:9848, V-B:TYR:539:C:9838, V-B:PRO:540:CD:9858, V-A:ARG:545:CZ:4926, V-B:ILE:538:CA:9831, V-B:PRO:540:CG:9857, V-B:TYR:539:CD1:9844, H-A:GLY:454:N:4049, V-B:ILE:538:CG2:9834, H-A:TYR:484:OH:4347, V-B:ILE:538:CD1:9836, V-A:GLY:454:CA:4048, V-A:ARG:545:CD:4923, V-A:ARG:545:CG:4922, H-B:GLU:543:OE1:9880, H-B:GLU:543:OE2:9881, V-B:ILE:538:CB:9833, V-B:ILE:538:C:9829, V-A:GLY:453:C:4041, V-A:GLY:453:CA:4043"]

$$$$
4ea_Grossjean_2025
     RDKit          3D

 31 34  0  0  0  0  0  0  0  0999 V2000
  124.2340  123.9840   58.1360 C   0  0  0  0  0  0  0  0  0  0  0  0
  124.7010  124.2190   56.6960 C   0  0  0  0  0  0  0  0  0  0  0  0
  125.0490  122.9740   56.1040 O   0  0  0  0  0  0  0  0  0  0  0  0
  126.3450  122.5840   56.0020 C   0  0  0  0  0  0  0  0  0  0  0  0
  126.7960  121.9750   55.0260 O   0  0  0  0  0  0  0  0  0  0  0  0
  127.1750  122.9650   57.1930 C   0  0  0  0  0  0  0  0  0  0  0  0
  127.3580  122.0350   58.2240 C   0  0  0  0  0  0  0  0  0  0  0  0
  128.1230  122.3580   59.3420 C   0  0  0  0  0  0  0  0  0  0  0  0
  128.7190  123.6150   59.4530 C   0  0  0  0  0  0  0  0  0  0  0  0
  129.4680  123.8290   60.6260 N   0  0  0  0  0  0  0  0  0  0  0  0
  129.8100  122.9710   61.6190 C   0  0  0  0  0  0  0  0  0  0  0  0
  129.4930  121.7820   61.6480 O   0  0  0  0  0  0  0  0  0  0  0  0
  130.6080  123.5550   62.7000 C   0  0  0  0  0  0  0  0  0  0  0  0
  132.3010  123.0980   62.9080 S   0  0  0  0  0  0  0  0  0  0  0  0
  132.4690  124.1580   64.2880 C   0  0  0  0  0  0  0  0  0  0  0  0
  133.6200  124.2730   64.9530 N   0  0  0  0  0  0  0  0  0  0  0  0
  133.6180  125.1280   66.0040 C   0  0  0  0  0  0  0  0  0  0  0  0
  134.9360  125.2440   66.7460 C   0  0  0  0  0  0  0  0  0  0  0  0
  132.5040  125.8640   66.4020 C   0  0  0  0  0  0  0  0  0  0  0  0
  131.2990  125.7410   65.7020 C   0  0  0  0  0  0  0  0  0  0  0  0
  130.1240  126.5290   66.1370 C   0  0  0  0  0  0  0  0  0  0  0  0
  129.4900  127.3980   65.2430 C   0  0  0  0  0  0  0  0  0  0  0  0
  128.3830  128.1380   65.6510 C   0  0  0  0  0  0  0  0  0  0  0  0
  127.9130  128.0120   66.9550 C   0  0  0  0  0  0  0  0  0  0  0  0
  128.5390  127.1540   67.8560 C   0  0  0  0  0  0  0  0  0  0  0  0
  129.6460  126.4140   67.4460 C   0  0  0  0  0  0  0  0  0  0  0  0
  131.2590  124.8530   64.5920 C   0  0  0  0  0  0  0  0  0  0  0  0
  130.2140  124.4900   63.6700 C   0  0  0  0  0  0  0  0  0  0  0  0
  128.9520  125.0210   63.7500 N   0  0  0  0  0  0  0  0  0  0  0  0
  128.5400  124.5530   58.4240 C   0  0  0  0  0  0  0  0  0  0  0  0
  127.7760  124.2280   57.3070 C   0  0  0  0  0  0  0  0  0  0  0  0
  1  2  1  0
  2  3  1  0
  3  4  1  0
  4  5  2  0
  4  6  1  0
  6  7  2  0
  7  8  1  0
  8  9  2  0
  9 10  1  0
 10 11  1  0
 11 12  2  0
 11 13  1  0
 13 14  1  0
 14 15  1  0
 15 16  2  0
 16 17  1  0
 17 18  1  0
 17 19  2  0
 19 20  1  0
 20 21  1  0
 21 22  2  0
 22 23  1  0
 23 24  2  0
 24 25  1  0
 25 26  2  0
 20 27  2  0
 27 28  1  0
 28 29  1  0
  9 30  1  0
 30 31  2  0
 31  6  1  0
 28 13  2  0
 27 15  1  0
 26 21  1  0
M  END
>  <Binding energies>  (63) 
[-8.41]

>  <Ligand effiencies>  (63) 
[-0.24735294117647058]

>  <Interactions>  (63) 
["V-A:HIS:456:CE1:4069, V-A:GLU:543:CG:4907, V-B:GLU:543:CD:9879, V-A:GLU:543:CD:4908, V-B:HIS:456:CE1:9041, V-B:GLU:543:CB:9877, V-B:GLU:543:CG:9878, V-B:MET:535:CE:9806, V-B:LEU:363:CA:8156, V-B:LEU:363:CD1:8160, V-B:TYR:539:CD2:9845, V-B:PRO:540:CA:9854, V-B:TYR:539:CE2:9847, V-B:PRO:540:N:9855, V-B:TYR:539:CE1:9846, V-B:PRO:540:CB:9856, H-B:TYR:539:N:9841, H-B:ALA:541:N:9862, V-B:TYR:539:CZ:9848, V-B:TYR:539:C:9838, V-B:PRO:540:CD:9858, V-A:ARG:545:CZ:4926, V-B:TYR:539:CD1:9844, H-A:GLY:454:N:4049, H-A:TYR:484:OH:4347, V-B:TYR:539:CA:9840, V-B:TYR:539:CG:9843, V-A:GLY:454:CA:4048, V-B:TYR:531:CZ:9765, V-B:TYR:531:CE2:9764, V-A:ARG:545:CD:4923, V-A:ILE:455:C:4051, V-A:ARG:545:CG:4922, H-B:GLU:543:OE1:9880, H-B:GLU:543:OE2:9881, V-B:LEU:363:CB:8158, V-A:GLY:453:C:4041, V-A:GLY:453:CA:4043, V-A:GLY:454:C:4046"]

$$$$
4eb_Grossjean_2025
     RDKit          3D

 30 33  0  0  0  0  0  0  0  0999 V2000
  124.6600  124.2380   56.9390 C   0  0  0  0  0  0  0  0  0  0  0  0
  125.0150  123.3880   55.8580 O   0  0  0  0  0  0  0  0  0  0  0  0
  126.1840  122.6960   55.8680 C   0  0  0  0  0  0  0  0  0  0  0  0
  126.4850  121.8570   55.0150 O   0  0  0  0  0  0  0  0  0  0  0  0
  127.0750  123.0550   57.0230 C   0  0  0  0  0  0  0  0  0  0  0  0
  126.9230  122.3770   58.2400 C   0  0  0  0  0  0  0  0  0  0  0  0
  127.7330  122.6860   59.3280 C   0  0  0  0  0  0  0  0  0  0  0  0
  128.7100  123.6770   59.2240 C   0  0  0  0  0  0  0  0  0  0  0  0
  129.4700  123.9050   60.3890 N   0  0  0  0  0  0  0  0  0  0  0  0
  130.1080  123.0310   61.2060 C   0  0  0  0  0  0  0  0  0  0  0  0
  130.1200  121.8110   61.0420 O   0  0  0  0  0  0  0  0  0  0  0  0
  130.8100  123.6350   62.3410 C   0  0  0  0  0  0  0  0  0  0  0  0
  132.4500  123.1270   62.7480 S   0  0  0  0  0  0  0  0  0  0  0  0
  132.5140  124.2440   64.0930 C   0  0  0  0  0  0  0  0  0  0  0  0
  133.5920  124.3470   64.8720 N   0  0  0  0  0  0  0  0  0  0  0  0
  133.5140  125.2500   65.8790 C   0  0  0  0  0  0  0  0  0  0  0  0
  134.7510  125.3520   66.7540 C   0  0  0  0  0  0  0  0  0  0  0  0
  132.3960  126.0440   66.1240 C   0  0  0  0  0  0  0  0  0  0  0  0
  131.2680  125.9320   65.3040 C   0  0  0  0  0  0  0  0  0  0  0  0
  130.0860  126.7830   65.5760 C   0  0  0  0  0  0  0  0  0  0  0  0
  129.5410  127.5730   64.5600 C   0  0  0  0  0  0  0  0  0  0  0  0
  128.4280  128.3720   64.8140 C   0  0  0  0  0  0  0  0  0  0  0  0
  127.8650  128.3830   66.0880 C   0  0  0  0  0  0  0  0  0  0  0  0
  128.4030  127.6010   67.1080 C   0  0  0  0  0  0  0  0  0  0  0  0
  129.5150  126.8030   66.8520 C   0  0  0  0  0  0  0  0  0  0  0  0
  131.3100  124.9950   64.2350 C   0  0  0  0  0  0  0  0  0  0  0  0
  130.3550  124.6280   63.2230 C   0  0  0  0  0  0  0  0  0  0  0  0
  129.1140  125.2080   63.1420 N   0  0  0  0  0  0  0  0  0  0  0  0
  128.8700  124.3610   58.0100 C   0  0  0  0  0  0  0  0  0  0  0  0
  128.0590  124.0500   56.9220 C   0  0  0  0  0  0  0  0  0  0  0  0
  1  2  1  0
  2  3  1  0
  3  4  2  0
  3  5  1  0
  5  6  2  0
  6  7  1  0
  7  8  2  0
  8  9  1  0
  9 10  1  0
 10 11  2  0
 10 12  1  0
 12 13  1  0
 13 14  1  0
 14 15  2  0
 15 16  1  0
 16 17  1  0
 16 18  2  0
 18 19  1  0
 19 20  1  0
 20 21  2  0
 21 22  1  0
 22 23  2  0
 23 24  1  0
 24 25  2  0
 19 26  2  0
 26 27  1  0
 27 28  1  0
  8 29  1  0
 29 30  2  0
 30  5  1  0
 27 12  2  0
 26 14  1  0
 25 20  1  0
M  END
>  <Binding energies>  (64) 
[-8.05]

>  <Ligand effiencies>  (64) 
[-0.24393939393939396]

>  <Interactions>  (64) 
["V-A:HIS:456:CE1:4069, V-A:GLU:543:CG:4907, V-B:GLU:543:CD:9879, V-A:GLU:543:CD:4908, V-B:GLU:543:CG:9878, V-B:MET:535:CE:9806, V-B:LEU:363:CD1:8160, V-B:PRO:540:CA:9854, V-B:TYR:539:CE2:9847, V-B:PRO:540:N:9855, V-B:TYR:539:CE1:9846, V-B:PRO:540:CB:9856, H-B:TYR:539:N:9841, V-B:TYR:539:CZ:9848, V-B:TYR:539:C:9838, V-B:PRO:540:CD:9858, V-A:ARG:545:CZ:4926, H-A:GLY:454:N:4049, H-A:TYR:484:OH:4347, V-A:GLY:454:CA:4048, V-B:TYR:531:CZ:9765, V-B:TYR:531:CE2:9764, V-A:ARG:545:CD:4923, V-A:ILE:455:C:4051, V-A:ARG:545:CG:4922, H-B:GLU:543:OE2:9881, V-A:GLY:453:C:4041, V-A:GLY:453:CA:4043"]

$$$$
8b_Ghoteimi_2023
     RDKit          3D

 34 38  0  0  0  0  0  0  0  0999 V2000
  129.2040  129.7250   75.1340 C   0  0  0  0  0  0  0  0  0  0  0  0
  130.2420  129.1680   74.3340 O   0  0  0  0  0  0  0  0  0  0  0  0
  129.9950  128.9010   73.0010 C   0  0  0  0  0  0  0  0  0  0  0  0
  129.4530  129.9390   72.2470 C   0  0  0  0  0  0  0  0  0  0  0  0
  129.1700  129.7610   70.8970 C   0  0  0  0  0  0  0  0  0  0  0  0
  129.4220  128.5350   70.2640 C   0  0  0  0  0  0  0  0  0  0  0  0
  129.1190  128.3370   68.8120 C   0  0  0  0  0  0  0  0  0  0  0  0
  128.2990  129.2220   68.1030 C   0  0  0  0  0  0  0  0  0  0  0  0
  128.0320  129.0150   66.7470 C   0  0  0  0  0  0  0  0  0  0  0  0
  127.1520  129.9650   66.0280 C   0  0  0  0  0  0  0  0  0  0  0  0
  125.8130  129.6470   65.7970 C   0  0  0  0  0  0  0  0  0  0  0  0
  124.9860  130.5460   65.1290 C   0  0  0  0  0  0  0  0  0  0  0  0
  125.4820  131.7710   64.6820 C   0  0  0  0  0  0  0  0  0  0  0  0
  124.5890  132.6000   64.0320 O   0  0  0  0  0  0  0  0  0  0  0  0
  123.8690  132.1010   62.9090 C   0  0  0  0  0  0  0  0  0  0  0  0
  126.8310  132.0870   64.9130 C   0  0  0  0  0  0  0  0  0  0  0  0
  127.6570  131.1880   65.5810 C   0  0  0  0  0  0  0  0  0  0  0  0
  128.6200  127.8870   66.1140 C   0  0  0  0  0  0  0  0  0  0  0  0
  128.5660  127.3860   64.7650 C   0  0  0  0  0  0  0  0  0  0  0  0
  127.8450  128.0090   63.7790 N   0  0  0  0  0  0  0  0  0  0  0  0
  129.3140  126.2160   64.5640 C   0  0  0  0  0  0  0  0  0  0  0  0
  129.4850  125.4450   63.3310 C   0  0  0  0  0  0  0  0  0  0  0  0
  130.4950  125.5850   62.6360 O   0  0  0  0  0  0  0  0  0  0  0  0
  128.4710  124.5950   63.0300 N   0  0  0  0  0  0  0  0  0  0  0  0
  128.3740  123.7490   61.9340 C   0  0  0  0  0  0  0  0  0  0  0  0
  129.4560  123.4430   61.1100 C   0  0  0  0  0  0  0  0  0  0  0  0
  128.9500  122.5910   60.1550 C   0  0  0  0  0  0  0  0  0  0  0  0
  127.6330  122.3910   60.3930 O   0  0  0  0  0  0  0  0  0  0  0  0
  127.2790  123.1290   61.5240 N   0  0  0  0  0  0  0  0  0  0  0  0
  130.1120  125.7050   66.0520 S   0  0  0  0  0  0  0  0  0  0  0  0
  129.4400  127.0580   66.9320 C   0  0  0  0  0  0  0  0  0  0  0  0
  129.6940  127.2530   68.2260 N   0  0  0  0  0  0  0  0  0  0  0  0
  129.9700  127.4950   71.0270 C   0  0  0  0  0  0  0  0  0  0  0  0
  130.2530  127.6710   72.3790 C   0  0  0  0  0  0  0  0  0  0  0  0
  1  2  1  0
  2  3  1  0
  3  4  2  0
  4  5  1  0
  5  6  2  0
  6  7  1  0
  7  8  2  0
  8  9  1  0
  9 10  1  0
 10 11  2  0
 11 12  1  0
 12 13  2  0
 13 14  1  0
 14 15  1  0
 13 16  1  0
 16 17  2  0
  9 18  2  0
 18 19  1  0
 19 20  1  0
 19 21  2  0
 21 22  1  0
 22 23  2  0
 22 24  1  0
 24 25  1  0
 25 26  1  0
 26 27  2  0
 27 28  1  0
 28 29  1  0
 21 30  1  0
 30 31  1  0
 31 32  2  0
  6 33  1  0
 33 34  2  0
 34  3  1  0
 32  7  1  0
 17 10  1  0
 31 18  1  0
 29 25  2  0
M  END
>  <Binding energies>  (65) 
[-8.46]

>  <Ligand effiencies>  (65) 
[-0.22864864864864867]

>  <Interactions>  (65) 
["V-A:LYS:547:CE:4950, V-A:HIS:456:CE1:4069, V-A:GLU:543:CB:4906, V-A:GLU:543:CG:4907, V-B:GLU:543:CD:9879, V-A:GLU:543:CD:4908, V-B:HIS:456:CE1:9041, H-A:LYS:547:NZ:4951, V-B:GLU:543:CG:9878, V-B:TYR:539:CD2:9845, V-B:TYR:539:CE2:9847, V-B:ALA:541:CB:9863, H-B:ALA:541:N:9862, V-A:GLU:543:C:4902, H-B:GLY:454:N:9021, V-B:GLY:454:CA:9020, H-B:GLU:543:OE1:9880, H-B:GLU:543:OE2:9881, V-B:LEU:475:CD1:9229, V-B:ILE:369:CD1:8210"]

$$$$
9d_Ghoteimi_2023
     RDKit          3D

 38 43  0  0  0  0  0  0  0  0999 V2000
  124.3620  129.8860   66.3150 C   0  0  0  0  0  0  0  0  0  0  0  0
  124.8580  130.9620   65.5310 O   0  0  0  0  0  0  0  0  0  0  0  0
  126.1900  131.2220   65.4690 C   0  0  0  0  0  0  0  0  0  0  0  0
  126.6680  132.3560   65.3850 O   0  0  0  0  0  0  0  0  0  0  0  0
  127.0190  129.9970   65.5080 C   0  0  0  0  0  0  0  0  0  0  0  0
  127.3670  129.1250   64.0150 S   0  0  0  0  0  0  0  0  0  0  0  0
  128.3300  127.9510   64.8800 C   0  0  0  0  0  0  0  0  0  0  0  0
  128.9520  126.9570   64.2470 N   0  0  0  0  0  0  0  0  0  0  0  0
  129.6910  126.1070   65.0070 C   0  0  0  0  0  0  0  0  0  0  0  0
  130.4010  125.0150   64.2730 C   0  0  0  0  0  0  0  0  0  0  0  0
  131.5100  125.3030   63.4720 C   0  0  0  0  0  0  0  0  0  0  0  0
  132.1770  124.2950   62.7820 C   0  0  0  0  0  0  0  0  0  0  0  0
  131.7640  122.9560   62.8780 C   0  0  0  0  0  0  0  0  0  0  0  0
  132.4130  121.9330   62.1770 N   0  0  0  0  0  0  0  0  0  0  0  0
  133.6290  121.2880   62.7100 C   0  0  0  0  0  0  0  0  0  0  0  0
  134.3970  120.4460   61.6700 C   0  0  0  0  0  0  0  0  0  0  0  0
  133.5290  119.4900   61.0840 O   0  0  0  0  0  0  0  0  0  0  0  0
  132.4440  120.1140   60.4180 C   0  0  0  0  0  0  0  0  0  0  0  0
  131.6150  120.9480   61.4180 C   0  0  0  0  0  0  0  0  0  0  0  0
  130.6410  122.6750   63.6700 C   0  0  0  0  0  0  0  0  0  0  0  0
  129.9730  123.6850   64.3570 C   0  0  0  0  0  0  0  0  0  0  0  0
  129.7770  126.2330   66.3960 C   0  0  0  0  0  0  0  0  0  0  0  0
  129.1100  127.2640   67.0680 C   0  0  0  0  0  0  0  0  0  0  0  0
  129.2130  127.3350   68.5490 C   0  0  0  0  0  0  0  0  0  0  0  0
  128.5500  126.4090   69.3560 C   0  0  0  0  0  0  0  0  0  0  0  0
  128.6650  126.4690   70.7420 C   0  0  0  0  0  0  0  0  0  0  0  0
  129.4600  127.4480   71.3580 C   0  0  0  0  0  0  0  0  0  0  0  0
  129.5850  127.5350   72.7460 N   0  0  0  0  0  0  0  0  0  0  0  0
  129.4600  128.8540   73.3960 C   0  0  0  0  0  0  0  0  0  0  0  0
  129.2260  128.7620   74.9200 C   0  0  0  0  0  0  0  0  0  0  0  0
  130.2560  127.9940   75.5250 O   0  0  0  0  0  0  0  0  0  0  0  0
  130.2990  126.6730   75.0050 C   0  0  0  0  0  0  0  0  0  0  0  0
  130.5640  126.7150   73.4850 C   0  0  0  0  0  0  0  0  0  0  0  0
  130.1210  128.3740   70.5370 C   0  0  0  0  0  0  0  0  0  0  0  0
  130.0040  128.3150   69.1520 C   0  0  0  0  0  0  0  0  0  0  0  0
  128.3650  128.1900   66.2860 C   0  0  0  0  0  0  0  0  0  0  0  0
  127.6210  129.3790   66.6110 C   0  0  0  0  0  0  0  0  0  0  0  0
  127.5300  129.8750   67.8850 N   0  0  0  0  0  0  0  0  0  0  0  0
  1  2  1  0
  2  3  1  0
  3  4  2  0
  3  5  1  0
  5  6  1  0
  6  7  1  0
  7  8  2  0
  8  9  1  0
  9 10  1  0
 10 11  2  0
 11 12  1  0
 12 13  2  0
 13 14  1  0
 14 15  1  0
 15 16  1  0
 16 17  1  0
 17 18  1  0
 18 19  1  0
 13 20  1  0
 20 21  2  0
  9 22  2  0
 22 23  1  0
 23 24  1  0
 24 25  2  0
 25 26  1  0
 26 27  2  0
 27 28  1  0
 28 29  1  0
 29 30  1  0
 30 31  1  0
 31 32  1  0
 32 33  1  0
 27 34  1  0
 34 35  2  0
 23 36  2  0
 36 37  1  0
 37 38  1  0
 37  5  2  0
 36  7  1  0
 21 10  1  0
 35 24  1  0
 19 14  1  0
 33 28  1  0
M  END
>  <Binding energies>  (66) 
[-8.2]

>  <Ligand effiencies>  (66) 
[-0.205]

>  <Interactions>  (66) 
["V-A:LYS:547:CE:4950, V-A:HIS:456:CE1:4069, V-A:GLU:543:CB:4906, V-A:GLU:543:CG:4907, V-A:HIS:456:CD2:4067, V-B:GLU:543:CD:9879, V-A:GLU:543:CD:4908, V-B:HIS:456:CE1:9041, H-A:LYS:547:NZ:4951, V-B:GLU:543:CB:9877, V-B:GLU:543:CG:9878, V-A:TRP:381:CH2:3371, V-B:TYR:539:CD2:9845, V-B:TYR:539:CE2:9847, V-B:ALA:541:CB:9863, V-A:LEU:475:CD2:4258, V-A:ILE:369:CG2:3236, V-A:ILE:369:CB:3235, V-A:GLY:454:CA:4048, V-A:ILE:369:CD1:3238, V-B:TYR:484:CE1:9316, H-B:TYR:484:OH:9319, V-B:TYR:484:CZ:9318, H-B:GLY:454:N:9021, V-B:GLY:454:CA:9020, V-B:ARG:545:CZ:9897, V-B:ARG:545:CD:9894, V-A:SER:385:C:3404, V-A:ILE:369:CG1:3237"]

$$$$
RR10_Rahimova_2017
     RDKit          3D

 34 38  0  0  0  0  0  0  0  0999 V2000
  131.8360  120.2170   60.4110 C   0  0  0  0  0  0  0  0  0  0  0  0
  131.4740  121.5000   61.1790 C   0  0  1  0  0  0  0  0  0  0  0  0
  131.2360  122.6940   60.2260 C   0  0  0  0  0  0  0  0  0  0  0  0
  130.9080  123.9790   61.0210 C   0  0  0  0  0  0  0  0  0  0  0  0
  129.6680  123.8020   61.9340 C   0  0  1  0  0  0  0  0  0  0  0  0
  128.4470  123.6540   61.1300 N   0  0  0  0  0  0  0  0  0  0  0  0
  127.2340  123.3200   61.6080 C   0  0  0  0  0  0  0  0  0  0  0  0
  127.0160  123.1200   62.8060 O   0  0  0  0  0  0  0  0  0  0  0  0
  126.0960  123.1780   60.5760 C   0  0  1  0  0  0  0  0  0  0  0  0
  125.0060  124.2440   60.8620 C   0  0  0  0  0  0  0  0  0  0  0  0
  123.9090  124.1650   59.7730 C   0  0  0  0  0  0  0  0  0  0  0  0
  124.4880  124.2270   58.3410 C   0  0  0  0  0  0  0  0  0  0  0  0
  125.5700  123.2190   58.1690 N   0  0  0  0  0  0  0  0  0  0  0  0
  126.1010  122.9930   56.4940 S   0  0  0  0  0  0  0  0  0  0  0  0
  124.9270  123.1220   55.6210 O   0  0  0  0  0  0  0  0  0  0  0  0
  126.9290  121.7810   56.4430 O   0  0  0  0  0  0  0  0  0  0  0  0
  127.1580  124.3980   56.1460 C   0  0  0  0  0  0  0  0  0  0  0  0
  128.2330  124.2450   55.2650 C   0  0  0  0  0  0  0  0  0  0  0  0
  129.0960  125.3000   54.9540 C   0  0  0  0  0  0  0  0  0  0  0  0
  128.8290  126.5260   55.5690 C   0  0  0  0  0  0  0  0  0  0  0  0
  129.4290  127.7620   55.5280 N   0  0  0  0  0  0  0  0  0  0  0  0
  128.7180  128.6070   56.3550 C   0  0  0  0  0  0  0  0  0  0  0  0
  129.0770  130.0470   56.5790 C   0  0  0  0  0  0  0  0  0  0  0  0
  130.4040  130.4780   56.4380 C   0  0  0  0  0  0  0  0  0  0  0  0
  130.7380  131.8140   56.6410 C   0  0  0  0  0  0  0  0  0  0  0  0
  129.7460  132.7280   56.9880 C   0  0  0  0  0  0  0  0  0  0  0  0
  128.4240  132.3170   57.1310 C   0  0  0  0  0  0  0  0  0  0  0  0
  128.0910  130.9800   56.9280 C   0  0  0  0  0  0  0  0  0  0  0  0
  127.6980  127.9990   56.9210 N   0  0  0  0  0  0  0  0  0  0  0  0
  127.7420  126.7100   56.4570 C   0  0  0  0  0  0  0  0  0  0  0  0
  126.8920  125.6340   56.7480 C   0  0  0  0  0  0  0  0  0  0  0  0
  126.6740  123.3610   59.1510 C   0  0  0  0  0  0  0  0  0  0  0  0
  129.9140  122.5900   62.8720 C   0  0  0  0  0  0  0  0  0  0  0  0
  130.2340  121.3010   62.0820 C   0  0  0  0  0  0  0  0  0  0  0  0
  2  1  1  6
  2  3  1  0
  3  4  1  0
  4  5  1  0
  5  6  1  6
  6  7  1  0
  7  8  2  0
  9  7  1  1
  9 10  1  0
 10 11  1  0
 11 12  1  0
 12 13  1  0
 13 14  1  0
 14 15  2  0
 14 16  2  0
 14 17  1  0
 17 18  2  0
 18 19  1  0
 19 20  2  0
 20 21  1  0
 21 22  1  0
 22 23  1  0
 23 24  2  0
 24 25  1  0
 25 26  2  0
 26 27  1  0
 27 28  2  0
 22 29  2  0
 29 30  1  0
 30 31  2  0
 13 32  1  0
  5 33  1  0
 33 34  1  0
 34  2  1  0
 32  9  1  0
 31 17  1  0
 30 20  1  0
 28 23  1  0
M  END
>  <Binding energies>  (67) 
[-11.1]

>  <Ligand effiencies>  (67) 
[-0.30833333333333335]

>  <Interactions>  (67) 
["V-B:MET:535:CE:9806, V-B:ASP:366:CG:8184, V-B:LEU:363:CA:8156, V-B:LEU:363:CD1:8160, V-B:ASN:362:C:8143, V-A:TRP:381:CH2:3371, V-B:TYR:539:CD2:9845, V-B:PRO:540:CA:9854, V-B:TYR:539:CE2:9847, V-B:PRO:540:C:9852, V-B:ALA:541:CB:9863, V-B:PRO:540:N:9855, V-A:LEU:475:CD2:4258, V-B:TYR:539:CE1:9846, V-B:PRO:540:CB:9856, H-B:TYR:539:N:9841, H-B:ALA:541:N:9862, V-A:ILE:369:CG2:3236, V-B:TYR:539:CZ:9848, V-A:TYR:539:CD2:4874, V-A:TYR:539:C:4867, V-A:TYR:539:CE2:4876, H-A:TYR:531:OH:4795, H-B:TYR:531:OH:9766, V-A:MET:535:CE:4835, V-A:TYR:531:CZ:4794, V-A:TYR:539:CZ:4877, V-A:TYR:539:CE1:4875, H-A:MET:535:SD:4834"]

$$$$
RR12_Rahimova_2017
     RDKit          3D

 26 28  0  0  0  0  0  0  0  0999 V2000
  126.5020  122.3130   54.4190 C   0  0  0  0  0  0  0  0  0  0  0  0
  125.3880  122.1950   55.4670 C   0  0  0  0  0  0  0  0  0  0  0  0
  125.9120  122.3400   56.9070 C   0  0  0  0  0  0  0  0  0  0  0  0
  126.0850  123.7490   57.2560 N   0  0  0  0  0  0  0  0  0  0  0  0
  125.2310  124.5430   58.0060 C   0  0  0  0  0  0  0  0  0  0  0  0
  123.9040  124.0650   58.5680 C   0  0  0  0  0  0  0  0  0  0  0  0
  123.7930  124.2920   60.0870 C   0  0  0  0  0  0  0  0  0  0  0  0
  124.8700  123.5300   60.8820 C   0  0  0  0  0  0  0  0  0  0  0  0
  126.2230  124.0520   60.6950 N   0  0  0  0  0  0  0  0  0  0  0  0
  127.2780  123.7610   61.4770 C   0  0  0  0  0  0  0  0  0  0  0  0
  127.2080  123.0120   62.4550 O   0  0  0  0  0  0  0  0  0  0  0  0
  128.6040  124.4220   61.0770 C   0  0  0  0  0  0  0  0  0  0  0  0
  129.2370  123.6430   60.0610 O   0  0  0  0  0  0  0  0  0  0  0  0
  129.8500  122.4530   60.4040 C   0  0  0  0  0  0  0  0  0  0  0  0
  131.2460  122.4650   60.4510 C   0  0  0  0  0  0  0  0  0  0  0  0
  131.9530  121.3140   60.7900 C   0  0  0  0  0  0  0  0  0  0  0  0
  131.2610  120.1430   61.0860 C   0  0  0  0  0  0  0  0  0  0  0  0
  129.8690  120.1130   61.0420 C   0  0  0  0  0  0  0  0  0  0  0  0
  129.1630  121.2640   60.7020 C   0  0  0  0  0  0  0  0  0  0  0  0
  125.6720  125.7650   58.1730 N   0  0  0  0  0  0  0  0  0  0  0  0
  126.8810  125.7930   57.5350 C   0  0  0  0  0  0  0  0  0  0  0  0
  127.7910  126.8540   57.4120 C   0  0  0  0  0  0  0  0  0  0  0  0
  128.9740  126.6270   56.7090 C   0  0  0  0  0  0  0  0  0  0  0  0
  129.2520  125.3840   56.1410 C   0  0  0  0  0  0  0  0  0  0  0  0
  128.3670  124.3090   56.2440 C   0  0  0  0  0  0  0  0  0  0  0  0
  127.1790  124.5370   56.9490 C   0  0  0  0  0  0  0  0  0  0  0  0
  1  2  1  0
  2  3  1  0
  3  4  1  0
  4  5  1  0
  5  6  1  0
  6  7  1  0
  7  8  1  0
  8  9  1  0
  9 10  1  0
 10 11  2  0
 10 12  1  0
 12 13  1  0
 13 14  1  0
 14 15  2  0
 15 16  1  0
 16 17  2  0
 17 18  1  0
 18 19  2  0
  5 20  2  0
 20 21  1  0
 21 22  2  0
 22 23  1  0
 23 24  2  0
 24 25  1  0
 25 26  2  0
 26  4  1  0
 19 14  1  0
 26 21  1  0
M  END
>  <Binding energies>  (68) 
[-6.67]

>  <Ligand effiencies>  (68) 
[-0.24703703703703703]

>  <Interactions>  (68) 
["V-B:MET:535:CE:9806, V-B:ASP:366:CG:8184, V-B:LEU:363:CA:8156, V-B:LEU:363:CD1:8160, V-B:ASN:362:C:8143, V-A:TRP:381:CH2:3371, V-B:TYR:539:CD2:9845, V-B:PRO:540:CA:9854, V-B:TYR:539:CE2:9847, V-B:PRO:540:C:9852, V-B:ALA:541:CB:9863, V-B:PRO:540:N:9855, V-A:LEU:475:CD2:4258, V-B:TYR:539:CE1:9846, V-B:PRO:540:CB:9856, H-B:ALA:541:N:9862, V-A:ILE:369:CG2:3236, V-B:TYR:539:CZ:9848, V-B:TYR:539:C:9838, V-B:PRO:540:CD:9858, V-B:ILE:538:CA:9831, H-B:TYR:531:OH:9766, V-B:TYR:539:CD1:9844, V-B:ILE:538:CG2:9834, V-B:ASN:362:CB:8147, V-B:ILE:538:CD1:9836, H-B:ASP:366:OD2:8186, V-B:LEU:363:CB:8158"]

$$$$
RR13_Rahimova_2017
     RDKit          3D

 48 54  0  0  0  0  0  0  0  0999 V2000
  123.8800  124.9380   58.2350 Cl  0  0  0  0  0  0  0  0  0  0  0  0
  125.3650  124.4580   57.4860 C   0  0  0  0  0  0  0  0  0  0  0  0
  125.2890  123.6790   56.3290 C   0  0  0  0  0  0  0  0  0  0  0  0
  126.4470  123.2430   55.6920 C   0  0  0  0  0  0  0  0  0  0  0  0
  127.6940  123.5820   56.2110 C   0  0  0  0  0  0  0  0  0  0  0  0
  127.7790  124.3590   57.3640 C   0  0  0  0  0  0  0  0  0  0  0  0
  126.6220  124.8190   58.0140 C   0  0  0  0  0  0  0  0  0  0  0  0
  126.7420  125.6580   59.3060 C   0  0  1  0  0  0  0  0  0  0  0  0
  126.7580  124.7570   60.5500 C   0  0  0  0  0  0  0  0  0  0  0  0
  125.7160  124.2140   61.1400 N   0  0  0  0  0  0  0  0  0  0  0  0
  126.2180  123.5120   62.2310 N   0  0  0  0  0  0  0  0  0  0  0  0
  127.5890  123.6580   62.2980 N   0  0  0  0  0  0  0  0  0  0  0  0
  127.8960  124.4500   61.2650 N   0  0  0  0  0  0  0  0  0  0  0  0
  129.2840  124.7990   60.9900 C   0  0  0  0  0  0  0  0  0  0  0  0
  129.8440  123.9110   59.8630 C   0  0  0  0  0  0  0  0  0  0  0  0
  130.2090  122.5190   60.3550 C   0  0  0  0  0  0  0  0  0  0  0  0
  131.5520  122.1500   60.4730 C   0  0  0  0  0  0  0  0  0  0  0  0
  131.8850  120.8730   60.9170 C   0  0  0  0  0  0  0  0  0  0  0  0
  130.8740  119.9700   61.2420 C   0  0  0  0  0  0  0  0  0  0  0  0
  129.5350  120.3310   61.1250 C   0  0  0  0  0  0  0  0  0  0  0  0
  129.2000  121.6080   60.6810 C   0  0  0  0  0  0  0  0  0  0  0  0
  127.8770  126.6120   59.2850 N   0  0  0  0  0  0  0  0  0  0  0  0
  127.7460  127.5950   60.3770 C   0  0  0  0  0  0  0  0  0  0  0  0
  128.9910  128.5100   60.4450 C   0  0  0  0  0  0  0  0  0  0  0  0
  129.1480  129.2660   59.1910 N   0  0  0  0  0  0  0  0  0  0  0  0
  130.2820  130.2180   59.2420 C   0  0  1  0  0  0  0  0  0  0  0  0
  130.5030  131.0590   57.9660 C   0  0  0  0  0  0  0  0  0  0  0  0
  129.3640  131.5870   57.3420 C   0  0  0  0  0  0  0  0  0  0  0  0
  129.4690  132.3730   56.1950 C   0  0  0  0  0  0  0  0  0  0  0  0
  130.7210  132.6390   55.6480 C   0  0  0  0  0  0  0  0  0  0  0  0
  131.8640  132.1110   56.2430 C   0  0  0  0  0  0  0  0  0  0  0  0
  131.7690  131.3190   57.3910 C   0  0  0  0  0  0  0  0  0  0  0  0
  133.2410  130.6530   58.0140 Cl  0  0  0  0  0  0  0  0  0  0  0  0
  130.2500  131.1270   60.4720 C   0  0  0  0  0  0  0  0  0  0  0  0
  131.1760  131.1860   61.4010 N   0  0  0  0  0  0  0  0  0  0  0  0
  130.7470  132.1490   62.3080 N   0  0  0  0  0  0  0  0  0  0  0  0
  129.5440  132.6840   61.8970 N   0  0  0  0  0  0  0  0  0  0  0  0
  129.2660  132.0530   60.7500 N   0  0  0  0  0  0  0  0  0  0  0  0
  128.0340  132.3550   60.0290 C   0  0  0  0  0  0  0  0  0  0  0  0
  126.9580  131.2980   60.3390 C   0  0  0  0  0  0  0  0  0  0  0  0
  126.0100  131.0840   59.1690 C   0  0  0  0  0  0  0  0  0  0  0  0
  126.4680  130.4590   58.0060 C   0  0  0  0  0  0  0  0  0  0  0  0
  125.5980  130.2570   56.9370 C   0  0  0  0  0  0  0  0  0  0  0  0
  124.2740  130.6810   57.0350 C   0  0  0  0  0  0  0  0  0  0  0  0
  123.8120  131.3050   58.1930 C   0  0  0  0  0  0  0  0  0  0  0  0
  124.6810  131.5070   59.2620 C   0  0  0  0  0  0  0  0  0  0  0  0
  129.2840  128.2800   58.1030 C   0  0  0  0  0  0  0  0  0  0  0  0
  128.0320  127.3750   58.0350 C   0  0  0  0  0  0  0  0  0  0  0  0
  1  2  1  0
  2  3  2  0
  3  4  1  0
  4  5  2  0
  5  6  1  0
  6  7  2  0
  7  8  1  0
  8  9  1  0
  9 10  2  0
 10 11  1  0
 11 12  2  0
 12 13  1  0
 13 14  1  0
 14 15  1  0
 15 16  1  0
 16 17  2  0
 17 18  1  0
 18 19  2  0
 19 20  1  0
 20 21  2  0
  8 22  1  6
 22 23  1  0
 23 24  1  0
 24 25  1  0
 26 25  1  6
 26 27  1  0
 27 28  2  0
 28 29  1  0
 29 30  2  0
 30 31  1  0
 31 32  2  0
 32 33  1  0
 26 34  1  0
 34 35  2  0
 35 36  1  0
 36 37  2  0
 37 38  1  0
 38 39  1  0
 39 40  1  0
 40 41  1  0
 41 42  2  0
 42 43  1  0
 43 44  2  0
 44 45  1  0
 45 46  2  0
 25 47  1  0
 47 48  1  0
  7  2  1  0
 13  9  1  0
 21 16  1  0
 48 22  1  0
 32 27  1  0
 38 34  1  0
 46 41  1  0
M  END
>  <Binding energies>  (69) 
[-13.12]

>  <Ligand effiencies>  (69) 
[-0.2733333333333333]

>  <Interactions>  (69) 
["V-B:MET:535:CE:9806, V-B:ASP:366:CG:8184, V-B:LEU:363:CA:8156, V-B:LEU:363:CD1:8160, V-A:TRP:381:CH2:3371, V-B:TYR:539:CD2:9845, V-B:TYR:539:CE2:9847, V-B:PRO:540:C:9852, V-B:ALA:541:CB:9863, V-A:LEU:475:CD2:4258, V-B:TYR:539:CE1:9846, H-B:ALA:541:N:9862, V-A:ILE:369:CG2:3236, V-B:TYR:539:CZ:9848, V-A:ASP:366:CB:3211, V-B:TYR:539:C:9838, V-B:ASP:366:CA:8181, V-B:ASP:366:C:8179, V-A:TYR:539:CE2:4876, V-A:MET:535:CE:4835, V-B:TYR:539:CD1:9844, V-B:ASP:366:CB:8183, V-A:LEU:363:CA:3184, V-A:LEU:363:CD1:3188, V-A:TYR:531:CE2:4793, V-A:ASP:366:CG:3212, V-B:ALA:541:CA:9861, V-B:TYR:531:CZ:9765, V-B:TYR:531:CE2:9764, H-A:ALA:541:N:4891, V-A:ILE:538:CB:4862, V-A:ILE:538:CA:4860, V-A:ILE:538:CG2:4863, V-B:TYR:531:CE1:9763, V-B:ASN:370:CB:8216"]

$$$$
RR14_Rahimova_2017
     RDKit          3D

 39 43  0  0  0  0  0  0  0  0999 V2000
  125.4940  123.5250   62.0810 C   0  0  0  0  0  0  0  0  0  0  0  0
  126.3700  122.8760   61.1660 O   0  0  0  0  0  0  0  0  0  0  0  0
  127.6570  123.3530   61.0130 C   0  0  0  0  0  0  0  0  0  0  0  0
  128.1920  124.0570   62.0920 C   0  0  0  0  0  0  0  0  0  0  0  0
  129.4730  124.5960   62.0220 C   0  0  0  0  0  0  0  0  0  0  0  0
  130.2330  124.4390   60.8610 C   0  0  0  0  0  0  0  0  0  0  0  0
  131.6100  125.0840   60.7550 C   0  0  0  0  0  0  0  0  0  0  0  0
  132.1900  124.9930   59.4150 N   0  0  0  0  0  0  0  0  0  0  0  0
  132.8360  123.8850   59.0320 N   0  0  0  0  0  0  0  0  0  0  0  0
  133.2680  124.1570   57.7490 N   0  0  0  0  0  0  0  0  0  0  0  0
  132.8800  125.4400   57.3750 N   0  0  0  0  0  0  0  0  0  0  0  0
  132.2320  125.9300   58.4060 C   0  0  0  0  0  0  0  0  0  0  0  0
  131.6330  127.3280   58.4820 C   0  0  0  0  0  0  0  0  0  0  0  0
  130.1650  127.3050   58.5960 N   0  0  0  0  0  0  0  0  0  0  0  0
  129.6660  128.3770   59.4660 C   0  0  0  0  0  0  0  0  0  0  0  0
  130.7800  129.3040   59.9980 C   0  0  0  0  0  0  0  0  0  0  0  0
  130.4490  130.8060   59.8720 C   0  0  0  0  0  0  0  0  0  0  0  0
  130.4180  131.2790   58.4840 N   0  0  0  0  0  0  0  0  0  0  0  0
  131.7350  131.7980   58.0920 C   0  0  0  0  0  0  0  0  0  0  0  0
  131.7230  132.3530   56.6510 C   0  0  0  0  0  0  0  0  0  0  0  0
  130.6940  133.3270   56.5100 O   0  0  0  0  0  0  0  0  0  0  0  0
  129.4040  132.7910   56.7810 C   0  0  0  0  0  0  0  0  0  0  0  0
  129.3450  132.2520   58.2260 C   0  0  0  0  0  0  0  0  0  0  0  0
  129.5530  127.3970   57.2620 C   0  0  0  0  0  0  0  0  0  0  0  0
  128.7030  126.2040   56.8310 C   0  0  0  0  0  0  0  0  0  0  0  0
  127.6200  125.8200   57.5500 C   0  0  0  0  0  0  0  0  0  0  0  0
  126.8040  124.6460   57.1770 C   0  0  0  0  0  0  0  0  0  0  0  0
  125.6650  124.2330   57.8880 C   0  0  0  0  0  0  0  0  0  0  0  0
  125.1770  124.9820   59.1210 C   0  0  0  0  0  0  0  0  0  0  0  0
  124.9610  123.1080   57.4490 C   0  0  0  0  0  0  0  0  0  0  0  0
  125.3790  122.4020   56.3220 C   0  0  0  0  0  0  0  0  0  0  0  0
  126.5100  122.8070   55.6070 C   0  0  0  0  0  0  0  0  0  0  0  0
  126.9400  122.0160   54.3780 C   0  0  0  0  0  0  0  0  0  0  0  0
  127.2240  123.9350   56.0390 C   0  0  0  0  0  0  0  0  0  0  0  0
  128.3730  124.3800   55.3510 N   0  0  0  0  0  0  0  0  0  0  0  0
  129.1500  125.4490   55.6560 C   0  0  0  0  0  0  0  0  0  0  0  0
  130.1400  125.7150   54.9740 O   0  0  0  0  0  0  0  0  0  0  0  0
  129.7190  123.7100   59.7870 C   0  0  0  0  0  0  0  0  0  0  0  0
  128.4370  123.1730   59.8590 C   0  0  0  0  0  0  0  0  0  0  0  0
  1  2  1  0
  2  3  1  0
  3  4  2  0
  4  5  1  0
  5  6  2  0
  6  7  1  0
  7  8  1  0
  8  9  1  0
  9 10  2  0
 10 11  1  0
 11 12  2  0
 12 13  1  0
 13 14  1  0
 14 15  1  0
 15 16  1  0
 16 17  1  0
 17 18  1  0
 18 19  1  0
 19 20  1  0
 20 21  1  0
 21 22  1  0
 22 23  1  0
 14 24  1  0
 24 25  1  0
 25 26  2  0
 26 27  1  0
 27 28  2  0
 28 29  1  0
 28 30  1  0
 30 31  2  0
 31 32  1  0
 32 33  1  0
 32 34  2  0
 34 35  1  0
 35 36  1  0
 36 37  2  0
  6 38  1  0
 38 39  2  0
 39  3  1  0
 12  8  1  0
 23 18  1  0
 36 25  1  0
 34 27  1  0
M  END
>  <Binding energies>  (70) 
[-10.44]

>  <Ligand effiencies>  (70) 
[-0.261]

>  <Interactions>  (70) 
["V-B:MET:535:CE:9806, V-B:ASP:366:CG:8184, V-B:LEU:363:CD1:8160, V-B:PRO:540:CA:9854, V-B:TYR:539:CE2:9847, V-B:PRO:540:N:9855, V-B:TYR:539:CE1:9846, V-B:PRO:540:CB:9856, H-B:ALA:541:N:9862, V-B:TYR:539:CZ:9848, V-A:ASP:366:CB:3211, V-B:PRO:540:CD:9858, V-B:ILE:538:CA:9831, V-A:TYR:539:C:4867, H-A:TYR:531:OH:4795, H-B:TYR:539:OH:9849, V-B:TYR:539:CD1:9844, V-A:ASP:366:CA:3209, V-B:ASN:362:CB:8147, V-A:PRO:540:CB:4885, V-A:LEU:363:CD1:3188, V-A:ASP:366:CG:3212, V-A:PRO:540:CA:4883, V-B:ILE:538:CD1:9836, H-A:TYR:539:N:4870, V-B:ILE:538:C:9829, H-B:MET:535:SD:9805, H-A:ASN:370:ND2:3247, V-B:VAL:537:C:9821, H-A:ASN:370:N:3243"]

$$$$
RR15_Rahimova_2017
     RDKit          3D

 45 49  0  0  0  0  0  0  0  0999 V2000
  130.1450  125.5410   74.6240 C   0  0  0  0  0  0  0  0  0  0  0  0
  129.0090  126.1500   74.0180 O   0  0  0  0  0  0  0  0  0  0  0  0
  129.0010  126.3700   72.6520 C   0  0  0  0  0  0  0  0  0  0  0  0
  128.3750  125.5160   71.7300 C   0  0  0  0  0  0  0  0  0  0  0  0
  128.4060  125.7960   70.3660 C   0  0  0  0  0  0  0  0  0  0  0  0
  129.0650  126.9310   69.8830 C   0  0  0  0  0  0  0  0  0  0  0  0
  129.1040  127.2280   68.4090 C   0  0  0  0  0  0  0  0  0  0  0  0
  128.4970  128.2760   67.8690 N   0  0  0  0  0  0  0  0  0  0  0  0
  128.7500  128.2070   66.5140 N   0  0  0  0  0  0  0  0  0  0  0  0
  129.5270  127.1300   66.3940 N   0  0  0  0  0  0  0  0  0  0  0  0
  129.9020  126.5880   65.0890 C   0  0  0  0  0  0  0  0  0  0  0  0
  129.2100  127.2660   63.8810 C   0  0  0  0  0  0  0  0  0  0  0  0
  128.3430  128.1130   64.1060 O   0  0  0  0  0  0  0  0  0  0  0  0
  129.5920  126.9370   62.6090 N   0  0  0  0  0  0  0  0  0  0  0  0
  128.8770  125.9030   61.8350 C   0  0  0  0  0  0  0  0  0  0  0  0
  128.7470  124.5560   62.5780 C   0  0  0  0  0  0  0  0  0  0  0  0
  128.3940  123.3490   61.6760 C   0  0  0  0  0  0  0  0  0  0  0  0
  126.9570  123.1970   61.4290 N   0  0  0  0  0  0  0  0  0  0  0  0
  126.1240  123.4940   62.6040 C   0  0  0  0  0  0  0  0  0  0  0  0
  124.6200  123.4030   62.2680 C   0  0  0  0  0  0  0  0  0  0  0  0
  124.3120  124.2450   61.1620 O   0  0  0  0  0  0  0  0  0  0  0  0
  125.0420  123.8930   59.9920 C   0  0  0  0  0  0  0  0  0  0  0  0
  126.5580  124.0010   60.2660 C   0  0  0  0  0  0  0  0  0  0  0  0
  130.6130  127.7060   61.8320 C   0  0  2  0  0  0  0  0  0  0  0  0
  130.1220  129.1060   61.3480 C   0  0  0  0  0  0  0  0  0  0  0  0
  128.9550  129.4630   61.5150 O   0  0  0  0  0  0  0  0  0  0  0  0
  131.0590  129.8890   60.7850 N   0  0  0  0  0  0  0  0  0  0  0  0
  130.8590  131.2680   60.3540 C   0  0  0  0  0  0  0  0  0  0  0  0
  131.9840  131.7230   59.4050 C   0  0  2  0  0  0  0  0  0  0  0  0
  131.5210  132.4820   58.1490 C   0  0  0  0  0  0  0  0  0  0  0  0
  131.5830  131.4560   57.0430 C   0  0  0  0  0  0  0  0  0  0  0  0
  132.7700  130.6150   57.4810 C   0  0  0  0  0  0  0  0  0  0  0  0
  132.5800  130.5250   58.8890 O   0  0  0  0  0  0  0  0  0  0  0  0
  131.2970  126.8100   60.8070 C   0  0  0  0  0  0  0  0  0  0  0  0
  132.1340  125.7900   61.2760 C   0  0  0  0  0  0  0  0  0  0  0  0
  132.7850  124.9410   60.3860 C   0  0  0  0  0  0  0  0  0  0  0  0
  132.6030  125.1050   59.0160 C   0  0  0  0  0  0  0  0  0  0  0  0
  133.2350  124.2800   58.1510 F   0  0  0  0  0  0  0  0  0  0  0  0
  131.7730  126.1120   58.5310 C   0  0  0  0  0  0  0  0  0  0  0  0
  131.1230  126.9610   59.4220 C   0  0  0  0  0  0  0  0  0  0  0  0
  129.7400  126.4680   67.5370 N   0  0  0  0  0  0  0  0  0  0  0  0
  129.6870  127.7820   70.8050 C   0  0  0  0  0  0  0  0  0  0  0  0
  129.6610  127.5160   72.1850 C   0  0  0  0  0  0  0  0  0  0  0  0
  130.2580  128.3280   73.1340 O   0  0  0  0  0  0  0  0  0  0  0  0
  130.0030  129.7280   73.1220 C   0  0  0  0  0  0  0  0  0  0  0  0
  1  2  1  0
  2  3  1  0
  3  4  2  0
  4  5  1  0
  5  6  2  0
  6  7  1  0
  7  8  1  0
  8  9  2  0
  9 10  1  0
 10 11  1  0
 11 12  1  0
 12 13  2  0
 12 14  1  0
 14 15  1  0
 15 16  1  0
 16 17  1  0
 17 18  1  0
 18 19  1  0
 19 20  1  0
 20 21  1  0
 21 22  1  0
 22 23  1  0
 24 14  1  6
 24 25  1  0
 25 26  2  0
 25 27  1  0
 27 28  1  0
 29 28  1  1
 29 30  1  0
 30 31  1  0
 31 32  1  0
 32 33  1  0
 24 34  1  0
 34 35  2  0
 35 36  1  0
 36 37  2  0
 37 38  1  0
 37 39  1  0
 39 40  2  0
 10 41  1  0
  6 42  1  0
 42 43  2  0
 43 44  1  0
 44 45  1  0
 43  3  1  0
 41  7  2  0
 23 18  1  0
 33 29  1  0
 40 34  1  0
M  END
>  <Binding energies>  (71) 
[-9.34]

>  <Ligand effiencies>  (71) 
[-0.20304347826086958]

>  <Interactions>  (71) 
["V-A:HIS:456:CE1:4069, V-A:HIS:456:CD2:4067, V-B:GLU:543:CD:9879, V-A:GLU:543:CD:4908, V-B:HIS:456:CE1:9041, H-A:LYS:547:NZ:4951, H-B:LYS:547:NZ:9922, V-B:GLU:543:C:9873, V-B:GLU:543:CB:9877, V-B:GLU:543:CG:9878, V-B:PRO:540:CA:9854, V-B:TYR:539:CE2:9847, V-B:ALA:541:CB:9863, V-B:PRO:540:CB:9856, H-B:ALA:541:N:9862, V-A:ILE:369:CG2:3236, V-B:TYR:539:CZ:9848, V-A:ILE:369:CB:3235, V-A:ASP:366:CB:3211, V-A:TYR:539:C:4867, V-A:PRO:540:N:4884, V-A:TYR:531:CZ:4794, V-A:ASP:366:CA:3209, V-B:ASN:362:CB:8147, V-A:PRO:540:CB:4885, V-A:LEU:363:CD1:3188, V-A:TYR:531:CE2:4793, V-A:ASP:366:CG:3212, V-A:ASP:366:C:3207, V-A:PRO:540:CA:4883, V-B:ALA:541:C:9859, V-B:ALA:541:CA:9861, V-B:ASN:362:CG:8148, H-A:ASP:366:OD2:3214, H-B:ARG:545:NH2:9899"]

$$$$
RR17_Rahimova_2017
     RDKit          3D

 38 41  0  0  0  0  0  0  0  0999 V2000
  132.1290  132.1220   57.4590 C   0  0  0  0  0  0  0  0  0  0  0  0
  131.5880  132.9200   56.2690 C   0  0  0  0  0  0  0  0  0  0  0  0
  130.4200  133.6230   56.6830 O   0  0  0  0  0  0  0  0  0  0  0  0
  129.2720  132.9130   56.9820 C   0  0  0  0  0  0  0  0  0  0  0  0
  128.5970  132.3400   55.9060 C   0  0  0  0  0  0  0  0  0  0  0  0
  127.4310  131.6080   56.1090 C   0  0  0  0  0  0  0  0  0  0  0  0
  126.9130  131.4350   57.4010 C   0  0  0  0  0  0  0  0  0  0  0  0
  125.6540  130.6390   57.5890 C   0  0  0  0  0  0  0  0  0  0  0  0
  124.6370  130.8430   56.9200 O   0  0  0  0  0  0  0  0  0  0  0  0
  125.6720  129.5470   58.6820 C   0  0  0  0  0  0  0  0  0  0  0  0
  126.5260  128.0290   58.1250 S   0  0  0  0  0  0  0  0  0  0  0  0
  126.6540  127.1680   59.6670 C   0  0  0  0  0  0  0  0  0  0  0  0
  126.8540  127.7290   60.8360 N   0  0  0  0  0  0  0  0  0  0  0  0
  126.8850  126.7210   61.7920 N   0  0  0  0  0  0  0  0  0  0  0  0
  126.6990  125.5880   61.1640 C   0  0  0  0  0  0  0  0  0  0  0  0
  126.6480  124.2240   61.8380 C   0  0  0  0  0  0  0  0  0  0  0  0
  127.8150  123.9320   62.6660 N   0  0  0  0  0  0  0  0  0  0  0  0
  128.8390  123.0460   62.2870 C   0  0  0  0  0  0  0  0  0  0  0  0
  128.6610  122.3260   61.1060 C   0  0  0  0  0  0  0  0  0  0  0  0
  129.6330  121.4280   60.6750 C   0  0  0  0  0  0  0  0  0  0  0  0
  130.8000  121.2410   61.4220 C   0  0  0  0  0  0  0  0  0  0  0  0
  131.8550  120.2470   60.9380 C   0  0  0  0  0  0  0  0  0  0  0  0
  132.1200  120.3830   59.6370 F   0  0  0  0  0  0  0  0  0  0  0  0
  132.9950  120.4140   61.6100 F   0  0  0  0  0  0  0  0  0  0  0  0
  131.4140  119.0060   61.1480 F   0  0  0  0  0  0  0  0  0  0  0  0
  130.9850  121.9680   62.6030 C   0  0  0  0  0  0  0  0  0  0  0  0
  130.0130  122.8670   63.0320 C   0  0  0  0  0  0  0  0  0  0  0  0
  126.5570  125.7980   59.8080 N   0  0  0  0  0  0  0  0  0  0  0  0
  126.3320  124.8400   58.8070 C   0  0  0  0  0  0  0  0  0  0  0  0
  125.0340  124.6140   58.3520 C   0  0  0  0  0  0  0  0  0  0  0  0
  124.8110  123.6610   57.3620 C   0  0  0  0  0  0  0  0  0  0  0  0
  125.8850  122.9330   56.8250 C   0  0  0  0  0  0  0  0  0  0  0  0
  125.7580  121.9700   55.8420 O   0  0  0  0  0  0  0  0  0  0  0  0
  126.4890  122.1160   54.6290 C   0  0  0  0  0  0  0  0  0  0  0  0
  127.1780  123.1710   57.2960 C   0  0  0  0  0  0  0  0  0  0  0  0
  127.4080  124.1230   58.2850 C   0  0  0  0  0  0  0  0  0  0  0  0
  127.5940  132.0120   58.4830 C   0  0  0  0  0  0  0  0  0  0  0  0
  128.7610  132.7430   58.2770 C   0  0  0  0  0  0  0  0  0  0  0  0
  1  2  1  0
  2  3  1  0
  3  4  1  0
  4  5  2  0
  5  6  1  0
  6  7  2  0
  7  8  1  0
  8  9  2  0
  8 10  1  0
 10 11  1  0
 11 12  1  0
 12 13  2  0
 13 14  1  0
 14 15  2  0
 15 16  1  0
 16 17  1  0
 17 18  1  0
 18 19  2  0
 19 20  1  0
 20 21  2  0
 21 22  1  0
 22 23  1  0
 22 24  1  0
 22 25  1  0
 21 26  1  0
 26 27  2  0
 15 28  1  0
 28 29  1  0
 29 30  2  0
 30 31  1  0
 31 32  2  0
 32 33  1  0
 33 34  1  0
 32 35  1  0
 35 36  2  0
  7 37  1  0
 37 38  2  0
 38  4  1  0
 28 12  1  0
 36 29  1  0
 27 18  1  0
M  END
>  <Binding energies>  (72) 
[-9.04]

>  <Ligand effiencies>  (72) 
[-0.23179487179487177]

>  <Interactions>  (72) 
["V-B:GLU:543:CD:9879, V-B:GLU:543:CG:9878, V-B:MET:535:CE:9806, V-A:TRP:381:CZ2:3369, V-A:TRP:381:CZ3:3370, V-B:ASP:366:CG:8184, V-B:LEU:363:CD1:8160, V-A:TRP:381:CH2:3371, V-B:TYR:539:CD2:9845, V-B:PRO:540:CA:9854, V-B:TYR:539:CE2:9847, V-A:PRO:482:CB:4325, V-B:ALA:541:CB:9863, V-B:PRO:540:N:9855, V-A:LEU:475:CD2:4258, V-B:TYR:539:CE1:9846, V-B:PRO:540:CB:9856, H-B:TYR:539:N:9841, V-A:ILE:369:CG2:3236, V-B:PRO:540:CD:9858, V-A:TYR:539:CD2:4874, H-A:TYR:539:OH:4878, V-B:ILE:538:CA:9831, V-A:TYR:539:C:4867, V-A:TYR:539:CE2:4876, H-B:TYR:531:OH:9766, V-A:TYR:539:CG:4872, V-A:PRO:540:N:4884, V-A:MET:535:CE:4835, V-B:TYR:539:CD1:9844, V-B:ASP:366:CB:8183, V-A:PRO:540:CB:4885, V-A:LEU:363:CD1:3188, V-A:PRO:540:CA:4883, V-B:ILE:538:CD1:9836, V-A:PRO:540:CD:4887, V-A:TYR:539:CZ:4877, H-A:TYR:539:N:4870, H-B:ARG:545:NH2:9899, H-B:GLU:543:OE2:9881, V-A:ILE:538:CB:4862, V-A:ILE:538:CA:4860, V-B:ILE:538:C:9829, V-A:TYR:539:CE1:4875, V-A:TYR:539:CD1:4873"]

$$$$
RR19_Rahimova_2017
     RDKit          3D

 46 51  0  0  0  0  0  0  0  0999 V2000
  133.0700  124.9450   58.4670 O   0  0  0  0  0  0  0  0  0  0  0  0
  132.1250  125.4370   59.0900 C   0  0  0  0  0  0  0  0  0  0  0  0
  131.9200  125.3500   60.4290 N   0  0  0  0  0  0  0  0  0  0  0  0
  132.7130  124.9370   61.4710 C   0  0  0  0  0  0  0  0  0  0  0  0
  134.3730  124.6170   61.3800 S   0  0  0  0  0  0  0  0  0  0  0  0
  131.9360  124.8290   62.5980 N   0  0  0  0  0  0  0  0  0  0  0  0
  132.2280  124.6030   63.9040 C   0  0  0  0  0  0  0  0  0  0  0  0
  133.3500  124.6190   64.4160 O   0  0  0  0  0  0  0  0  0  0  0  0
  130.9910  124.2770   64.7770 C   0  0  2  0  0  0  0  0  0  0  0  0
  130.0610  123.1680   64.2050 C   0  0  0  0  0  0  0  0  0  0  0  0
  130.5960  122.4430   62.9800 C   0  0  0  0  0  0  0  0  0  0  0  0
  129.8850  122.4610   61.7600 C   0  0  0  0  0  0  0  0  0  0  0  0
  130.4270  121.8600   60.6320 C   0  0  0  0  0  0  0  0  0  0  0  0
  131.6770  121.2560   60.6910 C   0  0  0  0  0  0  0  0  0  0  0  0
  132.4020  121.2580   61.8770 C   0  0  0  0  0  0  0  0  0  0  0  0
  131.8780  121.8550   63.0160 C   0  0  0  0  0  0  0  0  0  0  0  0
  130.2270  125.5100   65.1140 N   0  0  0  0  0  0  0  0  0  0  0  0
  129.7110  126.3130   64.1400 C   0  0  0  0  0  0  0  0  0  0  0  0
  129.8140  126.1680   62.9210 O   0  0  0  0  0  0  0  0  0  0  0  0
  128.9930  127.3950   64.8570 C   0  0  0  0  0  0  0  0  0  0  0  0
  128.2830  128.4960   64.3770 C   0  0  0  0  0  0  0  0  0  0  0  0
  127.6910  129.3660   65.3000 C   0  0  0  0  0  0  0  0  0  0  0  0
  127.8150  129.1270   66.6760 C   0  0  0  0  0  0  0  0  0  0  0  0
  128.5310  128.0170   67.1370 C   0  0  0  0  0  0  0  0  0  0  0  0
  129.1150  127.1620   66.2000 C   0  0  0  0  0  0  0  0  0  0  0  0
  129.9120  125.9230   66.3780 C   0  0  0  0  0  0  0  0  0  0  0  0
  130.2140  125.3800   67.4420 O   0  0  0  0  0  0  0  0  0  0  0  0
  131.0310  126.2280   58.3230 C   0  0  2  0  0  0  0  0  0  0  0  0
  130.5500  127.5130   59.0570 C   0  0  0  0  0  0  0  0  0  0  0  0
  130.8520  128.7990   58.3090 C   0  0  0  0  0  0  0  0  0  0  0  0
  132.1100  129.4240   58.4550 C   0  0  0  0  0  0  0  0  0  0  0  0
  132.4210  130.5430   57.6930 C   0  0  0  0  0  0  0  0  0  0  0  0
  131.5110  131.0350   56.7670 C   0  0  0  0  0  0  0  0  0  0  0  0
  130.2850  130.4070   56.5850 C   0  0  0  0  0  0  0  0  0  0  0  0
  129.9540  129.2880   57.3370 C   0  0  0  0  0  0  0  0  0  0  0  0
  129.8810  125.3810   57.8940 N   0  0  0  0  0  0  0  0  0  0  0  0
  129.0890  124.7380   58.7960 C   0  0  0  0  0  0  0  0  0  0  0  0
  129.2010  124.7390   60.0230 O   0  0  0  0  0  0  0  0  0  0  0  0
  128.0610  124.0360   57.9870 C   0  0  0  0  0  0  0  0  0  0  0  0
  126.9960  123.2190   58.3710 C   0  0  0  0  0  0  0  0  0  0  0  0
  126.1710  122.6840   57.3760 C   0  0  0  0  0  0  0  0  0  0  0  0
  126.4140  122.9700   56.0270 C   0  0  0  0  0  0  0  0  0  0  0  0
  127.4860  123.7930   55.6620 C   0  0  0  0  0  0  0  0  0  0  0  0
  128.2990  124.3150   56.6700 C   0  0  0  0  0  0  0  0  0  0  0  0
  129.4850  125.2030   56.5990 C   0  0  0  0  0  0  0  0  0  0  0  0
  130.0010  125.6790   55.5870 O   0  0  0  0  0  0  0  0  0  0  0  0
  1  2  2  0
  2  3  1  0
  3  4  1  0
  4  5  2  0
  4  6  1  0
  6  7  1  0
  7  8  2  0
  7  9  1  0
  9 10  1  6
 10 11  1  0
 11 12  2  0
 12 13  1  0
 13 14  2  0
 14 15  1  0
 15 16  2  0
  9 17  1  0
 17 18  1  0
 18 19  2  0
 18 20  1  0
 20 21  2  0
 21 22  1  0
 22 23  2  0
 23 24  1  0
 24 25  2  0
 25 26  1  0
 26 27  2  0
  2 28  1  0
 28 29  1  1
 29 30  1  0
 30 31  2  0
 31 32  1  0
 32 33  2  0
 33 34  1  0
 34 35  2  0
 28 36  1  0
 36 37  1  0
 37 38  2  0
 37 39  1  0
 39 40  2  0
 40 41  1  0
 41 42  2  0
 42 43  1  0
 43 44  2  0
 44 45  1  0
 45 46  2  0
 16 11  1  0
 26 17  1  0
 35 30  1  0
 45 36  1  0
 25 20  1  0
 44 39  1  0
M  END
>  <Binding energies>  (73) 
[-10.49]

>  <Ligand effiencies>  (73) 
[-0.21854166666666666]

>  <Interactions>  (73) 
["V-A:GLU:543:CG:4907, V-B:GLU:543:CD:9879, V-A:GLU:543:CD:4908, V-B:GLU:543:CG:9878, V-B:MET:535:CE:9806, V-B:TYR:539:CD2:9845, V-B:PRO:540:CA:9854, V-B:TYR:539:CE2:9847, V-B:ALA:541:CB:9863, V-B:PRO:540:N:9855, V-A:LEU:475:CD2:4258, V-B:TYR:539:CE1:9846, V-B:PRO:540:CB:9856, V-A:ILE:369:CG2:3236, V-B:TYR:539:CZ:9848, V-A:ILE:369:CB:3235, V-A:ASP:366:CB:3211, V-B:TYR:539:C:9838, V-B:PRO:540:CD:9858, H-A:TYR:531:OH:4795, V-A:MET:535:CE:4835, H-B:TYR:539:OH:9849, H-A:GLY:454:N:4049, V-A:ASP:366:CA:3209, V-A:LEU:363:CD1:3188, V-A:TYR:531:CE2:4793, V-A:ASP:366:CG:3212, H-A:TYR:484:OH:4347, V-A:ILE:369:CD1:3238, V-A:ILE:369:CG1:3237"]

$$$$
RR1_Rahimova_2017
     RDKit          3D

 41 44  0  0  0  0  0  0  0  0999 V2000
  131.5150  132.8030   56.6620 C   0  0  0  0  0  0  0  0  0  0  0  0
  130.1710  133.2330   56.4820 O   0  0  0  0  0  0  0  0  0  0  0  0
  129.1850  132.7250   57.3050 C   0  0  0  0  0  0  0  0  0  0  0  0
  128.0350  132.0610   56.8470 C   0  0  0  0  0  0  0  0  0  0  0  0
  127.0900  131.5890   57.7530 C   0  0  0  0  0  0  0  0  0  0  0  0
  127.2760  131.7650   59.1250 C   0  0  0  0  0  0  0  0  0  0  0  0
  126.2430  131.2930   59.9570 N   0  0  0  0  0  0  0  0  0  0  0  0
  124.9970  131.7830   60.1340 C   0  0  0  0  0  0  0  0  0  0  0  0
  124.5700  132.8160   59.6180 O   0  0  0  0  0  0  0  0  0  0  0  0
  124.1060  130.9440   61.0640 C   0  0  0  0  0  0  0  0  0  0  0  0
  124.1870  131.3850   62.8350 S   0  0  0  0  0  0  0  0  0  0  0  0
  125.8520  130.8880   63.1310 C   0  0  0  0  0  0  0  0  0  0  0  0
  126.8840  131.3450   62.4690 N   0  0  0  0  0  0  0  0  0  0  0  0
  127.9190  130.7200   63.0220 C   0  0  0  0  0  0  0  0  0  0  0  0
  129.3330  130.9560   62.5750 C   0  0  0  0  0  0  0  0  0  0  0  0
  130.0610  129.9700   61.8890 C   0  0  0  0  0  0  0  0  0  0  0  0
  131.3750  130.2180   61.4890 C   0  0  0  0  0  0  0  0  0  0  0  0
  131.9380  131.4570   61.7860 C   0  0  0  0  0  0  0  0  0  0  0  0
  131.2650  132.4320   62.4470 N   0  0  0  0  0  0  0  0  0  0  0  0
  129.9880  132.1730   62.8260 C   0  0  0  0  0  0  0  0  0  0  0  0
  127.6180  129.8810   63.9950 N   0  0  0  0  0  0  0  0  0  0  0  0
  126.2880  129.9860   64.0660 N   0  0  0  0  0  0  0  0  0  0  0  0
  125.5330  129.2200   65.0580 C   0  0  0  0  0  0  0  0  0  0  0  0
  126.0350  129.3590   66.5060 C   0  0  0  0  0  0  0  0  0  0  0  0
  125.2450  129.5730   67.4320 O   0  0  0  0  0  0  0  0  0  0  0  0
  127.3680  129.2340   66.6590 N   0  0  0  0  0  0  0  0  0  0  0  0
  127.8770  129.2010   67.9500 N   0  0  0  0  0  0  0  0  0  0  0  0
  128.7370  128.2080   68.2640 C   0  0  0  0  0  0  0  0  0  0  0  0
  129.1770  127.3900   67.4480 O   0  0  0  0  0  0  0  0  0  0  0  0
  129.1770  128.1550   69.7120 C   0  0  0  0  0  0  0  0  0  0  0  0
  130.0390  129.1340   70.2170 C   0  0  0  0  0  0  0  0  0  0  0  0
  130.4660  129.0980   71.5400 C   0  0  0  0  0  0  0  0  0  0  0  0
  130.0470  128.0710   72.4020 C   0  0  0  0  0  0  0  0  0  0  0  0
  130.4440  127.9690   73.7230 O   0  0  0  0  0  0  0  0  0  0  0  0
  129.5080  128.2400   74.7600 C   0  0  0  0  0  0  0  0  0  0  0  0
  129.1890  127.0760   71.9140 C   0  0  0  0  0  0  0  0  0  0  0  0
  128.8210  126.0760   72.7980 O   0  0  0  0  0  0  0  0  0  0  0  0
  128.7180  124.7330   72.3380 C   0  0  0  0  0  0  0  0  0  0  0  0
  128.7600  127.1290   70.5760 C   0  0  0  0  0  0  0  0  0  0  0  0
  128.4240  132.4270   59.5870 C   0  0  0  0  0  0  0  0  0  0  0  0
  129.3680  132.8970   58.6780 C   0  0  0  0  0  0  0  0  0  0  0  0
  1  2  1  0
  2  3  1  0
  3  4  2  0
  4  5  1  0
  5  6  2  0
  6  7  1  0
  7  8  1  0
  8  9  2  0
  8 10  1  0
 10 11  1  0
 11 12  1  0
 12 13  2  0
 13 14  1  0
 14 15  1  0
 15 16  2  0
 16 17  1  0
 17 18  2  0
 18 19  1  0
 19 20  2  0
 14 21  2  0
 21 22  1  0
 22 23  1  0
 23 24  1  0
 24 25  2  0
 24 26  1  0
 26 27  1  0
 27 28  1  0
 28 29  2  0
 28 30  1  0
 30 31  2  0
 31 32  1  0
 32 33  2  0
 33 34  1  0
 34 35  1  0
 33 36  1  0
 36 37  1  0
 37 38  1  0
 36 39  2  0
  6 40  1  0
 40 41  2  0
 41  3  1  0
 22 12  1  0
 39 30  1  0
 20 15  1  0
M  END
>  <Binding energies>  (74) 
[-8.37]

>  <Ligand effiencies>  (74) 
[-0.19022727272727272]

>  <Interactions>  (74) 
["V-A:LYS:547:CE:4950, V-A:GLU:543:CB:4906, V-A:GLU:543:CG:4907, V-A:HIS:456:CD2:4067, V-B:GLU:543:CD:9879, V-A:GLU:543:CD:4908, V-B:HIS:456:CE1:9041, H-A:LYS:547:NZ:4951, H-B:LYS:547:NZ:9922, V-B:ASP:366:CG:8184, V-A:TYR:539:CD2:4874, V-A:TYR:539:C:4867, V-A:TYR:539:CE2:4876, V-A:PRO:540:N:4884, V-A:MET:535:CE:4835, V-B:ASP:366:CB:8183, V-A:LEU:363:CD1:3188, V-A:PRO:540:CA:4883, V-A:ALA:541:CB:4892, H-A:ALA:541:N:4891, H-B:TYR:484:OH:9319, V-A:GLU:543:C:4902, V-A:PRO:540:CD:4887, V-A:TYR:539:CZ:4877, H-A:TYR:539:N:4870, V-A:GLU:543:CA:4904, H-B:GLY:454:N:9021, V-B:ARG:545:CZ:9897, H-B:GLU:543:OE1:9880, V-A:ILE:538:CB:4862, V-A:ALA:541:CA:4890, V-A:TYR:539:CE1:4875, H-B:HIS:456:NE2:9042, H-B:HIS:456:ND1:9038"]

$$$$
RR22_Rahimova_2017
     RDKit          3D

 31 36  0  0  0  0  0  0  0  0999 V2000
  129.1600  133.5880   54.5010 O   0  0  0  0  0  0  0  0  0  0  0  0
  129.1750  132.9810   55.5700 C   0  0  0  0  0  0  0  0  0  0  0  0
  128.0900  132.5260   56.2990 N   0  0  0  0  0  0  0  0  0  0  0  0
  128.2830  131.7780   57.5030 C   0  0  1  0  0  0  0  0  0  0  0  0
  127.5580  132.4920   58.5080 O   0  0  0  0  0  0  0  0  0  0  0  0
  126.5290  131.8300   59.1790 C   0  0  0  0  0  0  0  0  0  0  0  0
  125.6180  132.6320   59.8670 C   0  0  0  0  0  0  0  0  0  0  0  0
  124.5850  132.0410   60.5950 C   0  0  0  0  0  0  0  0  0  0  0  0
  124.4700  130.6510   60.6410 C   0  0  0  0  0  0  0  0  0  0  0  0
  125.3820  129.8490   59.9530 C   0  0  0  0  0  0  0  0  0  0  0  0
  126.4070  130.4280   59.2000 C   0  0  0  0  0  0  0  0  0  0  0  0
  127.4690  129.6480   58.4570 C   0  0  1  0  0  0  0  0  0  0  0  0
  127.2000  128.2900   57.8400 C   0  0  0  0  0  0  0  0  0  0  0  0
  128.1830  128.3370   56.6660 C   0  0  0  0  0  0  0  0  0  0  0  0
  128.6240  127.1260   55.9470 C   0  0  0  0  0  0  0  0  0  0  0  0
  128.3380  125.8500   56.4550 C   0  0  0  0  0  0  0  0  0  0  0  0
  128.7550  124.7110   55.7710 C   0  0  0  0  0  0  0  0  0  0  0  0
  129.4600  124.8400   54.5780 C   0  0  0  0  0  0  0  0  0  0  0  0
  129.7520  126.0990   54.0600 C   0  0  0  0  0  0  0  0  0  0  0  0
  129.3340  127.2390   54.7410 C   0  0  0  0  0  0  0  0  0  0  0  0
  128.5280  129.5400   56.4000 N   0  0  0  0  0  0  0  0  0  0  0  0
  127.8500  130.3890   57.2920 N   0  0  0  0  0  0  0  0  0  0  0  0
  129.7590  131.8900   57.8530 C   0  0  0  0  0  0  0  0  0  0  0  0
  130.2490  131.6080   59.0830 C   0  0  0  0  0  0  0  0  0  0  0  0
  131.6480  131.6550   59.5490 C   0  0  0  0  0  0  0  0  0  0  0  0
  132.0040  131.8080   60.8970 C   0  0  0  0  0  0  0  0  0  0  0  0
  133.3500  131.8440   61.2630 C   0  0  0  0  0  0  0  0  0  0  0  0
  134.3150  131.7310   60.2630 C   0  0  0  0  0  0  0  0  0  0  0  0
  134.0010  131.5910   58.9510 N   0  0  0  0  0  0  0  0  0  0  0  0
  132.6860  131.5570   58.6140 C   0  0  0  0  0  0  0  0  0  0  0  0
  130.6810  132.5240   56.4810 S   0  0  0  0  0  0  0  0  0  0  0  0
  1  2  2  0
  2  3  1  0
  4  3  1  6
  4  5  1  0
  5  6  1  0
  6  7  2  0
  7  8  1  0
  8  9  2  0
  9 10  1  0
 10 11  2  0
 11 12  1  0
 12 13  1  6
 13 14  1  0
 14 15  1  0
 15 16  2  0
 16 17  1  0
 17 18  2  0
 18 19  1  0
 19 20  2  0
 14 21  2  0
 21 22  1  0
  4 23  1  0
 23 24  2  0
 24 25  1  0
 25 26  2  0
 26 27  1  0
 27 28  2  0
 28 29  1  0
 29 30  2  0
 23 31  1  0
 31  2  1  0
 22  4  1  0
 30 25  1  0
 11  6  1  0
 22 12  1  0
 20 15  1  0
M  END
>  <Binding energies>  (75) 
[-8.52]

>  <Ligand effiencies>  (75) 
[-0.26625]

>  <Interactions>  (75) 
["V-B:ASP:366:CG:8184, V-B:TYR:539:CE1:9846, V-B:TYR:539:CZ:9848, V-A:TYR:539:CD2:4874, H-A:TYR:539:OH:4878, V-A:TYR:539:CE2:4876, V-A:TYR:539:CG:4872, V-A:MET:535:CE:4835, V-A:TYR:531:CE1:4792, V-A:TYR:531:CZ:4794, V-B:ASP:366:CB:8183, V-A:LEU:363:CA:3184, V-A:PRO:540:CB:4885, V-A:LEU:363:CD1:3188, V-A:ASP:366:CG:3212, V-A:PRO:540:CA:4883, V-A:TYR:539:CZ:4877, H-A:TYR:539:N:4870, V-A:ILE:538:CA:4860, V-A:ASN:362:CB:3175, H-A:LEU:363:N:3185, V-A:TYR:539:CE1:4875, V-A:TYR:539:CD1:4873, V-A:LEU:363:CB:3186, V-A:ASN:362:C:3171, H-A:ILE:538:N:4861, V-A:ASN:362:CA:3173"]

$$$$
RR24_Rahimova_2017
     RDKit          3D

 43 49  0  0  0  0  0  0  0  0999 V2000
  128.9150  133.2120   56.6420 C   0  0  0  0  0  0  0  0  0  0  0  0
  129.7710  131.9370   56.6850 C   0  0  2  0  0  0  0  0  0  0  0  0
  128.9320  130.6300   56.5730 C   0  0  0  0  0  0  0  0  0  0  0  0
  127.7020  130.6290   56.6860 O   0  0  0  0  0  0  0  0  0  0  0  0
  129.7090  129.5260   56.3700 O   0  0  0  0  0  0  0  0  0  0  0  0
  129.5700  128.4360   57.1990 C   0  0  0  0  0  0  0  0  0  0  0  0
  129.4500  127.1620   56.6400 C   0  0  0  0  0  0  0  0  0  0  0  0
  129.3190  126.0510   57.4680 C   0  0  0  0  0  0  0  0  0  0  0  0
  129.3160  126.2070   58.8570 C   0  0  0  0  0  0  0  0  0  0  0  0
  129.1520  124.9820   59.7640 C   0  0  1  0  0  0  0  0  0  0  0  0
  130.0830  125.0460   60.9970 C   0  0  0  0  0  0  0  0  0  0  0  0
  129.6390  124.8700   62.2550 C   0  0  0  0  0  0  0  0  0  0  0  0
  128.3190  124.6200   62.5370 N   0  0  0  0  0  0  0  0  0  0  0  0
  127.3770  124.5390   61.5380 C   0  0  0  0  0  0  0  0  0  0  0  0
  126.1210  124.2780   61.9830 N   0  0  0  0  0  0  0  0  0  0  0  0
  125.0470  124.2390   61.1480 C   0  0  0  0  0  0  0  0  0  0  0  0
  123.9120  124.3180   61.6230 O   0  0  0  0  0  0  0  0  0  0  0  0
  125.3750  124.2800   59.8020 N   0  0  0  0  0  0  0  0  0  0  0  0
  124.2520  124.1500   58.8510 C   0  0  0  0  0  0  0  0  0  0  0  0
  126.6140  124.5410   59.2420 C   0  0  0  0  0  0  0  0  0  0  0  0
  126.8250  124.6150   58.0280 O   0  0  0  0  0  0  0  0  0  0  0  0
  127.6900  124.7040   60.2260 C   0  0  0  0  0  0  0  0  0  0  0  0
  130.7290  124.9840   63.2090 C   0  0  0  0  0  0  0  0  0  0  0  0
  130.7900  124.8900   64.6000 C   0  0  0  0  0  0  0  0  0  0  0  0
  132.0210  125.0530   65.2410 C   0  0  0  0  0  0  0  0  0  0  0  0
  133.1760  125.3050   64.4950 C   0  0  0  0  0  0  0  0  0  0  0  0
  133.1080  125.3980   63.1020 C   0  0  0  0  0  0  0  0  0  0  0  0
  131.8760  125.2360   62.4670 C   0  0  0  0  0  0  0  0  0  0  0  0
  131.5220  125.2810   61.0320 C   0  0  0  0  0  0  0  0  0  0  0  0
  132.2390  125.4700   60.0510 O   0  0  0  0  0  0  0  0  0  0  0  0
  129.4550  127.4830   59.4150 C   0  0  0  0  0  0  0  0  0  0  0  0
  129.5880  128.5940   58.5870 C   0  0  0  0  0  0  0  0  0  0  0  0
  130.6950  131.9210   57.8570 N   0  0  0  0  0  0  0  0  0  0  0  0
  130.2330  132.0630   59.1310 C   0  0  0  0  0  0  0  0  0  0  0  0
  129.0650  132.2250   59.4900 O   0  0  0  0  0  0  0  0  0  0  0  0
  131.4350  131.9830   59.9980 C   0  0  0  0  0  0  0  0  0  0  0  0
  131.5680  132.0660   61.3850 C   0  0  0  0  0  0  0  0  0  0  0  0
  132.8470  131.9510   61.9430 C   0  0  0  0  0  0  0  0  0  0  0  0
  133.9620  131.7560   61.1180 C   0  0  0  0  0  0  0  0  0  0  0  0
  133.8080  131.6760   59.7300 C   0  0  0  0  0  0  0  0  0  0  0  0
  132.5250  131.7940   59.1920 C   0  0  0  0  0  0  0  0  0  0  0  0
  132.0510  131.7470   57.7870 C   0  0  0  0  0  0  0  0  0  0  0  0
  132.7330  131.5830   56.7750 O   0  0  0  0  0  0  0  0  0  0  0  0
  2  1  1  1
  2  3  1  0
  3  4  2  0
  3  5  1  0
  5  6  1  0
  6  7  2  0
  7  8  1  0
  8  9  2  0
 10  9  1  1
 10 11  1  0
 11 12  2  0
 12 13  1  0
 13 14  1  0
 14 15  1  0
 15 16  1  0
 16 17  2  0
 16 18  1  0
 18 19  1  0
 18 20  1  0
 20 21  2  0
 20 22  1  0
 12 23  1  0
 23 24  2  0
 24 25  1  0
 25 26  2  0
 26 27  1  0
 27 28  2  0
 28 29  1  0
 29 30  2  0
  9 31  1  0
 31 32  2  0
  2 33  1  0
 33 34  1  0
 34 35  2  0
 34 36  1  0
 36 37  2  0
 37 38  1  0
 38 39  2  0
 39 40  1  0
 40 41  2  0
 41 42  1  0
 42 43  2  0
 32  6  1  0
 42 33  1  0
 22 10  1  0
 28 23  1  0
 41 36  1  0
 29 11  1  0
 22 14  2  0
M  END
>  <Binding energies>  (76) 
[-9.66]

>  <Ligand effiencies>  (76) 
[-0.21466666666666667]

>  <Interactions>  (76) 
["V-B:GLU:543:CD:9879, V-B:GLU:543:CG:9878, V-B:LEU:363:CA:8156, V-B:LEU:363:CD1:8160, V-B:PRO:540:CA:9854, V-B:PRO:540:CB:9856, V-A:ARG:545:CZ:4926, V-A:TYR:539:CD2:4874, V-A:TYR:539:C:4867, V-A:TYR:539:CE2:4876, H-A:TYR:531:OH:4795, V-A:TYR:539:CG:4872, V-A:MET:535:CE:4835, V-A:LEU:363:CA:3184, V-B:ASN:362:CB:8147, V-A:PRO:540:CB:4885, V-A:LEU:363:CD1:3188, V-A:ASP:366:CG:3212, V-A:PRO:540:CA:4883, V-A:PRO:540:C:4881, V-A:TYR:539:CZ:4877, H-B:ARG:545:NH2:9899, H-B:GLU:543:OE2:9881, V-A:ASN:362:CB:3175, H-B:ALA:541:O:9860, V-A:TYR:539:CE1:4875, V-A:TYR:539:CD1:4873, H-B:LEU:363:N:8157, V-A:LEU:363:CB:3186, V-A:ASN:362:C:3171, V-A:ASN:362:CA:3173"]

$$$$
RR25_Rahimova_2017
     RDKit          3D

 39 44  0  0  0  0  0  0  0  0999 V2000
  124.9860  129.5010   67.8270 O   0  0  0  0  0  0  0  0  0  0  0  0
  125.9190  129.1350   67.1100 C   0  0  0  0  0  0  0  0  0  0  0  0
  127.0390  128.6780   67.7600 O   0  0  0  0  0  0  0  0  0  0  0  0
  128.0450  128.0130   67.0820 C   0  0  0  0  0  0  0  0  0  0  0  0
  128.8250  127.1300   67.8270 C   0  0  0  0  0  0  0  0  0  0  0  0
  129.8620  126.4340   67.2090 C   0  0  0  0  0  0  0  0  0  0  0  0
  130.1360  126.6120   65.8450 C   0  0  0  0  0  0  0  0  0  0  0  0
  131.2350  125.8630   65.1880 N   0  0  0  0  0  0  0  0  0  0  0  0
  132.2050  125.5280   65.8650 O   0  0  0  0  0  0  0  0  0  0  0  0
  131.1370  125.6040   63.9930 O   0  0  0  0  0  0  0  0  0  0  0  0
  129.3460  127.5150   65.1160 C   0  0  0  0  0  0  0  0  0  0  0  0
  128.3070  128.2280   65.7210 C   0  0  0  0  0  0  0  0  0  0  0  0
  127.4190  129.2070   64.9750 C   0  0  0  0  0  0  0  0  0  0  0  0
  125.9780  129.1530   65.5550 C   0  0  2  0  0  0  0  0  0  0  0  0
  125.0620  130.2150   64.8800 C   0  0  0  0  0  0  0  0  0  0  0  0
  124.3550  130.8830   65.6390 O   0  0  0  0  0  0  0  0  0  0  0  0
  125.1240  130.4840   63.5410 N   0  0  0  0  0  0  0  0  0  0  0  0
  125.6960  129.5370   62.5600 C   0  0  0  0  0  0  0  0  0  0  0  0
  126.4430  130.3340   61.4700 C   0  0  0  0  0  0  0  0  0  0  0  0
  125.5740  131.3390   60.8510 N   0  0  0  0  0  0  0  0  0  0  0  0
  126.2400  132.0070   59.7250 C   0  0  0  0  0  0  0  0  0  0  0  0
  127.3350  133.0080   60.1810 C   0  0  0  0  0  0  0  0  0  0  0  0
  128.7320  132.6890   59.7640 N   0  0  0  0  0  0  0  0  0  0  0  0
  129.6530  132.6290   60.7880 C   0  0  0  0  0  0  0  0  0  0  0  0
  129.3680  132.8580   61.9690 O   0  0  0  0  0  0  0  0  0  0  0  0
  131.0530  132.2390   60.3550 C   0  0  0  0  0  0  0  0  0  0  0  0
  132.0630  132.1230   61.3190 C   0  0  0  0  0  0  0  0  0  0  0  0
  133.3590  131.7580   60.9570 C   0  0  0  0  0  0  0  0  0  0  0  0
  133.6860  131.4960   59.6280 C   0  0  0  0  0  0  0  0  0  0  0  0
  132.6980  131.6010   58.6200 C   0  0  0  0  0  0  0  0  0  0  0  0
  132.9600  131.3480   57.2520 C   0  0  0  0  0  0  0  0  0  0  0  0
  131.9400  131.4670   56.3110 C   0  0  0  0  0  0  0  0  0  0  0  0
  130.6520  131.8350   56.6930 C   0  0  0  0  0  0  0  0  0  0  0  0
  130.3460  132.0960   58.0350 C   0  0  0  0  0  0  0  0  0  0  0  0
  131.3790  131.9760   59.0000 C   0  0  0  0  0  0  0  0  0  0  0  0
  128.9290  132.4850   58.4130 C   0  0  0  0  0  0  0  0  0  0  0  0
  128.0320  132.5920   57.5710 O   0  0  0  0  0  0  0  0  0  0  0  0
  125.1260  132.2990   61.8610 C   0  0  0  0  0  0  0  0  0  0  0  0
  124.3300  131.6070   62.9940 C   0  0  0  0  0  0  0  0  0  0  0  0
  1  2  2  0
  2  3  1  0
  3  4  1  0
  4  5  2  0
  5  6  1  0
  6  7  2  0
  7  8  1  0
  8  9  2  0
  8 10  1  0
  7 11  1  0
 11 12  2  0
 12 13  1  0
 13 14  1  0
 14 15  1  1
 15 16  2  0
 15 17  1  0
 17 18  1  0
 18 19  1  0
 19 20  1  0
 20 21  1  0
 21 22  1  0
 22 23  1  0
 23 24  1  0
 24 25  2  0
 24 26  1  0
 26 27  2  0
 27 28  1  0
 28 29  2  0
 29 30  1  0
 30 31  2  0
 31 32  1  0
 32 33  2  0
 33 34  1  0
 34 35  2  0
 34 36  1  0
 36 37  2  0
 20 38  1  0
 38 39  1  0
 14  2  1  0
 39 17  1  0
 12  4  1  0
 36 23  1  0
 35 26  1  0
 35 30  1  0
M  CHG  2   8   1  10  -1
M  END
>  <Binding energies>  (77) 
[-10.47]

>  <Ligand effiencies>  (77) 
[-0.2684615384615385]

>  <Interactions>  (77) 
["V-A:HIS:456:CE1:4069, V-A:GLU:543:CG:4907, V-B:GLU:543:CD:9879, V-A:GLU:543:CD:4908, V-B:HIS:456:CE1:9041, V-B:ASP:366:CG:8184, V-A:ASP:366:CB:3211, V-A:TYR:539:CD2:4874, V-A:TYR:539:C:4867, V-A:TYR:539:CE2:4876, V-A:PRO:540:N:4884, V-A:MET:535:CE:4835, V-A:LEU:363:CA:3184, V-A:PRO:540:CB:4885, V-A:LEU:363:CD1:3188, V-A:TYR:531:CE2:4793, V-A:ASP:366:CG:3212, H-A:TYR:484:OH:4347, V-A:PRO:540:CA:4883, H-A:ALA:541:N:4891, H-B:TYR:484:OH:9319, V-A:PRO:540:C:4881, H-B:GLY:454:N:9021, V-B:ARG:545:CZ:9897, V-A:ASN:362:CB:3175, H-B:HIS:456:ND1:9038, V-A:ASN:362:C:3171"]

$$$$
RR27_Rahimova_2017
     RDKit          3D

 39 44  0  0  0  0  0  0  0  0999 V2000
  132.3810  129.0900   57.8280 O   0  0  0  0  0  0  0  0  0  0  0  0
  131.3350  129.2130   58.4720 C   0  0  0  0  0  0  0  0  0  0  0  0
  130.8610  130.6490   58.8410 C   0  0  0  0  0  0  0  0  0  0  0  0
  130.6980  131.5660   57.6150 C   0  0  0  0  0  0  0  0  0  0  0  0
  131.7590  131.8180   56.7320 C   0  0  0  0  0  0  0  0  0  0  0  0
  131.5760  132.6510   55.6320 C   0  0  0  0  0  0  0  0  0  0  0  0
  130.3330  133.2350   55.4080 C   0  0  0  0  0  0  0  0  0  0  0  0
  129.2720  132.9970   56.2770 C   0  0  0  0  0  0  0  0  0  0  0  0
  129.4540  132.1650   57.3770 C   0  0  0  0  0  0  0  0  0  0  0  0
  131.6920  131.2470   59.9930 C   0  0  0  0  0  0  0  0  0  0  0  0
  131.1160  131.5640   61.2300 C   0  0  0  0  0  0  0  0  0  0  0  0
  131.8930  132.1140   62.2470 C   0  0  0  0  0  0  0  0  0  0  0  0
  133.2470  132.3540   62.0270 C   0  0  0  0  0  0  0  0  0  0  0  0
  133.8300  132.0550   60.7990 C   0  0  0  0  0  0  0  0  0  0  0  0
  133.0520  131.5070   59.7840 C   0  0  0  0  0  0  0  0  0  0  0  0
  130.5240  128.1480   58.7300 N   0  0  0  0  0  0  0  0  0  0  0  0
  129.4150  128.1880   59.6940 C   0  0  0  0  0  0  0  0  0  0  0  0
  130.0080  127.8290   61.0740 C   0  0  0  0  0  0  0  0  0  0  0  0
  130.7690  126.4640   61.0670 C   0  0  0  0  0  0  0  0  0  0  0  0
  131.4750  126.1120   62.3890 C   0  0  0  0  0  0  0  0  0  0  0  0
  132.8180  125.8790   62.3160 N   0  0  0  0  0  0  0  0  0  0  0  0
  133.4960  125.5900   63.4610 C   0  0  0  0  0  0  0  0  0  0  0  0
  134.8430  125.3420   63.5170 O   0  0  0  0  0  0  0  0  0  0  0  0
  132.7830  125.5400   64.6750 C   0  0  0  0  0  0  0  0  0  0  0  0
  133.1410  125.2930   65.9670 N   0  0  0  0  0  0  0  0  0  0  0  0
  131.9940  125.3760   66.7340 N   0  0  0  0  0  0  0  0  0  0  0  0
  130.9530  125.6770   65.9300 N   0  0  0  0  0  0  0  0  0  0  0  0
  129.6040  125.8020   66.4780 C   0  0  0  0  0  0  0  0  0  0  0  0
  129.4340  126.9860   67.4220 C   0  0  0  0  0  0  0  0  0  0  0  0
  128.4500  127.9480   67.1740 C   0  0  0  0  0  0  0  0  0  0  0  0
  128.2870  129.0260   68.0450 C   0  0  0  0  0  0  0  0  0  0  0  0
  129.1030  129.1460   69.1690 C   0  0  0  0  0  0  0  0  0  0  0  0
  130.0810  128.1840   69.4270 C   0  0  0  0  0  0  0  0  0  0  0  0
  131.0750  128.3160   70.8330 Cl  0  0  0  0  0  0  0  0  0  0  0  0
  130.2500  127.1100   68.5530 C   0  0  0  0  0  0  0  0  0  0  0  0
  131.3940  125.7880   64.6220 C   0  0  0  0  0  0  0  0  0  0  0  0
  130.7040  126.0660   63.5130 N   0  0  0  0  0  0  0  0  0  0  0  0
  131.6880  126.3170   59.8160 C   0  0  0  0  0  0  0  0  0  0  0  0
  131.0080  126.7780   58.5020 C   0  0  0  0  0  0  0  0  0  0  0  0
  1  2  2  0
  2  3  1  0
  3  4  1  0
  4  5  2  0
  5  6  1  0
  6  7  2  0
  7  8  1  0
  8  9  2  0
  3 10  1  0
 10 11  2  0
 11 12  1  0
 12 13  2  0
 13 14  1  0
 14 15  2  0
  2 16  1  0
 16 17  1  0
 17 18  1  0
 18 19  1  0
 19 20  1  0
 20 21  2  0
 21 22  1  0
 22 23  1  0
 22 24  2  0
 24 25  1  0
 25 26  2  0
 26 27  1  0
 27 28  1  0
 28 29  1  0
 29 30  2  0
 30 31  1  0
 31 32  2  0
 32 33  1  0
 33 34  1  0
 33 35  2  0
 27 36  1  0
 36 37  2  0
 19 38  1  0
 38 39  1  0
  9  4  1  0
 15 10  1  0
 39 16  1  0
 37 20  1  0
 36 24  1  0
 35 29  1  0
M  END
>  <Binding energies>  (78) 
[-10.55]

>  <Ligand effiencies>  (78) 
[-0.26375000000000004]

>  <Interactions>  (78) 
["V-A:HIS:456:CE1:4069, V-A:GLU:543:CB:4906, V-A:GLU:543:CG:4907, V-B:GLU:543:CD:9879, V-A:GLU:543:CD:4908, V-B:HIS:456:CE1:9041, V-B:GLU:543:CB:9877, V-B:GLU:543:CG:9878, V-A:ASP:366:CB:3211, V-A:ARG:545:CZ:4926, V-A:TYR:539:CD2:4874, V-A:TYR:539:CE2:4876, H-A:TYR:531:OH:4795, V-A:TYR:539:CG:4872, V-A:MET:535:CE:4835, H-A:GLY:454:N:4049, V-A:LEU:363:CA:3184, V-A:PRO:540:CB:4885, V-A:LEU:363:CD1:3188, V-A:ASP:366:CG:3212, H-A:TYR:484:OH:4347, V-A:PRO:540:CA:4883, H-A:ARG:545:NH1:4927, H-A:ARG:545:NH2:4928, H-A:ASP:366:OD1:3213, V-A:PRO:540:C:4881, V-A:TYR:539:CZ:4877, H-A:ARG:545:NE:4924, V-A:ILE:538:CB:4862, V-A:ILE:538:CA:4860, V-A:ILE:538:CG2:4863, V-A:ASN:362:CB:3175, V-A:ALA:541:CA:4890, V-A:TYR:539:CE1:4875, V-A:TYR:539:CD1:4873, V-A:ILE:538:C:4858, V-A:ALA:541:C:4888, V-A:ASN:362:C:3171"]

$$$$
RR28_Rahimova_2017
     RDKit          3D

 46 49  0  0  0  0  0  0  0  0999 V2000
  134.5590  125.3740   66.7750 C   0  0  0  0  0  0  0  0  0  0  0  0
  133.6050  125.2260   65.5950 C   0  0  0  0  0  0  0  0  0  0  0  0
  134.0190  125.4160   64.4530 O   0  0  0  0  0  0  0  0  0  0  0  0
  132.3340  124.8880   65.8920 N   0  0  0  0  0  0  0  0  0  0  0  0
  131.2000  124.6850   64.9630 C   0  0  0  0  0  0  0  0  0  0  0  0
  130.2280  125.8910   65.1110 C   0  0  0  0  0  0  0  0  0  0  0  0
  129.7800  126.5580   63.9600 C   0  0  0  0  0  0  0  0  0  0  0  0
  128.9140  127.6430   64.0540 C   0  0  0  0  0  0  0  0  0  0  0  0
  128.4770  128.0880   65.3030 C   0  0  0  0  0  0  0  0  0  0  0  0
  127.5290  129.2840   65.3870 C   0  0  0  0  0  0  0  0  0  0  0  0
  126.3530  129.0410   64.8040 F   0  0  0  0  0  0  0  0  0  0  0  0
  127.2990  129.6040   66.6610 F   0  0  0  0  0  0  0  0  0  0  0  0
  128.0890  130.3290   64.7770 F   0  0  0  0  0  0  0  0  0  0  0  0
  128.9170  127.4330   66.4570 C   0  0  0  0  0  0  0  0  0  0  0  0
  129.7830  126.3470   66.3610 C   0  0  0  0  0  0  0  0  0  0  0  0
  130.5210  123.2910   65.2200 C   0  0  0  0  0  0  0  0  0  0  0  0
  131.4420  122.0900   64.8880 C   0  0  0  0  0  0  0  0  0  0  0  0
  131.8090  122.2260   63.4680 N   0  0  0  0  0  0  0  0  0  0  0  0
  131.0830  121.5920   62.5070 C   0  0  0  0  0  0  0  0  0  0  0  0
  130.2150  120.7610   62.7840 O   0  0  0  0  0  0  0  0  0  0  0  0
  131.4690  121.7970   61.0220 C   0  0  0  0  0  0  0  0  0  0  0  0
  130.2850  121.9460   60.0280 C   0  0  0  0  0  0  0  0  0  0  0  0
  129.0670  122.7300   60.5700 C   0  0  0  0  0  0  0  0  0  0  0  0
  128.3620  122.1860   61.4250 O   0  0  0  0  0  0  0  0  0  0  0  0
  128.8820  124.0300   60.2030 N   0  0  0  0  0  0  0  0  0  0  0  0
  129.4680  124.6180   58.9920 C   0  0  0  0  0  0  0  0  0  0  0  0
  128.4980  124.3000   57.8330 C   0  0  0  0  0  0  0  0  0  0  0  0
  127.0280  124.8020   58.0510 C   0  0  0  0  0  0  0  0  0  0  0  0
  126.1320  124.1080   57.1020 N   0  0  0  0  0  0  0  0  0  0  0  0
  126.1670  122.8160   56.7190 C   0  0  0  0  0  0  0  0  0  0  0  0
  125.1160  122.3850   55.7010 C   0  0  0  0  0  0  0  0  0  0  0  0
  126.9820  121.9950   57.1370 O   0  0  0  0  0  0  0  0  0  0  0  0
  126.9970  126.3260   57.7010 C   0  0  0  0  0  0  0  0  0  0  0  0
  126.4840  127.2980   58.5760 C   0  0  0  0  0  0  0  0  0  0  0  0
  126.4760  128.6450   58.2260 C   0  0  0  0  0  0  0  0  0  0  0  0
  126.9780  129.0560   56.9890 C   0  0  0  0  0  0  0  0  0  0  0  0
  126.9800  130.5310   56.5920 C   0  0  0  0  0  0  0  0  0  0  0  0
  126.3930  130.6990   55.4050 F   0  0  0  0  0  0  0  0  0  0  0  0
  126.3050  131.2300   57.5040 F   0  0  0  0  0  0  0  0  0  0  0  0
  128.2150  131.0300   56.5130 F   0  0  0  0  0  0  0  0  0  0  0  0
  127.4830  128.1010   56.1050 C   0  0  0  0  0  0  0  0  0  0  0  0
  127.4900  126.7550   56.4590 C   0  0  0  0  0  0  0  0  0  0  0  0
  126.5960  124.4980   59.5380 C   0  0  0  0  0  0  0  0  0  0  0  0
  127.6740  124.7500   60.6260 C   0  0  0  0  0  0  0  0  0  0  0  0
  132.6270  123.4150   63.1890 C   0  0  0  0  0  0  0  0  0  0  0  0
  131.7480  124.6540   63.4990 C   0  0  0  0  0  0  0  0  0  0  0  0
  1  2  1  0
  2  3  2  0
  2  4  1  0
  4  5  1  0
  5  6  1  0
  6  7  2  0
  7  8  1  0
  8  9  2  0
  9 10  1  0
 10 11  1  0
 10 12  1  0
 10 13  1  0
  9 14  1  0
 14 15  2  0
  5 16  1  0
 16 17  1  0
 17 18  1  0
 18 19  1  0
 19 20  2  0
 19 21  1  0
 21 22  1  0
 22 23  1  0
 23 24  2  0
 23 25  1  0
 25 26  1  0
 26 27  1  0
 27 28  1  0
 28 29  1  0
 29 30  1  0
 30 31  1  0
 30 32  2  0
 28 33  1  0
 33 34  2  0
 34 35  1  0
 35 36  2  0
 36 37  1  0
 37 38  1  0
 37 39  1  0
 37 40  1  0
 36 41  1  0
 41 42  2  0
 28 43  1  0
 43 44  1  0
 18 45  1  0
 45 46  1  0
 46  5  1  0
 15  6  1  0
 44 25  1  0
 42 33  1  0
M  END
>  <Binding energies>  (79) 
[-9.48]

>  <Ligand effiencies>  (79) 
[-0.1975]

>  <Interactions>  (79) 
["V-A:HIS:456:CE1:4069, V-A:GLU:543:CG:4907, V-B:GLU:543:CD:9879, V-A:GLU:543:CD:4908, V-B:GLU:543:CG:9878, V-B:MET:535:CE:9806, V-B:LEU:363:CD1:8160, V-B:TYR:539:CD2:9845, V-B:PRO:540:CA:9854, V-B:TYR:539:CE2:9847, V-B:ALA:541:CB:9863, V-B:PRO:540:N:9855, V-A:LEU:475:CD2:4258, H-B:TYR:539:N:9841, H-B:ALA:541:N:9862, V-B:TYR:539:CZ:9848, V-B:PRO:540:CD:9858, V-A:ARG:545:CZ:4926, V-B:ILE:538:CA:9831, V-A:TYR:539:CE2:4876, H-B:TYR:531:OH:9766, V-A:MET:535:CE:4835, H-A:GLY:454:N:4049, V-B:ILE:538:CG2:9834, H-A:TYR:484:OH:4347, V-A:TYR:484:CE1:4344, V-B:ILE:538:CD1:9836, V-A:TYR:484:CZ:4346, H-A:ARG:545:NH1:4927, H-A:ARG:545:NH2:4928, V-A:TYR:539:CZ:4877, H-A:ARG:545:NE:4924, V-A:ARG:545:CD:4923, V-A:ILE:455:C:4051, V-A:ARG:545:CG:4922, V-B:ARG:545:CZ:9897, V-A:LEU:475:CD1:4257, V-B:TYR:531:CE1:9763, H-B:MET:535:SD:9805, V-A:GLY:453:C:4041, V-A:GLY:453:CA:4043"]

$$$$
RR29_Rahimova_2017
     RDKit          3D

 18 19  0  0  0  0  0  0  0  0999 V2000
  128.7000  121.4880   60.5880 C   0  0  0  0  0  0  0  0  0  0  0  0
  128.3530  122.9130   60.9910 C   0  0  0  0  0  0  0  0  0  0  0  0
  129.4360  123.9370   60.5800 C   0  0  0  0  0  0  0  0  0  0  0  0
  129.7650  123.8460   59.0760 C   0  0  0  0  0  0  0  0  0  0  0  0
  128.5140  123.8400   58.2100 C   0  0  0  0  0  0  0  0  0  0  0  0
  127.8710  125.0540   57.8960 C   0  0  0  0  0  0  0  0  0  0  0  0
  126.7170  125.0720   57.0990 C   0  0  0  0  0  0  0  0  0  0  0  0
  126.2310  123.8510   56.6460 C   0  0  0  0  0  0  0  0  0  0  0  0
  126.8490  122.6710   56.9500 C   0  0  0  0  0  0  0  0  0  0  0  0
  128.0000  122.6240   57.7280 C   0  0  0  0  0  0  0  0  0  0  0  0
  126.1830  121.6480   56.3510 O   0  0  0  0  0  0  0  0  0  0  0  0
  125.0040  122.2100   55.8400 C   0  0  0  0  0  0  0  0  0  0  0  0
  125.1590  123.6050   55.8470 O   0  0  0  0  0  0  0  0  0  0  0  0
  127.2530  123.1250   61.6130 N   0  0  0  0  0  0  0  0  0  0  0  0
  126.9770  124.4010   62.0540 N   0  0  0  0  0  0  0  0  0  0  0  0
  126.3210  125.3220   61.3290 C   0  0  0  0  0  0  0  0  0  0  0  0
  125.8370  125.1220   60.1030 N   0  0  0  0  0  0  0  0  0  0  0  0
  126.1400  126.5180   61.8690 N   0  0  0  0  0  0  0  0  0  0  0  0
  1  2  1  0
  2  3  1  0
  3  4  1  0
  4  5  1  0
  5  6  2  0
  6  7  1  0
  7  8  2  0
  8  9  1  0
  9 10  2  0
  9 11  1  0
 11 12  1  0
 12 13  1  0
  2 14  2  0
 14 15  1  0
 15 16  1  0
 16 17  1  0
 16 18  2  0
 10  5  1  0
 13  8  1  0
M  CHG  1  18   1
M  END
>  <Binding energies>  (80) 
[-7.85]

>  <Ligand effiencies>  (80) 
[-0.34130434782608693]

>  <Interactions>  (80) 
["V-B:GLU:543:CD:9879, V-B:GLU:543:CG:9878, V-B:MET:535:CE:9806, V-B:ASP:366:CG:8184, V-B:LEU:363:CD1:8160, V-B:TYR:539:CD2:9845, V-B:PRO:540:CA:9854, V-B:TYR:539:CE2:9847, V-B:PRO:540:C:9852, V-B:ALA:541:CB:9863, V-B:PRO:540:N:9855, V-B:TYR:539:CE1:9846, H-B:TYR:539:N:9841, H-B:ALA:541:N:9862, V-B:TYR:539:CZ:9848, V-B:TYR:539:C:9838, V-B:PRO:540:CD:9858, V-B:ILE:538:CA:9831, V-B:TYR:539:CD1:9844, V-B:ILE:538:CG2:9834, V-B:ILE:538:CD1:9836, V-B:TYR:539:CG:9843, H-B:ASP:366:OD2:8186, V-B:ARG:545:CZ:9897, H-B:GLU:543:OE2:9881, H-B:ASP:366:OD1:8185"]

$$$$
RR30_Rahimova_2017
     RDKit          3D

 18 19  0  0  0  0  0  0  0  0999 V2000
  129.9800  120.6450   60.7800 C   0  0  0  0  0  0  0  0  0  0  0  0
  129.6220  122.0310   60.2250 C   0  0  0  0  0  0  0  0  0  0  0  0
  128.5980  122.7440   61.0810 C   0  0  0  0  0  0  0  0  0  0  0  0
  128.8080  123.5690   62.0770 N   0  0  0  0  0  0  0  0  0  0  0  0
  127.5470  123.9420   62.5360 N   0  0  0  0  0  0  0  0  0  0  0  0
  126.6850  123.3030   61.7850 C   0  0  0  0  0  0  0  0  0  0  0  0
  124.9250  123.3750   61.8700 S   0  0  0  0  0  0  0  0  0  0  0  0
  124.5980  124.5880   60.5520 C   0  0  0  0  0  0  0  0  0  0  0  0
  124.6220  123.9510   59.1600 C   0  0  0  0  0  0  0  0  0  0  0  0
  123.5580  123.6360   58.6230 O   0  0  0  0  0  0  0  0  0  0  0  0
  125.8470  123.7440   58.6260 N   0  0  0  0  0  0  0  0  0  0  0  0
  126.1220  123.1830   57.3880 C   0  0  0  0  0  0  0  0  0  0  0  0
  125.7410  122.0150   56.9210 N   0  0  0  0  0  0  0  0  0  0  0  0
  126.2070  121.7830   55.6330 N   0  0  0  0  0  0  0  0  0  0  0  0
  126.9260  122.7720   55.1540 C   0  0  0  0  0  0  0  0  0  0  0  0
  127.5450  122.7520   53.7750 C   0  0  0  0  0  0  0  0  0  0  0  0
  127.0880  124.0980   56.2720 S   0  0  0  0  0  0  0  0  0  0  0  0
  127.2800  122.5310   60.8410 O   0  0  0  0  0  0  0  0  0  0  0  0
  1  2  1  0
  2  3  1  0
  3  4  2  0
  4  5  1  0
  5  6  2  0
  6  7  1  0
  7  8  1  0
  8  9  1  0
  9 10  2  0
  9 11  1  0
 11 12  1  0
 12 13  2  0
 13 14  1  0
 14 15  2  0
 15 16  1  0
 15 17  1  0
  6 18  1  0
 18  3  1  0
 17 12  1  0
M  END
>  <Binding energies>  (81) 
[-6.62]

>  <Ligand effiencies>  (81) 
[-0.34842105263157896]

>  <Interactions>  (81) 
["V-B:MET:535:CE:9806, V-B:ASP:366:CG:8184, V-B:LEU:363:CA:8156, V-B:ASN:362:C:8143, V-B:TYR:539:CD2:9845, V-B:PRO:540:CA:9854, V-B:TYR:539:CE2:9847, V-B:PRO:540:C:9852, V-B:ALA:541:CB:9863, V-B:PRO:540:N:9855, V-B:TYR:539:CE1:9846, V-B:PRO:540:CB:9856, H-B:TYR:539:N:9841, H-B:ALA:541:N:9862, V-B:TYR:539:CD1:9844, V-B:ALA:541:CA:9861, H-B:LEU:363:N:8157, V-B:MET:535:CB:9803, V-B:VAL:537:C:9821, V-B:MET:535:CG:9804"]

$$$$
RR31_Rahimova_2017
     RDKit          3D

 18 19  0  0  0  0  0  0  0  0999 V2000
  134.0810  120.0190   61.5070 C   0  0  0  0  0  0  0  0  0  0  0  0
  132.7180  120.6830   61.3650 C   0  0  0  0  0  0  0  0  0  0  0  0
  131.6450  119.9390   60.8720 C   0  0  0  0  0  0  0  0  0  0  0  0
  130.3850  120.5160   60.7340 C   0  0  0  0  0  0  0  0  0  0  0  0
  130.1570  121.8550   61.0930 C   0  0  0  0  0  0  0  0  0  0  0  0
  128.9020  122.4510   60.9510 N   0  0  0  0  0  0  0  0  0  0  0  0
  127.9950  122.1100   59.8370 C   0  0  0  0  0  0  0  0  0  0  0  0
  126.8620  123.1380   59.6080 C   0  0  0  0  0  0  0  0  0  0  0  0
  126.0820  123.3370   60.8320 N   0  0  0  0  0  0  0  0  0  0  0  0
  124.9770  124.2810   60.6370 C   0  0  0  0  0  0  0  0  0  0  0  0
  124.0010  123.8450   59.5250 C   0  0  0  0  0  0  0  0  0  0  0  0
  124.1570  124.6880   58.2490 C   0  0  0  0  0  0  0  0  0  0  0  0
  125.0610  125.8940   58.5250 N   0  0  0  0  0  0  0  0  0  0  0  0
  126.9930  123.8510   61.8540 C   0  0  0  0  0  0  0  0  0  0  0  0
  128.1210  122.8340   62.1440 C   0  0  0  0  0  0  0  0  0  0  0  0
  131.2450  122.5940   61.5790 C   0  0  0  0  0  0  0  0  0  0  0  0
  132.5170  122.0260   61.7210 C   0  0  0  0  0  0  0  0  0  0  0  0
  133.6590  122.8840   62.2510 C   0  0  0  0  0  0  0  0  0  0  0  0
  1  2  1  0
  2  3  2  0
  3  4  1  0
  4  5  2  0
  5  6  1  0
  6  7  1  0
  7  8  1  0
  8  9  1  0
  9 10  1  0
 10 11  1  0
 11 12  1  0
 12 13  1  0
  9 14  1  0
 14 15  1  0
  5 16  1  0
 16 17  2  0
 17 18  1  0
 17  2  1  0
 15  6  1  0
M  CHG  1  13   1
M  END
>  <Binding energies>  (82) 
[-6.66]

>  <Ligand effiencies>  (82) 
[-0.31714285714285717]

>  <Interactions>  (82) 
["V-A:TRP:381:CZ2:3369, V-B:ASP:366:CG:8184, V-B:LEU:363:CA:8156, V-B:LEU:363:CD1:8160, V-B:ASN:362:C:8143, V-A:TRP:381:CH2:3371, V-B:TYR:539:CD2:9845, V-B:PRO:540:CA:9854, V-B:TYR:539:CE2:9847, V-B:PRO:540:C:9852, V-B:ALA:541:CB:9863, V-B:PRO:540:N:9855, V-A:LEU:475:CD2:4258, V-B:PRO:540:CB:9856, H-B:ALA:541:N:9862, V-A:ILE:369:CG2:3236, V-B:TYR:539:C:9838, H-B:TYR:531:OH:9766, V-B:ASP:366:CB:8183, V-A:GLY:454:CA:4048, V-A:ILE:369:CD1:3238, H-B:ASP:366:OD2:8186, V-B:ALA:541:CA:9861, V-B:TYR:531:CZ:9765, V-B:TYR:531:CE2:9764, V-A:SER:385:CA:3406, V-A:SER:385:C:3404, V-B:LEU:363:CB:8158"]

$$$$
RR32_Rahimova_2017
     RDKit          3D

 18 20  0  0  0  0  0  0  0  0999 V2000
  126.2900  123.3030   56.7270 C   0  0  0  0  0  0  0  0  0  0  0  0
  126.7200  123.1290   58.1800 C   0  0  0  0  0  0  0  0  0  0  0  0
  127.9830  122.5930   58.4350 C   0  0  0  0  0  0  0  0  0  0  0  0
  128.4100  122.4230   59.7490 C   0  0  0  0  0  0  0  0  0  0  0  0
  129.6630  121.8900   59.9980 N   0  0  0  0  0  0  0  0  0  0  0  0
  130.7290  122.8280   60.3930 C   0  0  0  0  0  0  0  0  0  0  0  0
  132.1260  122.1680   60.4710 C   0  0  0  0  0  0  0  0  0  0  0  0
  132.1070  121.0550   61.4200 N   0  0  0  0  0  0  0  0  0  0  0  0
  133.4320  120.4530   61.5180 C   0  0  0  0  0  0  0  0  0  0  0  0
  131.1370  120.0720   60.9440 C   0  0  0  0  0  0  0  0  0  0  0  0
  129.7260  120.7010   60.8690 C   0  0  0  0  0  0  0  0  0  0  0  0
  127.6420  122.7570   60.8180 N   0  0  0  0  0  0  0  0  0  0  0  0
  126.4040  123.2800   60.6020 C   0  0  0  0  0  0  0  0  0  0  0  0
  125.6240  123.6180   61.7340 C   0  0  0  0  0  0  0  0  0  0  0  0
  124.3530  124.1550   61.5740 C   0  0  0  0  0  0  0  0  0  0  0  0
  123.8320  124.3680   60.3030 C   0  0  0  0  0  0  0  0  0  0  0  0
  124.5730  124.0470   59.1690 C   0  0  0  0  0  0  0  0  0  0  0  0
  125.8810  123.4930   59.2850 C   0  0  0  0  0  0  0  0  0  0  0  0
  1  2  1  0
  2  3  2  0
  3  4  1  0
  4  5  1  0
  5  6  1  0
  6  7  1  0
  7  8  1  0
  8  9  1  0
  8 10  1  0
 10 11  1  0
  4 12  2  0
 12 13  1  0
 13 14  2  0
 14 15  1  0
 15 16  2  0
 16 17  1  0
 17 18  2  0
 18  2  1  0
 11  5  1  0
 18 13  1  0
M  END
>  <Binding energies>  (83) 
[-6.74]

>  <Ligand effiencies>  (83) 
[-0.37444444444444447]

>  <Interactions>  (83) 
["V-B:ASP:366:CG:8184, V-B:LEU:363:CA:8156, V-B:ASN:362:C:8143, V-A:TRP:381:CH2:3371, V-B:TYR:539:CD2:9845, V-B:PRO:540:CA:9854, V-B:TYR:539:CE2:9847, V-B:PRO:540:C:9852, V-B:ALA:541:CB:9863, V-B:PRO:540:N:9855, V-A:LEU:475:CD2:4258, V-B:PRO:540:CB:9856, H-B:ALA:541:N:9862, V-A:ILE:369:CG2:3236, V-B:TYR:539:CZ:9848, V-B:TYR:539:C:9838, V-B:ASN:362:CA:8145, V-B:ASN:362:CB:8147, V-B:TYR:539:CG:9843"]

$$$$
RR5_Rahimova_2017
     RDKit          3D

 45 50  0  0  0  0  0  0  0  0999 V2000
  130.1030  125.5780   57.0650 O   0  0  0  0  0  0  0  0  0  0  0  0
  129.7450  125.0650   58.1250 C   0  0  0  0  0  0  0  0  0  0  0  0
  130.8010  124.6630   59.1730 C   0  0  0  0  0  0  0  0  0  0  0  0
  132.0780  125.5760   59.1760 C   0  0  2  0  0  0  0  0  0  0  0  0
  131.8680  126.9440   58.6600 N   0  0  0  0  0  0  0  0  0  0  0  0
  131.0960  127.8700   59.3490 C   0  0  0  0  0  0  0  0  0  0  0  0
  130.5510  127.7060   60.4430 O   0  0  0  0  0  0  0  0  0  0  0  0
  131.0220  128.9920   58.6110 O   0  0  0  0  0  0  0  0  0  0  0  0
  132.1950  129.6640   58.1620 C   0  0  0  0  0  0  0  0  0  0  0  0
  132.0620  131.1900   58.3560 C   0  0  0  0  0  0  0  0  0  0  0  0
  131.2830  131.8790   57.2500 C   0  0  0  0  0  0  0  0  0  0  0  0
  131.5270  131.9070   55.8730 C   0  0  0  0  0  0  0  0  0  0  0  0
  130.6560  132.5930   55.0260 C   0  0  0  0  0  0  0  0  0  0  0  0
  129.5430  133.2520   55.5500 C   0  0  0  0  0  0  0  0  0  0  0  0
  129.2970  133.2280   56.9240 C   0  0  0  0  0  0  0  0  0  0  0  0
  130.1710  132.5420   57.7700 C   0  0  0  0  0  0  0  0  0  0  0  0
  130.1620  132.3610   59.2300 C   0  0  0  0  0  0  0  0  0  0  0  0
  129.2820  132.8290   60.2090 C   0  0  0  0  0  0  0  0  0  0  0  0
  129.5190  132.5270   61.5510 C   0  0  0  0  0  0  0  0  0  0  0  0
  130.6280  131.7590   61.9110 C   0  0  0  0  0  0  0  0  0  0  0  0
  131.5020  131.2900   60.9300 C   0  0  0  0  0  0  0  0  0  0  0  0
  131.2670  131.5880   59.5850 C   0  0  0  0  0  0  0  0  0  0  0  0
  133.2390  124.9010   58.4040 C   0  0  0  0  0  0  0  0  0  0  0  0
  133.2420  124.6870   57.2080 O   0  0  0  0  0  0  0  0  0  0  0  0
  134.2540  124.6050   59.2670 O   0  0  0  0  0  0  0  0  0  0  0  0
  128.4600  124.8440   58.4790 N   0  0  0  0  0  0  0  0  0  0  0  0
  127.1510  125.0750   57.7960 C   0  0  0  0  0  0  0  0  0  0  0  0
  127.2340  126.5970   57.4380 C   0  0  0  0  0  0  0  0  0  0  0  0
  127.2530  127.5850   58.4370 C   0  0  0  0  0  0  0  0  0  0  0  0
  127.3290  128.9350   58.1070 C   0  0  0  0  0  0  0  0  0  0  0  0
  127.3750  129.3220   56.7720 C   0  0  0  0  0  0  0  0  0  0  0  0
  127.3590  128.3660   55.7630 C   0  0  0  0  0  0  0  0  0  0  0  0
  127.2940  127.0160   56.0940 C   0  0  0  0  0  0  0  0  0  0  0  0
  127.1180  124.1590   56.5270 C   0  0  0  0  0  0  0  0  0  0  0  0
  128.0590  124.2960   55.4940 C   0  0  0  0  0  0  0  0  0  0  0  0
  127.9990  123.4830   54.3640 C   0  0  0  0  0  0  0  0  0  0  0  0
  126.9970  122.5250   54.2520 C   0  0  0  0  0  0  0  0  0  0  0  0
  126.0550  122.3690   55.2640 C   0  0  0  0  0  0  0  0  0  0  0  0
  126.1220  123.1750   56.3960 C   0  0  0  0  0  0  0  0  0  0  0  0
  126.0450  124.7590   58.8580 C   0  0  0  0  0  0  0  0  0  0  0  0
  124.6800  124.8610   58.5340 C   0  0  0  0  0  0  0  0  0  0  0  0
  123.6920  124.5890   59.4760 C   0  0  0  0  0  0  0  0  0  0  0  0
  124.0520  124.2020   60.7620 C   0  0  0  0  0  0  0  0  0  0  0  0
  125.3920  124.0790   61.1080 C   0  0  0  0  0  0  0  0  0  0  0  0
  126.3770  124.3520   60.1630 C   0  0  0  0  0  0  0  0  0  0  0  0
  1  2  2  0
  2  3  1  0
  4  3  1  6
  4  5  1  0
  5  6  1  0
  6  7  2  0
  6  8  1  0
  8  9  1  0
  9 10  1  0
 10 11  1  0
 11 12  2  0
 12 13  1  0
 13 14  2  0
 14 15  1  0
 15 16  2  0
 16 17  1  0
 17 18  2  0
 18 19  1  0
 19 20  2  0
 20 21  1  0
 21 22  2  0
  4 23  1  0
 23 24  2  0
 23 25  1  0
  2 26  1  0
 26 27  1  0
 27 28  1  0
 28 29  2  0
 29 30  1  0
 30 31  2  0
 31 32  1  0
 32 33  2  0
 27 34  1  0
 34 35  2  0
 35 36  1  0
 36 37  2  0
 37 38  1  0
 38 39  2  0
 27 40  1  0
 40 41  2  0
 41 42  1  0
 42 43  2  0
 43 44  1  0
 44 45  2  0
 22 10  1  0
 33 28  1  0
 39 34  1  0
 45 40  1  0
 16 11  1  0
 22 17  1  0
M  END
>  <Binding energies>  (84) 
[-11.41]

>  <Ligand effiencies>  (84) 
[-0.23770833333333333]

>  <Interactions>  (84) 
["V-B:MET:535:CE:9806, V-B:ASP:366:CG:8184, V-B:LEU:363:CA:8156, V-B:ASN:362:C:8143, V-B:TYR:539:CE2:9847, V-B:TYR:539:CE1:9846, V-B:PRO:540:CB:9856, V-A:ILE:369:CG2:3236, V-B:TYR:539:CZ:9848, V-A:ILE:369:CB:3235, V-A:ASP:366:CB:3211, V-A:TYR:539:CD2:4874, V-B:ILE:538:CA:9831, V-A:TYR:539:C:4867, V-A:TYR:539:CE2:4876, H-A:TYR:531:OH:4795, V-A:TYR:539:CG:4872, V-A:PRO:540:N:4884, V-A:MET:535:CE:4835, H-B:TYR:539:OH:9849, V-B:TYR:539:CD1:9844, V-A:TYR:531:CZ:4794, V-B:ASP:366:CB:8183, V-A:ASP:366:CA:3209, V-B:ASN:362:CA:8145, V-B:ASN:362:CB:8147, V-A:LEU:363:CD1:3188, V-A:TYR:531:CE2:4793, V-A:ASP:366:CG:3212, V-A:ASP:366:C:3207, V-A:PRO:540:CA:4883, V-B:ILE:538:CD1:9836, H-A:ASP:366:OD1:3213, V-B:TYR:531:CZ:9765, V-A:ALA:541:CB:4892, V-A:TYR:539:CZ:4877, V-A:ILE:538:CB:4862, V-A:ILE:538:CA:4860, V-A:ILE:538:CG2:4863, V-A:TYR:539:CE1:4875, V-A:TYR:539:CD1:4873, H-A:ASP:366:O:3208, V-A:TYR:539:CA:4869, V-A:ILE:538:C:4858, V-B:MET:535:CB:9803, V-B:MET:535:CG:9804, H-A:ASN:370:N:3243, H-A:CYS:365:O:3205"]

$$$$
