1a_Ghoteimi_2023
     RDKit          3D

 40 43  0  0  0  0  0  0  0  0999 V2000
  125.0420  122.0290   55.3200 C   0  0  0  0  0  0  0  0  0  0  0  0
  125.1020  123.3510   56.0920 C   0  0  0  0  0  0  0  0  0  0  0  0
  125.4640  123.0910   57.4430 O   0  0  0  0  0  0  0  0  0  0  0  0
  126.7040  122.6410   57.7630 C   0  0  0  0  0  0  0  0  0  0  0  0
  127.4260  122.0190   56.9770 O   0  0  0  0  0  0  0  0  0  0  0  0
  127.1130  122.9790   59.1680 C   0  0  0  0  0  0  0  0  0  0  0  0
  126.3800  123.8760   59.9590 C   0  0  0  0  0  0  0  0  0  0  0  0
  126.7860  124.1730   61.2570 C   0  0  0  0  0  0  0  0  0  0  0  0
  127.9360  123.5710   61.7910 C   0  0  0  0  0  0  0  0  0  0  0  0
  128.4390  123.8010   63.0860 N   0  0  0  0  0  0  0  0  0  0  0  0
  129.7040  123.7140   63.5510 C   0  0  0  0  0  0  0  0  0  0  0  0
  130.6940  123.4170   62.8820 O   0  0  0  0  0  0  0  0  0  0  0  0
  129.8810  124.0260   65.0370 C   0  0  0  0  0  0  0  0  0  0  0  0
  130.7560  125.5970   65.2950 S   0  0  0  0  0  0  0  0  0  0  0  0
  129.6320  126.6500   66.1840 C   0  0  0  0  0  0  0  0  0  0  0  0
  129.5840  126.4030   67.5140 N   0  0  0  0  0  0  0  0  0  0  0  0
  128.7660  127.1430   68.3090 C   0  0  0  0  0  0  0  0  0  0  0  0
  128.7850  126.8230   69.7760 C   0  0  0  0  0  0  0  0  0  0  0  0
  128.0580  125.7390   70.2960 C   0  0  0  0  0  0  0  0  0  0  0  0
  128.0780  125.4440   71.6560 C   0  0  0  0  0  0  0  0  0  0  0  0
  128.8210  126.2230   72.5390 C   0  0  0  0  0  0  0  0  0  0  0  0
  128.7850  125.8560   73.8710 O   0  0  0  0  0  0  0  0  0  0  0  0
  129.8600  125.0960   74.4110 C   0  0  0  0  0  0  0  0  0  0  0  0
  129.5490  127.3110   72.0370 C   0  0  0  0  0  0  0  0  0  0  0  0
  129.5270  127.6030   70.6770 C   0  0  0  0  0  0  0  0  0  0  0  0
  127.9710  128.1580   67.7640 C   0  0  0  0  0  0  0  0  0  0  0  0
  127.9850  128.4150   66.3860 C   0  0  0  0  0  0  0  0  0  0  0  0
  127.0860  129.4920   65.8710 C   0  0  0  0  0  0  0  0  0  0  0  0
  127.6090  130.7150   65.4380 C   0  0  0  0  0  0  0  0  0  0  0  0
  126.7660  131.7080   64.9450 C   0  0  0  0  0  0  0  0  0  0  0  0
  125.3890  131.4970   64.8680 C   0  0  0  0  0  0  0  0  0  0  0  0
  124.6340  132.5370   64.3650 O   0  0  0  0  0  0  0  0  0  0  0  0
  124.1770  132.4760   63.0180 C   0  0  0  0  0  0  0  0  0  0  0  0
  124.8630  130.2670   65.2940 C   0  0  0  0  0  0  0  0  0  0  0  0
  125.7080  129.2760   65.7880 C   0  0  0  0  0  0  0  0  0  0  0  0
  128.8430  127.6440   65.5660 C   0  0  0  0  0  0  0  0  0  0  0  0
  128.9120  127.8760   64.1200 C   0  0  0  0  0  0  0  0  0  0  0  0
  128.9670  128.0610   62.9780 N   0  0  0  0  0  0  0  0  0  0  0  0
  128.6690  122.6820   61.0060 C   0  0  0  0  0  0  0  0  0  0  0  0
  128.2620  122.3860   59.7070 C   0  0  0  0  0  0  0  0  0  0  0  0
  1  2  1  0
  2  3  1  0
  3  4  1  0
  4  5  2  0
  4  6  1  0
  6  7  2  0
  7  8  1  0
  8  9  2  0
  9 10  1  0
 10 11  1  0
 11 12  2  0
 11 13  1  0
 13 14  1  0
 14 15  1  0
 15 16  2  0
 16 17  1  0
 17 18  1  0
 18 19  2  0
 19 20  1  0
 20 21  2  0
 21 22  1  0
 22 23  1  0
 21 24  1  0
 24 25  2  0
 17 26  2  0
 26 27  1  0
 27 28  1  0
 28 29  2  0
 29 30  1  0
 30 31  2  0
 31 32  1  0
 32 33  1  0
 31 34  1  0
 34 35  2  0
 27 36  2  0
 36 37  1  0
 37 38  3  0
  9 39  1  0
 39 40  2  0
 40  6  1  0
 36 15  1  0
 25 18  1  0
 35 28  1  0
M  END
>  <Binding energies>  (1) 
[-10.05]

>  <Ligand effiencies>  (1) 
[-0.24512195121951222]

>  <Interactions>  (1) 
["V-A:HIS:456:CE1:4069, V-A:GLU:543:CG:4907, V-A:HIS:456:CD2:4067, V-B:GLU:543:CD:9879, V-A:GLU:543:CD:4908, V-B:HIS:456:CE1:9041, V-B:LYS:547:CE:9921, H-B:LYS:547:NZ:9922, V-B:GLU:543:C:9873, V-B:GLU:543:CB:9877, V-B:GLU:543:CG:9878, V-B:MET:535:CE:9806, V-B:LEU:363:CD1:8160, V-B:TYR:539:CD2:9845, V-B:PRO:540:CA:9854, V-B:TYR:539:CE2:9847, V-B:ALA:541:CB:9863, V-B:PRO:540:N:9855, V-B:PRO:540:CB:9856, H-B:TYR:539:N:9841, V-B:TYR:539:C:9838, V-B:PRO:540:CD:9858, V-B:ILE:538:CA:9831, V-B:ILE:538:CG2:9834, V-B:ILE:538:CD1:9836, H-B:GLY:454:N:9021, V-B:GLY:454:CA:9020, V-B:ARG:545:CZ:9897, H-B:GLU:543:OE2:9881, V-B:LEU:475:CD1:9229, V-B:ILE:538:CB:9833, V-B:ILE:538:C:9829, V-B:ILE:369:CD1:8210, V-B:GLY:544:C:9883"]

$$$$
1b_Ghoteimi_2023
     RDKit          3D

 34 37  0  0  0  0  0  0  0  0999 V2000
  129.9450  125.2790   74.5610 C   0  0  0  0  0  0  0  0  0  0  0  0
  128.8810  126.0600   74.0310 O   0  0  0  0  0  0  0  0  0  0  0  0
  128.8070  126.2600   72.6660 C   0  0  0  0  0  0  0  0  0  0  0  0
  129.5020  127.3540   72.1550 C   0  0  0  0  0  0  0  0  0  0  0  0
  129.4840  127.6340   70.7920 C   0  0  0  0  0  0  0  0  0  0  0  0
  128.7720  126.8240   69.8950 C   0  0  0  0  0  0  0  0  0  0  0  0
  128.7530  127.1310   68.4240 C   0  0  0  0  0  0  0  0  0  0  0  0
  127.9380  128.1200   67.8630 C   0  0  0  0  0  0  0  0  0  0  0  0
  127.9610  128.3700   66.4850 C   0  0  0  0  0  0  0  0  0  0  0  0
  127.0620  129.4380   65.9550 C   0  0  0  0  0  0  0  0  0  0  0  0
  127.5760  130.6950   65.6270 C   0  0  0  0  0  0  0  0  0  0  0  0
  126.7400  131.6960   65.1410 C   0  0  0  0  0  0  0  0  0  0  0  0
  125.3750  131.4620   64.9780 C   0  0  0  0  0  0  0  0  0  0  0  0
  124.6220  132.5140   64.4900 O   0  0  0  0  0  0  0  0  0  0  0  0
  124.1990  132.4930   63.1310 C   0  0  0  0  0  0  0  0  0  0  0  0
  124.8520  130.2050   65.3140 C   0  0  0  0  0  0  0  0  0  0  0  0
  125.6910  129.2060   65.8000 C   0  0  0  0  0  0  0  0  0  0  0  0
  128.8370  127.6050   65.6760 C   0  0  0  0  0  0  0  0  0  0  0  0
  128.9690  127.8910   64.2440 C   0  0  0  0  0  0  0  0  0  0  0  0
  129.0720  128.1190   63.1140 N   0  0  0  0  0  0  0  0  0  0  0  0
  129.6170  126.6070   66.3030 C   0  0  0  0  0  0  0  0  0  0  0  0
  130.7630  125.5470   65.4450 S   0  0  0  0  0  0  0  0  0  0  0  0
  130.1590  123.8320   65.5920 C   0  0  0  0  0  0  0  0  0  0  0  0
  129.7030  123.1880   64.2750 C   0  0  0  0  0  0  0  0  0  0  0  0
  130.2550  122.1730   63.8460 O   0  0  0  0  0  0  0  0  0  0  0  0
  128.6800  123.8250   63.6610 N   0  0  0  0  0  0  0  0  0  0  0  0
  128.0650  123.4710   62.4660 C   0  0  0  0  0  0  0  0  0  0  0  0
  128.7460  123.4000   61.2520 C   0  0  0  0  0  0  0  0  0  0  0  0
  127.7950  123.0220   60.3310 C   0  0  0  0  0  0  0  0  0  0  0  0
  126.6050  122.8710   60.9590 O   0  0  0  0  0  0  0  0  0  0  0  0
  126.7890  123.1580   62.3120 N   0  0  0  0  0  0  0  0  0  0  0  0
  129.5850  126.3970   67.6410 N   0  0  0  0  0  0  0  0  0  0  0  0
  128.0730  125.7250   70.4210 C   0  0  0  0  0  0  0  0  0  0  0  0
  128.0880  125.4430   71.7830 C   0  0  0  0  0  0  0  0  0  0  0  0
  1  2  1  0
  2  3  1  0
  3  4  2  0
  4  5  1  0
  5  6  2  0
  6  7  1  0
  7  8  2  0
  8  9  1  0
  9 10  1  0
 10 11  2  0
 11 12  1  0
 12 13  2  0
 13 14  1  0
 14 15  1  0
 13 16  1  0
 16 17  2  0
  9 18  2  0
 18 19  1  0
 19 20  3  0
 18 21  1  0
 21 22  1  0
 22 23  1  0
 23 24  1  0
 24 25  2  0
 24 26  1  0
 26 27  1  0
 27 28  1  0
 28 29  2  0
 29 30  1  0
 30 31  1  0
 21 32  2  0
  6 33  1  0
 33 34  2  0
 34  3  1  0
 32  7  1  0
 17 10  1  0
 31 27  2  0
M  END
>  <Binding energies>  (2) 
[-9.19]

>  <Ligand effiencies>  (2) 
[-0.26257142857142857]

>  <Interactions>  (2) 
["V-A:HIS:456:CE1:4069, V-A:GLU:543:CG:4907, V-A:HIS:456:CD2:4067, V-B:GLU:543:CD:9879, V-A:GLU:543:CD:4908, V-B:HIS:456:CE1:9041, H-B:LYS:547:NZ:9922, V-B:GLU:543:C:9873, V-B:GLU:543:CB:9877, V-B:GLU:543:CG:9878, V-B:PRO:540:CA:9854, V-B:ALA:541:CB:9863, H-B:ALA:541:N:9862, V-A:TYR:484:CE1:4344, V-A:TYR:484:CZ:4346, H-B:GLY:454:N:9021, V-B:GLY:454:CA:9020, V-B:ARG:545:CZ:9897, H-B:GLU:543:OE1:9880, H-B:GLU:543:OE2:9881, V-B:LEU:475:CD1:9229, V-B:ILE:369:CD1:8210, V-B:GLY:544:C:9883"]

$$$$
1c_Ghoteimi_2023
     RDKit          3D

 34 37  0  0  0  0  0  0  0  0999 V2000
  133.3360  122.3380   62.5370 C   0  0  0  0  0  0  0  0  0  0  0  0
  132.7870  122.0670   63.8220 O   0  0  0  0  0  0  0  0  0  0  0  0
  132.1340  123.0760   64.5040 C   0  0  0  0  0  0  0  0  0  0  0  0
  132.8780  124.2160   64.7940 C   0  0  0  0  0  0  0  0  0  0  0  0
  132.3020  125.2810   65.4820 C   0  0  0  0  0  0  0  0  0  0  0  0
  130.9630  125.2360   65.9000 C   0  0  0  0  0  0  0  0  0  0  0  0
  130.3390  126.3800   66.6460 C   0  0  0  0  0  0  0  0  0  0  0  0
  129.2100  127.0610   66.1790 C   0  0  0  0  0  0  0  0  0  0  0  0
  128.6470  128.1050   66.9230 C   0  0  0  0  0  0  0  0  0  0  0  0
  127.4030  128.7420   66.3970 C   0  0  0  0  0  0  0  0  0  0  0  0
  127.3260  129.1590   65.0650 C   0  0  0  0  0  0  0  0  0  0  0  0
  126.1740  129.7720   64.5820 C   0  0  0  0  0  0  0  0  0  0  0  0
  125.0810  129.9850   65.4220 C   0  0  0  0  0  0  0  0  0  0  0  0
  123.9800  130.6010   64.8570 O   0  0  0  0  0  0  0  0  0  0  0  0
  123.8860  130.6910   63.4390 C   0  0  0  0  0  0  0  0  0  0  0  0
  125.1570  129.5750   66.7620 C   0  0  0  0  0  0  0  0  0  0  0  0
  126.3110  128.9620   67.2420 C   0  0  0  0  0  0  0  0  0  0  0  0
  129.2650  128.4730   68.1410 C   0  0  0  0  0  0  0  0  0  0  0  0
  128.7440  129.5800   68.9500 C   0  0  0  0  0  0  0  0  0  0  0  0
  128.3310  130.4540   69.5880 N   0  0  0  0  0  0  0  0  0  0  0  0
  130.3900  127.7330   68.5610 C   0  0  0  0  0  0  0  0  0  0  0  0
  131.1620  127.9740   70.1470 S   0  0  0  0  0  0  0  0  0  0  0  0
  129.8810  127.5230   71.3620 C   0  0  0  0  0  0  0  0  0  0  0  0
  129.7890  128.5370   72.5080 C   0  0  0  0  0  0  0  0  0  0  0  0
  130.2520  128.2490   73.6130 O   0  0  0  0  0  0  0  0  0  0  0  0
  129.2240  129.7210   72.1860 N   0  0  0  0  0  0  0  0  0  0  0  0
  129.1590  130.8520   72.9840 C   0  0  0  0  0  0  0  0  0  0  0  0
  130.0840  131.3260   73.7900 N   0  0  0  0  0  0  0  0  0  0  0  0
  129.6960  132.4480   74.3650 C   0  0  0  0  0  0  0  0  0  0  0  0
  128.4280  132.9080   74.0230 C   0  0  0  0  0  0  0  0  0  0  0  0
  127.7120  131.8020   72.8880 S   0  0  0  0  0  0  0  0  0  0  0  0
  130.9040  126.7110   67.8360 N   0  0  0  0  0  0  0  0  0  0  0  0
  130.2220  124.0850   65.5970 C   0  0  0  0  0  0  0  0  0  0  0  0
  130.7940  123.0170   64.9110 C   0  0  0  0  0  0  0  0  0  0  0  0
  1  2  1  0
  2  3  1  0
  3  4  2  0
  4  5  1  0
  5  6  2  0
  6  7  1  0
  7  8  2  0
  8  9  1  0
  9 10  1  0
 10 11  2  0
 11 12  1  0
 12 13  2  0
 13 14  1  0
 14 15  1  0
 13 16  1  0
 16 17  2  0
  9 18  2  0
 18 19  1  0
 19 20  3  0
 18 21  1  0
 21 22  1  0
 22 23  1  0
 23 24  1  0
 24 25  2  0
 24 26  1  0
 26 27  1  0
 27 28  2  0
 28 29  1  0
 29 30  2  0
 30 31  1  0
 21 32  2  0
  6 33  1  0
 33 34  2  0
 34  3  1  0
 32  7  1  0
 17 10  1  0
 31 27  1  0
M  END
>  <Binding energies>  (3) 
[-8.38]

>  <Ligand effiencies>  (3) 
[-0.23942857142857146]

>  <Interactions>  (3) 
["V-A:HIS:456:CE1:4069, V-A:GLU:543:CB:4906, V-A:GLU:543:CG:4907, V-B:GLU:543:CD:9879, V-A:GLU:543:CD:4908, V-B:HIS:456:CE1:9041, H-A:LYS:547:NZ:4951, V-B:HIS:456:CD2:9039, V-B:HIS:456:CG:9037, V-B:GLU:543:CG:9878, V-A:LEU:475:CD2:4258, V-A:ILE:369:CG2:3236, H-A:GLY:454:N:4049, H-A:TYR:484:OH:4347, V-A:TYR:484:CE1:4344, V-A:TYR:484:CZ:4346, V-A:GLY:454:CA:4048, V-A:ILE:369:CD1:3238, V-B:TYR:484:CE1:9316, H-B:TYR:484:OH:9319, H-A:GLU:543:O:4903, V-A:GLU:543:CA:4904, H-B:GLY:454:N:9021, V-B:GLY:454:CA:9020, V-B:ARG:545:CZ:9897, H-A:HIS:456:ND1:4066, H-B:HIS:456:NE2:9042, H-B:HIS:456:ND1:9038, V-B:TYR:484:CD1:9314, V-B:HIS:456:CB:9036, V-B:TYR:484:CG:9313, V-B:TYR:484:CB:9312"]

$$$$
1d_Ghoteimi_2023
     RDKit          3D

 30 32  0  0  0  0  0  0  0  0999 V2000
  133.7450  125.3370   63.6430 C   0  0  0  0  0  0  0  0  0  0  0  0
  133.5660  124.6310   64.8610 O   0  0  0  0  0  0  0  0  0  0  0  0
  133.9480  125.1790   66.0330 C   0  0  0  0  0  0  0  0  0  0  0  0
  135.0250  125.0020   66.6040 O   0  0  0  0  0  0  0  0  0  0  0  0
  132.8720  126.0830   66.6280 C   0  0  0  0  0  0  0  0  0  0  0  0
  131.3010  125.6750   65.8110 S   0  0  0  0  0  0  0  0  0  0  0  0
  130.0310  126.6240   66.6180 C   0  0  0  0  0  0  0  0  0  0  0  0
  129.9830  126.4410   67.9600 N   0  0  0  0  0  0  0  0  0  0  0  0
  129.0570  127.1030   68.7010 C   0  0  0  0  0  0  0  0  0  0  0  0
  129.0750  126.8490   70.1800 C   0  0  0  0  0  0  0  0  0  0  0  0
  128.4350  125.7290   70.7350 C   0  0  0  0  0  0  0  0  0  0  0  0
  128.4470  125.4990   72.1070 C   0  0  0  0  0  0  0  0  0  0  0  0
  129.0970  126.3790   72.9690 C   0  0  0  0  0  0  0  0  0  0  0  0
  129.0540  126.0730   74.3150 O   0  0  0  0  0  0  0  0  0  0  0  0
  129.9380  125.0830   74.8290 C   0  0  0  0  0  0  0  0  0  0  0  0
  129.7400  127.5020   72.4300 C   0  0  0  0  0  0  0  0  0  0  0  0
  129.7270  127.7290   71.0570 C   0  0  0  0  0  0  0  0  0  0  0  0
  128.1550  127.9840   68.0930 C   0  0  0  0  0  0  0  0  0  0  0  0
  128.1720  128.1800   66.7070 C   0  0  0  0  0  0  0  0  0  0  0  0
  127.1760  129.1300   66.1230 C   0  0  0  0  0  0  0  0  0  0  0  0
  127.5550  130.0110   65.1070 C   0  0  0  0  0  0  0  0  0  0  0  0
  126.6320  130.8980   64.5590 C   0  0  0  0  0  0  0  0  0  0  0  0
  125.3130  130.9180   65.0100 C   0  0  0  0  0  0  0  0  0  0  0  0
  124.4690  131.8350   64.4140 O   0  0  0  0  0  0  0  0  0  0  0  0
  123.9430  131.5570   63.1210 C   0  0  0  0  0  0  0  0  0  0  0  0
  124.9240  130.0260   66.0220 C   0  0  0  0  0  0  0  0  0  0  0  0
  125.8490  129.1400   66.5680 C   0  0  0  0  0  0  0  0  0  0  0  0
  129.1230  127.4660   65.9360 C   0  0  0  0  0  0  0  0  0  0  0  0
  129.1190  127.5540   64.4730 C   0  0  0  0  0  0  0  0  0  0  0  0
  129.1140  127.6240   63.3180 N   0  0  0  0  0  0  0  0  0  0  0  0
  1  2  1  0
  2  3  1  0
  3  4  2  0
  3  5  1  0
  5  6  1  0
  6  7  1  0
  7  8  2  0
  8  9  1  0
  9 10  1  0
 10 11  2  0
 11 12  1  0
 12 13  2  0
 13 14  1  0
 14 15  1  0
 13 16  1  0
 16 17  2  0
  9 18  2  0
 18 19  1  0
 19 20  1  0
 20 21  2  0
 21 22  1  0
 22 23  2  0
 23 24  1  0
 24 25  1  0
 23 26  1  0
 26 27  2  0
 19 28  2  0
 28 29  1  0
 29 30  3  0
 28  7  1  0
 17 10  1  0
 27 20  1  0
M  END
>  <Binding energies>  (4) 
[-8.39]

>  <Ligand effiencies>  (4) 
[-0.2796666666666667]

>  <Interactions>  (4) 
["V-A:HIS:456:CE1:4069, V-A:GLU:543:CG:4907, V-B:GLU:543:CD:9879, V-A:GLU:543:CD:4908, V-B:HIS:456:CE1:9041, V-B:LYS:547:CE:9921, H-B:LYS:547:NZ:9922, V-B:GLU:543:C:9873, V-A:ARG:545:CZ:4926, H-A:GLY:454:N:4049, H-A:TYR:484:OH:4347, V-A:GLY:454:CA:4048, V-A:ARG:545:CD:4923, V-A:ARG:545:CG:4922, H-B:GLY:454:N:9021, V-B:GLY:454:CA:9020, H-A:ILE:455:N:4054, V-B:ILE:369:CD1:8210"]

$$$$
1j_Grossjean_2025
     RDKit          3D

 20 21  0  0  0  0  0  0  0  0999 V2000
  127.1520  127.9560   58.3920 C   0  0  0  0  0  0  0  0  0  0  0  0
  126.8760  126.5970   57.7760 C   0  0  0  0  0  0  0  0  0  0  0  0
  127.7190  126.0490   56.8120 C   0  0  0  0  0  0  0  0  0  0  0  0
  127.4230  124.7860   56.2900 C   0  0  0  0  0  0  0  0  0  0  0  0
  128.3720  124.1980   55.2460 C   0  0  0  0  0  0  0  0  0  0  0  0
  126.2730  124.1020   56.7450 C   0  0  0  0  0  0  0  0  0  0  0  0
  125.9730  122.7560   56.2510 C   0  0  0  0  0  0  0  0  0  0  0  0
  125.7390  121.6920   55.8590 N   0  0  0  0  0  0  0  0  0  0  0  0
  125.4600  124.7460   57.7080 C   0  0  0  0  0  0  0  0  0  0  0  0
  123.9780  124.0340   58.3890 S   0  0  0  0  0  0  0  0  0  0  0  0
  124.0340  124.2600   60.1910 C   0  0  0  0  0  0  0  0  0  0  0  0
  125.1950  123.4960   60.8300 C   0  0  0  0  0  0  0  0  0  0  0  0
  124.9790  122.7700   61.8020 O   0  0  0  0  0  0  0  0  0  0  0  0
  126.4030  123.6840   60.2550 N   0  0  0  0  0  0  0  0  0  0  0  0
  127.6050  123.1140   60.6490 C   0  0  0  0  0  0  0  0  0  0  0  0
  127.9780  122.7750   61.8640 N   0  0  0  0  0  0  0  0  0  0  0  0
  129.1900  122.2570   61.8710 C   0  0  0  0  0  0  0  0  0  0  0  0
  129.8280  122.1650   60.6380 C   0  0  0  0  0  0  0  0  0  0  0  0
  128.7730  122.7930   59.4080 S   0  0  0  0  0  0  0  0  0  0  0  0
  125.7680  125.9620   58.2240 N   0  0  0  0  0  0  0  0  0  0  0  0
  1  2  1  0
  2  3  2  0
  3  4  1  0
  4  5  1  0
  4  6  2  0
  6  7  1  0
  7  8  3  0
  6  9  1  0
  9 10  1  0
 10 11  1  0
 11 12  1  0
 12 13  2  0
 12 14  1  0
 14 15  1  0
 15 16  2  0
 16 17  1  0
 17 18  2  0
 18 19  1  0
  9 20  2  0
 20  2  1  0
 19 15  1  0
M  END
>  <Binding energies>  (5) 
[-6.66]

>  <Ligand effiencies>  (5) 
[-0.31714285714285717]

>  <Interactions>  (5) 
["V-B:MET:535:CE:9806, V-B:ASP:366:CG:8184, V-B:LEU:363:CA:8156, V-B:ASN:362:C:8143, V-B:TYR:539:CD2:9845, V-B:PRO:540:CA:9854, V-B:TYR:539:CE2:9847, V-B:PRO:540:C:9852, V-B:ALA:541:CB:9863, V-B:PRO:540:N:9855, V-B:TYR:539:CE1:9846, V-B:PRO:540:CB:9856, H-B:TYR:539:N:9841, H-B:ALA:541:N:9862, V-B:TYR:539:CZ:9848, H-B:TYR:531:OH:9766, V-B:ASN:362:CB:8147"]

$$$$
1o_Grossjean_2025
     RDKit          3D

 26 27  0  0  0  0  0  0  0  0999 V2000
  132.9010  125.6490   65.9860 C   0  0  0  0  0  0  0  0  0  0  0  0
  133.6320  124.7470   65.1690 O   0  0  0  0  0  0  0  0  0  0  0  0
  133.3580  124.6230   63.8450 C   0  0  0  0  0  0  0  0  0  0  0  0
  134.2260  124.6430   62.9660 O   0  0  0  0  0  0  0  0  0  0  0  0
  131.8950  124.4550   63.5540 C   0  0  0  0  0  0  0  0  0  0  0  0
  131.0580  125.5520   63.2980 C   0  0  0  0  0  0  0  0  0  0  0  0
  129.7050  125.3610   63.0300 C   0  0  0  0  0  0  0  0  0  0  0  0
  129.1600  124.0770   63.0170 C   0  0  0  0  0  0  0  0  0  0  0  0
  127.7840  123.9990   62.7250 N   0  0  0  0  0  0  0  0  0  0  0  0
  127.1450  123.3390   61.7340 C   0  0  0  0  0  0  0  0  0  0  0  0
  127.6880  122.6170   60.8980 O   0  0  0  0  0  0  0  0  0  0  0  0
  125.6190  123.5060   61.7060 C   0  0  0  0  0  0  0  0  0  0  0  0
  125.1430  124.6100   60.7410 C   0  0  0  0  0  0  0  0  0  0  0  0
  124.8640  124.0340   59.0400 S   0  0  0  0  0  0  0  0  0  0  0  0
  126.0820  124.7890   57.9820 C   0  0  0  0  0  0  0  0  0  0  0  0
  126.3360  126.0860   58.2900 N   0  0  0  0  0  0  0  0  0  0  0  0
  127.2520  126.7620   57.5580 C   0  0  0  0  0  0  0  0  0  0  0  0
  127.4930  128.2030   57.9710 C   0  0  0  0  0  0  0  0  0  0  0  0
  127.9370  126.1840   56.4920 C   0  0  0  0  0  0  0  0  0  0  0  0
  127.6650  124.8560   56.1490 C   0  0  0  0  0  0  0  0  0  0  0  0
  128.4190  124.2490   54.9660 C   0  0  0  0  0  0  0  0  0  0  0  0
  126.7090  124.1310   56.8960 C   0  0  0  0  0  0  0  0  0  0  0  0
  126.3680  122.7580   56.5150 C   0  0  0  0  0  0  0  0  0  0  0  0
  126.1010  121.6730   56.2120 N   0  0  0  0  0  0  0  0  0  0  0  0
  129.9920  122.9750   63.2670 C   0  0  0  0  0  0  0  0  0  0  0  0
  131.3440  123.1670   63.5340 C   0  0  0  0  0  0  0  0  0  0  0  0
  1  2  1  0
  2  3  1  0
  3  4  2  0
  3  5  1  0
  5  6  2  0
  6  7  1  0
  7  8  2  0
  8  9  1  0
  9 10  1  0
 10 11  2  0
 10 12  1  0
 12 13  1  0
 13 14  1  0
 14 15  1  0
 15 16  2  0
 16 17  1  0
 17 18  1  0
 17 19  2  0
 19 20  1  0
 20 21  1  0
 20 22  2  0
 22 23  1  0
 23 24  3  0
  8 25  1  0
 25 26  2  0
 26  5  1  0
 22 15  1  0
M  END
>  <Binding energies>  (6) 
[-7.95]

>  <Ligand effiencies>  (6) 
[-0.29444444444444445]

>  <Interactions>  (6) 
["V-A:HIS:456:CE1:4069, V-B:GLU:543:CD:9879, V-B:GLU:543:CG:9878, V-B:ASP:366:CG:8184, V-B:PRO:540:CA:9854, V-B:ALA:541:CB:9863, V-B:PRO:540:N:9855, V-B:TYR:539:CE1:9846, V-B:PRO:540:CB:9856, H-B:TYR:539:N:9841, H-B:ALA:541:N:9862, V-B:TYR:539:CZ:9848, V-A:ARG:545:CZ:4926, H-B:TYR:531:OH:9766, H-A:GLY:454:N:4049, H-A:TYR:484:OH:4347, V-A:GLY:454:CA:4048, V-A:ARG:545:CD:4923, H-B:GLU:543:OE2:9881"]

$$$$
1p_Grossjean_2025
     RDKit          3D

 21 22  0  0  0  0  0  0  0  0999 V2000
  125.0230  123.8600   62.7000 C   0  0  0  0  0  0  0  0  0  0  0  0
  125.4820  123.6480   61.2700 C   0  0  0  0  0  0  0  0  0  0  0  0
  124.7000  124.0470   60.1870 C   0  0  0  0  0  0  0  0  0  0  0  0
  125.1660  123.8140   58.8890 C   0  0  0  0  0  0  0  0  0  0  0  0
  124.2860  124.2460   57.7180 C   0  0  0  0  0  0  0  0  0  0  0  0
  126.4210  123.1900   58.7070 C   0  0  0  0  0  0  0  0  0  0  0  0
  126.9100  122.8920   57.3600 C   0  0  0  0  0  0  0  0  0  0  0  0
  127.2950  122.6580   56.2940 N   0  0  0  0  0  0  0  0  0  0  0  0
  127.1580  122.8400   59.8640 C   0  0  0  0  0  0  0  0  0  0  0  0
  128.7540  122.0580   59.8150 S   0  0  0  0  0  0  0  0  0  0  0  0
  129.8570  123.0460   60.8680 C   0  0  0  0  0  0  0  0  0  0  0  0
  130.1020  122.4310   62.2590 C   0  0  0  0  0  0  0  0  0  0  0  0
  131.4120  122.8960   62.9130 C   0  0  0  0  0  0  0  0  0  0  0  0
  132.4600  122.2970   62.6650 O   0  0  0  0  0  0  0  0  0  0  0  0
  131.3110  123.9720   63.7250 N   0  0  0  0  0  0  0  0  0  0  0  0
  132.3330  124.5900   64.4330 C   0  0  0  0  0  0  0  0  0  0  0  0
  132.1240  125.2850   65.6240 C   0  0  0  0  0  0  0  0  0  0  0  0
  133.3680  125.7380   65.9990 C   0  0  0  0  0  0  0  0  0  0  0  0
  134.2790  125.3380   65.0810 O   0  0  0  0  0  0  0  0  0  0  0  0
  133.6110  124.6130   64.0920 N   0  0  0  0  0  0  0  0  0  0  0  0
  126.6870  123.0500   61.1190 N   0  0  0  0  0  0  0  0  0  0  0  0
  1  2  1  0
  2  3  2  0
  3  4  1  0
  4  5  1  0
  4  6  2  0
  6  7  1  0
  7  8  3  0
  6  9  1  0
  9 10  1  0
 10 11  1  0
 11 12  1  0
 12 13  1  0
 13 14  2  0
 13 15  1  0
 15 16  1  0
 16 17  1  0
 17 18  2  0
 18 19  1  0
 19 20  1  0
  9 21  2  0
 21  2  1  0
 20 16  2  0
M  END
>  <Binding energies>  (7) 
[-7.53]

>  <Ligand effiencies>  (7) 
[-0.3422727272727273]

>  <Interactions>  (7) 
["V-B:GLU:543:CD:9879, V-B:GLU:543:CG:9878, V-B:LEU:363:CA:8156, V-B:LEU:363:CD1:8160, V-B:PRO:540:CA:9854, V-B:PRO:540:C:9852, V-B:ALA:541:CB:9863, V-B:PRO:540:N:9855, V-B:PRO:540:CB:9856, H-B:ALA:541:N:9862, V-B:TYR:539:C:9838, V-A:ARG:545:CZ:4926, H-A:GLY:454:N:4049, V-B:ASN:362:CB:8147, H-A:ARG:545:NH1:4927, V-B:ASN:362:CG:8148, V-B:TYR:531:CE2:9764, H-A:ARG:545:NE:4924, V-A:ARG:545:CD:4923, V-A:ARG:545:CG:4922"]

$$$$
2a_Ghoteimi_2023
     RDKit          3D

 48 53  0  0  0  0  0  0  0  0999 V2000
  132.3140  131.2980   59.2940 C   0  0  0  0  0  0  0  0  0  0  0  0
  132.1990  131.3530   57.7680 C   0  0  0  0  0  0  0  0  0  0  0  0
  131.7790  132.6520   57.3730 O   0  0  0  0  0  0  0  0  0  0  0  0
  130.6360  132.8350   56.6640 C   0  0  0  0  0  0  0  0  0  0  0  0
  130.6160  133.2500   55.5010 O   0  0  0  0  0  0  0  0  0  0  0  0
  129.3970  132.4760   57.4330 C   0  0  0  0  0  0  0  0  0  0  0  0
  129.2150  132.8610   58.7700 C   0  0  0  0  0  0  0  0  0  0  0  0
  128.0540  132.5130   59.4530 C   0  0  0  0  0  0  0  0  0  0  0  0
  127.0500  131.7800   58.8180 C   0  0  0  0  0  0  0  0  0  0  0  0
  125.9210  131.4800   59.6050 N   0  0  0  0  0  0  0  0  0  0  0  0
  124.6070  131.5870   59.3100 C   0  0  0  0  0  0  0  0  0  0  0  0
  124.1520  132.0360   58.2570 O   0  0  0  0  0  0  0  0  0  0  0  0
  123.6510  131.1390   60.4220 C   0  0  0  0  0  0  0  0  0  0  0  0
  124.1370  131.6710   62.0950 S   0  0  0  0  0  0  0  0  0  0  0  0
  125.2590  130.4250   62.6880 C   0  0  0  0  0  0  0  0  0  0  0  0
  125.5120  129.4450   61.7900 N   0  0  0  0  0  0  0  0  0  0  0  0
  126.3470  128.4300   62.1290 C   0  0  0  0  0  0  0  0  0  0  0  0
  126.5720  127.3780   61.0910 C   0  0  0  0  0  0  0  0  0  0  0  0
  126.8100  127.7170   59.7540 C   0  0  0  0  0  0  0  0  0  0  0  0
  127.0070  126.7330   58.7900 C   0  0  0  0  0  0  0  0  0  0  0  0
  126.9830  125.3720   59.1270 C   0  0  0  0  0  0  0  0  0  0  0  0
  127.1540  124.3930   58.1430 N   0  0  0  0  0  0  0  0  0  0  0  0
  126.6900  124.6060   56.7570 C   0  0  0  0  0  0  0  0  0  0  0  0
  127.2740  123.6000   55.7430 C   0  0  0  0  0  0  0  0  0  0  0  0
  127.0100  122.2730   56.1680 O   0  0  0  0  0  0  0  0  0  0  0  0
  127.6000  122.0060   57.4300 C   0  0  0  0  0  0  0  0  0  0  0  0
  127.0280  122.9640   58.4970 C   0  0  0  0  0  0  0  0  0  0  0  0
  126.7330  125.0370   60.4680 C   0  0  0  0  0  0  0  0  0  0  0  0
  126.5380  126.0210   61.4320 C   0  0  0  0  0  0  0  0  0  0  0  0
  126.9600  128.3870   63.3840 C   0  0  0  0  0  0  0  0  0  0  0  0
  126.7130  129.3920   64.3290 C   0  0  0  0  0  0  0  0  0  0  0  0
  127.3970  129.2810   65.6530 C   0  0  0  0  0  0  0  0  0  0  0  0
  128.2230  128.1880   65.9280 C   0  0  0  0  0  0  0  0  0  0  0  0
  128.8490  128.0660   67.1650 C   0  0  0  0  0  0  0  0  0  0  0  0
  128.6700  129.0350   68.1640 C   0  0  0  0  0  0  0  0  0  0  0  0
  129.2740  128.9210   69.4200 N   0  0  0  0  0  0  0  0  0  0  0  0
  129.1070  130.0100   70.4040 C   0  0  0  0  0  0  0  0  0  0  0  0
  129.4790  129.5930   71.8430 C   0  0  0  0  0  0  0  0  0  0  0  0
  130.8030  129.0830   71.8740 O   0  0  0  0  0  0  0  0  0  0  0  0
  130.9480  127.9460   71.0380 C   0  0  0  0  0  0  0  0  0  0  0  0
  130.6110  128.3170   69.5790 C   0  0  0  0  0  0  0  0  0  0  0  0
  127.8290  130.1220   67.8850 C   0  0  0  0  0  0  0  0  0  0  0  0
  127.2020  130.2440   66.6480 C   0  0  0  0  0  0  0  0  0  0  0  0
  125.8400  130.4500   63.9750 C   0  0  0  0  0  0  0  0  0  0  0  0
  125.5870  131.5580   64.9010 C   0  0  0  0  0  0  0  0  0  0  0  0
  125.3880  132.4320   65.6340 N   0  0  0  0  0  0  0  0  0  0  0  0
  127.2280  131.3850   57.4840 C   0  0  0  0  0  0  0  0  0  0  0  0
  128.3900  131.7350   56.8000 C   0  0  0  0  0  0  0  0  0  0  0  0
  1  2  1  0
  2  3  1  0
  3  4  1  0
  4  5  2  0
  4  6  1  0
  6  7  2  0
  7  8  1  0
  8  9  2  0
  9 10  1  0
 10 11  1  0
 11 12  2  0
 11 13  1  0
 13 14  1  0
 14 15  1  0
 15 16  2  0
 16 17  1  0
 17 18  1  0
 18 19  2  0
 19 20  1  0
 20 21  2  0
 21 22  1  0
 22 23  1  0
 23 24  1  0
 24 25  1  0
 25 26  1  0
 26 27  1  0
 21 28  1  0
 28 29  2  0
 17 30  2  0
 30 31  1  0
 31 32  1  0
 32 33  2  0
 33 34  1  0
 34 35  2  0
 35 36  1  0
 36 37  1  0
 37 38  1  0
 38 39  1  0
 39 40  1  0
 40 41  1  0
 35 42  1  0
 42 43  2  0
 31 44  2  0
 44 45  1  0
 45 46  3  0
  9 47  1  0
 47 48  2  0
 48  6  1  0
 44 15  1  0
 29 18  1  0
 43 32  1  0
 27 22  1  0
 41 36  1  0
M  END
>  <Binding energies>  (8) 
[-10.97]

>  <Ligand effiencies>  (8) 
[-0.22387755102040818]

>  <Interactions>  (8) 
["V-A:HIS:456:CE1:4069, V-A:GLU:543:CB:4906, V-A:GLU:543:CG:4907, V-B:GLU:543:CD:9879, V-A:GLU:543:CD:4908, V-B:HIS:456:CE1:9041, H-A:LYS:547:NZ:4951, V-B:MET:535:CE:9806, V-B:ASP:366:CG:8184, V-B:TYR:539:CD2:9845, V-B:PRO:540:CA:9854, V-B:TYR:539:CE2:9847, V-B:PRO:540:N:9855, V-B:TYR:539:CE1:9846, V-B:PRO:540:CB:9856, H-B:TYR:539:N:9841, V-B:TYR:539:CZ:9848, V-B:TYR:539:C:9838, V-B:ASP:366:CA:8181, V-A:TYR:539:CD2:4874, H-A:TYR:539:OH:4878, V-A:TYR:539:C:4867, V-A:TYR:539:CE2:4876, V-A:PRO:540:N:4884, V-A:MET:535:CE:4835, V-B:TYR:539:CD1:9844, V-B:ASP:366:CB:8183, V-A:PRO:540:CB:4885, V-A:LEU:363:CD1:3188, V-A:PRO:540:CA:4883, V-B:TYR:539:CA:9840, V-B:TYR:539:CG:9843, V-B:TYR:484:CE1:9316, H-B:TYR:484:OH:9319, V-B:TYR:484:CZ:9318, V-A:GLU:543:C:4902, V-A:TYR:539:CZ:4877, H-A:TYR:539:N:4870, V-A:GLU:543:CA:4904, V-B:GLY:454:CA:9020, H-B:ARG:545:NH2:9899, V-B:LEU:475:CD1:9229, V-B:ILE:369:CD1:8210"]

$$$$
2aa_Ghoteimi_2023
     RDKit          3D

 48 53  0  0  0  0  0  0  0  0999 V2000
  128.4690  132.3540   56.2690 C   0  0  0  0  0  0  0  0  0  0  0  0
  129.7300  132.9840   55.6670 C   0  0  0  0  0  0  0  0  0  0  0  0
  130.5340  133.5170   56.7120 O   0  0  0  0  0  0  0  0  0  0  0  0
  131.4480  132.7470   57.3570 C   0  0  0  0  0  0  0  0  0  0  0  0
  132.5410  132.4360   56.8700 O   0  0  0  0  0  0  0  0  0  0  0  0
  131.0060  132.3230   58.7280 C   0  0  0  0  0  0  0  0  0  0  0  0
  129.8430  132.8350   59.3220 C   0  0  0  0  0  0  0  0  0  0  0  0
  129.4560  132.4200   60.5920 C   0  0  0  0  0  0  0  0  0  0  0  0
  130.2250  131.4930   61.2980 C   0  0  0  0  0  0  0  0  0  0  0  0
  129.7400  131.1410   62.5730 N   0  0  0  0  0  0  0  0  0  0  0  0
  128.7370  130.3040   62.9160 C   0  0  0  0  0  0  0  0  0  0  0  0
  128.0570  129.6510   62.1220 O   0  0  0  0  0  0  0  0  0  0  0  0
  128.4910  130.1870   64.4260 C   0  0  0  0  0  0  0  0  0  0  0  0
  127.8580  128.9360   64.7150 O   0  0  0  0  0  0  0  0  0  0  0  0
  128.5280  127.9700   65.4540 C   0  0  0  0  0  0  0  0  0  0  0  0
  129.0910  126.9270   64.7830 N   0  0  0  0  0  0  0  0  0  0  0  0
  129.7560  125.9680   65.4750 C   0  0  0  0  0  0  0  0  0  0  0  0
  130.3450  124.8500   64.6720 C   0  0  0  0  0  0  0  0  0  0  0  0
  130.1160  123.5170   65.0290 C   0  0  0  0  0  0  0  0  0  0  0  0
  130.6560  122.4730   64.2820 C   0  0  0  0  0  0  0  0  0  0  0  0
  131.4330  122.7240   63.1400 C   0  0  0  0  0  0  0  0  0  0  0  0
  131.9940  121.6870   62.3850 N   0  0  0  0  0  0  0  0  0  0  0  0
  131.2820  121.1060   61.2290 C   0  0  0  0  0  0  0  0  0  0  0  0
  131.8710  119.7640   60.7460 C   0  0  0  0  0  0  0  0  0  0  0  0
  133.2540  119.9120   60.4680 O   0  0  0  0  0  0  0  0  0  0  0  0
  133.9760  120.3120   61.6230 C   0  0  0  0  0  0  0  0  0  0  0  0
  133.4490  121.6710   62.1320 C   0  0  0  0  0  0  0  0  0  0  0  0
  131.6770  124.0620   62.8000 C   0  0  0  0  0  0  0  0  0  0  0  0
  131.1400  125.1050   63.5490 C   0  0  0  0  0  0  0  0  0  0  0  0
  129.8600  126.0220   66.8680 C   0  0  0  0  0  0  0  0  0  0  0  0
  129.2800  127.0780   67.5820 C   0  0  0  0  0  0  0  0  0  0  0  0
  129.4020  127.0680   69.0720 C   0  0  0  0  0  0  0  0  0  0  0  0
  130.2680  127.9570   69.7150 C   0  0  0  0  0  0  0  0  0  0  0  0
  130.4010  127.9400   71.1010 C   0  0  0  0  0  0  0  0  0  0  0  0
  129.6830  127.0230   71.8830 C   0  0  0  0  0  0  0  0  0  0  0  0
  129.7980  126.9900   73.2760 N   0  0  0  0  0  0  0  0  0  0  0  0
  130.2430  125.7730   73.9820 C   0  0  0  0  0  0  0  0  0  0  0  0
  130.6460  126.0260   75.4500 C   0  0  0  0  0  0  0  0  0  0  0  0
  129.5780  126.6530   76.1450 O   0  0  0  0  0  0  0  0  0  0  0  0
  129.2360  127.9000   75.5610 C   0  0  0  0  0  0  0  0  0  0  0  0
  128.7940  127.6960   74.0970 C   0  0  0  0  0  0  0  0  0  0  0  0
  128.8120  126.1400   71.2300 C   0  0  0  0  0  0  0  0  0  0  0  0
  128.6780  126.1570   69.8450 C   0  0  0  0  0  0  0  0  0  0  0  0
  128.6080  128.0860   66.8530 C   0  0  0  0  0  0  0  0  0  0  0  0
  128.0150  129.2520   67.5120 C   0  0  0  0  0  0  0  0  0  0  0  0
  127.5470  130.1740   68.0330 N   0  0  0  0  0  0  0  0  0  0  0  0
  131.3850  130.9710   60.7080 C   0  0  0  0  0  0  0  0  0  0  0  0
  131.7680  131.3850   59.4360 C   0  0  0  0  0  0  0  0  0  0  0  0
  1  2  1  0
  2  3  1  0
  3  4  1  0
  4  5  2  0
  4  6  1  0
  6  7  2  0
  7  8  1  0
  8  9  2  0
  9 10  1  0
 10 11  1  0
 11 12  2  0
 11 13  1  0
 13 14  1  0
 14 15  1  0
 15 16  2  0
 16 17  1  0
 17 18  1  0
 18 19  2  0
 19 20  1  0
 20 21  2  0
 21 22  1  0
 22 23  1  0
 23 24  1  0
 24 25  1  0
 25 26  1  0
 26 27  1  0
 21 28  1  0
 28 29  2  0
 17 30  2  0
 30 31  1  0
 31 32  1  0
 32 33  2  0
 33 34  1  0
 34 35  2  0
 35 36  1  0
 36 37  1  0
 37 38  1  0
 38 39  1  0
 39 40  1  0
 40 41  1  0
 35 42  1  0
 42 43  2  0
 31 44  2  0
 44 45  1  0
 45 46  3  0
  9 47  1  0
 47 48  2  0
 48  6  1  0
 44 15  1  0
 29 18  1  0
 43 32  1  0
 27 22  1  0
 41 36  1  0
M  END
>  <Binding energies>  (9) 
[-10.21]

>  <Ligand effiencies>  (9) 
[-0.20836734693877554]

>  <Interactions>  (9) 
["V-A:LYS:547:CE:4950, V-A:HIS:456:CE1:4069, V-A:GLU:543:CB:4906, V-A:GLU:543:CG:4907, V-A:HIS:456:CD2:4067, V-B:GLU:543:CD:9879, V-A:GLU:543:CD:4908, V-B:HIS:456:CE1:9041, V-B:HIS:456:CD2:9039, V-B:GLU:543:CB:9877, V-B:GLU:543:CG:9878, V-A:TRP:381:CZ2:3369, V-A:TRP:381:CH2:3371, V-B:TYR:539:CD2:9845, V-B:TYR:539:CE2:9847, V-B:ALA:541:CB:9863, V-A:LEU:475:CD2:4258, V-A:ILE:369:CG2:3236, V-A:TYR:539:C:4867, V-A:TYR:539:CE2:4876, V-A:PRO:540:N:4884, V-A:MET:535:CE:4835, V-A:PRO:540:CB:4885, V-A:PRO:540:CA:4883, V-A:TYR:484:CE1:4344, V-A:GLY:454:CA:4048, V-A:ILE:369:CD1:3238, H-B:TYR:484:OH:9319, V-A:PRO:540:CD:4887, V-A:TYR:539:CZ:4877, H-A:TYR:539:N:4870, H-A:GLU:543:OE1:4909, V-A:ILE:538:CB:4862, V-A:ILE:538:CA:4860, V-A:TYR:539:CE1:4875, V-A:TYR:539:CD1:4873, V-A:ILE:538:C:4858, H-B:HIS:456:ND1:9038"]

$$$$
2b_Ghoteimi_2023
     RDKit          3D

 42 47  0  0  0  0  0  0  0  0999 V2000
  127.6970  132.3410   64.9980 N   0  0  0  0  0  0  0  0  0  0  0  0
  127.5780  131.4700   64.2460 C   0  0  0  0  0  0  0  0  0  0  0  0
  127.4260  130.3630   63.2980 C   0  0  0  0  0  0  0  0  0  0  0  0
  127.5880  129.0210   63.7260 C   0  0  0  0  0  0  0  0  0  0  0  0
  127.9140  128.6310   65.1300 C   0  0  0  0  0  0  0  0  0  0  0  0
  128.8720  127.6470   65.3830 C   0  0  0  0  0  0  0  0  0  0  0  0
  129.1790  127.2790   66.6900 C   0  0  0  0  0  0  0  0  0  0  0  0
  128.5230  127.8730   67.7800 C   0  0  0  0  0  0  0  0  0  0  0  0
  128.8230  127.5310   69.1000 N   0  0  0  0  0  0  0  0  0  0  0  0
  128.5130  126.1680   69.5770 C   0  0  0  0  0  0  0  0  0  0  0  0
  128.5350  126.0390   71.1140 C   0  0  0  0  0  0  0  0  0  0  0  0
  129.7810  126.4880   71.6250 O   0  0  0  0  0  0  0  0  0  0  0  0
  130.0250  127.8460   71.2940 C   0  0  0  0  0  0  0  0  0  0  0  0
  130.0500  128.0170   69.7610 C   0  0  0  0  0  0  0  0  0  0  0  0
  127.5620  128.8580   67.5150 C   0  0  0  0  0  0  0  0  0  0  0  0
  127.2570  129.2290   66.2090 C   0  0  0  0  0  0  0  0  0  0  0  0
  127.4290  127.9960   62.7850 C   0  0  0  0  0  0  0  0  0  0  0  0
  127.0860  128.2970   61.4640 C   0  0  0  0  0  0  0  0  0  0  0  0
  126.8750  127.2390   60.4280 C   0  0  0  0  0  0  0  0  0  0  0  0
  126.9450  127.5490   59.0650 C   0  0  0  0  0  0  0  0  0  0  0  0
  126.7660  126.5670   58.0960 C   0  0  0  0  0  0  0  0  0  0  0  0
  126.4960  125.2360   58.4520 C   0  0  0  0  0  0  0  0  0  0  0  0
  126.3440  124.2310   57.4900 N   0  0  0  0  0  0  0  0  0  0  0  0
  127.5350  123.6510   56.8370 C   0  0  0  0  0  0  0  0  0  0  0  0
  127.2110  122.8610   55.5500 C   0  0  0  0  0  0  0  0  0  0  0  0
  126.2430  121.8600   55.8250 O   0  0  0  0  0  0  0  0  0  0  0  0
  125.0320  122.4260   56.3000 C   0  0  0  0  0  0  0  0  0  0  0  0
  125.2890  123.2050   57.6070 C   0  0  0  0  0  0  0  0  0  0  0  0
  126.4340  124.9270   59.8190 C   0  0  0  0  0  0  0  0  0  0  0  0
  126.6170  125.9100   60.7880 C   0  0  0  0  0  0  0  0  0  0  0  0
  126.9300  129.5820   61.0560 N   0  0  0  0  0  0  0  0  0  0  0  0
  127.1120  130.5910   61.9400 C   0  0  0  0  0  0  0  0  0  0  0  0
  126.8720  132.2080   61.2340 S   0  0  0  0  0  0  0  0  0  0  0  0
  128.5000  132.8220   60.7060 C   0  0  0  0  0  0  0  0  0  0  0  0
  128.7550  132.5700   59.2190 C   0  0  0  0  0  0  0  0  0  0  0  0
  127.9340  131.9210   58.5680 O   0  0  0  0  0  0  0  0  0  0  0  0
  129.8990  133.0930   58.7280 N   0  0  0  0  0  0  0  0  0  0  0  0
  130.3650  133.0230   57.4230 C   0  0  0  0  0  0  0  0  0  0  0  0
  131.5430  132.3660   57.0710 C   0  0  0  0  0  0  0  0  0  0  0  0
  131.6480  132.5250   55.7090 C   0  0  0  0  0  0  0  0  0  0  0  0
  130.5870  133.2390   55.2640 O   0  0  0  0  0  0  0  0  0  0  0  0
  129.7790  133.5480   56.3600 N   0  0  0  0  0  0  0  0  0  0  0  0
  1  2  3  0
  2  3  1  0
  3  4  2  0
  4  5  1  0
  5  6  2  0
  6  7  1  0
  7  8  2  0
  8  9  1  0
  9 10  1  0
 10 11  1  0
 11 12  1  0
 12 13  1  0
 13 14  1  0
  8 15  1  0
 15 16  2  0
  4 17  1  0
 17 18  2  0
 18 19  1  0
 19 20  2  0
 20 21  1  0
 21 22  2  0
 22 23  1  0
 23 24  1  0
 24 25  1  0
 25 26  1  0
 26 27  1  0
 27 28  1  0
 22 29  1  0
 29 30  2  0
 18 31  1  0
 31 32  2  0
 32 33  1  0
 33 34  1  0
 34 35  1  0
 35 36  2  0
 35 37  1  0
 37 38  1  0
 38 39  1  0
 39 40  2  0
 40 41  1  0
 41 42  1  0
 32  3  1  0
 42 38  2  0
 16  5  1  0
 30 19  1  0
 14  9  1  0
 28 23  1  0
M  END
>  <Binding energies>  (10) 
[-10.98]

>  <Ligand effiencies>  (10) 
[-0.25534883720930235]

>  <Interactions>  (10) 
["V-A:HIS:456:CE1:4069, V-A:GLU:543:CB:4906, V-A:GLU:543:CG:4907, V-B:GLU:543:CD:9879, V-A:GLU:543:CD:4908, V-B:HIS:456:CE1:9041, V-B:GLU:543:CB:9877, V-B:MET:535:CE:9806, V-B:ASP:366:CG:8184, V-B:LEU:363:CD1:8160, V-B:PRO:540:CA:9854, V-B:PRO:540:N:9855, V-B:TYR:539:CE1:9846, V-B:PRO:540:CB:9856, H-B:TYR:539:N:9841, V-B:TYR:539:CZ:9848, V-B:PRO:540:CD:9858, V-A:TYR:539:CD2:4874, V-A:TYR:539:C:4867, V-A:TYR:539:CE2:4876, V-A:PRO:540:N:4884, V-B:TYR:539:CD1:9844, V-A:LEU:363:CD1:3188, V-A:PRO:540:CA:4883, H-A:TYR:539:N:4870, V-A:ILE:538:CB:4862, V-A:ILE:538:CA:4860, V-A:ILE:538:CG2:4863, V-A:TYR:539:CA:4869, H-A:TYR:539:O:4868"]

$$$$
2c_Ghoteimi_2023
     RDKit          3D

 42 47  0  0  0  0  0  0  0  0999 V2000
  127.7260  132.4340   64.9420 N   0  0  0  0  0  0  0  0  0  0  0  0
  127.5990  131.5530   64.2040 C   0  0  0  0  0  0  0  0  0  0  0  0
  127.4370  130.4320   63.2720 C   0  0  0  0  0  0  0  0  0  0  0  0
  127.5720  129.0950   63.7220 C   0  0  0  0  0  0  0  0  0  0  0  0
  127.8830  128.7190   65.1340 C   0  0  0  0  0  0  0  0  0  0  0  0
  128.8290  127.7290   65.4050 C   0  0  0  0  0  0  0  0  0  0  0  0
  129.1280  127.3770   66.7190 C   0  0  0  0  0  0  0  0  0  0  0  0
  128.4770  127.9950   67.7980 C   0  0  0  0  0  0  0  0  0  0  0  0
  128.7750  127.6710   69.1240 N   0  0  0  0  0  0  0  0  0  0  0  0
  128.6570  126.2680   69.5690 C   0  0  0  0  0  0  0  0  0  0  0  0
  128.6340  126.1170   71.1050 C   0  0  0  0  0  0  0  0  0  0  0  0
  129.7790  126.7330   71.6720 O   0  0  0  0  0  0  0  0  0  0  0  0
  129.8320  128.1190   71.3710 C   0  0  0  0  0  0  0  0  0  0  0  0
  129.8870  128.3240   69.8430 C   0  0  0  0  0  0  0  0  0  0  0  0
  127.5250  128.9850   67.5150 C   0  0  0  0  0  0  0  0  0  0  0  0
  127.2290  129.3390   66.2020 C   0  0  0  0  0  0  0  0  0  0  0  0
  127.4050  128.0590   62.7930 C   0  0  0  0  0  0  0  0  0  0  0  0
  127.0860  128.3460   61.4620 C   0  0  0  0  0  0  0  0  0  0  0  0
  126.8810  127.2770   60.4380 C   0  0  0  0  0  0  0  0  0  0  0  0
  126.8790  127.5850   59.0740 C   0  0  0  0  0  0  0  0  0  0  0  0
  126.6940  126.5930   58.1140 C   0  0  0  0  0  0  0  0  0  0  0  0
  126.4920  125.2540   58.4850 C   0  0  0  0  0  0  0  0  0  0  0  0
  126.3290  124.2420   57.5340 N   0  0  0  0  0  0  0  0  0  0  0  0
  127.5130  123.6600   56.8690 C   0  0  0  0  0  0  0  0  0  0  0  0
  127.1760  122.8540   55.5960 C   0  0  0  0  0  0  0  0  0  0  0  0
  126.2220  121.8490   55.8970 O   0  0  0  0  0  0  0  0  0  0  0  0
  125.0140  122.4090   56.3860 C   0  0  0  0  0  0  0  0  0  0  0  0
  125.2850  123.2060   57.6800 C   0  0  0  0  0  0  0  0  0  0  0  0
  126.5080  124.9470   59.8530 C   0  0  0  0  0  0  0  0  0  0  0  0
  126.6950  125.9400   60.8120 C   0  0  0  0  0  0  0  0  0  0  0  0
  126.9560  129.6280   61.0350 N   0  0  0  0  0  0  0  0  0  0  0  0
  127.1440  130.6470   61.9060 C   0  0  0  0  0  0  0  0  0  0  0  0
  126.9450  132.2560   61.1740 S   0  0  0  0  0  0  0  0  0  0  0  0
  128.5840  132.8040   60.6090 C   0  0  0  0  0  0  0  0  0  0  0  0
  128.8550  132.4010   59.1580 C   0  0  0  0  0  0  0  0  0  0  0  0
  128.1020  131.6000   58.6030 O   0  0  0  0  0  0  0  0  0  0  0  0
  129.9380  132.9730   58.5880 N   0  0  0  0  0  0  0  0  0  0  0  0
  130.3850  132.7870   57.2880 C   0  0  0  0  0  0  0  0  0  0  0  0
  129.8510  133.2430   56.1770 N   0  0  0  0  0  0  0  0  0  0  0  0
  130.5460  132.8780   55.1180 C   0  0  0  0  0  0  0  0  0  0  0  0
  131.6770  132.1050   55.3620 C   0  0  0  0  0  0  0  0  0  0  0  0
  131.8280  131.8480   57.0750 S   0  0  0  0  0  0  0  0  0  0  0  0
  1  2  3  0
  2  3  1  0
  3  4  2  0
  4  5  1  0
  5  6  2  0
  6  7  1  0
  7  8  2  0
  8  9  1  0
  9 10  1  0
 10 11  1  0
 11 12  1  0
 12 13  1  0
 13 14  1  0
  8 15  1  0
 15 16  2  0
  4 17  1  0
 17 18  2  0
 18 19  1  0
 19 20  2  0
 20 21  1  0
 21 22  2  0
 22 23  1  0
 23 24  1  0
 24 25  1  0
 25 26  1  0
 26 27  1  0
 27 28  1  0
 22 29  1  0
 29 30  2  0
 18 31  1  0
 31 32  2  0
 32 33  1  0
 33 34  1  0
 34 35  1  0
 35 36  2  0
 35 37  1  0
 37 38  1  0
 38 39  2  0
 39 40  1  0
 40 41  2  0
 41 42  1  0
 32  3  1  0
 42 38  1  0
 16  5  1  0
 30 19  1  0
 14  9  1  0
 28 23  1  0
M  END
>  <Binding energies>  (11) 
[-10.75]

>  <Ligand effiencies>  (11) 
[-0.25]

>  <Interactions>  (11) 
["V-A:HIS:456:CE1:4069, V-A:GLU:543:CB:4906, V-A:GLU:543:CG:4907, V-B:GLU:543:CD:9879, V-A:GLU:543:CD:4908, V-B:HIS:456:CE1:9041, V-B:GLU:543:CB:9877, V-B:MET:535:CE:9806, V-B:ASP:366:CG:8184, V-B:LEU:363:CD1:8160, V-B:PRO:540:CA:9854, V-B:PRO:540:N:9855, V-B:TYR:539:CE1:9846, V-B:PRO:540:CB:9856, H-B:TYR:539:N:9841, V-B:TYR:539:CZ:9848, V-B:PRO:540:CD:9858, V-A:TYR:539:C:4867, V-A:PRO:540:N:4884, V-A:MET:535:CE:4835, V-B:TYR:539:CD1:9844, V-A:LEU:363:CD1:3188, V-A:TYR:531:CE2:4793, V-A:PRO:540:CA:4883, H-A:TYR:539:N:4870, V-A:ILE:538:CB:4862, V-A:ILE:538:CA:4860, V-A:ILE:538:CG2:4863, V-A:ILE:538:C:4858, H-A:TYR:539:O:4868"]

$$$$
2j_Grossjean_2025
     RDKit          3D

 23 24  0  0  0  0  0  0  0  0999 V2000
  128.9130  121.2390   60.7020 C   0  0  0  0  0  0  0  0  0  0  0  0
  128.4460  122.6290   60.3160 C   0  0  0  0  0  0  0  0  0  0  0  0
  129.2220  123.4640   59.5160 C   0  0  0  0  0  0  0  0  0  0  0  0
  128.7460  124.7410   59.1830 C   0  0  0  0  0  0  0  0  0  0  0  0
  129.6170  125.6510   58.2970 C   0  0  0  0  0  0  0  0  0  0  0  0
  128.9100  126.0840   57.2530 F   0  0  0  0  0  0  0  0  0  0  0  0
  130.0400  126.7030   58.9990 F   0  0  0  0  0  0  0  0  0  0  0  0
  130.6960  125.0270   57.8200 F   0  0  0  0  0  0  0  0  0  0  0  0
  127.4790  125.1400   59.6790 C   0  0  0  0  0  0  0  0  0  0  0  0
  126.9310  126.4630   59.3630 C   0  0  0  0  0  0  0  0  0  0  0  0
  126.4990  127.5070   59.1130 N   0  0  0  0  0  0  0  0  0  0  0  0
  126.7570  124.2280   60.4850 C   0  0  0  0  0  0  0  0  0  0  0  0
  125.1510  124.6230   61.1620 S   0  0  0  0  0  0  0  0  0  0  0  0
  123.8750  123.9910   60.0200 C   0  0  0  0  0  0  0  0  0  0  0  0
  124.2970  123.9390   58.5450 C   0  0  0  0  0  0  0  0  0  0  0  0
  123.6780  124.5770   57.6900 O   0  0  0  0  0  0  0  0  0  0  0  0
  125.3620  123.1480   58.2880 N   0  0  0  0  0  0  0  0  0  0  0  0
  125.9500  122.9230   57.0490 C   0  0  0  0  0  0  0  0  0  0  0  0
  125.7930  121.8840   56.2590 N   0  0  0  0  0  0  0  0  0  0  0  0
  126.5030  122.0020   55.1540 C   0  0  0  0  0  0  0  0  0  0  0  0
  127.2610  123.1630   55.0310 C   0  0  0  0  0  0  0  0  0  0  0  0
  127.0230  124.1450   56.4460 S   0  0  0  0  0  0  0  0  0  0  0  0
  127.2360  122.9960   60.7940 N   0  0  0  0  0  0  0  0  0  0  0  0
  1  2  1  0
  2  3  2  0
  3  4  1  0
  4  5  1  0
  5  6  1  0
  5  7  1  0
  5  8  1  0
  4  9  2  0
  9 10  1  0
 10 11  3  0
  9 12  1  0
 12 13  1  0
 13 14  1  0
 14 15  1  0
 15 16  2  0
 15 17  1  0
 17 18  1  0
 18 19  2  0
 19 20  1  0
 20 21  2  0
 21 22  1  0
 12 23  2  0
 23  2  1  0
 22 18  1  0
M  END
>  <Binding energies>  (12) 
[-5.8]

>  <Ligand effiencies>  (12) 
[-0.24166666666666667]

>  <Interactions>  (12) 
["V-B:MET:535:CE:9806, V-B:LEU:363:CA:8156, V-B:LEU:363:CD1:8160, V-B:ASN:362:C:8143, V-B:TYR:539:CD2:9845, V-B:PRO:540:CA:9854, V-B:TYR:539:CE2:9847, V-B:PRO:540:C:9852, V-B:ALA:541:CB:9863, V-B:PRO:540:N:9855, V-B:TYR:539:CE1:9846, V-B:PRO:540:CB:9856, H-B:TYR:539:N:9841, H-B:ALA:541:N:9862, V-B:TYR:539:CZ:9848, V-B:TYR:539:C:9838, V-B:PRO:540:CD:9858, V-B:ILE:538:CA:9831, H-B:TYR:531:OH:9766, V-B:TYR:539:CD1:9844, V-B:ASN:362:CB:8147, V-B:ILE:538:CD1:9836, V-B:ALA:541:CA:9861, H-B:ARG:545:NH2:9899, V-B:ILE:538:C:9829"]

$$$$
3ab_Grossjean_2025
     RDKit          3D

 33 35  0  0  0  0  0  0  0  0999 V2000
  129.7300  129.4960   73.1730 C   0  0  0  0  0  0  0  0  0  0  0  0
  130.3150  128.2020   73.1520 O   0  0  0  0  0  0  0  0  0  0  0  0
  129.5820  127.1090   72.8190 C   0  0  0  0  0  0  0  0  0  0  0  0
  129.0630  126.3580   73.6490 O   0  0  0  0  0  0  0  0  0  0  0  0
  129.4620  126.9060   71.3360 C   0  0  0  0  0  0  0  0  0  0  0  0
  128.6820  125.8750   70.7880 C   0  0  0  0  0  0  0  0  0  0  0  0
  128.5880  125.7110   69.4090 C   0  0  0  0  0  0  0  0  0  0  0  0
  129.2790  126.5790   68.5480 C   0  0  0  0  0  0  0  0  0  0  0  0
  129.2520  126.5100   67.1420 N   0  0  0  0  0  0  0  0  0  0  0  0
  129.7000  125.5440   66.3130 C   0  0  0  0  0  0  0  0  0  0  0  0
  130.2550  124.5020   66.6630 O   0  0  0  0  0  0  0  0  0  0  0  0
  129.4840  125.8070   64.8210 C   0  0  0  0  0  0  0  0  0  0  0  0
  130.8120  125.0990   63.8020 S   0  0  0  0  0  0  0  0  0  0  0  0
  130.0970  123.7940   62.8240 C   0  0  0  0  0  0  0  0  0  0  0  0
  128.8440  124.0680   62.3900 N   0  0  0  0  0  0  0  0  0  0  0  0
  128.1790  123.1610   61.6270 C   0  0  0  0  0  0  0  0  0  0  0  0
  126.7980  123.5420   61.1850 C   0  0  0  0  0  0  0  0  0  0  0  0
  125.7720  123.7390   62.1230 C   0  0  0  0  0  0  0  0  0  0  0  0
  124.4870  124.0930   61.7180 C   0  0  0  0  0  0  0  0  0  0  0  0
  124.2100  124.2550   60.3640 C   0  0  0  0  0  0  0  0  0  0  0  0
  125.2070  124.0610   59.4140 C   0  0  0  0  0  0  0  0  0  0  0  0
  126.4900  123.7070   59.8230 C   0  0  0  0  0  0  0  0  0  0  0  0
  128.7660  121.9340   61.3000 C   0  0  0  0  0  0  0  0  0  0  0  0
  130.0550  121.6190   61.7540 C   0  0  0  0  0  0  0  0  0  0  0  0
  130.6630  120.2540   61.3770 C   0  0  0  0  0  0  0  0  0  0  0  0
  131.9970  120.2670   61.3670 F   0  0  0  0  0  0  0  0  0  0  0  0
  130.2790  119.3220   62.2500 F   0  0  0  0  0  0  0  0  0  0  0  0
  130.2550  119.8970   60.1580 F   0  0  0  0  0  0  0  0  0  0  0  0
  130.7450  122.5690   62.5470 C   0  0  0  0  0  0  0  0  0  0  0  0
  132.0700  122.2680   63.0950 C   0  0  0  0  0  0  0  0  0  0  0  0
  133.1170  122.0270   63.5250 N   0  0  0  0  0  0  0  0  0  0  0  0
  130.0500  127.6080   69.0900 C   0  0  0  0  0  0  0  0  0  0  0  0
  130.1440  127.7690   70.4690 C   0  0  0  0  0  0  0  0  0  0  0  0
  1  2  1  0
  2  3  1  0
  3  4  2  0
  3  5  1  0
  5  6  2  0
  6  7  1  0
  7  8  2  0
  8  9  1  0
  9 10  1  0
 10 11  2  0
 10 12  1  0
 12 13  1  0
 13 14  1  0
 14 15  2  0
 15 16  1  0
 16 17  1  0
 17 18  2  0
 18 19  1  0
 19 20  2  0
 20 21  1  0
 21 22  2  0
 16 23  2  0
 23 24  1  0
 24 25  1  0
 25 26  1  0
 25 27  1  0
 25 28  1  0
 24 29  2  0
 29 30  1  0
 30 31  3  0
  8 32  1  0
 32 33  2  0
 33  5  1  0
 29 14  1  0
 22 17  1  0
M  END
>  <Binding energies>  (13) 
[-8.1]

>  <Ligand effiencies>  (13) 
[-0.23823529411764705]

>  <Interactions>  (13) 
["V-A:HIS:456:CE1:4069, V-A:GLU:543:CB:4906, V-B:GLU:543:CD:9879, H-A:LYS:547:NZ:4951, H-B:LYS:547:NZ:9922, V-B:GLU:543:C:9873, V-B:GLU:543:CB:9877, V-B:GLU:543:CG:9878, V-B:ASP:366:CG:8184, V-B:LEU:363:CA:8156, V-B:ASN:362:C:8143, V-A:TRP:381:CH2:3371, V-B:TYR:539:CD2:9845, V-B:PRO:540:CA:9854, V-A:PRO:482:CG:4326, V-B:TYR:539:CE2:9847, V-A:PRO:482:CB:4325, V-B:PRO:540:C:9852, V-B:ALA:541:CB:9863, V-A:LEU:475:CD2:4258, V-B:PRO:540:CB:9856, V-B:TYR:539:C:9838, H-A:GLY:454:N:4049, V-B:ASN:362:CB:8147, H-A:TYR:484:OH:4347, V-B:TYR:539:CG:9843, V-B:ALA:541:CA:9861, H-B:GLU:543:OE1:9880, H-A:GLU:543:OE2:4910, V-A:LEU:475:CD1:4257, V-A:LEU:475:CG:4256"]

$$$$
3ac_Grossjean_2025
     RDKit          3D

 31 33  0  0  0  0  0  0  0  0999 V2000
  126.4920  122.0220   54.4360 C   0  0  0  0  0  0  0  0  0  0  0  0
  125.8350  121.7770   55.6750 O   0  0  0  0  0  0  0  0  0  0  0  0
  125.8670  122.7460   56.6600 C   0  0  0  0  0  0  0  0  0  0  0  0
  127.1060  122.9950   57.2480 C   0  0  0  0  0  0  0  0  0  0  0  0
  127.2370  123.9570   58.2450 C   0  0  0  0  0  0  0  0  0  0  0  0
  126.1240  124.6790   58.6770 C   0  0  0  0  0  0  0  0  0  0  0  0
  126.3580  125.6440   59.6750 N   0  0  0  0  0  0  0  0  0  0  0  0
  127.2970  125.6530   60.6450 C   0  0  0  0  0  0  0  0  0  0  0  0
  128.1720  124.7990   60.7980 O   0  0  0  0  0  0  0  0  0  0  0  0
  127.2380  126.8400   61.6080 C   0  0  0  0  0  0  0  0  0  0  0  0
  128.6880  127.9260   61.4520 S   0  0  0  0  0  0  0  0  0  0  0  0
  130.1580  126.9180   61.4300 C   0  0  0  0  0  0  0  0  0  0  0  0
  130.6800  126.7090   62.6630 N   0  0  0  0  0  0  0  0  0  0  0  0
  131.7990  125.9530   62.8050 C   0  0  0  0  0  0  0  0  0  0  0  0
  132.3140  125.7760   64.2020 C   0  0  0  0  0  0  0  0  0  0  0  0
  131.4700  125.9650   65.3090 C   0  0  0  0  0  0  0  0  0  0  0  0
  131.9410  125.7960   66.6080 C   0  0  0  0  0  0  0  0  0  0  0  0
  133.2690  125.4380   66.8190 C   0  0  0  0  0  0  0  0  0  0  0  0
  134.1270  125.2510   65.7420 C   0  0  0  0  0  0  0  0  0  0  0  0
  133.6520  125.4200   64.4440 C   0  0  0  0  0  0  0  0  0  0  0  0
  132.4350  125.3980   61.6910 C   0  0  0  0  0  0  0  0  0  0  0  0
  131.9290  125.6180   60.4010 C   0  0  0  0  0  0  0  0  0  0  0  0
  132.6650  124.9930   59.2000 C   0  0  0  0  0  0  0  0  0  0  0  0
  132.7950  125.8380   58.1750 F   0  0  0  0  0  0  0  0  0  0  0  0
  133.8930  124.6120   59.5580 F   0  0  0  0  0  0  0  0  0  0  0  0
  131.9930  123.9280   58.7620 F   0  0  0  0  0  0  0  0  0  0  0  0
  130.7640  126.4130   60.2570 C   0  0  0  0  0  0  0  0  0  0  0  0
  130.2440  126.7340   58.9260 C   0  0  0  0  0  0  0  0  0  0  0  0
  129.8330  126.9880   57.8740 N   0  0  0  0  0  0  0  0  0  0  0  0
  124.8740  124.4400   58.0850 C   0  0  0  0  0  0  0  0  0  0  0  0
  124.7470  123.4780   57.0870 C   0  0  0  0  0  0  0  0  0  0  0  0
  1  2  1  0
  2  3  1  0
  3  4  2  0
  4  5  1  0
  5  6  2  0
  6  7  1  0
  7  8  1  0
  8  9  2  0
  8 10  1  0
 10 11  1  0
 11 12  1  0
 12 13  2  0
 13 14  1  0
 14 15  1  0
 15 16  2  0
 16 17  1  0
 17 18  2  0
 18 19  1  0
 19 20  2  0
 14 21  2  0
 21 22  1  0
 22 23  1  0
 23 24  1  0
 23 25  1  0
 23 26  1  0
 22 27  2  0
 27 28  1  0
 28 29  3  0
  6 30  1  0
 30 31  2  0
 31  3  1  0
 27 12  1  0
 20 15  1  0
M  END
>  <Binding energies>  (14) 
[-7.21]

>  <Ligand effiencies>  (14) 
[-0.2253125]

>  <Interactions>  (14) 
["V-A:HIS:456:CE1:4069, V-A:GLU:543:CD:4908, V-B:MET:535:CE:9806, V-B:LEU:363:CD1:8160, V-B:PRO:540:CA:9854, V-B:TYR:539:CE2:9847, V-B:PRO:540:N:9855, V-B:TYR:539:CE1:9846, V-B:PRO:540:CB:9856, H-B:TYR:539:N:9841, V-A:ILE:369:CG2:3236, V-B:TYR:539:CZ:9848, V-A:ILE:369:CB:3235, V-A:ASP:366:CB:3211, V-B:PRO:540:CD:9858, V-A:ARG:545:CZ:4926, V-B:ILE:538:CA:9831, H-A:TYR:531:OH:4795, V-B:TYR:539:CD1:9844, V-A:ASP:366:CA:3209, V-A:ASP:366:CG:3212, V-A:ASP:366:C:3207, V-B:ILE:538:CD1:9836, V-A:GLY:454:CA:4048, V-A:ILE:369:CD1:3238, H-B:ASP:366:OD2:8186, V-A:ARG:545:CD:4923, V-A:ARG:545:CG:4922, V-B:ILE:538:CB:9833, V-B:ILE:538:C:9829, V-A:GLY:453:C:4041, V-A:GLY:453:CA:4043, V-B:VAL:537:C:9821"]

$$$$
3af_Grossjean_2025
     RDKit          3D

 29 31  0  0  0  0  0  0  0  0999 V2000
  133.1980  122.6730   61.7910 N   0  0  0  0  0  0  0  0  0  0  0  0
  132.1920  122.7100   61.2200 C   0  0  0  0  0  0  0  0  0  0  0  0
  130.9180  122.7550   60.4970 C   0  0  0  0  0  0  0  0  0  0  0  0
  129.9820  121.6990   60.6150 C   0  0  0  0  0  0  0  0  0  0  0  0
  130.2140  120.4810   61.5320 C   0  0  0  0  0  0  0  0  0  0  0  0
  129.2050  119.6070   61.4970 F   0  0  0  0  0  0  0  0  0  0  0  0
  131.3190  119.8340   61.1590 F   0  0  0  0  0  0  0  0  0  0  0  0
  130.3500  120.8790   62.7970 F   0  0  0  0  0  0  0  0  0  0  0  0
  128.8010  121.7610   59.8610 C   0  0  0  0  0  0  0  0  0  0  0  0
  128.5610  122.8460   59.0120 C   0  0  0  0  0  0  0  0  0  0  0  0
  127.3250  122.9540   58.1690 C   0  0  0  0  0  0  0  0  0  0  0  0
  127.2620  122.3450   56.9060 C   0  0  0  0  0  0  0  0  0  0  0  0
  126.1160  122.4400   56.1200 C   0  0  0  0  0  0  0  0  0  0  0  0
  125.0150  123.1460   56.5900 C   0  0  0  0  0  0  0  0  0  0  0  0
  125.0490  123.7560   57.8400 C   0  0  0  0  0  0  0  0  0  0  0  0
  126.1970  123.6580   58.6220 C   0  0  0  0  0  0  0  0  0  0  0  0
  129.4620  123.8540   58.8980 N   0  0  0  0  0  0  0  0  0  0  0  0
  130.6000  123.8280   59.6330 C   0  0  0  0  0  0  0  0  0  0  0  0
  131.6490  125.2420   59.3610 S   0  0  0  0  0  0  0  0  0  0  0  0
  130.8410  126.6920   60.1040 C   0  0  0  0  0  0  0  0  0  0  0  0
  131.2520  126.8870   61.5630 C   0  0  0  0  0  0  0  0  0  0  0  0
  131.0310  127.9680   62.1080 O   0  0  0  0  0  0  0  0  0  0  0  0
  131.8490  125.8230   62.1430 N   0  0  0  0  0  0  0  0  0  0  0  0
  132.3490  125.6770   63.4520 C   0  0  0  0  0  0  0  0  0  0  0  0
  131.6060  125.8300   64.6360 C   0  0  0  0  0  0  0  0  0  0  0  0
  132.2320  125.6570   65.8720 C   0  0  0  0  0  0  0  0  0  0  0  0
  133.5900  125.3350   65.8940 C   0  0  0  0  0  0  0  0  0  0  0  0
  134.3280  125.1820   64.7670 N   0  0  0  0  0  0  0  0  0  0  0  0
  133.7050  125.3530   63.5740 C   0  0  0  0  0  0  0  0  0  0  0  0
  1  2  3  0
  2  3  1  0
  3  4  2  0
  4  5  1  0
  5  6  1  0
  5  7  1  0
  5  8  1  0
  4  9  1  0
  9 10  2  0
 10 11  1  0
 11 12  2  0
 12 13  1  0
 13 14  2  0
 14 15  1  0
 15 16  2  0
 10 17  1  0
 17 18  2  0
 18 19  1  0
 19 20  1  0
 20 21  1  0
 21 22  2  0
 21 23  1  0
 23 24  1  0
 24 25  2  0
 25 26  1  0
 26 27  2  0
 27 28  1  0
 28 29  2  0
 18  3  1  0
 29 24  1  0
 16 11  1  0
M  END
>  <Binding energies>  (15) 
[-7.47]

>  <Ligand effiencies>  (15) 
[-0.249]

>  <Interactions>  (15) 
["V-A:HIS:456:CE1:4069, V-B:MET:535:CE:9806, V-A:TRP:381:CZ2:3369, V-B:LEU:363:CD1:8160, V-A:TRP:381:CH2:3371, V-B:TYR:539:CD2:9845, V-B:PRO:540:CA:9854, V-A:PRO:482:CG:4326, V-B:TYR:539:CE2:9847, V-A:PRO:482:CB:4325, V-B:PRO:540:C:9852, V-B:ALA:541:CB:9863, V-B:PRO:540:N:9855, V-A:LEU:475:CD2:4258, V-B:TYR:539:CE1:9846, V-B:PRO:540:CB:9856, V-A:ILE:369:CG2:3236, V-B:TYR:539:CZ:9848, V-B:TYR:539:C:9838, V-B:PRO:540:CD:9858, V-A:ARG:545:CZ:4926, H-B:TYR:539:OH:9849, V-B:TYR:539:CD1:9844, H-A:GLY:454:N:4049, V-A:ASP:366:CG:3212, V-B:TYR:539:CA:9840, V-B:TYR:539:CG:9843, H-A:ARG:545:NH1:4927, H-A:ARG:545:NH2:4928, V-B:ALA:541:CA:9861, H-A:ARG:545:NE:4924, V-A:ARG:545:CD:4923, V-A:LEU:475:CD1:4257"]

$$$$
3ag_Grossjean_2025
     RDKit          3D

 30 32  0  0  0  0  0  0  0  0999 V2000
  123.9110  124.5670   57.9760 N   0  0  0  0  0  0  0  0  0  0  0  0
  124.8680  124.0800   58.4080 C   0  0  0  0  0  0  0  0  0  0  0  0
  126.0780  123.4640   58.9590 C   0  0  0  0  0  0  0  0  0  0  0  0
  126.3560  123.5280   60.3470 C   0  0  0  0  0  0  0  0  0  0  0  0
  125.3950  124.1830   61.3580 C   0  0  0  0  0  0  0  0  0  0  0  0
  124.1170  124.1100   60.9800 F   0  0  0  0  0  0  0  0  0  0  0  0
  125.4990  123.5760   62.5410 F   0  0  0  0  0  0  0  0  0  0  0  0
  125.6940  125.4740   61.5070 F   0  0  0  0  0  0  0  0  0  0  0  0
  127.5540  122.9700   60.8180 C   0  0  0  0  0  0  0  0  0  0  0  0
  128.4560  122.3770   59.9280 C   0  0  0  0  0  0  0  0  0  0  0  0
  129.7500  121.7680   60.3750 C   0  0  0  0  0  0  0  0  0  0  0  0
  130.9260  122.5330   60.4130 C   0  0  0  0  0  0  0  0  0  0  0  0
  132.1320  121.9750   60.8280 C   0  0  0  0  0  0  0  0  0  0  0  0
  132.1780  120.6380   61.2110 C   0  0  0  0  0  0  0  0  0  0  0  0
  131.0270  119.8570   61.1800 C   0  0  0  0  0  0  0  0  0  0  0  0
  129.8240  120.4190   60.7640 C   0  0  0  0  0  0  0  0  0  0  0  0
  128.1800  122.3060   58.6000 N   0  0  0  0  0  0  0  0  0  0  0  0
  127.0200  122.8210   58.1250 C   0  0  0  0  0  0  0  0  0  0  0  0
  126.8270  122.6370   56.3660 S   0  0  0  0  0  0  0  0  0  0  0  0
  127.8140  123.9420   55.5740 C   0  0  0  0  0  0  0  0  0  0  0  0
  128.1290  125.0910   56.5330 C   0  0  0  0  0  0  0  0  0  0  0  0
  127.3260  126.0170   56.6670 O   0  0  0  0  0  0  0  0  0  0  0  0
  129.2960  125.0140   57.1960 N   0  0  0  0  0  0  0  0  0  0  0  0
  129.7770  125.9790   58.1830 C   0  0  0  0  0  0  0  0  0  0  0  0
  131.0740  125.5700   58.8730 C   0  0  0  0  0  0  0  0  0  0  0  0
  132.1090  125.0010   58.1250 C   0  0  0  0  0  0  0  0  0  0  0  0
  133.3050  124.6530   58.7460 C   0  0  0  0  0  0  0  0  0  0  0  0
  133.4670  124.8840   60.1110 C   0  0  0  0  0  0  0  0  0  0  0  0
  132.4450  125.4640   60.8590 C   0  0  0  0  0  0  0  0  0  0  0  0
  131.2490  125.8120   60.2390 C   0  0  0  0  0  0  0  0  0  0  0  0
  1  2  3  0
  2  3  1  0
  3  4  2  0
  4  5  1  0
  5  6  1  0
  5  7  1  0
  5  8  1  0
  4  9  1  0
  9 10  2  0
 10 11  1  0
 11 12  2  0
 12 13  1  0
 13 14  2  0
 14 15  1  0
 15 16  2  0
 10 17  1  0
 17 18  2  0
 18 19  1  0
 19 20  1  0
 20 21  1  0
 21 22  2  0
 21 23  1  0
 23 24  1  0
 24 25  1  0
 25 26  2  0
 26 27  1  0
 27 28  2  0
 28 29  1  0
 29 30  2  0
 18  3  1  0
 30 25  1  0
 16 11  1  0
M  END
>  <Binding energies>  (16) 
[-8.05]

>  <Ligand effiencies>  (16) 
[-0.25967741935483873]

>  <Interactions>  (16) 
["V-B:GLU:543:CD:9879, V-B:GLU:543:CG:9878, V-B:ASP:366:CG:8184, V-B:ASN:362:C:8143, V-A:TRP:381:CH2:3371, V-B:TYR:539:CD2:9845, V-B:PRO:540:CA:9854, V-B:TYR:539:CE2:9847, V-B:PRO:540:C:9852, V-B:ALA:541:CB:9863, V-B:PRO:540:N:9855, V-A:LEU:475:CD2:4258, V-B:TYR:539:CE1:9846, V-B:PRO:540:CB:9856, V-A:ILE:369:CG2:3236, V-B:TYR:539:CZ:9848, V-A:ILE:369:CB:3235, V-A:ASP:366:CB:3211, V-B:TYR:539:C:9838, H-B:TYR:531:OH:9766, H-B:TYR:539:OH:9849, V-A:ASP:366:CA:3209, V-B:ASN:362:CA:8145, V-B:ASN:362:CB:8147, V-A:ASP:366:CG:3212, V-A:ASP:366:C:3207, V-A:ILE:369:CD1:3238"]

$$$$
3bc_Grossjean_2025
     RDKit          3D

 28 30  0  0  0  0  0  0  0  0999 V2000
  129.1960  133.2720   55.1250 C   0  0  0  0  0  0  0  0  0  0  0  0
  130.3190  133.4200   55.9860 O   0  0  0  0  0  0  0  0  0  0  0  0
  130.7310  132.3420   56.7470 C   0  0  0  0  0  0  0  0  0  0  0  0
  130.0320  131.1490   56.5650 C   0  0  0  0  0  0  0  0  0  0  0  0
  130.3740  130.0090   57.2870 C   0  0  0  0  0  0  0  0  0  0  0  0
  131.4190  130.0500   58.2110 C   0  0  0  0  0  0  0  0  0  0  0  0
  131.7000  128.8460   58.8840 N   0  0  0  0  0  0  0  0  0  0  0  0
  130.8780  127.8100   59.1550 C   0  0  0  0  0  0  0  0  0  0  0  0
  129.6990  127.7380   58.8020 O   0  0  0  0  0  0  0  0  0  0  0  0
  131.5340  126.6550   59.9270 C   0  0  0  0  0  0  0  0  0  0  0  0
  131.8950  125.1670   58.9350 S   0  0  0  0  0  0  0  0  0  0  0  0
  130.7680  123.8880   59.4440 C   0  0  0  0  0  0  0  0  0  0  0  0
  129.6030  123.8810   58.7510 N   0  0  0  0  0  0  0  0  0  0  0  0
  128.6510  122.9540   59.0360 C   0  0  0  0  0  0  0  0  0  0  0  0
  127.3830  123.0290   58.2390 C   0  0  0  0  0  0  0  0  0  0  0  0
  127.2780  122.3860   56.9960 C   0  0  0  0  0  0  0  0  0  0  0  0
  126.1040  122.4500   56.2510 C   0  0  0  0  0  0  0  0  0  0  0  0
  125.0150  123.1630   56.7400 C   0  0  0  0  0  0  0  0  0  0  0  0
  125.0930  123.8130   57.9680 C   0  0  0  0  0  0  0  0  0  0  0  0
  126.2700  123.7460   58.7090 C   0  0  0  0  0  0  0  0  0  0  0  0
  128.8550  122.0000   60.0380 C   0  0  0  0  0  0  0  0  0  0  0  0
  130.0610  121.9790   60.7470 C   0  0  0  0  0  0  0  0  0  0  0  0
  130.2470  120.9080   61.8210 C   0  0  0  0  0  0  0  0  0  0  0  0
  131.0560  122.9340   60.4460 C   0  0  0  0  0  0  0  0  0  0  0  0
  132.3450  122.9000   61.1400 C   0  0  0  0  0  0  0  0  0  0  0  0
  133.3620  122.8710   61.6910 N   0  0  0  0  0  0  0  0  0  0  0  0
  132.1360  131.2420   58.3910 C   0  0  0  0  0  0  0  0  0  0  0  0
  131.7910  132.3800   57.6660 C   0  0  0  0  0  0  0  0  0  0  0  0
  1  2  1  0
  2  3  1  0
  3  4  2  0
  4  5  1  0
  5  6  2  0
  6  7  1  0
  7  8  1  0
  8  9  2  0
  8 10  1  0
 10 11  1  0
 11 12  1  0
 12 13  2  0
 13 14  1  0
 14 15  1  0
 15 16  2  0
 16 17  1  0
 17 18  2  0
 18 19  1  0
 19 20  2  0
 14 21  2  0
 21 22  1  0
 22 23  1  0
 22 24  2  0
 24 25  1  0
 25 26  3  0
  6 27  1  0
 27 28  2  0
 28  3  1  0
 24 12  1  0
 20 15  1  0
M  END
>  <Binding energies>  (17) 
[-8.56]

>  <Ligand effiencies>  (17) 
[-0.29517241379310344]

>  <Interactions>  (17) 
["V-B:MET:535:CE:9806, V-B:LEU:363:CD1:8160, V-B:TYR:539:CD2:9845, V-B:PRO:540:CA:9854, V-B:TYR:539:CE2:9847, V-B:ALA:541:CB:9863, V-B:PRO:540:N:9855, V-A:LEU:475:CD2:4258, V-B:TYR:539:CE1:9846, V-B:PRO:540:CB:9856, V-A:ILE:369:CG2:3236, V-B:TYR:539:CZ:9848, V-A:ASP:366:CB:3211, V-B:TYR:539:C:9838, V-B:PRO:540:CD:9858, H-A:TYR:531:OH:4795, V-A:TYR:539:CG:4872, V-A:PRO:540:N:4884, V-A:MET:535:CE:4835, H-B:TYR:539:OH:9849, V-B:TYR:539:CD1:9844, V-A:PRO:540:CB:4885, V-A:LEU:363:CD1:3188, V-A:ASP:366:CG:3212, V-A:PRO:540:CA:4883, V-B:TYR:539:CG:9843, H-A:ASP:366:OD1:3213, H-A:ASP:366:OD2:3214, V-A:TYR:539:CZ:4877, H-A:TYR:539:N:4870, V-A:ILE:538:CB:4862, V-A:ILE:538:CA:4860, V-A:TYR:539:CE1:4875, V-A:TYR:539:CD1:4873, V-A:ILE:538:C:4858"]

$$$$
3bd_Grossjean_2025
     RDKit          3D

 26 28  0  0  0  0  0  0  0  0999 V2000
  125.3830  124.3690   61.3260 C   0  0  0  0  0  0  0  0  0  0  0  0
  126.3000  123.6580   60.3320 C   0  0  0  0  0  0  0  0  0  0  0  0
  127.5040  123.1250   60.8060 C   0  0  0  0  0  0  0  0  0  0  0  0
  128.3730  122.4700   59.9270 C   0  0  0  0  0  0  0  0  0  0  0  0
  129.6760  121.8720   60.3690 C   0  0  0  0  0  0  0  0  0  0  0  0
  130.8450  122.6490   60.4100 C   0  0  0  0  0  0  0  0  0  0  0  0
  132.0570  122.0990   60.8180 C   0  0  0  0  0  0  0  0  0  0  0  0
  132.1180  120.7610   61.1930 C   0  0  0  0  0  0  0  0  0  0  0  0
  130.9750  119.9690   61.1590 C   0  0  0  0  0  0  0  0  0  0  0  0
  129.7650  120.5220   60.7490 C   0  0  0  0  0  0  0  0  0  0  0  0
  128.0580  122.3310   58.6120 N   0  0  0  0  0  0  0  0  0  0  0  0
  126.8950  122.8430   58.1350 C   0  0  0  0  0  0  0  0  0  0  0  0
  126.6040  122.6040   56.3900 S   0  0  0  0  0  0  0  0  0  0  0  0
  127.6260  123.8010   55.4790 C   0  0  0  0  0  0  0  0  0  0  0  0
  128.2150  124.8700   56.4010 C   0  0  0  0  0  0  0  0  0  0  0  0
  127.8450  126.0380   56.2750 O   0  0  0  0  0  0  0  0  0  0  0  0
  129.1290  124.4340   57.2940 N   0  0  0  0  0  0  0  0  0  0  0  0
  129.8200  125.1610   58.2810 C   0  0  0  0  0  0  0  0  0  0  0  0
  131.2110  125.1980   58.1570 C   0  0  0  0  0  0  0  0  0  0  0  0
  131.9810  125.8860   59.0910 C   0  0  0  0  0  0  0  0  0  0  0  0
  131.3590  126.5310   60.1570 C   0  0  0  0  0  0  0  0  0  0  0  0
  129.9740  126.4900   60.3000 C   0  0  0  0  0  0  0  0  0  0  0  0
  129.2020  125.8040   59.3670 C   0  0  0  0  0  0  0  0  0  0  0  0
  125.9770  123.5220   58.9650 C   0  0  0  0  0  0  0  0  0  0  0  0
  124.7240  124.0690   58.4370 C   0  0  0  0  0  0  0  0  0  0  0  0
  123.7330  124.4990   58.0220 N   0  0  0  0  0  0  0  0  0  0  0  0
  1  2  1  0
  2  3  2  0
  3  4  1  0
  4  5  1  0
  5  6  2  0
  6  7  1  0
  7  8  2  0
  8  9  1  0
  9 10  2  0
  4 11  2  0
 11 12  1  0
 12 13  1  0
 13 14  1  0
 14 15  1  0
 15 16  2  0
 15 17  1  0
 17 18  1  0
 18 19  2  0
 19 20  1  0
 20 21  2  0
 21 22  1  0
 22 23  2  0
 12 24  2  0
 24 25  1  0
 25 26  3  0
 24  2  1  0
 10  5  1  0
 23 18  1  0
M  END
>  <Binding energies>  (18) 
[-7.38]

>  <Ligand effiencies>  (18) 
[-0.2733333333333333]

>  <Interactions>  (18) 
["V-B:MET:535:CE:9806, V-B:LEU:363:CD1:8160, V-A:TRP:381:CH2:3371, V-B:TYR:539:CD2:9845, V-B:PRO:540:CA:9854, V-B:TYR:539:CE2:9847, V-B:ALA:541:CB:9863, V-B:PRO:540:N:9855, V-A:LEU:475:CD2:4258, V-B:TYR:539:CE1:9846, V-B:PRO:540:CB:9856, H-B:TYR:539:N:9841, V-A:ILE:369:CG2:3236, V-B:TYR:539:CZ:9848, V-A:ASP:366:CB:3211, V-B:TYR:539:C:9838, H-B:TYR:531:OH:9766, H-B:TYR:539:OH:9849, V-B:TYR:539:CD1:9844, V-A:ASP:366:CG:3212"]

$$$$
3be_Grossjean_2025
     RDKit          3D

 27 29  0  0  0  0  0  0  0  0999 V2000
  130.2290  119.0030   61.0960 C   0  0  0  0  0  0  0  0  0  0  0  0
  130.2690  120.5180   61.1190 C   0  0  0  0  0  0  0  0  0  0  0  0
  131.4120  121.2140   61.5190 C   0  0  0  0  0  0  0  0  0  0  0  0
  131.3760  122.6080   61.5180 C   0  0  0  0  0  0  0  0  0  0  0  0
  130.2100  123.2680   61.1190 C   0  0  0  0  0  0  0  0  0  0  0  0
  129.1010  122.5100   60.7260 C   0  0  0  0  0  0  0  0  0  0  0  0
  127.9550  123.2320   60.3460 N   0  0  0  0  0  0  0  0  0  0  0  0
  126.8650  123.5380   61.0830 C   0  0  0  0  0  0  0  0  0  0  0  0
  126.7000  123.2070   62.2590 O   0  0  0  0  0  0  0  0  0  0  0  0
  125.7970  124.3580   60.3420 C   0  0  0  0  0  0  0  0  0  0  0  0
  125.2220  123.6380   58.7660 S   0  0  0  0  0  0  0  0  0  0  0  0
  126.4840  123.9080   57.5410 C   0  0  0  0  0  0  0  0  0  0  0  0
  127.4910  124.7110   57.9670 N   0  0  0  0  0  0  0  0  0  0  0  0
  128.5260  124.9990   57.1340 C   0  0  0  0  0  0  0  0  0  0  0  0
  129.5910  125.9060   57.6760 C   0  0  0  0  0  0  0  0  0  0  0  0
  129.3810  127.2910   57.7590 C   0  0  0  0  0  0  0  0  0  0  0  0
  130.3650  128.1380   58.2590 C   0  0  0  0  0  0  0  0  0  0  0  0
  131.5790  127.6090   58.6840 C   0  0  0  0  0  0  0  0  0  0  0  0
  131.8140  126.2410   58.6120 C   0  0  0  0  0  0  0  0  0  0  0  0
  130.8270  125.3970   58.1100 C   0  0  0  0  0  0  0  0  0  0  0  0
  128.5670  124.4800   55.8350 C   0  0  0  0  0  0  0  0  0  0  0  0
  127.5490  123.6310   55.3890 C   0  0  0  0  0  0  0  0  0  0  0  0
  127.6460  123.0740   53.9700 C   0  0  0  0  0  0  0  0  0  0  0  0
  126.4800  123.3190   56.2570 C   0  0  0  0  0  0  0  0  0  0  0  0
  125.4330  122.3890   55.8300 C   0  0  0  0  0  0  0  0  0  0  0  0
  124.6060  121.6540   55.4900 N   0  0  0  0  0  0  0  0  0  0  0  0
  129.1300  121.1450   60.7280 N   0  0  0  0  0  0  0  0  0  0  0  0
  1  2  1  0
  2  3  2  0
  3  4  1  0
  4  5  2  0
  5  6  1  0
  6  7  1  0
  7  8  1  0
  8  9  2  0
  8 10  1  0
 10 11  1  0
 11 12  1  0
 12 13  2  0
 13 14  1  0
 14 15  1  0
 15 16  2  0
 16 17  1  0
 17 18  2  0
 18 19  1  0
 19 20  2  0
 14 21  2  0
 21 22  1  0
 22 23  1  0
 22 24  2  0
 24 25  1  0
 25 26  3  0
  6 27  2  0
 27  2  1  0
 24 12  1  0
 20 15  1  0
M  END
>  <Binding energies>  (19) 
[-7.89]

>  <Ligand effiencies>  (19) 
[-0.28178571428571425]

>  <Interactions>  (19) 
["V-B:MET:535:CE:9806, V-A:TRP:381:CZ2:3369, V-B:LEU:363:CD1:8160, V-A:TRP:381:CH2:3371, V-B:TYR:539:CD2:9845, V-B:PRO:540:CA:9854, V-A:PRO:482:CG:4326, V-B:TYR:539:CE2:9847, V-A:PRO:482:CB:4325, V-B:ALA:541:CB:9863, V-B:PRO:540:N:9855, V-A:LEU:475:CD2:4258, V-B:TYR:539:CE1:9846, H-B:TYR:539:N:9841, H-B:ALA:541:N:9862, V-B:TYR:539:CZ:9848, V-A:ASP:366:CB:3211, V-B:PRO:540:CD:9858, V-B:TYR:539:CD1:9844, V-B:ILE:538:CG2:9834, V-A:ASP:366:CG:3212, V-B:ILE:538:CD1:9836, V-B:MET:535:CB:9803, V-B:MET:535:CG:9804"]

$$$$
3bf_Grossjean_2025
     RDKit          3D

 26 28  0  0  0  0  0  0  0  0999 V2000
  126.5050  122.3280   54.9860 C   0  0  0  0  0  0  0  0  0  0  0  0
  126.9930  123.2280   56.1180 C   0  0  0  0  0  0  0  0  0  0  0  0
  126.3750  123.1110   57.3670 C   0  0  0  0  0  0  0  0  0  0  0  0
  126.8020  123.9070   58.4360 C   0  0  0  0  0  0  0  0  0  0  0  0
  126.1960  123.8130   59.8050 C   0  0  0  0  0  0  0  0  0  0  0  0
  127.0100  123.6660   60.9390 C   0  0  0  0  0  0  0  0  0  0  0  0
  126.4550  123.5780   62.2130 C   0  0  0  0  0  0  0  0  0  0  0  0
  125.0740  123.6360   62.3690 C   0  0  0  0  0  0  0  0  0  0  0  0
  124.2460  123.7810   61.2610 C   0  0  0  0  0  0  0  0  0  0  0  0
  124.8050  123.8670   59.9890 C   0  0  0  0  0  0  0  0  0  0  0  0
  127.8160  124.7990   58.2800 N   0  0  0  0  0  0  0  0  0  0  0  0
  128.4080  124.9420   57.0680 C   0  0  0  0  0  0  0  0  0  0  0  0
  129.7070  126.1590   57.0500 S   0  0  0  0  0  0  0  0  0  0  0  0
  130.5740  126.0860   58.6540 C   0  0  0  0  0  0  0  0  0  0  0  0
  131.0960  124.6970   59.0510 C   0  0  0  0  0  0  0  0  0  0  0  0
  132.2650  124.3770   58.8270 O   0  0  0  0  0  0  0  0  0  0  0  0
  130.1890  123.9100   59.6700 N   0  0  0  0  0  0  0  0  0  0  0  0
  130.3400  122.5940   60.1450 C   0  0  0  0  0  0  0  0  0  0  0  0
  131.6310  122.1870   60.5000 C   0  0  0  0  0  0  0  0  0  0  0  0
  131.8440  120.8980   60.9920 C   0  0  0  0  0  0  0  0  0  0  0  0
  130.7480  120.0440   61.1200 C   0  0  0  0  0  0  0  0  0  0  0  0
  129.4840  120.4150   60.7940 N   0  0  0  0  0  0  0  0  0  0  0  0
  129.2920  121.6720   60.3170 C   0  0  0  0  0  0  0  0  0  0  0  0
  128.0410  124.1600   55.9520 C   0  0  0  0  0  0  0  0  0  0  0  0
  128.7360  124.2630   54.6650 C   0  0  0  0  0  0  0  0  0  0  0  0
  129.2820  124.3450   53.6480 N   0  0  0  0  0  0  0  0  0  0  0  0
  1  2  1  0
  2  3  2  0
  3  4  1  0
  4  5  1  0
  5  6  2  0
  6  7  1  0
  7  8  2  0
  8  9  1  0
  9 10  2  0
  4 11  2  0
 11 12  1  0
 12 13  1  0
 13 14  1  0
 14 15  1  0
 15 16  2  0
 15 17  1  0
 17 18  1  0
 18 19  2  0
 19 20  1  0
 20 21  2  0
 21 22  1  0
 22 23  2  0
 12 24  2  0
 24 25  1  0
 25 26  3  0
 24  2  1  0
 10  5  1  0
 23 18  1  0
M  END
>  <Binding energies>  (20) 
[-7.49]

>  <Ligand effiencies>  (20) 
[-0.27740740740740744]

>  <Interactions>  (20) 
["V-B:GLU:543:CD:9879, V-B:GLU:543:CG:9878, V-B:MET:535:CE:9806, V-B:ASN:362:C:8143, V-A:TRP:381:CH2:3371, V-B:TYR:539:CD2:9845, V-B:PRO:540:CA:9854, V-B:TYR:539:CE2:9847, V-B:ALA:541:CB:9863, V-B:PRO:540:N:9855, V-A:LEU:475:CD2:4258, V-B:TYR:539:CE1:9846, V-B:PRO:540:CB:9856, H-B:ALA:541:N:9862, V-A:ILE:369:CG2:3236, V-B:TYR:539:CZ:9848, V-B:ILE:538:CA:9831, H-A:TYR:531:OH:4795, H-B:TYR:539:OH:9849, V-B:TYR:539:CD1:9844, V-B:ASN:362:CA:8145, V-B:ASN:362:CB:8147, V-B:ILE:538:CD1:9836, H-A:ASN:370:ND2:3247"]

$$$$
3bg_Grossjean_2025
     RDKit          3D

 27 29  0  0  0  0  0  0  0  0999 V2000
  125.1290  124.2780   61.1190 C   0  0  0  0  0  0  0  0  0  0  0  0
  126.1350  123.6360   60.1660 C   0  0  0  0  0  0  0  0  0  0  0  0
  127.2960  123.0760   60.7090 C   0  0  0  0  0  0  0  0  0  0  0  0
  128.2420  122.4710   59.8710 C   0  0  0  0  0  0  0  0  0  0  0  0
  129.5050  121.8410   60.3920 C   0  0  0  0  0  0  0  0  0  0  0  0
  129.4990  120.5410   60.9250 C   0  0  0  0  0  0  0  0  0  0  0  0
  130.6690  119.9480   61.3910 C   0  0  0  0  0  0  0  0  0  0  0  0
  131.8690  120.6480   61.3340 C   0  0  0  0  0  0  0  0  0  0  0  0
  131.9030  121.9400   60.8230 C   0  0  0  0  0  0  0  0  0  0  0  0
  130.7300  122.5300   60.3600 C   0  0  0  0  0  0  0  0  0  0  0  0
  128.0340  122.4050   58.5290 N   0  0  0  0  0  0  0  0  0  0  0  0
  126.9110  122.9400   57.9860 C   0  0  0  0  0  0  0  0  0  0  0  0
  126.7440  122.7570   56.2170 S   0  0  0  0  0  0  0  0  0  0  0  0
  127.9190  123.8930   55.4110 C   0  0  0  0  0  0  0  0  0  0  0  0
  128.2190  125.1160   56.2830 C   0  0  0  0  0  0  0  0  0  0  0  0
  127.4720  126.0940   56.2470 O   0  0  0  0  0  0  0  0  0  0  0  0
  129.3280  125.0520   57.0400 N   0  0  0  0  0  0  0  0  0  0  0  0
  129.9010  126.1620   57.8030 C   0  0  0  0  0  0  0  0  0  0  0  0
  131.0720  125.7110   58.6670 C   0  0  0  0  0  0  0  0  0  0  0  0
  132.1690  125.0700   58.0800 C   0  0  0  0  0  0  0  0  0  0  0  0
  133.2340  124.6490   58.8700 C   0  0  0  0  0  0  0  0  0  0  0  0
  133.2070  124.8800   60.2450 C   0  0  0  0  0  0  0  0  0  0  0  0
  132.1280  125.5360   60.8330 C   0  0  0  0  0  0  0  0  0  0  0  0
  131.0620  125.9570   60.0420 C   0  0  0  0  0  0  0  0  0  0  0  0
  125.9290  123.5790   58.7710 C   0  0  0  0  0  0  0  0  0  0  0  0
  124.7190  124.1500   58.1740 C   0  0  0  0  0  0  0  0  0  0  0  0
  123.7640  124.6000   57.7030 N   0  0  0  0  0  0  0  0  0  0  0  0
  1  2  1  0
  2  3  2  0
  3  4  1  0
  4  5  1  0
  5  6  2  0
  6  7  1  0
  7  8  2  0
  8  9  1  0
  9 10  2  0
  4 11  2  0
 11 12  1  0
 12 13  1  0
 13 14  1  0
 14 15  1  0
 15 16  2  0
 15 17  1  0
 17 18  1  0
 18 19  1  0
 19 20  2  0
 20 21  1  0
 21 22  2  0
 22 23  1  0
 23 24  2  0
 12 25  2  0
 25 26  1  0
 26 27  3  0
 25  2  1  0
 10  5  1  0
 24 19  1  0
M  END
>  <Binding energies>  (21) 
[-8.36]

>  <Ligand effiencies>  (21) 
[-0.29857142857142854]

>  <Interactions>  (21) 
["V-B:LEU:363:CD1:8160, V-B:TYR:539:CD2:9845, V-B:PRO:540:CA:9854, V-B:TYR:539:CE2:9847, V-B:PRO:540:C:9852, V-B:ALA:541:CB:9863, V-B:PRO:540:N:9855, V-A:LEU:475:CD2:4258, V-B:TYR:539:CE1:9846, V-B:PRO:540:CB:9856, V-A:ILE:369:CG2:3236, V-B:TYR:539:CZ:9848, V-A:ILE:369:CB:3235, V-A:ASP:366:CB:3211, V-B:TYR:539:C:9838, H-B:TYR:531:OH:9766, H-B:TYR:539:OH:9849, V-B:TYR:539:CD1:9844, V-A:ASP:366:CA:3209, V-A:ASP:366:CG:3212, V-A:ASP:366:C:3207"]

$$$$
3ca_Grossjean_2025
     RDKit          3D

 31 33  0  0  0  0  0  0  0  0999 V2000
  127.9960  124.0850   55.5250 C   0  0  0  0  0  0  0  0  0  0  0  0
  127.2200  122.8790   54.9900 C   0  0  0  0  0  0  0  0  0  0  0  0
  126.8810  122.0170   56.0690 O   0  0  0  0  0  0  0  0  0  0  0  0
  125.8410  122.3010   56.8940 C   0  0  0  0  0  0  0  0  0  0  0  0
  124.6590  122.1070   56.5910 O   0  0  0  0  0  0  0  0  0  0  0  0
  126.2700  122.8700   58.2160 C   0  0  0  0  0  0  0  0  0  0  0  0
  127.5720  122.6290   58.6740 C   0  0  0  0  0  0  0  0  0  0  0  0
  127.9990  123.1430   59.8960 C   0  0  0  0  0  0  0  0  0  0  0  0
  127.1330  123.9000   60.6870 C   0  0  0  0  0  0  0  0  0  0  0  0
  127.6660  124.3720   61.9020 N   0  0  0  0  0  0  0  0  0  0  0  0
  128.9540  124.5700   62.2580 C   0  0  0  0  0  0  0  0  0  0  0  0
  129.9310  124.3790   61.5350 O   0  0  0  0  0  0  0  0  0  0  0  0
  129.1650  125.0970   63.6820 C   0  0  0  0  0  0  0  0  0  0  0  0
  129.4790  126.8920   63.7440 S   0  0  0  0  0  0  0  0  0  0  0  0
  128.7850  127.5780   65.2420 C   0  0  0  0  0  0  0  0  0  0  0  0
  127.9190  128.6080   65.0700 N   0  0  0  0  0  0  0  0  0  0  0  0
  127.3400  129.1630   66.1580 C   0  0  0  0  0  0  0  0  0  0  0  0
  126.3710  130.2950   65.8820 C   0  0  0  0  0  0  0  0  0  0  0  0
  127.6100  128.7290   67.4530 C   0  0  0  0  0  0  0  0  0  0  0  0
  128.5150  127.6790   67.6580 C   0  0  0  0  0  0  0  0  0  0  0  0
  128.7840  127.2570   69.0660 C   0  0  0  0  0  0  0  0  0  0  0  0
  128.1310  126.1400   69.6010 C   0  0  0  0  0  0  0  0  0  0  0  0
  128.3680  125.7440   70.9150 C   0  0  0  0  0  0  0  0  0  0  0  0
  129.2590  126.4700   71.7030 C   0  0  0  0  0  0  0  0  0  0  0  0
  129.9110  127.5870   71.1880 C   0  0  0  0  0  0  0  0  0  0  0  0
  129.6710  127.9800   69.8740 C   0  0  0  0  0  0  0  0  0  0  0  0
  129.1170  127.0770   66.5240 C   0  0  0  0  0  0  0  0  0  0  0  0
  130.0320  125.9410   66.6730 C   0  0  0  0  0  0  0  0  0  0  0  0
  130.7550  125.0450   66.7910 N   0  0  0  0  0  0  0  0  0  0  0  0
  125.8300  124.1520   60.2320 C   0  0  0  0  0  0  0  0  0  0  0  0
  125.4050  123.6390   59.0090 C   0  0  0  0  0  0  0  0  0  0  0  0
  1  2  1  0
  2  3  1  0
  3  4  1  0
  4  5  2  0
  4  6  1  0
  6  7  2  0
  7  8  1  0
  8  9  2  0
  9 10  1  0
 10 11  1  0
 11 12  2  0
 11 13  1  0
 13 14  1  0
 14 15  1  0
 15 16  2  0
 16 17  1  0
 17 18  1  0
 17 19  2  0
 19 20  1  0
 20 21  1  0
 21 22  2  0
 22 23  1  0
 23 24  2  0
 24 25  1  0
 25 26  2  0
 20 27  2  0
 27 28  1  0
 28 29  3  0
  9 30  1  0
 30 31  2  0
 31  6  1  0
 27 15  1  0
 26 21  1  0
M  END
>  <Binding energies>  (22) 
[-8.59]

>  <Ligand effiencies>  (22) 
[-0.2684375]

>  <Interactions>  (22) 
["V-A:HIS:456:CE1:4069, V-A:GLU:543:CB:4906, V-A:GLU:543:CG:4907, V-A:HIS:456:CD2:4067, V-B:GLU:543:CD:9879, V-A:GLU:543:CD:4908, V-B:HIS:456:CE1:9041, V-B:GLU:543:CB:9877, V-B:GLU:543:CG:9878, V-B:MET:535:CE:9806, V-B:TYR:539:CD2:9845, V-B:PRO:540:CA:9854, V-B:TYR:539:CE2:9847, V-B:PRO:540:N:9855, V-B:TYR:539:CE1:9846, V-B:PRO:540:CB:9856, H-B:TYR:539:N:9841, V-B:TYR:539:CZ:9848, V-B:TYR:539:C:9838, V-B:PRO:540:CD:9858, V-B:TYR:539:CD1:9844, H-A:TYR:484:OH:4347, H-B:GLU:543:OE2:9881"]

$$$$
3ce_Grossjean_2025
     RDKit          3D

 27 29  0  0  0  0  0  0  0  0999 V2000
  131.6710  133.2180   56.7280 C   0  0  0  0  0  0  0  0  0  0  0  0
  130.5730  132.2270   57.0640 C   0  0  0  0  0  0  0  0  0  0  0  0
  129.6030  132.5090   58.0300 C   0  0  0  0  0  0  0  0  0  0  0  0
  128.6170  131.5540   58.2790 C   0  0  0  0  0  0  0  0  0  0  0  0
  128.6240  130.3530   57.5670 C   0  0  0  0  0  0  0  0  0  0  0  0
  129.6300  130.1300   56.6200 C   0  0  0  0  0  0  0  0  0  0  0  0
  129.5760  128.9120   55.9210 N   0  0  0  0  0  0  0  0  0  0  0  0
  128.4810  128.2160   55.5390 C   0  0  0  0  0  0  0  0  0  0  0  0
  127.3170  128.5590   55.7500 O   0  0  0  0  0  0  0  0  0  0  0  0
  128.7540  126.9160   54.7840 C   0  0  0  0  0  0  0  0  0  0  0  0
  129.5010  125.6520   55.8560 S   0  0  0  0  0  0  0  0  0  0  0  0
  128.1530  124.6430   56.4250 C   0  0  0  0  0  0  0  0  0  0  0  0
  127.6760  123.7820   55.4930 N   0  0  0  0  0  0  0  0  0  0  0  0
  126.6600  122.9570   55.8330 C   0  0  0  0  0  0  0  0  0  0  0  0
  126.1840  122.0120   54.7470 C   0  0  0  0  0  0  0  0  0  0  0  0
  126.0770  122.9680   57.0980 C   0  0  0  0  0  0  0  0  0  0  0  0
  126.5380  123.8680   58.0670 C   0  0  0  0  0  0  0  0  0  0  0  0
  125.8650  123.8600   59.4010 C   0  0  0  0  0  0  0  0  0  0  0  0
  126.5870  123.5210   60.5510 C   0  0  0  0  0  0  0  0  0  0  0  0
  125.9650  123.5050   61.7970 C   0  0  0  0  0  0  0  0  0  0  0  0
  124.6130  123.8220   61.8970 C   0  0  0  0  0  0  0  0  0  0  0  0
  123.8780  124.1510   60.7600 C   0  0  0  0  0  0  0  0  0  0  0  0
  124.5030  124.1670   59.5170 C   0  0  0  0  0  0  0  0  0  0  0  0
  127.6110  124.7320   57.7300 C   0  0  0  0  0  0  0  0  0  0  0  0
  128.1460  125.6850   58.7070 C   0  0  0  0  0  0  0  0  0  0  0  0
  128.5670  126.4360   59.4800 N   0  0  0  0  0  0  0  0  0  0  0  0
  130.5940  131.0630   56.3650 N   0  0  0  0  0  0  0  0  0  0  0  0
  1  2  1  0
  2  3  2  0
  3  4  1  0
  4  5  2  0
  5  6  1  0
  6  7  1  0
  7  8  1  0
  8  9  2  0
  8 10  1  0
 10 11  1  0
 11 12  1  0
 12 13  2  0
 13 14  1  0
 14 15  1  0
 14 16  2  0
 16 17  1  0
 17 18  1  0
 18 19  2  0
 19 20  1  0
 20 21  2  0
 21 22  1  0
 22 23  2  0
 17 24  2  0
 24 25  1  0
 25 26  3  0
  6 27  2  0
 27  2  1  0
 24 12  1  0
 23 18  1  0
M  END
>  <Binding energies>  (23) 
[-8.33]

>  <Ligand effiencies>  (23) 
[-0.2975]

>  <Interactions>  (23) 
["V-B:MET:535:CE:9806, V-B:ASP:366:CG:8184, V-B:LEU:363:CA:8156, V-B:ASN:362:C:8143, V-B:PRO:540:CA:9854, V-B:PRO:540:N:9855, V-B:TYR:539:CE1:9846, V-B:PRO:540:CB:9856, V-B:TYR:539:CZ:9848, V-B:ILE:538:CA:9831, V-A:TYR:539:C:4867, H-A:TYR:531:OH:4795, H-B:TYR:531:OH:9766, V-A:PRO:540:N:4884, V-A:MET:535:CE:4835, H-B:TYR:539:OH:9849, V-B:TYR:539:CD1:9844, V-A:TYR:531:CZ:4794, V-B:ASN:362:CA:8145, V-B:ILE:538:CG2:9834, V-B:ASN:362:CB:8147, V-A:PRO:540:CB:4885, V-A:LEU:363:CD1:3188, V-A:PRO:540:CA:4883, V-B:ILE:538:CD1:9836, V-A:PRO:540:CD:4887, V-A:ILE:538:CB:4862, V-B:ILE:538:CB:9833, V-B:ILE:538:C:9829, H-A:MET:535:SD:4834"]

$$$$
3cj_Grossjean_2025
     RDKit          3D

 25 27  0  0  0  0  0  0  0  0999 V2000
  130.2800  121.0170   61.8640 C   0  0  0  0  0  0  0  0  0  0  0  0
  130.0370  122.0560   60.7870 C   0  0  0  0  0  0  0  0  0  0  0  0
  128.8750  122.0500   60.0180 C   0  0  0  0  0  0  0  0  0  0  0  0
  128.6810  123.0430   59.0480 C   0  0  0  0  0  0  0  0  0  0  0  0
  127.3940  123.0350   58.2930 C   0  0  0  0  0  0  0  0  0  0  0  0
  127.3000  122.3890   57.0550 C   0  0  0  0  0  0  0  0  0  0  0  0
  126.1030  122.3930   56.3440 C   0  0  0  0  0  0  0  0  0  0  0  0
  124.9940  123.0510   56.8690 C   0  0  0  0  0  0  0  0  0  0  0  0
  125.0740  123.7060   58.0950 C   0  0  0  0  0  0  0  0  0  0  0  0
  126.2730  123.7000   58.8040 C   0  0  0  0  0  0  0  0  0  0  0  0
  129.7000  124.0100   58.8600 C   0  0  0  0  0  0  0  0  0  0  0  0
  129.5680  125.0570   57.8420 C   0  0  0  0  0  0  0  0  0  0  0  0
  129.4620  125.8840   57.0390 N   0  0  0  0  0  0  0  0  0  0  0  0
  130.8430  123.9430   59.6880 C   0  0  0  0  0  0  0  0  0  0  0  0
  132.1310  125.1710   59.6490 S   0  0  0  0  0  0  0  0  0  0  0  0
  133.5680  124.3650   60.4250 C   0  0  0  0  0  0  0  0  0  0  0  0
  133.3640  124.1630   61.9300 C   0  0  0  0  0  0  0  0  0  0  0  0
  133.2220  123.0220   62.3760 O   0  0  0  0  0  0  0  0  0  0  0  0
  133.3960  125.2890   62.6750 N   0  0  0  0  0  0  0  0  0  0  0  0
  133.3720  125.3670   64.0580 C   0  0  0  0  0  0  0  0  0  0  0  0
  134.3710  125.1900   64.8950 N   0  0  0  0  0  0  0  0  0  0  0  0
  133.9930  125.3720   66.1440 C   0  0  0  0  0  0  0  0  0  0  0  0
  132.6570  125.7060   66.3420 C   0  0  0  0  0  0  0  0  0  0  0  0
  131.8590  125.7810   64.7990 S   0  0  0  0  0  0  0  0  0  0  0  0
  131.0030  122.9900   60.6400 N   0  0  0  0  0  0  0  0  0  0  0  0
  1  2  1  0
  2  3  2  0
  3  4  1  0
  4  5  1  0
  5  6  2  0
  6  7  1  0
  7  8  2  0
  8  9  1  0
  9 10  2  0
  4 11  2  0
 11 12  1  0
 12 13  3  0
 11 14  1  0
 14 15  1  0
 15 16  1  0
 16 17  1  0
 17 18  2  0
 17 19  1  0
 19 20  1  0
 20 21  2  0
 21 22  1  0
 22 23  2  0
 23 24  1  0
 14 25  2  0
 25  2  1  0
 10  5  1  0
 24 20  1  0
M  END
>  <Binding energies>  (24) 
[-8.12]

>  <Ligand effiencies>  (24) 
[-0.3123076923076923]

>  <Interactions>  (24) 
["V-A:HIS:456:CE1:4069, V-B:LEU:363:CD1:8160, V-B:TYR:539:CD2:9845, V-B:PRO:540:CA:9854, V-B:TYR:539:CE2:9847, V-B:ALA:541:CB:9863, V-B:PRO:540:N:9855, V-A:LEU:475:CD2:4258, V-B:TYR:539:CE1:9846, V-B:PRO:540:CB:9856, V-A:ILE:369:CG2:3236, V-B:TYR:539:CZ:9848, V-A:ILE:369:CB:3235, V-B:TYR:539:C:9838, V-B:PRO:540:CD:9858, V-A:ARG:545:CZ:4926, H-A:TYR:531:OH:4795, H-B:TYR:539:OH:9849, V-B:TYR:539:CD1:9844, H-A:GLY:454:N:4049, V-A:ASP:366:CA:3209, V-A:ASP:366:CG:3212, V-B:TYR:539:CG:9843, H-A:ARG:545:NH1:4927, V-A:ILE:369:CD1:3238, H-A:ASP:366:OD1:3213, H-A:ASP:366:OD2:3214, H-A:ARG:545:NE:4924, V-A:ARG:545:CD:4923, V-A:ARG:545:CG:4922"]

$$$$
4ba_Grossjean_2025
     RDKit          3D

 28 30  0  0  0  0  0  0  0  0999 V2000
  124.6280  124.1860   56.9880 C   0  0  0  0  0  0  0  0  0  0  0  0
  125.0190  123.1810   55.8880 C   0  0  0  0  0  0  0  0  0  0  0  0
  126.4760  122.6770   55.9500 C   0  0  0  0  0  0  0  0  0  0  0  0
  126.9220  121.9930   55.0260 O   0  0  0  0  0  0  0  0  0  0  0  0
  127.2950  123.0550   57.1500 C   0  0  0  0  0  0  0  0  0  0  0  0
  127.2780  122.2300   58.2820 C   0  0  0  0  0  0  0  0  0  0  0  0
  128.0260  122.5570   59.4090 C   0  0  0  0  0  0  0  0  0  0  0  0
  128.8090  123.7120   59.4270 C   0  0  0  0  0  0  0  0  0  0  0  0
  129.5180  123.9520   60.6200 N   0  0  0  0  0  0  0  0  0  0  0  0
  129.7590  123.1300   61.6710 C   0  0  0  0  0  0  0  0  0  0  0  0
  129.3270  121.9800   61.7640 O   0  0  0  0  0  0  0  0  0  0  0  0
  130.5700  123.7090   62.7440 C   0  0  0  0  0  0  0  0  0  0  0  0
  132.3060  123.4120   62.8010 S   0  0  0  0  0  0  0  0  0  0  0  0
  132.4620  124.3320   64.2790 C   0  0  0  0  0  0  0  0  0  0  0  0
  133.6410  124.4870   64.8790 N   0  0  0  0  0  0  0  0  0  0  0  0
  133.6370  125.2180   66.0170 C   0  0  0  0  0  0  0  0  0  0  0  0
  134.9900  125.3750   66.6890 C   0  0  0  0  0  0  0  0  0  0  0  0
  132.4940  125.7960   66.5610 C   0  0  0  0  0  0  0  0  0  0  0  0
  131.2480  125.6370   65.9340 C   0  0  0  0  0  0  0  0  0  0  0  0
  130.0180  126.2940   66.5690 C   0  0  0  0  0  0  0  0  0  0  0  0
  129.3860  127.1290   65.7410 F   0  0  0  0  0  0  0  0  0  0  0  0
  129.1430  125.3570   66.9360 F   0  0  0  0  0  0  0  0  0  0  0  0
  130.3860  126.9970   67.6410 F   0  0  0  0  0  0  0  0  0  0  0  0
  131.2170  124.8650   64.7330 C   0  0  0  0  0  0  0  0  0  0  0  0
  130.1520  124.4840   63.8390 C   0  0  0  0  0  0  0  0  0  0  0  0
  128.8460  124.8510   64.0440 N   0  0  0  0  0  0  0  0  0  0  0  0
  128.8270  124.5470   58.3000 C   0  0  0  0  0  0  0  0  0  0  0  0
  128.0770  124.2190   57.1740 C   0  0  0  0  0  0  0  0  0  0  0  0
  1  2  1  0
  2  3  1  0
  3  4  2  0
  3  5  1  0
  5  6  2  0
  6  7  1  0
  7  8  2  0
  8  9  1  0
  9 10  1  0
 10 11  2  0
 10 12  1  0
 12 13  1  0
 13 14  1  0
 14 15  2  0
 15 16  1  0
 16 17  1  0
 16 18  2  0
 18 19  1  0
 19 20  1  0
 20 21  1  0
 20 22  1  0
 20 23  1  0
 19 24  2  0
 24 25  1  0
 25 26  1  0
  8 27  1  0
 27 28  2  0
 28  5  1  0
 25 12  2  0
 24 14  1  0
M  END
>  <Binding energies>  (25) 
[-7.5]

>  <Ligand effiencies>  (25) 
[-0.24193548387096775]

>  <Interactions>  (25) 
["V-A:HIS:456:CE1:4069, V-B:GLU:543:CD:9879, V-A:GLU:543:CD:4908, V-B:GLU:543:CB:9877, V-B:GLU:543:CG:9878, V-B:MET:535:CE:9806, V-B:LEU:363:CD1:8160, V-B:TYR:539:CD2:9845, V-B:PRO:540:CA:9854, V-B:TYR:539:CE2:9847, V-B:PRO:540:N:9855, V-B:TYR:539:CE1:9846, V-B:PRO:540:CB:9856, H-B:TYR:539:N:9841, H-B:ALA:541:N:9862, V-B:TYR:539:CZ:9848, V-B:TYR:539:C:9838, V-B:PRO:540:CD:9858, V-A:ARG:545:CZ:4926, V-B:TYR:539:CD1:9844, H-A:GLY:454:N:4049, H-A:TYR:484:OH:4347, V-B:TYR:539:CG:9843, V-A:GLY:454:CA:4048, V-B:TYR:531:CZ:9765, V-B:TYR:531:CE2:9764, V-A:ARG:545:CD:4923, V-A:ILE:455:C:4051, V-A:ARG:545:CG:4922, H-B:GLU:543:OE1:9880, H-B:GLU:543:OE2:9881, V-A:GLY:453:C:4041, V-A:GLY:453:CA:4043"]

$$$$
4bb_Grossjean_2025
     RDKit          3D

 27 29  0  0  0  0  0  0  0  0999 V2000
  127.2350  122.8330   54.3460 C   0  0  0  0  0  0  0  0  0  0  0  0
  126.6890  122.4360   55.7200 C   0  0  0  0  0  0  0  0  0  0  0  0
  125.6270  121.8130   55.7640 O   0  0  0  0  0  0  0  0  0  0  0  0
  127.4690  122.8350   56.9370 C   0  0  0  0  0  0  0  0  0  0  0  0
  127.3770  122.0570   58.0970 C   0  0  0  0  0  0  0  0  0  0  0  0
  128.0900  122.4060   59.2410 C   0  0  0  0  0  0  0  0  0  0  0  0
  128.9130  123.5330   59.2440 C   0  0  0  0  0  0  0  0  0  0  0  0
  129.5860  123.7950   60.4540 N   0  0  0  0  0  0  0  0  0  0  0  0
  129.7170  123.0260   61.5630 C   0  0  0  0  0  0  0  0  0  0  0  0
  129.2060  121.9140   61.6970 O   0  0  0  0  0  0  0  0  0  0  0  0
  130.5020  123.6220   62.6470 C   0  0  0  0  0  0  0  0  0  0  0  0
  132.2250  123.2810   62.7860 S   0  0  0  0  0  0  0  0  0  0  0  0
  132.3500  124.2570   64.2310 C   0  0  0  0  0  0  0  0  0  0  0  0
  133.5100  124.4120   64.8670 N   0  0  0  0  0  0  0  0  0  0  0  0
  133.4820  125.1900   65.9730 C   0  0  0  0  0  0  0  0  0  0  0  0
  134.8140  125.3550   66.6820 C   0  0  0  0  0  0  0  0  0  0  0  0
  132.3320  125.8110   66.4540 C   0  0  0  0  0  0  0  0  0  0  0  0
  131.1070  125.6510   65.7880 C   0  0  0  0  0  0  0  0  0  0  0  0
  129.8690  126.3540   66.3550 C   0  0  0  0  0  0  0  0  0  0  0  0
  128.9140  125.5020   66.7370 F   0  0  0  0  0  0  0  0  0  0  0  0
  130.2100  127.0760   67.4230 F   0  0  0  0  0  0  0  0  0  0  0  0
  129.3410  127.1560   65.4310 F   0  0  0  0  0  0  0  0  0  0  0  0
  131.1020  124.8360   64.6160 C   0  0  0  0  0  0  0  0  0  0  0  0
  130.0630  124.4500   63.6940 C   0  0  0  0  0  0  0  0  0  0  0  0
  128.7630  124.8650   63.8270 N   0  0  0  0  0  0  0  0  0  0  0  0
  129.0050  124.3220   58.0870 C   0  0  0  0  0  0  0  0  0  0  0  0
  128.2890  123.9720   56.9450 C   0  0  0  0  0  0  0  0  0  0  0  0
  1  2  1  0
  2  3  2  0
  2  4  1  0
  4  5  2  0
  5  6  1  0
  6  7  2  0
  7  8  1  0
  8  9  1  0
  9 10  2  0
  9 11  1  0
 11 12  1  0
 12 13  1  0
 13 14  2  0
 14 15  1  0
 15 16  1  0
 15 17  2  0
 17 18  1  0
 18 19  1  0
 19 20  1  0
 19 21  1  0
 19 22  1  0
 18 23  2  0
 23 24  1  0
 24 25  1  0
  7 26  1  0
 26 27  2  0
 27  4  1  0
 24 11  2  0
 23 13  1  0
M  END
>  <Binding energies>  (26) 
[-7.47]

>  <Ligand effiencies>  (26) 
[-0.249]

>  <Interactions>  (26) 
["V-A:HIS:456:CE1:4069, V-B:GLU:543:CD:9879, V-A:GLU:543:CD:4908, V-B:GLU:543:CB:9877, V-B:GLU:543:CG:9878, V-B:MET:535:CE:9806, V-B:TYR:539:CD2:9845, V-B:PRO:540:CA:9854, V-B:TYR:539:CE2:9847, V-B:PRO:540:N:9855, V-B:TYR:539:CE1:9846, V-B:PRO:540:CB:9856, H-B:TYR:539:N:9841, H-B:ALA:541:N:9862, V-B:TYR:539:CZ:9848, V-B:TYR:539:C:9838, V-B:PRO:540:CD:9858, V-A:ARG:545:CZ:4926, V-B:TYR:539:CD1:9844, H-A:GLY:454:N:4049, H-A:TYR:484:OH:4347, V-B:TYR:539:CA:9840, V-B:TYR:539:CG:9843, V-A:GLY:454:CA:4048, V-A:ARG:545:CD:4923, V-A:ILE:455:C:4051, V-A:ARG:545:CG:4922, H-B:GLU:543:OE1:9880, H-B:GLU:543:OE2:9881, V-A:GLY:453:C:4041, V-A:GLY:453:CA:4043, V-B:MET:535:CB:9803"]

$$$$
4bd_Grossjean_2025
     RDKit          3D

 24 26  0  0  0  0  0  0  0  0999 V2000
  126.7870  122.0000   54.7730 C   0  0  0  0  0  0  0  0  0  0  0  0
  126.7430  123.2360   55.6540 C   0  0  0  0  0  0  0  0  0  0  0  0
  125.7430  123.4020   56.6090 C   0  0  0  0  0  0  0  0  0  0  0  0
  125.7130  124.5510   57.4150 C   0  0  0  0  0  0  0  0  0  0  0  0
  124.5910  124.6910   58.4500 C   0  0  0  0  0  0  0  0  0  0  0  0
  123.7530  125.6940   58.1780 F   0  0  0  0  0  0  0  0  0  0  0  0
  123.8720  123.5700   58.4910 F   0  0  0  0  0  0  0  0  0  0  0  0
  125.1150  124.9230   59.6530 F   0  0  0  0  0  0  0  0  0  0  0  0
  126.7410  125.5190   57.2100 C   0  0  0  0  0  0  0  0  0  0  0  0
  127.0310  126.7890   57.8300 C   0  0  0  0  0  0  0  0  0  0  0  0
  126.2650  127.3100   58.8400 N   0  0  0  0  0  0  0  0  0  0  0  0
  128.1630  127.4370   57.3080 C   0  0  0  0  0  0  0  0  0  0  0  0
  128.7280  128.7350   57.6880 C   0  0  0  0  0  0  0  0  0  0  0  0
  128.1940  129.4220   58.5600 O   0  0  0  0  0  0  0  0  0  0  0  0
  129.8570  129.0930   57.0280 N   0  0  0  0  0  0  0  0  0  0  0  0
  130.6140  130.2760   57.1250 C   0  0  0  0  0  0  0  0  0  0  0  0
  130.0170  131.4290   56.6070 C   0  0  0  0  0  0  0  0  0  0  0  0
  130.6820  132.6510   56.6650 C   0  0  0  0  0  0  0  0  0  0  0  0
  131.9420  132.7230   57.2510 C   0  0  0  0  0  0  0  0  0  0  0  0
  132.5420  131.5850   57.7840 C   0  0  0  0  0  0  0  0  0  0  0  0
  131.8810  130.3610   57.7270 C   0  0  0  0  0  0  0  0  0  0  0  0
  128.9100  126.4840   56.0290 S   0  0  0  0  0  0  0  0  0  0  0  0
  127.7060  125.2280   56.1980 C   0  0  0  0  0  0  0  0  0  0  0  0
  127.7300  124.1350   55.4360 N   0  0  0  0  0  0  0  0  0  0  0  0
  1  2  1  0
  2  3  2  0
  3  4  1  0
  4  5  1  0
  5  6  1  0
  5  7  1  0
  5  8  1  0
  4  9  2  0
  9 10  1  0
 10 11  1  0
 10 12  2  0
 12 13  1  0
 13 14  2  0
 13 15  1  0
 15 16  1  0
 16 17  2  0
 17 18  1  0
 18 19  2  0
 19 20  1  0
 20 21  2  0
 12 22  1  0
 22 23  1  0
 23 24  2  0
 24  2  1  0
 23  9  1  0
 21 16  1  0
M  END
>  <Binding energies>  (27) 
[-6.54]

>  <Ligand effiencies>  (27) 
[-0.24222222222222223]

>  <Interactions>  (27) 
["V-B:MET:535:CE:9806, V-B:ASP:366:CG:8184, V-B:LEU:363:CA:8156, V-B:LEU:363:CD1:8160, V-B:PRO:540:CA:9854, V-B:TYR:539:CE1:9846, V-B:PRO:540:CB:9856, V-B:ILE:538:CA:9831, V-A:TYR:539:C:4867, H-A:TYR:531:OH:4795, H-B:TYR:531:OH:9766, V-A:PRO:540:N:4884, V-A:MET:535:CE:4835, V-B:TYR:539:CD1:9844, V-B:ASP:366:CB:8183, V-A:PRO:540:CB:4885, V-A:LEU:363:CD1:3188, V-A:TYR:531:CE2:4793, V-A:PRO:540:CA:4883, V-B:ILE:538:CD1:9836, H-B:ASP:366:OD2:8186, V-B:TYR:531:CZ:9765, V-B:TYR:531:CE2:9764, V-A:PRO:540:CD:4887, V-B:ILE:538:C:9829, V-B:LEU:363:CB:8158"]

$$$$
4be_Grossjean_2025
     RDKit          3D

 25 27  0  0  0  0  0  0  0  0999 V2000
  133.6890  131.3860   58.8970 C   0  0  0  0  0  0  0  0  0  0  0  0
  132.4610  131.4360   58.0070 C   0  0  0  0  0  0  0  0  0  0  0  0
  132.0860  132.6080   57.3450 C   0  0  0  0  0  0  0  0  0  0  0  0
  130.9430  132.5810   56.5450 C   0  0  0  0  0  0  0  0  0  0  0  0
  130.2110  131.3980   56.4280 C   0  0  0  0  0  0  0  0  0  0  0  0
  130.6460  130.2580   57.1130 C   0  0  0  0  0  0  0  0  0  0  0  0
  129.8610  129.1010   56.9590 N   0  0  0  0  0  0  0  0  0  0  0  0
  128.7010  128.7700   57.5780 C   0  0  0  0  0  0  0  0  0  0  0  0
  128.1380  129.4850   58.4090 O   0  0  0  0  0  0  0  0  0  0  0  0
  128.1430  127.4640   57.2140 C   0  0  0  0  0  0  0  0  0  0  0  0
  128.8970  126.5040   55.9420 S   0  0  0  0  0  0  0  0  0  0  0  0
  127.6940  125.2480   56.1150 C   0  0  0  0  0  0  0  0  0  0  0  0
  127.7240  124.1490   55.3640 N   0  0  0  0  0  0  0  0  0  0  0  0
  126.7410  123.2470   55.5900 C   0  0  0  0  0  0  0  0  0  0  0  0
  126.7910  122.0030   54.7220 C   0  0  0  0  0  0  0  0  0  0  0  0
  125.7400  123.4170   56.5430 C   0  0  0  0  0  0  0  0  0  0  0  0
  125.7030  124.5720   57.3390 C   0  0  0  0  0  0  0  0  0  0  0  0
  124.5850  124.7120   58.3770 C   0  0  0  0  0  0  0  0  0  0  0  0
  123.7750  125.7460   58.1350 F   0  0  0  0  0  0  0  0  0  0  0  0
  123.8340  123.6110   58.3830 F   0  0  0  0  0  0  0  0  0  0  0  0
  125.1120  124.8920   59.5880 F   0  0  0  0  0  0  0  0  0  0  0  0
  126.7240  125.5450   57.1220 C   0  0  0  0  0  0  0  0  0  0  0  0
  127.0030  126.8260   57.7250 C   0  0  0  0  0  0  0  0  0  0  0  0
  126.2220  127.3640   58.7160 N   0  0  0  0  0  0  0  0  0  0  0  0
  131.7600  130.2780   57.9020 N   0  0  0  0  0  0  0  0  0  0  0  0
  1  2  1  0
  2  3  2  0
  3  4  1  0
  4  5  2  0
  5  6  1  0
  6  7  1  0
  7  8  1  0
  8  9  2  0
  8 10  1  0
 10 11  1  0
 11 12  1  0
 12 13  2  0
 13 14  1  0
 14 15  1  0
 14 16  2  0
 16 17  1  0
 17 18  1  0
 18 19  1  0
 18 20  1  0
 18 21  1  0
 17 22  2  0
 22 23  1  0
 23 24  1  0
  6 25  2  0
 25  2  1  0
 23 10  2  0
 22 12  1  0
M  END
>  <Binding energies>  (28) 
[-6.75]

>  <Ligand effiencies>  (28) 
[-0.24107142857142858]

>  <Interactions>  (28) 
["V-B:MET:535:CE:9806, V-B:ASP:366:CG:8184, V-B:LEU:363:CA:8156, V-B:LEU:363:CD1:8160, V-B:PRO:540:CA:9854, V-B:TYR:539:CE1:9846, V-B:PRO:540:CB:9856, V-A:ASP:366:CB:3211, V-B:ILE:538:CA:9831, H-A:TYR:531:OH:4795, H-B:TYR:531:OH:9766, V-A:PRO:540:N:4884, V-A:MET:535:CE:4835, V-B:TYR:539:CD1:9844, V-B:ASP:366:CB:8183, V-A:LEU:363:CA:3184, V-A:PRO:540:CB:4885, V-A:LEU:363:CD1:3188, V-A:ASP:366:CG:3212, V-A:PRO:540:CA:4883, V-B:ILE:538:CD1:9836, H-B:ASP:366:OD2:8186, V-B:TYR:531:CZ:9765, V-B:TYR:531:CE2:9764, V-A:PRO:540:CD:4887, V-B:ILE:538:C:9829, V-B:LEU:363:CB:8158, V-B:LEU:363:CG:8159, V-A:LEU:363:CB:3186"]

$$$$
4bg_Grossjean_2025
     RDKit          3D

 25 27  0  0  0  0  0  0  0  0999 V2000
  134.4240  121.0660   62.5720 C   0  0  0  0  0  0  0  0  0  0  0  0
  133.0920  121.7870   62.6680 C   0  0  0  0  0  0  0  0  0  0  0  0
  132.8440  122.7030   63.6860 C   0  0  0  0  0  0  0  0  0  0  0  0
  131.6040  123.3590   63.7670 C   0  0  0  0  0  0  0  0  0  0  0  0
  131.3780  124.3590   64.9060 C   0  0  0  0  0  0  0  0  0  0  0  0
  130.9100  125.5350   64.4820 F   0  0  0  0  0  0  0  0  0  0  0  0
  130.4900  123.8640   65.7690 F   0  0  0  0  0  0  0  0  0  0  0  0
  132.5270  124.5910   65.5390 F   0  0  0  0  0  0  0  0  0  0  0  0
  130.6340  123.0440   62.7700 C   0  0  0  0  0  0  0  0  0  0  0  0
  129.2850  123.4970   62.5350 C   0  0  0  0  0  0  0  0  0  0  0  0
  128.6540  124.4050   63.3480 N   0  0  0  0  0  0  0  0  0  0  0  0
  128.6820  122.9330   61.4000 C   0  0  0  0  0  0  0  0  0  0  0  0
  127.3280  123.1420   60.8880 C   0  0  0  0  0  0  0  0  0  0  0  0
  126.3480  123.1240   61.6350 O   0  0  0  0  0  0  0  0  0  0  0  0
  127.2280  123.3910   59.5660 N   0  0  0  0  0  0  0  0  0  0  0  0
  125.9800  123.6150   58.8360 C   0  0  0  0  0  0  0  0  0  0  0  0
  126.0400  123.1770   57.3790 C   0  0  0  0  0  0  0  0  0  0  0  0
  127.1740  123.4530   56.6090 C   0  0  0  0  0  0  0  0  0  0  0  0
  127.2410  123.0180   55.2880 C   0  0  0  0  0  0  0  0  0  0  0  0
  126.1810  122.2960   54.7440 C   0  0  0  0  0  0  0  0  0  0  0  0
  125.0550  122.0020   55.5100 C   0  0  0  0  0  0  0  0  0  0  0  0
  124.9870  122.4380   56.8310 C   0  0  0  0  0  0  0  0  0  0  0  0
  129.7580  121.7890   60.6030 S   0  0  0  0  0  0  0  0  0  0  0  0
  131.0180  122.0910   61.7760 C   0  0  0  0  0  0  0  0  0  0  0  0
  132.1960  121.4700   61.7060 N   0  0  0  0  0  0  0  0  0  0  0  0
  1  2  1  0
  2  3  2  0
  3  4  1  0
  4  5  1  0
  5  6  1  0
  5  7  1  0
  5  8  1  0
  4  9  2  0
  9 10  1  0
 10 11  1  0
 10 12  2  0
 12 13  1  0
 13 14  2  0
 13 15  1  0
 15 16  1  0
 16 17  1  0
 17 18  2  0
 18 19  1  0
 19 20  2  0
 20 21  1  0
 21 22  2  0
 12 23  1  0
 23 24  1  0
 24 25  2  0
 25  2  1  0
 24  9  1  0
 22 17  1  0
M  END
>  <Binding energies>  (29) 
[-6.98]

>  <Ligand effiencies>  (29) 
[-0.2492857142857143]

>  <Interactions>  (29) 
["V-B:GLU:543:CD:9879, V-B:GLU:543:CG:9878, V-B:MET:535:CE:9806, V-B:LEU:363:CD1:8160, V-B:TYR:539:CD2:9845, V-B:PRO:540:CA:9854, V-B:TYR:539:CE2:9847, V-B:PRO:540:C:9852, V-B:ALA:541:CB:9863, V-B:PRO:540:N:9855, V-A:LEU:475:CD2:4258, V-B:TYR:539:CE1:9846, V-B:PRO:540:CB:9856, H-B:ALA:541:N:9862, V-A:ILE:369:CG2:3236, V-B:TYR:539:CZ:9848, V-B:PRO:540:CD:9858, V-B:ILE:538:CA:9831, V-B:PRO:540:CG:9857, V-B:TYR:539:CD1:9844, V-B:ILE:538:CG2:9834, V-A:TYR:484:CE1:4344, V-B:ILE:538:CD1:9836, V-A:TYR:484:CZ:4346, V-A:GLY:454:CA:4048, V-A:ILE:369:CD1:3238, H-B:GLU:543:OE2:9881, V-B:ILE:538:CB:9833, V-B:ILE:538:C:9829"]

$$$$
4ca_Grossjean_2025
     RDKit          3D

 34 37  0  0  0  0  0  0  0  0999 V2000
  123.8750  124.7020   57.7020 C   0  0  0  0  0  0  0  0  0  0  0  0
  124.8530  124.1060   56.6850 C   0  0  0  0  0  0  0  0  0  0  0  0
  125.2260  122.7980   57.0980 O   0  0  0  0  0  0  0  0  0  0  0  0
  126.5190  122.4940   57.3830 C   0  0  0  0  0  0  0  0  0  0  0  0
  127.2110  121.7450   56.6850 O   0  0  0  0  0  0  0  0  0  0  0  0
  127.0230  123.1610   58.6290 C   0  0  0  0  0  0  0  0  0  0  0  0
  126.1110  123.5230   59.6290 C   0  0  0  0  0  0  0  0  0  0  0  0
  126.5490  124.1390   60.7980 C   0  0  0  0  0  0  0  0  0  0  0  0
  127.9030  124.4140   60.9880 C   0  0  0  0  0  0  0  0  0  0  0  0
  128.2370  125.0310   62.2090 N   0  0  0  0  0  0  0  0  0  0  0  0
  129.4510  125.2720   62.7630 C   0  0  0  0  0  0  0  0  0  0  0  0
  130.5230  125.0080   62.2180 O   0  0  0  0  0  0  0  0  0  0  0  0
  129.4210  125.9020   64.0850 C   0  0  0  0  0  0  0  0  0  0  0  0
  130.3260  125.1990   65.4220 S   0  0  0  0  0  0  0  0  0  0  0  0
  129.8240  126.4820   66.4960 C   0  0  0  0  0  0  0  0  0  0  0  0
  130.2200  126.5190   67.7660 N   0  0  0  0  0  0  0  0  0  0  0  0
  129.7900  127.5630   68.5220 C   0  0  0  0  0  0  0  0  0  0  0  0
  130.2620  127.5810   69.9470 C   0  0  0  0  0  0  0  0  0  0  0  0
  131.4820  128.1820   70.2930 C   0  0  0  0  0  0  0  0  0  0  0  0
  131.9280  128.1980   71.6120 C   0  0  0  0  0  0  0  0  0  0  0  0
  131.1560  127.6090   72.6080 C   0  0  0  0  0  0  0  0  0  0  0  0
  129.9440  127.0040   72.2930 C   0  0  0  0  0  0  0  0  0  0  0  0
  129.5020  126.9900   70.9730 C   0  0  0  0  0  0  0  0  0  0  0  0
  128.9470  128.5520   68.0040 C   0  0  0  0  0  0  0  0  0  0  0  0
  128.5200  128.5200   66.6670 C   0  0  0  0  0  0  0  0  0  0  0  0
  127.5990  129.6380   66.1640 C   0  0  0  0  0  0  0  0  0  0  0  0
  127.4310  130.6170   67.0550 F   0  0  0  0  0  0  0  0  0  0  0  0
  128.1130  130.1840   65.0630 F   0  0  0  0  0  0  0  0  0  0  0  0
  126.3940  129.1400   65.8880 F   0  0  0  0  0  0  0  0  0  0  0  0
  128.9790  127.4390   65.8620 C   0  0  0  0  0  0  0  0  0  0  0  0
  128.7680  127.0820   64.4800 C   0  0  0  0  0  0  0  0  0  0  0  0
  127.9930  127.8320   63.6320 N   0  0  0  0  0  0  0  0  0  0  0  0
  128.8250  124.0510   59.9950 C   0  0  0  0  0  0  0  0  0  0  0  0
  128.3860  123.4320   58.8280 C   0  0  0  0  0  0  0  0  0  0  0  0
  1  2  1  0
  2  3  1  0
  3  4  1  0
  4  5  2  0
  4  6  1  0
  6  7  2  0
  7  8  1  0
  8  9  2  0
  9 10  1  0
 10 11  1  0
 11 12  2  0
 11 13  1  0
 13 14  1  0
 14 15  1  0
 15 16  2  0
 16 17  1  0
 17 18  1  0
 18 19  2  0
 19 20  1  0
 20 21  2  0
 21 22  1  0
 22 23  2  0
 17 24  2  0
 24 25  1  0
 25 26  1  0
 26 27  1  0
 26 28  1  0
 26 29  1  0
 25 30  2  0
 30 31  1  0
 31 32  1  0
  9 33  1  0
 33 34  2  0
 34  6  1  0
 31 13  2  0
 30 15  1  0
 23 18  1  0
M  END
>  <Binding energies>  (30) 
[-7.88]

>  <Ligand effiencies>  (30) 
[-0.21297297297297296]

>  <Interactions>  (30) 
["V-A:HIS:456:CE1:4069, V-A:HIS:456:CG:4065, V-A:GLU:543:CB:4906, V-A:GLU:543:CG:4907, V-A:HIS:456:CD2:4067, V-B:GLU:543:CD:9879, V-A:GLU:543:CD:4908, V-B:HIS:456:CE1:9041, V-B:GLU:543:CG:9878, V-B:MET:535:CE:9806, V-B:LEU:363:CA:8156, V-B:LEU:363:CD1:8160, V-B:PRO:540:CA:9854, V-B:TYR:539:CE2:9847, V-B:PRO:540:N:9855, V-B:PRO:540:CB:9856, H-B:TYR:539:N:9841, V-B:TYR:539:CZ:9848, V-B:TYR:539:C:9838, V-B:PRO:540:CD:9858, V-B:ASP:366:CB:8183, V-B:TYR:531:CZ:9765, V-B:TYR:531:CE2:9764, V-A:GLY:544:C:4912, V-B:TYR:484:CE1:9316, V-B:TYR:484:CZ:9318, V-A:ARG:545:CA:4919, V-A:ARG:545:CG:4922, H-B:GLU:543:OE1:9880, H-B:GLU:543:OE2:9881"]

$$$$
4cb_Grossjean_2025
     RDKit          3D

 33 36  0  0  0  0  0  0  0  0999 V2000
  127.1910  122.7500   54.7250 C   0  0  0  0  0  0  0  0  0  0  0  0
  127.6300  122.9610   56.0600 O   0  0  0  0  0  0  0  0  0  0  0  0
  126.9280  122.4690   57.1120 C   0  0  0  0  0  0  0  0  0  0  0  0
  126.0330  121.6250   56.9990 O   0  0  0  0  0  0  0  0  0  0  0  0
  127.3480  123.0530   58.4310 C   0  0  0  0  0  0  0  0  0  0  0  0
  126.8210  124.2870   58.8310 C   0  0  0  0  0  0  0  0  0  0  0  0
  127.1840  124.8500   60.0510 C   0  0  0  0  0  0  0  0  0  0  0  0
  128.0850  124.1960   60.8920 C   0  0  0  0  0  0  0  0  0  0  0  0
  128.3700  124.8490   62.1070 N   0  0  0  0  0  0  0  0  0  0  0  0
  129.5630  125.1480   62.6770 C   0  0  0  0  0  0  0  0  0  0  0  0
  130.6560  124.9190   62.1580 O   0  0  0  0  0  0  0  0  0  0  0  0
  129.4830  125.8020   63.9860 C   0  0  0  0  0  0  0  0  0  0  0  0
  130.3890  125.1610   65.3550 S   0  0  0  0  0  0  0  0  0  0  0  0
  129.8150  126.4430   66.3950 C   0  0  0  0  0  0  0  0  0  0  0  0
  130.1830  126.5200   67.6710 N   0  0  0  0  0  0  0  0  0  0  0  0
  129.6930  127.5580   68.3980 C   0  0  0  0  0  0  0  0  0  0  0  0
  130.1300  127.6210   69.8330 C   0  0  0  0  0  0  0  0  0  0  0  0
  129.3880  126.9790   70.8380 C   0  0  0  0  0  0  0  0  0  0  0  0
  129.7850  127.0360   72.1710 C   0  0  0  0  0  0  0  0  0  0  0  0
  130.9340  127.7380   72.5200 C   0  0  0  0  0  0  0  0  0  0  0  0
  131.6860  128.3860   71.5450 C   0  0  0  0  0  0  0  0  0  0  0  0
  131.2840  128.3280   70.2140 C   0  0  0  0  0  0  0  0  0  0  0  0
  128.8210  128.5010   67.8440 C   0  0  0  0  0  0  0  0  0  0  0  0
  128.4250  128.4280   66.5000 C   0  0  0  0  0  0  0  0  0  0  0  0
  127.4670  129.4960   65.9570 C   0  0  0  0  0  0  0  0  0  0  0  0
  126.2790  129.0010   65.6020 F   0  0  0  0  0  0  0  0  0  0  0  0
  127.2510  130.4220   66.8900 F   0  0  0  0  0  0  0  0  0  0  0  0
  127.9980  130.0710   64.8790 F   0  0  0  0  0  0  0  0  0  0  0  0
  128.9450  127.3520   65.7250 C   0  0  0  0  0  0  0  0  0  0  0  0
  128.7770  126.9630   64.3450 C   0  0  0  0  0  0  0  0  0  0  0  0
  127.9940  127.6680   63.4670 N   0  0  0  0  0  0  0  0  0  0  0  0
  128.6150  122.9580   60.5010 C   0  0  0  0  0  0  0  0  0  0  0  0
  128.2500  122.3960   59.2810 C   0  0  0  0  0  0  0  0  0  0  0  0
  1  2  1  0
  2  3  1  0
  3  4  2  0
  3  5  1  0
  5  6  2  0
  6  7  1  0
  7  8  2  0
  8  9  1  0
  9 10  1  0
 10 11  2  0
 10 12  1  0
 12 13  1  0
 13 14  1  0
 14 15  2  0
 15 16  1  0
 16 17  1  0
 17 18  2  0
 18 19  1  0
 19 20  2  0
 20 21  1  0
 21 22  2  0
 16 23  2  0
 23 24  1  0
 24 25  1  0
 25 26  1  0
 25 27  1  0
 25 28  1  0
 24 29  2  0
 29 30  1  0
 30 31  1  0
  8 32  1  0
 32 33  2  0
 33  5  1  0
 30 12  2  0
 29 14  1  0
 22 17  1  0
M  END
>  <Binding energies>  (31) 
[-7.63]

>  <Ligand effiencies>  (31) 
[-0.21194444444444444]

>  <Interactions>  (31) 
["V-A:HIS:456:CE1:4069, V-A:GLU:543:CB:4906, V-A:GLU:543:CG:4907, V-B:GLU:543:CD:9879, V-A:GLU:543:CD:4908, V-B:HIS:456:CE1:9041, V-B:GLU:543:CG:9878, V-B:MET:535:CE:9806, V-B:TYR:539:CD2:9845, V-B:PRO:540:CA:9854, V-B:TYR:539:CE2:9847, V-B:PRO:540:N:9855, V-B:TYR:539:CE1:9846, H-B:TYR:539:N:9841, V-B:TYR:539:C:9838, V-B:PRO:540:CD:9858, V-B:TYR:539:CD1:9844, V-B:TYR:539:CG:9843, V-A:GLY:544:C:4912, V-B:TYR:484:CE1:9316, V-B:TYR:484:CZ:9318, V-A:ARG:545:CA:4919, H-B:GLU:543:OE1:9880, H-B:GLU:543:OE2:9881"]

$$$$
4cc_Grossjean_2025
     RDKit          3D

 31 34  0  0  0  0  0  0  0  0999 V2000
  123.8840  130.9910   56.9750 C   0  0  0  0  0  0  0  0  0  0  0  0
  123.7020  131.8240   58.1150 O   0  0  0  0  0  0  0  0  0  0  0  0
  124.2020  131.4150   59.3360 C   0  0  0  0  0  0  0  0  0  0  0  0
  125.2500  130.4960   59.3030 C   0  0  0  0  0  0  0  0  0  0  0  0
  125.8200  130.0270   60.4840 C   0  0  0  0  0  0  0  0  0  0  0  0
  125.3390  130.4660   61.7190 C   0  0  0  0  0  0  0  0  0  0  0  0
  125.9870  129.9500   62.8570 N   0  0  0  0  0  0  0  0  0  0  0  0
  125.5450  129.8790   64.1360 C   0  0  0  0  0  0  0  0  0  0  0  0
  124.4270  130.2460   64.4990 O   0  0  0  0  0  0  0  0  0  0  0  0
  126.4980  129.3220   65.1000 C   0  0  0  0  0  0  0  0  0  0  0  0
  126.4040  129.7710   66.8020 S   0  0  0  0  0  0  0  0  0  0  0  0
  127.7650  128.7480   67.1940 C   0  0  0  0  0  0  0  0  0  0  0  0
  128.2220  128.6460   68.4400 N   0  0  0  0  0  0  0  0  0  0  0  0
  129.2780  127.8180   68.6490 C   0  0  0  0  0  0  0  0  0  0  0  0
  129.7730  127.7260   70.0630 C   0  0  0  0  0  0  0  0  0  0  0  0
  130.9000  128.4550   70.4790 C   0  0  0  0  0  0  0  0  0  0  0  0
  131.3660  128.3730   71.7880 C   0  0  0  0  0  0  0  0  0  0  0  0
  130.7100  127.5570   72.7040 C   0  0  0  0  0  0  0  0  0  0  0  0
  129.5940  126.8220   72.3180 C   0  0  0  0  0  0  0  0  0  0  0  0
  129.1320  126.9060   71.0070 C   0  0  0  0  0  0  0  0  0  0  0  0
  129.8810  127.1110   67.6040 C   0  0  0  0  0  0  0  0  0  0  0  0
  129.4090  127.2130   66.2860 C   0  0  0  0  0  0  0  0  0  0  0  0
  130.1130  126.4040   65.1900 C   0  0  0  0  0  0  0  0  0  0  0  0
  130.5010  127.1520   64.1540 F   0  0  0  0  0  0  0  0  0  0  0  0
  131.2020  125.8210   65.6900 F   0  0  0  0  0  0  0  0  0  0  0  0
  129.2890  125.4680   64.7200 F   0  0  0  0  0  0  0  0  0  0  0  0
  128.2950  128.0710   66.0560 C   0  0  0  0  0  0  0  0  0  0  0  0
  127.5520  128.4230   64.8710 C   0  0  0  0  0  0  0  0  0  0  0  0
  127.8510  127.9170   63.6320 N   0  0  0  0  0  0  0  0  0  0  0  0
  124.2920  131.4000   61.7600 C   0  0  0  0  0  0  0  0  0  0  0  0
  123.7270  131.8660   60.5770 C   0  0  0  0  0  0  0  0  0  0  0  0
  1  2  1  0
  2  3  1  0
  3  4  2  0
  4  5  1  0
  5  6  2  0
  6  7  1  0
  7  8  1  0
  8  9  2  0
  8 10  1  0
 10 11  1  0
 11 12  1  0
 12 13  2  0
 13 14  1  0
 14 15  1  0
 15 16  2  0
 16 17  1  0
 17 18  2  0
 18 19  1  0
 19 20  2  0
 14 21  2  0
 21 22  1  0
 22 23  1  0
 23 24  1  0
 23 25  1  0
 23 26  1  0
 22 27  2  0
 27 28  1  0
 28 29  1  0
  6 30  1  0
 30 31  2  0
 31  3  1  0
 28 10  2  0
 27 12  1  0
 20 15  1  0
M  END
>  <Binding energies>  (32) 
[-7.42]

>  <Ligand effiencies>  (32) 
[-0.21823529411764706]

>  <Interactions>  (32) 
["V-A:HIS:456:CE1:4069, V-A:GLU:543:CB:4906, V-A:GLU:543:CG:4907, V-B:GLU:543:CD:9879, V-A:GLU:543:CD:4908, V-B:HIS:456:CE1:9041, V-B:GLU:543:CG:9878, V-B:ASP:366:CG:8184, V-B:ASP:366:CA:8181, H-A:TYR:539:OH:4878, V-B:ASP:366:C:8179, V-B:ASP:366:CB:8183, V-B:TYR:531:CZ:9765, V-A:GLY:544:C:4912, V-A:TYR:539:CZ:4877, H-B:GLY:454:N:9021, H-B:ARG:545:NH2:9899, V-B:ARG:545:CZ:9897, H-B:GLU:543:OE1:9880, H-B:GLU:543:OE2:9881, H-A:GLU:543:OE1:4909, V-B:ILE:369:CG2:8208, V-B:ILE:369:CB:8207, V-B:TYR:531:CE1:9763, V-B:ASN:370:CB:8216, V-B:ILE:369:CD1:8210"]

$$$$
4ce_Grossjean_2025
     RDKit          3D

 30 33  0  0  0  0  0  0  0  0999 V2000
  124.7950  130.4240   58.1290 C   0  0  0  0  0  0  0  0  0  0  0  0
  124.5820  130.9840   59.5230 C   0  0  0  0  0  0  0  0  0  0  0  0
  123.6800  132.0240   59.7630 C   0  0  0  0  0  0  0  0  0  0  0  0
  123.5290  132.4830   61.0720 C   0  0  0  0  0  0  0  0  0  0  0  0
  124.2720  131.8970   62.0990 C   0  0  0  0  0  0  0  0  0  0  0  0
  125.1620  130.8620   61.7880 C   0  0  0  0  0  0  0  0  0  0  0  0
  125.8640  130.2960   62.8680 N   0  0  0  0  0  0  0  0  0  0  0  0
  125.4090  129.9880   64.1080 C   0  0  0  0  0  0  0  0  0  0  0  0
  124.2440  130.1580   64.4710 O   0  0  0  0  0  0  0  0  0  0  0  0
  126.4040  129.4230   65.0220 C   0  0  0  0  0  0  0  0  0  0  0  0
  126.3750  129.8400   66.7330 S   0  0  0  0  0  0  0  0  0  0  0  0
  127.7380  128.7970   67.0570 C   0  0  0  0  0  0  0  0  0  0  0  0
  128.2340  128.6650   68.2850 N   0  0  0  0  0  0  0  0  0  0  0  0
  129.2860  127.8180   68.4420 C   0  0  0  0  0  0  0  0  0  0  0  0
  129.8180  127.6880   69.8380 C   0  0  0  0  0  0  0  0  0  0  0  0
  130.9730  128.3840   70.2320 C   0  0  0  0  0  0  0  0  0  0  0  0
  131.4770  128.2620   71.5250 C   0  0  0  0  0  0  0  0  0  0  0  0
  130.8300  127.4420   72.4430 C   0  0  0  0  0  0  0  0  0  0  0  0
  129.6860  126.7410   72.0780 C   0  0  0  0  0  0  0  0  0  0  0  0
  129.1870  126.8630   70.7840 C   0  0  0  0  0  0  0  0  0  0  0  0
  129.8470  127.1270   67.3630 C   0  0  0  0  0  0  0  0  0  0  0  0
  129.3340  127.2630   66.0630 C   0  0  0  0  0  0  0  0  0  0  0  0
  129.9940  126.4750   64.9270 C   0  0  0  0  0  0  0  0  0  0  0  0
  130.2660  127.2240   63.8570 F   0  0  0  0  0  0  0  0  0  0  0  0
  131.1460  125.9520   65.3510 F   0  0  0  0  0  0  0  0  0  0  0  0
  129.1860  125.4920   64.5310 F   0  0  0  0  0  0  0  0  0  0  0  0
  128.2210  128.1360   65.8890 C   0  0  0  0  0  0  0  0  0  0  0  0
  127.4390  128.5150   64.7380 C   0  0  0  0  0  0  0  0  0  0  0  0
  127.6860  128.0290   63.4810 N   0  0  0  0  0  0  0  0  0  0  0  0
  125.3120  130.4040   60.5110 N   0  0  0  0  0  0  0  0  0  0  0  0
  1  2  1  0
  2  3  2  0
  3  4  1  0
  4  5  2  0
  5  6  1  0
  6  7  1  0
  7  8  1  0
  8  9  2  0
  8 10  1  0
 10 11  1  0
 11 12  1  0
 12 13  2  0
 13 14  1  0
 14 15  1  0
 15 16  2  0
 16 17  1  0
 17 18  2  0
 18 19  1  0
 19 20  2  0
 14 21  2  0
 21 22  1  0
 22 23  1  0
 23 24  1  0
 23 25  1  0
 23 26  1  0
 22 27  2  0
 27 28  1  0
 28 29  1  0
  6 30  2  0
 30  2  1  0
 28 10  2  0
 27 12  1  0
 20 15  1  0
M  END
>  <Binding energies>  (33) 
[-7.15]

>  <Ligand effiencies>  (33) 
[-0.21666666666666667]

>  <Interactions>  (33) 
["V-A:HIS:456:CE1:4069, V-A:HIS:456:CG:4065, V-A:GLU:543:CB:4906, V-A:GLU:543:CG:4907, V-A:HIS:456:CD2:4067, V-B:GLU:543:CD:9879, V-A:GLU:543:CD:4908, V-B:HIS:456:CE1:9041, V-B:GLU:543:CG:9878, V-B:ASP:366:CG:8184, V-B:ASP:366:CA:8181, V-B:ASP:366:CB:8183, V-A:GLY:544:C:4912, V-B:TYR:484:CZ:9318, V-A:ARG:545:CA:4919, H-B:GLY:454:N:9021, H-B:ARG:545:NH2:9899, V-B:ARG:545:CZ:9897, H-B:GLU:543:OE1:9880, H-B:GLU:543:OE2:9881, V-B:ILE:369:CG2:8208, V-B:ILE:369:CB:8207, V-B:ILE:369:CD1:8210, V-B:ILE:369:CG1:8209"]

$$$$
4cf_Grossjean_2025
     RDKit          3D

 29 32  0  0  0  0  0  0  0  0999 V2000
  128.0140  123.8440   63.3490 N   0  0  0  0  0  0  0  0  0  0  0  0
  128.6300  123.5270   62.1660 C   0  0  0  0  0  0  0  0  0  0  0  0
  130.0140  123.3170   62.0510 C   0  0  0  0  0  0  0  0  0  0  0  0
  131.0430  123.4200   63.0900 C   0  0  0  0  0  0  0  0  0  0  0  0
  131.8060  122.4790   63.3120 O   0  0  0  0  0  0  0  0  0  0  0  0
  131.0860  124.6030   63.7500 N   0  0  0  0  0  0  0  0  0  0  0  0
  131.9070  125.0050   64.8210 C   0  0  0  0  0  0  0  0  0  0  0  0
  131.4770  125.7190   65.9560 C   0  0  0  0  0  0  0  0  0  0  0  0
  132.4020  126.0690   66.9420 C   0  0  0  0  0  0  0  0  0  0  0  0
  133.7360  125.7000   66.7680 C   0  0  0  0  0  0  0  0  0  0  0  0
  134.1770  125.0190   65.6810 N   0  0  0  0  0  0  0  0  0  0  0  0
  133.2660  124.6860   64.7300 C   0  0  0  0  0  0  0  0  0  0  0  0
  130.4630  122.9230   60.3940 S   0  0  0  0  0  0  0  0  0  0  0  0
  128.8010  123.0490   59.8660 C   0  0  0  0  0  0  0  0  0  0  0  0
  128.4590  122.8510   58.5950 N   0  0  0  0  0  0  0  0  0  0  0  0
  127.1440  122.9880   58.2780 C   0  0  0  0  0  0  0  0  0  0  0  0
  126.7890  122.7660   56.8370 C   0  0  0  0  0  0  0  0  0  0  0  0
  127.6400  123.2070   55.8120 C   0  0  0  0  0  0  0  0  0  0  0  0
  127.3190  123.0050   54.4720 C   0  0  0  0  0  0  0  0  0  0  0  0
  126.1360  122.3530   54.1380 C   0  0  0  0  0  0  0  0  0  0  0  0
  125.2750  121.9010   55.1340 C   0  0  0  0  0  0  0  0  0  0  0  0
  125.6020  122.1060   56.4710 C   0  0  0  0  0  0  0  0  0  0  0  0
  126.1800  123.2980   59.2410 C   0  0  0  0  0  0  0  0  0  0  0  0
  126.5300  123.5040   60.5840 C   0  0  0  0  0  0  0  0  0  0  0  0
  125.4220  123.8460   61.5880 C   0  0  0  0  0  0  0  0  0  0  0  0
  125.5430  123.1940   62.7460 F   0  0  0  0  0  0  0  0  0  0  0  0
  125.4480  125.1510   61.8610 F   0  0  0  0  0  0  0  0  0  0  0  0
  124.2340  123.5280   61.0740 F   0  0  0  0  0  0  0  0  0  0  0  0
  127.9080  123.3820   60.9260 C   0  0  0  0  0  0  0  0  0  0  0  0
  1  2  1  0
  2  3  2  0
  3  4  1  0
  4  5  2  0
  4  6  1  0
  6  7  1  0
  7  8  2  0
  8  9  1  0
  9 10  2  0
 10 11  1  0
 11 12  2  0
  3 13  1  0
 13 14  1  0
 14 15  2  0
 15 16  1  0
 16 17  1  0
 17 18  2  0
 18 19  1  0
 19 20  2  0
 20 21  1  0
 21 22  2  0
 16 23  2  0
 23 24  1  0
 24 25  1  0
 25 26  1  0
 25 27  1  0
 25 28  1  0
 24 29  2  0
 29  2  1  0
 12  7  1  0
 29 14  1  0
 22 17  1  0
M  END
>  <Binding energies>  (34) 
[-7.82]

>  <Ligand effiencies>  (34) 
[-0.244375]

>  <Interactions>  (34) 
["V-A:HIS:456:CE1:4069, V-B:GLU:543:CD:9879, V-B:GLU:543:CG:9878, V-B:MET:535:CE:9806, V-B:LEU:363:CD1:8160, V-B:ASN:362:C:8143, V-B:PRO:540:CA:9854, V-B:TYR:539:CE2:9847, V-B:ALA:541:CB:9863, V-B:PRO:540:N:9855, V-B:TYR:539:CE1:9846, V-B:PRO:540:CB:9856, V-B:TYR:539:CZ:9848, V-B:TYR:539:C:9838, V-B:PRO:540:CD:9858, V-A:ARG:545:CZ:4926, V-B:ILE:538:CA:9831, V-B:TYR:539:CD1:9844, H-A:GLY:454:N:4049, V-B:ILE:538:CG2:9834, V-B:ASN:362:CB:8147, H-A:TYR:484:OH:4347, V-B:ILE:538:CD1:9836, V-A:GLY:454:CA:4048, V-B:ALA:541:C:9859, V-B:ALA:541:CA:9861, H-A:ARG:545:NE:4924, V-A:ARG:545:CD:4923, V-A:ARG:545:CG:4922, V-B:ARG:545:CZ:9897, H-B:GLU:543:OE2:9881, V-B:ILE:538:CB:9833, V-B:ILE:538:C:9829, V-B:MET:535:CB:9803, V-B:VAL:537:C:9821, V-B:ILE:538:CG1:9835"]

$$$$
4ci_Grossjean_2025
     RDKit          3D

 28 31  0  0  0  0  0  0  0  0999 V2000
  127.9740  123.8300   63.3760 N   0  0  0  0  0  0  0  0  0  0  0  0
  128.5980  123.5440   62.1890 C   0  0  0  0  0  0  0  0  0  0  0  0
  129.9850  123.3570   62.0750 C   0  0  0  0  0  0  0  0  0  0  0  0
  131.0040  123.4090   63.1270 C   0  0  0  0  0  0  0  0  0  0  0  0
  131.3480  122.3840   63.7210 O   0  0  0  0  0  0  0  0  0  0  0  0
  131.5070  124.6400   63.3920 N   0  0  0  0  0  0  0  0  0  0  0  0
  132.4720  124.9750   64.3340 C   0  0  0  0  0  0  0  0  0  0  0  0
  132.1640  125.3660   65.6360 C   0  0  0  0  0  0  0  0  0  0  0  0
  133.3780  125.6070   66.2350 C   0  0  0  0  0  0  0  0  0  0  0  0
  134.3680  125.3740   65.3400 O   0  0  0  0  0  0  0  0  0  0  0  0
  133.7800  124.9750   64.1380 N   0  0  0  0  0  0  0  0  0  0  0  0
  130.4440  122.9950   60.4130 S   0  0  0  0  0  0  0  0  0  0  0  0
  128.7820  123.1060   59.8820 C   0  0  0  0  0  0  0  0  0  0  0  0
  128.4440  122.9150   58.6090 N   0  0  0  0  0  0  0  0  0  0  0  0
  127.1280  123.0180   58.2920 C   0  0  0  0  0  0  0  0  0  0  0  0
  126.7780  122.8030   56.8470 C   0  0  0  0  0  0  0  0  0  0  0  0
  125.5850  122.1580   56.4830 C   0  0  0  0  0  0  0  0  0  0  0  0
  125.2550  121.9570   55.1450 C   0  0  0  0  0  0  0  0  0  0  0  0
  126.1190  122.3980   54.1480 C   0  0  0  0  0  0  0  0  0  0  0  0
  127.3090  123.0350   54.4800 C   0  0  0  0  0  0  0  0  0  0  0  0
  127.6350  123.2340   55.8190 C   0  0  0  0  0  0  0  0  0  0  0  0
  126.1600  123.3300   59.2530 C   0  0  0  0  0  0  0  0  0  0  0  0
  126.5050  123.5320   60.5990 C   0  0  0  0  0  0  0  0  0  0  0  0
  125.3930  123.8700   61.5990 C   0  0  0  0  0  0  0  0  0  0  0  0
  124.1720  123.5910   61.1380 F   0  0  0  0  0  0  0  0  0  0  0  0
  125.5670  123.1680   62.7180 F   0  0  0  0  0  0  0  0  0  0  0  0
  125.4240  125.1710   61.8860 F   0  0  0  0  0  0  0  0  0  0  0  0
  127.8820  123.4140   60.9440 C   0  0  0  0  0  0  0  0  0  0  0  0
  1  2  1  0
  2  3  2  0
  3  4  1  0
  4  5  2  0
  4  6  1  0
  6  7  1  0
  7  8  1  0
  8  9  2  0
  9 10  1  0
 10 11  1  0
  3 12  1  0
 12 13  1  0
 13 14  2  0
 14 15  1  0
 15 16  1  0
 16 17  2  0
 17 18  1  0
 18 19  2  0
 19 20  1  0
 20 21  2  0
 15 22  2  0
 22 23  1  0
 23 24  1  0
 24 25  1  0
 24 26  1  0
 24 27  1  0
 23 28  2  0
 28  2  1  0
 11  7  2  0
 28 13  1  0
 21 16  1  0
M  END
>  <Binding energies>  (35) 
[-8.3]

>  <Ligand effiencies>  (35) 
[-0.267741935483871]

>  <Interactions>  (35) 
["V-A:HIS:456:CE1:4069, V-B:GLU:543:CD:9879, V-B:GLU:543:CG:9878, V-B:MET:535:CE:9806, V-B:ASP:366:CG:8184, V-B:LEU:363:CD1:8160, V-B:ASN:362:C:8143, V-B:PRO:540:CA:9854, V-B:TYR:539:CE2:9847, V-B:PRO:540:C:9852, V-B:ALA:541:CB:9863, V-B:PRO:540:N:9855, V-B:TYR:539:CE1:9846, V-B:PRO:540:CB:9856, V-B:TYR:539:CZ:9848, V-B:TYR:539:C:9838, V-B:PRO:540:CD:9858, V-A:ARG:545:CZ:4926, V-B:ILE:538:CA:9831, V-B:TYR:539:CD1:9844, H-A:GLY:454:N:4049, V-B:ASN:362:CA:8145, V-B:ILE:538:CG2:9834, V-B:ASN:362:CB:8147, V-B:ILE:538:CD1:9836, H-A:ARG:545:NH1:4927, V-B:ALA:541:C:9859, V-B:ALA:541:CA:9861, H-A:ARG:545:NE:4924, V-A:ARG:545:CD:4923, V-A:ARG:545:CG:4922, V-B:ARG:545:CZ:9897, H-B:GLU:543:OE2:9881, V-B:ILE:538:CB:9833, V-B:ILE:538:C:9829, V-B:MET:535:CB:9803, V-B:ILE:538:CG1:9835"]

$$$$
8a_Ghoteimi_2023
     RDKit          3D

 40 44  0  0  0  0  0  0  0  0999 V2000
  124.6420  123.3520   57.2990 C   0  0  0  0  0  0  0  0  0  0  0  0
  125.2310  122.2560   56.4080 C   0  0  0  0  0  0  0  0  0  0  0  0
  126.5860  122.0270   56.7720 O   0  0  0  0  0  0  0  0  0  0  0  0
  127.4850  123.0460   56.8050 C   0  0  0  0  0  0  0  0  0  0  0  0
  128.0180  123.5150   55.7950 O   0  0  0  0  0  0  0  0  0  0  0  0
  127.7690  123.5420   58.1930 C   0  0  0  0  0  0  0  0  0  0  0  0
  127.4660  124.8690   58.5210 C   0  0  0  0  0  0  0  0  0  0  0  0
  127.7190  125.3590   59.7990 C   0  0  0  0  0  0  0  0  0  0  0  0
  128.2810  124.5350   60.7760 C   0  0  0  0  0  0  0  0  0  0  0  0
  128.4970  125.1400   62.0300 N   0  0  0  0  0  0  0  0  0  0  0  0
  129.6400  125.5960   62.5980 C   0  0  0  0  0  0  0  0  0  0  0  0
  130.7480  125.5440   62.0650 O   0  0  0  0  0  0  0  0  0  0  0  0
  129.4830  126.1830   63.9320 C   0  0  0  0  0  0  0  0  0  0  0  0
  130.3900  125.5410   65.3010 S   0  0  0  0  0  0  0  0  0  0  0  0
  129.6590  126.6990   66.3890 C   0  0  0  0  0  0  0  0  0  0  0  0
  129.9450  126.7140   67.6900 N   0  0  0  0  0  0  0  0  0  0  0  0
  129.3170  127.6520   68.4480 C   0  0  0  0  0  0  0  0  0  0  0  0
  129.6370  127.6380   69.9090 C   0  0  0  0  0  0  0  0  0  0  0  0
  130.6960  128.3970   70.4250 C   0  0  0  0  0  0  0  0  0  0  0  0
  130.9960  128.3700   71.7840 C   0  0  0  0  0  0  0  0  0  0  0  0
  130.2450  127.5890   72.6600 C   0  0  0  0  0  0  0  0  0  0  0  0
  130.6170  127.6230   73.9910 O   0  0  0  0  0  0  0  0  0  0  0  0
  131.0090  126.4140   74.6320 C   0  0  0  0  0  0  0  0  0  0  0  0
  129.1800  126.8310   72.1550 C   0  0  0  0  0  0  0  0  0  0  0  0
  128.8840  126.8570   70.7950 C   0  0  0  0  0  0  0  0  0  0  0  0
  128.4170  128.5710   67.9050 C   0  0  0  0  0  0  0  0  0  0  0  0
  128.1270  128.5690   66.5360 C   0  0  0  0  0  0  0  0  0  0  0  0
  127.1870  129.5890   66.0040 C   0  0  0  0  0  0  0  0  0  0  0  0
  127.6730  130.6920   65.2990 C   0  0  0  0  0  0  0  0  0  0  0  0
  126.7940  131.6400   64.7810 C   0  0  0  0  0  0  0  0  0  0  0  0
  125.4170  131.4990   64.9550 C   0  0  0  0  0  0  0  0  0  0  0  0
  124.6220  132.4880   64.4060 O   0  0  0  0  0  0  0  0  0  0  0  0
  124.1510  132.3390   63.0720 C   0  0  0  0  0  0  0  0  0  0  0  0
  124.9260  130.3870   65.6570 C   0  0  0  0  0  0  0  0  0  0  0  0
  125.8080  129.4400   66.1720 C   0  0  0  0  0  0  0  0  0  0  0  0
  128.7560  127.5820   65.7260 C   0  0  0  0  0  0  0  0  0  0  0  0
  128.6610  127.2520   64.3260 C   0  0  0  0  0  0  0  0  0  0  0  0
  127.8240  127.9180   63.4660 N   0  0  0  0  0  0  0  0  0  0  0  0
  128.5830  123.2020   60.4580 C   0  0  0  0  0  0  0  0  0  0  0  0
  128.3290  122.7140   59.1790 C   0  0  0  0  0  0  0  0  0  0  0  0
  1  2  1  0
  2  3  1  0
  3  4  1  0
  4  5  2  0
  4  6  1  0
  6  7  2  0
  7  8  1  0
  8  9  2  0
  9 10  1  0
 10 11  1  0
 11 12  2  0
 11 13  1  0
 13 14  1  0
 14 15  1  0
 15 16  2  0
 16 17  1  0
 17 18  1  0
 18 19  2  0
 19 20  1  0
 20 21  2  0
 21 22  1  0
 22 23  1  0
 21 24  1  0
 24 25  2  0
 17 26  2  0
 26 27  1  0
 27 28  1  0
 28 29  2  0
 29 30  1  0
 30 31  2  0
 31 32  1  0
 32 33  1  0
 31 34  1  0
 34 35  2  0
 27 36  2  0
 36 37  1  0
 37 38  1  0
  9 39  1  0
 39 40  2  0
 40  6  1  0
 37 13  2  0
 36 15  1  0
 25 18  1  0
 35 28  1  0
M  END
>  <Binding energies>  (36) 
[-9.75]

>  <Ligand effiencies>  (36) 
[-0.22674418604651161]

>  <Interactions>  (36) 
["V-A:HIS:456:CE1:4069, V-A:GLU:543:CB:4906, V-A:GLU:543:CG:4907, V-B:GLU:543:CD:9879, V-A:GLU:543:CD:4908, V-B:HIS:456:CE1:9041, H-A:LYS:547:NZ:4951, V-B:LEU:363:CD1:8160, V-B:TYR:539:CD2:9845, V-B:PRO:540:CA:9854, V-B:TYR:539:CE2:9847, V-B:PRO:540:N:9855, V-B:TYR:539:CE1:9846, V-B:PRO:540:CB:9856, H-B:TYR:539:N:9841, V-B:TYR:539:CZ:9848, V-B:TYR:539:C:9838, V-B:PRO:540:CD:9858, V-B:PRO:540:CG:9857, H-B:TYR:539:OH:9849, V-B:TYR:539:CD1:9844, H-B:GLY:454:N:9021, V-B:GLY:454:CA:9020, H-B:GLU:543:OE1:9880, H-B:GLU:543:OE2:9881, V-B:LEU:475:CD1:9229, V-B:ILE:369:CD1:8210"]

$$$$
8c_Ghoteimi_2023
     RDKit          3D

 34 38  0  0  0  0  0  0  0  0999 V2000
  129.1760  128.7560   75.3760 C   0  0  0  0  0  0  0  0  0  0  0  0
  130.2380  128.4210   74.4900 O   0  0  0  0  0  0  0  0  0  0  0  0
  129.9940  128.3830   73.1300 C   0  0  0  0  0  0  0  0  0  0  0  0
  129.6800  127.1380   72.5880 C   0  0  0  0  0  0  0  0  0  0  0  0
  129.4230  127.0040   71.2270 C   0  0  0  0  0  0  0  0  0  0  0  0
  129.4720  128.1140   70.3710 C   0  0  0  0  0  0  0  0  0  0  0  0
  129.1990  127.9750   68.9060 C   0  0  0  0  0  0  0  0  0  0  0  0
  128.3660  128.8670   68.2240 C   0  0  0  0  0  0  0  0  0  0  0  0
  128.1290  128.7170   66.8540 C   0  0  0  0  0  0  0  0  0  0  0  0
  127.2340  129.6730   66.1630 C   0  0  0  0  0  0  0  0  0  0  0  0
  125.8480  129.5120   66.2290 C   0  0  0  0  0  0  0  0  0  0  0  0
  125.0080  130.4170   65.5870 C   0  0  0  0  0  0  0  0  0  0  0  0
  125.5370  131.4910   64.8690 C   0  0  0  0  0  0  0  0  0  0  0  0
  124.6280  132.3400   64.2670 O   0  0  0  0  0  0  0  0  0  0  0  0
  124.0130  131.9450   63.0460 C   0  0  0  0  0  0  0  0  0  0  0  0
  126.9310  131.6480   64.8010 C   0  0  0  0  0  0  0  0  0  0  0  0
  127.7700  130.7430   65.4440 C   0  0  0  0  0  0  0  0  0  0  0  0
  128.7650  127.6400   66.1810 C   0  0  0  0  0  0  0  0  0  0  0  0
  128.7490  127.2000   64.8100 C   0  0  0  0  0  0  0  0  0  0  0  0
  128.0240  127.8450   63.8400 N   0  0  0  0  0  0  0  0  0  0  0  0
  129.5360  126.0630   64.5680 C   0  0  0  0  0  0  0  0  0  0  0  0
  129.7520  125.3560   63.3040 C   0  0  0  0  0  0  0  0  0  0  0  0
  130.8410  125.4130   62.7280 O   0  0  0  0  0  0  0  0  0  0  0  0
  128.6860  124.6600   62.8380 N   0  0  0  0  0  0  0  0  0  0  0  0
  128.6260  123.9070   61.6740 C   0  0  0  0  0  0  0  0  0  0  0  0
  128.0110  122.7590   61.4850 N   0  0  0  0  0  0  0  0  0  0  0  0
  128.1600  122.3270   60.2490 C   0  0  0  0  0  0  0  0  0  0  0  0
  128.9130  123.1330   59.4010 C   0  0  0  0  0  0  0  0  0  0  0  0
  129.4520  124.5310   60.2830 S   0  0  0  0  0  0  0  0  0  0  0  0
  130.3260  125.5090   66.0450 S   0  0  0  0  0  0  0  0  0  0  0  0
  129.5960  126.7980   66.9740 C   0  0  0  0  0  0  0  0  0  0  0  0
  129.8200  126.9390   68.2810 N   0  0  0  0  0  0  0  0  0  0  0  0
  129.7850  129.3630   70.9240 C   0  0  0  0  0  0  0  0  0  0  0  0
  130.0440  129.5000   72.2840 C   0  0  0  0  0  0  0  0  0  0  0  0
  1  2  1  0
  2  3  1  0
  3  4  2  0
  4  5  1  0
  5  6  2  0
  6  7  1  0
  7  8  2  0
  8  9  1  0
  9 10  1  0
 10 11  2  0
 11 12  1  0
 12 13  2  0
 13 14  1  0
 14 15  1  0
 13 16  1  0
 16 17  2  0
  9 18  2  0
 18 19  1  0
 19 20  1  0
 19 21  2  0
 21 22  1  0
 22 23  2  0
 22 24  1  0
 24 25  1  0
 25 26  2  0
 26 27  1  0
 27 28  2  0
 28 29  1  0
 21 30  1  0
 30 31  1  0
 31 32  2  0
  6 33  1  0
 33 34  2  0
 34  3  1  0
 32  7  1  0
 17 10  1  0
 31 18  1  0
 29 25  1  0
M  END
>  <Binding energies>  (37) 
[-8.31]

>  <Ligand effiencies>  (37) 
[-0.2245945945945946]

>  <Interactions>  (37) 
["V-A:LYS:547:CE:4950, V-A:HIS:456:CE1:4069, V-A:GLU:543:CB:4906, V-A:GLU:543:CG:4907, V-B:GLU:543:CD:9879, V-A:GLU:543:CD:4908, V-B:HIS:456:CE1:9041, H-A:LYS:547:NZ:4951, V-B:GLU:543:CG:9878, V-B:TYR:539:CD2:9845, V-B:PRO:540:CA:9854, V-B:TYR:539:CE2:9847, V-B:PRO:540:C:9852, H-B:ALA:541:N:9862, V-B:TYR:539:CZ:9848, V-B:TYR:539:C:9838, V-A:GLU:543:C:4902, H-B:GLY:454:N:9021, V-B:GLY:454:CA:9020, H-B:GLU:543:OE1:9880, H-B:GLU:543:OE2:9881, V-B:LEU:475:CD1:9229, H-A:GLU:543:OE1:4909, V-B:ILE:369:CD1:8210"]

$$$$
8d_Ghoteimi_2023
     RDKit          3D

 30 33  0  0  0  0  0  0  0  0999 V2000
  132.3230  132.1280   61.7060 C   0  0  0  0  0  0  0  0  0  0  0  0
  130.9100  132.0030   61.6330 O   0  0  0  0  0  0  0  0  0  0  0  0
  130.2900  131.7840   60.4440 C   0  0  0  0  0  0  0  0  0  0  0  0
  129.9520  132.6800   59.6670 O   0  0  0  0  0  0  0  0  0  0  0  0
  130.0600  130.3490   60.1710 C   0  0  0  0  0  0  0  0  0  0  0  0
  128.9860  129.8640   58.8570 S   0  0  0  0  0  0  0  0  0  0  0  0
  129.2580  128.1730   59.2070 C   0  0  0  0  0  0  0  0  0  0  0  0
  128.6740  127.2050   58.4990 N   0  0  0  0  0  0  0  0  0  0  0  0
  128.9560  125.9230   58.8540 C   0  0  0  0  0  0  0  0  0  0  0  0
  128.2840  124.8570   58.0470 C   0  0  0  0  0  0  0  0  0  0  0  0
  127.7480  123.7150   58.6590 C   0  0  0  0  0  0  0  0  0  0  0  0
  127.1250  122.7260   57.9030 C   0  0  0  0  0  0  0  0  0  0  0  0
  127.0210  122.8510   56.5180 C   0  0  0  0  0  0  0  0  0  0  0  0
  126.3870  121.8220   55.8510 O   0  0  0  0  0  0  0  0  0  0  0  0
  125.0090  121.9570   55.5160 C   0  0  0  0  0  0  0  0  0  0  0  0
  127.5530  123.9900   55.8970 C   0  0  0  0  0  0  0  0  0  0  0  0
  128.1750  124.9770   56.6560 C   0  0  0  0  0  0  0  0  0  0  0  0
  129.8110  125.6120   59.9160 C   0  0  0  0  0  0  0  0  0  0  0  0
  130.4260  126.6270   60.6560 C   0  0  0  0  0  0  0  0  0  0  0  0
  131.3340  126.2670   61.7690 C   0  0  0  0  0  0  0  0  0  0  0  0
  132.5610  125.6560   61.5050 C   0  0  0  0  0  0  0  0  0  0  0  0
  133.4110  125.3090   62.5520 C   0  0  0  0  0  0  0  0  0  0  0  0
  133.0500  125.5700   63.8740 C   0  0  0  0  0  0  0  0  0  0  0  0
  133.9540  125.1900   64.8460 O   0  0  0  0  0  0  0  0  0  0  0  0
  133.6370  125.4150   66.2150 C   0  0  0  0  0  0  0  0  0  0  0  0
  131.8160  126.1880   64.1370 C   0  0  0  0  0  0  0  0  0  0  0  0
  130.9670  126.5330   63.0890 C   0  0  0  0  0  0  0  0  0  0  0  0
  130.1480  127.9740   60.3010 C   0  0  0  0  0  0  0  0  0  0  0  0
  130.5900  129.2340   60.8320 C   0  0  0  0  0  0  0  0  0  0  0  0
  131.4500  129.3270   61.8960 N   0  0  0  0  0  0  0  0  0  0  0  0
  1  2  1  0
  2  3  1  0
  3  4  2  0
  3  5  1  0
  5  6  1  0
  6  7  1  0
  7  8  2  0
  8  9  1  0
  9 10  1  0
 10 11  2  0
 11 12  1  0
 12 13  2  0
 13 14  1  0
 14 15  1  0
 13 16  1  0
 16 17  2  0
  9 18  2  0
 18 19  1  0
 19 20  1  0
 20 21  2  0
 21 22  1  0
 22 23  2  0
 23 24  1  0
 24 25  1  0
 23 26  1  0
 26 27  2  0
 19 28  2  0
 28 29  1  0
 29 30  1  0
 29  5  2  0
 28  7  1  0
 17 10  1  0
 27 20  1  0
M  END
>  <Binding energies>  (38) 
[-7.29]

>  <Ligand effiencies>  (38) 
[-0.2278125]

>  <Interactions>  (38) 
["V-A:HIS:456:CE1:4069, V-A:GLU:543:CD:4908, V-B:MET:535:CE:9806, V-B:LEU:363:CD1:8160, V-B:PRO:540:CA:9854, V-B:PRO:540:N:9855, V-B:TYR:539:CE1:9846, H-B:TYR:539:N:9841, V-B:TYR:539:CZ:9848, V-B:TYR:539:C:9838, V-B:PRO:540:CD:9858, V-A:ARG:545:CZ:4926, V-B:ILE:538:CA:9831, V-B:TYR:539:CD1:9844, H-A:GLY:454:N:4049, V-B:ILE:538:CG2:9834, V-A:PRO:540:CB:4885, V-A:ASP:366:CG:3212, V-A:PRO:540:CA:4883, V-B:ILE:538:CD1:9836, H-A:ARG:545:NH1:4927, H-A:ASP:366:OD1:3213, H-A:ASP:366:OD2:3214, H-A:ALA:541:N:4891, V-A:PRO:540:C:4881, H-A:ARG:545:NE:4924, V-A:ARG:545:CD:4923, V-A:ARG:545:CG:4922, H-A:GLU:543:OE1:4909, V-B:ILE:538:CB:9833, V-B:ILE:538:C:9829"]

$$$$
9a_Ghoteimi_2023
     RDKit          3D

 48 54  0  0  0  0  0  0  0  0999 V2000
  131.2670  131.4930   55.6910 C   0  0  0  0  0  0  0  0  0  0  0  0
  131.8170  132.9060   55.9090 C   0  0  0  0  0  0  0  0  0  0  0  0
  130.9890  133.5990   56.8340 O   0  0  0  0  0  0  0  0  0  0  0  0
  129.6950  133.2370   57.0240 C   0  0  0  0  0  0  0  0  0  0  0  0
  128.7800  133.5530   56.2560 O   0  0  0  0  0  0  0  0  0  0  0  0
  129.4820  132.4210   58.2670 C   0  0  0  0  0  0  0  0  0  0  0  0
  130.5570  132.2110   59.1400 C   0  0  0  0  0  0  0  0  0  0  0  0
  130.3920  131.4570   60.2990 C   0  0  0  0  0  0  0  0  0  0  0  0
  129.1520  130.9000   60.6100 C   0  0  0  0  0  0  0  0  0  0  0  0
  129.1020  130.1570   61.8050 N   0  0  0  0  0  0  0  0  0  0  0  0
  128.0390  129.7150   62.5220 C   0  0  0  0  0  0  0  0  0  0  0  0
  126.8640  129.9100   62.2080 O   0  0  0  0  0  0  0  0  0  0  0  0
  128.3710  128.9560   63.7310 C   0  0  0  0  0  0  0  0  0  0  0  0
  128.0220  129.6250   65.3260 S   0  0  0  0  0  0  0  0  0  0  0  0
  128.6610  128.2010   66.1130 C   0  0  0  0  0  0  0  0  0  0  0  0
  128.6610  128.0780   67.4400 N   0  0  0  0  0  0  0  0  0  0  0  0
  129.1700  126.9250   67.9520 C   0  0  0  0  0  0  0  0  0  0  0  0
  129.1500  126.8040   69.4410 C   0  0  0  0  0  0  0  0  0  0  0  0
  128.3960  125.8020   70.0630 C   0  0  0  0  0  0  0  0  0  0  0  0
  128.3730  125.6810   71.4500 C   0  0  0  0  0  0  0  0  0  0  0  0
  129.1150  126.5490   72.2660 C   0  0  0  0  0  0  0  0  0  0  0  0
  129.0870  126.4510   73.6610 N   0  0  0  0  0  0  0  0  0  0  0  0
  129.9330  125.4810   74.3850 C   0  0  0  0  0  0  0  0  0  0  0  0
  129.5140  125.2620   75.8540 C   0  0  0  0  0  0  0  0  0  0  0  0
  129.4660  126.5040   76.5360 O   0  0  0  0  0  0  0  0  0  0  0  0
  128.5280  127.3880   75.9420 C   0  0  0  0  0  0  0  0  0  0  0  0
  128.9250  127.6720   74.4790 C   0  0  0  0  0  0  0  0  0  0  0  0
  129.8580  127.5600   71.6390 C   0  0  0  0  0  0  0  0  0  0  0  0
  129.8780  127.6820   70.2530 C   0  0  0  0  0  0  0  0  0  0  0  0
  129.6990  125.9190   67.1410 C   0  0  0  0  0  0  0  0  0  0  0  0
  129.7180  126.0540   65.7480 C   0  0  0  0  0  0  0  0  0  0  0  0
  130.3250  124.9690   64.9350 C   0  0  0  0  0  0  0  0  0  0  0  0
  131.6840  124.9970   64.6120 C   0  0  0  0  0  0  0  0  0  0  0  0
  132.2540  123.9730   63.8620 C   0  0  0  0  0  0  0  0  0  0  0  0
  131.4830  122.8820   63.4280 C   0  0  0  0  0  0  0  0  0  0  0  0
  132.0300  121.8480   62.6640 N   0  0  0  0  0  0  0  0  0  0  0  0
  133.4790  121.8540   62.3790 C   0  0  0  0  0  0  0  0  0  0  0  0
  134.0060  120.4950   61.8710 C   0  0  0  0  0  0  0  0  0  0  0  0
  133.2670  120.0820   60.7320 O   0  0  0  0  0  0  0  0  0  0  0  0
  131.8880  119.9320   61.0270 C   0  0  0  0  0  0  0  0  0  0  0  0
  131.3040  121.2760   61.5140 C   0  0  0  0  0  0  0  0  0  0  0  0
  130.1210  122.8630   63.7600 C   0  0  0  0  0  0  0  0  0  0  0  0
  129.5500  123.8890   64.5070 C   0  0  0  0  0  0  0  0  0  0  0  0
  129.1570  127.2370   65.1880 C   0  0  0  0  0  0  0  0  0  0  0  0
  128.9570  127.6850   63.8320 C   0  0  0  0  0  0  0  0  0  0  0  0
  129.2980  126.9220   62.7450 N   0  0  0  0  0  0  0  0  0  0  0  0
  128.0680  131.1080   59.7420 C   0  0  0  0  0  0  0  0  0  0  0  0
  128.2350  131.8610   58.5830 C   0  0  0  0  0  0  0  0  0  0  0  0
  1  2  1  0
  2  3  1  0
  3  4  1  0
  4  5  2  0
  4  6  1  0
  6  7  2  0
  7  8  1  0
  8  9  2  0
  9 10  1  0
 10 11  1  0
 11 12  2  0
 11 13  1  0
 13 14  1  0
 14 15  1  0
 15 16  2  0
 16 17  1  0
 17 18  1  0
 18 19  2  0
 19 20  1  0
 20 21  2  0
 21 22  1  0
 22 23  1  0
 23 24  1  0
 24 25  1  0
 25 26  1  0
 26 27  1  0
 21 28  1  0
 28 29  2  0
 17 30  2  0
 30 31  1  0
 31 32  1  0
 32 33  2  0
 33 34  1  0
 34 35  2  0
 35 36  1  0
 36 37  1  0
 37 38  1  0
 38 39  1  0
 39 40  1  0
 40 41  1  0
 35 42  1  0
 42 43  2  0
 31 44  2  0
 44 45  1  0
 45 46  1  0
  9 47  1  0
 47 48  2  0
 48  6  1  0
 45 13  2  0
 44 15  1  0
 29 18  1  0
 43 32  1  0
 27 22  1  0
 41 36  1  0
M  END
>  <Binding energies>  (39) 
[-10.04]

>  <Ligand effiencies>  (39) 
[-0.1968627450980392]

>  <Interactions>  (39) 
["V-A:HIS:456:CE1:4069, V-A:GLU:543:CG:4907, V-A:HIS:456:CD2:4067, V-B:GLU:543:CD:9879, V-A:GLU:543:CD:4908, V-B:HIS:456:CE1:9041, V-B:LYS:547:CE:9921, V-B:GLU:543:C:9873, V-B:GLU:543:CB:9877, V-B:GLU:543:CG:9878, V-A:TRP:381:CZ2:3369, V-A:TRP:381:CH2:3371, V-B:TYR:539:CD2:9845, V-B:ALA:541:CB:9863, V-A:LEU:475:CD2:4258, V-A:ILE:369:CG2:3236, V-A:TYR:539:CD2:4874, V-A:TYR:539:C:4867, V-A:TYR:539:CE2:4876, V-A:TYR:539:CG:4872, V-A:PRO:540:N:4884, V-A:MET:535:CE:4835, V-A:LEU:363:CD1:3188, V-A:TYR:531:CE2:4793, V-A:PRO:540:CA:4883, V-A:GLY:454:CA:4048, V-A:ILE:369:CD1:3238, H-A:TYR:539:N:4870, H-B:GLU:543:OE2:9881, H-A:GLU:543:OE1:4909, V-A:ILE:538:CB:4862, V-A:ILE:538:CA:4860, V-A:ILE:538:CG2:4863, V-A:TYR:539:CD1:4873, V-A:TYR:539:CA:4869"]

$$$$
9b_Ghoteimi_2023
     RDKit          3D

 42 48  0  0  0  0  0  0  0  0999 V2000
  128.6430  125.8510   58.5740 N   0  0  0  0  0  0  0  0  0  0  0  0
  128.6160  125.1480   59.7520 C   0  0  0  0  0  0  0  0  0  0  0  0
  128.2290  123.8010   59.8400 C   0  0  0  0  0  0  0  0  0  0  0  0
  127.8200  122.8960   58.7640 C   0  0  0  0  0  0  0  0  0  0  0  0
  128.0140  121.6820   58.8550 O   0  0  0  0  0  0  0  0  0  0  0  0
  127.2340  123.4890   57.6940 N   0  0  0  0  0  0  0  0  0  0  0  0
  126.7640  122.8780   56.5380 C   0  0  0  0  0  0  0  0  0  0  0  0
  127.2540  123.1740   55.2670 C   0  0  0  0  0  0  0  0  0  0  0  0
  126.5410  122.3670   54.4120 C   0  0  0  0  0  0  0  0  0  0  0  0
  125.6670  121.6230   55.1310 O   0  0  0  0  0  0  0  0  0  0  0  0
  125.8170  121.9560   56.4770 N   0  0  0  0  0  0  0  0  0  0  0  0
  128.2820  123.2310   61.5080 S   0  0  0  0  0  0  0  0  0  0  0  0
  128.8020  124.8000   62.0750 C   0  0  0  0  0  0  0  0  0  0  0  0
  129.0080  125.0410   63.3690 N   0  0  0  0  0  0  0  0  0  0  0  0
  129.3940  126.2990   63.7080 C   0  0  0  0  0  0  0  0  0  0  0  0
  129.5980  126.5490   65.1670 C   0  0  0  0  0  0  0  0  0  0  0  0
  128.8540  127.5210   65.8470 C   0  0  0  0  0  0  0  0  0  0  0  0
  129.0580  127.7590   67.2020 C   0  0  0  0  0  0  0  0  0  0  0  0
  130.0260  127.0440   67.9260 C   0  0  0  0  0  0  0  0  0  0  0  0
  130.2410  127.2700   69.2900 N   0  0  0  0  0  0  0  0  0  0  0  0
  129.1590  127.0910   70.2790 C   0  0  0  0  0  0  0  0  0  0  0  0
  129.6520  127.0430   71.7400 C   0  0  0  0  0  0  0  0  0  0  0  0
  130.4190  128.1990   72.0310 O   0  0  0  0  0  0  0  0  0  0  0  0
  131.5610  128.2900   71.1950 C   0  0  0  0  0  0  0  0  0  0  0  0
  131.1290  128.3720   69.7140 C   0  0  0  0  0  0  0  0  0  0  0  0
  130.7540  126.0580   67.2450 C   0  0  0  0  0  0  0  0  0  0  0  0
  130.5470  125.8170   65.8900 C   0  0  0  0  0  0  0  0  0  0  0  0
  129.5980  127.3000   62.7540 C   0  0  0  0  0  0  0  0  0  0  0  0
  129.4020  127.0450   61.3920 C   0  0  0  0  0  0  0  0  0  0  0  0
  129.6610  128.1340   60.4160 C   0  0  0  0  0  0  0  0  0  0  0  0
  130.8490  128.1560   59.6840 C   0  0  0  0  0  0  0  0  0  0  0  0
  131.0860  129.1640   58.7550 C   0  0  0  0  0  0  0  0  0  0  0  0
  130.1420  130.1790   58.5330 C   0  0  0  0  0  0  0  0  0  0  0  0
  130.3530  131.1920   57.5940 N   0  0  0  0  0  0  0  0  0  0  0  0
  129.2230  132.0510   57.1920 C   0  0  0  0  0  0  0  0  0  0  0  0
  129.4890  132.8370   55.8900 C   0  0  0  0  0  0  0  0  0  0  0  0
  130.6790  133.6010   56.0190 O   0  0  0  0  0  0  0  0  0  0  0  0
  131.8070  132.7770   56.2750 C   0  0  0  0  0  0  0  0  0  0  0  0
  131.5980  131.9850   57.5830 C   0  0  0  0  0  0  0  0  0  0  0  0
  128.9440  130.1350   59.2610 C   0  0  0  0  0  0  0  0  0  0  0  0
  128.7070  129.1270   60.1910 C   0  0  0  0  0  0  0  0  0  0  0  0
  128.9640  125.7430   61.0180 C   0  0  0  0  0  0  0  0  0  0  0  0
  1  2  1  0
  2  3  2  0
  3  4  1  0
  4  5  2  0
  4  6  1  0
  6  7  1  0
  7  8  1  0
  8  9  2  0
  9 10  1  0
 10 11  1  0
  3 12  1  0
 12 13  1  0
 13 14  2  0
 14 15  1  0
 15 16  1  0
 16 17  2  0
 17 18  1  0
 18 19  2  0
 19 20  1  0
 20 21  1  0
 21 22  1  0
 22 23  1  0
 23 24  1  0
 24 25  1  0
 19 26  1  0
 26 27  2  0
 15 28  2  0
 28 29  1  0
 29 30  1  0
 30 31  2  0
 31 32  1  0
 32 33  2  0
 33 34  1  0
 34 35  1  0
 35 36  1  0
 36 37  1  0
 37 38  1  0
 38 39  1  0
 33 40  1  0
 40 41  2  0
 29 42  2  0
 42  2  1  0
 11  7  2  0
 42 13  1  0
 27 16  1  0
 41 30  1  0
 25 20  1  0
 39 34  1  0
M  END
>  <Binding energies>  (40) 
[-10.25]

>  <Ligand effiencies>  (40) 
[-0.22777777777777777]

>  <Interactions>  (40) 
["V-A:HIS:456:CE1:4069, V-A:GLU:543:CB:4906, V-A:GLU:543:CG:4907, V-B:GLU:543:CD:9879, V-A:GLU:543:CD:4908, V-B:HIS:456:CE1:9041, V-B:MET:535:CE:9806, V-B:TYR:539:CD2:9845, V-B:PRO:540:CA:9854, V-B:TYR:539:CE2:9847, V-B:ALA:541:CB:9863, V-B:PRO:540:N:9855, V-B:TYR:539:CE1:9846, H-B:TYR:539:N:9841, V-B:TYR:539:CZ:9848, V-B:TYR:539:C:9838, V-B:ILE:538:CA:9831, V-A:MET:535:CE:4835, V-B:TYR:539:CD1:9844, V-A:LEU:363:CD1:3188, V-A:ASP:366:CG:3212, V-B:ILE:538:CD1:9836, V-A:GLY:544:C:4912, H-A:TYR:539:N:4870, V-A:ARG:545:CA:4919, V-A:ARG:545:CG:4922, V-A:ILE:538:CB:4862, V-A:ILE:538:CA:4860, V-A:TYR:539:CE1:4875, V-A:TYR:539:CD1:4873"]

$$$$
9c_Ghoteimi_2023
     RDKit          3D

 42 48  0  0  0  0  0  0  0  0999 V2000
  128.6180  126.1320   58.8290 N   0  0  0  0  0  0  0  0  0  0  0  0
  128.6150  125.3980   59.9880 C   0  0  0  0  0  0  0  0  0  0  0  0
  128.2640  124.0410   60.0430 C   0  0  0  0  0  0  0  0  0  0  0  0
  127.8680  123.1540   58.9440 C   0  0  0  0  0  0  0  0  0  0  0  0
  128.1250  121.9490   58.9820 O   0  0  0  0  0  0  0  0  0  0  0  0
  127.2230  123.7560   57.9150 N   0  0  0  0  0  0  0  0  0  0  0  0
  126.7590  123.1530   56.7540 C   0  0  0  0  0  0  0  0  0  0  0  0
  125.7370  122.3360   56.6210 N   0  0  0  0  0  0  0  0  0  0  0  0
  125.5850  121.9490   55.3690 C   0  0  0  0  0  0  0  0  0  0  0  0
  126.5010  122.4570   54.4530 C   0  0  0  0  0  0  0  0  0  0  0  0
  127.6160  123.4980   55.2860 S   0  0  0  0  0  0  0  0  0  0  0  0
  128.3420  123.4280   61.6940 S   0  0  0  0  0  0  0  0  0  0  0  0
  128.8240  124.9940   62.3010 C   0  0  0  0  0  0  0  0  0  0  0  0
  129.0330  125.2050   63.5990 N   0  0  0  0  0  0  0  0  0  0  0  0
  129.3890  126.4630   63.9690 C   0  0  0  0  0  0  0  0  0  0  0  0
  129.5960  126.6780   65.4340 C   0  0  0  0  0  0  0  0  0  0  0  0
  128.8390  127.6180   66.1430 C   0  0  0  0  0  0  0  0  0  0  0  0
  129.0420  127.8210   67.5040 C   0  0  0  0  0  0  0  0  0  0  0  0
  130.0210  127.0980   68.2060 C   0  0  0  0  0  0  0  0  0  0  0  0
  130.2330  127.2860   69.5770 N   0  0  0  0  0  0  0  0  0  0  0  0
  129.1330  127.1370   70.5520 C   0  0  0  0  0  0  0  0  0  0  0  0
  129.6090  127.0310   72.0160 C   0  0  0  0  0  0  0  0  0  0  0  0
  130.4270  128.1430   72.3410 O   0  0  0  0  0  0  0  0  0  0  0  0
  131.5790  128.1980   71.5160 C   0  0  0  0  0  0  0  0  0  0  0  0
  131.1670  128.3350   70.0340 C   0  0  0  0  0  0  0  0  0  0  0  0
  130.7630  126.1440   67.4950 C   0  0  0  0  0  0  0  0  0  0  0  0
  130.5560  125.9390   66.1340 C   0  0  0  0  0  0  0  0  0  0  0  0
  129.5610  127.4940   63.0420 C   0  0  0  0  0  0  0  0  0  0  0  0
  129.3640  127.2700   61.6750 C   0  0  0  0  0  0  0  0  0  0  0  0
  129.5890  128.3890   60.7270 C   0  0  0  0  0  0  0  0  0  0  0  0
  130.7590  128.4440   59.9660 C   0  0  0  0  0  0  0  0  0  0  0  0
  130.9660  129.4830   59.0630 C   0  0  0  0  0  0  0  0  0  0  0  0
  130.0100  130.4970   58.8980 C   0  0  0  0  0  0  0  0  0  0  0  0
  130.1930  131.5430   57.9890 N   0  0  0  0  0  0  0  0  0  0  0  0
  131.5450  131.8090   57.4590 C   0  0  0  0  0  0  0  0  0  0  0  0
  131.6770  133.1970   56.7950 C   0  0  0  0  0  0  0  0  0  0  0  0
  130.7000  133.3420   55.7750 O   0  0  0  0  0  0  0  0  0  0  0  0
  129.3830  133.2250   56.2900 C   0  0  0  0  0  0  0  0  0  0  0  0
  129.1920  131.8400   56.9460 C   0  0  0  0  0  0  0  0  0  0  0  0
  128.8300  130.4210   59.6530 C   0  0  0  0  0  0  0  0  0  0  0  0
  128.6220  129.3820   60.5560 C   0  0  0  0  0  0  0  0  0  0  0  0
  128.9560  125.9680   61.2670 C   0  0  0  0  0  0  0  0  0  0  0  0
  1  2  1  0
  2  3  2  0
  3  4  1  0
  4  5  2  0
  4  6  1  0
  6  7  1  0
  7  8  2  0
  8  9  1  0
  9 10  2  0
 10 11  1  0
  3 12  1  0
 12 13  1  0
 13 14  2  0
 14 15  1  0
 15 16  1  0
 16 17  2  0
 17 18  1  0
 18 19  2  0
 19 20  1  0
 20 21  1  0
 21 22  1  0
 22 23  1  0
 23 24  1  0
 24 25  1  0
 19 26  1  0
 26 27  2  0
 15 28  2  0
 28 29  1  0
 29 30  1  0
 30 31  2  0
 31 32  1  0
 32 33  2  0
 33 34  1  0
 34 35  1  0
 35 36  1  0
 36 37  1  0
 37 38  1  0
 38 39  1  0
 33 40  1  0
 40 41  2  0
 29 42  2  0
 42  2  1  0
 11  7  1  0
 42 13  1  0
 27 16  1  0
 41 30  1  0
 25 20  1  0
 39 34  1  0
M  END
>  <Binding energies>  (41) 
[-9.16]

>  <Ligand effiencies>  (41) 
[-0.20355555555555555]

>  <Interactions>  (41) 
["V-A:HIS:456:CE1:4069, V-A:GLU:543:CB:4906, V-A:GLU:543:CG:4907, V-B:GLU:543:CD:9879, V-A:GLU:543:CD:4908, V-B:HIS:456:CE1:9041, H-A:LYS:547:NZ:4951, V-B:MET:535:CE:9806, V-B:LEU:363:CD1:8160, V-B:PRO:540:CA:9854, V-B:TYR:539:CE2:9847, V-B:ALA:541:CB:9863, V-B:TYR:539:CE1:9846, H-B:TYR:539:N:9841, V-B:TYR:539:CZ:9848, V-B:PRO:540:CD:9858, V-A:TYR:539:CD2:4874, V-B:ILE:538:CA:9831, V-A:TYR:539:C:4867, V-A:TYR:539:CE2:4876, V-A:TYR:539:CG:4872, V-A:PRO:540:N:4884, V-A:MET:535:CE:4835, V-B:TYR:539:CD1:9844, V-B:ILE:538:CG2:9834, V-A:PRO:540:CB:4885, V-A:LEU:363:CD1:3188, V-A:ASP:366:CG:3212, V-A:PRO:540:CA:4883, V-B:ILE:538:CD1:9836, V-A:GLY:544:C:4912, V-A:PRO:540:CD:4887, V-A:TYR:539:CZ:4877, H-A:TYR:539:N:4870, V-A:ARG:545:CA:4919, V-A:ILE:538:CB:4862, V-A:ILE:538:CA:4860, V-B:ILE:538:CB:9833, V-B:ILE:538:C:9829, V-A:TYR:539:CE1:4875, V-A:TYR:539:CD1:4873, V-A:TYR:539:CA:4869, V-A:ILE:538:C:4858"]

$$$$
RR11_Rahimova_2017
     RDKit          3D

 33 38  0  0  0  0  0  0  0  0999 V2000
  134.1610  121.6900   62.2070 N   0  0  0  0  0  0  0  0  0  0  0  0
  133.3710  122.5310   62.9880 C   0  0  0  0  0  0  0  0  0  0  0  0
  132.3120  122.0020   63.7240 C   0  0  0  0  0  0  0  0  0  0  0  0
  131.5250  122.8420   64.5060 C   0  0  0  0  0  0  0  0  0  0  0  0
  131.7880  124.2170   64.5590 C   0  0  0  0  0  0  0  0  0  0  0  0
  130.9420  125.1210   65.4070 C   0  0  0  0  0  0  0  0  0  0  0  0
  130.3560  126.2150   64.9710 N   0  0  0  0  0  0  0  0  0  0  0  0
  129.6840  126.7210   66.0530 C   0  0  0  0  0  0  0  0  0  0  0  0
  128.8880  127.8710   66.1430 C   0  0  0  0  0  0  0  0  0  0  0  0
  128.2860  128.1700   67.3710 C   0  0  0  0  0  0  0  0  0  0  0  0
  127.4200  129.4160   67.5000 C   0  0  0  0  0  0  0  0  0  0  0  0
  126.5090  129.6320   66.2990 C   0  0  0  0  0  0  0  0  0  0  0  0
  125.1270  129.7300   66.4920 C   0  0  0  0  0  0  0  0  0  0  0  0
  124.2520  129.9380   65.4240 C   0  0  0  0  0  0  0  0  0  0  0  0
  124.7950  130.0540   64.1380 C   0  0  0  0  0  0  0  0  0  0  0  0
  124.1580  130.2510   62.9400 N   0  0  0  0  0  0  0  0  0  0  0  0
  125.1160  130.2830   62.0390 C   0  0  0  0  0  0  0  0  0  0  0  0
  124.8890  130.4640   60.5650 C   0  0  0  0  0  0  0  0  0  0  0  0
  125.5960  129.6890   59.6370 C   0  0  0  0  0  0  0  0  0  0  0  0
  125.3930  129.8640   58.2700 C   0  0  0  0  0  0  0  0  0  0  0  0
  124.4800  130.8160   57.8220 C   0  0  0  0  0  0  0  0  0  0  0  0
  124.2800  130.9950   56.4540 N   0  0  0  0  0  0  0  0  0  0  0  0
  123.7680  131.5910   58.7330 C   0  0  0  0  0  0  0  0  0  0  0  0
  123.9710  131.4150   60.1000 C   0  0  0  0  0  0  0  0  0  0  0  0
  126.3630  130.1210   62.6040 N   0  0  0  0  0  0  0  0  0  0  0  0
  126.1960  129.9670   63.9600 C   0  0  0  0  0  0  0  0  0  0  0  0
  127.0780  129.7640   65.0250 C   0  0  0  0  0  0  0  0  0  0  0  0
  128.4980  127.3520   68.4870 C   0  0  0  0  0  0  0  0  0  0  0  0
  129.2900  126.2030   68.4310 C   0  0  0  0  0  0  0  0  0  0  0  0
  129.8710  125.9070   67.1960 C   0  0  0  0  0  0  0  0  0  0  0  0
  130.6840  124.8950   66.7430 N   0  0  0  0  0  0  0  0  0  0  0  0
  132.8550  124.7360   63.8130 C   0  0  0  0  0  0  0  0  0  0  0  0
  133.6440  123.8970   63.0310 C   0  0  0  0  0  0  0  0  0  0  0  0
  1  2  1  0
  2  3  2  0
  3  4  1  0
  4  5  2  0
  5  6  1  0
  6  7  2  0
  7  8  1  0
  8  9  2  0
  9 10  1  0
 10 11  1  0
 11 12  1  0
 12 13  2  0
 13 14  1  0
 14 15  2  0
 15 16  1  0
 16 17  2  0
 17 18  1  0
 18 19  2  0
 19 20  1  0
 20 21  2  0
 21 22  1  0
 21 23  1  0
 23 24  2  0
 17 25  1  0
 25 26  1  0
 26 27  2  0
 10 28  2  0
 28 29  1  0
 29 30  2  0
 30 31  1  0
  5 32  1  0
 32 33  2  0
 33  2  1  0
 31  6  1  0
 30  8  1  0
 27 12  1  0
 26 15  1  0
 24 18  1  0
M  END
>  <Binding energies>  (42) 
[-8.49]

>  <Ligand effiencies>  (42) 
[-0.21769230769230768]

>  <Interactions>  (42) 
["V-A:HIS:456:CE1:4069, V-A:GLU:543:CG:4907, V-B:GLU:543:CD:9879, V-A:GLU:543:CD:4908, V-B:HIS:456:CE1:9041, H-A:HIS:456:NE2:4070, V-B:GLU:543:CB:9877, V-B:GLU:543:CG:9878, V-B:ASP:366:CG:8184, V-A:LEU:475:CD2:4258, V-A:ILE:369:CG2:3236, V-B:ASP:366:CA:8181, H-A:TYR:539:OH:4878, V-B:ASP:366:C:8179, V-A:TYR:539:CE2:4876, H-B:TYR:531:OH:9766, V-B:ASP:366:CB:8183, H-A:TYR:484:OH:4347, V-A:TYR:484:CE1:4344, V-A:TYR:484:CZ:4346, V-A:GLY:454:CA:4048, V-A:ILE:369:CD1:3238, V-B:TYR:531:CZ:9765, V-A:TYR:539:CZ:4877, V-B:GLY:454:CA:9020, H-B:ARG:545:NH2:9899, V-B:ARG:545:CZ:9897, V-B:ARG:545:CD:9894, V-B:ILE:369:CG2:8208, V-B:ILE:369:CB:8207, V-B:TYR:531:CE1:9763, V-A:ILE:369:CG1:3237, V-B:ASN:370:CG:8217, V-B:ASN:370:CB:8216, H-A:SER:385:O:3405, H-B:ASP:366:O:8180"]

$$$$
RR16_Rahimova_2017
     RDKit          3D

 44 49  0  0  0  0  0  0  0  0999 V2000
  133.9030  120.8520   62.4430 O   0  0  0  0  0  0  0  0  0  0  0  0
  133.4340  122.2400   62.5230 S   0  0  0  0  0  0  0  0  0  0  0  0
  134.3160  123.3550   62.1570 O   0  0  0  0  0  0  0  0  0  0  0  0
  132.8610  122.5130   64.1700 N   0  0  0  0  0  0  0  0  0  0  0  0
  131.8890  123.5910   64.4680 C   0  0  0  0  0  0  0  0  0  0  0  0
  130.6610  122.9820   65.1950 C   0  0  0  0  0  0  0  0  0  0  0  0
  129.5540  123.9540   65.6470 C   0  0  0  0  0  0  0  0  0  0  0  0
  129.5560  125.2970   64.8960 C   0  0  0  0  0  0  0  0  0  0  0  0
  130.5730  126.3410   65.3950 C   0  0  0  0  0  0  0  0  0  0  0  0
  132.0490  126.1300   65.0060 C   0  0  0  0  0  0  0  0  0  0  0  0
  132.6260  124.7180   65.2280 C   0  0  0  0  0  0  0  0  0  0  0  0
  131.9610  122.3490   61.5140 C   0  0  0  0  0  0  0  0  0  0  0  0
  131.9450  123.1570   60.3760 C   0  0  0  0  0  0  0  0  0  0  0  0
  130.7570  123.3290   59.6700 C   0  0  0  0  0  0  0  0  0  0  0  0
  129.5930  122.6920   60.1040 C   0  0  0  0  0  0  0  0  0  0  0  0
  128.0360  123.0230   59.2830 S   0  0  0  0  0  0  0  0  0  0  0  0
  126.9780  122.9440   60.2990 O   0  0  0  0  0  0  0  0  0  0  0  0
  127.9800  122.1720   58.0870 O   0  0  0  0  0  0  0  0  0  0  0  0
  128.1740  124.7110   58.7540 N   0  0  0  0  0  0  0  0  0  0  0  0
  128.3500  125.6890   59.8580 C   0  0  0  0  0  0  0  0  0  0  0  0
  128.1470  127.1280   59.3410 C   0  0  0  0  0  0  0  0  0  0  0  0
  129.0450  127.4310   58.1160 C   0  0  0  0  0  0  0  0  0  0  0  0
  128.8240  128.8400   57.5590 C   0  0  0  0  0  0  0  0  0  0  0  0
  127.5360  129.2460   57.1850 C   0  0  0  0  0  0  0  0  0  0  0  0
  127.2880  130.5240   56.6800 C   0  0  0  0  0  0  0  0  0  0  0  0
  126.0200  130.9050   56.3240 O   0  0  0  0  0  0  0  0  0  0  0  0
  128.3700  131.4080   56.5540 C   0  0  0  0  0  0  0  0  0  0  0  0
  128.4260  132.7000   56.1180 N   0  0  0  0  0  0  0  0  0  0  0  0
  129.7350  133.1170   56.2250 N   0  0  0  0  0  0  0  0  0  0  0  0
  130.4750  132.0860   56.6770 N   0  0  0  0  0  0  0  0  0  0  0  0
  131.8910  132.2710   56.9670 C   0  0  0  0  0  0  0  0  0  0  0  0
  132.2190  132.0720   58.4400 C   0  0  0  0  0  0  0  0  0  0  0  0
  133.5430  131.8590   58.8410 C   0  0  0  0  0  0  0  0  0  0  0  0
  133.8500  131.6980   60.1930 C   0  0  0  0  0  0  0  0  0  0  0  0
  132.8360  131.7510   61.1500 C   0  0  0  0  0  0  0  0  0  0  0  0
  131.5150  131.9660   60.7570 C   0  0  0  0  0  0  0  0  0  0  0  0
  130.2600  132.0430   61.9390 Cl  0  0  0  0  0  0  0  0  0  0  0  0
  131.2070  132.1230   59.4040 C   0  0  0  0  0  0  0  0  0  0  0  0
  129.6690  130.9870   56.9260 C   0  0  0  0  0  0  0  0  0  0  0  0
  129.9190  129.7060   57.4290 C   0  0  0  0  0  0  0  0  0  0  0  0
  128.9430  126.3310   57.0270 C   0  0  0  0  0  0  0  0  0  0  0  0
  129.1100  124.9180   57.6180 C   0  0  0  0  0  0  0  0  0  0  0  0
  129.6210  121.8510   61.2190 C   0  0  0  0  0  0  0  0  0  0  0  0
  130.8070  121.6820   61.9270 C   0  0  0  0  0  0  0  0  0  0  0  0
  1  2  2  0
  2  3  2  0
  2  4  1  0
  4  5  1  0
  5  6  1  0
  6  7  1  0
  7  8  1  0
  8  9  1  0
  9 10  1  0
 10 11  1  0
  2 12  1  0
 12 13  2  0
 13 14  1  0
 14 15  2  0
 15 16  1  0
 16 17  2  0
 16 18  2  0
 16 19  1  0
 19 20  1  0
 20 21  1  0
 21 22  1  0
 22 23  1  0
 23 24  2  0
 24 25  1  0
 25 26  1  0
 25 27  2  0
 27 28  1  0
 28 29  2  0
 29 30  1  0
 30 31  1  0
 31 32  1  0
 32 33  2  0
 33 34  1  0
 34 35  2  0
 35 36  1  0
 36 37  1  0
 36 38  2  0
 30 39  1  0
 39 40  2  0
 22 41  1  0
 41 42  1  0
 15 43  1  0
 43 44  2  0
 11  5  1  0
 44 12  1  0
 42 19  1  0
 40 23  1  0
 39 27  1  0
 38 32  1  0
M  END
>  <Binding energies>  (43) 
[-9.56]

>  <Ligand effiencies>  (43) 
[-0.1991666666666667]

>  <Interactions>  (43) 
["V-B:GLU:543:CD:9879, V-A:GLU:543:CD:4908, V-B:GLU:543:CB:9877, V-B:GLU:543:CG:9878, V-B:TYR:539:CD2:9845, V-B:PRO:540:CA:9854, V-B:TYR:539:CE2:9847, V-B:ALA:541:CB:9863, V-A:LEU:475:CD2:4258, H-B:ALA:541:N:9862, V-A:ILE:369:CG2:3236, V-B:TYR:539:CZ:9848, V-A:ARG:545:CZ:4926, H-A:TYR:539:OH:4878, V-A:PRO:540:N:4884, V-A:MET:535:CE:4835, H-A:GLY:454:N:4049, V-A:LEU:363:CA:3184, V-A:PRO:540:CB:4885, V-A:LEU:363:CD1:3188, V-A:ASP:366:CG:3212, H-A:TYR:484:OH:4347, V-A:PRO:540:CA:4883, V-A:TYR:484:CE1:4344, V-A:TYR:484:CZ:4346, V-A:GLY:454:CA:4048, V-A:ILE:369:CD1:3238, V-A:ALA:541:CB:4892, V-A:PRO:540:C:4881, H-A:TYR:539:N:4870, V-A:ASN:362:CB:3175, V-A:LEU:363:CB:3186, V-A:ASN:362:C:3171"]

$$$$
RR18_Rahimova_2017
     RDKit          3D

 36 41  0  0  0  0  0  0  0  0999 V2000
  130.1850  120.3330   61.0370 C   0  0  0  0  0  0  0  0  0  0  0  0
  130.3100  121.5050   61.9790 C   0  0  0  0  0  0  0  0  0  0  0  0
  130.6250  121.6360   63.3220 C   0  0  0  0  0  0  0  0  0  0  0  0
  130.5750  122.9980   63.6160 C   0  0  0  0  0  0  0  0  0  0  0  0
  130.2320  123.6500   62.4430 C   0  0  0  0  0  0  0  0  0  0  0  0
  130.0180  125.1150   62.0710 C   0  0  1  0  0  0  0  0  0  0  0  0
  131.0250  126.0460   62.8100 C   0  0  0  0  0  0  0  0  0  0  0  0
  130.9810  126.1760   64.2640 C   0  0  0  0  0  0  0  0  0  0  0  0
  131.9880  126.0360   64.9600 O   0  0  0  0  0  0  0  0  0  0  0  0
  129.7560  126.4740   64.7560 N   0  0  0  0  0  0  0  0  0  0  0  0
  129.3280  126.6540   66.0890 C   0  0  0  0  0  0  0  0  0  0  0  0
  128.7940  127.8610   66.5760 C   0  0  0  0  0  0  0  0  0  0  0  0
  128.3950  127.9750   67.9060 C   0  0  0  0  0  0  0  0  0  0  0  0
  128.5290  126.8930   68.7710 C   0  0  0  0  0  0  0  0  0  0  0  0
  129.0670  125.6950   68.3060 C   0  0  0  0  0  0  0  0  0  0  0  0
  129.4710  125.5650   66.9730 C   0  0  0  0  0  0  0  0  0  0  0  0
  130.0580  124.2330   66.5160 C   0  0  0  0  0  0  0  0  0  0  0  0
  132.0040  126.6470   62.0840 C   0  0  0  0  0  0  0  0  0  0  0  0
  132.1070  126.5960   60.7270 N   0  0  0  0  0  0  0  0  0  0  0  0
  131.1910  126.0130   60.0460 C   0  0  0  0  0  0  0  0  0  0  0  0
  131.1100  125.9980   58.3010 S   0  0  0  0  0  0  0  0  0  0  0  0
  129.5870  125.0540   58.3270 C   0  0  0  0  0  0  0  0  0  0  0  0
  128.8530  124.6260   57.2420 C   0  0  0  0  0  0  0  0  0  0  0  0
  129.2540  125.0060   55.8790 C   0  0  0  0  0  0  0  0  0  0  0  0
  130.2150  125.6700   55.4920 O   0  0  0  0  0  0  0  0  0  0  0  0
  128.3420  124.5020   55.0410 N   0  0  0  0  0  0  0  0  0  0  0  0
  127.3740  123.7860   55.6770 C   0  0  0  0  0  0  0  0  0  0  0  0
  126.2900  123.1200   55.1060 C   0  0  0  0  0  0  0  0  0  0  0  0
  125.4230  122.4130   55.9350 C   0  0  0  0  0  0  0  0  0  0  0  0
  125.6590  122.3760   57.3080 C   0  0  0  0  0  0  0  0  0  0  0  0
  126.7520  123.0520   57.8560 C   0  0  0  0  0  0  0  0  0  0  0  0
  127.6260  123.7920   57.0380 C   0  0  0  0  0  0  0  0  0  0  0  0
  129.2270  124.8160   59.7260 C   0  0  0  0  0  0  0  0  0  0  0  0
  128.2190  124.2480   60.1330 O   0  0  0  0  0  0  0  0  0  0  0  0
  130.1500  125.3280   60.5850 N   0  0  0  0  0  0  0  0  0  0  0  0
  130.0710  122.7340   61.4510 O   0  0  0  0  0  0  0  0  0  0  0  0
  1  2  1  0
  2  3  2  0
  3  4  1  0
  4  5  2  0
  6  5  1  6
  6  7  1  0
  7  8  1  0
  8  9  2  0
  8 10  1  0
 10 11  1  0
 11 12  2  0
 12 13  1  0
 13 14  2  0
 14 15  1  0
 15 16  2  0
 16 17  1  0
  7 18  2  0
 18 19  1  0
 19 20  2  0
 20 21  1  0
 21 22  1  0
 22 23  2  0
 23 24  1  0
 24 25  2  0
 24 26  1  0
 26 27  1  0
 27 28  2  0
 28 29  1  0
 29 30  2  0
 30 31  1  0
 31 32  2  0
 22 33  1  0
 33 34  2  0
 33 35  1  0
  5 36  1  0
 36  2  1  0
 35  6  1  0
 16 11  1  0
 35 20  1  0
 32 23  1  0
 32 27  1  0
M  END
>  <Binding energies>  (44) 
[-8.64]

>  <Ligand effiencies>  (44) 
[-0.22736842105263158]

>  <Interactions>  (44) 
["V-A:HIS:456:CE1:4069, V-A:GLU:543:CG:4907, V-B:GLU:543:CD:9879, V-A:GLU:543:CD:4908, V-B:HIS:456:CE1:9041, V-B:GLU:543:CB:9877, V-B:GLU:543:CG:9878, V-B:MET:535:CE:9806, V-B:LEU:363:CD1:8160, V-B:TYR:539:CD2:9845, V-B:PRO:540:CA:9854, V-B:TYR:539:CE2:9847, V-B:ALA:541:CB:9863, V-B:PRO:540:N:9855, V-A:LEU:475:CD2:4258, V-B:TYR:539:CE1:9846, V-B:PRO:540:CB:9856, V-B:TYR:539:CZ:9848, V-B:TYR:539:C:9838, V-B:PRO:540:CD:9858, V-A:ARG:545:CZ:4926, H-A:TYR:531:OH:4795, V-B:PRO:540:CG:9857, H-B:TYR:539:OH:9849, V-A:ASP:366:CG:3212, V-A:TYR:484:CE1:4344, V-B:ILE:538:CD1:9836, V-A:TYR:484:CZ:4346, H-A:ARG:545:NH2:4928, H-A:ARG:545:NE:4924, H-B:GLU:543:OE2:9881, V-A:LEU:475:CD1:4257, H-B:MET:535:SD:9805, H-A:ASN:370:ND2:3247"]

$$$$
RR20_Rahimova_2017
     RDKit          3D

 38 43  0  0  0  0  0  0  0  0999 V2000
  126.8750  132.9180   73.4770 C   0  0  0  0  0  0  0  0  0  0  0  0
  127.6340  131.6100   73.3520 C   0  0  0  0  0  0  0  0  0  0  0  0
  127.6640  130.7200   74.4260 C   0  0  0  0  0  0  0  0  0  0  0  0
  128.3520  129.5150   74.3110 C   0  0  0  0  0  0  0  0  0  0  0  0
  129.0260  129.1960   73.1270 C   0  0  0  0  0  0  0  0  0  0  0  0
  129.7500  127.8720   73.0150 C   0  0  0  0  0  0  0  0  0  0  0  0
  130.6630  127.6520   73.8140 O   0  0  0  0  0  0  0  0  0  0  0  0
  129.3650  126.9780   72.0580 N   0  0  0  0  0  0  0  0  0  0  0  0
  128.1620  126.1450   72.2200 C   0  0  0  0  0  0  0  0  0  0  0  0
  127.9760  125.4030   70.9070 C   0  0  0  0  0  0  0  0  0  0  0  0
  128.8710  126.1540   69.9690 C   0  0  0  0  0  0  0  0  0  0  0  0
  129.0480  125.9820   68.5960 C   0  0  0  0  0  0  0  0  0  0  0  0
  130.0560  126.6740   67.9140 C   0  0  0  0  0  0  0  0  0  0  0  0
  130.2410  126.4960   66.4330 C   0  0  0  0  0  0  0  0  0  0  0  0
  129.2000  126.6970   65.6400 N   0  0  0  0  0  0  0  0  0  0  0  0
  129.4810  126.5330   64.3720 C   0  0  0  0  0  0  0  0  0  0  0  0
  128.6310  126.6700   63.2850 N   0  0  0  0  0  0  0  0  0  0  0  0
  128.8760  126.2910   62.0070 C   0  0  0  0  0  0  0  0  0  0  0  0
  129.9140  125.7380   61.6390 O   0  0  0  0  0  0  0  0  0  0  0  0
  127.7740  126.5450   60.9500 C   0  0  0  0  0  0  0  0  0  0  0  0
  127.7000  125.4830   59.9290 N   0  0  0  0  0  0  0  0  0  0  0  0
  127.9490  124.1470   60.4890 C   0  0  0  0  0  0  0  0  0  0  0  0
  128.1250  123.1160   59.3510 C   0  0  0  0  0  0  0  0  0  0  0  0
  127.0620  123.2450   58.2590 C   0  0  0  0  0  0  0  0  0  0  0  0
  126.8930  122.2450   57.2960 C   0  0  0  0  0  0  0  0  0  0  0  0
  125.9520  122.3800   56.2780 C   0  0  0  0  0  0  0  0  0  0  0  0
  125.1620  123.5230   56.2140 C   0  0  0  0  0  0  0  0  0  0  0  0
  125.3130  124.5230   57.1730 C   0  0  0  0  0  0  0  0  0  0  0  0
  126.2560  124.4010   58.1990 C   0  0  0  0  0  0  0  0  0  0  0  0
  126.3820  125.4710   59.2840 C   0  0  0  0  0  0  0  0  0  0  0  0
  131.1120  126.0900   64.0550 S   0  0  0  0  0  0  0  0  0  0  0  0
  131.4320  126.1220   65.7730 C   0  0  0  0  0  0  0  0  0  0  0  0
  132.8000  125.7570   66.3050 C   0  0  0  0  0  0  0  0  0  0  0  0
  130.9170  127.5010   68.6520 C   0  0  0  0  0  0  0  0  0  0  0  0
  130.7540  127.6610   70.0280 C   0  0  0  0  0  0  0  0  0  0  0  0
  129.6890  127.0290   70.6830 C   0  0  0  0  0  0  0  0  0  0  0  0
  128.9670  130.0810   72.0430 C   0  0  0  0  0  0  0  0  0  0  0  0
  128.2790  131.2870   72.1570 C   0  0  0  0  0  0  0  0  0  0  0  0
  1  2  1  0
  2  3  2  0
  3  4  1  0
  4  5  2  0
  5  6  1  0
  6  7  2  0
  6  8  1  0
  8  9  1  0
  9 10  1  0
 10 11  1  0
 11 12  2  0
 12 13  1  0
 13 14  1  0
 14 15  1  0
 15 16  2  0
 16 17  1  0
 17 18  1  0
 18 19  2  0
 18 20  1  0
 20 21  1  0
 21 22  1  0
 22 23  1  0
 23 24  1  0
 24 25  2  0
 25 26  1  0
 26 27  2  0
 27 28  1  0
 28 29  2  0
 29 30  1  0
 16 31  1  0
 31 32  1  0
 32 33  1  0
 13 34  2  0
 34 35  1  0
 35 36  2  0
  5 37  1  0
 37 38  2  0
 38  2  1  0
 36  8  1  0
 36 11  1  0
 32 14  2  0
 30 21  1  0
 29 24  1  0
M  END
>  <Binding energies>  (45) 
[-10.12]

>  <Ligand effiencies>  (45) 
[-0.2594871794871795]

>  <Interactions>  (45) 
["V-A:HIS:456:CE1:4069, V-A:GLU:543:CB:4906, V-B:GLU:543:CD:9879, V-A:GLU:543:CD:4908, V-B:HIS:456:CE1:9041, H-A:LYS:547:NZ:4951, V-B:HIS:456:CD2:9039, V-B:HIS:456:CG:9037, V-B:GLU:543:C:9873, V-B:GLU:543:CB:9877, V-B:MET:535:CE:9806, V-B:LEU:363:CD1:8160, V-B:PRO:540:CA:9854, V-B:TYR:539:CE2:9847, V-B:PRO:540:N:9855, V-B:TYR:539:CE1:9846, V-B:PRO:540:CB:9856, V-B:TYR:539:C:9838, V-B:PRO:540:CD:9858, V-A:ARG:545:CZ:4926, V-B:TYR:539:CD1:9844, V-B:TYR:539:CA:9840, V-B:TYR:539:CG:9843, V-B:TYR:531:CZ:9765, V-B:TYR:484:CE1:9316, V-A:ARG:545:CD:4923, V-A:ARG:545:CG:4922, H-B:GLU:543:OE1:9880, H-B:GLU:543:OE2:9881, V-B:TYR:484:CD1:9314, V-B:GLY:544:C:9883, V-B:ASP:473:CG:9211, V-B:HIS:456:CB:9036, V-B:TYR:484:CG:9313, V-B:ASP:473:CB:9210, V-B:TYR:484:CB:9312, V-B:TYR:484:CD2:9315"]

$$$$
RR21_Rahimova_2017
     RDKit          3D

 40 45  0  0  0  0  0  0  0  0999 V2000
  133.9810  124.6150   62.4170 C   0  0  0  0  0  0  0  0  0  0  0  0
  133.6620  124.0860   63.7010 O   0  0  0  0  0  0  0  0  0  0  0  0
  132.7480  124.7490   64.4970 C   0  0  0  0  0  0  0  0  0  0  0  0
  131.3680  124.8070   64.2360 C   0  0  0  0  0  0  0  0  0  0  0  0
  130.5120  125.4970   65.0930 C   0  0  0  0  0  0  0  0  0  0  0  0
  131.0080  126.1410   66.2320 C   0  0  0  0  0  0  0  0  0  0  0  0
  130.0840  126.8760   67.1550 C   0  0  0  0  0  0  0  0  0  0  0  0
  130.3540  126.9340   68.4440 N   0  0  0  0  0  0  0  0  0  0  0  0
  129.3700  127.6470   69.0120 N   0  0  0  0  0  0  0  0  0  0  0  0
  129.3620  127.9200   70.4050 C   0  0  0  0  0  0  0  0  0  0  0  0
  129.1260  126.8970   71.3360 C   0  0  0  0  0  0  0  0  0  0  0  0
  129.1250  127.1760   72.7000 C   0  0  0  0  0  0  0  0  0  0  0  0
  129.3590  128.4780   73.1380 C   0  0  0  0  0  0  0  0  0  0  0  0
  129.5910  129.5030   72.2240 C   0  0  0  0  0  0  0  0  0  0  0  0
  129.5920  129.2260   70.8600 C   0  0  0  0  0  0  0  0  0  0  0  0
  128.4730  128.0600   68.0590 C   0  0  0  0  0  0  0  0  0  0  0  0
  128.8930  127.5660   66.8330 C   0  0  0  0  0  0  0  0  0  0  0  0
  128.2920  127.7790   65.5250 C   0  0  0  0  0  0  0  0  0  0  0  0
  127.3880  128.7180   65.1620 C   0  0  0  0  0  0  0  0  0  0  0  0
  126.6510  129.9760   66.1790 S   0  0  0  0  0  0  0  0  0  0  0  0
  125.7600  130.5630   64.7820 C   0  0  0  0  0  0  0  0  0  0  0  0
  124.9430  131.5690   64.7250 N   0  0  0  0  0  0  0  0  0  0  0  0
  124.2910  131.9490   63.5200 C   0  0  0  0  0  0  0  0  0  0  0  0
  123.5210  132.8980   63.3780 O   0  0  0  0  0  0  0  0  0  0  0  0
  124.6270  131.0710   62.3450 C   0  0  0  0  0  0  0  0  0  0  0  0
  123.9670  131.3730   60.9930 C   0  0  0  0  0  0  0  0  0  0  0  0
  124.9320  131.3780   59.8090 C   0  0  0  0  0  0  0  0  0  0  0  0
  126.2410  131.8380   59.9750 C   0  0  0  0  0  0  0  0  0  0  0  0
  127.1260  131.8270   58.9000 C   0  0  0  0  0  0  0  0  0  0  0  0
  126.7050  131.3530   57.6560 C   0  0  0  0  0  0  0  0  0  0  0  0
  127.6760  131.3320   56.4900 C   0  0  0  0  0  0  0  0  0  0  0  0
  125.4000  130.8820   57.4900 C   0  0  0  0  0  0  0  0  0  0  0  0
  124.5160  130.8940   58.5650 C   0  0  0  0  0  0  0  0  0  0  0  0
  125.4400  130.0680   62.4180 N   0  0  0  0  0  0  0  0  0  0  0  0
  126.0220  129.8130   63.6660 N   0  0  0  0  0  0  0  0  0  0  0  0
  126.8950  128.7840   63.7930 C   0  0  0  0  0  0  0  0  0  0  0  0
  127.2250  128.0230   62.8760 O   0  0  0  0  0  0  0  0  0  0  0  0
  132.3810  126.0880   66.4900 C   0  0  0  0  0  0  0  0  0  0  0  0
  133.2410  125.4000   65.6330 C   0  0  0  0  0  0  0  0  0  0  0  0
  134.5650  125.3670   65.9120 F   0  0  0  0  0  0  0  0  0  0  0  0
  1  2  1  0
  2  3  1  0
  3  4  2  0
  4  5  1  0
  5  6  2  0
  6  7  1  0
  7  8  2  0
  8  9  1  0
  9 10  1  0
 10 11  2  0
 11 12  1  0
 12 13  2  0
 13 14  1  0
 14 15  2  0
  9 16  1  0
 16 17  2  0
 17 18  1  0
 18 19  2  0
 19 20  1  0
 20 21  1  0
 21 22  2  0
 22 23  1  0
 23 24  2  0
 23 25  1  0
 25 26  1  0
 26 27  1  0
 27 28  2  0
 28 29  1  0
 29 30  2  0
 30 31  1  0
 30 32  1  0
 32 33  2  0
 25 34  2  0
 34 35  1  0
 35 36  1  0
 36 37  2  0
  6 38  1  0
 38 39  2  0
 39 40  1  0
 39  3  1  0
 17  7  1  0
 36 19  1  0
 15 10  1  0
 35 21  1  0
 33 27  1  0
M  END
>  <Binding energies>  (46) 
[-9.51]

>  <Ligand effiencies>  (46) 
[-0.23775]

>  <Interactions>  (46) 
["V-A:HIS:456:CE1:4069, V-A:GLU:543:CB:4906, V-A:GLU:543:CG:4907, V-B:GLU:543:CD:9879, V-A:GLU:543:CD:4908, V-B:HIS:456:CE1:9041, V-B:HIS:456:CD2:9039, V-B:ASP:366:CG:8184, V-B:ASP:366:CA:8181, V-A:ARG:545:CZ:4926, V-A:TYR:539:CD2:4874, V-A:TYR:539:CE2:4876, V-A:MET:535:CE:4835, V-B:ASP:366:CB:8183, H-A:GLY:454:N:4049, V-A:GLY:454:CA:4048, V-A:ILE:369:CD1:3238, H-B:TYR:484:OH:9319, V-A:TYR:539:CZ:4877, V-A:ARG:545:CD:4923, V-A:ARG:545:CG:4922, H-B:GLY:454:N:9021, V-B:GLY:454:CA:9020, H-B:ARG:545:NH2:9899, V-A:GLY:453:C:4041, V-A:GLY:453:CA:4043, V-B:ILE:369:CD1:8210"]

$$$$
RR23_Rahimova_2017
     RDKit          3D

 39 44  0  0  0  0  0  0  0  0999 V2000
  126.8760  122.6420   53.8650 C   0  0  0  0  0  0  0  0  0  0  0  0
  126.9120  122.8280   55.3710 C   0  0  0  0  0  0  0  0  0  0  0  0
  127.9450  123.5570   55.9610 C   0  0  0  0  0  0  0  0  0  0  0  0
  127.9720  123.7340   57.3420 C   0  0  0  0  0  0  0  0  0  0  0  0
  126.9710  123.1750   58.1450 C   0  0  0  0  0  0  0  0  0  0  0  0
  127.0070  123.3960   59.6400 C   0  0  0  0  0  0  0  0  0  0  0  0
  126.1610  124.1500   60.1260 O   0  0  0  0  0  0  0  0  0  0  0  0
  127.9500  122.7530   60.3910 N   0  0  0  0  0  0  0  0  0  0  0  0
  128.7410  121.6390   59.8440 C   0  0  0  0  0  0  0  0  0  0  0  0
  129.7700  121.2840   60.9050 C   0  0  0  0  0  0  0  0  0  0  0  0
  129.7300  122.4710   61.8190 C   0  0  0  0  0  0  0  0  0  0  0  0
  130.5240  122.7510   62.9310 C   0  0  0  0  0  0  0  0  0  0  0  0
  130.2250  123.8430   63.7600 C   0  0  0  0  0  0  0  0  0  0  0  0
  131.0740  124.1870   64.9930 C   0  0  2  0  0  0  0  0  0  0  0  0
  130.3580  125.0220   65.9330 N   0  0  0  0  0  0  0  0  0  0  0  0
  131.1370  125.8140   66.5540 C   0  0  0  0  0  0  0  0  0  0  0  0
  130.8130  126.7520   67.4840 N   0  0  0  0  0  0  0  0  0  0  0  0
  129.5810  127.1640   67.8700 C   0  0  0  0  0  0  0  0  0  0  0  0
  128.5120  126.7120   67.4560 O   0  0  0  0  0  0  0  0  0  0  0  0
  129.5580  128.2960   68.9110 C   0  0  0  0  0  0  0  0  0  0  0  0
  129.9550  127.7510   70.2290 N   0  0  0  0  0  0  0  0  0  0  0  0
  131.0810  128.3310   70.7990 N   0  0  0  0  0  0  0  0  0  0  0  0
  131.5320  127.9430   71.9490 N   0  0  0  0  0  0  0  0  0  0  0  0
  130.8800  126.9210   72.6420 C   0  0  0  0  0  0  0  0  0  0  0  0
  131.3940  126.5250   73.8790 C   0  0  0  0  0  0  0  0  0  0  0  0
  130.7640  125.5060   74.5960 C   0  0  0  0  0  0  0  0  0  0  0  0
  129.6260  124.8830   74.0790 C   0  0  0  0  0  0  0  0  0  0  0  0
  129.1110  125.2770   72.8420 C   0  0  0  0  0  0  0  0  0  0  0  0
  129.7420  126.3010   72.1240 C   0  0  0  0  0  0  0  0  0  0  0  0
  129.2030  126.7390   70.7830 C   0  0  0  0  0  0  0  0  0  0  0  0
  128.2110  126.2380   70.2440 O   0  0  0  0  0  0  0  0  0  0  0  0
  132.8770  125.7110   66.1600 S   0  0  0  0  0  0  0  0  0  0  0  0
  132.4560  124.7990   64.6640 C   0  0  2  0  0  0  0  0  0  0  0  0
  132.5190  125.7580   63.4570 C   0  0  0  0  0  0  0  0  0  0  0  0
  129.0900  124.6130   63.4790 C   0  0  0  0  0  0  0  0  0  0  0  0
  128.2830  124.3200   62.3790 C   0  0  0  0  0  0  0  0  0  0  0  0
  128.6340  123.2780   61.5110 C   0  0  0  0  0  0  0  0  0  0  0  0
  125.9220  122.4680   57.5430 C   0  0  0  0  0  0  0  0  0  0  0  0
  125.8950  122.2920   56.1630 C   0  0  0  0  0  0  0  0  0  0  0  0
  1  2  1  0
  2  3  2  0
  3  4  1  0
  4  5  2  0
  5  6  1  0
  6  7  2  0
  6  8  1  0
  8  9  1  0
  9 10  1  0
 10 11  1  0
 11 12  2  0
 12 13  1  0
 14 13  1  6
 14 15  1  0
 15 16  2  0
 16 17  1  0
 17 18  1  0
 18 19  2  0
 18 20  1  0
 20 21  1  0
 21 22  1  0
 22 23  2  0
 23 24  1  0
 24 25  2  0
 25 26  1  0
 26 27  2  0
 27 28  1  0
 28 29  2  0
 29 30  1  0
 30 31  2  0
 16 32  1  0
 32 33  1  0
 33 34  1  6
 13 35  2  0
 35 36  1  0
 36 37  2  0
  5 38  1  0
 38 39  2  0
 39  2  1  0
 37  8  1  0
 37 11  1  0
 33 14  1  0
 30 21  1  0
 29 24  1  0
M  END
>  <Binding energies>  (47) 
[-10.57]

>  <Ligand effiencies>  (47) 
[-0.26425]

>  <Interactions>  (47) 
["V-A:HIS:456:CB:4064, V-A:HIS:456:CE1:4069, V-A:HIS:456:CG:4065, V-A:GLU:543:CB:4906, V-A:GLU:543:CG:4907, V-A:HIS:456:CD2:4067, V-B:GLU:543:CD:9879, V-A:GLU:543:CD:4908, V-B:HIS:456:CE1:9041, H-A:LYS:547:NZ:4951, V-B:LYS:547:CE:9921, V-B:GLU:543:CG:9878, V-B:MET:535:CE:9806, V-B:TYR:539:CD2:9845, V-B:PRO:540:CA:9854, V-B:TYR:539:CE2:9847, V-B:PRO:540:C:9852, V-B:ALA:541:CB:9863, V-B:PRO:540:N:9855, V-B:TYR:539:CE1:9846, V-B:PRO:540:CB:9856, V-B:TYR:539:CZ:9848, V-B:TYR:539:C:9838, V-B:PRO:540:CD:9858, V-A:ARG:545:CZ:4926, V-B:ILE:538:CA:9831, V-B:PRO:540:CG:9857, V-B:TYR:539:CD1:9844, H-A:TYR:484:OH:4347, V-B:ILE:538:CD1:9836, H-A:ARG:545:NE:4924, H-A:GLU:543:OE2:4910, H-A:HIS:456:ND1:4066, V-B:MET:535:CB:9803, V-B:VAL:537:C:9821, V-B:MET:535:CG:9804"]

$$$$
RR26_Rahimova_2017
     RDKit          3D

 38 44  0  0  0  0  0  0  0  0999 V2000
  129.8460  121.0440   61.0400 C   0  0  0  0  0  0  0  0  0  0  0  0
  131.3310  120.7880   61.2660 C   0  0  0  0  0  0  0  0  0  0  0  0
  131.9380  119.7450   60.5590 C   0  0  0  0  0  0  0  0  0  0  0  0
  133.3020  119.4920   60.6960 C   0  0  0  0  0  0  0  0  0  0  0  0
  134.0730  120.2870   61.5380 C   0  0  0  0  0  0  0  0  0  0  0  0
  133.4800  121.3290   62.2470 C   0  0  0  0  0  0  0  0  0  0  0  0
  132.1070  121.5940   62.1280 C   0  0  0  0  0  0  0  0  0  0  0  0
  131.5440  122.7260   62.9390 C   0  0  0  0  0  0  0  0  0  0  0  0
  131.3860  122.6470   64.2570 N   0  0  0  0  0  0  0  0  0  0  0  0
  130.8960  123.8230   64.5410 C   0  0  0  0  0  0  0  0  0  0  0  0
  130.3750  124.6330   65.9720 S   0  0  0  0  0  0  0  0  0  0  0  0
  129.9770  126.0850   64.9780 C   0  0  0  0  0  0  0  0  0  0  0  0
  129.4610  127.2610   65.3990 C   0  0  0  0  0  0  0  0  0  0  0  0
  129.1070  127.6500   66.7550 C   0  0  0  0  0  0  0  0  0  0  0  0
  129.7990  127.3920   67.9280 C   0  0  0  0  0  0  0  0  0  0  0  0
  129.1170  127.9850   68.9600 N   0  0  0  0  0  0  0  0  0  0  0  0
  129.4470  127.9960   70.3400 C   0  0  0  0  0  0  0  0  0  0  0  0
  130.1060  129.0940   70.9120 C   0  0  0  0  0  0  0  0  0  0  0  0
  130.4270  129.0910   72.2660 C   0  0  0  0  0  0  0  0  0  0  0  0
  130.0890  127.9930   73.0530 C   0  0  0  0  0  0  0  0  0  0  0  0
  129.4320  126.8970   72.4980 C   0  0  0  0  0  0  0  0  0  0  0  0
  129.1120  126.8960   71.1440 C   0  0  0  0  0  0  0  0  0  0  0  0
  128.0380  128.6320   68.4930 N   0  0  0  0  0  0  0  0  0  0  0  0
  128.0170  128.4370   67.1890 C   0  0  0  0  0  0  0  0  0  0  0  0
  126.9160  129.0300   66.3640 C   0  0  0  0  0  0  0  0  0  0  0  0
  125.6760  129.3320   66.9470 C   0  0  0  0  0  0  0  0  0  0  0  0
  124.6430  129.8810   66.1860 C   0  0  0  0  0  0  0  0  0  0  0  0
  124.8430  130.1310   64.8300 C   0  0  0  0  0  0  0  0  0  0  0  0
  126.0840  129.8510   64.2400 C   0  0  0  0  0  0  0  0  0  0  0  0
  127.1120  129.2970   65.0010 C   0  0  0  0  0  0  0  0  0  0  0  0
  126.3130  130.0410   62.8910 O   0  0  0  0  0  0  0  0  0  0  0  0
  125.3850  130.9280   62.2590 C   0  0  0  0  0  0  0  0  0  0  0  0
  123.9370  130.6070   62.7030 C   0  0  0  0  0  0  0  0  0  0  0  0
  123.8110  130.7190   64.1250 O   0  0  0  0  0  0  0  0  0  0  0  0
  130.2600  125.8810   63.5600 C   0  0  0  0  0  0  0  0  0  0  0  0
  130.1030  126.6570   62.6160 O   0  0  0  0  0  0  0  0  0  0  0  0
  130.7730  124.5800   63.4360 N   0  0  0  0  0  0  0  0  0  0  0  0
  131.1970  123.8760   62.3830 N   0  0  0  0  0  0  0  0  0  0  0  0
  1  2  1  0
  2  3  2  0
  3  4  1  0
  4  5  2  0
  5  6  1  0
  6  7  2  0
  7  8  1  0
  8  9  1  0
  9 10  2  0
 10 11  1  0
 11 12  1  0
 12 13  2  0
 13 14  1  0
 14 15  2  0
 15 16  1  0
 16 17  1  0
 17 18  2  0
 18 19  1  0
 19 20  2  0
 20 21  1  0
 21 22  2  0
 16 23  1  0
 23 24  2  0
 24 25  1  0
 25 26  2  0
 26 27  1  0
 27 28  2  0
 28 29  1  0
 29 30  2  0
 29 31  1  0
 31 32  1  0
 32 33  1  0
 33 34  1  0
 12 35  1  0
 35 36  2  0
 35 37  1  0
 37 38  1  0
  7  2  1  0
 38  8  2  0
 37 10  1  0
 24 14  1  0
 30 25  1  0
 22 17  1  0
 34 28  1  0
M  END
>  <Binding energies>  (48) 
[-9.56]

>  <Ligand effiencies>  (48) 
[-0.25157894736842107]

>  <Interactions>  (48) 
["V-A:HIS:456:CE1:4069, V-A:GLU:543:CB:4906, V-A:GLU:543:CG:4907, V-B:GLU:543:CD:9879, V-A:GLU:543:CD:4908, V-B:HIS:456:CE1:9041, V-B:GLU:543:CG:9878, V-A:TRP:381:CZ2:3369, V-B:ASP:366:CG:8184, V-A:TRP:381:CH2:3371, V-B:TYR:539:CD2:9845, V-B:TYR:539:CE2:9847, V-B:ALA:541:CB:9863, V-A:LEU:475:CD2:4258, V-A:ILE:369:CG2:3236, H-A:TYR:484:OH:4347, V-A:TYR:484:CE1:4344, V-A:GLY:454:CA:4048, V-A:ILE:369:CD1:3238, V-A:GLU:543:C:4902, H-B:GLY:454:N:9021, V-B:ARG:545:CZ:9897, V-B:ARG:545:CD:9894, V-A:SER:385:C:3404"]

$$$$
RR2_Rahimova_2017
     RDKit          3D

 46 50  0  0  0  0  0  0  0  0999 V2000
  129.4620  133.5800   55.1150 C   0  0  0  0  0  0  0  0  0  0  0  0
  130.2720  133.4750   56.2810 O   0  0  0  0  0  0  0  0  0  0  0  0
  130.2530  132.3020   57.0120 C   0  0  0  0  0  0  0  0  0  0  0  0
  129.2890  131.9880   57.9800 C   0  0  0  0  0  0  0  0  0  0  0  0
  129.3520  130.7810   58.6700 C   0  0  0  0  0  0  0  0  0  0  0  0
  130.3790  129.8620   58.4120 C   0  0  0  0  0  0  0  0  0  0  0  0
  130.4290  128.5560   59.1820 C   0  0  0  0  0  0  0  0  0  0  0  0
  130.0930  128.5210   60.3710 O   0  0  0  0  0  0  0  0  0  0  0  0
  130.8710  127.4800   58.4900 N   0  0  0  0  0  0  0  0  0  0  0  0
  131.0240  126.2790   59.1740 N   0  0  0  0  0  0  0  0  0  0  0  0
  132.0180  125.4510   58.7940 C   0  0  0  0  0  0  0  0  0  0  0  0
  132.6960  125.5860   57.7710 O   0  0  0  0  0  0  0  0  0  0  0  0
  132.3060  124.2820   59.7450 C   0  0  0  0  0  0  0  0  0  0  0  0
  133.9910  124.2610   60.4590 S   0  0  0  0  0  0  0  0  0  0  0  0
  133.6390  124.6980   62.1350 C   0  0  0  0  0  0  0  0  0  0  0  0
  134.5320  125.2180   62.9400 N   0  0  0  0  0  0  0  0  0  0  0  0
  133.9370  125.3640   64.1850 N   0  0  0  0  0  0  0  0  0  0  0  0
  132.6950  124.9530   64.0790 C   0  0  0  0  0  0  0  0  0  0  0  0
  131.7230  124.9720   65.2140 C   0  0  0  0  0  0  0  0  0  0  0  0
  131.7440  126.0280   66.1280 C   0  0  0  0  0  0  0  0  0  0  0  0
  130.8480  126.0510   67.1930 C   0  0  0  0  0  0  0  0  0  0  0  0
  129.9110  125.0230   67.3440 C   0  0  0  0  0  0  0  0  0  0  0  0
  128.9910  124.9880   68.4040 N   0  0  0  0  0  0  0  0  0  0  0  0
  128.2910  126.4240   69.1840 S   0  0  0  0  0  0  0  0  0  0  0  0
  126.8650  126.1300   69.3640 O   0  0  0  0  0  0  0  0  0  0  0  0
  128.7270  127.6080   68.4340 O   0  0  0  0  0  0  0  0  0  0  0  0
  129.0190  126.4700   70.8200 C   0  0  0  0  0  0  0  0  0  0  0  0
  129.9440  127.4610   71.1600 C   0  0  0  0  0  0  0  0  0  0  0  0
  130.5100  127.4690   72.4320 C   0  0  0  0  0  0  0  0  0  0  0  0
  130.1480  126.4940   73.3640 C   0  0  0  0  0  0  0  0  0  0  0  0
  130.7770  126.4970   74.7450 C   0  0  0  0  0  0  0  0  0  0  0  0
  129.2260  125.5030   73.0200 C   0  0  0  0  0  0  0  0  0  0  0  0
  128.6600  125.4920   71.7480 C   0  0  0  0  0  0  0  0  0  0  0  0
  129.8890  123.9700   66.4290 C   0  0  0  0  0  0  0  0  0  0  0  0
  130.7890  123.9440   65.3680 C   0  0  0  0  0  0  0  0  0  0  0  0
  132.4370  124.5080   62.7920 N   0  0  0  0  0  0  0  0  0  0  0  0
  131.2480  123.9500   62.2790 C   0  0  0  0  0  0  0  0  0  0  0  0
  130.1570  124.7740   61.9980 C   0  0  0  0  0  0  0  0  0  0  0  0
  128.9880  124.2170   61.4880 C   0  0  0  0  0  0  0  0  0  0  0  0
  128.8970  122.8440   61.2560 C   0  0  0  0  0  0  0  0  0  0  0  0
  127.6960  122.3850   60.7490 O   0  0  0  0  0  0  0  0  0  0  0  0
  126.9920  123.1810   59.8010 C   0  0  0  0  0  0  0  0  0  0  0  0
  130.0000  122.0230   61.5420 C   0  0  0  0  0  0  0  0  0  0  0  0
  131.1720  122.5750   62.0500 C   0  0  0  0  0  0  0  0  0  0  0  0
  131.3370  130.1800   57.4370 C   0  0  0  0  0  0  0  0  0  0  0  0
  131.2700  131.3870   56.7470 C   0  0  0  0  0  0  0  0  0  0  0  0
  1  2  1  0
  2  3  1  0
  3  4  2  0
  4  5  1  0
  5  6  2  0
  6  7  1  0
  7  8  2  0
  7  9  1  0
  9 10  1  0
 10 11  1  0
 11 12  2  0
 11 13  1  0
 13 14  1  0
 14 15  1  0
 15 16  2  0
 16 17  1  0
 17 18  2  0
 18 19  1  0
 19 20  2  0
 20 21  1  0
 21 22  2  0
 22 23  1  0
 23 24  1  0
 24 25  2  0
 24 26  2  0
 24 27  1  0
 27 28  2  0
 28 29  1  0
 29 30  2  0
 30 31  1  0
 30 32  1  0
 32 33  2  0
 22 34  1  0
 34 35  2  0
 18 36  1  0
 36 37  1  0
 37 38  2  0
 38 39  1  0
 39 40  2  0
 40 41  1  0
 41 42  1  0
 40 43  1  0
 43 44  2  0
  6 45  1  0
 45 46  2  0
 46  3  1  0
 36 15  1  0
 44 37  1  0
 35 19  1  0
 33 27  1  0
M  END
>  <Binding energies>  (49) 
[-10.49]

>  <Ligand effiencies>  (49) 
[-0.21408163265306124]

>  <Interactions>  (49) 
["V-A:HIS:456:CE1:4069, V-A:HIS:456:CD2:4067, V-B:GLU:543:CD:9879, V-A:GLU:543:CD:4908, V-B:HIS:456:CE1:9041, H-A:HIS:456:NE2:4070, H-B:GLU:543:O:9874, V-B:GLU:543:C:9873, V-B:GLU:543:CB:9877, V-B:GLU:543:CG:9878, V-B:GLU:543:CA:9875, V-B:PRO:540:CA:9854, V-B:TYR:539:CE2:9847, V-B:ALA:541:CB:9863, V-B:PRO:540:CB:9856, H-B:ALA:541:N:9862, V-A:ILE:369:CG2:3236, V-A:ASP:366:CB:3211, H-A:TYR:531:OH:4795, V-A:TYR:539:CG:4872, V-A:MET:535:CE:4835, H-B:TYR:539:OH:9849, V-A:TYR:531:CZ:4794, H-A:GLY:454:N:4049, V-A:ASP:366:CG:3212, V-A:TYR:484:CE1:4344, V-A:TYR:484:CZ:4346, H-A:ARG:545:NH1:4927, V-A:ILE:369:CD1:3238, H-A:ARG:545:NH2:4928, V-A:TYR:539:CZ:4877, H-A:TYR:539:N:4870, H-A:ARG:545:NE:4924, V-A:ILE:538:CB:4862, V-A:ILE:538:CA:4860, V-A:ILE:538:CG2:4863, V-A:TYR:539:CE1:4875, V-A:TYR:539:CD1:4873, V-A:ILE:538:C:4858, H-B:ARG:545:N:9891"]

$$$$
RR33_Rahimova_2017
     RDKit          3D

 18 19  0  0  0  0  0  0  0  0999 V2000
  132.7120  123.2770   64.1260 C   0  0  0  0  0  0  0  0  0  0  0  0
  131.6530  122.4200   63.4260 C   0  0  0  0  0  0  0  0  0  0  0  0
  131.8770  122.4740   62.0200 O   0  0  0  0  0  0  0  0  0  0  0  0
  130.7940  122.4890   61.1610 C   0  0  0  0  0  0  0  0  0  0  0  0
  130.7120  123.5690   60.2830 C   0  0  0  0  0  0  0  0  0  0  0  0
  129.6550  123.6710   59.3830 C   0  0  0  0  0  0  0  0  0  0  0  0
  128.6600  122.6900   59.3490 C   0  0  0  0  0  0  0  0  0  0  0  0
  127.5250  122.8010   58.3820 C   0  0  0  0  0  0  0  0  0  0  0  0
  127.4180  122.2350   57.2010 N   0  0  0  0  0  0  0  0  0  0  0  0
  126.2440  122.6270   56.7300 C   0  0  0  0  0  0  0  0  0  0  0  0
  125.7550  122.1620   55.3750 C   0  0  0  0  0  0  0  0  0  0  0  0
  126.8780  121.8570   54.5010 N   0  0  0  0  0  0  0  0  0  0  0  0
  127.6030  123.0690   54.1560 C   0  0  0  0  0  0  0  0  0  0  0  0
  125.6240  123.4570   57.6560 C   0  0  0  0  0  0  0  0  0  0  0  0
  124.3130  124.2020   57.7200 C   0  0  0  0  0  0  0  0  0  0  0  0
  126.4540  123.5660   58.7190 O   0  0  0  0  0  0  0  0  0  0  0  0
  128.7400  121.6030   60.2250 C   0  0  0  0  0  0  0  0  0  0  0  0
  129.7980  121.5010   61.1260 C   0  0  0  0  0  0  0  0  0  0  0  0
  1  2  1  0
  2  3  1  0
  3  4  1  0
  4  5  2  0
  5  6  1  0
  6  7  2  0
  7  8  1  0
  8  9  2  0
  9 10  1  0
 10 11  1  0
 11 12  1  0
 12 13  1  0
 10 14  2  0
 14 15  1  0
 14 16  1  0
  7 17  1  0
 17 18  2  0
 18  4  1  0
 16  8  1  0
M  END
>  <Binding energies>  (50) 
[-5.32]

>  <Ligand effiencies>  (50) 
[-0.28]

>  <Interactions>  (50) 
["V-B:MET:535:CE:9806, V-B:LEU:363:CA:8156, V-B:LEU:363:CD1:8160, V-B:TYR:539:CD2:9845, V-B:PRO:540:CA:9854, V-B:TYR:539:CE2:9847, V-B:PRO:540:C:9852, V-B:ALA:541:CB:9863, V-B:PRO:540:N:9855, V-A:LEU:475:CD2:4258, V-B:TYR:539:CE1:9846, V-B:PRO:540:CB:9856, H-B:TYR:539:N:9841, V-B:TYR:539:CZ:9848, V-B:TYR:539:C:9838, V-B:PRO:540:CD:9858, V-B:ILE:538:CA:9831, V-B:TYR:539:CD1:9844, H-B:VAL:537:O:9822, V-B:ILE:538:CG2:9834, V-B:ILE:538:CD1:9836, V-A:GLY:454:CA:4048, V-B:TYR:531:CE2:9764, V-B:ILE:538:C:9829, V-B:MET:535:CB:9803, V-B:MET:535:CG:9804"]

$$$$
RR3_Rahimova_2017
     RDKit          3D

 38 44  0  0  0  0  0  0  0  0999 V2000
  125.6770  122.0070   54.8800 C   0  0  0  0  0  0  0  0  0  0  0  0
  124.9940  122.0310   56.0920 C   0  0  0  0  0  0  0  0  0  0  0  0
  125.5720  122.6480   57.1970 C   0  0  0  0  0  0  0  0  0  0  0  0
  126.8370  123.2490   57.1070 C   0  0  0  0  0  0  0  0  0  0  0  0
  127.4570  123.9140   58.2960 C   0  0  0  0  0  0  0  0  0  0  0  0
  126.6610  124.4600   59.3120 C   0  0  0  0  0  0  0  0  0  0  0  0
  127.2390  125.0820   60.4160 C   0  0  0  0  0  0  0  0  0  0  0  0
  128.6280  125.1780   60.5250 C   0  0  0  0  0  0  0  0  0  0  0  0
  129.2550  125.8490   61.7070 C   0  0  0  0  0  0  0  0  0  0  0  0
  129.1360  125.3130   62.9160 N   0  0  0  0  0  0  0  0  0  0  0  0
  129.8130  126.0810   63.7350 C   0  0  0  0  0  0  0  0  0  0  0  0
  129.9530  125.8630   65.1730 C   0  0  0  0  0  0  0  0  0  0  0  0
  130.6280  124.8130   65.7710 C   0  0  0  0  0  0  0  0  0  0  0  0
  130.5650  124.9260   67.1350 N   0  0  0  0  0  0  0  0  0  0  0  0
  129.8460  126.0490   67.4800 C   0  0  0  0  0  0  0  0  0  0  0  0
  129.5170  126.5740   68.7340 C   0  0  0  0  0  0  0  0  0  0  0  0
  128.7620  127.7470   68.7520 C   0  0  0  0  0  0  0  0  0  0  0  0
  128.3510  128.3720   67.5800 C   0  0  0  0  0  0  0  0  0  0  0  0
  128.6790  127.8500   66.3300 C   0  0  0  0  0  0  0  0  0  0  0  0
  129.4390  126.6690   66.2560 C   0  0  0  0  0  0  0  0  0  0  0  0
  130.3760  127.1330   63.0660 N   0  0  0  0  0  0  0  0  0  0  0  0
  130.0160  127.0300   61.7470 C   0  0  0  0  0  0  0  0  0  0  0  0
  130.4010  128.0440   60.7200 C   0  0  0  0  0  0  0  0  0  0  0  0
  130.2160  129.4040   60.9750 C   0  0  0  0  0  0  0  0  0  0  0  0
  130.5610  130.3500   60.0160 C   0  0  0  0  0  0  0  0  0  0  0  0
  131.1030  129.9620   58.7820 C   0  0  0  0  0  0  0  0  0  0  0  0
  131.4550  130.9820   57.7450 C   0  0  0  0  0  0  0  0  0  0  0  0
  131.4810  130.6440   56.3830 C   0  0  0  0  0  0  0  0  0  0  0  0
  131.8040  131.5950   55.4180 C   0  0  0  0  0  0  0  0  0  0  0  0
  132.1060  132.8970   55.8060 C   0  0  0  0  0  0  0  0  0  0  0  0
  132.0850  133.2530   57.1500 C   0  0  0  0  0  0  0  0  0  0  0  0
  131.7630  132.3010   58.1120 C   0  0  0  0  0  0  0  0  0  0  0  0
  131.3000  128.5940   58.5460 C   0  0  0  0  0  0  0  0  0  0  0  0
  130.9560  127.6440   59.5030 C   0  0  0  0  0  0  0  0  0  0  0  0
  129.4300  124.6250   59.5240 C   0  0  0  0  0  0  0  0  0  0  0  0
  128.8500  124.0050   58.4210 C   0  0  0  0  0  0  0  0  0  0  0  0
  127.5070  123.2120   55.8750 C   0  0  0  0  0  0  0  0  0  0  0  0
  126.9320  122.5960   54.7670 C   0  0  0  0  0  0  0  0  0  0  0  0
  1  2  2  0
  2  3  1  0
  3  4  2  0
  4  5  1  0
  5  6  2  0
  6  7  1  0
  7  8  2  0
  8  9  1  0
  9 10  1  0
 10 11  2  0
 11 12  1  0
 12 13  2  0
 13 14  1  0
 14 15  1  0
 15 16  2  0
 16 17  1  0
 17 18  2  0
 18 19  1  0
 19 20  2  0
 11 21  1  0
 21 22  1  0
 22 23  1  0
 23 24  2  0
 24 25  1  0
 25 26  2  0
 26 27  1  0
 27 28  2  0
 28 29  1  0
 29 30  2  0
 30 31  1  0
 31 32  2  0
 26 33  1  0
 33 34  2  0
  8 35  1  0
 35 36  2  0
  4 37  1  0
 37 38  2  0
 38  1  1  0
 36  5  1  0
 22  9  2  0
 34 23  1  0
 20 12  1  0
 32 27  1  0
 20 15  1  0
M  END
>  <Binding energies>  (51) 
[-10.47]

>  <Ligand effiencies>  (51) 
[-0.26175000000000004]

>  <Interactions>  (51) 
["V-A:HIS:456:CE1:4069, V-A:GLU:543:CG:4907, V-B:GLU:543:CD:9879, V-A:GLU:543:CD:4908, V-B:HIS:456:CE1:9041, H-A:HIS:456:NE2:4070, V-B:GLU:543:CG:9878, V-B:MET:535:CE:9806, V-B:LEU:363:CD1:8160, V-B:PRO:540:CA:9854, V-B:TYR:539:CE2:9847, V-B:PRO:540:N:9855, V-B:TYR:539:CE1:9846, V-B:PRO:540:CB:9856, V-B:TYR:539:CZ:9848, V-A:ASP:366:CB:3211, V-B:PRO:540:CD:9858, V-B:ILE:538:CA:9831, V-A:TYR:539:C:4867, V-A:PRO:540:N:4884, V-A:MET:535:CE:4835, V-B:PRO:540:CG:9857, V-B:TYR:539:CD1:9844, V-A:TYR:531:CZ:4794, V-B:ILE:538:CG2:9834, V-A:PRO:540:CB:4885, V-A:LEU:363:CD1:3188, V-A:TYR:531:CE2:4793, V-A:ASP:366:CG:3212, H-A:TYR:484:OH:4347, V-A:PRO:540:CA:4883, V-A:TYR:484:CE1:4344, V-B:ILE:538:CD1:9836, V-A:TYR:484:CZ:4346, V-A:PRO:540:CD:4887, H-A:GLU:543:OE1:4909, H-A:GLU:543:OE2:4910, V-A:ILE:538:CB:4862, V-A:ILE:538:CA:4860, V-A:ILE:538:CG2:4863, V-B:ILE:538:CB:9833, V-B:ILE:538:C:9829, V-A:PRO:540:CG:4886, V-B:ILE:538:CG1:9835"]

$$$$
RR4_Rahimova_2017
     RDKit          3D

 40 44  0  0  0  0  0  0  0  0999 V2000
  130.6430  126.3910   74.5450 C   0  0  0  0  0  0  0  0  0  0  0  0
  130.6330  127.6020   73.7970 O   0  0  0  0  0  0  0  0  0  0  0  0
  130.2580  127.5700   72.4680 C   0  0  0  0  0  0  0  0  0  0  0  0
  130.9120  128.4540   71.6120 C   0  0  0  0  0  0  0  0  0  0  0  0
  130.6010  128.4910   70.2570 C   0  0  0  0  0  0  0  0  0  0  0  0
  129.6210  127.6450   69.7150 C   0  0  0  0  0  0  0  0  0  0  0  0
  129.2870  127.6890   68.2520 C   0  0  0  0  0  0  0  0  0  0  0  0
  128.3300  128.5580   67.7190 C   0  0  0  0  0  0  0  0  0  0  0  0
  128.0560  128.5640   66.3450 C   0  0  0  0  0  0  0  0  0  0  0  0
  127.0410  129.5390   65.8450 C   0  0  0  0  0  0  0  0  0  0  0  0
  127.4520  130.7280   65.2340 C   0  0  0  0  0  0  0  0  0  0  0  0
  126.5130  131.6370   64.7540 C   0  0  0  0  0  0  0  0  0  0  0  0
  125.1480  131.3740   64.8690 C   0  0  0  0  0  0  0  0  0  0  0  0
  124.2910  132.3330   64.3640 O   0  0  0  0  0  0  0  0  0  0  0  0
  123.8650  132.2390   63.0090 C   0  0  0  0  0  0  0  0  0  0  0  0
  124.7320  130.1800   65.4760 C   0  0  0  0  0  0  0  0  0  0  0  0
  125.6730  129.2720   65.9550 C   0  0  0  0  0  0  0  0  0  0  0  0
  128.7500  127.6490   65.5150 C   0  0  0  0  0  0  0  0  0  0  0  0
  128.5030  127.6140   64.0710 C   0  0  0  0  0  0  0  0  0  0  0  0
  128.3080  127.5860   62.9300 N   0  0  0  0  0  0  0  0  0  0  0  0
  129.6830  126.7790   66.1250 C   0  0  0  0  0  0  0  0  0  0  0  0
  130.6340  125.5620   65.2410 S   0  0  0  0  0  0  0  0  0  0  0  0
  129.5010  124.2200   64.7480 C   0  0  0  0  0  0  0  0  0  0  0  0
  129.2100  124.1520   63.2430 C   0  0  0  0  0  0  0  0  0  0  0  0
  130.1220  124.2810   62.4230 O   0  0  0  0  0  0  0  0  0  0  0  0
  127.9090  123.9590   62.9260 N   0  0  0  0  0  0  0  0  0  0  0  0
  127.3300  123.8510   61.6590 C   0  0  0  0  0  0  0  0  0  0  0  0
  125.9170  124.7530   61.1810 S   0  0  0  0  0  0  0  0  0  0  0  0
  125.9230  124.0340   59.6000 C   0  0  0  0  0  0  0  0  0  0  0  0
  126.9810  123.1240   59.4520 C   0  0  0  0  0  0  0  0  0  0  0  0
  127.7860  123.0340   60.6130 C   0  0  0  0  0  0  0  0  0  0  0  0
  128.9610  122.1730   60.7120 C   0  0  0  0  0  0  0  0  0  0  0  0
  129.8930  121.4910   60.7900 N   0  0  0  0  0  0  0  0  0  0  0  0
  127.2250  122.3850   58.1300 C   0  0  0  0  0  0  0  0  0  0  0  0
  126.4540  123.0640   56.9760 C   0  0  0  0  0  0  0  0  0  0  0  0
  125.0020  123.3950   57.3630 C   0  0  0  0  0  0  0  0  0  0  0  0
  124.9290  124.4220   58.5130 C   0  0  0  0  0  0  0  0  0  0  0  0
  129.9510  126.8170   67.4510 N   0  0  0  0  0  0  0  0  0  0  0  0
  128.9700  126.7560   70.5850 C   0  0  0  0  0  0  0  0  0  0  0  0
  129.2790  126.7160   71.9410 C   0  0  0  0  0  0  0  0  0  0  0  0
  1  2  1  0
  2  3  1  0
  3  4  2  0
  4  5  1  0
  5  6  2  0
  6  7  1  0
  7  8  2  0
  8  9  1  0
  9 10  1  0
 10 11  2  0
 11 12  1  0
 12 13  2  0
 13 14  1  0
 14 15  1  0
 13 16  1  0
 16 17  2  0
  9 18  2  0
 18 19  1  0
 19 20  3  0
 18 21  1  0
 21 22  1  0
 22 23  1  0
 23 24  1  0
 24 25  2  0
 24 26  1  0
 26 27  1  0
 27 28  1  0
 28 29  1  0
 29 30  2  0
 30 31  1  0
 31 32  1  0
 32 33  3  0
 30 34  1  0
 34 35  1  0
 35 36  1  0
 36 37  1  0
 21 38  2  0
  6 39  1  0
 39 40  2  0
 40  3  1  0
 38  7  1  0
 17 10  1  0
 31 27  2  0
 37 29  1  0
M  END
>  <Binding energies>  (52) 
[-10.87]

>  <Ligand effiencies>  (52) 
[-0.26512195121951215]

>  <Interactions>  (52) 
["V-A:HIS:456:CE1:4069, V-A:GLU:543:CB:4906, V-A:GLU:543:CG:4907, V-B:GLU:543:CD:9879, V-A:GLU:543:CD:4908, V-B:HIS:456:CE1:9041, H-A:LYS:547:NZ:4951, V-B:GLU:543:CG:9878, V-B:LEU:363:CD1:8160, V-B:TYR:539:CD2:9845, V-B:PRO:540:CA:9854, V-B:ALA:541:CB:9863, V-B:PRO:540:N:9855, V-B:PRO:540:CB:9856, V-B:TYR:539:C:9838, H-B:GLY:454:N:9021, V-B:GLY:454:CA:9020, V-B:ARG:545:CZ:9897, H-B:GLU:543:OE2:9881, V-B:LEU:475:CD1:9229, V-B:ILE:369:CD1:8210"]

$$$$
RR6_Rahimova_2017
     RDKit          3D

 38 41  0  0  0  0  0  0  0  0999 V2000
  130.3270  132.8870   55.1820 C   0  0  0  0  0  0  0  0  0  0  0  0
  130.2040  133.3250   56.5270 O   0  0  0  0  0  0  0  0  0  0  0  0
  131.1780  133.0670   57.4380 C   0  0  0  0  0  0  0  0  0  0  0  0
  132.3780  133.2740   57.2270 O   0  0  0  0  0  0  0  0  0  0  0  0
  130.6520  132.5050   58.7270 C   0  0  0  0  0  0  0  0  0  0  0  0
  129.3640  132.8010   59.1970 C   0  0  0  0  0  0  0  0  0  0  0  0
  128.9080  132.2700   60.4010 C   0  0  0  0  0  0  0  0  0  0  0  0
  129.7390  131.4330   61.1600 C   0  0  0  0  0  0  0  0  0  0  0  0
  129.3900  130.8670   62.4010 N   0  0  0  0  0  0  0  0  0  0  0  0
  128.3280  131.1310   63.1940 C   0  0  0  0  0  0  0  0  0  0  0  0
  127.4380  131.9440   62.9470 O   0  0  0  0  0  0  0  0  0  0  0  0
  128.2980  130.3810   64.5300 C   0  0  0  0  0  0  0  0  0  0  0  0
  127.7770  128.6390   64.3810 S   0  0  0  0  0  0  0  0  0  0  0  0
  128.7690  127.7070   65.5280 C   0  0  0  0  0  0  0  0  0  0  0  0
  129.5020  126.7200   64.9580 N   0  0  0  0  0  0  0  0  0  0  0  0
  130.3200  125.9590   65.7280 C   0  0  0  0  0  0  0  0  0  0  0  0
  131.1430  124.9290   65.0110 C   0  0  0  0  0  0  0  0  0  0  0  0
  130.6820  123.6120   64.8610 C   0  0  0  0  0  0  0  0  0  0  0  0
  131.4510  122.6540   64.2070 C   0  0  0  0  0  0  0  0  0  0  0  0
  132.6970  122.9960   63.6850 C   0  0  0  0  0  0  0  0  0  0  0  0
  133.5370  121.9460   62.9810 C   0  0  0  0  0  0  0  0  0  0  0  0
  133.1730  124.2990   63.8220 C   0  0  0  0  0  0  0  0  0  0  0  0
  132.4000  125.2530   64.4750 C   0  0  0  0  0  0  0  0  0  0  0  0
  130.4070  126.1730   67.1070 C   0  0  0  0  0  0  0  0  0  0  0  0
  129.6550  127.1840   67.7220 C   0  0  0  0  0  0  0  0  0  0  0  0
  129.8100  127.3700   69.1950 C   0  0  0  0  0  0  0  0  0  0  0  0
  130.7570  128.2690   69.6950 C   0  0  0  0  0  0  0  0  0  0  0  0
  130.8970  128.4600   71.0670 C   0  0  0  0  0  0  0  0  0  0  0  0
  130.0920  127.7610   71.9650 C   0  0  0  0  0  0  0  0  0  0  0  0
  130.2990  128.0160   73.3070 O   0  0  0  0  0  0  0  0  0  0  0  0
  129.3590  128.8170   74.0140 C   0  0  0  0  0  0  0  0  0  0  0  0
  129.1360  126.8610   71.4680 C   0  0  0  0  0  0  0  0  0  0  0  0
  128.9990  126.6730   70.0960 C   0  0  0  0  0  0  0  0  0  0  0  0
  128.8030  127.9750   66.9120 C   0  0  0  0  0  0  0  0  0  0  0  0
  127.9680  129.0310   67.4930 C   0  0  0  0  0  0  0  0  0  0  0  0
  127.3110  129.8650   67.9530 N   0  0  0  0  0  0  0  0  0  0  0  0
  131.0140  131.1220   60.6880 C   0  0  0  0  0  0  0  0  0  0  0  0
  131.4690  131.6560   59.4850 C   0  0  0  0  0  0  0  0  0  0  0  0
  1  2  1  0
  2  3  1  0
  3  4  2  0
  3  5  1  0
  5  6  2  0
  6  7  1  0
  7  8  2  0
  8  9  1  0
  9 10  1  0
 10 11  2  0
 10 12  1  0
 12 13  1  0
 13 14  1  0
 14 15  2  0
 15 16  1  0
 16 17  1  0
 17 18  2  0
 18 19  1  0
 19 20  2  0
 20 21  1  0
 20 22  1  0
 22 23  2  0
 16 24  2  0
 24 25  1  0
 25 26  1  0
 26 27  2  0
 27 28  1  0
 28 29  2  0
 29 30  1  0
 30 31  1  0
 29 32  1  0
 32 33  2  0
 25 34  2  0
 34 35  1  0
 35 36  3  0
  8 37  1  0
 37 38  2  0
 38  5  1  0
 34 14  1  0
 23 17  1  0
 33 26  1  0
M  END
>  <Binding energies>  (53) 
[-9.94]

>  <Ligand effiencies>  (53) 
[-0.25487179487179484]

>  <Interactions>  (53) 
["V-A:HIS:456:CE1:4069, V-A:GLU:543:CB:4906, V-A:GLU:543:CG:4907, V-B:GLU:543:CD:9879, V-A:GLU:543:CD:4908, V-B:HIS:456:CE1:9041, H-A:LYS:547:NZ:4951, V-A:LEU:475:CD2:4258, V-A:ARG:545:CZ:4926, V-A:TYR:539:C:4867, V-A:PRO:540:N:4884, V-A:MET:535:CE:4835, V-A:PRO:540:CB:4885, V-A:PRO:540:CA:4883, V-A:GLY:454:CA:4048, V-A:ILE:369:CD1:3238, H-B:TYR:484:OH:9319, V-A:PRO:540:CD:4887, H-A:TYR:539:N:4870, H-A:GLU:543:OE1:4909, V-A:ILE:538:CB:4862, V-A:ILE:538:CA:4860, V-A:ILE:538:CG2:4863, V-A:ILE:538:C:4858, H-B:HIS:456:ND1:9038"]

$$$$
RR7_Rahimova_2017
     RDKit          3D

 47 53  0  0  0  0  0  0  0  0999 V2000
  127.3990  131.5100   58.5210 C   0  0  0  0  0  0  0  0  0  0  0  0
  127.3010  130.5700   57.4560 O   0  0  0  0  0  0  0  0  0  0  0  0
  127.2670  129.2200   57.7510 C   0  0  0  0  0  0  0  0  0  0  0  0
  127.7110  128.3530   56.7540 C   0  0  0  0  0  0  0  0  0  0  0  0
  127.7190  126.9780   56.9620 C   0  0  0  0  0  0  0  0  0  0  0  0
  127.2690  126.4330   58.1740 C   0  0  0  0  0  0  0  0  0  0  0  0
  127.2960  124.8970   58.4460 C   0  0  0  0  0  0  0  0  0  0  0  0
  128.5820  124.6130   59.0430 O   0  0  0  0  0  0  0  0  0  0  0  0
  129.7030  124.2950   58.2110 C   0  0  0  0  0  0  0  0  0  0  0  0
  130.6360  125.5150   58.1400 C   0  0  1  0  0  0  0  0  0  0  0  0
  130.4270  126.2640   59.3340 O   0  0  0  0  0  0  0  0  0  0  0  0
  131.6050  126.4080   60.0750 C   0  0  1  0  0  0  0  0  0  0  0  0
  131.3030  126.4330   61.4930 N   0  0  0  0  0  0  0  0  0  0  0  0
  130.2650  127.0890   62.1320 C   0  0  0  0  0  0  0  0  0  0  0  0
  130.2530  126.9810   63.4380 N   0  0  0  0  0  0  0  0  0  0  0  0
  131.3740  126.2470   63.7160 C   0  0  0  0  0  0  0  0  0  0  0  0
  131.9330  125.8010   64.9290 C   0  0  0  0  0  0  0  0  0  0  0  0
  131.2720  126.1160   66.1320 N   0  0  0  0  0  0  0  0  0  0  0  0
  130.2560  125.4620   66.7430 C   0  0  0  0  0  0  0  0  0  0  0  0
  129.7180  124.4450   66.2980 O   0  0  0  0  0  0  0  0  0  0  0  0
  129.7650  126.0760   68.0360 C   0  0  0  0  0  0  0  0  0  0  0  0
  128.8890  125.3520   68.8590 C   0  0  0  0  0  0  0  0  0  0  0  0
  128.4290  125.8960   70.0560 C   0  0  0  0  0  0  0  0  0  0  0  0
  128.8460  127.1660   70.4420 C   0  0  0  0  0  0  0  0  0  0  0  0
  129.7190  127.8980   69.6420 C   0  0  0  0  0  0  0  0  0  0  0  0
  130.1780  127.3560   68.4440 C   0  0  0  0  0  0  0  0  0  0  0  0
  133.0960  125.0840   64.9050 N   0  0  0  0  0  0  0  0  0  0  0  0
  133.6620  124.8340   63.6960 C   0  0  0  0  0  0  0  0  0  0  0  0
  133.2090  125.2110   62.4700 N   0  0  0  0  0  0  0  0  0  0  0  0
  132.0650  125.9060   62.5240 C   0  0  0  0  0  0  0  0  0  0  0  0
  132.5020  125.2590   59.6290 C   0  0  0  0  0  0  0  0  0  0  0  0
  132.1360  125.1870   58.1560 C   0  0  2  0  0  0  0  0  0  0  0  0
  132.8960  126.0930   57.3740 O   0  0  0  0  0  0  0  0  0  0  0  0
  126.2160  124.4600   59.4710 C   0  0  0  0  0  0  0  0  0  0  0  0
  124.8540  124.6560   59.1910 C   0  0  0  0  0  0  0  0  0  0  0  0
  123.8770  124.2800   60.1070 C   0  0  0  0  0  0  0  0  0  0  0  0
  124.2530  123.7040   61.3170 C   0  0  0  0  0  0  0  0  0  0  0  0
  125.5970  123.5010   61.6160 C   0  0  0  0  0  0  0  0  0  0  0  0
  126.5730  123.8780   60.6990 C   0  0  0  0  0  0  0  0  0  0  0  0
  127.0880  123.9850   57.2040 C   0  0  0  0  0  0  0  0  0  0  0  0
  126.2300  122.8760   57.2730 C   0  0  0  0  0  0  0  0  0  0  0  0
  126.0440  122.0490   56.1700 C   0  0  0  0  0  0  0  0  0  0  0  0
  126.7240  122.3170   54.9850 C   0  0  0  0  0  0  0  0  0  0  0  0
  127.5890  123.4030   54.8990 C   0  0  0  0  0  0  0  0  0  0  0  0
  127.7740  124.2290   56.0030 C   0  0  0  0  0  0  0  0  0  0  0  0
  126.8360  127.3110   59.1780 C   0  0  0  0  0  0  0  0  0  0  0  0
  126.8290  128.6870   58.9710 C   0  0  0  0  0  0  0  0  0  0  0  0
  1  2  1  0
  2  3  1  0
  3  4  2  0
  4  5  1  0
  5  6  2  0
  6  7  1  0
  7  8  1  0
  8  9  1  0
 10  9  1  1
 10 11  1  0
 11 12  1  0
 12 13  1  1
 13 14  1  0
 14 15  2  0
 15 16  1  0
 16 17  2  0
 17 18  1  0
 18 19  1  0
 19 20  2  0
 19 21  1  0
 21 22  2  0
 22 23  1  0
 23 24  2  0
 24 25  1  0
 25 26  2  0
 17 27  1  0
 27 28  2  0
 28 29  1  0
 29 30  2  0
 12 31  1  0
 31 32  1  0
 32 33  1  6
  7 34  1  0
 34 35  2  0
 35 36  1  0
 36 37  2  0
 37 38  1  0
 38 39  2  0
  7 40  1  0
 40 41  2  0
 41 42  1  0
 42 43  2  0
 43 44  1  0
 44 45  2  0
  6 46  1  0
 46 47  2  0
 47  3  1  0
 32 10  1  0
 39 34  1  0
 45 40  1  0
 30 13  1  0
 30 16  1  0
 26 21  1  0
M  END
>  <Binding energies>  (54) 
[-10.64]

>  <Ligand effiencies>  (54) 
[-0.21714285714285717]

>  <Interactions>  (54) 
["V-A:HIS:456:CE1:4069, V-A:GLU:543:CB:4906, V-A:GLU:543:CD:4908, V-B:HIS:456:CE1:9041, V-B:GLU:543:C:9873, V-B:GLU:543:CB:9877, V-B:GLU:543:CG:9878, V-B:GLU:543:CA:9875, V-B:MET:535:CE:9806, V-B:ASP:366:CG:8184, V-B:LEU:363:CA:8156, V-B:ASN:362:C:8143, V-B:PRO:540:CA:9854, V-B:TYR:539:CE2:9847, V-B:PRO:540:N:9855, V-B:TYR:539:CE1:9846, V-B:PRO:540:CB:9856, V-B:TYR:539:CZ:9848, V-A:ASP:366:CB:3211, V-B:TYR:539:C:9838, V-B:PRO:540:CD:9858, V-A:ARG:545:CZ:4926, V-B:ILE:538:CA:9831, V-A:TYR:539:CE2:4876, H-A:TYR:531:OH:4795, H-B:TYR:539:OH:9849, V-B:TYR:539:CD1:9844, H-A:GLY:454:N:4049, V-A:ASP:366:CA:3209, V-B:ASN:362:CA:8145, V-B:ASN:362:CB:8147, V-A:ASP:366:CG:3212, H-A:TYR:484:OH:4347, V-B:ILE:538:CD1:9836, V-B:TYR:539:CA:9840, H-A:GLU:543:OE2:4910, H-A:ASP:366:O:3208"]

$$$$
RR8_A_Rahimova_2017
     RDKit          3D

 42 46  0  0  0  0  0  0  0  0999 V2000
  127.5420  123.0380   62.0900 O   0  0  0  0  0  0  0  0  0  0  0  0
  128.0800  124.1500   62.1390 C   0  0  0  0  0  0  0  0  0  0  0  0
  127.6120  125.2640   61.4940 O   0  0  0  0  0  0  0  0  0  0  0  0
  128.0530  125.4880   60.1840 C   0  0  1  0  0  0  0  0  0  0  0  0
  128.8770  126.6140   60.1020 O   0  0  0  0  0  0  0  0  0  0  0  0
  129.9530  126.4190   59.1890 C   0  0  2  0  0  0  0  0  0  0  0  0
  129.9160  127.5440   58.1400 C   0  0  0  0  0  0  0  0  0  0  0  0
  131.1400  128.2640   58.1980 O   0  0  0  0  0  0  0  0  0  0  0  0
  131.0630  129.4760   58.9360 C   0  0  0  0  0  0  0  0  0  0  0  0
  131.1270  130.6640   57.9870 C   0  0  0  0  0  0  0  0  0  0  0  0
  132.0430  130.6630   56.9310 C   0  0  0  0  0  0  0  0  0  0  0  0
  132.1000  131.7460   56.0570 C   0  0  0  0  0  0  0  0  0  0  0  0
  131.2380  132.8260   56.2390 C   0  0  0  0  0  0  0  0  0  0  0  0
  130.3170  132.8320   57.2850 C   0  0  0  0  0  0  0  0  0  0  0  0
  130.2600  131.7480   58.1580 C   0  0  0  0  0  0  0  0  0  0  0  0
  129.7180  125.0020   58.6460 C   0  0  1  0  0  0  0  0  0  0  0  0
  130.9250  124.2650   58.4630 O   0  0  0  0  0  0  0  0  0  0  0  0
  132.0500  124.7310   59.1990 C   0  0  0  0  0  0  0  0  0  0  0  0
  132.3720  123.7590   60.3260 C   0  0  0  0  0  0  0  0  0  0  0  0
  131.6740  122.5510   60.4200 C   0  0  0  0  0  0  0  0  0  0  0  0
  131.9560  121.6620   61.4540 C   0  0  0  0  0  0  0  0  0  0  0  0
  132.9330  121.9850   62.3940 C   0  0  0  0  0  0  0  0  0  0  0  0
  133.6270  123.1890   62.3120 C   0  0  0  0  0  0  0  0  0  0  0  0
  133.3450  124.0790   61.2790 C   0  0  0  0  0  0  0  0  0  0  0  0
  128.9410  124.3260   59.7600 C   0  0  2  0  0  0  0  0  0  0  0  0
  128.2170  123.2050   59.2570 O   0  0  0  0  0  0  0  0  0  0  0  0
  126.8690  123.4620   58.8780 C   0  0  0  0  0  0  0  0  0  0  0  0
  126.6600  123.0830   57.4200 C   0  0  0  0  0  0  0  0  0  0  0  0
  125.5170  122.3750   57.0330 C   0  0  0  0  0  0  0  0  0  0  0  0
  125.3250  122.0400   55.6950 C   0  0  0  0  0  0  0  0  0  0  0  0
  126.2750  122.4140   54.7470 C   0  0  0  0  0  0  0  0  0  0  0  0
  127.4130  123.1240   55.1230 C   0  0  0  0  0  0  0  0  0  0  0  0
  127.6050  123.4600   56.4610 C   0  0  0  0  0  0  0  0  0  0  0  0
  129.3240  124.4210   62.9330 C   0  0  0  0  0  0  0  0  0  0  0  0
  130.0630  125.6040   62.7730 C   0  0  0  0  0  0  0  0  0  0  0  0
  131.2140  125.8260   63.5240 C   0  0  0  0  0  0  0  0  0  0  0  0
  131.6570  124.8730   64.4510 C   0  0  0  0  0  0  0  0  0  0  0  0
  132.8830  125.1110   65.2510 N   0  0  0  0  0  0  0  0  0  0  0  0
  132.7640  125.3910   66.4400 O   0  0  0  0  0  0  0  0  0  0  0  0
  133.9750  125.0200   64.6960 O   0  0  0  0  0  0  0  0  0  0  0  0
  130.9210  123.6920   64.6070 C   0  0  0  0  0  0  0  0  0  0  0  0
  129.7700  123.4680   63.8580 C   0  0  0  0  0  0  0  0  0  0  0  0
  1  2  2  0
  2  3  1  0
  4  3  1  1
  4  5  1  0
  5  6  1  0
  6  7  1  6
  7  8  1  0
  8  9  1  0
  9 10  1  0
 10 11  2  0
 11 12  1  0
 12 13  2  0
 13 14  1  0
 14 15  2  0
  6 16  1  0
 16 17  1  1
 17 18  1  0
 18 19  1  0
 19 20  2  0
 20 21  1  0
 21 22  2  0
 22 23  1  0
 23 24  2  0
 16 25  1  0
 25 26  1  6
 26 27  1  0
 27 28  1  0
 28 29  2  0
 29 30  1  0
 30 31  2  0
 31 32  1  0
 32 33  2  0
  2 34  1  0
 34 35  2  0
 35 36  1  0
 36 37  2  0
 37 38  1  0
 38 39  2  0
 38 40  1  0
 37 41  1  0
 41 42  2  0
 25  4  1  0
 33 28  1  0
 42 34  1  0
 15 10  1  0
 24 19  1  0
M  CHG  2  38   1  40  -1
M  END
>  <Binding energies>  (55) 
[-9.28]

>  <Ligand effiencies>  (55) 
[-0.22095238095238093]

>  <Interactions>  (55) 
["V-B:GLU:543:CG:9878, V-B:MET:535:CE:9806, V-B:LEU:363:CD1:8160, V-B:PRO:540:CA:9854, V-B:TYR:539:CE2:9847, V-B:ALA:541:CB:9863, V-B:PRO:540:N:9855, V-A:LEU:475:CD2:4258, V-B:TYR:539:CE1:9846, V-B:PRO:540:CB:9856, H-B:ALA:541:N:9862, V-A:ILE:369:CG2:3236, V-B:TYR:539:CZ:9848, V-B:TYR:539:C:9838, V-B:PRO:540:CD:9858, V-A:ARG:545:CZ:4926, V-B:ILE:538:CA:9831, V-A:TYR:539:C:4867, H-A:TYR:531:OH:4795, V-A:PRO:540:N:4884, V-B:PRO:540:CG:9857, H-B:TYR:539:OH:9849, V-B:TYR:539:CD1:9844, V-A:TYR:531:CZ:4794, H-A:GLY:454:N:4049, V-B:ILE:538:CG2:9834, V-A:LEU:363:CD1:3188, V-A:TYR:531:CE2:4793, H-A:TYR:484:OH:4347, V-B:ILE:538:CD1:9836, V-A:GLY:454:CA:4048, H-A:ARG:545:NH1:4927, V-A:ILE:369:CD1:3238, H-A:ARG:545:NE:4924, V-A:ILE:538:CB:4862, V-A:ILE:538:CA:4860, V-B:ILE:538:C:9829"]

$$$$
RR8_B_Rahimova_2017
     RDKit          3D

 42 46  0  0  0  0  0  0  0  0999 V2000
  124.3000  131.7100   57.7620 O   0  0  0  0  0  0  0  0  0  0  0  0
  124.8960  130.9010   58.4810 C   0  0  0  0  0  0  0  0  0  0  0  0
  125.7170  129.9120   58.0150 O   0  0  0  0  0  0  0  0  0  0  0  0
  126.5350  130.1960   56.9070 C   0  0  2  0  0  0  0  0  0  0  0  0
  126.8690  129.0380   56.1940 O   0  0  0  0  0  0  0  0  0  0  0  0
  128.0920  128.4720   56.6620 C   0  0  2  0  0  0  0  0  0  0  0  0
  127.8430  127.0250   57.1270 C   0  0  0  0  0  0  0  0  0  0  0  0
  126.5130  126.9140   57.6180 O   0  0  0  0  0  0  0  0  0  0  0  0
  126.2900  125.8220   58.4980 C   0  0  0  0  0  0  0  0  0  0  0  0
  126.2170  124.5350   57.6900 C   0  0  0  0  0  0  0  0  0  0  0  0
  125.0870  124.2670   56.9130 C   0  0  0  0  0  0  0  0  0  0  0  0
  125.0030  123.0790   56.1910 C   0  0  0  0  0  0  0  0  0  0  0  0
  126.0520  122.1640   56.2470 C   0  0  0  0  0  0  0  0  0  0  0  0
  127.1840  122.4270   57.0140 C   0  0  0  0  0  0  0  0  0  0  0  0
  127.2670  123.6130   57.7390 C   0  0  0  0  0  0  0  0  0  0  0  0
  128.5670  129.4410   57.7510 C   0  0  1  0  0  0  0  0  0  0  0  0
  129.9950  129.5310   57.7320 O   0  0  0  0  0  0  0  0  0  0  0  0
  130.6880  129.1120   58.9100 C   0  0  0  0  0  0  0  0  0  0  0  0
  130.6020  130.1440   60.0300 C   0  0  0  0  0  0  0  0  0  0  0  0
  129.4100  130.3090   60.7410 C   0  0  0  0  0  0  0  0  0  0  0  0
  129.3430  131.2300   61.7830 C   0  0  0  0  0  0  0  0  0  0  0  0
  130.4680  131.9850   62.1080 C   0  0  0  0  0  0  0  0  0  0  0  0
  131.6580  131.8300   61.4010 C   0  0  0  0  0  0  0  0  0  0  0  0
  131.7260  130.9060   60.3600 C   0  0  0  0  0  0  0  0  0  0  0  0
  127.8740  130.7510   57.3900 C   0  0  2  0  0  0  0  0  0  0  0  0
  127.7690  131.5890   58.5380 O   0  0  0  0  0  0  0  0  0  0  0  0
  128.3770  132.8660   58.4230 C   0  0  0  0  0  0  0  0  0  0  0  0
  129.5140  132.7630   57.4220 C   0  0  0  0  0  0  0  0  0  0  0  0
  130.8190  132.5150   57.8580 C   0  0  0  0  0  0  0  0  0  0  0  0
  131.8570  132.4420   56.9330 C   0  0  0  0  0  0  0  0  0  0  0  0
  131.5880  132.6170   55.5770 C   0  0  0  0  0  0  0  0  0  0  0  0
  130.2890  132.8630   55.1350 C   0  0  0  0  0  0  0  0  0  0  0  0
  129.2510  132.9350   56.0600 C   0  0  0  0  0  0  0  0  0  0  0  0
  124.7610  130.8770   59.9760 C   0  0  0  0  0  0  0  0  0  0  0  0
  125.6340  130.1340   60.7850 C   0  0  0  0  0  0  0  0  0  0  0  0
  125.4810  130.1240   62.1670 C   0  0  0  0  0  0  0  0  0  0  0  0
  124.4470  130.8460   62.7750 C   0  0  0  0  0  0  0  0  0  0  0  0
  124.2690  130.8120   64.2480 N   0  0  0  0  0  0  0  0  0  0  0  0
  123.7410  129.8250   64.7550 O   0  0  0  0  0  0  0  0  0  0  0  0
  124.6600  131.7700   64.9100 O   0  0  0  0  0  0  0  0  0  0  0  0
  123.5790  131.5920   61.9680 C   0  0  0  0  0  0  0  0  0  0  0  0
  123.7360  131.6090   60.5860 C   0  0  0  0  0  0  0  0  0  0  0  0
  1  2  2  0
  2  3  1  0
  4  3  1  1
  4  5  1  0
  5  6  1  0
  6  7  1  1
  7  8  1  0
  8  9  1  0
  9 10  1  0
 10 11  2  0
 11 12  1  0
 12 13  2  0
 13 14  1  0
 14 15  2  0
  6 16  1  0
 16 17  1  6
 17 18  1  0
 18 19  1  0
 19 20  2  0
 20 21  1  0
 21 22  2  0
 22 23  1  0
 23 24  2  0
 16 25  1  0
 25 26  1  1
 26 27  1  0
 27 28  1  0
 28 29  2  0
 29 30  1  0
 30 31  2  0
 31 32  1  0
 32 33  2  0
  2 34  1  0
 34 35  2  0
 35 36  1  0
 36 37  2  0
 37 38  1  0
 38 39  2  0
 38 40  1  0
 37 41  1  0
 41 42  2  0
 25  4  1  0
 33 28  1  0
 42 34  1  0
 15 10  1  0
 24 19  1  0
M  CHG  2  38   1  40  -1
M  END
>  <Binding energies>  (56) 
[-10.33]

>  <Ligand effiencies>  (56) 
[-0.24595238095238095]

>  <Interactions>  (56) 
["V-B:MET:535:CE:9806, V-B:ASP:366:CG:8184, V-B:LEU:363:CD1:8160, V-B:TYR:539:CD2:9845, V-B:PRO:540:CA:9854, V-B:PRO:540:N:9855, V-B:TYR:539:CE1:9846, V-B:TYR:539:CZ:9848, V-B:TYR:539:C:9838, V-B:PRO:540:CD:9858, V-A:TYR:539:CD2:4874, H-A:TYR:539:OH:4878, V-A:TYR:539:C:4867, V-A:TYR:539:CE2:4876, H-A:TYR:531:OH:4795, H-B:TYR:531:OH:9766, V-A:TYR:539:CG:4872, V-A:PRO:540:N:4884, V-A:MET:535:CE:4835, V-B:TYR:539:CD1:9844, V-B:ASP:366:CB:8183, V-A:LEU:363:CD1:3188, V-A:PRO:540:CA:4883, V-B:TYR:539:CG:9843, V-B:TYR:531:CZ:9765, V-B:TYR:531:CE2:9764, V-A:ALA:541:CB:4892, H-B:TYR:484:OH:9319, V-A:TYR:539:CZ:4877, H-B:ARG:545:NE:9895, H-B:GLY:454:N:9021, V-B:GLY:454:CA:9020, H-B:ARG:545:NH2:9899, H-B:ARG:545:NH1:9898, V-A:ILE:538:CB:4862, V-A:ILE:538:CA:4860, V-A:ILE:538:CG2:4863, V-B:ILE:369:CG2:8208, V-B:ILE:369:CB:8207, V-A:TYR:539:CE1:4875, V-A:TYR:539:CD1:4873, V-A:ILE:538:C:4858, V-B:ILE:369:CD1:8210"]

$$$$
RR9_Rahimova_2017
     RDKit          3D

 36 40  0  0  0  0  0  0  0  0999 V2000
  130.6280  126.1530   73.6860 C   0  0  0  0  0  0  0  0  0  0  0  0
  129.7360  126.9640   72.7410 C   0  0  0  0  0  0  0  0  0  0  0  0
  130.3970  127.0930   71.4860 O   0  0  0  0  0  0  0  0  0  0  0  0
  129.6940  127.5630   70.3940 C   0  0  0  0  0  0  0  0  0  0  0  0
  129.1790  126.6040   69.5230 C   0  0  0  0  0  0  0  0  0  0  0  0
  128.4600  126.9850   68.3950 C   0  0  0  0  0  0  0  0  0  0  0  0
  128.2330  128.3380   68.1050 C   0  0  0  0  0  0  0  0  0  0  0  0
  127.4620  128.7540   66.8880 C   0  0  0  0  0  0  0  0  0  0  0  0
  128.0000  128.6310   65.5970 C   0  0  0  0  0  0  0  0  0  0  0  0
  127.2680  129.0100   64.4580 C   0  0  0  0  0  0  0  0  0  0  0  0
  127.8600  128.7590   63.0980 C   0  0  0  0  0  0  0  0  0  0  0  0
  128.5820  129.6030   62.5680 O   0  0  0  0  0  0  0  0  0  0  0  0
  127.5260  127.5880   62.5210 N   0  0  0  0  0  0  0  0  0  0  0  0
  127.8670  127.1740   61.1560 C   0  0  0  0  0  0  0  0  0  0  0  0
  127.7560  125.6470   60.9410 C   0  0  0  0  0  0  0  0  0  0  0  0
  126.3720  125.1610   60.5240 C   0  0  0  0  0  0  0  0  0  0  0  0
  125.9690  125.2560   59.1880 C   0  0  0  0  0  0  0  0  0  0  0  0
  124.7180  124.7800   58.8040 C   0  0  0  0  0  0  0  0  0  0  0  0
  123.8720  124.2160   59.7570 C   0  0  0  0  0  0  0  0  0  0  0  0
  124.2660  124.1220   61.0900 C   0  0  0  0  0  0  0  0  0  0  0  0
  125.5180  124.5970   61.4750 C   0  0  0  0  0  0  0  0  0  0  0  0
  125.9800  129.5520   64.6930 C   0  0  0  0  0  0  0  0  0  0  0  0
  124.8800  130.1050   63.9380 C   0  0  0  0  0  0  0  0  0  0  0  0
  124.7770  130.3800   62.4740 C   0  0  0  0  0  0  0  0  0  0  0  0
  123.8950  131.3570   62.0020 C   0  0  0  0  0  0  0  0  0  0  0  0
  123.7890  131.6010   60.6350 C   0  0  0  0  0  0  0  0  0  0  0  0
  124.5680  130.8710   59.7350 C   0  0  0  0  0  0  0  0  0  0  0  0
  124.4390  131.1240   58.2440 C   0  0  0  0  0  0  0  0  0  0  0  0
  125.4480  129.8950   60.2020 C   0  0  0  0  0  0  0  0  0  0  0  0
  125.5550  129.6540   61.5690 C   0  0  0  0  0  0  0  0  0  0  0  0
  123.8770  130.4000   64.7340 N   0  0  0  0  0  0  0  0  0  0  0  0
  124.2560  130.1320   65.9940 N   0  0  0  0  0  0  0  0  0  0  0  0
  125.5330  129.6240   66.0340 C   0  0  0  0  0  0  0  0  0  0  0  0
  126.2160  129.2570   67.1170 N   0  0  0  0  0  0  0  0  0  0  0  0
  128.7560  129.2970   68.9840 C   0  0  0  0  0  0  0  0  0  0  0  0
  129.4760  128.9190   70.1150 C   0  0  0  0  0  0  0  0  0  0  0  0
  1  2  1  0
  2  3  1  0
  3  4  1  0
  4  5  2  0
  5  6  1  0
  6  7  2  0
  7  8  1  0
  8  9  2  0
  9 10  1  0
 10 11  1  0
 11 12  2  0
 11 13  1  0
 13 14  1  0
 14 15  1  0
 15 16  1  0
 16 17  2  0
 17 18  1  0
 18 19  2  0
 19 20  1  0
 20 21  2  0
 10 22  2  0
 22 23  1  0
 23 24  1  0
 24 25  2  0
 25 26  1  0
 26 27  2  0
 27 28  1  0
 27 29  1  0
 29 30  2  0
 23 31  2  0
 31 32  1  0
 32 33  1  0
 33 34  2  0
  7 35  1  0
 35 36  2  0
 36  4  1  0
 34  8  1  0
 21 16  1  0
 33 22  1  0
 30 24  1  0
M  END
>  <Binding energies>  (57) 
[-9.02]

>  <Ligand effiencies>  (57) 
[-0.23736842105263156]

>  <Interactions>  (57) 
["V-A:HIS:456:CE1:4069, V-A:HIS:456:CG:4065, V-A:GLU:543:CB:4906, V-A:GLU:543:CG:4907, V-A:HIS:456:CD2:4067, V-B:GLU:543:CD:9879, V-A:GLU:543:CD:4908, V-B:HIS:456:CE1:9041, V-B:GLU:543:CB:9877, V-B:ASP:366:CG:8184, V-B:LEU:363:CA:8156, V-B:ASN:362:C:8143, V-B:PRO:540:CB:9856, V-B:ASP:366:CA:8181, V-A:TYR:539:CE2:4876, V-B:ASP:366:CB:8183, V-B:ASN:362:CB:8147, H-B:TYR:484:OH:9319, H-B:GLY:454:N:9021, V-B:GLY:454:CA:9020, V-B:ARG:545:CZ:9897, H-B:GLU:543:OE1:9880, H-B:GLU:543:OE2:9881, V-B:ILE:369:CG2:8208, H-A:HIS:456:ND1:4066, V-B:ILE:369:CD1:8210, H-B:ILE:455:O:9024"]

$$$$
