1a_Ghoteimi_2023
     RDKit          3D

 67 70  0  0  0  0  0  0  0  0999 V2000
  125.0420  122.0290   55.3200 C   0  0  0  0  0  0  0  0  0  0  0  0
  125.1020  123.3510   56.0920 C   0  0  0  0  0  0  0  0  0  0  0  0
  125.4640  123.0910   57.4430 O   0  0  0  0  0  0  0  0  0  0  0  0
  126.7040  122.6410   57.7630 C   0  0  0  0  0  0  0  0  0  0  0  0
  127.4260  122.0190   56.9770 O   0  0  0  0  0  0  0  0  0  0  0  0
  127.1130  122.9790   59.1680 C   0  0  0  0  0  0  0  0  0  0  0  0
  126.3800  123.8760   59.9590 C   0  0  0  0  0  0  0  0  0  0  0  0
  126.7860  124.1730   61.2570 C   0  0  0  0  0  0  0  0  0  0  0  0
  127.9360  123.5710   61.7910 C   0  0  0  0  0  0  0  0  0  0  0  0
  128.4390  123.8010   63.0860 N   0  0  0  0  0  0  0  0  0  0  0  0
  129.7040  123.7140   63.5510 C   0  0  0  0  0  0  0  0  0  0  0  0
  130.6940  123.4170   62.8820 O   0  0  0  0  0  0  0  0  0  0  0  0
  129.8810  124.0260   65.0370 C   0  0  0  0  0  0  0  0  0  0  0  0
  130.7560  125.5970   65.2950 S   0  0  0  0  0  0  0  0  0  0  0  0
  129.6320  126.6500   66.1840 C   0  0  0  0  0  0  0  0  0  0  0  0
  129.5840  126.4030   67.5140 N   0  0  0  0  0  0  0  0  0  0  0  0
  128.7660  127.1430   68.3090 C   0  0  0  0  0  0  0  0  0  0  0  0
  128.7850  126.8230   69.7760 C   0  0  0  0  0  0  0  0  0  0  0  0
  128.0580  125.7390   70.2960 C   0  0  0  0  0  0  0  0  0  0  0  0
  128.0780  125.4440   71.6560 C   0  0  0  0  0  0  0  0  0  0  0  0
  128.8210  126.2230   72.5390 C   0  0  0  0  0  0  0  0  0  0  0  0
  128.7850  125.8560   73.8710 O   0  0  0  0  0  0  0  0  0  0  0  0
  129.8600  125.0960   74.4110 C   0  0  0  0  0  0  0  0  0  0  0  0
  129.5490  127.3110   72.0370 C   0  0  0  0  0  0  0  0  0  0  0  0
  129.5270  127.6030   70.6770 C   0  0  0  0  0  0  0  0  0  0  0  0
  127.9710  128.1580   67.7640 C   0  0  0  0  0  0  0  0  0  0  0  0
  127.9850  128.4150   66.3860 C   0  0  0  0  0  0  0  0  0  0  0  0
  127.0860  129.4920   65.8710 C   0  0  0  0  0  0  0  0  0  0  0  0
  127.6090  130.7150   65.4380 C   0  0  0  0  0  0  0  0  0  0  0  0
  126.7660  131.7080   64.9450 C   0  0  0  0  0  0  0  0  0  0  0  0
  125.3890  131.4970   64.8680 C   0  0  0  0  0  0  0  0  0  0  0  0
  124.6340  132.5370   64.3650 O   0  0  0  0  0  0  0  0  0  0  0  0
  124.1770  132.4760   63.0180 C   0  0  0  0  0  0  0  0  0  0  0  0
  124.8630  130.2670   65.2940 C   0  0  0  0  0  0  0  0  0  0  0  0
  125.7080  129.2760   65.7880 C   0  0  0  0  0  0  0  0  0  0  0  0
  128.8430  127.6440   65.5660 C   0  0  0  0  0  0  0  0  0  0  0  0
  128.9120  127.8760   64.1200 C   0  0  0  0  0  0  0  0  0  0  0  0
  128.9670  128.0610   62.9780 N   0  0  0  0  0  0  0  0  0  0  0  0
  128.6690  122.6820   61.0060 C   0  0  0  0  0  0  0  0  0  0  0  0
  128.2620  122.3860   59.7070 C   0  0  0  0  0  0  0  0  0  0  0  0
  125.0039  121.1906   56.0310 H   0  0  0  0  0  0  0  0  0  0  0  0
  124.1423  122.0144   54.6873 H   0  0  0  0  0  0  0  0  0  0  0  0
  125.9367  121.9329   54.6873 H   0  0  0  0  0  0  0  0  0  0  0  0
  125.8513  124.0116   55.6315 H   0  0  0  0  0  0  0  0  0  0  0  0
  124.1171  123.8399   56.0622 H   0  0  0  0  0  0  0  0  0  0  0  0
  125.4754  124.3494   59.5496 H   0  0  0  0  0  0  0  0  0  0  0  0
  126.2043  124.8810   61.8655 H   0  0  0  0  0  0  0  0  0  0  0  0
  127.7420  124.1070   63.7490 H   0  0  0  0  0  0  0  0  0  0  0  0
  128.8892  124.0889   65.5085 H   0  0  0  0  0  0  0  0  0  0  0  0
  130.4814  123.2215   65.4868 H   0  0  0  0  0  0  0  0  0  0  0  0
  127.4623  125.1122   69.6160 H   0  0  0  0  0  0  0  0  0  0  0  0
  127.5017  124.5878   72.0366 H   0  0  0  0  0  0  0  0  0  0  0  0
  129.8156  125.1274   75.5097 H   0  0  0  0  0  0  0  0  0  0  0  0
  129.7792  124.0532   74.0704 H   0  0  0  0  0  0  0  0  0  0  0  0
  130.8162  125.5199   74.0704 H   0  0  0  0  0  0  0  0  0  0  0  0
  130.1403  127.9367   72.7217 H   0  0  0  0  0  0  0  0  0  0  0  0
  130.1021  128.4617   70.3003 H   0  0  0  0  0  0  0  0  0  0  0  0
  127.3288  128.7600   68.4236 H   0  0  0  0  0  0  0  0  0  0  0  0
  128.6933  130.8936   65.4872 H   0  0  0  0  0  0  0  0  0  0  0  0
  127.1897  132.6674   64.6133 H   0  0  0  0  0  0  0  0  0  0  0  0
  123.0867  132.3305   63.0069 H   0  0  0  0  0  0  0  0  0  0  0  0
  124.4268  133.4154   62.5032 H   0  0  0  0  0  0  0  0  0  0  0  0
  124.6644  131.6350   62.5032 H   0  0  0  0  0  0  0  0  0  0  0  0
  123.7796  130.0852   65.2374 H   0  0  0  0  0  0  0  0  0  0  0  0
  125.2865  128.3143   66.1159 H   0  0  0  0  0  0  0  0  0  0  0  0
  129.5750  122.2111   61.4152 H   0  0  0  0  0  0  0  0  0  0  0  0
  128.8478  121.6806   59.0994 H   0  0  0  0  0  0  0  0  0  0  0  0
  1  2  1  0
  2  3  1  0
  3  4  1  0
  4  5  2  0
  4  6  1  0
  6  7  2  0
  7  8  1  0
  8  9  2  0
  9 10  1  0
 10 11  1  0
 11 12  2  0
 11 13  1  0
 13 14  1  0
 14 15  1  0
 15 16  2  0
 16 17  1  0
 17 18  1  0
 18 19  2  0
 19 20  1  0
 20 21  2  0
 21 22  1  0
 22 23  1  0
 21 24  1  0
 24 25  2  0
 17 26  2  0
 26 27  1  0
 27 28  1  0
 28 29  2  0
 29 30  1  0
 30 31  2  0
 31 32  1  0
 32 33  1  0
 31 34  1  0
 34 35  2  0
 27 36  2  0
 36 37  1  0
 37 38  3  0
  9 39  1  0
 39 40  2  0
 40  6  1  0
 36 15  1  0
 25 18  1  0
 35 28  1  0
  1 41  1  0
  1 42  1  0
  1 43  1  0
  2 44  1  0
  2 45  1  0
  7 46  1  0
  8 47  1  0
 10 48  1  0
 13 49  1  0
 13 50  1  0
 19 51  1  0
 20 52  1  0
 23 53  1  0
 23 54  1  0
 23 55  1  0
 24 56  1  0
 25 57  1  0
 26 58  1  0
 29 59  1  0
 30 60  1  0
 33 61  1  0
 33 62  1  0
 33 63  1  0
 34 64  1  0
 35 65  1  0
 39 66  1  0
 40 67  1  0
M  END
>  <Binding energies>  (1) 
[-10.05]

>  <Ligand effiencies>  (1) 
[-0.24512195121951222]

>  <Interactions>  (1) 
["V-A:HIS:456:CE1:4069, V-A:GLU:543:CG:4907, V-A:HIS:456:CD2:4067, V-B:GLU:543:CD:9879, V-A:GLU:543:CD:4908, V-B:HIS:456:CE1:9041, V-B:LYS:547:CE:9921, H-B:LYS:547:NZ:9922, V-B:GLU:543:C:9873, V-B:GLU:543:CB:9877, V-B:GLU:543:CG:9878, V-B:MET:535:CE:9806, V-B:LEU:363:CD1:8160, V-B:TYR:539:CD2:9845, V-B:PRO:540:CA:9854, V-B:TYR:539:CE2:9847, V-B:ALA:541:CB:9863, V-B:PRO:540:N:9855, V-B:PRO:540:CB:9856, H-B:TYR:539:N:9841, V-B:TYR:539:C:9838, V-B:PRO:540:CD:9858, V-B:ILE:538:CA:9831, V-B:ILE:538:CG2:9834, V-B:ILE:538:CD1:9836, H-B:GLY:454:N:9021, V-B:GLY:454:CA:9020, V-B:ARG:545:CZ:9897, H-B:GLU:543:OE2:9881, V-B:LEU:475:CD1:9229, V-B:ILE:538:CB:9833, V-B:ILE:538:C:9829, V-B:ILE:369:CD1:8210, V-B:GLY:544:C:9883"]

$$$$
1a_Grossjean_2025
     RDKit          3D

 45 46  0  0  0  0  0  0  0  0999 V2000
  125.4160  122.5670   55.9030 C   0  0  0  0  0  0  0  0  0  0  0  0
  126.4850  122.3660   54.8240 C   0  0  0  0  0  0  0  0  0  0  0  0
  127.6150  123.1750   55.1200 O   0  0  0  0  0  0  0  0  0  0  0  0
  127.7950  123.7030   56.3590 C   0  0  0  0  0  0  0  0  0  0  0  0
  127.8680  123.0190   57.3840 O   0  0  0  0  0  0  0  0  0  0  0  0
  127.8800  125.2020   56.3600 C   0  0  0  0  0  0  0  0  0  0  0  0
  127.0990  125.9300   57.2660 C   0  0  0  0  0  0  0  0  0  0  0  0
  127.1520  127.3210   57.2880 C   0  0  0  0  0  0  0  0  0  0  0  0
  127.9840  128.0120   56.4060 C   0  0  0  0  0  0  0  0  0  0  0  0
  127.9570  129.4160   56.5140 N   0  0  0  0  0  0  0  0  0  0  0  0
  126.9150  130.2720   56.4450 C   0  0  0  0  0  0  0  0  0  0  0  0
  125.7390  129.9540   56.2660 O   0  0  0  0  0  0  0  0  0  0  0  0
  127.2700  131.7510   56.6070 C   0  0  0  0  0  0  0  0  0  0  0  0
  128.1480  132.0790   58.1650 S   0  0  0  0  0  0  0  0  0  0  0  0
  129.8840  131.8330   57.8620 C   0  0  0  0  0  0  0  0  0  0  0  0
  130.1830  131.5860   56.5620 N   0  0  0  0  0  0  0  0  0  0  0  0
  131.4770  131.3790   56.2200 C   0  0  0  0  0  0  0  0  0  0  0  0
  131.7330  131.0960   54.7510 C   0  0  0  0  0  0  0  0  0  0  0  0
  132.5150  131.4190   57.1470 C   0  0  0  0  0  0  0  0  0  0  0  0
  132.2200  131.6940   58.4870 C   0  0  0  0  0  0  0  0  0  0  0  0
  133.3760  131.7490   59.4830 C   0  0  0  0  0  0  0  0  0  0  0  0
  130.8760  131.9170   58.8670 C   0  0  0  0  0  0  0  0  0  0  0  0
  130.5490  132.2550   60.2550 C   0  0  0  0  0  0  0  0  0  0  0  0
  130.2930  132.5210   61.3510 N   0  0  0  0  0  0  0  0  0  0  0  0
  128.7770  127.2900   55.5010 C   0  0  0  0  0  0  0  0  0  0  0  0
  128.7220  125.8990   55.4790 C   0  0  0  0  0  0  0  0  0  0  0  0
  125.8780  122.4801   56.8975 H   0  0  0  0  0  0  0  0  0  0  0  0
  124.9672  123.5653   55.7931 H   0  0  0  0  0  0  0  0  0  0  0  0
  124.6353  121.7999   55.7931 H   0  0  0  0  0  0  0  0  0  0  0  0
  126.7873  121.3086   54.7999 H   0  0  0  0  0  0  0  0  0  0  0  0
  126.0754  122.6528   53.8442 H   0  0  0  0  0  0  0  0  0  0  0  0
  126.4380  125.3983   57.9663 H   0  0  0  0  0  0  0  0  0  0  0  0
  126.5335  127.8796   58.0059 H   0  0  0  0  0  0  0  0  0  0  0  0
  128.8580  129.8290   56.7020 H   0  0  0  0  0  0  0  0  0  0  0  0
  127.9123  132.0553   55.7674 H   0  0  0  0  0  0  0  0  0  0  0  0
  126.3314  132.3244   56.6208 H   0  0  0  0  0  0  0  0  0  0  0  0
  132.4682  130.2832   54.6569 H   0  0  0  0  0  0  0  0  0  0  0  0
  130.7921  130.7973   54.2657 H   0  0  0  0  0  0  0  0  0  0  0  0
  132.1242  132.0023   54.2657 H   0  0  0  0  0  0  0  0  0  0  0  0
  133.5526  131.2370   56.8305 H   0  0  0  0  0  0  0  0  0  0  0  0
  132.9779  131.7301   60.5082 H   0  0  0  0  0  0  0  0  0  0  0  0
  134.0342  130.8812   59.3291 H   0  0  0  0  0  0  0  0  0  0  0  0
  133.9488  132.6754   59.3291 H   0  0  0  0  0  0  0  0  0  0  0  0
  129.4434  127.8241   54.8076 H   0  0  0  0  0  0  0  0  0  0  0  0
  129.3444  125.3406   54.7643 H   0  0  0  0  0  0  0  0  0  0  0  0
  1  2  1  0
  2  3  1  0
  3  4  1  0
  4  5  2  0
  4  6  1  0
  6  7  2  0
  7  8  1  0
  8  9  2  0
  9 10  1  0
 10 11  1  0
 11 12  2  0
 11 13  1  0
 13 14  1  0
 14 15  1  0
 15 16  2  0
 16 17  1  0
 17 18  1  0
 17 19  2  0
 19 20  1  0
 20 21  1  0
 20 22  2  0
 22 23  1  0
 23 24  3  0
  9 25  1  0
 25 26  2  0
 26  6  1  0
 22 15  1  0
  1 27  1  0
  1 28  1  0
  1 29  1  0
  2 30  1  0
  2 31  1  0
  7 32  1  0
  8 33  1  0
 10 34  1  0
 13 35  1  0
 13 36  1  0
 18 37  1  0
 18 38  1  0
 18 39  1  0
 19 40  1  0
 21 41  1  0
 21 42  1  0
 21 43  1  0
 25 44  1  0
 26 45  1  0
M  END
>  <Binding energies>  (1) 
[-7.34]

>  <Ligand effiencies>  (1) 
[-0.27185185185185184]

>  <Interactions>  (1) 
["V-B:MET:535:CE:9806, V-B:LEU:363:CD1:8160, V-B:TYR:539:CE1:9846, V-B:TYR:539:CZ:9848, V-B:PRO:540:CD:9858, H-A:TYR:539:OH:4878, V-B:ILE:538:CA:9831, V-A:TYR:539:CE2:4876, H-B:TYR:531:OH:9766, V-A:MET:535:CE:4835, V-B:TYR:539:CD1:9844, V-A:TYR:531:CZ:4794, V-A:LEU:363:CA:3184, V-A:PRO:540:CB:4885, V-A:LEU:363:CD1:3188, V-A:TYR:531:CE2:4793, V-A:ASP:366:CG:3212, V-A:PRO:540:CA:4883, V-B:ILE:538:CD1:9836, V-A:MET:535:CG:4833, H-A:ALA:541:N:4891, V-A:TYR:539:CZ:4877, V-A:ILE:538:CG2:4863, V-A:TYR:539:CE1:4875, V-A:TYR:531:CD2:4791"]

$$$$
1aa_Ghoteimi_2023
     RDKit          3D

 67 70  0  0  0  0  0  0  0  0999 V2000
  126.9260  131.0270   56.6260 C   0  0  0  0  0  0  0  0  0  0  0  0
  125.4710  130.6260   56.3660 C   0  0  0  0  0  0  0  0  0  0  0  0
  124.8670  130.2170   57.5870 O   0  0  0  0  0  0  0  0  0  0  0  0
  124.3630  131.1280   58.4590 C   0  0  0  0  0  0  0  0  0  0  0  0
  123.7160  132.1200   58.1090 O   0  0  0  0  0  0  0  0  0  0  0  0
  124.6710  130.8100   59.8940 C   0  0  0  0  0  0  0  0  0  0  0  0
  123.8810  131.2960   60.9480 C   0  0  0  0  0  0  0  0  0  0  0  0
  124.1900  130.9840   62.2700 C   0  0  0  0  0  0  0  0  0  0  0  0
  125.2980  130.1750   62.5610 C   0  0  0  0  0  0  0  0  0  0  0  0
  125.7060  129.7960   63.8540 N   0  0  0  0  0  0  0  0  0  0  0  0
  125.0410  129.8390   65.0310 C   0  0  0  0  0  0  0  0  0  0  0  0
  123.8850  130.2410   65.1720 O   0  0  0  0  0  0  0  0  0  0  0  0
  125.7880  129.3470   66.2810 C   0  0  0  0  0  0  0  0  0  0  0  0
  127.2050  129.4240   66.0800 O   0  0  0  0  0  0  0  0  0  0  0  0
  128.0300  128.3870   66.4940 C   0  0  0  0  0  0  0  0  0  0  0  0
  128.0770  128.0980   67.8240 N   0  0  0  0  0  0  0  0  0  0  0  0
  128.8840  127.0990   68.2690 C   0  0  0  0  0  0  0  0  0  0  0  0
  128.8780  126.8420   69.7490 C   0  0  0  0  0  0  0  0  0  0  0  0
  128.2140  125.7280   70.2850 C   0  0  0  0  0  0  0  0  0  0  0  0
  128.2050  125.4890   71.6570 C   0  0  0  0  0  0  0  0  0  0  0  0
  128.8600  126.3510   72.5330 C   0  0  0  0  0  0  0  0  0  0  0  0
  128.7970  126.0340   73.8760 O   0  0  0  0  0  0  0  0  0  0  0  0
  129.8830  125.3350   74.4760 C   0  0  0  0  0  0  0  0  0  0  0  0
  129.5330  127.4640   72.0120 C   0  0  0  0  0  0  0  0  0  0  0  0
  129.5400  127.7010   70.6400 C   0  0  0  0  0  0  0  0  0  0  0  0
  129.6530  126.3490   67.3720 C   0  0  0  0  0  0  0  0  0  0  0  0
  129.6140  126.6190   65.9970 C   0  0  0  0  0  0  0  0  0  0  0  0
  130.4490  125.7760   65.0910 C   0  0  0  0  0  0  0  0  0  0  0  0
  131.7840  126.1150   64.8470 C   0  0  0  0  0  0  0  0  0  0  0  0
  132.5720  125.3290   64.0110 C   0  0  0  0  0  0  0  0  0  0  0  0
  132.0470  124.1880   63.4070 C   0  0  0  0  0  0  0  0  0  0  0  0
  132.9020  123.4700   62.5940 O   0  0  0  0  0  0  0  0  0  0  0  0
  132.8230  122.0490   62.5850 C   0  0  0  0  0  0  0  0  0  0  0  0
  130.7110  123.8390   63.6550 C   0  0  0  0  0  0  0  0  0  0  0  0
  129.9240  124.6270   64.4910 C   0  0  0  0  0  0  0  0  0  0  0  0
  128.7850  127.6740   65.5480 C   0  0  0  0  0  0  0  0  0  0  0  0
  128.7130  128.0570   64.1370 C   0  0  0  0  0  0  0  0  0  0  0  0
  128.6540  128.3620   63.0230 N   0  0  0  0  0  0  0  0  0  0  0  0
  126.0860  129.6920   61.5160 C   0  0  0  0  0  0  0  0  0  0  0  0
  125.7770  130.0050   60.1960 C   0  0  0  0  0  0  0  0  0  0  0  0
  127.1046  131.0762   57.7103 H   0  0  0  0  0  0  0  0  0  0  0  0
  127.5979  130.2805   56.1772 H   0  0  0  0  0  0  0  0  0  0  0  0
  127.1206  132.0123   56.1772 H   0  0  0  0  0  0  0  0  0  0  0  0
  124.9215  131.4857   55.9549 H   0  0  0  0  0  0  0  0  0  0  0  0
  125.4426  129.7947   55.6461 H   0  0  0  0  0  0  0  0  0  0  0  0
  123.0092  131.9296   60.7276 H   0  0  0  0  0  0  0  0  0  0  0  0
  123.5641  131.3727   63.0868 H   0  0  0  0  0  0  0  0  0  0  0  0
  126.6470  129.4290   63.8970 H   0  0  0  0  0  0  0  0  0  0  0  0
  125.5093  129.9749   67.1401 H   0  0  0  0  0  0  0  0  0  0  0  0
  125.5115  128.2996   66.4722 H   0  0  0  0  0  0  0  0  0  0  0  0
  127.6924  125.0326   69.6109 H   0  0  0  0  0  0  0  0  0  0  0  0
  127.6750  124.6102   72.0529 H   0  0  0  0  0  0  0  0  0  0  0  0
  129.7952  125.3915   75.5710 H   0  0  0  0  0  0  0  0  0  0  0  0
  129.8602  124.2815   74.1602 H   0  0  0  0  0  0  0  0  0  0  0  0
  130.8324  125.7920   74.1602 H   0  0  0  0  0  0  0  0  0  0  0  0
  130.0580  128.1534   72.6896 H   0  0  0  0  0  0  0  0  0  0  0  0
  130.0746  128.5783   70.2468 H   0  0  0  0  0  0  0  0  0  0  0  0
  130.2946  125.5393   67.7498 H   0  0  0  0  0  0  0  0  0  0  0  0
  132.2147  127.0101   65.3196 H   0  0  0  0  0  0  0  0  0  0  0  0
  133.6189  125.6111   63.8254 H   0  0  0  0  0  0  0  0  0  0  0  0
  132.8023  121.6764   63.6198 H   0  0  0  0  0  0  0  0  0  0  0  0
  131.9061  121.7360   62.0641 H   0  0  0  0  0  0  0  0  0  0  0  0
  133.6996  121.6363   62.0641 H   0  0  0  0  0  0  0  0  0  0  0  0
  130.2836  122.9397   63.1874 H   0  0  0  0  0  0  0  0  0  0  0  0
  128.8786  124.3428   64.6814 H   0  0  0  0  0  0  0  0  0  0  0  0
  126.9580  129.0591   61.7373 H   0  0  0  0  0  0  0  0  0  0  0  0
  126.4069  129.6168   59.3821 H   0  0  0  0  0  0  0  0  0  0  0  0
  1  2  1  0
  2  3  1  0
  3  4  1  0
  4  5  2  0
  4  6  1  0
  6  7  2  0
  7  8  1  0
  8  9  2  0
  9 10  1  0
 10 11  1  0
 11 12  2  0
 11 13  1  0
 13 14  1  0
 14 15  1  0
 15 16  2  0
 16 17  1  0
 17 18  1  0
 18 19  2  0
 19 20  1  0
 20 21  2  0
 21 22  1  0
 22 23  1  0
 21 24  1  0
 24 25  2  0
 17 26  2  0
 26 27  1  0
 27 28  1  0
 28 29  2  0
 29 30  1  0
 30 31  2  0
 31 32  1  0
 32 33  1  0
 31 34  1  0
 34 35  2  0
 27 36  2  0
 36 37  1  0
 37 38  3  0
  9 39  1  0
 39 40  2  0
 40  6  1  0
 36 15  1  0
 25 18  1  0
 35 28  1  0
  1 41  1  0
  1 42  1  0
  1 43  1  0
  2 44  1  0
  2 45  1  0
  7 46  1  0
  8 47  1  0
 10 48  1  0
 13 49  1  0
 13 50  1  0
 19 51  1  0
 20 52  1  0
 23 53  1  0
 23 54  1  0
 23 55  1  0
 24 56  1  0
 25 57  1  0
 26 58  1  0
 29 59  1  0
 30 60  1  0
 33 61  1  0
 33 62  1  0
 33 63  1  0
 34 64  1  0
 35 65  1  0
 39 66  1  0
 40 67  1  0
M  END
>  <Binding energies>  (1) 
[-9.62]

>  <Ligand effiencies>  (1) 
[-0.2346341463414634]

>  <Interactions>  (1) 
["V-A:HIS:456:CE1:4069, V-A:GLU:543:CG:4907, V-A:HIS:456:CD2:4067, V-B:GLU:543:CD:9879, V-A:GLU:543:CD:4908, V-B:HIS:456:CE1:9041, H-B:LYS:547:NZ:9922, V-B:GLU:543:C:9873, V-B:GLU:543:CB:9877, V-B:GLU:543:CG:9878, V-B:ASP:366:CG:8184, V-A:LEU:475:CD2:4258, V-B:ASP:366:CA:8181, V-A:ARG:545:CZ:4926, H-A:TYR:539:OH:4878, V-A:TYR:539:CE2:4876, H-B:TYR:531:OH:9766, V-A:MET:535:CE:4835, V-B:ASP:366:CB:8183, V-B:TYR:531:CZ:9765, V-A:TYR:539:CZ:4877, H-B:ARG:545:NE:9895, H-B:GLY:454:N:9021, V-B:ARG:545:CZ:9897, V-B:TYR:531:CE1:9763, V-B:ILE:369:CD1:8210, H-B:ASN:370:N:8215"]

$$$$
1b_Ghoteimi_2023
     RDKit          3D

 54 57  0  0  0  0  0  0  0  0999 V2000
  129.9450  125.2790   74.5610 C   0  0  0  0  0  0  0  0  0  0  0  0
  128.8810  126.0600   74.0310 O   0  0  0  0  0  0  0  0  0  0  0  0
  128.8070  126.2600   72.6660 C   0  0  0  0  0  0  0  0  0  0  0  0
  129.5020  127.3540   72.1550 C   0  0  0  0  0  0  0  0  0  0  0  0
  129.4840  127.6340   70.7920 C   0  0  0  0  0  0  0  0  0  0  0  0
  128.7720  126.8240   69.8950 C   0  0  0  0  0  0  0  0  0  0  0  0
  128.7530  127.1310   68.4240 C   0  0  0  0  0  0  0  0  0  0  0  0
  127.9380  128.1200   67.8630 C   0  0  0  0  0  0  0  0  0  0  0  0
  127.9610  128.3700   66.4850 C   0  0  0  0  0  0  0  0  0  0  0  0
  127.0620  129.4380   65.9550 C   0  0  0  0  0  0  0  0  0  0  0  0
  127.5760  130.6950   65.6270 C   0  0  0  0  0  0  0  0  0  0  0  0
  126.7400  131.6960   65.1410 C   0  0  0  0  0  0  0  0  0  0  0  0
  125.3750  131.4620   64.9780 C   0  0  0  0  0  0  0  0  0  0  0  0
  124.6220  132.5140   64.4900 O   0  0  0  0  0  0  0  0  0  0  0  0
  124.1990  132.4930   63.1310 C   0  0  0  0  0  0  0  0  0  0  0  0
  124.8520  130.2050   65.3140 C   0  0  0  0  0  0  0  0  0  0  0  0
  125.6910  129.2060   65.8000 C   0  0  0  0  0  0  0  0  0  0  0  0
  128.8370  127.6050   65.6760 C   0  0  0  0  0  0  0  0  0  0  0  0
  128.9690  127.8910   64.2440 C   0  0  0  0  0  0  0  0  0  0  0  0
  129.0720  128.1190   63.1140 N   0  0  0  0  0  0  0  0  0  0  0  0
  129.6170  126.6070   66.3030 C   0  0  0  0  0  0  0  0  0  0  0  0
  130.7630  125.5470   65.4450 S   0  0  0  0  0  0  0  0  0  0  0  0
  130.1590  123.8320   65.5920 C   0  0  0  0  0  0  0  0  0  0  0  0
  129.7030  123.1880   64.2750 C   0  0  0  0  0  0  0  0  0  0  0  0
  130.2550  122.1730   63.8460 O   0  0  0  0  0  0  0  0  0  0  0  0
  128.6800  123.8250   63.6610 N   0  0  0  0  0  0  0  0  0  0  0  0
  128.0650  123.4710   62.4660 C   0  0  0  0  0  0  0  0  0  0  0  0
  128.7460  123.4000   61.2520 C   0  0  0  0  0  0  0  0  0  0  0  0
  127.7950  123.0220   60.3310 C   0  0  0  0  0  0  0  0  0  0  0  0
  126.6050  122.8710   60.9590 O   0  0  0  0  0  0  0  0  0  0  0  0
  126.7890  123.1580   62.3120 N   0  0  0  0  0  0  0  0  0  0  0  0
  129.5850  126.3970   67.6410 N   0  0  0  0  0  0  0  0  0  0  0  0
  128.0730  125.7250   70.4210 C   0  0  0  0  0  0  0  0  0  0  0  0
  128.0880  125.4430   71.7830 C   0  0  0  0  0  0  0  0  0  0  0  0
  129.9078  125.3063   75.6600 H   0  0  0  0  0  0  0  0  0  0  0  0
  129.8436  124.2393   74.2164 H   0  0  0  0  0  0  0  0  0  0  0  0
  130.9065  125.6874   74.2164 H   0  0  0  0  0  0  0  0  0  0  0  0
  130.0711  128.0035   72.8363 H   0  0  0  0  0  0  0  0  0  0  0  0
  130.0374  128.5052   70.4116 H   0  0  0  0  0  0  0  0  0  0  0  0
  127.2716  128.7079   68.5113 H   0  0  0  0  0  0  0  0  0  0  0  0
  128.6502  130.8952   65.7539 H   0  0  0  0  0  0  0  0  0  0  0  0
  127.1594  132.6797   64.8834 H   0  0  0  0  0  0  0  0  0  0  0  0
  123.1011  132.4385   63.0895 H   0  0  0  0  0  0  0  0  0  0  0  0
  124.5400  133.4092   62.6267 H   0  0  0  0  0  0  0  0  0  0  0  0
  124.6290  131.6151   62.6267 H   0  0  0  0  0  0  0  0  0  0  0  0
  123.7766  130.0079   65.1933 H   0  0  0  0  0  0  0  0  0  0  0  0
  125.2717  128.2241   66.0649 H   0  0  0  0  0  0  0  0  0  0  0  0
  130.9719  123.2187   66.0079 H   0  0  0  0  0  0  0  0  0  0  0  0
  129.2690  123.8744   66.2370 H   0  0  0  0  0  0  0  0  0  0  0  0
  128.3040  124.6430   64.1180 H   0  0  0  0  0  0  0  0  0  0  0  0
  129.8117  123.6021   61.0694 H   0  0  0  0  0  0  0  0  0  0  0  0
  127.9734  122.8674   59.2566 H   0  0  0  0  0  0  0  0  0  0  0  0
  127.5023  125.0743   69.7422 H   0  0  0  0  0  0  0  0  0  0  0  0
  127.5332  124.5750   72.1687 H   0  0  0  0  0  0  0  0  0  0  0  0
  1  2  1  0
  2  3  1  0
  3  4  2  0
  4  5  1  0
  5  6  2  0
  6  7  1  0
  7  8  2  0
  8  9  1  0
  9 10  1  0
 10 11  2  0
 11 12  1  0
 12 13  2  0
 13 14  1  0
 14 15  1  0
 13 16  1  0
 16 17  2  0
  9 18  2  0
 18 19  1  0
 19 20  3  0
 18 21  1  0
 21 22  1  0
 22 23  1  0
 23 24  1  0
 24 25  2  0
 24 26  1  0
 26 27  1  0
 27 28  1  0
 28 29  2  0
 29 30  1  0
 30 31  1  0
 21 32  2  0
  6 33  1  0
 33 34  2  0
 34  3  1  0
 32  7  1  0
 17 10  1  0
 31 27  2  0
  1 35  1  0
  1 36  1  0
  1 37  1  0
  4 38  1  0
  5 39  1  0
  8 40  1  0
 11 41  1  0
 12 42  1  0
 15 43  1  0
 15 44  1  0
 15 45  1  0
 16 46  1  0
 17 47  1  0
 23 48  1  0
 23 49  1  0
 26 50  1  0
 28 51  1  0
 29 52  1  0
 33 53  1  0
 34 54  1  0
M  END
>  <Binding energies>  (1) 
[-9.19]

>  <Ligand effiencies>  (1) 
[-0.26257142857142857]

>  <Interactions>  (1) 
["V-A:HIS:456:CE1:4069, V-A:GLU:543:CG:4907, V-A:HIS:456:CD2:4067, V-B:GLU:543:CD:9879, V-A:GLU:543:CD:4908, V-B:HIS:456:CE1:9041, H-B:LYS:547:NZ:9922, V-B:GLU:543:C:9873, V-B:GLU:543:CB:9877, V-B:GLU:543:CG:9878, V-B:PRO:540:CA:9854, V-B:ALA:541:CB:9863, H-B:ALA:541:N:9862, V-A:TYR:484:CE1:4344, V-A:TYR:484:CZ:4346, H-B:GLY:454:N:9021, V-B:GLY:454:CA:9020, V-B:ARG:545:CZ:9897, H-B:GLU:543:OE1:9880, H-B:GLU:543:OE2:9881, V-B:LEU:475:CD1:9229, V-B:ILE:369:CD1:8210, V-B:GLY:544:C:9883"]

$$$$
1b_Grossjean_2025
     RDKit          3D

 42 43  0  0  0  0  0  0  0  0999 V2000
  124.7020  124.1980   57.9730 C   0  0  0  0  0  0  0  0  0  0  0  0
  125.2890  123.7410   56.7620 O   0  0  0  0  0  0  0  0  0  0  0  0
  126.2530  122.7840   56.7710 C   0  0  0  0  0  0  0  0  0  0  0  0
  126.1600  121.7180   56.1540 O   0  0  0  0  0  0  0  0  0  0  0  0
  127.4490  123.1550   57.6000 C   0  0  0  0  0  0  0  0  0  0  0  0
  127.8020  122.4410   58.7550 C   0  0  0  0  0  0  0  0  0  0  0  0
  128.9160  122.8110   59.5020 C   0  0  0  0  0  0  0  0  0  0  0  0
  129.7000  123.8970   59.1140 C   0  0  0  0  0  0  0  0  0  0  0  0
  130.8000  124.1810   59.9450 N   0  0  0  0  0  0  0  0  0  0  0  0
  132.1150  124.2720   59.6470 C   0  0  0  0  0  0  0  0  0  0  0  0
  132.6080  124.1190   58.5300 O   0  0  0  0  0  0  0  0  0  0  0  0
  133.0320  124.6060   60.8250 C   0  0  0  0  0  0  0  0  0  0  0  0
  132.8740  123.4030   62.1800 S   0  0  0  0  0  0  0  0  0  0  0  0
  132.5320  124.3200   63.6670 C   0  0  0  0  0  0  0  0  0  0  0  0
  133.6190  124.5030   64.4570 N   0  0  0  0  0  0  0  0  0  0  0  0
  133.4720  125.1900   65.6150 C   0  0  0  0  0  0  0  0  0  0  0  0
  134.7330  125.3690   66.4410 C   0  0  0  0  0  0  0  0  0  0  0  0
  132.2470  125.7070   66.0320 C   0  0  0  0  0  0  0  0  0  0  0  0
  131.1170  125.5030   65.2340 C   0  0  0  0  0  0  0  0  0  0  0  0
  129.7820  126.0650   65.7200 C   0  0  0  0  0  0  0  0  0  0  0  0
  131.2460  124.7890   64.0210 C   0  0  0  0  0  0  0  0  0  0  0  0
  130.0680  124.5260   63.1910 C   0  0  0  0  0  0  0  0  0  0  0  0
  129.1360  124.3200   62.5370 N   0  0  0  0  0  0  0  0  0  0  0  0
  129.3540  124.6170   57.9600 C   0  0  0  0  0  0  0  0  0  0  0  0
  128.2400  124.2450   57.2140 C   0  0  0  0  0  0  0  0  0  0  0  0
  125.2478  123.7730   58.8283 H   0  0  0  0  0  0  0  0  0  0  0  0
  124.7537  125.2960   58.0140 H   0  0  0  0  0  0  0  0  0  0  0  0
  123.6502  123.8786   58.0140 H   0  0  0  0  0  0  0  0  0  0  0  0
  127.1931  121.5817   59.0726 H   0  0  0  0  0  0  0  0  0  0  0  0
  129.1804  122.2424   60.4058 H   0  0  0  0  0  0  0  0  0  0  0  0
  130.5550  124.3260   60.9140 H   0  0  0  0  0  0  0  0  0  0  0  0
  134.0742  124.6087   60.4732 H   0  0  0  0  0  0  0  0  0  0  0  0
  132.7383  125.5926   61.2129 H   0  0  0  0  0  0  0  0  0  0  0  0
  134.4789  125.3329   67.5106 H   0  0  0  0  0  0  0  0  0  0  0  0
  135.4432  124.5627   66.2055 H   0  0  0  0  0  0  0  0  0  0  0  0
  135.1907  126.3411   66.2055 H   0  0  0  0  0  0  0  0  0  0  0  0
  132.1700  126.2675   66.9753 H   0  0  0  0  0  0  0  0  0  0  0  0
  129.7657  126.0719   66.8199 H   0  0  0  0  0  0  0  0  0  0  0  0
  129.6581  127.0917   65.3450 H   0  0  0  0  0  0  0  0  0  0  0  0
  128.9611  125.4361   65.3450 H   0  0  0  0  0  0  0  0  0  0  0  0
  129.9642  125.4763   57.6450 H   0  0  0  0  0  0  0  0  0  0  0  0
  127.9771  124.8138   56.3099 H   0  0  0  0  0  0  0  0  0  0  0  0
  1  2  1  0
  2  3  1  0
  3  4  2  0
  3  5  1  0
  5  6  2  0
  6  7  1  0
  7  8  2  0
  8  9  1  0
  9 10  1  0
 10 11  2  0
 10 12  1  0
 12 13  1  0
 13 14  1  0
 14 15  2  0
 15 16  1  0
 16 17  1  0
 16 18  2  0
 18 19  1  0
 19 20  1  0
 19 21  2  0
 21 22  1  0
 22 23  3  0
  8 24  1  0
 24 25  2  0
 25  5  1  0
 21 14  1  0
  1 26  1  0
  1 27  1  0
  1 28  1  0
  6 29  1  0
  7 30  1  0
  9 31  1  0
 12 32  1  0
 12 33  1  0
 17 34  1  0
 17 35  1  0
 17 36  1  0
 18 37  1  0
 20 38  1  0
 20 39  1  0
 20 40  1  0
 24 41  1  0
 25 42  1  0
M  END
>  <Binding energies>  (1) 
[-7.46]

>  <Ligand effiencies>  (1) 
[-0.28692307692307695]

>  <Interactions>  (1) 
["V-A:HIS:456:CE1:4069, V-B:GLU:543:CD:9879, V-B:GLU:543:CG:9878, V-B:LEU:363:CD1:8160, V-B:TYR:539:CD2:9845, V-B:PRO:540:CA:9854, V-B:TYR:539:CE2:9847, V-B:PRO:540:N:9855, V-B:TYR:539:CE1:9846, V-B:PRO:540:CB:9856, H-B:TYR:539:N:9841, V-A:ILE:369:CG2:3236, V-B:TYR:539:CZ:9848, V-B:TYR:539:C:9838, V-B:PRO:540:CD:9858, V-A:ARG:545:CZ:4926, H-B:TYR:539:OH:9849, H-A:GLY:454:N:4049, V-A:ASP:366:CG:3212, H-A:TYR:484:OH:4347, V-A:GLY:454:CA:4048, V-A:ARG:545:CD:4923, V-A:ARG:545:CG:4922, V-A:GLY:453:C:4041, V-A:GLY:453:CA:4043"]

$$$$
1c_Ghoteimi_2023
     RDKit          3D

 54 57  0  0  0  0  0  0  0  0999 V2000
  133.3360  122.3380   62.5370 C   0  0  0  0  0  0  0  0  0  0  0  0
  132.7870  122.0670   63.8220 O   0  0  0  0  0  0  0  0  0  0  0  0
  132.1340  123.0760   64.5040 C   0  0  0  0  0  0  0  0  0  0  0  0
  132.8780  124.2160   64.7940 C   0  0  0  0  0  0  0  0  0  0  0  0
  132.3020  125.2810   65.4820 C   0  0  0  0  0  0  0  0  0  0  0  0
  130.9630  125.2360   65.9000 C   0  0  0  0  0  0  0  0  0  0  0  0
  130.3390  126.3800   66.6460 C   0  0  0  0  0  0  0  0  0  0  0  0
  129.2100  127.0610   66.1790 C   0  0  0  0  0  0  0  0  0  0  0  0
  128.6470  128.1050   66.9230 C   0  0  0  0  0  0  0  0  0  0  0  0
  127.4030  128.7420   66.3970 C   0  0  0  0  0  0  0  0  0  0  0  0
  127.3260  129.1590   65.0650 C   0  0  0  0  0  0  0  0  0  0  0  0
  126.1740  129.7720   64.5820 C   0  0  0  0  0  0  0  0  0  0  0  0
  125.0810  129.9850   65.4220 C   0  0  0  0  0  0  0  0  0  0  0  0
  123.9800  130.6010   64.8570 O   0  0  0  0  0  0  0  0  0  0  0  0
  123.8860  130.6910   63.4390 C   0  0  0  0  0  0  0  0  0  0  0  0
  125.1570  129.5750   66.7620 C   0  0  0  0  0  0  0  0  0  0  0  0
  126.3110  128.9620   67.2420 C   0  0  0  0  0  0  0  0  0  0  0  0
  129.2650  128.4730   68.1410 C   0  0  0  0  0  0  0  0  0  0  0  0
  128.7440  129.5800   68.9500 C   0  0  0  0  0  0  0  0  0  0  0  0
  128.3310  130.4540   69.5880 N   0  0  0  0  0  0  0  0  0  0  0  0
  130.3900  127.7330   68.5610 C   0  0  0  0  0  0  0  0  0  0  0  0
  131.1620  127.9740   70.1470 S   0  0  0  0  0  0  0  0  0  0  0  0
  129.8810  127.5230   71.3620 C   0  0  0  0  0  0  0  0  0  0  0  0
  129.7890  128.5370   72.5080 C   0  0  0  0  0  0  0  0  0  0  0  0
  130.2520  128.2490   73.6130 O   0  0  0  0  0  0  0  0  0  0  0  0
  129.2240  129.7210   72.1860 N   0  0  0  0  0  0  0  0  0  0  0  0
  129.1590  130.8520   72.9840 C   0  0  0  0  0  0  0  0  0  0  0  0
  130.0840  131.3260   73.7900 N   0  0  0  0  0  0  0  0  0  0  0  0
  129.6960  132.4480   74.3650 C   0  0  0  0  0  0  0  0  0  0  0  0
  128.4280  132.9080   74.0230 C   0  0  0  0  0  0  0  0  0  0  0  0
  127.7120  131.8020   72.8880 S   0  0  0  0  0  0  0  0  0  0  0  0
  130.9040  126.7110   67.8360 N   0  0  0  0  0  0  0  0  0  0  0  0
  130.2220  124.0850   65.5970 C   0  0  0  0  0  0  0  0  0  0  0  0
  130.7940  123.0170   64.9110 C   0  0  0  0  0  0  0  0  0  0  0  0
  134.3170  122.8222   62.6521 H   0  0  0  0  0  0  0  0  0  0  0  0
  133.4552  121.3952   61.9829 H   0  0  0  0  0  0  0  0  0  0  0  0
  132.6601  123.0060   61.9829 H   0  0  0  0  0  0  0  0  0  0  0  0
  133.9297  124.2762   64.4771 H   0  0  0  0  0  0  0  0  0  0  0  0
  132.9070  126.1730   65.7016 H   0  0  0  0  0  0  0  0  0  0  0  0
  128.7598  126.7734   65.2174 H   0  0  0  0  0  0  0  0  0  0  0  0
  128.1828  129.0013   64.3934 H   0  0  0  0  0  0  0  0  0  0  0  0
  126.1249  130.0909   63.5304 H   0  0  0  0  0  0  0  0  0  0  0  0
  123.1158  131.4284   63.1687 H   0  0  0  0  0  0  0  0  0  0  0  0
  124.8559  131.0058   63.0265 H   0  0  0  0  0  0  0  0  0  0  0  0
  123.6136  129.7083   63.0265 H   0  0  0  0  0  0  0  0  0  0  0  0
  124.3023  129.7385   67.4349 H   0  0  0  0  0  0  0  0  0  0  0  0
  126.3642  128.6481   68.2949 H   0  0  0  0  0  0  0  0  0  0  0  0
  128.9081  127.4767   70.8507 H   0  0  0  0  0  0  0  0  0  0  0  0
  130.1525  126.5484   71.7937 H   0  0  0  0  0  0  0  0  0  0  0  0
  128.8760  129.8280   71.2450 H   0  0  0  0  0  0  0  0  0  0  0  0
  130.3386  132.9895   75.0748 H   0  0  0  0  0  0  0  0  0  0  0  0
  127.9550  133.8233   74.4083 H   0  0  0  0  0  0  0  0  0  0  0  0
  129.1684  124.0246   65.9072 H   0  0  0  0  0  0  0  0  0  0  0  0
  130.1922  122.1237   64.6876 H   0  0  0  0  0  0  0  0  0  0  0  0
  1  2  1  0
  2  3  1  0
  3  4  2  0
  4  5  1  0
  5  6  2  0
  6  7  1  0
  7  8  2  0
  8  9  1  0
  9 10  1  0
 10 11  2  0
 11 12  1  0
 12 13  2  0
 13 14  1  0
 14 15  1  0
 13 16  1  0
 16 17  2  0
  9 18  2  0
 18 19  1  0
 19 20  3  0
 18 21  1  0
 21 22  1  0
 22 23  1  0
 23 24  1  0
 24 25  2  0
 24 26  1  0
 26 27  1  0
 27 28  2  0
 28 29  1  0
 29 30  2  0
 30 31  1  0
 21 32  2  0
  6 33  1  0
 33 34  2  0
 34  3  1  0
 32  7  1  0
 17 10  1  0
 31 27  1  0
  1 35  1  0
  1 36  1  0
  1 37  1  0
  4 38  1  0
  5 39  1  0
  8 40  1  0
 11 41  1  0
 12 42  1  0
 15 43  1  0
 15 44  1  0
 15 45  1  0
 16 46  1  0
 17 47  1  0
 23 48  1  0
 23 49  1  0
 26 50  1  0
 29 51  1  0
 30 52  1  0
 33 53  1  0
 34 54  1  0
M  END
>  <Binding energies>  (1) 
[-8.38]

>  <Ligand effiencies>  (1) 
[-0.23942857142857146]

>  <Interactions>  (1) 
["V-A:HIS:456:CE1:4069, V-A:GLU:543:CB:4906, V-A:GLU:543:CG:4907, V-B:GLU:543:CD:9879, V-A:GLU:543:CD:4908, V-B:HIS:456:CE1:9041, H-A:LYS:547:NZ:4951, V-B:HIS:456:CD2:9039, V-B:HIS:456:CG:9037, V-B:GLU:543:CG:9878, V-A:LEU:475:CD2:4258, V-A:ILE:369:CG2:3236, H-A:GLY:454:N:4049, H-A:TYR:484:OH:4347, V-A:TYR:484:CE1:4344, V-A:TYR:484:CZ:4346, V-A:GLY:454:CA:4048, V-A:ILE:369:CD1:3238, V-B:TYR:484:CE1:9316, H-B:TYR:484:OH:9319, H-A:GLU:543:O:4903, V-A:GLU:543:CA:4904, H-B:GLY:454:N:9021, V-B:GLY:454:CA:9020, V-B:ARG:545:CZ:9897, H-A:HIS:456:ND1:4066, H-B:HIS:456:NE2:9042, H-B:HIS:456:ND1:9038, V-B:TYR:484:CD1:9314, V-B:HIS:456:CB:9036, V-B:TYR:484:CG:9313, V-B:TYR:484:CB:9312"]

$$$$
1c_Grossjean_2025
     RDKit          3D

 40 41  0  0  0  0  0  0  0  0999 V2000
  131.9320  120.4920   60.9960 C   0  0  0  0  0  0  0  0  0  0  0  0
  131.2600  121.3460   61.9150 O   0  0  0  0  0  0  0  0  0  0  0  0
  130.0490  121.9040   61.5530 C   0  0  0  0  0  0  0  0  0  0  0  0
  129.4840  122.8040   62.4570 C   0  0  0  0  0  0  0  0  0  0  0  0
  128.2660  123.4190   62.1820 C   0  0  0  0  0  0  0  0  0  0  0  0
  127.5960  123.1410   60.9820 C   0  0  0  0  0  0  0  0  0  0  0  0
  126.3570  123.6980   60.6080 N   0  0  0  0  0  0  0  0  0  0  0  0
  125.1300  123.4870   61.1320 C   0  0  0  0  0  0  0  0  0  0  0  0
  124.8770  122.7490   62.0840 O   0  0  0  0  0  0  0  0  0  0  0  0
  123.9900  124.2560   60.4610 C   0  0  0  0  0  0  0  0  0  0  0  0
  123.9040  123.9170   58.6770 S   0  0  0  0  0  0  0  0  0  0  0  0
  125.3750  124.5650   57.9100 C   0  0  0  0  0  0  0  0  0  0  0  0
  125.7390  125.7840   58.3830 N   0  0  0  0  0  0  0  0  0  0  0  0
  126.8430  126.3770   57.8740 C   0  0  0  0  0  0  0  0  0  0  0  0
  127.1920  127.7330   58.4600 C   0  0  0  0  0  0  0  0  0  0  0  0
  127.6180  125.7930   56.8750 C   0  0  0  0  0  0  0  0  0  0  0  0
  127.2390  124.5480   56.3620 C   0  0  0  0  0  0  0  0  0  0  0  0
  128.0940  123.9360   55.2550 C   0  0  0  0  0  0  0  0  0  0  0  0
  126.0870  123.9100   56.8770 C   0  0  0  0  0  0  0  0  0  0  0  0
  125.6430  122.6320   56.3150 C   0  0  0  0  0  0  0  0  0  0  0  0
  125.2940  121.6230   55.8710 N   0  0  0  0  0  0  0  0  0  0  0  0
  128.1520  122.2320   60.0800 C   0  0  0  0  0  0  0  0  0  0  0  0
  129.3700  121.6190   60.3590 C   0  0  0  0  0  0  0  0  0  0  0  0
  132.5193  119.7457   61.5511 H   0  0  0  0  0  0  0  0  0  0  0  0
  131.1922  119.9797   60.3633 H   0  0  0  0  0  0  0  0  0  0  0  0
  132.6039  121.0905   60.3633 H   0  0  0  0  0  0  0  0  0  0  0  0
  130.0071  123.0302   63.3979 H   0  0  0  0  0  0  0  0  0  0  0  0
  127.8292  124.1228   62.9058 H   0  0  0  0  0  0  0  0  0  0  0  0
  126.4150  124.3870   59.8740 H   0  0  0  0  0  0  0  0  0  0  0  0
  123.0383  123.9591   60.9260 H   0  0  0  0  0  0  0  0  0  0  0  0
  124.1777  125.3315   60.5957 H   0  0  0  0  0  0  0  0  0  0  0  0
  127.1765  127.6728   59.5582 H   0  0  0  0  0  0  0  0  0  0  0  0
  128.1960  128.0306   58.1232 H   0  0  0  0  0  0  0  0  0  0  0  0
  126.4564  128.4783   58.1232 H   0  0  0  0  0  0  0  0  0  0  0  0
  128.5152  126.3034   56.4948 H   0  0  0  0  0  0  0  0  0  0  0  0
  128.9108  123.3514   55.7034 H   0  0  0  0  0  0  0  0  0  0  0  0
  127.4708  123.2775   54.6320 H   0  0  0  0  0  0  0  0  0  0  0  0
  128.5164  124.7382   54.6320 H   0  0  0  0  0  0  0  0  0  0  0  0
  127.6244  121.9989   59.1434 H   0  0  0  0  0  0  0  0  0  0  0  0
  129.8022  120.9077   59.6398 H   0  0  0  0  0  0  0  0  0  0  0  0
  1  2  1  0
  2  3  1  0
  3  4  2  0
  4  5  1  0
  5  6  2  0
  6  7  1  0
  7  8  1  0
  8  9  2  0
  8 10  1  0
 10 11  1  0
 11 12  1  0
 12 13  2  0
 13 14  1  0
 14 15  1  0
 14 16  2  0
 16 17  1  0
 17 18  1  0
 17 19  2  0
 19 20  1  0
 20 21  3  0
  6 22  1  0
 22 23  2  0
 23  3  1  0
 19 12  1  0
  1 24  1  0
  1 25  1  0
  1 26  1  0
  4 27  1  0
  5 28  1  0
  7 29  1  0
 10 30  1  0
 10 31  1  0
 15 32  1  0
 15 33  1  0
 15 34  1  0
 16 35  1  0
 18 36  1  0
 18 37  1  0
 18 38  1  0
 22 39  1  0
 23 40  1  0
M  END
>  <Binding energies>  (1) 
[-6.82]

>  <Ligand effiencies>  (1) 
[-0.2841666666666667]

>  <Interactions>  (1) 
["V-B:MET:535:CE:9806, V-B:ASP:366:CG:8184, V-B:LEU:363:CA:8156, V-B:LEU:363:CD1:8160, V-B:ASN:362:C:8143, V-A:TRP:381:CH2:3371, V-B:TYR:539:CD2:9845, V-B:PRO:540:CA:9854, V-B:TYR:539:CE2:9847, V-B:PRO:540:C:9852, V-B:ALA:541:CB:9863, V-B:PRO:540:N:9855, V-A:LEU:475:CD2:4258, V-B:TYR:539:CE1:9846, V-B:PRO:540:CB:9856, H-B:TYR:539:N:9841, H-B:ALA:541:N:9862, V-A:ILE:369:CG2:3236, V-B:TYR:539:CZ:9848, V-B:TYR:539:C:9838, V-B:PRO:540:CD:9858, H-B:TYR:531:OH:9766, V-B:TYR:539:CD1:9844, V-B:ASN:362:CB:8147, H-B:LEU:363:N:8157"]

$$$$
1d_Ghoteimi_2023
     RDKit          3D

 50 52  0  0  0  0  0  0  0  0999 V2000
  133.7450  125.3370   63.6430 C   0  0  0  0  0  0  0  0  0  0  0  0
  133.5660  124.6310   64.8610 O   0  0  0  0  0  0  0  0  0  0  0  0
  133.9480  125.1790   66.0330 C   0  0  0  0  0  0  0  0  0  0  0  0
  135.0250  125.0020   66.6040 O   0  0  0  0  0  0  0  0  0  0  0  0
  132.8720  126.0830   66.6280 C   0  0  0  0  0  0  0  0  0  0  0  0
  131.3010  125.6750   65.8110 S   0  0  0  0  0  0  0  0  0  0  0  0
  130.0310  126.6240   66.6180 C   0  0  0  0  0  0  0  0  0  0  0  0
  129.9830  126.4410   67.9600 N   0  0  0  0  0  0  0  0  0  0  0  0
  129.0570  127.1030   68.7010 C   0  0  0  0  0  0  0  0  0  0  0  0
  129.0750  126.8490   70.1800 C   0  0  0  0  0  0  0  0  0  0  0  0
  128.4350  125.7290   70.7350 C   0  0  0  0  0  0  0  0  0  0  0  0
  128.4470  125.4990   72.1070 C   0  0  0  0  0  0  0  0  0  0  0  0
  129.0970  126.3790   72.9690 C   0  0  0  0  0  0  0  0  0  0  0  0
  129.0540  126.0730   74.3150 O   0  0  0  0  0  0  0  0  0  0  0  0
  129.9380  125.0830   74.8290 C   0  0  0  0  0  0  0  0  0  0  0  0
  129.7400  127.5020   72.4300 C   0  0  0  0  0  0  0  0  0  0  0  0
  129.7270  127.7290   71.0570 C   0  0  0  0  0  0  0  0  0  0  0  0
  128.1550  127.9840   68.0930 C   0  0  0  0  0  0  0  0  0  0  0  0
  128.1720  128.1800   66.7070 C   0  0  0  0  0  0  0  0  0  0  0  0
  127.1760  129.1300   66.1230 C   0  0  0  0  0  0  0  0  0  0  0  0
  127.5550  130.0110   65.1070 C   0  0  0  0  0  0  0  0  0  0  0  0
  126.6320  130.8980   64.5590 C   0  0  0  0  0  0  0  0  0  0  0  0
  125.3130  130.9180   65.0100 C   0  0  0  0  0  0  0  0  0  0  0  0
  124.4690  131.8350   64.4140 O   0  0  0  0  0  0  0  0  0  0  0  0
  123.9430  131.5570   63.1210 C   0  0  0  0  0  0  0  0  0  0  0  0
  124.9240  130.0260   66.0220 C   0  0  0  0  0  0  0  0  0  0  0  0
  125.8490  129.1400   66.5680 C   0  0  0  0  0  0  0  0  0  0  0  0
  129.1230  127.4660   65.9360 C   0  0  0  0  0  0  0  0  0  0  0  0
  129.1190  127.5540   64.4730 C   0  0  0  0  0  0  0  0  0  0  0  0
  129.1140  127.6240   63.3180 N   0  0  0  0  0  0  0  0  0  0  0  0
  134.0100  126.3822   63.8606 H   0  0  0  0  0  0  0  0  0  0  0  0
  134.5525  124.8673   63.0622 H   0  0  0  0  0  0  0  0  0  0  0  0
  132.8113  125.3087   63.0622 H   0  0  0  0  0  0  0  0  0  0  0  0
  132.7893  125.9058   67.7105 H   0  0  0  0  0  0  0  0  0  0  0  0
  133.1261  127.1418   66.4715 H   0  0  0  0  0  0  0  0  0  0  0  0
  127.9149  125.0209   70.0731 H   0  0  0  0  0  0  0  0  0  0  0  0
  127.9381  124.6133   72.5151 H   0  0  0  0  0  0  0  0  0  0  0  0
  129.9163  125.1073   75.9285 H   0  0  0  0  0  0  0  0  0  0  0  0
  129.6205  124.0901   74.4779 H   0  0  0  0  0  0  0  0  0  0  0  0
  130.9604  125.2865   74.4779 H   0  0  0  0  0  0  0  0  0  0  0  0
  130.2578  128.2078   73.0961 H   0  0  0  0  0  0  0  0  0  0  0  0
  130.2375  128.6151   70.6517 H   0  0  0  0  0  0  0  0  0  0  0  0
  127.4252  128.5280   68.7107 H   0  0  0  0  0  0  0  0  0  0  0  0
  128.5909  130.0039   64.7370 H   0  0  0  0  0  0  0  0  0  0  0  0
  126.9464  131.5891   63.7631 H   0  0  0  0  0  0  0  0  0  0  0  0
  122.9745  131.0451   63.2214 H   0  0  0  0  0  0  0  0  0  0  0  0
  123.8043  132.4996   62.5711 H   0  0  0  0  0  0  0  0  0  0  0  0
  124.6437  130.9114   62.5711 H   0  0  0  0  0  0  0  0  0  0  0  0
  123.8855  130.0271   66.3846 H   0  0  0  0  0  0  0  0  0  0  0  0
  125.5338  128.4411   67.3568 H   0  0  0  0  0  0  0  0  0  0  0  0
  1  2  1  0
  2  3  1  0
  3  4  2  0
  3  5  1  0
  5  6  1  0
  6  7  1  0
  7  8  2  0
  8  9  1  0
  9 10  1  0
 10 11  2  0
 11 12  1  0
 12 13  2  0
 13 14  1  0
 14 15  1  0
 13 16  1  0
 16 17  2  0
  9 18  2  0
 18 19  1  0
 19 20  1  0
 20 21  2  0
 21 22  1  0
 22 23  2  0
 23 24  1  0
 24 25  1  0
 23 26  1  0
 26 27  2  0
 19 28  2  0
 28 29  1  0
 29 30  3  0
 28  7  1  0
 17 10  1  0
 27 20  1  0
  1 31  1  0
  1 32  1  0
  1 33  1  0
  5 34  1  0
  5 35  1  0
 11 36  1  0
 12 37  1  0
 15 38  1  0
 15 39  1  0
 15 40  1  0
 16 41  1  0
 17 42  1  0
 18 43  1  0
 21 44  1  0
 22 45  1  0
 25 46  1  0
 25 47  1  0
 25 48  1  0
 26 49  1  0
 27 50  1  0
M  END
>  <Binding energies>  (1) 
[-8.39]

>  <Ligand effiencies>  (1) 
[-0.2796666666666667]

>  <Interactions>  (1) 
["V-A:HIS:456:CE1:4069, V-A:GLU:543:CG:4907, V-B:GLU:543:CD:9879, V-A:GLU:543:CD:4908, V-B:HIS:456:CE1:9041, V-B:LYS:547:CE:9921, H-B:LYS:547:NZ:9922, V-B:GLU:543:C:9873, V-A:ARG:545:CZ:4926, H-A:GLY:454:N:4049, H-A:TYR:484:OH:4347, V-A:GLY:454:CA:4048, V-A:ARG:545:CD:4923, V-A:ARG:545:CG:4922, H-B:GLY:454:N:9021, V-B:GLY:454:CA:9020, H-A:ILE:455:N:4054, V-B:ILE:369:CD1:8210"]

$$$$
1d_Grossjean_2025
     RDKit          3D

 36 37  0  0  0  0  0  0  0  0999 V2000
  129.6230  126.3830   57.4320 C   0  0  0  0  0  0  0  0  0  0  0  0
  128.6250  125.3470   56.9520 C   0  0  0  0  0  0  0  0  0  0  0  0
  128.7300  124.7610   55.6930 C   0  0  0  0  0  0  0  0  0  0  0  0
  127.7860  123.8030   55.3070 C   0  0  0  0  0  0  0  0  0  0  0  0
  127.9320  123.1630   53.9270 C   0  0  0  0  0  0  0  0  0  0  0  0
  126.7460  123.4590   56.2000 C   0  0  0  0  0  0  0  0  0  0  0  0
  125.7750  122.4250   55.8370 C   0  0  0  0  0  0  0  0  0  0  0  0
  125.0090  121.6060   55.5480 N   0  0  0  0  0  0  0  0  0  0  0  0
  126.7020  124.1230   57.4490 C   0  0  0  0  0  0  0  0  0  0  0  0
  125.4660  123.8160   58.6910 S   0  0  0  0  0  0  0  0  0  0  0  0
  126.1080  124.4550   60.2670 C   0  0  0  0  0  0  0  0  0  0  0  0
  127.0910  123.4850   60.9250 C   0  0  0  0  0  0  0  0  0  0  0  0
  126.8590  123.0760   62.0630 O   0  0  0  0  0  0  0  0  0  0  0  0
  128.1500  123.1310   60.1660 N   0  0  0  0  0  0  0  0  0  0  0  0
  129.2330  122.2850   60.4670 C   0  0  0  0  0  0  0  0  0  0  0  0
  130.5010  122.8620   60.3610 C   0  0  0  0  0  0  0  0  0  0  0  0
  131.6410  122.1140   60.6420 C   0  0  0  0  0  0  0  0  0  0  0  0
  131.5130  120.7850   61.0380 C   0  0  0  0  0  0  0  0  0  0  0  0
  130.2550  120.1990   61.1560 C   0  0  0  0  0  0  0  0  0  0  0  0
  129.1130  120.9450   60.8740 C   0  0  0  0  0  0  0  0  0  0  0  0
  127.6360  125.0350   57.8220 N   0  0  0  0  0  0  0  0  0  0  0  0
  129.6366  126.3971   58.5318 H   0  0  0  0  0  0  0  0  0  0  0  0
  130.6250  126.1286   57.0562 H   0  0  0  0  0  0  0  0  0  0  0  0
  129.3313  127.3748   57.0562 H   0  0  0  0  0  0  0  0  0  0  0  0
  129.5442  125.0475   55.0111 H   0  0  0  0  0  0  0  0  0  0  0  0
  128.1753  122.0964   54.0414 H   0  0  0  0  0  0  0  0  0  0  0  0
  126.9872  123.2662   53.3731 H   0  0  0  0  0  0  0  0  0  0  0  0
  128.7385  123.6657   53.3731 H   0  0  0  0  0  0  0  0  0  0  0  0
  126.6231  125.4087   60.0793 H   0  0  0  0  0  0  0  0  0  0  0  0
  125.2561  124.5884   60.9500 H   0  0  0  0  0  0  0  0  0  0  0  0
  128.1750  123.5150   59.2320 H   0  0  0  0  0  0  0  0  0  0  0  0
  130.5991  123.9136   60.0537 H   0  0  0  0  0  0  0  0  0  0  0  0
  132.6378  122.5704   60.5517 H   0  0  0  0  0  0  0  0  0  0  0  0
  132.4132  120.1930   61.2595 H   0  0  0  0  0  0  0  0  0  0  0  0
  130.1635  119.1491   61.4713 H   0  0  0  0  0  0  0  0  0  0  0  0
  128.1180  120.4858   60.9697 H   0  0  0  0  0  0  0  0  0  0  0  0
  1  2  1  0
  2  3  2  0
  3  4  1  0
  4  5  1  0
  4  6  2  0
  6  7  1  0
  7  8  3  0
  6  9  1  0
  9 10  1  0
 10 11  1  0
 11 12  1  0
 12 13  2  0
 12 14  1  0
 14 15  1  0
 15 16  2  0
 16 17  1  0
 17 18  2  0
 18 19  1  0
 19 20  2  0
  9 21  2  0
 21  2  1  0
 20 15  1  0
  1 22  1  0
  1 23  1  0
  1 24  1  0
  3 25  1  0
  5 26  1  0
  5 27  1  0
  5 28  1  0
 11 29  1  0
 11 30  1  0
 14 31  1  0
 16 32  1  0
 17 33  1  0
 18 34  1  0
 19 35  1  0
 20 36  1  0
M  END
>  <Binding energies>  (1) 
[-7.05]

>  <Ligand effiencies>  (1) 
[-0.32045454545454544]

>  <Interactions>  (1) 
["V-B:MET:535:CE:9806, V-B:LEU:363:CD1:8160, V-B:TYR:539:CD2:9845, V-B:PRO:540:CA:9854, V-B:TYR:539:CE2:9847, V-B:PRO:540:C:9852, V-B:ALA:541:CB:9863, V-B:PRO:540:N:9855, V-A:LEU:475:CD2:4258, V-B:TYR:539:CE1:9846, H-B:TYR:539:N:9841, H-B:ALA:541:N:9862, V-A:ILE:369:CG2:3236, V-B:TYR:539:CZ:9848, V-B:TYR:539:C:9838, V-B:PRO:540:CD:9858, V-B:TYR:539:CD1:9844, V-B:ALA:541:CA:9861, V-B:MET:535:CB:9803, V-B:MET:535:CG:9804"]

$$$$
1e_Grossjean_2025
     RDKit          3D

 38 39  0  0  0  0  0  0  0  0999 V2000
  129.8400  120.5320   60.7670 C   0  0  0  0  0  0  0  0  0  0  0  0
  129.2530  121.8120   61.3310 C   0  0  0  0  0  0  0  0  0  0  0  0
  129.8850  122.5160   62.3590 C   0  0  0  0  0  0  0  0  0  0  0  0
  129.2850  123.6850   62.8290 C   0  0  0  0  0  0  0  0  0  0  0  0
  128.0820  124.1170   62.2680 C   0  0  0  0  0  0  0  0  0  0  0  0
  127.5040  123.3680   61.2370 C   0  0  0  0  0  0  0  0  0  0  0  0
  126.2870  123.8460   60.7200 N   0  0  0  0  0  0  0  0  0  0  0  0
  125.0300  123.5520   61.1200 C   0  0  0  0  0  0  0  0  0  0  0  0
  124.7420  122.7760   62.0320 O   0  0  0  0  0  0  0  0  0  0  0  0
  123.9060  124.2320   60.3350 C   0  0  0  0  0  0  0  0  0  0  0  0
  124.0000  123.8670   58.5570 S   0  0  0  0  0  0  0  0  0  0  0  0
  125.4690  124.6280   57.8950 C   0  0  0  0  0  0  0  0  0  0  0  0
  125.7250  125.8530   58.4210 N   0  0  0  0  0  0  0  0  0  0  0  0
  126.8150  126.5320   57.9930 C   0  0  0  0  0  0  0  0  0  0  0  0
  127.0420  127.8880   58.6310 C   0  0  0  0  0  0  0  0  0  0  0  0
  127.6800  126.0290   57.0230 C   0  0  0  0  0  0  0  0  0  0  0  0
  127.4120  124.7790   56.4560 C   0  0  0  0  0  0  0  0  0  0  0  0
  128.3660  124.2580   55.3820 C   0  0  0  0  0  0  0  0  0  0  0  0
  126.2770  124.0530   56.8850 C   0  0  0  0  0  0  0  0  0  0  0  0
  125.9500  122.7700   56.2600 C   0  0  0  0  0  0  0  0  0  0  0  0
  125.6940  121.7550   55.7640 N   0  0  0  0  0  0  0  0  0  0  0  0
  128.0840  122.2200   60.7750 N   0  0  0  0  0  0  0  0  0  0  0  0
  130.1426  119.8721   61.5934 H   0  0  0  0  0  0  0  0  0  0  0  0
  129.0851  120.0235   60.1493 H   0  0  0  0  0  0  0  0  0  0  0  0
  130.7179  120.7722   60.1493 H   0  0  0  0  0  0  0  0  0  0  0  0
  130.8326  122.1575   62.7875 H   0  0  0  0  0  0  0  0  0  0  0  0
  129.7574  124.2628   63.6371 H   0  0  0  0  0  0  0  0  0  0  0  0
  127.5949  125.0339   62.6315 H   0  0  0  0  0  0  0  0  0  0  0  0
  126.3770  124.4460   59.9130 H   0  0  0  0  0  0  0  0  0  0  0  0
  122.9387  123.8767   60.7198 H   0  0  0  0  0  0  0  0  0  0  0  0
  124.0106  125.3193   60.4647 H   0  0  0  0  0  0  0  0  0  0  0  0
  127.0248  127.7855   59.7261 H   0  0  0  0  0  0  0  0  0  0  0  0
  128.0188  128.2830   58.3150 H   0  0  0  0  0  0  0  0  0  0  0  0
  126.2471  128.5796   58.3150 H   0  0  0  0  0  0  0  0  0  0  0  0
  128.5612  126.6070   56.7078 H   0  0  0  0  0  0  0  0  0  0  0  0
  129.2346  123.7836   55.8620 H   0  0  0  0  0  0  0  0  0  0  0  0
  127.8446  123.5194   54.7554 H   0  0  0  0  0  0  0  0  0  0  0  0
  128.7055  125.0959   54.7554 H   0  0  0  0  0  0  0  0  0  0  0  0
  1  2  1  0
  2  3  2  0
  3  4  1  0
  4  5  2  0
  5  6  1  0
  6  7  1  0
  7  8  1  0
  8  9  2  0
  8 10  1  0
 10 11  1  0
 11 12  1  0
 12 13  2  0
 13 14  1  0
 14 15  1  0
 14 16  2  0
 16 17  1  0
 17 18  1  0
 17 19  2  0
 19 20  1  0
 20 21  3  0
  6 22  2  0
 22  2  1  0
 19 12  1  0
  1 23  1  0
  1 24  1  0
  1 25  1  0
  3 26  1  0
  4 27  1  0
  5 28  1  0
  7 29  1  0
 10 30  1  0
 10 31  1  0
 15 32  1  0
 15 33  1  0
 15 34  1  0
 16 35  1  0
 18 36  1  0
 18 37  1  0
 18 38  1  0
M  END
>  <Binding energies>  (1) 
[-7.27]

>  <Ligand effiencies>  (1) 
[-0.3160869565217391]

>  <Interactions>  (1) 
["V-B:GLU:543:CD:9879, V-B:MET:535:CE:9806, V-B:ASP:366:CG:8184, V-B:LEU:363:CA:8156, V-B:ASN:362:C:8143, V-B:TYR:539:CD2:9845, V-B:PRO:540:CA:9854, V-B:TYR:539:CE2:9847, V-B:ALA:541:CB:9863, V-B:PRO:540:N:9855, V-B:TYR:539:CE1:9846, V-B:PRO:540:CB:9856, H-B:TYR:539:N:9841, H-B:ALA:541:N:9862, V-B:TYR:539:CZ:9848, H-B:TYR:531:OH:9766, V-B:ASN:362:CB:8147"]

$$$$
1f_Grossjean_2025
     RDKit          3D

 35 36  0  0  0  0  0  0  0  0999 V2000
  129.6450  120.8600   60.9210 C   0  0  0  0  0  0  0  0  0  0  0  0
  129.0850  122.2700   60.9060 C   0  0  0  0  0  0  0  0  0  0  0  0
  129.8690  123.3620   60.5410 C   0  0  0  0  0  0  0  0  0  0  0  0
  129.3020  124.6400   60.5570 C   0  0  0  0  0  0  0  0  0  0  0  0
  130.1860  125.8240   60.1710 C   0  0  0  0  0  0  0  0  0  0  0  0
  127.9480  124.7920   60.9350 C   0  0  0  0  0  0  0  0  0  0  0  0
  127.3520  126.1280   61.0130 C   0  0  0  0  0  0  0  0  0  0  0  0
  126.8830  127.1840   61.0730 N   0  0  0  0  0  0  0  0  0  0  0  0
  127.2190  123.6240   61.2630 C   0  0  0  0  0  0  0  0  0  0  0  0
  125.5090  123.6180   61.7610 S   0  0  0  0  0  0  0  0  0  0  0  0
  124.5480  124.5660   60.5330 C   0  0  0  0  0  0  0  0  0  0  0  0
  124.5970  124.0090   59.1020 C   0  0  0  0  0  0  0  0  0  0  0  0
  123.5610  123.6720   58.5270 O   0  0  0  0  0  0  0  0  0  0  0  0
  125.8390  123.9080   58.5820 N   0  0  0  0  0  0  0  0  0  0  0  0
  126.2480  123.4520   57.3140 C   0  0  0  0  0  0  0  0  0  0  0  0
  127.3050  123.9860   56.5530 C   0  0  0  0  0  0  0  0  0  0  0  0
  127.6070  123.4320   55.3060 C   0  0  0  0  0  0  0  0  0  0  0  0
  126.8460  122.3550   54.8510 C   0  0  0  0  0  0  0  0  0  0  0  0
  125.8260  121.8190   55.5670 N   0  0  0  0  0  0  0  0  0  0  0  0
  125.5440  122.3680   56.7770 C   0  0  0  0  0  0  0  0  0  0  0  0
  127.7860  122.3910   61.2670 N   0  0  0  0  0  0  0  0  0  0  0  0
  129.7766  120.5288   61.9617 H   0  0  0  0  0  0  0  0  0  0  0  0
  128.9475  120.1830   60.4061 H   0  0  0  0  0  0  0  0  0  0  0  0
  130.6169  120.8460   60.4061 H   0  0  0  0  0  0  0  0  0  0  0  0
  130.9189  123.2210   60.2445 H   0  0  0  0  0  0  0  0  0  0  0  0
  130.5551  126.3183   61.0817 H   0  0  0  0  0  0  0  0  0  0  0  0
  131.0395  125.4659   59.5766 H   0  0  0  0  0  0  0  0  0  0  0  0
  129.6002  126.5406   59.5766 H   0  0  0  0  0  0  0  0  0  0  0  0
  123.4973  124.5797   60.8583 H   0  0  0  0  0  0  0  0  0  0  0  0
  125.0042  125.5660   60.4901 H   0  0  0  0  0  0  0  0  0  0  0  0
  126.5980  124.1840   59.1880 H   0  0  0  0  0  0  0  0  0  0  0  0
  127.8899  124.8345   56.9376 H   0  0  0  0  0  0  0  0  0  0  0  0
  128.4279  123.8368   54.6958 H   0  0  0  0  0  0  0  0  0  0  0  0
  127.0835  121.9213   53.8684 H   0  0  0  0  0  0  0  0  0  0  0  0
  124.7197  121.9385   57.3653 H   0  0  0  0  0  0  0  0  0  0  0  0
  1  2  1  0
  2  3  2  0
  3  4  1  0
  4  5  1  0
  4  6  2  0
  6  7  1  0
  7  8  3  0
  6  9  1  0
  9 10  1  0
 10 11  1  0
 11 12  1  0
 12 13  2  0
 12 14  1  0
 14 15  1  0
 15 16  2  0
 16 17  1  0
 17 18  2  0
 18 19  1  0
 19 20  2  0
  9 21  2  0
 21  2  1  0
 20 15  1  0
  1 22  1  0
  1 23  1  0
  1 24  1  0
  3 25  1  0
  5 26  1  0
  5 27  1  0
  5 28  1  0
 11 29  1  0
 11 30  1  0
 14 31  1  0
 16 32  1  0
 17 33  1  0
 18 34  1  0
 20 35  1  0
M  END
>  <Binding energies>  (1) 
[-6.7]

>  <Ligand effiencies>  (1) 
[-0.30454545454545456]

>  <Interactions>  (1) 
["V-B:MET:535:CE:9806, V-B:ASP:366:CG:8184, V-B:LEU:363:CA:8156, V-B:LEU:363:CD1:8160, V-B:ASN:362:C:8143, V-B:TYR:539:CD2:9845, V-B:PRO:540:CA:9854, V-B:TYR:539:CE2:9847, V-B:ALA:541:CB:9863, V-B:PRO:540:N:9855, V-B:TYR:539:CE1:9846, V-B:PRO:540:CB:9856, H-B:TYR:539:N:9841, H-B:ALA:541:N:9862, V-B:TYR:539:CZ:9848, V-B:TYR:539:C:9838, V-B:PRO:540:CD:9858, V-B:ILE:538:CA:9831, V-B:TYR:539:CD1:9844, V-B:ILE:538:CD1:9836, H-B:LEU:363:N:8157"]

$$$$
1g_Grossjean_2025
     RDKit          3D

 39 40  0  0  0  0  0  0  0  0999 V2000
  126.8220  127.9810   58.5560 C   0  0  0  0  0  0  0  0  0  0  0  0
  126.6570  126.5970   57.9580 C   0  0  0  0  0  0  0  0  0  0  0  0
  127.5760  126.0830   57.0450 C   0  0  0  0  0  0  0  0  0  0  0  0
  127.3640  124.8060   56.5140 C   0  0  0  0  0  0  0  0  0  0  0  0
  128.3760  124.2690   55.5030 C   0  0  0  0  0  0  0  0  0  0  0  0
  126.2310  124.0670   56.9210 C   0  0  0  0  0  0  0  0  0  0  0  0
  125.9600  122.7490   56.3400 C   0  0  0  0  0  0  0  0  0  0  0  0
  125.7480  121.7100   55.8770 N   0  0  0  0  0  0  0  0  0  0  0  0
  125.3650  124.6570   57.8720 C   0  0  0  0  0  0  0  0  0  0  0  0
  123.9010  123.8660   58.5010 S   0  0  0  0  0  0  0  0  0  0  0  0
  123.8100  124.2350   60.2790 C   0  0  0  0  0  0  0  0  0  0  0  0
  125.1500  124.0110   60.9800 C   0  0  0  0  0  0  0  0  0  0  0  0
  125.3820  122.9370   61.5390 O   0  0  0  0  0  0  0  0  0  0  0  0
  126.0180  125.0360   60.9470 N   0  0  0  0  0  0  0  0  0  0  0  0
  127.3720  125.0200   61.4990 C   0  0  0  0  0  0  0  0  0  0  0  0
  128.1670  123.7580   61.1770 C   0  0  0  0  0  0  0  0  0  0  0  0
  128.0230  123.1430   59.9290 C   0  0  0  0  0  0  0  0  0  0  0  0
  128.7490  121.9920   59.6340 C   0  0  0  0  0  0  0  0  0  0  0  0
  129.6200  121.4630   60.5850 C   0  0  0  0  0  0  0  0  0  0  0  0
  129.7710  122.0730   61.8270 C   0  0  0  0  0  0  0  0  0  0  0  0
  129.0450  123.2240   62.1240 C   0  0  0  0  0  0  0  0  0  0  0  0
  125.5660  125.9060   58.3640 N   0  0  0  0  0  0  0  0  0  0  0  0
  126.8135  127.9096   59.6536 H   0  0  0  0  0  0  0  0  0  0  0  0
  127.7779  128.4123   58.2240 H   0  0  0  0  0  0  0  0  0  0  0  0
  125.9943  128.6249   58.2240 H   0  0  0  0  0  0  0  0  0  0  0  0
  128.4552  126.6727   56.7462 H   0  0  0  0  0  0  0  0  0  0  0  0
  129.2250  123.8185   56.0380 H   0  0  0  0  0  0  0  0  0  0  0  0
  127.8948  123.5076   54.8716 H   0  0  0  0  0  0  0  0  0  0  0  0
  128.7368  125.0943   54.8716 H   0  0  0  0  0  0  0  0  0  0  0  0
  123.5127  125.2861   60.4087 H   0  0  0  0  0  0  0  0  0  0  0  0
  123.0729  123.5543   60.7299 H   0  0  0  0  0  0  0  0  0  0  0  0
  125.7530  125.8740   60.4480 H   0  0  0  0  0  0  0  0  0  0  0  0
  127.9191  125.8843   61.0944 H   0  0  0  0  0  0  0  0  0  0  0  0
  127.2662  125.0548   62.5934 H   0  0  0  0  0  0  0  0  0  0  0  0
  127.3371  123.5681   59.1815 H   0  0  0  0  0  0  0  0  0  0  0  0
  128.6357  121.5027   58.6554 H   0  0  0  0  0  0  0  0  0  0  0  0
  130.1939  120.5541   60.3516 H   0  0  0  0  0  0  0  0  0  0  0  0
  130.4608  121.6478   62.5709 H   0  0  0  0  0  0  0  0  0  0  0  0
  129.1626  123.7120   63.1028 H   0  0  0  0  0  0  0  0  0  0  0  0
  1  2  1  0
  2  3  2  0
  3  4  1  0
  4  5  1  0
  4  6  2  0
  6  7  1  0
  7  8  3  0
  6  9  1  0
  9 10  1  0
 10 11  1  0
 11 12  1  0
 12 13  2  0
 12 14  1  0
 14 15  1  0
 15 16  1  0
 16 17  2  0
 17 18  1  0
 18 19  2  0
 19 20  1  0
 20 21  2  0
  9 22  2  0
 22  2  1  0
 21 16  1  0
  1 23  1  0
  1 24  1  0
  1 25  1  0
  3 26  1  0
  5 27  1  0
  5 28  1  0
  5 29  1  0
 11 30  1  0
 11 31  1  0
 14 32  1  0
 15 33  1  0
 15 34  1  0
 17 35  1  0
 18 36  1  0
 19 37  1  0
 20 38  1  0
 21 39  1  0
M  END
>  <Binding energies>  (1) 
[-7.37]

>  <Ligand effiencies>  (1) 
[-0.3204347826086957]

>  <Interactions>  (1) 
["V-B:MET:535:CE:9806, V-B:ASP:366:CG:8184, V-B:LEU:363:CA:8156, V-B:ASN:362:C:8143, V-B:TYR:539:CD2:9845, V-B:PRO:540:CA:9854, V-B:TYR:539:CE2:9847, V-B:ALA:541:CB:9863, V-B:PRO:540:N:9855, V-B:TYR:539:CE1:9846, V-B:PRO:540:CB:9856, H-B:TYR:539:N:9841, H-B:ALA:541:N:9862, V-B:TYR:539:CZ:9848, V-B:TYR:539:C:9838, V-B:PRO:540:CD:9858, H-B:TYR:531:OH:9766, V-B:ASN:362:CB:8147, H-B:ASP:366:OD2:8186, H-B:LEU:363:N:8157"]

$$$$
1h_Grossjean_2025
     RDKit          3D

 51 52  0  0  0  0  0  0  0  0999 V2000
  129.9420  121.0610   60.7430 C   0  0  0  0  0  0  0  0  0  0  0  0
  130.6830  122.0830   60.0860 O   0  0  0  0  0  0  0  0  0  0  0  0
  130.1780  123.3700   60.0490 C   0  0  0  0  0  0  0  0  0  0  0  0
  129.0580  123.7940   60.7810 C   0  0  0  0  0  0  0  0  0  0  0  0
  128.5960  125.1070   60.6840 C   0  0  0  0  0  0  0  0  0  0  0  0
  127.3910  125.5610   61.5020 C   0  0  0  0  0  0  0  0  0  0  0  0
  126.1040  125.3280   60.8460 N   0  0  0  0  0  0  0  0  0  0  0  0
  125.4490  124.1530   60.8150 C   0  0  0  0  0  0  0  0  0  0  0  0
  125.8540  123.1310   61.3670 O   0  0  0  0  0  0  0  0  0  0  0  0
  124.1350  124.1260   60.0340 C   0  0  0  0  0  0  0  0  0  0  0  0
  124.3940  123.7220   58.2800 S   0  0  0  0  0  0  0  0  0  0  0  0
  125.7630  124.7000   57.6820 C   0  0  0  0  0  0  0  0  0  0  0  0
  125.8550  125.9570   58.1900 N   0  0  0  0  0  0  0  0  0  0  0  0
  126.8730  126.7510   57.7830 C   0  0  0  0  0  0  0  0  0  0  0  0
  126.9110  128.1380   58.3970 C   0  0  0  0  0  0  0  0  0  0  0  0
  127.8300  126.3340   56.8610 C   0  0  0  0  0  0  0  0  0  0  0  0
  127.7440  125.0430   56.3290 C   0  0  0  0  0  0  0  0  0  0  0  0
  128.8050  124.6050   55.3220 C   0  0  0  0  0  0  0  0  0  0  0  0
  126.6900  124.1960   56.7410 C   0  0  0  0  0  0  0  0  0  0  0  0
  126.5740  122.8400   56.1990 C   0  0  0  0  0  0  0  0  0  0  0  0
  126.4820  121.7680   55.7700 N   0  0  0  0  0  0  0  0  0  0  0  0
  129.2770  126.0190   59.8770 C   0  0  0  0  0  0  0  0  0  0  0  0
  130.4040  125.6240   59.1380 C   0  0  0  0  0  0  0  0  0  0  0  0
  131.1260  126.4730   58.3190 O   0  0  0  0  0  0  0  0  0  0  0  0
  131.4000  127.8000   58.7540 C   0  0  0  0  0  0  0  0  0  0  0  0
  130.8380  124.2940   59.2250 C   0  0  0  0  0  0  0  0  0  0  0  0
  131.9420  123.8940   58.5120 O   0  0  0  0  0  0  0  0  0  0  0  0
  133.1610  124.4670   58.9650 C   0  0  0  0  0  0  0  0  0  0  0  0
  130.0321  121.1853   61.8322 H   0  0  0  0  0  0  0  0  0  0  0  0
  128.8834  121.1311   60.4523 H   0  0  0  0  0  0  0  0  0  0  0  0
  130.3377  120.0767   60.4523 H   0  0  0  0  0  0  0  0  0  0  0  0
  128.5381  123.0824   61.4393 H   0  0  0  0  0  0  0  0  0  0  0  0
  127.3961  125.0155   62.4572 H   0  0  0  0  0  0  0  0  0  0  0  0
  127.4881  126.6486   61.6346 H   0  0  0  0  0  0  0  0  0  0  0  0
  125.7070  126.1150   60.3540 H   0  0  0  0  0  0  0  0  0  0  0  0
  123.4728  123.3687   60.4789 H   0  0  0  0  0  0  0  0  0  0  0  0
  123.6860  125.1287   60.0893 H   0  0  0  0  0  0  0  0  0  0  0  0
  126.9087  128.0537   59.4938 H   0  0  0  0  0  0  0  0  0  0  0  0
  127.8237  128.6583   58.0712 H   0  0  0  0  0  0  0  0  0  0  0  0
  126.0281  128.7075   58.0712 H   0  0  0  0  0  0  0  0  0  0  0  0
  128.6420  127.0102   56.5554 H   0  0  0  0  0  0  0  0  0  0  0  0
  129.6920  124.2388   55.8598 H   0  0  0  0  0  0  0  0  0  0  0  0
  128.4010  123.8001   54.6904 H   0  0  0  0  0  0  0  0  0  0  0  0
  129.0864  125.4605   54.6904 H   0  0  0  0  0  0  0  0  0  0  0  0
  128.9269  127.0602   59.8189 H   0  0  0  0  0  0  0  0  0  0  0  0
  131.4065  127.8314   59.8535 H   0  0  0  0  0  0  0  0  0  0  0  0
  132.3822  128.1155   58.3724 H   0  0  0  0  0  0  0  0  0  0  0  0
  130.6231  128.4788   58.3724 H   0  0  0  0  0  0  0  0  0  0  0  0
  133.1763  124.4742   60.0649 H   0  0  0  0  0  0  0  0  0  0  0  0
  134.0072  123.8723   58.5904 H   0  0  0  0  0  0  0  0  0  0  0  0
  133.2430  125.4980   58.5904 H   0  0  0  0  0  0  0  0  0  0  0  0
  1  2  1  0
  2  3  1  0
  3  4  2  0
  4  5  1  0
  5  6  1  0
  6  7  1  0
  7  8  1  0
  8  9  2  0
  8 10  1  0
 10 11  1  0
 11 12  1  0
 12 13  2  0
 13 14  1  0
 14 15  1  0
 14 16  2  0
 16 17  1  0
 17 18  1  0
 17 19  2  0
 19 20  1  0
 20 21  3  0
  5 22  2  0
 22 23  1  0
 23 24  1  0
 24 25  1  0
 23 26  2  0
 26 27  1  0
 27 28  1  0
 26  3  1  0
 19 12  1  0
  1 29  1  0
  1 30  1  0
  1 31  1  0
  4 32  1  0
  6 33  1  0
  6 34  1  0
  7 35  1  0
 10 36  1  0
 10 37  1  0
 15 38  1  0
 15 39  1  0
 15 40  1  0
 16 41  1  0
 18 42  1  0
 18 43  1  0
 18 44  1  0
 22 45  1  0
 25 46  1  0
 25 47  1  0
 25 48  1  0
 28 49  1  0
 28 50  1  0
 28 51  1  0
M  END
>  <Binding energies>  (1) 
[-6.36]

>  <Ligand effiencies>  (1) 
[-0.2193103448275862]

>  <Interactions>  (1) 
["V-B:LEU:363:CA:8156, V-B:ASN:362:C:8143, V-B:TYR:539:CD2:9845, V-B:PRO:540:CA:9854, V-B:TYR:539:CE2:9847, V-B:ALA:541:CB:9863, V-B:TYR:539:CE1:9846, V-B:PRO:540:CB:9856, H-B:TYR:539:N:9841, H-B:ALA:541:N:9862, V-A:ILE:369:CG2:3236, V-B:TYR:539:CZ:9848, V-A:ILE:369:CB:3235, V-A:ASP:366:CB:3211, H-A:TYR:531:OH:4795, H-B:TYR:531:OH:9766, H-B:TYR:539:OH:9849, V-B:TYR:539:CD1:9844, V-A:ASP:366:CA:3209, V-A:ASP:366:CG:3212, V-A:ASP:366:C:3207, H-B:ASP:366:OD2:8186"]

$$$$
1i_Grossjean_2025
     RDKit          3D

 32 33  0  0  0  0  0  0  0  0999 V2000
  132.7000  125.2960   57.9370 C   0  0  0  0  0  0  0  0  0  0  0  0
  132.6470  124.6320   59.3000 C   0  0  0  0  0  0  0  0  0  0  0  0
  133.5470  124.9660   60.3090 C   0  0  0  0  0  0  0  0  0  0  0  0
  133.4440  124.3280   61.5500 C   0  0  0  0  0  0  0  0  0  0  0  0
  134.4320  124.7230   62.6460 C   0  0  0  0  0  0  0  0  0  0  0  0
  132.4350  123.3570   61.7470 C   0  0  0  0  0  0  0  0  0  0  0  0
  132.2780  122.7130   63.0530 C   0  0  0  0  0  0  0  0  0  0  0  0
  132.1550  122.2070   64.0870 N   0  0  0  0  0  0  0  0  0  0  0  0
  131.5810  123.0640   60.6570 C   0  0  0  0  0  0  0  0  0  0  0  0
  130.2610  121.8720   60.7280 S   0  0  0  0  0  0  0  0  0  0  0  0
  128.7820  122.7260   61.3520 C   0  0  0  0  0  0  0  0  0  0  0  0
  127.6320  122.6950   60.3440 C   0  0  0  0  0  0  0  0  0  0  0  0
  126.4710  122.7560   60.7510 O   0  0  0  0  0  0  0  0  0  0  0  0
  127.9970  122.6050   59.0460 N   0  0  0  0  0  0  0  0  0  0  0  0
  127.1620  122.5550   57.9390 C   0  0  0  0  0  0  0  0  0  0  0  0
  126.1730  123.5050   57.6890 C   0  0  0  0  0  0  0  0  0  0  0  0
  125.5780  123.1020   56.5150 C   0  0  0  0  0  0  0  0  0  0  0  0
  126.1770  121.9670   56.0830 O   0  0  0  0  0  0  0  0  0  0  0  0
  127.1780  121.6290   56.9950 N   0  0  0  0  0  0  0  0  0  0  0  0
  131.6760  123.7030   59.4640 N   0  0  0  0  0  0  0  0  0  0  0  0
  132.7869  126.3853   58.0629 H   0  0  0  0  0  0  0  0  0  0  0  0
  133.5710  124.9206   57.3799 H   0  0  0  0  0  0  0  0  0  0  0  0
  131.7804  125.0635   57.3799 H   0  0  0  0  0  0  0  0  0  0  0  0
  134.3277  125.7206   60.1328 H   0  0  0  0  0  0  0  0  0  0  0  0
  133.9782  124.5416   63.6315 H   0  0  0  0  0  0  0  0  0  0  0  0
  135.3480  124.1220   62.5479 H   0  0  0  0  0  0  0  0  0  0  0  0
  134.6812  125.7899   62.5479 H   0  0  0  0  0  0  0  0  0  0  0  0
  128.4538  122.2349   62.2799 H   0  0  0  0  0  0  0  0  0  0  0  0
  129.0482  123.7783   61.5303 H   0  0  0  0  0  0  0  0  0  0  0  0
  128.9850  122.5320   58.8470 H   0  0  0  0  0  0  0  0  0  0  0  0
  125.9223  124.3860   58.2981 H   0  0  0  0  0  0  0  0  0  0  0  0
  124.7492  123.6188   56.0091 H   0  0  0  0  0  0  0  0  0  0  0  0
  1  2  1  0
  2  3  2  0
  3  4  1  0
  4  5  1  0
  4  6  2  0
  6  7  1  0
  7  8  3  0
  6  9  1  0
  9 10  1  0
 10 11  1  0
 11 12  1  0
 12 13  2  0
 12 14  1  0
 14 15  1  0
 15 16  1  0
 16 17  2  0
 17 18  1  0
 18 19  1  0
  9 20  2  0
 20  2  1  0
 19 15  2  0
  1 21  1  0
  1 22  1  0
  1 23  1  0
  3 24  1  0
  5 25  1  0
  5 26  1  0
  5 27  1  0
 11 28  1  0
 11 29  1  0
 14 30  1  0
 16 31  1  0
 17 32  1  0
M  END
>  <Binding energies>  (1) 
[-6.95]

>  <Ligand effiencies>  (1) 
[-0.33095238095238094]

>  <Interactions>  (1) 
["V-B:MET:535:CE:9806, V-B:LEU:363:CD1:8160, V-B:TYR:539:CD2:9845, V-B:PRO:540:CA:9854, V-B:TYR:539:CE2:9847, V-B:PRO:540:C:9852, V-B:ALA:541:CB:9863, V-B:PRO:540:N:9855, V-A:LEU:475:CD2:4258, V-B:PRO:540:CB:9856, H-B:TYR:539:N:9841, H-B:ALA:541:N:9862, V-A:ILE:369:CG2:3236, V-A:ASP:366:CB:3211, V-B:TYR:539:C:9838, H-B:TYR:539:OH:9849, V-A:ASP:366:CA:3209, V-A:ASP:366:CG:3212, H-A:TYR:484:OH:4347, V-A:ASP:366:C:3207, V-A:ILE:369:CD1:3238, H-B:TYR:539:O:9839, V-A:GLY:453:C:4041, V-A:GLY:453:CA:4043"]

$$$$
1j_Grossjean_2025
     RDKit          3D

 32 33  0  0  0  0  0  0  0  0999 V2000
  127.1520  127.9560   58.3920 C   0  0  0  0  0  0  0  0  0  0  0  0
  126.8760  126.5970   57.7760 C   0  0  0  0  0  0  0  0  0  0  0  0
  127.7190  126.0490   56.8120 C   0  0  0  0  0  0  0  0  0  0  0  0
  127.4230  124.7860   56.2900 C   0  0  0  0  0  0  0  0  0  0  0  0
  128.3720  124.1980   55.2460 C   0  0  0  0  0  0  0  0  0  0  0  0
  126.2730  124.1020   56.7450 C   0  0  0  0  0  0  0  0  0  0  0  0
  125.9730  122.7560   56.2510 C   0  0  0  0  0  0  0  0  0  0  0  0
  125.7390  121.6920   55.8590 N   0  0  0  0  0  0  0  0  0  0  0  0
  125.4600  124.7460   57.7080 C   0  0  0  0  0  0  0  0  0  0  0  0
  123.9780  124.0340   58.3890 S   0  0  0  0  0  0  0  0  0  0  0  0
  124.0340  124.2600   60.1910 C   0  0  0  0  0  0  0  0  0  0  0  0
  125.1950  123.4960   60.8300 C   0  0  0  0  0  0  0  0  0  0  0  0
  124.9790  122.7700   61.8020 O   0  0  0  0  0  0  0  0  0  0  0  0
  126.4030  123.6840   60.2550 N   0  0  0  0  0  0  0  0  0  0  0  0
  127.6050  123.1140   60.6490 C   0  0  0  0  0  0  0  0  0  0  0  0
  127.9780  122.7750   61.8640 N   0  0  0  0  0  0  0  0  0  0  0  0
  129.1900  122.2570   61.8710 C   0  0  0  0  0  0  0  0  0  0  0  0
  129.8280  122.1650   60.6380 C   0  0  0  0  0  0  0  0  0  0  0  0
  128.7730  122.7930   59.4080 S   0  0  0  0  0  0  0  0  0  0  0  0
  125.7680  125.9620   58.2240 N   0  0  0  0  0  0  0  0  0  0  0  0
  127.1349  127.8718   59.4886 H   0  0  0  0  0  0  0  0  0  0  0  0
  128.1408  128.3119   58.0670 H   0  0  0  0  0  0  0  0  0  0  0  0
  126.3804  128.6694   58.0670 H   0  0  0  0  0  0  0  0  0  0  0  0
  128.6049  126.6019   56.4663 H   0  0  0  0  0  0  0  0  0  0  0  0
  129.2018  123.6839   55.7530 H   0  0  0  0  0  0  0  0  0  0  0  0
  127.8255  123.4800   54.6168 H   0  0  0  0  0  0  0  0  0  0  0  0
  128.7716  125.0070   54.6168 H   0  0  0  0  0  0  0  0  0  0  0  0
  124.1506  125.3315   60.4108 H   0  0  0  0  0  0  0  0  0  0  0  0
  123.0968  123.8665   60.6114 H   0  0  0  0  0  0  0  0  0  0  0  0
  126.4550  124.3250   59.4770 H   0  0  0  0  0  0  0  0  0  0  0  0
  129.6704  121.9164   62.8001 H   0  0  0  0  0  0  0  0  0  0  0  0
  130.8368  121.7603   60.4691 H   0  0  0  0  0  0  0  0  0  0  0  0
  1  2  1  0
  2  3  2  0
  3  4  1  0
  4  5  1  0
  4  6  2  0
  6  7  1  0
  7  8  3  0
  6  9  1  0
  9 10  1  0
 10 11  1  0
 11 12  1  0
 12 13  2  0
 12 14  1  0
 14 15  1  0
 15 16  2  0
 16 17  1  0
 17 18  2  0
 18 19  1  0
  9 20  2  0
 20  2  1  0
 19 15  1  0
  1 21  1  0
  1 22  1  0
  1 23  1  0
  3 24  1  0
  5 25  1  0
  5 26  1  0
  5 27  1  0
 11 28  1  0
 11 29  1  0
 14 30  1  0
 17 31  1  0
 18 32  1  0
M  END
>  <Binding energies>  (1) 
[-6.66]

>  <Ligand effiencies>  (1) 
[-0.31714285714285717]

>  <Interactions>  (1) 
["V-B:MET:535:CE:9806, V-B:ASP:366:CG:8184, V-B:LEU:363:CA:8156, V-B:ASN:362:C:8143, V-B:TYR:539:CD2:9845, V-B:PRO:540:CA:9854, V-B:TYR:539:CE2:9847, V-B:PRO:540:C:9852, V-B:ALA:541:CB:9863, V-B:PRO:540:N:9855, V-B:TYR:539:CE1:9846, V-B:PRO:540:CB:9856, H-B:TYR:539:N:9841, H-B:ALA:541:N:9862, V-B:TYR:539:CZ:9848, H-B:TYR:531:OH:9766, V-B:ASN:362:CB:8147"]

$$$$
1k_Grossjean_2025
     RDKit          3D

 50 50  0  0  0  0  0  0  0  0999 V2000
  126.8670  122.4800   54.9690 C   0  0  0  0  0  0  0  0  0  0  0  0
  126.1150  121.6620   55.8510 O   0  0  0  0  0  0  0  0  0  0  0  0
  125.1670  122.3850   56.6240 C   0  0  0  0  0  0  0  0  0  0  0  0
  125.8890  123.1240   57.7590 C   0  0  0  0  0  0  0  0  0  0  0  0
  124.9630  123.9550   58.4470 O   0  0  0  0  0  0  0  0  0  0  0  0
  125.1060  123.9230   59.8610 C   0  0  0  0  0  0  0  0  0  0  0  0
  126.5950  123.9750   60.2230 C   0  0  0  0  0  0  0  0  0  0  0  0
  126.8580  123.0630   61.2820 O   0  0  0  0  0  0  0  0  0  0  0  0
  128.2430  122.8440   61.5170 C   0  0  0  0  0  0  0  0  0  0  0  0
  128.7160  121.6180   60.7130 C   0  0  0  0  0  0  0  0  0  0  0  0
  130.1700  121.4680   60.6570 N   0  0  0  0  0  0  0  0  0  0  0  0
  130.8600  120.4150   61.1310 C   0  0  0  0  0  0  0  0  0  0  0  0
  130.3210  119.4450   61.6680 O   0  0  0  0  0  0  0  0  0  0  0  0
  132.3860  120.4940   60.9660 C   0  0  0  0  0  0  0  0  0  0  0  0
  133.2120  121.8340   61.8910 S   0  0  0  0  0  0  0  0  0  0  0  0
  132.4150  123.3880   61.5110 C   0  0  0  0  0  0  0  0  0  0  0  0
  131.9150  123.5060   60.2530 N   0  0  0  0  0  0  0  0  0  0  0  0
  131.3070  124.6610   59.8970 C   0  0  0  0  0  0  0  0  0  0  0  0
  130.7840  124.7190   58.4750 C   0  0  0  0  0  0  0  0  0  0  0  0
  131.1640  125.7360   60.7720 C   0  0  0  0  0  0  0  0  0  0  0  0
  131.6670  125.6240   62.0720 C   0  0  0  0  0  0  0  0  0  0  0  0
  131.5000  126.8140   63.0150 C   0  0  0  0  0  0  0  0  0  0  0  0
  132.3100  124.4280   62.4630 C   0  0  0  0  0  0  0  0  0  0  0  0
  132.8500  124.2850   63.8180 C   0  0  0  0  0  0  0  0  0  0  0  0
  133.2770  124.1730   64.8880 N   0  0  0  0  0  0  0  0  0  0  0  0
  127.4977  123.1661   55.5533 H   0  0  0  0  0  0  0  0  0  0  0  0
  127.5044  121.8462   54.3349 H   0  0  0  0  0  0  0  0  0  0  0  0
  126.1820  123.0619   54.3349 H   0  0  0  0  0  0  0  0  0  0  0  0
  124.6502  123.1139   55.9824 H   0  0  0  0  0  0  0  0  0  0  0  0
  124.4324  121.6862   57.0506 H   0  0  0  0  0  0  0  0  0  0  0  0
  126.3160  122.3918   58.4601 H   0  0  0  0  0  0  0  0  0  0  0  0
  126.6957  123.7428   57.3391 H   0  0  0  0  0  0  0  0  0  0  0  0
  124.5906  124.7891   60.3018 H   0  0  0  0  0  0  0  0  0  0  0  0
  124.6642  122.9956   60.2543 H   0  0  0  0  0  0  0  0  0  0  0  0
  127.1958  123.6991   59.3439 H   0  0  0  0  0  0  0  0  0  0  0  0
  126.8590  124.9938   60.5427 H   0  0  0  0  0  0  0  0  0  0  0  0
  128.8125  123.7306   61.2015 H   0  0  0  0  0  0  0  0  0  0  0  0
  128.4075  122.6632   62.5895 H   0  0  0  0  0  0  0  0  0  0  0  0
  128.2928  120.7153   61.1778 H   0  0  0  0  0  0  0  0  0  0  0  0
  128.3710  121.7634   59.6787 H   0  0  0  0  0  0  0  0  0  0  0  0
  130.6810  122.2270   60.2300 H   0  0  0  0  0  0  0  0  0  0  0  0
  132.8126  119.5376   61.3027 H   0  0  0  0  0  0  0  0  0  0  0  0
  132.5625  120.7101   59.9020 H   0  0  0  0  0  0  0  0  0  0  0  0
  129.6908  124.8402   58.4910 H   0  0  0  0  0  0  0  0  0  0  0  0
  131.2399  125.5721   57.9512 H   0  0  0  0  0  0  0  0  0  0  0  0
  131.0419  123.7868   57.9512 H   0  0  0  0  0  0  0  0  0  0  0  0
  130.6629  126.6590   60.4450 H   0  0  0  0  0  0  0  0  0  0  0  0
  131.5489  126.4656   64.0572 H   0  0  0  0  0  0  0  0  0  0  0  0
  132.3049  127.5415   62.8334 H   0  0  0  0  0  0  0  0  0  0  0  0
  130.5260  127.2919   62.8334 H   0  0  0  0  0  0  0  0  0  0  0  0
  1  2  1  0
  2  3  1  0
  3  4  1  0
  4  5  1  0
  5  6  1  0
  6  7  1  0
  7  8  1  0
  8  9  1  0
  9 10  1  0
 10 11  1  0
 11 12  1  0
 12 13  2  0
 12 14  1  0
 14 15  1  0
 15 16  1  0
 16 17  2  0
 17 18  1  0
 18 19  1  0
 18 20  2  0
 20 21  1  0
 21 22  1  0
 21 23  2  0
 23 24  1  0
 24 25  3  0
 23 16  1  0
  1 26  1  0
  1 27  1  0
  1 28  1  0
  3 29  1  0
  3 30  1  0
  4 31  1  0
  4 32  1  0
  6 33  1  0
  6 34  1  0
  7 35  1  0
  7 36  1  0
  9 37  1  0
  9 38  1  0
 10 39  1  0
 10 40  1  0
 11 41  1  0
 14 42  1  0
 14 43  1  0
 19 44  1  0
 19 45  1  0
 19 46  1  0
 20 47  1  0
 22 48  1  0
 22 49  1  0
 22 50  1  0
M  END
>  <Binding energies>  (1) 
[-5.69]

>  <Ligand effiencies>  (1) 
[-0.21884615384615386]

>  <Interactions>  (1) 
["V-B:MET:535:CE:9806, V-B:LEU:363:CD1:8160, V-A:TRP:381:CH2:3371, V-B:TYR:539:CD2:9845, V-B:PRO:540:CA:9854, V-B:TYR:539:CE2:9847, V-B:PRO:540:C:9852, V-B:ALA:541:CB:9863, V-B:PRO:540:N:9855, V-A:LEU:475:CD2:4258, V-B:TYR:539:CE1:9846, V-B:PRO:540:CB:9856, H-B:TYR:539:N:9841, H-B:ALA:541:N:9862, V-A:ILE:369:CG2:3236, V-B:TYR:539:CZ:9848, V-B:TYR:539:C:9838, V-B:PRO:540:CD:9858, V-A:ARG:545:CZ:4926, V-B:ILE:538:CA:9831, V-B:PRO:540:CG:9857, V-B:TYR:539:CD1:9844, H-A:GLY:454:N:4049, H-A:TYR:484:OH:4347, V-B:ALA:541:CA:9861"]

$$$$
1l_Grossjean_2025
     RDKit          3D

 30 30  0  0  0  0  0  0  0  0999 V2000
  128.1800  122.6980   60.4020 C   0  0  0  0  0  0  0  0  0  0  0  0
  127.3020  123.1240   61.4340 O   0  0  0  0  0  0  0  0  0  0  0  0
  126.2490  123.8570   60.8880 N   0  0  0  0  0  0  0  0  0  0  0  0
  124.9870  123.5590   61.2540 C   0  0  0  0  0  0  0  0  0  0  0  0
  124.7060  122.8310   62.2100 O   0  0  0  0  0  0  0  0  0  0  0  0
  123.8900  124.2070   60.3970 C   0  0  0  0  0  0  0  0  0  0  0  0
  124.0180  123.8850   58.6050 S   0  0  0  0  0  0  0  0  0  0  0  0
  125.5090  124.6630   58.0060 C   0  0  0  0  0  0  0  0  0  0  0  0
  125.8410  125.8380   58.6010 N   0  0  0  0  0  0  0  0  0  0  0  0
  126.9600  126.4830   58.1930 C   0  0  0  0  0  0  0  0  0  0  0  0
  127.2640  127.7880   58.9040 C   0  0  0  0  0  0  0  0  0  0  0  0
  127.7880  125.9900   57.1880 C   0  0  0  0  0  0  0  0  0  0  0  0
  127.4580  124.7790   56.5700 C   0  0  0  0  0  0  0  0  0  0  0  0
  128.3810  124.2560   55.4700 C   0  0  0  0  0  0  0  0  0  0  0  0
  126.2940  124.0910   56.9790 C   0  0  0  0  0  0  0  0  0  0  0  0
  125.9230  122.8200   56.3470 C   0  0  0  0  0  0  0  0  0  0  0  0
  125.6320  121.8180   55.8490 N   0  0  0  0  0  0  0  0  0  0  0  0
  129.0846  122.2591   60.8482 H   0  0  0  0  0  0  0  0  0  0  0  0
  127.6756  121.9444   59.7793 H   0  0  0  0  0  0  0  0  0  0  0  0
  128.4597  123.5605   59.7793 H   0  0  0  0  0  0  0  0  0  0  0  0
  126.4930  124.2750   60.0010 H   0  0  0  0  0  0  0  0  0  0  0  0
  122.9176  123.8267   60.7432 H   0  0  0  0  0  0  0  0  0  0  0  0
  124.0045  125.2938   60.5224 H   0  0  0  0  0  0  0  0  0  0  0  0
  127.2272  127.6300   59.9920 H   0  0  0  0  0  0  0  0  0  0  0  0
  128.2674  128.1364   58.6178 H   0  0  0  0  0  0  0  0  0  0  0  0
  126.5179  128.5439   58.6178 H   0  0  0  0  0  0  0  0  0  0  0  0
  128.6882  126.5444   56.8844 H   0  0  0  0  0  0  0  0  0  0  0  0
  129.2519  123.7625   55.9260 H   0  0  0  0  0  0  0  0  0  0  0  0
  127.8349  123.5331   54.8461 H   0  0  0  0  0  0  0  0  0  0  0  0
  128.7205  125.0959   54.8461 H   0  0  0  0  0  0  0  0  0  0  0  0
  1  2  1  0
  2  3  1  0
  3  4  1  0
  4  5  2  0
  4  6  1  0
  6  7  1  0
  7  8  1  0
  8  9  2  0
  9 10  1  0
 10 11  1  0
 10 12  2  0
 12 13  1  0
 13 14  1  0
 13 15  2  0
 15 16  1  0
 16 17  3  0
 15  8  1  0
  1 18  1  0
  1 19  1  0
  1 20  1  0
  3 21  1  0
  6 22  1  0
  6 23  1  0
 11 24  1  0
 11 25  1  0
 11 26  1  0
 12 27  1  0
 14 28  1  0
 14 29  1  0
 14 30  1  0
M  END
>  <Binding energies>  (1) 
[-5.99]

>  <Ligand effiencies>  (1) 
[-0.3327777777777778]

>  <Interactions>  (1) 
["V-B:MET:535:CE:9806, V-B:ASP:366:CG:8184, V-B:LEU:363:CA:8156, V-B:ASN:362:C:8143, V-B:PRO:540:CA:9854, V-B:PRO:540:N:9855, V-B:TYR:539:CE1:9846, V-B:PRO:540:CB:9856, H-B:TYR:539:N:9841, H-B:ALA:541:N:9862, V-B:TYR:539:CZ:9848, H-B:TYR:531:OH:9766, V-B:ASN:362:CB:8147"]

$$$$
1m_Grossjean_2025
     RDKit          3D

 35 35  0  0  0  0  0  0  0  0999 V2000
  123.9250  124.3460   59.6450 C   0  0  0  0  0  0  0  0  0  0  0  0
  123.9390  123.4990   60.7860 O   0  0  0  0  0  0  0  0  0  0  0  0
  124.8370  123.6940   61.7730 C   0  0  0  0  0  0  0  0  0  0  0  0
  124.7960  123.1760   62.8930 O   0  0  0  0  0  0  0  0  0  0  0  0
  125.9610  124.6550   61.3340 C   0  0  0  0  0  0  0  0  0  0  0  0
  127.2040  124.4660   62.0980 N   0  0  0  0  0  0  0  0  0  0  0  0
  128.0190  123.3970   62.0210 C   0  0  0  0  0  0  0  0  0  0  0  0
  127.7920  122.4310   61.2910 O   0  0  0  0  0  0  0  0  0  0  0  0
  129.2640  123.4490   62.9160 C   0  0  0  0  0  0  0  0  0  0  0  0
  130.1820  125.0260   62.8550 S   0  0  0  0  0  0  0  0  0  0  0  0
  130.7060  125.4220   64.5100 C   0  0  0  0  0  0  0  0  0  0  0  0
  129.6990  125.8610   65.3080 N   0  0  0  0  0  0  0  0  0  0  0  0
  129.9800  126.1860   66.5910 C   0  0  0  0  0  0  0  0  0  0  0  0
  128.8010  126.6490   67.4260 C   0  0  0  0  0  0  0  0  0  0  0  0
  131.2640  126.1000   67.1250 C   0  0  0  0  0  0  0  0  0  0  0  0
  132.3140  125.6740   66.3050 C   0  0  0  0  0  0  0  0  0  0  0  0
  133.7150  125.6030   66.9070 C   0  0  0  0  0  0  0  0  0  0  0  0
  132.0450  125.3300   64.9600 C   0  0  0  0  0  0  0  0  0  0  0  0
  133.1380  124.9300   64.0700 C   0  0  0  0  0  0  0  0  0  0  0  0
  134.0010  124.6130   63.3680 N   0  0  0  0  0  0  0  0  0  0  0  0
  123.9076  125.3971   59.9688 H   0  0  0  0  0  0  0  0  0  0  0  0
  124.8263  124.1631   59.0415 H   0  0  0  0  0  0  0  0  0  0  0  0
  123.0302  124.1334   59.0415 H   0  0  0  0  0  0  0  0  0  0  0  0
  126.1739  124.4833   60.2685 H   0  0  0  0  0  0  0  0  0  0  0  0
  125.6108  125.6810   61.5202 H   0  0  0  0  0  0  0  0  0  0  0  0
  127.4450  125.2070   62.7410 H   0  0  0  0  0  0  0  0  0  0  0  0
  128.9464  123.2774   63.9551 H   0  0  0  0  0  0  0  0  0  0  0  0
  129.9497  122.6756   62.5397 H   0  0  0  0  0  0  0  0  0  0  0  0
  129.0474  126.5523   68.4937 H   0  0  0  0  0  0  0  0  0  0  0  0
  128.5787  127.7012   67.1949 H   0  0  0  0  0  0  0  0  0  0  0  0
  127.9221  126.0292   67.1949 H   0  0  0  0  0  0  0  0  0  0  0  0
  131.4494  126.3634   68.1768 H   0  0  0  0  0  0  0  0  0  0  0  0
  133.6430  125.6066   68.0046 H   0  0  0  0  0  0  0  0  0  0  0  0
  134.2103  124.6786   66.5751 H   0  0  0  0  0  0  0  0  0  0  0  0
  134.3012  126.4726   66.5751 H   0  0  0  0  0  0  0  0  0  0  0  0
  1  2  1  0
  2  3  1  0
  3  4  2  0
  3  5  1  0
  5  6  1  0
  6  7  1  0
  7  8  2  0
  7  9  1  0
  9 10  1  0
 10 11  1  0
 11 12  2  0
 12 13  1  0
 13 14  1  0
 13 15  2  0
 15 16  1  0
 16 17  1  0
 16 18  2  0
 18 19  1  0
 19 20  3  0
 18 11  1  0
  1 21  1  0
  1 22  1  0
  1 23  1  0
  5 24  1  0
  5 25  1  0
  6 26  1  0
  9 27  1  0
  9 28  1  0
 14 29  1  0
 14 30  1  0
 14 31  1  0
 15 32  1  0
 17 33  1  0
 17 34  1  0
 17 35  1  0
M  END
>  <Binding energies>  (1) 
[-5.96]

>  <Ligand effiencies>  (1) 
[-0.2838095238095238]

>  <Interactions>  (1) 
["V-A:HIS:456:CE1:4069, V-B:GLU:543:CD:9879, V-B:GLU:543:CB:9877, V-B:GLU:543:CG:9878, V-B:ASP:366:CG:8184, V-B:LEU:363:CA:8156, V-B:ASN:362:C:8143, V-B:PRO:540:CA:9854, V-B:ALA:541:CB:9863, V-B:PRO:540:CB:9856, H-B:ALA:541:N:9862, V-A:ARG:545:CZ:4926, H-A:GLY:454:N:4049, V-B:ASN:362:CB:8147, V-A:ARG:545:CD:4923, V-A:ARG:545:CG:4922, H-B:GLU:543:OE2:9881, H-B:LEU:363:N:8157, H-B:ASN:362:ND2:8150"]

$$$$
1n_Grossjean_2025
     RDKit          3D

 48 49  0  0  0  0  0  0  0  0999 V2000
  126.8840  122.4250   54.3740 C   0  0  0  0  0  0  0  0  0  0  0  0
  125.5290  122.3510   55.0850 C   0  0  0  0  0  0  0  0  0  0  0  0
  125.7260  121.9560   56.4380 O   0  0  0  0  0  0  0  0  0  0  0  0
  126.7680  122.4370   57.1630 C   0  0  0  0  0  0  0  0  0  0  0  0
  127.7440  121.7530   57.4870 O   0  0  0  0  0  0  0  0  0  0  0  0
  126.6220  123.8880   57.5230 C   0  0  0  0  0  0  0  0  0  0  0  0
  127.6270  124.8270   57.2430 C   0  0  0  0  0  0  0  0  0  0  0  0
  127.4610  126.1640   57.5920 C   0  0  0  0  0  0  0  0  0  0  0  0
  126.2960  126.5890   58.2320 C   0  0  0  0  0  0  0  0  0  0  0  0
  126.2360  127.9610   58.5450 N   0  0  0  0  0  0  0  0  0  0  0  0
  126.4990  129.0350   57.7700 C   0  0  0  0  0  0  0  0  0  0  0  0
  126.8500  128.9960   56.5910 O   0  0  0  0  0  0  0  0  0  0  0  0
  126.3330  130.4000   58.4510 C   0  0  0  0  0  0  0  0  0  0  0  0
  127.1460  131.5210   57.7680 C   0  0  0  0  0  0  0  0  0  0  0  0
  128.2310  132.4550   58.8890 S   0  0  0  0  0  0  0  0  0  0  0  0
  129.9110  132.1660   58.3780 C   0  0  0  0  0  0  0  0  0  0  0  0
  130.0570  132.0400   57.0350 N   0  0  0  0  0  0  0  0  0  0  0  0
  131.2960  131.8340   56.5310 C   0  0  0  0  0  0  0  0  0  0  0  0
  131.3830  131.7140   55.0220 C   0  0  0  0  0  0  0  0  0  0  0  0
  132.4290  131.7400   57.3360 C   0  0  0  0  0  0  0  0  0  0  0  0
  132.2870  131.8480   58.7240 C   0  0  0  0  0  0  0  0  0  0  0  0
  133.5410  131.7280   59.5880 C   0  0  0  0  0  0  0  0  0  0  0  0
  131.0010  132.0580   59.2730 C   0  0  0  0  0  0  0  0  0  0  0  0
  130.8220  132.1220   60.7250 C   0  0  0  0  0  0  0  0  0  0  0  0
  130.6830  132.1720   61.8730 N   0  0  0  0  0  0  0  0  0  0  0  0
  125.2840  125.6580   58.5060 C   0  0  0  0  0  0  0  0  0  0  0  0
  125.4500  124.3220   58.1530 C   0  0  0  0  0  0  0  0  0  0  0  0
  127.6889  122.4690   55.1225 H   0  0  0  0  0  0  0  0  0  0  0  0
  127.0170  121.5328   53.7445 H   0  0  0  0  0  0  0  0  0  0  0  0
  126.9190  123.3264   53.7445 H   0  0  0  0  0  0  0  0  0  0  0  0
  125.0458  123.3388   55.0577 H   0  0  0  0  0  0  0  0  0  0  0  0
  124.8874  121.6158   54.5773 H   0  0  0  0  0  0  0  0  0  0  0  0
  128.5525  124.5038   56.7441 H   0  0  0  0  0  0  0  0  0  0  0  0
  128.2538  126.8910   57.3617 H   0  0  0  0  0  0  0  0  0  0  0  0
  125.9090  128.1570   59.4790 H   0  0  0  0  0  0  0  0  0  0  0  0
  125.2684  130.6757   58.4275 H   0  0  0  0  0  0  0  0  0  0  0  0
  126.7105  130.3013   59.4795 H   0  0  0  0  0  0  0  0  0  0  0  0
  127.7708  131.0648   56.9860 H   0  0  0  0  0  0  0  0  0  0  0  0
  126.4148  132.2396   57.3693 H   0  0  0  0  0  0  0  0  0  0  0  0
  132.0099  130.8494   54.7585 H   0  0  0  0  0  0  0  0  0  0  0  0
  130.3740  131.5756   54.6064 H   0  0  0  0  0  0  0  0  0  0  0  0
  131.8283  132.6300   54.6064 H   0  0  0  0  0  0  0  0  0  0  0  0
  133.4209  131.5832   56.8871 H   0  0  0  0  0  0  0  0  0  0  0  0
  133.2581  131.7551   60.6506 H   0  0  0  0  0  0  0  0  0  0  0  0
  134.0484  130.7772   59.3678 H   0  0  0  0  0  0  0  0  0  0  0  0
  134.2195  132.5653   59.3678 H   0  0  0  0  0  0  0  0  0  0  0  0
  124.3573  125.9841   59.0008 H   0  0  0  0  0  0  0  0  0  0  0  0
  124.6507  123.5987   58.3717 H   0  0  0  0  0  0  0  0  0  0  0  0
  1  2  1  0
  2  3  1  0
  3  4  1  0
  4  5  2  0
  4  6  1  0
  6  7  2  0
  7  8  1  0
  8  9  2  0
  9 10  1  0
 10 11  1  0
 11 12  2  0
 11 13  1  0
 13 14  1  0
 14 15  1  0
 15 16  1  0
 16 17  2  0
 17 18  1  0
 18 19  1  0
 18 20  2  0
 20 21  1  0
 21 22  1  0
 21 23  2  0
 23 24  1  0
 24 25  3  0
  9 26  1  0
 26 27  2  0
 27  6  1  0
 23 16  1  0
  1 28  1  0
  1 29  1  0
  1 30  1  0
  2 31  1  0
  2 32  1  0
  7 33  1  0
  8 34  1  0
 10 35  1  0
 13 36  1  0
 13 37  1  0
 14 38  1  0
 14 39  1  0
 19 40  1  0
 19 41  1  0
 19 42  1  0
 20 43  1  0
 22 44  1  0
 22 45  1  0
 22 46  1  0
 26 47  1  0
 27 48  1  0
M  END
>  <Binding energies>  (1) 
[-8.43]

>  <Ligand effiencies>  (1) 
[-0.30107142857142855]

>  <Interactions>  (1) 
["V-B:MET:535:CE:9806, V-B:ASP:366:CG:8184, V-B:LEU:363:CD1:8160, V-B:PRO:540:CA:9854, V-B:PRO:540:N:9855, V-B:TYR:539:CE1:9846, H-B:TYR:539:N:9841, V-B:TYR:539:C:9838, V-B:PRO:540:CD:9858, V-B:ILE:538:CA:9831, V-A:TYR:539:CE2:4876, H-B:TYR:531:OH:9766, V-A:PRO:540:N:4884, V-A:MET:535:CE:4835, V-B:TYR:539:CD1:9844, V-B:ASP:366:CB:8183, V-A:LEU:363:CA:3184, V-B:ILE:538:CG2:9834, V-A:PRO:540:CB:4885, V-A:LEU:363:CD1:3188, V-A:TYR:531:CE2:4793, V-A:ASP:366:CG:3212, V-A:PRO:540:CA:4883, V-B:ILE:538:CD1:9836, V-A:MET:535:CG:4833, H-B:ASP:366:OD2:8186, H-A:ALA:541:N:4891, V-A:TYR:539:CZ:4877, V-A:ILE:538:CB:4862, V-A:ILE:538:CG2:4863"]

$$$$
1o_Grossjean_2025
     RDKit          3D

 45 46  0  0  0  0  0  0  0  0999 V2000
  132.9010  125.6490   65.9860 C   0  0  0  0  0  0  0  0  0  0  0  0
  133.6320  124.7470   65.1690 O   0  0  0  0  0  0  0  0  0  0  0  0
  133.3580  124.6230   63.8450 C   0  0  0  0  0  0  0  0  0  0  0  0
  134.2260  124.6430   62.9660 O   0  0  0  0  0  0  0  0  0  0  0  0
  131.8950  124.4550   63.5540 C   0  0  0  0  0  0  0  0  0  0  0  0
  131.0580  125.5520   63.2980 C   0  0  0  0  0  0  0  0  0  0  0  0
  129.7050  125.3610   63.0300 C   0  0  0  0  0  0  0  0  0  0  0  0
  129.1600  124.0770   63.0170 C   0  0  0  0  0  0  0  0  0  0  0  0
  127.7840  123.9990   62.7250 N   0  0  0  0  0  0  0  0  0  0  0  0
  127.1450  123.3390   61.7340 C   0  0  0  0  0  0  0  0  0  0  0  0
  127.6880  122.6170   60.8980 O   0  0  0  0  0  0  0  0  0  0  0  0
  125.6190  123.5060   61.7060 C   0  0  0  0  0  0  0  0  0  0  0  0
  125.1430  124.6100   60.7410 C   0  0  0  0  0  0  0  0  0  0  0  0
  124.8640  124.0340   59.0400 S   0  0  0  0  0  0  0  0  0  0  0  0
  126.0820  124.7890   57.9820 C   0  0  0  0  0  0  0  0  0  0  0  0
  126.3360  126.0860   58.2900 N   0  0  0  0  0  0  0  0  0  0  0  0
  127.2520  126.7620   57.5580 C   0  0  0  0  0  0  0  0  0  0  0  0
  127.4930  128.2030   57.9710 C   0  0  0  0  0  0  0  0  0  0  0  0
  127.9370  126.1840   56.4920 C   0  0  0  0  0  0  0  0  0  0  0  0
  127.6650  124.8560   56.1490 C   0  0  0  0  0  0  0  0  0  0  0  0
  128.4190  124.2490   54.9660 C   0  0  0  0  0  0  0  0  0  0  0  0
  126.7090  124.1310   56.8960 C   0  0  0  0  0  0  0  0  0  0  0  0
  126.3680  122.7580   56.5150 C   0  0  0  0  0  0  0  0  0  0  0  0
  126.1010  121.6730   56.2120 N   0  0  0  0  0  0  0  0  0  0  0  0
  129.9920  122.9750   63.2670 C   0  0  0  0  0  0  0  0  0  0  0  0
  131.3440  123.1670   63.5340 C   0  0  0  0  0  0  0  0  0  0  0  0
  133.0880  125.4183   67.0452 H   0  0  0  0  0  0  0  0  0  0  0  0
  133.2221  126.6793   65.7729 H   0  0  0  0  0  0  0  0  0  0  0  0
  131.8265  125.5483   65.7729 H   0  0  0  0  0  0  0  0  0  0  0  0
  131.4739  126.5703   63.3091 H   0  0  0  0  0  0  0  0  0  0  0  0
  129.0610  126.2293   62.8270 H   0  0  0  0  0  0  0  0  0  0  0  0
  127.1950  124.4980   63.3770 H   0  0  0  0  0  0  0  0  0  0  0  0
  125.1692  122.5519   61.3938 H   0  0  0  0  0  0  0  0  0  0  0  0
  125.3054  123.8012   62.7182 H   0  0  0  0  0  0  0  0  0  0  0  0
  124.1987  125.0225   61.1259 H   0  0  0  0  0  0  0  0  0  0  0  0
  125.9455  125.3610   60.6954 H   0  0  0  0  0  0  0  0  0  0  0  0
  127.5047  128.2728   59.0687 H   0  0  0  0  0  0  0  0  0  0  0  0
  128.4603  128.5420   57.5717 H   0  0  0  0  0  0  0  0  0  0  0  0
  126.6886  128.8383   57.5717 H   0  0  0  0  0  0  0  0  0  0  0  0
  128.6818  126.7643   55.9276 H   0  0  0  0  0  0  0  0  0  0  0  0
  129.2251  123.6001   55.3390 H   0  0  0  0  0  0  0  0  0  0  0  0
  127.7240  123.6554   54.3538 H   0  0  0  0  0  0  0  0  0  0  0  0
  128.8505  125.0547   54.3538 H   0  0  0  0  0  0  0  0  0  0  0  0
  129.5746  121.9574   63.2519 H   0  0  0  0  0  0  0  0  0  0  0  0
  131.9878  122.2973   63.7317 H   0  0  0  0  0  0  0  0  0  0  0  0
  1  2  1  0
  2  3  1  0
  3  4  2  0
  3  5  1  0
  5  6  2  0
  6  7  1  0
  7  8  2  0
  8  9  1  0
  9 10  1  0
 10 11  2  0
 10 12  1  0
 12 13  1  0
 13 14  1  0
 14 15  1  0
 15 16  2  0
 16 17  1  0
 17 18  1  0
 17 19  2  0
 19 20  1  0
 20 21  1  0
 20 22  2  0
 22 23  1  0
 23 24  3  0
  8 25  1  0
 25 26  2  0
 26  5  1  0
 22 15  1  0
  1 27  1  0
  1 28  1  0
  1 29  1  0
  6 30  1  0
  7 31  1  0
  9 32  1  0
 12 33  1  0
 12 34  1  0
 13 35  1  0
 13 36  1  0
 18 37  1  0
 18 38  1  0
 18 39  1  0
 19 40  1  0
 21 41  1  0
 21 42  1  0
 21 43  1  0
 25 44  1  0
 26 45  1  0
M  END
>  <Binding energies>  (1) 
[-7.95]

>  <Ligand effiencies>  (1) 
[-0.29444444444444445]

>  <Interactions>  (1) 
["V-A:HIS:456:CE1:4069, V-B:GLU:543:CD:9879, V-B:GLU:543:CG:9878, V-B:ASP:366:CG:8184, V-B:PRO:540:CA:9854, V-B:ALA:541:CB:9863, V-B:PRO:540:N:9855, V-B:TYR:539:CE1:9846, V-B:PRO:540:CB:9856, H-B:TYR:539:N:9841, H-B:ALA:541:N:9862, V-B:TYR:539:CZ:9848, V-A:ARG:545:CZ:4926, H-B:TYR:531:OH:9766, H-A:GLY:454:N:4049, H-A:TYR:484:OH:4347, V-A:GLY:454:CA:4048, V-A:ARG:545:CD:4923, H-B:GLU:543:OE2:9881"]

$$$$
1p_Grossjean_2025
     RDKit          3D

 35 36  0  0  0  0  0  0  0  0999 V2000
  125.0230  123.8600   62.7000 C   0  0  0  0  0  0  0  0  0  0  0  0
  125.4820  123.6480   61.2700 C   0  0  0  0  0  0  0  0  0  0  0  0
  124.7000  124.0470   60.1870 C   0  0  0  0  0  0  0  0  0  0  0  0
  125.1660  123.8140   58.8890 C   0  0  0  0  0  0  0  0  0  0  0  0
  124.2860  124.2460   57.7180 C   0  0  0  0  0  0  0  0  0  0  0  0
  126.4210  123.1900   58.7070 C   0  0  0  0  0  0  0  0  0  0  0  0
  126.9100  122.8920   57.3600 C   0  0  0  0  0  0  0  0  0  0  0  0
  127.2950  122.6580   56.2940 N   0  0  0  0  0  0  0  0  0  0  0  0
  127.1580  122.8400   59.8640 C   0  0  0  0  0  0  0  0  0  0  0  0
  128.7540  122.0580   59.8150 S   0  0  0  0  0  0  0  0  0  0  0  0
  129.8570  123.0460   60.8680 C   0  0  0  0  0  0  0  0  0  0  0  0
  130.1020  122.4310   62.2590 C   0  0  0  0  0  0  0  0  0  0  0  0
  131.4120  122.8960   62.9130 C   0  0  0  0  0  0  0  0  0  0  0  0
  132.4600  122.2970   62.6650 O   0  0  0  0  0  0  0  0  0  0  0  0
  131.3110  123.9720   63.7250 N   0  0  0  0  0  0  0  0  0  0  0  0
  132.3330  124.5900   64.4330 C   0  0  0  0  0  0  0  0  0  0  0  0
  132.1240  125.2850   65.6240 C   0  0  0  0  0  0  0  0  0  0  0  0
  133.3680  125.7380   65.9990 C   0  0  0  0  0  0  0  0  0  0  0  0
  134.2790  125.3380   65.0810 O   0  0  0  0  0  0  0  0  0  0  0  0
  133.6110  124.6130   64.0920 N   0  0  0  0  0  0  0  0  0  0  0  0
  126.6870  123.0500   61.1190 N   0  0  0  0  0  0  0  0  0  0  0  0
  125.7997  123.5013   63.3914 H   0  0  0  0  0  0  0  0  0  0  0  0
  124.8448  124.9316   62.8728 H   0  0  0  0  0  0  0  0  0  0  0  0
  124.0916  123.3009   62.8728 H   0  0  0  0  0  0  0  0  0  0  0  0
  123.7296  124.5384   60.3511 H   0  0  0  0  0  0  0  0  0  0  0  0
  123.3609  124.7002   58.1026 H   0  0  0  0  0  0  0  0  0  0  0  0
  124.8274  124.9807   57.1040 H   0  0  0  0  0  0  0  0  0  0  0  0
  124.0358  123.3683   57.1040 H   0  0  0  0  0  0  0  0  0  0  0  0
  130.8261  123.1465   60.3574 H   0  0  0  0  0  0  0  0  0  0  0  0
  129.3637  124.0160   61.0283 H   0  0  0  0  0  0  0  0  0  0  0  0
  129.2659  122.7123   62.9161 H   0  0  0  0  0  0  0  0  0  0  0  0
  130.1775  121.3421   62.1224 H   0  0  0  0  0  0  0  0  0  0  0  0
  130.3930  124.3750   63.8470 H   0  0  0  0  0  0  0  0  0  0  0  0
  131.1702  125.4380   66.1502 H   0  0  0  0  0  0  0  0  0  0  0  0
  133.5870  126.3300   66.8999 H   0  0  0  0  0  0  0  0  0  0  0  0
  1  2  1  0
  2  3  2  0
  3  4  1  0
  4  5  1  0
  4  6  2  0
  6  7  1  0
  7  8  3  0
  6  9  1  0
  9 10  1  0
 10 11  1  0
 11 12  1  0
 12 13  1  0
 13 14  2  0
 13 15  1  0
 15 16  1  0
 16 17  1  0
 17 18  2  0
 18 19  1  0
 19 20  1  0
  9 21  2  0
 21  2  1  0
 20 16  2  0
  1 22  1  0
  1 23  1  0
  1 24  1  0
  3 25  1  0
  5 26  1  0
  5 27  1  0
  5 28  1  0
 11 29  1  0
 11 30  1  0
 12 31  1  0
 12 32  1  0
 15 33  1  0
 17 34  1  0
 18 35  1  0
M  END
>  <Binding energies>  (1) 
[-7.53]

>  <Ligand effiencies>  (1) 
[-0.3422727272727273]

>  <Interactions>  (1) 
["V-B:GLU:543:CD:9879, V-B:GLU:543:CG:9878, V-B:LEU:363:CA:8156, V-B:LEU:363:CD1:8160, V-B:PRO:540:CA:9854, V-B:PRO:540:C:9852, V-B:ALA:541:CB:9863, V-B:PRO:540:N:9855, V-B:PRO:540:CB:9856, H-B:ALA:541:N:9862, V-B:TYR:539:C:9838, V-A:ARG:545:CZ:4926, H-A:GLY:454:N:4049, V-B:ASN:362:CB:8147, H-A:ARG:545:NH1:4927, V-B:ASN:362:CG:8148, V-B:TYR:531:CE2:9764, H-A:ARG:545:NE:4924, V-A:ARG:545:CD:4923, V-A:ARG:545:CG:4922"]

$$$$
1q_Grossjean_2025
     RDKit          3D

 38 38  0  0  0  0  0  0  0  0999 V2000
  133.7010  124.9040   61.9720 C   0  0  0  0  0  0  0  0  0  0  0  0
  133.9720  124.1970   63.1740 O   0  0  0  0  0  0  0  0  0  0  0  0
  133.2510  124.4440   64.2950 C   0  0  0  0  0  0  0  0  0  0  0  0
  133.6740  125.0020   65.3090 O   0  0  0  0  0  0  0  0  0  0  0  0
  131.7970  123.9300   64.2340 C   0  0  0  0  0  0  0  0  0  0  0  0
  131.5800  122.9470   63.1620 N   0  0  0  0  0  0  0  0  0  0  0  0
  130.3900  122.4420   62.7830 C   0  0  0  0  0  0  0  0  0  0  0  0
  129.3240  122.7630   63.3110 O   0  0  0  0  0  0  0  0  0  0  0  0
  130.4250  121.4360   61.6240 C   0  0  0  0  0  0  0  0  0  0  0  0
  129.0720  121.2420   60.9120 C   0  0  0  0  0  0  0  0  0  0  0  0
  128.7260  122.5050   59.6500 S   0  0  0  0  0  0  0  0  0  0  0  0
  127.0540  123.0800   59.8660 C   0  0  0  0  0  0  0  0  0  0  0  0
  126.6560  123.1060   61.1640 N   0  0  0  0  0  0  0  0  0  0  0  0
  125.4020  123.5230   61.4540 C   0  0  0  0  0  0  0  0  0  0  0  0
  125.0250  123.5080   62.9240 C   0  0  0  0  0  0  0  0  0  0  0  0
  124.5030  123.9380   60.4740 C   0  0  0  0  0  0  0  0  0  0  0  0
  124.9100  123.9400   59.1370 C   0  0  0  0  0  0  0  0  0  0  0  0
  123.9110  124.4180   58.0820 C   0  0  0  0  0  0  0  0  0  0  0  0
  126.2160  123.5110   58.8090 C   0  0  0  0  0  0  0  0  0  0  0  0
  126.6770  123.5600   57.4200 C   0  0  0  0  0  0  0  0  0  0  0  0
  127.0390  123.6010   56.3220 N   0  0  0  0  0  0  0  0  0  0  0  0
  133.3170  125.9059   62.2145 H   0  0  0  0  0  0  0  0  0  0  0  0
  134.6267  124.9983   61.3854 H   0  0  0  0  0  0  0  0  0  0  0  0
  132.9494  124.3553   61.3854 H   0  0  0  0  0  0  0  0  0  0  0  0
  131.5511  123.4586   65.1970 H   0  0  0  0  0  0  0  0  0  0  0  0
  131.1507  124.7948   64.0234 H   0  0  0  0  0  0  0  0  0  0  0  0
  132.4100  122.6120   62.6950 H   0  0  0  0  0  0  0  0  0  0  0  0
  131.1568  121.7896   60.8828 H   0  0  0  0  0  0  0  0  0  0  0  0
  130.6943  120.4625   62.0597 H   0  0  0  0  0  0  0  0  0  0  0  0
  129.0733  120.2554   60.4255 H   0  0  0  0  0  0  0  0  0  0  0  0
  128.2883  121.3291   61.6790 H   0  0  0  0  0  0  0  0  0  0  0  0
  125.9377  123.5443   63.5370 H   0  0  0  0  0  0  0  0  0  0  0  0
  124.3963  124.3818   63.1502 H   0  0  0  0  0  0  0  0  0  0  0  0
  124.4678  122.5870   63.1502 H   0  0  0  0  0  0  0  0  0  0  0  0
  123.4875  124.2595   60.7486 H   0  0  0  0  0  0  0  0  0  0  0  0
  123.0262  124.8413   58.5800 H   0  0  0  0  0  0  0  0  0  0  0  0
  124.3818  125.1884   57.4536 H   0  0  0  0  0  0  0  0  0  0  0  0
  123.6065  123.5680   57.4536 H   0  0  0  0  0  0  0  0  0  0  0  0
  1  2  1  0
  2  3  1  0
  3  4  2  0
  3  5  1  0
  5  6  1  0
  6  7  1  0
  7  8  2  0
  7  9  1  0
  9 10  1  0
 10 11  1  0
 11 12  1  0
 12 13  2  0
 13 14  1  0
 14 15  1  0
 14 16  2  0
 16 17  1  0
 17 18  1  0
 17 19  2  0
 19 20  1  0
 20 21  3  0
 19 12  1  0
  1 22  1  0
  1 23  1  0
  1 24  1  0
  5 25  1  0
  5 26  1  0
  6 27  1  0
  9 28  1  0
  9 29  1  0
 10 30  1  0
 10 31  1  0
 15 32  1  0
 15 33  1  0
 15 34  1  0
 16 35  1  0
 18 36  1  0
 18 37  1  0
 18 38  1  0
M  END
>  <Binding energies>  (1) 
[-6.39]

>  <Ligand effiencies>  (1) 
[-0.29045454545454547]

>  <Interactions>  (1) 
["V-B:GLU:543:CD:9879, V-B:GLU:543:CG:9878, V-B:LEU:363:CA:8156, V-B:LEU:363:CD1:8160, V-B:ASN:362:C:8143, V-B:TYR:539:CD2:9845, V-B:PRO:540:CA:9854, V-B:PRO:540:C:9852, V-B:ALA:541:CB:9863, V-B:PRO:540:N:9855, V-A:LEU:475:CD2:4258, V-B:PRO:540:CB:9856, H-B:ALA:541:N:9862, V-B:TYR:539:C:9838, H-A:GLY:454:N:4049, V-B:ASN:362:CB:8147, V-A:ASP:366:CG:3212, H-A:TYR:484:OH:4347, V-A:GLY:454:CA:4048, V-A:ILE:369:CD1:3238, V-B:ALA:541:C:9859, V-B:ALA:541:CA:9861, V-B:ASN:362:CG:8148, V-B:TYR:531:CE2:9764, H-A:ARG:545:NE:4924, V-B:LEU:363:CB:8158"]

$$$$
2a_Ghoteimi_2023
     RDKit          3D

 85 90  0  0  0  0  0  0  0  0999 V2000
  132.3140  131.2980   59.2940 C   0  0  0  0  0  0  0  0  0  0  0  0
  132.1990  131.3530   57.7680 C   0  0  0  0  0  0  0  0  0  0  0  0
  131.7790  132.6520   57.3730 O   0  0  0  0  0  0  0  0  0  0  0  0
  130.6360  132.8350   56.6640 C   0  0  0  0  0  0  0  0  0  0  0  0
  130.6160  133.2500   55.5010 O   0  0  0  0  0  0  0  0  0  0  0  0
  129.3970  132.4760   57.4330 C   0  0  0  0  0  0  0  0  0  0  0  0
  129.2150  132.8610   58.7700 C   0  0  0  0  0  0  0  0  0  0  0  0
  128.0540  132.5130   59.4530 C   0  0  0  0  0  0  0  0  0  0  0  0
  127.0500  131.7800   58.8180 C   0  0  0  0  0  0  0  0  0  0  0  0
  125.9210  131.4800   59.6050 N   0  0  0  0  0  0  0  0  0  0  0  0
  124.6070  131.5870   59.3100 C   0  0  0  0  0  0  0  0  0  0  0  0
  124.1520  132.0360   58.2570 O   0  0  0  0  0  0  0  0  0  0  0  0
  123.6510  131.1390   60.4220 C   0  0  0  0  0  0  0  0  0  0  0  0
  124.1370  131.6710   62.0950 S   0  0  0  0  0  0  0  0  0  0  0  0
  125.2590  130.4250   62.6880 C   0  0  0  0  0  0  0  0  0  0  0  0
  125.5120  129.4450   61.7900 N   0  0  0  0  0  0  0  0  0  0  0  0
  126.3470  128.4300   62.1290 C   0  0  0  0  0  0  0  0  0  0  0  0
  126.5720  127.3780   61.0910 C   0  0  0  0  0  0  0  0  0  0  0  0
  126.8100  127.7170   59.7540 C   0  0  0  0  0  0  0  0  0  0  0  0
  127.0070  126.7330   58.7900 C   0  0  0  0  0  0  0  0  0  0  0  0
  126.9830  125.3720   59.1270 C   0  0  0  0  0  0  0  0  0  0  0  0
  127.1540  124.3930   58.1430 N   0  0  0  0  0  0  0  0  0  0  0  0
  126.6900  124.6060   56.7570 C   0  0  0  0  0  0  0  0  0  0  0  0
  127.2740  123.6000   55.7430 C   0  0  0  0  0  0  0  0  0  0  0  0
  127.0100  122.2730   56.1680 O   0  0  0  0  0  0  0  0  0  0  0  0
  127.6000  122.0060   57.4300 C   0  0  0  0  0  0  0  0  0  0  0  0
  127.0280  122.9640   58.4970 C   0  0  0  0  0  0  0  0  0  0  0  0
  126.7330  125.0370   60.4680 C   0  0  0  0  0  0  0  0  0  0  0  0
  126.5380  126.0210   61.4320 C   0  0  0  0  0  0  0  0  0  0  0  0
  126.9600  128.3870   63.3840 C   0  0  0  0  0  0  0  0  0  0  0  0
  126.7130  129.3920   64.3290 C   0  0  0  0  0  0  0  0  0  0  0  0
  127.3970  129.2810   65.6530 C   0  0  0  0  0  0  0  0  0  0  0  0
  128.2230  128.1880   65.9280 C   0  0  0  0  0  0  0  0  0  0  0  0
  128.8490  128.0660   67.1650 C   0  0  0  0  0  0  0  0  0  0  0  0
  128.6700  129.0350   68.1640 C   0  0  0  0  0  0  0  0  0  0  0  0
  129.2740  128.9210   69.4200 N   0  0  0  0  0  0  0  0  0  0  0  0
  129.1070  130.0100   70.4040 C   0  0  0  0  0  0  0  0  0  0  0  0
  129.4790  129.5930   71.8430 C   0  0  0  0  0  0  0  0  0  0  0  0
  130.8030  129.0830   71.8740 O   0  0  0  0  0  0  0  0  0  0  0  0
  130.9480  127.9460   71.0380 C   0  0  0  0  0  0  0  0  0  0  0  0
  130.6110  128.3170   69.5790 C   0  0  0  0  0  0  0  0  0  0  0  0
  127.8290  130.1220   67.8850 C   0  0  0  0  0  0  0  0  0  0  0  0
  127.2020  130.2440   66.6480 C   0  0  0  0  0  0  0  0  0  0  0  0
  125.8400  130.4500   63.9750 C   0  0  0  0  0  0  0  0  0  0  0  0
  125.5870  131.5580   64.9010 C   0  0  0  0  0  0  0  0  0  0  0  0
  125.3880  132.4320   65.6340 N   0  0  0  0  0  0  0  0  0  0  0  0
  127.2280  131.3850   57.4840 C   0  0  0  0  0  0  0  0  0  0  0  0
  128.3900  131.7350   56.8000 C   0  0  0  0  0  0  0  0  0  0  0  0
  131.4092  131.7307   59.7457 H   0  0  0  0  0  0  0  0  0  0  0  0
  132.4202  130.2516   59.6162 H   0  0  0  0  0  0  0  0  0  0  0  0
  133.1952  131.8721   59.6162 H   0  0  0  0  0  0  0  0  0  0  0  0
  133.1779  131.1311   57.3179 H   0  0  0  0  0  0  0  0  0  0  0  0
  131.4631  130.6095   57.4279 H   0  0  0  0  0  0  0  0  0  0  0  0
  129.9961  133.4423   59.2819 H   0  0  0  0  0  0  0  0  0  0  0  0
  127.9262  132.8180   60.5021 H   0  0  0  0  0  0  0  0  0  0  0  0
  126.1420  131.1600   60.5360 H   0  0  0  0  0  0  0  0  0  0  0  0
  122.6547  131.5522   60.2058 H   0  0  0  0  0  0  0  0  0  0  0  0
  123.6687  130.0391   60.4258 H   0  0  0  0  0  0  0  0  0  0  0  0
  126.8418  128.7768   59.4610 H   0  0  0  0  0  0  0  0  0  0  0  0
  127.1847  127.0279   57.7453 H   0  0  0  0  0  0  0  0  0  0  0  0
  125.5937  124.5177   56.7409 H   0  0  0  0  0  0  0  0  0  0  0  0
  127.0365  125.6048   56.4531 H   0  0  0  0  0  0  0  0  0  0  0  0
  126.8121  123.7657   54.7585 H   0  0  0  0  0  0  0  0  0  0  0  0
  128.3620  123.7471   55.6747 H   0  0  0  0  0  0  0  0  0  0  0  0
  127.3835  120.9673   57.7203 H   0  0  0  0  0  0  0  0  0  0  0  0
  128.6873  122.1559   57.3578 H   0  0  0  0  0  0  0  0  0  0  0  0
  125.9613  122.7333   58.6344 H   0  0  0  0  0  0  0  0  0  0  0  0
  127.6135  122.8081   59.4151 H   0  0  0  0  0  0  0  0  0  0  0  0
  126.6906  123.9777   60.7612 H   0  0  0  0  0  0  0  0  0  0  0  0
  126.3546  125.7285   62.4764 H   0  0  0  0  0  0  0  0  0  0  0  0
  127.6407  127.5592   63.6317 H   0  0  0  0  0  0  0  0  0  0  0  0
  128.3799  127.4167   65.1595 H   0  0  0  0  0  0  0  0  0  0  0  0
  129.4938  127.1969   67.3625 H   0  0  0  0  0  0  0  0  0  0  0  0
  129.7503  130.8513   70.1067 H   0  0  0  0  0  0  0  0  0  0  0  0
  128.0420  130.2851   70.4088 H   0  0  0  0  0  0  0  0  0  0  0  0
  129.4104  130.4687   72.5052 H   0  0  0  0  0  0  0  0  0  0  0  0
  128.7833  128.8120   72.1837 H   0  0  0  0  0  0  0  0  0  0  0  0
  131.9855  127.5845   71.0915 H   0  0  0  0  0  0  0  0  0  0  0  0
  130.2601  127.1579   71.3781 H   0  0  0  0  0  0  0  0  0  0  0  0
  131.3627  129.0352   69.2197 H   0  0  0  0  0  0  0  0  0  0  0  0
  130.6158  127.3831   68.9978 H   0  0  0  0  0  0  0  0  0  0  0  0
  127.6623  130.8897   68.6550 H   0  0  0  0  0  0  0  0  0  0  0  0
  126.5472  131.1058   66.4515 H   0  0  0  0  0  0  0  0  0  0  0  0
  126.4484  130.7976   56.9768 H   0  0  0  0  0  0  0  0  0  0  0  0
  128.5185  131.4265   55.7520 H   0  0  0  0  0  0  0  0  0  0  0  0
  1  2  1  0
  2  3  1  0
  3  4  1  0
  4  5  2  0
  4  6  1  0
  6  7  2  0
  7  8  1  0
  8  9  2  0
  9 10  1  0
 10 11  1  0
 11 12  2  0
 11 13  1  0
 13 14  1  0
 14 15  1  0
 15 16  2  0
 16 17  1  0
 17 18  1  0
 18 19  2  0
 19 20  1  0
 20 21  2  0
 21 22  1  0
 22 23  1  0
 23 24  1  0
 24 25  1  0
 25 26  1  0
 26 27  1  0
 21 28  1  0
 28 29  2  0
 17 30  2  0
 30 31  1  0
 31 32  1  0
 32 33  2  0
 33 34  1  0
 34 35  2  0
 35 36  1  0
 36 37  1  0
 37 38  1  0
 38 39  1  0
 39 40  1  0
 40 41  1  0
 35 42  1  0
 42 43  2  0
 31 44  2  0
 44 45  1  0
 45 46  3  0
  9 47  1  0
 47 48  2  0
 48  6  1  0
 44 15  1  0
 29 18  1  0
 43 32  1  0
 27 22  1  0
 41 36  1  0
  1 49  1  0
  1 50  1  0
  1 51  1  0
  2 52  1  0
  2 53  1  0
  7 54  1  0
  8 55  1  0
 10 56  1  0
 13 57  1  0
 13 58  1  0
 19 59  1  0
 20 60  1  0
 23 61  1  0
 23 62  1  0
 24 63  1  0
 24 64  1  0
 26 65  1  0
 26 66  1  0
 27 67  1  0
 27 68  1  0
 28 69  1  0
 29 70  1  0
 30 71  1  0
 33 72  1  0
 34 73  1  0
 37 74  1  0
 37 75  1  0
 38 76  1  0
 38 77  1  0
 40 78  1  0
 40 79  1  0
 41 80  1  0
 41 81  1  0
 42 82  1  0
 43 83  1  0
 47 84  1  0
 48 85  1  0
M  END
>  <Binding energies>  (1) 
[-10.97]

>  <Ligand effiencies>  (1) 
[-0.22387755102040818]

>  <Interactions>  (1) 
["V-A:HIS:456:CE1:4069, V-A:GLU:543:CB:4906, V-A:GLU:543:CG:4907, V-B:GLU:543:CD:9879, V-A:GLU:543:CD:4908, V-B:HIS:456:CE1:9041, H-A:LYS:547:NZ:4951, V-B:MET:535:CE:9806, V-B:ASP:366:CG:8184, V-B:TYR:539:CD2:9845, V-B:PRO:540:CA:9854, V-B:TYR:539:CE2:9847, V-B:PRO:540:N:9855, V-B:TYR:539:CE1:9846, V-B:PRO:540:CB:9856, H-B:TYR:539:N:9841, V-B:TYR:539:CZ:9848, V-B:TYR:539:C:9838, V-B:ASP:366:CA:8181, V-A:TYR:539:CD2:4874, H-A:TYR:539:OH:4878, V-A:TYR:539:C:4867, V-A:TYR:539:CE2:4876, V-A:PRO:540:N:4884, V-A:MET:535:CE:4835, V-B:TYR:539:CD1:9844, V-B:ASP:366:CB:8183, V-A:PRO:540:CB:4885, V-A:LEU:363:CD1:3188, V-A:PRO:540:CA:4883, V-B:TYR:539:CA:9840, V-B:TYR:539:CG:9843, V-B:TYR:484:CE1:9316, H-B:TYR:484:OH:9319, V-B:TYR:484:CZ:9318, V-A:GLU:543:C:4902, V-A:TYR:539:CZ:4877, H-A:TYR:539:N:4870, V-A:GLU:543:CA:4904, V-B:GLY:454:CA:9020, H-B:ARG:545:NH2:9899, V-B:LEU:475:CD1:9229, V-B:ILE:369:CD1:8210"]

$$$$
2a_Grossjean_2025
     RDKit          3D

 45 46  0  0  0  0  0  0  0  0999 V2000
  123.9540  124.6290   58.3730 C   0  0  0  0  0  0  0  0  0  0  0  0
  124.6560  124.1880   57.0860 C   0  0  0  0  0  0  0  0  0  0  0  0
  125.1510  122.8640   57.2500 O   0  0  0  0  0  0  0  0  0  0  0  0
  126.3700  122.5070   56.7690 C   0  0  0  0  0  0  0  0  0  0  0  0
  126.5290  121.8480   55.7370 O   0  0  0  0  0  0  0  0  0  0  0  0
  127.5080  123.0150   57.6080 C   0  0  0  0  0  0  0  0  0  0  0  0
  127.8590  122.4120   58.8250 C   0  0  0  0  0  0  0  0  0  0  0  0
  128.9180  122.9080   59.5790 C   0  0  0  0  0  0  0  0  0  0  0  0
  129.6420  124.0180   59.1400 C   0  0  0  0  0  0  0  0  0  0  0  0
  130.6810  124.4410   59.9890 N   0  0  0  0  0  0  0  0  0  0  0  0
  132.0160  124.4590   59.7850 C   0  0  0  0  0  0  0  0  0  0  0  0
  132.5900  124.0610   58.7700 O   0  0  0  0  0  0  0  0  0  0  0  0
  132.8530  125.0270   60.9360 C   0  0  0  0  0  0  0  0  0  0  0  0
  133.1580  123.8200   62.2690 S   0  0  0  0  0  0  0  0  0  0  0  0
  132.8440  124.5810   63.8580 C   0  0  0  0  0  0  0  0  0  0  0  0
  133.9250  124.7230   64.6660 N   0  0  0  0  0  0  0  0  0  0  0  0
  133.7590  125.2800   65.8870 C   0  0  0  0  0  0  0  0  0  0  0  0
  135.0080  125.3790   66.7430 C   0  0  0  0  0  0  0  0  0  0  0  0
  132.5230  125.7240   66.3490 C   0  0  0  0  0  0  0  0  0  0  0  0
  131.3940  125.5950   65.5260 C   0  0  0  0  0  0  0  0  0  0  0  0
  130.0330  126.0920   66.0510 C   0  0  0  0  0  0  0  0  0  0  0  0
  130.1930  126.7130   67.2200 F   0  0  0  0  0  0  0  0  0  0  0  0
  129.4910  126.9430   65.1780 F   0  0  0  0  0  0  0  0  0  0  0  0
  129.1600  125.1000   66.2390 F   0  0  0  0  0  0  0  0  0  0  0  0
  131.5530  125.0100   64.2440 C   0  0  0  0  0  0  0  0  0  0  0  0
  130.4060  124.8480   63.3450 C   0  0  0  0  0  0  0  0  0  0  0  0
  129.5000  124.7210   62.6350 N   0  0  0  0  0  0  0  0  0  0  0  0
  129.3020  124.6210   57.9210 C   0  0  0  0  0  0  0  0  0  0  0  0
  128.2450  124.1210   57.1650 C   0  0  0  0  0  0  0  0  0  0  0  0
  124.5241  124.2708   59.2429 H   0  0  0  0  0  0  0  0  0  0  0  0
  123.8945  125.7270   58.4004 H   0  0  0  0  0  0  0  0  0  0  0  0
  122.9390  124.2060   58.4004 H   0  0  0  0  0  0  0  0  0  0  0  0
  123.9408  124.2120   56.2506 H   0  0  0  0  0  0  0  0  0  0  0  0
  125.4919  124.8697   56.8701 H   0  0  0  0  0  0  0  0  0  0  0  0
  127.2929  121.5406   59.1859 H   0  0  0  0  0  0  0  0  0  0  0  0
  129.1868  122.4217   60.5284 H   0  0  0  0  0  0  0  0  0  0  0  0
  130.3650  124.8300   60.8640 H   0  0  0  0  0  0  0  0  0  0  0  0
  133.8226  125.3556   60.5337 H   0  0  0  0  0  0  0  0  0  0  0  0
  132.2828  125.8595   61.3740 H   0  0  0  0  0  0  0  0  0  0  0  0
  134.7266  125.3567   67.8062 H   0  0  0  0  0  0  0  0  0  0  0  0
  135.6724  124.5307   66.5217 H   0  0  0  0  0  0  0  0  0  0  0  0
  135.5304  126.3214   66.5217 H   0  0  0  0  0  0  0  0  0  0  0  0
  132.4324  126.1717   67.3497 H   0  0  0  0  0  0  0  0  0  0  0  0
  129.8713  125.4907   57.5611 H   0  0  0  0  0  0  0  0  0  0  0  0
  127.9857  124.5998   56.2092 H   0  0  0  0  0  0  0  0  0  0  0  0
  1  2  1  0
  2  3  1  0
  3  4  1  0
  4  5  2  0
  4  6  1  0
  6  7  2  0
  7  8  1  0
  8  9  2  0
  9 10  1  0
 10 11  1  0
 11 12  2  0
 11 13  1  0
 13 14  1  0
 14 15  1  0
 15 16  2  0
 16 17  1  0
 17 18  1  0
 17 19  2  0
 19 20  1  0
 20 21  1  0
 21 22  1  0
 21 23  1  0
 21 24  1  0
 20 25  2  0
 25 26  1  0
 26 27  3  0
  9 28  1  0
 28 29  2  0
 29  6  1  0
 25 15  1  0
  1 30  1  0
  1 31  1  0
  1 32  1  0
  2 33  1  0
  2 34  1  0
  7 35  1  0
  8 36  1  0
 10 37  1  0
 13 38  1  0
 13 39  1  0
 18 40  1  0
 18 41  1  0
 18 42  1  0
 19 43  1  0
 28 44  1  0
 29 45  1  0
M  END
>  <Binding energies>  (1) 
[-7.6]

>  <Ligand effiencies>  (1) 
[-0.2533333333333333]

>  <Interactions>  (1) 
["V-A:HIS:456:CE1:4069, V-B:GLU:543:CD:9879, V-A:GLU:543:CD:4908, V-B:GLU:543:CB:9877, V-B:GLU:543:CG:9878, V-B:MET:535:CE:9806, V-B:LEU:363:CA:8156, V-B:LEU:363:CD1:8160, V-B:TYR:539:CD2:9845, V-B:PRO:540:CA:9854, V-B:TYR:539:CE2:9847, V-B:PRO:540:N:9855, V-B:TYR:539:CE1:9846, H-B:TYR:539:N:9841, V-B:TYR:539:CZ:9848, V-B:TYR:539:C:9838, V-B:PRO:540:CD:9858, V-A:ARG:545:CZ:4926, H-B:TYR:539:OH:9849, V-B:ASP:366:CB:8183, H-A:GLY:454:N:4049, V-A:ASP:366:CG:3212, H-A:TYR:484:OH:4347, V-A:GLY:454:CA:4048, V-B:TYR:531:CZ:9765, V-B:TYR:531:CE2:9764, V-A:ARG:545:CD:4923, V-A:ILE:455:C:4051, V-A:ARG:545:CG:4922, V-A:GLY:453:C:4041, V-A:GLY:453:CA:4043"]

$$$$
2aa_Ghoteimi_2023
     RDKit          3D

 85 90  0  0  0  0  0  0  0  0999 V2000
  128.4690  132.3540   56.2690 C   0  0  0  0  0  0  0  0  0  0  0  0
  129.7300  132.9840   55.6670 C   0  0  0  0  0  0  0  0  0  0  0  0
  130.5340  133.5170   56.7120 O   0  0  0  0  0  0  0  0  0  0  0  0
  131.4480  132.7470   57.3570 C   0  0  0  0  0  0  0  0  0  0  0  0
  132.5410  132.4360   56.8700 O   0  0  0  0  0  0  0  0  0  0  0  0
  131.0060  132.3230   58.7280 C   0  0  0  0  0  0  0  0  0  0  0  0
  129.8430  132.8350   59.3220 C   0  0  0  0  0  0  0  0  0  0  0  0
  129.4560  132.4200   60.5920 C   0  0  0  0  0  0  0  0  0  0  0  0
  130.2250  131.4930   61.2980 C   0  0  0  0  0  0  0  0  0  0  0  0
  129.7400  131.1410   62.5730 N   0  0  0  0  0  0  0  0  0  0  0  0
  128.7370  130.3040   62.9160 C   0  0  0  0  0  0  0  0  0  0  0  0
  128.0570  129.6510   62.1220 O   0  0  0  0  0  0  0  0  0  0  0  0
  128.4910  130.1870   64.4260 C   0  0  0  0  0  0  0  0  0  0  0  0
  127.8580  128.9360   64.7150 O   0  0  0  0  0  0  0  0  0  0  0  0
  128.5280  127.9700   65.4540 C   0  0  0  0  0  0  0  0  0  0  0  0
  129.0910  126.9270   64.7830 N   0  0  0  0  0  0  0  0  0  0  0  0
  129.7560  125.9680   65.4750 C   0  0  0  0  0  0  0  0  0  0  0  0
  130.3450  124.8500   64.6720 C   0  0  0  0  0  0  0  0  0  0  0  0
  130.1160  123.5170   65.0290 C   0  0  0  0  0  0  0  0  0  0  0  0
  130.6560  122.4730   64.2820 C   0  0  0  0  0  0  0  0  0  0  0  0
  131.4330  122.7240   63.1400 C   0  0  0  0  0  0  0  0  0  0  0  0
  131.9940  121.6870   62.3850 N   0  0  0  0  0  0  0  0  0  0  0  0
  131.2820  121.1060   61.2290 C   0  0  0  0  0  0  0  0  0  0  0  0
  131.8710  119.7640   60.7460 C   0  0  0  0  0  0  0  0  0  0  0  0
  133.2540  119.9120   60.4680 O   0  0  0  0  0  0  0  0  0  0  0  0
  133.9760  120.3120   61.6230 C   0  0  0  0  0  0  0  0  0  0  0  0
  133.4490  121.6710   62.1320 C   0  0  0  0  0  0  0  0  0  0  0  0
  131.6770  124.0620   62.8000 C   0  0  0  0  0  0  0  0  0  0  0  0
  131.1400  125.1050   63.5490 C   0  0  0  0  0  0  0  0  0  0  0  0
  129.8600  126.0220   66.8680 C   0  0  0  0  0  0  0  0  0  0  0  0
  129.2800  127.0780   67.5820 C   0  0  0  0  0  0  0  0  0  0  0  0
  129.4020  127.0680   69.0720 C   0  0  0  0  0  0  0  0  0  0  0  0
  130.2680  127.9570   69.7150 C   0  0  0  0  0  0  0  0  0  0  0  0
  130.4010  127.9400   71.1010 C   0  0  0  0  0  0  0  0  0  0  0  0
  129.6830  127.0230   71.8830 C   0  0  0  0  0  0  0  0  0  0  0  0
  129.7980  126.9900   73.2760 N   0  0  0  0  0  0  0  0  0  0  0  0
  130.2430  125.7730   73.9820 C   0  0  0  0  0  0  0  0  0  0  0  0
  130.6460  126.0260   75.4500 C   0  0  0  0  0  0  0  0  0  0  0  0
  129.5780  126.6530   76.1450 O   0  0  0  0  0  0  0  0  0  0  0  0
  129.2360  127.9000   75.5610 C   0  0  0  0  0  0  0  0  0  0  0  0
  128.7940  127.6960   74.0970 C   0  0  0  0  0  0  0  0  0  0  0  0
  128.8120  126.1400   71.2300 C   0  0  0  0  0  0  0  0  0  0  0  0
  128.6780  126.1570   69.8450 C   0  0  0  0  0  0  0  0  0  0  0  0
  128.6080  128.0860   66.8530 C   0  0  0  0  0  0  0  0  0  0  0  0
  128.0150  129.2520   67.5120 C   0  0  0  0  0  0  0  0  0  0  0  0
  127.5470  130.1740   68.0330 N   0  0  0  0  0  0  0  0  0  0  0  0
  131.3850  130.9710   60.7080 C   0  0  0  0  0  0  0  0  0  0  0  0
  131.7680  131.3850   59.4360 C   0  0  0  0  0  0  0  0  0  0  0  0
  128.5317  132.3853   57.3668 H   0  0  0  0  0  0  0  0  0  0  0  0
  127.5838  132.9157   55.9361 H   0  0  0  0  0  0  0  0  0  0  0  0
  128.3866  131.3088   55.9361 H   0  0  0  0  0  0  0  0  0  0  0  0
  130.2987  132.2173   55.1204 H   0  0  0  0  0  0  0  0  0  0  0  0
  129.4447  133.7894   54.9742 H   0  0  0  0  0  0  0  0  0  0  0  0
  129.2318  133.5709   58.7789 H   0  0  0  0  0  0  0  0  0  0  0  0
  128.5380  132.8249   61.0430 H   0  0  0  0  0  0  0  0  0  0  0  0
  130.2540  131.5540   63.3370 H   0  0  0  0  0  0  0  0  0  0  0  0
  129.4519  130.2425   64.9586 H   0  0  0  0  0  0  0  0  0  0  0  0
  127.8393  131.0101   64.7543 H   0  0  0  0  0  0  0  0  0  0  0  0
  129.5007  123.2902   65.9122 H   0  0  0  0  0  0  0  0  0  0  0  0
  130.4705  121.4340   64.5921 H   0  0  0  0  0  0  0  0  0  0  0  0
  130.2326  120.9415   61.5148 H   0  0  0  0  0  0  0  0  0  0  0  0
  131.3847  121.8190   60.3977 H   0  0  0  0  0  0  0  0  0  0  0  0
  131.7365  119.0042   61.5300 H   0  0  0  0  0  0  0  0  0  0  0  0
  131.3504  119.4509   59.8290 H   0  0  0  0  0  0  0  0  0  0  0  0
  133.8509  119.5547   62.4110 H   0  0  0  0  0  0  0  0  0  0  0  0
  135.0410  120.4114   61.3662 H   0  0  0  0  0  0  0  0  0  0  0  0
  133.9674  121.9147   63.0711 H   0  0  0  0  0  0  0  0  0  0  0  0
  133.6455  122.4088   61.3401 H   0  0  0  0  0  0  0  0  0  0  0  0
  132.3039  124.2916   61.9258 H   0  0  0  0  0  0  0  0  0  0  0  0
  131.3435  126.1449   63.2539 H   0  0  0  0  0  0  0  0  0  0  0  0
  130.4008  125.2300   67.4068 H   0  0  0  0  0  0  0  0  0  0  0  0
  130.8499  128.6768   69.1206 H   0  0  0  0  0  0  0  0  0  0  0  0
  131.0786  128.6557   71.5896 H   0  0  0  0  0  0  0  0  0  0  0  0
  129.4213  125.0419   73.9675 H   0  0  0  0  0  0  0  0  0  0  0  0
  131.1381  125.4047   73.4595 H   0  0  0  0  0  0  0  0  0  0  0  0
  130.8820  125.0666   75.9336 H   0  0  0  0  0  0  0  0  0  0  0  0
  131.5281  126.6827   75.4746 H   0  0  0  0  0  0  0  0  0  0  0  0
  128.4116  128.3544   76.1301 H   0  0  0  0  0  0  0  0  0  0  0  0
  130.1148  128.5612   75.5831 H   0  0  0  0  0  0  0  0  0  0  0  0
  127.8637  127.1090   74.0919 H   0  0  0  0  0  0  0  0  0  0  0  0
  128.6570  128.6945   73.6562 H   0  0  0  0  0  0  0  0  0  0  0  0
  128.2250  125.4222   71.8218 H   0  0  0  0  0  0  0  0  0  0  0  0
  127.9960  125.4469   69.3545 H   0  0  0  0  0  0  0  0  0  0  0  0
  131.9932  130.2330   61.2516 H   0  0  0  0  0  0  0  0  0  0  0  0
  132.6799  130.9708   58.9811 H   0  0  0  0  0  0  0  0  0  0  0  0
  1  2  1  0
  2  3  1  0
  3  4  1  0
  4  5  2  0
  4  6  1  0
  6  7  2  0
  7  8  1  0
  8  9  2  0
  9 10  1  0
 10 11  1  0
 11 12  2  0
 11 13  1  0
 13 14  1  0
 14 15  1  0
 15 16  2  0
 16 17  1  0
 17 18  1  0
 18 19  2  0
 19 20  1  0
 20 21  2  0
 21 22  1  0
 22 23  1  0
 23 24  1  0
 24 25  1  0
 25 26  1  0
 26 27  1  0
 21 28  1  0
 28 29  2  0
 17 30  2  0
 30 31  1  0
 31 32  1  0
 32 33  2  0
 33 34  1  0
 34 35  2  0
 35 36  1  0
 36 37  1  0
 37 38  1  0
 38 39  1  0
 39 40  1  0
 40 41  1  0
 35 42  1  0
 42 43  2  0
 31 44  2  0
 44 45  1  0
 45 46  3  0
  9 47  1  0
 47 48  2  0
 48  6  1  0
 44 15  1  0
 29 18  1  0
 43 32  1  0
 27 22  1  0
 41 36  1  0
  1 49  1  0
  1 50  1  0
  1 51  1  0
  2 52  1  0
  2 53  1  0
  7 54  1  0
  8 55  1  0
 10 56  1  0
 13 57  1  0
 13 58  1  0
 19 59  1  0
 20 60  1  0
 23 61  1  0
 23 62  1  0
 24 63  1  0
 24 64  1  0
 26 65  1  0
 26 66  1  0
 27 67  1  0
 27 68  1  0
 28 69  1  0
 29 70  1  0
 30 71  1  0
 33 72  1  0
 34 73  1  0
 37 74  1  0
 37 75  1  0
 38 76  1  0
 38 77  1  0
 40 78  1  0
 40 79  1  0
 41 80  1  0
 41 81  1  0
 42 82  1  0
 43 83  1  0
 47 84  1  0
 48 85  1  0
M  END
>  <Binding energies>  (1) 
[-10.21]

>  <Ligand effiencies>  (1) 
[-0.20836734693877554]

>  <Interactions>  (1) 
["V-A:LYS:547:CE:4950, V-A:HIS:456:CE1:4069, V-A:GLU:543:CB:4906, V-A:GLU:543:CG:4907, V-A:HIS:456:CD2:4067, V-B:GLU:543:CD:9879, V-A:GLU:543:CD:4908, V-B:HIS:456:CE1:9041, V-B:HIS:456:CD2:9039, V-B:GLU:543:CB:9877, V-B:GLU:543:CG:9878, V-A:TRP:381:CZ2:3369, V-A:TRP:381:CH2:3371, V-B:TYR:539:CD2:9845, V-B:TYR:539:CE2:9847, V-B:ALA:541:CB:9863, V-A:LEU:475:CD2:4258, V-A:ILE:369:CG2:3236, V-A:TYR:539:C:4867, V-A:TYR:539:CE2:4876, V-A:PRO:540:N:4884, V-A:MET:535:CE:4835, V-A:PRO:540:CB:4885, V-A:PRO:540:CA:4883, V-A:TYR:484:CE1:4344, V-A:GLY:454:CA:4048, V-A:ILE:369:CD1:3238, H-B:TYR:484:OH:9319, V-A:PRO:540:CD:4887, V-A:TYR:539:CZ:4877, H-A:TYR:539:N:4870, H-A:GLU:543:OE1:4909, V-A:ILE:538:CB:4862, V-A:ILE:538:CA:4860, V-A:TYR:539:CE1:4875, V-A:TYR:539:CD1:4873, V-A:ILE:538:C:4858, H-B:HIS:456:ND1:9038"]

$$$$
2b_Ghoteimi_2023
     RDKit          3D

 72 77  0  0  0  0  0  0  0  0999 V2000
  127.6970  132.3410   64.9980 N   0  0  0  0  0  0  0  0  0  0  0  0
  127.5780  131.4700   64.2460 C   0  0  0  0  0  0  0  0  0  0  0  0
  127.4260  130.3630   63.2980 C   0  0  0  0  0  0  0  0  0  0  0  0
  127.5880  129.0210   63.7260 C   0  0  0  0  0  0  0  0  0  0  0  0
  127.9140  128.6310   65.1300 C   0  0  0  0  0  0  0  0  0  0  0  0
  128.8720  127.6470   65.3830 C   0  0  0  0  0  0  0  0  0  0  0  0
  129.1790  127.2790   66.6900 C   0  0  0  0  0  0  0  0  0  0  0  0
  128.5230  127.8730   67.7800 C   0  0  0  0  0  0  0  0  0  0  0  0
  128.8230  127.5310   69.1000 N   0  0  0  0  0  0  0  0  0  0  0  0
  128.5130  126.1680   69.5770 C   0  0  0  0  0  0  0  0  0  0  0  0
  128.5350  126.0390   71.1140 C   0  0  0  0  0  0  0  0  0  0  0  0
  129.7810  126.4880   71.6250 O   0  0  0  0  0  0  0  0  0  0  0  0
  130.0250  127.8460   71.2940 C   0  0  0  0  0  0  0  0  0  0  0  0
  130.0500  128.0170   69.7610 C   0  0  0  0  0  0  0  0  0  0  0  0
  127.5620  128.8580   67.5150 C   0  0  0  0  0  0  0  0  0  0  0  0
  127.2570  129.2290   66.2090 C   0  0  0  0  0  0  0  0  0  0  0  0
  127.4290  127.9960   62.7850 C   0  0  0  0  0  0  0  0  0  0  0  0
  127.0860  128.2970   61.4640 C   0  0  0  0  0  0  0  0  0  0  0  0
  126.8750  127.2390   60.4280 C   0  0  0  0  0  0  0  0  0  0  0  0
  126.9450  127.5490   59.0650 C   0  0  0  0  0  0  0  0  0  0  0  0
  126.7660  126.5670   58.0960 C   0  0  0  0  0  0  0  0  0  0  0  0
  126.4960  125.2360   58.4520 C   0  0  0  0  0  0  0  0  0  0  0  0
  126.3440  124.2310   57.4900 N   0  0  0  0  0  0  0  0  0  0  0  0
  127.5350  123.6510   56.8370 C   0  0  0  0  0  0  0  0  0  0  0  0
  127.2110  122.8610   55.5500 C   0  0  0  0  0  0  0  0  0  0  0  0
  126.2430  121.8600   55.8250 O   0  0  0  0  0  0  0  0  0  0  0  0
  125.0320  122.4260   56.3000 C   0  0  0  0  0  0  0  0  0  0  0  0
  125.2890  123.2050   57.6070 C   0  0  0  0  0  0  0  0  0  0  0  0
  126.4340  124.9270   59.8190 C   0  0  0  0  0  0  0  0  0  0  0  0
  126.6170  125.9100   60.7880 C   0  0  0  0  0  0  0  0  0  0  0  0
  126.9300  129.5820   61.0560 N   0  0  0  0  0  0  0  0  0  0  0  0
  127.1120  130.5910   61.9400 C   0  0  0  0  0  0  0  0  0  0  0  0
  126.8720  132.2080   61.2340 S   0  0  0  0  0  0  0  0  0  0  0  0
  128.5000  132.8220   60.7060 C   0  0  0  0  0  0  0  0  0  0  0  0
  128.7550  132.5700   59.2190 C   0  0  0  0  0  0  0  0  0  0  0  0
  127.9340  131.9210   58.5680 O   0  0  0  0  0  0  0  0  0  0  0  0
  129.8990  133.0930   58.7280 N   0  0  0  0  0  0  0  0  0  0  0  0
  130.3650  133.0230   57.4230 C   0  0  0  0  0  0  0  0  0  0  0  0
  131.5430  132.3660   57.0710 C   0  0  0  0  0  0  0  0  0  0  0  0
  131.6480  132.5250   55.7090 C   0  0  0  0  0  0  0  0  0  0  0  0
  130.5870  133.2390   55.2640 O   0  0  0  0  0  0  0  0  0  0  0  0
  129.7790  133.5480   56.3600 N   0  0  0  0  0  0  0  0  0  0  0  0
  129.3880  127.1589   64.5431 H   0  0  0  0  0  0  0  0  0  0  0  0
  129.9464  126.5120   66.8713 H   0  0  0  0  0  0  0  0  0  0  0  0
  127.5105  125.8921   69.2179 H   0  0  0  0  0  0  0  0  0  0  0  0
  129.2931  125.5000   69.1831 H   0  0  0  0  0  0  0  0  0  0  0  0
  127.7257  126.6490   71.5416 H   0  0  0  0  0  0  0  0  0  0  0  0
  128.3937  124.9831   71.3880 H   0  0  0  0  0  0  0  0  0  0  0  0
  129.2273  128.4737   71.7180 H   0  0  0  0  0  0  0  0  0  0  0  0
  130.9976  128.1503   71.7080 H   0  0  0  0  0  0  0  0  0  0  0  0
  130.1709  129.0858   69.5307 H   0  0  0  0  0  0  0  0  0  0  0  0
  130.8869  127.4139   69.3792 H   0  0  0  0  0  0  0  0  0  0  0  0
  127.0408  129.3453   68.3522 H   0  0  0  0  0  0  0  0  0  0  0  0
  126.4931  129.9987   66.0244 H   0  0  0  0  0  0  0  0  0  0  0  0
  127.5749  126.9484   63.0872 H   0  0  0  0  0  0  0  0  0  0  0  0
  127.1447  128.5854   58.7551 H   0  0  0  0  0  0  0  0  0  0  0  0
  126.8372  126.8381   57.0323 H   0  0  0  0  0  0  0  0  0  0  0  0
  128.2233  124.4693   56.5788 H   0  0  0  0  0  0  0  0  0  0  0  0
  127.9792  122.9398   57.5490 H   0  0  0  0  0  0  0  0  0  0  0  0
  126.8160  123.5504   54.7892 H   0  0  0  0  0  0  0  0  0  0  0  0
  128.1296  122.3826   55.1794 H   0  0  0  0  0  0  0  0  0  0  0  0
  124.6283  123.1120   55.5407 H   0  0  0  0  0  0  0  0  0  0  0  0
  124.3100  121.6198   56.4968 H   0  0  0  0  0  0  0  0  0  0  0  0
  124.3536  123.7014   57.9048 H   0  0  0  0  0  0  0  0  0  0  0  0
  125.6333  122.4743   58.3537 H   0  0  0  0  0  0  0  0  0  0  0  0
  126.2375  123.8905   60.1307 H   0  0  0  0  0  0  0  0  0  0  0  0
  126.5581  125.6389   61.8524 H   0  0  0  0  0  0  0  0  0  0  0  0
  128.5497  133.9043   60.8960 H   0  0  0  0  0  0  0  0  0  0  0  0
  129.2681  132.2809   61.2780 H   0  0  0  0  0  0  0  0  0  0  0  0
  130.4790  133.6180   59.3670 H   0  0  0  0  0  0  0  0  0  0  0  0
  132.2381  131.8353   57.7382 H   0  0  0  0  0  0  0  0  0  0  0  0
  132.4631  132.1348   55.0818 H   0  0  0  0  0  0  0  0  0  0  0  0
  1  2  3  0
  2  3  1  0
  3  4  2  0
  4  5  1  0
  5  6  2  0
  6  7  1  0
  7  8  2  0
  8  9  1  0
  9 10  1  0
 10 11  1  0
 11 12  1  0
 12 13  1  0
 13 14  1  0
  8 15  1  0
 15 16  2  0
  4 17  1  0
 17 18  2  0
 18 19  1  0
 19 20  2  0
 20 21  1  0
 21 22  2  0
 22 23  1  0
 23 24  1  0
 24 25  1  0
 25 26  1  0
 26 27  1  0
 27 28  1  0
 22 29  1  0
 29 30  2  0
 18 31  1  0
 31 32  2  0
 32 33  1  0
 33 34  1  0
 34 35  1  0
 35 36  2  0
 35 37  1  0
 37 38  1  0
 38 39  1  0
 39 40  2  0
 40 41  1  0
 41 42  1  0
 32  3  1  0
 42 38  2  0
 16  5  1  0
 30 19  1  0
 14  9  1  0
 28 23  1  0
  6 43  1  0
  7 44  1  0
 10 45  1  0
 10 46  1  0
 11 47  1  0
 11 48  1  0
 13 49  1  0
 13 50  1  0
 14 51  1  0
 14 52  1  0
 15 53  1  0
 16 54  1  0
 17 55  1  0
 20 56  1  0
 21 57  1  0
 24 58  1  0
 24 59  1  0
 25 60  1  0
 25 61  1  0
 27 62  1  0
 27 63  1  0
 28 64  1  0
 28 65  1  0
 29 66  1  0
 30 67  1  0
 34 68  1  0
 34 69  1  0
 37 70  1  0
 39 71  1  0
 40 72  1  0
M  END
>  <Binding energies>  (1) 
[-10.98]

>  <Ligand effiencies>  (1) 
[-0.25534883720930235]

>  <Interactions>  (1) 
["V-A:HIS:456:CE1:4069, V-A:GLU:543:CB:4906, V-A:GLU:543:CG:4907, V-B:GLU:543:CD:9879, V-A:GLU:543:CD:4908, V-B:HIS:456:CE1:9041, V-B:GLU:543:CB:9877, V-B:MET:535:CE:9806, V-B:ASP:366:CG:8184, V-B:LEU:363:CD1:8160, V-B:PRO:540:CA:9854, V-B:PRO:540:N:9855, V-B:TYR:539:CE1:9846, V-B:PRO:540:CB:9856, H-B:TYR:539:N:9841, V-B:TYR:539:CZ:9848, V-B:PRO:540:CD:9858, V-A:TYR:539:CD2:4874, V-A:TYR:539:C:4867, V-A:TYR:539:CE2:4876, V-A:PRO:540:N:4884, V-B:TYR:539:CD1:9844, V-A:LEU:363:CD1:3188, V-A:PRO:540:CA:4883, H-A:TYR:539:N:4870, V-A:ILE:538:CB:4862, V-A:ILE:538:CA:4860, V-A:ILE:538:CG2:4863, V-A:TYR:539:CA:4869, H-A:TYR:539:O:4868"]

$$$$
2b_Grossjean_2025
     RDKit          3D

 42 43  0  0  0  0  0  0  0  0999 V2000
  124.8000  124.2340   57.5800 C   0  0  0  0  0  0  0  0  0  0  0  0
  125.1370  122.8950   57.2440 O   0  0  0  0  0  0  0  0  0  0  0  0
  126.3700  122.5820   56.7700 C   0  0  0  0  0  0  0  0  0  0  0  0
  126.5590  121.9860   55.7050 O   0  0  0  0  0  0  0  0  0  0  0  0
  127.4830  123.0290   57.6730 C   0  0  0  0  0  0  0  0  0  0  0  0
  128.3430  124.0810   57.3260 C   0  0  0  0  0  0  0  0  0  0  0  0
  129.3670  124.4700   58.1850 C   0  0  0  0  0  0  0  0  0  0  0  0
  129.5490  123.8240   59.4070 C   0  0  0  0  0  0  0  0  0  0  0  0
  130.6170  124.2930   60.1960 N   0  0  0  0  0  0  0  0  0  0  0  0
  131.8610  124.6670   59.8280 C   0  0  0  0  0  0  0  0  0  0  0  0
  132.3040  124.6360   58.6790 O   0  0  0  0  0  0  0  0  0  0  0  0
  132.7630  125.1460   60.9690 C   0  0  0  0  0  0  0  0  0  0  0  0
  132.9940  123.8930   62.2740 S   0  0  0  0  0  0  0  0  0  0  0  0
  132.7390  124.6320   63.8810 C   0  0  0  0  0  0  0  0  0  0  0  0
  133.8450  124.7470   64.6590 N   0  0  0  0  0  0  0  0  0  0  0  0
  133.7250  125.2920   65.8900 C   0  0  0  0  0  0  0  0  0  0  0  0
  135.0050  125.3730   66.7010 C   0  0  0  0  0  0  0  0  0  0  0  0
  132.5110  125.7510   66.3930 C   0  0  0  0  0  0  0  0  0  0  0  0
  131.3550  125.6490   65.6040 C   0  0  0  0  0  0  0  0  0  0  0  0
  130.0210  126.1660   66.1740 C   0  0  0  0  0  0  0  0  0  0  0  0
  129.4670  127.0330   65.3250 F   0  0  0  0  0  0  0  0  0  0  0  0
  129.1780  125.1480   66.3630 F   0  0  0  0  0  0  0  0  0  0  0  0
  130.1650  126.7880   67.3460 F   0  0  0  0  0  0  0  0  0  0  0  0
  131.4660  125.0730   64.3130 C   0  0  0  0  0  0  0  0  0  0  0  0
  130.2900  124.9360   63.4480 C   0  0  0  0  0  0  0  0  0  0  0  0
  129.3620  124.8290   62.7650 N   0  0  0  0  0  0  0  0  0  0  0  0
  128.6980  122.7650   59.7590 C   0  0  0  0  0  0  0  0  0  0  0  0
  127.6760  122.3770   58.8980 C   0  0  0  0  0  0  0  0  0  0  0  0
  124.7729  124.3417   58.6744 H   0  0  0  0  0  0  0  0  0  0  0  0
  125.5541  124.9176   57.1629 H   0  0  0  0  0  0  0  0  0  0  0  0
  123.8121  124.4792   57.1629 H   0  0  0  0  0  0  0  0  0  0  0  0
  128.2073  124.6030   56.3673 H   0  0  0  0  0  0  0  0  0  0  0  0
  130.0376  125.2932   57.8975 H   0  0  0  0  0  0  0  0  0  0  0  0
  130.4270  124.3010   61.1870 H   0  0  0  0  0  0  0  0  0  0  0  0
  133.7480  125.4028   60.5521 H   0  0  0  0  0  0  0  0  0  0  0  0
  132.2721  126.0147   61.4321 H   0  0  0  0  0  0  0  0  0  0  0  0
  134.7611  125.3576   67.7735 H   0  0  0  0  0  0  0  0  0  0  0  0
  135.6476  124.5137   66.4587 H   0  0  0  0  0  0  0  0  0  0  0  0
  135.5341  126.3064   66.4587 H   0  0  0  0  0  0  0  0  0  0  0  0
  132.4582  126.1899   67.4003 H   0  0  0  0  0  0  0  0  0  0  0  0
  128.8390  122.2414   60.7161 H   0  0  0  0  0  0  0  0  0  0  0  0
  127.0113  121.5480   59.1827 H   0  0  0  0  0  0  0  0  0  0  0  0
  1  2  1  0
  2  3  1  0
  3  4  2  0
  3  5  1  0
  5  6  2  0
  6  7  1  0
  7  8  2  0
  8  9  1  0
  9 10  1  0
 10 11  2  0
 10 12  1  0
 12 13  1  0
 13 14  1  0
 14 15  2  0
 15 16  1  0
 16 17  1  0
 16 18  2  0
 18 19  1  0
 19 20  1  0
 20 21  1  0
 20 22  1  0
 20 23  1  0
 19 24  2  0
 24 25  1  0
 25 26  3  0
  8 27  1  0
 27 28  2  0
 28  5  1  0
 24 14  1  0
  1 29  1  0
  1 30  1  0
  1 31  1  0
  6 32  1  0
  7 33  1  0
  9 34  1  0
 12 35  1  0
 12 36  1  0
 17 37  1  0
 17 38  1  0
 17 39  1  0
 18 40  1  0
 27 41  1  0
 28 42  1  0
M  END
>  <Binding energies>  (1) 
[-7.12]

>  <Ligand effiencies>  (1) 
[-0.24551724137931036]

>  <Interactions>  (1) 
["V-A:HIS:456:CE1:4069, V-B:GLU:543:CD:9879, V-A:GLU:543:CD:4908, V-B:GLU:543:CB:9877, V-B:GLU:543:CG:9878, V-B:LEU:363:CD1:8160, V-B:TYR:539:CD2:9845, V-B:PRO:540:CA:9854, V-B:TYR:539:CE2:9847, V-B:PRO:540:N:9855, V-B:TYR:539:CE1:9846, H-B:TYR:539:N:9841, V-B:TYR:539:CZ:9848, V-B:TYR:539:C:9838, V-B:PRO:540:CD:9858, V-A:ARG:545:CZ:4926, H-B:TYR:539:OH:9849, H-A:GLY:454:N:4049, V-A:ASP:366:CG:3212, H-A:TYR:484:OH:4347, V-A:GLY:454:CA:4048, V-A:ARG:545:CD:4923, V-A:ILE:455:C:4051, V-A:ARG:545:CG:4922, V-A:GLY:453:C:4041, V-A:GLY:453:CA:4043"]

$$$$
2c_Ghoteimi_2023
     RDKit          3D

 72 77  0  0  0  0  0  0  0  0999 V2000
  127.7260  132.4340   64.9420 N   0  0  0  0  0  0  0  0  0  0  0  0
  127.5990  131.5530   64.2040 C   0  0  0  0  0  0  0  0  0  0  0  0
  127.4370  130.4320   63.2720 C   0  0  0  0  0  0  0  0  0  0  0  0
  127.5720  129.0950   63.7220 C   0  0  0  0  0  0  0  0  0  0  0  0
  127.8830  128.7190   65.1340 C   0  0  0  0  0  0  0  0  0  0  0  0
  128.8290  127.7290   65.4050 C   0  0  0  0  0  0  0  0  0  0  0  0
  129.1280  127.3770   66.7190 C   0  0  0  0  0  0  0  0  0  0  0  0
  128.4770  127.9950   67.7980 C   0  0  0  0  0  0  0  0  0  0  0  0
  128.7750  127.6710   69.1240 N   0  0  0  0  0  0  0  0  0  0  0  0
  128.6570  126.2680   69.5690 C   0  0  0  0  0  0  0  0  0  0  0  0
  128.6340  126.1170   71.1050 C   0  0  0  0  0  0  0  0  0  0  0  0
  129.7790  126.7330   71.6720 O   0  0  0  0  0  0  0  0  0  0  0  0
  129.8320  128.1190   71.3710 C   0  0  0  0  0  0  0  0  0  0  0  0
  129.8870  128.3240   69.8430 C   0  0  0  0  0  0  0  0  0  0  0  0
  127.5250  128.9850   67.5150 C   0  0  0  0  0  0  0  0  0  0  0  0
  127.2290  129.3390   66.2020 C   0  0  0  0  0  0  0  0  0  0  0  0
  127.4050  128.0590   62.7930 C   0  0  0  0  0  0  0  0  0  0  0  0
  127.0860  128.3460   61.4620 C   0  0  0  0  0  0  0  0  0  0  0  0
  126.8810  127.2770   60.4380 C   0  0  0  0  0  0  0  0  0  0  0  0
  126.8790  127.5850   59.0740 C   0  0  0  0  0  0  0  0  0  0  0  0
  126.6940  126.5930   58.1140 C   0  0  0  0  0  0  0  0  0  0  0  0
  126.4920  125.2540   58.4850 C   0  0  0  0  0  0  0  0  0  0  0  0
  126.3290  124.2420   57.5340 N   0  0  0  0  0  0  0  0  0  0  0  0
  127.5130  123.6600   56.8690 C   0  0  0  0  0  0  0  0  0  0  0  0
  127.1760  122.8540   55.5960 C   0  0  0  0  0  0  0  0  0  0  0  0
  126.2220  121.8490   55.8970 O   0  0  0  0  0  0  0  0  0  0  0  0
  125.0140  122.4090   56.3860 C   0  0  0  0  0  0  0  0  0  0  0  0
  125.2850  123.2060   57.6800 C   0  0  0  0  0  0  0  0  0  0  0  0
  126.5080  124.9470   59.8530 C   0  0  0  0  0  0  0  0  0  0  0  0
  126.6950  125.9400   60.8120 C   0  0  0  0  0  0  0  0  0  0  0  0
  126.9560  129.6280   61.0350 N   0  0  0  0  0  0  0  0  0  0  0  0
  127.1440  130.6470   61.9060 C   0  0  0  0  0  0  0  0  0  0  0  0
  126.9450  132.2560   61.1740 S   0  0  0  0  0  0  0  0  0  0  0  0
  128.5840  132.8040   60.6090 C   0  0  0  0  0  0  0  0  0  0  0  0
  128.8550  132.4010   59.1580 C   0  0  0  0  0  0  0  0  0  0  0  0
  128.1020  131.6000   58.6030 O   0  0  0  0  0  0  0  0  0  0  0  0
  129.9380  132.9730   58.5880 N   0  0  0  0  0  0  0  0  0  0  0  0
  130.3850  132.7870   57.2880 C   0  0  0  0  0  0  0  0  0  0  0  0
  129.8510  133.2430   56.1770 N   0  0  0  0  0  0  0  0  0  0  0  0
  130.5460  132.8780   55.1180 C   0  0  0  0  0  0  0  0  0  0  0  0
  131.6770  132.1050   55.3620 C   0  0  0  0  0  0  0  0  0  0  0  0
  131.8280  131.8480   57.0750 S   0  0  0  0  0  0  0  0  0  0  0  0
  129.3424  127.2228   64.5742 H   0  0  0  0  0  0  0  0  0  0  0  0
  129.8853  126.6034   66.9140 H   0  0  0  0  0  0  0  0  0  0  0  0
  127.7244  125.8496   69.1626 H   0  0  0  0  0  0  0  0  0  0  0  0
  129.5448  125.7327   69.2012 H   0  0  0  0  0  0  0  0  0  0  0  0
  127.7278  126.5960   71.5042 H   0  0  0  0  0  0  0  0  0  0  0  0
  128.6359  125.0474   71.3619 H   0  0  0  0  0  0  0  0  0  0  0  0
  128.9357  128.6139   71.7731 H   0  0  0  0  0  0  0  0  0  0  0  0
  130.7337  128.5538   71.8269 H   0  0  0  0  0  0  0  0  0  0  0  0
  129.8511  129.4034   69.6344 H   0  0  0  0  0  0  0  0  0  0  0  0
  130.8199  127.8628   69.4866 H   0  0  0  0  0  0  0  0  0  0  0  0
  127.0047  129.4891   68.3428 H   0  0  0  0  0  0  0  0  0  0  0  0
  126.4737  130.1136   66.0032 H   0  0  0  0  0  0  0  0  0  0  0  0
  127.5256  127.0135   63.1128 H   0  0  0  0  0  0  0  0  0  0  0  0
  127.0259  128.6272   58.7542 H   0  0  0  0  0  0  0  0  0  0  0  0
  126.7063  126.8630   57.0477 H   0  0  0  0  0  0  0  0  0  0  0  0
  128.1932  124.4788   56.5917 H   0  0  0  0  0  0  0  0  0  0  0  0
  127.9700  122.9583   57.5823 H   0  0  0  0  0  0  0  0  0  0  0  0
  126.7632  123.5318   54.8343 H   0  0  0  0  0  0  0  0  0  0  0  0
  128.0927  122.3796   55.2156 H   0  0  0  0  0  0  0  0  0  0  0  0
  124.5910  123.0822   55.6258 H   0  0  0  0  0  0  0  0  0  0  0  0
  124.3035  121.5981   56.6045 H   0  0  0  0  0  0  0  0  0  0  0  0
  124.3498  123.6968   57.9875 H   0  0  0  0  0  0  0  0  0  0  0  0
  125.6489  122.4873   58.4291 H   0  0  0  0  0  0  0  0  0  0  0  0
  126.3705  123.9041   60.1745 H   0  0  0  0  0  0  0  0  0  0  0  0
  126.6966  125.6702   61.8784 H   0  0  0  0  0  0  0  0  0  0  0  0
  128.6392  133.8997   60.6894 H   0  0  0  0  0  0  0  0  0  0  0  0
  129.3412  132.3196   61.2430 H   0  0  0  0  0  0  0  0  0  0  0  0
  130.4720  133.6230   59.1470 H   0  0  0  0  0  0  0  0  0  0  0  0
  130.2488  133.1680   54.0994 H   0  0  0  0  0  0  0  0  0  0  0  0
  132.3645  131.7189   54.5950 H   0  0  0  0  0  0  0  0  0  0  0  0
  1  2  3  0
  2  3  1  0
  3  4  2  0
  4  5  1  0
  5  6  2  0
  6  7  1  0
  7  8  2  0
  8  9  1  0
  9 10  1  0
 10 11  1  0
 11 12  1  0
 12 13  1  0
 13 14  1  0
  8 15  1  0
 15 16  2  0
  4 17  1  0
 17 18  2  0
 18 19  1  0
 19 20  2  0
 20 21  1  0
 21 22  2  0
 22 23  1  0
 23 24  1  0
 24 25  1  0
 25 26  1  0
 26 27  1  0
 27 28  1  0
 22 29  1  0
 29 30  2  0
 18 31  1  0
 31 32  2  0
 32 33  1  0
 33 34  1  0
 34 35  1  0
 35 36  2  0
 35 37  1  0
 37 38  1  0
 38 39  2  0
 39 40  1  0
 40 41  2  0
 41 42  1  0
 32  3  1  0
 42 38  1  0
 16  5  1  0
 30 19  1  0
 14  9  1  0
 28 23  1  0
  6 43  1  0
  7 44  1  0
 10 45  1  0
 10 46  1  0
 11 47  1  0
 11 48  1  0
 13 49  1  0
 13 50  1  0
 14 51  1  0
 14 52  1  0
 15 53  1  0
 16 54  1  0
 17 55  1  0
 20 56  1  0
 21 57  1  0
 24 58  1  0
 24 59  1  0
 25 60  1  0
 25 61  1  0
 27 62  1  0
 27 63  1  0
 28 64  1  0
 28 65  1  0
 29 66  1  0
 30 67  1  0
 34 68  1  0
 34 69  1  0
 37 70  1  0
 40 71  1  0
 41 72  1  0
M  END
>  <Binding energies>  (1) 
[-10.75]

>  <Ligand effiencies>  (1) 
[-0.25]

>  <Interactions>  (1) 
["V-A:HIS:456:CE1:4069, V-A:GLU:543:CB:4906, V-A:GLU:543:CG:4907, V-B:GLU:543:CD:9879, V-A:GLU:543:CD:4908, V-B:HIS:456:CE1:9041, V-B:GLU:543:CB:9877, V-B:MET:535:CE:9806, V-B:ASP:366:CG:8184, V-B:LEU:363:CD1:8160, V-B:PRO:540:CA:9854, V-B:PRO:540:N:9855, V-B:TYR:539:CE1:9846, V-B:PRO:540:CB:9856, H-B:TYR:539:N:9841, V-B:TYR:539:CZ:9848, V-B:PRO:540:CD:9858, V-A:TYR:539:C:4867, V-A:PRO:540:N:4884, V-A:MET:535:CE:4835, V-B:TYR:539:CD1:9844, V-A:LEU:363:CD1:3188, V-A:TYR:531:CE2:4793, V-A:PRO:540:CA:4883, H-A:TYR:539:N:4870, V-A:ILE:538:CB:4862, V-A:ILE:538:CA:4860, V-A:ILE:538:CG2:4863, V-A:ILE:538:C:4858, H-A:TYR:539:O:4868"]

$$$$
2c_Grossjean_2025
     RDKit          3D

 40 41  0  0  0  0  0  0  0  0999 V2000
  125.7690  122.8460   55.9200 C   0  0  0  0  0  0  0  0  0  0  0  0
  126.6600  122.0150   56.6570 O   0  0  0  0  0  0  0  0  0  0  0  0
  127.5750  122.5990   57.5110 C   0  0  0  0  0  0  0  0  0  0  0  0
  128.1380  123.8040   57.0900 C   0  0  0  0  0  0  0  0  0  0  0  0
  129.0720  124.4680   57.8820 C   0  0  0  0  0  0  0  0  0  0  0  0
  129.4630  123.9190   59.1110 C   0  0  0  0  0  0  0  0  0  0  0  0
  130.3840  124.5240   59.9860 N   0  0  0  0  0  0  0  0  0  0  0  0
  131.6290  124.9740   59.7190 C   0  0  0  0  0  0  0  0  0  0  0  0
  132.1940  124.8690   58.6290 O   0  0  0  0  0  0  0  0  0  0  0  0
  132.3530  125.6180   60.9110 C   0  0  0  0  0  0  0  0  0  0  0  0
  133.1680  124.4520   62.0580 S   0  0  0  0  0  0  0  0  0  0  0  0
  132.8640  124.9670   63.7440 C   0  0  0  0  0  0  0  0  0  0  0  0
  133.9550  125.0040   64.5530 N   0  0  0  0  0  0  0  0  0  0  0  0
  133.7990  125.3750   65.8420 C   0  0  0  0  0  0  0  0  0  0  0  0
  135.0610  125.3750   66.6840 C   0  0  0  0  0  0  0  0  0  0  0  0
  132.5640  125.7320   66.3770 C   0  0  0  0  0  0  0  0  0  0  0  0
  131.4250  125.7090   65.5590 C   0  0  0  0  0  0  0  0  0  0  0  0
  130.0660  126.1080   66.1660 C   0  0  0  0  0  0  0  0  0  0  0  0
  129.4810  127.0340   65.4050 F   0  0  0  0  0  0  0  0  0  0  0  0
  129.2670  125.0420   66.2410 F   0  0  0  0  0  0  0  0  0  0  0  0
  130.1790  126.6130   67.3970 F   0  0  0  0  0  0  0  0  0  0  0  0
  131.5730  125.3160   64.2050 C   0  0  0  0  0  0  0  0  0  0  0  0
  130.4160  125.2710   63.3040 C   0  0  0  0  0  0  0  0  0  0  0  0
  129.5030  125.2360   62.5940 N   0  0  0  0  0  0  0  0  0  0  0  0
  128.8920  122.7210   59.5440 C   0  0  0  0  0  0  0  0  0  0  0  0
  127.9580  122.0610   58.7500 C   0  0  0  0  0  0  0  0  0  0  0  0
  125.1470  123.4261   56.6176 H   0  0  0  0  0  0  0  0  0  0  0  0
  126.3484  123.5337   55.2865 H   0  0  0  0  0  0  0  0  0  0  0  0
  125.1233  122.2201   55.2865 H   0  0  0  0  0  0  0  0  0  0  0  0
  127.8412  124.2344   56.1222 H   0  0  0  0  0  0  0  0  0  0  0  0
  129.5022  125.4221   57.5433 H   0  0  0  0  0  0  0  0  0  0  0  0
  130.0860  124.5650   60.9500 H   0  0  0  0  0  0  0  0  0  0  0  0
  133.1223  126.2967   60.5141 H   0  0  0  0  0  0  0  0  0  0  0  0
  131.5746  126.1264   61.4989 H   0  0  0  0  0  0  0  0  0  0  0  0
  135.3660  124.3379   66.8875 H   0  0  0  0  0  0  0  0  0  0  0  0
  135.8645  125.8935   66.1404 H   0  0  0  0  0  0  0  0  0  0  0  0
  134.8675  125.8935   67.6346 H   0  0  0  0  0  0  0  0  0  0  0  0
  132.4824  126.0297   67.4328 H   0  0  0  0  0  0  0  0  0  0  0  0
  129.1813  122.2966   60.5167 H   0  0  0  0  0  0  0  0  0  0  0  0
  127.5181  121.1137   59.0950 H   0  0  0  0  0  0  0  0  0  0  0  0
  1  2  1  0
  2  3  1  0
  3  4  2  0
  4  5  1  0
  5  6  2  0
  6  7  1  0
  7  8  1  0
  8  9  2  0
  8 10  1  0
 10 11  1  0
 11 12  1  0
 12 13  2  0
 13 14  1  0
 14 15  1  0
 14 16  2  0
 16 17  1  0
 17 18  1  0
 18 19  1  0
 18 20  1  0
 18 21  1  0
 17 22  2  0
 22 23  1  0
 23 24  3  0
  6 25  1  0
 25 26  2  0
 26  3  1  0
 22 12  1  0
  1 27  1  0
  1 28  1  0
  1 29  1  0
  4 30  1  0
  5 31  1  0
  7 32  1  0
 10 33  1  0
 10 34  1  0
 15 35  1  0
 15 36  1  0
 15 37  1  0
 16 38  1  0
 25 39  1  0
 26 40  1  0
M  END
>  <Binding energies>  (1) 
[-6.37]

>  <Ligand effiencies>  (1) 
[-0.23592592592592593]

>  <Interactions>  (1) 
["V-A:HIS:456:CE1:4069, V-B:GLU:543:CD:9879, V-A:GLU:543:CD:4908, V-B:GLU:543:CB:9877, V-B:GLU:543:CG:9878, V-B:MET:535:CE:9806, V-B:LEU:363:CD1:8160, V-B:TYR:539:CD2:9845, V-B:PRO:540:CA:9854, V-B:TYR:539:CE2:9847, V-B:PRO:540:N:9855, V-B:TYR:539:CE1:9846, H-B:TYR:539:N:9841, V-B:TYR:539:CZ:9848, V-A:ASP:366:CB:3211, V-B:TYR:539:C:9838, V-A:ARG:545:CZ:4926, H-B:TYR:539:OH:9849, V-B:TYR:539:CD1:9844, H-A:GLY:454:N:4049, V-A:ASP:366:CG:3212, V-B:TYR:539:CG:9843, V-A:GLY:454:CA:4048, H-A:ARG:545:NH1:4927, V-A:ARG:545:CD:4923, V-A:ILE:455:C:4051, V-A:ARG:545:CG:4922, V-A:GLY:453:C:4041, V-A:GLY:453:CA:4043"]

$$$$
2d_Ghoteimi_2023
     RDKit          3D

 68 72  0  0  0  0  0  0  0  0999 V2000
  124.3100  130.2030   63.5960 C   0  0  0  0  0  0  0  0  0  0  0  0
  123.8000  129.8970   64.8840 O   0  0  0  0  0  0  0  0  0  0  0  0
  124.6330  129.7520   65.9350 C   0  0  0  0  0  0  0  0  0  0  0  0
  124.3080  129.8300   67.1240 O   0  0  0  0  0  0  0  0  0  0  0  0
  126.0700  129.4650   65.4730 C   0  0  0  0  0  0  0  0  0  0  0  0
  127.2770  129.8540   66.7860 S   0  0  0  0  0  0  0  0  0  0  0  0
  128.2230  128.3850   67.1300 C   0  0  0  0  0  0  0  0  0  0  0  0
  128.3320  128.1160   68.4540 N   0  0  0  0  0  0  0  0  0  0  0  0
  129.0330  127.0280   68.8620 C   0  0  0  0  0  0  0  0  0  0  0  0
  129.1240  126.8060   70.3380 C   0  0  0  0  0  0  0  0  0  0  0  0
  129.8980  127.6530   71.1390 C   0  0  0  0  0  0  0  0  0  0  0  0
  129.9880  127.4520   72.5140 C   0  0  0  0  0  0  0  0  0  0  0  0
  129.2970  126.4030   73.1390 C   0  0  0  0  0  0  0  0  0  0  0  0
  129.3900  126.1760   74.5170 N   0  0  0  0  0  0  0  0  0  0  0  0
  130.2890  125.1440   75.0700 C   0  0  0  0  0  0  0  0  0  0  0  0
  129.9870  124.7860   76.5400 C   0  0  0  0  0  0  0  0  0  0  0  0
  130.0120  125.9580   77.3390 O   0  0  0  0  0  0  0  0  0  0  0  0
  129.0410  126.8990   76.9140 C   0  0  0  0  0  0  0  0  0  0  0  0
  129.3100  127.3160   75.4530 C   0  0  0  0  0  0  0  0  0  0  0  0
  128.5340  125.5490   72.3300 C   0  0  0  0  0  0  0  0  0  0  0  0
  128.4460  125.7480   70.9560 C   0  0  0  0  0  0  0  0  0  0  0  0
  129.6430  126.1750   67.9390 C   0  0  0  0  0  0  0  0  0  0  0  0
  129.5180  126.4110   66.5640 C   0  0  0  0  0  0  0  0  0  0  0  0
  130.1730  125.4430   65.6350 C   0  0  0  0  0  0  0  0  0  0  0  0
  129.8280  124.0910   65.6730 C   0  0  0  0  0  0  0  0  0  0  0  0
  130.4230  123.1810   64.8030 C   0  0  0  0  0  0  0  0  0  0  0  0
  131.3860  123.6000   63.8700 C   0  0  0  0  0  0  0  0  0  0  0  0
  131.9870  122.7070   62.9790 N   0  0  0  0  0  0  0  0  0  0  0  0
  131.1810  121.8490   62.0890 C   0  0  0  0  0  0  0  0  0  0  0  0
  131.9980  121.2090   60.9460 C   0  0  0  0  0  0  0  0  0  0  0  0
  133.1010  120.4930   61.4790 O   0  0  0  0  0  0  0  0  0  0  0  0
  133.9670  121.3390   62.2200 C   0  0  0  0  0  0  0  0  0  0  0  0
  133.2000  121.9790   63.3980 C   0  0  0  0  0  0  0  0  0  0  0  0
  131.7130  124.9620   63.8280 C   0  0  0  0  0  0  0  0  0  0  0  0
  131.1170  125.8710   64.6970 C   0  0  0  0  0  0  0  0  0  0  0  0
  128.7830  127.5460   66.1380 C   0  0  0  0  0  0  0  0  0  0  0  0
  128.6070  127.8250   64.7100 C   0  0  0  0  0  0  0  0  0  0  0  0
  128.4710  128.0410   63.5810 N   0  0  0  0  0  0  0  0  0  0  0  0
  125.2492  130.7665   63.6979 H   0  0  0  0  0  0  0  0  0  0  0  0
  124.5002  129.2697   63.0457 H   0  0  0  0  0  0  0  0  0  0  0  0
  123.5760  130.8100   63.0457 H   0  0  0  0  0  0  0  0  0  0  0  0
  126.1564  128.4003   65.2105 H   0  0  0  0  0  0  0  0  0  0  0  0
  126.2882  130.0990   64.6010 H   0  0  0  0  0  0  0  0  0  0  0  0
  130.4428  128.4890   70.6762 H   0  0  0  0  0  0  0  0  0  0  0  0
  130.6109  128.1265   73.1199 H   0  0  0  0  0  0  0  0  0  0  0  0
  130.1880  124.2327   74.4622 H   0  0  0  0  0  0  0  0  0  0  0  0
  131.3089  125.5550   75.0408 H   0  0  0  0  0  0  0  0  0  0  0  0
  128.9919  124.3218   76.6050 H   0  0  0  0  0  0  0  0  0  0  0  0
  130.7505  124.0833   76.9051 H   0  0  0  0  0  0  0  0  0  0  0  0
  128.0408  126.4468   76.9849 H   0  0  0  0  0  0  0  0  0  0  0  0
  129.0962  127.7889   77.5582 H   0  0  0  0  0  0  0  0  0  0  0  0
  128.4955  127.9785   75.1250 H   0  0  0  0  0  0  0  0  0  0  0  0
  130.2895  127.8164   75.4358 H   0  0  0  0  0  0  0  0  0  0  0  0
  127.9957  124.7071   72.7897 H   0  0  0  0  0  0  0  0  0  0  0  0
  127.8356  125.0651   70.3468 H   0  0  0  0  0  0  0  0  0  0  0  0
  130.2254  125.3122   68.2945 H   0  0  0  0  0  0  0  0  0  0  0  0
  129.0783  123.7408   66.3978 H   0  0  0  0  0  0  0  0  0  0  0  0
  130.1352  122.1202   64.8469 H   0  0  0  0  0  0  0  0  0  0  0  0
  130.7350  121.0439   62.6915 H   0  0  0  0  0  0  0  0  0  0  0  0
  130.4195  122.4913   61.6225 H   0  0  0  0  0  0  0  0  0  0  0  0
  131.3546  120.5187   60.3807 H   0  0  0  0  0  0  0  0  0  0  0  0
  132.3701  122.0020   60.2806 H   0  0  0  0  0  0  0  0  0  0  0  0
  134.8075  120.7470   62.6113 H   0  0  0  0  0  0  0  0  0  0  0  0
  134.3455  122.1343   61.5611 H   0  0  0  0  0  0  0  0  0  0  0  0
  132.9049  121.1820   64.0964 H   0  0  0  0  0  0  0  0  0  0  0  0
  133.8741  122.7118   63.8655 H   0  0  0  0  0  0  0  0  0  0  0  0
  132.4529  125.3184   63.0962 H   0  0  0  0  0  0  0  0  0  0  0  0
  131.3910  126.9351   64.6454 H   0  0  0  0  0  0  0  0  0  0  0  0
  1  2  1  0
  2  3  1  0
  3  4  2  0
  3  5  1  0
  5  6  1  0
  6  7  1  0
  7  8  2  0
  8  9  1  0
  9 10  1  0
 10 11  2  0
 11 12  1  0
 12 13  2  0
 13 14  1  0
 14 15  1  0
 15 16  1  0
 16 17  1  0
 17 18  1  0
 18 19  1  0
 13 20  1  0
 20 21  2  0
  9 22  2  0
 22 23  1  0
 23 24  1  0
 24 25  2  0
 25 26  1  0
 26 27  2  0
 27 28  1  0
 28 29  1  0
 29 30  1  0
 30 31  1  0
 31 32  1  0
 32 33  1  0
 27 34  1  0
 34 35  2  0
 23 36  2  0
 36 37  1  0
 37 38  3  0
 36  7  1  0
 21 10  1  0
 35 24  1  0
 19 14  1  0
 33 28  1  0
  1 39  1  0
  1 40  1  0
  1 41  1  0
  5 42  1  0
  5 43  1  0
 11 44  1  0
 12 45  1  0
 15 46  1  0
 15 47  1  0
 16 48  1  0
 16 49  1  0
 18 50  1  0
 18 51  1  0
 19 52  1  0
 19 53  1  0
 20 54  1  0
 21 55  1  0
 22 56  1  0
 25 57  1  0
 26 58  1  0
 29 59  1  0
 29 60  1  0
 30 61  1  0
 30 62  1  0
 32 63  1  0
 32 64  1  0
 33 65  1  0
 33 66  1  0
 34 67  1  0
 35 68  1  0
M  END
>  <Binding energies>  (1) 
[-8.57]

>  <Ligand effiencies>  (1) 
[-0.22552631578947369]

>  <Interactions>  (1) 
["V-A:HIS:456:CE1:4069, V-A:GLU:543:CG:4907, V-A:HIS:456:CD2:4067, V-B:GLU:543:CD:9879, V-A:GLU:543:CD:4908, V-B:HIS:456:CE1:9041, V-B:LYS:547:CE:9921, V-B:GLU:543:CB:9877, V-B:GLU:543:CG:9878, V-B:TYR:539:CD2:9845, V-B:TYR:539:CE2:9847, V-B:ALA:541:CB:9863, V-A:LEU:475:CD2:4258, V-A:ILE:369:CG2:3236, V-A:TYR:484:CE1:4344, V-A:GLY:454:CA:4048, V-A:ILE:369:CD1:3238, H-B:TYR:484:OH:9319, H-B:ARG:545:NE:9895, H-B:GLY:454:N:9021, H-B:ARG:545:NH2:9899, V-B:ARG:545:CZ:9897, V-B:ARG:545:CD:9894, H-B:ARG:545:NH1:9898"]

$$$$
2d_Grossjean_2025
     RDKit          3D

 36 37  0  0  0  0  0  0  0  0999 V2000
  126.6870  128.2260   58.8090 C   0  0  0  0  0  0  0  0  0  0  0  0
  126.5760  126.8740   58.1280 C   0  0  0  0  0  0  0  0  0  0  0  0
  127.4900  126.4680   57.1590 C   0  0  0  0  0  0  0  0  0  0  0  0
  127.3480  125.2070   56.5630 C   0  0  0  0  0  0  0  0  0  0  0  0
  128.3750  124.7710   55.4990 C   0  0  0  0  0  0  0  0  0  0  0  0
  129.4770  124.3100   56.0920 F   0  0  0  0  0  0  0  0  0  0  0  0
  127.8600  123.8060   54.7350 F   0  0  0  0  0  0  0  0  0  0  0  0
  128.7400  125.7690   54.6930 F   0  0  0  0  0  0  0  0  0  0  0  0
  126.2640  124.3850   56.9650 C   0  0  0  0  0  0  0  0  0  0  0  0
  126.0980  123.0400   56.4060 C   0  0  0  0  0  0  0  0  0  0  0  0
  125.9690  121.9780   55.9650 N   0  0  0  0  0  0  0  0  0  0  0  0
  125.3710  124.8910   57.9390 C   0  0  0  0  0  0  0  0  0  0  0  0
  123.9430  124.0060   58.5350 S   0  0  0  0  0  0  0  0  0  0  0  0
  123.8740  124.1600   60.3500 C   0  0  0  0  0  0  0  0  0  0  0  0
  125.0590  123.4920   61.0530 C   0  0  0  0  0  0  0  0  0  0  0  0
  124.8460  122.7570   62.0190 O   0  0  0  0  0  0  0  0  0  0  0  0
  126.2780  123.7970   60.5600 N   0  0  0  0  0  0  0  0  0  0  0  0
  127.5440  123.3470   60.9800 C   0  0  0  0  0  0  0  0  0  0  0  0
  128.2350  122.5340   60.0780 C   0  0  0  0  0  0  0  0  0  0  0  0
  129.4930  122.0350   60.4050 C   0  0  0  0  0  0  0  0  0  0  0  0
  130.0570  122.3430   61.6410 C   0  0  0  0  0  0  0  0  0  0  0  0
  129.3720  123.1420   62.5530 C   0  0  0  0  0  0  0  0  0  0  0  0
  128.1150  123.6430   62.2290 C   0  0  0  0  0  0  0  0  0  0  0  0
  125.5360  126.1040   58.5200 N   0  0  0  0  0  0  0  0  0  0  0  0
  126.6757  128.0889   59.9004 H   0  0  0  0  0  0  0  0  0  0  0  0
  127.6280  128.7110   58.5101 H   0  0  0  0  0  0  0  0  0  0  0  0
  125.8377  128.8580   58.5101 H   0  0  0  0  0  0  0  0  0  0  0  0
  128.3165  127.1311   56.8637 H   0  0  0  0  0  0  0  0  0  0  0  0
  123.8686  125.2286   60.6111 H   0  0  0  0  0  0  0  0  0  0  0  0
  122.9604  123.6497   60.6888 H   0  0  0  0  0  0  0  0  0  0  0  0
  126.3030  124.4850   59.8220 H   0  0  0  0  0  0  0  0  0  0  0  0
  127.7834  122.2872   59.1058 H   0  0  0  0  0  0  0  0  0  0  0  0
  130.0388  121.4008   59.6910 H   0  0  0  0  0  0  0  0  0  0  0  0
  131.0522  121.9516   61.8989 H   0  0  0  0  0  0  0  0  0  0  0  0
  129.8240  123.3767   63.5280 H   0  0  0  0  0  0  0  0  0  0  0  0
  127.5693  124.2698   62.9496 H   0  0  0  0  0  0  0  0  0  0  0  0
  1  2  1  0
  2  3  2  0
  3  4  1  0
  4  5  1  0
  5  6  1  0
  5  7  1  0
  5  8  1  0
  4  9  2  0
  9 10  1  0
 10 11  3  0
  9 12  1  0
 12 13  1  0
 13 14  1  0
 14 15  1  0
 15 16  2  0
 15 17  1  0
 17 18  1  0
 18 19  2  0
 19 20  1  0
 20 21  2  0
 21 22  1  0
 22 23  2  0
 12 24  2  0
 24  2  1  0
 23 18  1  0
  1 25  1  0
  1 26  1  0
  1 27  1  0
  3 28  1  0
 14 29  1  0
 14 30  1  0
 17 31  1  0
 19 32  1  0
 20 33  1  0
 21 34  1  0
 22 35  1  0
 23 36  1  0
M  END
>  <Binding energies>  (1) 
[-6.28]

>  <Ligand effiencies>  (1) 
[-0.25120000000000003]

>  <Interactions>  (1) 
["V-B:MET:535:CE:9806, V-B:ASP:366:CG:8184, V-B:LEU:363:CA:8156, V-B:ASN:362:C:8143, V-B:TYR:539:CD2:9845, V-B:PRO:540:CA:9854, V-B:TYR:539:CE2:9847, V-B:ALA:541:CB:9863, V-B:TYR:539:CE1:9846, V-B:PRO:540:CB:9856, H-B:TYR:539:N:9841, H-B:ALA:541:N:9862, V-B:TYR:539:CZ:9848, H-B:TYR:531:OH:9766, V-B:TYR:539:CD1:9844, V-B:ASN:362:CB:8147, H-B:ASP:366:OD2:8186, V-B:MET:535:CG:9804"]

$$$$
2e_Grossjean_2025
     RDKit          3D

 38 39  0  0  0  0  0  0  0  0999 V2000
  129.6440  120.6060   61.1290 C   0  0  0  0  0  0  0  0  0  0  0  0
  129.2180  122.0280   61.4390 C   0  0  0  0  0  0  0  0  0  0  0  0
  130.0610  122.9140   62.1140 C   0  0  0  0  0  0  0  0  0  0  0  0
  129.6060  124.2110   62.3540 C   0  0  0  0  0  0  0  0  0  0  0  0
  128.3320  124.5870   61.9200 C   0  0  0  0  0  0  0  0  0  0  0  0
  127.5350  123.6460   61.2580 C   0  0  0  0  0  0  0  0  0  0  0  0
  126.2810  124.0900   60.8050 N   0  0  0  0  0  0  0  0  0  0  0  0
  125.0580  123.6400   61.1640 C   0  0  0  0  0  0  0  0  0  0  0  0
  124.8440  122.7900   62.0290 O   0  0  0  0  0  0  0  0  0  0  0  0
  123.8770  124.2250   60.3830 C   0  0  0  0  0  0  0  0  0  0  0  0
  124.0080  123.8930   58.5970 S   0  0  0  0  0  0  0  0  0  0  0  0
  125.4050  124.8430   58.0380 C   0  0  0  0  0  0  0  0  0  0  0  0
  125.4950  126.0850   58.5760 N   0  0  0  0  0  0  0  0  0  0  0  0
  126.5030  126.8910   58.1710 C   0  0  0  0  0  0  0  0  0  0  0  0
  126.5450  128.2640   58.8130 C   0  0  0  0  0  0  0  0  0  0  0  0
  127.4460  126.4990   57.2220 C   0  0  0  0  0  0  0  0  0  0  0  0
  127.3600  125.2210   56.6500 C   0  0  0  0  0  0  0  0  0  0  0  0
  128.3960  124.8110   55.5870 C   0  0  0  0  0  0  0  0  0  0  0  0
  128.7250  125.8640   54.8370 F   0  0  0  0  0  0  0  0  0  0  0  0
  129.4950  124.3420   56.1790 F   0  0  0  0  0  0  0  0  0  0  0  0
  127.9440  123.8600   54.7670 F   0  0  0  0  0  0  0  0  0  0  0  0
  126.3130  124.3630   57.0670 C   0  0  0  0  0  0  0  0  0  0  0  0
  126.1520  123.0260   56.4850 C   0  0  0  0  0  0  0  0  0  0  0  0
  126.0240  121.9720   56.0250 N   0  0  0  0  0  0  0  0  0  0  0  0
  127.9770  122.3780   61.0120 N   0  0  0  0  0  0  0  0  0  0  0  0
  129.8078  120.0591   62.0692 H   0  0  0  0  0  0  0  0  0  0  0  0
  128.8562  120.1060   60.5464 H   0  0  0  0  0  0  0  0  0  0  0  0
  130.5769  120.6215   60.5464 H   0  0  0  0  0  0  0  0  0  0  0  0
  131.0598  122.5967   62.4484 H   0  0  0  0  0  0  0  0  0  0  0  0
  130.2463  124.9332   62.8817 H   0  0  0  0  0  0  0  0  0  0  0  0
  127.9610  125.6075   62.0961 H   0  0  0  0  0  0  0  0  0  0  0  0
  126.3110  124.8660   60.1600 H   0  0  0  0  0  0  0  0  0  0  0  0
  122.9455  123.7775   60.7599 H   0  0  0  0  0  0  0  0  0  0  0  0
  123.8815  125.3155   60.5269 H   0  0  0  0  0  0  0  0  0  0  0  0
  126.5417  128.1571   59.9078 H   0  0  0  0  0  0  0  0  0  0  0  0
  127.4596  128.7880   58.4985 H   0  0  0  0  0  0  0  0  0  0  0  0
  125.6641  128.8429   58.4985 H   0  0  0  0  0  0  0  0  0  0  0  0
  128.2513  127.1865   56.9240 H   0  0  0  0  0  0  0  0  0  0  0  0
  1  2  1  0
  2  3  2  0
  3  4  1  0
  4  5  2  0
  5  6  1  0
  6  7  1  0
  7  8  1  0
  8  9  2  0
  8 10  1  0
 10 11  1  0
 11 12  1  0
 12 13  2  0
 13 14  1  0
 14 15  1  0
 14 16  2  0
 16 17  1  0
 17 18  1  0
 18 19  1  0
 18 20  1  0
 18 21  1  0
 17 22  2  0
 22 23  1  0
 23 24  3  0
  6 25  2  0
 25  2  1  0
 22 12  1  0
  1 26  1  0
  1 27  1  0
  1 28  1  0
  3 29  1  0
  4 30  1  0
  5 31  1  0
  7 32  1  0
 10 33  1  0
 10 34  1  0
 15 35  1  0
 15 36  1  0
 15 37  1  0
 16 38  1  0
M  END
>  <Binding energies>  (1) 
[-6.65]

>  <Ligand effiencies>  (1) 
[-0.2557692307692308]

>  <Interactions>  (1) 
["V-B:MET:535:CE:9806, V-B:ASP:366:CG:8184, V-B:LEU:363:CA:8156, V-B:ASN:362:C:8143, V-B:TYR:539:CD2:9845, V-B:PRO:540:CA:9854, V-B:TYR:539:CE2:9847, V-B:ALA:541:CB:9863, V-B:TYR:539:CE1:9846, V-B:PRO:540:CB:9856, H-B:TYR:539:N:9841, H-B:ALA:541:N:9862, V-B:TYR:539:CZ:9848, H-B:TYR:531:OH:9766, V-B:TYR:539:CD1:9844, V-B:ASN:362:CB:8147, H-B:ASP:366:OD2:8186"]

$$$$
2f_Grossjean_2025
     RDKit          3D

 35 36  0  0  0  0  0  0  0  0999 V2000
  128.9010  121.2440   60.7490 C   0  0  0  0  0  0  0  0  0  0  0  0
  128.4390  122.6470   60.4010 C   0  0  0  0  0  0  0  0  0  0  0  0
  129.1710  123.4640   59.5420 C   0  0  0  0  0  0  0  0  0  0  0  0
  128.7060  124.7570   59.2570 C   0  0  0  0  0  0  0  0  0  0  0  0
  129.5360  125.6500   58.3150 C   0  0  0  0  0  0  0  0  0  0  0  0
  128.7860  126.0520   57.2870 F   0  0  0  0  0  0  0  0  0  0  0  0
  129.9760  126.7210   58.9740 F   0  0  0  0  0  0  0  0  0  0  0  0
  130.6000  125.0220   57.8110 F   0  0  0  0  0  0  0  0  0  0  0  0
  127.4930  125.1880   59.8520 C   0  0  0  0  0  0  0  0  0  0  0  0
  126.9960  126.5480   59.6310 C   0  0  0  0  0  0  0  0  0  0  0  0
  126.6030  127.6230   59.4540 N   0  0  0  0  0  0  0  0  0  0  0  0
  126.8030  124.2800   60.6910 C   0  0  0  0  0  0  0  0  0  0  0  0
  125.2640  124.6470   61.5100 S   0  0  0  0  0  0  0  0  0  0  0  0
  123.9010  124.1640   60.3960 C   0  0  0  0  0  0  0  0  0  0  0  0
  124.2570  124.1410   58.9030 C   0  0  0  0  0  0  0  0  0  0  0  0
  123.6080  124.8040   58.0930 O   0  0  0  0  0  0  0  0  0  0  0  0
  125.2960  123.3380   58.5870 N   0  0  0  0  0  0  0  0  0  0  0  0
  125.8870  123.0910   57.3340 C   0  0  0  0  0  0  0  0  0  0  0  0
  126.9540  123.8200   56.7760 C   0  0  0  0  0  0  0  0  0  0  0  0
  127.4510  123.4660   55.5200 C   0  0  0  0  0  0  0  0  0  0  0  0
  126.8720  122.3860   54.8530 C   0  0  0  0  0  0  0  0  0  0  0  0
  125.8490  121.6620   55.3730 N   0  0  0  0  0  0  0  0  0  0  0  0
  125.3770  122.0180   56.5940 C   0  0  0  0  0  0  0  0  0  0  0  0
  127.2790  123.0430   60.9730 N   0  0  0  0  0  0  0  0  0  0  0  0
  128.9382  121.1309   61.8425 H   0  0  0  0  0  0  0  0  0  0  0  0
  128.1967  120.5111   60.3284 H   0  0  0  0  0  0  0  0  0  0  0  0
  129.9029  121.0730   60.3284 H   0  0  0  0  0  0  0  0  0  0  0  0
  130.1054  123.0986   59.0911 H   0  0  0  0  0  0  0  0  0  0  0  0
  123.5680  123.1555   60.6824 H   0  0  0  0  0  0  0  0  0  0  0  0
  123.1227  124.9324   60.5134 H   0  0  0  0  0  0  0  0  0  0  0  0
  125.6970  122.8070   59.3470 H   0  0  0  0  0  0  0  0  0  0  0  0
  127.3942  124.6644   57.3266 H   0  0  0  0  0  0  0  0  0  0  0  0
  128.2814  124.0267   55.0661 H   0  0  0  0  0  0  0  0  0  0  0  0
  127.2619  122.1094   53.8623 H   0  0  0  0  0  0  0  0  0  0  0  0
  124.5508  121.4332   57.0247 H   0  0  0  0  0  0  0  0  0  0  0  0
  1  2  1  0
  2  3  2  0
  3  4  1  0
  4  5  1  0
  5  6  1  0
  5  7  1  0
  5  8  1  0
  4  9  2  0
  9 10  1  0
 10 11  3  0
  9 12  1  0
 12 13  1  0
 13 14  1  0
 14 15  1  0
 15 16  2  0
 15 17  1  0
 17 18  1  0
 18 19  2  0
 19 20  1  0
 20 21  2  0
 21 22  1  0
 22 23  2  0
 12 24  2  0
 24  2  1  0
 23 18  1  0
  1 25  1  0
  1 26  1  0
  1 27  1  0
  3 28  1  0
 14 29  1  0
 14 30  1  0
 17 31  1  0
 19 32  1  0
 20 33  1  0
 21 34  1  0
 23 35  1  0
M  END
>  <Binding energies>  (1) 
[-6.24]

>  <Ligand effiencies>  (1) 
[-0.24960000000000002]

>  <Interactions>  (1) 
["V-B:MET:535:CE:9806, V-B:ASP:366:CG:8184, V-B:LEU:363:CA:8156, V-B:LEU:363:CD1:8160, V-B:ASN:362:C:8143, V-B:TYR:539:CD2:9845, V-B:PRO:540:CA:9854, V-B:TYR:539:CE2:9847, V-B:PRO:540:C:9852, V-B:ALA:541:CB:9863, V-B:PRO:540:N:9855, V-B:TYR:539:CE1:9846, V-B:PRO:540:CB:9856, H-B:TYR:539:N:9841, H-B:ALA:541:N:9862, V-B:TYR:539:CZ:9848, V-B:TYR:539:C:9838, V-B:PRO:540:CD:9858, V-B:ILE:538:CA:9831, H-B:TYR:531:OH:9766, V-B:PRO:540:CG:9857, V-B:TYR:539:CD1:9844, V-B:ILE:538:CG2:9834, V-B:ASN:362:CB:8147, V-B:ILE:538:CD1:9836, V-B:ALA:541:CA:9861, H-B:ARG:545:NH2:9899"]

$$$$
2g_Grossjean_2025
     RDKit          3D

 39 40  0  0  0  0  0  0  0  0999 V2000
  132.9420  124.9590   58.2760 C   0  0  0  0  0  0  0  0  0  0  0  0
  132.7390  124.3460   59.6490 C   0  0  0  0  0  0  0  0  0  0  0  0
  133.2360  124.9530   60.8000 C   0  0  0  0  0  0  0  0  0  0  0  0
  133.0280  124.3420   62.0460 C   0  0  0  0  0  0  0  0  0  0  0  0
  133.5930  125.0240   63.3080 C   0  0  0  0  0  0  0  0  0  0  0  0
  134.8580  125.3940   63.1050 F   0  0  0  0  0  0  0  0  0  0  0  0
  132.8680  126.1040   63.6010 F   0  0  0  0  0  0  0  0  0  0  0  0
  133.5770  124.2250   64.3770 F   0  0  0  0  0  0  0  0  0  0  0  0
  132.3050  123.1220   62.0920 C   0  0  0  0  0  0  0  0  0  0  0  0
  132.1090  122.4150   63.3600 C   0  0  0  0  0  0  0  0  0  0  0  0
  131.9550  121.8570   64.3620 N   0  0  0  0  0  0  0  0  0  0  0  0
  131.8110  122.5950   60.8740 C   0  0  0  0  0  0  0  0  0  0  0  0
  130.8660  121.0920   60.7530 S   0  0  0  0  0  0  0  0  0  0  0  0
  129.2160  121.4240   61.4570 C   0  0  0  0  0  0  0  0  0  0  0  0
  128.3890  122.4680   60.6920 C   0  0  0  0  0  0  0  0  0  0  0  0
  127.2450  122.7630   61.0420 O   0  0  0  0  0  0  0  0  0  0  0  0
  128.9980  123.0190   59.6270 N   0  0  0  0  0  0  0  0  0  0  0  0
  128.4190  124.0380   58.7500 C   0  0  0  0  0  0  0  0  0  0  0  0
  127.3130  123.5240   57.8340 C   0  0  0  0  0  0  0  0  0  0  0  0
  127.6430  122.8780   56.6390 C   0  0  0  0  0  0  0  0  0  0  0  0
  126.6350  122.3740   55.8200 C   0  0  0  0  0  0  0  0  0  0  0  0
  125.3030  122.5090   56.2020 C   0  0  0  0  0  0  0  0  0  0  0  0
  124.9680  123.1410   57.3990 C   0  0  0  0  0  0  0  0  0  0  0  0
  125.9750  123.6440   58.2180 C   0  0  0  0  0  0  0  0  0  0  0  0
  132.0420  123.1880   59.6760 N   0  0  0  0  0  0  0  0  0  0  0  0
  133.2861  125.9980   58.3856 H   0  0  0  0  0  0  0  0  0  0  0  0
  133.6962  124.3793   57.7235 H   0  0  0  0  0  0  0  0  0  0  0  0
  131.9909  124.9440   57.7235 H   0  0  0  0  0  0  0  0  0  0  0  0
  133.7866  125.9029   60.7328 H   0  0  0  0  0  0  0  0  0  0  0  0
  128.6515  120.4800   61.4665 H   0  0  0  0  0  0  0  0  0  0  0  0
  129.3851  121.8379   62.4620 H   0  0  0  0  0  0  0  0  0  0  0  0
  129.9470  122.7420   59.4190 H   0  0  0  0  0  0  0  0  0  0  0  0
  128.0009  124.8371   59.3798 H   0  0  0  0  0  0  0  0  0  0  0  0
  129.2312  124.3889   58.0964 H   0  0  0  0  0  0  0  0  0  0  0  0
  128.6974  122.7678   56.3457 H   0  0  0  0  0  0  0  0  0  0  0  0
  126.8904  121.8715   54.8754 H   0  0  0  0  0  0  0  0  0  0  0  0
  124.5074  122.1134   55.5535 H   0  0  0  0  0  0  0  0  0  0  0  0
  123.9132  123.2416   57.6946 H   0  0  0  0  0  0  0  0  0  0  0  0
  125.7173  124.1360   59.1675 H   0  0  0  0  0  0  0  0  0  0  0  0
  1  2  1  0
  2  3  2  0
  3  4  1  0
  4  5  1  0
  5  6  1  0
  5  7  1  0
  5  8  1  0
  4  9  2  0
  9 10  1  0
 10 11  3  0
  9 12  1  0
 12 13  1  0
 13 14  1  0
 14 15  1  0
 15 16  2  0
 15 17  1  0
 17 18  1  0
 18 19  1  0
 19 20  2  0
 20 21  1  0
 21 22  2  0
 22 23  1  0
 23 24  2  0
 12 25  2  0
 25  2  1  0
 24 19  1  0
  1 26  1  0
  1 27  1  0
  1 28  1  0
  3 29  1  0
 14 30  1  0
 14 31  1  0
 17 32  1  0
 18 33  1  0
 18 34  1  0
 20 35  1  0
 21 36  1  0
 22 37  1  0
 23 38  1  0
 24 39  1  0
M  END
>  <Binding energies>  (1) 
[-6.74]

>  <Ligand effiencies>  (1) 
[-0.25923076923076926]

>  <Interactions>  (1) 
["V-B:MET:535:CE:9806, V-B:LEU:363:CD1:8160, V-B:TYR:539:CD2:9845, V-B:PRO:540:CA:9854, V-B:TYR:539:CE2:9847, V-B:ALA:541:CB:9863, V-B:PRO:540:N:9855, V-A:LEU:475:CD2:4258, V-B:TYR:539:CE1:9846, V-B:PRO:540:CB:9856, H-B:ALA:541:N:9862, V-A:ILE:369:CG2:3236, V-B:TYR:539:CZ:9848, V-A:ASP:366:CB:3211, V-B:PRO:540:CD:9858, V-A:ARG:545:CZ:4926, V-B:TYR:539:CD1:9844, V-A:ASP:366:CA:3209, V-A:ASP:366:CG:3212, H-A:TYR:484:OH:4347, V-A:ASP:366:C:3207, V-B:TYR:539:CG:9843, V-A:GLY:454:CA:4048, V-A:ILE:369:CD1:3238, V-B:ALA:541:CA:9861, V-A:GLY:453:C:4041, V-A:GLY:453:CA:4043"]

$$$$
2h_Grossjean_2025
     RDKit          3D

 51 52  0  0  0  0  0  0  0  0999 V2000
  126.1140  124.3940   61.3060 C   0  0  0  0  0  0  0  0  0  0  0  0
  126.7240  123.1090   61.3650 O   0  0  0  0  0  0  0  0  0  0  0  0
  127.9560  122.9710   61.9790 C   0  0  0  0  0  0  0  0  0  0  0  0
  128.2780  123.5310   63.2250 C   0  0  0  0  0  0  0  0  0  0  0  0
  129.5390  123.3410   63.7850 C   0  0  0  0  0  0  0  0  0  0  0  0
  130.5060  122.5900   63.1140 C   0  0  0  0  0  0  0  0  0  0  0  0
  131.8750  122.3780   63.7570 C   0  0  0  0  0  0  0  0  0  0  0  0
  132.1800  123.3390   64.8180 N   0  0  0  0  0  0  0  0  0  0  0  0
  132.9810  124.4110   64.6790 C   0  0  0  0  0  0  0  0  0  0  0  0
  133.6140  124.6520   63.6500 O   0  0  0  0  0  0  0  0  0  0  0  0
  133.0570  125.3430   65.8970 C   0  0  0  0  0  0  0  0  0  0  0  0
  131.4890  125.5550   66.8040 S   0  0  0  0  0  0  0  0  0  0  0  0
  130.3840  126.4370   65.7230 C   0  0  0  0  0  0  0  0  0  0  0  0
  130.5970  126.1910   64.4070 N   0  0  0  0  0  0  0  0  0  0  0  0
  129.8250  126.8240   63.4970 C   0  0  0  0  0  0  0  0  0  0  0  0
  130.1240  126.5070   62.0440 C   0  0  0  0  0  0  0  0  0  0  0  0
  128.8150  127.7150   63.8550 C   0  0  0  0  0  0  0  0  0  0  0  0
  128.5660  127.9660   65.2130 C   0  0  0  0  0  0  0  0  0  0  0  0
  127.4400  128.9480   65.5910 C   0  0  0  0  0  0  0  0  0  0  0  0
  126.4670  128.8950   64.6810 F   0  0  0  0  0  0  0  0  0  0  0  0
  126.8930  128.6740   66.7780 F   0  0  0  0  0  0  0  0  0  0  0  0
  127.9150  130.1920   65.6450 F   0  0  0  0  0  0  0  0  0  0  0  0
  129.3630  127.3040   66.1820 C   0  0  0  0  0  0  0  0  0  0  0  0
  129.1050  127.4860   67.6120 C   0  0  0  0  0  0  0  0  0  0  0  0
  128.8970  127.6300   68.7410 N   0  0  0  0  0  0  0  0  0  0  0  0
  130.2060  122.0440   61.8570 C   0  0  0  0  0  0  0  0  0  0  0  0
  131.1540  121.3050   61.1890 O   0  0  0  0  0  0  0  0  0  0  0  0
  130.8340  119.9270   61.0520 C   0  0  0  0  0  0  0  0  0  0  0  0
  128.9270  122.2200   61.3030 C   0  0  0  0  0  0  0  0  0  0  0  0
  128.6240  121.6710   60.0800 O   0  0  0  0  0  0  0  0  0  0  0  0
  128.3630  122.6280   59.0620 C   0  0  0  0  0  0  0  0  0  0  0  0
  125.9385  124.7638   62.3270 H   0  0  0  0  0  0  0  0  0  0  0  0
  126.7775  125.0907   60.7727 H   0  0  0  0  0  0  0  0  0  0  0  0
  125.1547  124.3204   60.7727 H   0  0  0  0  0  0  0  0  0  0  0  0
  127.5267  124.1261   63.7648 H   0  0  0  0  0  0  0  0  0  0  0  0
  129.7748  123.7858   64.7630 H   0  0  0  0  0  0  0  0  0  0  0  0
  131.9045  121.3655   64.1860 H   0  0  0  0  0  0  0  0  0  0  0  0
  132.6274  122.5203   62.9673 H   0  0  0  0  0  0  0  0  0  0  0  0
  131.6690  123.2260   65.6810 H   0  0  0  0  0  0  0  0  0  0  0  0
  133.8020  124.9328   66.5946 H   0  0  0  0  0  0  0  0  0  0  0  0
  133.3239  126.3366   65.5077 H   0  0  0  0  0  0  0  0  0  0  0  0
  130.8779  125.7077   61.9907 H   0  0  0  0  0  0  0  0  0  0  0  0
  129.2021  126.1754   61.5438 H   0  0  0  0  0  0  0  0  0  0  0  0
  130.5088  127.4080   61.5438 H   0  0  0  0  0  0  0  0  0  0  0  0
  128.2180  128.2173   63.0796 H   0  0  0  0  0  0  0  0  0  0  0  0
  130.7288  119.4741   62.0489 H   0  0  0  0  0  0  0  0  0  0  0  0
  129.8879  119.8233   60.5005 H   0  0  0  0  0  0  0  0  0  0  0  0
  131.6376  119.4170   60.5005 H   0  0  0  0  0  0  0  0  0  0  0  0
  128.1002  123.5915   59.5232 H   0  0  0  0  0  0  0  0  0  0  0  0
  129.2599  122.7529   58.4375 H   0  0  0  0  0  0  0  0  0  0  0  0
  127.5269  122.2803   58.4375 H   0  0  0  0  0  0  0  0  0  0  0  0
  1  2  1  0
  2  3  1  0
  3  4  2  0
  4  5  1  0
  5  6  2  0
  6  7  1  0
  7  8  1  0
  8  9  1  0
  9 10  2  0
  9 11  1  0
 11 12  1  0
 12 13  1  0
 13 14  2  0
 14 15  1  0
 15 16  1  0
 15 17  2  0
 17 18  1  0
 18 19  1  0
 19 20  1  0
 19 21  1  0
 19 22  1  0
 18 23  2  0
 23 24  1  0
 24 25  3  0
  6 26  1  0
 26 27  1  0
 27 28  1  0
 26 29  2  0
 29 30  1  0
 30 31  1  0
 29  3  1  0
 23 13  1  0
  1 32  1  0
  1 33  1  0
  1 34  1  0
  4 35  1  0
  5 36  1  0
  7 37  1  0
  7 38  1  0
  8 39  1  0
 11 40  1  0
 11 41  1  0
 16 42  1  0
 16 43  1  0
 16 44  1  0
 17 45  1  0
 28 46  1  0
 28 47  1  0
 28 48  1  0
 31 49  1  0
 31 50  1  0
 31 51  1  0
M  END
>  <Binding energies>  (1) 
[-5.86]

>  <Ligand effiencies>  (1) 
[-0.183125]

>  <Interactions>  (1) 
["V-A:GLU:543:CG:4907, V-B:GLU:543:CD:9879, V-A:GLU:543:CD:4908, V-B:HIS:456:CE1:9041, V-B:GLU:543:CG:9878, V-A:TRP:381:CH2:3371, V-B:TYR:539:CD2:9845, V-B:PRO:540:CA:9854, V-B:TYR:539:CE2:9847, V-B:ALA:541:CB:9863, V-A:LEU:475:CD2:4258, H-B:ALA:541:N:9862, V-B:TYR:539:CZ:9848, V-B:TYR:539:C:9838, V-A:ARG:545:CZ:4926, H-A:GLY:454:N:4049, H-A:TYR:484:OH:4347, V-A:TYR:484:CZ:4346, V-A:GLY:454:CA:4048, V-B:ALA:541:CA:9861, V-A:ARG:545:CD:4923"]

$$$$
2i_Grossjean_2025
     RDKit          3D

 32 33  0  0  0  0  0  0  0  0999 V2000
  130.1600  123.7970   65.5490 C   0  0  0  0  0  0  0  0  0  0  0  0
  129.8450  123.2950   64.1520 C   0  0  0  0  0  0  0  0  0  0  0  0
  130.7950  122.6250   63.3860 C   0  0  0  0  0  0  0  0  0  0  0  0
  130.4540  122.1790   62.1010 C   0  0  0  0  0  0  0  0  0  0  0  0
  131.5170  121.4390   61.2660 C   0  0  0  0  0  0  0  0  0  0  0  0
  132.6300  121.2790   61.9850 F   0  0  0  0  0  0  0  0  0  0  0  0
  131.0610  120.2400   60.9020 F   0  0  0  0  0  0  0  0  0  0  0  0
  131.8500  122.0970   60.1530 F   0  0  0  0  0  0  0  0  0  0  0  0
  129.1430  122.4300   61.6220 C   0  0  0  0  0  0  0  0  0  0  0  0
  128.7330  121.9850   60.2870 C   0  0  0  0  0  0  0  0  0  0  0  0
  128.4080  121.6340   59.2320 N   0  0  0  0  0  0  0  0  0  0  0  0
  128.2430  123.1200   62.4660 C   0  0  0  0  0  0  0  0  0  0  0  0
  126.5700  123.4990   61.9680 S   0  0  0  0  0  0  0  0  0  0  0  0
  126.6460  124.6570   60.5690 C   0  0  0  0  0  0  0  0  0  0  0  0
  125.8770  124.1440   59.3490 C   0  0  0  0  0  0  0  0  0  0  0  0
  124.6540  124.2920   59.3060 O   0  0  0  0  0  0  0  0  0  0  0  0
  126.6180  123.5290   58.4030 N   0  0  0  0  0  0  0  0  0  0  0  0
  126.1550  122.9690   57.2240 C   0  0  0  0  0  0  0  0  0  0  0  0
  125.0190  123.2780   56.4620 C   0  0  0  0  0  0  0  0  0  0  0  0
  125.0630  122.4060   55.3980 C   0  0  0  0  0  0  0  0  0  0  0  0
  126.1650  121.6250   55.5100 O   0  0  0  0  0  0  0  0  0  0  0  0
  126.8490  121.9980   56.6700 N   0  0  0  0  0  0  0  0  0  0  0  0
  128.5920  123.5420   63.7080 N   0  0  0  0  0  0  0  0  0  0  0  0
  129.7287  123.1096   66.2916 H   0  0  0  0  0  0  0  0  0  0  0  0
  131.2506  123.8453   65.6840 H   0  0  0  0  0  0  0  0  0  0  0  0
  129.7291  124.8000   65.6840 H   0  0  0  0  0  0  0  0  0  0  0  0
  131.8044  122.4470   63.7853 H   0  0  0  0  0  0  0  0  0  0  0  0
  126.2130  125.6186   60.8816 H   0  0  0  0  0  0  0  0  0  0  0  0
  127.7016  124.7673   60.2799 H   0  0  0  0  0  0  0  0  0  0  0  0
  127.6090  123.4340   58.5710 H   0  0  0  0  0  0  0  0  0  0  0  0
  124.2604  124.0473   56.6689 H   0  0  0  0  0  0  0  0  0  0  0  0
  124.3223  122.3517   54.5866 H   0  0  0  0  0  0  0  0  0  0  0  0
  1  2  1  0
  2  3  2  0
  3  4  1  0
  4  5  1  0
  5  6  1  0
  5  7  1  0
  5  8  1  0
  4  9  2  0
  9 10  1  0
 10 11  3  0
  9 12  1  0
 12 13  1  0
 13 14  1  0
 14 15  1  0
 15 16  2  0
 15 17  1  0
 17 18  1  0
 18 19  1  0
 19 20  2  0
 20 21  1  0
 21 22  1  0
 12 23  2  0
 23  2  1  0
 22 18  2  0
  1 24  1  0
  1 25  1  0
  1 26  1  0
  3 27  1  0
 14 28  1  0
 14 29  1  0
 17 30  1  0
 19 31  1  0
 20 32  1  0
M  END
>  <Binding energies>  (1) 
[-6.4]

>  <Ligand effiencies>  (1) 
[-0.26666666666666666]

>  <Interactions>  (1) 
["V-B:GLU:543:CG:9878, V-B:MET:535:CE:9806, V-B:LEU:363:CD1:8160, V-A:TRP:381:CH2:3371, V-B:TYR:539:CD2:9845, V-B:PRO:540:CA:9854, V-B:TYR:539:CE2:9847, V-B:PRO:540:C:9852, V-B:ALA:541:CB:9863, V-B:PRO:540:N:9855, V-A:LEU:475:CD2:4258, V-B:PRO:540:CB:9856, H-B:TYR:539:N:9841, H-B:ALA:541:N:9862, V-A:ILE:369:CG2:3236, V-B:TYR:539:C:9838, V-B:PRO:540:CD:9858, V-B:ILE:538:CA:9831, V-B:ILE:538:CG2:9834, V-A:TYR:484:CE1:4344, V-B:ILE:538:CD1:9836, V-A:TYR:484:CZ:4346, V-B:ALA:541:CA:9861"]

$$$$
2j_Grossjean_2025
     RDKit          3D

 32 33  0  0  0  0  0  0  0  0999 V2000
  128.9130  121.2390   60.7020 C   0  0  0  0  0  0  0  0  0  0  0  0
  128.4460  122.6290   60.3160 C   0  0  0  0  0  0  0  0  0  0  0  0
  129.2220  123.4640   59.5160 C   0  0  0  0  0  0  0  0  0  0  0  0
  128.7460  124.7410   59.1830 C   0  0  0  0  0  0  0  0  0  0  0  0
  129.6170  125.6510   58.2970 C   0  0  0  0  0  0  0  0  0  0  0  0
  128.9100  126.0840   57.2530 F   0  0  0  0  0  0  0  0  0  0  0  0
  130.0400  126.7030   58.9990 F   0  0  0  0  0  0  0  0  0  0  0  0
  130.6960  125.0270   57.8200 F   0  0  0  0  0  0  0  0  0  0  0  0
  127.4790  125.1400   59.6790 C   0  0  0  0  0  0  0  0  0  0  0  0
  126.9310  126.4630   59.3630 C   0  0  0  0  0  0  0  0  0  0  0  0
  126.4990  127.5070   59.1130 N   0  0  0  0  0  0  0  0  0  0  0  0
  126.7570  124.2280   60.4850 C   0  0  0  0  0  0  0  0  0  0  0  0
  125.1510  124.6230   61.1620 S   0  0  0  0  0  0  0  0  0  0  0  0
  123.8750  123.9910   60.0200 C   0  0  0  0  0  0  0  0  0  0  0  0
  124.2970  123.9390   58.5450 C   0  0  0  0  0  0  0  0  0  0  0  0
  123.6780  124.5770   57.6900 O   0  0  0  0  0  0  0  0  0  0  0  0
  125.3620  123.1480   58.2880 N   0  0  0  0  0  0  0  0  0  0  0  0
  125.9500  122.9230   57.0490 C   0  0  0  0  0  0  0  0  0  0  0  0
  125.7930  121.8840   56.2590 N   0  0  0  0  0  0  0  0  0  0  0  0
  126.5030  122.0020   55.1540 C   0  0  0  0  0  0  0  0  0  0  0  0
  127.2610  123.1630   55.0310 C   0  0  0  0  0  0  0  0  0  0  0  0
  127.0230  124.1450   56.4460 S   0  0  0  0  0  0  0  0  0  0  0  0
  127.2360  122.9960   60.7940 N   0  0  0  0  0  0  0  0  0  0  0  0
  128.9418  121.1531   61.7983 H   0  0  0  0  0  0  0  0  0  0  0  0
  128.2166  120.4917   60.2939 H   0  0  0  0  0  0  0  0  0  0  0  0
  129.9193  121.0638   60.2939 H   0  0  0  0  0  0  0  0  0  0  0  0
  130.2014  123.1246   59.1477 H   0  0  0  0  0  0  0  0  0  0  0  0
  123.6087  122.9714   60.3355 H   0  0  0  0  0  0  0  0  0  0  0  0
  123.0337  124.6974   60.0757 H   0  0  0  0  0  0  0  0  0  0  0  0
  125.7830  122.6640   59.0670 H   0  0  0  0  0  0  0  0  0  0  0  0
  126.4966  121.2268   54.3736 H   0  0  0  0  0  0  0  0  0  0  0  0
  127.9059  123.4179   54.1771 H   0  0  0  0  0  0  0  0  0  0  0  0
  1  2  1  0
  2  3  2  0
  3  4  1  0
  4  5  1  0
  5  6  1  0
  5  7  1  0
  5  8  1  0
  4  9  2  0
  9 10  1  0
 10 11  3  0
  9 12  1  0
 12 13  1  0
 13 14  1  0
 14 15  1  0
 15 16  2  0
 15 17  1  0
 17 18  1  0
 18 19  2  0
 19 20  1  0
 20 21  2  0
 21 22  1  0
 12 23  2  0
 23  2  1  0
 22 18  1  0
  1 24  1  0
  1 25  1  0
  1 26  1  0
  3 27  1  0
 14 28  1  0
 14 29  1  0
 17 30  1  0
 20 31  1  0
 21 32  1  0
M  END
>  <Binding energies>  (1) 
[-5.8]

>  <Ligand effiencies>  (1) 
[-0.24166666666666667]

>  <Interactions>  (1) 
["V-B:MET:535:CE:9806, V-B:LEU:363:CA:8156, V-B:LEU:363:CD1:8160, V-B:ASN:362:C:8143, V-B:TYR:539:CD2:9845, V-B:PRO:540:CA:9854, V-B:TYR:539:CE2:9847, V-B:PRO:540:C:9852, V-B:ALA:541:CB:9863, V-B:PRO:540:N:9855, V-B:TYR:539:CE1:9846, V-B:PRO:540:CB:9856, H-B:TYR:539:N:9841, H-B:ALA:541:N:9862, V-B:TYR:539:CZ:9848, V-B:TYR:539:C:9838, V-B:PRO:540:CD:9858, V-B:ILE:538:CA:9831, H-B:TYR:531:OH:9766, V-B:TYR:539:CD1:9844, V-B:ASN:362:CB:8147, V-B:ILE:538:CD1:9836, V-B:ALA:541:CA:9861, H-B:ARG:545:NH2:9899, V-B:ILE:538:C:9829"]

$$$$
2k_Grossjean_2025
     RDKit          3D

 50 50  0  0  0  0  0  0  0  0999 V2000
  126.4870  122.3790   54.6390 C   0  0  0  0  0  0  0  0  0  0  0  0
  126.0630  121.7830   55.8550 O   0  0  0  0  0  0  0  0  0  0  0  0
  126.8920  122.1060   56.9640 C   0  0  0  0  0  0  0  0  0  0  0  0
  127.2290  123.6020   56.9400 C   0  0  0  0  0  0  0  0  0  0  0  0
  126.2360  124.3120   57.6660 O   0  0  0  0  0  0  0  0  0  0  0  0
  125.0650  124.6100   56.9150 C   0  0  0  0  0  0  0  0  0  0  0  0
  123.8750  124.6800   57.8810 C   0  0  0  0  0  0  0  0  0  0  0  0
  124.1060  123.7450   58.9240 O   0  0  0  0  0  0  0  0  0  0  0  0
  123.8830  124.2380   60.2360 C   0  0  0  0  0  0  0  0  0  0  0  0
  125.2370  124.3600   60.9600 C   0  0  0  0  0  0  0  0  0  0  0  0
  126.3080  123.6090   60.3000 N   0  0  0  0  0  0  0  0  0  0  0  0
  127.3540  123.0280   60.9190 C   0  0  0  0  0  0  0  0  0  0  0  0
  127.5100  123.0400   62.1410 O   0  0  0  0  0  0  0  0  0  0  0  0
  128.3790  122.3490   59.9980 C   0  0  0  0  0  0  0  0  0  0  0  0
  129.7710  121.5270   60.8490 S   0  0  0  0  0  0  0  0  0  0  0  0
  131.0820  122.7110   61.1220 C   0  0  0  0  0  0  0  0  0  0  0  0
  131.6590  123.2190   60.0030 N   0  0  0  0  0  0  0  0  0  0  0  0
  132.6610  124.1170   60.1340 C   0  0  0  0  0  0  0  0  0  0  0  0
  133.2600  124.6280   58.8390 C   0  0  0  0  0  0  0  0  0  0  0  0
  133.1210  124.5530   61.3740 C   0  0  0  0  0  0  0  0  0  0  0  0
  132.5340  124.0480   62.5440 C   0  0  0  0  0  0  0  0  0  0  0  0
  133.0510  124.5450   63.9070 C   0  0  0  0  0  0  0  0  0  0  0  0
  132.2070  125.3900   64.5030 F   0  0  0  0  0  0  0  0  0  0  0  0
  133.2330  123.5120   64.7320 F   0  0  0  0  0  0  0  0  0  0  0  0
  134.2120  125.1820   63.7500 F   0  0  0  0  0  0  0  0  0  0  0  0
  131.4870  123.0990   62.4210 C   0  0  0  0  0  0  0  0  0  0  0  0
  130.8400  122.5350   63.6100 C   0  0  0  0  0  0  0  0  0  0  0  0
  130.3300  122.0910   64.5490 N   0  0  0  0  0  0  0  0  0  0  0  0
  127.1117  123.2572   54.8594 H   0  0  0  0  0  0  0  0  0  0  0  0
  127.0708  121.6503   54.0575 H   0  0  0  0  0  0  0  0  0  0  0  0
  125.6071  122.6916   54.0575 H   0  0  0  0  0  0  0  0  0  0  0  0
  126.3631  121.8654   57.8980 H   0  0  0  0  0  0  0  0  0  0  0  0
  127.8225  121.5223   56.9051 H   0  0  0  0  0  0  0  0  0  0  0  0
  128.2128  123.7658   57.4041 H   0  0  0  0  0  0  0  0  0  0  0  0
  127.2559  123.9600   55.9002 H   0  0  0  0  0  0  0  0  0  0  0  0
  125.1868  125.5769   56.4049 H   0  0  0  0  0  0  0  0  0  0  0  0
  124.8924  123.8302   56.1586 H   0  0  0  0  0  0  0  0  0  0  0  0
  123.7919  125.6940   58.2993 H   0  0  0  0  0  0  0  0  0  0  0  0
  122.9386  124.4439   57.3543 H   0  0  0  0  0  0  0  0  0  0  0  0
  123.4026  125.2261   60.1825 H   0  0  0  0  0  0  0  0  0  0  0  0
  123.2267  123.5481   60.7868 H   0  0  0  0  0  0  0  0  0  0  0  0
  125.5224  125.4218   60.9934 H   0  0  0  0  0  0  0  0  0  0  0  0
  125.1109  123.9372   61.9677 H   0  0  0  0  0  0  0  0  0  0  0  0
  126.2470  123.5390   59.2950 H   0  0  0  0  0  0  0  0  0  0  0  0
  127.8501  121.5909   59.4018 H   0  0  0  0  0  0  0  0  0  0  0  0
  128.8245  123.1533   59.3942 H   0  0  0  0  0  0  0  0  0  0  0  0
  134.0791  125.3268   59.0645 H   0  0  0  0  0  0  0  0  0  0  0  0
  133.6507  123.7808   58.2563 H   0  0  0  0  0  0  0  0  0  0  0  0
  132.4849  125.1474   58.2563 H   0  0  0  0  0  0  0  0  0  0  0  0
  133.9378  125.2872   61.4357 H   0  0  0  0  0  0  0  0  0  0  0  0
  1  2  1  0
  2  3  1  0
  3  4  1  0
  4  5  1  0
  5  6  1  0
  6  7  1  0
  7  8  1  0
  8  9  1  0
  9 10  1  0
 10 11  1  0
 11 12  1  0
 12 13  2  0
 12 14  1  0
 14 15  1  0
 15 16  1  0
 16 17  2  0
 17 18  1  0
 18 19  1  0
 18 20  2  0
 20 21  1  0
 21 22  1  0
 22 23  1  0
 22 24  1  0
 22 25  1  0
 21 26  2  0
 26 27  1  0
 27 28  3  0
 26 16  1  0
  1 29  1  0
  1 30  1  0
  1 31  1  0
  3 32  1  0
  3 33  1  0
  4 34  1  0
  4 35  1  0
  6 36  1  0
  6 37  1  0
  7 38  1  0
  7 39  1  0
  9 40  1  0
  9 41  1  0
 10 42  1  0
 10 43  1  0
 11 44  1  0
 14 45  1  0
 14 46  1  0
 19 47  1  0
 19 48  1  0
 19 49  1  0
 20 50  1  0
M  END
>  <Binding energies>  (1) 
[-5.85]

>  <Ligand effiencies>  (1) 
[-0.20172413793103447]

>  <Interactions>  (1) 
["V-B:MET:535:CE:9806, V-B:ASP:366:CG:8184, V-B:LEU:363:CA:8156, V-B:LEU:363:CD1:8160, V-B:ASN:362:C:8143, V-B:TYR:539:CD2:9845, V-B:PRO:540:CA:9854, V-B:TYR:539:CE2:9847, V-B:PRO:540:C:9852, V-B:ALA:541:CB:9863, V-B:PRO:540:N:9855, V-A:LEU:475:CD2:4258, V-B:TYR:539:CE1:9846, V-B:PRO:540:CB:9856, H-B:TYR:539:N:9841, H-B:ALA:541:N:9862, V-A:ILE:369:CG2:3236, V-A:ILE:369:CB:3235, V-A:ASP:366:CB:3211, V-B:TYR:539:C:9838, V-B:PRO:540:CD:9858, V-A:ARG:545:CZ:4926, V-B:ILE:538:CA:9831, V-B:TYR:539:CD1:9844, V-B:ASP:366:CB:8183, V-A:ASP:366:CA:3209, V-B:ASN:362:CB:8147, V-A:ASP:366:CG:3212, H-A:TYR:484:OH:4347, V-A:ASP:366:C:3207, V-B:ILE:538:CD1:9836, V-B:TYR:539:CA:9840, V-B:TYR:539:CG:9843, V-A:GLY:454:CA:4048, V-A:ILE:369:CD1:3238, V-B:TYR:531:CZ:9765, V-B:TYR:531:CE2:9764, V-A:GLY:453:C:4041, V-A:GLY:453:CA:4043"]

$$$$
3aa_Grossjean_2025
     RDKit          3D

 52 54  0  0  0  0  0  0  0  0999 V2000
  133.9940  125.3560   66.2140 C   0  0  0  0  0  0  0  0  0  0  0  0
  132.9190  125.2990   65.1230 C   0  0  0  0  0  0  0  0  0  0  0  0
  133.3440  124.4260   64.0840 O   0  0  0  0  0  0  0  0  0  0  0  0
  133.9650  124.9070   62.9770 C   0  0  0  0  0  0  0  0  0  0  0  0
  135.1350  125.3020   62.9710 O   0  0  0  0  0  0  0  0  0  0  0  0
  133.0820  124.9260   61.7620 C   0  0  0  0  0  0  0  0  0  0  0  0
  131.8150  125.5300   61.7740 C   0  0  0  0  0  0  0  0  0  0  0  0
  131.0240  125.5340   60.6280 C   0  0  0  0  0  0  0  0  0  0  0  0
  131.4830  124.9440   59.4490 C   0  0  0  0  0  0  0  0  0  0  0  0
  130.6060  125.0070   58.3480 N   0  0  0  0  0  0  0  0  0  0  0  0
  129.7070  125.9610   58.0160 C   0  0  0  0  0  0  0  0  0  0  0  0
  129.4740  126.9800   58.6670 O   0  0  0  0  0  0  0  0  0  0  0  0
  128.9270  125.7110   56.7250 C   0  0  0  0  0  0  0  0  0  0  0  0
  128.0930  124.0950   56.7430 S   0  0  0  0  0  0  0  0  0  0  0  0
  127.6580  123.7510   58.4330 C   0  0  0  0  0  0  0  0  0  0  0  0
  128.6950  123.3020   59.1800 N   0  0  0  0  0  0  0  0  0  0  0  0
  128.5000  122.9990   60.4890 C   0  0  0  0  0  0  0  0  0  0  0  0
  129.7000  122.5220   61.2520 C   0  0  0  0  0  0  0  0  0  0  0  0
  129.8700  122.8650   62.6030 C   0  0  0  0  0  0  0  0  0  0  0  0
  130.9820  122.4250   63.3180 C   0  0  0  0  0  0  0  0  0  0  0  0
  131.9380  121.6350   62.6900 C   0  0  0  0  0  0  0  0  0  0  0  0
  131.7910  121.2800   61.3530 C   0  0  0  0  0  0  0  0  0  0  0  0
  130.6780  121.7190   60.6410 C   0  0  0  0  0  0  0  0  0  0  0  0
  127.2430  123.1520   61.0830 C   0  0  0  0  0  0  0  0  0  0  0  0
  126.1500  123.5990   60.3250 C   0  0  0  0  0  0  0  0  0  0  0  0
  124.7790  123.7430   61.0120 C   0  0  0  0  0  0  0  0  0  0  0  0
  124.5820  124.9600   61.5260 F   0  0  0  0  0  0  0  0  0  0  0  0
  123.7990  123.5180   60.1360 F   0  0  0  0  0  0  0  0  0  0  0  0
  124.6760  122.8640   62.0100 F   0  0  0  0  0  0  0  0  0  0  0  0
  126.3550  123.8980   58.9560 C   0  0  0  0  0  0  0  0  0  0  0  0
  125.2370  124.3130   58.1020 C   0  0  0  0  0  0  0  0  0  0  0  0
  124.3550  124.6400   57.4280 N   0  0  0  0  0  0  0  0  0  0  0  0
  132.7430  124.3270   59.4340 C   0  0  0  0  0  0  0  0  0  0  0  0
  133.5310  124.3220   60.5800 C   0  0  0  0  0  0  0  0  0  0  0  0
  133.5140  125.3305   67.2034 H   0  0  0  0  0  0  0  0  0  0  0  0
  134.6673  124.4923   66.1108 H   0  0  0  0  0  0  0  0  0  0  0  0
  134.5722  126.2861   66.1108 H   0  0  0  0  0  0  0  0  0  0  0  0
  131.9785  124.9254   65.5541 H   0  0  0  0  0  0  0  0  0  0  0  0
  132.7592  126.3070   64.7126 H   0  0  0  0  0  0  0  0  0  0  0  0
  131.4444  126.0035   62.6951 H   0  0  0  0  0  0  0  0  0  0  0  0
  130.0304  126.0054   60.6519 H   0  0  0  0  0  0  0  0  0  0  0  0
  130.6300  124.1920   57.7520 H   0  0  0  0  0  0  0  0  0  0  0  0
  128.1706  126.5009   56.6072 H   0  0  0  0  0  0  0  0  0  0  0  0
  129.6400  125.7188   55.8874 H   0  0  0  0  0  0  0  0  0  0  0  0
  129.1152  123.4894   63.1035 H   0  0  0  0  0  0  0  0  0  0  0  0
  131.1030  122.7018   64.3757 H   0  0  0  0  0  0  0  0  0  0  0  0
  132.8165  121.2883   63.2540 H   0  0  0  0  0  0  0  0  0  0  0  0
  132.5507  120.6552   60.8605 H   0  0  0  0  0  0  0  0  0  0  0  0
  130.5626  121.4332   59.5851 H   0  0  0  0  0  0  0  0  0  0  0  0
  127.1105  122.9207   62.1502 H   0  0  0  0  0  0  0  0  0  0  0  0
  133.1082  123.8465   58.5144 H   0  0  0  0  0  0  0  0  0  0  0  0
  134.5186  123.8381   60.5583 H   0  0  0  0  0  0  0  0  0  0  0  0
  1  2  1  0
  2  3  1  0
  3  4  1  0
  4  5  2  0
  4  6  1  0
  6  7  2  0
  7  8  1  0
  8  9  2  0
  9 10  1  0
 10 11  1  0
 11 12  2  0
 11 13  1  0
 13 14  1  0
 14 15  1  0
 15 16  2  0
 16 17  1  0
 17 18  1  0
 18 19  2  0
 19 20  1  0
 20 21  2  0
 21 22  1  0
 22 23  2  0
 17 24  2  0
 24 25  1  0
 25 26  1  0
 26 27  1  0
 26 28  1  0
 26 29  1  0
 25 30  2  0
 30 31  1  0
 31 32  3  0
  9 33  1  0
 33 34  2  0
 34  6  1  0
 30 15  1  0
 23 18  1  0
  1 35  1  0
  1 36  1  0
  1 37  1  0
  2 38  1  0
  2 39  1  0
  7 40  1  0
  8 41  1  0
 10 42  1  0
 13 43  1  0
 13 44  1  0
 19 45  1  0
 20 46  1  0
 21 47  1  0
 22 48  1  0
 23 49  1  0
 24 50  1  0
 33 51  1  0
 34 52  1  0
M  END
>  <Binding energies>  (1) 
[-7.77]

>  <Ligand effiencies>  (1) 
[-0.22199999999999998]

>  <Interactions>  (1) 
["V-B:ASP:366:CG:8184, V-B:LEU:363:CA:8156, V-B:ASN:362:C:8143, V-B:TYR:539:CD2:9845, V-B:PRO:540:CA:9854, V-B:TYR:539:CE2:9847, V-B:PRO:540:C:9852, V-B:ALA:541:CB:9863, V-A:LEU:475:CD2:4258, V-B:PRO:540:CB:9856, V-A:ILE:369:CG2:3236, V-B:TYR:539:CZ:9848, V-A:ILE:369:CB:3235, V-A:ARG:545:CZ:4926, H-B:TYR:531:OH:9766, H-B:TYR:539:OH:9849, H-A:GLY:454:N:4049, V-A:ASP:366:CA:3209, V-B:ASN:362:CB:8147, V-A:ASP:366:CG:3212, H-A:ARG:545:NH1:4927, V-A:ILE:369:CD1:3238, V-B:ALA:541:C:9859, V-B:ALA:541:CA:9861, V-A:ARG:545:CD:4923, V-A:ARG:545:CG:4922, V-B:ARG:545:CZ:9897, V-B:LEU:363:CB:8158, V-A:GLY:453:CA:4043"]

$$$$
3ab_Grossjean_2025
     RDKit          3D

 49 51  0  0  0  0  0  0  0  0999 V2000
  129.7300  129.4960   73.1730 C   0  0  0  0  0  0  0  0  0  0  0  0
  130.3150  128.2020   73.1520 O   0  0  0  0  0  0  0  0  0  0  0  0
  129.5820  127.1090   72.8190 C   0  0  0  0  0  0  0  0  0  0  0  0
  129.0630  126.3580   73.6490 O   0  0  0  0  0  0  0  0  0  0  0  0
  129.4620  126.9060   71.3360 C   0  0  0  0  0  0  0  0  0  0  0  0
  128.6820  125.8750   70.7880 C   0  0  0  0  0  0  0  0  0  0  0  0
  128.5880  125.7110   69.4090 C   0  0  0  0  0  0  0  0  0  0  0  0
  129.2790  126.5790   68.5480 C   0  0  0  0  0  0  0  0  0  0  0  0
  129.2520  126.5100   67.1420 N   0  0  0  0  0  0  0  0  0  0  0  0
  129.7000  125.5440   66.3130 C   0  0  0  0  0  0  0  0  0  0  0  0
  130.2550  124.5020   66.6630 O   0  0  0  0  0  0  0  0  0  0  0  0
  129.4840  125.8070   64.8210 C   0  0  0  0  0  0  0  0  0  0  0  0
  130.8120  125.0990   63.8020 S   0  0  0  0  0  0  0  0  0  0  0  0
  130.0970  123.7940   62.8240 C   0  0  0  0  0  0  0  0  0  0  0  0
  128.8440  124.0680   62.3900 N   0  0  0  0  0  0  0  0  0  0  0  0
  128.1790  123.1610   61.6270 C   0  0  0  0  0  0  0  0  0  0  0  0
  126.7980  123.5420   61.1850 C   0  0  0  0  0  0  0  0  0  0  0  0
  125.7720  123.7390   62.1230 C   0  0  0  0  0  0  0  0  0  0  0  0
  124.4870  124.0930   61.7180 C   0  0  0  0  0  0  0  0  0  0  0  0
  124.2100  124.2550   60.3640 C   0  0  0  0  0  0  0  0  0  0  0  0
  125.2070  124.0610   59.4140 C   0  0  0  0  0  0  0  0  0  0  0  0
  126.4900  123.7070   59.8230 C   0  0  0  0  0  0  0  0  0  0  0  0
  128.7660  121.9340   61.3000 C   0  0  0  0  0  0  0  0  0  0  0  0
  130.0550  121.6190   61.7540 C   0  0  0  0  0  0  0  0  0  0  0  0
  130.6630  120.2540   61.3770 C   0  0  0  0  0  0  0  0  0  0  0  0
  131.9970  120.2670   61.3670 F   0  0  0  0  0  0  0  0  0  0  0  0
  130.2790  119.3220   62.2500 F   0  0  0  0  0  0  0  0  0  0  0  0
  130.2550  119.8970   60.1580 F   0  0  0  0  0  0  0  0  0  0  0  0
  130.7450  122.5690   62.5470 C   0  0  0  0  0  0  0  0  0  0  0  0
  132.0700  122.2680   63.0950 C   0  0  0  0  0  0  0  0  0  0  0  0
  133.1170  122.0270   63.5250 N   0  0  0  0  0  0  0  0  0  0  0  0
  130.0500  127.6080   69.0900 C   0  0  0  0  0  0  0  0  0  0  0  0
  130.1440  127.7690   70.4690 C   0  0  0  0  0  0  0  0  0  0  0  0
  129.5853  129.8161   74.2154 H   0  0  0  0  0  0  0  0  0  0  0  0
  130.3942  130.2070   72.6599 H   0  0  0  0  0  0  0  0  0  0  0  0
  128.7574  129.4671   72.6599 H   0  0  0  0  0  0  0  0  0  0  0  0
  128.1394  125.1896   71.4557 H   0  0  0  0  0  0  0  0  0  0  0  0
  127.9716  124.9004   68.9930 H   0  0  0  0  0  0  0  0  0  0  0  0
  128.8650  127.3310   66.6990 H   0  0  0  0  0  0  0  0  0  0  0  0
  128.5265  125.3589   64.5169 H   0  0  0  0  0  0  0  0  0  0  0  0
  129.4824  126.8960   64.6660 H   0  0  0  0  0  0  0  0  0  0  0  0
  125.9862  123.6118   63.1944 H   0  0  0  0  0  0  0  0  0  0  0  0
  123.6944  124.2439   62.4656 H   0  0  0  0  0  0  0  0  0  0  0  0
  123.1966  124.5381   60.0432 H   0  0  0  0  0  0  0  0  0  0  0  0
  124.9830  124.1866   58.3444 H   0  0  0  0  0  0  0  0  0  0  0  0
  127.2755  123.5539   59.0683 H   0  0  0  0  0  0  0  0  0  0  0  0
  128.2127  121.2112   60.6825 H   0  0  0  0  0  0  0  0  0  0  0  0
  130.5876  128.2972   68.4221 H   0  0  0  0  0  0  0  0  0  0  0  0
  130.7597  128.5816   70.8820 H   0  0  0  0  0  0  0  0  0  0  0  0
  1  2  1  0
  2  3  1  0
  3  4  2  0
  3  5  1  0
  5  6  2  0
  6  7  1  0
  7  8  2  0
  8  9  1  0
  9 10  1  0
 10 11  2  0
 10 12  1  0
 12 13  1  0
 13 14  1  0
 14 15  2  0
 15 16  1  0
 16 17  1  0
 17 18  2  0
 18 19  1  0
 19 20  2  0
 20 21  1  0
 21 22  2  0
 16 23  2  0
 23 24  1  0
 24 25  1  0
 25 26  1  0
 25 27  1  0
 25 28  1  0
 24 29  2  0
 29 30  1  0
 30 31  3  0
  8 32  1  0
 32 33  2  0
 33  5  1  0
 29 14  1  0
 22 17  1  0
  1 34  1  0
  1 35  1  0
  1 36  1  0
  6 37  1  0
  7 38  1  0
  9 39  1  0
 12 40  1  0
 12 41  1  0
 18 42  1  0
 19 43  1  0
 20 44  1  0
 21 45  1  0
 22 46  1  0
 23 47  1  0
 32 48  1  0
 33 49  1  0
M  END
>  <Binding energies>  (1) 
[-8.1]

>  <Ligand effiencies>  (1) 
[-0.23823529411764705]

>  <Interactions>  (1) 
["V-A:HIS:456:CE1:4069, V-A:GLU:543:CB:4906, V-B:GLU:543:CD:9879, H-A:LYS:547:NZ:4951, H-B:LYS:547:NZ:9922, V-B:GLU:543:C:9873, V-B:GLU:543:CB:9877, V-B:GLU:543:CG:9878, V-B:ASP:366:CG:8184, V-B:LEU:363:CA:8156, V-B:ASN:362:C:8143, V-A:TRP:381:CH2:3371, V-B:TYR:539:CD2:9845, V-B:PRO:540:CA:9854, V-A:PRO:482:CG:4326, V-B:TYR:539:CE2:9847, V-A:PRO:482:CB:4325, V-B:PRO:540:C:9852, V-B:ALA:541:CB:9863, V-A:LEU:475:CD2:4258, V-B:PRO:540:CB:9856, V-B:TYR:539:C:9838, H-A:GLY:454:N:4049, V-B:ASN:362:CB:8147, H-A:TYR:484:OH:4347, V-B:TYR:539:CG:9843, V-B:ALA:541:CA:9861, H-B:GLU:543:OE1:9880, H-A:GLU:543:OE2:4910, V-A:LEU:475:CD1:4257, V-A:LEU:475:CG:4256"]

$$$$
3ac_Grossjean_2025
     RDKit          3D

 47 49  0  0  0  0  0  0  0  0999 V2000
  126.4920  122.0220   54.4360 C   0  0  0  0  0  0  0  0  0  0  0  0
  125.8350  121.7770   55.6750 O   0  0  0  0  0  0  0  0  0  0  0  0
  125.8670  122.7460   56.6600 C   0  0  0  0  0  0  0  0  0  0  0  0
  127.1060  122.9950   57.2480 C   0  0  0  0  0  0  0  0  0  0  0  0
  127.2370  123.9570   58.2450 C   0  0  0  0  0  0  0  0  0  0  0  0
  126.1240  124.6790   58.6770 C   0  0  0  0  0  0  0  0  0  0  0  0
  126.3580  125.6440   59.6750 N   0  0  0  0  0  0  0  0  0  0  0  0
  127.2970  125.6530   60.6450 C   0  0  0  0  0  0  0  0  0  0  0  0
  128.1720  124.7990   60.7980 O   0  0  0  0  0  0  0  0  0  0  0  0
  127.2380  126.8400   61.6080 C   0  0  0  0  0  0  0  0  0  0  0  0
  128.6880  127.9260   61.4520 S   0  0  0  0  0  0  0  0  0  0  0  0
  130.1580  126.9180   61.4300 C   0  0  0  0  0  0  0  0  0  0  0  0
  130.6800  126.7090   62.6630 N   0  0  0  0  0  0  0  0  0  0  0  0
  131.7990  125.9530   62.8050 C   0  0  0  0  0  0  0  0  0  0  0  0
  132.3140  125.7760   64.2020 C   0  0  0  0  0  0  0  0  0  0  0  0
  131.4700  125.9650   65.3090 C   0  0  0  0  0  0  0  0  0  0  0  0
  131.9410  125.7960   66.6080 C   0  0  0  0  0  0  0  0  0  0  0  0
  133.2690  125.4380   66.8190 C   0  0  0  0  0  0  0  0  0  0  0  0
  134.1270  125.2510   65.7420 C   0  0  0  0  0  0  0  0  0  0  0  0
  133.6520  125.4200   64.4440 C   0  0  0  0  0  0  0  0  0  0  0  0
  132.4350  125.3980   61.6910 C   0  0  0  0  0  0  0  0  0  0  0  0
  131.9290  125.6180   60.4010 C   0  0  0  0  0  0  0  0  0  0  0  0
  132.6650  124.9930   59.2000 C   0  0  0  0  0  0  0  0  0  0  0  0
  132.7950  125.8380   58.1750 F   0  0  0  0  0  0  0  0  0  0  0  0
  133.8930  124.6120   59.5580 F   0  0  0  0  0  0  0  0  0  0  0  0
  131.9930  123.9280   58.7620 F   0  0  0  0  0  0  0  0  0  0  0  0
  130.7640  126.4130   60.2570 C   0  0  0  0  0  0  0  0  0  0  0  0
  130.2440  126.7340   58.9260 C   0  0  0  0  0  0  0  0  0  0  0  0
  129.8330  126.9880   57.8740 N   0  0  0  0  0  0  0  0  0  0  0  0
  124.8740  124.4400   58.0850 C   0  0  0  0  0  0  0  0  0  0  0  0
  124.7470  123.4780   57.0870 C   0  0  0  0  0  0  0  0  0  0  0  0
  127.5069  122.4005   54.6277 H   0  0  0  0  0  0  0  0  0  0  0  0
  126.5522  121.0859   53.8615 H   0  0  0  0  0  0  0  0  0  0  0  0
  125.9246  122.7690   53.8615 H   0  0  0  0  0  0  0  0  0  0  0  0
  127.9886  122.4257   56.9209 H   0  0  0  0  0  0  0  0  0  0  0  0
  128.2224  124.1490   58.6945 H   0  0  0  0  0  0  0  0  0  0  0  0
  125.7660  126.4590   59.6150 H   0  0  0  0  0  0  0  0  0  0  0  0
  126.3322  127.4258   61.3927 H   0  0  0  0  0  0  0  0  0  0  0  0
  127.2239  126.4418   62.6333 H   0  0  0  0  0  0  0  0  0  0  0  0
  130.4203  126.2511   65.1468 H   0  0  0  0  0  0  0  0  0  0  0  0
  131.2663  125.9448   67.4640 H   0  0  0  0  0  0  0  0  0  0  0  0
  133.6420  125.3022   67.8449 H   0  0  0  0  0  0  0  0  0  0  0  0
  135.1767  124.9707   65.9141 H   0  0  0  0  0  0  0  0  0  0  0  0
  134.3349  125.2725   63.5944 H   0  0  0  0  0  0  0  0  0  0  0  0
  133.3381  124.7848   61.8265 H   0  0  0  0  0  0  0  0  0  0  0  0
  123.9936  125.0137   58.4101 H   0  0  0  0  0  0  0  0  0  0  0  0
  123.7641  123.2901   56.6303 H   0  0  0  0  0  0  0  0  0  0  0  0
  1  2  1  0
  2  3  1  0
  3  4  2  0
  4  5  1  0
  5  6  2  0
  6  7  1  0
  7  8  1  0
  8  9  2  0
  8 10  1  0
 10 11  1  0
 11 12  1  0
 12 13  2  0
 13 14  1  0
 14 15  1  0
 15 16  2  0
 16 17  1  0
 17 18  2  0
 18 19  1  0
 19 20  2  0
 14 21  2  0
 21 22  1  0
 22 23  1  0
 23 24  1  0
 23 25  1  0
 23 26  1  0
 22 27  2  0
 27 28  1  0
 28 29  3  0
  6 30  1  0
 30 31  2  0
 31  3  1  0
 27 12  1  0
 20 15  1  0
  1 32  1  0
  1 33  1  0
  1 34  1  0
  4 35  1  0
  5 36  1  0
  7 37  1  0
 10 38  1  0
 10 39  1  0
 16 40  1  0
 17 41  1  0
 18 42  1  0
 19 43  1  0
 20 44  1  0
 21 45  1  0
 30 46  1  0
 31 47  1  0
M  END
>  <Binding energies>  (1) 
[-7.21]

>  <Ligand effiencies>  (1) 
[-0.2253125]

>  <Interactions>  (1) 
["V-A:HIS:456:CE1:4069, V-A:GLU:543:CD:4908, V-B:MET:535:CE:9806, V-B:LEU:363:CD1:8160, V-B:PRO:540:CA:9854, V-B:TYR:539:CE2:9847, V-B:PRO:540:N:9855, V-B:TYR:539:CE1:9846, V-B:PRO:540:CB:9856, H-B:TYR:539:N:9841, V-A:ILE:369:CG2:3236, V-B:TYR:539:CZ:9848, V-A:ILE:369:CB:3235, V-A:ASP:366:CB:3211, V-B:PRO:540:CD:9858, V-A:ARG:545:CZ:4926, V-B:ILE:538:CA:9831, H-A:TYR:531:OH:4795, V-B:TYR:539:CD1:9844, V-A:ASP:366:CA:3209, V-A:ASP:366:CG:3212, V-A:ASP:366:C:3207, V-B:ILE:538:CD1:9836, V-A:GLY:454:CA:4048, V-A:ILE:369:CD1:3238, H-B:ASP:366:OD2:8186, V-A:ARG:545:CD:4923, V-A:ARG:545:CG:4922, V-B:ILE:538:CB:9833, V-B:ILE:538:C:9829, V-A:GLY:453:C:4041, V-A:GLY:453:CA:4043, V-B:VAL:537:C:9821"]

$$$$
3ad_Grossjean_2025
     RDKit          3D

 43 45  0  0  0  0  0  0  0  0999 V2000
  123.8160  124.4990   58.0260 N   0  0  0  0  0  0  0  0  0  0  0  0
  124.7900  124.0410   58.4500 C   0  0  0  0  0  0  0  0  0  0  0  0
  126.0240  123.4620   58.9910 C   0  0  0  0  0  0  0  0  0  0  0  0
  126.3400  123.5870   60.3660 C   0  0  0  0  0  0  0  0  0  0  0  0
  125.4090  124.2870   61.3740 C   0  0  0  0  0  0  0  0  0  0  0  0
  124.1260  124.2430   61.0110 F   0  0  0  0  0  0  0  0  0  0  0  0
  125.5100  123.7000   62.5690 F   0  0  0  0  0  0  0  0  0  0  0  0
  125.7460  125.5720   61.4940 F   0  0  0  0  0  0  0  0  0  0  0  0
  127.5560  123.0560   60.8240 C   0  0  0  0  0  0  0  0  0  0  0  0
  128.4300  122.4200   59.9360 C   0  0  0  0  0  0  0  0  0  0  0  0
  129.7470  121.8480   60.3690 C   0  0  0  0  0  0  0  0  0  0  0  0
  130.8950  122.6540   60.4260 C   0  0  0  0  0  0  0  0  0  0  0  0
  132.1200  122.1300   60.8290 C   0  0  0  0  0  0  0  0  0  0  0  0
  132.2140  120.7870   61.1810 C   0  0  0  0  0  0  0  0  0  0  0  0
  131.0910  119.9690   61.1360 C   0  0  0  0  0  0  0  0  0  0  0  0
  129.8670  120.4970   60.7340 C   0  0  0  0  0  0  0  0  0  0  0  0
  128.1240  122.3080   58.6190 N   0  0  0  0  0  0  0  0  0  0  0  0
  126.9480  122.7950   58.1570 C   0  0  0  0  0  0  0  0  0  0  0  0
  126.7100  122.5480   56.4110 S   0  0  0  0  0  0  0  0  0  0  0  0
  127.6220  123.8660   55.5510 C   0  0  0  0  0  0  0  0  0  0  0  0
  128.1940  124.9010   56.5210 C   0  0  0  0  0  0  0  0  0  0  0  0
  127.7580  126.0530   56.4930 O   0  0  0  0  0  0  0  0  0  0  0  0
  129.1580  124.4480   57.3500 N   0  0  0  0  0  0  0  0  0  0  0  0
  129.8730  125.1240   58.3560 C   0  0  0  0  0  0  0  0  0  0  0  0
  131.2600  125.1730   58.1850 C   0  0  0  0  0  0  0  0  0  0  0  0
  132.0620  125.8150   59.1240 C   0  0  0  0  0  0  0  0  0  0  0  0
  131.4790  126.4060   60.2410 C   0  0  0  0  0  0  0  0  0  0  0  0
  130.1000  126.3590   60.4280 C   0  0  0  0  0  0  0  0  0  0  0  0
  129.2940  125.7180   59.4910 C   0  0  0  0  0  0  0  0  0  0  0  0
  127.8233  123.1405   61.8877 H   0  0  0  0  0  0  0  0  0  0  0  0
  130.8254  123.7160   60.1479 H   0  0  0  0  0  0  0  0  0  0  0  0
  133.0102  122.7750   60.8691 H   0  0  0  0  0  0  0  0  0  0  0  0
  133.1820  120.3705   61.4965 H   0  0  0  0  0  0  0  0  0  0  0  0
  131.1691  118.9084   61.4170 H   0  0  0  0  0  0  0  0  0  0  0  0
  128.9807  119.8463   60.7018 H   0  0  0  0  0  0  0  0  0  0  0  0
  128.4508  123.4133   54.9869 H   0  0  0  0  0  0  0  0  0  0  0  0
  126.9178  124.3829   54.8825 H   0  0  0  0  0  0  0  0  0  0  0  0
  129.4460  123.4900   57.2150 H   0  0  0  0  0  0  0  0  0  0  0  0
  131.7196  124.7017   57.3037 H   0  0  0  0  0  0  0  0  0  0  0  0
  133.1523  125.8551   58.9838 H   0  0  0  0  0  0  0  0  0  0  0  0
  132.1129  126.9145   60.9823 H   0  0  0  0  0  0  0  0  0  0  0  0
  129.6481  126.8276   61.3147 H   0  0  0  0  0  0  0  0  0  0  0  0
  128.2048  125.6764   59.6387 H   0  0  0  0  0  0  0  0  0  0  0  0
  1  2  3  0
  2  3  1  0
  3  4  2  0
  4  5  1  0
  5  6  1  0
  5  7  1  0
  5  8  1  0
  4  9  1  0
  9 10  2  0
 10 11  1  0
 11 12  2  0
 12 13  1  0
 13 14  2  0
 14 15  1  0
 15 16  2  0
 10 17  1  0
 17 18  2  0
 18 19  1  0
 19 20  1  0
 20 21  1  0
 21 22  2  0
 21 23  1  0
 23 24  1  0
 24 25  2  0
 25 26  1  0
 26 27  2  0
 27 28  1  0
 28 29  2  0
 18  3  1  0
 29 24  1  0
 16 11  1  0
  9 30  1  0
 12 31  1  0
 13 32  1  0
 14 33  1  0
 15 34  1  0
 16 35  1  0
 20 36  1  0
 20 37  1  0
 23 38  1  0
 25 39  1  0
 26 40  1  0
 27 41  1  0
 28 42  1  0
 29 43  1  0
M  END
>  <Binding energies>  (1) 
[-7.15]

>  <Ligand effiencies>  (1) 
[-0.23833333333333334]

>  <Interactions>  (1) 
["V-B:GLU:543:CD:9879, V-B:GLU:543:CG:9878, V-B:MET:535:CE:9806, V-B:ASP:366:CG:8184, V-B:ASN:362:C:8143, V-A:TRP:381:CH2:3371, V-B:TYR:539:CD2:9845, V-B:PRO:540:CA:9854, V-B:TYR:539:CE2:9847, V-B:PRO:540:C:9852, V-B:ALA:541:CB:9863, V-B:PRO:540:N:9855, V-A:LEU:475:CD2:4258, V-B:TYR:539:CE1:9846, V-B:PRO:540:CB:9856, H-B:TYR:539:N:9841, V-A:ILE:369:CG2:3236, V-B:TYR:539:CZ:9848, V-A:ASP:366:CB:3211, V-B:TYR:539:C:9838, H-B:TYR:531:OH:9766, H-B:TYR:539:OH:9849, V-B:ASN:362:CA:8145, V-B:ASN:362:CB:8147, V-A:ASP:366:CG:3212"]

$$$$
3af_Grossjean_2025
     RDKit          3D

 42 44  0  0  0  0  0  0  0  0999 V2000
  133.1980  122.6730   61.7910 N   0  0  0  0  0  0  0  0  0  0  0  0
  132.1920  122.7100   61.2200 C   0  0  0  0  0  0  0  0  0  0  0  0
  130.9180  122.7550   60.4970 C   0  0  0  0  0  0  0  0  0  0  0  0
  129.9820  121.6990   60.6150 C   0  0  0  0  0  0  0  0  0  0  0  0
  130.2140  120.4810   61.5320 C   0  0  0  0  0  0  0  0  0  0  0  0
  129.2050  119.6070   61.4970 F   0  0  0  0  0  0  0  0  0  0  0  0
  131.3190  119.8340   61.1590 F   0  0  0  0  0  0  0  0  0  0  0  0
  130.3500  120.8790   62.7970 F   0  0  0  0  0  0  0  0  0  0  0  0
  128.8010  121.7610   59.8610 C   0  0  0  0  0  0  0  0  0  0  0  0
  128.5610  122.8460   59.0120 C   0  0  0  0  0  0  0  0  0  0  0  0
  127.3250  122.9540   58.1690 C   0  0  0  0  0  0  0  0  0  0  0  0
  127.2620  122.3450   56.9060 C   0  0  0  0  0  0  0  0  0  0  0  0
  126.1160  122.4400   56.1200 C   0  0  0  0  0  0  0  0  0  0  0  0
  125.0150  123.1460   56.5900 C   0  0  0  0  0  0  0  0  0  0  0  0
  125.0490  123.7560   57.8400 C   0  0  0  0  0  0  0  0  0  0  0  0
  126.1970  123.6580   58.6220 C   0  0  0  0  0  0  0  0  0  0  0  0
  129.4620  123.8540   58.8980 N   0  0  0  0  0  0  0  0  0  0  0  0
  130.6000  123.8280   59.6330 C   0  0  0  0  0  0  0  0  0  0  0  0
  131.6490  125.2420   59.3610 S   0  0  0  0  0  0  0  0  0  0  0  0
  130.8410  126.6920   60.1040 C   0  0  0  0  0  0  0  0  0  0  0  0
  131.2520  126.8870   61.5630 C   0  0  0  0  0  0  0  0  0  0  0  0
  131.0310  127.9680   62.1080 O   0  0  0  0  0  0  0  0  0  0  0  0
  131.8490  125.8230   62.1430 N   0  0  0  0  0  0  0  0  0  0  0  0
  132.3490  125.6770   63.4520 C   0  0  0  0  0  0  0  0  0  0  0  0
  131.6060  125.8300   64.6360 C   0  0  0  0  0  0  0  0  0  0  0  0
  132.2320  125.6570   65.8720 C   0  0  0  0  0  0  0  0  0  0  0  0
  133.5900  125.3350   65.8940 C   0  0  0  0  0  0  0  0  0  0  0  0
  134.3280  125.1820   64.7670 N   0  0  0  0  0  0  0  0  0  0  0  0
  133.7050  125.3530   63.5740 C   0  0  0  0  0  0  0  0  0  0  0  0
  128.0597  120.9520   59.9379 H   0  0  0  0  0  0  0  0  0  0  0  0
  128.1309  121.7842   56.5312 H   0  0  0  0  0  0  0  0  0  0  0  0
  126.0825  121.9584   55.1316 H   0  0  0  0  0  0  0  0  0  0  0  0
  124.1102  123.2231   55.9692 H   0  0  0  0  0  0  0  0  0  0  0  0
  124.1744  124.3123   58.2083 H   0  0  0  0  0  0  0  0  0  0  0  0
  126.2209  124.1397   59.6106 H   0  0  0  0  0  0  0  0  0  0  0  0
  131.1229  127.5884   59.5321 H   0  0  0  0  0  0  0  0  0  0  0  0
  129.7535  126.5292   60.0746 H   0  0  0  0  0  0  0  0  0  0  0  0
  131.9530  125.0030   61.5650 H   0  0  0  0  0  0  0  0  0  0  0  0
  130.5369  126.0847   64.5887 H   0  0  0  0  0  0  0  0  0  0  0  0
  131.6669  125.7720   66.8087 H   0  0  0  0  0  0  0  0  0  0  0  0
  134.0828  125.1995   66.8680 H   0  0  0  0  0  0  0  0  0  0  0  0
  134.2965  125.2306   62.6547 H   0  0  0  0  0  0  0  0  0  0  0  0
  1  2  3  0
  2  3  1  0
  3  4  2  0
  4  5  1  0
  5  6  1  0
  5  7  1  0
  5  8  1  0
  4  9  1  0
  9 10  2  0
 10 11  1  0
 11 12  2  0
 12 13  1  0
 13 14  2  0
 14 15  1  0
 15 16  2  0
 10 17  1  0
 17 18  2  0
 18 19  1  0
 19 20  1  0
 20 21  1  0
 21 22  2  0
 21 23  1  0
 23 24  1  0
 24 25  2  0
 25 26  1  0
 26 27  2  0
 27 28  1  0
 28 29  2  0
 18  3  1  0
 29 24  1  0
 16 11  1  0
  9 30  1  0
 12 31  1  0
 13 32  1  0
 14 33  1  0
 15 34  1  0
 16 35  1  0
 20 36  1  0
 20 37  1  0
 23 38  1  0
 25 39  1  0
 26 40  1  0
 27 41  1  0
 29 42  1  0
M  END
>  <Binding energies>  (1) 
[-7.47]

>  <Ligand effiencies>  (1) 
[-0.249]

>  <Interactions>  (1) 
["V-A:HIS:456:CE1:4069, V-B:MET:535:CE:9806, V-A:TRP:381:CZ2:3369, V-B:LEU:363:CD1:8160, V-A:TRP:381:CH2:3371, V-B:TYR:539:CD2:9845, V-B:PRO:540:CA:9854, V-A:PRO:482:CG:4326, V-B:TYR:539:CE2:9847, V-A:PRO:482:CB:4325, V-B:PRO:540:C:9852, V-B:ALA:541:CB:9863, V-B:PRO:540:N:9855, V-A:LEU:475:CD2:4258, V-B:TYR:539:CE1:9846, V-B:PRO:540:CB:9856, V-A:ILE:369:CG2:3236, V-B:TYR:539:CZ:9848, V-B:TYR:539:C:9838, V-B:PRO:540:CD:9858, V-A:ARG:545:CZ:4926, H-B:TYR:539:OH:9849, V-B:TYR:539:CD1:9844, H-A:GLY:454:N:4049, V-A:ASP:366:CG:3212, V-B:TYR:539:CA:9840, V-B:TYR:539:CG:9843, H-A:ARG:545:NH1:4927, H-A:ARG:545:NH2:4928, V-B:ALA:541:CA:9861, H-A:ARG:545:NE:4924, V-A:ARG:545:CD:4923, V-A:LEU:475:CD1:4257"]

$$$$
3ag_Grossjean_2025
     RDKit          3D

 46 48  0  0  0  0  0  0  0  0999 V2000
  123.9110  124.5670   57.9760 N   0  0  0  0  0  0  0  0  0  0  0  0
  124.8680  124.0800   58.4080 C   0  0  0  0  0  0  0  0  0  0  0  0
  126.0780  123.4640   58.9590 C   0  0  0  0  0  0  0  0  0  0  0  0
  126.3560  123.5280   60.3470 C   0  0  0  0  0  0  0  0  0  0  0  0
  125.3950  124.1830   61.3580 C   0  0  0  0  0  0  0  0  0  0  0  0
  124.1170  124.1100   60.9800 F   0  0  0  0  0  0  0  0  0  0  0  0
  125.4990  123.5760   62.5410 F   0  0  0  0  0  0  0  0  0  0  0  0
  125.6940  125.4740   61.5070 F   0  0  0  0  0  0  0  0  0  0  0  0
  127.5540  122.9700   60.8180 C   0  0  0  0  0  0  0  0  0  0  0  0
  128.4560  122.3770   59.9280 C   0  0  0  0  0  0  0  0  0  0  0  0
  129.7500  121.7680   60.3750 C   0  0  0  0  0  0  0  0  0  0  0  0
  130.9260  122.5330   60.4130 C   0  0  0  0  0  0  0  0  0  0  0  0
  132.1320  121.9750   60.8280 C   0  0  0  0  0  0  0  0  0  0  0  0
  132.1780  120.6380   61.2110 C   0  0  0  0  0  0  0  0  0  0  0  0
  131.0270  119.8570   61.1800 C   0  0  0  0  0  0  0  0  0  0  0  0
  129.8240  120.4190   60.7640 C   0  0  0  0  0  0  0  0  0  0  0  0
  128.1800  122.3060   58.6000 N   0  0  0  0  0  0  0  0  0  0  0  0
  127.0200  122.8210   58.1250 C   0  0  0  0  0  0  0  0  0  0  0  0
  126.8270  122.6370   56.3660 S   0  0  0  0  0  0  0  0  0  0  0  0
  127.8140  123.9420   55.5740 C   0  0  0  0  0  0  0  0  0  0  0  0
  128.1290  125.0910   56.5330 C   0  0  0  0  0  0  0  0  0  0  0  0
  127.3260  126.0170   56.6670 O   0  0  0  0  0  0  0  0  0  0  0  0
  129.2960  125.0140   57.1960 N   0  0  0  0  0  0  0  0  0  0  0  0
  129.7770  125.9790   58.1830 C   0  0  0  0  0  0  0  0  0  0  0  0
  131.0740  125.5700   58.8730 C   0  0  0  0  0  0  0  0  0  0  0  0
  132.1090  125.0010   58.1250 C   0  0  0  0  0  0  0  0  0  0  0  0
  133.3050  124.6530   58.7460 C   0  0  0  0  0  0  0  0  0  0  0  0
  133.4670  124.8840   60.1110 C   0  0  0  0  0  0  0  0  0  0  0  0
  132.4450  125.4640   60.8590 C   0  0  0  0  0  0  0  0  0  0  0  0
  131.2490  125.8120   60.2390 C   0  0  0  0  0  0  0  0  0  0  0  0
  127.7854  122.9989   61.8930 H   0  0  0  0  0  0  0  0  0  0  0  0
  130.8943  123.5900   60.1101 H   0  0  0  0  0  0  0  0  0  0  0  0
  133.0447  122.5884   60.8531 H   0  0  0  0  0  0  0  0  0  0  0  0
  133.1300  120.1960   61.5402 H   0  0  0  0  0  0  0  0  0  0  0  0
  131.0678  118.8003   61.4829 H   0  0  0  0  0  0  0  0  0  0  0  0
  128.9164  119.7979   60.7391 H   0  0  0  0  0  0  0  0  0  0  0  0
  128.7601  123.5057   55.2212 H   0  0  0  0  0  0  0  0  0  0  0  0
  127.2255  124.3507   54.7393 H   0  0  0  0  0  0  0  0  0  0  0  0
  129.8890  124.2140   57.0320 H   0  0  0  0  0  0  0  0  0  0  0  0
  129.9446  126.9395   57.6738 H   0  0  0  0  0  0  0  0  0  0  0  0
  129.0072  126.0420   58.9663 H   0  0  0  0  0  0  0  0  0  0  0  0
  131.9782  124.8285   57.0465 H   0  0  0  0  0  0  0  0  0  0  0  0
  134.1186  124.1978   58.1623 H   0  0  0  0  0  0  0  0  0  0  0  0
  134.4110  124.6056   60.6023 H   0  0  0  0  0  0  0  0  0  0  0  0
  132.5829  125.6461   61.9350 H   0  0  0  0  0  0  0  0  0  0  0  0
  130.4414  126.2773   60.8232 H   0  0  0  0  0  0  0  0  0  0  0  0
  1  2  3  0
  2  3  1  0
  3  4  2  0
  4  5  1  0
  5  6  1  0
  5  7  1  0
  5  8  1  0
  4  9  1  0
  9 10  2  0
 10 11  1  0
 11 12  2  0
 12 13  1  0
 13 14  2  0
 14 15  1  0
 15 16  2  0
 10 17  1  0
 17 18  2  0
 18 19  1  0
 19 20  1  0
 20 21  1  0
 21 22  2  0
 21 23  1  0
 23 24  1  0
 24 25  1  0
 25 26  2  0
 26 27  1  0
 27 28  2  0
 28 29  1  0
 29 30  2  0
 18  3  1  0
 30 25  1  0
 16 11  1  0
  9 31  1  0
 12 32  1  0
 13 33  1  0
 14 34  1  0
 15 35  1  0
 16 36  1  0
 20 37  1  0
 20 38  1  0
 23 39  1  0
 24 40  1  0
 24 41  1  0
 26 42  1  0
 27 43  1  0
 28 44  1  0
 29 45  1  0
 30 46  1  0
M  END
>  <Binding energies>  (1) 
[-8.05]

>  <Ligand effiencies>  (1) 
[-0.25967741935483873]

>  <Interactions>  (1) 
["V-B:GLU:543:CD:9879, V-B:GLU:543:CG:9878, V-B:ASP:366:CG:8184, V-B:ASN:362:C:8143, V-A:TRP:381:CH2:3371, V-B:TYR:539:CD2:9845, V-B:PRO:540:CA:9854, V-B:TYR:539:CE2:9847, V-B:PRO:540:C:9852, V-B:ALA:541:CB:9863, V-B:PRO:540:N:9855, V-A:LEU:475:CD2:4258, V-B:TYR:539:CE1:9846, V-B:PRO:540:CB:9856, V-A:ILE:369:CG2:3236, V-B:TYR:539:CZ:9848, V-A:ILE:369:CB:3235, V-A:ASP:366:CB:3211, V-B:TYR:539:C:9838, H-B:TYR:531:OH:9766, H-B:TYR:539:OH:9849, V-A:ASP:366:CA:3209, V-B:ASN:362:CA:8145, V-B:ASN:362:CB:8147, V-A:ASP:366:CG:3212, V-A:ASP:366:C:3207, V-A:ILE:369:CD1:3238"]

$$$$
3ai_Grossjean_2025
     RDKit          3D

 39 41  0  0  0  0  0  0  0  0999 V2000
  133.2590  122.7850   61.6890 N   0  0  0  0  0  0  0  0  0  0  0  0
  132.2460  122.8150   61.1300 C   0  0  0  0  0  0  0  0  0  0  0  0
  130.9620  122.8530   60.4240 C   0  0  0  0  0  0  0  0  0  0  0  0
  130.0150  121.8120   60.5870 C   0  0  0  0  0  0  0  0  0  0  0  0
  130.2460  120.6190   61.5340 C   0  0  0  0  0  0  0  0  0  0  0  0
  131.3200  119.8970   61.2050 F   0  0  0  0  0  0  0  0  0  0  0  0
  130.4240  121.0560   62.7820 F   0  0  0  0  0  0  0  0  0  0  0  0
  129.1940  119.8010   61.5070 F   0  0  0  0  0  0  0  0  0  0  0  0
  128.8220  121.8700   59.8520 C   0  0  0  0  0  0  0  0  0  0  0  0
  128.5810  122.9340   58.9770 C   0  0  0  0  0  0  0  0  0  0  0  0
  127.3290  123.0410   58.1590 C   0  0  0  0  0  0  0  0  0  0  0  0
  127.2230  122.3870   56.9220 C   0  0  0  0  0  0  0  0  0  0  0  0
  126.0620  122.4780   56.1590 C   0  0  0  0  0  0  0  0  0  0  0  0
  124.9870  123.2260   56.6260 C   0  0  0  0  0  0  0  0  0  0  0  0
  125.0650  123.8820   57.8500 C   0  0  0  0  0  0  0  0  0  0  0  0
  126.2270  123.7890   58.6100 C   0  0  0  0  0  0  0  0  0  0  0  0
  129.4950  123.9250   58.8170 N   0  0  0  0  0  0  0  0  0  0  0  0
  130.6440  123.9040   59.5340 C   0  0  0  0  0  0  0  0  0  0  0  0
  131.7080  125.2940   59.2090 S   0  0  0  0  0  0  0  0  0  0  0  0
  131.3830  126.5580   60.4860 C   0  0  0  0  0  0  0  0  0  0  0  0
  131.4300  126.0450   61.9330 C   0  0  0  0  0  0  0  0  0  0  0  0
  130.4170  125.6030   62.4780 O   0  0  0  0  0  0  0  0  0  0  0  0
  132.6450  126.1290   62.5210 N   0  0  0  0  0  0  0  0  0  0  0  0
  132.9840  125.7380   63.8100 C   0  0  0  0  0  0  0  0  0  0  0  0
  132.2130  126.0510   64.9290 C   0  0  0  0  0  0  0  0  0  0  0  0
  132.8830  125.4930   65.9930 C   0  0  0  0  0  0  0  0  0  0  0  0
  133.9990  124.8740   65.5390 O   0  0  0  0  0  0  0  0  0  0  0  0
  134.0510  125.0360   64.1540 N   0  0  0  0  0  0  0  0  0  0  0  0
  128.0713  121.0738   59.9644 H   0  0  0  0  0  0  0  0  0  0  0  0
  128.0706  121.7931   56.5493 H   0  0  0  0  0  0  0  0  0  0  0  0
  125.9955  121.9603   55.1907 H   0  0  0  0  0  0  0  0  0  0  0  0
  124.0694  123.2994   56.0239 H   0  0  0  0  0  0  0  0  0  0  0  0
  124.2116  124.4719   58.2158 H   0  0  0  0  0  0  0  0  0  0  0  0
  126.2843  124.3084   59.5780 H   0  0  0  0  0  0  0  0  0  0  0  0
  132.1373  127.3516   60.3805 H   0  0  0  0  0  0  0  0  0  0  0  0
  130.3541  126.9086   60.3171 H   0  0  0  0  0  0  0  0  0  0  0  0
  133.4000  126.5120   61.9720 H   0  0  0  0  0  0  0  0  0  0  0  0
  131.2725  126.6209   64.9552 H   0  0  0  0  0  0  0  0  0  0  0  0
  132.5635  125.5417   67.0445 H   0  0  0  0  0  0  0  0  0  0  0  0
  1  2  3  0
  2  3  1  0
  3  4  2  0
  4  5  1  0
  5  6  1  0
  5  7  1  0
  5  8  1  0
  4  9  1  0
  9 10  2  0
 10 11  1  0
 11 12  2  0
 12 13  1  0
 13 14  2  0
 14 15  1  0
 15 16  2  0
 10 17  1  0
 17 18  2  0
 18 19  1  0
 19 20  1  0
 20 21  1  0
 21 22  2  0
 21 23  1  0
 23 24  1  0
 24 25  1  0
 25 26  2  0
 26 27  1  0
 27 28  1  0
 18  3  1  0
 28 24  2  0
 16 11  1  0
  9 29  1  0
 12 30  1  0
 13 31  1  0
 14 32  1  0
 15 33  1  0
 16 34  1  0
 20 35  1  0
 20 36  1  0
 23 37  1  0
 25 38  1  0
 26 39  1  0
M  END
>  <Binding energies>  (1) 
[-8.0]

>  <Ligand effiencies>  (1) 
[-0.27586206896551724]

>  <Interactions>  (1) 
["V-A:HIS:456:CE1:4069, V-B:MET:535:CE:9806, V-A:TRP:381:CZ2:3369, V-B:LEU:363:CD1:8160, V-A:TRP:381:CH2:3371, V-B:TYR:539:CD2:9845, V-B:PRO:540:CA:9854, V-A:PRO:482:CG:4326, V-B:TYR:539:CE2:9847, V-A:PRO:482:CB:4325, V-B:PRO:540:C:9852, V-B:ALA:541:CB:9863, V-B:PRO:540:N:9855, V-A:LEU:475:CD2:4258, V-B:TYR:539:CE1:9846, V-B:PRO:540:CB:9856, V-A:ILE:369:CG2:3236, V-B:TYR:539:CZ:9848, V-B:TYR:539:C:9838, V-B:PRO:540:CD:9858, V-A:ARG:545:CZ:4926, H-B:TYR:539:OH:9849, V-B:TYR:539:CD1:9844, H-A:GLY:454:N:4049, V-A:ASP:366:CG:3212, H-A:TYR:484:OH:4347, V-B:TYR:539:CG:9843, H-A:ARG:545:NH1:4927, H-A:ASP:366:OD1:3213, V-B:ALA:541:CA:9861, H-A:ASP:366:OD2:3214, V-A:ARG:545:CD:4923, V-A:LEU:475:CD1:4257"]

$$$$
3aj_Grossjean_2025
     RDKit          3D

 39 41  0  0  0  0  0  0  0  0999 V2000
  133.3150  122.3610   61.7270 N   0  0  0  0  0  0  0  0  0  0  0  0
  132.2970  122.4480   61.1850 C   0  0  0  0  0  0  0  0  0  0  0  0
  131.0060  122.5560   60.4990 C   0  0  0  0  0  0  0  0  0  0  0  0
  130.0110  121.5630   60.6690 C   0  0  0  0  0  0  0  0  0  0  0  0
  130.1970  120.3490   61.6010 C   0  0  0  0  0  0  0  0  0  0  0  0
  129.1730  119.4940   61.5460 F   0  0  0  0  0  0  0  0  0  0  0  0
  131.3000  119.6800   61.2630 F   0  0  0  0  0  0  0  0  0  0  0  0
  130.3090  120.7580   62.8650 F   0  0  0  0  0  0  0  0  0  0  0  0
  128.8100  121.6880   59.9530 C   0  0  0  0  0  0  0  0  0  0  0  0
  128.6100  122.7700   59.0900 C   0  0  0  0  0  0  0  0  0  0  0  0
  127.3530  122.9470   58.2950 C   0  0  0  0  0  0  0  0  0  0  0  0
  127.2360  122.3990   57.0090 C   0  0  0  0  0  0  0  0  0  0  0  0
  126.0680  122.5550   56.2660 C   0  0  0  0  0  0  0  0  0  0  0  0
  124.9990  123.2660   56.8030 C   0  0  0  0  0  0  0  0  0  0  0  0
  125.0890  123.8170   58.0770 C   0  0  0  0  0  0  0  0  0  0  0  0
  126.2570  123.6570   58.8160 C   0  0  0  0  0  0  0  0  0  0  0  0
  129.5700  123.7160   58.9250 N   0  0  0  0  0  0  0  0  0  0  0  0
  130.7280  123.6300   59.6230 C   0  0  0  0  0  0  0  0  0  0  0  0
  131.8550  124.9680   59.2950 S   0  0  0  0  0  0  0  0  0  0  0  0
  131.5600  126.2660   60.5440 C   0  0  0  0  0  0  0  0  0  0  0  0
  131.5520  125.7770   62.0000 C   0  0  0  0  0  0  0  0  0  0  0  0
  130.5850  125.1580   62.4520 O   0  0  0  0  0  0  0  0  0  0  0  0
  132.6650  126.0800   62.7030 N   0  0  0  0  0  0  0  0  0  0  0  0
  132.9220  125.7550   64.0290 C   0  0  0  0  0  0  0  0  0  0  0  0
  134.0200  125.2350   64.5340 N   0  0  0  0  0  0  0  0  0  0  0  0
  133.9200  125.0600   65.8370 C   0  0  0  0  0  0  0  0  0  0  0  0
  132.7130  125.4430   66.4180 C   0  0  0  0  0  0  0  0  0  0  0  0
  131.6620  126.0620   65.1800 S   0  0  0  0  0  0  0  0  0  0  0  0
  128.0215  120.9302   60.0715 H   0  0  0  0  0  0  0  0  0  0  0  0
  128.0794  121.8375   56.5807 H   0  0  0  0  0  0  0  0  0  0  0  0
  125.9910  122.1182   55.2594 H   0  0  0  0  0  0  0  0  0  0  0  0
  124.0772  123.3930   56.2164 H   0  0  0  0  0  0  0  0  0  0  0  0
  124.2408  124.3766   58.4983 H   0  0  0  0  0  0  0  0  0  0  0  0
  126.3240  124.0929   59.8237 H   0  0  0  0  0  0  0  0  0  0  0  0
  132.3516  127.0230   60.4428 H   0  0  0  0  0  0  0  0  0  0  0  0
  130.5517  126.6588   60.3464 H   0  0  0  0  0  0  0  0  0  0  0  0
  133.3950  126.5870   62.2250 H   0  0  0  0  0  0  0  0  0  0  0  0
  134.7426  124.6358   66.4314 H   0  0  0  0  0  0  0  0  0  0  0  0
  132.4654  125.3661   67.4870 H   0  0  0  0  0  0  0  0  0  0  0  0
  1  2  3  0
  2  3  1  0
  3  4  2  0
  4  5  1  0
  5  6  1  0
  5  7  1  0
  5  8  1  0
  4  9  1  0
  9 10  2  0
 10 11  1  0
 11 12  2  0
 12 13  1  0
 13 14  2  0
 14 15  1  0
 15 16  2  0
 10 17  1  0
 17 18  2  0
 18 19  1  0
 19 20  1  0
 20 21  1  0
 21 22  2  0
 21 23  1  0
 23 24  1  0
 24 25  2  0
 25 26  1  0
 26 27  2  0
 27 28  1  0
 18  3  1  0
 28 24  1  0
 16 11  1  0
  9 29  1  0
 12 30  1  0
 13 31  1  0
 14 32  1  0
 15 33  1  0
 16 34  1  0
 20 35  1  0
 20 36  1  0
 23 37  1  0
 26 38  1  0
 27 39  1  0
M  END
>  <Binding energies>  (1) 
[-7.57]

>  <Ligand effiencies>  (1) 
[-0.2610344827586207]

>  <Interactions>  (1) 
["V-A:HIS:456:CE1:4069, V-A:GLU:543:CD:4908, V-B:MET:535:CE:9806, V-A:TRP:381:CZ2:3369, V-B:LEU:363:CD1:8160, V-A:TRP:381:CH2:3371, V-B:TYR:539:CD2:9845, V-B:PRO:540:CA:9854, V-A:PRO:482:CG:4326, V-B:TYR:539:CE2:9847, V-A:PRO:482:CB:4325, V-B:PRO:540:C:9852, V-B:ALA:541:CB:9863, V-B:PRO:540:N:9855, V-A:LEU:475:CD2:4258, V-B:TYR:539:CE1:9846, V-B:PRO:540:CB:9856, V-A:ILE:369:CG2:3236, V-B:TYR:539:CZ:9848, V-B:TYR:539:C:9838, V-B:PRO:540:CD:9858, V-A:ARG:545:CZ:4926, H-B:TYR:539:OH:9849, V-B:TYR:539:CD1:9844, H-A:GLY:454:N:4049, V-A:ASP:366:CG:3212, V-B:TYR:539:CG:9843, V-A:GLY:454:CA:4048, H-A:ARG:545:NH1:4927, H-A:ARG:545:NH2:4928, H-A:ASP:366:OD1:3213, V-B:ALA:541:CA:9861, H-A:ASP:366:OD2:3214, H-A:ARG:545:NE:4924, V-A:ARG:545:CD:4923, V-A:LEU:475:CD1:4257, V-A:GLY:453:C:4041"]

$$$$
3ak_Grossjean_2025
     RDKit          3D

 57 58  0  0  0  0  0  0  0  0999 V2000
  123.6030  131.7280   59.3000 C   0  0  0  0  0  0  0  0  0  0  0  0
  123.8630  131.8440   57.9100 O   0  0  0  0  0  0  0  0  0  0  0  0
  124.2670  130.6230   57.3070 C   0  0  0  0  0  0  0  0  0  0  0  0
  125.7950  130.6110   57.1790 C   0  0  0  0  0  0  0  0  0  0  0  0
  126.1680  129.6680   56.1800 O   0  0  0  0  0  0  0  0  0  0  0  0
  127.3820  128.9610   56.4240 C   0  0  0  0  0  0  0  0  0  0  0  0
  127.1910  127.6590   57.2220 C   0  0  0  0  0  0  0  0  0  0  0  0
  127.6350  126.5610   56.4380 O   0  0  0  0  0  0  0  0  0  0  0  0
  128.9780  126.6810   55.9860 C   0  0  0  0  0  0  0  0  0  0  0  0
  129.7780  125.4190   56.3560 C   0  0  0  0  0  0  0  0  0  0  0  0
  130.4790  125.5240   57.6370 N   0  0  0  0  0  0  0  0  0  0  0  0
  131.8140  125.4930   57.8130 C   0  0  0  0  0  0  0  0  0  0  0  0
  132.6070  125.3870   56.8770 O   0  0  0  0  0  0  0  0  0  0  0  0
  132.3760  125.5940   59.2410 C   0  0  0  0  0  0  0  0  0  0  0  0
  131.1690  125.4300   60.6080 S   0  0  0  0  0  0  0  0  0  0  0  0
  130.2520  123.9140   60.3840 C   0  0  0  0  0  0  0  0  0  0  0  0
  129.1840  123.9920   59.5520 N   0  0  0  0  0  0  0  0  0  0  0  0
  128.4200  122.8930   59.3230 C   0  0  0  0  0  0  0  0  0  0  0  0
  127.2600  123.0700   58.3890 C   0  0  0  0  0  0  0  0  0  0  0  0
  127.2470  122.4410   57.1350 C   0  0  0  0  0  0  0  0  0  0  0  0
  126.1710  122.5970   56.2650 C   0  0  0  0  0  0  0  0  0  0  0  0
  125.0900  123.3870   56.6400 C   0  0  0  0  0  0  0  0  0  0  0  0
  125.0760  124.0190   57.8780 C   0  0  0  0  0  0  0  0  0  0  0  0
  126.1530  123.8590   58.7460 C   0  0  0  0  0  0  0  0  0  0  0  0
  128.7290  121.6680   59.9240 C   0  0  0  0  0  0  0  0  0  0  0  0
  129.8290  121.5590   60.7870 C   0  0  0  0  0  0  0  0  0  0  0  0
  130.1360  120.1940   61.4320 C   0  0  0  0  0  0  0  0  0  0  0  0
  129.1500  119.3350   61.1730 F   0  0  0  0  0  0  0  0  0  0  0  0
  131.2760  119.7030   60.9430 F   0  0  0  0  0  0  0  0  0  0  0  0
  130.2680  120.2650   62.7590 F   0  0  0  0  0  0  0  0  0  0  0  0
  130.6150  122.7120   61.0300 C   0  0  0  0  0  0  0  0  0  0  0  0
  131.7760  122.6580   61.9230 C   0  0  0  0  0  0  0  0  0  0  0  0
  132.6930  122.6150   62.6300 N   0  0  0  0  0  0  0  0  0  0  0  0
  124.4637  132.1120   59.8673 H   0  0  0  0  0  0  0  0  0  0  0  0
  122.7059  132.3113   59.5552 H   0  0  0  0  0  0  0  0  0  0  0  0
  123.4378  130.6708   59.5552 H   0  0  0  0  0  0  0  0  0  0  0  0
  123.9426  129.7780   57.9320 H   0  0  0  0  0  0  0  0  0  0  0  0
  123.8099  130.5315   56.3107 H   0  0  0  0  0  0  0  0  0  0  0  0
  126.1491  131.6121   56.8920 H   0  0  0  0  0  0  0  0  0  0  0  0
  126.2469  130.3312   58.1421 H   0  0  0  0  0  0  0  0  0  0  0  0
  127.8385  128.7105   55.4551 H   0  0  0  0  0  0  0  0  0  0  0  0
  128.0204  129.6193   57.0316 H   0  0  0  0  0  0  0  0  0  0  0  0
  127.7770  127.7080   58.1516 H   0  0  0  0  0  0  0  0  0  0  0  0
  126.1270  127.5300   57.4694 H   0  0  0  0  0  0  0  0  0  0  0  0
  128.9837  126.8075   54.8933 H   0  0  0  0  0  0  0  0  0  0  0  0
  129.4422  127.5543   56.4675 H   0  0  0  0  0  0  0  0  0  0  0  0
  129.0817  124.5691   56.4092 H   0  0  0  0  0  0  0  0  0  0  0  0
  130.5447  125.2837   55.5789 H   0  0  0  0  0  0  0  0  0  0  0  0
  129.8950  125.6340   58.4540 H   0  0  0  0  0  0  0  0  0  0  0  0
  133.1272  124.7995   59.3614 H   0  0  0  0  0  0  0  0  0  0  0  0
  132.7740  126.6160   59.3254 H   0  0  0  0  0  0  0  0  0  0  0  0
  128.1000  121.8149   56.8344 H   0  0  0  0  0  0  0  0  0  0  0  0
  126.1762  122.0973   55.2851 H   0  0  0  0  0  0  0  0  0  0  0  0
  124.2405  123.5127   55.9526 H   0  0  0  0  0  0  0  0  0  0  0  0
  124.2183  124.6425   58.1706 H   0  0  0  0  0  0  0  0  0  0  0  0
  126.1372  124.3578   59.7263 H   0  0  0  0  0  0  0  0  0  0  0  0
  128.1056  120.7853   59.7184 H   0  0  0  0  0  0  0  0  0  0  0  0
  1  2  1  0
  2  3  1  0
  3  4  1  0
  4  5  1  0
  5  6  1  0
  6  7  1  0
  7  8  1  0
  8  9  1  0
  9 10  1  0
 10 11  1  0
 11 12  1  0
 12 13  2  0
 12 14  1  0
 14 15  1  0
 15 16  1  0
 16 17  2  0
 17 18  1  0
 18 19  1  0
 19 20  2  0
 20 21  1  0
 21 22  2  0
 22 23  1  0
 23 24  2  0
 18 25  2  0
 25 26  1  0
 26 27  1  0
 27 28  1  0
 27 29  1  0
 27 30  1  0
 26 31  2  0
 31 32  1  0
 32 33  3  0
 31 16  1  0
 24 19  1  0
  1 34  1  0
  1 35  1  0
  1 36  1  0
  3 37  1  0
  3 38  1  0
  4 39  1  0
  4 40  1  0
  6 41  1  0
  6 42  1  0
  7 43  1  0
  7 44  1  0
  9 45  1  0
  9 46  1  0
 10 47  1  0
 10 48  1  0
 11 49  1  0
 14 50  1  0
 14 51  1  0
 20 52  1  0
 21 53  1  0
 22 54  1  0
 23 55  1  0
 24 56  1  0
 25 57  1  0
M  END
>  <Binding energies>  (1) 
[-6.92]

>  <Ligand effiencies>  (1) 
[-0.20352941176470588]

>  <Interactions>  (1) 
["V-B:MET:535:CE:9806, V-A:TRP:381:CZ2:3369, V-B:LEU:363:CD1:8160, V-A:TRP:381:CH2:3371, V-B:TYR:539:CD2:9845, V-B:PRO:540:CA:9854, V-A:PRO:482:CG:4326, V-B:TYR:539:CE2:9847, V-A:PRO:482:CB:4325, V-B:PRO:540:C:9852, V-B:ALA:541:CB:9863, V-B:PRO:540:N:9855, V-A:LEU:475:CD2:4258, V-B:TYR:539:CE1:9846, V-B:PRO:540:CB:9856, V-B:TYR:539:CZ:9848, V-A:ASP:366:CB:3211, V-B:TYR:539:C:9838, V-B:PRO:540:CD:9858, V-B:ASP:366:CA:8181, H-A:TYR:539:OH:4878, V-B:ASP:366:C:8179, H-A:TYR:531:OH:4795, H-B:TYR:531:OH:9766, V-A:MET:535:CE:4835, H-B:TYR:539:OH:9849, V-B:TYR:539:CD1:9844, V-B:ASP:366:CB:8183, V-A:ASP:366:CA:3209, V-A:ASP:366:CG:3212, V-B:TYR:539:CG:9843, V-B:ALA:541:CA:9861, V-B:TYR:531:CZ:9765, V-A:TYR:539:CZ:4877, V-A:LEU:475:CD1:4257, V-B:ILE:369:CG2:8208, V-B:ILE:369:CB:8207, V-B:TYR:531:CE1:9763, V-A:LEU:475:CG:4256"]

$$$$
3bc_Grossjean_2025
     RDKit          3D

 47 49  0  0  0  0  0  0  0  0999 V2000
  129.1960  133.2720   55.1250 C   0  0  0  0  0  0  0  0  0  0  0  0
  130.3190  133.4200   55.9860 O   0  0  0  0  0  0  0  0  0  0  0  0
  130.7310  132.3420   56.7470 C   0  0  0  0  0  0  0  0  0  0  0  0
  130.0320  131.1490   56.5650 C   0  0  0  0  0  0  0  0  0  0  0  0
  130.3740  130.0090   57.2870 C   0  0  0  0  0  0  0  0  0  0  0  0
  131.4190  130.0500   58.2110 C   0  0  0  0  0  0  0  0  0  0  0  0
  131.7000  128.8460   58.8840 N   0  0  0  0  0  0  0  0  0  0  0  0
  130.8780  127.8100   59.1550 C   0  0  0  0  0  0  0  0  0  0  0  0
  129.6990  127.7380   58.8020 O   0  0  0  0  0  0  0  0  0  0  0  0
  131.5340  126.6550   59.9270 C   0  0  0  0  0  0  0  0  0  0  0  0
  131.8950  125.1670   58.9350 S   0  0  0  0  0  0  0  0  0  0  0  0
  130.7680  123.8880   59.4440 C   0  0  0  0  0  0  0  0  0  0  0  0
  129.6030  123.8810   58.7510 N   0  0  0  0  0  0  0  0  0  0  0  0
  128.6510  122.9540   59.0360 C   0  0  0  0  0  0  0  0  0  0  0  0
  127.3830  123.0290   58.2390 C   0  0  0  0  0  0  0  0  0  0  0  0
  127.2780  122.3860   56.9960 C   0  0  0  0  0  0  0  0  0  0  0  0
  126.1040  122.4500   56.2510 C   0  0  0  0  0  0  0  0  0  0  0  0
  125.0150  123.1630   56.7400 C   0  0  0  0  0  0  0  0  0  0  0  0
  125.0930  123.8130   57.9680 C   0  0  0  0  0  0  0  0  0  0  0  0
  126.2700  123.7460   58.7090 C   0  0  0  0  0  0  0  0  0  0  0  0
  128.8550  122.0000   60.0380 C   0  0  0  0  0  0  0  0  0  0  0  0
  130.0610  121.9790   60.7470 C   0  0  0  0  0  0  0  0  0  0  0  0
  130.2470  120.9080   61.8210 C   0  0  0  0  0  0  0  0  0  0  0  0
  131.0560  122.9340   60.4460 C   0  0  0  0  0  0  0  0  0  0  0  0
  132.3450  122.9000   61.1400 C   0  0  0  0  0  0  0  0  0  0  0  0
  133.3620  122.8710   61.6910 N   0  0  0  0  0  0  0  0  0  0  0  0
  132.1360  131.2420   58.3910 C   0  0  0  0  0  0  0  0  0  0  0  0
  131.7910  132.3800   57.6660 C   0  0  0  0  0  0  0  0  0  0  0  0
  128.2844  133.1519   55.7288 H   0  0  0  0  0  0  0  0  0  0  0  0
  129.1003  134.1653   54.4903 H   0  0  0  0  0  0  0  0  0  0  0  0
  129.3350  132.3844   54.4903 H   0  0  0  0  0  0  0  0  0  0  0  0
  129.2023  131.1085   55.8439 H   0  0  0  0  0  0  0  0  0  0  0  0
  129.8187  129.0728   57.1287 H   0  0  0  0  0  0  0  0  0  0  0  0
  132.6690  128.7300   59.1450 H   0  0  0  0  0  0  0  0  0  0  0  0
  132.4816  127.0217   60.3484 H   0  0  0  0  0  0  0  0  0  0  0  0
  130.8057  126.3446   60.6907 H   0  0  0  0  0  0  0  0  0  0  0  0
  128.1374  121.8223   56.6041 H   0  0  0  0  0  0  0  0  0  0  0  0
  126.0380  121.9386   55.2793 H   0  0  0  0  0  0  0  0  0  0  0  0
  124.0863  123.2136   56.1527 H   0  0  0  0  0  0  0  0  0  0  0  0
  124.2296  124.3766   58.3512 H   0  0  0  0  0  0  0  0  0  0  0  0
  126.3293  124.2629   59.6782 H   0  0  0  0  0  0  0  0  0  0  0  0
  128.0680  121.2668   60.2685 H   0  0  0  0  0  0  0  0  0  0  0  0
  130.1669  121.3692   62.8164 H   0  0  0  0  0  0  0  0  0  0  0  0
  129.4691  120.1383   61.7098 H   0  0  0  0  0  0  0  0  0  0  0  0
  131.2389  120.4456   61.7098 H   0  0  0  0  0  0  0  0  0  0  0  0
  132.9716  131.2780   59.1055 H   0  0  0  0  0  0  0  0  0  0  0  0
  132.3526  133.3141   57.8146 H   0  0  0  0  0  0  0  0  0  0  0  0
  1  2  1  0
  2  3  1  0
  3  4  2  0
  4  5  1  0
  5  6  2  0
  6  7  1  0
  7  8  1  0
  8  9  2  0
  8 10  1  0
 10 11  1  0
 11 12  1  0
 12 13  2  0
 13 14  1  0
 14 15  1  0
 15 16  2  0
 16 17  1  0
 17 18  2  0
 18 19  1  0
 19 20  2  0
 14 21  2  0
 21 22  1  0
 22 23  1  0
 22 24  2  0
 24 25  1  0
 25 26  3  0
  6 27  1  0
 27 28  2  0
 28  3  1  0
 24 12  1  0
 20 15  1  0
  1 29  1  0
  1 30  1  0
  1 31  1  0
  4 32  1  0
  5 33  1  0
  7 34  1  0
 10 35  1  0
 10 36  1  0
 16 37  1  0
 17 38  1  0
 18 39  1  0
 19 40  1  0
 20 41  1  0
 21 42  1  0
 23 43  1  0
 23 44  1  0
 23 45  1  0
 27 46  1  0
 28 47  1  0
M  END
>  <Binding energies>  (1) 
[-8.56]

>  <Ligand effiencies>  (1) 
[-0.29517241379310344]

>  <Interactions>  (1) 
["V-B:MET:535:CE:9806, V-B:LEU:363:CD1:8160, V-B:TYR:539:CD2:9845, V-B:PRO:540:CA:9854, V-B:TYR:539:CE2:9847, V-B:ALA:541:CB:9863, V-B:PRO:540:N:9855, V-A:LEU:475:CD2:4258, V-B:TYR:539:CE1:9846, V-B:PRO:540:CB:9856, V-A:ILE:369:CG2:3236, V-B:TYR:539:CZ:9848, V-A:ASP:366:CB:3211, V-B:TYR:539:C:9838, V-B:PRO:540:CD:9858, H-A:TYR:531:OH:4795, V-A:TYR:539:CG:4872, V-A:PRO:540:N:4884, V-A:MET:535:CE:4835, H-B:TYR:539:OH:9849, V-B:TYR:539:CD1:9844, V-A:PRO:540:CB:4885, V-A:LEU:363:CD1:3188, V-A:ASP:366:CG:3212, V-A:PRO:540:CA:4883, V-B:TYR:539:CG:9843, H-A:ASP:366:OD1:3213, H-A:ASP:366:OD2:3214, V-A:TYR:539:CZ:4877, H-A:TYR:539:N:4870, V-A:ILE:538:CB:4862, V-A:ILE:538:CA:4860, V-A:TYR:539:CE1:4875, V-A:TYR:539:CD1:4873, V-A:ILE:538:C:4858"]

$$$$
3bd_Grossjean_2025
     RDKit          3D

 43 45  0  0  0  0  0  0  0  0999 V2000
  125.3830  124.3690   61.3260 C   0  0  0  0  0  0  0  0  0  0  0  0
  126.3000  123.6580   60.3320 C   0  0  0  0  0  0  0  0  0  0  0  0
  127.5040  123.1250   60.8060 C   0  0  0  0  0  0  0  0  0  0  0  0
  128.3730  122.4700   59.9270 C   0  0  0  0  0  0  0  0  0  0  0  0
  129.6760  121.8720   60.3690 C   0  0  0  0  0  0  0  0  0  0  0  0
  130.8450  122.6490   60.4100 C   0  0  0  0  0  0  0  0  0  0  0  0
  132.0570  122.0990   60.8180 C   0  0  0  0  0  0  0  0  0  0  0  0
  132.1180  120.7610   61.1930 C   0  0  0  0  0  0  0  0  0  0  0  0
  130.9750  119.9690   61.1590 C   0  0  0  0  0  0  0  0  0  0  0  0
  129.7650  120.5220   60.7490 C   0  0  0  0  0  0  0  0  0  0  0  0
  128.0580  122.3310   58.6120 N   0  0  0  0  0  0  0  0  0  0  0  0
  126.8950  122.8430   58.1350 C   0  0  0  0  0  0  0  0  0  0  0  0
  126.6040  122.6040   56.3900 S   0  0  0  0  0  0  0  0  0  0  0  0
  127.6260  123.8010   55.4790 C   0  0  0  0  0  0  0  0  0  0  0  0
  128.2150  124.8700   56.4010 C   0  0  0  0  0  0  0  0  0  0  0  0
  127.8450  126.0380   56.2750 O   0  0  0  0  0  0  0  0  0  0  0  0
  129.1290  124.4340   57.2940 N   0  0  0  0  0  0  0  0  0  0  0  0
  129.8200  125.1610   58.2810 C   0  0  0  0  0  0  0  0  0  0  0  0
  131.2110  125.1980   58.1570 C   0  0  0  0  0  0  0  0  0  0  0  0
  131.9810  125.8860   59.0910 C   0  0  0  0  0  0  0  0  0  0  0  0
  131.3590  126.5310   60.1570 C   0  0  0  0  0  0  0  0  0  0  0  0
  129.9740  126.4900   60.3000 C   0  0  0  0  0  0  0  0  0  0  0  0
  129.2020  125.8040   59.3670 C   0  0  0  0  0  0  0  0  0  0  0  0
  125.9770  123.5220   58.9650 C   0  0  0  0  0  0  0  0  0  0  0  0
  124.7240  124.0690   58.4370 C   0  0  0  0  0  0  0  0  0  0  0  0
  123.7330  124.4990   58.0220 N   0  0  0  0  0  0  0  0  0  0  0  0
  125.6961  124.1262   62.3522 H   0  0  0  0  0  0  0  0  0  0  0  0
  125.4467  125.4561   61.1707 H   0  0  0  0  0  0  0  0  0  0  0  0
  124.3460  124.0366   61.1707 H   0  0  0  0  0  0  0  0  0  0  0  0
  127.7670  123.2211   61.8698 H   0  0  0  0  0  0  0  0  0  0  0  0
  130.8024  123.7079   60.1154 H   0  0  0  0  0  0  0  0  0  0  0  0
  132.9640  122.7209   60.8438 H   0  0  0  0  0  0  0  0  0  0  0  0
  133.0750  120.3269   61.5181 H   0  0  0  0  0  0  0  0  0  0  0  0
  131.0270  118.9108   61.4547 H   0  0  0  0  0  0  0  0  0  0  0  0
  128.8638  119.8919   60.7220 H   0  0  0  0  0  0  0  0  0  0  0  0
  128.4498  123.2630   54.9873 H   0  0  0  0  0  0  0  0  0  0  0  0
  126.9836  124.3046   54.7416 H   0  0  0  0  0  0  0  0  0  0  0  0
  129.4020  123.4640   57.2200 H   0  0  0  0  0  0  0  0  0  0  0  0
  131.7000  124.6814   57.3179 H   0  0  0  0  0  0  0  0  0  0  0  0
  133.0756  125.9199   58.9873 H   0  0  0  0  0  0  0  0  0  0  0  0
  131.9669  127.0778   60.8928 H   0  0  0  0  0  0  0  0  0  0  0  0
  129.4918  126.9984   61.1480 H   0  0  0  0  0  0  0  0  0  0  0  0
  128.1085  125.7652   59.4797 H   0  0  0  0  0  0  0  0  0  0  0  0
  1  2  1  0
  2  3  2  0
  3  4  1  0
  4  5  1  0
  5  6  2  0
  6  7  1  0
  7  8  2  0
  8  9  1  0
  9 10  2  0
  4 11  2  0
 11 12  1  0
 12 13  1  0
 13 14  1  0
 14 15  1  0
 15 16  2  0
 15 17  1  0
 17 18  1  0
 18 19  2  0
 19 20  1  0
 20 21  2  0
 21 22  1  0
 22 23  2  0
 12 24  2  0
 24 25  1  0
 25 26  3  0
 24  2  1  0
 10  5  1  0
 23 18  1  0
  1 27  1  0
  1 28  1  0
  1 29  1  0
  3 30  1  0
  6 31  1  0
  7 32  1  0
  8 33  1  0
  9 34  1  0
 10 35  1  0
 14 36  1  0
 14 37  1  0
 17 38  1  0
 19 39  1  0
 20 40  1  0
 21 41  1  0
 22 42  1  0
 23 43  1  0
M  END
>  <Binding energies>  (1) 
[-7.38]

>  <Ligand effiencies>  (1) 
[-0.2733333333333333]

>  <Interactions>  (1) 
["V-B:MET:535:CE:9806, V-B:LEU:363:CD1:8160, V-A:TRP:381:CH2:3371, V-B:TYR:539:CD2:9845, V-B:PRO:540:CA:9854, V-B:TYR:539:CE2:9847, V-B:ALA:541:CB:9863, V-B:PRO:540:N:9855, V-A:LEU:475:CD2:4258, V-B:TYR:539:CE1:9846, V-B:PRO:540:CB:9856, H-B:TYR:539:N:9841, V-A:ILE:369:CG2:3236, V-B:TYR:539:CZ:9848, V-A:ASP:366:CB:3211, V-B:TYR:539:C:9838, H-B:TYR:531:OH:9766, H-B:TYR:539:OH:9849, V-B:TYR:539:CD1:9844, V-A:ASP:366:CG:3212"]

$$$$
3be_Grossjean_2025
     RDKit          3D

 45 47  0  0  0  0  0  0  0  0999 V2000
  130.2290  119.0030   61.0960 C   0  0  0  0  0  0  0  0  0  0  0  0
  130.2690  120.5180   61.1190 C   0  0  0  0  0  0  0  0  0  0  0  0
  131.4120  121.2140   61.5190 C   0  0  0  0  0  0  0  0  0  0  0  0
  131.3760  122.6080   61.5180 C   0  0  0  0  0  0  0  0  0  0  0  0
  130.2100  123.2680   61.1190 C   0  0  0  0  0  0  0  0  0  0  0  0
  129.1010  122.5100   60.7260 C   0  0  0  0  0  0  0  0  0  0  0  0
  127.9550  123.2320   60.3460 N   0  0  0  0  0  0  0  0  0  0  0  0
  126.8650  123.5380   61.0830 C   0  0  0  0  0  0  0  0  0  0  0  0
  126.7000  123.2070   62.2590 O   0  0  0  0  0  0  0  0  0  0  0  0
  125.7970  124.3580   60.3420 C   0  0  0  0  0  0  0  0  0  0  0  0
  125.2220  123.6380   58.7660 S   0  0  0  0  0  0  0  0  0  0  0  0
  126.4840  123.9080   57.5410 C   0  0  0  0  0  0  0  0  0  0  0  0
  127.4910  124.7110   57.9670 N   0  0  0  0  0  0  0  0  0  0  0  0
  128.5260  124.9990   57.1340 C   0  0  0  0  0  0  0  0  0  0  0  0
  129.5910  125.9060   57.6760 C   0  0  0  0  0  0  0  0  0  0  0  0
  129.3810  127.2910   57.7590 C   0  0  0  0  0  0  0  0  0  0  0  0
  130.3650  128.1380   58.2590 C   0  0  0  0  0  0  0  0  0  0  0  0
  131.5790  127.6090   58.6840 C   0  0  0  0  0  0  0  0  0  0  0  0
  131.8140  126.2410   58.6120 C   0  0  0  0  0  0  0  0  0  0  0  0
  130.8270  125.3970   58.1100 C   0  0  0  0  0  0  0  0  0  0  0  0
  128.5670  124.4800   55.8350 C   0  0  0  0  0  0  0  0  0  0  0  0
  127.5490  123.6310   55.3890 C   0  0  0  0  0  0  0  0  0  0  0  0
  127.6460  123.0740   53.9700 C   0  0  0  0  0  0  0  0  0  0  0  0
  126.4800  123.3190   56.2570 C   0  0  0  0  0  0  0  0  0  0  0  0
  125.4330  122.3890   55.8300 C   0  0  0  0  0  0  0  0  0  0  0  0
  124.6060  121.6540   55.4900 N   0  0  0  0  0  0  0  0  0  0  0  0
  129.1300  121.1450   60.7280 N   0  0  0  0  0  0  0  0  0  0  0  0
  130.2189  118.6208   62.1274 H   0  0  0  0  0  0  0  0  0  0  0  0
  129.3217  118.6681   60.5720 H   0  0  0  0  0  0  0  0  0  0  0  0
  131.1174  118.6207   60.5720 H   0  0  0  0  0  0  0  0  0  0  0  0
  132.3198  120.6749   61.8277 H   0  0  0  0  0  0  0  0  0  0  0  0
  132.2595  123.1847   61.8292 H   0  0  0  0  0  0  0  0  0  0  0  0
  130.1648  124.3671   61.1140 H   0  0  0  0  0  0  0  0  0  0  0  0
  127.9480  123.5340   59.3820 H   0  0  0  0  0  0  0  0  0  0  0  0
  124.9265  124.4629   61.0062 H   0  0  0  0  0  0  0  0  0  0  0  0
  126.2709  125.3170   60.0855 H   0  0  0  0  0  0  0  0  0  0  0  0
  128.4227  127.7139   57.4232 H   0  0  0  0  0  0  0  0  0  0  0  0
  130.1836  129.2213   58.3179 H   0  0  0  0  0  0  0  0  0  0  0  0
  132.3580  128.2774   59.0796 H   0  0  0  0  0  0  0  0  0  0  0  0
  132.7754  125.8270   58.9501 H   0  0  0  0  0  0  0  0  0  0  0  0
  131.0176  124.3152   58.0522 H   0  0  0  0  0  0  0  0  0  0  0  0
  129.3997  124.7397   55.1649 H   0  0  0  0  0  0  0  0  0  0  0  0
  127.8346  121.9911   54.0132 H   0  0  0  0  0  0  0  0  0  0  0  0
  126.7018  123.2608   53.4374 H   0  0  0  0  0  0  0  0  0  0  0  0
  128.4715  123.5690   53.4374 H   0  0  0  0  0  0  0  0  0  0  0  0
  1  2  1  0
  2  3  2  0
  3  4  1  0
  4  5  2  0
  5  6  1  0
  6  7  1  0
  7  8  1  0
  8  9  2  0
  8 10  1  0
 10 11  1  0
 11 12  1  0
 12 13  2  0
 13 14  1  0
 14 15  1  0
 15 16  2  0
 16 17  1  0
 17 18  2  0
 18 19  1  0
 19 20  2  0
 14 21  2  0
 21 22  1  0
 22 23  1  0
 22 24  2  0
 24 25  1  0
 25 26  3  0
  6 27  2  0
 27  2  1  0
 24 12  1  0
 20 15  1  0
  1 28  1  0
  1 29  1  0
  1 30  1  0
  3 31  1  0
  4 32  1  0
  5 33  1  0
  7 34  1  0
 10 35  1  0
 10 36  1  0
 16 37  1  0
 17 38  1  0
 18 39  1  0
 19 40  1  0
 20 41  1  0
 21 42  1  0
 23 43  1  0
 23 44  1  0
 23 45  1  0
M  END
>  <Binding energies>  (1) 
[-7.89]

>  <Ligand effiencies>  (1) 
[-0.28178571428571425]

>  <Interactions>  (1) 
["V-B:MET:535:CE:9806, V-A:TRP:381:CZ2:3369, V-B:LEU:363:CD1:8160, V-A:TRP:381:CH2:3371, V-B:TYR:539:CD2:9845, V-B:PRO:540:CA:9854, V-A:PRO:482:CG:4326, V-B:TYR:539:CE2:9847, V-A:PRO:482:CB:4325, V-B:ALA:541:CB:9863, V-B:PRO:540:N:9855, V-A:LEU:475:CD2:4258, V-B:TYR:539:CE1:9846, H-B:TYR:539:N:9841, H-B:ALA:541:N:9862, V-B:TYR:539:CZ:9848, V-A:ASP:366:CB:3211, V-B:PRO:540:CD:9858, V-B:TYR:539:CD1:9844, V-B:ILE:538:CG2:9834, V-A:ASP:366:CG:3212, V-B:ILE:538:CD1:9836, V-B:MET:535:CB:9803, V-B:MET:535:CG:9804"]

$$$$
3bf_Grossjean_2025
     RDKit          3D

 42 44  0  0  0  0  0  0  0  0999 V2000
  126.5050  122.3280   54.9860 C   0  0  0  0  0  0  0  0  0  0  0  0
  126.9930  123.2280   56.1180 C   0  0  0  0  0  0  0  0  0  0  0  0
  126.3750  123.1110   57.3670 C   0  0  0  0  0  0  0  0  0  0  0  0
  126.8020  123.9070   58.4360 C   0  0  0  0  0  0  0  0  0  0  0  0
  126.1960  123.8130   59.8050 C   0  0  0  0  0  0  0  0  0  0  0  0
  127.0100  123.6660   60.9390 C   0  0  0  0  0  0  0  0  0  0  0  0
  126.4550  123.5780   62.2130 C   0  0  0  0  0  0  0  0  0  0  0  0
  125.0740  123.6360   62.3690 C   0  0  0  0  0  0  0  0  0  0  0  0
  124.2460  123.7810   61.2610 C   0  0  0  0  0  0  0  0  0  0  0  0
  124.8050  123.8670   59.9890 C   0  0  0  0  0  0  0  0  0  0  0  0
  127.8160  124.7990   58.2800 N   0  0  0  0  0  0  0  0  0  0  0  0
  128.4080  124.9420   57.0680 C   0  0  0  0  0  0  0  0  0  0  0  0
  129.7070  126.1590   57.0500 S   0  0  0  0  0  0  0  0  0  0  0  0
  130.5740  126.0860   58.6540 C   0  0  0  0  0  0  0  0  0  0  0  0
  131.0960  124.6970   59.0510 C   0  0  0  0  0  0  0  0  0  0  0  0
  132.2650  124.3770   58.8270 O   0  0  0  0  0  0  0  0  0  0  0  0
  130.1890  123.9100   59.6700 N   0  0  0  0  0  0  0  0  0  0  0  0
  130.3400  122.5940   60.1450 C   0  0  0  0  0  0  0  0  0  0  0  0
  131.6310  122.1870   60.5000 C   0  0  0  0  0  0  0  0  0  0  0  0
  131.8440  120.8980   60.9920 C   0  0  0  0  0  0  0  0  0  0  0  0
  130.7480  120.0440   61.1200 C   0  0  0  0  0  0  0  0  0  0  0  0
  129.4840  120.4150   60.7940 N   0  0  0  0  0  0  0  0  0  0  0  0
  129.2920  121.6720   60.3170 C   0  0  0  0  0  0  0  0  0  0  0  0
  128.0410  124.1600   55.9520 C   0  0  0  0  0  0  0  0  0  0  0  0
  128.7360  124.2630   54.6650 C   0  0  0  0  0  0  0  0  0  0  0  0
  129.2820  124.3450   53.6480 N   0  0  0  0  0  0  0  0  0  0  0  0
  126.0211  121.4356   55.4097 H   0  0  0  0  0  0  0  0  0  0  0  0
  125.7815  122.8780   54.3662 H   0  0  0  0  0  0  0  0  0  0  0  0
  127.3606  122.0218   54.3662 H   0  0  0  0  0  0  0  0  0  0  0  0
  125.5534  122.3935   57.5092 H   0  0  0  0  0  0  0  0  0  0  0  0
  128.1025  123.6196   60.8195 H   0  0  0  0  0  0  0  0  0  0  0  0
  127.1059  123.4631   63.0923 H   0  0  0  0  0  0  0  0  0  0  0  0
  124.6341  123.5668   63.3748 H   0  0  0  0  0  0  0  0  0  0  0  0
  123.1545  123.8275   61.3892 H   0  0  0  0  0  0  0  0  0  0  0  0
  124.1470  123.9790   59.1147 H   0  0  0  0  0  0  0  0  0  0  0  0
  131.4325  126.7723   58.6087 H   0  0  0  0  0  0  0  0  0  0  0  0
  129.8309  126.3629   59.4163 H   0  0  0  0  0  0  0  0  0  0  0  0
  129.2900  124.3260   59.8650 H   0  0  0  0  0  0  0  0  0  0  0  0
  132.4768  122.8818   60.3915 H   0  0  0  0  0  0  0  0  0  0  0  0
  132.8535  120.5630   61.2725 H   0  0  0  0  0  0  0  0  0  0  0  0
  130.9158  119.0261   61.5016 H   0  0  0  0  0  0  0  0  0  0  0  0
  128.2704  121.9831   60.0532 H   0  0  0  0  0  0  0  0  0  0  0  0
  1  2  1  0
  2  3  2  0
  3  4  1  0
  4  5  1  0
  5  6  2  0
  6  7  1  0
  7  8  2  0
  8  9  1  0
  9 10  2  0
  4 11  2  0
 11 12  1  0
 12 13  1  0
 13 14  1  0
 14 15  1  0
 15 16  2  0
 15 17  1  0
 17 18  1  0
 18 19  2  0
 19 20  1  0
 20 21  2  0
 21 22  1  0
 22 23  2  0
 12 24  2  0
 24 25  1  0
 25 26  3  0
 24  2  1  0
 10  5  1  0
 23 18  1  0
  1 27  1  0
  1 28  1  0
  1 29  1  0
  3 30  1  0
  6 31  1  0
  7 32  1  0
  8 33  1  0
  9 34  1  0
 10 35  1  0
 14 36  1  0
 14 37  1  0
 17 38  1  0
 19 39  1  0
 20 40  1  0
 21 41  1  0
 23 42  1  0
M  END
>  <Binding energies>  (1) 
[-7.49]

>  <Ligand effiencies>  (1) 
[-0.27740740740740744]

>  <Interactions>  (1) 
["V-B:GLU:543:CD:9879, V-B:GLU:543:CG:9878, V-B:MET:535:CE:9806, V-B:ASN:362:C:8143, V-A:TRP:381:CH2:3371, V-B:TYR:539:CD2:9845, V-B:PRO:540:CA:9854, V-B:TYR:539:CE2:9847, V-B:ALA:541:CB:9863, V-B:PRO:540:N:9855, V-A:LEU:475:CD2:4258, V-B:TYR:539:CE1:9846, V-B:PRO:540:CB:9856, H-B:ALA:541:N:9862, V-A:ILE:369:CG2:3236, V-B:TYR:539:CZ:9848, V-B:ILE:538:CA:9831, H-A:TYR:531:OH:4795, H-B:TYR:539:OH:9849, V-B:TYR:539:CD1:9844, V-B:ASN:362:CA:8145, V-B:ASN:362:CB:8147, V-B:ILE:538:CD1:9836, H-A:ASN:370:ND2:3247"]

$$$$
3bg_Grossjean_2025
     RDKit          3D

 46 48  0  0  0  0  0  0  0  0999 V2000
  125.1290  124.2780   61.1190 C   0  0  0  0  0  0  0  0  0  0  0  0
  126.1350  123.6360   60.1660 C   0  0  0  0  0  0  0  0  0  0  0  0
  127.2960  123.0760   60.7090 C   0  0  0  0  0  0  0  0  0  0  0  0
  128.2420  122.4710   59.8710 C   0  0  0  0  0  0  0  0  0  0  0  0
  129.5050  121.8410   60.3920 C   0  0  0  0  0  0  0  0  0  0  0  0
  129.4990  120.5410   60.9250 C   0  0  0  0  0  0  0  0  0  0  0  0
  130.6690  119.9480   61.3910 C   0  0  0  0  0  0  0  0  0  0  0  0
  131.8690  120.6480   61.3340 C   0  0  0  0  0  0  0  0  0  0  0  0
  131.9030  121.9400   60.8230 C   0  0  0  0  0  0  0  0  0  0  0  0
  130.7300  122.5300   60.3600 C   0  0  0  0  0  0  0  0  0  0  0  0
  128.0340  122.4050   58.5290 N   0  0  0  0  0  0  0  0  0  0  0  0
  126.9110  122.9400   57.9860 C   0  0  0  0  0  0  0  0  0  0  0  0
  126.7440  122.7570   56.2170 S   0  0  0  0  0  0  0  0  0  0  0  0
  127.9190  123.8930   55.4110 C   0  0  0  0  0  0  0  0  0  0  0  0
  128.2190  125.1160   56.2830 C   0  0  0  0  0  0  0  0  0  0  0  0
  127.4720  126.0940   56.2470 O   0  0  0  0  0  0  0  0  0  0  0  0
  129.3280  125.0520   57.0400 N   0  0  0  0  0  0  0  0  0  0  0  0
  129.9010  126.1620   57.8030 C   0  0  0  0  0  0  0  0  0  0  0  0
  131.0720  125.7110   58.6670 C   0  0  0  0  0  0  0  0  0  0  0  0
  132.1690  125.0700   58.0800 C   0  0  0  0  0  0  0  0  0  0  0  0
  133.2340  124.6490   58.8700 C   0  0  0  0  0  0  0  0  0  0  0  0
  133.2070  124.8800   60.2450 C   0  0  0  0  0  0  0  0  0  0  0  0
  132.1280  125.5360   60.8330 C   0  0  0  0  0  0  0  0  0  0  0  0
  131.0620  125.9570   60.0420 C   0  0  0  0  0  0  0  0  0  0  0  0
  125.9290  123.5790   58.7710 C   0  0  0  0  0  0  0  0  0  0  0  0
  124.7190  124.1500   58.1740 C   0  0  0  0  0  0  0  0  0  0  0  0
  123.7640  124.6000   57.7030 N   0  0  0  0  0  0  0  0  0  0  0  0
  125.4330  124.0840   62.1582 H   0  0  0  0  0  0  0  0  0  0  0  0
  125.0979  125.3633   60.9426 H   0  0  0  0  0  0  0  0  0  0  0  0
  124.1315  123.8491   60.9426 H   0  0  0  0  0  0  0  0  0  0  0  0
  127.4666  123.1106   61.7951 H   0  0  0  0  0  0  0  0  0  0  0  0
  128.5530  119.9819   60.9749 H   0  0  0  0  0  0  0  0  0  0  0  0
  130.6443  118.9284   61.8032 H   0  0  0  0  0  0  0  0  0  0  0  0
  132.7954  120.1772   61.6949 H   0  0  0  0  0  0  0  0  0  0  0  0
  132.8525  122.4940   60.7845 H   0  0  0  0  0  0  0  0  0  0  0  0
  130.7624  123.5548   59.9616 H   0  0  0  0  0  0  0  0  0  0  0  0
  128.8586  123.3547   55.2177 H   0  0  0  0  0  0  0  0  0  0  0  0
  127.4644  124.2455   54.4734 H   0  0  0  0  0  0  0  0  0  0  0  0
  129.8840  124.2110   57.0020 H   0  0  0  0  0  0  0  0  0  0  0  0
  130.2527  126.9323   57.1009 H   0  0  0  0  0  0  0  0  0  0  0  0
  129.1194  126.5591   58.4674 H   0  0  0  0  0  0  0  0  0  0  0  0
  132.1891  124.8990   56.9936 H   0  0  0  0  0  0  0  0  0  0  0  0
  134.0930  124.1365   58.4123 H   0  0  0  0  0  0  0  0  0  0  0  0
  134.0455  124.5410   60.8711 H   0  0  0  0  0  0  0  0  0  0  0  0
  132.1180  125.7207   61.9173 H   0  0  0  0  0  0  0  0  0  0  0  0
  130.2118  126.4835   60.5001 H   0  0  0  0  0  0  0  0  0  0  0  0
  1  2  1  0
  2  3  2  0
  3  4  1  0
  4  5  1  0
  5  6  2  0
  6  7  1  0
  7  8  2  0
  8  9  1  0
  9 10  2  0
  4 11  2  0
 11 12  1  0
 12 13  1  0
 13 14  1  0
 14 15  1  0
 15 16  2  0
 15 17  1  0
 17 18  1  0
 18 19  1  0
 19 20  2  0
 20 21  1  0
 21 22  2  0
 22 23  1  0
 23 24  2  0
 12 25  2  0
 25 26  1  0
 26 27  3  0
 25  2  1  0
 10  5  1  0
 24 19  1  0
  1 28  1  0
  1 29  1  0
  1 30  1  0
  3 31  1  0
  6 32  1  0
  7 33  1  0
  8 34  1  0
  9 35  1  0
 10 36  1  0
 14 37  1  0
 14 38  1  0
 17 39  1  0
 18 40  1  0
 18 41  1  0
 20 42  1  0
 21 43  1  0
 22 44  1  0
 23 45  1  0
 24 46  1  0
M  END
>  <Binding energies>  (1) 
[-8.36]

>  <Ligand effiencies>  (1) 
[-0.29857142857142854]

>  <Interactions>  (1) 
["V-B:LEU:363:CD1:8160, V-B:TYR:539:CD2:9845, V-B:PRO:540:CA:9854, V-B:TYR:539:CE2:9847, V-B:PRO:540:C:9852, V-B:ALA:541:CB:9863, V-B:PRO:540:N:9855, V-A:LEU:475:CD2:4258, V-B:TYR:539:CE1:9846, V-B:PRO:540:CB:9856, V-A:ILE:369:CG2:3236, V-B:TYR:539:CZ:9848, V-A:ILE:369:CB:3235, V-A:ASP:366:CB:3211, V-B:TYR:539:C:9838, H-B:TYR:531:OH:9766, H-B:TYR:539:OH:9849, V-B:TYR:539:CD1:9844, V-A:ASP:366:CA:3209, V-A:ASP:366:CG:3212, V-A:ASP:366:C:3207"]

$$$$
3bk_Grossjean_2025
     RDKit          3D

 57 58  0  0  0  0  0  0  0  0999 V2000
  123.8700  132.0880   59.2120 C   0  0  0  0  0  0  0  0  0  0  0  0
  123.8780  131.9310   57.8020 O   0  0  0  0  0  0  0  0  0  0  0  0
  124.2590  130.6290   57.3790 C   0  0  0  0  0  0  0  0  0  0  0  0
  125.7620  130.6080   57.0680 C   0  0  0  0  0  0  0  0  0  0  0  0
  125.9920  129.8260   55.9050 O   0  0  0  0  0  0  0  0  0  0  0  0
  127.2500  129.1650   55.8960 C   0  0  0  0  0  0  0  0  0  0  0  0
  128.1380  129.7520   57.0010 C   0  0  0  0  0  0  0  0  0  0  0  0
  128.6380  128.6980   57.8140 O   0  0  0  0  0  0  0  0  0  0  0  0
  128.6940  127.4400   57.1540 C   0  0  0  0  0  0  0  0  0  0  0  0
  128.5950  126.3140   58.1930 C   0  0  0  0  0  0  0  0  0  0  0  0
  129.9090  125.8600   58.6510 N   0  0  0  0  0  0  0  0  0  0  0  0
  130.9610  125.5890   57.8590 C   0  0  0  0  0  0  0  0  0  0  0  0
  130.9430  125.7130   56.6340 O   0  0  0  0  0  0  0  0  0  0  0  0
  132.2420  125.1300   58.5600 C   0  0  0  0  0  0  0  0  0  0  0  0
  131.9420  124.6760   60.2980 S   0  0  0  0  0  0  0  0  0  0  0  0
  130.7320  123.3650   60.3550 C   0  0  0  0  0  0  0  0  0  0  0  0
  129.5200  123.6530   59.8150 N   0  0  0  0  0  0  0  0  0  0  0  0
  128.5350  122.7160   59.8170 C   0  0  0  0  0  0  0  0  0  0  0  0
  127.2350  123.1090   59.1820 C   0  0  0  0  0  0  0  0  0  0  0  0
  126.9600  122.7770   57.8460 C   0  0  0  0  0  0  0  0  0  0  0  0
  125.7560  123.1440   57.2500 C   0  0  0  0  0  0  0  0  0  0  0  0
  124.8090  123.8500   57.9830 C   0  0  0  0  0  0  0  0  0  0  0  0
  125.0550  124.1870   59.3100 C   0  0  0  0  0  0  0  0  0  0  0  0
  126.2590  123.8170   59.9040 C   0  0  0  0  0  0  0  0  0  0  0  0
  128.7530  121.4470   60.3660 C   0  0  0  0  0  0  0  0  0  0  0  0
  129.9950  121.1340   60.9280 C   0  0  0  0  0  0  0  0  0  0  0  0
  130.1900  119.7380   61.5170 C   0  0  0  0  0  0  0  0  0  0  0  0
  131.0170  122.1070   60.9290 C   0  0  0  0  0  0  0  0  0  0  0  0
  132.3290  121.8070   61.5090 C   0  0  0  0  0  0  0  0  0  0  0  0
  133.3650  121.5700   61.9670 N   0  0  0  0  0  0  0  0  0  0  0  0
  123.9204  131.0992   59.6913 H   0  0  0  0  0  0  0  0  0  0  0  0
  124.7387  132.6890   59.5190 H   0  0  0  0  0  0  0  0  0  0  0  0
  122.9447  132.5976   59.5190 H   0  0  0  0  0  0  0  0  0  0  0  0
  124.0404  129.9057   58.1784 H   0  0  0  0  0  0  0  0  0  0  0  0
  123.6949  130.3592   56.4741 H   0  0  0  0  0  0  0  0  0  0  0  0
  126.1155  131.6353   56.8954 H   0  0  0  0  0  0  0  0  0  0  0  0
  126.3071  130.1717   57.9180 H   0  0  0  0  0  0  0  0  0  0  0  0
  127.1017  128.0900   56.0758 H   0  0  0  0  0  0  0  0  0  0  0  0
  127.7345  129.3073   54.9188 H   0  0  0  0  0  0  0  0  0  0  0  0
  128.9793  130.2954   56.5460 H   0  0  0  0  0  0  0  0  0  0  0  0
  127.5471  130.4442   57.6187 H   0  0  0  0  0  0  0  0  0  0  0  0
  127.8567  127.3599   56.4451 H   0  0  0  0  0  0  0  0  0  0  0  0
  129.6451  127.3536   56.6081 H   0  0  0  0  0  0  0  0  0  0  0  0
  128.0266  126.6822   59.0598 H   0  0  0  0  0  0  0  0  0  0  0  0
  128.0930  125.4599   57.7150 H   0  0  0  0  0  0  0  0  0  0  0  0
  130.0270  125.7890   59.6510 H   0  0  0  0  0  0  0  0  0  0  0  0
  132.6439  124.2548   58.0284 H   0  0  0  0  0  0  0  0  0  0  0  0
  132.9563  125.9664   58.5453 H   0  0  0  0  0  0  0  0  0  0  0  0
  127.7063  122.2189   57.2615 H   0  0  0  0  0  0  0  0  0  0  0  0
  125.5549  122.8760   56.2023 H   0  0  0  0  0  0  0  0  0  0  0  0
  123.8598  124.1438   57.5110 H   0  0  0  0  0  0  0  0  0  0  0  0
  124.3019  124.7432   59.8875 H   0  0  0  0  0  0  0  0  0  0  0  0
  126.4490  124.0829   60.9543 H   0  0  0  0  0  0  0  0  0  0  0  0
  127.9486  120.6968   60.3555 H   0  0  0  0  0  0  0  0  0  0  0  0
  130.1815  119.7990   62.6153 H   0  0  0  0  0  0  0  0  0  0  0  0
  129.3750  119.0807   61.1799 H   0  0  0  0  0  0  0  0  0  0  0  0
  131.1540  119.3292   61.1799 H   0  0  0  0  0  0  0  0  0  0  0  0
  1  2  1  0
  2  3  1  0
  3  4  1  0
  4  5  1  0
  5  6  1  0
  6  7  1  0
  7  8  1  0
  8  9  1  0
  9 10  1  0
 10 11  1  0
 11 12  1  0
 12 13  2  0
 12 14  1  0
 14 15  1  0
 15 16  1  0
 16 17  2  0
 17 18  1  0
 18 19  1  0
 19 20  2  0
 20 21  1  0
 21 22  2  0
 22 23  1  0
 23 24  2  0
 18 25  2  0
 25 26  1  0
 26 27  1  0
 26 28  2  0
 28 29  1  0
 29 30  3  0
 28 16  1  0
 24 19  1  0
  1 31  1  0
  1 32  1  0
  1 33  1  0
  3 34  1  0
  3 35  1  0
  4 36  1  0
  4 37  1  0
  6 38  1  0
  6 39  1  0
  7 40  1  0
  7 41  1  0
  9 42  1  0
  9 43  1  0
 10 44  1  0
 10 45  1  0
 11 46  1  0
 14 47  1  0
 14 48  1  0
 20 49  1  0
 21 50  1  0
 22 51  1  0
 23 52  1  0
 24 53  1  0
 25 54  1  0
 27 55  1  0
 27 56  1  0
 27 57  1  0
M  END
>  <Binding energies>  (1) 
[-6.82]

>  <Ligand effiencies>  (1) 
[-0.22]

>  <Interactions>  (1) 
["V-B:LEU:363:CD1:8160, V-B:TYR:539:CD2:9845, V-B:PRO:540:CA:9854, V-A:PRO:482:CG:4326, V-B:TYR:539:CE2:9847, V-A:PRO:482:CB:4325, V-B:PRO:540:C:9852, V-B:ALA:541:CB:9863, V-B:PRO:540:N:9855, V-A:LEU:475:CD2:4258, V-B:PRO:540:CB:9856, V-A:ILE:369:CG2:3236, V-B:TYR:539:CZ:9848, V-A:ASP:366:CB:3211, V-B:TYR:539:C:9838, V-B:ASP:366:CA:8181, H-A:TYR:539:OH:4878, V-B:ASP:366:C:8179, V-A:TYR:539:CE2:4876, H-A:TYR:531:OH:4795, H-B:TYR:531:OH:9766, V-A:MET:535:CE:4835, H-B:TYR:539:OH:9849, V-B:ASP:366:CB:8183, V-B:TYR:531:CZ:9765, V-A:TYR:539:CZ:4877, V-B:ILE:369:CG2:8208, V-B:ILE:369:CB:8207, V-B:TYR:531:CE1:9763"]

$$$$
3ca_Grossjean_2025
     RDKit          3D

 52 54  0  0  0  0  0  0  0  0999 V2000
  127.9960  124.0850   55.5250 C   0  0  0  0  0  0  0  0  0  0  0  0
  127.2200  122.8790   54.9900 C   0  0  0  0  0  0  0  0  0  0  0  0
  126.8810  122.0170   56.0690 O   0  0  0  0  0  0  0  0  0  0  0  0
  125.8410  122.3010   56.8940 C   0  0  0  0  0  0  0  0  0  0  0  0
  124.6590  122.1070   56.5910 O   0  0  0  0  0  0  0  0  0  0  0  0
  126.2700  122.8700   58.2160 C   0  0  0  0  0  0  0  0  0  0  0  0
  127.5720  122.6290   58.6740 C   0  0  0  0  0  0  0  0  0  0  0  0
  127.9990  123.1430   59.8960 C   0  0  0  0  0  0  0  0  0  0  0  0
  127.1330  123.9000   60.6870 C   0  0  0  0  0  0  0  0  0  0  0  0
  127.6660  124.3720   61.9020 N   0  0  0  0  0  0  0  0  0  0  0  0
  128.9540  124.5700   62.2580 C   0  0  0  0  0  0  0  0  0  0  0  0
  129.9310  124.3790   61.5350 O   0  0  0  0  0  0  0  0  0  0  0  0
  129.1650  125.0970   63.6820 C   0  0  0  0  0  0  0  0  0  0  0  0
  129.4790  126.8920   63.7440 S   0  0  0  0  0  0  0  0  0  0  0  0
  128.7850  127.5780   65.2420 C   0  0  0  0  0  0  0  0  0  0  0  0
  127.9190  128.6080   65.0700 N   0  0  0  0  0  0  0  0  0  0  0  0
  127.3400  129.1630   66.1580 C   0  0  0  0  0  0  0  0  0  0  0  0
  126.3710  130.2950   65.8820 C   0  0  0  0  0  0  0  0  0  0  0  0
  127.6100  128.7290   67.4530 C   0  0  0  0  0  0  0  0  0  0  0  0
  128.5150  127.6790   67.6580 C   0  0  0  0  0  0  0  0  0  0  0  0
  128.7840  127.2570   69.0660 C   0  0  0  0  0  0  0  0  0  0  0  0
  128.1310  126.1400   69.6010 C   0  0  0  0  0  0  0  0  0  0  0  0
  128.3680  125.7440   70.9150 C   0  0  0  0  0  0  0  0  0  0  0  0
  129.2590  126.4700   71.7030 C   0  0  0  0  0  0  0  0  0  0  0  0
  129.9110  127.5870   71.1880 C   0  0  0  0  0  0  0  0  0  0  0  0
  129.6710  127.9800   69.8740 C   0  0  0  0  0  0  0  0  0  0  0  0
  129.1170  127.0770   66.5240 C   0  0  0  0  0  0  0  0  0  0  0  0
  130.0320  125.9410   66.6730 C   0  0  0  0  0  0  0  0  0  0  0  0
  130.7550  125.0450   66.7910 N   0  0  0  0  0  0  0  0  0  0  0  0
  125.8300  124.1520   60.2320 C   0  0  0  0  0  0  0  0  0  0  0  0
  125.4050  123.6390   59.0090 C   0  0  0  0  0  0  0  0  0  0  0  0
  127.9857  124.0691   56.6248 H   0  0  0  0  0  0  0  0  0  0  0  0
  129.0353  124.0403   55.1673 H   0  0  0  0  0  0  0  0  0  0  0  0
  127.5247  125.0123   55.1673 H   0  0  0  0  0  0  0  0  0  0  0  0
  126.3010  123.2249   54.4943 H   0  0  0  0  0  0  0  0  0  0  0  0
  127.8436  122.3332   54.2666 H   0  0  0  0  0  0  0  0  0  0  0  0
  128.2627  122.0289   58.0634 H   0  0  0  0  0  0  0  0  0  0  0  0
  129.0260  122.9511   60.2403 H   0  0  0  0  0  0  0  0  0  0  0  0
  126.9710  124.6430   62.5800 H   0  0  0  0  0  0  0  0  0  0  0  0
  128.2630  124.8792   64.2727 H   0  0  0  0  0  0  0  0  0  0  0  0
  130.0557  124.5950   64.0879 H   0  0  0  0  0  0  0  0  0  0  0  0
  126.0137  130.7124   66.8350 H   0  0  0  0  0  0  0  0  0  0  0  0
  126.8803  131.0812   65.3053 H   0  0  0  0  0  0  0  0  0  0  0  0
  125.5157  129.9131   65.3053 H   0  0  0  0  0  0  0  0  0  0  0  0
  127.1154  129.2079   68.3109 H   0  0  0  0  0  0  0  0  0  0  0  0
  127.4251  125.5706   68.9785 H   0  0  0  0  0  0  0  0  0  0  0  0
  127.8548  124.8632   71.3284 H   0  0  0  0  0  0  0  0  0  0  0  0
  129.4487  126.1579   72.7406 H   0  0  0  0  0  0  0  0  0  0  0  0
  130.6122  128.1562   71.8160 H   0  0  0  0  0  0  0  0  0  0  0  0
  130.1819  128.8651   69.4672 H   0  0  0  0  0  0  0  0  0  0  0  0
  125.1427  124.7560   60.8425 H   0  0  0  0  0  0  0  0  0  0  0  0
  124.3807  123.8388   58.6612 H   0  0  0  0  0  0  0  0  0  0  0  0
  1  2  1  0
  2  3  1  0
  3  4  1  0
  4  5  2  0
  4  6  1  0
  6  7  2  0
  7  8  1  0
  8  9  2  0
  9 10  1  0
 10 11  1  0
 11 12  2  0
 11 13  1  0
 13 14  1  0
 14 15  1  0
 15 16  2  0
 16 17  1  0
 17 18  1  0
 17 19  2  0
 19 20  1  0
 20 21  1  0
 21 22  2  0
 22 23  1  0
 23 24  2  0
 24 25  1  0
 25 26  2  0
 20 27  2  0
 27 28  1  0
 28 29  3  0
  9 30  1  0
 30 31  2  0
 31  6  1  0
 27 15  1  0
 26 21  1  0
  1 32  1  0
  1 33  1  0
  1 34  1  0
  2 35  1  0
  2 36  1  0
  7 37  1  0
  8 38  1  0
 10 39  1  0
 13 40  1  0
 13 41  1  0
 18 42  1  0
 18 43  1  0
 18 44  1  0
 19 45  1  0
 22 46  1  0
 23 47  1  0
 24 48  1  0
 25 49  1  0
 26 50  1  0
 30 51  1  0
 31 52  1  0
M  END
>  <Binding energies>  (1) 
[-8.59]

>  <Ligand effiencies>  (1) 
[-0.2684375]

>  <Interactions>  (1) 
["V-A:HIS:456:CE1:4069, V-A:GLU:543:CB:4906, V-A:GLU:543:CG:4907, V-A:HIS:456:CD2:4067, V-B:GLU:543:CD:9879, V-A:GLU:543:CD:4908, V-B:HIS:456:CE1:9041, V-B:GLU:543:CB:9877, V-B:GLU:543:CG:9878, V-B:MET:535:CE:9806, V-B:TYR:539:CD2:9845, V-B:PRO:540:CA:9854, V-B:TYR:539:CE2:9847, V-B:PRO:540:N:9855, V-B:TYR:539:CE1:9846, V-B:PRO:540:CB:9856, H-B:TYR:539:N:9841, V-B:TYR:539:CZ:9848, V-B:TYR:539:C:9838, V-B:PRO:540:CD:9858, V-B:TYR:539:CD1:9844, H-A:TYR:484:OH:4347, H-B:GLU:543:OE2:9881"]

$$$$
3cb_Grossjean_2025
     RDKit          3D

 49 51  0  0  0  0  0  0  0  0999 V2000
  124.2770  129.7470   66.4460 C   0  0  0  0  0  0  0  0  0  0  0  0
  123.9930  130.0730   65.0940 O   0  0  0  0  0  0  0  0  0  0  0  0
  124.6590  131.0740   64.4610 C   0  0  0  0  0  0  0  0  0  0  0  0
  125.1420  132.0470   65.0470 O   0  0  0  0  0  0  0  0  0  0  0  0
  124.7470  130.8800   62.9740 C   0  0  0  0  0  0  0  0  0  0  0  0
  123.7350  131.3160   62.1060 C   0  0  0  0  0  0  0  0  0  0  0  0
  123.8490  131.1230   60.7320 C   0  0  0  0  0  0  0  0  0  0  0  0
  124.9710  130.4890   60.1970 C   0  0  0  0  0  0  0  0  0  0  0  0
  124.9850  130.3490   58.7940 N   0  0  0  0  0  0  0  0  0  0  0  0
  124.3920  131.1010   57.8420 C   0  0  0  0  0  0  0  0  0  0  0  0
  123.7150  132.1080   58.0570 O   0  0  0  0  0  0  0  0  0  0  0  0
  124.6390  130.6180   56.4040 C   0  0  0  0  0  0  0  0  0  0  0  0
  126.3010  130.9840   55.7440 S   0  0  0  0  0  0  0  0  0  0  0  0
  127.4970  130.2670   56.8510 C   0  0  0  0  0  0  0  0  0  0  0  0
  127.0920  129.0940   57.3960 N   0  0  0  0  0  0  0  0  0  0  0  0
  127.9200  128.4570   58.2530 C   0  0  0  0  0  0  0  0  0  0  0  0
  127.4070  127.1450   58.8140 C   0  0  0  0  0  0  0  0  0  0  0  0
  129.1700  128.9610   58.6020 C   0  0  0  0  0  0  0  0  0  0  0  0
  129.6030  130.1800   58.0640 C   0  0  0  0  0  0  0  0  0  0  0  0
  130.9500  130.6820   58.4740 C   0  0  0  0  0  0  0  0  0  0  0  0
  131.1260  131.2810   59.7280 C   0  0  0  0  0  0  0  0  0  0  0  0
  132.3790  131.7410   60.1240 C   0  0  0  0  0  0  0  0  0  0  0  0
  133.4660  131.6020   59.2650 C   0  0  0  0  0  0  0  0  0  0  0  0
  133.3110  131.0030   58.0190 C   0  0  0  0  0  0  0  0  0  0  0  0
  132.0570  130.5410   57.6270 C   0  0  0  0  0  0  0  0  0  0  0  0
  128.7390  130.8680   57.1720 C   0  0  0  0  0  0  0  0  0  0  0  0
  129.1000  132.1900   56.6520 C   0  0  0  0  0  0  0  0  0  0  0  0
  129.3850  133.2340   56.2420 N   0  0  0  0  0  0  0  0  0  0  0  0
  125.9900  130.0540   61.0580 C   0  0  0  0  0  0  0  0  0  0  0  0
  125.8750  130.2480   62.4320 C   0  0  0  0  0  0  0  0  0  0  0  0
  123.7015  130.4076   67.1111 H   0  0  0  0  0  0  0  0  0  0  0  0
  123.9976  128.7004   66.6373 H   0  0  0  0  0  0  0  0  0  0  0  0
  125.3520  129.8803   66.6373 H   0  0  0  0  0  0  0  0  0  0  0  0
  122.8437  131.8147   62.5145 H   0  0  0  0  0  0  0  0  0  0  0  0
  123.0488  131.4728   60.0632 H   0  0  0  0  0  0  0  0  0  0  0  0
  125.5480  129.5790   58.4640 H   0  0  0  0  0  0  0  0  0  0  0  0
  124.4946  129.5278   56.3804 H   0  0  0  0  0  0  0  0  0  0  0  0
  123.9276  131.1658   55.7685 H   0  0  0  0  0  0  0  0  0  0  0  0
  127.4227  127.1851   59.9132 H   0  0  0  0  0  0  0  0  0  0  0  0
  126.3766  126.9761   58.4679 H   0  0  0  0  0  0  0  0  0  0  0  0
  128.0496  126.3220   58.4679 H   0  0  0  0  0  0  0  0  0  0  0  0
  129.8152  128.4042   59.2975 H   0  0  0  0  0  0  0  0  0  0  0  0
  130.2665  131.3889   60.4059 H   0  0  0  0  0  0  0  0  0  0  0  0
  132.5095  132.2115   61.1097 H   0  0  0  0  0  0  0  0  0  0  0  0
  134.4558  131.9690   59.5743 H   0  0  0  0  0  0  0  0  0  0  0  0
  134.1748  130.8948   57.3466 H   0  0  0  0  0  0  0  0  0  0  0  0
  131.9348  130.0616   56.6445 H   0  0  0  0  0  0  0  0  0  0  0  0
  126.8818  129.5586   60.6465 H   0  0  0  0  0  0  0  0  0  0  0  0
  126.6779  129.9017   63.0994 H   0  0  0  0  0  0  0  0  0  0  0  0
  1  2  1  0
  2  3  1  0
  3  4  2  0
  3  5  1  0
  5  6  2  0
  6  7  1  0
  7  8  2  0
  8  9  1  0
  9 10  1  0
 10 11  2  0
 10 12  1  0
 12 13  1  0
 13 14  1  0
 14 15  2  0
 15 16  1  0
 16 17  1  0
 16 18  2  0
 18 19  1  0
 19 20  1  0
 20 21  2  0
 21 22  1  0
 22 23  2  0
 23 24  1  0
 24 25  2  0
 19 26  2  0
 26 27  1  0
 27 28  3  0
  8 29  1  0
 29 30  2  0
 30  5  1  0
 26 14  1  0
 25 20  1  0
  1 31  1  0
  1 32  1  0
  1 33  1  0
  6 34  1  0
  7 35  1  0
  9 36  1  0
 12 37  1  0
 12 38  1  0
 17 39  1  0
 17 40  1  0
 17 41  1  0
 18 42  1  0
 21 43  1  0
 22 44  1  0
 23 45  1  0
 24 46  1  0
 25 47  1  0
 29 48  1  0
 30 49  1  0
M  END
>  <Binding energies>  (1) 
[-8.37]

>  <Ligand effiencies>  (1) 
[-0.26999999999999996]

>  <Interactions>  (1) 
["V-B:ASP:366:CG:8184, V-A:ASP:366:CB:3211, V-B:ASP:366:CA:8181, H-A:TYR:539:OH:4878, V-B:ASP:366:C:8179, V-A:TYR:539:CE2:4876, H-B:TYR:531:OH:9766, V-A:MET:535:CE:4835, V-B:ASP:366:CB:8183, V-A:LEU:363:CA:3184, V-A:PRO:540:CB:4885, V-A:LEU:363:CD1:3188, V-A:TYR:531:CE2:4793, V-A:ASP:366:CG:3212, V-A:PRO:540:CA:4883, H-B:ASP:366:OD2:8186, V-B:TYR:531:CZ:9765, H-B:TYR:484:OH:9319, V-A:TYR:539:CZ:4877, H-A:TYR:539:N:4870, H-B:ARG:545:NE:9895, H-B:GLY:454:N:9021, V-B:GLY:454:CA:9020, H-B:ARG:545:NH2:9899, V-B:ARG:545:CZ:9897, V-B:ARG:545:CD:9894, V-B:ARG:545:CG:9893, V-B:TYR:531:CE1:9763, V-B:ASN:370:CB:8216, V-B:ILE:369:CD1:8210, H-B:ASN:370:N:8215"]

$$$$
3ce_Grossjean_2025
     RDKit          3D

 45 47  0  0  0  0  0  0  0  0999 V2000
  131.6710  133.2180   56.7280 C   0  0  0  0  0  0  0  0  0  0  0  0
  130.5730  132.2270   57.0640 C   0  0  0  0  0  0  0  0  0  0  0  0
  129.6030  132.5090   58.0300 C   0  0  0  0  0  0  0  0  0  0  0  0
  128.6170  131.5540   58.2790 C   0  0  0  0  0  0  0  0  0  0  0  0
  128.6240  130.3530   57.5670 C   0  0  0  0  0  0  0  0  0  0  0  0
  129.6300  130.1300   56.6200 C   0  0  0  0  0  0  0  0  0  0  0  0
  129.5760  128.9120   55.9210 N   0  0  0  0  0  0  0  0  0  0  0  0
  128.4810  128.2160   55.5390 C   0  0  0  0  0  0  0  0  0  0  0  0
  127.3170  128.5590   55.7500 O   0  0  0  0  0  0  0  0  0  0  0  0
  128.7540  126.9160   54.7840 C   0  0  0  0  0  0  0  0  0  0  0  0
  129.5010  125.6520   55.8560 S   0  0  0  0  0  0  0  0  0  0  0  0
  128.1530  124.6430   56.4250 C   0  0  0  0  0  0  0  0  0  0  0  0
  127.6760  123.7820   55.4930 N   0  0  0  0  0  0  0  0  0  0  0  0
  126.6600  122.9570   55.8330 C   0  0  0  0  0  0  0  0  0  0  0  0
  126.1840  122.0120   54.7470 C   0  0  0  0  0  0  0  0  0  0  0  0
  126.0770  122.9680   57.0980 C   0  0  0  0  0  0  0  0  0  0  0  0
  126.5380  123.8680   58.0670 C   0  0  0  0  0  0  0  0  0  0  0  0
  125.8650  123.8600   59.4010 C   0  0  0  0  0  0  0  0  0  0  0  0
  126.5870  123.5210   60.5510 C   0  0  0  0  0  0  0  0  0  0  0  0
  125.9650  123.5050   61.7970 C   0  0  0  0  0  0  0  0  0  0  0  0
  124.6130  123.8220   61.8970 C   0  0  0  0  0  0  0  0  0  0  0  0
  123.8780  124.1510   60.7600 C   0  0  0  0  0  0  0  0  0  0  0  0
  124.5030  124.1670   59.5170 C   0  0  0  0  0  0  0  0  0  0  0  0
  127.6110  124.7320   57.7300 C   0  0  0  0  0  0  0  0  0  0  0  0
  128.1460  125.6850   58.7070 C   0  0  0  0  0  0  0  0  0  0  0  0
  128.5670  126.4360   59.4800 N   0  0  0  0  0  0  0  0  0  0  0  0
  130.5940  131.0630   56.3650 N   0  0  0  0  0  0  0  0  0  0  0  0
  132.1070  133.6115   57.6581 H   0  0  0  0  0  0  0  0  0  0  0  0
  132.4529  132.7139   56.1411 H   0  0  0  0  0  0  0  0  0  0  0  0
  131.2494  134.0473   56.1411 H   0  0  0  0  0  0  0  0  0  0  0  0
  129.6167  133.4611   58.5807 H   0  0  0  0  0  0  0  0  0  0  0  0
  127.8385  131.7461   59.0320 H   0  0  0  0  0  0  0  0  0  0  0  0
  127.8498  129.5928   57.7478 H   0  0  0  0  0  0  0  0  0  0  0  0
  130.4670  128.5710   55.5920 H   0  0  0  0  0  0  0  0  0  0  0  0
  127.8038  126.5291   54.3873 H   0  0  0  0  0  0  0  0  0  0  0  0
  129.4630  127.1362   53.9723 H   0  0  0  0  0  0  0  0  0  0  0  0
  125.7347  121.1201   55.2081 H   0  0  0  0  0  0  0  0  0  0  0  0
  125.4338  122.5192   54.1225 H   0  0  0  0  0  0  0  0  0  0  0  0
  127.0381  121.7111   54.1225 H   0  0  0  0  0  0  0  0  0  0  0  0
  125.2581  122.2728   57.3349 H   0  0  0  0  0  0  0  0  0  0  0  0
  127.6538  123.2653   60.4701 H   0  0  0  0  0  0  0  0  0  0  0  0
  126.5392  123.2431   62.6979 H   0  0  0  0  0  0  0  0  0  0  0  0
  124.1214  123.8126   62.8810 H   0  0  0  0  0  0  0  0  0  0  0  0
  122.8092  124.3968   60.8446 H   0  0  0  0  0  0  0  0  0  0  0  0
  123.9230  124.4228   58.6180 H   0  0  0  0  0  0  0  0  0  0  0  0
  1  2  1  0
  2  3  2  0
  3  4  1  0
  4  5  2  0
  5  6  1  0
  6  7  1  0
  7  8  1  0
  8  9  2  0
  8 10  1  0
 10 11  1  0
 11 12  1  0
 12 13  2  0
 13 14  1  0
 14 15  1  0
 14 16  2  0
 16 17  1  0
 17 18  1  0
 18 19  2  0
 19 20  1  0
 20 21  2  0
 21 22  1  0
 22 23  2  0
 17 24  2  0
 24 25  1  0
 25 26  3  0
  6 27  2  0
 27  2  1  0
 24 12  1  0
 23 18  1  0
  1 28  1  0
  1 29  1  0
  1 30  1  0
  3 31  1  0
  4 32  1  0
  5 33  1  0
  7 34  1  0
 10 35  1  0
 10 36  1  0
 15 37  1  0
 15 38  1  0
 15 39  1  0
 16 40  1  0
 19 41  1  0
 20 42  1  0
 21 43  1  0
 22 44  1  0
 23 45  1  0
M  END
>  <Binding energies>  (1) 
[-8.33]

>  <Ligand effiencies>  (1) 
[-0.2975]

>  <Interactions>  (1) 
["V-B:MET:535:CE:9806, V-B:ASP:366:CG:8184, V-B:LEU:363:CA:8156, V-B:ASN:362:C:8143, V-B:PRO:540:CA:9854, V-B:PRO:540:N:9855, V-B:TYR:539:CE1:9846, V-B:PRO:540:CB:9856, V-B:TYR:539:CZ:9848, V-B:ILE:538:CA:9831, V-A:TYR:539:C:4867, H-A:TYR:531:OH:4795, H-B:TYR:531:OH:9766, V-A:PRO:540:N:4884, V-A:MET:535:CE:4835, H-B:TYR:539:OH:9849, V-B:TYR:539:CD1:9844, V-A:TYR:531:CZ:4794, V-B:ASN:362:CA:8145, V-B:ILE:538:CG2:9834, V-B:ASN:362:CB:8147, V-A:PRO:540:CB:4885, V-A:LEU:363:CD1:3188, V-A:PRO:540:CA:4883, V-B:ILE:538:CD1:9836, V-A:PRO:540:CD:4887, V-A:ILE:538:CB:4862, V-B:ILE:538:CB:9833, V-B:ILE:538:C:9829, H-A:MET:535:SD:4834"]

$$$$
3ch_Grossjean_2025
     RDKit          3D

 55 57  0  0  0  0  0  0  0  0999 V2000
  125.4770  130.6610   59.2650 C   0  0  0  0  0  0  0  0  0  0  0  0
  126.8070  131.0980   59.5250 O   0  0  0  0  0  0  0  0  0  0  0  0
  127.7690  130.9830   58.5380 C   0  0  0  0  0  0  0  0  0  0  0  0
  127.9950  129.8140   57.7950 C   0  0  0  0  0  0  0  0  0  0  0  0
  128.9840  129.7740   56.8010 C   0  0  0  0  0  0  0  0  0  0  0  0
  129.2790  128.6520   56.0020 N   0  0  0  0  0  0  0  0  0  0  0  0
  128.4650  127.9130   55.2170 C   0  0  0  0  0  0  0  0  0  0  0  0
  127.2620  128.1130   55.0470 O   0  0  0  0  0  0  0  0  0  0  0  0
  129.1390  126.7680   54.4620 C   0  0  0  0  0  0  0  0  0  0  0  0
  129.7850  125.4930   55.5840 S   0  0  0  0  0  0  0  0  0  0  0  0
  128.3780  124.5400   56.1120 C   0  0  0  0  0  0  0  0  0  0  0  0
  127.9060  123.6880   55.1690 N   0  0  0  0  0  0  0  0  0  0  0  0
  126.8320  122.9220   55.4690 C   0  0  0  0  0  0  0  0  0  0  0  0
  126.3530  121.9970   54.3670 C   0  0  0  0  0  0  0  0  0  0  0  0
  126.1930  122.9770   56.7050 C   0  0  0  0  0  0  0  0  0  0  0  0
  126.6710  123.8460   57.6960 C   0  0  0  0  0  0  0  0  0  0  0  0
  125.9480  123.8770   59.0040 C   0  0  0  0  0  0  0  0  0  0  0  0
  126.6280  123.5800   60.1910 C   0  0  0  0  0  0  0  0  0  0  0  0
  125.9590  123.5990   61.4120 C   0  0  0  0  0  0  0  0  0  0  0  0
  124.6020  123.9130   61.4490 C   0  0  0  0  0  0  0  0  0  0  0  0
  123.9100  124.2040   60.2770 C   0  0  0  0  0  0  0  0  0  0  0  0
  124.5820  124.1820   59.0580 C   0  0  0  0  0  0  0  0  0  0  0  0
  127.8090  124.6410   57.4030 C   0  0  0  0  0  0  0  0  0  0  0  0
  128.4080  125.4960   58.4320 C   0  0  0  0  0  0  0  0  0  0  0  0
  128.8800  126.1730   59.2430 N   0  0  0  0  0  0  0  0  0  0  0  0
  129.7610  130.9100   56.5690 C   0  0  0  0  0  0  0  0  0  0  0  0
  129.5550  132.0900   57.3000 C   0  0  0  0  0  0  0  0  0  0  0  0
  130.2850  133.2520   57.1140 O   0  0  0  0  0  0  0  0  0  0  0  0
  131.6800  133.1670   56.8430 C   0  0  0  0  0  0  0  0  0  0  0  0
  128.5580  132.1130   58.2830 C   0  0  0  0  0  0  0  0  0  0  0  0
  128.3350  133.2680   58.9950 O   0  0  0  0  0  0  0  0  0  0  0  0
  128.6140  133.1560   60.3830 C   0  0  0  0  0  0  0  0  0  0  0  0
  124.9546  130.4894   60.2177 H   0  0  0  0  0  0  0  0  0  0  0  0
  124.9441  131.4313   58.6882 H   0  0  0  0  0  0  0  0  0  0  0  0
  125.5048  129.7248   58.6882 H   0  0  0  0  0  0  0  0  0  0  0  0
  127.3890  128.9179   57.9946 H   0  0  0  0  0  0  0  0  0  0  0  0
  130.2560  128.3970   55.9930 H   0  0  0  0  0  0  0  0  0  0  0  0
  128.4027  126.3064   53.7876 H   0  0  0  0  0  0  0  0  0  0  0  0
  129.9880  127.1864   53.9015 H   0  0  0  0  0  0  0  0  0  0  0  0
  125.8906  121.1041   54.8130 H   0  0  0  0  0  0  0  0  0  0  0  0
  125.6129  122.5210   53.7443 H   0  0  0  0  0  0  0  0  0  0  0  0
  127.2080  121.6950   53.7443 H   0  0  0  0  0  0  0  0  0  0  0  0
  125.3172  122.3416   56.9030 H   0  0  0  0  0  0  0  0  0  0  0  0
  127.6987  123.3298   60.1589 H   0  0  0  0  0  0  0  0  0  0  0  0
  126.4987  123.3674   62.3421 H   0  0  0  0  0  0  0  0  0  0  0  0
  124.0728  123.9311   62.4132 H   0  0  0  0  0  0  0  0  0  0  0  0
  122.8385  124.4499   60.3137 H   0  0  0  0  0  0  0  0  0  0  0  0
  124.0359  124.4059   58.1298 H   0  0  0  0  0  0  0  0  0  0  0  0
  130.5476  130.8798   55.8007 H   0  0  0  0  0  0  0  0  0  0  0  0
  132.2363  133.1331   57.7913 H   0  0  0  0  0  0  0  0  0  0  0  0
  131.8861  132.2546   56.2641 H   0  0  0  0  0  0  0  0  0  0  0  0
  131.9954  134.0476   56.2641 H   0  0  0  0  0  0  0  0  0  0  0  0
  127.7454  133.5047   60.9609 H   0  0  0  0  0  0  0  0  0  0  0  0
  128.8218  132.1048   60.6316 H   0  0  0  0  0  0  0  0  0  0  0  0
  129.4909  133.7718   60.6316 H   0  0  0  0  0  0  0  0  0  0  0  0
  1  2  1  0
  2  3  1  0
  3  4  2  0
  4  5  1  0
  5  6  1  0
  6  7  1  0
  7  8  2  0
  7  9  1  0
  9 10  1  0
 10 11  1  0
 11 12  2  0
 12 13  1  0
 13 14  1  0
 13 15  2  0
 15 16  1  0
 16 17  1  0
 17 18  2  0
 18 19  1  0
 19 20  2  0
 20 21  1  0
 21 22  2  0
 16 23  2  0
 23 24  1  0
 24 25  3  0
  5 26  2  0
 26 27  1  0
 27 28  1  0
 28 29  1  0
 27 30  2  0
 30 31  1  0
 31 32  1  0
 30  3  1  0
 23 11  1  0
 22 17  1  0
  1 33  1  0
  1 34  1  0
  1 35  1  0
  4 36  1  0
  6 37  1  0
  9 38  1  0
  9 39  1  0
 14 40  1  0
 14 41  1  0
 14 42  1  0
 15 43  1  0
 18 44  1  0
 19 45  1  0
 20 46  1  0
 21 47  1  0
 22 48  1  0
 26 49  1  0
 29 50  1  0
 29 51  1  0
 29 52  1  0
 32 53  1  0
 32 54  1  0
 32 55  1  0
M  END
>  <Binding energies>  (1) 
[-8.07]

>  <Ligand effiencies>  (1) 
[-0.24454545454545457]

>  <Interactions>  (1) 
["V-B:MET:535:CE:9806, V-B:ASP:366:CG:8184, V-B:LEU:363:CA:8156, V-B:ASN:362:C:8143, V-B:PRO:540:CA:9854, V-B:PRO:540:N:9855, V-B:TYR:539:CE1:9846, V-B:PRO:540:CB:9856, V-B:TYR:539:CZ:9848, V-A:TYR:539:CD2:4874, V-B:ILE:538:CA:9831, V-A:TYR:539:C:4867, V-A:TYR:539:CE2:4876, H-A:TYR:531:OH:4795, H-B:TYR:531:OH:9766, V-A:PRO:540:N:4884, V-A:MET:535:CE:4835, V-A:TYR:531:CE1:4792, H-B:TYR:539:OH:9849, V-B:TYR:539:CD1:9844, V-B:ASP:366:CB:8183, V-B:ASN:362:CB:8147, V-A:PRO:540:CB:4885, V-A:LEU:363:CD1:3188, V-A:PRO:540:CA:4883, V-B:ILE:538:CD1:9836, V-A:PRO:540:CD:4887, H-A:TYR:539:N:4870, V-A:ILE:538:CB:4862, V-B:ILE:538:CB:9833, V-B:ILE:538:C:9829, V-B:VAL:537:C:9821"]

$$$$
3ci_Grossjean_2025
     RDKit          3D

 39 41  0  0  0  0  0  0  0  0999 V2000
  129.8710  121.4520   61.5500 C   0  0  0  0  0  0  0  0  0  0  0  0
  129.6830  122.4100   60.3890 C   0  0  0  0  0  0  0  0  0  0  0  0
  128.5800  122.3270   59.5440 C   0  0  0  0  0  0  0  0  0  0  0  0
  128.4420  123.2460   58.4940 C   0  0  0  0  0  0  0  0  0  0  0  0
  127.2350  123.1290   57.6220 C   0  0  0  0  0  0  0  0  0  0  0  0
  125.9950  123.6260   58.0440 C   0  0  0  0  0  0  0  0  0  0  0  0
  124.8710  123.5070   57.2310 C   0  0  0  0  0  0  0  0  0  0  0  0
  124.9800  122.8820   55.9930 C   0  0  0  0  0  0  0  0  0  0  0  0
  126.2030  122.3740   55.5610 C   0  0  0  0  0  0  0  0  0  0  0  0
  127.3250  122.4960   56.3760 C   0  0  0  0  0  0  0  0  0  0  0  0
  129.4490  124.2290   58.3220 C   0  0  0  0  0  0  0  0  0  0  0  0
  129.3810  125.1890   57.2150 C   0  0  0  0  0  0  0  0  0  0  0  0
  129.3250  125.9470   56.3410 N   0  0  0  0  0  0  0  0  0  0  0  0
  130.5360  124.2450   59.2300 C   0  0  0  0  0  0  0  0  0  0  0  0
  131.8490  125.4540   59.1200 S   0  0  0  0  0  0  0  0  0  0  0  0
  133.4210  124.6920   59.6410 C   0  0  0  0  0  0  0  0  0  0  0  0
  133.4570  124.3290   61.1300 C   0  0  0  0  0  0  0  0  0  0  0  0
  133.6080  123.1510   61.4590 O   0  0  0  0  0  0  0  0  0  0  0  0
  133.3000  125.3610   61.9890 N   0  0  0  0  0  0  0  0  0  0  0  0
  133.3210  125.3100   63.3760 C   0  0  0  0  0  0  0  0  0  0  0  0
  132.1970  125.5570   64.1630 C   0  0  0  0  0  0  0  0  0  0  0  0
  132.6300  125.4130   65.4620 C   0  0  0  0  0  0  0  0  0  0  0  0
  133.9470  125.0940   65.4550 O   0  0  0  0  0  0  0  0  0  0  0  0
  134.3740  125.0340   64.1280 N   0  0  0  0  0  0  0  0  0  0  0  0
  130.6480  123.3440   60.2390 N   0  0  0  0  0  0  0  0  0  0  0  0
  129.7636  121.9993   62.4981 H   0  0  0  0  0  0  0  0  0  0  0  0
  129.1115  120.6580   61.4969 H   0  0  0  0  0  0  0  0  0  0  0  0
  130.8742  121.0039   61.4969 H   0  0  0  0  0  0  0  0  0  0  0  0
  127.8215  121.5455   59.6989 H   0  0  0  0  0  0  0  0  0  0  0  0
  125.9087  124.1143   59.0259 H   0  0  0  0  0  0  0  0  0  0  0  0
  123.9018  123.9051   57.5659 H   0  0  0  0  0  0  0  0  0  0  0  0
  124.0927  122.7881   55.3496 H   0  0  0  0  0  0  0  0  0  0  0  0
  126.2817  121.8794   54.5816 H   0  0  0  0  0  0  0  0  0  0  0  0
  128.2907  122.0917   56.0384 H   0  0  0  0  0  0  0  0  0  0  0  0
  133.5750  123.7743   59.0545 H   0  0  0  0  0  0  0  0  0  0  0  0
  134.2147  125.4337   59.4681 H   0  0  0  0  0  0  0  0  0  0  0  0
  133.1790  126.2790   61.5900 H   0  0  0  0  0  0  0  0  0  0  0  0
  131.1833  125.8118   63.8202 H   0  0  0  0  0  0  0  0  0  0  0  0
  132.0074  125.5369   66.3604 H   0  0  0  0  0  0  0  0  0  0  0  0
  1  2  1  0
  2  3  2  0
  3  4  1  0
  4  5  1  0
  5  6  2  0
  6  7  1  0
  7  8  2  0
  8  9  1  0
  9 10  2  0
  4 11  2  0
 11 12  1  0
 12 13  3  0
 11 14  1  0
 14 15  1  0
 15 16  1  0
 16 17  1  0
 17 18  2  0
 17 19  1  0
 19 20  1  0
 20 21  1  0
 21 22  2  0
 22 23  1  0
 23 24  1  0
 14 25  2  0
 25  2  1  0
 10  5  1  0
 24 20  2  0
  1 26  1  0
  1 27  1  0
  1 28  1  0
  3 29  1  0
  6 30  1  0
  7 31  1  0
  8 32  1  0
  9 33  1  0
 10 34  1  0
 16 35  1  0
 16 36  1  0
 19 37  1  0
 21 38  1  0
 22 39  1  0
M  END
>  <Binding energies>  (1) 
[-8.37]

>  <Ligand effiencies>  (1) 
[-0.32192307692307687]

>  <Interactions>  (1) 
["V-B:MET:535:CE:9806, V-B:LEU:363:CD1:8160, V-B:TYR:539:CD2:9845, V-B:PRO:540:CA:9854, V-B:TYR:539:CE2:9847, V-B:ALA:541:CB:9863, V-B:PRO:540:N:9855, V-B:TYR:539:CE1:9846, V-B:PRO:540:CB:9856, V-A:ILE:369:CG2:3236, V-B:TYR:539:CZ:9848, V-A:ILE:369:CB:3235, V-A:ASP:366:CB:3211, V-B:TYR:539:C:9838, V-A:ARG:545:CZ:4926, V-B:ILE:538:CA:9831, H-A:TYR:531:OH:4795, H-B:TYR:539:OH:9849, V-B:TYR:539:CD1:9844, H-A:GLY:454:N:4049, V-A:ASP:366:CA:3209, V-A:ASP:366:CG:3212, H-A:TYR:484:OH:4347, V-B:ILE:538:CD1:9836, V-B:TYR:539:CG:9843, H-A:ARG:545:NH1:4927, V-A:ILE:369:CD1:3238, H-A:ASP:366:OD1:3213, H-A:ASP:366:OD2:3214, H-A:ARG:545:NE:4924"]

$$$$
3cj_Grossjean_2025
     RDKit          3D

 39 41  0  0  0  0  0  0  0  0999 V2000
  130.2800  121.0170   61.8640 C   0  0  0  0  0  0  0  0  0  0  0  0
  130.0370  122.0560   60.7870 C   0  0  0  0  0  0  0  0  0  0  0  0
  128.8750  122.0500   60.0180 C   0  0  0  0  0  0  0  0  0  0  0  0
  128.6810  123.0430   59.0480 C   0  0  0  0  0  0  0  0  0  0  0  0
  127.3940  123.0350   58.2930 C   0  0  0  0  0  0  0  0  0  0  0  0
  127.3000  122.3890   57.0550 C   0  0  0  0  0  0  0  0  0  0  0  0
  126.1030  122.3930   56.3440 C   0  0  0  0  0  0  0  0  0  0  0  0
  124.9940  123.0510   56.8690 C   0  0  0  0  0  0  0  0  0  0  0  0
  125.0740  123.7060   58.0950 C   0  0  0  0  0  0  0  0  0  0  0  0
  126.2730  123.7000   58.8040 C   0  0  0  0  0  0  0  0  0  0  0  0
  129.7000  124.0100   58.8600 C   0  0  0  0  0  0  0  0  0  0  0  0
  129.5680  125.0570   57.8420 C   0  0  0  0  0  0  0  0  0  0  0  0
  129.4620  125.8840   57.0390 N   0  0  0  0  0  0  0  0  0  0  0  0
  130.8430  123.9430   59.6880 C   0  0  0  0  0  0  0  0  0  0  0  0
  132.1310  125.1710   59.6490 S   0  0  0  0  0  0  0  0  0  0  0  0
  133.5680  124.3650   60.4250 C   0  0  0  0  0  0  0  0  0  0  0  0
  133.3640  124.1630   61.9300 C   0  0  0  0  0  0  0  0  0  0  0  0
  133.2220  123.0220   62.3760 O   0  0  0  0  0  0  0  0  0  0  0  0
  133.3960  125.2890   62.6750 N   0  0  0  0  0  0  0  0  0  0  0  0
  133.3720  125.3670   64.0580 C   0  0  0  0  0  0  0  0  0  0  0  0
  134.3710  125.1900   64.8950 N   0  0  0  0  0  0  0  0  0  0  0  0
  133.9930  125.3720   66.1440 C   0  0  0  0  0  0  0  0  0  0  0  0
  132.6570  125.7060   66.3420 C   0  0  0  0  0  0  0  0  0  0  0  0
  131.8590  125.7810   64.7990 S   0  0  0  0  0  0  0  0  0  0  0  0
  131.0030  122.9900   60.6400 N   0  0  0  0  0  0  0  0  0  0  0  0
  130.1710  121.4831   62.8544 H   0  0  0  0  0  0  0  0  0  0  0  0
  129.5481  120.2025   61.7595 H   0  0  0  0  0  0  0  0  0  0  0  0
  131.2972  120.6116   61.7595 H   0  0  0  0  0  0  0  0  0  0  0  0
  128.1143  121.2704   60.1713 H   0  0  0  0  0  0  0  0  0  0  0  0
  128.1791  121.8739   56.6403 H   0  0  0  0  0  0  0  0  0  0  0  0
  126.0339  121.8796   55.3736 H   0  0  0  0  0  0  0  0  0  0  0  0
  124.0464  123.0534   56.3103 H   0  0  0  0  0  0  0  0  0  0  0  0
  124.1942  124.2260   58.5019 H   0  0  0  0  0  0  0  0  0  0  0  0
  126.3394  124.2206   59.7707 H   0  0  0  0  0  0  0  0  0  0  0  0
  133.7243  123.3842   59.9522 H   0  0  0  0  0  0  0  0  0  0  0  0
  134.4429  125.0165   60.2833 H   0  0  0  0  0  0  0  0  0  0  0  0
  133.5370  126.1630   62.1890 H   0  0  0  0  0  0  0  0  0  0  0  0
  134.6951  125.2657   66.9841 H   0  0  0  0  0  0  0  0  0  0  0  0
  132.1825  125.8924   67.3167 H   0  0  0  0  0  0  0  0  0  0  0  0
  1  2  1  0
  2  3  2  0
  3  4  1  0
  4  5  1  0
  5  6  2  0
  6  7  1  0
  7  8  2  0
  8  9  1  0
  9 10  2  0
  4 11  2  0
 11 12  1  0
 12 13  3  0
 11 14  1  0
 14 15  1  0
 15 16  1  0
 16 17  1  0
 17 18  2  0
 17 19  1  0
 19 20  1  0
 20 21  2  0
 21 22  1  0
 22 23  2  0
 23 24  1  0
 14 25  2  0
 25  2  1  0
 10  5  1  0
 24 20  1  0
  1 26  1  0
  1 27  1  0
  1 28  1  0
  3 29  1  0
  6 30  1  0
  7 31  1  0
  8 32  1  0
  9 33  1  0
 10 34  1  0
 16 35  1  0
 16 36  1  0
 19 37  1  0
 22 38  1  0
 23 39  1  0
M  END
>  <Binding energies>  (1) 
[-8.12]

>  <Ligand effiencies>  (1) 
[-0.3123076923076923]

>  <Interactions>  (1) 
["V-A:HIS:456:CE1:4069, V-B:LEU:363:CD1:8160, V-B:TYR:539:CD2:9845, V-B:PRO:540:CA:9854, V-B:TYR:539:CE2:9847, V-B:ALA:541:CB:9863, V-B:PRO:540:N:9855, V-A:LEU:475:CD2:4258, V-B:TYR:539:CE1:9846, V-B:PRO:540:CB:9856, V-A:ILE:369:CG2:3236, V-B:TYR:539:CZ:9848, V-A:ILE:369:CB:3235, V-B:TYR:539:C:9838, V-B:PRO:540:CD:9858, V-A:ARG:545:CZ:4926, H-A:TYR:531:OH:4795, H-B:TYR:539:OH:9849, V-B:TYR:539:CD1:9844, H-A:GLY:454:N:4049, V-A:ASP:366:CA:3209, V-A:ASP:366:CG:3212, V-B:TYR:539:CG:9843, H-A:ARG:545:NH1:4927, V-A:ILE:369:CD1:3238, H-A:ASP:366:OD1:3213, H-A:ASP:366:OD2:3214, H-A:ARG:545:NE:4924, V-A:ARG:545:CD:4923, V-A:ARG:545:CG:4922"]

$$$$
3ck_Grossjean_2025
     RDKit          3D

 57 58  0  0  0  0  0  0  0  0999 V2000
  129.0450  132.8790   56.7940 C   0  0  0  0  0  0  0  0  0  0  0  0
  130.0430  133.5060   56.0040 O   0  0  0  0  0  0  0  0  0  0  0  0
  131.3560  133.0300   56.2690 C   0  0  0  0  0  0  0  0  0  0  0  0
  131.6800  131.8670   55.3230 C   0  0  0  0  0  0  0  0  0  0  0  0
  131.9630  130.7020   56.0890 O   0  0  0  0  0  0  0  0  0  0  0  0
  132.9600  130.8950   57.0840 C   0  0  0  0  0  0  0  0  0  0  0  0
  132.3850  130.5050   58.4510 C   0  0  0  0  0  0  0  0  0  0  0  0
  131.3280  129.5790   58.2440 O   0  0  0  0  0  0  0  0  0  0  0  0
  130.0940  129.9390   58.8450 C   0  0  0  0  0  0  0  0  0  0  0  0
  128.9510  129.7470   57.8310 C   0  0  0  0  0  0  0  0  0  0  0  0
  129.2760  128.8160   56.7460 N   0  0  0  0  0  0  0  0  0  0  0  0
  128.3910  128.2570   55.9010 C   0  0  0  0  0  0  0  0  0  0  0  0
  127.1820  128.4960   55.9330 O   0  0  0  0  0  0  0  0  0  0  0  0
  128.9850  127.2890   54.8650 C   0  0  0  0  0  0  0  0  0  0  0  0
  129.6800  125.7440   55.5470 S   0  0  0  0  0  0  0  0  0  0  0  0
  128.3420  124.6740   56.0540 C   0  0  0  0  0  0  0  0  0  0  0  0
  127.9160  123.7860   55.1210 N   0  0  0  0  0  0  0  0  0  0  0  0
  126.9030  122.9480   55.4350 C   0  0  0  0  0  0  0  0  0  0  0  0
  126.4800  121.9860   54.3420 C   0  0  0  0  0  0  0  0  0  0  0  0
  126.2780  122.9600   56.6790 C   0  0  0  0  0  0  0  0  0  0  0  0
  126.6970  123.8730   57.6560 C   0  0  0  0  0  0  0  0  0  0  0  0
  125.9820  123.8660   58.9680 C   0  0  0  0  0  0  0  0  0  0  0  0
  124.6290  124.2220   59.0330 C   0  0  0  0  0  0  0  0  0  0  0  0
  123.9590  124.2270   60.2540 C   0  0  0  0  0  0  0  0  0  0  0  0
  124.6420  123.8820   61.4170 C   0  0  0  0  0  0  0  0  0  0  0  0
  125.9900  123.5340   61.3690 C   0  0  0  0  0  0  0  0  0  0  0  0
  126.6570  123.5290   60.1480 C   0  0  0  0  0  0  0  0  0  0  0  0
  127.7670  124.7500   57.3440 C   0  0  0  0  0  0  0  0  0  0  0  0
  128.2760  125.6980   58.3420 C   0  0  0  0  0  0  0  0  0  0  0  0
  128.6770  126.4460   59.1290 N   0  0  0  0  0  0  0  0  0  0  0  0
  129.2760  133.0242   57.8596 H   0  0  0  0  0  0  0  0  0  0  0  0
  128.0648  133.3239   56.5674 H   0  0  0  0  0  0  0  0  0  0  0  0
  129.0204  131.8029   56.5674 H   0  0  0  0  0  0  0  0  0  0  0  0
  132.0795  133.8434   56.1110 H   0  0  0  0  0  0  0  0  0  0  0  0
  131.4161  132.6823   57.3109 H   0  0  0  0  0  0  0  0  0  0  0  0
  130.8175  131.6753   54.6677 H   0  0  0  0  0  0  0  0  0  0  0  0
  132.5550  132.1251   54.7083 H   0  0  0  0  0  0  0  0  0  0  0  0
  133.8330  130.2651   56.8581 H   0  0  0  0  0  0  0  0  0  0  0  0
  133.2698  131.9504   57.0991 H   0  0  0  0  0  0  0  0  0  0  0  0
  133.1703  130.0413   59.0660 H   0  0  0  0  0  0  0  0  0  0  0  0
  132.0092  131.3979   58.9721 H   0  0  0  0  0  0  0  0  0  0  0  0
  129.9149  129.3019   59.7237 H   0  0  0  0  0  0  0  0  0  0  0  0
  130.1329  130.9932   59.1568 H   0  0  0  0  0  0  0  0  0  0  0  0
  128.0717  129.3614   58.3678 H   0  0  0  0  0  0  0  0  0  0  0  0
  128.7637  130.7272   57.3683 H   0  0  0  0  0  0  0  0  0  0  0  0
  130.2520  128.5800   56.6410 H   0  0  0  0  0  0  0  0  0  0  0  0
  128.1882  127.0192   54.1563 H   0  0  0  0  0  0  0  0  0  0  0  0
  129.8276  127.8216   54.3999 H   0  0  0  0  0  0  0  0  0  0  0  0
  126.0768  121.0690   54.7965 H   0  0  0  0  0  0  0  0  0  0  0  0
  125.7060  122.4571   53.7183 H   0  0  0  0  0  0  0  0  0  0  0  0
  127.3503  121.7340   53.7183 H   0  0  0  0  0  0  0  0  0  0  0  0
  125.4599  122.2567   56.8937 H   0  0  0  0  0  0  0  0  0  0  0  0
  124.0921  124.4994   58.1139 H   0  0  0  0  0  0  0  0  0  0  0  0
  122.8950  124.5023   60.2992 H   0  0  0  0  0  0  0  0  0  0  0  0
  124.1130  123.8842   62.3815 H   0  0  0  0  0  0  0  0  0  0  0  0
  126.5245  123.2645   62.2919 H   0  0  0  0  0  0  0  0  0  0  0  0
  127.7225  123.2583   60.1091 H   0  0  0  0  0  0  0  0  0  0  0  0
  1  2  1  0
  2  3  1  0
  3  4  1  0
  4  5  1  0
  5  6  1  0
  6  7  1  0
  7  8  1  0
  8  9  1  0
  9 10  1  0
 10 11  1  0
 11 12  1  0
 12 13  2  0
 12 14  1  0
 14 15  1  0
 15 16  1  0
 16 17  2  0
 17 18  1  0
 18 19  1  0
 18 20  2  0
 20 21  1  0
 21 22  1  0
 22 23  2  0
 23 24  1  0
 24 25  2  0
 25 26  1  0
 26 27  2  0
 21 28  2  0
 28 29  1  0
 29 30  3  0
 28 16  1  0
 27 22  1  0
  1 31  1  0
  1 32  1  0
  1 33  1  0
  3 34  1  0
  3 35  1  0
  4 36  1  0
  4 37  1  0
  6 38  1  0
  6 39  1  0
  7 40  1  0
  7 41  1  0
  9 42  1  0
  9 43  1  0
 10 44  1  0
 10 45  1  0
 11 46  1  0
 14 47  1  0
 14 48  1  0
 19 49  1  0
 19 50  1  0
 19 51  1  0
 20 52  1  0
 23 53  1  0
 24 54  1  0
 25 55  1  0
 26 56  1  0
 27 57  1  0
M  END
>  <Binding energies>  (1) 
[-7.1]

>  <Ligand effiencies>  (1) 
[-0.22903225806451613]

>  <Interactions>  (1) 
["V-B:MET:535:CE:9806, V-B:ASP:366:CG:8184, V-B:LEU:363:CA:8156, V-B:ASN:362:C:8143, V-B:PRO:540:CA:9854, V-B:PRO:540:N:9855, V-B:TYR:539:CE1:9846, V-B:PRO:540:CB:9856, V-B:TYR:539:CZ:9848, V-A:ASP:366:CB:3211, V-A:TYR:539:CD2:4874, V-B:ILE:538:CA:9831, V-A:TYR:539:CE2:4876, H-A:TYR:531:OH:4795, H-B:TYR:531:OH:9766, V-A:TYR:539:CG:4872, V-A:PRO:540:N:4884, V-A:MET:535:CE:4835, H-B:TYR:539:OH:9849, V-B:TYR:539:CD1:9844, V-A:TYR:531:CZ:4794, V-B:ASN:362:CB:8147, V-A:LEU:363:CD1:3188, V-A:TYR:531:CE2:4793, V-A:ASP:366:CG:3212, V-B:ILE:538:CD1:9836, V-A:PRO:540:CD:4887, V-A:TYR:539:CZ:4877, H-A:TYR:539:N:4870, V-A:ILE:538:CB:4862, V-A:ILE:538:CA:4860, V-A:ILE:538:CG2:4863, V-B:ILE:538:CB:9833, V-B:ILE:538:C:9829, V-A:TYR:539:CE1:4875, V-A:TYR:539:CD1:4873, V-B:VAL:537:C:9821"]

$$$$
4aa_Grossjean_2025
     RDKit          3D

 45 47  0  0  0  0  0  0  0  0999 V2000
  129.8790  125.1180   67.4990 C   0  0  0  0  0  0  0  0  0  0  0  0
  130.7930  126.1910   66.8980 C   0  0  0  0  0  0  0  0  0  0  0  0
  132.1460  125.7680   66.9970 O   0  0  0  0  0  0  0  0  0  0  0  0
  132.7890  125.2180   65.9350 C   0  0  0  0  0  0  0  0  0  0  0  0
  134.0160  125.0810   65.8780 O   0  0  0  0  0  0  0  0  0  0  0  0
  131.8610  124.7960   64.8330 C   0  0  0  0  0  0  0  0  0  0  0  0
  131.7330  125.6080   63.6980 C   0  0  0  0  0  0  0  0  0  0  0  0
  130.8770  125.2470   62.6620 C   0  0  0  0  0  0  0  0  0  0  0  0
  130.1380  124.0650   62.7340 C   0  0  0  0  0  0  0  0  0  0  0  0
  129.2980  123.8010   61.6350 N   0  0  0  0  0  0  0  0  0  0  0  0
  128.0080  123.3890   61.6010 C   0  0  0  0  0  0  0  0  0  0  0  0
  127.3400  123.1230   62.6010 O   0  0  0  0  0  0  0  0  0  0  0  0
  127.4320  123.2470   60.2620 C   0  0  0  0  0  0  0  0  0  0  0  0
  128.2580  122.2790   59.0370 S   0  0  0  0  0  0  0  0  0  0  0  0
  127.0300  122.6520   57.8490 C   0  0  0  0  0  0  0  0  0  0  0  0
  127.0840  122.1750   56.6040 N   0  0  0  0  0  0  0  0  0  0  0  0
  126.0720  122.5440   55.7810 C   0  0  0  0  0  0  0  0  0  0  0  0
  126.1560  121.9950   54.3680 C   0  0  0  0  0  0  0  0  0  0  0  0
  125.0170  123.3660   56.1700 C   0  0  0  0  0  0  0  0  0  0  0  0
  124.9620  123.8630   57.4770 C   0  0  0  0  0  0  0  0  0  0  0  0
  123.7900  124.7570   57.8550 C   0  0  0  0  0  0  0  0  0  0  0  0
  126.0080  123.5030   58.3690 C   0  0  0  0  0  0  0  0  0  0  0  0
  126.2650  123.8300   59.7460 C   0  0  0  0  0  0  0  0  0  0  0  0
  125.4280  124.6390   60.4730 N   0  0  0  0  0  0  0  0  0  0  0  0
  130.2550  123.2490   63.8680 C   0  0  0  0  0  0  0  0  0  0  0  0
  131.1100  123.6130   64.9060 C   0  0  0  0  0  0  0  0  0  0  0  0
  129.9241  125.1709   68.5968 H   0  0  0  0  0  0  0  0  0  0  0  0
  128.8447  125.2888   67.1658 H   0  0  0  0  0  0  0  0  0  0  0  0
  130.2121  124.1240   67.1658 H   0  0  0  0  0  0  0  0  0  0  0  0
  130.5329  126.3442   65.8402 H   0  0  0  0  0  0  0  0  0  0  0  0
  130.6620  127.1350   67.4474 H   0  0  0  0  0  0  0  0  0  0  0  0
  132.3144  126.5390   63.6254 H   0  0  0  0  0  0  0  0  0  0  0  0
  130.7820  125.8976   61.7802 H   0  0  0  0  0  0  0  0  0  0  0  0
  129.7420  123.9310   60.7360 H   0  0  0  0  0  0  0  0  0  0  0  0
  126.3223  120.9083   54.4061 H   0  0  0  0  0  0  0  0  0  0  0  0
  125.2155  122.2036   53.8371 H   0  0  0  0  0  0  0  0  0  0  0  0
  126.9911  122.4753   53.8371 H   0  0  0  0  0  0  0  0  0  0  0  0
  124.2269  123.6246   55.4497 H   0  0  0  0  0  0  0  0  0  0  0  0
  123.7124  124.8162   58.9507 H   0  0  0  0  0  0  0  0  0  0  0  0
  123.9499  125.7646   57.4438 H   0  0  0  0  0  0  0  0  0  0  0  0
  122.8605  124.3364   57.4438 H   0  0  0  0  0  0  0  0  0  0  0  0
  125.2670  124.4900   61.4590 H   0  0  0  0  0  0  0  0  0  0  0  0
  124.9410  125.4130   60.0440 H   0  0  0  0  0  0  0  0  0  0  0  0
  129.6707  122.3197   63.9383 H   0  0  0  0  0  0  0  0  0  0  0  0
  131.1972  122.9665   65.7917 H   0  0  0  0  0  0  0  0  0  0  0  0
  1  2  1  0
  2  3  1  0
  3  4  1  0
  4  5  2  0
  4  6  1  0
  6  7  2  0
  7  8  1  0
  8  9  2  0
  9 10  1  0
 10 11  1  0
 11 12  2  0
 11 13  1  0
 13 14  1  0
 14 15  1  0
 15 16  2  0
 16 17  1  0
 17 18  1  0
 17 19  2  0
 19 20  1  0
 20 21  1  0
 20 22  2  0
 22 23  1  0
 23 24  1  0
  9 25  1  0
 25 26  2  0
 26  6  1  0
 23 13  2  0
 22 15  1  0
  1 27  1  0
  1 28  1  0
  1 29  1  0
  2 30  1  0
  2 31  1  0
  7 32  1  0
  8 33  1  0
 10 34  1  0
 18 35  1  0
 18 36  1  0
 18 37  1  0
 19 38  1  0
 21 39  1  0
 21 40  1  0
 21 41  1  0
 24 42  1  0
 24 43  1  0
 25 44  1  0
 26 45  1  0
M  END
>  <Binding energies>  (1) 
[-8.04]

>  <Ligand effiencies>  (1) 
[-0.2772413793103448]

>  <Interactions>  (1) 
["V-A:HIS:456:CE1:4069, V-A:GLU:543:CD:4908, V-B:GLU:543:CB:9877, V-B:GLU:543:CG:9878, V-B:MET:535:CE:9806, V-B:LEU:363:CA:8156, V-B:LEU:363:CD1:8160, V-B:TYR:539:CD2:9845, V-B:PRO:540:CA:9854, V-B:TYR:539:CE2:9847, V-B:ALA:541:CB:9863, V-B:PRO:540:N:9855, V-B:PRO:540:CB:9856, H-B:TYR:539:N:9841, H-B:ALA:541:N:9862, V-B:TYR:539:CZ:9848, V-B:TYR:539:C:9838, V-B:ILE:538:CA:9831, V-B:TYR:539:CD1:9844, V-B:ASP:366:CB:8183, H-A:GLY:454:N:4049, V-B:ILE:538:CG2:9834, H-A:TYR:484:OH:4347, V-A:TYR:484:CE1:4344, V-B:ILE:538:CD1:9836, V-B:TYR:539:CG:9843, V-A:TYR:484:CZ:4346, H-B:ASP:366:OD2:8186, V-B:TYR:531:CZ:9765, V-B:TYR:531:CE2:9764, H-A:ARG:545:NE:4924, H-B:GLU:543:OE2:9881, V-B:ILE:538:CB:9833, V-B:ILE:538:C:9829, H-A:HIS:456:ND1:4066, V-B:VAL:537:C:9821, V-B:ILE:538:CG1:9835"]

$$$$
4ab_Grossjean_2025
     RDKit          3D

 42 44  0  0  0  0  0  0  0  0999 V2000
  135.0150  125.3680   66.6810 C   0  0  0  0  0  0  0  0  0  0  0  0
  133.9730  125.0540   65.7670 O   0  0  0  0  0  0  0  0  0  0  0  0
  132.6930  125.4350   66.0100 C   0  0  0  0  0  0  0  0  0  0  0  0
  132.3470  126.0520   67.0230 O   0  0  0  0  0  0  0  0  0  0  0  0
  131.7380  125.0260   64.9260 C   0  0  0  0  0  0  0  0  0  0  0  0
  132.0070  125.3970   63.6020 C   0  0  0  0  0  0  0  0  0  0  0  0
  131.1390  125.0340   62.5750 C   0  0  0  0  0  0  0  0  0  0  0  0
  129.9930  124.2880   62.8480 C   0  0  0  0  0  0  0  0  0  0  0  0
  129.1840  123.9830   61.7370 N   0  0  0  0  0  0  0  0  0  0  0  0
  127.9330  123.4650   61.6830 C   0  0  0  0  0  0  0  0  0  0  0  0
  127.2820  123.1200   62.6710 O   0  0  0  0  0  0  0  0  0  0  0  0
  127.3800  123.3060   60.3370 C   0  0  0  0  0  0  0  0  0  0  0  0
  128.2400  122.3490   59.1280 S   0  0  0  0  0  0  0  0  0  0  0  0
  127.0240  122.6940   57.9200 C   0  0  0  0  0  0  0  0  0  0  0  0
  127.1060  122.2150   56.6780 N   0  0  0  0  0  0  0  0  0  0  0  0
  126.0990  122.5600   55.8390 C   0  0  0  0  0  0  0  0  0  0  0  0
  126.2140  122.0080   54.4300 C   0  0  0  0  0  0  0  0  0  0  0  0
  125.0210  123.3610   56.2090 C   0  0  0  0  0  0  0  0  0  0  0  0
  124.9380  123.8630   57.5130 C   0  0  0  0  0  0  0  0  0  0  0  0
  123.7430  124.7340   57.8690 C   0  0  0  0  0  0  0  0  0  0  0  0
  125.9780  123.5260   58.4220 C   0  0  0  0  0  0  0  0  0  0  0  0
  126.2100  123.8650   59.8000 C   0  0  0  0  0  0  0  0  0  0  0  0
  125.3490  124.6630   60.5120 N   0  0  0  0  0  0  0  0  0  0  0  0
  129.7120  123.9160   64.1720 C   0  0  0  0  0  0  0  0  0  0  0  0
  130.5800  124.2820   65.1980 C   0  0  0  0  0  0  0  0  0  0  0  0
  134.6452  125.2566   67.7110 H   0  0  0  0  0  0  0  0  0  0  0  0
  135.8623  124.6853   66.5197 H   0  0  0  0  0  0  0  0  0  0  0  0
  135.3440  126.4052   66.5197 H   0  0  0  0  0  0  0  0  0  0  0  0
  132.9111  125.9797   63.3717 H   0  0  0  0  0  0  0  0  0  0  0  0
  131.3591  125.3380   61.5410 H   0  0  0  0  0  0  0  0  0  0  0  0
  129.6190  124.1720   60.8470 H   0  0  0  0  0  0  0  0  0  0  0  0
  126.4382  120.9320   54.4749 H   0  0  0  0  0  0  0  0  0  0  0  0
  125.2643  122.1628   53.8969 H   0  0  0  0  0  0  0  0  0  0  0  0
  127.0229  122.5291   53.8969 H   0  0  0  0  0  0  0  0  0  0  0  0
  124.2354  123.5989   55.4768 H   0  0  0  0  0  0  0  0  0  0  0  0
  123.6511  124.8010   58.9631 H   0  0  0  0  0  0  0  0  0  0  0  0
  123.8859  125.7413   57.4507 H   0  0  0  0  0  0  0  0  0  0  0  0
  122.8278  124.2897   57.4507 H   0  0  0  0  0  0  0  0  0  0  0  0
  125.1620  124.5050   61.4910 H   0  0  0  0  0  0  0  0  0  0  0  0
  124.8670  125.4360   60.0730 H   0  0  0  0  0  0  0  0  0  0  0  0
  128.8059  123.3352   64.3994 H   0  0  0  0  0  0  0  0  0  0  0  0
  130.3551  123.9845   66.2329 H   0  0  0  0  0  0  0  0  0  0  0  0
  1  2  1  0
  2  3  1  0
  3  4  2  0
  3  5  1  0
  5  6  2  0
  6  7  1  0
  7  8  2  0
  8  9  1  0
  9 10  1  0
 10 11  2  0
 10 12  1  0
 12 13  1  0
 13 14  1  0
 14 15  2  0
 15 16  1  0
 16 17  1  0
 16 18  2  0
 18 19  1  0
 19 20  1  0
 19 21  2  0
 21 22  1  0
 22 23  1  0
  8 24  1  0
 24 25  2  0
 25  5  1  0
 22 12  2  0
 21 14  1  0
  1 26  1  0
  1 27  1  0
  1 28  1  0
  6 29  1  0
  7 30  1  0
  9 31  1  0
 17 32  1  0
 17 33  1  0
 17 34  1  0
 18 35  1  0
 20 36  1  0
 20 37  1  0
 20 38  1  0
 23 39  1  0
 23 40  1  0
 24 41  1  0
 25 42  1  0
M  END
>  <Binding energies>  (1) 
[-8.09]

>  <Ligand effiencies>  (1) 
[-0.2889285714285714]

>  <Interactions>  (1) 
["V-A:HIS:456:CE1:4069, V-B:GLU:543:CD:9879, V-B:GLU:543:CG:9878, V-B:MET:535:CE:9806, V-B:LEU:363:CA:8156, V-B:LEU:363:CD1:8160, V-B:TYR:539:CD2:9845, V-B:PRO:540:CA:9854, V-B:TYR:539:CE2:9847, V-B:ALA:541:CB:9863, V-B:PRO:540:N:9855, V-B:PRO:540:CB:9856, H-B:TYR:539:N:9841, H-B:ALA:541:N:9862, V-B:TYR:539:C:9838, V-A:ARG:545:CZ:4926, V-B:ILE:538:CA:9831, V-B:TYR:539:CD1:9844, V-B:ASP:366:CB:8183, H-A:GLY:454:N:4049, V-B:ILE:538:CG2:9834, H-A:TYR:484:OH:4347, V-B:ILE:538:CD1:9836, V-A:GLY:454:CA:4048, H-B:ASP:366:OD2:8186, V-B:TYR:531:CZ:9765, V-B:TYR:531:CE2:9764, H-A:ARG:545:NE:4924, V-A:ARG:545:CD:4923, V-A:ILE:455:C:4051, V-A:ARG:545:CG:4922, H-B:GLU:543:OE2:9881, V-B:ILE:538:CB:9833, V-B:ILE:538:C:9829, H-A:HIS:456:ND1:4066, V-B:LEU:363:CB:8158, V-A:GLY:453:C:4041, V-A:GLY:453:CA:4043, V-B:VAL:537:C:9821, V-B:ILE:538:CG1:9835"]

$$$$
4ac_Grossjean_2025
     RDKit          3D

 40 42  0  0  0  0  0  0  0  0999 V2000
  133.8510  125.3750   66.7500 C   0  0  0  0  0  0  0  0  0  0  0  0
  134.0580  125.0090   65.3900 O   0  0  0  0  0  0  0  0  0  0  0  0
  132.9640  124.7650   64.5830 C   0  0  0  0  0  0  0  0  0  0  0  0
  133.2290  124.4870   63.2430 C   0  0  0  0  0  0  0  0  0  0  0  0
  132.1890  124.2280   62.3530 C   0  0  0  0  0  0  0  0  0  0  0  0
  130.8670  124.2350   62.7980 C   0  0  0  0  0  0  0  0  0  0  0  0
  129.8830  123.9750   61.8260 N   0  0  0  0  0  0  0  0  0  0  0  0
  128.5980  123.5800   61.9910 C   0  0  0  0  0  0  0  0  0  0  0  0
  128.0850  123.3440   63.0870 O   0  0  0  0  0  0  0  0  0  0  0  0
  127.8220  123.4330   60.7570 C   0  0  0  0  0  0  0  0  0  0  0  0
  128.4150  122.4130   59.4460 S   0  0  0  0  0  0  0  0  0  0  0  0
  127.0160  122.7790   58.4630 C   0  0  0  0  0  0  0  0  0  0  0  0
  126.8560  122.2660   57.2430 N   0  0  0  0  0  0  0  0  0  0  0  0
  125.7280  122.6300   56.5870 C   0  0  0  0  0  0  0  0  0  0  0  0
  125.5650  122.0340   55.2010 C   0  0  0  0  0  0  0  0  0  0  0  0
  124.7660  123.4890   57.1170 C   0  0  0  0  0  0  0  0  0  0  0  0
  124.9380  124.0270   58.3970 C   0  0  0  0  0  0  0  0  0  0  0  0
  123.8610  124.9590   58.9310 C   0  0  0  0  0  0  0  0  0  0  0  0
  126.1080  123.6650   59.1170 C   0  0  0  0  0  0  0  0  0  0  0  0
  126.5910  124.0210   60.4240 C   0  0  0  0  0  0  0  0  0  0  0  0
  125.8970  124.8630   61.2560 N   0  0  0  0  0  0  0  0  0  0  0  0
  130.5900  124.5250   64.1420 C   0  0  0  0  0  0  0  0  0  0  0  0
  131.6330  124.7840   65.0280 C   0  0  0  0  0  0  0  0  0  0  0  0
  134.2855  124.6068   67.4066 H   0  0  0  0  0  0  0  0  0  0  0  0
  134.3356  126.3426   66.9471 H   0  0  0  0  0  0  0  0  0  0  0  0
  132.7720  125.4583   66.9471 H   0  0  0  0  0  0  0  0  0  0  0  0
  134.2690  124.4720   62.8850 H   0  0  0  0  0  0  0  0  0  0  0  0
  132.4109  124.0174   61.2964 H   0  0  0  0  0  0  0  0  0  0  0  0
  130.2010  124.0700   60.8720 H   0  0  0  0  0  0  0  0  0  0  0  0
  125.2757  120.9763   55.2884 H   0  0  0  0  0  0  0  0  0  0  0  0
  124.7842  122.5838   54.6550 H   0  0  0  0  0  0  0  0  0  0  0  0
  126.5169  122.1099   54.6550 H   0  0  0  0  0  0  0  0  0  0  0  0
  123.8720  123.7436   56.5288 H   0  0  0  0  0  0  0  0  0  0  0  0
  123.8767  124.9454   60.0308 H   0  0  0  0  0  0  0  0  0  0  0  0
  124.0514  125.9819   58.5742 H   0  0  0  0  0  0  0  0  0  0  0  0
  122.8760  124.6236   58.5742 H   0  0  0  0  0  0  0  0  0  0  0  0
  125.1220  125.4190   60.9270 H   0  0  0  0  0  0  0  0  0  0  0  0
  126.1390  124.9510   62.2330 H   0  0  0  0  0  0  0  0  0  0  0  0
  129.5489  124.5479   64.4964 H   0  0  0  0  0  0  0  0  0  0  0  0
  131.4123  125.0048   66.0828 H   0  0  0  0  0  0  0  0  0  0  0  0
  1  2  1  0
  2  3  1  0
  3  4  2  0
  4  5  1  0
  5  6  2  0
  6  7  1  0
  7  8  1  0
  8  9  2  0
  8 10  1  0
 10 11  1  0
 11 12  1  0
 12 13  2  0
 13 14  1  0
 14 15  1  0
 14 16  2  0
 16 17  1  0
 17 18  1  0
 17 19  2  0
 19 20  1  0
 20 21  1  0
  6 22  1  0
 22 23  2  0
 23  3  1  0
 20 10  2  0
 19 12  1  0
  1 24  1  0
  1 25  1  0
  1 26  1  0
  4 27  1  0
  5 28  1  0
  7 29  1  0
 15 30  1  0
 15 31  1  0
 15 32  1  0
 16 33  1  0
 18 34  1  0
 18 35  1  0
 18 36  1  0
 21 37  1  0
 21 38  1  0
 22 39  1  0
 23 40  1  0
M  END
>  <Binding energies>  (1) 
[-7.86]

>  <Ligand effiencies>  (1) 
[-0.30230769230769233]

>  <Interactions>  (1) 
["V-A:HIS:456:CE1:4069, V-B:MET:535:CE:9806, V-B:ASP:366:CG:8184, V-B:LEU:363:CA:8156, V-B:LEU:363:CD1:8160, V-B:ASN:362:C:8143, V-B:TYR:539:CD2:9845, V-B:PRO:540:CA:9854, V-B:TYR:539:CE2:9847, V-B:ALA:541:CB:9863, V-B:PRO:540:N:9855, V-B:PRO:540:CB:9856, H-B:TYR:539:N:9841, V-B:TYR:539:C:9838, V-B:PRO:540:CD:9858, V-A:ARG:545:CZ:4926, V-B:ILE:538:CA:9831, V-B:ASP:366:CB:8183, H-A:GLY:454:N:4049, V-B:ILE:538:CG2:9834, H-A:TYR:484:OH:4347, V-B:ILE:538:CD1:9836, H-B:ASP:366:OD2:8186, H-A:ARG:545:NE:4924, V-A:ARG:545:CD:4923, V-A:ARG:545:CG:4922, H-B:GLU:543:OE2:9881, V-B:ILE:538:CB:9833, V-B:ILE:538:C:9829"]

$$$$
4ad_Grossjean_2025
     RDKit          3D

 36 38  0  0  0  0  0  0  0  0999 V2000
  126.4900  122.0580   54.5930 C   0  0  0  0  0  0  0  0  0  0  0  0
  126.2280  122.6080   55.9820 C   0  0  0  0  0  0  0  0  0  0  0  0
  125.1230  123.4170   56.2370 C   0  0  0  0  0  0  0  0  0  0  0  0
  124.9020  123.9160   57.5270 C   0  0  0  0  0  0  0  0  0  0  0  0
  123.6830  124.7970   57.7550 C   0  0  0  0  0  0  0  0  0  0  0  0
  125.8350  123.5680   58.5400 C   0  0  0  0  0  0  0  0  0  0  0  0
  125.9150  123.8950   59.9380 C   0  0  0  0  0  0  0  0  0  0  0  0
  124.9790  124.6830   60.5600 N   0  0  0  0  0  0  0  0  0  0  0  0
  127.0250  123.3380   60.5930 C   0  0  0  0  0  0  0  0  0  0  0  0
  127.4210  123.4760   61.9960 C   0  0  0  0  0  0  0  0  0  0  0  0
  126.6610  123.1250   62.9000 O   0  0  0  0  0  0  0  0  0  0  0  0
  128.6570  123.9950   62.2020 N   0  0  0  0  0  0  0  0  0  0  0  0
  129.3120  124.2940   63.4120 C   0  0  0  0  0  0  0  0  0  0  0  0
  129.5290  123.2130   64.2720 C   0  0  0  0  0  0  0  0  0  0  0  0
  130.1780  123.4050   65.4890 C   0  0  0  0  0  0  0  0  0  0  0  0
  130.6190  124.6770   65.8430 C   0  0  0  0  0  0  0  0  0  0  0  0
  130.4200  125.7590   64.9900 C   0  0  0  0  0  0  0  0  0  0  0  0
  129.7710  125.5710   63.7730 C   0  0  0  0  0  0  0  0  0  0  0  0
  128.0050  122.3810   59.4800 S   0  0  0  0  0  0  0  0  0  0  0  0
  126.9260  122.7340   58.1500 C   0  0  0  0  0  0  0  0  0  0  0  0
  127.1380  122.2560   56.9220 N   0  0  0  0  0  0  0  0  0  0  0  0
  126.9618  121.0676   54.6738 H   0  0  0  0  0  0  0  0  0  0  0  0
  125.5383  121.9675   54.0489 H   0  0  0  0  0  0  0  0  0  0  0  0
  127.1600  122.7400   54.0489 H   0  0  0  0  0  0  0  0  0  0  0  0
  124.4236  123.6641   55.4248 H   0  0  0  0  0  0  0  0  0  0  0  0
  123.5152  124.9183   58.8353 H   0  0  0  0  0  0  0  0  0  0  0  0
  123.8523  125.7828   57.2973 H   0  0  0  0  0  0  0  0  0  0  0  0
  122.8001  124.3269   57.2973 H   0  0  0  0  0  0  0  0  0  0  0  0
  124.6360  124.4760   61.4870 H   0  0  0  0  0  0  0  0  0  0  0  0
  124.6020  125.5050   60.1080 H   0  0  0  0  0  0  0  0  0  0  0  0
  129.2030  124.1840   61.3750 H   0  0  0  0  0  0  0  0  0  0  0  0
  129.1859  122.2077   63.9863 H   0  0  0  0  0  0  0  0  0  0  0  0
  130.3415  122.5550   66.1678 H   0  0  0  0  0  0  0  0  0  0  0  0
  131.1294  124.8286   66.8056 H   0  0  0  0  0  0  0  0  0  0  0  0
  130.7747  126.7599   65.2770 H   0  0  0  0  0  0  0  0  0  0  0  0
  129.6177  126.4228   63.0941 H   0  0  0  0  0  0  0  0  0  0  0  0
  1  2  1  0
  2  3  2  0
  3  4  1  0
  4  5  1  0
  4  6  2  0
  6  7  1  0
  7  8  1  0
  7  9  2  0
  9 10  1  0
 10 11  2  0
 10 12  1  0
 12 13  1  0
 13 14  2  0
 14 15  1  0
 15 16  2  0
 16 17  1  0
 17 18  2  0
  9 19  1  0
 19 20  1  0
 20 21  2  0
 21  2  1  0
 20  6  1  0
 18 13  1  0
  1 22  1  0
  1 23  1  0
  1 24  1  0
  3 25  1  0
  5 26  1  0
  5 27  1  0
  5 28  1  0
  8 29  1  0
  8 30  1  0
 12 31  1  0
 14 32  1  0
 15 33  1  0
 16 34  1  0
 17 35  1  0
 18 36  1  0
M  END
>  <Binding energies>  (1) 
[-7.54]

>  <Ligand effiencies>  (1) 
[-0.31416666666666665]

>  <Interactions>  (1) 
["V-B:GLU:543:CD:9879, V-B:GLU:543:CG:9878, V-B:MET:535:CE:9806, V-B:ASP:366:CG:8184, V-B:LEU:363:CA:8156, V-B:LEU:363:CD1:8160, V-B:TYR:539:CD2:9845, V-B:PRO:540:CA:9854, V-B:TYR:539:CE2:9847, V-B:ALA:541:CB:9863, V-B:PRO:540:N:9855, V-B:TYR:539:CE1:9846, V-B:PRO:540:CB:9856, H-B:TYR:539:N:9841, H-B:ALA:541:N:9862, V-B:TYR:539:C:9838, V-B:ILE:538:CA:9831, V-B:TYR:539:CD1:9844, V-B:ASP:366:CB:8183, V-A:TYR:484:CE1:4344, V-B:ILE:538:CD1:9836, V-A:TYR:484:CZ:4346, H-B:ASP:366:OD2:8186, V-B:TYR:531:CZ:9765, V-B:TYR:531:CE2:9764, H-B:GLU:543:OE2:9881, V-B:ILE:538:C:9829, V-B:LEU:363:CB:8158"]

$$$$
4ae_Grossjean_2025
     RDKit          3D

 38 40  0  0  0  0  0  0  0  0999 V2000
  129.8610  126.2130   65.9290 C   0  0  0  0  0  0  0  0  0  0  0  0
  130.2400  125.0810   64.9950 C   0  0  0  0  0  0  0  0  0  0  0  0
  131.3370  124.2540   65.2550 C   0  0  0  0  0  0  0  0  0  0  0  0
  131.6310  123.2370   64.3470 C   0  0  0  0  0  0  0  0  0  0  0  0
  130.8320  123.0720   63.2130 C   0  0  0  0  0  0  0  0  0  0  0  0
  129.7440  123.9300   63.0170 C   0  0  0  0  0  0  0  0  0  0  0  0
  128.9910  123.7280   61.8480 N   0  0  0  0  0  0  0  0  0  0  0  0
  127.6910  123.3570   61.7300 C   0  0  0  0  0  0  0  0  0  0  0  0
  126.9540  123.1270   62.6900 O   0  0  0  0  0  0  0  0  0  0  0  0
  127.1960  123.2360   60.3570 C   0  0  0  0  0  0  0  0  0  0  0  0
  128.0750  122.2660   59.1750 S   0  0  0  0  0  0  0  0  0  0  0  0
  126.9270  122.6670   57.9190 C   0  0  0  0  0  0  0  0  0  0  0  0
  127.0510  122.2030   56.6750 N   0  0  0  0  0  0  0  0  0  0  0  0
  126.0970  122.5940   55.7970 C   0  0  0  0  0  0  0  0  0  0  0  0
  126.2610  122.0610   54.3850 C   0  0  0  0  0  0  0  0  0  0  0  0
  125.0300  123.4280   56.1290 C   0  0  0  0  0  0  0  0  0  0  0  0
  124.9030  123.9120   57.4370 C   0  0  0  0  0  0  0  0  0  0  0  0
  123.7250  124.8220   57.7510 C   0  0  0  0  0  0  0  0  0  0  0  0
  125.8870  123.5250   58.3860 C   0  0  0  0  0  0  0  0  0  0  0  0
  126.0620  123.8330   59.7810 C   0  0  0  0  0  0  0  0  0  0  0  0
  125.1920  124.6400   60.4690 N   0  0  0  0  0  0  0  0  0  0  0  0
  129.4540  124.9320   63.8980 N   0  0  0  0  0  0  0  0  0  0  0  0
  129.9722  125.8808   66.9717 H   0  0  0  0  0  0  0  0  0  0  0  0
  130.5195  127.0750   65.7465 H   0  0  0  0  0  0  0  0  0  0  0  0
  128.8162  126.5047   65.7465 H   0  0  0  0  0  0  0  0  0  0  0  0
  131.9533  124.4019   66.1540 H   0  0  0  0  0  0  0  0  0  0  0  0
  132.4869  122.5688   64.5227 H   0  0  0  0  0  0  0  0  0  0  0  0
  131.0550  122.2787   62.4843 H   0  0  0  0  0  0  0  0  0  0  0  0
  129.5100  123.8270   60.9880 H   0  0  0  0  0  0  0  0  0  0  0  0
  126.5843  121.0103   54.4249 H   0  0  0  0  0  0  0  0  0  0  0  0
  125.3003  122.1291   53.8535 H   0  0  0  0  0  0  0  0  0  0  0  0
  127.0172  122.6574   53.8535 H   0  0  0  0  0  0  0  0  0  0  0  0
  124.2891  123.7053   55.3647 H   0  0  0  0  0  0  0  0  0  0  0  0
  123.6105  124.9105   58.8414 H   0  0  0  0  0  0  0  0  0  0  0  0
  123.9054  125.8175   57.3193 H   0  0  0  0  0  0  0  0  0  0  0  0
  122.8073  124.3960   57.3193 H   0  0  0  0  0  0  0  0  0  0  0  0
  124.9880  124.4940   61.4480 H   0  0  0  0  0  0  0  0  0  0  0  0
  124.7240  125.4130   60.0160 H   0  0  0  0  0  0  0  0  0  0  0  0
  1  2  1  0
  2  3  2  0
  3  4  1  0
  4  5  2  0
  5  6  1  0
  6  7  1  0
  7  8  1  0
  8  9  2  0
  8 10  1  0
 10 11  1  0
 11 12  1  0
 12 13  2  0
 13 14  1  0
 14 15  1  0
 14 16  2  0
 16 17  1  0
 17 18  1  0
 17 19  2  0
 19 20  1  0
 20 21  1  0
  6 22  2  0
 22  2  1  0
 20 10  2  0
 19 12  1  0
  1 23  1  0
  1 24  1  0
  1 25  1  0
  3 26  1  0
  4 27  1  0
  5 28  1  0
  7 29  1  0
 15 30  1  0
 15 31  1  0
 15 32  1  0
 16 33  1  0
 18 34  1  0
 18 35  1  0
 18 36  1  0
 21 37  1  0
 21 38  1  0
M  END
>  <Binding energies>  (1) 
[-7.43]

>  <Ligand effiencies>  (1) 
[-0.29719999999999996]

>  <Interactions>  (1) 
["V-B:GLU:543:CD:9879, V-A:GLU:543:CD:4908, V-B:GLU:543:CG:9878, V-B:MET:535:CE:9806, V-B:ASP:366:CG:8184, V-B:LEU:363:CA:8156, V-B:LEU:363:CD1:8160, V-B:TYR:539:CD2:9845, V-B:PRO:540:CA:9854, V-B:TYR:539:CE2:9847, V-B:ALA:541:CB:9863, V-B:PRO:540:N:9855, V-B:TYR:539:CE1:9846, V-B:PRO:540:CB:9856, H-B:TYR:539:N:9841, H-B:ALA:541:N:9862, V-B:TYR:539:C:9838, V-B:ILE:538:CA:9831, V-B:TYR:539:CD1:9844, V-B:ASP:366:CB:8183, V-B:ILE:538:CD1:9836, V-A:TYR:484:CZ:4346, H-B:ASP:366:OD2:8186, V-B:TYR:531:CZ:9765, V-B:TYR:531:CE2:9764, H-B:GLU:543:OE2:9881, V-B:ILE:538:CB:9833, V-B:ILE:538:C:9829, V-B:VAL:537:C:9821, V-B:ILE:538:CG1:9835"]

$$$$
4af_Grossjean_2025
     RDKit          3D

 35 37  0  0  0  0  0  0  0  0999 V2000
  126.5370  122.0820   54.5500 C   0  0  0  0  0  0  0  0  0  0  0  0
  126.2590  122.6090   55.9470 C   0  0  0  0  0  0  0  0  0  0  0  0
  125.1490  123.4120   56.2030 C   0  0  0  0  0  0  0  0  0  0  0  0
  124.9130  123.8890   57.4980 C   0  0  0  0  0  0  0  0  0  0  0  0
  123.6910  124.7620   57.7270 C   0  0  0  0  0  0  0  0  0  0  0  0
  125.8370  123.5260   58.5160 C   0  0  0  0  0  0  0  0  0  0  0  0
  125.9020  123.8330   59.9200 C   0  0  0  0  0  0  0  0  0  0  0  0
  124.9610  124.6130   60.5430 N   0  0  0  0  0  0  0  0  0  0  0  0
  127.0030  123.2630   60.5780 C   0  0  0  0  0  0  0  0  0  0  0  0
  127.3910  123.3920   61.9840 C   0  0  0  0  0  0  0  0  0  0  0  0
  126.5930  123.1230   62.8820 O   0  0  0  0  0  0  0  0  0  0  0  0
  128.6650  123.8030   62.1980 N   0  0  0  0  0  0  0  0  0  0  0  0
  129.3280  124.0700   63.4110 C   0  0  0  0  0  0  0  0  0  0  0  0
  129.5840  123.1290   64.4250 C   0  0  0  0  0  0  0  0  0  0  0  0
  130.2370  123.5300   65.5910 C   0  0  0  0  0  0  0  0  0  0  0  0
  130.6170  124.8670   65.7190 C   0  0  0  0  0  0  0  0  0  0  0  0
  130.3750  125.7950   64.7590 N   0  0  0  0  0  0  0  0  0  0  0  0
  129.7380  125.3900   63.6320 C   0  0  0  0  0  0  0  0  0  0  0  0
  127.9980  122.3260   59.4600 S   0  0  0  0  0  0  0  0  0  0  0  0
  126.9320  122.6990   58.1240 C   0  0  0  0  0  0  0  0  0  0  0  0
  127.1590  122.2430   56.8920 N   0  0  0  0  0  0  0  0  0  0  0  0
  127.0492  121.1110   54.6196 H   0  0  0  0  0  0  0  0  0  0  0  0
  125.5872  121.9576   54.0093 H   0  0  0  0  0  0  0  0  0  0  0  0
  127.1760  122.7957   54.0093 H   0  0  0  0  0  0  0  0  0  0  0  0
  124.4580  123.6711   55.3873 H   0  0  0  0  0  0  0  0  0  0  0  0
  123.5233  124.8818   58.8075 H   0  0  0  0  0  0  0  0  0  0  0  0
  123.8545  125.7490   57.2697 H   0  0  0  0  0  0  0  0  0  0  0  0
  122.8104  124.2873   57.2697 H   0  0  0  0  0  0  0  0  0  0  0  0
  124.5490  125.4180   60.0900 H   0  0  0  0  0  0  0  0  0  0  0  0
  124.6430  124.4050   61.4800 H   0  0  0  0  0  0  0  0  0  0  0  0
  129.2340  123.9350   61.3750 H   0  0  0  0  0  0  0  0  0  0  0  0
  129.2708  122.0821   64.2992 H   0  0  0  0  0  0  0  0  0  0  0  0
  130.4480  122.8073   66.3930 H   0  0  0  0  0  0  0  0  0  0  0  0
  131.1347  125.1818   66.6371 H   0  0  0  0  0  0  0  0  0  0  0  0
  129.5330  126.1375   62.8514 H   0  0  0  0  0  0  0  0  0  0  0  0
  1  2  1  0
  2  3  2  0
  3  4  1  0
  4  5  1  0
  4  6  2  0
  6  7  1  0
  7  8  1  0
  7  9  2  0
  9 10  1  0
 10 11  2  0
 10 12  1  0
 12 13  1  0
 13 14  2  0
 14 15  1  0
 15 16  2  0
 16 17  1  0
 17 18  2  0
  9 19  1  0
 19 20  1  0
 20 21  2  0
 21  2  1  0
 20  6  1  0
 18 13  1  0
  1 22  1  0
  1 23  1  0
  1 24  1  0
  3 25  1  0
  5 26  1  0
  5 27  1  0
  5 28  1  0
  8 29  1  0
  8 30  1  0
 12 31  1  0
 14 32  1  0
 15 33  1  0
 16 34  1  0
 18 35  1  0
M  END
>  <Binding energies>  (1) 
[-7.17]

>  <Ligand effiencies>  (1) 
[-0.29875]

>  <Interactions>  (1) 
["V-B:GLU:543:CD:9879, V-B:GLU:543:CG:9878, V-B:MET:535:CE:9806, V-B:ASP:366:CG:8184, V-B:LEU:363:CA:8156, V-B:LEU:363:CD1:8160, V-B:TYR:539:CD2:9845, V-B:PRO:540:CA:9854, V-B:TYR:539:CE2:9847, V-B:PRO:540:C:9852, V-B:ALA:541:CB:9863, V-B:PRO:540:N:9855, V-B:TYR:539:CE1:9846, V-B:PRO:540:CB:9856, H-B:TYR:539:N:9841, H-B:ALA:541:N:9862, V-B:TYR:539:C:9838, V-B:ILE:538:CA:9831, V-B:TYR:539:CD1:9844, V-B:ASP:366:CB:8183, V-A:TYR:484:CE1:4344, V-B:ILE:538:CD1:9836, V-A:TYR:484:CZ:4346, H-B:ASP:366:OD2:8186, V-B:TYR:531:CZ:9765, V-B:TYR:531:CE2:9764, H-B:GLU:543:OE2:9881, V-B:ILE:538:C:9829, V-B:LEU:363:CB:8158, V-B:VAL:537:C:9821"]

$$$$
4ag_Grossjean_2025
     RDKit          3D

 39 41  0  0  0  0  0  0  0  0999 V2000
  126.3880  122.1080   54.4650 C   0  0  0  0  0  0  0  0  0  0  0  0
  126.2390  122.6340   55.8810 C   0  0  0  0  0  0  0  0  0  0  0  0
  125.1780  123.4690   56.2270 C   0  0  0  0  0  0  0  0  0  0  0  0
  125.0580  123.9410   57.5390 C   0  0  0  0  0  0  0  0  0  0  0  0
  123.8830  124.8500   57.8690 C   0  0  0  0  0  0  0  0  0  0  0  0
  126.0440  123.5410   58.4800 C   0  0  0  0  0  0  0  0  0  0  0  0
  126.2250  123.8310   59.8770 C   0  0  0  0  0  0  0  0  0  0  0  0
  125.3600  124.6340   60.5780 N   0  0  0  0  0  0  0  0  0  0  0  0
  127.3550  123.2240   60.4420 C   0  0  0  0  0  0  0  0  0  0  0  0
  127.8300  123.2950   61.8240 C   0  0  0  0  0  0  0  0  0  0  0  0
  127.0630  123.1320   62.7760 O   0  0  0  0  0  0  0  0  0  0  0  0
  129.1420  123.5660   61.9890 N   0  0  0  0  0  0  0  0  0  0  0  0
  129.8330  123.6580   63.2740 C   0  0  0  0  0  0  0  0  0  0  0  0
  131.2830  124.1160   63.1660 C   0  0  0  0  0  0  0  0  0  0  0  0
  131.9120  124.7010   64.2680 C   0  0  0  0  0  0  0  0  0  0  0  0
  133.2440  125.0980   64.1800 C   0  0  0  0  0  0  0  0  0  0  0  0
  133.9460  124.8970   62.9930 C   0  0  0  0  0  0  0  0  0  0  0  0
  133.3300  124.3000   61.8950 C   0  0  0  0  0  0  0  0  0  0  0  0
  131.9990  123.9030   61.9840 C   0  0  0  0  0  0  0  0  0  0  0  0
  128.2270  122.2590   59.2510 S   0  0  0  0  0  0  0  0  0  0  0  0
  127.0790  122.6830   58.0010 C   0  0  0  0  0  0  0  0  0  0  0  0
  127.1950  122.2300   56.7520 N   0  0  0  0  0  0  0  0  0  0  0  0
  126.6877  121.0501   54.4965 H   0  0  0  0  0  0  0  0  0  0  0  0
  125.4280  122.2016   53.9362 H   0  0  0  0  0  0  0  0  0  0  0  0
  127.1563  122.6912   53.9362 H   0  0  0  0  0  0  0  0  0  0  0  0
  124.4349  123.7570   55.4688 H   0  0  0  0  0  0  0  0  0  0  0  0
  123.7778  124.9314   58.9609 H   0  0  0  0  0  0  0  0  0  0  0  0
  124.0605  125.8482   57.4423 H   0  0  0  0  0  0  0  0  0  0  0  0
  122.9614  124.4274   57.4423 H   0  0  0  0  0  0  0  0  0  0  0  0
  124.8990  125.4230   60.1480 H   0  0  0  0  0  0  0  0  0  0  0  0
  125.1520  124.4580   61.5510 H   0  0  0  0  0  0  0  0  0  0  0  0
  129.7220  123.6310   61.1660 H   0  0  0  0  0  0  0  0  0  0  0  0
  129.2902  124.3743   63.9083 H   0  0  0  0  0  0  0  0  0  0  0  0
  129.8501  122.6439   63.6999 H   0  0  0  0  0  0  0  0  0  0  0  0
  131.3551  124.8480   65.2051 H   0  0  0  0  0  0  0  0  0  0  0  0
  133.7392  125.5676   65.0427 H   0  0  0  0  0  0  0  0  0  0  0  0
  134.9973  125.2129   62.9222 H   0  0  0  0  0  0  0  0  0  0  0  0
  133.8926  124.1433   60.9628 H   0  0  0  0  0  0  0  0  0  0  0  0
  131.5102  123.4215   61.1242 H   0  0  0  0  0  0  0  0  0  0  0  0
  1  2  1  0
  2  3  2  0
  3  4  1  0
  4  5  1  0
  4  6  2  0
  6  7  1  0
  7  8  1  0
  7  9  2  0
  9 10  1  0
 10 11  2  0
 10 12  1  0
 12 13  1  0
 13 14  1  0
 14 15  2  0
 15 16  1  0
 16 17  2  0
 17 18  1  0
 18 19  2  0
  9 20  1  0
 20 21  1  0
 21 22  2  0
 22  2  1  0
 21  6  1  0
 19 14  1  0
  1 23  1  0
  1 24  1  0
  1 25  1  0
  3 26  1  0
  5 27  1  0
  5 28  1  0
  5 29  1  0
  8 30  1  0
  8 31  1  0
 12 32  1  0
 13 33  1  0
 13 34  1  0
 15 35  1  0
 16 36  1  0
 17 37  1  0
 18 38  1  0
 19 39  1  0
M  END
>  <Binding energies>  (1) 
[-7.58]

>  <Ligand effiencies>  (1) 
[-0.3032]

>  <Interactions>  (1) 
["V-B:MET:535:CE:9806, V-B:LEU:363:CA:8156, V-B:LEU:363:CD1:8160, V-B:TYR:539:CD2:9845, V-B:PRO:540:CA:9854, V-B:TYR:539:CE2:9847, V-B:ALA:541:CB:9863, V-B:PRO:540:N:9855, V-B:TYR:539:CE1:9846, V-B:PRO:540:CB:9856, H-B:TYR:539:N:9841, H-B:ALA:541:N:9862, V-B:TYR:539:C:9838, V-A:ARG:545:CZ:4926, V-B:ILE:538:CA:9831, V-B:TYR:539:CD1:9844, V-B:ASP:366:CB:8183, V-B:ILE:538:CD1:9836, V-A:ILE:369:CD1:3238, H-B:ASP:366:OD2:8186, V-B:TYR:531:CZ:9765, V-B:TYR:531:CE2:9764, H-B:GLU:543:OE2:9881, V-B:ILE:538:CB:9833, V-B:ILE:538:C:9829, V-A:GLY:453:CA:4043, V-B:VAL:537:C:9821"]

$$$$
4ah_Grossjean_2025
     RDKit          3D

 51 53  0  0  0  0  0  0  0  0999 V2000
  129.9830  125.3040   67.5040 C   0  0  0  0  0  0  0  0  0  0  0  0
  131.3150  125.4420   67.0250 O   0  0  0  0  0  0  0  0  0  0  0  0
  131.5310  125.7210   65.6860 C   0  0  0  0  0  0  0  0  0  0  0  0
  130.6280  126.4300   64.8790 C   0  0  0  0  0  0  0  0  0  0  0  0
  130.9110  126.6730   63.5340 C   0  0  0  0  0  0  0  0  0  0  0  0
  129.9400  127.4850   62.6840 C   0  0  0  0  0  0  0  0  0  0  0  0
  129.2320  126.6890   61.6820 N   0  0  0  0  0  0  0  0  0  0  0  0
  128.9440  125.3750   61.7880 C   0  0  0  0  0  0  0  0  0  0  0  0
  129.2940  124.6940   62.7530 O   0  0  0  0  0  0  0  0  0  0  0  0
  128.2200  124.7840   60.6630 C   0  0  0  0  0  0  0  0  0  0  0  0
  129.1070  124.0290   59.3380 S   0  0  0  0  0  0  0  0  0  0  0  0
  127.6200  123.6670   58.4900 C   0  0  0  0  0  0  0  0  0  0  0  0
  127.6120  123.0380   57.3150 N   0  0  0  0  0  0  0  0  0  0  0  0
  126.3940  122.8170   56.7650 C   0  0  0  0  0  0  0  0  0  0  0  0
  126.4080  122.1030   55.4260 C   0  0  0  0  0  0  0  0  0  0  0  0
  125.1950  123.2060   57.3580 C   0  0  0  0  0  0  0  0  0  0  0  0
  125.2050  123.8680   58.5910 C   0  0  0  0  0  0  0  0  0  0  0  0
  123.8700  124.2740   59.1980 C   0  0  0  0  0  0  0  0  0  0  0  0
  126.4660  124.1200   59.1980 C   0  0  0  0  0  0  0  0  0  0  0  0
  126.8380  124.7640   60.4280 C   0  0  0  0  0  0  0  0  0  0  0  0
  125.9110  125.2970   61.2880 N   0  0  0  0  0  0  0  0  0  0  0  0
  132.1180  126.2290   62.9940 C   0  0  0  0  0  0  0  0  0  0  0  0
  133.0370  125.5120   63.7760 C   0  0  0  0  0  0  0  0  0  0  0  0
  134.2440  125.0300   63.3020 O   0  0  0  0  0  0  0  0  0  0  0  0
  134.3490  124.6330   61.9380 C   0  0  0  0  0  0  0  0  0  0  0  0
  132.7280  125.2590   65.1200 C   0  0  0  0  0  0  0  0  0  0  0  0
  133.6270  124.5750   65.9030 O   0  0  0  0  0  0  0  0  0  0  0  0
  134.2830  125.3820   66.8710 C   0  0  0  0  0  0  0  0  0  0  0  0
  129.9870  125.3044   68.6040 H   0  0  0  0  0  0  0  0  0  0  0  0
  129.3733  126.1438   67.1392 H   0  0  0  0  0  0  0  0  0  0  0  0
  129.5584  124.3571   67.1392 H   0  0  0  0  0  0  0  0  0  0  0  0
  129.6861  126.7986   65.3115 H   0  0  0  0  0  0  0  0  0  0  0  0
  129.1964  127.9464   63.3505 H   0  0  0  0  0  0  0  0  0  0  0  0
  130.5354  128.2330   62.1399 H   0  0  0  0  0  0  0  0  0  0  0  0
  128.8420  127.2010   60.9040 H   0  0  0  0  0  0  0  0  0  0  0  0
  126.4293  121.0156   55.5905 H   0  0  0  0  0  0  0  0  0  0  0  0
  125.5044  122.3703   54.8584 H   0  0  0  0  0  0  0  0  0  0  0  0
  127.3004  122.4055   54.8584 H   0  0  0  0  0  0  0  0  0  0  0  0
  124.2394  122.9926   56.8566 H   0  0  0  0  0  0  0  0  0  0  0  0
  123.9441  124.2515   60.2953 H   0  0  0  0  0  0  0  0  0  0  0  0
  123.6117  125.2913   58.8688 H   0  0  0  0  0  0  0  0  0  0  0  0
  123.0891  123.5727   58.8688 H   0  0  0  0  0  0  0  0  0  0  0  0
  126.0200  125.2450   62.2900 H   0  0  0  0  0  0  0  0  0  0  0  0
  125.0800  125.7580   60.9420 H   0  0  0  0  0  0  0  0  0  0  0  0
  132.3528  126.4437   61.9410 H   0  0  0  0  0  0  0  0  0  0  0  0
  134.6299  123.5708   61.8859 H   0  0  0  0  0  0  0  0  0  0  0  0
  133.3808  124.7812   61.4374 H   0  0  0  0  0  0  0  0  0  0  0  0
  135.1174  125.2405   61.4374 H   0  0  0  0  0  0  0  0  0  0  0  0
  134.0066  125.0420   67.8800 H   0  0  0  0  0  0  0  0  0  0  0  0
  135.3721  125.2979   66.7412 H   0  0  0  0  0  0  0  0  0  0  0  0
  133.9782  126.4309   66.7412 H   0  0  0  0  0  0  0  0  0  0  0  0
  1  2  1  0
  2  3  1  0
  3  4  2  0
  4  5  1  0
  5  6  1  0
  6  7  1  0
  7  8  1  0
  8  9  2  0
  8 10  1  0
 10 11  1  0
 11 12  1  0
 12 13  2  0
 13 14  1  0
 14 15  1  0
 14 16  2  0
 16 17  1  0
 17 18  1  0
 17 19  2  0
 19 20  1  0
 20 21  1  0
  5 22  2  0
 22 23  1  0
 23 24  1  0
 24 25  1  0
 23 26  2  0
 26 27  1  0
 27 28  1  0
 26  3  1  0
 20 10  2  0
 19 12  1  0
  1 29  1  0
  1 30  1  0
  1 31  1  0
  4 32  1  0
  6 33  1  0
  6 34  1  0
  7 35  1  0
 15 36  1  0
 15 37  1  0
 15 38  1  0
 16 39  1  0
 18 40  1  0
 18 41  1  0
 18 42  1  0
 21 43  1  0
 21 44  1  0
 22 45  1  0
 25 46  1  0
 25 47  1  0
 25 48  1  0
 28 49  1  0
 28 50  1  0
 28 51  1  0
M  END
>  <Binding energies>  (1) 
[-6.95]

>  <Ligand effiencies>  (1) 
[-0.2241935483870968]

>  <Interactions>  (1) 
["V-A:HIS:456:CE1:4069, V-A:GLU:543:CD:4908, V-B:GLU:543:CB:9877, V-B:GLU:543:CG:9878, V-B:MET:535:CE:9806, V-B:ASP:366:CG:8184, V-B:LEU:363:CA:8156, V-B:LEU:363:CD1:8160, V-B:ASN:362:C:8143, V-B:PRO:540:CA:9854, V-B:TYR:539:CE2:9847, V-B:PRO:540:N:9855, V-B:TYR:539:CE1:9846, V-B:PRO:540:CB:9856, V-B:PRO:540:CD:9858, V-A:ARG:545:CZ:4926, V-B:ILE:538:CA:9831, V-B:TYR:539:CD1:9844, H-A:GLY:454:N:4049, V-A:ASP:366:CG:3212, H-A:TYR:484:OH:4347, V-B:ILE:538:CD1:9836, H-A:ARG:545:NH1:4927, V-A:ILE:369:CD1:3238, H-B:ASP:366:OD2:8186, V-A:ARG:545:CD:4923, V-A:ARG:545:CG:4922, H-B:GLU:543:OE2:9881, V-B:ILE:538:C:9829, V-B:LEU:363:CB:8158"]

$$$$
4ai_Grossjean_2025
     RDKit          3D

 32 34  0  0  0  0  0  0  0  0999 V2000
  126.4250  122.3400   54.4430 C   0  0  0  0  0  0  0  0  0  0  0  0
  126.2470  122.8000   55.8780 C   0  0  0  0  0  0  0  0  0  0  0  0
  125.1940  123.6390   56.2370 C   0  0  0  0  0  0  0  0  0  0  0  0
  125.0460  124.0460   57.5680 C   0  0  0  0  0  0  0  0  0  0  0  0
  123.8790  124.9600   57.9100 C   0  0  0  0  0  0  0  0  0  0  0  0
  125.9960  123.5770   58.5150 C   0  0  0  0  0  0  0  0  0  0  0  0
  126.1420  123.7910   59.9290 C   0  0  0  0  0  0  0  0  0  0  0  0
  125.2770  124.5830   60.6430 N   0  0  0  0  0  0  0  0  0  0  0  0
  127.2330  123.1170   60.4990 C   0  0  0  0  0  0  0  0  0  0  0  0
  127.6790  123.1200   61.8940 C   0  0  0  0  0  0  0  0  0  0  0  0
  126.8600  123.1260   62.8160 O   0  0  0  0  0  0  0  0  0  0  0  0
  129.0230  123.1000   62.0750 N   0  0  0  0  0  0  0  0  0  0  0  0
  129.7130  123.0870   63.2800 C   0  0  0  0  0  0  0  0  0  0  0  0
  129.6380  124.1230   64.2120 C   0  0  0  0  0  0  0  0  0  0  0  0
  130.4560  123.7330   65.2470 C   0  0  0  0  0  0  0  0  0  0  0  0
  130.9940  122.5250   64.9560 O   0  0  0  0  0  0  0  0  0  0  0  0
  130.5150  122.1250   63.7080 N   0  0  0  0  0  0  0  0  0  0  0  0
  128.1310  122.2120   59.2780 S   0  0  0  0  0  0  0  0  0  0  0  0
  127.0280  122.7240   58.0200 C   0  0  0  0  0  0  0  0  0  0  0  0
  127.1730  122.3340   56.7520 N   0  0  0  0  0  0  0  0  0  0  0  0
  126.8220  121.3142   54.4334 H   0  0  0  0  0  0  0  0  0  0  0  0
  125.4534  122.3621   53.9277 H   0  0  0  0  0  0  0  0  0  0  0  0
  127.1287  123.0103   53.9277 H   0  0  0  0  0  0  0  0  0  0  0  0
  124.4791  123.9815   55.4744 H   0  0  0  0  0  0  0  0  0  0  0  0
  123.7813  125.0365   59.0030 H   0  0  0  0  0  0  0  0  0  0  0  0
  124.0597  125.9593   57.4872 H   0  0  0  0  0  0  0  0  0  0  0  0
  122.9521  124.5451   57.4872 H   0  0  0  0  0  0  0  0  0  0  0  0
  124.8060  125.3710   60.2230 H   0  0  0  0  0  0  0  0  0  0  0  0
  125.0860  124.4030   61.6190 H   0  0  0  0  0  0  0  0  0  0  0  0
  129.5980  123.0830   61.2460 H   0  0  0  0  0  0  0  0  0  0  0  0
  129.0517  125.0506   64.1356 H   0  0  0  0  0  0  0  0  0  0  0  0
  130.6431  124.3103   66.1644 H   0  0  0  0  0  0  0  0  0  0  0  0
  1  2  1  0
  2  3  2  0
  3  4  1  0
  4  5  1  0
  4  6  2  0
  6  7  1  0
  7  8  1  0
  7  9  2  0
  9 10  1  0
 10 11  2  0
 10 12  1  0
 12 13  1  0
 13 14  1  0
 14 15  2  0
 15 16  1  0
 16 17  1  0
  9 18  1  0
 18 19  1  0
 19 20  2  0
 20  2  1  0
 19  6  1  0
 17 13  2  0
  1 21  1  0
  1 22  1  0
  1 23  1  0
  3 24  1  0
  5 25  1  0
  5 26  1  0
  5 27  1  0
  8 28  1  0
  8 29  1  0
 12 30  1  0
 14 31  1  0
 15 32  1  0
M  END
>  <Binding energies>  (1) 
[-6.94]

>  <Ligand effiencies>  (1) 
[-0.3017391304347826]

>  <Interactions>  (1) 
["V-B:GLU:543:CD:9879, V-B:GLU:543:CG:9878, V-B:MET:535:CE:9806, V-B:ASP:366:CG:8184, V-B:LEU:363:CA:8156, V-B:LEU:363:CD1:8160, V-B:TYR:539:CD2:9845, V-B:PRO:540:CA:9854, V-B:TYR:539:CE2:9847, V-B:PRO:540:C:9852, V-B:ALA:541:CB:9863, V-B:PRO:540:N:9855, V-B:TYR:539:CE1:9846, V-B:PRO:540:CB:9856, H-B:TYR:539:N:9841, H-B:ALA:541:N:9862, V-B:TYR:539:C:9838, V-B:ILE:538:CA:9831, V-B:TYR:539:CD1:9844, V-B:ASP:366:CB:8183, H-A:TYR:484:OH:4347, V-A:TYR:484:CE1:4344, V-B:ILE:538:CD1:9836, V-A:TYR:484:CZ:4346, H-B:ASP:366:OD2:8186, V-B:ALA:541:CA:9861, V-B:TYR:531:CZ:9765, V-B:TYR:531:CE2:9764, H-B:GLU:543:OE2:9881"]

$$$$
4aj_Grossjean_2025
     RDKit          3D

 32 34  0  0  0  0  0  0  0  0999 V2000
  126.5300  122.1200   54.5160 C   0  0  0  0  0  0  0  0  0  0  0  0
  126.2810  122.6380   55.9210 C   0  0  0  0  0  0  0  0  0  0  0  0
  125.1920  123.4600   56.2000 C   0  0  0  0  0  0  0  0  0  0  0  0
  124.9840  123.9300   57.5020 C   0  0  0  0  0  0  0  0  0  0  0  0
  123.7810  124.8250   57.7550 C   0  0  0  0  0  0  0  0  0  0  0  0
  125.9120  123.5390   58.5040 C   0  0  0  0  0  0  0  0  0  0  0  0
  126.0020  123.8320   59.9090 C   0  0  0  0  0  0  0  0  0  0  0  0
  125.0900  124.6300   60.5510 N   0  0  0  0  0  0  0  0  0  0  0  0
  127.0940  123.2250   60.5490 C   0  0  0  0  0  0  0  0  0  0  0  0
  127.4900  123.3140   61.9560 C   0  0  0  0  0  0  0  0  0  0  0  0
  126.6660  123.1380   62.8550 O   0  0  0  0  0  0  0  0  0  0  0  0
  128.8000  123.5860   62.1750 N   0  0  0  0  0  0  0  0  0  0  0  0
  129.4320  123.7110   63.4050 C   0  0  0  0  0  0  0  0  0  0  0  0
  129.6150  122.7800   64.3170 N   0  0  0  0  0  0  0  0  0  0  0  0
  130.2600  123.2510   65.3670 C   0  0  0  0  0  0  0  0  0  0  0  0
  130.6140  124.5970   65.3190 C   0  0  0  0  0  0  0  0  0  0  0  0
  130.0680  125.2710   63.8130 S   0  0  0  0  0  0  0  0  0  0  0  0
  128.0550  122.2800   59.4100 S   0  0  0  0  0  0  0  0  0  0  0  0
  126.9840  122.6920   58.0900 C   0  0  0  0  0  0  0  0  0  0  0  0
  127.1860  122.2430   56.8510 N   0  0  0  0  0  0  0  0  0  0  0  0
  127.0060  121.1298   54.5693 H   0  0  0  0  0  0  0  0  0  0  0  0
  125.5727  122.0383   53.9803 H   0  0  0  0  0  0  0  0  0  0  0  0
  127.1917  122.8166   53.9803 H   0  0  0  0  0  0  0  0  0  0  0  0
  124.4948  123.7401   55.3966 H   0  0  0  0  0  0  0  0  0  0  0  0
  123.6294  124.9378   58.8386 H   0  0  0  0  0  0  0  0  0  0  0  0
  123.9578  125.8129   57.3047 H   0  0  0  0  0  0  0  0  0  0  0  0
  122.8856  124.3717   57.3047 H   0  0  0  0  0  0  0  0  0  0  0  0
  124.6400  125.4050   60.0860 H   0  0  0  0  0  0  0  0  0  0  0  0
  124.8370  124.4690   61.5160 H   0  0  0  0  0  0  0  0  0  0  0  0
  129.3900  123.7060   61.3640 H   0  0  0  0  0  0  0  0  0  0  0  0
  130.5044  122.6164   66.2316 H   0  0  0  0  0  0  0  0  0  0  0  0
  131.1520  125.1448   66.1067 H   0  0  0  0  0  0  0  0  0  0  0  0
  1  2  1  0
  2  3  2  0
  3  4  1  0
  4  5  1  0
  4  6  2  0
  6  7  1  0
  7  8  1  0
  7  9  2  0
  9 10  1  0
 10 11  2  0
 10 12  1  0
 12 13  1  0
 13 14  2  0
 14 15  1  0
 15 16  2  0
 16 17  1  0
  9 18  1  0
 18 19  1  0
 19 20  2  0
 20  2  1  0
 19  6  1  0
 17 13  1  0
  1 21  1  0
  1 22  1  0
  1 23  1  0
  3 24  1  0
  5 25  1  0
  5 26  1  0
  5 27  1  0
  8 28  1  0
  8 29  1  0
 12 30  1  0
 15 31  1  0
 16 32  1  0
M  END
>  <Binding energies>  (1) 
[-7.0]

>  <Ligand effiencies>  (1) 
[-0.30434782608695654]

>  <Interactions>  (1) 
["V-B:GLU:543:CG:9878, V-B:MET:535:CE:9806, V-B:ASP:366:CG:8184, V-B:LEU:363:CA:8156, V-B:LEU:363:CD1:8160, V-B:TYR:539:CD2:9845, V-B:PRO:540:CA:9854, V-B:TYR:539:CE2:9847, V-B:PRO:540:C:9852, V-B:ALA:541:CB:9863, V-B:PRO:540:N:9855, V-B:TYR:539:CE1:9846, V-B:PRO:540:CB:9856, H-B:TYR:539:N:9841, H-B:ALA:541:N:9862, V-B:TYR:539:C:9838, V-B:ILE:538:CA:9831, V-B:TYR:539:CD1:9844, V-B:ASP:366:CB:8183, V-A:TYR:484:CE1:4344, V-B:ILE:538:CD1:9836, V-A:TYR:484:CZ:4346, H-B:ASP:366:OD2:8186, V-B:ALA:541:CA:9861, V-B:TYR:531:CZ:9765, V-B:TYR:531:CE2:9764, H-B:GLU:543:OE2:9881, V-B:ILE:538:C:9829, V-B:VAL:537:C:9821"]

$$$$
4ak_Grossjean_2025
     RDKit          3D

 50 51  0  0  0  0  0  0  0  0999 V2000
  128.6250  124.2140   57.9690 C   0  0  0  0  0  0  0  0  0  0  0  0
  128.0930  123.0650   58.6110 O   0  0  0  0  0  0  0  0  0  0  0  0
  127.5950  122.0890   57.7040 C   0  0  0  0  0  0  0  0  0  0  0  0
  127.2850  122.7540   56.3570 C   0  0  0  0  0  0  0  0  0  0  0  0
  126.3700  121.9430   55.6310 O   0  0  0  0  0  0  0  0  0  0  0  0
  125.0330  122.4240   55.6550 C   0  0  0  0  0  0  0  0  0  0  0  0
  124.9720  123.7120   56.4840 C   0  0  0  0  0  0  0  0  0  0  0  0
  124.6940  123.3860   57.8400 O   0  0  0  0  0  0  0  0  0  0  0  0
  124.3450  124.5070   58.6410 C   0  0  0  0  0  0  0  0  0  0  0  0
  124.6220  124.1820   60.1200 C   0  0  0  0  0  0  0  0  0  0  0  0
  126.0420  124.0020   60.4240 N   0  0  0  0  0  0  0  0  0  0  0  0
  126.5360  123.5090   61.5770 C   0  0  0  0  0  0  0  0  0  0  0  0
  125.8110  123.1340   62.5000 O   0  0  0  0  0  0  0  0  0  0  0  0
  127.9930  123.4340   61.6730 C   0  0  0  0  0  0  0  0  0  0  0  0
  128.9070  124.7590   62.3940 S   0  0  0  0  0  0  0  0  0  0  0  0
  130.4180  123.9160   62.1390 C   0  0  0  0  0  0  0  0  0  0  0  0
  131.5890  124.4430   62.4990 N   0  0  0  0  0  0  0  0  0  0  0  0
  132.6850  123.6870   62.2430 C   0  0  0  0  0  0  0  0  0  0  0  0
  134.0080  124.3030   62.6600 C   0  0  0  0  0  0  0  0  0  0  0  0
  132.6370  122.4300   61.6440 C   0  0  0  0  0  0  0  0  0  0  0  0
  131.4060  121.8790   61.2680 C   0  0  0  0  0  0  0  0  0  0  0  0
  131.4050  120.5070   60.6130 C   0  0  0  0  0  0  0  0  0  0  0  0
  130.2350  122.6430   61.5190 C   0  0  0  0  0  0  0  0  0  0  0  0
  128.8410  122.3910   61.2690 C   0  0  0  0  0  0  0  0  0  0  0  0
  128.3990  121.2320   60.6850 N   0  0  0  0  0  0  0  0  0  0  0  0
  128.9595  124.9364   58.7282 H   0  0  0  0  0  0  0  0  0  0  0  0
  129.4789  123.9206   57.3407 H   0  0  0  0  0  0  0  0  0  0  0  0
  127.8489  124.6753   57.3407 H   0  0  0  0  0  0  0  0  0  0  0  0
  128.3510  121.3031   57.5596 H   0  0  0  0  0  0  0  0  0  0  0  0
  126.6763  121.6433   58.1130 H   0  0  0  0  0  0  0  0  0  0  0  0
  126.8399  123.7449   56.5304 H   0  0  0  0  0  0  0  0  0  0  0  0
  128.2146  122.8673   55.7799 H   0  0  0  0  0  0  0  0  0  0  0  0
  124.6990  122.6321   54.6278 H   0  0  0  0  0  0  0  0  0  0  0  0
  124.3766  121.6648   56.1054 H   0  0  0  0  0  0  0  0  0  0  0  0
  125.9380  124.2346   56.4224 H   0  0  0  0  0  0  0  0  0  0  0  0
  124.1783  124.3650   56.0920 H   0  0  0  0  0  0  0  0  0  0  0  0
  124.9458  125.3769   58.3372 H   0  0  0  0  0  0  0  0  0  0  0  0
  123.2775  124.7366   58.5080 H   0  0  0  0  0  0  0  0  0  0  0  0
  124.2365  125.0080   60.7357 H   0  0  0  0  0  0  0  0  0  0  0  0
  124.1214  123.2275   60.3399 H   0  0  0  0  0  0  0  0  0  0  0  0
  126.6920  124.2860   59.7040 H   0  0  0  0  0  0  0  0  0  0  0  0
  134.0693  124.3315   63.7579 H   0  0  0  0  0  0  0  0  0  0  0  0
  134.8359  123.6977   62.2621 H   0  0  0  0  0  0  0  0  0  0  0  0
  134.0777  125.3262   62.2621 H   0  0  0  0  0  0  0  0  0  0  0  0
  133.5670  121.8700   61.4663 H   0  0  0  0  0  0  0  0  0  0  0  0
  131.4044  119.7293   61.3909 H   0  0  0  0  0  0  0  0  0  0  0  0
  130.5068  120.4002   59.9871 H   0  0  0  0  0  0  0  0  0  0  0  0
  132.3031  120.3989   59.9871 H   0  0  0  0  0  0  0  0  0  0  0  0
  128.4460  120.3420   61.1620 H   0  0  0  0  0  0  0  0  0  0  0  0
  128.0050  121.2300   59.7550 H   0  0  0  0  0  0  0  0  0  0  0  0
  1  2  1  0
  2  3  1  0
  3  4  1  0
  4  5  1  0
  5  6  1  0
  6  7  1  0
  7  8  1  0
  8  9  1  0
  9 10  1  0
 10 11  1  0
 11 12  1  0
 12 13  2  0
 12 14  1  0
 14 15  1  0
 15 16  1  0
 16 17  2  0
 17 18  1  0
 18 19  1  0
 18 20  2  0
 20 21  1  0
 21 22  1  0
 21 23  2  0
 23 24  1  0
 24 25  1  0
 24 14  2  0
 23 16  1  0
  1 26  1  0
  1 27  1  0
  1 28  1  0
  3 29  1  0
  3 30  1  0
  4 31  1  0
  4 32  1  0
  6 33  1  0
  6 34  1  0
  7 35  1  0
  7 36  1  0
  9 37  1  0
  9 38  1  0
 10 39  1  0
 10 40  1  0
 11 41  1  0
 19 42  1  0
 19 43  1  0
 19 44  1  0
 20 45  1  0
 22 46  1  0
 22 47  1  0
 22 48  1  0
 25 49  1  0
 25 50  1  0
M  END
>  <Binding energies>  (1) 
[-5.82]

>  <Ligand effiencies>  (1) 
[-0.20785714285714288]

>  <Interactions>  (1) 
["V-B:MET:535:CE:9806, V-B:LEU:363:CA:8156, V-B:LEU:363:CD1:8160, V-A:TRP:381:CH2:3371, V-B:TYR:539:CD2:9845, V-B:PRO:540:CA:9854, V-B:TYR:539:CE2:9847, V-B:PRO:540:C:9852, V-B:ALA:541:CB:9863, V-B:PRO:540:N:9855, V-A:LEU:475:CD2:4258, V-B:TYR:539:CE1:9846, V-B:PRO:540:CB:9856, H-B:TYR:539:N:9841, H-B:ALA:541:N:9862, V-A:ILE:369:CG2:3236, V-B:TYR:539:CZ:9848, V-B:TYR:539:C:9838, V-B:PRO:540:CD:9858, V-B:TYR:539:CD1:9844, V-B:ILE:538:CG2:9834, V-B:ILE:538:CD1:9836, V-B:TYR:539:CA:9840, V-B:TYR:539:CG:9843, V-A:ILE:369:CD1:3238, V-B:ALA:541:CA:9861, H-B:TYR:539:O:9839"]

$$$$
4al_Grossjean_2025
     RDKit          3D

 28 29  0  0  0  0  0  0  0  0999 V2000
  129.5770  123.9330   63.0910 C   0  0  0  0  0  0  0  0  0  0  0  0
  129.0050  123.2820   61.9670 O   0  0  0  0  0  0  0  0  0  0  0  0
  127.6570  123.1770   61.8340 C   0  0  0  0  0  0  0  0  0  0  0  0
  126.8720  123.1240   62.7840 O   0  0  0  0  0  0  0  0  0  0  0  0
  127.2190  123.1320   60.4220 C   0  0  0  0  0  0  0  0  0  0  0  0
  128.1300  122.1800   59.2470 S   0  0  0  0  0  0  0  0  0  0  0  0
  127.0340  122.6400   57.9640 C   0  0  0  0  0  0  0  0  0  0  0  0
  127.1930  122.2080   56.7130 N   0  0  0  0  0  0  0  0  0  0  0  0
  126.2750  122.6390   55.8120 C   0  0  0  0  0  0  0  0  0  0  0  0
  126.4740  122.1360   54.3940 C   0  0  0  0  0  0  0  0  0  0  0  0
  125.2130  123.4820   56.1320 C   0  0  0  0  0  0  0  0  0  0  0  0
  125.0490  123.9340   57.4460 C   0  0  0  0  0  0  0  0  0  0  0  0
  123.8760  124.8530   57.7470 C   0  0  0  0  0  0  0  0  0  0  0  0
  125.9930  123.5030   58.4170 C   0  0  0  0  0  0  0  0  0  0  0  0
  126.1240  123.7660   59.8230 C   0  0  0  0  0  0  0  0  0  0  0  0
  125.2490  124.5690   60.5100 N   0  0  0  0  0  0  0  0  0  0  0  0
  129.1827  123.4842   64.0146 H   0  0  0  0  0  0  0  0  0  0  0  0
  130.6705  123.8169   63.0648 H   0  0  0  0  0  0  0  0  0  0  0  0
  129.3211  125.0025   63.0648 H   0  0  0  0  0  0  0  0  0  0  0  0
  126.8785  121.1134   54.4211 H   0  0  0  0  0  0  0  0  0  0  0  0
  125.5087  122.1346   53.8666 H   0  0  0  0  0  0  0  0  0  0  0  0
  127.1790  122.7954   53.8666 H   0  0  0  0  0  0  0  0  0  0  0  0
  124.5030  123.7924   55.3512 H   0  0  0  0  0  0  0  0  0  0  0  0
  123.7547  124.9480   58.8362 H   0  0  0  0  0  0  0  0  0  0  0  0
  124.0662  125.8450   57.3113 H   0  0  0  0  0  0  0  0  0  0  0  0
  122.9584  124.4310   57.3113 H   0  0  0  0  0  0  0  0  0  0  0  0
  125.0060  124.3920   61.4740 H   0  0  0  0  0  0  0  0  0  0  0  0
  124.8160  125.3700   60.0700 H   0  0  0  0  0  0  0  0  0  0  0  0
  1  2  1  0
  2  3  1  0
  3  4  2  0
  3  5  1  0
  5  6  1  0
  6  7  1  0
  7  8  2  0
  8  9  1  0
  9 10  1  0
  9 11  2  0
 11 12  1  0
 12 13  1  0
 12 14  2  0
 14 15  1  0
 15 16  1  0
 15  5  2  0
 14  7  1  0
  1 17  1  0
  1 18  1  0
  1 19  1  0
 10 20  1  0
 10 21  1  0
 10 22  1  0
 11 23  1  0
 13 24  1  0
 13 25  1  0
 13 26  1  0
 16 27  1  0
 16 28  1  0
M  END
>  <Binding energies>  (1) 
[-6.02]

>  <Ligand effiencies>  (1) 
[-0.33444444444444443]

>  <Interactions>  (1) 
["V-B:MET:535:CE:9806, V-B:LEU:363:CA:8156, V-B:LEU:363:CD1:8160, V-B:TYR:539:CD2:9845, V-B:PRO:540:CA:9854, V-B:TYR:539:CE2:9847, V-B:PRO:540:C:9852, V-B:ALA:541:CB:9863, V-B:PRO:540:N:9855, V-B:TYR:539:CE1:9846, V-B:PRO:540:CB:9856, H-B:TYR:539:N:9841, H-B:ALA:541:N:9862, V-B:TYR:539:C:9838, V-B:ILE:538:CA:9831, V-B:TYR:539:CD1:9844, V-B:ASP:366:CB:8183, V-B:ILE:538:CD1:9836, H-B:ASP:366:OD2:8186, V-B:ALA:541:CA:9861, V-B:TYR:531:CZ:9765, V-B:TYR:531:CE2:9764, H-B:GLU:543:OE2:9881, V-B:ILE:538:C:9829, V-B:VAL:537:C:9821"]

$$$$
4ba_Grossjean_2025
     RDKit          3D

 44 46  0  0  0  0  0  0  0  0999 V2000
  124.6280  124.1860   56.9880 C   0  0  0  0  0  0  0  0  0  0  0  0
  125.0190  123.1810   55.8880 C   0  0  0  0  0  0  0  0  0  0  0  0
  126.4760  122.6770   55.9500 C   0  0  0  0  0  0  0  0  0  0  0  0
  126.9220  121.9930   55.0260 O   0  0  0  0  0  0  0  0  0  0  0  0
  127.2950  123.0550   57.1500 C   0  0  0  0  0  0  0  0  0  0  0  0
  127.2780  122.2300   58.2820 C   0  0  0  0  0  0  0  0  0  0  0  0
  128.0260  122.5570   59.4090 C   0  0  0  0  0  0  0  0  0  0  0  0
  128.8090  123.7120   59.4270 C   0  0  0  0  0  0  0  0  0  0  0  0
  129.5180  123.9520   60.6200 N   0  0  0  0  0  0  0  0  0  0  0  0
  129.7590  123.1300   61.6710 C   0  0  0  0  0  0  0  0  0  0  0  0
  129.3270  121.9800   61.7640 O   0  0  0  0  0  0  0  0  0  0  0  0
  130.5700  123.7090   62.7440 C   0  0  0  0  0  0  0  0  0  0  0  0
  132.3060  123.4120   62.8010 S   0  0  0  0  0  0  0  0  0  0  0  0
  132.4620  124.3320   64.2790 C   0  0  0  0  0  0  0  0  0  0  0  0
  133.6410  124.4870   64.8790 N   0  0  0  0  0  0  0  0  0  0  0  0
  133.6370  125.2180   66.0170 C   0  0  0  0  0  0  0  0  0  0  0  0
  134.9900  125.3750   66.6890 C   0  0  0  0  0  0  0  0  0  0  0  0
  132.4940  125.7960   66.5610 C   0  0  0  0  0  0  0  0  0  0  0  0
  131.2480  125.6370   65.9340 C   0  0  0  0  0  0  0  0  0  0  0  0
  130.0180  126.2940   66.5690 C   0  0  0  0  0  0  0  0  0  0  0  0
  129.3860  127.1290   65.7410 F   0  0  0  0  0  0  0  0  0  0  0  0
  129.1430  125.3570   66.9360 F   0  0  0  0  0  0  0  0  0  0  0  0
  130.3860  126.9970   67.6410 F   0  0  0  0  0  0  0  0  0  0  0  0
  131.2170  124.8650   64.7330 C   0  0  0  0  0  0  0  0  0  0  0  0
  130.1520  124.4840   63.8390 C   0  0  0  0  0  0  0  0  0  0  0  0
  128.8460  124.8510   64.0440 N   0  0  0  0  0  0  0  0  0  0  0  0
  128.8270  124.5470   58.3000 C   0  0  0  0  0  0  0  0  0  0  0  0
  128.0770  124.2190   57.1740 C   0  0  0  0  0  0  0  0  0  0  0  0
  124.8034  123.7350   57.9759 H   0  0  0  0  0  0  0  0  0  0  0  0
  125.2377  125.0960   56.8868 H   0  0  0  0  0  0  0  0  0  0  0  0
  123.5636  124.4447   56.8868 H   0  0  0  0  0  0  0  0  0  0  0  0
  124.3531  122.3094   55.9704 H   0  0  0  0  0  0  0  0  0  0  0  0
  124.9210  123.7183   54.9332 H   0  0  0  0  0  0  0  0  0  0  0  0
  126.6675  121.3149   58.2800 H   0  0  0  0  0  0  0  0  0  0  0  0
  127.9999  121.9008   60.2914 H   0  0  0  0  0  0  0  0  0  0  0  0
  129.8870  124.8870   60.6980 H   0  0  0  0  0  0  0  0  0  0  0  0
  134.8608  125.3600   67.7813 H   0  0  0  0  0  0  0  0  0  0  0  0
  135.6481  124.5472   66.3862 H   0  0  0  0  0  0  0  0  0  0  0  0
  135.4410  126.3315   66.3862 H   0  0  0  0  0  0  0  0  0  0  0  0
  132.5673  126.3818   67.4891 H   0  0  0  0  0  0  0  0  0  0  0  0
  128.0750  124.2580   63.7720 H   0  0  0  0  0  0  0  0  0  0  0  0
  128.6100  125.7360   64.4710 H   0  0  0  0  0  0  0  0  0  0  0  0
  129.4354  125.4634   58.3060 H   0  0  0  0  0  0  0  0  0  0  0  0
  128.0979  124.8793   56.2944 H   0  0  0  0  0  0  0  0  0  0  0  0
  1  2  1  0
  2  3  1  0
  3  4  2  0
  3  5  1  0
  5  6  2  0
  6  7  1  0
  7  8  2  0
  8  9  1  0
  9 10  1  0
 10 11  2  0
 10 12  1  0
 12 13  1  0
 13 14  1  0
 14 15  2  0
 15 16  1  0
 16 17  1  0
 16 18  2  0
 18 19  1  0
 19 20  1  0
 20 21  1  0
 20 22  1  0
 20 23  1  0
 19 24  2  0
 24 25  1  0
 25 26  1  0
  8 27  1  0
 27 28  2  0
 28  5  1  0
 25 12  2  0
 24 14  1  0
  1 29  1  0
  1 30  1  0
  1 31  1  0
  2 32  1  0
  2 33  1  0
  6 34  1  0
  7 35  1  0
  9 36  1  0
 17 37  1  0
 17 38  1  0
 17 39  1  0
 18 40  1  0
 26 41  1  0
 26 42  1  0
 27 43  1  0
 28 44  1  0
M  END
>  <Binding energies>  (1) 
[-7.5]

>  <Ligand effiencies>  (1) 
[-0.24193548387096775]

>  <Interactions>  (1) 
["V-A:HIS:456:CE1:4069, V-B:GLU:543:CD:9879, V-A:GLU:543:CD:4908, V-B:GLU:543:CB:9877, V-B:GLU:543:CG:9878, V-B:MET:535:CE:9806, V-B:LEU:363:CD1:8160, V-B:TYR:539:CD2:9845, V-B:PRO:540:CA:9854, V-B:TYR:539:CE2:9847, V-B:PRO:540:N:9855, V-B:TYR:539:CE1:9846, V-B:PRO:540:CB:9856, H-B:TYR:539:N:9841, H-B:ALA:541:N:9862, V-B:TYR:539:CZ:9848, V-B:TYR:539:C:9838, V-B:PRO:540:CD:9858, V-A:ARG:545:CZ:4926, V-B:TYR:539:CD1:9844, H-A:GLY:454:N:4049, H-A:TYR:484:OH:4347, V-B:TYR:539:CG:9843, V-A:GLY:454:CA:4048, V-B:TYR:531:CZ:9765, V-B:TYR:531:CE2:9764, V-A:ARG:545:CD:4923, V-A:ILE:455:C:4051, V-A:ARG:545:CG:4922, H-B:GLU:543:OE1:9880, H-B:GLU:543:OE2:9881, V-A:GLY:453:C:4041, V-A:GLY:453:CA:4043"]

$$$$
4bb_Grossjean_2025
     RDKit          3D

 41 43  0  0  0  0  0  0  0  0999 V2000
  127.2350  122.8330   54.3460 C   0  0  0  0  0  0  0  0  0  0  0  0
  126.6890  122.4360   55.7200 C   0  0  0  0  0  0  0  0  0  0  0  0
  125.6270  121.8130   55.7640 O   0  0  0  0  0  0  0  0  0  0  0  0
  127.4690  122.8350   56.9370 C   0  0  0  0  0  0  0  0  0  0  0  0
  127.3770  122.0570   58.0970 C   0  0  0  0  0  0  0  0  0  0  0  0
  128.0900  122.4060   59.2410 C   0  0  0  0  0  0  0  0  0  0  0  0
  128.9130  123.5330   59.2440 C   0  0  0  0  0  0  0  0  0  0  0  0
  129.5860  123.7950   60.4540 N   0  0  0  0  0  0  0  0  0  0  0  0
  129.7170  123.0260   61.5630 C   0  0  0  0  0  0  0  0  0  0  0  0
  129.2060  121.9140   61.6970 O   0  0  0  0  0  0  0  0  0  0  0  0
  130.5020  123.6220   62.6470 C   0  0  0  0  0  0  0  0  0  0  0  0
  132.2250  123.2810   62.7860 S   0  0  0  0  0  0  0  0  0  0  0  0
  132.3500  124.2570   64.2310 C   0  0  0  0  0  0  0  0  0  0  0  0
  133.5100  124.4120   64.8670 N   0  0  0  0  0  0  0  0  0  0  0  0
  133.4820  125.1900   65.9730 C   0  0  0  0  0  0  0  0  0  0  0  0
  134.8140  125.3550   66.6820 C   0  0  0  0  0  0  0  0  0  0  0  0
  132.3320  125.8110   66.4540 C   0  0  0  0  0  0  0  0  0  0  0  0
  131.1070  125.6510   65.7880 C   0  0  0  0  0  0  0  0  0  0  0  0
  129.8690  126.3540   66.3550 C   0  0  0  0  0  0  0  0  0  0  0  0
  128.9140  125.5020   66.7370 F   0  0  0  0  0  0  0  0  0  0  0  0
  130.2100  127.0760   67.4230 F   0  0  0  0  0  0  0  0  0  0  0  0
  129.3410  127.1560   65.4310 F   0  0  0  0  0  0  0  0  0  0  0  0
  131.1020  124.8360   64.6160 C   0  0  0  0  0  0  0  0  0  0  0  0
  130.0630  124.4500   63.6940 C   0  0  0  0  0  0  0  0  0  0  0  0
  128.7630  124.8650   63.8270 N   0  0  0  0  0  0  0  0  0  0  0  0
  129.0050  124.3220   58.0870 C   0  0  0  0  0  0  0  0  0  0  0  0
  128.2890  123.9720   56.9450 C   0  0  0  0  0  0  0  0  0  0  0  0
  128.1186  123.4755   54.4742 H   0  0  0  0  0  0  0  0  0  0  0  0
  127.5175  121.9280   53.7882 H   0  0  0  0  0  0  0  0  0  0  0  0
  126.4612  123.3808   53.7882 H   0  0  0  0  0  0  0  0  0  0  0  0
  126.7364  121.1628   58.1049 H   0  0  0  0  0  0  0  0  0  0  0  0
  128.0040  121.7896   60.1480 H   0  0  0  0  0  0  0  0  0  0  0  0
  130.0150  124.7080   60.4980 H   0  0  0  0  0  0  0  0  0  0  0  0
  134.6550  125.3353   67.7703 H   0  0  0  0  0  0  0  0  0  0  0  0
  135.4865  124.5333   66.3948 H   0  0  0  0  0  0  0  0  0  0  0  0
  135.2657  126.3160   66.3948 H   0  0  0  0  0  0  0  0  0  0  0  0
  132.3841  126.4306   67.3614 H   0  0  0  0  0  0  0  0  0  0  0  0
  127.9880  124.2170   63.7930 H   0  0  0  0  0  0  0  0  0  0  0  0
  128.5330  125.8400   63.9650 H   0  0  0  0  0  0  0  0  0  0  0  0
  129.6433  125.2178   58.0822 H   0  0  0  0  0  0  0  0  0  0  0  0
  128.3676  124.5935   56.0408 H   0  0  0  0  0  0  0  0  0  0  0  0
  1  2  1  0
  2  3  2  0
  2  4  1  0
  4  5  2  0
  5  6  1  0
  6  7  2  0
  7  8  1  0
  8  9  1  0
  9 10  2  0
  9 11  1  0
 11 12  1  0
 12 13  1  0
 13 14  2  0
 14 15  1  0
 15 16  1  0
 15 17  2  0
 17 18  1  0
 18 19  1  0
 19 20  1  0
 19 21  1  0
 19 22  1  0
 18 23  2  0
 23 24  1  0
 24 25  1  0
  7 26  1  0
 26 27  2  0
 27  4  1  0
 24 11  2  0
 23 13  1  0
  1 28  1  0
  1 29  1  0
  1 30  1  0
  5 31  1  0
  6 32  1  0
  8 33  1  0
 16 34  1  0
 16 35  1  0
 16 36  1  0
 17 37  1  0
 25 38  1  0
 25 39  1  0
 26 40  1  0
 27 41  1  0
M  END
>  <Binding energies>  (1) 
[-7.47]

>  <Ligand effiencies>  (1) 
[-0.249]

>  <Interactions>  (1) 
["V-A:HIS:456:CE1:4069, V-B:GLU:543:CD:9879, V-A:GLU:543:CD:4908, V-B:GLU:543:CB:9877, V-B:GLU:543:CG:9878, V-B:MET:535:CE:9806, V-B:TYR:539:CD2:9845, V-B:PRO:540:CA:9854, V-B:TYR:539:CE2:9847, V-B:PRO:540:N:9855, V-B:TYR:539:CE1:9846, V-B:PRO:540:CB:9856, H-B:TYR:539:N:9841, H-B:ALA:541:N:9862, V-B:TYR:539:CZ:9848, V-B:TYR:539:C:9838, V-B:PRO:540:CD:9858, V-A:ARG:545:CZ:4926, V-B:TYR:539:CD1:9844, H-A:GLY:454:N:4049, H-A:TYR:484:OH:4347, V-B:TYR:539:CA:9840, V-B:TYR:539:CG:9843, V-A:GLY:454:CA:4048, V-A:ARG:545:CD:4923, V-A:ILE:455:C:4051, V-A:ARG:545:CG:4922, H-B:GLU:543:OE1:9880, H-B:GLU:543:OE2:9881, V-A:GLY:453:C:4041, V-A:GLY:453:CA:4043, V-B:MET:535:CB:9803"]

$$$$
4bc_Grossjean_2025
     RDKit          3D

 40 42  0  0  0  0  0  0  0  0999 V2000
  126.1270  122.4020   55.3690 C   0  0  0  0  0  0  0  0  0  0  0  0
  125.5930  122.2990   56.6850 O   0  0  0  0  0  0  0  0  0  0  0  0
  126.3460  122.7470   57.7540 C   0  0  0  0  0  0  0  0  0  0  0  0
  127.6810  122.3460   57.7860 C   0  0  0  0  0  0  0  0  0  0  0  0
  128.5170  122.7480   58.8250 C   0  0  0  0  0  0  0  0  0  0  0  0
  128.0280  123.5660   59.8440 C   0  0  0  0  0  0  0  0  0  0  0  0
  128.9410  123.9080   60.8590 N   0  0  0  0  0  0  0  0  0  0  0  0
  130.1270  124.5560   60.7610 C   0  0  0  0  0  0  0  0  0  0  0  0
  130.6200  124.9310   59.6960 O   0  0  0  0  0  0  0  0  0  0  0  0
  130.8230  124.7910   62.0300 C   0  0  0  0  0  0  0  0  0  0  0  0
  132.5570  124.5070   62.1570 S   0  0  0  0  0  0  0  0  0  0  0  0
  132.5580  124.9840   63.8390 C   0  0  0  0  0  0  0  0  0  0  0  0
  133.6790  124.9850   64.5600 N   0  0  0  0  0  0  0  0  0  0  0  0
  133.5550  125.3720   65.8500 C   0  0  0  0  0  0  0  0  0  0  0  0
  134.8430  125.3710   66.6530 C   0  0  0  0  0  0  0  0  0  0  0  0
  132.3480  125.7540   66.4310 C   0  0  0  0  0  0  0  0  0  0  0  0
  131.1640  125.7550   65.6760 C   0  0  0  0  0  0  0  0  0  0  0  0
  129.8600  126.1810   66.3610 C   0  0  0  0  0  0  0  0  0  0  0  0
  130.0630  126.8580   67.4930 F   0  0  0  0  0  0  0  0  0  0  0  0
  129.1610  126.9680   65.5440 F   0  0  0  0  0  0  0  0  0  0  0  0
  129.1360  125.1040   66.6630 F   0  0  0  0  0  0  0  0  0  0  0  0
  131.2610  125.3530   64.3110 C   0  0  0  0  0  0  0  0  0  0  0  0
  130.2900  125.2350   63.2510 C   0  0  0  0  0  0  0  0  0  0  0  0
  128.9620  125.5320   63.4270 N   0  0  0  0  0  0  0  0  0  0  0  0
  126.6820  123.9620   59.8260 C   0  0  0  0  0  0  0  0  0  0  0  0
  125.8490  123.5580   58.7870 C   0  0  0  0  0  0  0  0  0  0  0  0
  127.2056  122.6101   55.4262 H   0  0  0  0  0  0  0  0  0  0  0  0
  125.9640  121.4559   54.8321 H   0  0  0  0  0  0  0  0  0  0  0  0
  125.6238  123.2196   54.8321 H   0  0  0  0  0  0  0  0  0  0  0  0
  128.0775  121.7065   56.9836 H   0  0  0  0  0  0  0  0  0  0  0  0
  129.5666  122.4194   58.8422 H   0  0  0  0  0  0  0  0  0  0  0  0
  128.6780  123.5940   61.7810 H   0  0  0  0  0  0  0  0  0  0  0  0
  134.6055  125.3712   67.7270 H   0  0  0  0  0  0  0  0  0  0  0  0
  135.4278  124.4724   66.4070 H   0  0  0  0  0  0  0  0  0  0  0  0
  135.4292  126.2687   66.4070 H   0  0  0  0  0  0  0  0  0  0  0  0
  132.3222  126.0569   67.4882 H   0  0  0  0  0  0  0  0  0  0  0  0
  128.5790  126.4330   63.1830 H   0  0  0  0  0  0  0  0  0  0  0  0
  128.3190  124.8510   63.8080 H   0  0  0  0  0  0  0  0  0  0  0  0
  126.2845  124.5929   60.6346 H   0  0  0  0  0  0  0  0  0  0  0  0
  124.7959  123.8756   58.7749 H   0  0  0  0  0  0  0  0  0  0  0  0
  1  2  1  0
  2  3  1  0
  3  4  2  0
  4  5  1  0
  5  6  2  0
  6  7  1  0
  7  8  1  0
  8  9  2  0
  8 10  1  0
 10 11  1  0
 11 12  1  0
 12 13  2  0
 13 14  1  0
 14 15  1  0
 14 16  2  0
 16 17  1  0
 17 18  1  0
 18 19  1  0
 18 20  1  0
 18 21  1  0
 17 22  2  0
 22 23  1  0
 23 24  1  0
  6 25  1  0
 25 26  2  0
 26  3  1  0
 23 10  2  0
 22 12  1  0
  1 27  1  0
  1 28  1  0
  1 29  1  0
  4 30  1  0
  5 31  1  0
  7 32  1  0
 15 33  1  0
 15 34  1  0
 15 35  1  0
 16 36  1  0
 24 37  1  0
 24 38  1  0
 25 39  1  0
 26 40  1  0
M  END
>  <Binding energies>  (1) 
[-6.28]

>  <Ligand effiencies>  (1) 
[-0.21655172413793106]

>  <Interactions>  (1) 
["V-A:HIS:456:CE1:4069, V-B:GLU:543:CD:9879, V-A:GLU:543:CD:4908, V-B:GLU:543:CB:9877, V-B:GLU:543:CG:9878, V-B:GLU:543:CA:9875, V-B:MET:535:CE:9806, V-B:TYR:539:CD2:9845, V-B:PRO:540:CA:9854, V-B:TYR:539:CE2:9847, V-B:PRO:540:N:9855, V-B:TYR:539:CE1:9846, V-B:PRO:540:CB:9856, H-B:TYR:539:N:9841, V-B:TYR:539:CZ:9848, V-B:TYR:539:C:9838, V-B:PRO:540:CD:9858, V-A:ARG:545:CZ:4926, V-B:ILE:538:CA:9831, V-B:TYR:539:CD1:9844, H-A:GLY:454:N:4049, V-B:ILE:538:CD1:9836, V-B:TYR:539:CG:9843, V-A:GLY:454:CA:4048, V-A:ARG:545:CD:4923, V-A:ILE:455:C:4051, V-A:ARG:545:CG:4922, H-B:GLU:543:OE2:9881, V-A:GLY:453:C:4041, V-A:GLY:453:CA:4043"]

$$$$
4bd_Grossjean_2025
     RDKit          3D

 36 38  0  0  0  0  0  0  0  0999 V2000
  126.7870  122.0000   54.7730 C   0  0  0  0  0  0  0  0  0  0  0  0
  126.7430  123.2360   55.6540 C   0  0  0  0  0  0  0  0  0  0  0  0
  125.7430  123.4020   56.6090 C   0  0  0  0  0  0  0  0  0  0  0  0
  125.7130  124.5510   57.4150 C   0  0  0  0  0  0  0  0  0  0  0  0
  124.5910  124.6910   58.4500 C   0  0  0  0  0  0  0  0  0  0  0  0
  123.7530  125.6940   58.1780 F   0  0  0  0  0  0  0  0  0  0  0  0
  123.8720  123.5700   58.4910 F   0  0  0  0  0  0  0  0  0  0  0  0
  125.1150  124.9230   59.6530 F   0  0  0  0  0  0  0  0  0  0  0  0
  126.7410  125.5190   57.2100 C   0  0  0  0  0  0  0  0  0  0  0  0
  127.0310  126.7890   57.8300 C   0  0  0  0  0  0  0  0  0  0  0  0
  126.2650  127.3100   58.8400 N   0  0  0  0  0  0  0  0  0  0  0  0
  128.1630  127.4370   57.3080 C   0  0  0  0  0  0  0  0  0  0  0  0
  128.7280  128.7350   57.6880 C   0  0  0  0  0  0  0  0  0  0  0  0
  128.1940  129.4220   58.5600 O   0  0  0  0  0  0  0  0  0  0  0  0
  129.8570  129.0930   57.0280 N   0  0  0  0  0  0  0  0  0  0  0  0
  130.6140  130.2760   57.1250 C   0  0  0  0  0  0  0  0  0  0  0  0
  130.0170  131.4290   56.6070 C   0  0  0  0  0  0  0  0  0  0  0  0
  130.6820  132.6510   56.6650 C   0  0  0  0  0  0  0  0  0  0  0  0
  131.9420  132.7230   57.2510 C   0  0  0  0  0  0  0  0  0  0  0  0
  132.5420  131.5850   57.7840 C   0  0  0  0  0  0  0  0  0  0  0  0
  131.8810  130.3610   57.7270 C   0  0  0  0  0  0  0  0  0  0  0  0
  128.9100  126.4840   56.0290 S   0  0  0  0  0  0  0  0  0  0  0  0
  127.7060  125.2280   56.1980 C   0  0  0  0  0  0  0  0  0  0  0  0
  127.7300  124.1350   55.4360 N   0  0  0  0  0  0  0  0  0  0  0  0
  126.8190  121.1002   55.4050 H   0  0  0  0  0  0  0  0  0  0  0  0
  125.8893  121.9703   54.1379 H   0  0  0  0  0  0  0  0  0  0  0  0
  127.6845  122.0342   54.1379 H   0  0  0  0  0  0  0  0  0  0  0  0
  124.9716  122.6277   56.7326 H   0  0  0  0  0  0  0  0  0  0  0  0
  125.4020  126.8760   59.1370 H   0  0  0  0  0  0  0  0  0  0  0  0
  126.5420  128.1500   59.3300 H   0  0  0  0  0  0  0  0  0  0  0  0
  130.2290  128.4130   56.3810 H   0  0  0  0  0  0  0  0  0  0  0  0
  129.0174  131.3707   56.1515 H   0  0  0  0  0  0  0  0  0  0  0  0
  130.2134  133.5553   56.2495 H   0  0  0  0  0  0  0  0  0  0  0  0
  132.4689  133.6876   57.2936 H   0  0  0  0  0  0  0  0  0  0  0  0
  133.5364  131.6530   58.2492 H   0  0  0  0  0  0  0  0  0  0  0  0
  132.3499  129.4616   58.1526 H   0  0  0  0  0  0  0  0  0  0  0  0
  1  2  1  0
  2  3  2  0
  3  4  1  0
  4  5  1  0
  5  6  1  0
  5  7  1  0
  5  8  1  0
  4  9  2  0
  9 10  1  0
 10 11  1  0
 10 12  2  0
 12 13  1  0
 13 14  2  0
 13 15  1  0
 15 16  1  0
 16 17  2  0
 17 18  1  0
 18 19  2  0
 19 20  1  0
 20 21  2  0
 12 22  1  0
 22 23  1  0
 23 24  2  0
 24  2  1  0
 23  9  1  0
 21 16  1  0
  1 25  1  0
  1 26  1  0
  1 27  1  0
  3 28  1  0
 11 29  1  0
 11 30  1  0
 15 31  1  0
 17 32  1  0
 18 33  1  0
 19 34  1  0
 20 35  1  0
 21 36  1  0
M  END
>  <Binding energies>  (1) 
[-6.54]

>  <Ligand effiencies>  (1) 
[-0.24222222222222223]

>  <Interactions>  (1) 
["V-B:MET:535:CE:9806, V-B:ASP:366:CG:8184, V-B:LEU:363:CA:8156, V-B:LEU:363:CD1:8160, V-B:PRO:540:CA:9854, V-B:TYR:539:CE1:9846, V-B:PRO:540:CB:9856, V-B:ILE:538:CA:9831, V-A:TYR:539:C:4867, H-A:TYR:531:OH:4795, H-B:TYR:531:OH:9766, V-A:PRO:540:N:4884, V-A:MET:535:CE:4835, V-B:TYR:539:CD1:9844, V-B:ASP:366:CB:8183, V-A:PRO:540:CB:4885, V-A:LEU:363:CD1:3188, V-A:TYR:531:CE2:4793, V-A:PRO:540:CA:4883, V-B:ILE:538:CD1:9836, H-B:ASP:366:OD2:8186, V-B:TYR:531:CZ:9765, V-B:TYR:531:CE2:9764, V-A:PRO:540:CD:4887, V-B:ILE:538:C:9829, V-B:LEU:363:CB:8158"]

$$$$
4be_Grossjean_2025
     RDKit          3D

 38 40  0  0  0  0  0  0  0  0999 V2000
  133.6890  131.3860   58.8970 C   0  0  0  0  0  0  0  0  0  0  0  0
  132.4610  131.4360   58.0070 C   0  0  0  0  0  0  0  0  0  0  0  0
  132.0860  132.6080   57.3450 C   0  0  0  0  0  0  0  0  0  0  0  0
  130.9430  132.5810   56.5450 C   0  0  0  0  0  0  0  0  0  0  0  0
  130.2110  131.3980   56.4280 C   0  0  0  0  0  0  0  0  0  0  0  0
  130.6460  130.2580   57.1130 C   0  0  0  0  0  0  0  0  0  0  0  0
  129.8610  129.1010   56.9590 N   0  0  0  0  0  0  0  0  0  0  0  0
  128.7010  128.7700   57.5780 C   0  0  0  0  0  0  0  0  0  0  0  0
  128.1380  129.4850   58.4090 O   0  0  0  0  0  0  0  0  0  0  0  0
  128.1430  127.4640   57.2140 C   0  0  0  0  0  0  0  0  0  0  0  0
  128.8970  126.5040   55.9420 S   0  0  0  0  0  0  0  0  0  0  0  0
  127.6940  125.2480   56.1150 C   0  0  0  0  0  0  0  0  0  0  0  0
  127.7240  124.1490   55.3640 N   0  0  0  0  0  0  0  0  0  0  0  0
  126.7410  123.2470   55.5900 C   0  0  0  0  0  0  0  0  0  0  0  0
  126.7910  122.0030   54.7220 C   0  0  0  0  0  0  0  0  0  0  0  0
  125.7400  123.4170   56.5430 C   0  0  0  0  0  0  0  0  0  0  0  0
  125.7030  124.5720   57.3390 C   0  0  0  0  0  0  0  0  0  0  0  0
  124.5850  124.7120   58.3770 C   0  0  0  0  0  0  0  0  0  0  0  0
  123.7750  125.7460   58.1350 F   0  0  0  0  0  0  0  0  0  0  0  0
  123.8340  123.6110   58.3830 F   0  0  0  0  0  0  0  0  0  0  0  0
  125.1120  124.8920   59.5880 F   0  0  0  0  0  0  0  0  0  0  0  0
  126.7240  125.5450   57.1220 C   0  0  0  0  0  0  0  0  0  0  0  0
  127.0030  126.8260   57.7250 C   0  0  0  0  0  0  0  0  0  0  0  0
  126.2220  127.3640   58.7160 N   0  0  0  0  0  0  0  0  0  0  0  0
  131.7600  130.2780   57.9020 N   0  0  0  0  0  0  0  0  0  0  0  0
  133.3780  131.3987   59.9520 H   0  0  0  0  0  0  0  0  0  0  0  0
  134.2531  130.4641   58.6921 H   0  0  0  0  0  0  0  0  0  0  0  0
  134.3262  132.2589   58.6921 H   0  0  0  0  0  0  0  0  0  0  0  0
  132.6773  133.5294   57.4519 H   0  0  0  0  0  0  0  0  0  0  0  0
  130.6207  133.4864   56.0098 H   0  0  0  0  0  0  0  0  0  0  0  0
  129.3046  131.3625   55.8058 H   0  0  0  0  0  0  0  0  0  0  0  0
  130.2450  128.4140   56.3270 H   0  0  0  0  0  0  0  0  0  0  0  0
  126.8269  121.1098   55.3630 H   0  0  0  0  0  0  0  0  0  0  0  0
  125.8937  121.9627   54.0869 H   0  0  0  0  0  0  0  0  0  0  0  0
  127.6886  122.0349   54.0869 H   0  0  0  0  0  0  0  0  0  0  0  0
  124.9724  122.6399   56.6728 H   0  0  0  0  0  0  0  0  0  0  0  0
  126.4540  128.2380   59.1650 H   0  0  0  0  0  0  0  0  0  0  0  0
  125.3850  126.8970   59.0370 H   0  0  0  0  0  0  0  0  0  0  0  0
  1  2  1  0
  2  3  2  0
  3  4  1  0
  4  5  2  0
  5  6  1  0
  6  7  1  0
  7  8  1  0
  8  9  2  0
  8 10  1  0
 10 11  1  0
 11 12  1  0
 12 13  2  0
 13 14  1  0
 14 15  1  0
 14 16  2  0
 16 17  1  0
 17 18  1  0
 18 19  1  0
 18 20  1  0
 18 21  1  0
 17 22  2  0
 22 23  1  0
 23 24  1  0
  6 25  2  0
 25  2  1  0
 23 10  2  0
 22 12  1  0
  1 26  1  0
  1 27  1  0
  1 28  1  0
  3 29  1  0
  4 30  1  0
  5 31  1  0
  7 32  1  0
 15 33  1  0
 15 34  1  0
 15 35  1  0
 16 36  1  0
 24 37  1  0
 24 38  1  0
M  END
>  <Binding energies>  (1) 
[-6.75]

>  <Ligand effiencies>  (1) 
[-0.24107142857142858]

>  <Interactions>  (1) 
["V-B:MET:535:CE:9806, V-B:ASP:366:CG:8184, V-B:LEU:363:CA:8156, V-B:LEU:363:CD1:8160, V-B:PRO:540:CA:9854, V-B:TYR:539:CE1:9846, V-B:PRO:540:CB:9856, V-A:ASP:366:CB:3211, V-B:ILE:538:CA:9831, H-A:TYR:531:OH:4795, H-B:TYR:531:OH:9766, V-A:PRO:540:N:4884, V-A:MET:535:CE:4835, V-B:TYR:539:CD1:9844, V-B:ASP:366:CB:8183, V-A:LEU:363:CA:3184, V-A:PRO:540:CB:4885, V-A:LEU:363:CD1:3188, V-A:ASP:366:CG:3212, V-A:PRO:540:CA:4883, V-B:ILE:538:CD1:9836, H-B:ASP:366:OD2:8186, V-B:TYR:531:CZ:9765, V-B:TYR:531:CE2:9764, V-A:PRO:540:CD:4887, V-B:ILE:538:C:9829, V-B:LEU:363:CB:8158, V-B:LEU:363:CG:8159, V-A:LEU:363:CB:3186"]

$$$$
4bf_Grossjean_2025
     RDKit          3D

 35 37  0  0  0  0  0  0  0  0999 V2000
  126.8740  122.0240   54.8390 C   0  0  0  0  0  0  0  0  0  0  0  0
  126.7980  123.2800   55.6890 C   0  0  0  0  0  0  0  0  0  0  0  0
  125.8010  123.4380   56.6480 C   0  0  0  0  0  0  0  0  0  0  0  0
  125.7400  124.6050   57.4240 C   0  0  0  0  0  0  0  0  0  0  0  0
  124.6240  124.7360   58.4660 C   0  0  0  0  0  0  0  0  0  0  0  0
  123.8820  123.6300   58.5770 F   0  0  0  0  0  0  0  0  0  0  0  0
  125.1510  124.9850   59.6650 F   0  0  0  0  0  0  0  0  0  0  0  0
  123.8050  125.7330   58.1280 F   0  0  0  0  0  0  0  0  0  0  0  0
  126.7330  125.6020   57.1840 C   0  0  0  0  0  0  0  0  0  0  0  0
  126.9850  126.8970   57.7660 C   0  0  0  0  0  0  0  0  0  0  0  0
  126.2080  127.4210   58.7670 N   0  0  0  0  0  0  0  0  0  0  0  0
  128.0940  127.5660   57.2220 C   0  0  0  0  0  0  0  0  0  0  0  0
  128.6100  128.8970   57.5520 C   0  0  0  0  0  0  0  0  0  0  0  0
  128.0430  129.6000   58.3890 O   0  0  0  0  0  0  0  0  0  0  0  0
  129.7350  129.2650   56.8900 N   0  0  0  0  0  0  0  0  0  0  0  0
  130.4480  130.4780   56.9390 C   0  0  0  0  0  0  0  0  0  0  0  0
  131.7870  130.6200   57.3410 C   0  0  0  0  0  0  0  0  0  0  0  0
  132.3730  131.8880   57.3580 C   0  0  0  0  0  0  0  0  0  0  0  0
  131.6000  132.9860   56.9760 C   0  0  0  0  0  0  0  0  0  0  0  0
  130.3050  132.8760   56.5910 N   0  0  0  0  0  0  0  0  0  0  0  0
  129.7490  131.6370   56.5800 C   0  0  0  0  0  0  0  0  0  0  0  0
  128.8600  126.6050   55.9590 S   0  0  0  0  0  0  0  0  0  0  0  0
  127.7000  125.3150   56.1710 C   0  0  0  0  0  0  0  0  0  0  0  0
  127.7540  124.2040   55.4370 N   0  0  0  0  0  0  0  0  0  0  0  0
  126.9274  121.1413   55.4931 H   0  0  0  0  0  0  0  0  0  0  0  0
  125.9783  121.9562   54.2041 H   0  0  0  0  0  0  0  0  0  0  0  0
  127.7713  122.0647   54.2041 H   0  0  0  0  0  0  0  0  0  0  0  0
  125.0563  122.6425   56.7981 H   0  0  0  0  0  0  0  0  0  0  0  0
  125.3930  126.9390   59.1190 H   0  0  0  0  0  0  0  0  0  0  0  0
  126.4270  128.3120   59.1900 H   0  0  0  0  0  0  0  0  0  0  0  0
  130.1340  128.5720   56.2740 H   0  0  0  0  0  0  0  0  0  0  0  0
  132.3708  129.7372   57.6408 H   0  0  0  0  0  0  0  0  0  0  0  0
  133.4210  132.0185   57.6658 H   0  0  0  0  0  0  0  0  0  0  0  0
  132.0621  133.9842   56.9880 H   0  0  0  0  0  0  0  0  0  0  0  0
  128.6970  131.5390   56.2738 H   0  0  0  0  0  0  0  0  0  0  0  0
  1  2  1  0
  2  3  2  0
  3  4  1  0
  4  5  1  0
  5  6  1  0
  5  7  1  0
  5  8  1  0
  4  9  2  0
  9 10  1  0
 10 11  1  0
 10 12  2  0
 12 13  1  0
 13 14  2  0
 13 15  1  0
 15 16  1  0
 16 17  2  0
 17 18  1  0
 18 19  2  0
 19 20  1  0
 20 21  2  0
 12 22  1  0
 22 23  1  0
 23 24  2  0
 24  2  1  0
 23  9  1  0
 21 16  1  0
  1 25  1  0
  1 26  1  0
  1 27  1  0
  3 28  1  0
 11 29  1  0
 11 30  1  0
 15 31  1  0
 17 32  1  0
 18 33  1  0
 19 34  1  0
 21 35  1  0
M  END
>  <Binding energies>  (1) 
[-6.53]

>  <Ligand effiencies>  (1) 
[-0.24185185185185187]

>  <Interactions>  (1) 
["V-B:MET:535:CE:9806, V-B:ASP:366:CG:8184, V-B:LEU:363:CA:8156, V-B:LEU:363:CD1:8160, V-B:PRO:540:CA:9854, V-B:TYR:539:CE1:9846, V-B:PRO:540:CB:9856, V-B:ILE:538:CA:9831, V-A:TYR:539:C:4867, H-A:TYR:531:OH:4795, H-B:TYR:531:OH:9766, V-A:PRO:540:N:4884, V-A:MET:535:CE:4835, V-B:TYR:539:CD1:9844, V-A:TYR:531:CZ:4794, V-B:ASP:366:CB:8183, V-A:PRO:540:CB:4885, V-A:LEU:363:CD1:3188, V-A:TYR:531:CE2:4793, V-A:PRO:540:CA:4883, V-B:ILE:538:CD1:9836, V-B:TYR:539:CG:9843, H-B:ASP:366:OD2:8186, V-B:TYR:531:CZ:9765, V-B:TYR:531:CE2:9764, V-A:PRO:540:CD:4887, H-A:TYR:539:N:4870, V-B:ILE:538:C:9829, V-B:LEU:363:CB:8158"]

$$$$
4bg_Grossjean_2025
     RDKit          3D

 39 41  0  0  0  0  0  0  0  0999 V2000
  134.4240  121.0660   62.5720 C   0  0  0  0  0  0  0  0  0  0  0  0
  133.0920  121.7870   62.6680 C   0  0  0  0  0  0  0  0  0  0  0  0
  132.8440  122.7030   63.6860 C   0  0  0  0  0  0  0  0  0  0  0  0
  131.6040  123.3590   63.7670 C   0  0  0  0  0  0  0  0  0  0  0  0
  131.3780  124.3590   64.9060 C   0  0  0  0  0  0  0  0  0  0  0  0
  130.9100  125.5350   64.4820 F   0  0  0  0  0  0  0  0  0  0  0  0
  130.4900  123.8640   65.7690 F   0  0  0  0  0  0  0  0  0  0  0  0
  132.5270  124.5910   65.5390 F   0  0  0  0  0  0  0  0  0  0  0  0
  130.6340  123.0440   62.7700 C   0  0  0  0  0  0  0  0  0  0  0  0
  129.2850  123.4970   62.5350 C   0  0  0  0  0  0  0  0  0  0  0  0
  128.6540  124.4050   63.3480 N   0  0  0  0  0  0  0  0  0  0  0  0
  128.6820  122.9330   61.4000 C   0  0  0  0  0  0  0  0  0  0  0  0
  127.3280  123.1420   60.8880 C   0  0  0  0  0  0  0  0  0  0  0  0
  126.3480  123.1240   61.6350 O   0  0  0  0  0  0  0  0  0  0  0  0
  127.2280  123.3910   59.5660 N   0  0  0  0  0  0  0  0  0  0  0  0
  125.9800  123.6150   58.8360 C   0  0  0  0  0  0  0  0  0  0  0  0
  126.0400  123.1770   57.3790 C   0  0  0  0  0  0  0  0  0  0  0  0
  127.1740  123.4530   56.6090 C   0  0  0  0  0  0  0  0  0  0  0  0
  127.2410  123.0180   55.2880 C   0  0  0  0  0  0  0  0  0  0  0  0
  126.1810  122.2960   54.7440 C   0  0  0  0  0  0  0  0  0  0  0  0
  125.0550  122.0020   55.5100 C   0  0  0  0  0  0  0  0  0  0  0  0
  124.9870  122.4380   56.8310 C   0  0  0  0  0  0  0  0  0  0  0  0
  129.7580  121.7890   60.6030 S   0  0  0  0  0  0  0  0  0  0  0  0
  131.0180  122.0910   61.7760 C   0  0  0  0  0  0  0  0  0  0  0  0
  132.1960  121.4700   61.7060 N   0  0  0  0  0  0  0  0  0  0  0  0
  134.8035  120.8606   63.5838 H   0  0  0  0  0  0  0  0  0  0  0  0
  134.2894  120.1176   62.0313 H   0  0  0  0  0  0  0  0  0  0  0  0
  135.1445  121.6973   62.0313 H   0  0  0  0  0  0  0  0  0  0  0  0
  133.6239  122.9149   64.4322 H   0  0  0  0  0  0  0  0  0  0  0  0
  127.6490  124.4820   63.3830 H   0  0  0  0  0  0  0  0  0  0  0  0
  129.1800  125.0370   63.9350 H   0  0  0  0  0  0  0  0  0  0  0  0
  128.0620  123.3110   59.0020 H   0  0  0  0  0  0  0  0  0  0  0  0
  125.1785  123.0514   59.3360 H   0  0  0  0  0  0  0  0  0  0  0  0
  125.7937  124.6991   58.8399 H   0  0  0  0  0  0  0  0  0  0  0  0
  128.0130  124.0137   57.0468 H   0  0  0  0  0  0  0  0  0  0  0  0
  128.1271  123.2435   54.6765 H   0  0  0  0  0  0  0  0  0  0  0  0
  126.2336  121.9547   53.6996 H   0  0  0  0  0  0  0  0  0  0  0  0
  124.2239  121.4285   55.0737 H   0  0  0  0  0  0  0  0  0  0  0  0
  124.1046  122.2009   57.4435 H   0  0  0  0  0  0  0  0  0  0  0  0
  1  2  1  0
  2  3  2  0
  3  4  1  0
  4  5  1  0
  5  6  1  0
  5  7  1  0
  5  8  1  0
  4  9  2  0
  9 10  1  0
 10 11  1  0
 10 12  2  0
 12 13  1  0
 13 14  2  0
 13 15  1  0
 15 16  1  0
 16 17  1  0
 17 18  2  0
 18 19  1  0
 19 20  2  0
 20 21  1  0
 21 22  2  0
 12 23  1  0
 23 24  1  0
 24 25  2  0
 25  2  1  0
 24  9  1  0
 22 17  1  0
  1 26  1  0
  1 27  1  0
  1 28  1  0
  3 29  1  0
 11 30  1  0
 11 31  1  0
 15 32  1  0
 16 33  1  0
 16 34  1  0
 18 35  1  0
 19 36  1  0
 20 37  1  0
 21 38  1  0
 22 39  1  0
M  END
>  <Binding energies>  (1) 
[-6.98]

>  <Ligand effiencies>  (1) 
[-0.2492857142857143]

>  <Interactions>  (1) 
["V-B:GLU:543:CD:9879, V-B:GLU:543:CG:9878, V-B:MET:535:CE:9806, V-B:LEU:363:CD1:8160, V-B:TYR:539:CD2:9845, V-B:PRO:540:CA:9854, V-B:TYR:539:CE2:9847, V-B:PRO:540:C:9852, V-B:ALA:541:CB:9863, V-B:PRO:540:N:9855, V-A:LEU:475:CD2:4258, V-B:TYR:539:CE1:9846, V-B:PRO:540:CB:9856, H-B:ALA:541:N:9862, V-A:ILE:369:CG2:3236, V-B:TYR:539:CZ:9848, V-B:PRO:540:CD:9858, V-B:ILE:538:CA:9831, V-B:PRO:540:CG:9857, V-B:TYR:539:CD1:9844, V-B:ILE:538:CG2:9834, V-A:TYR:484:CE1:4344, V-B:ILE:538:CD1:9836, V-A:TYR:484:CZ:4346, V-A:GLY:454:CA:4048, V-A:ILE:369:CD1:3238, H-B:GLU:543:OE2:9881, V-B:ILE:538:CB:9833, V-B:ILE:538:C:9829"]

$$$$
4bh_Grossjean_2025
     RDKit          3D

 51 53  0  0  0  0  0  0  0  0999 V2000
  125.4230  122.3340   55.7260 C   0  0  0  0  0  0  0  0  0  0  0  0
  126.8390  122.3270   55.8700 O   0  0  0  0  0  0  0  0  0  0  0  0
  127.4160  122.9740   56.9470 C   0  0  0  0  0  0  0  0  0  0  0  0
  127.0650  122.7360   58.2850 C   0  0  0  0  0  0  0  0  0  0  0  0
  127.6880  123.4290   59.3240 C   0  0  0  0  0  0  0  0  0  0  0  0
  127.3260  123.1230   60.7720 C   0  0  0  0  0  0  0  0  0  0  0  0
  128.3420  123.5570   61.7320 N   0  0  0  0  0  0  0  0  0  0  0  0
  129.6340  123.1690   61.7320 C   0  0  0  0  0  0  0  0  0  0  0  0
  130.0820  122.3560   60.9200 O   0  0  0  0  0  0  0  0  0  0  0  0
  130.4750  123.7360   62.7860 C   0  0  0  0  0  0  0  0  0  0  0  0
  132.2080  123.4210   62.7960 S   0  0  0  0  0  0  0  0  0  0  0  0
  132.4090  124.3370   64.2710 C   0  0  0  0  0  0  0  0  0  0  0  0
  133.6060  124.4870   64.8380 N   0  0  0  0  0  0  0  0  0  0  0  0
  133.6360  125.2200   65.9760 C   0  0  0  0  0  0  0  0  0  0  0  0
  135.0080  125.3770   66.6060 C   0  0  0  0  0  0  0  0  0  0  0  0
  132.5100  125.8010   66.5530 C   0  0  0  0  0  0  0  0  0  0  0  0
  131.2470  125.6450   65.9620 C   0  0  0  0  0  0  0  0  0  0  0  0
  130.0370  126.3050   66.6320 C   0  0  0  0  0  0  0  0  0  0  0  0
  129.1080  125.4280   67.0160 F   0  0  0  0  0  0  0  0  0  0  0  0
  130.4310  126.9690   67.7180 F   0  0  0  0  0  0  0  0  0  0  0  0
  129.4590  127.1540   65.7820 F   0  0  0  0  0  0  0  0  0  0  0  0
  131.1790  124.8760   64.7620 C   0  0  0  0  0  0  0  0  0  0  0  0
  130.0880  124.5020   63.8960 C   0  0  0  0  0  0  0  0  0  0  0  0
  128.7900  124.8720   64.1360 N   0  0  0  0  0  0  0  0  0  0  0  0
  128.6930  124.3510   59.0280 C   0  0  0  0  0  0  0  0  0  0  0  0
  129.0590  124.6160   57.7000 C   0  0  0  0  0  0  0  0  0  0  0  0
  130.0350  125.5260   57.3340 O   0  0  0  0  0  0  0  0  0  0  0  0
  131.1890  125.6780   58.1540 C   0  0  0  0  0  0  0  0  0  0  0  0
  128.4080  123.9250   56.6680 C   0  0  0  0  0  0  0  0  0  0  0  0
  128.7700  124.1610   55.3620 O   0  0  0  0  0  0  0  0  0  0  0  0
  128.7520  125.5340   54.9980 C   0  0  0  0  0  0  0  0  0  0  0  0
  124.9533  122.3363   56.7207 H   0  0  0  0  0  0  0  0  0  0  0  0
  125.1151  123.2337   55.1730 H   0  0  0  0  0  0  0  0  0  0  0  0
  125.1062  121.4374   55.1730 H   0  0  0  0  0  0  0  0  0  0  0  0
  126.2881  121.9929   58.5179 H   0  0  0  0  0  0  0  0  0  0  0  0
  126.3813  123.6337   61.0101 H   0  0  0  0  0  0  0  0  0  0  0  0
  127.2431  122.0297   60.8607 H   0  0  0  0  0  0  0  0  0  0  0  0
  128.0640  124.2880   62.3720 H   0  0  0  0  0  0  0  0  0  0  0  0
  134.9118  125.3660   67.7017 H   0  0  0  0  0  0  0  0  0  0  0  0
  135.6554  124.5471   66.2864 H   0  0  0  0  0  0  0  0  0  0  0  0
  135.4512  126.3317   66.2864 H   0  0  0  0  0  0  0  0  0  0  0  0
  132.6112  126.3865   67.4787 H   0  0  0  0  0  0  0  0  0  0  0  0
  128.0200  124.2250   64.0230 H   0  0  0  0  0  0  0  0  0  0  0  0
  128.5550  125.8100   64.4270 H   0  0  0  0  0  0  0  0  0  0  0  0
  129.2051  124.8770   59.8472 H   0  0  0  0  0  0  0  0  0  0  0  0
  130.8940  125.6391   59.2130 H   0  0  0  0  0  0  0  0  0  0  0  0
  131.8996  124.8657   57.9413 H   0  0  0  0  0  0  0  0  0  0  0  0
  131.6650  126.6466   57.9413 H   0  0  0  0  0  0  0  0  0  0  0  0
  128.7439  126.1541   55.9065 H   0  0  0  0  0  0  0  0  0  0  0  0
  129.6472  125.7673   54.4028 H   0  0  0  0  0  0  0  0  0  0  0  0
  127.8510  125.7438   54.4028 H   0  0  0  0  0  0  0  0  0  0  0  0
  1  2  1  0
  2  3  1  0
  3  4  2  0
  4  5  1  0
  5  6  1  0
  6  7  1  0
  7  8  1  0
  8  9  2  0
  8 10  1  0
 10 11  1  0
 11 12  1  0
 12 13  2  0
 13 14  1  0
 14 15  1  0
 14 16  2  0
 16 17  1  0
 17 18  1  0
 18 19  1  0
 18 20  1  0
 18 21  1  0
 17 22  2  0
 22 23  1  0
 23 24  1  0
  5 25  2  0
 25 26  1  0
 26 27  1  0
 27 28  1  0
 26 29  2  0
 29 30  1  0
 30 31  1  0
 29  3  1  0
 23 10  2  0
 22 12  1  0
  1 32  1  0
  1 33  1  0
  1 34  1  0
  4 35  1  0
  6 36  1  0
  6 37  1  0
  7 38  1  0
 15 39  1  0
 15 40  1  0
 15 41  1  0
 16 42  1  0
 24 43  1  0
 24 44  1  0
 25 45  1  0
 28 46  1  0
 28 47  1  0
 28 48  1  0
 31 49  1  0
 31 50  1  0
 31 51  1  0
M  END
>  <Binding energies>  (1) 
[-6.09]

>  <Ligand effiencies>  (1) 
[-0.17911764705882352]

>  <Interactions>  (1) 
["V-A:HIS:456:CE1:4069, V-B:GLU:543:CD:9879, V-A:GLU:543:CD:4908, V-B:GLU:543:CB:9877, V-B:GLU:543:CG:9878, V-B:MET:535:CE:9806, V-B:LEU:363:CD1:8160, V-B:PRO:540:CA:9854, V-B:TYR:539:CE2:9847, V-B:PRO:540:C:9852, V-B:ALA:541:CB:9863, V-B:PRO:540:N:9855, V-B:TYR:539:CE1:9846, V-B:PRO:540:CB:9856, H-B:TYR:539:N:9841, V-B:TYR:539:CZ:9848, V-B:TYR:539:C:9838, V-B:PRO:540:CD:9858, V-A:ARG:545:CZ:4926, V-B:ILE:538:CA:9831, H-A:TYR:531:OH:4795, H-B:TYR:539:OH:9849, V-B:TYR:539:CD1:9844, H-A:GLY:454:N:4049, V-B:ILE:538:CG2:9834, H-A:TYR:484:OH:4347, V-B:ILE:538:CD1:9836, V-A:GLY:454:CA:4048, V-A:ARG:545:CD:4923, V-A:ILE:455:C:4051, V-A:ARG:545:CG:4922, H-B:GLU:543:OE1:9880, H-B:GLU:543:OE2:9881, V-A:GLY:453:C:4041, V-A:GLY:453:CA:4043"]

$$$$
4bi_Grossjean_2025
     RDKit          3D

 32 34  0  0  0  0  0  0  0  0999 V2000
  126.7310  122.3820   56.5440 C   0  0  0  0  0  0  0  0  0  0  0  0
  127.0210  122.7290   57.9930 C   0  0  0  0  0  0  0  0  0  0  0  0
  126.0240  123.2350   58.8230 C   0  0  0  0  0  0  0  0  0  0  0  0
  126.3050  123.5470   60.1630 C   0  0  0  0  0  0  0  0  0  0  0  0
  125.1740  124.0940   61.0400 C   0  0  0  0  0  0  0  0  0  0  0  0
  124.8970  123.3100   62.0840 F   0  0  0  0  0  0  0  0  0  0  0  0
  125.5120  125.2910   61.5190 F   0  0  0  0  0  0  0  0  0  0  0  0
  124.0580  124.2080   60.3180 F   0  0  0  0  0  0  0  0  0  0  0  0
  127.6400  123.3270   60.6170 C   0  0  0  0  0  0  0  0  0  0  0  0
  128.2880  123.5270   61.8900 C   0  0  0  0  0  0  0  0  0  0  0  0
  127.6330  124.0290   62.9850 N   0  0  0  0  0  0  0  0  0  0  0  0
  129.6430  123.1570   61.9090 C   0  0  0  0  0  0  0  0  0  0  0  0
  130.5970  123.2380   63.0190 C   0  0  0  0  0  0  0  0  0  0  0  0
  130.7030  122.3130   63.8270 O   0  0  0  0  0  0  0  0  0  0  0  0
  131.3400  124.3720   63.0660 N   0  0  0  0  0  0  0  0  0  0  0  0
  132.3190  124.7040   63.9940 C   0  0  0  0  0  0  0  0  0  0  0  0
  132.0270  125.1800   65.2710 C   0  0  0  0  0  0  0  0  0  0  0  0
  133.2510  125.3860   65.8660 C   0  0  0  0  0  0  0  0  0  0  0  0
  134.2290  125.0510   64.9910 O   0  0  0  0  0  0  0  0  0  0  0  0
  133.6250  124.6200   63.8080 N   0  0  0  0  0  0  0  0  0  0  0  0
  130.1650  122.5680   60.3320 S   0  0  0  0  0  0  0  0  0  0  0  0
  128.5670  122.8030   59.6650 C   0  0  0  0  0  0  0  0  0  0  0  0
  128.2940  122.5070   58.3940 N   0  0  0  0  0  0  0  0  0  0  0  0
  126.0261  121.5385   56.5030 H   0  0  0  0  0  0  0  0  0  0  0  0
  126.2892  123.2540   56.0395 H   0  0  0  0  0  0  0  0  0  0  0  0
  127.6675  122.1020   56.0395 H   0  0  0  0  0  0  0  0  0  0  0  0
  125.0099  123.3913   58.4265 H   0  0  0  0  0  0  0  0  0  0  0  0
  128.1070  124.1930   63.8630 H   0  0  0  0  0  0  0  0  0  0  0  0
  126.6470  124.2490   62.9540 H   0  0  0  0  0  0  0  0  0  0  0  0
  131.1780  125.0580   62.3430 H   0  0  0  0  0  0  0  0  0  0  0  0
  131.0329  125.3536   65.7088 H   0  0  0  0  0  0  0  0  0  0  0  0
  133.4093  125.7621   66.8875 H   0  0  0  0  0  0  0  0  0  0  0  0
  1  2  1  0
  2  3  2  0
  3  4  1  0
  4  5  1  0
  5  6  1  0
  5  7  1  0
  5  8  1  0
  4  9  2  0
  9 10  1  0
 10 11  1  0
 10 12  2  0
 12 13  1  0
 13 14  2  0
 13 15  1  0
 15 16  1  0
 16 17  1  0
 17 18  2  0
 18 19  1  0
 19 20  1  0
 12 21  1  0
 21 22  1  0
 22 23  2  0
 23  2  1  0
 22  9  1  0
 20 16  2  0
  1 24  1  0
  1 25  1  0
  1 26  1  0
  3 27  1  0
 11 28  1  0
 11 29  1  0
 15 30  1  0
 17 31  1  0
 18 32  1  0
M  END
>  <Binding energies>  (1) 
[-6.67]

>  <Ligand effiencies>  (1) 
[-0.25653846153846155]

>  <Interactions>  (1) 
["V-B:GLU:543:CD:9879, V-B:GLU:543:CG:9878, V-B:ASP:366:CG:8184, V-B:LEU:363:CA:8156, V-B:ASN:362:C:8143, V-B:TYR:539:CD2:9845, V-B:PRO:540:CA:9854, V-B:TYR:539:CE2:9847, V-B:PRO:540:C:9852, V-B:ALA:541:CB:9863, V-B:PRO:540:N:9855, V-B:TYR:539:CE1:9846, V-B:PRO:540:CB:9856, V-B:TYR:539:C:9838, V-B:PRO:540:CD:9858, V-A:ARG:545:CZ:4926, V-B:TYR:539:CD1:9844, H-A:GLY:454:N:4049, V-B:ASN:362:CB:8147, H-A:TYR:484:OH:4347, V-B:TYR:539:CG:9843, H-A:ARG:545:NH1:4927, H-A:ARG:545:NE:4924, V-A:ARG:545:CD:4923, H-B:GLU:543:OE2:9881"]

$$$$
4bj_Grossjean_2025
     RDKit          3D

 32 34  0  0  0  0  0  0  0  0999 V2000
  126.8120  121.9880   54.7780 C   0  0  0  0  0  0  0  0  0  0  0  0
  126.7730  123.2250   55.6580 C   0  0  0  0  0  0  0  0  0  0  0  0
  125.7710  123.3960   56.6100 C   0  0  0  0  0  0  0  0  0  0  0  0
  125.7430  124.5480   57.4120 C   0  0  0  0  0  0  0  0  0  0  0  0
  124.6190  124.6940   58.4450 C   0  0  0  0  0  0  0  0  0  0  0  0
  123.7810  125.6930   58.1640 F   0  0  0  0  0  0  0  0  0  0  0  0
  123.9030  123.5710   58.4930 F   0  0  0  0  0  0  0  0  0  0  0  0
  125.1420  124.9360   59.6470 F   0  0  0  0  0  0  0  0  0  0  0  0
  126.7760  125.5110   57.2070 C   0  0  0  0  0  0  0  0  0  0  0  0
  127.0670  126.7840   57.8210 C   0  0  0  0  0  0  0  0  0  0  0  0
  126.2900  127.3220   58.8150 N   0  0  0  0  0  0  0  0  0  0  0  0
  128.2140  127.4150   57.3160 C   0  0  0  0  0  0  0  0  0  0  0  0
  128.7890  128.7070   57.6980 C   0  0  0  0  0  0  0  0  0  0  0  0
  128.2730  129.3890   58.5870 O   0  0  0  0  0  0  0  0  0  0  0  0
  129.9070  129.0700   57.0240 N   0  0  0  0  0  0  0  0  0  0  0  0
  130.6480  130.2310   57.2010 C   0  0  0  0  0  0  0  0  0  0  0  0
  131.8350  130.3570   57.7530 N   0  0  0  0  0  0  0  0  0  0  0  0
  132.2420  131.6100   57.7480 C   0  0  0  0  0  0  0  0  0  0  0  0
  131.3740  132.5370   57.1810 C   0  0  0  0  0  0  0  0  0  0  0  0
  129.9470  131.7120   56.6290 S   0  0  0  0  0  0  0  0  0  0  0  0
  128.9620  126.4560   56.0400 S   0  0  0  0  0  0  0  0  0  0  0  0
  127.7450  125.2110   56.2020 C   0  0  0  0  0  0  0  0  0  0  0  0
  127.7660  124.1180   55.4400 N   0  0  0  0  0  0  0  0  0  0  0  0
  126.8404  121.0886   55.4107 H   0  0  0  0  0  0  0  0  0  0  0  0
  125.9142  121.9614   54.1429 H   0  0  0  0  0  0  0  0  0  0  0  0
  127.7096  122.0180   54.1429 H   0  0  0  0  0  0  0  0  0  0  0  0
  124.9972  122.6241   56.7343 H   0  0  0  0  0  0  0  0  0  0  0  0
  125.3960  126.9270   59.0690 H   0  0  0  0  0  0  0  0  0  0  0  0
  126.5870  128.1410   59.3280 H   0  0  0  0  0  0  0  0  0  0  0  0
  130.2520  128.4340   56.3210 H   0  0  0  0  0  0  0  0  0  0  0  0
  133.2141  131.9065   58.1688 H   0  0  0  0  0  0  0  0  0  0  0  0
  131.5604  133.6177   57.0956 H   0  0  0  0  0  0  0  0  0  0  0  0
  1  2  1  0
  2  3  2  0
  3  4  1  0
  4  5  1  0
  5  6  1  0
  5  7  1  0
  5  8  1  0
  4  9  2  0
  9 10  1  0
 10 11  1  0
 10 12  2  0
 12 13  1  0
 13 14  2  0
 13 15  1  0
 15 16  1  0
 16 17  2  0
 17 18  1  0
 18 19  2  0
 19 20  1  0
 12 21  1  0
 21 22  1  0
 22 23  2  0
 23  2  1  0
 22  9  1  0
 20 16  1  0
  1 24  1  0
  1 25  1  0
  1 26  1  0
  3 27  1  0
 11 28  1  0
 11 29  1  0
 15 30  1  0
 18 31  1  0
 19 32  1  0
M  END
>  <Binding energies>  (1) 
[-5.66]

>  <Ligand effiencies>  (1) 
[-0.21769230769230768]

>  <Interactions>  (1) 
["V-B:MET:535:CE:9806, V-B:ASP:366:CG:8184, V-B:LEU:363:CA:8156, V-B:LEU:363:CD1:8160, V-B:PRO:540:CA:9854, V-B:TYR:539:CE1:9846, V-B:PRO:540:CB:9856, V-B:ILE:538:CA:9831, V-A:TYR:539:C:4867, H-A:TYR:531:OH:4795, H-B:TYR:531:OH:9766, V-A:PRO:540:N:4884, V-A:MET:535:CE:4835, V-B:TYR:539:CD1:9844, V-B:ASP:366:CB:8183, V-A:LEU:363:CD1:3188, V-A:PRO:540:CA:4883, V-B:ILE:538:CD1:9836, H-B:ASP:366:OD2:8186, V-B:TYR:531:CZ:9765, V-B:TYR:531:CE2:9764, V-B:ILE:538:C:9829, V-B:LEU:363:CB:8158"]

$$$$
4bk_Grossjean_2025
     RDKit          3D

 50 51  0  0  0  0  0  0  0  0999 V2000
  129.3740  124.7370   58.5180 C   0  0  0  0  0  0  0  0  0  0  0  0
  128.0690  124.3380   58.1270 O   0  0  0  0  0  0  0  0  0  0  0  0
  128.0230  123.7400   56.8380 C   0  0  0  0  0  0  0  0  0  0  0  0
  127.3700  122.3560   56.9380 C   0  0  0  0  0  0  0  0  0  0  0  0
  126.8190  122.0010   55.6770 O   0  0  0  0  0  0  0  0  0  0  0  0
  125.4010  122.0940   55.6240 C   0  0  0  0  0  0  0  0  0  0  0  0
  124.9570  123.4450   56.2000 C   0  0  0  0  0  0  0  0  0  0  0  0
  124.8680  123.3470   57.6140 O   0  0  0  0  0  0  0  0  0  0  0  0
  124.1450  124.4110   58.2210 C   0  0  0  0  0  0  0  0  0  0  0  0
  124.5290  124.5060   59.7080 C   0  0  0  0  0  0  0  0  0  0  0  0
  125.8260  123.9050   60.0190 N   0  0  0  0  0  0  0  0  0  0  0  0
  126.3400  123.7590   61.2580 C   0  0  0  0  0  0  0  0  0  0  0  0
  125.7340  124.1150   62.2710 O   0  0  0  0  0  0  0  0  0  0  0  0
  127.6650  123.1420   61.3370 C   0  0  0  0  0  0  0  0  0  0  0  0
  128.1820  121.9980   60.1020 S   0  0  0  0  0  0  0  0  0  0  0  0
  129.7370  121.7990   60.8740 C   0  0  0  0  0  0  0  0  0  0  0  0
  130.6630  120.9820   60.3740 N   0  0  0  0  0  0  0  0  0  0  0  0
  131.8280  120.9130   61.0590 C   0  0  0  0  0  0  0  0  0  0  0  0
  132.8690  119.9780   60.4690 C   0  0  0  0  0  0  0  0  0  0  0  0
  132.0850  121.6330   62.2220 C   0  0  0  0  0  0  0  0  0  0  0  0
  131.1140  122.4940   62.7560 C   0  0  0  0  0  0  0  0  0  0  0  0
  131.4420  123.2620   64.0400 C   0  0  0  0  0  0  0  0  0  0  0  0
  132.6590  122.9900   64.5160 F   0  0  0  0  0  0  0  0  0  0  0  0
  131.3880  124.5740   63.8070 F   0  0  0  0  0  0  0  0  0  0  0  0
  130.5630  122.9480   64.9910 F   0  0  0  0  0  0  0  0  0  0  0  0
  129.8740  122.5910   62.0570 C   0  0  0  0  0  0  0  0  0  0  0  0
  128.6720  123.3530   62.2910 C   0  0  0  0  0  0  0  0  0  0  0  0
  128.5290  124.2040   63.3570 N   0  0  0  0  0  0  0  0  0  0  0  0
  129.4379  124.7565   59.6160 H   0  0  0  0  0  0  0  0  0  0  0  0
  130.1103  124.0229   58.1205 H   0  0  0  0  0  0  0  0  0  0  0  0
  129.5851  125.7407   58.1205 H   0  0  0  0  0  0  0  0  0  0  0  0
  127.4337  124.3751   56.1603 H   0  0  0  0  0  0  0  0  0  0  0  0
  129.0456  123.6349   56.4465 H   0  0  0  0  0  0  0  0  0  0  0  0
  128.1272  121.6133   57.2297 H   0  0  0  0  0  0  0  0  0  0  0  0
  126.5712  122.3807   57.6938 H   0  0  0  0  0  0  0  0  0  0  0  0
  125.0667  122.0128   54.5792 H   0  0  0  0  0  0  0  0  0  0  0  0
  124.9570  121.2790   56.2145 H   0  0  0  0  0  0  0  0  0  0  0  0
  125.6916  124.2182   55.9310 H   0  0  0  0  0  0  0  0  0  0  0  0
  123.9740  123.7159   55.7872 H   0  0  0  0  0  0  0  0  0  0  0  0
  124.3918  125.3570   57.7169 H   0  0  0  0  0  0  0  0  0  0  0  0
  123.0654  124.2200   58.1315 H   0  0  0  0  0  0  0  0  0  0  0  0
  124.5614  125.5684   59.9913 H   0  0  0  0  0  0  0  0  0  0  0  0
  123.7703  123.9445   60.2729 H   0  0  0  0  0  0  0  0  0  0  0  0
  126.3730  123.5930   59.2310 H   0  0  0  0  0  0  0  0  0  0  0  0
  133.4201  119.4830   61.2822 H   0  0  0  0  0  0  0  0  0  0  0  0
  132.3703  119.2187   59.8487 H   0  0  0  0  0  0  0  0  0  0  0  0
  133.5706  120.5551   59.8487 H   0  0  0  0  0  0  0  0  0  0  0  0
  133.0567  121.5263   62.7265 H   0  0  0  0  0  0  0  0  0  0  0  0
  127.6400  124.6270   63.5880 H   0  0  0  0  0  0  0  0  0  0  0  0
  129.3110  124.4330   63.9550 H   0  0  0  0  0  0  0  0  0  0  0  0
  1  2  1  0
  2  3  1  0
  3  4  1  0
  4  5  1  0
  5  6  1  0
  6  7  1  0
  7  8  1  0
  8  9  1  0
  9 10  1  0
 10 11  1  0
 11 12  1  0
 12 13  2  0
 12 14  1  0
 14 15  1  0
 15 16  1  0
 16 17  2  0
 17 18  1  0
 18 19  1  0
 18 20  2  0
 20 21  1  0
 21 22  1  0
 22 23  1  0
 22 24  1  0
 22 25  1  0
 21 26  2  0
 26 27  1  0
 27 28  1  0
 27 14  2  0
 26 16  1  0
  1 29  1  0
  1 30  1  0
  1 31  1  0
  3 32  1  0
  3 33  1  0
  4 34  1  0
  4 35  1  0
  6 36  1  0
  6 37  1  0
  7 38  1  0
  7 39  1  0
  9 40  1  0
  9 41  1  0
 10 42  1  0
 10 43  1  0
 11 44  1  0
 19 45  1  0
 19 46  1  0
 19 47  1  0
 20 48  1  0
 28 49  1  0
 28 50  1  0
M  END
>  <Binding energies>  (1) 
[-5.09]

>  <Ligand effiencies>  (1) 
[-0.16419354838709677]

>  <Interactions>  (1) 
["V-B:GLU:543:CD:9879, V-B:GLU:543:CG:9878, V-B:MET:535:CE:9806, V-A:TRP:381:CZ2:3369, V-B:ASP:366:CG:8184, V-B:LEU:363:CA:8156, V-B:LEU:363:CD1:8160, V-A:TRP:381:CH2:3371, V-B:TYR:539:CD2:9845, V-B:PRO:540:CA:9854, V-B:TYR:539:CE2:9847, V-B:PRO:540:C:9852, V-B:ALA:541:CB:9863, V-B:PRO:540:N:9855, V-A:LEU:475:CD2:4258, V-B:TYR:539:CE1:9846, V-B:PRO:540:CB:9856, H-B:TYR:539:N:9841, V-A:ILE:369:CG2:3236, V-B:TYR:539:CZ:9848, V-B:TYR:539:C:9838, V-B:PRO:540:CD:9858, V-B:ILE:538:CA:9831, V-B:TYR:539:CD1:9844, V-B:ILE:538:CG2:9834, V-A:TYR:484:CE1:4344, V-B:ILE:538:CD1:9836, V-B:TYR:539:CA:9840, V-B:TYR:539:CG:9843, V-A:TYR:484:CZ:4346, V-A:GLY:454:CA:4048, H-B:ARG:545:NH2:9899, H-B:GLU:543:OE1:9880, H-B:GLU:543:OE2:9881"]

$$$$
4ca_Grossjean_2025
     RDKit          3D

 52 55  0  0  0  0  0  0  0  0999 V2000
  123.8750  124.7020   57.7020 C   0  0  0  0  0  0  0  0  0  0  0  0
  124.8530  124.1060   56.6850 C   0  0  0  0  0  0  0  0  0  0  0  0
  125.2260  122.7980   57.0980 O   0  0  0  0  0  0  0  0  0  0  0  0
  126.5190  122.4940   57.3830 C   0  0  0  0  0  0  0  0  0  0  0  0
  127.2110  121.7450   56.6850 O   0  0  0  0  0  0  0  0  0  0  0  0
  127.0230  123.1610   58.6290 C   0  0  0  0  0  0  0  0  0  0  0  0
  126.1110  123.5230   59.6290 C   0  0  0  0  0  0  0  0  0  0  0  0
  126.5490  124.1390   60.7980 C   0  0  0  0  0  0  0  0  0  0  0  0
  127.9030  124.4140   60.9880 C   0  0  0  0  0  0  0  0  0  0  0  0
  128.2370  125.0310   62.2090 N   0  0  0  0  0  0  0  0  0  0  0  0
  129.4510  125.2720   62.7630 C   0  0  0  0  0  0  0  0  0  0  0  0
  130.5230  125.0080   62.2180 O   0  0  0  0  0  0  0  0  0  0  0  0
  129.4210  125.9020   64.0850 C   0  0  0  0  0  0  0  0  0  0  0  0
  130.3260  125.1990   65.4220 S   0  0  0  0  0  0  0  0  0  0  0  0
  129.8240  126.4820   66.4960 C   0  0  0  0  0  0  0  0  0  0  0  0
  130.2200  126.5190   67.7660 N   0  0  0  0  0  0  0  0  0  0  0  0
  129.7900  127.5630   68.5220 C   0  0  0  0  0  0  0  0  0  0  0  0
  130.2620  127.5810   69.9470 C   0  0  0  0  0  0  0  0  0  0  0  0
  131.4820  128.1820   70.2930 C   0  0  0  0  0  0  0  0  0  0  0  0
  131.9280  128.1980   71.6120 C   0  0  0  0  0  0  0  0  0  0  0  0
  131.1560  127.6090   72.6080 C   0  0  0  0  0  0  0  0  0  0  0  0
  129.9440  127.0040   72.2930 C   0  0  0  0  0  0  0  0  0  0  0  0
  129.5020  126.9900   70.9730 C   0  0  0  0  0  0  0  0  0  0  0  0
  128.9470  128.5520   68.0040 C   0  0  0  0  0  0  0  0  0  0  0  0
  128.5200  128.5200   66.6670 C   0  0  0  0  0  0  0  0  0  0  0  0
  127.5990  129.6380   66.1640 C   0  0  0  0  0  0  0  0  0  0  0  0
  127.4310  130.6170   67.0550 F   0  0  0  0  0  0  0  0  0  0  0  0
  128.1130  130.1840   65.0630 F   0  0  0  0  0  0  0  0  0  0  0  0
  126.3940  129.1400   65.8880 F   0  0  0  0  0  0  0  0  0  0  0  0
  128.9790  127.4390   65.8620 C   0  0  0  0  0  0  0  0  0  0  0  0
  128.7680  127.0820   64.4800 C   0  0  0  0  0  0  0  0  0  0  0  0
  127.9930  127.8320   63.6320 N   0  0  0  0  0  0  0  0  0  0  0  0
  128.8250  124.0510   59.9950 C   0  0  0  0  0  0  0  0  0  0  0  0
  128.3860  123.4320   58.8280 C   0  0  0  0  0  0  0  0  0  0  0  0
  124.2289  124.4863   58.7209 H   0  0  0  0  0  0  0  0  0  0  0  0
  123.8142  125.7908   57.5577 H   0  0  0  0  0  0  0  0  0  0  0  0
  122.8795  124.2569   57.5577 H   0  0  0  0  0  0  0  0  0  0  0  0
  124.3702  124.0553   55.6979 H   0  0  0  0  0  0  0  0  0  0  0  0
  125.7493  124.7406   56.6221 H   0  0  0  0  0  0  0  0  0  0  0  0
  125.0392  123.3186   59.4892 H   0  0  0  0  0  0  0  0  0  0  0  0
  125.8220  124.4108   61.5774 H   0  0  0  0  0  0  0  0  0  0  0  0
  127.4400  125.3500   62.7410 H   0  0  0  0  0  0  0  0  0  0  0  0
  132.0965  128.6484   69.5089 H   0  0  0  0  0  0  0  0  0  0  0  0
  132.8866  128.6743   71.8652 H   0  0  0  0  0  0  0  0  0  0  0  0
  131.5061  127.6218   73.6507 H   0  0  0  0  0  0  0  0  0  0  0  0
  129.3372  126.5385   73.0836 H   0  0  0  0  0  0  0  0  0  0  0  0
  128.5434  126.5093   70.7282 H   0  0  0  0  0  0  0  0  0  0  0  0
  128.6120  129.3711   68.6573 H   0  0  0  0  0  0  0  0  0  0  0  0
  128.3530  128.6540   63.1660 H   0  0  0  0  0  0  0  0  0  0  0  0
  127.0320  127.5850   63.4390 H   0  0  0  0  0  0  0  0  0  0  0  0
  129.8962  124.2557   60.1387 H   0  0  0  0  0  0  0  0  0  0  0  0
  129.1150  123.1521   58.0533 H   0  0  0  0  0  0  0  0  0  0  0  0
  1  2  1  0
  2  3  1  0
  3  4  1  0
  4  5  2  0
  4  6  1  0
  6  7  2  0
  7  8  1  0
  8  9  2  0
  9 10  1  0
 10 11  1  0
 11 12  2  0
 11 13  1  0
 13 14  1  0
 14 15  1  0
 15 16  2  0
 16 17  1  0
 17 18  1  0
 18 19  2  0
 19 20  1  0
 20 21  2  0
 21 22  1  0
 22 23  2  0
 17 24  2  0
 24 25  1  0
 25 26  1  0
 26 27  1  0
 26 28  1  0
 26 29  1  0
 25 30  2  0
 30 31  1  0
 31 32  1  0
  9 33  1  0
 33 34  2  0
 34  6  1  0
 31 13  2  0
 30 15  1  0
 23 18  1  0
  1 35  1  0
  1 36  1  0
  1 37  1  0
  2 38  1  0
  2 39  1  0
  7 40  1  0
  8 41  1  0
 10 42  1  0
 19 43  1  0
 20 44  1  0
 21 45  1  0
 22 46  1  0
 23 47  1  0
 24 48  1  0
 32 49  1  0
 32 50  1  0
 33 51  1  0
 34 52  1  0
M  END
>  <Binding energies>  (1) 
[-7.88]

>  <Ligand effiencies>  (1) 
[-0.21297297297297296]

>  <Interactions>  (1) 
["V-A:HIS:456:CE1:4069, V-A:HIS:456:CG:4065, V-A:GLU:543:CB:4906, V-A:GLU:543:CG:4907, V-A:HIS:456:CD2:4067, V-B:GLU:543:CD:9879, V-A:GLU:543:CD:4908, V-B:HIS:456:CE1:9041, V-B:GLU:543:CG:9878, V-B:MET:535:CE:9806, V-B:LEU:363:CA:8156, V-B:LEU:363:CD1:8160, V-B:PRO:540:CA:9854, V-B:TYR:539:CE2:9847, V-B:PRO:540:N:9855, V-B:PRO:540:CB:9856, H-B:TYR:539:N:9841, V-B:TYR:539:CZ:9848, V-B:TYR:539:C:9838, V-B:PRO:540:CD:9858, V-B:ASP:366:CB:8183, V-B:TYR:531:CZ:9765, V-B:TYR:531:CE2:9764, V-A:GLY:544:C:4912, V-B:TYR:484:CE1:9316, V-B:TYR:484:CZ:9318, V-A:ARG:545:CA:4919, V-A:ARG:545:CG:4922, H-B:GLU:543:OE1:9880, H-B:GLU:543:OE2:9881"]

$$$$
4cb_Grossjean_2025
     RDKit          3D

 49 52  0  0  0  0  0  0  0  0999 V2000
  127.1910  122.7500   54.7250 C   0  0  0  0  0  0  0  0  0  0  0  0
  127.6300  122.9610   56.0600 O   0  0  0  0  0  0  0  0  0  0  0  0
  126.9280  122.4690   57.1120 C   0  0  0  0  0  0  0  0  0  0  0  0
  126.0330  121.6250   56.9990 O   0  0  0  0  0  0  0  0  0  0  0  0
  127.3480  123.0530   58.4310 C   0  0  0  0  0  0  0  0  0  0  0  0
  126.8210  124.2870   58.8310 C   0  0  0  0  0  0  0  0  0  0  0  0
  127.1840  124.8500   60.0510 C   0  0  0  0  0  0  0  0  0  0  0  0
  128.0850  124.1960   60.8920 C   0  0  0  0  0  0  0  0  0  0  0  0
  128.3700  124.8490   62.1070 N   0  0  0  0  0  0  0  0  0  0  0  0
  129.5630  125.1480   62.6770 C   0  0  0  0  0  0  0  0  0  0  0  0
  130.6560  124.9190   62.1580 O   0  0  0  0  0  0  0  0  0  0  0  0
  129.4830  125.8020   63.9860 C   0  0  0  0  0  0  0  0  0  0  0  0
  130.3890  125.1610   65.3550 S   0  0  0  0  0  0  0  0  0  0  0  0
  129.8150  126.4430   66.3950 C   0  0  0  0  0  0  0  0  0  0  0  0
  130.1830  126.5200   67.6710 N   0  0  0  0  0  0  0  0  0  0  0  0
  129.6930  127.5580   68.3980 C   0  0  0  0  0  0  0  0  0  0  0  0
  130.1300  127.6210   69.8330 C   0  0  0  0  0  0  0  0  0  0  0  0
  129.3880  126.9790   70.8380 C   0  0  0  0  0  0  0  0  0  0  0  0
  129.7850  127.0360   72.1710 C   0  0  0  0  0  0  0  0  0  0  0  0
  130.9340  127.7380   72.5200 C   0  0  0  0  0  0  0  0  0  0  0  0
  131.6860  128.3860   71.5450 C   0  0  0  0  0  0  0  0  0  0  0  0
  131.2840  128.3280   70.2140 C   0  0  0  0  0  0  0  0  0  0  0  0
  128.8210  128.5010   67.8440 C   0  0  0  0  0  0  0  0  0  0  0  0
  128.4250  128.4280   66.5000 C   0  0  0  0  0  0  0  0  0  0  0  0
  127.4670  129.4960   65.9570 C   0  0  0  0  0  0  0  0  0  0  0  0
  126.2790  129.0010   65.6020 F   0  0  0  0  0  0  0  0  0  0  0  0
  127.2510  130.4220   66.8900 F   0  0  0  0  0  0  0  0  0  0  0  0
  127.9980  130.0710   64.8790 F   0  0  0  0  0  0  0  0  0  0  0  0
  128.9450  127.3520   65.7250 C   0  0  0  0  0  0  0  0  0  0  0  0
  128.7770  126.9630   64.3450 C   0  0  0  0  0  0  0  0  0  0  0  0
  127.9940  127.6680   63.4670 N   0  0  0  0  0  0  0  0  0  0  0  0
  128.6150  122.9580   60.5010 C   0  0  0  0  0  0  0  0  0  0  0  0
  128.2500  122.3960   59.2810 C   0  0  0  0  0  0  0  0  0  0  0  0
  126.1996  122.2735   54.7360 H   0  0  0  0  0  0  0  0  0  0  0  0
  127.1277  123.7161   54.2028 H   0  0  0  0  0  0  0  0  0  0  0  0
  127.9059  122.0971   54.2028 H   0  0  0  0  0  0  0  0  0  0  0  0
  126.1139  124.8161   58.1753 H   0  0  0  0  0  0  0  0  0  0  0  0
  126.7575  125.8175   60.3544 H   0  0  0  0  0  0  0  0  0  0  0  0
  127.5510  125.1410   62.6200 H   0  0  0  0  0  0  0  0  0  0  0  0
  128.4787  126.4223   70.5674 H   0  0  0  0  0  0  0  0  0  0  0  0
  129.1921  126.5277   72.9457 H   0  0  0  0  0  0  0  0  0  0  0  0
  131.2499  127.7811   73.5728 H   0  0  0  0  0  0  0  0  0  0  0  0
  132.5935  128.9412   71.8248 H   0  0  0  0  0  0  0  0  0  0  0  0
  131.8795  128.8443   69.4466 H   0  0  0  0  0  0  0  0  0  0  0  0
  128.4379  129.3165   68.4750 H   0  0  0  0  0  0  0  0  0  0  0  0
  127.0000  127.5070   63.3910 H   0  0  0  0  0  0  0  0  0  0  0  0
  128.3870  128.3780   62.8660 H   0  0  0  0  0  0  0  0  0  0  0  0
  129.3204  122.4301   61.1596 H   0  0  0  0  0  0  0  0  0  0  0  0
  128.6734  121.4263   58.9802 H   0  0  0  0  0  0  0  0  0  0  0  0
  1  2  1  0
  2  3  1  0
  3  4  2  0
  3  5  1  0
  5  6  2  0
  6  7  1  0
  7  8  2  0
  8  9  1  0
  9 10  1  0
 10 11  2  0
 10 12  1  0
 12 13  1  0
 13 14  1  0
 14 15  2  0
 15 16  1  0
 16 17  1  0
 17 18  2  0
 18 19  1  0
 19 20  2  0
 20 21  1  0
 21 22  2  0
 16 23  2  0
 23 24  1  0
 24 25  1  0
 25 26  1  0
 25 27  1  0
 25 28  1  0
 24 29  2  0
 29 30  1  0
 30 31  1  0
  8 32  1  0
 32 33  2  0
 33  5  1  0
 30 12  2  0
 29 14  1  0
 22 17  1  0
  1 34  1  0
  1 35  1  0
  1 36  1  0
  6 37  1  0
  7 38  1  0
  9 39  1  0
 18 40  1  0
 19 41  1  0
 20 42  1  0
 21 43  1  0
 22 44  1  0
 23 45  1  0
 31 46  1  0
 31 47  1  0
 32 48  1  0
 33 49  1  0
M  END
>  <Binding energies>  (1) 
[-7.63]

>  <Ligand effiencies>  (1) 
[-0.21194444444444444]

>  <Interactions>  (1) 
["V-A:HIS:456:CE1:4069, V-A:GLU:543:CB:4906, V-A:GLU:543:CG:4907, V-B:GLU:543:CD:9879, V-A:GLU:543:CD:4908, V-B:HIS:456:CE1:9041, V-B:GLU:543:CG:9878, V-B:MET:535:CE:9806, V-B:TYR:539:CD2:9845, V-B:PRO:540:CA:9854, V-B:TYR:539:CE2:9847, V-B:PRO:540:N:9855, V-B:TYR:539:CE1:9846, H-B:TYR:539:N:9841, V-B:TYR:539:C:9838, V-B:PRO:540:CD:9858, V-B:TYR:539:CD1:9844, V-B:TYR:539:CG:9843, V-A:GLY:544:C:4912, V-B:TYR:484:CE1:9316, V-B:TYR:484:CZ:9318, V-A:ARG:545:CA:4919, H-B:GLU:543:OE1:9880, H-B:GLU:543:OE2:9881"]

$$$$
4cc_Grossjean_2025
     RDKit          3D

 47 50  0  0  0  0  0  0  0  0999 V2000
  123.8840  130.9910   56.9750 C   0  0  0  0  0  0  0  0  0  0  0  0
  123.7020  131.8240   58.1150 O   0  0  0  0  0  0  0  0  0  0  0  0
  124.2020  131.4150   59.3360 C   0  0  0  0  0  0  0  0  0  0  0  0
  125.2500  130.4960   59.3030 C   0  0  0  0  0  0  0  0  0  0  0  0
  125.8200  130.0270   60.4840 C   0  0  0  0  0  0  0  0  0  0  0  0
  125.3390  130.4660   61.7190 C   0  0  0  0  0  0  0  0  0  0  0  0
  125.9870  129.9500   62.8570 N   0  0  0  0  0  0  0  0  0  0  0  0
  125.5450  129.8790   64.1360 C   0  0  0  0  0  0  0  0  0  0  0  0
  124.4270  130.2460   64.4990 O   0  0  0  0  0  0  0  0  0  0  0  0
  126.4980  129.3220   65.1000 C   0  0  0  0  0  0  0  0  0  0  0  0
  126.4040  129.7710   66.8020 S   0  0  0  0  0  0  0  0  0  0  0  0
  127.7650  128.7480   67.1940 C   0  0  0  0  0  0  0  0  0  0  0  0
  128.2220  128.6460   68.4400 N   0  0  0  0  0  0  0  0  0  0  0  0
  129.2780  127.8180   68.6490 C   0  0  0  0  0  0  0  0  0  0  0  0
  129.7730  127.7260   70.0630 C   0  0  0  0  0  0  0  0  0  0  0  0
  130.9000  128.4550   70.4790 C   0  0  0  0  0  0  0  0  0  0  0  0
  131.3660  128.3730   71.7880 C   0  0  0  0  0  0  0  0  0  0  0  0
  130.7100  127.5570   72.7040 C   0  0  0  0  0  0  0  0  0  0  0  0
  129.5940  126.8220   72.3180 C   0  0  0  0  0  0  0  0  0  0  0  0
  129.1320  126.9060   71.0070 C   0  0  0  0  0  0  0  0  0  0  0  0
  129.8810  127.1110   67.6040 C   0  0  0  0  0  0  0  0  0  0  0  0
  129.4090  127.2130   66.2860 C   0  0  0  0  0  0  0  0  0  0  0  0
  130.1130  126.4040   65.1900 C   0  0  0  0  0  0  0  0  0  0  0  0
  130.5010  127.1520   64.1540 F   0  0  0  0  0  0  0  0  0  0  0  0
  131.2020  125.8210   65.6900 F   0  0  0  0  0  0  0  0  0  0  0  0
  129.2890  125.4680   64.7200 F   0  0  0  0  0  0  0  0  0  0  0  0
  128.2950  128.0710   66.0560 C   0  0  0  0  0  0  0  0  0  0  0  0
  127.5520  128.4230   64.8710 C   0  0  0  0  0  0  0  0  0  0  0  0
  127.8510  127.9170   63.6320 N   0  0  0  0  0  0  0  0  0  0  0  0
  124.2920  131.4000   61.7600 C   0  0  0  0  0  0  0  0  0  0  0  0
  123.7270  131.8660   60.5770 C   0  0  0  0  0  0  0  0  0  0  0  0
  124.1081  129.9651   57.3025 H   0  0  0  0  0  0  0  0  0  0  0  0
  122.9648  130.9904   56.3708 H   0  0  0  0  0  0  0  0  0  0  0  0
  124.7197  131.3738   56.3708 H   0  0  0  0  0  0  0  0  0  0  0  0
  125.6303  130.1380   58.3349 H   0  0  0  0  0  0  0  0  0  0  0  0
  126.6518  129.3084   60.4436 H   0  0  0  0  0  0  0  0  0  0  0  0
  126.8970  129.5540   62.6760 H   0  0  0  0  0  0  0  0  0  0  0  0
  131.4226  129.1011   69.7583 H   0  0  0  0  0  0  0  0  0  0  0  0
  132.2494  128.9511   72.0969 H   0  0  0  0  0  0  0  0  0  0  0  0
  131.0759  127.4927   73.7394 H   0  0  0  0  0  0  0  0  0  0  0  0
  129.0786  126.1772   73.0451 H   0  0  0  0  0  0  0  0  0  0  0  0
  128.2508  126.3208   70.7055 H   0  0  0  0  0  0  0  0  0  0  0  0
  130.7426  126.4619   67.8192 H   0  0  0  0  0  0  0  0  0  0  0  0
  127.2580  127.2390   63.1740 H   0  0  0  0  0  0  0  0  0  0  0  0
  128.6820  128.2050   63.1340 H   0  0  0  0  0  0  0  0  0  0  0  0
  123.9178  131.7639   62.7283 H   0  0  0  0  0  0  0  0  0  0  0  0
  122.9023  132.5929   60.6148 H   0  0  0  0  0  0  0  0  0  0  0  0
  1  2  1  0
  2  3  1  0
  3  4  2  0
  4  5  1  0
  5  6  2  0
  6  7  1  0
  7  8  1  0
  8  9  2  0
  8 10  1  0
 10 11  1  0
 11 12  1  0
 12 13  2  0
 13 14  1  0
 14 15  1  0
 15 16  2  0
 16 17  1  0
 17 18  2  0
 18 19  1  0
 19 20  2  0
 14 21  2  0
 21 22  1  0
 22 23  1  0
 23 24  1  0
 23 25  1  0
 23 26  1  0
 22 27  2  0
 27 28  1  0
 28 29  1  0
  6 30  1  0
 30 31  2  0
 31  3  1  0
 28 10  2  0
 27 12  1  0
 20 15  1  0
  1 32  1  0
  1 33  1  0
  1 34  1  0
  4 35  1  0
  5 36  1  0
  7 37  1  0
 16 38  1  0
 17 39  1  0
 18 40  1  0
 19 41  1  0
 20 42  1  0
 21 43  1  0
 29 44  1  0
 29 45  1  0
 30 46  1  0
 31 47  1  0
M  END
>  <Binding energies>  (1) 
[-7.42]

>  <Ligand effiencies>  (1) 
[-0.21823529411764706]

>  <Interactions>  (1) 
["V-A:HIS:456:CE1:4069, V-A:GLU:543:CB:4906, V-A:GLU:543:CG:4907, V-B:GLU:543:CD:9879, V-A:GLU:543:CD:4908, V-B:HIS:456:CE1:9041, V-B:GLU:543:CG:9878, V-B:ASP:366:CG:8184, V-B:ASP:366:CA:8181, H-A:TYR:539:OH:4878, V-B:ASP:366:C:8179, V-B:ASP:366:CB:8183, V-B:TYR:531:CZ:9765, V-A:GLY:544:C:4912, V-A:TYR:539:CZ:4877, H-B:GLY:454:N:9021, H-B:ARG:545:NH2:9899, V-B:ARG:545:CZ:9897, H-B:GLU:543:OE1:9880, H-B:GLU:543:OE2:9881, H-A:GLU:543:OE1:4909, V-B:ILE:369:CG2:8208, V-B:ILE:369:CB:8207, V-B:TYR:531:CE1:9763, V-B:ASN:370:CB:8216, V-B:ILE:369:CD1:8210"]

$$$$
4cd_Grossjean_2025
     RDKit          3D

 43 46  0  0  0  0  0  0  0  0999 V2000
  127.8850  123.7950   63.3580 N   0  0  0  0  0  0  0  0  0  0  0  0
  128.5170  123.4840   62.1810 C   0  0  0  0  0  0  0  0  0  0  0  0
  129.9010  123.2620   62.0860 C   0  0  0  0  0  0  0  0  0  0  0  0
  130.9110  123.3270   63.1460 C   0  0  0  0  0  0  0  0  0  0  0  0
  131.5610  122.3280   63.4560 O   0  0  0  0  0  0  0  0  0  0  0  0
  131.0660  124.5420   63.7270 N   0  0  0  0  0  0  0  0  0  0  0  0
  131.9000  124.9260   64.7930 C   0  0  0  0  0  0  0  0  0  0  0  0
  131.2870  125.6480   65.8210 C   0  0  0  0  0  0  0  0  0  0  0  0
  132.0260  126.0620   66.9260 C   0  0  0  0  0  0  0  0  0  0  0  0
  133.3800  125.7470   67.0080 C   0  0  0  0  0  0  0  0  0  0  0  0
  134.0000  125.0170   65.9980 C   0  0  0  0  0  0  0  0  0  0  0  0
  133.2640  124.6010   64.8910 C   0  0  0  0  0  0  0  0  0  0  0  0
  130.3710  122.8760   60.4320 S   0  0  0  0  0  0  0  0  0  0  0  0
  128.7190  123.0240   59.8800 C   0  0  0  0  0  0  0  0  0  0  0  0
  128.3940  122.8350   58.6030 N   0  0  0  0  0  0  0  0  0  0  0  0
  127.0860  122.9850   58.2670 C   0  0  0  0  0  0  0  0  0  0  0  0
  126.7500  122.7690   56.8200 C   0  0  0  0  0  0  0  0  0  0  0  0
  127.6200  123.2060   55.8070 C   0  0  0  0  0  0  0  0  0  0  0  0
  127.3150  123.0080   54.4630 C   0  0  0  0  0  0  0  0  0  0  0  0
  126.1310  122.3680   54.1120 C   0  0  0  0  0  0  0  0  0  0  0  0
  125.2540  121.9230   55.0940 C   0  0  0  0  0  0  0  0  0  0  0  0
  125.5630  122.1210   56.4370 C   0  0  0  0  0  0  0  0  0  0  0  0
  126.1100  123.3040   59.2160 C   0  0  0  0  0  0  0  0  0  0  0  0
  126.4430  123.5010   60.5670 C   0  0  0  0  0  0  0  0  0  0  0  0
  125.3230  123.8520   61.5540 C   0  0  0  0  0  0  0  0  0  0  0  0
  125.3880  123.1530   62.6900 F   0  0  0  0  0  0  0  0  0  0  0  0
  125.3940  125.1430   61.8750 F   0  0  0  0  0  0  0  0  0  0  0  0
  124.1380  123.6000   60.9990 F   0  0  0  0  0  0  0  0  0  0  0  0
  127.8120  123.3580   60.9280 C   0  0  0  0  0  0  0  0  0  0  0  0
  126.9100  124.0580   63.3870 H   0  0  0  0  0  0  0  0  0  0  0  0
  128.3750  123.7680   64.2410 H   0  0  0  0  0  0  0  0  0  0  0  0
  130.5170  125.2940   63.3380 H   0  0  0  0  0  0  0  0  0  0  0  0
  130.2159  125.8902   65.7567 H   0  0  0  0  0  0  0  0  0  0  0  0
  131.5425  126.6353   67.7307 H   0  0  0  0  0  0  0  0  0  0  0  0
  133.9648  126.0781   67.8788 H   0  0  0  0  0  0  0  0  0  0  0  0
  135.0690  124.7691   66.0739 H   0  0  0  0  0  0  0  0  0  0  0  0
  133.7498  124.0187   64.0942 H   0  0  0  0  0  0  0  0  0  0  0  0
  128.5573  123.7128   56.0802 H   0  0  0  0  0  0  0  0  0  0  0  0
  128.0073  123.3561   53.6823 H   0  0  0  0  0  0  0  0  0  0  0  0
  125.8873  122.2131   53.0506 H   0  0  0  0  0  0  0  0  0  0  0  0
  124.3194  121.4164   54.8113 H   0  0  0  0  0  0  0  0  0  0  0  0
  124.8671  121.7646   57.2107 H   0  0  0  0  0  0  0  0  0  0  0  0
  125.0613  123.4027   58.8990 H   0  0  0  0  0  0  0  0  0  0  0  0
  1  2  1  0
  2  3  2  0
  3  4  1  0
  4  5  2  0
  4  6  1  0
  6  7  1  0
  7  8  2  0
  8  9  1  0
  9 10  2  0
 10 11  1  0
 11 12  2  0
  3 13  1  0
 13 14  1  0
 14 15  2  0
 15 16  1  0
 16 17  1  0
 17 18  2  0
 18 19  1  0
 19 20  2  0
 20 21  1  0
 21 22  2  0
 16 23  2  0
 23 24  1  0
 24 25  1  0
 25 26  1  0
 25 27  1  0
 25 28  1  0
 24 29  2  0
 29  2  1  0
 12  7  1  0
 29 14  1  0
 22 17  1  0
  1 30  1  0
  1 31  1  0
  6 32  1  0
  8 33  1  0
  9 34  1  0
 10 35  1  0
 11 36  1  0
 12 37  1  0
 18 38  1  0
 19 39  1  0
 20 40  1  0
 21 41  1  0
 22 42  1  0
 23 43  1  0
M  END
>  <Binding energies>  (1) 
[-7.73]

>  <Ligand effiencies>  (1) 
[-0.2415625]

>  <Interactions>  (1) 
["V-A:HIS:456:CE1:4069, V-B:GLU:543:CD:9879, V-B:GLU:543:CG:9878, V-B:MET:535:CE:9806, V-B:ASP:366:CG:8184, V-B:LEU:363:CD1:8160, V-B:ASN:362:C:8143, V-B:PRO:540:CA:9854, V-B:TYR:539:CE2:9847, V-B:PRO:540:C:9852, V-B:ALA:541:CB:9863, V-B:PRO:540:N:9855, V-B:TYR:539:CE1:9846, V-B:PRO:540:CB:9856, V-B:TYR:539:CZ:9848, V-B:TYR:539:C:9838, V-B:PRO:540:CD:9858, V-A:ARG:545:CZ:4926, V-B:ILE:538:CA:9831, V-B:TYR:539:CD1:9844, V-B:ILE:538:CG2:9834, V-B:ASN:362:CB:8147, V-B:ILE:538:CD1:9836, V-A:GLY:454:CA:4048, V-B:ALA:541:C:9859, V-B:ALA:541:CA:9861, V-A:ARG:545:CD:4923, V-A:ARG:545:CG:4922, V-B:ARG:545:CZ:9897, H-B:GLU:543:OE2:9881, V-B:ILE:538:CB:9833, V-B:ILE:538:C:9829, V-A:GLY:453:C:4041, V-A:GLY:453:CA:4043, V-B:MET:535:CB:9803, V-B:VAL:537:C:9821, V-B:ILE:538:CG1:9835"]

$$$$
4ce_Grossjean_2025
     RDKit          3D

 45 48  0  0  0  0  0  0  0  0999 V2000
  124.7950  130.4240   58.1290 C   0  0  0  0  0  0  0  0  0  0  0  0
  124.5820  130.9840   59.5230 C   0  0  0  0  0  0  0  0  0  0  0  0
  123.6800  132.0240   59.7630 C   0  0  0  0  0  0  0  0  0  0  0  0
  123.5290  132.4830   61.0720 C   0  0  0  0  0  0  0  0  0  0  0  0
  124.2720  131.8970   62.0990 C   0  0  0  0  0  0  0  0  0  0  0  0
  125.1620  130.8620   61.7880 C   0  0  0  0  0  0  0  0  0  0  0  0
  125.8640  130.2960   62.8680 N   0  0  0  0  0  0  0  0  0  0  0  0
  125.4090  129.9880   64.1080 C   0  0  0  0  0  0  0  0  0  0  0  0
  124.2440  130.1580   64.4710 O   0  0  0  0  0  0  0  0  0  0  0  0
  126.4040  129.4230   65.0220 C   0  0  0  0  0  0  0  0  0  0  0  0
  126.3750  129.8400   66.7330 S   0  0  0  0  0  0  0  0  0  0  0  0
  127.7380  128.7970   67.0570 C   0  0  0  0  0  0  0  0  0  0  0  0
  128.2340  128.6650   68.2850 N   0  0  0  0  0  0  0  0  0  0  0  0
  129.2860  127.8180   68.4420 C   0  0  0  0  0  0  0  0  0  0  0  0
  129.8180  127.6880   69.8380 C   0  0  0  0  0  0  0  0  0  0  0  0
  130.9730  128.3840   70.2320 C   0  0  0  0  0  0  0  0  0  0  0  0
  131.4770  128.2620   71.5250 C   0  0  0  0  0  0  0  0  0  0  0  0
  130.8300  127.4420   72.4430 C   0  0  0  0  0  0  0  0  0  0  0  0
  129.6860  126.7410   72.0780 C   0  0  0  0  0  0  0  0  0  0  0  0
  129.1870  126.8630   70.7840 C   0  0  0  0  0  0  0  0  0  0  0  0
  129.8470  127.1270   67.3630 C   0  0  0  0  0  0  0  0  0  0  0  0
  129.3340  127.2630   66.0630 C   0  0  0  0  0  0  0  0  0  0  0  0
  129.9940  126.4750   64.9270 C   0  0  0  0  0  0  0  0  0  0  0  0
  130.2660  127.2240   63.8570 F   0  0  0  0  0  0  0  0  0  0  0  0
  131.1460  125.9520   65.3510 F   0  0  0  0  0  0  0  0  0  0  0  0
  129.1860  125.4920   64.5310 F   0  0  0  0  0  0  0  0  0  0  0  0
  128.2210  128.1360   65.8890 C   0  0  0  0  0  0  0  0  0  0  0  0
  127.4390  128.5150   64.7380 C   0  0  0  0  0  0  0  0  0  0  0  0
  127.6860  128.0290   63.4810 N   0  0  0  0  0  0  0  0  0  0  0  0
  125.3120  130.4040   60.5110 N   0  0  0  0  0  0  0  0  0  0  0  0
  125.1852  129.3981   58.2017 H   0  0  0  0  0  0  0  0  0  0  0  0
  123.8376  130.4147   57.5874 H   0  0  0  0  0  0  0  0  0  0  0  0
  125.5166  131.0533   57.5874 H   0  0  0  0  0  0  0  0  0  0  0  0
  123.1028  132.4701   58.9397 H   0  0  0  0  0  0  0  0  0  0  0  0
  122.8287  133.3018   61.2937 H   0  0  0  0  0  0  0  0  0  0  0  0
  124.1596  132.2435   63.1369 H   0  0  0  0  0  0  0  0  0  0  0  0
  126.8240  130.0570   62.6680 H   0  0  0  0  0  0  0  0  0  0  0  0
  131.4868  129.0347   69.5091 H   0  0  0  0  0  0  0  0  0  0  0  0
  132.3832  128.8121   71.8186 H   0  0  0  0  0  0  0  0  0  0  0  0
  131.2259  127.3473   73.4649 H   0  0  0  0  0  0  0  0  0  0  0  0
  129.1779  126.0935   72.8078 H   0  0  0  0  0  0  0  0  0  0  0  0
  128.2838  126.3042   70.4976 H   0  0  0  0  0  0  0  0  0  0  0  0
  130.7073  126.4638   67.5363 H   0  0  0  0  0  0  0  0  0  0  0  0
  128.4210  128.4030   62.8970 H   0  0  0  0  0  0  0  0  0  0  0  0
  127.1350  127.2760   63.0910 H   0  0  0  0  0  0  0  0  0  0  0  0
  1  2  1  0
  2  3  2  0
  3  4  1  0
  4  5  2  0
  5  6  1  0
  6  7  1  0
  7  8  1  0
  8  9  2  0
  8 10  1  0
 10 11  1  0
 11 12  1  0
 12 13  2  0
 13 14  1  0
 14 15  1  0
 15 16  2  0
 16 17  1  0
 17 18  2  0
 18 19  1  0
 19 20  2  0
 14 21  2  0
 21 22  1  0
 22 23  1  0
 23 24  1  0
 23 25  1  0
 23 26  1  0
 22 27  2  0
 27 28  1  0
 28 29  1  0
  6 30  2  0
 30  2  1  0
 28 10  2  0
 27 12  1  0
 20 15  1  0
  1 31  1  0
  1 32  1  0
  1 33  1  0
  3 34  1  0
  4 35  1  0
  5 36  1  0
  7 37  1  0
 16 38  1  0
 17 39  1  0
 18 40  1  0
 19 41  1  0
 20 42  1  0
 21 43  1  0
 29 44  1  0
 29 45  1  0
M  END
>  <Binding energies>  (1) 
[-7.15]

>  <Ligand effiencies>  (1) 
[-0.21666666666666667]

>  <Interactions>  (1) 
["V-A:HIS:456:CE1:4069, V-A:HIS:456:CG:4065, V-A:GLU:543:CB:4906, V-A:GLU:543:CG:4907, V-A:HIS:456:CD2:4067, V-B:GLU:543:CD:9879, V-A:GLU:543:CD:4908, V-B:HIS:456:CE1:9041, V-B:GLU:543:CG:9878, V-B:ASP:366:CG:8184, V-B:ASP:366:CA:8181, V-B:ASP:366:CB:8183, V-A:GLY:544:C:4912, V-B:TYR:484:CZ:9318, V-A:ARG:545:CA:4919, H-B:GLY:454:N:9021, H-B:ARG:545:NH2:9899, V-B:ARG:545:CZ:9897, H-B:GLU:543:OE1:9880, H-B:GLU:543:OE2:9881, V-B:ILE:369:CG2:8208, V-B:ILE:369:CB:8207, V-B:ILE:369:CD1:8210, V-B:ILE:369:CG1:8209"]

$$$$
4cf_Grossjean_2025
     RDKit          3D

 42 45  0  0  0  0  0  0  0  0999 V2000
  128.0140  123.8440   63.3490 N   0  0  0  0  0  0  0  0  0  0  0  0
  128.6300  123.5270   62.1660 C   0  0  0  0  0  0  0  0  0  0  0  0
  130.0140  123.3170   62.0510 C   0  0  0  0  0  0  0  0  0  0  0  0
  131.0430  123.4200   63.0900 C   0  0  0  0  0  0  0  0  0  0  0  0
  131.8060  122.4790   63.3120 O   0  0  0  0  0  0  0  0  0  0  0  0
  131.0860  124.6030   63.7500 N   0  0  0  0  0  0  0  0  0  0  0  0
  131.9070  125.0050   64.8210 C   0  0  0  0  0  0  0  0  0  0  0  0
  131.4770  125.7190   65.9560 C   0  0  0  0  0  0  0  0  0  0  0  0
  132.4020  126.0690   66.9420 C   0  0  0  0  0  0  0  0  0  0  0  0
  133.7360  125.7000   66.7680 C   0  0  0  0  0  0  0  0  0  0  0  0
  134.1770  125.0190   65.6810 N   0  0  0  0  0  0  0  0  0  0  0  0
  133.2660  124.6860   64.7300 C   0  0  0  0  0  0  0  0  0  0  0  0
  130.4630  122.9230   60.3940 S   0  0  0  0  0  0  0  0  0  0  0  0
  128.8010  123.0490   59.8660 C   0  0  0  0  0  0  0  0  0  0  0  0
  128.4590  122.8510   58.5950 N   0  0  0  0  0  0  0  0  0  0  0  0
  127.1440  122.9880   58.2780 C   0  0  0  0  0  0  0  0  0  0  0  0
  126.7890  122.7660   56.8370 C   0  0  0  0  0  0  0  0  0  0  0  0
  127.6400  123.2070   55.8120 C   0  0  0  0  0  0  0  0  0  0  0  0
  127.3190  123.0050   54.4720 C   0  0  0  0  0  0  0  0  0  0  0  0
  126.1360  122.3530   54.1380 C   0  0  0  0  0  0  0  0  0  0  0  0
  125.2750  121.9010   55.1340 C   0  0  0  0  0  0  0  0  0  0  0  0
  125.6020  122.1060   56.4710 C   0  0  0  0  0  0  0  0  0  0  0  0
  126.1800  123.2980   59.2410 C   0  0  0  0  0  0  0  0  0  0  0  0
  126.5300  123.5040   60.5840 C   0  0  0  0  0  0  0  0  0  0  0  0
  125.4220  123.8460   61.5880 C   0  0  0  0  0  0  0  0  0  0  0  0
  125.5430  123.1940   62.7460 F   0  0  0  0  0  0  0  0  0  0  0  0
  125.4480  125.1510   61.8610 F   0  0  0  0  0  0  0  0  0  0  0  0
  124.2340  123.5280   61.0740 F   0  0  0  0  0  0  0  0  0  0  0  0
  127.9080  123.3820   60.9260 C   0  0  0  0  0  0  0  0  0  0  0  0
  127.2400  124.4920   63.3910 H   0  0  0  0  0  0  0  0  0  0  0  0
  128.3130  123.4360   64.2240 H   0  0  0  0  0  0  0  0  0  0  0  0
  130.4390  125.3110   63.4340 H   0  0  0  0  0  0  0  0  0  0  0  0
  130.4190  125.9994   66.0653 H   0  0  0  0  0  0  0  0  0  0  0  0
  132.0853  126.6241   67.8373 H   0  0  0  0  0  0  0  0  0  0  0  0
  134.4627  125.9735   67.5471 H   0  0  0  0  0  0  0  0  0  0  0  0
  133.6148  124.1373   63.8427 H   0  0  0  0  0  0  0  0  0  0  0  0
  128.5771  123.7213   56.0715 H   0  0  0  0  0  0  0  0  0  0  0  0
  127.9972  123.3591   53.6816 H   0  0  0  0  0  0  0  0  0  0  0  0
  125.8796  122.1938   53.0802 H   0  0  0  0  0  0  0  0  0  0  0  0
  124.3415  121.3847   54.8658 H   0  0  0  0  0  0  0  0  0  0  0  0
  124.9202  121.7456   57.2554 H   0  0  0  0  0  0  0  0  0  0  0  0
  125.1253  123.3822   58.9400 H   0  0  0  0  0  0  0  0  0  0  0  0
  1  2  1  0
  2  3  2  0
  3  4  1  0
  4  5  2  0
  4  6  1  0
  6  7  1  0
  7  8  2  0
  8  9  1  0
  9 10  2  0
 10 11  1  0
 11 12  2  0
  3 13  1  0
 13 14  1  0
 14 15  2  0
 15 16  1  0
 16 17  1  0
 17 18  2  0
 18 19  1  0
 19 20  2  0
 20 21  1  0
 21 22  2  0
 16 23  2  0
 23 24  1  0
 24 25  1  0
 25 26  1  0
 25 27  1  0
 25 28  1  0
 24 29  2  0
 29  2  1  0
 12  7  1  0
 29 14  1  0
 22 17  1  0
  1 30  1  0
  1 31  1  0
  6 32  1  0
  8 33  1  0
  9 34  1  0
 10 35  1  0
 12 36  1  0
 18 37  1  0
 19 38  1  0
 20 39  1  0
 21 40  1  0
 22 41  1  0
 23 42  1  0
M  END
>  <Binding energies>  (1) 
[-7.82]

>  <Ligand effiencies>  (1) 
[-0.244375]

>  <Interactions>  (1) 
["V-A:HIS:456:CE1:4069, V-B:GLU:543:CD:9879, V-B:GLU:543:CG:9878, V-B:MET:535:CE:9806, V-B:LEU:363:CD1:8160, V-B:ASN:362:C:8143, V-B:PRO:540:CA:9854, V-B:TYR:539:CE2:9847, V-B:ALA:541:CB:9863, V-B:PRO:540:N:9855, V-B:TYR:539:CE1:9846, V-B:PRO:540:CB:9856, V-B:TYR:539:CZ:9848, V-B:TYR:539:C:9838, V-B:PRO:540:CD:9858, V-A:ARG:545:CZ:4926, V-B:ILE:538:CA:9831, V-B:TYR:539:CD1:9844, H-A:GLY:454:N:4049, V-B:ILE:538:CG2:9834, V-B:ASN:362:CB:8147, H-A:TYR:484:OH:4347, V-B:ILE:538:CD1:9836, V-A:GLY:454:CA:4048, V-B:ALA:541:C:9859, V-B:ALA:541:CA:9861, H-A:ARG:545:NE:4924, V-A:ARG:545:CD:4923, V-A:ARG:545:CG:4922, V-B:ARG:545:CZ:9897, H-B:GLU:543:OE2:9881, V-B:ILE:538:CB:9833, V-B:ILE:538:C:9829, V-B:MET:535:CB:9803, V-B:VAL:537:C:9821, V-B:ILE:538:CG1:9835"]

$$$$
4cg_Grossjean_2025
     RDKit          3D

 46 49  0  0  0  0  0  0  0  0999 V2000
  131.3650  124.9910   66.7810 N   0  0  0  0  0  0  0  0  0  0  0  0
  130.9150  125.8090   65.7760 C   0  0  0  0  0  0  0  0  0  0  0  0
  131.4320  125.7800   64.4730 C   0  0  0  0  0  0  0  0  0  0  0  0
  132.4590  124.8990   63.9190 C   0  0  0  0  0  0  0  0  0  0  0  0
  133.6000  124.8700   64.3840 O   0  0  0  0  0  0  0  0  0  0  0  0
  132.0900  124.1590   62.8520 N   0  0  0  0  0  0  0  0  0  0  0  0
  132.9410  123.1970   62.1530 C   0  0  0  0  0  0  0  0  0  0  0  0
  132.1940  121.9520   61.6880 C   0  0  0  0  0  0  0  0  0  0  0  0
  130.7980  121.9140   61.7570 C   0  0  0  0  0  0  0  0  0  0  0  0
  130.1100  120.7910   61.3040 C   0  0  0  0  0  0  0  0  0  0  0  0
  130.8190  119.7150   60.7750 C   0  0  0  0  0  0  0  0  0  0  0  0
  132.2090  119.7540   60.6890 C   0  0  0  0  0  0  0  0  0  0  0  0
  132.8980  120.8770   61.1400 C   0  0  0  0  0  0  0  0  0  0  0  0
  130.6160  126.9440   63.4320 S   0  0  0  0  0  0  0  0  0  0  0  0
  129.6040  127.4780   64.7540 C   0  0  0  0  0  0  0  0  0  0  0  0
  128.6940  128.4340   64.5890 N   0  0  0  0  0  0  0  0  0  0  0  0
  127.9500  128.7800   65.6720 C   0  0  0  0  0  0  0  0  0  0  0  0
  126.9320  129.8630   65.4530 C   0  0  0  0  0  0  0  0  0  0  0  0
  125.5690  129.6320   65.6990 C   0  0  0  0  0  0  0  0  0  0  0  0
  124.6220  130.6310   65.4970 C   0  0  0  0  0  0  0  0  0  0  0  0
  125.0260  131.8830   65.0410 C   0  0  0  0  0  0  0  0  0  0  0  0
  126.3680  132.1380   64.7860 C   0  0  0  0  0  0  0  0  0  0  0  0
  127.3120  131.1350   64.9890 C   0  0  0  0  0  0  0  0  0  0  0  0
  128.1390  128.1760   66.9200 C   0  0  0  0  0  0  0  0  0  0  0  0
  129.0970  127.1670   67.1060 C   0  0  0  0  0  0  0  0  0  0  0  0
  129.2520  126.5490   68.5000 C   0  0  0  0  0  0  0  0  0  0  0  0
  129.3800  125.2210   68.4730 F   0  0  0  0  0  0  0  0  0  0  0  0
  130.3390  127.0430   69.0940 F   0  0  0  0  0  0  0  0  0  0  0  0
  128.1800  126.8300   69.2400 F   0  0  0  0  0  0  0  0  0  0  0  0
  129.8720  126.7870   65.9720 C   0  0  0  0  0  0  0  0  0  0  0  0
  132.3010  125.0670   67.1540 H   0  0  0  0  0  0  0  0  0  0  0  0
  130.7680  124.2860   67.1910 H   0  0  0  0  0  0  0  0  0  0  0  0
  131.1210  124.1790   62.5720 H   0  0  0  0  0  0  0  0  0  0  0  0
  133.3757  123.6919   61.2720 H   0  0  0  0  0  0  0  0  0  0  0  0
  133.7101  122.8661   62.8665 H   0  0  0  0  0  0  0  0  0  0  0  0
  130.2437  122.7703   62.1687 H   0  0  0  0  0  0  0  0  0  0  0  0
  129.0122  120.7539   61.3637 H   0  0  0  0  0  0  0  0  0  0  0  0
  130.2762  118.8259   60.4217 H   0  0  0  0  0  0  0  0  0  0  0  0
  132.7601  118.9010   60.2664 H   0  0  0  0  0  0  0  0  0  0  0  0
  133.9947  120.9175   61.0649 H   0  0  0  0  0  0  0  0  0  0  0  0
  125.2444  128.6441   66.0576 H   0  0  0  0  0  0  0  0  0  0  0  0
  123.5586  130.4326   65.6967 H   0  0  0  0  0  0  0  0  0  0  0  0
  124.2789  132.6745   64.8818 H   0  0  0  0  0  0  0  0  0  0  0  0
  126.6832  133.1282   64.4252 H   0  0  0  0  0  0  0  0  0  0  0  0
  128.3727  131.3409   64.7830 H   0  0  0  0  0  0  0  0  0  0  0  0
  127.5240  128.4986   67.7731 H   0  0  0  0  0  0  0  0  0  0  0  0
  1  2  1  0
  2  3  2  0
  3  4  1  0
  4  5  2  0
  4  6  1  0
  6  7  1  0
  7  8  1  0
  8  9  2  0
  9 10  1  0
 10 11  2  0
 11 12  1  0
 12 13  2  0
  3 14  1  0
 14 15  1  0
 15 16  2  0
 16 17  1  0
 17 18  1  0
 18 19  2  0
 19 20  1  0
 20 21  2  0
 21 22  1  0
 22 23  2  0
 17 24  2  0
 24 25  1  0
 25 26  1  0
 26 27  1  0
 26 28  1  0
 26 29  1  0
 25 30  2  0
 30  2  1  0
 13  8  1  0
 30 15  1  0
 23 18  1  0
  1 31  1  0
  1 32  1  0
  6 33  1  0
  7 34  1  0
  7 35  1  0
  9 36  1  0
 10 37  1  0
 11 38  1  0
 12 39  1  0
 13 40  1  0
 19 41  1  0
 20 42  1  0
 21 43  1  0
 22 44  1  0
 23 45  1  0
 24 46  1  0
M  END
>  <Binding energies>  (1) 
[-7.38]

>  <Ligand effiencies>  (1) 
[-0.22363636363636363]

>  <Interactions>  (1) 
["V-A:HIS:456:CE1:4069, V-A:GLU:543:CG:4907, V-B:GLU:543:CD:9879, V-A:GLU:543:CD:4908, V-B:HIS:456:CE1:9041, H-A:HIS:456:NE2:4070, V-B:GLU:543:CB:9877, V-B:GLU:543:CG:9878, V-B:GLU:543:CA:9875, V-A:TRP:381:CZ2:3369, V-A:TRP:381:CH2:3371, V-B:TYR:539:CD2:9845, V-B:TYR:539:CE2:9847, V-B:ALA:541:CB:9863, V-A:LEU:475:CD2:4258, V-A:ILE:369:CG2:3236, H-A:GLY:454:N:4049, H-A:TYR:484:OH:4347, V-A:TYR:484:CE1:4344, V-A:TYR:484:CZ:4346, V-A:ILE:369:CD1:3238, V-B:GLY:454:CA:9020, V-B:ARG:545:CZ:9897, V-B:LEU:475:CD1:9229"]

$$$$
4ch_Grossjean_2025
     RDKit          3D

 58 61  0  0  0  0  0  0  0  0999 V2000
  129.3360  128.9690   75.1860 C   0  0  0  0  0  0  0  0  0  0  0  0
  130.2450  128.3350   74.2930 O   0  0  0  0  0  0  0  0  0  0  0  0
  129.7760  127.8250   73.0970 C   0  0  0  0  0  0  0  0  0  0  0  0
  129.8340  128.5130   71.8740 C   0  0  0  0  0  0  0  0  0  0  0  0
  129.3420  127.9350   70.7030 C   0  0  0  0  0  0  0  0  0  0  0  0
  129.3880  128.7090   69.3900 C   0  0  0  0  0  0  0  0  0  0  0  0
  129.7850  127.9050   68.2330 N   0  0  0  0  0  0  0  0  0  0  0  0
  129.0500  126.9220   67.6720 C   0  0  0  0  0  0  0  0  0  0  0  0
  127.9270  126.6190   68.0800 O   0  0  0  0  0  0  0  0  0  0  0  0
  129.6500  126.2530   66.5170 C   0  0  0  0  0  0  0  0  0  0  0  0
  130.3220  124.6340   66.6860 S   0  0  0  0  0  0  0  0  0  0  0  0
  130.7530  124.5890   64.9940 C   0  0  0  0  0  0  0  0  0  0  0  0
  131.3580  123.5320   64.4580 N   0  0  0  0  0  0  0  0  0  0  0  0
  131.6500  123.5860   63.1330 C   0  0  0  0  0  0  0  0  0  0  0  0
  132.3370  122.3800   62.5610 C   0  0  0  0  0  0  0  0  0  0  0  0
  133.6630  122.0740   62.9110 C   0  0  0  0  0  0  0  0  0  0  0  0
  134.3070  120.9570   62.3840 C   0  0  0  0  0  0  0  0  0  0  0  0
  133.6320  120.1280   61.4960 C   0  0  0  0  0  0  0  0  0  0  0  0
  132.3200  120.4090   61.1290 C   0  0  0  0  0  0  0  0  0  0  0  0
  131.6810  121.5280   61.6560 C   0  0  0  0  0  0  0  0  0  0  0  0
  131.3480  124.7090   62.3560 C   0  0  0  0  0  0  0  0  0  0  0  0
  130.7110  125.8320   62.9100 C   0  0  0  0  0  0  0  0  0  0  0  0
  130.4100  127.0280   62.0010 C   0  0  0  0  0  0  0  0  0  0  0  0
  130.9940  128.1570   62.4110 F   0  0  0  0  0  0  0  0  0  0  0  0
  130.8450  126.7790   60.7670 F   0  0  0  0  0  0  0  0  0  0  0  0
  129.0960  127.2490   61.9680 F   0  0  0  0  0  0  0  0  0  0  0  0
  130.3890  125.7790   64.2960 C   0  0  0  0  0  0  0  0  0  0  0  0
  129.7480  126.7100   65.1940 C   0  0  0  0  0  0  0  0  0  0  0  0
  129.2860  127.9360   64.7880 N   0  0  0  0  0  0  0  0  0  0  0  0
  128.7690  126.6640   70.7510 C   0  0  0  0  0  0  0  0  0  0  0  0
  128.6960  125.9530   71.9600 C   0  0  0  0  0  0  0  0  0  0  0  0
  128.1440  124.6910   72.0810 O   0  0  0  0  0  0  0  0  0  0  0  0
  128.9530  123.6150   72.5440 C   0  0  0  0  0  0  0  0  0  0  0  0
  129.2090  126.5430   73.1250 C   0  0  0  0  0  0  0  0  0  0  0  0
  129.1310  125.8650   74.3170 O   0  0  0  0  0  0  0  0  0  0  0  0
  130.3870  125.4340   74.8220 C   0  0  0  0  0  0  0  0  0  0  0  0
  129.6355  128.7601   76.2236 H   0  0  0  0  0  0  0  0  0  0  0  0
  129.3488  130.0551   75.0123 H   0  0  0  0  0  0  0  0  0  0  0  0
  128.3212  128.5818   75.0123 H   0  0  0  0  0  0  0  0  0  0  0  0
  130.2731  129.5209   71.8387 H   0  0  0  0  0  0  0  0  0  0  0  0
  128.3863  129.1204   69.1968 H   0  0  0  0  0  0  0  0  0  0  0  0
  130.1536  129.4897   69.5100 H   0  0  0  0  0  0  0  0  0  0  0  0
  130.7180  128.0640   67.8810 H   0  0  0  0  0  0  0  0  0  0  0  0
  134.2015  122.7276   63.6130 H   0  0  0  0  0  0  0  0  0  0  0  0
  135.3452  120.7320   62.6694 H   0  0  0  0  0  0  0  0  0  0  0  0
  134.1384  119.2442   61.0808 H   0  0  0  0  0  0  0  0  0  0  0  0
  131.7898  119.7501   60.4256 H   0  0  0  0  0  0  0  0  0  0  0  0
  130.6452  121.7490   61.3591 H   0  0  0  0  0  0  0  0  0  0  0  0
  131.6148  124.7131   61.2889 H   0  0  0  0  0  0  0  0  0  0  0  0
  129.9060  128.6480   64.4280 H   0  0  0  0  0  0  0  0  0  0  0  0
  128.3040  128.1670   64.8310 H   0  0  0  0  0  0  0  0  0  0  0  0
  128.3694  126.2131   69.8306 H   0  0  0  0  0  0  0  0  0  0  0  0
  128.9587  123.6075   73.6440 H   0  0  0  0  0  0  0  0  0  0  0  0
  128.5448  122.6633   72.1729 H   0  0  0  0  0  0  0  0  0  0  0  0
  129.9806  123.7428   72.1729 H   0  0  0  0  0  0  0  0  0  0  0  0
  130.3625  125.4424   75.9217 H   0  0  0  0  0  0  0  0  0  0  0  0
  130.5940  124.4134   74.4677 H   0  0  0  0  0  0  0  0  0  0  0  0
  131.1770  126.1125   74.4677 H   0  0  0  0  0  0  0  0  0  0  0  0
  1  2  1  0
  2  3  1  0
  3  4  2  0
  4  5  1  0
  5  6  1  0
  6  7  1  0
  7  8  1  0
  8  9  2  0
  8 10  1  0
 10 11  1  0
 11 12  1  0
 12 13  2  0
 13 14  1  0
 14 15  1  0
 15 16  2  0
 16 17  1  0
 17 18  2  0
 18 19  1  0
 19 20  2  0
 14 21  2  0
 21 22  1  0
 22 23  1  0
 23 24  1  0
 23 25  1  0
 23 26  1  0
 22 27  2  0
 27 28  1  0
 28 29  1  0
  5 30  2  0
 30 31  1  0
 31 32  1  0
 32 33  1  0
 31 34  2  0
 34 35  1  0
 35 36  1  0
 34  3  1  0
 28 10  2  0
 27 12  1  0
 20 15  1  0
  1 37  1  0
  1 38  1  0
  1 39  1  0
  4 40  1  0
  6 41  1  0
  6 42  1  0
  7 43  1  0
 16 44  1  0
 17 45  1  0
 18 46  1  0
 19 47  1  0
 20 48  1  0
 21 49  1  0
 29 50  1  0
 29 51  1  0
 30 52  1  0
 33 53  1  0
 33 54  1  0
 33 55  1  0
 36 56  1  0
 36 57  1  0
 36 58  1  0
M  END
>  <Binding energies>  (1) 
[-7.08]

>  <Ligand effiencies>  (1) 
[-0.18153846153846154]

>  <Interactions>  (1) 
["V-A:LYS:547:CE:4950, V-A:HIS:456:CE1:4069, V-A:GLU:543:CB:4906, V-A:GLU:543:CG:4907, V-A:HIS:456:CD2:4067, V-B:GLU:543:CD:9879, V-A:GLU:543:CD:4908, V-B:HIS:456:CE1:9041, H-A:LYS:547:NZ:4951, H-B:LYS:547:NZ:9922, V-B:GLU:543:CB:9877, V-B:GLU:543:CG:9878, V-A:TRP:381:CH2:3371, V-A:LEU:475:CD2:4258, V-A:ILE:369:CG2:3236, H-A:TYR:484:OH:4347, V-A:TYR:484:CE1:4344, V-A:TYR:484:CZ:4346, V-A:GLY:454:CA:4048, V-A:ILE:369:CD1:3238, H-B:GLU:543:OE1:9880, H-B:GLU:543:OE2:9881, H-A:GLU:543:OE1:4909, H-A:GLU:543:OE2:4910"]

$$$$
4ci_Grossjean_2025
     RDKit          3D

 39 42  0  0  0  0  0  0  0  0999 V2000
  127.9740  123.8300   63.3760 N   0  0  0  0  0  0  0  0  0  0  0  0
  128.5980  123.5440   62.1890 C   0  0  0  0  0  0  0  0  0  0  0  0
  129.9850  123.3570   62.0750 C   0  0  0  0  0  0  0  0  0  0  0  0
  131.0040  123.4090   63.1270 C   0  0  0  0  0  0  0  0  0  0  0  0
  131.3480  122.3840   63.7210 O   0  0  0  0  0  0  0  0  0  0  0  0
  131.5070  124.6400   63.3920 N   0  0  0  0  0  0  0  0  0  0  0  0
  132.4720  124.9750   64.3340 C   0  0  0  0  0  0  0  0  0  0  0  0
  132.1640  125.3660   65.6360 C   0  0  0  0  0  0  0  0  0  0  0  0
  133.3780  125.6070   66.2350 C   0  0  0  0  0  0  0  0  0  0  0  0
  134.3680  125.3740   65.3400 O   0  0  0  0  0  0  0  0  0  0  0  0
  133.7800  124.9750   64.1380 N   0  0  0  0  0  0  0  0  0  0  0  0
  130.4440  122.9950   60.4130 S   0  0  0  0  0  0  0  0  0  0  0  0
  128.7820  123.1060   59.8820 C   0  0  0  0  0  0  0  0  0  0  0  0
  128.4440  122.9150   58.6090 N   0  0  0  0  0  0  0  0  0  0  0  0
  127.1280  123.0180   58.2920 C   0  0  0  0  0  0  0  0  0  0  0  0
  126.7780  122.8030   56.8470 C   0  0  0  0  0  0  0  0  0  0  0  0
  125.5850  122.1580   56.4830 C   0  0  0  0  0  0  0  0  0  0  0  0
  125.2550  121.9570   55.1450 C   0  0  0  0  0  0  0  0  0  0  0  0
  126.1190  122.3980   54.1480 C   0  0  0  0  0  0  0  0  0  0  0  0
  127.3090  123.0350   54.4800 C   0  0  0  0  0  0  0  0  0  0  0  0
  127.6350  123.2340   55.8190 C   0  0  0  0  0  0  0  0  0  0  0  0
  126.1600  123.3300   59.2530 C   0  0  0  0  0  0  0  0  0  0  0  0
  126.5050  123.5320   60.5990 C   0  0  0  0  0  0  0  0  0  0  0  0
  125.3930  123.8700   61.5990 C   0  0  0  0  0  0  0  0  0  0  0  0
  124.1720  123.5910   61.1380 F   0  0  0  0  0  0  0  0  0  0  0  0
  125.5670  123.1680   62.7180 F   0  0  0  0  0  0  0  0  0  0  0  0
  125.4240  125.1710   61.8860 F   0  0  0  0  0  0  0  0  0  0  0  0
  127.8820  123.4140   60.9440 C   0  0  0  0  0  0  0  0  0  0  0  0
  127.0530  124.2450   63.4100 H   0  0  0  0  0  0  0  0  0  0  0  0
  128.4150  123.6290   64.2630 H   0  0  0  0  0  0  0  0  0  0  0  0
  131.1450  125.4110   62.8510 H   0  0  0  0  0  0  0  0  0  0  0  0
  131.1652  125.4612   66.0870 H   0  0  0  0  0  0  0  0  0  0  0  0
  133.5223  125.9363   67.2746 H   0  0  0  0  0  0  0  0  0  0  0  0
  124.8996  121.8056   57.2679 H   0  0  0  0  0  0  0  0  0  0  0  0
  124.3152  121.4517   54.8777 H   0  0  0  0  0  0  0  0  0  0  0  0
  125.8590  122.2417   53.0907 H   0  0  0  0  0  0  0  0  0  0  0  0
  127.9902  123.3804   53.6884 H   0  0  0  0  0  0  0  0  0  0  0  0
  128.5788  123.7368   56.0769 H   0  0  0  0  0  0  0  0  0  0  0  0
  125.1070  123.4189   58.9477 H   0  0  0  0  0  0  0  0  0  0  0  0
  1  2  1  0
  2  3  2  0
  3  4  1  0
  4  5  2  0
  4  6  1  0
  6  7  1  0
  7  8  1  0
  8  9  2  0
  9 10  1  0
 10 11  1  0
  3 12  1  0
 12 13  1  0
 13 14  2  0
 14 15  1  0
 15 16  1  0
 16 17  2  0
 17 18  1  0
 18 19  2  0
 19 20  1  0
 20 21  2  0
 15 22  2  0
 22 23  1  0
 23 24  1  0
 24 25  1  0
 24 26  1  0
 24 27  1  0
 23 28  2  0
 28  2  1  0
 11  7  2  0
 28 13  1  0
 21 16  1  0
  1 29  1  0
  1 30  1  0
  6 31  1  0
  8 32  1  0
  9 33  1  0
 17 34  1  0
 18 35  1  0
 19 36  1  0
 20 37  1  0
 21 38  1  0
 22 39  1  0
M  END
>  <Binding energies>  (1) 
[-8.3]

>  <Ligand effiencies>  (1) 
[-0.267741935483871]

>  <Interactions>  (1) 
["V-A:HIS:456:CE1:4069, V-B:GLU:543:CD:9879, V-B:GLU:543:CG:9878, V-B:MET:535:CE:9806, V-B:ASP:366:CG:8184, V-B:LEU:363:CD1:8160, V-B:ASN:362:C:8143, V-B:PRO:540:CA:9854, V-B:TYR:539:CE2:9847, V-B:PRO:540:C:9852, V-B:ALA:541:CB:9863, V-B:PRO:540:N:9855, V-B:TYR:539:CE1:9846, V-B:PRO:540:CB:9856, V-B:TYR:539:CZ:9848, V-B:TYR:539:C:9838, V-B:PRO:540:CD:9858, V-A:ARG:545:CZ:4926, V-B:ILE:538:CA:9831, V-B:TYR:539:CD1:9844, H-A:GLY:454:N:4049, V-B:ASN:362:CA:8145, V-B:ILE:538:CG2:9834, V-B:ASN:362:CB:8147, V-B:ILE:538:CD1:9836, H-A:ARG:545:NH1:4927, V-B:ALA:541:C:9859, V-B:ALA:541:CA:9861, H-A:ARG:545:NE:4924, V-A:ARG:545:CD:4923, V-A:ARG:545:CG:4922, V-B:ARG:545:CZ:9897, H-B:GLU:543:OE2:9881, V-B:ILE:538:CB:9833, V-B:ILE:538:C:9829, V-B:MET:535:CB:9803, V-B:ILE:538:CG1:9835"]

$$$$
4cj_Grossjean_2025
     RDKit          3D

 39 42  0  0  0  0  0  0  0  0999 V2000
  128.3260  123.8120   63.5460 N   0  0  0  0  0  0  0  0  0  0  0  0
  128.8950  123.5850   62.3190 C   0  0  0  0  0  0  0  0  0  0  0  0
  130.2810  123.4730   62.1230 C   0  0  0  0  0  0  0  0  0  0  0  0
  131.3540  123.5580   63.1170 C   0  0  0  0  0  0  0  0  0  0  0  0
  132.1490  122.6270   63.2690 O   0  0  0  0  0  0  0  0  0  0  0  0
  131.3900  124.7060   63.8380 N   0  0  0  0  0  0  0  0  0  0  0  0
  132.2990  125.0360   64.8350 C   0  0  0  0  0  0  0  0  0  0  0  0
  133.6120  124.9790   64.7810 N   0  0  0  0  0  0  0  0  0  0  0  0
  134.1620  125.3710   65.9130 C   0  0  0  0  0  0  0  0  0  0  0  0
  133.2840  125.7610   66.9200 C   0  0  0  0  0  0  0  0  0  0  0  0
  131.6520  125.6020   66.3420 S   0  0  0  0  0  0  0  0  0  0  0  0
  130.6630  123.1710   60.4300 S   0  0  0  0  0  0  0  0  0  0  0  0
  128.9700  123.2000   59.9970 C   0  0  0  0  0  0  0  0  0  0  0  0
  128.5710  123.0110   58.7420 N   0  0  0  0  0  0  0  0  0  0  0  0
  127.2350  123.0430   58.5030 C   0  0  0  0  0  0  0  0  0  0  0  0
  126.8180  122.8130   57.0780 C   0  0  0  0  0  0  0  0  0  0  0  0
  127.6480  123.2030   56.0150 C   0  0  0  0  0  0  0  0  0  0  0  0
  127.2640  122.9980   54.6920 C   0  0  0  0  0  0  0  0  0  0  0  0
  126.0390  122.4000   54.4130 C   0  0  0  0  0  0  0  0  0  0  0  0
  125.1980  122.0070   55.4470 C   0  0  0  0  0  0  0  0  0  0  0  0
  125.5850  122.2130   56.7680 C   0  0  0  0  0  0  0  0  0  0  0  0
  126.3080  123.2890   59.5210 C   0  0  0  0  0  0  0  0  0  0  0  0
  126.7170  123.4920   60.8480 C   0  0  0  0  0  0  0  0  0  0  0  0
  125.6480  123.7530   61.9150 C   0  0  0  0  0  0  0  0  0  0  0  0
  125.9250  123.1770   63.0860 F   0  0  0  0  0  0  0  0  0  0  0  0
  125.5390  125.0640   62.1310 F   0  0  0  0  0  0  0  0  0  0  0  0
  124.4730  123.2760   61.5030 F   0  0  0  0  0  0  0  0  0  0  0  0
  128.1160  123.4410   61.1130 C   0  0  0  0  0  0  0  0  0  0  0  0
  127.6130  124.5160   63.6840 H   0  0  0  0  0  0  0  0  0  0  0  0
  128.5980  123.2750   64.3580 H   0  0  0  0  0  0  0  0  0  0  0  0
  130.6800  125.3980   63.6450 H   0  0  0  0  0  0  0  0  0  0  0  0
  135.2528  125.3889   66.0537 H   0  0  0  0  0  0  0  0  0  0  0  0
  133.5756  126.1131   67.9205 H   0  0  0  0  0  0  0  0  0  0  0  0
  128.6166  123.6778   56.2303 H   0  0  0  0  0  0  0  0  0  0  0  0
  127.9268  123.3077   53.8706 H   0  0  0  0  0  0  0  0  0  0  0  0
  125.7347  122.2375   53.3685 H   0  0  0  0  0  0  0  0  0  0  0  0
  124.2302  121.5349   55.2224 H   0  0  0  0  0  0  0  0  0  0  0  0
  124.9151  121.9012   57.5829 H   0  0  0  0  0  0  0  0  0  0  0  0
  125.2361  123.3241   59.2764 H   0  0  0  0  0  0  0  0  0  0  0  0
  1  2  1  0
  2  3  2  0
  3  4  1  0
  4  5  2  0
  4  6  1  0
  6  7  1  0
  7  8  2  0
  8  9  1  0
  9 10  2  0
 10 11  1  0
  3 12  1  0
 12 13  1  0
 13 14  2  0
 14 15  1  0
 15 16  1  0
 16 17  2  0
 17 18  1  0
 18 19  2  0
 19 20  1  0
 20 21  2  0
 15 22  2  0
 22 23  1  0
 23 24  1  0
 24 25  1  0
 24 26  1  0
 24 27  1  0
 23 28  2  0
 28  2  1  0
 11  7  1  0
 28 13  1  0
 21 16  1  0
  1 29  1  0
  1 30  1  0
  6 31  1  0
  9 32  1  0
 10 33  1  0
 17 34  1  0
 18 35  1  0
 19 36  1  0
 20 37  1  0
 21 38  1  0
 22 39  1  0
M  END
>  <Binding energies>  (1) 
[-7.8]

>  <Ligand effiencies>  (1) 
[-0.25161290322580643]

>  <Interactions>  (1) 
["V-A:HIS:456:CE1:4069, V-B:GLU:543:CD:9879, V-B:GLU:543:CG:9878, V-B:MET:535:CE:9806, V-B:LEU:363:CD1:8160, V-B:ASN:362:C:8143, V-B:PRO:540:CA:9854, V-B:TYR:539:CE2:9847, V-B:PRO:540:C:9852, V-B:ALA:541:CB:9863, V-B:PRO:540:N:9855, V-B:TYR:539:CE1:9846, V-B:PRO:540:CB:9856, V-B:TYR:539:CZ:9848, V-B:TYR:539:C:9838, V-B:PRO:540:CD:9858, V-A:ARG:545:CZ:4926, V-B:ILE:538:CA:9831, V-B:PRO:540:CG:9857, V-B:TYR:539:CD1:9844, H-A:GLY:454:N:4049, V-B:ILE:538:CG2:9834, V-B:ASN:362:CB:8147, H-A:TYR:484:OH:4347, V-B:ILE:538:CD1:9836, V-A:GLY:454:CA:4048, V-B:ALA:541:C:9859, V-B:ALA:541:CA:9861, V-A:ARG:545:CD:4923, V-A:ARG:545:CG:4922, V-B:ARG:545:CZ:9897, H-B:GLU:543:OE1:9880, H-B:GLU:543:OE2:9881, V-B:ILE:538:CB:9833, V-B:ILE:538:C:9829, V-A:GLY:453:C:4041, V-A:GLY:453:CA:4043"]

$$$$
4ck_Grossjean_2025
     RDKit          3D

 57 59  0  0  0  0  0  0  0  0999 V2000
  126.8540  122.4050   54.6500 C   0  0  0  0  0  0  0  0  0  0  0  0
  126.0530  121.6290   55.5280 O   0  0  0  0  0  0  0  0  0  0  0  0
  125.2490  122.4120   56.4000 C   0  0  0  0  0  0  0  0  0  0  0  0
  126.1570  123.1360   57.4020 C   0  0  0  0  0  0  0  0  0  0  0  0
  125.4540  124.2450   57.9470 O   0  0  0  0  0  0  0  0  0  0  0  0
  124.3940  123.8720   58.8180 C   0  0  0  0  0  0  0  0  0  0  0  0
  124.8130  124.1500   60.2670 C   0  0  0  0  0  0  0  0  0  0  0  0
  126.0990  123.5870   60.4870 O   0  0  0  0  0  0  0  0  0  0  0  0
  127.1620  124.5280   60.3970 C   0  0  0  0  0  0  0  0  0  0  0  0
  128.3590  124.0330   61.2220 C   0  0  0  0  0  0  0  0  0  0  0  0
  128.4740  124.7340   62.5010 N   0  0  0  0  0  0  0  0  0  0  0  0
  129.6000  125.2800   63.0050 C   0  0  0  0  0  0  0  0  0  0  0  0
  130.6750  125.2640   62.4020 O   0  0  0  0  0  0  0  0  0  0  0  0
  129.4720  125.9100   64.3190 C   0  0  0  0  0  0  0  0  0  0  0  0
  130.3030  125.2240   65.7130 S   0  0  0  0  0  0  0  0  0  0  0  0
  129.7170  126.5060   66.7470 C   0  0  0  0  0  0  0  0  0  0  0  0
  130.0290  126.5530   68.0400 N   0  0  0  0  0  0  0  0  0  0  0  0
  129.5250  127.5870   68.7640 C   0  0  0  0  0  0  0  0  0  0  0  0
  129.9110  127.6220   70.2150 C   0  0  0  0  0  0  0  0  0  0  0  0
  129.1820  126.8960   71.1710 C   0  0  0  0  0  0  0  0  0  0  0  0
  129.5330  126.9260   72.5180 C   0  0  0  0  0  0  0  0  0  0  0  0
  130.6230  127.6850   72.9300 C   0  0  0  0  0  0  0  0  0  0  0  0
  131.3660  128.4090   72.0040 C   0  0  0  0  0  0  0  0  0  0  0  0
  131.0120  128.3750   70.6570 C   0  0  0  0  0  0  0  0  0  0  0  0
  128.7180  128.5710   68.1850 C   0  0  0  0  0  0  0  0  0  0  0  0
  128.3810  128.5300   66.8220 C   0  0  0  0  0  0  0  0  0  0  0  0
  127.4890  129.6390   66.2530 C   0  0  0  0  0  0  0  0  0  0  0  0
  127.3000  130.6480   67.1050 F   0  0  0  0  0  0  0  0  0  0  0  0
  128.0440  130.1440   65.1520 F   0  0  0  0  0  0  0  0  0  0  0  0
  126.2890  129.1410   65.9520 F   0  0  0  0  0  0  0  0  0  0  0  0
  128.9020  127.4490   66.0540 C   0  0  0  0  0  0  0  0  0  0  0  0
  128.7870  127.0860   64.6620 C   0  0  0  0  0  0  0  0  0  0  0  0
  128.0660  127.8240   63.7590 N   0  0  0  0  0  0  0  0  0  0  0  0
  127.5217  123.0518   55.2381 H   0  0  0  0  0  0  0  0  0  0  0  0
  127.4555  121.7372   54.0158 H   0  0  0  0  0  0  0  0  0  0  0  0
  126.2056  123.0273   54.0158 H   0  0  0  0  0  0  0  0  0  0  0  0
  124.6825  123.1513   55.8147 H   0  0  0  0  0  0  0  0  0  0  0  0
  124.5446  121.7619   56.9396 H   0  0  0  0  0  0  0  0  0  0  0  0
  126.4390  122.4450   58.2101 H   0  0  0  0  0  0  0  0  0  0  0  0
  127.0667  123.4868   56.8927 H   0  0  0  0  0  0  0  0  0  0  0  0
  123.4950  124.4577   58.5758 H   0  0  0  0  0  0  0  0  0  0  0  0
  124.1731  122.8014   58.6952 H   0  0  0  0  0  0  0  0  0  0  0  0
  124.8502  125.2358   60.4394 H   0  0  0  0  0  0  0  0  0  0  0  0
  124.0851  123.7021   60.9594 H   0  0  0  0  0  0  0  0  0  0  0  0
  127.4636  124.6402   59.3451 H   0  0  0  0  0  0  0  0  0  0  0  0
  126.8247  125.4990   60.7887 H   0  0  0  0  0  0  0  0  0  0  0  0
  128.2349  122.9576   61.4170 H   0  0  0  0  0  0  0  0  0  0  0  0
  129.2737  124.2311   60.6439 H   0  0  0  0  0  0  0  0  0  0  0  0
  127.6130  124.8650   63.0120 H   0  0  0  0  0  0  0  0  0  0  0  0
  128.3193  126.2936   70.8502 H   0  0  0  0  0  0  0  0  0  0  0  0
  128.9505  126.3516   73.2534 H   0  0  0  0  0  0  0  0  0  0  0  0
  130.8990  127.7128   73.9944 H   0  0  0  0  0  0  0  0  0  0  0  0
  132.2293  129.0058   72.3335 H   0  0  0  0  0  0  0  0  0  0  0  0
  131.6041  128.9470   69.9275 H   0  0  0  0  0  0  0  0  0  0  0  0
  128.3394  129.3937   68.8093 H   0  0  0  0  0  0  0  0  0  0  0  0
  127.1060  127.6060   63.5320 H   0  0  0  0  0  0  0  0  0  0  0  0
  128.4730  128.6230   63.2900 H   0  0  0  0  0  0  0  0  0  0  0  0
  1  2  1  0
  2  3  1  0
  3  4  1  0
  4  5  1  0
  5  6  1  0
  6  7  1  0
  7  8  1  0
  8  9  1  0
  9 10  1  0
 10 11  1  0
 11 12  1  0
 12 13  2  0
 12 14  1  0
 14 15  1  0
 15 16  1  0
 16 17  2  0
 17 18  1  0
 18 19  1  0
 19 20  2  0
 20 21  1  0
 21 22  2  0
 22 23  1  0
 23 24  2  0
 18 25  2  0
 25 26  1  0
 26 27  1  0
 27 28  1  0
 27 29  1  0
 27 30  1  0
 26 31  2  0
 31 32  1  0
 32 33  1  0
 32 14  2  0
 31 16  1  0
 24 19  1  0
  1 34  1  0
  1 35  1  0
  1 36  1  0
  3 37  1  0
  3 38  1  0
  4 39  1  0
  4 40  1  0
  6 41  1  0
  6 42  1  0
  7 43  1  0
  7 44  1  0
  9 45  1  0
  9 46  1  0
 10 47  1  0
 10 48  1  0
 11 49  1  0
 20 50  1  0
 21 51  1  0
 22 52  1  0
 23 53  1  0
 24 54  1  0
 25 55  1  0
 33 56  1  0
 33 57  1  0
M  END
>  <Binding energies>  (1) 
[-6.57]

>  <Ligand effiencies>  (1) 
[-0.1825]

>  <Interactions>  (1) 
["V-A:HIS:456:CE1:4069, V-A:GLU:543:CB:4906, V-A:GLU:543:CG:4907, V-B:GLU:543:CD:9879, V-A:GLU:543:CD:4908, V-B:HIS:456:CE1:9041, V-B:GLU:543:CG:9878, V-B:MET:535:CE:9806, V-B:LEU:363:CA:8156, V-B:LEU:363:CD1:8160, V-B:PRO:540:CA:9854, V-B:PRO:540:N:9855, V-B:TYR:539:CE1:9846, V-B:PRO:540:CB:9856, H-B:TYR:539:N:9841, H-B:ALA:541:N:9862, V-B:PRO:540:CD:9858, V-B:ILE:538:CA:9831, V-B:TYR:539:CD1:9844, V-B:ILE:538:CD1:9836, V-A:GLY:544:C:4912, V-B:TYR:484:CE1:9316, V-B:TYR:484:CZ:9318, H-B:GLU:543:OE1:9880, H-B:GLU:543:OE2:9881, H-A:GLU:543:OE1:4909"]

$$$$
4dd_Grossjean_2025
     RDKit          3D

 43 46  0  0  0  0  0  0  0  0999 V2000
  125.4440  123.8310   61.6040 C   0  0  0  0  0  0  0  0  0  0  0  0
  126.5500  123.5220   60.6060 C   0  0  0  0  0  0  0  0  0  0  0  0
  126.1950  123.3210   59.2670 C   0  0  0  0  0  0  0  0  0  0  0  0
  127.1660  123.0330   58.3000 C   0  0  0  0  0  0  0  0  0  0  0  0
  126.8130  122.8070   56.8600 C   0  0  0  0  0  0  0  0  0  0  0  0
  125.6280  122.1430   56.5050 C   0  0  0  0  0  0  0  0  0  0  0  0
  125.2930  121.9320   55.1700 C   0  0  0  0  0  0  0  0  0  0  0  0
  126.1440  122.3830   54.1670 C   0  0  0  0  0  0  0  0  0  0  0  0
  127.3230  123.0450   54.4890 C   0  0  0  0  0  0  0  0  0  0  0  0
  127.6530  123.2560   55.8250 C   0  0  0  0  0  0  0  0  0  0  0  0
  128.4850  122.9260   58.6170 N   0  0  0  0  0  0  0  0  0  0  0  0
  128.8260  123.1240   59.8900 C   0  0  0  0  0  0  0  0  0  0  0  0
  130.4870  123.0350   60.4310 S   0  0  0  0  0  0  0  0  0  0  0  0
  130.0150  123.4040   62.0910 C   0  0  0  0  0  0  0  0  0  0  0  0
  131.0270  123.5040   63.1440 C   0  0  0  0  0  0  0  0  0  0  0  0
  131.8130  122.5780   63.3500 O   0  0  0  0  0  0  0  0  0  0  0  0
  131.0270  124.6660   63.8420 N   0  0  0  0  0  0  0  0  0  0  0  0
  131.8210  125.0560   64.9360 C   0  0  0  0  0  0  0  0  0  0  0  0
  133.1750  124.7160   64.8590 C   0  0  0  0  0  0  0  0  0  0  0  0
  134.0470  125.0700   65.8860 C   0  0  0  0  0  0  0  0  0  0  0  0
  133.5650  125.7710   66.9880 C   0  0  0  0  0  0  0  0  0  0  0  0
  132.2220  126.1270   67.0710 C   0  0  0  0  0  0  0  0  0  0  0  0
  131.3480  125.7740   66.0470 C   0  0  0  0  0  0  0  0  0  0  0  0
  128.6260  123.5790   62.1950 C   0  0  0  0  0  0  0  0  0  0  0  0
  127.9790  123.8700   63.3700 N   0  0  0  0  0  0  0  0  0  0  0  0
  127.9240  123.4270   60.9480 C   0  0  0  0  0  0  0  0  0  0  0  0
  125.8327  123.7224   62.6273 H   0  0  0  0  0  0  0  0  0  0  0  0
  125.0915  124.8620   61.4531 H   0  0  0  0  0  0  0  0  0  0  0  0
  124.6082  123.1320   61.4531 H   0  0  0  0  0  0  0  0  0  0  0  0
  125.1381  123.3903   58.9701 H   0  0  0  0  0  0  0  0  0  0  0  0
  124.9525  121.7832   57.2951 H   0  0  0  0  0  0  0  0  0  0  0  0
  124.3597  121.4111   54.9101 H   0  0  0  0  0  0  0  0  0  0  0  0
  125.8824  122.2148   53.1119 H   0  0  0  0  0  0  0  0  0  0  0  0
  127.9923  123.4006   53.6918 H   0  0  0  0  0  0  0  0  0  0  0  0
  128.5859  123.7824   56.0752 H   0  0  0  0  0  0  0  0  0  0  0  0
  130.3730  125.3700   63.5310 H   0  0  0  0  0  0  0  0  0  0  0  0
  133.5531  124.1669   63.9841 H   0  0  0  0  0  0  0  0  0  0  0  0
  135.1109  124.7971   65.8266 H   0  0  0  0  0  0  0  0  0  0  0  0
  134.2525  126.0463   67.8014 H   0  0  0  0  0  0  0  0  0  0  0  0
  131.8524  126.6858   67.9435 H   0  0  0  0  0  0  0  0  0  0  0  0
  130.2868  126.0572   66.1076 H   0  0  0  0  0  0  0  0  0  0  0  0
  128.2110  123.4060   64.2360 H   0  0  0  0  0  0  0  0  0  0  0  0
  127.2470  124.5660   63.4060 H   0  0  0  0  0  0  0  0  0  0  0  0
  1  2  1  0
  2  3  2  0
  3  4  1  0
  4  5  1  0
  5  6  2  0
  6  7  1  0
  7  8  2  0
  8  9  1  0
  9 10  2  0
  4 11  2  0
 11 12  1  0
 12 13  1  0
 13 14  1  0
 14 15  1  0
 15 16  2  0
 15 17  1  0
 17 18  1  0
 18 19  2  0
 19 20  1  0
 20 21  2  0
 21 22  1  0
 22 23  2  0
 14 24  2  0
 24 25  1  0
 24 26  1  0
 26  2  1  0
 10  5  1  0
 26 12  2  0
 23 18  1  0
  1 27  1  0
  1 28  1  0
  1 29  1  0
  3 30  1  0
  6 31  1  0
  7 32  1  0
  8 33  1  0
  9 34  1  0
 10 35  1  0
 17 36  1  0
 19 37  1  0
 20 38  1  0
 21 39  1  0
 22 40  1  0
 23 41  1  0
 25 42  1  0
 25 43  1  0
M  END
>  <Binding energies>  (1) 
[-7.83]

>  <Ligand effiencies>  (1) 
[-0.27]

>  <Interactions>  (1) 
["V-A:HIS:456:CE1:4069, V-B:GLU:543:CD:9879, V-B:GLU:543:CG:9878, V-B:MET:535:CE:9806, V-B:LEU:363:CD1:8160, V-B:PRO:540:CA:9854, V-B:TYR:539:CE2:9847, V-B:ALA:541:CB:9863, V-B:PRO:540:N:9855, V-B:TYR:539:CE1:9846, V-B:PRO:540:CB:9856, V-B:TYR:539:CZ:9848, V-B:TYR:539:C:9838, V-B:PRO:540:CD:9858, V-A:ARG:545:CZ:4926, V-B:ILE:538:CA:9831, V-B:TYR:539:CD1:9844, V-B:ILE:538:CG2:9834, V-B:ILE:538:CD1:9836, V-A:GLY:454:CA:4048, V-A:ARG:545:CD:4923, V-A:ARG:545:CG:4922, H-B:GLU:543:OE1:9880, H-B:GLU:543:OE2:9881, V-B:ILE:538:CB:9833, V-B:ILE:538:C:9829, V-A:GLY:453:C:4041, V-A:GLY:453:CA:4043, V-B:MET:535:CB:9803, V-B:ILE:538:CG1:9835"]

$$$$
4dg_Grossjean_2025
     RDKit          3D

 46 49  0  0  0  0  0  0  0  0999 V2000
  130.9670  126.5570   63.3790 C   0  0  0  0  0  0  0  0  0  0  0  0
  131.0180  125.8100   62.0550 C   0  0  0  0  0  0  0  0  0  0  0  0
  130.9710  124.4110   62.0840 C   0  0  0  0  0  0  0  0  0  0  0  0
  131.0130  123.6650   60.9000 C   0  0  0  0  0  0  0  0  0  0  0  0
  130.9630  122.1620   60.9000 C   0  0  0  0  0  0  0  0  0  0  0  0
  129.7560  121.4810   61.1260 C   0  0  0  0  0  0  0  0  0  0  0  0
  129.7050  120.0890   61.1300 C   0  0  0  0  0  0  0  0  0  0  0  0
  130.8650  119.3560   60.9080 C   0  0  0  0  0  0  0  0  0  0  0  0
  132.0760  120.0040   60.6850 C   0  0  0  0  0  0  0  0  0  0  0  0
  132.1220  121.3950   60.6820 C   0  0  0  0  0  0  0  0  0  0  0  0
  131.0830  124.2600   59.6780 N   0  0  0  0  0  0  0  0  0  0  0  0
  131.1280  125.5910   59.6490 C   0  0  0  0  0  0  0  0  0  0  0  0
  131.2250  126.4810   58.1470 S   0  0  0  0  0  0  0  0  0  0  0  0
  131.2320  128.0190   59.0090 C   0  0  0  0  0  0  0  0  0  0  0  0
  131.3490  129.2750   58.2700 C   0  0  0  0  0  0  0  0  0  0  0  0
  130.6650  129.4970   57.2680 O   0  0  0  0  0  0  0  0  0  0  0  0
  132.2710  130.1460   58.7300 N   0  0  0  0  0  0  0  0  0  0  0  0
  132.5450  131.4670   58.1640 C   0  0  0  0  0  0  0  0  0  0  0  0
  131.3490  132.0740   57.4390 C   0  0  0  0  0  0  0  0  0  0  0  0
  130.2230  132.4690   58.1670 C   0  0  0  0  0  0  0  0  0  0  0  0
  129.1420  133.0530   57.5120 C   0  0  0  0  0  0  0  0  0  0  0  0
  129.1950  133.2510   56.1340 C   0  0  0  0  0  0  0  0  0  0  0  0
  130.3210  132.8750   55.4050 C   0  0  0  0  0  0  0  0  0  0  0  0
  131.4020  132.2920   56.0590 C   0  0  0  0  0  0  0  0  0  0  0  0
  131.1770  127.8260   60.3980 C   0  0  0  0  0  0  0  0  0  0  0  0
  131.1830  128.8490   61.3110 N   0  0  0  0  0  0  0  0  0  0  0  0
  131.1040  126.4440   60.7890 C   0  0  0  0  0  0  0  0  0  0  0  0
  131.0162  125.8364   64.2087 H   0  0  0  0  0  0  0  0  0  0  0  0
  131.8200  127.2486   63.4429 H   0  0  0  0  0  0  0  0  0  0  0  0
  130.0279  127.1262   63.4429 H   0  0  0  0  0  0  0  0  0  0  0  0
  130.9001  123.8907   63.0506 H   0  0  0  0  0  0  0  0  0  0  0  0
  128.8353  122.0564   61.3028 H   0  0  0  0  0  0  0  0  0  0  0  0
  128.7506  119.5719   61.3081 H   0  0  0  0  0  0  0  0  0  0  0  0
  130.8254  118.2567   60.9086 H   0  0  0  0  0  0  0  0  0  0  0  0
  132.9920  119.4200   60.5120 H   0  0  0  0  0  0  0  0  0  0  0  0
  133.0814  121.9036   60.5061 H   0  0  0  0  0  0  0  0  0  0  0  0
  132.7370  129.9310   59.5990 H   0  0  0  0  0  0  0  0  0  0  0  0
  132.8374  132.1428   58.9812 H   0  0  0  0  0  0  0  0  0  0  0  0
  133.3466  131.3425   57.4211 H   0  0  0  0  0  0  0  0  0  0  0  0
  130.1910  132.3186   59.2562 H   0  0  0  0  0  0  0  0  0  0  0  0
  128.2502  133.3566   58.0799 H   0  0  0  0  0  0  0  0  0  0  0  0
  128.3391  133.7088   55.6164 H   0  0  0  0  0  0  0  0  0  0  0  0
  130.3554  133.0382   54.3177 H   0  0  0  0  0  0  0  0  0  0  0  0
  132.2981  132.0027   55.4904 H   0  0  0  0  0  0  0  0  0  0  0  0
  131.8970  129.5620   61.3110 H   0  0  0  0  0  0  0  0  0  0  0  0
  130.4620  128.9260   62.0160 H   0  0  0  0  0  0  0  0  0  0  0  0
  1  2  1  0
  2  3  2  0
  3  4  1  0
  4  5  1  0
  5  6  2  0
  6  7  1  0
  7  8  2  0
  8  9  1  0
  9 10  2  0
  4 11  2  0
 11 12  1  0
 12 13  1  0
 13 14  1  0
 14 15  1  0
 15 16  2  0
 15 17  1  0
 17 18  1  0
 18 19  1  0
 19 20  2  0
 20 21  1  0
 21 22  2  0
 22 23  1  0
 23 24  2  0
 14 25  2  0
 25 26  1  0
 25 27  1  0
 27  2  1  0
 10  5  1  0
 27 12  2  0
 24 19  1  0
  1 28  1  0
  1 29  1  0
  1 30  1  0
  3 31  1  0
  6 32  1  0
  7 33  1  0
  8 34  1  0
  9 35  1  0
 10 36  1  0
 17 37  1  0
 18 38  1  0
 18 39  1  0
 20 40  1  0
 21 41  1  0
 22 42  1  0
 23 43  1  0
 24 44  1  0
 26 45  1  0
 26 46  1  0
M  END
>  <Binding energies>  (1) 
[-7.74]

>  <Ligand effiencies>  (1) 
[-0.258]

>  <Interactions>  (1) 
["V-A:TRP:381:CZ2:3369, V-A:TRP:381:CZ3:3370, V-A:TRP:381:CH2:3371, V-B:TYR:539:CD2:9845, V-B:TYR:539:CE2:9847, V-A:PRO:482:CB:4325, V-B:ALA:541:CB:9863, V-A:LEU:475:CD2:4258, V-A:ILE:369:CG2:3236, V-A:ASP:366:CB:3211, V-A:TYR:539:CD2:4874, V-A:TYR:539:C:4867, V-A:TYR:539:CE2:4876, H-A:TYR:531:OH:4795, V-A:TYR:539:CG:4872, V-A:PRO:540:N:4884, V-A:MET:535:CE:4835, V-A:PRO:540:CB:4885, V-A:LEU:363:CD1:3188, V-A:ASP:366:CG:3212, V-A:PRO:540:CA:4883, V-B:ALA:541:CA:9861, H-A:ASP:366:OD2:3214, V-A:TYR:539:CZ:4877, H-A:GLU:543:OE1:4909, V-A:ILE:538:CB:4862, V-A:ILE:538:CA:4860, V-A:ILE:538:CG2:4863, V-A:TYR:539:CE1:4875, V-A:TYR:539:CD1:4873, V-A:ILE:538:C:4858"]

$$$$
4dj_Grossjean_2025
     RDKit          3D

 39 42  0  0  0  0  0  0  0  0999 V2000
  125.7270  123.8630   61.9230 C   0  0  0  0  0  0  0  0  0  0  0  0
  126.7790  123.5540   60.8690 C   0  0  0  0  0  0  0  0  0  0  0  0
  126.3520  123.3470   59.5520 C   0  0  0  0  0  0  0  0  0  0  0  0
  127.2700  123.0570   58.5350 C   0  0  0  0  0  0  0  0  0  0  0  0
  126.8420  122.8350   57.1120 C   0  0  0  0  0  0  0  0  0  0  0  0
  125.6190  122.2110   56.8160 C   0  0  0  0  0  0  0  0  0  0  0  0
  125.2170  122.0030   55.5000 C   0  0  0  0  0  0  0  0  0  0  0  0
  126.0380  122.4140   54.4550 C   0  0  0  0  0  0  0  0  0  0  0  0
  127.2560  123.0310   54.7180 C   0  0  0  0  0  0  0  0  0  0  0  0
  127.6540  123.2380   56.0360 C   0  0  0  0  0  0  0  0  0  0  0  0
  128.6080  122.9800   58.7750 N   0  0  0  0  0  0  0  0  0  0  0  0
  129.0150  123.1760   60.0280 C   0  0  0  0  0  0  0  0  0  0  0  0
  130.7040  123.0990   60.4780 S   0  0  0  0  0  0  0  0  0  0  0  0
  130.3200  123.4550   62.1640 C   0  0  0  0  0  0  0  0  0  0  0  0
  131.3840  123.5320   63.1650 C   0  0  0  0  0  0  0  0  0  0  0  0
  132.1540  122.5830   63.3410 O   0  0  0  0  0  0  0  0  0  0  0  0
  131.4440  124.6910   63.8660 N   0  0  0  0  0  0  0  0  0  0  0  0
  132.3500  125.0160   64.8650 C   0  0  0  0  0  0  0  0  0  0  0  0
  133.6620  124.9280   64.8270 N   0  0  0  0  0  0  0  0  0  0  0  0
  134.2080  125.3240   65.9600 C   0  0  0  0  0  0  0  0  0  0  0  0
  133.3290  125.7490   66.9520 C   0  0  0  0  0  0  0  0  0  0  0  0
  131.7010  125.6160   66.3580 S   0  0  0  0  0  0  0  0  0  0  0  0
  128.9370  123.6180   62.3430 C   0  0  0  0  0  0  0  0  0  0  0  0
  128.3530  123.8990   63.5530 N   0  0  0  0  0  0  0  0  0  0  0  0
  128.1690  123.4660   61.1370 C   0  0  0  0  0  0  0  0  0  0  0  0
  126.1630  123.7349   62.9248 H   0  0  0  0  0  0  0  0  0  0  0  0
  125.3817  124.9005   61.8033 H   0  0  0  0  0  0  0  0  0  0  0  0
  124.8755  123.1770   61.8033 H   0  0  0  0  0  0  0  0  0  0  0  0
  125.2804  123.4131   59.3126 H   0  0  0  0  0  0  0  0  0  0  0  0
  124.9676  121.8810   57.6387 H   0  0  0  0  0  0  0  0  0  0  0  0
  124.2541  121.5157   55.2871 H   0  0  0  0  0  0  0  0  0  0  0  0
  125.7218  122.2499   53.4143 H   0  0  0  0  0  0  0  0  0  0  0  0
  127.9022  123.3541   53.8885 H   0  0  0  0  0  0  0  0  0  0  0  0
  128.6193  123.7247   56.2395 H   0  0  0  0  0  0  0  0  0  0  0  0
  130.7590  125.3990   63.6480 H   0  0  0  0  0  0  0  0  0  0  0  0
  135.2973  125.3188   66.1127 H   0  0  0  0  0  0  0  0  0  0  0  0
  133.6178  126.1104   67.9500 H   0  0  0  0  0  0  0  0  0  0  0  0
  128.6230  123.4220   64.4000 H   0  0  0  0  0  0  0  0  0  0  0  0
  127.6270  124.5980   63.6350 H   0  0  0  0  0  0  0  0  0  0  0  0
  1  2  1  0
  2  3  2  0
  3  4  1  0
  4  5  1  0
  5  6  2  0
  6  7  1  0
  7  8  2  0
  8  9  1  0
  9 10  2  0
  4 11  2  0
 11 12  1  0
 12 13  1  0
 13 14  1  0
 14 15  1  0
 15 16  2  0
 15 17  1  0
 17 18  1  0
 18 19  2  0
 19 20  1  0
 20 21  2  0
 21 22  1  0
 14 23  2  0
 23 24  1  0
 23 25  1  0
 25  2  1  0
 10  5  1  0
 25 12  2  0
 22 18  1  0
  1 26  1  0
  1 27  1  0
  1 28  1  0
  3 29  1  0
  6 30  1  0
  7 31  1  0
  8 32  1  0
  9 33  1  0
 10 34  1  0
 17 35  1  0
 20 36  1  0
 21 37  1  0
 24 38  1  0
 24 39  1  0
M  END
>  <Binding energies>  (1) 
[-8.09]

>  <Ligand effiencies>  (1) 
[-0.2889285714285714]

>  <Interactions>  (1) 
["V-A:HIS:456:CE1:4069, V-B:GLU:543:CD:9879, V-B:GLU:543:CG:9878, V-B:MET:535:CE:9806, V-B:LEU:363:CD1:8160, V-B:PRO:540:CA:9854, V-B:TYR:539:CE2:9847, V-B:ALA:541:CB:9863, V-B:PRO:540:N:9855, V-B:TYR:539:CE1:9846, V-B:PRO:540:CB:9856, V-B:TYR:539:CZ:9848, V-B:TYR:539:C:9838, V-B:PRO:540:CD:9858, V-A:ARG:545:CZ:4926, V-B:ILE:538:CA:9831, V-B:PRO:540:CG:9857, V-B:TYR:539:CD1:9844, H-A:GLY:454:N:4049, V-B:ILE:538:CG2:9834, H-A:TYR:484:OH:4347, V-B:ILE:538:CD1:9836, V-A:GLY:454:CA:4048, V-A:ARG:545:CD:4923, V-A:ARG:545:CG:4922, H-B:GLU:543:OE1:9880, H-B:GLU:543:OE2:9881, V-B:ILE:538:CB:9833, V-B:ILE:538:C:9829, V-A:GLY:453:C:4041, V-A:GLY:453:CA:4043"]

$$$$
4ea_Grossjean_2025
     RDKit          3D

 52 55  0  0  0  0  0  0  0  0999 V2000
  124.2340  123.9840   58.1360 C   0  0  0  0  0  0  0  0  0  0  0  0
  124.7010  124.2190   56.6960 C   0  0  0  0  0  0  0  0  0  0  0  0
  125.0490  122.9740   56.1040 O   0  0  0  0  0  0  0  0  0  0  0  0
  126.3450  122.5840   56.0020 C   0  0  0  0  0  0  0  0  0  0  0  0
  126.7960  121.9750   55.0260 O   0  0  0  0  0  0  0  0  0  0  0  0
  127.1750  122.9650   57.1930 C   0  0  0  0  0  0  0  0  0  0  0  0
  127.3580  122.0350   58.2240 C   0  0  0  0  0  0  0  0  0  0  0  0
  128.1230  122.3580   59.3420 C   0  0  0  0  0  0  0  0  0  0  0  0
  128.7190  123.6150   59.4530 C   0  0  0  0  0  0  0  0  0  0  0  0
  129.4680  123.8290   60.6260 N   0  0  0  0  0  0  0  0  0  0  0  0
  129.8100  122.9710   61.6190 C   0  0  0  0  0  0  0  0  0  0  0  0
  129.4930  121.7820   61.6480 O   0  0  0  0  0  0  0  0  0  0  0  0
  130.6080  123.5550   62.7000 C   0  0  0  0  0  0  0  0  0  0  0  0
  132.3010  123.0980   62.9080 S   0  0  0  0  0  0  0  0  0  0  0  0
  132.4690  124.1580   64.2880 C   0  0  0  0  0  0  0  0  0  0  0  0
  133.6200  124.2730   64.9530 N   0  0  0  0  0  0  0  0  0  0  0  0
  133.6180  125.1280   66.0040 C   0  0  0  0  0  0  0  0  0  0  0  0
  134.9360  125.2440   66.7460 C   0  0  0  0  0  0  0  0  0  0  0  0
  132.5040  125.8640   66.4020 C   0  0  0  0  0  0  0  0  0  0  0  0
  131.2990  125.7410   65.7020 C   0  0  0  0  0  0  0  0  0  0  0  0
  130.1240  126.5290   66.1370 C   0  0  0  0  0  0  0  0  0  0  0  0
  129.4900  127.3980   65.2430 C   0  0  0  0  0  0  0  0  0  0  0  0
  128.3830  128.1380   65.6510 C   0  0  0  0  0  0  0  0  0  0  0  0
  127.9130  128.0120   66.9550 C   0  0  0  0  0  0  0  0  0  0  0  0
  128.5390  127.1540   67.8560 C   0  0  0  0  0  0  0  0  0  0  0  0
  129.6460  126.4140   67.4460 C   0  0  0  0  0  0  0  0  0  0  0  0
  131.2590  124.8530   64.5920 C   0  0  0  0  0  0  0  0  0  0  0  0
  130.2140  124.4900   63.6700 C   0  0  0  0  0  0  0  0  0  0  0  0
  128.9520  125.0210   63.7500 N   0  0  0  0  0  0  0  0  0  0  0  0
  128.5400  124.5530   58.4240 C   0  0  0  0  0  0  0  0  0  0  0  0
  127.7760  124.2280   57.3070 C   0  0  0  0  0  0  0  0  0  0  0  0
  124.9930  124.3660   58.8346 H   0  0  0  0  0  0  0  0  0  0  0  0
  123.2831  124.5109   58.3037 H   0  0  0  0  0  0  0  0  0  0  0  0
  124.0906  122.9064   58.3037 H   0  0  0  0  0  0  0  0  0  0  0  0
  123.8896  124.6861   56.1185 H   0  0  0  0  0  0  0  0  0  0  0  0
  125.5777  124.8833   56.6975 H   0  0  0  0  0  0  0  0  0  0  0  0
  126.8934  121.0407   58.1501 H   0  0  0  0  0  0  0  0  0  0  0  0
  128.2585  121.6169   60.1435 H   0  0  0  0  0  0  0  0  0  0  0  0
  129.7970  124.7770   60.7340 H   0  0  0  0  0  0  0  0  0  0  0  0
  134.7492  125.2276   67.8299 H   0  0  0  0  0  0  0  0  0  0  0  0
  135.5860  124.3996   66.4731 H   0  0  0  0  0  0  0  0  0  0  0  0
  135.4285  126.1890   66.4731 H   0  0  0  0  0  0  0  0  0  0  0  0
  132.5719  126.5414   67.2661 H   0  0  0  0  0  0  0  0  0  0  0  0
  129.8670  127.4972   64.2144 H   0  0  0  0  0  0  0  0  0  0  0  0
  127.8827  128.8185   64.9463 H   0  0  0  0  0  0  0  0  0  0  0  0
  127.0383  128.5960   67.2773 H   0  0  0  0  0  0  0  0  0  0  0  0
  128.1617  127.0612   68.8851 H   0  0  0  0  0  0  0  0  0  0  0  0
  130.1457  125.7370   68.1545 H   0  0  0  0  0  0  0  0  0  0  0  0
  128.1770  124.4990   64.1340 H   0  0  0  0  0  0  0  0  0  0  0  0
  128.7540  125.9580   63.4240 H   0  0  0  0  0  0  0  0  0  0  0  0
  129.0046  125.5471   58.5007 H   0  0  0  0  0  0  0  0  0  0  0  0
  127.6418  124.9689   56.5051 H   0  0  0  0  0  0  0  0  0  0  0  0
  1  2  1  0
  2  3  1  0
  3  4  1  0
  4  5  2  0
  4  6  1  0
  6  7  2  0
  7  8  1  0
  8  9  2  0
  9 10  1  0
 10 11  1  0
 11 12  2  0
 11 13  1  0
 13 14  1  0
 14 15  1  0
 15 16  2  0
 16 17  1  0
 17 18  1  0
 17 19  2  0
 19 20  1  0
 20 21  1  0
 21 22  2  0
 22 23  1  0
 23 24  2  0
 24 25  1  0
 25 26  2  0
 20 27  2  0
 27 28  1  0
 28 29  1  0
  9 30  1  0
 30 31  2  0
 31  6  1  0
 28 13  2  0
 27 15  1  0
 26 21  1  0
  1 32  1  0
  1 33  1  0
  1 34  1  0
  2 35  1  0
  2 36  1  0
  7 37  1  0
  8 38  1  0
 10 39  1  0
 18 40  1  0
 18 41  1  0
 18 42  1  0
 19 43  1  0
 22 44  1  0
 23 45  1  0
 24 46  1  0
 25 47  1  0
 26 48  1  0
 29 49  1  0
 29 50  1  0
 30 51  1  0
 31 52  1  0
M  END
>  <Binding energies>  (1) 
[-8.41]

>  <Ligand effiencies>  (1) 
[-0.24735294117647058]

>  <Interactions>  (1) 
["V-A:HIS:456:CE1:4069, V-A:GLU:543:CG:4907, V-B:GLU:543:CD:9879, V-A:GLU:543:CD:4908, V-B:HIS:456:CE1:9041, V-B:GLU:543:CB:9877, V-B:GLU:543:CG:9878, V-B:MET:535:CE:9806, V-B:LEU:363:CA:8156, V-B:LEU:363:CD1:8160, V-B:TYR:539:CD2:9845, V-B:PRO:540:CA:9854, V-B:TYR:539:CE2:9847, V-B:PRO:540:N:9855, V-B:TYR:539:CE1:9846, V-B:PRO:540:CB:9856, H-B:TYR:539:N:9841, H-B:ALA:541:N:9862, V-B:TYR:539:CZ:9848, V-B:TYR:539:C:9838, V-B:PRO:540:CD:9858, V-A:ARG:545:CZ:4926, V-B:TYR:539:CD1:9844, H-A:GLY:454:N:4049, H-A:TYR:484:OH:4347, V-B:TYR:539:CA:9840, V-B:TYR:539:CG:9843, V-A:GLY:454:CA:4048, V-B:TYR:531:CZ:9765, V-B:TYR:531:CE2:9764, V-A:ARG:545:CD:4923, V-A:ILE:455:C:4051, V-A:ARG:545:CG:4922, H-B:GLU:543:OE1:9880, H-B:GLU:543:OE2:9881, V-B:LEU:363:CB:8158, V-A:GLY:453:C:4041, V-A:GLY:453:CA:4043, V-A:GLY:454:C:4046"]

$$$$
4eb_Grossjean_2025
     RDKit          3D

 49 52  0  0  0  0  0  0  0  0999 V2000
  124.6600  124.2380   56.9390 C   0  0  0  0  0  0  0  0  0  0  0  0
  125.0150  123.3880   55.8580 O   0  0  0  0  0  0  0  0  0  0  0  0
  126.1840  122.6960   55.8680 C   0  0  0  0  0  0  0  0  0  0  0  0
  126.4850  121.8570   55.0150 O   0  0  0  0  0  0  0  0  0  0  0  0
  127.0750  123.0550   57.0230 C   0  0  0  0  0  0  0  0  0  0  0  0
  126.9230  122.3770   58.2400 C   0  0  0  0  0  0  0  0  0  0  0  0
  127.7330  122.6860   59.3280 C   0  0  0  0  0  0  0  0  0  0  0  0
  128.7100  123.6770   59.2240 C   0  0  0  0  0  0  0  0  0  0  0  0
  129.4700  123.9050   60.3890 N   0  0  0  0  0  0  0  0  0  0  0  0
  130.1080  123.0310   61.2060 C   0  0  0  0  0  0  0  0  0  0  0  0
  130.1200  121.8110   61.0420 O   0  0  0  0  0  0  0  0  0  0  0  0
  130.8100  123.6350   62.3410 C   0  0  0  0  0  0  0  0  0  0  0  0
  132.4500  123.1270   62.7480 S   0  0  0  0  0  0  0  0  0  0  0  0
  132.5140  124.2440   64.0930 C   0  0  0  0  0  0  0  0  0  0  0  0
  133.5920  124.3470   64.8720 N   0  0  0  0  0  0  0  0  0  0  0  0
  133.5140  125.2500   65.8790 C   0  0  0  0  0  0  0  0  0  0  0  0
  134.7510  125.3520   66.7540 C   0  0  0  0  0  0  0  0  0  0  0  0
  132.3960  126.0440   66.1240 C   0  0  0  0  0  0  0  0  0  0  0  0
  131.2680  125.9320   65.3040 C   0  0  0  0  0  0  0  0  0  0  0  0
  130.0860  126.7830   65.5760 C   0  0  0  0  0  0  0  0  0  0  0  0
  129.5410  127.5730   64.5600 C   0  0  0  0  0  0  0  0  0  0  0  0
  128.4280  128.3720   64.8140 C   0  0  0  0  0  0  0  0  0  0  0  0
  127.8650  128.3830   66.0880 C   0  0  0  0  0  0  0  0  0  0  0  0
  128.4030  127.6010   67.1080 C   0  0  0  0  0  0  0  0  0  0  0  0
  129.5150  126.8030   66.8520 C   0  0  0  0  0  0  0  0  0  0  0  0
  131.3100  124.9950   64.2350 C   0  0  0  0  0  0  0  0  0  0  0  0
  130.3550  124.6280   63.2230 C   0  0  0  0  0  0  0  0  0  0  0  0
  129.1140  125.2080   63.1420 N   0  0  0  0  0  0  0  0  0  0  0  0
  128.8700  124.3610   58.0100 C   0  0  0  0  0  0  0  0  0  0  0  0
  128.0590  124.0500   56.9220 C   0  0  0  0  0  0  0  0  0  0  0  0
  124.8726  123.7290   57.8907 H   0  0  0  0  0  0  0  0  0  0  0  0
  125.2450  125.1678   56.8818 H   0  0  0  0  0  0  0  0  0  0  0  0
  123.5875  124.4755   56.8818 H   0  0  0  0  0  0  0  0  0  0  0  0
  126.1566  121.5937   58.3358 H   0  0  0  0  0  0  0  0  0  0  0  0
  127.6024  122.1453   60.2770 H   0  0  0  0  0  0  0  0  0  0  0  0
  129.5450  124.8780   60.6450 H   0  0  0  0  0  0  0  0  0  0  0  0
  134.4541  125.3275   67.8129 H   0  0  0  0  0  0  0  0  0  0  0  0
  135.4212  124.5061   66.5414 H   0  0  0  0  0  0  0  0  0  0  0  0
  135.2736  126.2963   66.5414 H   0  0  0  0  0  0  0  0  0  0  0  0
  132.4000  126.7579   66.9608 H   0  0  0  0  0  0  0  0  0  0  0  0
  129.9921  127.5640   63.5568 H   0  0  0  0  0  0  0  0  0  0  0  0
  127.9965  128.9904   64.0131 H   0  0  0  0  0  0  0  0  0  0  0  0
  126.9877  129.0148   66.2907 H   0  0  0  0  0  0  0  0  0  0  0  0
  127.9513  127.6140   68.1109 H   0  0  0  0  0  0  0  0  0  0  0  0
  129.9451  126.1870   67.6555 H   0  0  0  0  0  0  0  0  0  0  0  0
  128.9020  125.9140   62.4510 H   0  0  0  0  0  0  0  0  0  0  0  0
  128.3680  124.9480   63.7730 H   0  0  0  0  0  0  0  0  0  0  0  0
  129.6371  125.1440   57.9175 H   0  0  0  0  0  0  0  0  0  0  0  0
  128.1911  124.5902   55.9729 H   0  0  0  0  0  0  0  0  0  0  0  0
  1  2  1  0
  2  3  1  0
  3  4  2  0
  3  5  1  0
  5  6  2  0
  6  7  1  0
  7  8  2  0
  8  9  1  0
  9 10  1  0
 10 11  2  0
 10 12  1  0
 12 13  1  0
 13 14  1  0
 14 15  2  0
 15 16  1  0
 16 17  1  0
 16 18  2  0
 18 19  1  0
 19 20  1  0
 20 21  2  0
 21 22  1  0
 22 23  2  0
 23 24  1  0
 24 25  2  0
 19 26  2  0
 26 27  1  0
 27 28  1  0
  8 29  1  0
 29 30  2  0
 30  5  1  0
 27 12  2  0
 26 14  1  0
 25 20  1  0
  1 31  1  0
  1 32  1  0
  1 33  1  0
  6 34  1  0
  7 35  1  0
  9 36  1  0
 17 37  1  0
 17 38  1  0
 17 39  1  0
 18 40  1  0
 21 41  1  0
 22 42  1  0
 23 43  1  0
 24 44  1  0
 25 45  1  0
 28 46  1  0
 28 47  1  0
 29 48  1  0
 30 49  1  0
M  END
>  <Binding energies>  (1) 
[-8.05]

>  <Ligand effiencies>  (1) 
[-0.24393939393939396]

>  <Interactions>  (1) 
["V-A:HIS:456:CE1:4069, V-A:GLU:543:CG:4907, V-B:GLU:543:CD:9879, V-A:GLU:543:CD:4908, V-B:GLU:543:CG:9878, V-B:MET:535:CE:9806, V-B:LEU:363:CD1:8160, V-B:PRO:540:CA:9854, V-B:TYR:539:CE2:9847, V-B:PRO:540:N:9855, V-B:TYR:539:CE1:9846, V-B:PRO:540:CB:9856, H-B:TYR:539:N:9841, V-B:TYR:539:CZ:9848, V-B:TYR:539:C:9838, V-B:PRO:540:CD:9858, V-A:ARG:545:CZ:4926, H-A:GLY:454:N:4049, H-A:TYR:484:OH:4347, V-A:GLY:454:CA:4048, V-B:TYR:531:CZ:9765, V-B:TYR:531:CE2:9764, V-A:ARG:545:CD:4923, V-A:ILE:455:C:4051, V-A:ARG:545:CG:4922, H-B:GLU:543:OE2:9881, V-A:GLY:453:C:4041, V-A:GLY:453:CA:4043"]

$$$$
8a_Ghoteimi_2023
     RDKit          3D

 67 71  0  0  0  0  0  0  0  0999 V2000
  124.6420  123.3520   57.2990 C   0  0  0  0  0  0  0  0  0  0  0  0
  125.2310  122.2560   56.4080 C   0  0  0  0  0  0  0  0  0  0  0  0
  126.5860  122.0270   56.7720 O   0  0  0  0  0  0  0  0  0  0  0  0
  127.4850  123.0460   56.8050 C   0  0  0  0  0  0  0  0  0  0  0  0
  128.0180  123.5150   55.7950 O   0  0  0  0  0  0  0  0  0  0  0  0
  127.7690  123.5420   58.1930 C   0  0  0  0  0  0  0  0  0  0  0  0
  127.4660  124.8690   58.5210 C   0  0  0  0  0  0  0  0  0  0  0  0
  127.7190  125.3590   59.7990 C   0  0  0  0  0  0  0  0  0  0  0  0
  128.2810  124.5350   60.7760 C   0  0  0  0  0  0  0  0  0  0  0  0
  128.4970  125.1400   62.0300 N   0  0  0  0  0  0  0  0  0  0  0  0
  129.6400  125.5960   62.5980 C   0  0  0  0  0  0  0  0  0  0  0  0
  130.7480  125.5440   62.0650 O   0  0  0  0  0  0  0  0  0  0  0  0
  129.4830  126.1830   63.9320 C   0  0  0  0  0  0  0  0  0  0  0  0
  130.3900  125.5410   65.3010 S   0  0  0  0  0  0  0  0  0  0  0  0
  129.6590  126.6990   66.3890 C   0  0  0  0  0  0  0  0  0  0  0  0
  129.9450  126.7140   67.6900 N   0  0  0  0  0  0  0  0  0  0  0  0
  129.3170  127.6520   68.4480 C   0  0  0  0  0  0  0  0  0  0  0  0
  129.6370  127.6380   69.9090 C   0  0  0  0  0  0  0  0  0  0  0  0
  130.6960  128.3970   70.4250 C   0  0  0  0  0  0  0  0  0  0  0  0
  130.9960  128.3700   71.7840 C   0  0  0  0  0  0  0  0  0  0  0  0
  130.2450  127.5890   72.6600 C   0  0  0  0  0  0  0  0  0  0  0  0
  130.6170  127.6230   73.9910 O   0  0  0  0  0  0  0  0  0  0  0  0
  131.0090  126.4140   74.6320 C   0  0  0  0  0  0  0  0  0  0  0  0
  129.1800  126.8310   72.1550 C   0  0  0  0  0  0  0  0  0  0  0  0
  128.8840  126.8570   70.7950 C   0  0  0  0  0  0  0  0  0  0  0  0
  128.4170  128.5710   67.9050 C   0  0  0  0  0  0  0  0  0  0  0  0
  128.1270  128.5690   66.5360 C   0  0  0  0  0  0  0  0  0  0  0  0
  127.1870  129.5890   66.0040 C   0  0  0  0  0  0  0  0  0  0  0  0
  127.6730  130.6920   65.2990 C   0  0  0  0  0  0  0  0  0  0  0  0
  126.7940  131.6400   64.7810 C   0  0  0  0  0  0  0  0  0  0  0  0
  125.4170  131.4990   64.9550 C   0  0  0  0  0  0  0  0  0  0  0  0
  124.6220  132.4880   64.4060 O   0  0  0  0  0  0  0  0  0  0  0  0
  124.1510  132.3390   63.0720 C   0  0  0  0  0  0  0  0  0  0  0  0
  124.9260  130.3870   65.6570 C   0  0  0  0  0  0  0  0  0  0  0  0
  125.8080  129.4400   66.1720 C   0  0  0  0  0  0  0  0  0  0  0  0
  128.7560  127.5820   65.7260 C   0  0  0  0  0  0  0  0  0  0  0  0
  128.6610  127.2520   64.3260 C   0  0  0  0  0  0  0  0  0  0  0  0
  127.8240  127.9180   63.4660 N   0  0  0  0  0  0  0  0  0  0  0  0
  128.5830  123.2020   60.4580 C   0  0  0  0  0  0  0  0  0  0  0  0
  128.3290  122.7140   59.1790 C   0  0  0  0  0  0  0  0  0  0  0  0
  124.7867  123.0827   58.3557 H   0  0  0  0  0  0  0  0  0  0  0  0
  125.1491  124.3057   57.0909 H   0  0  0  0  0  0  0  0  0  0  0  0
  123.5668  123.4554   57.0909 H   0  0  0  0  0  0  0  0  0  0  0  0
  124.6545  121.3283   56.5382 H   0  0  0  0  0  0  0  0  0  0  0  0
  125.1824  122.5731   55.3558 H   0  0  0  0  0  0  0  0  0  0  0  0
  127.0238  125.5306   57.7615 H   0  0  0  0  0  0  0  0  0  0  0  0
  127.4742  126.4037   60.0412 H   0  0  0  0  0  0  0  0  0  0  0  0
  127.6580  125.2570   62.5790 H   0  0  0  0  0  0  0  0  0  0  0  0
  131.2974  129.0216   69.7480 H   0  0  0  0  0  0  0  0  0  0  0  0
  131.8331  128.9704   72.1697 H   0  0  0  0  0  0  0  0  0  0  0  0
  130.9659  126.5468   75.7231 H   0  0  0  0  0  0  0  0  0  0  0  0
  130.3276  125.6034   74.3341 H   0  0  0  0  0  0  0  0  0  0  0  0
  132.0364  126.1575   74.3341 H   0  0  0  0  0  0  0  0  0  0  0  0
  128.5758  126.2133   72.8357 H   0  0  0  0  0  0  0  0  0  0  0  0
  128.0469  126.2557   70.4107 H   0  0  0  0  0  0  0  0  0  0  0  0
  127.9295  129.3063   68.5620 H   0  0  0  0  0  0  0  0  0  0  0  0
  128.7564  130.8129   65.1519 H   0  0  0  0  0  0  0  0  0  0  0  0
  127.1886  132.5067   64.2304 H   0  0  0  0  0  0  0  0  0  0  0  0
  123.1023  132.0073   63.0883 H   0  0  0  0  0  0  0  0  0  0  0  0
  124.2223  133.3036   62.5481 H   0  0  0  0  0  0  0  0  0  0  0  0
  124.7641  131.5909   62.5481 H   0  0  0  0  0  0  0  0  0  0  0  0
  123.8425  130.2633   65.8007 H   0  0  0  0  0  0  0  0  0  0  0  0
  125.4157  128.5677   66.7154 H   0  0  0  0  0  0  0  0  0  0  0  0
  126.8670  127.6230   63.3290 H   0  0  0  0  0  0  0  0  0  0  0  0
  128.1310  128.7270   62.9460 H   0  0  0  0  0  0  0  0  0  0  0  0
  129.0212  122.5414   61.2206 H   0  0  0  0  0  0  0  0  0  0  0  0
  128.5698  121.6680   58.9383 H   0  0  0  0  0  0  0  0  0  0  0  0
  1  2  1  0
  2  3  1  0
  3  4  1  0
  4  5  2  0
  4  6  1  0
  6  7  2  0
  7  8  1  0
  8  9  2  0
  9 10  1  0
 10 11  1  0
 11 12  2  0
 11 13  1  0
 13 14  1  0
 14 15  1  0
 15 16  2  0
 16 17  1  0
 17 18  1  0
 18 19  2  0
 19 20  1  0
 20 21  2  0
 21 22  1  0
 22 23  1  0
 21 24  1  0
 24 25  2  0
 17 26  2  0
 26 27  1  0
 27 28  1  0
 28 29  2  0
 29 30  1  0
 30 31  2  0
 31 32  1  0
 32 33  1  0
 31 34  1  0
 34 35  2  0
 27 36  2  0
 36 37  1  0
 37 38  1  0
  9 39  1  0
 39 40  2  0
 40  6  1  0
 37 13  2  0
 36 15  1  0
 25 18  1  0
 35 28  1  0
  1 41  1  0
  1 42  1  0
  1 43  1  0
  2 44  1  0
  2 45  1  0
  7 46  1  0
  8 47  1  0
 10 48  1  0
 19 49  1  0
 20 50  1  0
 23 51  1  0
 23 52  1  0
 23 53  1  0
 24 54  1  0
 25 55  1  0
 26 56  1  0
 29 57  1  0
 30 58  1  0
 33 59  1  0
 33 60  1  0
 33 61  1  0
 34 62  1  0
 35 63  1  0
 38 64  1  0
 38 65  1  0
 39 66  1  0
 40 67  1  0
M  END
>  <Binding energies>  (1) 
[-9.75]

>  <Ligand effiencies>  (1) 
[-0.22674418604651161]

>  <Interactions>  (1) 
["V-A:HIS:456:CE1:4069, V-A:GLU:543:CB:4906, V-A:GLU:543:CG:4907, V-B:GLU:543:CD:9879, V-A:GLU:543:CD:4908, V-B:HIS:456:CE1:9041, H-A:LYS:547:NZ:4951, V-B:LEU:363:CD1:8160, V-B:TYR:539:CD2:9845, V-B:PRO:540:CA:9854, V-B:TYR:539:CE2:9847, V-B:PRO:540:N:9855, V-B:TYR:539:CE1:9846, V-B:PRO:540:CB:9856, H-B:TYR:539:N:9841, V-B:TYR:539:CZ:9848, V-B:TYR:539:C:9838, V-B:PRO:540:CD:9858, V-B:PRO:540:CG:9857, H-B:TYR:539:OH:9849, V-B:TYR:539:CD1:9844, H-B:GLY:454:N:9021, V-B:GLY:454:CA:9020, H-B:GLU:543:OE1:9880, H-B:GLU:543:OE2:9881, V-B:LEU:475:CD1:9229, V-B:ILE:369:CD1:8210"]

$$$$
8b_Ghoteimi_2023
     RDKit          3D

 54 58  0  0  0  0  0  0  0  0999 V2000
  129.2040  129.7250   75.1340 C   0  0  0  0  0  0  0  0  0  0  0  0
  130.2420  129.1680   74.3340 O   0  0  0  0  0  0  0  0  0  0  0  0
  129.9950  128.9010   73.0010 C   0  0  0  0  0  0  0  0  0  0  0  0
  129.4530  129.9390   72.2470 C   0  0  0  0  0  0  0  0  0  0  0  0
  129.1700  129.7610   70.8970 C   0  0  0  0  0  0  0  0  0  0  0  0
  129.4220  128.5350   70.2640 C   0  0  0  0  0  0  0  0  0  0  0  0
  129.1190  128.3370   68.8120 C   0  0  0  0  0  0  0  0  0  0  0  0
  128.2990  129.2220   68.1030 C   0  0  0  0  0  0  0  0  0  0  0  0
  128.0320  129.0150   66.7470 C   0  0  0  0  0  0  0  0  0  0  0  0
  127.1520  129.9650   66.0280 C   0  0  0  0  0  0  0  0  0  0  0  0
  125.8130  129.6470   65.7970 C   0  0  0  0  0  0  0  0  0  0  0  0
  124.9860  130.5460   65.1290 C   0  0  0  0  0  0  0  0  0  0  0  0
  125.4820  131.7710   64.6820 C   0  0  0  0  0  0  0  0  0  0  0  0
  124.5890  132.6000   64.0320 O   0  0  0  0  0  0  0  0  0  0  0  0
  123.8690  132.1010   62.9090 C   0  0  0  0  0  0  0  0  0  0  0  0
  126.8310  132.0870   64.9130 C   0  0  0  0  0  0  0  0  0  0  0  0
  127.6570  131.1880   65.5810 C   0  0  0  0  0  0  0  0  0  0  0  0
  128.6200  127.8870   66.1140 C   0  0  0  0  0  0  0  0  0  0  0  0
  128.5660  127.3860   64.7650 C   0  0  0  0  0  0  0  0  0  0  0  0
  127.8450  128.0090   63.7790 N   0  0  0  0  0  0  0  0  0  0  0  0
  129.3140  126.2160   64.5640 C   0  0  0  0  0  0  0  0  0  0  0  0
  129.4850  125.4450   63.3310 C   0  0  0  0  0  0  0  0  0  0  0  0
  130.4950  125.5850   62.6360 O   0  0  0  0  0  0  0  0  0  0  0  0
  128.4710  124.5950   63.0300 N   0  0  0  0  0  0  0  0  0  0  0  0
  128.3740  123.7490   61.9340 C   0  0  0  0  0  0  0  0  0  0  0  0
  129.4560  123.4430   61.1100 C   0  0  0  0  0  0  0  0  0  0  0  0
  128.9500  122.5910   60.1550 C   0  0  0  0  0  0  0  0  0  0  0  0
  127.6330  122.3910   60.3930 O   0  0  0  0  0  0  0  0  0  0  0  0
  127.2790  123.1290   61.5240 N   0  0  0  0  0  0  0  0  0  0  0  0
  130.1120  125.7050   66.0520 S   0  0  0  0  0  0  0  0  0  0  0  0
  129.4400  127.0580   66.9320 C   0  0  0  0  0  0  0  0  0  0  0  0
  129.6940  127.2530   68.2260 N   0  0  0  0  0  0  0  0  0  0  0  0
  129.9700  127.4950   71.0270 C   0  0  0  0  0  0  0  0  0  0  0  0
  130.2530  127.6710   72.3790 C   0  0  0  0  0  0  0  0  0  0  0  0
  129.4501  129.5929   76.1979 H   0  0  0  0  0  0  0  0  0  0  0  0
  129.1047  130.7976   74.9110 H   0  0  0  0  0  0  0  0  0  0  0  0
  128.2553  129.2148   74.9110 H   0  0  0  0  0  0  0  0  0  0  0  0
  129.2468  130.9087   72.7237 H   0  0  0  0  0  0  0  0  0  0  0  0
  128.7428  130.5929   70.3179 H   0  0  0  0  0  0  0  0  0  0  0  0
  127.8602  130.0892   68.6182 H   0  0  0  0  0  0  0  0  0  0  0  0
  125.4100  128.6839   66.1435 H   0  0  0  0  0  0  0  0  0  0  0  0
  123.9314  130.2880   64.9520 H   0  0  0  0  0  0  0  0  0  0  0  0
  123.0116  131.5067   63.2578 H   0  0  0  0  0  0  0  0  0  0  0  0
  123.5081  132.9436   62.3010 H   0  0  0  0  0  0  0  0  0  0  0  0
  124.5313  131.4672   62.3010 H   0  0  0  0  0  0  0  0  0  0  0  0
  127.2360  133.0486   64.5646 H   0  0  0  0  0  0  0  0  0  0  0  0
  128.7126  131.4419   65.7578 H   0  0  0  0  0  0  0  0  0  0  0  0
  128.1550  128.8790   63.3700 H   0  0  0  0  0  0  0  0  0  0  0  0
  126.9790  127.6230   63.4290 H   0  0  0  0  0  0  0  0  0  0  0  0
  127.6940  124.5650   63.6720 H   0  0  0  0  0  0  0  0  0  0  0  0
  130.4907  123.8045   61.2030 H   0  0  0  0  0  0  0  0  0  0  0  0
  129.5243  122.1441   59.3301 H   0  0  0  0  0  0  0  0  0  0  0  0
  130.1796  126.5257   70.5510 H   0  0  0  0  0  0  0  0  0  0  0  0
  130.6807  126.8417   72.9615 H   0  0  0  0  0  0  0  0  0  0  0  0
  1  2  1  0
  2  3  1  0
  3  4  2  0
  4  5  1  0
  5  6  2  0
  6  7  1  0
  7  8  2  0
  8  9  1  0
  9 10  1  0
 10 11  2  0
 11 12  1  0
 12 13  2  0
 13 14  1  0
 14 15  1  0
 13 16  1  0
 16 17  2  0
  9 18  2  0
 18 19  1  0
 19 20  1  0
 19 21  2  0
 21 22  1  0
 22 23  2  0
 22 24  1  0
 24 25  1  0
 25 26  1  0
 26 27  2  0
 27 28  1  0
 28 29  1  0
 21 30  1  0
 30 31  1  0
 31 32  2  0
  6 33  1  0
 33 34  2  0
 34  3  1  0
 32  7  1  0
 17 10  1  0
 31 18  1  0
 29 25  2  0
  1 35  1  0
  1 36  1  0
  1 37  1  0
  4 38  1  0
  5 39  1  0
  8 40  1  0
 11 41  1  0
 12 42  1  0
 15 43  1  0
 15 44  1  0
 15 45  1  0
 16 46  1  0
 17 47  1  0
 20 48  1  0
 20 49  1  0
 24 50  1  0
 26 51  1  0
 27 52  1  0
 33 53  1  0
 34 54  1  0
M  END
>  <Binding energies>  (1) 
[-8.46]

>  <Ligand effiencies>  (1) 
[-0.22864864864864867]

>  <Interactions>  (1) 
["V-A:LYS:547:CE:4950, V-A:HIS:456:CE1:4069, V-A:GLU:543:CB:4906, V-A:GLU:543:CG:4907, V-B:GLU:543:CD:9879, V-A:GLU:543:CD:4908, V-B:HIS:456:CE1:9041, H-A:LYS:547:NZ:4951, V-B:GLU:543:CG:9878, V-B:TYR:539:CD2:9845, V-B:TYR:539:CE2:9847, V-B:ALA:541:CB:9863, H-B:ALA:541:N:9862, V-A:GLU:543:C:4902, H-B:GLY:454:N:9021, V-B:GLY:454:CA:9020, H-B:GLU:543:OE1:9880, H-B:GLU:543:OE2:9881, V-B:LEU:475:CD1:9229, V-B:ILE:369:CD1:8210"]

$$$$
8c_Ghoteimi_2023
     RDKit          3D

 54 58  0  0  0  0  0  0  0  0999 V2000
  129.1760  128.7560   75.3760 C   0  0  0  0  0  0  0  0  0  0  0  0
  130.2380  128.4210   74.4900 O   0  0  0  0  0  0  0  0  0  0  0  0
  129.9940  128.3830   73.1300 C   0  0  0  0  0  0  0  0  0  0  0  0
  129.6800  127.1380   72.5880 C   0  0  0  0  0  0  0  0  0  0  0  0
  129.4230  127.0040   71.2270 C   0  0  0  0  0  0  0  0  0  0  0  0
  129.4720  128.1140   70.3710 C   0  0  0  0  0  0  0  0  0  0  0  0
  129.1990  127.9750   68.9060 C   0  0  0  0  0  0  0  0  0  0  0  0
  128.3660  128.8670   68.2240 C   0  0  0  0  0  0  0  0  0  0  0  0
  128.1290  128.7170   66.8540 C   0  0  0  0  0  0  0  0  0  0  0  0
  127.2340  129.6730   66.1630 C   0  0  0  0  0  0  0  0  0  0  0  0
  125.8480  129.5120   66.2290 C   0  0  0  0  0  0  0  0  0  0  0  0
  125.0080  130.4170   65.5870 C   0  0  0  0  0  0  0  0  0  0  0  0
  125.5370  131.4910   64.8690 C   0  0  0  0  0  0  0  0  0  0  0  0
  124.6280  132.3400   64.2670 O   0  0  0  0  0  0  0  0  0  0  0  0
  124.0130  131.9450   63.0460 C   0  0  0  0  0  0  0  0  0  0  0  0
  126.9310  131.6480   64.8010 C   0  0  0  0  0  0  0  0  0  0  0  0
  127.7700  130.7430   65.4440 C   0  0  0  0  0  0  0  0  0  0  0  0
  128.7650  127.6400   66.1810 C   0  0  0  0  0  0  0  0  0  0  0  0
  128.7490  127.2000   64.8100 C   0  0  0  0  0  0  0  0  0  0  0  0
  128.0240  127.8450   63.8400 N   0  0  0  0  0  0  0  0  0  0  0  0
  129.5360  126.0630   64.5680 C   0  0  0  0  0  0  0  0  0  0  0  0
  129.7520  125.3560   63.3040 C   0  0  0  0  0  0  0  0  0  0  0  0
  130.8410  125.4130   62.7280 O   0  0  0  0  0  0  0  0  0  0  0  0
  128.6860  124.6600   62.8380 N   0  0  0  0  0  0  0  0  0  0  0  0
  128.6260  123.9070   61.6740 C   0  0  0  0  0  0  0  0  0  0  0  0
  128.0110  122.7590   61.4850 N   0  0  0  0  0  0  0  0  0  0  0  0
  128.1600  122.3270   60.2490 C   0  0  0  0  0  0  0  0  0  0  0  0
  128.9130  123.1330   59.4010 C   0  0  0  0  0  0  0  0  0  0  0  0
  129.4520  124.5310   60.2830 S   0  0  0  0  0  0  0  0  0  0  0  0
  130.3260  125.5090   66.0450 S   0  0  0  0  0  0  0  0  0  0  0  0
  129.5960  126.7980   66.9740 C   0  0  0  0  0  0  0  0  0  0  0  0
  129.8200  126.9390   68.2810 N   0  0  0  0  0  0  0  0  0  0  0  0
  129.7850  129.3630   70.9240 C   0  0  0  0  0  0  0  0  0  0  0  0
  130.0440  129.5000   72.2840 C   0  0  0  0  0  0  0  0  0  0  0  0
  129.5182  128.6481   76.4158 H   0  0  0  0  0  0  0  0  0  0  0  0
  128.8647  129.7960   75.1985 H   0  0  0  0  0  0  0  0  0  0  0  0
  128.3243  128.0829   75.1985 H   0  0  0  0  0  0  0  0  0  0  0  0
  129.6350  126.2542   73.2413 H   0  0  0  0  0  0  0  0  0  0  0  0
  129.1779  126.0133   70.8166 H   0  0  0  0  0  0  0  0  0  0  0  0
  127.8921  129.6955   68.7708 H   0  0  0  0  0  0  0  0  0  0  0  0
  125.4196  128.6681   66.7896 H   0  0  0  0  0  0  0  0  0  0  0  0
  123.9175  130.2849   65.6458 H   0  0  0  0  0  0  0  0  0  0  0  0
  123.1058  131.3623   63.2641 H   0  0  0  0  0  0  0  0  0  0  0  0
  123.7435  132.8394   62.4651 H   0  0  0  0  0  0  0  0  0  0  0  0
  124.7143  131.3280   62.4651 H   0  0  0  0  0  0  0  0  0  0  0  0
  127.3610  132.4892   64.2376 H   0  0  0  0  0  0  0  0  0  0  0  0
  128.8609  130.8713   65.3855 H   0  0  0  0  0  0  0  0  0  0  0  0
  127.0780  127.5680   63.6160 H   0  0  0  0  0  0  0  0  0  0  0  0
  128.4100  128.6170   63.3140 H   0  0  0  0  0  0  0  0  0  0  0  0
  127.8420  124.6810   63.3910 H   0  0  0  0  0  0  0  0  0  0  0  0
  127.7138  121.3816   59.9067 H   0  0  0  0  0  0  0  0  0  0  0  0
  129.1318  122.9203   58.3442 H   0  0  0  0  0  0  0  0  0  0  0  0
  129.8265  130.2486   70.2728 H   0  0  0  0  0  0  0  0  0  0  0  0
  130.2892  130.4894   72.6976 H   0  0  0  0  0  0  0  0  0  0  0  0
  1  2  1  0
  2  3  1  0
  3  4  2  0
  4  5  1  0
  5  6  2  0
  6  7  1  0
  7  8  2  0
  8  9  1  0
  9 10  1  0
 10 11  2  0
 11 12  1  0
 12 13  2  0
 13 14  1  0
 14 15  1  0
 13 16  1  0
 16 17  2  0
  9 18  2  0
 18 19  1  0
 19 20  1  0
 19 21  2  0
 21 22  1  0
 22 23  2  0
 22 24  1  0
 24 25  1  0
 25 26  2  0
 26 27  1  0
 27 28  2  0
 28 29  1  0
 21 30  1  0
 30 31  1  0
 31 32  2  0
  6 33  1  0
 33 34  2  0
 34  3  1  0
 32  7  1  0
 17 10  1  0
 31 18  1  0
 29 25  1  0
  1 35  1  0
  1 36  1  0
  1 37  1  0
  4 38  1  0
  5 39  1  0
  8 40  1  0
 11 41  1  0
 12 42  1  0
 15 43  1  0
 15 44  1  0
 15 45  1  0
 16 46  1  0
 17 47  1  0
 20 48  1  0
 20 49  1  0
 24 50  1  0
 27 51  1  0
 28 52  1  0
 33 53  1  0
 34 54  1  0
M  END
>  <Binding energies>  (1) 
[-8.31]

>  <Ligand effiencies>  (1) 
[-0.2245945945945946]

>  <Interactions>  (1) 
["V-A:LYS:547:CE:4950, V-A:HIS:456:CE1:4069, V-A:GLU:543:CB:4906, V-A:GLU:543:CG:4907, V-B:GLU:543:CD:9879, V-A:GLU:543:CD:4908, V-B:HIS:456:CE1:9041, H-A:LYS:547:NZ:4951, V-B:GLU:543:CG:9878, V-B:TYR:539:CD2:9845, V-B:PRO:540:CA:9854, V-B:TYR:539:CE2:9847, V-B:PRO:540:C:9852, H-B:ALA:541:N:9862, V-B:TYR:539:CZ:9848, V-B:TYR:539:C:9838, V-A:GLU:543:C:4902, H-B:GLY:454:N:9021, V-B:GLY:454:CA:9020, H-B:GLU:543:OE1:9880, H-B:GLU:543:OE2:9881, V-B:LEU:475:CD1:9229, H-A:GLU:543:OE1:4909, V-B:ILE:369:CD1:8210"]

$$$$
8d_Ghoteimi_2023
     RDKit          3D

 50 53  0  0  0  0  0  0  0  0999 V2000
  132.3230  132.1280   61.7060 C   0  0  0  0  0  0  0  0  0  0  0  0
  130.9100  132.0030   61.6330 O   0  0  0  0  0  0  0  0  0  0  0  0
  130.2900  131.7840   60.4440 C   0  0  0  0  0  0  0  0  0  0  0  0
  129.9520  132.6800   59.6670 O   0  0  0  0  0  0  0  0  0  0  0  0
  130.0600  130.3490   60.1710 C   0  0  0  0  0  0  0  0  0  0  0  0
  128.9860  129.8640   58.8570 S   0  0  0  0  0  0  0  0  0  0  0  0
  129.2580  128.1730   59.2070 C   0  0  0  0  0  0  0  0  0  0  0  0
  128.6740  127.2050   58.4990 N   0  0  0  0  0  0  0  0  0  0  0  0
  128.9560  125.9230   58.8540 C   0  0  0  0  0  0  0  0  0  0  0  0
  128.2840  124.8570   58.0470 C   0  0  0  0  0  0  0  0  0  0  0  0
  127.7480  123.7150   58.6590 C   0  0  0  0  0  0  0  0  0  0  0  0
  127.1250  122.7260   57.9030 C   0  0  0  0  0  0  0  0  0  0  0  0
  127.0210  122.8510   56.5180 C   0  0  0  0  0  0  0  0  0  0  0  0
  126.3870  121.8220   55.8510 O   0  0  0  0  0  0  0  0  0  0  0  0
  125.0090  121.9570   55.5160 C   0  0  0  0  0  0  0  0  0  0  0  0
  127.5530  123.9900   55.8970 C   0  0  0  0  0  0  0  0  0  0  0  0
  128.1750  124.9770   56.6560 C   0  0  0  0  0  0  0  0  0  0  0  0
  129.8110  125.6120   59.9160 C   0  0  0  0  0  0  0  0  0  0  0  0
  130.4260  126.6270   60.6560 C   0  0  0  0  0  0  0  0  0  0  0  0
  131.3340  126.2670   61.7690 C   0  0  0  0  0  0  0  0  0  0  0  0
  132.5610  125.6560   61.5050 C   0  0  0  0  0  0  0  0  0  0  0  0
  133.4110  125.3090   62.5520 C   0  0  0  0  0  0  0  0  0  0  0  0
  133.0500  125.5700   63.8740 C   0  0  0  0  0  0  0  0  0  0  0  0
  133.9540  125.1900   64.8460 O   0  0  0  0  0  0  0  0  0  0  0  0
  133.6370  125.4150   66.2150 C   0  0  0  0  0  0  0  0  0  0  0  0
  131.8160  126.1880   64.1370 C   0  0  0  0  0  0  0  0  0  0  0  0
  130.9670  126.5330   63.0890 C   0  0  0  0  0  0  0  0  0  0  0  0
  130.1480  127.9740   60.3010 C   0  0  0  0  0  0  0  0  0  0  0  0
  130.5900  129.2340   60.8320 C   0  0  0  0  0  0  0  0  0  0  0  0
  131.4500  129.3270   61.8960 N   0  0  0  0  0  0  0  0  0  0  0  0
  132.6347  132.1556   62.7606 H   0  0  0  0  0  0  0  0  0  0  0  0
  132.7935  131.2680   61.2070 H   0  0  0  0  0  0  0  0  0  0  0  0
  132.6352  133.0573   61.2070 H   0  0  0  0  0  0  0  0  0  0  0  0
  127.8207  123.5991   59.7505 H   0  0  0  0  0  0  0  0  0  0  0  0
  126.7110  121.8378   58.4027 H   0  0  0  0  0  0  0  0  0  0  0  0
  124.4116  122.0155   56.4378 H   0  0  0  0  0  0  0  0  0  0  0  0
  124.8632  122.8737   54.9258 H   0  0  0  0  0  0  0  0  0  0  0  0
  124.6881  121.0860   54.9258 H   0  0  0  0  0  0  0  0  0  0  0  0
  127.4785  124.1040   54.8055 H   0  0  0  0  0  0  0  0  0  0  0  0
  128.5875  125.8654   56.1553 H   0  0  0  0  0  0  0  0  0  0  0  0
  130.0016  124.5593   60.1717 H   0  0  0  0  0  0  0  0  0  0  0  0
  132.8575  125.4479   60.4663 H   0  0  0  0  0  0  0  0  0  0  0  0
  134.3748  124.8252   62.3349 H   0  0  0  0  0  0  0  0  0  0  0  0
  134.3689  124.8955   66.8510 H   0  0  0  0  0  0  0  0  0  0  0  0
  133.6684  126.4941   66.4261 H   0  0  0  0  0  0  0  0  0  0  0  0
  132.6287  125.0293   66.4261 H   0  0  0  0  0  0  0  0  0  0  0  0
  131.5196  126.4001   65.1749 H   0  0  0  0  0  0  0  0  0  0  0  0
  130.0027  127.0174   63.3022 H   0  0  0  0  0  0  0  0  0  0  0  0
  131.3300  130.0300   62.6120 H   0  0  0  0  0  0  0  0  0  0  0  0
  132.2300  128.6930   62.0050 H   0  0  0  0  0  0  0  0  0  0  0  0
  1  2  1  0
  2  3  1  0
  3  4  2  0
  3  5  1  0
  5  6  1  0
  6  7  1  0
  7  8  2  0
  8  9  1  0
  9 10  1  0
 10 11  2  0
 11 12  1  0
 12 13  2  0
 13 14  1  0
 14 15  1  0
 13 16  1  0
 16 17  2  0
  9 18  2  0
 18 19  1  0
 19 20  1  0
 20 21  2  0
 21 22  1  0
 22 23  2  0
 23 24  1  0
 24 25  1  0
 23 26  1  0
 26 27  2  0
 19 28  2  0
 28 29  1  0
 29 30  1  0
 29  5  2  0
 28  7  1  0
 17 10  1  0
 27 20  1  0
  1 31  1  0
  1 32  1  0
  1 33  1  0
 11 34  1  0
 12 35  1  0
 15 36  1  0
 15 37  1  0
 15 38  1  0
 16 39  1  0
 17 40  1  0
 18 41  1  0
 21 42  1  0
 22 43  1  0
 25 44  1  0
 25 45  1  0
 25 46  1  0
 26 47  1  0
 27 48  1  0
 30 49  1  0
 30 50  1  0
M  END
>  <Binding energies>  (1) 
[-7.29]

>  <Ligand effiencies>  (1) 
[-0.2278125]

>  <Interactions>  (1) 
["V-A:HIS:456:CE1:4069, V-A:GLU:543:CD:4908, V-B:MET:535:CE:9806, V-B:LEU:363:CD1:8160, V-B:PRO:540:CA:9854, V-B:PRO:540:N:9855, V-B:TYR:539:CE1:9846, H-B:TYR:539:N:9841, V-B:TYR:539:CZ:9848, V-B:TYR:539:C:9838, V-B:PRO:540:CD:9858, V-A:ARG:545:CZ:4926, V-B:ILE:538:CA:9831, V-B:TYR:539:CD1:9844, H-A:GLY:454:N:4049, V-B:ILE:538:CG2:9834, V-A:PRO:540:CB:4885, V-A:ASP:366:CG:3212, V-A:PRO:540:CA:4883, V-B:ILE:538:CD1:9836, H-A:ARG:545:NH1:4927, H-A:ASP:366:OD1:3213, H-A:ASP:366:OD2:3214, H-A:ALA:541:N:4891, V-A:PRO:540:C:4881, H-A:ARG:545:NE:4924, V-A:ARG:545:CD:4923, V-A:ARG:545:CG:4922, H-A:GLU:543:OE1:4909, V-B:ILE:538:CB:9833, V-B:ILE:538:C:9829"]

$$$$
9a_Ghoteimi_2023
     RDKit          3D

 85 91  0  0  0  0  0  0  0  0999 V2000
  131.2670  131.4930   55.6910 C   0  0  0  0  0  0  0  0  0  0  0  0
  131.8170  132.9060   55.9090 C   0  0  0  0  0  0  0  0  0  0  0  0
  130.9890  133.5990   56.8340 O   0  0  0  0  0  0  0  0  0  0  0  0
  129.6950  133.2370   57.0240 C   0  0  0  0  0  0  0  0  0  0  0  0
  128.7800  133.5530   56.2560 O   0  0  0  0  0  0  0  0  0  0  0  0
  129.4820  132.4210   58.2670 C   0  0  0  0  0  0  0  0  0  0  0  0
  130.5570  132.2110   59.1400 C   0  0  0  0  0  0  0  0  0  0  0  0
  130.3920  131.4570   60.2990 C   0  0  0  0  0  0  0  0  0  0  0  0
  129.1520  130.9000   60.6100 C   0  0  0  0  0  0  0  0  0  0  0  0
  129.1020  130.1570   61.8050 N   0  0  0  0  0  0  0  0  0  0  0  0
  128.0390  129.7150   62.5220 C   0  0  0  0  0  0  0  0  0  0  0  0
  126.8640  129.9100   62.2080 O   0  0  0  0  0  0  0  0  0  0  0  0
  128.3710  128.9560   63.7310 C   0  0  0  0  0  0  0  0  0  0  0  0
  128.0220  129.6250   65.3260 S   0  0  0  0  0  0  0  0  0  0  0  0
  128.6610  128.2010   66.1130 C   0  0  0  0  0  0  0  0  0  0  0  0
  128.6610  128.0780   67.4400 N   0  0  0  0  0  0  0  0  0  0  0  0
  129.1700  126.9250   67.9520 C   0  0  0  0  0  0  0  0  0  0  0  0
  129.1500  126.8040   69.4410 C   0  0  0  0  0  0  0  0  0  0  0  0
  128.3960  125.8020   70.0630 C   0  0  0  0  0  0  0  0  0  0  0  0
  128.3730  125.6810   71.4500 C   0  0  0  0  0  0  0  0  0  0  0  0
  129.1150  126.5490   72.2660 C   0  0  0  0  0  0  0  0  0  0  0  0
  129.0870  126.4510   73.6610 N   0  0  0  0  0  0  0  0  0  0  0  0
  129.9330  125.4810   74.3850 C   0  0  0  0  0  0  0  0  0  0  0  0
  129.5140  125.2620   75.8540 C   0  0  0  0  0  0  0  0  0  0  0  0
  129.4660  126.5040   76.5360 O   0  0  0  0  0  0  0  0  0  0  0  0
  128.5280  127.3880   75.9420 C   0  0  0  0  0  0  0  0  0  0  0  0
  128.9250  127.6720   74.4790 C   0  0  0  0  0  0  0  0  0  0  0  0
  129.8580  127.5600   71.6390 C   0  0  0  0  0  0  0  0  0  0  0  0
  129.8780  127.6820   70.2530 C   0  0  0  0  0  0  0  0  0  0  0  0
  129.6990  125.9190   67.1410 C   0  0  0  0  0  0  0  0  0  0  0  0
  129.7180  126.0540   65.7480 C   0  0  0  0  0  0  0  0  0  0  0  0
  130.3250  124.9690   64.9350 C   0  0  0  0  0  0  0  0  0  0  0  0
  131.6840  124.9970   64.6120 C   0  0  0  0  0  0  0  0  0  0  0  0
  132.2540  123.9730   63.8620 C   0  0  0  0  0  0  0  0  0  0  0  0
  131.4830  122.8820   63.4280 C   0  0  0  0  0  0  0  0  0  0  0  0
  132.0300  121.8480   62.6640 N   0  0  0  0  0  0  0  0  0  0  0  0
  133.4790  121.8540   62.3790 C   0  0  0  0  0  0  0  0  0  0  0  0
  134.0060  120.4950   61.8710 C   0  0  0  0  0  0  0  0  0  0  0  0
  133.2670  120.0820   60.7320 O   0  0  0  0  0  0  0  0  0  0  0  0
  131.8880  119.9320   61.0270 C   0  0  0  0  0  0  0  0  0  0  0  0
  131.3040  121.2760   61.5140 C   0  0  0  0  0  0  0  0  0  0  0  0
  130.1210  122.8630   63.7600 C   0  0  0  0  0  0  0  0  0  0  0  0
  129.5500  123.8890   64.5070 C   0  0  0  0  0  0  0  0  0  0  0  0
  129.1570  127.2370   65.1880 C   0  0  0  0  0  0  0  0  0  0  0  0
  128.9570  127.6850   63.8320 C   0  0  0  0  0  0  0  0  0  0  0  0
  129.2980  126.9220   62.7450 N   0  0  0  0  0  0  0  0  0  0  0  0
  128.0680  131.1080   59.7420 C   0  0  0  0  0  0  0  0  0  0  0  0
  128.2350  131.8610   58.5830 C   0  0  0  0  0  0  0  0  0  0  0  0
  131.0818  131.0172   56.6654 H   0  0  0  0  0  0  0  0  0  0  0  0
  130.3251  131.5493   55.1256 H   0  0  0  0  0  0  0  0  0  0  0  0
  131.9991  130.8978   55.1256 H   0  0  0  0  0  0  0  0  0  0  0  0
  132.8402  132.8438   56.3079 H   0  0  0  0  0  0  0  0  0  0  0  0
  131.8293  133.4467   54.9511 H   0  0  0  0  0  0  0  0  0  0  0  0
  131.5405  132.6456   58.9079 H   0  0  0  0  0  0  0  0  0  0  0  0
  131.2460  131.2996   60.9742 H   0  0  0  0  0  0  0  0  0  0  0  0
  130.0100  129.9190   62.1780 H   0  0  0  0  0  0  0  0  0  0  0  0
  127.8136  125.1005   69.4476 H   0  0  0  0  0  0  0  0  0  0  0  0
  127.7630  124.8919   71.9139 H   0  0  0  0  0  0  0  0  0  0  0  0
  129.8786  124.5151   73.8614 H   0  0  0  0  0  0  0  0  0  0  0  0
  130.9520  125.8950   74.4014 H   0  0  0  0  0  0  0  0  0  0  0  0
  128.5198  124.7922   75.8828 H   0  0  0  0  0  0  0  0  0  0  0  0
  130.2503  124.6090   76.3454 H   0  0  0  0  0  0  0  0  0  0  0  0
  127.5288  126.9287   75.9658 H   0  0  0  0  0  0  0  0  0  0  0  0
  128.5170  128.3338   76.5036 H   0  0  0  0  0  0  0  0  0  0  0  0
  128.1429  128.2957   74.0214 H   0  0  0  0  0  0  0  0  0  0  0  0
  129.9024  128.1761   74.5025 H   0  0  0  0  0  0  0  0  0  0  0  0
  130.4342  128.2679   72.2529 H   0  0  0  0  0  0  0  0  0  0  0  0
  130.4749  128.4805   69.7882 H   0  0  0  0  0  0  0  0  0  0  0  0
  130.1064  125.0078   67.6032 H   0  0  0  0  0  0  0  0  0  0  0  0
  132.3086  125.8356   64.9535 H   0  0  0  0  0  0  0  0  0  0  0  0
  133.3227  124.0184   63.6055 H   0  0  0  0  0  0  0  0  0  0  0  0
  133.6809  122.6159   61.6117 H   0  0  0  0  0  0  0  0  0  0  0  0
  133.9966  122.0717   63.3249 H   0  0  0  0  0  0  0  0  0  0  0  0
  135.0674  120.5943   61.6000 H   0  0  0  0  0  0  0  0  0  0  0  0
  133.8924  119.7439   62.6665 H   0  0  0  0  0  0  0  0  0  0  0  0
  131.3544  119.6098   60.1207 H   0  0  0  0  0  0  0  0  0  0  0  0
  131.7675  119.1775   61.8184 H   0  0  0  0  0  0  0  0  0  0  0  0
  131.3449  121.9955   60.6830 H   0  0  0  0  0  0  0  0  0  0  0  0
  130.2732  121.0812   61.8450 H   0  0  0  0  0  0  0  0  0  0  0  0
  129.4938  122.0238   63.4247 H   0  0  0  0  0  0  0  0  0  0  0  0
  128.4807  123.8490   64.7621 H   0  0  0  0  0  0  0  0  0  0  0  0
  128.7870  126.0850   62.4990 H   0  0  0  0  0  0  0  0  0  0  0  0
  130.0760  127.1710   62.1510 H   0  0  0  0  0  0  0  0  0  0  0  0
  127.0848  130.6751   59.9783 H   0  0  0  0  0  0  0  0  0  0  0  0
  127.3807  132.0185   57.9082 H   0  0  0  0  0  0  0  0  0  0  0  0
  1  2  1  0
  2  3  1  0
  3  4  1  0
  4  5  2  0
  4  6  1  0
  6  7  2  0
  7  8  1  0
  8  9  2  0
  9 10  1  0
 10 11  1  0
 11 12  2  0
 11 13  1  0
 13 14  1  0
 14 15  1  0
 15 16  2  0
 16 17  1  0
 17 18  1  0
 18 19  2  0
 19 20  1  0
 20 21  2  0
 21 22  1  0
 22 23  1  0
 23 24  1  0
 24 25  1  0
 25 26  1  0
 26 27  1  0
 21 28  1  0
 28 29  2  0
 17 30  2  0
 30 31  1  0
 31 32  1  0
 32 33  2  0
 33 34  1  0
 34 35  2  0
 35 36  1  0
 36 37  1  0
 37 38  1  0
 38 39  1  0
 39 40  1  0
 40 41  1  0
 35 42  1  0
 42 43  2  0
 31 44  2  0
 44 45  1  0
 45 46  1  0
  9 47  1  0
 47 48  2  0
 48  6  1  0
 45 13  2  0
 44 15  1  0
 29 18  1  0
 43 32  1  0
 27 22  1  0
 41 36  1  0
  1 49  1  0
  1 50  1  0
  1 51  1  0
  2 52  1  0
  2 53  1  0
  7 54  1  0
  8 55  1  0
 10 56  1  0
 19 57  1  0
 20 58  1  0
 23 59  1  0
 23 60  1  0
 24 61  1  0
 24 62  1  0
 26 63  1  0
 26 64  1  0
 27 65  1  0
 27 66  1  0
 28 67  1  0
 29 68  1  0
 30 69  1  0
 33 70  1  0
 34 71  1  0
 37 72  1  0
 37 73  1  0
 38 74  1  0
 38 75  1  0
 40 76  1  0
 40 77  1  0
 41 78  1  0
 41 79  1  0
 42 80  1  0
 43 81  1  0
 46 82  1  0
 46 83  1  0
 47 84  1  0
 48 85  1  0
M  END
>  <Binding energies>  (1) 
[-10.04]

>  <Ligand effiencies>  (1) 
[-0.1968627450980392]

>  <Interactions>  (1) 
["V-A:HIS:456:CE1:4069, V-A:GLU:543:CG:4907, V-A:HIS:456:CD2:4067, V-B:GLU:543:CD:9879, V-A:GLU:543:CD:4908, V-B:HIS:456:CE1:9041, V-B:LYS:547:CE:9921, V-B:GLU:543:C:9873, V-B:GLU:543:CB:9877, V-B:GLU:543:CG:9878, V-A:TRP:381:CZ2:3369, V-A:TRP:381:CH2:3371, V-B:TYR:539:CD2:9845, V-B:ALA:541:CB:9863, V-A:LEU:475:CD2:4258, V-A:ILE:369:CG2:3236, V-A:TYR:539:CD2:4874, V-A:TYR:539:C:4867, V-A:TYR:539:CE2:4876, V-A:TYR:539:CG:4872, V-A:PRO:540:N:4884, V-A:MET:535:CE:4835, V-A:LEU:363:CD1:3188, V-A:TYR:531:CE2:4793, V-A:PRO:540:CA:4883, V-A:GLY:454:CA:4048, V-A:ILE:369:CD1:3238, H-A:TYR:539:N:4870, H-B:GLU:543:OE2:9881, H-A:GLU:543:OE1:4909, V-A:ILE:538:CB:4862, V-A:ILE:538:CA:4860, V-A:ILE:538:CG2:4863, V-A:TYR:539:CD1:4873, V-A:TYR:539:CA:4869"]

$$$$
9b_Ghoteimi_2023
     RDKit          3D

 72 78  0  0  0  0  0  0  0  0999 V2000
  128.6430  125.8510   58.5740 N   0  0  0  0  0  0  0  0  0  0  0  0
  128.6160  125.1480   59.7520 C   0  0  0  0  0  0  0  0  0  0  0  0
  128.2290  123.8010   59.8400 C   0  0  0  0  0  0  0  0  0  0  0  0
  127.8200  122.8960   58.7640 C   0  0  0  0  0  0  0  0  0  0  0  0
  128.0140  121.6820   58.8550 O   0  0  0  0  0  0  0  0  0  0  0  0
  127.2340  123.4890   57.6940 N   0  0  0  0  0  0  0  0  0  0  0  0
  126.7640  122.8780   56.5380 C   0  0  0  0  0  0  0  0  0  0  0  0
  127.2540  123.1740   55.2670 C   0  0  0  0  0  0  0  0  0  0  0  0
  126.5410  122.3670   54.4120 C   0  0  0  0  0  0  0  0  0  0  0  0
  125.6670  121.6230   55.1310 O   0  0  0  0  0  0  0  0  0  0  0  0
  125.8170  121.9560   56.4770 N   0  0  0  0  0  0  0  0  0  0  0  0
  128.2820  123.2310   61.5080 S   0  0  0  0  0  0  0  0  0  0  0  0
  128.8020  124.8000   62.0750 C   0  0  0  0  0  0  0  0  0  0  0  0
  129.0080  125.0410   63.3690 N   0  0  0  0  0  0  0  0  0  0  0  0
  129.3940  126.2990   63.7080 C   0  0  0  0  0  0  0  0  0  0  0  0
  129.5980  126.5490   65.1670 C   0  0  0  0  0  0  0  0  0  0  0  0
  128.8540  127.5210   65.8470 C   0  0  0  0  0  0  0  0  0  0  0  0
  129.0580  127.7590   67.2020 C   0  0  0  0  0  0  0  0  0  0  0  0
  130.0260  127.0440   67.9260 C   0  0  0  0  0  0  0  0  0  0  0  0
  130.2410  127.2700   69.2900 N   0  0  0  0  0  0  0  0  0  0  0  0
  129.1590  127.0910   70.2790 C   0  0  0  0  0  0  0  0  0  0  0  0
  129.6520  127.0430   71.7400 C   0  0  0  0  0  0  0  0  0  0  0  0
  130.4190  128.1990   72.0310 O   0  0  0  0  0  0  0  0  0  0  0  0
  131.5610  128.2900   71.1950 C   0  0  0  0  0  0  0  0  0  0  0  0
  131.1290  128.3720   69.7140 C   0  0  0  0  0  0  0  0  0  0  0  0
  130.7540  126.0580   67.2450 C   0  0  0  0  0  0  0  0  0  0  0  0
  130.5470  125.8170   65.8900 C   0  0  0  0  0  0  0  0  0  0  0  0
  129.5980  127.3000   62.7540 C   0  0  0  0  0  0  0  0  0  0  0  0
  129.4020  127.0450   61.3920 C   0  0  0  0  0  0  0  0  0  0  0  0
  129.6610  128.1340   60.4160 C   0  0  0  0  0  0  0  0  0  0  0  0
  130.8490  128.1560   59.6840 C   0  0  0  0  0  0  0  0  0  0  0  0
  131.0860  129.1640   58.7550 C   0  0  0  0  0  0  0  0  0  0  0  0
  130.1420  130.1790   58.5330 C   0  0  0  0  0  0  0  0  0  0  0  0
  130.3530  131.1920   57.5940 N   0  0  0  0  0  0  0  0  0  0  0  0
  129.2230  132.0510   57.1920 C   0  0  0  0  0  0  0  0  0  0  0  0
  129.4890  132.8370   55.8900 C   0  0  0  0  0  0  0  0  0  0  0  0
  130.6790  133.6010   56.0190 O   0  0  0  0  0  0  0  0  0  0  0  0
  131.8070  132.7770   56.2750 C   0  0  0  0  0  0  0  0  0  0  0  0
  131.5980  131.9850   57.5830 C   0  0  0  0  0  0  0  0  0  0  0  0
  128.9440  130.1350   59.2610 C   0  0  0  0  0  0  0  0  0  0  0  0
  128.7070  129.1270   60.1910 C   0  0  0  0  0  0  0  0  0  0  0  0
  128.9640  125.7430   61.0180 C   0  0  0  0  0  0  0  0  0  0  0  0
  129.2290  125.5700   57.7990 H   0  0  0  0  0  0  0  0  0  0  0  0
  128.0760  126.6760   58.4400 H   0  0  0  0  0  0  0  0  0  0  0  0
  127.1180  124.4910   57.7320 H   0  0  0  0  0  0  0  0  0  0  0  0
  128.0407  123.8967   55.0048 H   0  0  0  0  0  0  0  0  0  0  0  0
  126.6612  122.3314   53.3192 H   0  0  0  0  0  0  0  0  0  0  0  0
  128.0975  128.1046   65.3018 H   0  0  0  0  0  0  0  0  0  0  0  0
  128.4513  128.5197   67.7150 H   0  0  0  0  0  0  0  0  0  0  0  0
  128.4547  127.9299   70.1781 H   0  0  0  0  0  0  0  0  0  0  0  0
  128.6894  126.1190   70.0674 H   0  0  0  0  0  0  0  0  0  0  0  0
  128.7851  127.0014   72.4158 H   0  0  0  0  0  0  0  0  0  0  0  0
  130.2779  126.1495   71.8807 H   0  0  0  0  0  0  0  0  0  0  0  0
  132.1333  129.1919   71.4576 H   0  0  0  0  0  0  0  0  0  0  0  0
  132.1852  127.3958   71.3392 H   0  0  0  0  0  0  0  0  0  0  0  0
  130.5990  129.3234   69.5595 H   0  0  0  0  0  0  0  0  0  0  0  0
  132.0444  128.2968   69.1086 H   0  0  0  0  0  0  0  0  0  0  0  0
  131.5019  125.4645   67.7913 H   0  0  0  0  0  0  0  0  0  0  0  0
  131.1370  125.0410   65.3805 H   0  0  0  0  0  0  0  0  0  0  0  0
  129.9169  128.3016   63.0781 H   0  0  0  0  0  0  0  0  0  0  0  0
  131.6031  127.3710   59.8427 H   0  0  0  0  0  0  0  0  0  0  0  0
  132.0273  129.1657   58.1858 H   0  0  0  0  0  0  0  0  0  0  0  0
  128.3373  131.4161   57.0422 H   0  0  0  0  0  0  0  0  0  0  0  0
  129.0720  132.7887   57.9939 H   0  0  0  0  0  0  0  0  0  0  0  0
  129.5983  132.1307   55.0539 H   0  0  0  0  0  0  0  0  0  0  0  0
  128.6438  133.5143   55.6978 H   0  0  0  0  0  0  0  0  0  0  0  0
  131.9403  132.0729   55.4405 H   0  0  0  0  0  0  0  0  0  0  0  0
  132.7006  133.4104   56.3760 H   0  0  0  0  0  0  0  0  0  0  0  0
  132.4488  131.3006   57.7163 H   0  0  0  0  0  0  0  0  0  0  0  0
  131.5237  132.7187   58.3992 H   0  0  0  0  0  0  0  0  0  0  0  0
  128.1802  130.9088   59.0944 H   0  0  0  0  0  0  0  0  0  0  0  0
  127.7612  129.1131   60.7524 H   0  0  0  0  0  0  0  0  0  0  0  0
  1  2  1  0
  2  3  2  0
  3  4  1  0
  4  5  2  0
  4  6  1  0
  6  7  1  0
  7  8  1  0
  8  9  2  0
  9 10  1  0
 10 11  1  0
  3 12  1  0
 12 13  1  0
 13 14  2  0
 14 15  1  0
 15 16  1  0
 16 17  2  0
 17 18  1  0
 18 19  2  0
 19 20  1  0
 20 21  1  0
 21 22  1  0
 22 23  1  0
 23 24  1  0
 24 25  1  0
 19 26  1  0
 26 27  2  0
 15 28  2  0
 28 29  1  0
 29 30  1  0
 30 31  2  0
 31 32  1  0
 32 33  2  0
 33 34  1  0
 34 35  1  0
 35 36  1  0
 36 37  1  0
 37 38  1  0
 38 39  1  0
 33 40  1  0
 40 41  2  0
 29 42  2  0
 42  2  1  0
 11  7  2  0
 42 13  1  0
 27 16  1  0
 41 30  1  0
 25 20  1  0
 39 34  1  0
  1 43  1  0
  1 44  1  0
  6 45  1  0
  8 46  1  0
  9 47  1  0
 17 48  1  0
 18 49  1  0
 21 50  1  0
 21 51  1  0
 22 52  1  0
 22 53  1  0
 24 54  1  0
 24 55  1  0
 25 56  1  0
 25 57  1  0
 26 58  1  0
 27 59  1  0
 28 60  1  0
 31 61  1  0
 32 62  1  0
 35 63  1  0
 35 64  1  0
 36 65  1  0
 36 66  1  0
 38 67  1  0
 38 68  1  0
 39 69  1  0
 39 70  1  0
 40 71  1  0
 41 72  1  0
M  END
>  <Binding energies>  (1) 
[-10.25]

>  <Ligand effiencies>  (1) 
[-0.22777777777777777]

>  <Interactions>  (1) 
["V-A:HIS:456:CE1:4069, V-A:GLU:543:CB:4906, V-A:GLU:543:CG:4907, V-B:GLU:543:CD:9879, V-A:GLU:543:CD:4908, V-B:HIS:456:CE1:9041, V-B:MET:535:CE:9806, V-B:TYR:539:CD2:9845, V-B:PRO:540:CA:9854, V-B:TYR:539:CE2:9847, V-B:ALA:541:CB:9863, V-B:PRO:540:N:9855, V-B:TYR:539:CE1:9846, H-B:TYR:539:N:9841, V-B:TYR:539:CZ:9848, V-B:TYR:539:C:9838, V-B:ILE:538:CA:9831, V-A:MET:535:CE:4835, V-B:TYR:539:CD1:9844, V-A:LEU:363:CD1:3188, V-A:ASP:366:CG:3212, V-B:ILE:538:CD1:9836, V-A:GLY:544:C:4912, H-A:TYR:539:N:4870, V-A:ARG:545:CA:4919, V-A:ARG:545:CG:4922, V-A:ILE:538:CB:4862, V-A:ILE:538:CA:4860, V-A:TYR:539:CE1:4875, V-A:TYR:539:CD1:4873"]

$$$$
9c_Ghoteimi_2023
     RDKit          3D

 72 78  0  0  0  0  0  0  0  0999 V2000
  128.6180  126.1320   58.8290 N   0  0  0  0  0  0  0  0  0  0  0  0
  128.6150  125.3980   59.9880 C   0  0  0  0  0  0  0  0  0  0  0  0
  128.2640  124.0410   60.0430 C   0  0  0  0  0  0  0  0  0  0  0  0
  127.8680  123.1540   58.9440 C   0  0  0  0  0  0  0  0  0  0  0  0
  128.1250  121.9490   58.9820 O   0  0  0  0  0  0  0  0  0  0  0  0
  127.2230  123.7560   57.9150 N   0  0  0  0  0  0  0  0  0  0  0  0
  126.7590  123.1530   56.7540 C   0  0  0  0  0  0  0  0  0  0  0  0
  125.7370  122.3360   56.6210 N   0  0  0  0  0  0  0  0  0  0  0  0
  125.5850  121.9490   55.3690 C   0  0  0  0  0  0  0  0  0  0  0  0
  126.5010  122.4570   54.4530 C   0  0  0  0  0  0  0  0  0  0  0  0
  127.6160  123.4980   55.2860 S   0  0  0  0  0  0  0  0  0  0  0  0
  128.3420  123.4280   61.6940 S   0  0  0  0  0  0  0  0  0  0  0  0
  128.8240  124.9940   62.3010 C   0  0  0  0  0  0  0  0  0  0  0  0
  129.0330  125.2050   63.5990 N   0  0  0  0  0  0  0  0  0  0  0  0
  129.3890  126.4630   63.9690 C   0  0  0  0  0  0  0  0  0  0  0  0
  129.5960  126.6780   65.4340 C   0  0  0  0  0  0  0  0  0  0  0  0
  128.8390  127.6180   66.1430 C   0  0  0  0  0  0  0  0  0  0  0  0
  129.0420  127.8210   67.5040 C   0  0  0  0  0  0  0  0  0  0  0  0
  130.0210  127.0980   68.2060 C   0  0  0  0  0  0  0  0  0  0  0  0
  130.2330  127.2860   69.5770 N   0  0  0  0  0  0  0  0  0  0  0  0
  129.1330  127.1370   70.5520 C   0  0  0  0  0  0  0  0  0  0  0  0
  129.6090  127.0310   72.0160 C   0  0  0  0  0  0  0  0  0  0  0  0
  130.4270  128.1430   72.3410 O   0  0  0  0  0  0  0  0  0  0  0  0
  131.5790  128.1980   71.5160 C   0  0  0  0  0  0  0  0  0  0  0  0
  131.1670  128.3350   70.0340 C   0  0  0  0  0  0  0  0  0  0  0  0
  130.7630  126.1440   67.4950 C   0  0  0  0  0  0  0  0  0  0  0  0
  130.5560  125.9390   66.1340 C   0  0  0  0  0  0  0  0  0  0  0  0
  129.5610  127.4940   63.0420 C   0  0  0  0  0  0  0  0  0  0  0  0
  129.3640  127.2700   61.6750 C   0  0  0  0  0  0  0  0  0  0  0  0
  129.5890  128.3890   60.7270 C   0  0  0  0  0  0  0  0  0  0  0  0
  130.7590  128.4440   59.9660 C   0  0  0  0  0  0  0  0  0  0  0  0
  130.9660  129.4830   59.0630 C   0  0  0  0  0  0  0  0  0  0  0  0
  130.0100  130.4970   58.8980 C   0  0  0  0  0  0  0  0  0  0  0  0
  130.1930  131.5430   57.9890 N   0  0  0  0  0  0  0  0  0  0  0  0
  131.5450  131.8090   57.4590 C   0  0  0  0  0  0  0  0  0  0  0  0
  131.6770  133.1970   56.7950 C   0  0  0  0  0  0  0  0  0  0  0  0
  130.7000  133.3420   55.7750 O   0  0  0  0  0  0  0  0  0  0  0  0
  129.3830  133.2250   56.2900 C   0  0  0  0  0  0  0  0  0  0  0  0
  129.1920  131.8400   56.9460 C   0  0  0  0  0  0  0  0  0  0  0  0
  128.8300  130.4210   59.6530 C   0  0  0  0  0  0  0  0  0  0  0  0
  128.6220  129.3820   60.5560 C   0  0  0  0  0  0  0  0  0  0  0  0
  128.9560  125.9680   61.2670 C   0  0  0  0  0  0  0  0  0  0  0  0
  129.2920  125.9650   58.0940 H   0  0  0  0  0  0  0  0  0  0  0  0
  127.9450  126.8680   58.6700 H   0  0  0  0  0  0  0  0  0  0  0  0
  127.0560  124.7490   57.9890 H   0  0  0  0  0  0  0  0  0  0  0  0
  124.7797  121.2635   55.0663 H   0  0  0  0  0  0  0  0  0  0  0  0
  126.5169  122.2355   53.3756 H   0  0  0  0  0  0  0  0  0  0  0  0
  128.0722  128.2048   65.6161 H   0  0  0  0  0  0  0  0  0  0  0  0
  128.4264  128.5591   68.0391 H   0  0  0  0  0  0  0  0  0  0  0  0
  128.4714  128.0114   70.4648 H   0  0  0  0  0  0  0  0  0  0  0  0
  128.6185  126.1945   70.3132 H   0  0  0  0  0  0  0  0  0  0  0  0
  128.7346  127.0144   72.6832 H   0  0  0  0  0  0  0  0  0  0  0  0
  130.1906  126.1057   72.1408 H   0  0  0  0  0  0  0  0  0  0  0  0
  132.1916  129.0649   71.8045 H   0  0  0  0  0  0  0  0  0  0  0  0
  132.1569  127.2708   71.6439 H   0  0  0  0  0  0  0  0  0  0  0  0
  130.6837  129.3136   69.8971 H   0  0  0  0  0  0  0  0  0  0  0  0
  132.0838  128.2316   69.4350 H   0  0  0  0  0  0  0  0  0  0  0  0
  131.5219  125.5472   68.0221 H   0  0  0  0  0  0  0  0  0  0  0  0
  131.1552  125.1858   65.6015 H   0  0  0  0  0  0  0  0  0  0  0  0
  129.8551  128.4947   63.3913 H   0  0  0  0  0  0  0  0  0  0  0  0
  131.5225  127.6605   60.0811 H   0  0  0  0  0  0  0  0  0  0  0  0
  131.8923  129.5096   58.4703 H   0  0  0  0  0  0  0  0  0  0  0  0
  132.2639  131.7491   58.2894 H   0  0  0  0  0  0  0  0  0  0  0  0
  131.7455  131.0555   56.6831 H   0  0  0  0  0  0  0  0  0  0  0  0
  131.5301  133.9794   57.5541 H   0  0  0  0  0  0  0  0  0  0  0  0
  132.6791  133.2913   56.3513 H   0  0  0  0  0  0  0  0  0  0  0  0
  129.2150  134.0102   57.0419 H   0  0  0  0  0  0  0  0  0  0  0  0
  128.6626  133.3361   55.4662 H   0  0  0  0  0  0  0  0  0  0  0  0
  128.1918  131.8052   57.4025 H   0  0  0  0  0  0  0  0  0  0  0  0
  129.3139  131.0859   56.1545 H   0  0  0  0  0  0  0  0  0  0  0  0
  128.0573  131.1942   59.5296 H   0  0  0  0  0  0  0  0  0  0  0  0
  127.6898  129.3429   61.1387 H   0  0  0  0  0  0  0  0  0  0  0  0
  1  2  1  0
  2  3  2  0
  3  4  1  0
  4  5  2  0
  4  6  1  0
  6  7  1  0
  7  8  2  0
  8  9  1  0
  9 10  2  0
 10 11  1  0
  3 12  1  0
 12 13  1  0
 13 14  2  0
 14 15  1  0
 15 16  1  0
 16 17  2  0
 17 18  1  0
 18 19  2  0
 19 20  1  0
 20 21  1  0
 21 22  1  0
 22 23  1  0
 23 24  1  0
 24 25  1  0
 19 26  1  0
 26 27  2  0
 15 28  2  0
 28 29  1  0
 29 30  1  0
 30 31  2  0
 31 32  1  0
 32 33  2  0
 33 34  1  0
 34 35  1  0
 35 36  1  0
 36 37  1  0
 37 38  1  0
 38 39  1  0
 33 40  1  0
 40 41  2  0
 29 42  2  0
 42  2  1  0
 11  7  1  0
 42 13  1  0
 27 16  1  0
 41 30  1  0
 25 20  1  0
 39 34  1  0
  1 43  1  0
  1 44  1  0
  6 45  1  0
  9 46  1  0
 10 47  1  0
 17 48  1  0
 18 49  1  0
 21 50  1  0
 21 51  1  0
 22 52  1  0
 22 53  1  0
 24 54  1  0
 24 55  1  0
 25 56  1  0
 25 57  1  0
 26 58  1  0
 27 59  1  0
 28 60  1  0
 31 61  1  0
 32 62  1  0
 35 63  1  0
 35 64  1  0
 36 65  1  0
 36 66  1  0
 38 67  1  0
 38 68  1  0
 39 69  1  0
 39 70  1  0
 40 71  1  0
 41 72  1  0
M  END
>  <Binding energies>  (1) 
[-9.16]

>  <Ligand effiencies>  (1) 
[-0.20355555555555555]

>  <Interactions>  (1) 
["V-A:HIS:456:CE1:4069, V-A:GLU:543:CB:4906, V-A:GLU:543:CG:4907, V-B:GLU:543:CD:9879, V-A:GLU:543:CD:4908, V-B:HIS:456:CE1:9041, H-A:LYS:547:NZ:4951, V-B:MET:535:CE:9806, V-B:LEU:363:CD1:8160, V-B:PRO:540:CA:9854, V-B:TYR:539:CE2:9847, V-B:ALA:541:CB:9863, V-B:TYR:539:CE1:9846, H-B:TYR:539:N:9841, V-B:TYR:539:CZ:9848, V-B:PRO:540:CD:9858, V-A:TYR:539:CD2:4874, V-B:ILE:538:CA:9831, V-A:TYR:539:C:4867, V-A:TYR:539:CE2:4876, V-A:TYR:539:CG:4872, V-A:PRO:540:N:4884, V-A:MET:535:CE:4835, V-B:TYR:539:CD1:9844, V-B:ILE:538:CG2:9834, V-A:PRO:540:CB:4885, V-A:LEU:363:CD1:3188, V-A:ASP:366:CG:3212, V-A:PRO:540:CA:4883, V-B:ILE:538:CD1:9836, V-A:GLY:544:C:4912, V-A:PRO:540:CD:4887, V-A:TYR:539:CZ:4877, H-A:TYR:539:N:4870, V-A:ARG:545:CA:4919, V-A:ILE:538:CB:4862, V-A:ILE:538:CA:4860, V-B:ILE:538:CB:9833, V-B:ILE:538:C:9829, V-A:TYR:539:CE1:4875, V-A:TYR:539:CD1:4873, V-A:TYR:539:CA:4869, V-A:ILE:538:C:4858"]

$$$$
9d_Ghoteimi_2023
     RDKit          3D

 68 73  0  0  0  0  0  0  0  0999 V2000
  124.3620  129.8860   66.3150 C   0  0  0  0  0  0  0  0  0  0  0  0
  124.8580  130.9620   65.5310 O   0  0  0  0  0  0  0  0  0  0  0  0
  126.1900  131.2220   65.4690 C   0  0  0  0  0  0  0  0  0  0  0  0
  126.6680  132.3560   65.3850 O   0  0  0  0  0  0  0  0  0  0  0  0
  127.0190  129.9970   65.5080 C   0  0  0  0  0  0  0  0  0  0  0  0
  127.3670  129.1250   64.0150 S   0  0  0  0  0  0  0  0  0  0  0  0
  128.3300  127.9510   64.8800 C   0  0  0  0  0  0  0  0  0  0  0  0
  128.9520  126.9570   64.2470 N   0  0  0  0  0  0  0  0  0  0  0  0
  129.6910  126.1070   65.0070 C   0  0  0  0  0  0  0  0  0  0  0  0
  130.4010  125.0150   64.2730 C   0  0  0  0  0  0  0  0  0  0  0  0
  131.5100  125.3030   63.4720 C   0  0  0  0  0  0  0  0  0  0  0  0
  132.1770  124.2950   62.7820 C   0  0  0  0  0  0  0  0  0  0  0  0
  131.7640  122.9560   62.8780 C   0  0  0  0  0  0  0  0  0  0  0  0
  132.4130  121.9330   62.1770 N   0  0  0  0  0  0  0  0  0  0  0  0
  133.6290  121.2880   62.7100 C   0  0  0  0  0  0  0  0  0  0  0  0
  134.3970  120.4460   61.6700 C   0  0  0  0  0  0  0  0  0  0  0  0
  133.5290  119.4900   61.0840 O   0  0  0  0  0  0  0  0  0  0  0  0
  132.4440  120.1140   60.4180 C   0  0  0  0  0  0  0  0  0  0  0  0
  131.6150  120.9480   61.4180 C   0  0  0  0  0  0  0  0  0  0  0  0
  130.6410  122.6750   63.6700 C   0  0  0  0  0  0  0  0  0  0  0  0
  129.9730  123.6850   64.3570 C   0  0  0  0  0  0  0  0  0  0  0  0
  129.7770  126.2330   66.3960 C   0  0  0  0  0  0  0  0  0  0  0  0
  129.1100  127.2640   67.0680 C   0  0  0  0  0  0  0  0  0  0  0  0
  129.2130  127.3350   68.5490 C   0  0  0  0  0  0  0  0  0  0  0  0
  128.5500  126.4090   69.3560 C   0  0  0  0  0  0  0  0  0  0  0  0
  128.6650  126.4690   70.7420 C   0  0  0  0  0  0  0  0  0  0  0  0
  129.4600  127.4480   71.3580 C   0  0  0  0  0  0  0  0  0  0  0  0
  129.5850  127.5350   72.7460 N   0  0  0  0  0  0  0  0  0  0  0  0
  129.4600  128.8540   73.3960 C   0  0  0  0  0  0  0  0  0  0  0  0
  129.2260  128.7620   74.9200 C   0  0  0  0  0  0  0  0  0  0  0  0
  130.2560  127.9940   75.5250 O   0  0  0  0  0  0  0  0  0  0  0  0
  130.2990  126.6730   75.0050 C   0  0  0  0  0  0  0  0  0  0  0  0
  130.5640  126.7150   73.4850 C   0  0  0  0  0  0  0  0  0  0  0  0
  130.1210  128.3740   70.5370 C   0  0  0  0  0  0  0  0  0  0  0  0
  130.0040  128.3150   69.1520 C   0  0  0  0  0  0  0  0  0  0  0  0
  128.3650  128.1900   66.2860 C   0  0  0  0  0  0  0  0  0  0  0  0
  127.6210  129.3790   66.6110 C   0  0  0  0  0  0  0  0  0  0  0  0
  127.5300  129.8750   67.8850 N   0  0  0  0  0  0  0  0  0  0  0  0
  124.4736  130.1280   67.3822 H   0  0  0  0  0  0  0  0  0  0  0  0
  123.2985  129.7244   66.0849 H   0  0  0  0  0  0  0  0  0  0  0  0
  124.9299  128.9724   66.0849 H   0  0  0  0  0  0  0  0  0  0  0  0
  131.8607  126.3420   63.3858 H   0  0  0  0  0  0  0  0  0  0  0  0
  133.0413  124.5510   62.1515 H   0  0  0  0  0  0  0  0  0  0  0  0
  134.3018  122.0734   63.0847 H   0  0  0  0  0  0  0  0  0  0  0  0
  133.3033  120.5977   63.5021 H   0  0  0  0  0  0  0  0  0  0  0  0
  134.7926  121.1080   60.8856 H   0  0  0  0  0  0  0  0  0  0  0  0
  135.2258  119.9230   62.1696 H   0  0  0  0  0  0  0  0  0  0  0  0
  132.8330  120.7741   59.6287 H   0  0  0  0  0  0  0  0  0  0  0  0
  131.8004  119.3394   59.9755 H   0  0  0  0  0  0  0  0  0  0  0  0
  130.8376  121.4886   60.8583 H   0  0  0  0  0  0  0  0  0  0  0  0
  131.1931  120.2441   62.1505 H   0  0  0  0  0  0  0  0  0  0  0  0
  130.2818  121.6384   63.7497 H   0  0  0  0  0  0  0  0  0  0  0  0
  129.0974  123.4345   64.9739 H   0  0  0  0  0  0  0  0  0  0  0  0
  130.3775  125.5116   66.9696 H   0  0  0  0  0  0  0  0  0  0  0  0
  127.9318  125.6257   68.8931 H   0  0  0  0  0  0  0  0  0  0  0  0
  128.1253  125.7390   71.3631 H   0  0  0  0  0  0  0  0  0  0  0  0
  130.3860  129.4205   73.2181 H   0  0  0  0  0  0  0  0  0  0  0  0
  128.5810  129.3512   72.9599 H   0  0  0  0  0  0  0  0  0  0  0  0
  129.2262  129.7744   75.3502 H   0  0  0  0  0  0  0  0  0  0  0  0
  128.2568  128.2767   75.1074 H   0  0  0  0  0  0  0  0  0  0  0  0
  131.1052  126.1121   75.5004 H   0  0  0  0  0  0  0  0  0  0  0  0
  129.3338  126.1791   75.1908 H   0  0  0  0  0  0  0  0  0  0  0  0
  131.5676  127.1327   73.3166 H   0  0  0  0  0  0  0  0  0  0  0  0
  130.4765  125.6847   73.1097 H   0  0  0  0  0  0  0  0  0  0  0  0
  130.7411  129.1585   70.9953 H   0  0  0  0  0  0  0  0  0  0  0  0
  130.5386  129.0458   68.5273 H   0  0  0  0  0  0  0  0  0  0  0  0
  128.1010  129.5170   68.6380 H   0  0  0  0  0  0  0  0  0  0  0  0
  126.8890  130.6210   68.1160 H   0  0  0  0  0  0  0  0  0  0  0  0
  1  2  1  0
  2  3  1  0
  3  4  2  0
  3  5  1  0
  5  6  1  0
  6  7  1  0
  7  8  2  0
  8  9  1  0
  9 10  1  0
 10 11  2  0
 11 12  1  0
 12 13  2  0
 13 14  1  0
 14 15  1  0
 15 16  1  0
 16 17  1  0
 17 18  1  0
 18 19  1  0
 13 20  1  0
 20 21  2  0
  9 22  2  0
 22 23  1  0
 23 24  1  0
 24 25  2  0
 25 26  1  0
 26 27  2  0
 27 28  1  0
 28 29  1  0
 29 30  1  0
 30 31  1  0
 31 32  1  0
 32 33  1  0
 27 34  1  0
 34 35  2  0
 23 36  2  0
 36 37  1  0
 37 38  1  0
 37  5  2  0
 36  7  1  0
 21 10  1  0
 35 24  1  0
 19 14  1  0
 33 28  1  0
  1 39  1  0
  1 40  1  0
  1 41  1  0
 11 42  1  0
 12 43  1  0
 15 44  1  0
 15 45  1  0
 16 46  1  0
 16 47  1  0
 18 48  1  0
 18 49  1  0
 19 50  1  0
 19 51  1  0
 20 52  1  0
 21 53  1  0
 22 54  1  0
 25 55  1  0
 26 56  1  0
 29 57  1  0
 29 58  1  0
 30 59  1  0
 30 60  1  0
 32 61  1  0
 32 62  1  0
 33 63  1  0
 33 64  1  0
 34 65  1  0
 35 66  1  0
 38 67  1  0
 38 68  1  0
M  END
>  <Binding energies>  (1) 
[-8.2]

>  <Ligand effiencies>  (1) 
[-0.205]

>  <Interactions>  (1) 
["V-A:LYS:547:CE:4950, V-A:HIS:456:CE1:4069, V-A:GLU:543:CB:4906, V-A:GLU:543:CG:4907, V-A:HIS:456:CD2:4067, V-B:GLU:543:CD:9879, V-A:GLU:543:CD:4908, V-B:HIS:456:CE1:9041, H-A:LYS:547:NZ:4951, V-B:GLU:543:CB:9877, V-B:GLU:543:CG:9878, V-A:TRP:381:CH2:3371, V-B:TYR:539:CD2:9845, V-B:TYR:539:CE2:9847, V-B:ALA:541:CB:9863, V-A:LEU:475:CD2:4258, V-A:ILE:369:CG2:3236, V-A:ILE:369:CB:3235, V-A:GLY:454:CA:4048, V-A:ILE:369:CD1:3238, V-B:TYR:484:CE1:9316, H-B:TYR:484:OH:9319, V-B:TYR:484:CZ:9318, H-B:GLY:454:N:9021, V-B:GLY:454:CA:9020, V-B:ARG:545:CZ:9897, V-B:ARG:545:CD:9894, V-A:SER:385:C:3404, V-A:ILE:369:CG1:3237"]

$$$$
RR10_Rahimova_2017
     RDKit          3D

 66 70  0  0  0  0  0  0  0  0999 V2000
  131.8360  120.2170   60.4110 C   0  0  0  0  0  0  0  0  0  0  0  0
  131.4740  121.5000   61.1790 C   0  0  1  0  0  0  0  0  0  0  0  0
  131.2360  122.6940   60.2260 C   0  0  0  0  0  0  0  0  0  0  0  0
  130.9080  123.9790   61.0210 C   0  0  0  0  0  0  0  0  0  0  0  0
  129.6680  123.8020   61.9340 C   0  0  1  0  0  0  0  0  0  0  0  0
  128.4470  123.6540   61.1300 N   0  0  0  0  0  0  0  0  0  0  0  0
  127.2340  123.3200   61.6080 C   0  0  0  0  0  0  0  0  0  0  0  0
  127.0160  123.1200   62.8060 O   0  0  0  0  0  0  0  0  0  0  0  0
  126.0960  123.1780   60.5760 C   0  0  1  0  0  0  0  0  0  0  0  0
  125.0060  124.2440   60.8620 C   0  0  0  0  0  0  0  0  0  0  0  0
  123.9090  124.1650   59.7730 C   0  0  0  0  0  0  0  0  0  0  0  0
  124.4880  124.2270   58.3410 C   0  0  0  0  0  0  0  0  0  0  0  0
  125.5700  123.2190   58.1690 N   0  0  0  0  0  0  0  0  0  0  0  0
  126.1010  122.9930   56.4940 S   0  0  0  0  0  0  0  0  0  0  0  0
  124.9270  123.1220   55.6210 O   0  0  0  0  0  0  0  0  0  0  0  0
  126.9290  121.7810   56.4430 O   0  0  0  0  0  0  0  0  0  0  0  0
  127.1580  124.3980   56.1460 C   0  0  0  0  0  0  0  0  0  0  0  0
  128.2330  124.2450   55.2650 C   0  0  0  0  0  0  0  0  0  0  0  0
  129.0960  125.3000   54.9540 C   0  0  0  0  0  0  0  0  0  0  0  0
  128.8290  126.5260   55.5690 C   0  0  0  0  0  0  0  0  0  0  0  0
  129.4290  127.7620   55.5280 N   0  0  0  0  0  0  0  0  0  0  0  0
  128.7180  128.6070   56.3550 C   0  0  0  0  0  0  0  0  0  0  0  0
  129.0770  130.0470   56.5790 C   0  0  0  0  0  0  0  0  0  0  0  0
  130.4040  130.4780   56.4380 C   0  0  0  0  0  0  0  0  0  0  0  0
  130.7380  131.8140   56.6410 C   0  0  0  0  0  0  0  0  0  0  0  0
  129.7460  132.7280   56.9880 C   0  0  0  0  0  0  0  0  0  0  0  0
  128.4240  132.3170   57.1310 C   0  0  0  0  0  0  0  0  0  0  0  0
  128.0910  130.9800   56.9280 C   0  0  0  0  0  0  0  0  0  0  0  0
  127.6980  127.9990   56.9210 N   0  0  0  0  0  0  0  0  0  0  0  0
  127.7420  126.7100   56.4570 C   0  0  0  0  0  0  0  0  0  0  0  0
  126.8920  125.6340   56.7480 C   0  0  0  0  0  0  0  0  0  0  0  0
  126.6740  123.3610   59.1510 C   0  0  0  0  0  0  0  0  0  0  0  0
  129.9140  122.5900   62.8720 C   0  0  0  0  0  0  0  0  0  0  0  0
  130.2340  121.3010   62.0820 C   0  0  0  0  0  0  0  0  0  0  0  0
  132.0629  119.4130   61.1266 H   0  0  0  0  0  0  0  0  0  0  0  0
  130.9876  119.9165   59.7786 H   0  0  0  0  0  0  0  0  0  0  0  0
  132.7164  120.4042   59.7786 H   0  0  0  0  0  0  0  0  0  0  0  0
  132.3396  121.7287   61.8181 H   0  0  0  0  0  0  0  0  0  0  0  0
  132.1431  122.8629   59.6271 H   0  0  0  0  0  0  0  0  0  0  0  0
  130.3826  122.4576   59.5734 H   0  0  0  0  0  0  0  0  0  0  0  0
  131.7744  124.2393   61.6468 H   0  0  0  0  0  0  0  0  0  0  0  0
  130.6833  124.7760   60.2969 H   0  0  0  0  0  0  0  0  0  0  0  0
  129.5191  124.6977   62.5549 H   0  0  0  0  0  0  0  0  0  0  0  0
  128.5700  123.6980   60.1290 H   0  0  0  0  0  0  0  0  0  0  0  0
  125.6416  122.1790   60.6505 H   0  0  0  0  0  0  0  0  0  0  0  0
  124.5577  124.0546   61.8485 H   0  0  0  0  0  0  0  0  0  0  0  0
  125.4610  125.2455   60.8523 H   0  0  0  0  0  0  0  0  0  0  0  0
  123.3625  123.2177   59.8914 H   0  0  0  0  0  0  0  0  0  0  0  0
  123.2471  125.0340   59.9029 H   0  0  0  0  0  0  0  0  0  0  0  0
  123.6852  124.0226   57.6173 H   0  0  0  0  0  0  0  0  0  0  0  0
  124.9073  125.2297   58.1712 H   0  0  0  0  0  0  0  0  0  0  0  0
  128.4053  123.2624   54.8015 H   0  0  0  0  0  0  0  0  0  0  0  0
  129.9409  125.1717   54.2615 H   0  0  0  0  0  0  0  0  0  0  0  0
  130.2450  128.0510   55.0080 H   0  0  0  0  0  0  0  0  0  0  0  0
  131.1867  129.7550   56.1650 H   0  0  0  0  0  0  0  0  0  0  0  0
  131.7805  132.1463   56.5279 H   0  0  0  0  0  0  0  0  0  0  0  0
  130.0096  133.7835   57.1504 H   0  0  0  0  0  0  0  0  0  0  0  0
  127.6456  133.0450   57.4032 H   0  0  0  0  0  0  0  0  0  0  0  0
  127.0467  130.6539   57.0424 H   0  0  0  0  0  0  0  0  0  0  0  0
  126.0387  125.7573   57.4311 H   0  0  0  0  0  0  0  0  0  0  0  0
  127.4398  122.5946   58.9607 H   0  0  0  0  0  0  0  0  0  0  0  0
  127.1338  124.3559   59.0574 H   0  0  0  0  0  0  0  0  0  0  0  0
  130.7616  122.8200   63.5343 H   0  0  0  0  0  0  0  0  0  0  0  0
  128.9938  122.4150   63.4487 H   0  0  0  0  0  0  0  0  0  0  0  0
  130.4325  120.4839   62.7912 H   0  0  0  0  0  0  0  0  0  0  0  0
  129.3713  121.0561   61.4450 H   0  0  0  0  0  0  0  0  0  0  0  0
  1  2  1  0
  2  3  1  0
  3  4  1  0
  4  5  1  0
  5  6  1  0
  6  7  1  0
  7  8  2  0
  7  9  1  0
  9 10  1  0
 10 11  1  0
 11 12  1  0
 12 13  1  0
 13 14  1  0
 14 15  2  0
 14 16  2  0
 14 17  1  0
 17 18  2  0
 18 19  1  0
 19 20  2  0
 20 21  1  0
 21 22  1  0
 22 23  1  0
 23 24  2  0
 24 25  1  0
 25 26  2  0
 26 27  1  0
 27 28  2  0
 22 29  2  0
 29 30  1  0
 30 31  2  0
 13 32  1  0
  5 33  1  0
 33 34  1  0
 34  2  1  0
 32  9  1  0
 31 17  1  0
 30 20  1  0
 28 23  1  0
  1 35  1  0
  1 36  1  0
  1 37  1  0
  2 38  1  1
  3 39  1  0
  3 40  1  0
  4 41  1  0
  4 42  1  0
  5 43  1  1
  6 44  1  0
  9 45  1  6
 10 46  1  0
 10 47  1  0
 11 48  1  0
 11 49  1  0
 12 50  1  0
 12 51  1  0
 18 52  1  0
 19 53  1  0
 21 54  1  0
 24 55  1  0
 25 56  1  0
 26 57  1  0
 27 58  1  0
 28 59  1  0
 31 60  1  0
 32 61  1  0
 32 62  1  0
 33 63  1  0
 33 64  1  0
 34 65  1  0
 34 66  1  0
M  END
>  <Binding energies>  (1) 
[-11.1]

>  <Ligand effiencies>  (1) 
[-0.30833333333333335]

>  <Interactions>  (1) 
["V-B:MET:535:CE:9806, V-B:ASP:366:CG:8184, V-B:LEU:363:CA:8156, V-B:LEU:363:CD1:8160, V-B:ASN:362:C:8143, V-A:TRP:381:CH2:3371, V-B:TYR:539:CD2:9845, V-B:PRO:540:CA:9854, V-B:TYR:539:CE2:9847, V-B:PRO:540:C:9852, V-B:ALA:541:CB:9863, V-B:PRO:540:N:9855, V-A:LEU:475:CD2:4258, V-B:TYR:539:CE1:9846, V-B:PRO:540:CB:9856, H-B:TYR:539:N:9841, H-B:ALA:541:N:9862, V-A:ILE:369:CG2:3236, V-B:TYR:539:CZ:9848, V-A:TYR:539:CD2:4874, V-A:TYR:539:C:4867, V-A:TYR:539:CE2:4876, H-A:TYR:531:OH:4795, H-B:TYR:531:OH:9766, V-A:MET:535:CE:4835, V-A:TYR:531:CZ:4794, V-A:TYR:539:CZ:4877, V-A:TYR:539:CE1:4875, H-A:MET:535:SD:4834"]

$$$$
RR11_Rahimova_2017
     RDKit          3D

 55 60  0  0  0  0  0  0  0  0999 V2000
  134.1610  121.6900   62.2070 N   0  0  0  0  0  0  0  0  0  0  0  0
  133.3710  122.5310   62.9880 C   0  0  0  0  0  0  0  0  0  0  0  0
  132.3120  122.0020   63.7240 C   0  0  0  0  0  0  0  0  0  0  0  0
  131.5250  122.8420   64.5060 C   0  0  0  0  0  0  0  0  0  0  0  0
  131.7880  124.2170   64.5590 C   0  0  0  0  0  0  0  0  0  0  0  0
  130.9420  125.1210   65.4070 C   0  0  0  0  0  0  0  0  0  0  0  0
  130.3560  126.2150   64.9710 N   0  0  0  0  0  0  0  0  0  0  0  0
  129.6840  126.7210   66.0530 C   0  0  0  0  0  0  0  0  0  0  0  0
  128.8880  127.8710   66.1430 C   0  0  0  0  0  0  0  0  0  0  0  0
  128.2860  128.1700   67.3710 C   0  0  0  0  0  0  0  0  0  0  0  0
  127.4200  129.4160   67.5000 C   0  0  0  0  0  0  0  0  0  0  0  0
  126.5090  129.6320   66.2990 C   0  0  0  0  0  0  0  0  0  0  0  0
  125.1270  129.7300   66.4920 C   0  0  0  0  0  0  0  0  0  0  0  0
  124.2520  129.9380   65.4240 C   0  0  0  0  0  0  0  0  0  0  0  0
  124.7950  130.0540   64.1380 C   0  0  0  0  0  0  0  0  0  0  0  0
  124.1580  130.2510   62.9400 N   0  0  0  0  0  0  0  0  0  0  0  0
  125.1160  130.2830   62.0390 C   0  0  0  0  0  0  0  0  0  0  0  0
  124.8890  130.4640   60.5650 C   0  0  0  0  0  0  0  0  0  0  0  0
  125.5960  129.6890   59.6370 C   0  0  0  0  0  0  0  0  0  0  0  0
  125.3930  129.8640   58.2700 C   0  0  0  0  0  0  0  0  0  0  0  0
  124.4800  130.8160   57.8220 C   0  0  0  0  0  0  0  0  0  0  0  0
  124.2800  130.9950   56.4540 N   0  0  0  0  0  0  0  0  0  0  0  0
  123.7680  131.5910   58.7330 C   0  0  0  0  0  0  0  0  0  0  0  0
  123.9710  131.4150   60.1000 C   0  0  0  0  0  0  0  0  0  0  0  0
  126.3630  130.1210   62.6040 N   0  0  0  0  0  0  0  0  0  0  0  0
  126.1960  129.9670   63.9600 C   0  0  0  0  0  0  0  0  0  0  0  0
  127.0780  129.7640   65.0250 C   0  0  0  0  0  0  0  0  0  0  0  0
  128.4980  127.3520   68.4870 C   0  0  0  0  0  0  0  0  0  0  0  0
  129.2900  126.2030   68.4310 C   0  0  0  0  0  0  0  0  0  0  0  0
  129.8710  125.9070   67.1960 C   0  0  0  0  0  0  0  0  0  0  0  0
  130.6840  124.8950   66.7430 N   0  0  0  0  0  0  0  0  0  0  0  0
  132.8550  124.7360   63.8130 C   0  0  0  0  0  0  0  0  0  0  0  0
  133.6440  123.8970   63.0310 C   0  0  0  0  0  0  0  0  0  0  0  0
  133.8600  121.4510   61.2720 H   0  0  0  0  0  0  0  0  0  0  0  0
  135.0440  121.3610   62.5690 H   0  0  0  0  0  0  0  0  0  0  0  0
  132.0990  120.9235   63.6868 H   0  0  0  0  0  0  0  0  0  0  0  0
  130.6901  122.4232   65.0869 H   0  0  0  0  0  0  0  0  0  0  0  0
  128.7398  128.5231   65.2696 H   0  0  0  0  0  0  0  0  0  0  0  0
  126.7960  129.3180   68.4006 H   0  0  0  0  0  0  0  0  0  0  0  0
  128.0953  130.2821   67.5618 H   0  0  0  0  0  0  0  0  0  0  0  0
  124.7197  129.6410   67.5099 H   0  0  0  0  0  0  0  0  0  0  0  0
  123.1666  130.0088   65.5879 H   0  0  0  0  0  0  0  0  0  0  0  0
  126.3167  128.9368   59.9901 H   0  0  0  0  0  0  0  0  0  0  0  0
  125.9519  129.2523   57.5465 H   0  0  0  0  0  0  0  0  0  0  0  0
  124.8280  131.6840   55.9570 H   0  0  0  0  0  0  0  0  0  0  0  0
  123.6150  130.4100   55.9680 H   0  0  0  0  0  0  0  0  0  0  0  0
  123.0470  132.3404   58.3745 H   0  0  0  0  0  0  0  0  0  0  0  0
  123.4067  132.0268   60.8192 H   0  0  0  0  0  0  0  0  0  0  0  0
  127.2190  130.1170   62.0680 H   0  0  0  0  0  0  0  0  0  0  0  0
  128.1658  129.7104   64.8708 H   0  0  0  0  0  0  0  0  0  0  0  0
  128.0241  127.6238   69.4418 H   0  0  0  0  0  0  0  0  0  0  0  0
  129.4478  125.5649   69.3130 H   0  0  0  0  0  0  0  0  0  0  0  0
  131.0500  124.1040   67.2530 H   0  0  0  0  0  0  0  0  0  0  0  0
  133.0706  125.8142   63.8457 H   0  0  0  0  0  0  0  0  0  0  0  0
  134.4804  124.3110   62.4488 H   0  0  0  0  0  0  0  0  0  0  0  0
  1  2  1  0
  2  3  2  0
  3  4  1  0
  4  5  2  0
  5  6  1  0
  6  7  2  0
  7  8  1  0
  8  9  2  0
  9 10  1  0
 10 11  1  0
 11 12  1  0
 12 13  2  0
 13 14  1  0
 14 15  2  0
 15 16  1  0
 16 17  2  0
 17 18  1  0
 18 19  2  0
 19 20  1  0
 20 21  2  0
 21 22  1  0
 21 23  1  0
 23 24  2  0
 17 25  1  0
 25 26  1  0
 26 27  2  0
 10 28  2  0
 28 29  1  0
 29 30  2  0
 30 31  1  0
  5 32  1  0
 32 33  2  0
 33  2  1  0
 31  6  1  0
 30  8  1  0
 27 12  1  0
 26 15  1  0
 24 18  1  0
  1 34  1  0
  1 35  1  0
  3 36  1  0
  4 37  1  0
  9 38  1  0
 11 39  1  0
 11 40  1  0
 13 41  1  0
 14 42  1  0
 19 43  1  0
 20 44  1  0
 22 45  1  0
 22 46  1  0
 23 47  1  0
 24 48  1  0
 25 49  1  0
 27 50  1  0
 28 51  1  0
 29 52  1  0
 31 53  1  0
 32 54  1  0
 33 55  1  0
M  END
>  <Binding energies>  (1) 
[-8.49]

>  <Ligand effiencies>  (1) 
[-0.21769230769230768]

>  <Interactions>  (1) 
["V-A:HIS:456:CE1:4069, V-A:GLU:543:CG:4907, V-B:GLU:543:CD:9879, V-A:GLU:543:CD:4908, V-B:HIS:456:CE1:9041, H-A:HIS:456:NE2:4070, V-B:GLU:543:CB:9877, V-B:GLU:543:CG:9878, V-B:ASP:366:CG:8184, V-A:LEU:475:CD2:4258, V-A:ILE:369:CG2:3236, V-B:ASP:366:CA:8181, H-A:TYR:539:OH:4878, V-B:ASP:366:C:8179, V-A:TYR:539:CE2:4876, H-B:TYR:531:OH:9766, V-B:ASP:366:CB:8183, H-A:TYR:484:OH:4347, V-A:TYR:484:CE1:4344, V-A:TYR:484:CZ:4346, V-A:GLY:454:CA:4048, V-A:ILE:369:CD1:3238, V-B:TYR:531:CZ:9765, V-A:TYR:539:CZ:4877, V-B:GLY:454:CA:9020, H-B:ARG:545:NH2:9899, V-B:ARG:545:CZ:9897, V-B:ARG:545:CD:9894, V-B:ILE:369:CG2:8208, V-B:ILE:369:CB:8207, V-B:TYR:531:CE1:9763, V-A:ILE:369:CG1:3237, V-B:ASN:370:CG:8217, V-B:ASN:370:CB:8216, H-A:SER:385:O:3405, H-B:ASP:366:O:8180"]

$$$$
RR11_Rahimova_2017-again1
     RDKit          3D

 56 61  0  0  0  0  0  0  0  0999 V2000
  124.3200  130.9790   56.4550 N   0  0  0  0  0  0  0  0  0  0  0  0
  124.5240  130.8010   57.8230 C   0  0  0  0  0  0  0  0  0  0  0  0
  125.6430  130.1050   58.2730 C   0  0  0  0  0  0  0  0  0  0  0  0
  125.8440  129.9260   59.6400 C   0  0  0  0  0  0  0  0  0  0  0  0
  124.9260  130.4390   60.5660 C   0  0  0  0  0  0  0  0  0  0  0  0
  125.1390  130.2370   62.0380 C   0  0  0  0  0  0  0  0  0  0  0  0
  124.1830  130.2870   62.9400 N   0  0  0  0  0  0  0  0  0  0  0  0
  124.8070  130.0720   64.1410 C   0  0  0  0  0  0  0  0  0  0  0  0
  124.2600  130.0280   65.4300 C   0  0  0  0  0  0  0  0  0  0  0  0
  125.1220  129.8050   66.5040 C   0  0  0  0  0  0  0  0  0  0  0  0
  126.4980  129.6310   66.3160 C   0  0  0  0  0  0  0  0  0  0  0  0
  127.3940  129.3960   67.5240 C   0  0  0  0  0  0  0  0  0  0  0  0
  128.2960  128.1810   67.3570 C   0  0  0  0  0  0  0  0  0  0  0  0
  128.6080  127.3930   68.4710 C   0  0  0  0  0  0  0  0  0  0  0  0
  129.4320  126.2690   68.3800 C   0  0  0  0  0  0  0  0  0  0  0  0
  129.9320  125.9600   67.1120 C   0  0  0  0  0  0  0  0  0  0  0  0
  130.7700  124.9450   66.6690 N   0  0  0  0  0  0  0  0  0  0  0  0
  130.9840  125.0660   65.3150 C   0  0  0  0  0  0  0  0  0  0  0  0
  131.8360  124.1870   64.4580 C   0  0  0  0  0  0  0  0  0  0  0  0
  131.6060  122.8070   64.4200 C   0  0  0  0  0  0  0  0  0  0  0  0
  132.3910  121.9840   63.6170 C   0  0  0  0  0  0  0  0  0  0  0  0
  133.4130  122.5400   62.8480 C   0  0  0  0  0  0  0  0  0  0  0  0
  134.1960  121.7160   62.0410 N   0  0  0  0  0  0  0  0  0  0  0  0
  133.6520  123.9130   62.8800 C   0  0  0  0  0  0  0  0  0  0  0  0
  132.8660  124.7340   63.6830 C   0  0  0  0  0  0  0  0  0  0  0  0
  130.2640  126.1650   64.9060 N   0  0  0  0  0  0  0  0  0  0  0  0
  129.6110  126.7380   65.9870 C   0  0  0  0  0  0  0  0  0  0  0  0
  128.7810  127.8580   66.0830 C   0  0  0  0  0  0  0  0  0  0  0  0
  127.0660  129.6480   65.0350 C   0  0  0  0  0  0  0  0  0  0  0  0
  126.1980  129.8800   63.9650 C   0  0  0  0  0  0  0  0  0  0  0  0
  126.3710  129.9860   62.6050 N   0  0  0  0  0  0  0  0  0  0  0  0
  123.8050  131.1370   60.0990 C   0  0  0  0  0  0  0  0  0  0  0  0
  123.6040  131.3190   58.7330 C   0  0  0  0  0  0  0  0  0  0  0  0
  123.5400  130.5220   56.0060 H   0  0  0  0  0  0  0  0  0  0  0  0
  124.9780  131.5310   55.9230 H   0  0  0  0  0  0  0  0  0  0  0  0
  126.3662  129.6977   57.5512 H   0  0  0  0  0  0  0  0  0  0  0  0
  126.7295  129.3782   59.9948 H   0  0  0  0  0  0  0  0  0  0  0  0
  123.1805  130.1655   65.5908 H   0  0  0  0  0  0  0  0  0  0  0  0
  124.7103  129.7649   67.5233 H   0  0  0  0  0  0  0  0  0  0  0  0
  128.0245  130.2849   67.6731 H   0  0  0  0  0  0  0  0  0  0  0  0
  126.7425  129.2104   68.3907 H   0  0  0  0  0  0  0  0  0  0  0  0
  128.1903  127.6682   69.4507 H   0  0  0  0  0  0  0  0  0  0  0  0
  129.6751  125.6579   69.2617 H   0  0  0  0  0  0  0  0  0  0  0  0
  131.1890  124.2100   67.2200 H   0  0  0  0  0  0  0  0  0  0  0  0
  130.8003  122.3700   65.0282 H   0  0  0  0  0  0  0  0  0  0  0  0
  132.2059  120.9000   63.5892 H   0  0  0  0  0  0  0  0  0  0  0  0
  133.8470  121.4250   61.1380 H   0  0  0  0  0  0  0  0  0  0  0  0
  135.0910  121.3940   62.3780 H   0  0  0  0  0  0  0  0  0  0  0  0
  134.4598  124.3464   62.2721 H   0  0  0  0  0  0  0  0  0  0  0  0
  133.0547  125.8174   63.7090 H   0  0  0  0  0  0  0  0  0  0  0  0
  130.2520  126.4740   63.9450 H   0  0  0  0  0  0  0  0  0  0  0  0
  128.5204  128.4584   65.1989 H   0  0  0  0  0  0  0  0  0  0  0  0
  128.1429  129.4865   64.8795 H   0  0  0  0  0  0  0  0  0  0  0  0
  127.2230  129.9120   62.0690 H   0  0  0  0  0  0  0  0  0  0  0  0
  123.0778  131.5445   60.8167 H   0  0  0  0  0  0  0  0  0  0  0  0
  122.7222  131.8696   58.3734 H   0  0  0  0  0  0  0  0  0  0  0  0
  1  2  1  0
  2  3  2  0
  3  4  1  0
  4  5  2  0
  5  6  1  0
  6  7  2  0
  7  8  1  0
  8  9  2  0
  9 10  1  0
 10 11  2  0
 11 12  1  0
 12 13  1  0
 13 14  2  0
 14 15  1  0
 15 16  2  0
 16 17  1  0
 17 18  1  0
 18 19  1  0
 19 20  2  0
 20 21  1  0
 21 22  2  0
 22 23  1  0
 22 24  1  0
 24 25  2  0
 18 26  2  0
 26 27  1  0
 27 28  2  0
 11 29  1  0
 29 30  2  0
 30 31  1  0
  5 32  1  0
 32 33  2  0
 33  2  1  0
 31  6  1  0
 30  8  1  0
 28 13  1  0
 27 16  1  0
 25 19  1  0
  1 34  1  0
  1 35  1  0
  3 36  1  0
  4 37  1  0
  9 38  1  0
 10 39  1  0
 12 40  1  0
 12 41  1  0
 14 42  1  0
 15 43  1  0
 17 44  1  0
 20 45  1  0
 21 46  1  0
 23 47  1  0
 23 48  1  0
 24 49  1  0
 25 50  1  0
 26 51  1  0
 28 52  1  0
 29 53  1  0
 31 54  1  0
 32 55  1  0
 33 56  1  0
M  CHG  1  26   1
M  END
>  <Binding energies>  (1) 
[-9.26]

>  <Ligand effiencies>  (1) 
[-0.23149999999999998]

>  <Interactions>  (1) 
["V-A:HIS:456:CE1:4069, V-A:GLU:543:CG:4907, V-B:GLU:543:CD:9879, V-A:GLU:543:CD:4908, V-B:HIS:456:CE1:9041, H-A:HIS:456:NE2:4070, V-B:GLU:543:CB:9877, V-B:ASP:366:CG:8184, V-A:LEU:475:CD2:4258, V-A:ILE:369:CG2:3236, V-A:ILE:369:CB:3235, V-B:ASP:366:CA:8181, H-A:TYR:539:OH:4878, V-B:ASP:366:C:8179, H-B:TYR:531:OH:9766, V-B:ASP:366:CB:8183, H-A:TYR:484:OH:4347, V-A:TYR:484:CE1:4344, V-A:TYR:484:CZ:4346, V-A:GLY:454:CA:4048, V-A:ILE:369:CD1:3238, V-B:TYR:531:CZ:9765, V-A:TYR:539:CZ:4877, V-B:GLY:454:CA:9020, H-B:ARG:545:NH2:9899, V-B:ARG:545:CZ:9897, V-B:ILE:369:CG2:8208, V-B:ILE:369:CB:8207, V-B:TYR:531:CE1:9763, V-A:ILE:369:CG1:3237, V-B:ASN:370:CG:8217, V-B:ASN:370:CB:8216, H-A:SER:385:O:3405, H-B:ASP:366:O:8180"]

$$$$
RR11_Rahimova_2017-again2
     RDKit          3D

 57 62  0  0  0  0  0  0  0  0999 V2000
  134.4410  121.6780   62.1870 N   0  0  0  0  0  0  0  0  0  0  0  0
  133.6090  122.4890   62.9570 C   0  0  0  0  0  0  0  0  0  0  0  0
  132.6160  121.9130   63.7470 C   0  0  0  0  0  0  0  0  0  0  0  0
  131.7820  122.7240   64.5120 C   0  0  0  0  0  0  0  0  0  0  0  0
  131.9350  124.1160   64.4910 C   0  0  0  0  0  0  0  0  0  0  0  0
  131.0340  124.9870   65.3030 C   0  0  0  0  0  0  0  0  0  0  0  0
  130.4410  126.1620   64.9000 N   0  0  0  0  0  0  0  0  0  0  0  0
  129.6560  126.6750   65.9230 C   0  0  0  0  0  0  0  0  0  0  0  0
  128.8600  127.8220   65.9990 C   0  0  0  0  0  0  0  0  0  0  0  0
  128.1700  128.0380   67.1990 C   0  0  0  0  0  0  0  0  0  0  0  0
  127.2830  129.2670   67.3390 C   0  0  0  0  0  0  0  0  0  0  0  0
  126.4780  129.5600   66.0800 C   0  0  0  0  0  0  0  0  0  0  0  0
  125.0980  129.7760   66.1780 C   0  0  0  0  0  0  0  0  0  0  0  0
  124.3080  130.0490   65.0590 C   0  0  0  0  0  0  0  0  0  0  0  0
  124.9630  130.1010   63.8260 C   0  0  0  0  0  0  0  0  0  0  0  0
  124.4960  130.3330   62.5400 N   0  0  0  0  0  0  0  0  0  0  0  0
  125.5360  130.2800   61.6420 C   0  0  0  0  0  0  0  0  0  0  0  0
  125.4520  130.4580   60.1600 C   0  0  0  0  0  0  0  0  0  0  0  0
  124.2350  130.7920   59.5570 C   0  0  0  0  0  0  0  0  0  0  0  0
  124.1580  130.9680   58.1780 C   0  0  0  0  0  0  0  0  0  0  0  0
  125.3000  130.8110   57.3950 C   0  0  0  0  0  0  0  0  0  0  0  0
  125.2260  130.9920   56.0140 N   0  0  0  0  0  0  0  0  0  0  0  0
  126.5180  130.4740   57.9850 C   0  0  0  0  0  0  0  0  0  0  0  0
  126.5940  130.2990   59.3640 C   0  0  0  0  0  0  0  0  0  0  0  0
  126.6700  130.0210   62.3770 N   0  0  0  0  0  0  0  0  0  0  0  0
  126.3490  129.9000   63.7220 C   0  0  0  0  0  0  0  0  0  0  0  0
  127.1370  129.6340   64.8460 C   0  0  0  0  0  0  0  0  0  0  0  0
  128.3020  127.1560   68.2790 C   0  0  0  0  0  0  0  0  0  0  0  0
  129.1010  126.0120   68.2110 C   0  0  0  0  0  0  0  0  0  0  0  0
  129.7730  125.7880   67.0060 C   0  0  0  0  0  0  0  0  0  0  0  0
  130.6220  124.7680   66.5970 N   0  0  0  0  0  0  0  0  0  0  0  0
  132.9390  124.6840   63.6960 C   0  0  0  0  0  0  0  0  0  0  0  0
  133.7730  123.8730   62.9310 C   0  0  0  0  0  0  0  0  0  0  0  0
  134.0960  121.2950   61.3180 H   0  0  0  0  0  0  0  0  0  0  0  0
  135.3550  121.4280   62.5360 H   0  0  0  0  0  0  0  0  0  0  0  0
  132.4914  120.8203   63.7662 H   0  0  0  0  0  0  0  0  0  0  0  0
  130.9988  122.2690   65.1362 H   0  0  0  0  0  0  0  0  0  0  0  0
  130.5820  126.5500   63.9790 H   0  0  0  0  0  0  0  0  0  0  0  0
  128.7792  128.5229   65.1550 H   0  0  0  0  0  0  0  0  0  0  0  0
  126.5844  129.1031   68.1727 H   0  0  0  0  0  0  0  0  0  0  0  0
  127.9397  130.1305   67.5208 H   0  0  0  0  0  0  0  0  0  0  0  0
  124.6208  129.7292   67.1680 H   0  0  0  0  0  0  0  0  0  0  0  0
  123.2239  130.2148   65.1442 H   0  0  0  0  0  0  0  0  0  0  0  0
  123.5440  130.5120   62.2540 H   0  0  0  0  0  0  0  0  0  0  0  0
  123.3339  130.9163   60.1755 H   0  0  0  0  0  0  0  0  0  0  0  0
  123.1986  131.2302   57.7080 H   0  0  0  0  0  0  0  0  0  0  0  0
  125.7780  131.7140   55.5770 H   0  0  0  0  0  0  0  0  0  0  0  0
  124.5710  130.4440   55.4760 H   0  0  0  0  0  0  0  0  0  0  0  0
  127.4160  130.3469   57.3625 H   0  0  0  0  0  0  0  0  0  0  0  0
  127.5545  130.0348   59.8306 H   0  0  0  0  0  0  0  0  0  0  0  0
  127.5810  129.9320   61.9510 H   0  0  0  0  0  0  0  0  0  0  0  0
  128.2245  129.4895   64.7650 H   0  0  0  0  0  0  0  0  0  0  0  0
  127.7589  127.3711   69.2111 H   0  0  0  0  0  0  0  0  0  0  0  0
  129.1964  125.3224   69.0627 H   0  0  0  0  0  0  0  0  0  0  0  0
  130.9180  123.9640   67.1300 H   0  0  0  0  0  0  0  0  0  0  0  0
  133.0691  125.7761   63.6761 H   0  0  0  0  0  0  0  0  0  0  0  0
  134.5595  124.3234   62.3076 H   0  0  0  0  0  0  0  0  0  0  0  0
  1  2  1  0
  2  3  2  0
  3  4  1  0
  4  5  2  0
  5  6  1  0
  6  7  1  0
  7  8  1  0
  8  9  2  0
  9 10  1  0
 10 11  1  0
 11 12  1  0
 12 13  2  0
 13 14  1  0
 14 15  2  0
 15 16  1  0
 16 17  1  0
 17 18  1  0
 18 19  2  0
 19 20  1  0
 20 21  2  0
 21 22  1  0
 21 23  1  0
 23 24  2  0
 17 25  2  0
 25 26  1  0
 26 27  2  0
 10 28  2  0
 28 29  1  0
 29 30  2  0
 30 31  1  0
  5 32  1  0
 32 33  2  0
 33  2  1  0
 31  6  2  0
 30  8  1  0
 27 12  1  0
 26 15  1  0
 24 18  1  0
  1 34  1  0
  1 35  1  0
  3 36  1  0
  4 37  1  0
  7 38  1  0
  9 39  1  0
 11 40  1  0
 11 41  1  0
 13 42  1  0
 14 43  1  0
 16 44  1  0
 19 45  1  0
 20 46  1  0
 22 47  1  0
 22 48  1  0
 23 49  1  0
 24 50  1  0
 25 51  1  0
 27 52  1  0
 28 53  1  0
 29 54  1  0
 31 55  1  0
 32 56  1  0
 33 57  1  0
M  CHG  2  25   1  31   1
M  END
>  <Binding energies>  (1) 
[-9.17]

>  <Ligand effiencies>  (1) 
[-0.22365853658536586]

>  <Interactions>  (1) 
["V-A:HIS:456:CE1:4069, V-A:GLU:543:CG:4907, V-B:GLU:543:CD:9879, V-A:GLU:543:CD:4908, V-B:HIS:456:CE1:9041, H-A:HIS:456:NE2:4070, V-B:GLU:543:CB:9877, V-B:GLU:543:CG:9878, V-B:ASP:366:CG:8184, V-A:LEU:475:CD2:4258, V-A:ILE:369:CG2:3236, V-A:ILE:369:CB:3235, V-B:ASP:366:CA:8181, H-A:TYR:539:OH:4878, V-B:ASP:366:C:8179, V-A:TYR:539:CE2:4876, H-B:TYR:531:OH:9766, V-B:ASP:366:CB:8183, H-A:TYR:484:OH:4347, V-A:TYR:484:CE1:4344, V-A:TYR:484:CZ:4346, V-A:GLY:454:CA:4048, V-A:ILE:369:CD1:3238, H-B:ASP:366:OD2:8186, V-B:TYR:531:CZ:9765, V-A:TYR:539:CZ:4877, V-B:GLY:454:CA:9020, V-B:ARG:545:CZ:9897, H-A:GLU:543:OE1:4909, H-A:GLU:543:OE2:4910, V-B:TYR:531:CE1:9763, V-A:ILE:369:CG1:3237, V-B:ASN:370:CB:8216, H-B:ASP:366:OD1:8185, H-A:SER:385:O:3405, H-B:ASP:366:O:8180"]

$$$$
RR12_Rahimova_2017
     RDKit          3D

 51 53  0  0  0  0  0  0  0  0999 V2000
  126.5020  122.3130   54.4190 C   0  0  0  0  0  0  0  0  0  0  0  0
  125.3880  122.1950   55.4670 C   0  0  0  0  0  0  0  0  0  0  0  0
  125.9120  122.3400   56.9070 C   0  0  0  0  0  0  0  0  0  0  0  0
  126.0850  123.7490   57.2560 N   0  0  0  0  0  0  0  0  0  0  0  0
  125.2310  124.5430   58.0060 C   0  0  0  0  0  0  0  0  0  0  0  0
  123.9040  124.0650   58.5680 C   0  0  0  0  0  0  0  0  0  0  0  0
  123.7930  124.2920   60.0870 C   0  0  0  0  0  0  0  0  0  0  0  0
  124.8700  123.5300   60.8820 C   0  0  0  0  0  0  0  0  0  0  0  0
  126.2230  124.0520   60.6950 N   0  0  0  0  0  0  0  0  0  0  0  0
  127.2780  123.7610   61.4770 C   0  0  0  0  0  0  0  0  0  0  0  0
  127.2080  123.0120   62.4550 O   0  0  0  0  0  0  0  0  0  0  0  0
  128.6040  124.4220   61.0770 C   0  0  0  0  0  0  0  0  0  0  0  0
  129.2370  123.6430   60.0610 O   0  0  0  0  0  0  0  0  0  0  0  0
  129.8500  122.4530   60.4040 C   0  0  0  0  0  0  0  0  0  0  0  0
  131.2460  122.4650   60.4510 C   0  0  0  0  0  0  0  0  0  0  0  0
  131.9530  121.3140   60.7900 C   0  0  0  0  0  0  0  0  0  0  0  0
  131.2610  120.1430   61.0860 C   0  0  0  0  0  0  0  0  0  0  0  0
  129.8690  120.1130   61.0420 C   0  0  0  0  0  0  0  0  0  0  0  0
  129.1630  121.2640   60.7020 C   0  0  0  0  0  0  0  0  0  0  0  0
  125.6720  125.7650   58.1730 N   0  0  0  0  0  0  0  0  0  0  0  0
  126.8810  125.7930   57.5350 C   0  0  0  0  0  0  0  0  0  0  0  0
  127.7910  126.8540   57.4120 C   0  0  0  0  0  0  0  0  0  0  0  0
  128.9740  126.6270   56.7090 C   0  0  0  0  0  0  0  0  0  0  0  0
  129.2520  125.3840   56.1410 C   0  0  0  0  0  0  0  0  0  0  0  0
  128.3670  124.3090   56.2440 C   0  0  0  0  0  0  0  0  0  0  0  0
  127.1790  124.5370   56.9490 C   0  0  0  0  0  0  0  0  0  0  0  0
  127.4728  122.4158   54.9259 H   0  0  0  0  0  0  0  0  0  0  0  0
  126.5106  121.4107   53.7898 H   0  0  0  0  0  0  0  0  0  0  0  0
  126.3214  123.1970   53.7898 H   0  0  0  0  0  0  0  0  0  0  0  0
  124.6447  122.9844   55.2814 H   0  0  0  0  0  0  0  0  0  0  0  0
  124.9467  121.1918   55.3725 H   0  0  0  0  0  0  0  0  0  0  0  0
  125.1916  121.8822   57.6009 H   0  0  0  0  0  0  0  0  0  0  0  0
  126.8869  121.8359   56.9803 H   0  0  0  0  0  0  0  0  0  0  0  0
  123.0912  124.6129   58.0688 H   0  0  0  0  0  0  0  0  0  0  0  0
  123.8330  122.9827   58.3849 H   0  0  0  0  0  0  0  0  0  0  0  0
  123.9002  125.3676   60.2909 H   0  0  0  0  0  0  0  0  0  0  0  0
  122.8119  123.9128   60.4089 H   0  0  0  0  0  0  0  0  0  0  0  0
  124.6196  123.5912   61.9514 H   0  0  0  0  0  0  0  0  0  0  0  0
  124.8717  122.4956   60.5079 H   0  0  0  0  0  0  0  0  0  0  0  0
  126.3590  124.6720   59.9090 H   0  0  0  0  0  0  0  0  0  0  0  0
  128.4081  125.4344   60.6941 H   0  0  0  0  0  0  0  0  0  0  0  0
  129.2628  124.4833   61.9558 H   0  0  0  0  0  0  0  0  0  0  0  0
  131.7915  123.3914   60.2183 H   0  0  0  0  0  0  0  0  0  0  0  0
  133.0524  121.3302   60.8237 H   0  0  0  0  0  0  0  0  0  0  0  0
  131.8179  119.2339   61.3569 H   0  0  0  0  0  0  0  0  0  0  0  0
  129.3294  119.1832   61.2751 H   0  0  0  0  0  0  0  0  0  0  0  0
  128.0638  121.2424   60.6666 H   0  0  0  0  0  0  0  0  0  0  0  0
  127.5774  127.8369   57.8574 H   0  0  0  0  0  0  0  0  0  0  0  0
  129.7020  127.4444   56.6004 H   0  0  0  0  0  0  0  0  0  0  0  0
  130.1971  125.2463   55.5953 H   0  0  0  0  0  0  0  0  0  0  0  0
  128.5920  123.3311   55.7934 H   0  0  0  0  0  0  0  0  0  0  0  0
  1  2  1  0
  2  3  1  0
  3  4  1  0
  4  5  1  0
  5  6  1  0
  6  7  1  0
  7  8  1  0
  8  9  1  0
  9 10  1  0
 10 11  2  0
 10 12  1  0
 12 13  1  0
 13 14  1  0
 14 15  2  0
 15 16  1  0
 16 17  2  0
 17 18  1  0
 18 19  2  0
  5 20  2  0
 20 21  1  0
 21 22  2  0
 22 23  1  0
 23 24  2  0
 24 25  1  0
 25 26  2  0
 26  4  1  0
 19 14  1  0
 26 21  1  0
  1 27  1  0
  1 28  1  0
  1 29  1  0
  2 30  1  0
  2 31  1  0
  3 32  1  0
  3 33  1  0
  6 34  1  0
  6 35  1  0
  7 36  1  0
  7 37  1  0
  8 38  1  0
  8 39  1  0
  9 40  1  0
 12 41  1  0
 12 42  1  0
 15 43  1  0
 16 44  1  0
 17 45  1  0
 18 46  1  0
 19 47  1  0
 22 48  1  0
 23 49  1  0
 24 50  1  0
 25 51  1  0
M  END
>  <Binding energies>  (1) 
[-6.67]

>  <Ligand effiencies>  (1) 
[-0.24703703703703703]

>  <Interactions>  (1) 
["V-B:MET:535:CE:9806, V-B:ASP:366:CG:8184, V-B:LEU:363:CA:8156, V-B:LEU:363:CD1:8160, V-B:ASN:362:C:8143, V-A:TRP:381:CH2:3371, V-B:TYR:539:CD2:9845, V-B:PRO:540:CA:9854, V-B:TYR:539:CE2:9847, V-B:PRO:540:C:9852, V-B:ALA:541:CB:9863, V-B:PRO:540:N:9855, V-A:LEU:475:CD2:4258, V-B:TYR:539:CE1:9846, V-B:PRO:540:CB:9856, H-B:ALA:541:N:9862, V-A:ILE:369:CG2:3236, V-B:TYR:539:CZ:9848, V-B:TYR:539:C:9838, V-B:PRO:540:CD:9858, V-B:ILE:538:CA:9831, H-B:TYR:531:OH:9766, V-B:TYR:539:CD1:9844, V-B:ILE:538:CG2:9834, V-B:ASN:362:CB:8147, V-B:ILE:538:CD1:9836, H-B:ASP:366:OD2:8186, V-B:LEU:363:CB:8158"]

$$$$
RR13_Rahimova_2017
     RDKit          3D

 84 90  0  0  0  0  0  0  0  0999 V2000
  123.8800  124.9380   58.2350 Cl  0  0  0  0  0  0  0  0  0  0  0  0
  125.3650  124.4580   57.4860 C   0  0  0  0  0  0  0  0  0  0  0  0
  125.2890  123.6790   56.3290 C   0  0  0  0  0  0  0  0  0  0  0  0
  126.4470  123.2430   55.6920 C   0  0  0  0  0  0  0  0  0  0  0  0
  127.6940  123.5820   56.2110 C   0  0  0  0  0  0  0  0  0  0  0  0
  127.7790  124.3590   57.3640 C   0  0  0  0  0  0  0  0  0  0  0  0
  126.6220  124.8190   58.0140 C   0  0  0  0  0  0  0  0  0  0  0  0
  126.7420  125.6580   59.3060 C   0  0  1  0  0  0  0  0  0  0  0  0
  126.7580  124.7570   60.5500 C   0  0  0  0  0  0  0  0  0  0  0  0
  125.7160  124.2140   61.1400 N   0  0  0  0  0  0  0  0  0  0  0  0
  126.2180  123.5120   62.2310 N   0  0  0  0  0  0  0  0  0  0  0  0
  127.5890  123.6580   62.2980 N   0  0  0  0  0  0  0  0  0  0  0  0
  127.8960  124.4500   61.2650 N   0  0  0  0  0  0  0  0  0  0  0  0
  129.2840  124.7990   60.9900 C   0  0  0  0  0  0  0  0  0  0  0  0
  129.8440  123.9110   59.8630 C   0  0  0  0  0  0  0  0  0  0  0  0
  130.2090  122.5190   60.3550 C   0  0  0  0  0  0  0  0  0  0  0  0
  131.5520  122.1500   60.4730 C   0  0  0  0  0  0  0  0  0  0  0  0
  131.8850  120.8730   60.9170 C   0  0  0  0  0  0  0  0  0  0  0  0
  130.8740  119.9700   61.2420 C   0  0  0  0  0  0  0  0  0  0  0  0
  129.5350  120.3310   61.1250 C   0  0  0  0  0  0  0  0  0  0  0  0
  129.2000  121.6080   60.6810 C   0  0  0  0  0  0  0  0  0  0  0  0
  127.8770  126.6120   59.2850 N   0  0  0  0  0  0  0  0  0  0  0  0
  127.7460  127.5950   60.3770 C   0  0  0  0  0  0  0  0  0  0  0  0
  128.9910  128.5100   60.4450 C   0  0  0  0  0  0  0  0  0  0  0  0
  129.1480  129.2660   59.1910 N   0  0  0  0  0  0  0  0  0  0  0  0
  130.2820  130.2180   59.2420 C   0  0  1  0  0  0  0  0  0  0  0  0
  130.5030  131.0590   57.9660 C   0  0  0  0  0  0  0  0  0  0  0  0
  129.3640  131.5870   57.3420 C   0  0  0  0  0  0  0  0  0  0  0  0
  129.4690  132.3730   56.1950 C   0  0  0  0  0  0  0  0  0  0  0  0
  130.7210  132.6390   55.6480 C   0  0  0  0  0  0  0  0  0  0  0  0
  131.8640  132.1110   56.2430 C   0  0  0  0  0  0  0  0  0  0  0  0
  131.7690  131.3190   57.3910 C   0  0  0  0  0  0  0  0  0  0  0  0
  133.2410  130.6530   58.0140 Cl  0  0  0  0  0  0  0  0  0  0  0  0
  130.2500  131.1270   60.4720 C   0  0  0  0  0  0  0  0  0  0  0  0
  131.1760  131.1860   61.4010 N   0  0  0  0  0  0  0  0  0  0  0  0
  130.7470  132.1490   62.3080 N   0  0  0  0  0  0  0  0  0  0  0  0
  129.5440  132.6840   61.8970 N   0  0  0  0  0  0  0  0  0  0  0  0
  129.2660  132.0530   60.7500 N   0  0  0  0  0  0  0  0  0  0  0  0
  128.0340  132.3550   60.0290 C   0  0  0  0  0  0  0  0  0  0  0  0
  126.9580  131.2980   60.3390 C   0  0  0  0  0  0  0  0  0  0  0  0
  126.0100  131.0840   59.1690 C   0  0  0  0  0  0  0  0  0  0  0  0
  126.4680  130.4590   58.0060 C   0  0  0  0  0  0  0  0  0  0  0  0
  125.5980  130.2570   56.9370 C   0  0  0  0  0  0  0  0  0  0  0  0
  124.2740  130.6810   57.0350 C   0  0  0  0  0  0  0  0  0  0  0  0
  123.8120  131.3050   58.1930 C   0  0  0  0  0  0  0  0  0  0  0  0
  124.6810  131.5070   59.2620 C   0  0  0  0  0  0  0  0  0  0  0  0
  129.2840  128.2800   58.1030 C   0  0  0  0  0  0  0  0  0  0  0  0
  128.0320  127.3750   58.0350 C   0  0  0  0  0  0  0  0  0  0  0  0
  124.3054  123.4078   55.9178 H   0  0  0  0  0  0  0  0  0  0  0  0
  126.3774  122.6317   54.7802 H   0  0  0  0  0  0  0  0  0  0  0  0
  128.6109  123.2366   55.7110 H   0  0  0  0  0  0  0  0  0  0  0  0
  128.7677  124.6163   57.7718 H   0  0  0  0  0  0  0  0  0  0  0  0
  125.8403  126.2859   59.3583 H   0  0  0  0  0  0  0  0  0  0  0  0
  129.3391  125.8537   60.6826 H   0  0  0  0  0  0  0  0  0  0  0  0
  129.8804  124.6409   61.9006 H   0  0  0  0  0  0  0  0  0  0  0  0
  129.0836  123.8194   59.0734 H   0  0  0  0  0  0  0  0  0  0  0  0
  130.7608  124.3858   59.4834 H   0  0  0  0  0  0  0  0  0  0  0  0
  132.3449  122.8676   60.2154 H   0  0  0  0  0  0  0  0  0  0  0  0
  132.9406  120.5782   61.0108 H   0  0  0  0  0  0  0  0  0  0  0  0
  131.1372  118.9618   61.5945 H   0  0  0  0  0  0  0  0  0  0  0  0
  128.7444  119.6107   61.3821 H   0  0  0  0  0  0  0  0  0  0  0  0
  128.1434  121.8991   60.5870 H   0  0  0  0  0  0  0  0  0  0  0  0
  126.8534  128.2132   60.2005 H   0  0  0  0  0  0  0  0  0  0  0  0
  127.6544  127.0531   61.3299 H   0  0  0  0  0  0  0  0  0  0  0  0
  128.8755  129.2160   61.2806 H   0  0  0  0  0  0  0  0  0  0  0  0
  129.8830  127.8843   60.5958 H   0  0  0  0  0  0  0  0  0  0  0  0
  131.1508  129.5477   59.3186 H   0  0  0  0  0  0  0  0  0  0  0  0
  128.3702  131.3776   57.7646 H   0  0  0  0  0  0  0  0  0  0  0  0
  128.5636  132.7823   55.7231 H   0  0  0  0  0  0  0  0  0  0  0  0
  130.8074  133.2650   54.7476 H   0  0  0  0  0  0  0  0  0  0  0  0
  132.8515  132.3192   55.8053 H   0  0  0  0  0  0  0  0  0  0  0  0
  127.6679  133.3458   60.3360 H   0  0  0  0  0  0  0  0  0  0  0  0
  128.2415  132.3469   58.9488 H   0  0  0  0  0  0  0  0  0  0  0  0
  127.4546  130.3445   60.5717 H   0  0  0  0  0  0  0  0  0  0  0  0
  126.3654  131.6591   61.1925 H   0  0  0  0  0  0  0  0  0  0  0  0
  127.5143  130.1269   57.9348 H   0  0  0  0  0  0  0  0  0  0  0  0
  125.9543  129.7652   56.0199 H   0  0  0  0  0  0  0  0  0  0  0  0
  123.5870  130.5218   56.1908 H   0  0  0  0  0  0  0  0  0  0  0  0
  122.7654  131.6364   58.2618 H   0  0  0  0  0  0  0  0  0  0  0  0
  124.3222  131.9987   60.1783 H   0  0  0  0  0  0  0  0  0  0  0  0
  129.4003  128.8100   57.1462 H   0  0  0  0  0  0  0  0  0  0  0  0
  130.1667  127.6533   58.2981 H   0  0  0  0  0  0  0  0  0  0  0  0
  127.1409  128.0012   57.8806 H   0  0  0  0  0  0  0  0  0  0  0  0
  128.1493  126.6686   57.1999 H   0  0  0  0  0  0  0  0  0  0  0  0
  1  2  1  0
  2  3  2  0
  3  4  1  0
  4  5  2  0
  5  6  1  0
  6  7  2  0
  7  8  1  0
  8  9  1  0
  9 10  2  0
 10 11  1  0
 11 12  2  0
 12 13  1  0
 13 14  1  0
 14 15  1  0
 15 16  1  0
 16 17  2  0
 17 18  1  0
 18 19  2  0
 19 20  1  0
 20 21  2  0
  8 22  1  0
 22 23  1  0
 23 24  1  0
 24 25  1  0
 25 26  1  0
 26 27  1  0
 27 28  2  0
 28 29  1  0
 29 30  2  0
 30 31  1  0
 31 32  2  0
 32 33  1  0
 26 34  1  0
 34 35  2  0
 35 36  1  0
 36 37  2  0
 37 38  1  0
 38 39  1  0
 39 40  1  0
 40 41  1  0
 41 42  2  0
 42 43  1  0
 43 44  2  0
 44 45  1  0
 45 46  2  0
 25 47  1  0
 47 48  1  0
  7  2  1  0
 13  9  1  0
 21 16  1  0
 48 22  1  0
 32 27  1  0
 38 34  1  0
 46 41  1  0
  3 49  1  0
  4 50  1  0
  5 51  1  0
  6 52  1  0
  8 53  1  1
 14 54  1  0
 14 55  1  0
 15 56  1  0
 15 57  1  0
 17 58  1  0
 18 59  1  0
 19 60  1  0
 20 61  1  0
 21 62  1  0
 23 63  1  0
 23 64  1  0
 24 65  1  0
 24 66  1  0
 26 67  1  1
 28 68  1  0
 29 69  1  0
 30 70  1  0
 31 71  1  0
 39 72  1  0
 39 73  1  0
 40 74  1  0
 40 75  1  0
 42 76  1  0
 43 77  1  0
 44 78  1  0
 45 79  1  0
 46 80  1  0
 47 81  1  0
 47 82  1  0
 48 83  1  0
 48 84  1  0
M  END
>  <Binding energies>  (1) 
[-13.12]

>  <Ligand effiencies>  (1) 
[-0.2733333333333333]

>  <Interactions>  (1) 
["V-B:MET:535:CE:9806, V-B:ASP:366:CG:8184, V-B:LEU:363:CA:8156, V-B:LEU:363:CD1:8160, V-A:TRP:381:CH2:3371, V-B:TYR:539:CD2:9845, V-B:TYR:539:CE2:9847, V-B:PRO:540:C:9852, V-B:ALA:541:CB:9863, V-A:LEU:475:CD2:4258, V-B:TYR:539:CE1:9846, H-B:ALA:541:N:9862, V-A:ILE:369:CG2:3236, V-B:TYR:539:CZ:9848, V-A:ASP:366:CB:3211, V-B:TYR:539:C:9838, V-B:ASP:366:CA:8181, V-B:ASP:366:C:8179, V-A:TYR:539:CE2:4876, V-A:MET:535:CE:4835, V-B:TYR:539:CD1:9844, V-B:ASP:366:CB:8183, V-A:LEU:363:CA:3184, V-A:LEU:363:CD1:3188, V-A:TYR:531:CE2:4793, V-A:ASP:366:CG:3212, V-B:ALA:541:CA:9861, V-B:TYR:531:CZ:9765, V-B:TYR:531:CE2:9764, H-A:ALA:541:N:4891, V-A:ILE:538:CB:4862, V-A:ILE:538:CA:4860, V-A:ILE:538:CG2:4863, V-B:TYR:531:CE1:9763, V-B:ASN:370:CB:8216"]

$$$$
RR14_Rahimova_2017
     RDKit          3D

 76 80  0  0  0  0  0  0  0  0999 V2000
  125.4940  123.5250   62.0810 C   0  0  0  0  0  0  0  0  0  0  0  0
  126.3700  122.8760   61.1660 O   0  0  0  0  0  0  0  0  0  0  0  0
  127.6570  123.3530   61.0130 C   0  0  0  0  0  0  0  0  0  0  0  0
  128.1920  124.0570   62.0920 C   0  0  0  0  0  0  0  0  0  0  0  0
  129.4730  124.5960   62.0220 C   0  0  0  0  0  0  0  0  0  0  0  0
  130.2330  124.4390   60.8610 C   0  0  0  0  0  0  0  0  0  0  0  0
  131.6100  125.0840   60.7550 C   0  0  0  0  0  0  0  0  0  0  0  0
  132.1900  124.9930   59.4150 N   0  0  0  0  0  0  0  0  0  0  0  0
  132.8360  123.8850   59.0320 N   0  0  0  0  0  0  0  0  0  0  0  0
  133.2680  124.1570   57.7490 N   0  0  0  0  0  0  0  0  0  0  0  0
  132.8800  125.4400   57.3750 N   0  0  0  0  0  0  0  0  0  0  0  0
  132.2320  125.9300   58.4060 C   0  0  0  0  0  0  0  0  0  0  0  0
  131.6330  127.3280   58.4820 C   0  0  0  0  0  0  0  0  0  0  0  0
  130.1650  127.3050   58.5960 N   0  0  0  0  0  0  0  0  0  0  0  0
  129.6660  128.3770   59.4660 C   0  0  0  0  0  0  0  0  0  0  0  0
  130.7800  129.3040   59.9980 C   0  0  0  0  0  0  0  0  0  0  0  0
  130.4490  130.8060   59.8720 C   0  0  0  0  0  0  0  0  0  0  0  0
  130.4180  131.2790   58.4840 N   0  0  0  0  0  0  0  0  0  0  0  0
  131.7350  131.7980   58.0920 C   0  0  0  0  0  0  0  0  0  0  0  0
  131.7230  132.3530   56.6510 C   0  0  0  0  0  0  0  0  0  0  0  0
  130.6940  133.3270   56.5100 O   0  0  0  0  0  0  0  0  0  0  0  0
  129.4040  132.7910   56.7810 C   0  0  0  0  0  0  0  0  0  0  0  0
  129.3450  132.2520   58.2260 C   0  0  0  0  0  0  0  0  0  0  0  0
  129.5530  127.3970   57.2620 C   0  0  0  0  0  0  0  0  0  0  0  0
  128.7030  126.2040   56.8310 C   0  0  0  0  0  0  0  0  0  0  0  0
  127.6200  125.8200   57.5500 C   0  0  0  0  0  0  0  0  0  0  0  0
  126.8040  124.6460   57.1770 C   0  0  0  0  0  0  0  0  0  0  0  0
  125.6650  124.2330   57.8880 C   0  0  0  0  0  0  0  0  0  0  0  0
  125.1770  124.9820   59.1210 C   0  0  0  0  0  0  0  0  0  0  0  0
  124.9610  123.1080   57.4490 C   0  0  0  0  0  0  0  0  0  0  0  0
  125.3790  122.4020   56.3220 C   0  0  0  0  0  0  0  0  0  0  0  0
  126.5100  122.8070   55.6070 C   0  0  0  0  0  0  0  0  0  0  0  0
  126.9400  122.0160   54.3780 C   0  0  0  0  0  0  0  0  0  0  0  0
  127.2240  123.9350   56.0390 C   0  0  0  0  0  0  0  0  0  0  0  0
  128.3730  124.3800   55.3510 N   0  0  0  0  0  0  0  0  0  0  0  0
  129.1500  125.4490   55.6560 C   0  0  0  0  0  0  0  0  0  0  0  0
  130.1400  125.7150   54.9740 O   0  0  0  0  0  0  0  0  0  0  0  0
  129.7190  123.7100   59.7870 C   0  0  0  0  0  0  0  0  0  0  0  0
  128.4370  123.1730   59.8590 C   0  0  0  0  0  0  0  0  0  0  0  0
  125.8040  123.2953   63.1111 H   0  0  0  0  0  0  0  0  0  0  0  0
  125.5351  124.6123   61.9195 H   0  0  0  0  0  0  0  0  0  0  0  0
  124.4658  123.1690   61.9195 H   0  0  0  0  0  0  0  0  0  0  0  0
  127.5955  124.1873   63.0070 H   0  0  0  0  0  0  0  0  0  0  0  0
  129.8867  125.1453   62.8805 H   0  0  0  0  0  0  0  0  0  0  0  0
  131.5196  126.1465   61.0249 H   0  0  0  0  0  0  0  0  0  0  0  0
  132.2787  124.5385   61.4372 H   0  0  0  0  0  0  0  0  0  0  0  0
  132.0475  127.8424   59.3615 H   0  0  0  0  0  0  0  0  0  0  0  0
  131.8885  127.8532   57.5499 H   0  0  0  0  0  0  0  0  0  0  0  0
  128.9499  128.9853   58.8940 H   0  0  0  0  0  0  0  0  0  0  0  0
  129.1996  127.8962   60.3386 H   0  0  0  0  0  0  0  0  0  0  0  0
  130.9464  129.0729   61.0605 H   0  0  0  0  0  0  0  0  0  0  0  0
  131.6735  129.1188   59.3837 H   0  0  0  0  0  0  0  0  0  0  0  0
  129.4623  130.9851   60.3240 H   0  0  0  0  0  0  0  0  0  0  0  0
  131.2477  131.3599   60.3871 H   0  0  0  0  0  0  0  0  0  0  0  0
  132.0204  132.6051   58.7827 H   0  0  0  0  0  0  0  0  0  0  0  0
  132.4573  130.9695   58.1349 H   0  0  0  0  0  0  0  0  0  0  0  0
  132.6958  132.8173   56.4319 H   0  0  0  0  0  0  0  0  0  0  0  0
  131.5356  131.5272   55.9489 H   0  0  0  0  0  0  0  0  0  0  0  0
  128.6486  133.5808   56.6564 H   0  0  0  0  0  0  0  0  0  0  0  0
  129.2031  131.9664   56.0813 H   0  0  0  0  0  0  0  0  0  0  0  0
  129.4504  133.0940   58.9259 H   0  0  0  0  0  0  0  0  0  0  0  0
  128.3790  131.7447   58.3654 H   0  0  0  0  0  0  0  0  0  0  0  0
  128.9112  128.2902   57.2472 H   0  0  0  0  0  0  0  0  0  0  0  0
  130.3929  127.4340   56.5527 H   0  0  0  0  0  0  0  0  0  0  0  0
  127.3393  126.4015   58.4405 H   0  0  0  0  0  0  0  0  0  0  0  0
  125.5179  124.4588   60.0266 H   0  0  0  0  0  0  0  0  0  0  0  0
  125.5829  126.0044   59.1135 H   0  0  0  0  0  0  0  0  0  0  0  0
  124.0778  125.0238   59.1135 H   0  0  0  0  0  0  0  0  0  0  0  0
  124.0678  122.7763   57.9986 H   0  0  0  0  0  0  0  0  0  0  0  0
  124.8136  121.5179   55.9922 H   0  0  0  0  0  0  0  0  0  0  0  0
  127.4431  121.0906   54.6951 H   0  0  0  0  0  0  0  0  0  0  0  0
  126.0546  121.7642   53.7758 H   0  0  0  0  0  0  0  0  0  0  0  0
  127.6328  122.6221   53.7758 H   0  0  0  0  0  0  0  0  0  0  0  0
  128.6750  123.8590   54.5420 H   0  0  0  0  0  0  0  0  0  0  0  0
  130.3277  123.5599   58.8832 H   0  0  0  0  0  0  0  0  0  0  0  0
  128.0328  122.6050   59.0081 H   0  0  0  0  0  0  0  0  0  0  0  0
  1  2  1  0
  2  3  1  0
  3  4  2  0
  4  5  1  0
  5  6  2  0
  6  7  1  0
  7  8  1  0
  8  9  1  0
  9 10  2  0
 10 11  1  0
 11 12  2  0
 12 13  1  0
 13 14  1  0
 14 15  1  0
 15 16  1  0
 16 17  1  0
 17 18  1  0
 18 19  1  0
 19 20  1  0
 20 21  1  0
 21 22  1  0
 22 23  1  0
 14 24  1  0
 24 25  1  0
 25 26  2  0
 26 27  1  0
 27 28  2  0
 28 29  1  0
 28 30  1  0
 30 31  2  0
 31 32  1  0
 32 33  1  0
 32 34  2  0
 34 35  1  0
 35 36  1  0
 36 37  2  0
  6 38  1  0
 38 39  2  0
 39  3  1  0
 12  8  1  0
 23 18  1  0
 36 25  1  0
 34 27  1  0
  1 40  1  0
  1 41  1  0
  1 42  1  0
  4 43  1  0
  5 44  1  0
  7 45  1  0
  7 46  1  0
 13 47  1  0
 13 48  1  0
 15 49  1  0
 15 50  1  0
 16 51  1  0
 16 52  1  0
 17 53  1  0
 17 54  1  0
 19 55  1  0
 19 56  1  0
 20 57  1  0
 20 58  1  0
 22 59  1  0
 22 60  1  0
 23 61  1  0
 23 62  1  0
 24 63  1  0
 24 64  1  0
 26 65  1  0
 29 66  1  0
 29 67  1  0
 29 68  1  0
 30 69  1  0
 31 70  1  0
 33 71  1  0
 33 72  1  0
 33 73  1  0
 35 74  1  0
 38 75  1  0
 39 76  1  0
M  END
>  <Binding energies>  (1) 
[-10.44]

>  <Ligand effiencies>  (1) 
[-0.261]

>  <Interactions>  (1) 
["V-B:MET:535:CE:9806, V-B:ASP:366:CG:8184, V-B:LEU:363:CD1:8160, V-B:PRO:540:CA:9854, V-B:TYR:539:CE2:9847, V-B:PRO:540:N:9855, V-B:TYR:539:CE1:9846, V-B:PRO:540:CB:9856, H-B:ALA:541:N:9862, V-B:TYR:539:CZ:9848, V-A:ASP:366:CB:3211, V-B:PRO:540:CD:9858, V-B:ILE:538:CA:9831, V-A:TYR:539:C:4867, H-A:TYR:531:OH:4795, H-B:TYR:539:OH:9849, V-B:TYR:539:CD1:9844, V-A:ASP:366:CA:3209, V-B:ASN:362:CB:8147, V-A:PRO:540:CB:4885, V-A:LEU:363:CD1:3188, V-A:ASP:366:CG:3212, V-A:PRO:540:CA:4883, V-B:ILE:538:CD1:9836, H-A:TYR:539:N:4870, V-B:ILE:538:C:9829, H-B:MET:535:SD:9805, H-A:ASN:370:ND2:3247, V-B:VAL:537:C:9821, H-A:ASN:370:N:3243"]

$$$$
RR15_Rahimova_2017
     RDKit          3D

 85 89  0  0  0  0  0  0  0  0999 V2000
  130.1450  125.5410   74.6240 C   0  0  0  0  0  0  0  0  0  0  0  0
  129.0090  126.1500   74.0180 O   0  0  0  0  0  0  0  0  0  0  0  0
  129.0010  126.3700   72.6520 C   0  0  0  0  0  0  0  0  0  0  0  0
  128.3750  125.5160   71.7300 C   0  0  0  0  0  0  0  0  0  0  0  0
  128.4060  125.7960   70.3660 C   0  0  0  0  0  0  0  0  0  0  0  0
  129.0650  126.9310   69.8830 C   0  0  0  0  0  0  0  0  0  0  0  0
  129.1040  127.2280   68.4090 C   0  0  0  0  0  0  0  0  0  0  0  0
  128.4970  128.2760   67.8690 N   0  0  0  0  0  0  0  0  0  0  0  0
  128.7500  128.2070   66.5140 N   0  0  0  0  0  0  0  0  0  0  0  0
  129.5270  127.1300   66.3940 N   0  0  0  0  0  0  0  0  0  0  0  0
  129.9020  126.5880   65.0890 C   0  0  0  0  0  0  0  0  0  0  0  0
  129.2100  127.2660   63.8810 C   0  0  0  0  0  0  0  0  0  0  0  0
  128.3430  128.1130   64.1060 O   0  0  0  0  0  0  0  0  0  0  0  0
  129.5920  126.9370   62.6090 N   0  0  0  0  0  0  0  0  0  0  0  0
  128.8770  125.9030   61.8350 C   0  0  0  0  0  0  0  0  0  0  0  0
  128.7470  124.5560   62.5780 C   0  0  0  0  0  0  0  0  0  0  0  0
  128.3940  123.3490   61.6760 C   0  0  0  0  0  0  0  0  0  0  0  0
  126.9570  123.1970   61.4290 N   0  0  0  0  0  0  0  0  0  0  0  0
  126.1240  123.4940   62.6040 C   0  0  0  0  0  0  0  0  0  0  0  0
  124.6200  123.4030   62.2680 C   0  0  0  0  0  0  0  0  0  0  0  0
  124.3120  124.2450   61.1620 O   0  0  0  0  0  0  0  0  0  0  0  0
  125.0420  123.8930   59.9920 C   0  0  0  0  0  0  0  0  0  0  0  0
  126.5580  124.0010   60.2660 C   0  0  0  0  0  0  0  0  0  0  0  0
  130.6130  127.7060   61.8320 C   0  0  2  0  0  0  0  0  0  0  0  0
  130.1220  129.1060   61.3480 C   0  0  0  0  0  0  0  0  0  0  0  0
  128.9550  129.4630   61.5150 O   0  0  0  0  0  0  0  0  0  0  0  0
  131.0590  129.8890   60.7850 N   0  0  0  0  0  0  0  0  0  0  0  0
  130.8590  131.2680   60.3540 C   0  0  0  0  0  0  0  0  0  0  0  0
  131.9840  131.7230   59.4050 C   0  0  2  0  0  0  0  0  0  0  0  0
  131.5210  132.4820   58.1490 C   0  0  0  0  0  0  0  0  0  0  0  0
  131.5830  131.4560   57.0430 C   0  0  0  0  0  0  0  0  0  0  0  0
  132.7700  130.6150   57.4810 C   0  0  0  0  0  0  0  0  0  0  0  0
  132.5800  130.5250   58.8890 O   0  0  0  0  0  0  0  0  0  0  0  0
  131.2970  126.8100   60.8070 C   0  0  0  0  0  0  0  0  0  0  0  0
  132.1340  125.7900   61.2760 C   0  0  0  0  0  0  0  0  0  0  0  0
  132.7850  124.9410   60.3860 C   0  0  0  0  0  0  0  0  0  0  0  0
  132.6030  125.1050   59.0160 C   0  0  0  0  0  0  0  0  0  0  0  0
  133.2350  124.2800   58.1510 F   0  0  0  0  0  0  0  0  0  0  0  0
  131.7730  126.1120   58.5310 C   0  0  0  0  0  0  0  0  0  0  0  0
  131.1230  126.9610   59.4220 C   0  0  0  0  0  0  0  0  0  0  0  0
  129.7400  126.4680   67.5370 N   0  0  0  0  0  0  0  0  0  0  0  0
  129.6870  127.7820   70.8050 C   0  0  0  0  0  0  0  0  0  0  0  0
  129.6610  127.5160   72.1850 C   0  0  0  0  0  0  0  0  0  0  0  0
  130.2580  128.3280   73.1340 O   0  0  0  0  0  0  0  0  0  0  0  0
  130.0030  129.7280   73.1220 C   0  0  0  0  0  0  0  0  0  0  0  0
  130.0485  125.5927   75.7185 H   0  0  0  0  0  0  0  0  0  0  0  0
  130.2075  124.4884   74.3107 H   0  0  0  0  0  0  0  0  0  0  0  0
  131.0563  126.0716   74.3107 H   0  0  0  0  0  0  0  0  0  0  0  0
  127.8544  124.6159   72.0888 H   0  0  0  0  0  0  0  0  0  0  0  0
  127.9062  125.1163   69.6602 H   0  0  0  0  0  0  0  0  0  0  0  0
  130.9894  126.7041   64.9699 H   0  0  0  0  0  0  0  0  0  0  0  0
  129.5745  125.5379   65.0841 H   0  0  0  0  0  0  0  0  0  0  0  0
  127.8667  126.2744   61.6085 H   0  0  0  0  0  0  0  0  0  0  0  0
  129.4665  125.7148   60.9256 H   0  0  0  0  0  0  0  0  0  0  0  0
  129.7062  124.3443   63.0731 H   0  0  0  0  0  0  0  0  0  0  0  0
  127.9107  124.6707   63.2833 H   0  0  0  0  0  0  0  0  0  0  0  0
  128.9007  123.4790   60.7083 H   0  0  0  0  0  0  0  0  0  0  0  0
  128.7261  122.4442   62.2061 H   0  0  0  0  0  0  0  0  0  0  0  0
  126.3570  122.7709   63.3995 H   0  0  0  0  0  0  0  0  0  0  0  0
  126.3431  124.5208   62.9321 H   0  0  0  0  0  0  0  0  0  0  0  0
  124.3664  122.3630   62.0147 H   0  0  0  0  0  0  0  0  0  0  0  0
  124.0365  123.7295   63.1414 H   0  0  0  0  0  0  0  0  0  0  0  0
  124.7958  122.8599   59.7055 H   0  0  0  0  0  0  0  0  0  0  0  0
  124.7716  124.5795   59.1762 H   0  0  0  0  0  0  0  0  0  0  0  0
  127.1067  123.6455   59.3813 H   0  0  0  0  0  0  0  0  0  0  0  0
  126.7946  125.0540   60.4788 H   0  0  0  0  0  0  0  0  0  0  0  0
  131.4208  128.0081   62.5148 H   0  0  0  0  0  0  0  0  0  0  0  0
  132.0010  129.5330   60.7100 H   0  0  0  0  0  0  0  0  0  0  0  0
  129.8948  131.3441   59.8301 H   0  0  0  0  0  0  0  0  0  0  0  0
  130.8692  131.9160   61.2428 H   0  0  0  0  0  0  0  0  0  0  0  0
  132.6299  132.3919   59.9926 H   0  0  0  0  0  0  0  0  0  0  0  0
  130.4940  132.8547   58.2765 H   0  0  0  0  0  0  0  0  0  0  0  0
  132.1458  133.3625   57.9383 H   0  0  0  0  0  0  0  0  0  0  0  0
  130.6611  130.8577   56.9970 H   0  0  0  0  0  0  0  0  0  0  0  0
  131.6837  131.8861   56.0356 H   0  0  0  0  0  0  0  0  0  0  0  0
  132.7471  129.6201   57.0122 H   0  0  0  0  0  0  0  0  0  0  0  0
  133.7415  131.0450   57.1959 H   0  0  0  0  0  0  0  0  0  0  0  0
  132.2783  125.6585   62.3585 H   0  0  0  0  0  0  0  0  0  0  0  0
  133.4411  124.1431   60.7640 H   0  0  0  0  0  0  0  0  0  0  0  0
  131.6314  126.2363   57.4473 H   0  0  0  0  0  0  0  0  0  0  0  0
  130.4677  127.7567   59.0380 H   0  0  0  0  0  0  0  0  0  0  0  0
  130.2081  128.6796   70.4407 H   0  0  0  0  0  0  0  0  0  0  0  0
  129.9357  130.0973   74.1560 H   0  0  0  0  0  0  0  0  0  0  0  0
  130.8217  130.2454   72.6004 H   0  0  0  0  0  0  0  0  0  0  0  0
  129.0545  129.9235   72.6004 H   0  0  0  0  0  0  0  0  0  0  0  0
  1  2  1  0
  2  3  1  0
  3  4  2  0
  4  5  1  0
  5  6  2  0
  6  7  1  0
  7  8  1  0
  8  9  2  0
  9 10  1  0
 10 11  1  0
 11 12  1  0
 12 13  2  0
 12 14  1  0
 14 15  1  0
 15 16  1  0
 16 17  1  0
 17 18  1  0
 18 19  1  0
 19 20  1  0
 20 21  1  0
 21 22  1  0
 22 23  1  0
 14 24  1  0
 24 25  1  0
 25 26  2  0
 25 27  1  0
 27 28  1  0
 28 29  1  0
 29 30  1  0
 30 31  1  0
 31 32  1  0
 32 33  1  0
 24 34  1  0
 34 35  2  0
 35 36  1  0
 36 37  2  0
 37 38  1  0
 37 39  1  0
 39 40  2  0
 10 41  1  0
  6 42  1  0
 42 43  2  0
 43 44  1  0
 44 45  1  0
 43  3  1  0
 41  7  2  0
 23 18  1  0
 33 29  1  0
 40 34  1  0
  1 46  1  0
  1 47  1  0
  1 48  1  0
  4 49  1  0
  5 50  1  0
 11 51  1  0
 11 52  1  0
 15 53  1  0
 15 54  1  0
 16 55  1  0
 16 56  1  0
 17 57  1  0
 17 58  1  0
 19 59  1  0
 19 60  1  0
 20 61  1  0
 20 62  1  0
 22 63  1  0
 22 64  1  0
 23 65  1  0
 23 66  1  0
 24 67  1  1
 27 68  1  0
 28 69  1  0
 28 70  1  0
 29 71  1  1
 30 72  1  0
 30 73  1  0
 31 74  1  0
 31 75  1  0
 32 76  1  0
 32 77  1  0
 35 78  1  0
 36 79  1  0
 39 80  1  0
 40 81  1  0
 42 82  1  0
 45 83  1  0
 45 84  1  0
 45 85  1  0
M  END
>  <Binding energies>  (1) 
[-9.34]

>  <Ligand effiencies>  (1) 
[-0.20304347826086958]

>  <Interactions>  (1) 
["V-A:HIS:456:CE1:4069, V-A:HIS:456:CD2:4067, V-B:GLU:543:CD:9879, V-A:GLU:543:CD:4908, V-B:HIS:456:CE1:9041, H-A:LYS:547:NZ:4951, H-B:LYS:547:NZ:9922, V-B:GLU:543:C:9873, V-B:GLU:543:CB:9877, V-B:GLU:543:CG:9878, V-B:PRO:540:CA:9854, V-B:TYR:539:CE2:9847, V-B:ALA:541:CB:9863, V-B:PRO:540:CB:9856, H-B:ALA:541:N:9862, V-A:ILE:369:CG2:3236, V-B:TYR:539:CZ:9848, V-A:ILE:369:CB:3235, V-A:ASP:366:CB:3211, V-A:TYR:539:C:4867, V-A:PRO:540:N:4884, V-A:TYR:531:CZ:4794, V-A:ASP:366:CA:3209, V-B:ASN:362:CB:8147, V-A:PRO:540:CB:4885, V-A:LEU:363:CD1:3188, V-A:TYR:531:CE2:4793, V-A:ASP:366:CG:3212, V-A:ASP:366:C:3207, V-A:PRO:540:CA:4883, V-B:ALA:541:C:9859, V-B:ALA:541:CA:9861, V-B:ASN:362:CG:8148, H-A:ASP:366:OD2:3214, H-B:ARG:545:NH2:9899"]

$$$$
RR16_Rahimova_2017
     RDKit          3D

 80 85  0  0  0  0  0  0  0  0999 V2000
  133.9030  120.8520   62.4430 O   0  0  0  0  0  0  0  0  0  0  0  0
  133.4340  122.2400   62.5230 S   0  0  0  0  0  0  0  0  0  0  0  0
  134.3160  123.3550   62.1570 O   0  0  0  0  0  0  0  0  0  0  0  0
  132.8610  122.5130   64.1700 N   0  0  0  0  0  0  0  0  0  0  0  0
  131.8890  123.5910   64.4680 C   0  0  0  0  0  0  0  0  0  0  0  0
  130.6610  122.9820   65.1950 C   0  0  0  0  0  0  0  0  0  0  0  0
  129.5540  123.9540   65.6470 C   0  0  0  0  0  0  0  0  0  0  0  0
  129.5560  125.2970   64.8960 C   0  0  0  0  0  0  0  0  0  0  0  0
  130.5730  126.3410   65.3950 C   0  0  0  0  0  0  0  0  0  0  0  0
  132.0490  126.1300   65.0060 C   0  0  0  0  0  0  0  0  0  0  0  0
  132.6260  124.7180   65.2280 C   0  0  0  0  0  0  0  0  0  0  0  0
  131.9610  122.3490   61.5140 C   0  0  0  0  0  0  0  0  0  0  0  0
  131.9450  123.1570   60.3760 C   0  0  0  0  0  0  0  0  0  0  0  0
  130.7570  123.3290   59.6700 C   0  0  0  0  0  0  0  0  0  0  0  0
  129.5930  122.6920   60.1040 C   0  0  0  0  0  0  0  0  0  0  0  0
  128.0360  123.0230   59.2830 S   0  0  0  0  0  0  0  0  0  0  0  0
  126.9780  122.9440   60.2990 O   0  0  0  0  0  0  0  0  0  0  0  0
  127.9800  122.1720   58.0870 O   0  0  0  0  0  0  0  0  0  0  0  0
  128.1740  124.7110   58.7540 N   0  0  0  0  0  0  0  0  0  0  0  0
  128.3500  125.6890   59.8580 C   0  0  0  0  0  0  0  0  0  0  0  0
  128.1470  127.1280   59.3410 C   0  0  0  0  0  0  0  0  0  0  0  0
  129.0450  127.4310   58.1160 C   0  0  0  0  0  0  0  0  0  0  0  0
  128.8240  128.8400   57.5590 C   0  0  0  0  0  0  0  0  0  0  0  0
  127.5360  129.2460   57.1850 C   0  0  0  0  0  0  0  0  0  0  0  0
  127.2880  130.5240   56.6800 C   0  0  0  0  0  0  0  0  0  0  0  0
  126.0200  130.9050   56.3240 O   0  0  0  0  0  0  0  0  0  0  0  0
  128.3700  131.4080   56.5540 C   0  0  0  0  0  0  0  0  0  0  0  0
  128.4260  132.7000   56.1180 N   0  0  0  0  0  0  0  0  0  0  0  0
  129.7350  133.1170   56.2250 N   0  0  0  0  0  0  0  0  0  0  0  0
  130.4750  132.0860   56.6770 N   0  0  0  0  0  0  0  0  0  0  0  0
  131.8910  132.2710   56.9670 C   0  0  0  0  0  0  0  0  0  0  0  0
  132.2190  132.0720   58.4400 C   0  0  0  0  0  0  0  0  0  0  0  0
  133.5430  131.8590   58.8410 C   0  0  0  0  0  0  0  0  0  0  0  0
  133.8500  131.6980   60.1930 C   0  0  0  0  0  0  0  0  0  0  0  0
  132.8360  131.7510   61.1500 C   0  0  0  0  0  0  0  0  0  0  0  0
  131.5150  131.9660   60.7570 C   0  0  0  0  0  0  0  0  0  0  0  0
  130.2600  132.0430   61.9390 Cl  0  0  0  0  0  0  0  0  0  0  0  0
  131.2070  132.1230   59.4040 C   0  0  0  0  0  0  0  0  0  0  0  0
  129.6690  130.9870   56.9260 C   0  0  0  0  0  0  0  0  0  0  0  0
  129.9190  129.7060   57.4290 C   0  0  0  0  0  0  0  0  0  0  0  0
  128.9430  126.3310   57.0270 C   0  0  0  0  0  0  0  0  0  0  0  0
  129.1100  124.9180   57.6180 C   0  0  0  0  0  0  0  0  0  0  0  0
  129.6210  121.8510   61.2190 C   0  0  0  0  0  0  0  0  0  0  0  0
  130.8070  121.6820   61.9270 C   0  0  0  0  0  0  0  0  0  0  0  0
  132.8580  121.7070   64.8010 H   0  0  0  0  0  0  0  0  0  0  0  0
  131.4809  124.0590   63.5600 H   0  0  0  0  0  0  0  0  0  0  0  0
  130.2014  122.2520   64.5125 H   0  0  0  0  0  0  0  0  0  0  0  0
  131.0650  122.5606   66.1273 H   0  0  0  0  0  0  0  0  0  0  0  0
  128.5802  123.4686   65.4853 H   0  0  0  0  0  0  0  0  0  0  0  0
  129.7430  124.1814   66.7065 H   0  0  0  0  0  0  0  0  0  0  0  0
  129.7743  125.0918   63.8376 H   0  0  0  0  0  0  0  0  0  0  0  0
  128.5637  125.7387   65.0699 H   0  0  0  0  0  0  0  0  0  0  0  0
  130.2634  127.3196   64.9994 H   0  0  0  0  0  0  0  0  0  0  0  0
  130.5539  126.2531   66.4913 H   0  0  0  0  0  0  0  0  0  0  0  0
  132.1495  126.3673   63.9366 H   0  0  0  0  0  0  0  0  0  0  0  0
  132.6225  126.7865   65.6769 H   0  0  0  0  0  0  0  0  0  0  0  0
  133.6762  124.7218   64.9007 H   0  0  0  0  0  0  0  0  0  0  0  0
  132.5069  124.4991   66.2994 H   0  0  0  0  0  0  0  0  0  0  0  0
  132.8658  123.6552   60.0386 H   0  0  0  0  0  0  0  0  0  0  0  0
  130.7358  123.9651   58.7728 H   0  0  0  0  0  0  0  0  0  0  0  0
  127.6130  125.4805   60.6475 H   0  0  0  0  0  0  0  0  0  0  0  0
  129.3704  125.5948   60.2580 H   0  0  0  0  0  0  0  0  0  0  0  0
  127.0938  127.2569   59.0510 H   0  0  0  0  0  0  0  0  0  0  0  0
  128.4229  127.8232   60.1476 H   0  0  0  0  0  0  0  0  0  0  0  0
  130.0837  127.4106   58.4775 H   0  0  0  0  0  0  0  0  0  0  0  0
  126.6992  128.5401   57.2919 H   0  0  0  0  0  0  0  0  0  0  0  0
  125.9980  131.7220   55.8200 H   0  0  0  0  0  0  0  0  0  0  0  0
  132.4691  131.5451   56.3764 H   0  0  0  0  0  0  0  0  0  0  0  0
  132.1515  133.3072   56.7053 H   0  0  0  0  0  0  0  0  0  0  0  0
  134.3441  131.8184   58.0882 H   0  0  0  0  0  0  0  0  0  0  0  0
  134.8915  131.5293   60.5041 H   0  0  0  0  0  0  0  0  0  0  0  0
  133.0785  131.6231   62.2153 H   0  0  0  0  0  0  0  0  0  0  0  0
  130.1641  132.2875   59.0952 H   0  0  0  0  0  0  0  0  0  0  0  0
  130.9343  129.3906   57.7113 H   0  0  0  0  0  0  0  0  0  0  0  0
  127.9573  126.3998   56.5437 H   0  0  0  0  0  0  0  0  0  0  0  0
  129.7535  126.4943   56.3015 H   0  0  0  0  0  0  0  0  0  0  0  0
  128.9005  124.1725   56.8368 H   0  0  0  0  0  0  0  0  0  0  0  0
  130.1413  124.8068   57.9840 H   0  0  0  0  0  0  0  0  0  0  0  0
  128.7089  121.3243   61.5362 H   0  0  0  0  0  0  0  0  0  0  0  0
  130.8347  121.0251   62.8089 H   0  0  0  0  0  0  0  0  0  0  0  0
  1  2  2  0
  2  3  2  0
  2  4  1  0
  4  5  1  0
  5  6  1  0
  6  7  1  0
  7  8  1  0
  8  9  1  0
  9 10  1  0
 10 11  1  0
  2 12  1  0
 12 13  2  0
 13 14  1  0
 14 15  2  0
 15 16  1  0
 16 17  2  0
 16 18  2  0
 16 19  1  0
 19 20  1  0
 20 21  1  0
 21 22  1  0
 22 23  1  0
 23 24  2  0
 24 25  1  0
 25 26  1  0
 25 27  2  0
 27 28  1  0
 28 29  2  0
 29 30  1  0
 30 31  1  0
 31 32  1  0
 32 33  2  0
 33 34  1  0
 34 35  2  0
 35 36  1  0
 36 37  1  0
 36 38  2  0
 30 39  1  0
 39 40  2  0
 22 41  1  0
 41 42  1  0
 15 43  1  0
 43 44  2  0
 11  5  1  0
 44 12  1  0
 42 19  1  0
 40 23  1  0
 39 27  1  0
 38 32  1  0
  4 45  1  0
  5 46  1  0
  6 47  1  0
  6 48  1  0
  7 49  1  0
  7 50  1  0
  8 51  1  0
  8 52  1  0
  9 53  1  0
  9 54  1  0
 10 55  1  0
 10 56  1  0
 11 57  1  0
 11 58  1  0
 13 59  1  0
 14 60  1  0
 20 61  1  0
 20 62  1  0
 21 63  1  0
 21 64  1  0
 22 65  1  0
 24 66  1  0
 26 67  1  0
 31 68  1  0
 31 69  1  0
 33 70  1  0
 34 71  1  0
 35 72  1  0
 38 73  1  0
 40 74  1  0
 41 75  1  0
 41 76  1  0
 42 77  1  0
 42 78  1  0
 43 79  1  0
 44 80  1  0
M  END
>  <Binding energies>  (1) 
[-9.56]

>  <Ligand effiencies>  (1) 
[-0.1991666666666667]

>  <Interactions>  (1) 
["V-B:GLU:543:CD:9879, V-A:GLU:543:CD:4908, V-B:GLU:543:CB:9877, V-B:GLU:543:CG:9878, V-B:TYR:539:CD2:9845, V-B:PRO:540:CA:9854, V-B:TYR:539:CE2:9847, V-B:ALA:541:CB:9863, V-A:LEU:475:CD2:4258, H-B:ALA:541:N:9862, V-A:ILE:369:CG2:3236, V-B:TYR:539:CZ:9848, V-A:ARG:545:CZ:4926, H-A:TYR:539:OH:4878, V-A:PRO:540:N:4884, V-A:MET:535:CE:4835, H-A:GLY:454:N:4049, V-A:LEU:363:CA:3184, V-A:PRO:540:CB:4885, V-A:LEU:363:CD1:3188, V-A:ASP:366:CG:3212, H-A:TYR:484:OH:4347, V-A:PRO:540:CA:4883, V-A:TYR:484:CE1:4344, V-A:TYR:484:CZ:4346, V-A:GLY:454:CA:4048, V-A:ILE:369:CD1:3238, V-A:ALA:541:CB:4892, V-A:PRO:540:C:4881, H-A:TYR:539:N:4870, V-A:ASN:362:CB:3175, V-A:LEU:363:CB:3186, V-A:ASN:362:C:3171"]

$$$$
RR17_Rahimova_2017
     RDKit          3D

 63 66  0  0  0  0  0  0  0  0999 V2000
  132.1290  132.1220   57.4590 C   0  0  0  0  0  0  0  0  0  0  0  0
  131.5880  132.9200   56.2690 C   0  0  0  0  0  0  0  0  0  0  0  0
  130.4200  133.6230   56.6830 O   0  0  0  0  0  0  0  0  0  0  0  0
  129.2720  132.9130   56.9820 C   0  0  0  0  0  0  0  0  0  0  0  0
  128.5970  132.3400   55.9060 C   0  0  0  0  0  0  0  0  0  0  0  0
  127.4310  131.6080   56.1090 C   0  0  0  0  0  0  0  0  0  0  0  0
  126.9130  131.4350   57.4010 C   0  0  0  0  0  0  0  0  0  0  0  0
  125.6540  130.6390   57.5890 C   0  0  0  0  0  0  0  0  0  0  0  0
  124.6370  130.8430   56.9200 O   0  0  0  0  0  0  0  0  0  0  0  0
  125.6720  129.5470   58.6820 C   0  0  0  0  0  0  0  0  0  0  0  0
  126.5260  128.0290   58.1250 S   0  0  0  0  0  0  0  0  0  0  0  0
  126.6540  127.1680   59.6670 C   0  0  0  0  0  0  0  0  0  0  0  0
  126.8540  127.7290   60.8360 N   0  0  0  0  0  0  0  0  0  0  0  0
  126.8850  126.7210   61.7920 N   0  0  0  0  0  0  0  0  0  0  0  0
  126.6990  125.5880   61.1640 C   0  0  0  0  0  0  0  0  0  0  0  0
  126.6480  124.2240   61.8380 C   0  0  0  0  0  0  0  0  0  0  0  0
  127.8150  123.9320   62.6660 N   0  0  0  0  0  0  0  0  0  0  0  0
  128.8390  123.0460   62.2870 C   0  0  0  0  0  0  0  0  0  0  0  0
  128.6610  122.3260   61.1060 C   0  0  0  0  0  0  0  0  0  0  0  0
  129.6330  121.4280   60.6750 C   0  0  0  0  0  0  0  0  0  0  0  0
  130.8000  121.2410   61.4220 C   0  0  0  0  0  0  0  0  0  0  0  0
  131.8550  120.2470   60.9380 C   0  0  0  0  0  0  0  0  0  0  0  0
  132.1200  120.3830   59.6370 F   0  0  0  0  0  0  0  0  0  0  0  0
  132.9950  120.4140   61.6100 F   0  0  0  0  0  0  0  0  0  0  0  0
  131.4140  119.0060   61.1480 F   0  0  0  0  0  0  0  0  0  0  0  0
  130.9850  121.9680   62.6030 C   0  0  0  0  0  0  0  0  0  0  0  0
  130.0130  122.8670   63.0320 C   0  0  0  0  0  0  0  0  0  0  0  0
  126.5570  125.7980   59.8080 N   0  0  0  0  0  0  0  0  0  0  0  0
  126.3320  124.8400   58.8070 C   0  0  0  0  0  0  0  0  0  0  0  0
  125.0340  124.6140   58.3520 C   0  0  0  0  0  0  0  0  0  0  0  0
  124.8110  123.6610   57.3620 C   0  0  0  0  0  0  0  0  0  0  0  0
  125.8850  122.9330   56.8250 C   0  0  0  0  0  0  0  0  0  0  0  0
  125.7580  121.9700   55.8420 O   0  0  0  0  0  0  0  0  0  0  0  0
  126.4890  122.1160   54.6290 C   0  0  0  0  0  0  0  0  0  0  0  0
  127.1780  123.1710   57.2960 C   0  0  0  0  0  0  0  0  0  0  0  0
  127.4080  124.1230   58.2850 C   0  0  0  0  0  0  0  0  0  0  0  0
  127.5940  132.0120   58.4830 C   0  0  0  0  0  0  0  0  0  0  0  0
  128.7610  132.7430   58.2770 C   0  0  0  0  0  0  0  0  0  0  0  0
  131.8063  132.5979   58.3967 H   0  0  0  0  0  0  0  0  0  0  0  0
  131.7412  131.0935   57.4175 H   0  0  0  0  0  0  0  0  0  0  0  0
  133.2280  132.1014   57.4175 H   0  0  0  0  0  0  0  0  0  0  0  0
  132.3494  133.6364   55.9270 H   0  0  0  0  0  0  0  0  0  0  0  0
  131.3414  132.2382   55.4418 H   0  0  0  0  0  0  0  0  0  0  0  0
  128.9896  132.4675   54.8864 H   0  0  0  0  0  0  0  0  0  0  0  0
  126.9110  131.1612   55.2488 H   0  0  0  0  0  0  0  0  0  0  0  0
  126.1910  129.9409   59.5682 H   0  0  0  0  0  0  0  0  0  0  0  0
  124.6296  129.2831   58.9139 H   0  0  0  0  0  0  0  0  0  0  0  0
  125.7522  124.1852   62.4752 H   0  0  0  0  0  0  0  0  0  0  0  0
  126.6273  123.4710   61.0364 H   0  0  0  0  0  0  0  0  0  0  0  0
  127.7810  124.2190   63.6330 H   0  0  0  0  0  0  0  0  0  0  0  0
  127.7466  122.4687   60.5114 H   0  0  0  0  0  0  0  0  0  0  0  0
  129.4825  120.8632   59.7431 H   0  0  0  0  0  0  0  0  0  0  0  0
  131.9019  121.8286   63.1945 H   0  0  0  0  0  0  0  0  0  0  0  0
  130.1665  123.4391   63.9589 H   0  0  0  0  0  0  0  0  0  0  0  0
  124.1923  125.1843   58.7720 H   0  0  0  0  0  0  0  0  0  0  0  0
  123.7890  123.4775   56.9988 H   0  0  0  0  0  0  0  0  0  0  0  0
  127.5437  122.3267   54.8596 H   0  0  0  0  0  0  0  0  0  0  0  0
  126.4199  121.1863   54.0451 H   0  0  0  0  0  0  0  0  0  0  0  0
  126.0681  122.9478   54.0451 H   0  0  0  0  0  0  0  0  0  0  0  0
  128.0225  122.6008   56.8816 H   0  0  0  0  0  0  0  0  0  0  0  0
  128.4286  124.3079   58.6512 H   0  0  0  0  0  0  0  0  0  0  0  0
  127.2027  131.8859   59.5033 H   0  0  0  0  0  0  0  0  0  0  0  0
  129.2851  133.1897   59.1348 H   0  0  0  0  0  0  0  0  0  0  0  0
  1  2  1  0
  2  3  1  0
  3  4  1  0
  4  5  2  0
  5  6  1  0
  6  7  2  0
  7  8  1  0
  8  9  2  0
  8 10  1  0
 10 11  1  0
 11 12  1  0
 12 13  2  0
 13 14  1  0
 14 15  2  0
 15 16  1  0
 16 17  1  0
 17 18  1  0
 18 19  2  0
 19 20  1  0
 20 21  2  0
 21 22  1  0
 22 23  1  0
 22 24  1  0
 22 25  1  0
 21 26  1  0
 26 27  2  0
 15 28  1  0
 28 29  1  0
 29 30  2  0
 30 31  1  0
 31 32  2  0
 32 33  1  0
 33 34  1  0
 32 35  1  0
 35 36  2  0
  7 37  1  0
 37 38  2  0
 38  4  1  0
 28 12  1  0
 36 29  1  0
 27 18  1  0
  1 39  1  0
  1 40  1  0
  1 41  1  0
  2 42  1  0
  2 43  1  0
  5 44  1  0
  6 45  1  0
 10 46  1  0
 10 47  1  0
 16 48  1  0
 16 49  1  0
 17 50  1  0
 19 51  1  0
 20 52  1  0
 26 53  1  0
 27 54  1  0
 30 55  1  0
 31 56  1  0
 34 57  1  0
 34 58  1  0
 34 59  1  0
 35 60  1  0
 36 61  1  0
 37 62  1  0
 38 63  1  0
M  END
>  <Binding energies>  (1) 
[-9.04]

>  <Ligand effiencies>  (1) 
[-0.23179487179487177]

>  <Interactions>  (1) 
["V-B:GLU:543:CD:9879, V-B:GLU:543:CG:9878, V-B:MET:535:CE:9806, V-A:TRP:381:CZ2:3369, V-A:TRP:381:CZ3:3370, V-B:ASP:366:CG:8184, V-B:LEU:363:CD1:8160, V-A:TRP:381:CH2:3371, V-B:TYR:539:CD2:9845, V-B:PRO:540:CA:9854, V-B:TYR:539:CE2:9847, V-A:PRO:482:CB:4325, V-B:ALA:541:CB:9863, V-B:PRO:540:N:9855, V-A:LEU:475:CD2:4258, V-B:TYR:539:CE1:9846, V-B:PRO:540:CB:9856, H-B:TYR:539:N:9841, V-A:ILE:369:CG2:3236, V-B:PRO:540:CD:9858, V-A:TYR:539:CD2:4874, H-A:TYR:539:OH:4878, V-B:ILE:538:CA:9831, V-A:TYR:539:C:4867, V-A:TYR:539:CE2:4876, H-B:TYR:531:OH:9766, V-A:TYR:539:CG:4872, V-A:PRO:540:N:4884, V-A:MET:535:CE:4835, V-B:TYR:539:CD1:9844, V-B:ASP:366:CB:8183, V-A:PRO:540:CB:4885, V-A:LEU:363:CD1:3188, V-A:PRO:540:CA:4883, V-B:ILE:538:CD1:9836, V-A:PRO:540:CD:4887, V-A:TYR:539:CZ:4877, H-A:TYR:539:N:4870, H-B:ARG:545:NH2:9899, H-B:GLU:543:OE2:9881, V-A:ILE:538:CB:4862, V-A:ILE:538:CA:4860, V-B:ILE:538:C:9829, V-A:TYR:539:CE1:4875, V-A:TYR:539:CD1:4873"]

$$$$
RR18_Rahimova_2017
     RDKit          3D

 56 61  0  0  0  0  0  0  0  0999 V2000
  130.1850  120.3330   61.0370 C   0  0  0  0  0  0  0  0  0  0  0  0
  130.3100  121.5050   61.9790 C   0  0  0  0  0  0  0  0  0  0  0  0
  130.6250  121.6360   63.3220 C   0  0  0  0  0  0  0  0  0  0  0  0
  130.5750  122.9980   63.6160 C   0  0  0  0  0  0  0  0  0  0  0  0
  130.2320  123.6500   62.4430 C   0  0  0  0  0  0  0  0  0  0  0  0
  130.0180  125.1150   62.0710 C   0  0  1  0  0  0  0  0  0  0  0  0
  131.0250  126.0460   62.8100 C   0  0  0  0  0  0  0  0  0  0  0  0
  130.9810  126.1760   64.2640 C   0  0  0  0  0  0  0  0  0  0  0  0
  131.9880  126.0360   64.9600 O   0  0  0  0  0  0  0  0  0  0  0  0
  129.7560  126.4740   64.7560 N   0  0  0  0  0  0  0  0  0  0  0  0
  129.3280  126.6540   66.0890 C   0  0  0  0  0  0  0  0  0  0  0  0
  128.7940  127.8610   66.5760 C   0  0  0  0  0  0  0  0  0  0  0  0
  128.3950  127.9750   67.9060 C   0  0  0  0  0  0  0  0  0  0  0  0
  128.5290  126.8930   68.7710 C   0  0  0  0  0  0  0  0  0  0  0  0
  129.0670  125.6950   68.3060 C   0  0  0  0  0  0  0  0  0  0  0  0
  129.4710  125.5650   66.9730 C   0  0  0  0  0  0  0  0  0  0  0  0
  130.0580  124.2330   66.5160 C   0  0  0  0  0  0  0  0  0  0  0  0
  132.0040  126.6470   62.0840 C   0  0  0  0  0  0  0  0  0  0  0  0
  132.1070  126.5960   60.7270 N   0  0  0  0  0  0  0  0  0  0  0  0
  131.1910  126.0130   60.0460 C   0  0  0  0  0  0  0  0  0  0  0  0
  131.1100  125.9980   58.3010 S   0  0  0  0  0  0  0  0  0  0  0  0
  129.5870  125.0540   58.3270 C   0  0  0  0  0  0  0  0  0  0  0  0
  128.8530  124.6260   57.2420 C   0  0  0  0  0  0  0  0  0  0  0  0
  129.2540  125.0060   55.8790 C   0  0  0  0  0  0  0  0  0  0  0  0
  130.2150  125.6700   55.4920 O   0  0  0  0  0  0  0  0  0  0  0  0
  128.3420  124.5020   55.0410 N   0  0  0  0  0  0  0  0  0  0  0  0
  127.3740  123.7860   55.6770 C   0  0  0  0  0  0  0  0  0  0  0  0
  126.2900  123.1200   55.1060 C   0  0  0  0  0  0  0  0  0  0  0  0
  125.4230  122.4130   55.9350 C   0  0  0  0  0  0  0  0  0  0  0  0
  125.6590  122.3760   57.3080 C   0  0  0  0  0  0  0  0  0  0  0  0
  126.7520  123.0520   57.8560 C   0  0  0  0  0  0  0  0  0  0  0  0
  127.6260  123.7920   57.0380 C   0  0  0  0  0  0  0  0  0  0  0  0
  129.2270  124.8160   59.7260 C   0  0  0  0  0  0  0  0  0  0  0  0
  128.2190  124.2480   60.1330 O   0  0  0  0  0  0  0  0  0  0  0  0
  130.1500  125.3280   60.5850 N   0  0  0  0  0  0  0  0  0  0  0  0
  130.0710  122.7340   61.4510 O   0  0  0  0  0  0  0  0  0  0  0  0
  130.0860  119.4044   61.6182 H   0  0  0  0  0  0  0  0  0  0  0  0
  129.2959  120.4654   60.4030 H   0  0  0  0  0  0  0  0  0  0  0  0
  131.0820  120.2748   60.4030 H   0  0  0  0  0  0  0  0  0  0  0  0
  130.8677  120.8224   64.0213 H   0  0  0  0  0  0  0  0  0  0  0  0
  130.7705  123.4653   64.5924 H   0  0  0  0  0  0  0  0  0  0  0  0
  128.9957  125.3731   62.3844 H   0  0  0  0  0  0  0  0  0  0  0  0
  129.0370  126.6440   64.0700 H   0  0  0  0  0  0  0  0  0  0  0  0
  128.6905  128.7229   65.9004 H   0  0  0  0  0  0  0  0  0  0  0  0
  127.9732  128.9222   68.2732 H   0  0  0  0  0  0  0  0  0  0  0  0
  128.2107  126.9836   69.8200 H   0  0  0  0  0  0  0  0  0  0  0  0
  129.1752  124.8432   68.9936 H   0  0  0  0  0  0  0  0  0  0  0  0
  130.3244  123.6286   67.3956 H   0  0  0  0  0  0  0  0  0  0  0  0
  129.3146  123.6928   65.9114 H   0  0  0  0  0  0  0  0  0  0  0  0
  130.9583  124.4172   65.9114 H   0  0  0  0  0  0  0  0  0  0  0  0
  132.7690  127.2162   62.6324 H   0  0  0  0  0  0  0  0  0  0  0  0
  128.3860  124.6260   54.0400 H   0  0  0  0  0  0  0  0  0  0  0  0
  126.1227  123.1526   54.0193 H   0  0  0  0  0  0  0  0  0  0  0  0
  124.5565  121.8865   55.5085 H   0  0  0  0  0  0  0  0  0  0  0  0
  124.9806  121.8111   57.9643 H   0  0  0  0  0  0  0  0  0  0  0  0
  126.9316  123.0053   58.9402 H   0  0  0  0  0  0  0  0  0  0  0  0
  1  2  1  0
  2  3  2  0
  3  4  1  0
  4  5  2  0
  5  6  1  0
  6  7  1  0
  7  8  1  0
  8  9  2  0
  8 10  1  0
 10 11  1  0
 11 12  2  0
 12 13  1  0
 13 14  2  0
 14 15  1  0
 15 16  2  0
 16 17  1  0
  7 18  2  0
 18 19  1  0
 19 20  2  0
 20 21  1  0
 21 22  1  0
 22 23  2  0
 23 24  1  0
 24 25  2  0
 24 26  1  0
 26 27  1  0
 27 28  2  0
 28 29  1  0
 29 30  2  0
 30 31  1  0
 31 32  2  0
 22 33  1  0
 33 34  2  0
 33 35  1  0
  5 36  1  0
 36  2  1  0
 35  6  1  0
 16 11  1  0
 35 20  1  0
 32 23  1  0
 32 27  1  0
  1 37  1  0
  1 38  1  0
  1 39  1  0
  3 40  1  0
  4 41  1  0
  6 42  1  1
 10 43  1  0
 12 44  1  0
 13 45  1  0
 14 46  1  0
 15 47  1  0
 17 48  1  0
 17 49  1  0
 17 50  1  0
 18 51  1  0
 26 52  1  0
 28 53  1  0
 29 54  1  0
 30 55  1  0
 31 56  1  0
M  END
>  <Binding energies>  (1) 
[-8.64]

>  <Ligand effiencies>  (1) 
[-0.22736842105263158]

>  <Interactions>  (1) 
["V-A:HIS:456:CE1:4069, V-A:GLU:543:CG:4907, V-B:GLU:543:CD:9879, V-A:GLU:543:CD:4908, V-B:HIS:456:CE1:9041, V-B:GLU:543:CB:9877, V-B:GLU:543:CG:9878, V-B:MET:535:CE:9806, V-B:LEU:363:CD1:8160, V-B:TYR:539:CD2:9845, V-B:PRO:540:CA:9854, V-B:TYR:539:CE2:9847, V-B:ALA:541:CB:9863, V-B:PRO:540:N:9855, V-A:LEU:475:CD2:4258, V-B:TYR:539:CE1:9846, V-B:PRO:540:CB:9856, V-B:TYR:539:CZ:9848, V-B:TYR:539:C:9838, V-B:PRO:540:CD:9858, V-A:ARG:545:CZ:4926, H-A:TYR:531:OH:4795, V-B:PRO:540:CG:9857, H-B:TYR:539:OH:9849, V-A:ASP:366:CG:3212, V-A:TYR:484:CE1:4344, V-B:ILE:538:CD1:9836, V-A:TYR:484:CZ:4346, H-A:ARG:545:NH2:4928, H-A:ARG:545:NE:4924, H-B:GLU:543:OE2:9881, V-A:LEU:475:CD1:4257, H-B:MET:535:SD:9805, H-A:ASN:370:ND2:3247"]

$$$$
RR19_Rahimova_2017
     RDKit          3D

 72 77  0  0  0  0  0  0  0  0999 V2000
  133.0700  124.9450   58.4670 O   0  0  0  0  0  0  0  0  0  0  0  0
  132.1250  125.4370   59.0900 C   0  0  0  0  0  0  0  0  0  0  0  0
  131.9200  125.3500   60.4290 N   0  0  0  0  0  0  0  0  0  0  0  0
  132.7130  124.9370   61.4710 C   0  0  0  0  0  0  0  0  0  0  0  0
  134.3730  124.6170   61.3800 S   0  0  0  0  0  0  0  0  0  0  0  0
  131.9360  124.8290   62.5980 N   0  0  0  0  0  0  0  0  0  0  0  0
  132.2280  124.6030   63.9040 C   0  0  0  0  0  0  0  0  0  0  0  0
  133.3500  124.6190   64.4160 O   0  0  0  0  0  0  0  0  0  0  0  0
  130.9910  124.2770   64.7770 C   0  0  2  0  0  0  0  0  0  0  0  0
  130.0610  123.1680   64.2050 C   0  0  0  0  0  0  0  0  0  0  0  0
  130.5960  122.4430   62.9800 C   0  0  0  0  0  0  0  0  0  0  0  0
  129.8850  122.4610   61.7600 C   0  0  0  0  0  0  0  0  0  0  0  0
  130.4270  121.8600   60.6320 C   0  0  0  0  0  0  0  0  0  0  0  0
  131.6770  121.2560   60.6910 C   0  0  0  0  0  0  0  0  0  0  0  0
  132.4020  121.2580   61.8770 C   0  0  0  0  0  0  0  0  0  0  0  0
  131.8780  121.8550   63.0160 C   0  0  0  0  0  0  0  0  0  0  0  0
  130.2270  125.5100   65.1140 N   0  0  0  0  0  0  0  0  0  0  0  0
  129.7110  126.3130   64.1400 C   0  0  0  0  0  0  0  0  0  0  0  0
  129.8140  126.1680   62.9210 O   0  0  0  0  0  0  0  0  0  0  0  0
  128.9930  127.3950   64.8570 C   0  0  0  0  0  0  0  0  0  0  0  0
  128.2830  128.4960   64.3770 C   0  0  0  0  0  0  0  0  0  0  0  0
  127.6910  129.3660   65.3000 C   0  0  0  0  0  0  0  0  0  0  0  0
  127.8150  129.1270   66.6760 C   0  0  0  0  0  0  0  0  0  0  0  0
  128.5310  128.0170   67.1370 C   0  0  0  0  0  0  0  0  0  0  0  0
  129.1150  127.1620   66.2000 C   0  0  0  0  0  0  0  0  0  0  0  0
  129.9120  125.9230   66.3780 C   0  0  0  0  0  0  0  0  0  0  0  0
  130.2140  125.3800   67.4420 O   0  0  0  0  0  0  0  0  0  0  0  0
  131.0310  126.2280   58.3230 C   0  0  2  0  0  0  0  0  0  0  0  0
  130.5500  127.5130   59.0570 C   0  0  0  0  0  0  0  0  0  0  0  0
  130.8520  128.7990   58.3090 C   0  0  0  0  0  0  0  0  0  0  0  0
  132.1100  129.4240   58.4550 C   0  0  0  0  0  0  0  0  0  0  0  0
  132.4210  130.5430   57.6930 C   0  0  0  0  0  0  0  0  0  0  0  0
  131.5110  131.0350   56.7670 C   0  0  0  0  0  0  0  0  0  0  0  0
  130.2850  130.4070   56.5850 C   0  0  0  0  0  0  0  0  0  0  0  0
  129.9540  129.2880   57.3370 C   0  0  0  0  0  0  0  0  0  0  0  0
  129.8810  125.3810   57.8940 N   0  0  0  0  0  0  0  0  0  0  0  0
  129.0890  124.7380   58.7960 C   0  0  0  0  0  0  0  0  0  0  0  0
  129.2010  124.7390   60.0230 O   0  0  0  0  0  0  0  0  0  0  0  0
  128.0610  124.0360   57.9870 C   0  0  0  0  0  0  0  0  0  0  0  0
  126.9960  123.2190   58.3710 C   0  0  0  0  0  0  0  0  0  0  0  0
  126.1710  122.6840   57.3760 C   0  0  0  0  0  0  0  0  0  0  0  0
  126.4140  122.9700   56.0270 C   0  0  0  0  0  0  0  0  0  0  0  0
  127.4860  123.7930   55.6620 C   0  0  0  0  0  0  0  0  0  0  0  0
  128.2990  124.3150   56.6700 C   0  0  0  0  0  0  0  0  0  0  0  0
  129.4850  125.2030   56.5990 C   0  0  0  0  0  0  0  0  0  0  0  0
  130.0010  125.6790   55.5870 O   0  0  0  0  0  0  0  0  0  0  0  0
  131.0450  125.7570   60.7260 H   0  0  0  0  0  0  0  0  0  0  0  0
  130.9450  124.8240   62.4050 H   0  0  0  0  0  0  0  0  0  0  0  0
  131.4010  123.8487   65.7035 H   0  0  0  0  0  0  0  0  0  0  0  0
  129.8943  122.4221   64.9961 H   0  0  0  0  0  0  0  0  0  0  0  0
  129.1416  123.6776   63.8810 H   0  0  0  0  0  0  0  0  0  0  0  0
  128.9019  122.9511   61.7035 H   0  0  0  0  0  0  0  0  0  0  0  0
  129.8642  121.8620   59.6869 H   0  0  0  0  0  0  0  0  0  0  0  0
  132.0948  120.7740   59.7949 H   0  0  0  0  0  0  0  0  0  0  0  0
  133.3944  120.7849   61.9134 H   0  0  0  0  0  0  0  0  0  0  0  0
  132.4631  121.8695   63.9474 H   0  0  0  0  0  0  0  0  0  0  0  0
  128.1904  128.6765   63.2959 H   0  0  0  0  0  0  0  0  0  0  0  0
  127.1264  130.2405   64.9445 H   0  0  0  0  0  0  0  0  0  0  0  0
  127.3475  129.8149   67.3959 H   0  0  0  0  0  0  0  0  0  0  0  0
  128.6318  127.8219   68.2148 H   0  0  0  0  0  0  0  0  0  0  0  0
  131.5381  126.5676   57.4078 H   0  0  0  0  0  0  0  0  0  0  0  0
  129.4616  127.4431   59.2000 H   0  0  0  0  0  0  0  0  0  0  0  0
  131.0992  127.5611   60.0089 H   0  0  0  0  0  0  0  0  0  0  0  0
  132.8430  129.0250   59.1716 H   0  0  0  0  0  0  0  0  0  0  0  0
  133.3927  131.0416   57.8238 H   0  0  0  0  0  0  0  0  0  0  0  0
  131.7620  131.9269   56.1741 H   0  0  0  0  0  0  0  0  0  0  0  0
  129.5740  130.7980   55.8423 H   0  0  0  0  0  0  0  0  0  0  0  0
  128.9907  128.7822   57.1748 H   0  0  0  0  0  0  0  0  0  0  0  0
  126.8097  123.0007   59.4329 H   0  0  0  0  0  0  0  0  0  0  0  0
  125.3273  122.0355   57.6547 H   0  0  0  0  0  0  0  0  0  0  0  0
  125.7598  122.5462   55.2508 H   0  0  0  0  0  0  0  0  0  0  0  0
  127.6834  124.0233   54.6047 H   0  0  0  0  0  0  0  0  0  0  0  0
  1  2  2  0
  2  3  1  0
  3  4  1  0
  4  5  2  0
  4  6  1  0
  6  7  1  0
  7  8  2  0
  7  9  1  0
  9 10  1  0
 10 11  1  0
 11 12  2  0
 12 13  1  0
 13 14  2  0
 14 15  1  0
 15 16  2  0
  9 17  1  0
 17 18  1  0
 18 19  2  0
 18 20  1  0
 20 21  2  0
 21 22  1  0
 22 23  2  0
 23 24  1  0
 24 25  2  0
 25 26  1  0
 26 27  2  0
  2 28  1  0
 28 29  1  0
 29 30  1  0
 30 31  2  0
 31 32  1  0
 32 33  2  0
 33 34  1  0
 34 35  2  0
 28 36  1  0
 36 37  1  0
 37 38  2  0
 37 39  1  0
 39 40  2  0
 40 41  1  0
 41 42  2  0
 42 43  1  0
 43 44  2  0
 44 45  1  0
 45 46  2  0
 16 11  1  0
 26 17  1  0
 35 30  1  0
 45 36  1  0
 25 20  1  0
 44 39  1  0
  3 47  1  0
  6 48  1  0
  9 49  1  1
 10 50  1  0
 10 51  1  0
 12 52  1  0
 13 53  1  0
 14 54  1  0
 15 55  1  0
 16 56  1  0
 21 57  1  0
 22 58  1  0
 23 59  1  0
 24 60  1  0
 28 61  1  6
 29 62  1  0
 29 63  1  0
 31 64  1  0
 32 65  1  0
 33 66  1  0
 34 67  1  0
 35 68  1  0
 40 69  1  0
 41 70  1  0
 42 71  1  0
 43 72  1  0
M  END
>  <Binding energies>  (1) 
[-10.49]

>  <Ligand effiencies>  (1) 
[-0.21854166666666666]

>  <Interactions>  (1) 
["V-A:GLU:543:CG:4907, V-B:GLU:543:CD:9879, V-A:GLU:543:CD:4908, V-B:GLU:543:CG:9878, V-B:MET:535:CE:9806, V-B:TYR:539:CD2:9845, V-B:PRO:540:CA:9854, V-B:TYR:539:CE2:9847, V-B:ALA:541:CB:9863, V-B:PRO:540:N:9855, V-A:LEU:475:CD2:4258, V-B:TYR:539:CE1:9846, V-B:PRO:540:CB:9856, V-A:ILE:369:CG2:3236, V-B:TYR:539:CZ:9848, V-A:ILE:369:CB:3235, V-A:ASP:366:CB:3211, V-B:TYR:539:C:9838, V-B:PRO:540:CD:9858, H-A:TYR:531:OH:4795, V-A:MET:535:CE:4835, H-B:TYR:539:OH:9849, H-A:GLY:454:N:4049, V-A:ASP:366:CA:3209, V-A:LEU:363:CD1:3188, V-A:TYR:531:CE2:4793, V-A:ASP:366:CG:3212, H-A:TYR:484:OH:4347, V-A:ILE:369:CD1:3238, V-A:ILE:369:CG1:3237"]

$$$$
RR19_Rahimova_2017-again1
     RDKit          3D

 71 76  0  0  0  0  0  0  0  0999 V2000
  132.1690  123.0370   59.5770 O   0  0  0  0  0  0  0  0  0  0  0  0
  131.1020  123.6090   59.8150 C   0  0  0  0  0  0  0  0  0  0  0  0
  130.7400  124.8330   59.3590 N   0  0  0  0  0  0  0  0  0  0  0  0
  131.3030  125.6900   58.4570 C   0  0  0  0  0  0  0  0  0  0  0  0
  132.7630  125.5920   57.6300 S   0  0  0  0  0  0  0  0  0  0  0  0
  130.3820  126.7020   58.2450 N   0  0  0  0  0  0  0  0  0  0  0  0
  129.3100  126.9830   58.9100 C   0  0  0  0  0  0  0  0  0  0  0  0
  128.8560  126.4850   59.9600 O   0  0  0  0  0  0  0  0  0  0  0  0
  128.4210  128.1200   58.3020 C   0  0  2  0  0  0  0  0  0  0  0  0
  127.4740  127.5680   57.1850 C   0  0  0  0  0  0  0  0  0  0  0  0
  128.1710  126.7220   56.1240 C   0  0  0  0  0  0  0  0  0  0  0  0
  128.0190  125.3330   56.1290 C   0  0  0  0  0  0  0  0  0  0  0  0
  128.6420  124.5610   55.1520 C   0  0  0  0  0  0  0  0  0  0  0  0
  129.4180  125.1800   54.1740 C   0  0  0  0  0  0  0  0  0  0  0  0
  129.5780  126.5650   54.1660 C   0  0  0  0  0  0  0  0  0  0  0  0
  128.9560  127.3360   55.1430 C   0  0  0  0  0  0  0  0  0  0  0  0
  129.1960  129.3450   57.9150 N   0  0  0  0  0  0  0  0  0  0  0  0
  130.3770  129.6640   58.5170 C   0  0  0  0  0  0  0  0  0  0  0  0
  130.9460  129.0480   59.4190 O   0  0  0  0  0  0  0  0  0  0  0  0
  130.8310  130.9140   57.8560 C   0  0  0  0  0  0  0  0  0  0  0  0
  131.9680  131.6970   58.0650 C   0  0  0  0  0  0  0  0  0  0  0  0
  132.1420  132.8440   57.2830 C   0  0  0  0  0  0  0  0  0  0  0  0
  131.1940  133.1890   56.3120 C   0  0  0  0  0  0  0  0  0  0  0  0
  130.0620  132.3900   56.1170 C   0  0  0  0  0  0  0  0  0  0  0  0
  129.9040  131.2520   56.9090 C   0  0  0  0  0  0  0  0  0  0  0  0
  128.8320  130.2280   56.9350 C   0  0  0  0  0  0  0  0  0  0  0  0
  127.8290  130.1870   56.2240 O   0  0  0  0  0  0  0  0  0  0  0  0
  130.0390  122.9130   60.7150 C   0  0  2  0  0  0  0  0  0  0  0  0
  130.2540  121.3800   60.8670 C   0  0  0  0  0  0  0  0  0  0  0  0
  131.6960  120.9830   61.1300 C   0  0  0  0  0  0  0  0  0  0  0  0
  132.4590  121.6830   62.0880 C   0  0  0  0  0  0  0  0  0  0  0  0
  133.7450  121.2570   62.3980 C   0  0  0  0  0  0  0  0  0  0  0  0
  134.2740  120.1260   61.7900 C   0  0  0  0  0  0  0  0  0  0  0  0
  133.5190  119.4050   60.8730 C   0  0  0  0  0  0  0  0  0  0  0  0
  132.2330  119.8140   60.5490 C   0  0  0  0  0  0  0  0  0  0  0  0
  128.6260  123.2490   60.3600 N   0  0  0  0  0  0  0  0  0  0  0  0
  128.2390  123.4290   59.0660 C   0  0  0  0  0  0  0  0  0  0  0  0
  128.9550  123.4270   58.0640 O   0  0  0  0  0  0  0  0  0  0  0  0
  126.7680  123.6190   59.1170 C   0  0  0  0  0  0  0  0  0  0  0  0
  125.8380  123.8310   58.0980 C   0  0  0  0  0  0  0  0  0  0  0  0
  124.4870  123.9570   58.4400 C   0  0  0  0  0  0  0  0  0  0  0  0
  124.0870  123.8730   59.7810 C   0  0  0  0  0  0  0  0  0  0  0  0
  125.0350  123.6630   60.7880 C   0  0  0  0  0  0  0  0  0  0  0  0
  126.3770  123.5370   60.4250 C   0  0  0  0  0  0  0  0  0  0  0  0
  127.5870  123.2840   61.2460 C   0  0  0  0  0  0  0  0  0  0  0  0
  127.6390  123.1280   62.4670 O   0  0  0  0  0  0  0  0  0  0  0  0
  129.8350  125.1370   59.6840 H   0  0  0  0  0  0  0  0  0  0  0  0
  127.7616  128.4809   59.1051 H   0  0  0  0  0  0  0  0  0  0  0  0
  126.7016  126.9490   57.6648 H   0  0  0  0  0  0  0  0  0  0  0  0
  127.0615  128.4446   56.6640 H   0  0  0  0  0  0  0  0  0  0  0  0
  127.4072  124.8494   56.9048 H   0  0  0  0  0  0  0  0  0  0  0  0
  128.5222  123.4675   55.1522 H   0  0  0  0  0  0  0  0  0  0  0  0
  129.9089  124.5703   53.4012 H   0  0  0  0  0  0  0  0  0  0  0  0
  130.1930  127.0458   53.3910 H   0  0  0  0  0  0  0  0  0  0  0  0
  129.0818  128.4288   55.1438 H   0  0  0  0  0  0  0  0  0  0  0  0
  132.7103  131.4183   58.8274 H   0  0  0  0  0  0  0  0  0  0  0  0
  133.0284  133.4782   57.4318 H   0  0  0  0  0  0  0  0  0  0  0  0
  131.3397  134.0915   55.7002 H   0  0  0  0  0  0  0  0  0  0  0  0
  129.3128  132.6532   55.3558 H   0  0  0  0  0  0  0  0  0  0  0  0
  130.2112  123.3483   61.7104 H   0  0  0  0  0  0  0  0  0  0  0  0
  129.6387  121.0258   61.7072 H   0  0  0  0  0  0  0  0  0  0  0  0
  129.9665  120.9212   59.9095 H   0  0  0  0  0  0  0  0  0  0  0  0
  132.0361  122.5659   62.5896 H   0  0  0  0  0  0  0  0  0  0  0  0
  134.3466  121.8182   63.1282 H   0  0  0  0  0  0  0  0  0  0  0  0
  135.2953  119.7995   62.0355 H   0  0  0  0  0  0  0  0  0  0  0  0
  133.9426  118.5059   60.4017 H   0  0  0  0  0  0  0  0  0  0  0  0
  131.6319  119.2269   59.8391 H   0  0  0  0  0  0  0  0  0  0  0  0
  126.1603  123.8976   57.0484 H   0  0  0  0  0  0  0  0  0  0  0  0
  123.7359  124.1226   57.6536 H   0  0  0  0  0  0  0  0  0  0  0  0
  123.0232  123.9726   60.0425 H   0  0  0  0  0  0  0  0  0  0  0  0
  124.7296  123.5986   61.8428 H   0  0  0  0  0  0  0  0  0  0  0  0
  1  2  2  0
  2  3  1  0
  3  4  1  0
  4  5  2  0
  4  6  1  0
  6  7  2  0
  7  8  1  0
  7  9  1  0
  9 10  1  0
 10 11  1  0
 11 12  2  0
 12 13  1  0
 13 14  2  0
 14 15  1  0
 15 16  2  0
  9 17  1  0
 17 18  1  0
 18 19  2  0
 18 20  1  0
 20 21  2  0
 21 22  1  0
 22 23  2  0
 23 24  1  0
 24 25  2  0
 25 26  1  0
 26 27  2  0
  2 28  1  0
 28 29  1  0
 29 30  1  0
 30 31  2  0
 31 32  1  0
 32 33  2  0
 33 34  1  0
 34 35  2  0
 28 36  1  0
 36 37  1  0
 37 38  2  0
 37 39  1  0
 39 40  2  0
 40 41  1  0
 41 42  2  0
 42 43  1  0
 43 44  2  0
 44 45  1  0
 45 46  2  0
 16 11  1  0
 26 17  1  0
 35 30  1  0
 45 36  1  0
 25 20  1  0
 44 39  1  0
  3 47  1  0
  9 48  1  1
 10 49  1  0
 10 50  1  0
 12 51  1  0
 13 52  1  0
 14 53  1  0
 15 54  1  0
 16 55  1  0
 21 56  1  0
 22 57  1  0
 23 58  1  0
 24 59  1  0
 28 60  1  1
 29 61  1  0
 29 62  1  0
 31 63  1  0
 32 64  1  0
 33 65  1  0
 34 66  1  0
 35 67  1  0
 40 68  1  0
 41 69  1  0
 42 70  1  0
 43 71  1  0
M  CHG  1   8  -1
M  END
>  <Binding energies>  (1) 
[-9.97]

>  <Ligand effiencies>  (1) 
[-0.2121276595744681]

>  <Interactions>  (1) 
["V-A:TRP:381:CZ2:3369, V-B:LEU:363:CA:8156, V-B:LEU:363:CD1:8160, V-B:ASN:362:C:8143, V-A:TRP:381:CH2:3371, V-B:TYR:539:CD2:9845, V-B:PRO:540:CA:9854, V-B:TYR:539:CE2:9847, V-B:ALA:541:CB:9863, V-A:LEU:475:CD2:4258, V-B:TYR:539:CE1:9846, V-B:PRO:540:CB:9856, H-B:ALA:541:N:9862, V-A:ILE:369:CG2:3236, V-B:TYR:539:CZ:9848, V-A:ASP:366:CB:3211, V-A:TYR:539:C:4867, H-A:TYR:531:OH:4795, V-A:PRO:540:N:4884, V-A:MET:535:CE:4835, V-A:TYR:531:CE1:4792, H-B:TYR:539:OH:9849, V-A:TYR:531:CZ:4794, V-A:ASP:366:CA:3209, V-A:PRO:540:CB:4885, V-A:LEU:363:CD1:3188, V-A:ASP:366:C:3207, V-A:PRO:540:CA:4883, V-A:GLY:454:CA:4048, V-A:ILE:369:CD1:3238, V-A:PRO:540:CD:4887, V-A:SER:385:CA:3406, V-A:ILE:538:CB:4862, V-A:ILE:538:CA:4860, V-A:SER:385:C:3404, V-A:ILE:538:C:4858"]

$$$$
RR1_Rahimova_2017
     RDKit          3D

 68 71  0  0  0  0  0  0  0  0999 V2000
  131.5150  132.8030   56.6620 C   0  0  0  0  0  0  0  0  0  0  0  0
  130.1710  133.2330   56.4820 O   0  0  0  0  0  0  0  0  0  0  0  0
  129.1850  132.7250   57.3050 C   0  0  0  0  0  0  0  0  0  0  0  0
  128.0350  132.0610   56.8470 C   0  0  0  0  0  0  0  0  0  0  0  0
  127.0900  131.5890   57.7530 C   0  0  0  0  0  0  0  0  0  0  0  0
  127.2760  131.7650   59.1250 C   0  0  0  0  0  0  0  0  0  0  0  0
  126.2430  131.2930   59.9570 N   0  0  0  0  0  0  0  0  0  0  0  0
  124.9970  131.7830   60.1340 C   0  0  0  0  0  0  0  0  0  0  0  0
  124.5700  132.8160   59.6180 O   0  0  0  0  0  0  0  0  0  0  0  0
  124.1060  130.9440   61.0640 C   0  0  0  0  0  0  0  0  0  0  0  0
  124.1870  131.3850   62.8350 S   0  0  0  0  0  0  0  0  0  0  0  0
  125.8520  130.8880   63.1310 C   0  0  0  0  0  0  0  0  0  0  0  0
  126.8840  131.3450   62.4690 N   0  0  0  0  0  0  0  0  0  0  0  0
  127.9190  130.7200   63.0220 C   0  0  0  0  0  0  0  0  0  0  0  0
  129.3330  130.9560   62.5750 C   0  0  0  0  0  0  0  0  0  0  0  0
  130.0610  129.9700   61.8890 C   0  0  0  0  0  0  0  0  0  0  0  0
  131.3750  130.2180   61.4890 C   0  0  0  0  0  0  0  0  0  0  0  0
  131.9380  131.4570   61.7860 C   0  0  0  0  0  0  0  0  0  0  0  0
  131.2650  132.4320   62.4470 N   0  0  0  0  0  0  0  0  0  0  0  0
  129.9880  132.1730   62.8260 C   0  0  0  0  0  0  0  0  0  0  0  0
  127.6180  129.8810   63.9950 N   0  0  0  0  0  0  0  0  0  0  0  0
  126.2880  129.9860   64.0660 N   0  0  0  0  0  0  0  0  0  0  0  0
  125.5330  129.2200   65.0580 C   0  0  0  0  0  0  0  0  0  0  0  0
  126.0350  129.3590   66.5060 C   0  0  0  0  0  0  0  0  0  0  0  0
  125.2450  129.5730   67.4320 O   0  0  0  0  0  0  0  0  0  0  0  0
  127.3680  129.2340   66.6590 N   0  0  0  0  0  0  0  0  0  0  0  0
  127.8770  129.2010   67.9500 N   0  0  0  0  0  0  0  0  0  0  0  0
  128.7370  128.2080   68.2640 C   0  0  0  0  0  0  0  0  0  0  0  0
  129.1770  127.3900   67.4480 O   0  0  0  0  0  0  0  0  0  0  0  0
  129.1770  128.1550   69.7120 C   0  0  0  0  0  0  0  0  0  0  0  0
  130.0390  129.1340   70.2170 C   0  0  0  0  0  0  0  0  0  0  0  0
  130.4660  129.0980   71.5400 C   0  0  0  0  0  0  0  0  0  0  0  0
  130.0470  128.0710   72.4020 C   0  0  0  0  0  0  0  0  0  0  0  0
  130.4440  127.9690   73.7230 O   0  0  0  0  0  0  0  0  0  0  0  0
  129.5080  128.2400   74.7600 C   0  0  0  0  0  0  0  0  0  0  0  0
  129.1890  127.0760   71.9140 C   0  0  0  0  0  0  0  0  0  0  0  0
  128.8210  126.0760   72.7980 O   0  0  0  0  0  0  0  0  0  0  0  0
  128.7180  124.7330   72.3380 C   0  0  0  0  0  0  0  0  0  0  0  0
  128.7600  127.1290   70.5760 C   0  0  0  0  0  0  0  0  0  0  0  0
  128.4240  132.4270   59.5870 C   0  0  0  0  0  0  0  0  0  0  0  0
  129.3680  132.8970   58.6780 C   0  0  0  0  0  0  0  0  0  0  0  0
  131.7364  132.7322   57.7372 H   0  0  0  0  0  0  0  0  0  0  0  0
  131.6502  131.8167   56.1940 H   0  0  0  0  0  0  0  0  0  0  0  0
  132.1976  133.5276   56.1940 H   0  0  0  0  0  0  0  0  0  0  0  0
  127.8808  131.9135   55.7679 H   0  0  0  0  0  0  0  0  0  0  0  0
  126.1904  131.0737   57.3853 H   0  0  0  0  0  0  0  0  0  0  0  0
  126.4940  130.4930   60.5200 H   0  0  0  0  0  0  0  0  0  0  0  0
  123.0638  131.0615   60.7324 H   0  0  0  0  0  0  0  0  0  0  0  0
  124.4794  129.9119   60.9914 H   0  0  0  0  0  0  0  0  0  0  0  0
  129.5941  128.9992   61.6663 H   0  0  0  0  0  0  0  0  0  0  0  0
  131.9531  129.4521   60.9512 H   0  0  0  0  0  0  0  0  0  0  0  0
  132.9734  131.6534   61.4708 H   0  0  0  0  0  0  0  0  0  0  0  0
  129.4349  132.9600   63.3596 H   0  0  0  0  0  0  0  0  0  0  0  0
  124.4866  129.5576   65.0257 H   0  0  0  0  0  0  0  0  0  0  0  0
  125.6585  128.1607   64.7893 H   0  0  0  0  0  0  0  0  0  0  0  0
  127.9970  128.8580   65.9640 H   0  0  0  0  0  0  0  0  0  0  0  0
  127.2050  129.5440   68.6210 H   0  0  0  0  0  0  0  0  0  0  0  0
  130.3842  129.9443   69.5580 H   0  0  0  0  0  0  0  0  0  0  0  0
  131.1394  129.8825   71.9157 H   0  0  0  0  0  0  0  0  0  0  0  0
  129.9928  128.0996   75.7374 H   0  0  0  0  0  0  0  0  0  0  0  0
  129.1536  129.2776   74.6721 H   0  0  0  0  0  0  0  0  0  0  0  0
  128.6541  127.5522   74.6721 H   0  0  0  0  0  0  0  0  0  0  0  0
  128.6658  124.0528   73.2009 H   0  0  0  0  0  0  0  0  0  0  0  0
  127.8088  124.6228   71.7288 H   0  0  0  0  0  0  0  0  0  0  0  0
  129.5998  124.4854   71.7288 H   0  0  0  0  0  0  0  0  0  0  0  0
  128.0826  126.3494   70.1973 H   0  0  0  0  0  0  0  0  0  0  0  0
  128.5778  132.5744   60.6662 H   0  0  0  0  0  0  0  0  0  0  0  0
  130.2687  133.4100   59.0462 H   0  0  0  0  0  0  0  0  0  0  0  0
  1  2  1  0
  2  3  1  0
  3  4  2  0
  4  5  1  0
  5  6  2  0
  6  7  1  0
  7  8  1  0
  8  9  2  0
  8 10  1  0
 10 11  1  0
 11 12  1  0
 12 13  2  0
 13 14  1  0
 14 15  1  0
 15 16  2  0
 16 17  1  0
 17 18  2  0
 18 19  1  0
 19 20  2  0
 14 21  2  0
 21 22  1  0
 22 23  1  0
 23 24  1  0
 24 25  2  0
 24 26  1  0
 26 27  1  0
 27 28  1  0
 28 29  2  0
 28 30  1  0
 30 31  2  0
 31 32  1  0
 32 33  2  0
 33 34  1  0
 34 35  1  0
 33 36  1  0
 36 37  1  0
 37 38  1  0
 36 39  2  0
  6 40  1  0
 40 41  2  0
 41  3  1  0
 22 12  1  0
 39 30  1  0
 20 15  1  0
  1 42  1  0
  1 43  1  0
  1 44  1  0
  4 45  1  0
  5 46  1  0
  7 47  1  0
 10 48  1  0
 10 49  1  0
 16 50  1  0
 17 51  1  0
 18 52  1  0
 20 53  1  0
 23 54  1  0
 23 55  1  0
 26 56  1  0
 27 57  1  0
 31 58  1  0
 32 59  1  0
 35 60  1  0
 35 61  1  0
 35 62  1  0
 38 63  1  0
 38 64  1  0
 38 65  1  0
 39 66  1  0
 40 67  1  0
 41 68  1  0
M  END
>  <Binding energies>  (1) 
[-8.37]

>  <Ligand effiencies>  (1) 
[-0.19022727272727272]

>  <Interactions>  (1) 
["V-A:LYS:547:CE:4950, V-A:GLU:543:CB:4906, V-A:GLU:543:CG:4907, V-A:HIS:456:CD2:4067, V-B:GLU:543:CD:9879, V-A:GLU:543:CD:4908, V-B:HIS:456:CE1:9041, H-A:LYS:547:NZ:4951, H-B:LYS:547:NZ:9922, V-B:ASP:366:CG:8184, V-A:TYR:539:CD2:4874, V-A:TYR:539:C:4867, V-A:TYR:539:CE2:4876, V-A:PRO:540:N:4884, V-A:MET:535:CE:4835, V-B:ASP:366:CB:8183, V-A:LEU:363:CD1:3188, V-A:PRO:540:CA:4883, V-A:ALA:541:CB:4892, H-A:ALA:541:N:4891, H-B:TYR:484:OH:9319, V-A:GLU:543:C:4902, V-A:PRO:540:CD:4887, V-A:TYR:539:CZ:4877, H-A:TYR:539:N:4870, V-A:GLU:543:CA:4904, H-B:GLY:454:N:9021, V-B:ARG:545:CZ:9897, H-B:GLU:543:OE1:9880, V-A:ILE:538:CB:4862, V-A:ALA:541:CA:4890, V-A:TYR:539:CE1:4875, H-B:HIS:456:NE2:9042, H-B:HIS:456:ND1:9038"]

$$$$
RR20_Rahimova_2017
     RDKit          3D

 68 73  0  0  0  0  0  0  0  0999 V2000
  126.8750  132.9180   73.4770 C   0  0  0  0  0  0  0  0  0  0  0  0
  127.6340  131.6100   73.3520 C   0  0  0  0  0  0  0  0  0  0  0  0
  127.6640  130.7200   74.4260 C   0  0  0  0  0  0  0  0  0  0  0  0
  128.3520  129.5150   74.3110 C   0  0  0  0  0  0  0  0  0  0  0  0
  129.0260  129.1960   73.1270 C   0  0  0  0  0  0  0  0  0  0  0  0
  129.7500  127.8720   73.0150 C   0  0  0  0  0  0  0  0  0  0  0  0
  130.6630  127.6520   73.8140 O   0  0  0  0  0  0  0  0  0  0  0  0
  129.3650  126.9780   72.0580 N   0  0  0  0  0  0  0  0  0  0  0  0
  128.1620  126.1450   72.2200 C   0  0  0  0  0  0  0  0  0  0  0  0
  127.9760  125.4030   70.9070 C   0  0  0  0  0  0  0  0  0  0  0  0
  128.8710  126.1540   69.9690 C   0  0  0  0  0  0  0  0  0  0  0  0
  129.0480  125.9820   68.5960 C   0  0  0  0  0  0  0  0  0  0  0  0
  130.0560  126.6740   67.9140 C   0  0  0  0  0  0  0  0  0  0  0  0
  130.2410  126.4960   66.4330 C   0  0  0  0  0  0  0  0  0  0  0  0
  129.2000  126.6970   65.6400 N   0  0  0  0  0  0  0  0  0  0  0  0
  129.4810  126.5330   64.3720 C   0  0  0  0  0  0  0  0  0  0  0  0
  128.6310  126.6700   63.2850 N   0  0  0  0  0  0  0  0  0  0  0  0
  128.8760  126.2910   62.0070 C   0  0  0  0  0  0  0  0  0  0  0  0
  129.9140  125.7380   61.6390 O   0  0  0  0  0  0  0  0  0  0  0  0
  127.7740  126.5450   60.9500 C   0  0  0  0  0  0  0  0  0  0  0  0
  127.7000  125.4830   59.9290 N   0  0  0  0  0  0  0  0  0  0  0  0
  127.9490  124.1470   60.4890 C   0  0  0  0  0  0  0  0  0  0  0  0
  128.1250  123.1160   59.3510 C   0  0  0  0  0  0  0  0  0  0  0  0
  127.0620  123.2450   58.2590 C   0  0  0  0  0  0  0  0  0  0  0  0
  126.8930  122.2450   57.2960 C   0  0  0  0  0  0  0  0  0  0  0  0
  125.9520  122.3800   56.2780 C   0  0  0  0  0  0  0  0  0  0  0  0
  125.1620  123.5230   56.2140 C   0  0  0  0  0  0  0  0  0  0  0  0
  125.3130  124.5230   57.1730 C   0  0  0  0  0  0  0  0  0  0  0  0
  126.2560  124.4010   58.1990 C   0  0  0  0  0  0  0  0  0  0  0  0
  126.3820  125.4710   59.2840 C   0  0  0  0  0  0  0  0  0  0  0  0
  131.1120  126.0900   64.0550 S   0  0  0  0  0  0  0  0  0  0  0  0
  131.4320  126.1220   65.7730 C   0  0  0  0  0  0  0  0  0  0  0  0
  132.8000  125.7570   66.3050 C   0  0  0  0  0  0  0  0  0  0  0  0
  130.9170  127.5010   68.6520 C   0  0  0  0  0  0  0  0  0  0  0  0
  130.7540  127.6610   70.0280 C   0  0  0  0  0  0  0  0  0  0  0  0
  129.6890  127.0290   70.6830 C   0  0  0  0  0  0  0  0  0  0  0  0
  128.9670  130.0810   72.0430 C   0  0  0  0  0  0  0  0  0  0  0  0
  128.2790  131.2870   72.1570 C   0  0  0  0  0  0  0  0  0  0  0  0
  126.7345  133.1602   74.5408 H   0  0  0  0  0  0  0  0  0  0  0  0
  127.4470  133.7218   72.9904 H   0  0  0  0  0  0  0  0  0  0  0  0
  125.8933  132.8202   72.9904 H   0  0  0  0  0  0  0  0  0  0  0  0
  127.1446  130.9701   75.3628 H   0  0  0  0  0  0  0  0  0  0  0  0
  128.3658  128.8101   75.1553 H   0  0  0  0  0  0  0  0  0  0  0  0
  128.3019  125.4305   73.0446 H   0  0  0  0  0  0  0  0  0  0  0  0
  127.2810  126.7581   72.4606 H   0  0  0  0  0  0  0  0  0  0  0  0
  128.2900  124.3527   70.9980 H   0  0  0  0  0  0  0  0  0  0  0  0
  126.9286  125.3668   70.5728 H   0  0  0  0  0  0  0  0  0  0  0  0
  128.3890  125.2959   68.0437 H   0  0  0  0  0  0  0  0  0  0  0  0
  127.7390  127.1060   63.4720 H   0  0  0  0  0  0  0  0  0  0  0  0
  126.8031  126.6061   61.4634 H   0  0  0  0  0  0  0  0  0  0  0  0
  128.0241  127.4828   60.4323 H   0  0  0  0  0  0  0  0  0  0  0  0
  128.8634  124.1736   61.0999 H   0  0  0  0  0  0  0  0  0  0  0  0
  127.0907  123.8526   61.1107 H   0  0  0  0  0  0  0  0  0  0  0  0
  129.1154  123.2624   58.8953 H   0  0  0  0  0  0  0  0  0  0  0  0
  128.0215  122.1148   59.7947 H   0  0  0  0  0  0  0  0  0  0  0  0
  127.5130  121.3376   57.3433 H   0  0  0  0  0  0  0  0  0  0  0  0
  125.8340  121.5851   55.5269 H   0  0  0  0  0  0  0  0  0  0  0  0
  124.4207  123.6373   55.4094 H   0  0  0  0  0  0  0  0  0  0  0  0
  124.6810  125.4219   57.1223 H   0  0  0  0  0  0  0  0  0  0  0  0
  126.2069  126.4560   58.8266 H   0  0  0  0  0  0  0  0  0  0  0  0
  125.6383  125.2401   60.0609 H   0  0  0  0  0  0  0  0  0  0  0  0
  132.7792  125.7626   67.4048 H   0  0  0  0  0  0  0  0  0  0  0  0
  133.0763  124.7537   65.9486 H   0  0  0  0  0  0  0  0  0  0  0  0
  133.5394  126.4893   65.9486 H   0  0  0  0  0  0  0  0  0  0  0  0
  131.7324  128.0308   68.1377 H   0  0  0  0  0  0  0  0  0  0  0  0
  131.4605  128.2824   70.5979 H   0  0  0  0  0  0  0  0  0  0  0  0
  129.4661  129.8226   71.0974 H   0  0  0  0  0  0  0  0  0  0  0  0
  128.2441  131.9837   71.3065 H   0  0  0  0  0  0  0  0  0  0  0  0
  1  2  1  0
  2  3  2  0
  3  4  1  0
  4  5  2  0
  5  6  1  0
  6  7  2  0
  6  8  1  0
  8  9  1  0
  9 10  1  0
 10 11  1  0
 11 12  2  0
 12 13  1  0
 13 14  1  0
 14 15  1  0
 15 16  2  0
 16 17  1  0
 17 18  1  0
 18 19  2  0
 18 20  1  0
 20 21  1  0
 21 22  1  0
 22 23  1  0
 23 24  1  0
 24 25  2  0
 25 26  1  0
 26 27  2  0
 27 28  1  0
 28 29  2  0
 29 30  1  0
 16 31  1  0
 31 32  1  0
 32 33  1  0
 13 34  2  0
 34 35  1  0
 35 36  2  0
  5 37  1  0
 37 38  2  0
 38  2  1  0
 36  8  1  0
 36 11  1  0
 32 14  2  0
 30 21  1  0
 29 24  1  0
  1 39  1  0
  1 40  1  0
  1 41  1  0
  3 42  1  0
  4 43  1  0
  9 44  1  0
  9 45  1  0
 10 46  1  0
 10 47  1  0
 12 48  1  0
 17 49  1  0
 20 50  1  0
 20 51  1  0
 22 52  1  0
 22 53  1  0
 23 54  1  0
 23 55  1  0
 25 56  1  0
 26 57  1  0
 27 58  1  0
 28 59  1  0
 30 60  1  0
 30 61  1  0
 33 62  1  0
 33 63  1  0
 33 64  1  0
 34 65  1  0
 35 66  1  0
 37 67  1  0
 38 68  1  0
M  END
>  <Binding energies>  (1) 
[-10.12]

>  <Ligand effiencies>  (1) 
[-0.2594871794871795]

>  <Interactions>  (1) 
["V-A:HIS:456:CE1:4069, V-A:GLU:543:CB:4906, V-B:GLU:543:CD:9879, V-A:GLU:543:CD:4908, V-B:HIS:456:CE1:9041, H-A:LYS:547:NZ:4951, V-B:HIS:456:CD2:9039, V-B:HIS:456:CG:9037, V-B:GLU:543:C:9873, V-B:GLU:543:CB:9877, V-B:MET:535:CE:9806, V-B:LEU:363:CD1:8160, V-B:PRO:540:CA:9854, V-B:TYR:539:CE2:9847, V-B:PRO:540:N:9855, V-B:TYR:539:CE1:9846, V-B:PRO:540:CB:9856, V-B:TYR:539:C:9838, V-B:PRO:540:CD:9858, V-A:ARG:545:CZ:4926, V-B:TYR:539:CD1:9844, V-B:TYR:539:CA:9840, V-B:TYR:539:CG:9843, V-B:TYR:531:CZ:9765, V-B:TYR:484:CE1:9316, V-A:ARG:545:CD:4923, V-A:ARG:545:CG:4922, H-B:GLU:543:OE1:9880, H-B:GLU:543:OE2:9881, V-B:TYR:484:CD1:9314, V-B:GLY:544:C:9883, V-B:ASP:473:CG:9211, V-B:HIS:456:CB:9036, V-B:TYR:484:CG:9313, V-B:ASP:473:CB:9210, V-B:TYR:484:CB:9312, V-B:TYR:484:CD2:9315"]

$$$$
RR20_Rahimova_2017-again1
     RDKit          3D

 68 73  0  0  0  0  0  0  0  0999 V2000
  126.8960  133.0660   73.5150 C   0  0  0  0  0  0  0  0  0  0  0  0
  127.6340  131.7430   73.4110 C   0  0  0  0  0  0  0  0  0  0  0  0
  127.6530  130.8700   74.5000 C   0  0  0  0  0  0  0  0  0  0  0  0
  128.3230  129.6530   74.4030 C   0  0  0  0  0  0  0  0  0  0  0  0
  128.9880  129.3040   73.2220 C   0  0  0  0  0  0  0  0  0  0  0  0
  129.6960  127.9700   73.1300 C   0  0  0  0  0  0  0  0  0  0  0  0
  130.6170  127.7550   73.9200 O   0  0  0  0  0  0  0  0  0  0  0  0
  129.2760  127.0560   72.2070 N   0  0  0  0  0  0  0  0  0  0  0  0
  128.1870  126.1110   72.5030 C   0  0  0  0  0  0  0  0  0  0  0  0
  127.9010  125.3670   71.2090 C   0  0  0  0  0  0  0  0  0  0  0  0
  128.5960  126.2100   70.1810 C   0  0  0  0  0  0  0  0  0  0  0  0
  128.6140  126.0650   68.7930 C   0  0  0  0  0  0  0  0  0  0  0  0
  129.4620  126.8570   68.0030 C   0  0  0  0  0  0  0  0  0  0  0  0
  129.4860  126.6970   66.5100 C   0  0  0  0  0  0  0  0  0  0  0  0
  129.3460  127.7810   65.7630 N   0  0  0  0  0  0  0  0  0  0  0  0
  129.3700  127.5480   64.4730 C   0  0  0  0  0  0  0  0  0  0  0  0
  129.2110  128.4280   63.4350 N   0  0  0  0  0  0  0  0  0  0  0  0
  129.8850  128.4030   62.3340 C   0  0  0  0  0  0  0  0  0  0  0  0
  130.7370  127.6020   61.9040 O   0  0  0  0  0  0  0  0  0  0  0  0
  129.5660  129.5720   61.3790 C   0  0  0  0  0  0  0  0  0  0  0  0
  130.4000  130.8250   61.7760 N   0  0  2  0  0  0  0  0  0  0  0  0
  129.5780  132.1290   61.7090 C   0  0  0  0  0  0  0  0  0  0  0  0
  129.1770  132.4230   60.2510 C   0  0  0  0  0  0  0  0  0  0  0  0
  130.3460  132.3280   59.2760 C   0  0  0  0  0  0  0  0  0  0  0  0
  130.2600  132.9540   58.0260 C   0  0  0  0  0  0  0  0  0  0  0  0
  131.2870  132.8490   57.0920 C   0  0  0  0  0  0  0  0  0  0  0  0
  132.4240  132.1120   57.4000 C   0  0  0  0  0  0  0  0  0  0  0  0
  132.5300  131.4950   58.6440 C   0  0  0  0  0  0  0  0  0  0  0  0
  131.5120  131.5950   59.5990 C   0  0  0  0  0  0  0  0  0  0  0  0
  131.7160  130.9370   60.9690 C   0  0  0  0  0  0  0  0  0  0  0  0
  129.5540  125.8780   64.0870 S   0  0  0  0  0  0  0  0  0  0  0  0
  129.6460  125.4970   65.7890 C   0  0  0  0  0  0  0  0  0  0  0  0
  129.8830  124.0730   66.2460 C   0  0  0  0  0  0  0  0  0  0  0  0
  130.3210  127.7590   68.6440 C   0  0  0  0  0  0  0  0  0  0  0  0
  130.3180  127.8930   70.0330 C   0  0  0  0  0  0  0  0  0  0  0  0
  129.4120  127.1540   70.8050 C   0  0  0  0  0  0  0  0  0  0  0  0
  128.9380  130.1720   72.1240 C   0  0  0  0  0  0  0  0  0  0  0  0
  128.2690  131.3890   72.2200 C   0  0  0  0  0  0  0  0  0  0  0  0
  126.7524  133.3234   74.5748 H   0  0  0  0  0  0  0  0  0  0  0  0
  127.4849  133.8540   73.0228 H   0  0  0  0  0  0  0  0  0  0  0  0
  125.9161  132.9789   73.0228 H   0  0  0  0  0  0  0  0  0  0  0  0
  127.1394  131.1430   75.4336 H   0  0  0  0  0  0  0  0  0  0  0  0
  128.3296  128.9624   75.2591 H   0  0  0  0  0  0  0  0  0  0  0  0
  128.4985  125.4050   73.2869 H   0  0  0  0  0  0  0  0  0  0  0  0
  127.2916  126.6358   72.8675 H   0  0  0  0  0  0  0  0  0  0  0  0
  128.3191  124.3499   71.2359 H   0  0  0  0  0  0  0  0  0  0  0  0
  126.8271  125.2349   71.0105 H   0  0  0  0  0  0  0  0  0  0  0  0
  127.9578  125.3235   68.3138 H   0  0  0  0  0  0  0  0  0  0  0  0
  129.8159  129.2794   60.3485 H   0  0  0  0  0  0  0  0  0  0  0  0
  128.4951  129.8136   61.4483 H   0  0  0  0  0  0  0  0  0  0  0  0
  130.6510  130.6950   62.7480 H   0  0  0  0  0  0  0  0  0  0  0  0
  128.6709  132.0200   62.3216 H   0  0  0  0  0  0  0  0  0  0  0  0
  130.1877  132.9609   62.0912 H   0  0  0  0  0  0  0  0  0  0  0  0
  128.4081  131.6976   59.9468 H   0  0  0  0  0  0  0  0  0  0  0  0
  128.8054  133.4577   60.2163 H   0  0  0  0  0  0  0  0  0  0  0  0
  129.3631  133.5403   57.7773 H   0  0  0  0  0  0  0  0  0  0  0  0
  131.1988  133.3469   56.1151 H   0  0  0  0  0  0  0  0  0  0  0  0
  133.2365  132.0164   56.6647 H   0  0  0  0  0  0  0  0  0  0  0  0
  133.4346  130.9158   58.8813 H   0  0  0  0  0  0  0  0  0  0  0  0
  132.1238  129.9267   60.8176 H   0  0  0  0  0  0  0  0  0  0  0  0
  132.4071  131.5708   61.5440 H   0  0  0  0  0  0  0  0  0  0  0  0
  129.8890  124.0369   67.3454 H   0  0  0  0  0  0  0  0  0  0  0  0
  129.0801  123.4263   65.8623 H   0  0  0  0  0  0  0  0  0  0  0  0
  130.8520  123.7212   65.8623 H   0  0  0  0  0  0  0  0  0  0  0  0
  131.0090  128.3715   68.0427 H   0  0  0  0  0  0  0  0  0  0  0  0
  131.0264  128.5783   70.5214 H   0  0  0  0  0  0  0  0  0  0  0  0
  129.4298  129.8907   71.1811 H   0  0  0  0  0  0  0  0  0  0  0  0
  128.2410  132.0712   71.3575 H   0  0  0  0  0  0  0  0  0  0  0  0
  1  2  1  0
  2  3  2  0
  3  4  1  0
  4  5  2  0
  5  6  1  0
  6  7  2  0
  6  8  1  0
  8  9  1  0
  9 10  1  0
 10 11  1  0
 11 12  2  0
 12 13  1  0
 13 14  1  0
 14 15  1  0
 15 16  2  0
 16 17  1  0
 17 18  2  0
 18 19  1  0
 18 20  1  0
 20 21  1  0
 21 22  1  0
 22 23  1  0
 23 24  1  0
 24 25  2  0
 25 26  1  0
 26 27  2  0
 27 28  1  0
 28 29  2  0
 29 30  1  0
 16 31  1  0
 31 32  1  0
 32 33  1  0
 13 34  2  0
 34 35  1  0
 35 36  2  0
  5 37  1  0
 37 38  2  0
 38  2  1  0
 36  8  1  0
 36 11  1  0
 32 14  2  0
 30 21  1  0
 29 24  1  0
  1 39  1  0
  1 40  1  0
  1 41  1  0
  3 42  1  0
  4 43  1  0
  9 44  1  0
  9 45  1  0
 10 46  1  0
 10 47  1  0
 12 48  1  0
 20 49  1  0
 20 50  1  0
 21 51  1  1
 22 52  1  0
 22 53  1  0
 23 54  1  0
 23 55  1  0
 25 56  1  0
 26 57  1  0
 27 58  1  0
 28 59  1  0
 30 60  1  0
 30 61  1  0
 33 62  1  0
 33 63  1  0
 33 64  1  0
 34 65  1  0
 35 66  1  0
 37 67  1  0
 38 68  1  0
M  CHG  2  19  -1  21   1
M  END
>  <Binding energies>  (1) 
[-9.69]

>  <Ligand effiencies>  (1) 
[-0.24846153846153846]

>  <Interactions>  (1) 
["V-A:HIS:456:CE1:4069, V-A:GLU:543:CB:4906, V-A:GLU:543:CG:4907, V-B:GLU:543:CD:9879, V-A:GLU:543:CD:4908, V-B:HIS:456:CE1:9041, H-A:LYS:547:NZ:4951, V-B:HIS:456:CD2:9039, V-B:HIS:456:CG:9037, V-B:GLU:543:C:9873, V-B:GLU:543:CB:9877, V-B:GLU:543:CG:9878, V-A:TYR:539:C:4867, V-A:PRO:540:N:4884, V-A:PRO:540:CB:4885, V-A:LEU:363:CD1:3188, V-A:PRO:540:CA:4883, V-A:TYR:484:CE1:4344, V-A:TYR:484:CZ:4346, H-A:ARG:545:NH2:4928, V-B:TYR:484:CE1:9316, V-A:ALA:541:CB:4892, V-A:PRO:540:CD:4887, H-A:GLU:543:OE1:4909, V-B:TYR:484:CD1:9314, V-B:GLY:544:C:9883, V-B:ASP:473:CG:9211, V-B:HIS:456:CB:9036, V-B:TYR:484:CG:9313, V-B:ASP:473:CB:9210, V-B:TYR:484:CB:9312, V-B:TYR:484:CD2:9315"]

$$$$
RR21_Rahimova_2017
     RDKit          3D

 62 67  0  0  0  0  0  0  0  0999 V2000
  133.9810  124.6150   62.4170 C   0  0  0  0  0  0  0  0  0  0  0  0
  133.6620  124.0860   63.7010 O   0  0  0  0  0  0  0  0  0  0  0  0
  132.7480  124.7490   64.4970 C   0  0  0  0  0  0  0  0  0  0  0  0
  131.3680  124.8070   64.2360 C   0  0  0  0  0  0  0  0  0  0  0  0
  130.5120  125.4970   65.0930 C   0  0  0  0  0  0  0  0  0  0  0  0
  131.0080  126.1410   66.2320 C   0  0  0  0  0  0  0  0  0  0  0  0
  130.0840  126.8760   67.1550 C   0  0  0  0  0  0  0  0  0  0  0  0
  130.3540  126.9340   68.4440 N   0  0  0  0  0  0  0  0  0  0  0  0
  129.3700  127.6470   69.0120 N   0  0  0  0  0  0  0  0  0  0  0  0
  129.3620  127.9200   70.4050 C   0  0  0  0  0  0  0  0  0  0  0  0
  129.1260  126.8970   71.3360 C   0  0  0  0  0  0  0  0  0  0  0  0
  129.1250  127.1760   72.7000 C   0  0  0  0  0  0  0  0  0  0  0  0
  129.3590  128.4780   73.1380 C   0  0  0  0  0  0  0  0  0  0  0  0
  129.5910  129.5030   72.2240 C   0  0  0  0  0  0  0  0  0  0  0  0
  129.5920  129.2260   70.8600 C   0  0  0  0  0  0  0  0  0  0  0  0
  128.4730  128.0600   68.0590 C   0  0  0  0  0  0  0  0  0  0  0  0
  128.8930  127.5660   66.8330 C   0  0  0  0  0  0  0  0  0  0  0  0
  128.2920  127.7790   65.5250 C   0  0  0  0  0  0  0  0  0  0  0  0
  127.3880  128.7180   65.1620 C   0  0  0  0  0  0  0  0  0  0  0  0
  126.6510  129.9760   66.1790 S   0  0  0  0  0  0  0  0  0  0  0  0
  125.7600  130.5630   64.7820 C   0  0  0  0  0  0  0  0  0  0  0  0
  124.9430  131.5690   64.7250 N   0  0  0  0  0  0  0  0  0  0  0  0
  124.2910  131.9490   63.5200 C   0  0  0  0  0  0  0  0  0  0  0  0
  123.5210  132.8980   63.3780 O   0  0  0  0  0  0  0  0  0  0  0  0
  124.6270  131.0710   62.3450 C   0  0  0  0  0  0  0  0  0  0  0  0
  123.9670  131.3730   60.9930 C   0  0  0  0  0  0  0  0  0  0  0  0
  124.9320  131.3780   59.8090 C   0  0  0  0  0  0  0  0  0  0  0  0
  126.2410  131.8380   59.9750 C   0  0  0  0  0  0  0  0  0  0  0  0
  127.1260  131.8270   58.9000 C   0  0  0  0  0  0  0  0  0  0  0  0
  126.7050  131.3530   57.6560 C   0  0  0  0  0  0  0  0  0  0  0  0
  127.6760  131.3320   56.4900 C   0  0  0  0  0  0  0  0  0  0  0  0
  125.4000  130.8820   57.4900 C   0  0  0  0  0  0  0  0  0  0  0  0
  124.5160  130.8940   58.5650 C   0  0  0  0  0  0  0  0  0  0  0  0
  125.4400  130.0680   62.4180 N   0  0  0  0  0  0  0  0  0  0  0  0
  126.0220  129.8130   63.6660 N   0  0  0  0  0  0  0  0  0  0  0  0
  126.8950  128.7840   63.7930 C   0  0  0  0  0  0  0  0  0  0  0  0
  127.2250  128.0230   62.8760 O   0  0  0  0  0  0  0  0  0  0  0  0
  132.3810  126.0880   66.4900 C   0  0  0  0  0  0  0  0  0  0  0  0
  133.2410  125.4000   65.6330 C   0  0  0  0  0  0  0  0  0  0  0  0
  134.5650  125.3670   65.9120 F   0  0  0  0  0  0  0  0  0  0  0  0
  134.5457  125.5514   62.5362 H   0  0  0  0  0  0  0  0  0  0  0  0
  134.5909  123.8872   61.8618 H   0  0  0  0  0  0  0  0  0  0  0  0
  133.0527  124.8148   61.8618 H   0  0  0  0  0  0  0  0  0  0  0  0
  130.9598  124.3033   63.3474 H   0  0  0  0  0  0  0  0  0  0  0  0
  129.4352  125.5356   64.8715 H   0  0  0  0  0  0  0  0  0  0  0  0
  128.9410  125.8705   70.9867 H   0  0  0  0  0  0  0  0  0  0  0  0
  128.9404  126.3726   73.4283 H   0  0  0  0  0  0  0  0  0  0  0  0
  129.3605  128.6983   74.2157 H   0  0  0  0  0  0  0  0  0  0  0  0
  129.7729  130.5281   72.5790 H   0  0  0  0  0  0  0  0  0  0  0  0
  129.7739  130.0345   70.1366 H   0  0  0  0  0  0  0  0  0  0  0  0
  127.5782  128.6748   68.2363 H   0  0  0  0  0  0  0  0  0  0  0  0
  128.6133  127.0892   64.7307 H   0  0  0  0  0  0  0  0  0  0  0  0
  123.1977  130.6091   60.8070 H   0  0  0  0  0  0  0  0  0  0  0  0
  123.5522  132.3892   61.0653 H   0  0  0  0  0  0  0  0  0  0  0  0
  126.5727  132.2092   60.9559 H   0  0  0  0  0  0  0  0  0  0  0  0
  128.1556  132.1913   59.0307 H   0  0  0  0  0  0  0  0  0  0  0  0
  128.7073  131.3097   56.8720 H   0  0  0  0  0  0  0  0  0  0  0  0
  127.4929  130.4376   55.8764 H   0  0  0  0  0  0  0  0  0  0  0  0
  127.5317  132.2335   55.8764 H   0  0  0  0  0  0  0  0  0  0  0  0
  125.0718  130.5023   56.5112 H   0  0  0  0  0  0  0  0  0  0  0  0
  123.4888  130.5222   58.4357 H   0  0  0  0  0  0  0  0  0  0  0  0
  132.7877  126.5940   67.3780 H   0  0  0  0  0  0  0  0  0  0  0  0
  1  2  1  0
  2  3  1  0
  3  4  2  0
  4  5  1  0
  5  6  2  0
  6  7  1  0
  7  8  2  0
  8  9  1  0
  9 10  1  0
 10 11  2  0
 11 12  1  0
 12 13  2  0
 13 14  1  0
 14 15  2  0
  9 16  1  0
 16 17  2  0
 17 18  1  0
 18 19  2  0
 19 20  1  0
 20 21  1  0
 21 22  2  0
 22 23  1  0
 23 24  2  0
 23 25  1  0
 25 26  1  0
 26 27  1  0
 27 28  2  0
 28 29  1  0
 29 30  2  0
 30 31  1  0
 30 32  1  0
 32 33  2  0
 25 34  2  0
 34 35  1  0
 35 36  1  0
 36 37  2  0
  6 38  1  0
 38 39  2  0
 39 40  1  0
 39  3  1  0
 17  7  1  0
 36 19  1  0
 15 10  1  0
 35 21  1  0
 33 27  1  0
  1 41  1  0
  1 42  1  0
  1 43  1  0
  4 44  1  0
  5 45  1  0
 11 46  1  0
 12 47  1  0
 13 48  1  0
 14 49  1  0
 15 50  1  0
 16 51  1  0
 18 52  1  0
 26 53  1  0
 26 54  1  0
 28 55  1  0
 29 56  1  0
 31 57  1  0
 31 58  1  0
 31 59  1  0
 32 60  1  0
 33 61  1  0
 38 62  1  0
M  END
>  <Binding energies>  (1) 
[-9.51]

>  <Ligand effiencies>  (1) 
[-0.23775]

>  <Interactions>  (1) 
["V-A:HIS:456:CE1:4069, V-A:GLU:543:CB:4906, V-A:GLU:543:CG:4907, V-B:GLU:543:CD:9879, V-A:GLU:543:CD:4908, V-B:HIS:456:CE1:9041, V-B:HIS:456:CD2:9039, V-B:ASP:366:CG:8184, V-B:ASP:366:CA:8181, V-A:ARG:545:CZ:4926, V-A:TYR:539:CD2:4874, V-A:TYR:539:CE2:4876, V-A:MET:535:CE:4835, V-B:ASP:366:CB:8183, H-A:GLY:454:N:4049, V-A:GLY:454:CA:4048, V-A:ILE:369:CD1:3238, H-B:TYR:484:OH:9319, V-A:TYR:539:CZ:4877, V-A:ARG:545:CD:4923, V-A:ARG:545:CG:4922, H-B:GLY:454:N:9021, V-B:GLY:454:CA:9020, H-B:ARG:545:NH2:9899, V-A:GLY:453:C:4041, V-A:GLY:453:CA:4043, V-B:ILE:369:CD1:8210"]

$$$$
RR22_Rahimova_2017
     RDKit          3D

 49 54  0  0  0  0  0  0  0  0999 V2000
  129.1600  133.5880   54.5010 O   0  0  0  0  0  0  0  0  0  0  0  0
  129.1750  132.9810   55.5700 C   0  0  0  0  0  0  0  0  0  0  0  0
  128.0900  132.5260   56.2990 N   0  0  0  0  0  0  0  0  0  0  0  0
  128.2830  131.7780   57.5030 C   0  0  1  0  0  0  0  0  0  0  0  0
  127.5580  132.4920   58.5080 O   0  0  0  0  0  0  0  0  0  0  0  0
  126.5290  131.8300   59.1790 C   0  0  0  0  0  0  0  0  0  0  0  0
  125.6180  132.6320   59.8670 C   0  0  0  0  0  0  0  0  0  0  0  0
  124.5850  132.0410   60.5950 C   0  0  0  0  0  0  0  0  0  0  0  0
  124.4700  130.6510   60.6410 C   0  0  0  0  0  0  0  0  0  0  0  0
  125.3820  129.8490   59.9530 C   0  0  0  0  0  0  0  0  0  0  0  0
  126.4070  130.4280   59.2000 C   0  0  0  0  0  0  0  0  0  0  0  0
  127.4690  129.6480   58.4570 C   0  0  1  0  0  0  0  0  0  0  0  0
  127.2000  128.2900   57.8400 C   0  0  0  0  0  0  0  0  0  0  0  0
  128.1830  128.3370   56.6660 C   0  0  0  0  0  0  0  0  0  0  0  0
  128.6240  127.1260   55.9470 C   0  0  0  0  0  0  0  0  0  0  0  0
  128.3380  125.8500   56.4550 C   0  0  0  0  0  0  0  0  0  0  0  0
  128.7550  124.7110   55.7710 C   0  0  0  0  0  0  0  0  0  0  0  0
  129.4600  124.8400   54.5780 C   0  0  0  0  0  0  0  0  0  0  0  0
  129.7520  126.0990   54.0600 C   0  0  0  0  0  0  0  0  0  0  0  0
  129.3340  127.2390   54.7410 C   0  0  0  0  0  0  0  0  0  0  0  0
  128.5280  129.5400   56.4000 N   0  0  0  0  0  0  0  0  0  0  0  0
  127.8500  130.3890   57.2920 N   0  0  0  0  0  0  0  0  0  0  0  0
  129.7590  131.8900   57.8530 C   0  0  0  0  0  0  0  0  0  0  0  0
  130.2490  131.6080   59.0830 C   0  0  0  0  0  0  0  0  0  0  0  0
  131.6480  131.6550   59.5490 C   0  0  0  0  0  0  0  0  0  0  0  0
  132.0040  131.8080   60.8970 C   0  0  0  0  0  0  0  0  0  0  0  0
  133.3500  131.8440   61.2630 C   0  0  0  0  0  0  0  0  0  0  0  0
  134.3150  131.7310   60.2630 C   0  0  0  0  0  0  0  0  0  0  0  0
  134.0010  131.5910   58.9510 N   0  0  0  0  0  0  0  0  0  0  0  0
  132.6860  131.5570   58.6140 C   0  0  0  0  0  0  0  0  0  0  0  0
  130.6810  132.5240   56.4810 S   0  0  0  0  0  0  0  0  0  0  0  0
  127.1480  132.7510   56.0170 H   0  0  0  0  0  0  0  0  0  0  0  0
  125.7140  133.7274   59.8355 H   0  0  0  0  0  0  0  0  0  0  0  0
  123.8610  132.6708   61.1328 H   0  0  0  0  0  0  0  0  0  0  0  0
  123.6588  130.1863   61.2207 H   0  0  0  0  0  0  0  0  0  0  0  0
  125.2933  128.7538   60.0039 H   0  0  0  0  0  0  0  0  0  0  0  0
  128.1699  129.4915   59.2902 H   0  0  0  0  0  0  0  0  0  0  0  0
  127.4333  127.4710   58.5363 H   0  0  0  0  0  0  0  0  0  0  0  0
  126.1520  128.1049   57.5619 H   0  0  0  0  0  0  0  0  0  0  0  0
  127.7815  125.7487   57.3984 H   0  0  0  0  0  0  0  0  0  0  0  0
  128.5279  123.7123   56.1724 H   0  0  0  0  0  0  0  0  0  0  0  0
  129.7895  123.9392   54.0395 H   0  0  0  0  0  0  0  0  0  0  0  0
  130.3105  126.1925   53.1169 H   0  0  0  0  0  0  0  0  0  0  0  0
  129.5614  128.2344   54.3317 H   0  0  0  0  0  0  0  0  0  0  0  0
  129.5057  131.3035   59.8345 H   0  0  0  0  0  0  0  0  0  0  0  0
  131.2223  131.8996   61.6655 H   0  0  0  0  0  0  0  0  0  0  0  0
  133.6432  131.9590   62.3169 H   0  0  0  0  0  0  0  0  0  0  0  0
  135.3765  131.7565   60.5504 H   0  0  0  0  0  0  0  0  0  0  0  0
  132.4225  131.4468   57.5517 H   0  0  0  0  0  0  0  0  0  0  0  0
  1  2  2  0
  2  3  1  0
  3  4  1  0
  4  5  1  1
  5  6  1  0
  6  7  2  0
  7  8  1  0
  8  9  2  0
  9 10  1  0
 10 11  2  0
 11 12  1  0
 12 13  1  0
 13 14  1  0
 14 15  1  0
 15 16  2  0
 16 17  1  0
 17 18  2  0
 18 19  1  0
 19 20  2  0
 14 21  2  0
 21 22  1  0
  4 23  1  0
 23 24  2  0
 24 25  1  0
 25 26  2  0
 26 27  1  0
 27 28  2  0
 28 29  1  0
 29 30  2  0
 23 31  1  0
 31  2  1  0
 22  4  1  0
 30 25  1  0
 11  6  1  0
 22 12  1  0
 20 15  1  0
  3 32  1  0
  7 33  1  0
  8 34  1  0
  9 35  1  0
 10 36  1  0
 12 37  1  1
 13 38  1  0
 13 39  1  0
 16 40  1  0
 17 41  1  0
 18 42  1  0
 19 43  1  0
 20 44  1  0
 24 45  1  0
 26 46  1  0
 27 47  1  0
 28 48  1  0
 30 49  1  0
M  END
>  <Binding energies>  (1) 
[-8.52]

>  <Ligand effiencies>  (1) 
[-0.26625]

>  <Interactions>  (1) 
["V-B:ASP:366:CG:8184, V-B:TYR:539:CE1:9846, V-B:TYR:539:CZ:9848, V-A:TYR:539:CD2:4874, H-A:TYR:539:OH:4878, V-A:TYR:539:CE2:4876, V-A:TYR:539:CG:4872, V-A:MET:535:CE:4835, V-A:TYR:531:CE1:4792, V-A:TYR:531:CZ:4794, V-B:ASP:366:CB:8183, V-A:LEU:363:CA:3184, V-A:PRO:540:CB:4885, V-A:LEU:363:CD1:3188, V-A:ASP:366:CG:3212, V-A:PRO:540:CA:4883, V-A:TYR:539:CZ:4877, H-A:TYR:539:N:4870, V-A:ILE:538:CA:4860, V-A:ASN:362:CB:3175, H-A:LEU:363:N:3185, V-A:TYR:539:CE1:4875, V-A:TYR:539:CD1:4873, V-A:LEU:363:CB:3186, V-A:ASN:362:C:3171, H-A:ILE:538:N:4861, V-A:ASN:362:CA:3173"]

$$$$
RR23_Rahimova_2017
     RDKit          3D

 65 70  0  0  0  0  0  0  0  0999 V2000
  126.8760  122.6420   53.8650 C   0  0  0  0  0  0  0  0  0  0  0  0
  126.9120  122.8280   55.3710 C   0  0  0  0  0  0  0  0  0  0  0  0
  127.9450  123.5570   55.9610 C   0  0  0  0  0  0  0  0  0  0  0  0
  127.9720  123.7340   57.3420 C   0  0  0  0  0  0  0  0  0  0  0  0
  126.9710  123.1750   58.1450 C   0  0  0  0  0  0  0  0  0  0  0  0
  127.0070  123.3960   59.6400 C   0  0  0  0  0  0  0  0  0  0  0  0
  126.1610  124.1500   60.1260 O   0  0  0  0  0  0  0  0  0  0  0  0
  127.9500  122.7530   60.3910 N   0  0  0  0  0  0  0  0  0  0  0  0
  128.7410  121.6390   59.8440 C   0  0  0  0  0  0  0  0  0  0  0  0
  129.7700  121.2840   60.9050 C   0  0  0  0  0  0  0  0  0  0  0  0
  129.7300  122.4710   61.8190 C   0  0  0  0  0  0  0  0  0  0  0  0
  130.5240  122.7510   62.9310 C   0  0  0  0  0  0  0  0  0  0  0  0
  130.2250  123.8430   63.7600 C   0  0  0  0  0  0  0  0  0  0  0  0
  131.0740  124.1870   64.9930 C   0  0  2  0  0  0  0  0  0  0  0  0
  130.3580  125.0220   65.9330 N   0  0  0  0  0  0  0  0  0  0  0  0
  131.1370  125.8140   66.5540 C   0  0  0  0  0  0  0  0  0  0  0  0
  130.8130  126.7520   67.4840 N   0  0  0  0  0  0  0  0  0  0  0  0
  129.5810  127.1640   67.8700 C   0  0  0  0  0  0  0  0  0  0  0  0
  128.5120  126.7120   67.4560 O   0  0  0  0  0  0  0  0  0  0  0  0
  129.5580  128.2960   68.9110 C   0  0  0  0  0  0  0  0  0  0  0  0
  129.9550  127.7510   70.2290 N   0  0  0  0  0  0  0  0  0  0  0  0
  131.0810  128.3310   70.7990 N   0  0  0  0  0  0  0  0  0  0  0  0
  131.5320  127.9430   71.9490 N   0  0  0  0  0  0  0  0  0  0  0  0
  130.8800  126.9210   72.6420 C   0  0  0  0  0  0  0  0  0  0  0  0
  131.3940  126.5250   73.8790 C   0  0  0  0  0  0  0  0  0  0  0  0
  130.7640  125.5060   74.5960 C   0  0  0  0  0  0  0  0  0  0  0  0
  129.6260  124.8830   74.0790 C   0  0  0  0  0  0  0  0  0  0  0  0
  129.1110  125.2770   72.8420 C   0  0  0  0  0  0  0  0  0  0  0  0
  129.7420  126.3010   72.1240 C   0  0  0  0  0  0  0  0  0  0  0  0
  129.2030  126.7390   70.7830 C   0  0  0  0  0  0  0  0  0  0  0  0
  128.2110  126.2380   70.2440 O   0  0  0  0  0  0  0  0  0  0  0  0
  132.8770  125.7110   66.1600 S   0  0  0  0  0  0  0  0  0  0  0  0
  132.4560  124.7990   64.6640 C   0  0  2  0  0  0  0  0  0  0  0  0
  132.5190  125.7580   63.4570 C   0  0  0  0  0  0  0  0  0  0  0  0
  129.0900  124.6130   63.4790 C   0  0  0  0  0  0  0  0  0  0  0  0
  128.2830  124.3200   62.3790 C   0  0  0  0  0  0  0  0  0  0  0  0
  128.6340  123.2780   61.5110 C   0  0  0  0  0  0  0  0  0  0  0  0
  125.9220  122.4680   57.5430 C   0  0  0  0  0  0  0  0  0  0  0  0
  125.8950  122.2920   56.1630 C   0  0  0  0  0  0  0  0  0  0  0  0
  126.6718  121.5868   53.6306 H   0  0  0  0  0  0  0  0  0  0  0  0
  126.0833  123.2729   53.4365 H   0  0  0  0  0  0  0  0  0  0  0  0
  127.8468  122.9315   53.4365 H   0  0  0  0  0  0  0  0  0  0  0  0
  128.7382  123.9920   55.3352 H   0  0  0  0  0  0  0  0  0  0  0  0
  128.7835  124.3156   57.8038 H   0  0  0  0  0  0  0  0  0  0  0  0
  128.0914  120.7752   59.6395 H   0  0  0  0  0  0  0  0  0  0  0  0
  129.2245  121.9197   58.8967 H   0  0  0  0  0  0  0  0  0  0  0  0
  129.4879  120.3641   61.4381 H   0  0  0  0  0  0  0  0  0  0  0  0
  130.7702  121.0868   60.4919 H   0  0  0  0  0  0  0  0  0  0  0  0
  131.3897  122.1120   63.1595 H   0  0  0  0  0  0  0  0  0  0  0  0
  131.2741  123.2151   65.4677 H   0  0  0  0  0  0  0  0  0  0  0  0
  131.5880  127.2380   67.9100 H   0  0  0  0  0  0  0  0  0  0  0  0
  130.2627  129.0859   68.6117 H   0  0  0  0  0  0  0  0  0  0  0  0
  128.5448  128.7195   68.9753 H   0  0  0  0  0  0  0  0  0  0  0  0
  132.2912  127.0139   74.2865 H   0  0  0  0  0  0  0  0  0  0  0  0
  131.1652  125.1929   75.5712 H   0  0  0  0  0  0  0  0  0  0  0  0
  129.1341  124.0800   74.6475 H   0  0  0  0  0  0  0  0  0  0  0  0
  128.2152  124.7861   72.4340 H   0  0  0  0  0  0  0  0  0  0  0  0
  133.1414  123.9884   64.3754 H   0  0  0  0  0  0  0  0  0  0  0  0
  132.5872  126.7955   63.8162 H   0  0  0  0  0  0  0  0  0  0  0  0
  133.4036  125.5222   62.8472 H   0  0  0  0  0  0  0  0  0  0  0  0
  131.6112  125.6400   62.8472 H   0  0  0  0  0  0  0  0  0  0  0  0
  128.8314  125.4588   64.1330 H   0  0  0  0  0  0  0  0  0  0  0  0
  127.3715  124.9071   62.1935 H   0  0  0  0  0  0  0  0  0  0  0  0
  125.1160  122.0501   58.1641 H   0  0  0  0  0  0  0  0  0  0  0  0
  125.0723  121.7305   55.6961 H   0  0  0  0  0  0  0  0  0  0  0  0
  1  2  1  0
  2  3  2  0
  3  4  1  0
  4  5  2  0
  5  6  1  0
  6  7  2  0
  6  8  1  0
  8  9  1  0
  9 10  1  0
 10 11  1  0
 11 12  2  0
 12 13  1  0
 13 14  1  0
 14 15  1  0
 15 16  2  0
 16 17  1  0
 17 18  1  0
 18 19  2  0
 18 20  1  0
 20 21  1  0
 21 22  1  0
 22 23  2  0
 23 24  1  0
 24 25  2  0
 25 26  1  0
 26 27  2  0
 27 28  1  0
 28 29  2  0
 29 30  1  0
 30 31  2  0
 16 32  1  0
 32 33  1  0
 33 34  1  0
 13 35  2  0
 35 36  1  0
 36 37  2  0
  5 38  1  0
 38 39  2  0
 39  2  1  0
 37  8  1  0
 37 11  1  0
 33 14  1  0
 30 21  1  0
 29 24  1  0
  1 40  1  0
  1 41  1  0
  1 42  1  0
  3 43  1  0
  4 44  1  0
  9 45  1  0
  9 46  1  0
 10 47  1  0
 10 48  1  0
 12 49  1  0
 14 50  1  1
 17 51  1  0
 20 52  1  0
 20 53  1  0
 25 54  1  0
 26 55  1  0
 27 56  1  0
 28 57  1  0
 33 58  1  6
 34 59  1  0
 34 60  1  0
 34 61  1  0
 35 62  1  0
 36 63  1  0
 38 64  1  0
 39 65  1  0
M  END
>  <Binding energies>  (1) 
[-10.57]

>  <Ligand effiencies>  (1) 
[-0.26425]

>  <Interactions>  (1) 
["V-A:HIS:456:CB:4064, V-A:HIS:456:CE1:4069, V-A:HIS:456:CG:4065, V-A:GLU:543:CB:4906, V-A:GLU:543:CG:4907, V-A:HIS:456:CD2:4067, V-B:GLU:543:CD:9879, V-A:GLU:543:CD:4908, V-B:HIS:456:CE1:9041, H-A:LYS:547:NZ:4951, V-B:LYS:547:CE:9921, V-B:GLU:543:CG:9878, V-B:MET:535:CE:9806, V-B:TYR:539:CD2:9845, V-B:PRO:540:CA:9854, V-B:TYR:539:CE2:9847, V-B:PRO:540:C:9852, V-B:ALA:541:CB:9863, V-B:PRO:540:N:9855, V-B:TYR:539:CE1:9846, V-B:PRO:540:CB:9856, V-B:TYR:539:CZ:9848, V-B:TYR:539:C:9838, V-B:PRO:540:CD:9858, V-A:ARG:545:CZ:4926, V-B:ILE:538:CA:9831, V-B:PRO:540:CG:9857, V-B:TYR:539:CD1:9844, H-A:TYR:484:OH:4347, V-B:ILE:538:CD1:9836, H-A:ARG:545:NE:4924, H-A:GLU:543:OE2:4910, H-A:HIS:456:ND1:4066, V-B:MET:535:CB:9803, V-B:VAL:537:C:9821, V-B:MET:535:CG:9804"]

$$$$
RR24_Rahimova_2017
     RDKit          3D

 65 71  0  0  0  0  0  0  0  0999 V2000
  128.9150  133.2120   56.6420 C   0  0  0  0  0  0  0  0  0  0  0  0
  129.7710  131.9370   56.6850 C   0  0  2  0  0  0  0  0  0  0  0  0
  128.9320  130.6300   56.5730 C   0  0  0  0  0  0  0  0  0  0  0  0
  127.7020  130.6290   56.6860 O   0  0  0  0  0  0  0  0  0  0  0  0
  129.7090  129.5260   56.3700 O   0  0  0  0  0  0  0  0  0  0  0  0
  129.5700  128.4360   57.1990 C   0  0  0  0  0  0  0  0  0  0  0  0
  129.4500  127.1620   56.6400 C   0  0  0  0  0  0  0  0  0  0  0  0
  129.3190  126.0510   57.4680 C   0  0  0  0  0  0  0  0  0  0  0  0
  129.3160  126.2070   58.8570 C   0  0  0  0  0  0  0  0  0  0  0  0
  129.1520  124.9820   59.7640 C   0  0  1  0  0  0  0  0  0  0  0  0
  130.0830  125.0460   60.9970 C   0  0  0  0  0  0  0  0  0  0  0  0
  129.6390  124.8700   62.2550 C   0  0  0  0  0  0  0  0  0  0  0  0
  128.3190  124.6200   62.5370 N   0  0  0  0  0  0  0  0  0  0  0  0
  127.3770  124.5390   61.5380 C   0  0  0  0  0  0  0  0  0  0  0  0
  126.1210  124.2780   61.9830 N   0  0  0  0  0  0  0  0  0  0  0  0
  125.0470  124.2390   61.1480 C   0  0  0  0  0  0  0  0  0  0  0  0
  123.9120  124.3180   61.6230 O   0  0  0  0  0  0  0  0  0  0  0  0
  125.3750  124.2800   59.8020 N   0  0  0  0  0  0  0  0  0  0  0  0
  124.2520  124.1500   58.8510 C   0  0  0  0  0  0  0  0  0  0  0  0
  126.6140  124.5410   59.2420 C   0  0  0  0  0  0  0  0  0  0  0  0
  126.8250  124.6150   58.0280 O   0  0  0  0  0  0  0  0  0  0  0  0
  127.6900  124.7040   60.2260 C   0  0  0  0  0  0  0  0  0  0  0  0
  130.7290  124.9840   63.2090 C   0  0  0  0  0  0  0  0  0  0  0  0
  130.7900  124.8900   64.6000 C   0  0  0  0  0  0  0  0  0  0  0  0
  132.0210  125.0530   65.2410 C   0  0  0  0  0  0  0  0  0  0  0  0
  133.1760  125.3050   64.4950 C   0  0  0  0  0  0  0  0  0  0  0  0
  133.1080  125.3980   63.1020 C   0  0  0  0  0  0  0  0  0  0  0  0
  131.8760  125.2360   62.4670 C   0  0  0  0  0  0  0  0  0  0  0  0
  131.5220  125.2810   61.0320 C   0  0  0  0  0  0  0  0  0  0  0  0
  132.2390  125.4700   60.0510 O   0  0  0  0  0  0  0  0  0  0  0  0
  129.4550  127.4830   59.4150 C   0  0  0  0  0  0  0  0  0  0  0  0
  129.5880  128.5940   58.5870 C   0  0  0  0  0  0  0  0  0  0  0  0
  130.6950  131.9210   57.8570 N   0  0  0  0  0  0  0  0  0  0  0  0
  130.2330  132.0630   59.1310 C   0  0  0  0  0  0  0  0  0  0  0  0
  129.0650  132.2250   59.4900 O   0  0  0  0  0  0  0  0  0  0  0  0
  131.4350  131.9830   59.9980 C   0  0  0  0  0  0  0  0  0  0  0  0
  131.5680  132.0660   61.3850 C   0  0  0  0  0  0  0  0  0  0  0  0
  132.8470  131.9510   61.9430 C   0  0  0  0  0  0  0  0  0  0  0  0
  133.9620  131.7560   61.1180 C   0  0  0  0  0  0  0  0  0  0  0  0
  133.8080  131.6760   59.7300 C   0  0  0  0  0  0  0  0  0  0  0  0
  132.5250  131.7940   59.1920 C   0  0  0  0  0  0  0  0  0  0  0  0
  132.0510  131.7470   57.7870 C   0  0  0  0  0  0  0  0  0  0  0  0
  132.7330  131.5830   56.7750 O   0  0  0  0  0  0  0  0  0  0  0  0
  128.6945  133.5404   57.6684 H   0  0  0  0  0  0  0  0  0  0  0  0
  129.4645  134.0049   56.1134 H   0  0  0  0  0  0  0  0  0  0  0  0
  127.9731  133.0036   56.1134 H   0  0  0  0  0  0  0  0  0  0  0  0
  130.3991  131.9635   55.7824 H   0  0  0  0  0  0  0  0  0  0  0  0
  129.4590  127.0367   55.5472 H   0  0  0  0  0  0  0  0  0  0  0  0
  129.2176  125.0478   57.0283 H   0  0  0  0  0  0  0  0  0  0  0  0
  129.4445  124.1372   59.1231 H   0  0  0  0  0  0  0  0  0  0  0  0
  128.0290  124.4910   63.4970 H   0  0  0  0  0  0  0  0  0  0  0  0
  125.9400  124.1290   62.9640 H   0  0  0  0  0  0  0  0  0  0  0  0
  123.3101  124.0410   59.4086 H   0  0  0  0  0  0  0  0  0  0  0  0
  124.2016  125.0483   58.2181 H   0  0  0  0  0  0  0  0  0  0  0  0
  124.4081  123.2639   58.2181 H   0  0  0  0  0  0  0  0  0  0  0  0
  129.8801  124.6900   65.1848 H   0  0  0  0  0  0  0  0  0  0  0  0
  132.0814  124.9827   66.3371 H   0  0  0  0  0  0  0  0  0  0  0  0
  134.1419  125.4306   65.0061 H   0  0  0  0  0  0  0  0  0  0  0  0
  134.0155  125.5967   62.5129 H   0  0  0  0  0  0  0  0  0  0  0  0
  129.4591  127.6079   60.5079 H   0  0  0  0  0  0  0  0  0  0  0  0
  129.7072  129.5958   59.0253 H   0  0  0  0  0  0  0  0  0  0  0  0
  130.6870  132.2185   62.0258 H   0  0  0  0  0  0  0  0  0  0  0  0
  132.9767  132.0140   63.0335 H   0  0  0  0  0  0  0  0  0  0  0  0
  134.9636  131.6653   61.5637 H   0  0  0  0  0  0  0  0  0  0  0  0
  134.6793  131.5233   59.0761 H   0  0  0  0  0  0  0  0  0  0  0  0
  1  2  1  0
  2  3  1  0
  3  4  2  0
  3  5  1  0
  5  6  1  0
  6  7  2  0
  7  8  1  0
  8  9  2  0
  9 10  1  0
 10 11  1  0
 11 12  2  0
 12 13  1  0
 13 14  1  0
 14 15  1  0
 15 16  1  0
 16 17  2  0
 16 18  1  0
 18 19  1  0
 18 20  1  0
 20 21  2  0
 20 22  1  0
 12 23  1  0
 23 24  2  0
 24 25  1  0
 25 26  2  0
 26 27  1  0
 27 28  2  0
 28 29  1  0
 29 30  2  0
  9 31  1  0
 31 32  2  0
  2 33  1  0
 33 34  1  0
 34 35  2  0
 34 36  1  0
 36 37  2  0
 37 38  1  0
 38 39  2  0
 39 40  1  0
 40 41  2  0
 41 42  1  0
 42 43  2  0
 32  6  1  0
 42 33  1  0
 22 10  1  0
 28 23  1  0
 41 36  1  0
 29 11  1  0
 22 14  2  0
  1 44  1  0
  1 45  1  0
  1 46  1  0
  2 47  1  6
  7 48  1  0
  8 49  1  0
 10 50  1  6
 13 51  1  0
 15 52  1  0
 19 53  1  0
 19 54  1  0
 19 55  1  0
 24 56  1  0
 25 57  1  0
 26 58  1  0
 27 59  1  0
 31 60  1  0
 32 61  1  0
 37 62  1  0
 38 63  1  0
 39 64  1  0
 40 65  1  0
M  END
>  <Binding energies>  (1) 
[-9.66]

>  <Ligand effiencies>  (1) 
[-0.21466666666666667]

>  <Interactions>  (1) 
["V-B:GLU:543:CD:9879, V-B:GLU:543:CG:9878, V-B:LEU:363:CA:8156, V-B:LEU:363:CD1:8160, V-B:PRO:540:CA:9854, V-B:PRO:540:CB:9856, V-A:ARG:545:CZ:4926, V-A:TYR:539:CD2:4874, V-A:TYR:539:C:4867, V-A:TYR:539:CE2:4876, H-A:TYR:531:OH:4795, V-A:TYR:539:CG:4872, V-A:MET:535:CE:4835, V-A:LEU:363:CA:3184, V-B:ASN:362:CB:8147, V-A:PRO:540:CB:4885, V-A:LEU:363:CD1:3188, V-A:ASP:366:CG:3212, V-A:PRO:540:CA:4883, V-A:PRO:540:C:4881, V-A:TYR:539:CZ:4877, H-B:ARG:545:NH2:9899, H-B:GLU:543:OE2:9881, V-A:ASN:362:CB:3175, H-B:ALA:541:O:9860, V-A:TYR:539:CE1:4875, V-A:TYR:539:CD1:4873, H-B:LEU:363:N:8157, V-A:LEU:363:CB:3186, V-A:ASN:362:C:3171, V-A:ASN:362:CA:3173"]

$$$$
RR24_Rahimova_2017-again1
     RDKit          3D

 63 69  0  0  0  0  0  0  0  0999 V2000
  127.1570  122.2320   55.2850 C   0  0  0  0  0  0  0  0  0  0  0  0
  126.9120  123.6620   55.7860 C   0  0  2  0  0  0  0  0  0  0  0  0
  128.1470  124.5950   55.6170 C   0  0  0  0  0  0  0  0  0  0  0  0
  128.6200  124.8620   54.5060 O   0  0  0  0  0  0  0  0  0  0  0  0
  128.6360  125.0420   56.8110 O   0  0  0  0  0  0  0  0  0  0  0  0
  128.7120  126.3940   57.0520 C   0  0  0  0  0  0  0  0  0  0  0  0
  128.6510  127.2880   55.9820 C   0  0  0  0  0  0  0  0  0  0  0  0
  128.7070  128.6590   56.2180 C   0  0  0  0  0  0  0  0  0  0  0  0
  128.8170  129.1430   57.5260 C   0  0  0  0  0  0  0  0  0  0  0  0
  128.8800  130.6540   57.7910 C   0  0  1  0  0  0  0  0  0  0  0  0
  127.5920  131.1570   58.4840 C   0  0  0  0  0  0  0  0  0  0  0  0
  126.3020  131.2020   58.0820 C   0  0  0  0  0  0  0  0  0  0  0  0
  125.8770  130.8300   56.9230 O   0  0  0  0  0  0  0  0  0  0  0  0
  125.4530  131.7070   59.1600 C   0  0  0  0  0  0  0  0  0  0  0  0
  124.0720  131.9270   59.2500 C   0  0  0  0  0  0  0  0  0  0  0  0
  123.5300  132.4220   60.4370 C   0  0  0  0  0  0  0  0  0  0  0  0
  124.3610  132.6980   61.5250 C   0  0  0  0  0  0  0  0  0  0  0  0
  125.7360  132.4780   61.4300 C   0  0  0  0  0  0  0  0  0  0  0  0
  126.2770  131.9790   60.2420 C   0  0  0  0  0  0  0  0  0  0  0  0
  127.6380  131.6710   59.8430 C   0  0  0  0  0  0  0  0  0  0  0  0
  128.7350  131.8040   60.4890 N   0  0  0  0  0  0  0  0  0  0  0  0
  129.9440  131.5740   59.9020 C   0  0  0  0  0  0  0  0  0  0  0  0
  130.9990  131.9240   60.6950 N   0  0  0  0  0  0  0  0  0  0  0  0
  132.1970  131.7420   60.2660 C   0  0  0  0  0  0  0  0  0  0  0  0
  133.0760  132.0910   61.0710 O   0  0  0  0  0  0  0  0  0  0  0  0
  132.4660  131.2050   59.0080 N   0  0  0  0  0  0  0  0  0  0  0  0
  133.8350  130.9810   58.4860 C   0  0  0  0  0  0  0  0  0  0  0  0
  131.4620  130.8390   58.1320 C   0  0  0  0  0  0  0  0  0  0  0  0
  131.6560  130.3820   57.0010 O   0  0  0  0  0  0  0  0  0  0  0  0
  130.1060  131.0440   58.6500 C   0  0  0  0  0  0  0  0  0  0  0  0
  128.8660  128.2450   58.5960 C   0  0  0  0  0  0  0  0  0  0  0  0
  128.8070  126.8750   58.3610 C   0  0  0  0  0  0  0  0  0  0  0  0
  126.3710  123.6840   57.1770 N   0  0  0  0  0  0  0  0  0  0  0  0
  125.1060  124.1150   57.4430 C   0  0  0  0  0  0  0  0  0  0  0  0
  124.2700  124.5290   56.6380 O   0  0  0  0  0  0  0  0  0  0  0  0
  124.9450  123.9810   58.9130 C   0  0  0  0  0  0  0  0  0  0  0  0
  123.8640  124.2770   59.7450 C   0  0  0  0  0  0  0  0  0  0  0  0
  123.9950  124.0480   61.1190 C   0  0  0  0  0  0  0  0  0  0  0  0
  125.1890  123.5320   61.6390 C   0  0  0  0  0  0  0  0  0  0  0  0
  126.2610  123.2420   60.7890 C   0  0  0  0  0  0  0  0  0  0  0  0
  126.1120  123.4790   59.4210 C   0  0  0  0  0  0  0  0  0  0  0  0
  127.0510  123.2730   58.2900 C   0  0  0  0  0  0  0  0  0  0  0  0
  128.1970  122.8260   58.3450 O   0  0  0  0  0  0  0  0  0  0  0  0
  127.2727  121.5567   56.1456 H   0  0  0  0  0  0  0  0  0  0  0  0
  126.3017  121.9055   54.6752 H   0  0  0  0  0  0  0  0  0  0  0  0
  128.0722  122.2089   54.6752 H   0  0  0  0  0  0  0  0  0  0  0  0
  126.1338  124.0808   55.1310 H   0  0  0  0  0  0  0  0  0  0  0  0
  128.5588  126.9098   54.9532 H   0  0  0  0  0  0  0  0  0  0  0  0
  128.6647  129.3633   55.3741 H   0  0  0  0  0  0  0  0  0  0  0  0
  128.9763  131.1359   56.8069 H   0  0  0  0  0  0  0  0  0  0  0  0
  123.4197  131.7110   58.3910 H   0  0  0  0  0  0  0  0  0  0  0  0
  122.4466  132.5950   60.5158 H   0  0  0  0  0  0  0  0  0  0  0  0
  123.9310  133.0896   62.4587 H   0  0  0  0  0  0  0  0  0  0  0  0
  126.3909  132.6964   62.2864 H   0  0  0  0  0  0  0  0  0  0  0  0
  134.5341  130.8666   59.3275 H   0  0  0  0  0  0  0  0  0  0  0  0
  133.8484  130.0687   57.8715 H   0  0  0  0  0  0  0  0  0  0  0  0
  134.1385  131.8414   57.8715 H   0  0  0  0  0  0  0  0  0  0  0  0
  128.9514  128.6222   59.6258 H   0  0  0  0  0  0  0  0  0  0  0  0
  128.8351  126.1704   59.2052 H   0  0  0  0  0  0  0  0  0  0  0  0
  122.9293  124.6816   59.3294 H   0  0  0  0  0  0  0  0  0  0  0  0
  123.1565  124.2742   61.7941 H   0  0  0  0  0  0  0  0  0  0  0  0
  125.2838  123.3542   62.7204 H   0  0  0  0  0  0  0  0  0  0  0  0
  127.2015  122.8359   61.1896 H   0  0  0  0  0  0  0  0  0  0  0  0
  1  2  1  0
  2  3  1  0
  3  4  2  0
  3  5  1  0
  5  6  1  0
  6  7  2  0
  7  8  1  0
  8  9  2  0
  9 10  1  0
 10 11  1  0
 11 12  2  0
 12 13  1  0
 12 14  1  0
 14 15  2  0
 15 16  1  0
 16 17  2  0
 17 18  1  0
 18 19  2  0
 19 20  1  0
 20 21  2  0
 21 22  1  0
 22 23  1  0
 23 24  2  0
 24 25  1  0
 24 26  1  0
 26 27  1  0
 26 28  1  0
 28 29  2  0
 28 30  1  0
  9 31  1  0
 31 32  2  0
  2 33  1  0
 33 34  1  0
 34 35  2  0
 34 36  1  0
 36 37  2  0
 37 38  1  0
 38 39  2  0
 39 40  1  0
 40 41  2  0
 41 42  1  0
 42 43  2  0
 32  6  1  0
 42 33  1  0
 30 10  1  0
 41 36  1  0
 20 11  1  0
 30 22  2  0
 19 14  1  0
  1 44  1  0
  1 45  1  0
  1 46  1  0
  2 47  1  6
  7 48  1  0
  8 49  1  0
 10 50  1  6
 15 51  1  0
 16 52  1  0
 17 53  1  0
 18 54  1  0
 27 55  1  0
 27 56  1  0
 27 57  1  0
 31 58  1  0
 32 59  1  0
 37 60  1  0
 38 61  1  0
 39 62  1  0
 40 63  1  0
M  CHG  2  13  -1  25  -1
M  END
>  <Binding energies>  (1) 
[-8.49]

>  <Ligand effiencies>  (1) 
[-0.19744186046511628]

>  <Interactions>  (1) 
["V-B:MET:535:CE:9806, V-B:ASP:366:CG:8184, V-B:LEU:363:CA:8156, V-B:LEU:363:CD1:8160, V-B:ASN:362:C:8143, V-B:PRO:540:CA:9854, V-B:PRO:540:C:9852, V-B:PRO:540:N:9855, V-B:TYR:539:CE1:9846, V-B:PRO:540:CB:9856, V-B:TYR:539:CZ:9848, V-A:ASP:366:CB:3211, H-A:TYR:539:OH:4878, V-B:ILE:538:CA:9831, V-A:TYR:539:CE2:4876, H-A:TYR:531:OH:4795, H-B:TYR:531:OH:9766, V-A:MET:535:CE:4835, H-B:TYR:539:OH:9849, V-B:TYR:539:CD1:9844, V-A:LEU:363:CA:3184, V-B:ASN:362:CA:8145, V-B:ASN:362:CB:8147, V-A:PRO:540:CB:4885, V-A:LEU:363:CD1:3188, V-A:ASP:366:CG:3212, V-A:PRO:540:CA:4883, V-B:TYR:539:CG:9843, V-A:TYR:539:CZ:4877, V-B:ILE:369:CG2:8208, V-B:ILE:369:CB:8207, V-B:ILE:369:CD1:8210, V-A:LEU:363:CB:3186, V-B:ILE:369:CG1:8209"]

$$$$
RR25_Rahimova_2017
     RDKit          3D

 63 68  0  0  0  0  0  0  0  0999 V2000
  124.9860  129.5010   67.8270 O   0  0  0  0  0  0  0  0  0  0  0  0
  125.9190  129.1350   67.1100 C   0  0  0  0  0  0  0  0  0  0  0  0
  127.0390  128.6780   67.7600 O   0  0  0  0  0  0  0  0  0  0  0  0
  128.0450  128.0130   67.0820 C   0  0  0  0  0  0  0  0  0  0  0  0
  128.8250  127.1300   67.8270 C   0  0  0  0  0  0  0  0  0  0  0  0
  129.8620  126.4340   67.2090 C   0  0  0  0  0  0  0  0  0  0  0  0
  130.1360  126.6120   65.8450 C   0  0  0  0  0  0  0  0  0  0  0  0
  131.2350  125.8630   65.1880 N   0  0  0  0  0  0  0  0  0  0  0  0
  132.2050  125.5280   65.8650 O   0  0  0  0  0  0  0  0  0  0  0  0
  131.1370  125.6040   63.9930 O   0  0  0  0  0  0  0  0  0  0  0  0
  129.3460  127.5150   65.1160 C   0  0  0  0  0  0  0  0  0  0  0  0
  128.3070  128.2280   65.7210 C   0  0  0  0  0  0  0  0  0  0  0  0
  127.4190  129.2070   64.9750 C   0  0  0  0  0  0  0  0  0  0  0  0
  125.9780  129.1530   65.5550 C   0  0  2  0  0  0  0  0  0  0  0  0
  125.0620  130.2150   64.8800 C   0  0  0  0  0  0  0  0  0  0  0  0
  124.3550  130.8830   65.6390 O   0  0  0  0  0  0  0  0  0  0  0  0
  125.1240  130.4840   63.5410 N   0  0  0  0  0  0  0  0  0  0  0  0
  125.6960  129.5370   62.5600 C   0  0  0  0  0  0  0  0  0  0  0  0
  126.4430  130.3340   61.4700 C   0  0  0  0  0  0  0  0  0  0  0  0
  125.5740  131.3390   60.8510 N   0  0  0  0  0  0  0  0  0  0  0  0
  126.2400  132.0070   59.7250 C   0  0  0  0  0  0  0  0  0  0  0  0
  127.3350  133.0080   60.1810 C   0  0  0  0  0  0  0  0  0  0  0  0
  128.7320  132.6890   59.7640 N   0  0  0  0  0  0  0  0  0  0  0  0
  129.6530  132.6290   60.7880 C   0  0  0  0  0  0  0  0  0  0  0  0
  129.3680  132.8580   61.9690 O   0  0  0  0  0  0  0  0  0  0  0  0
  131.0530  132.2390   60.3550 C   0  0  0  0  0  0  0  0  0  0  0  0
  132.0630  132.1230   61.3190 C   0  0  0  0  0  0  0  0  0  0  0  0
  133.3590  131.7580   60.9570 C   0  0  0  0  0  0  0  0  0  0  0  0
  133.6860  131.4960   59.6280 C   0  0  0  0  0  0  0  0  0  0  0  0
  132.6980  131.6010   58.6200 C   0  0  0  0  0  0  0  0  0  0  0  0
  132.9600  131.3480   57.2520 C   0  0  0  0  0  0  0  0  0  0  0  0
  131.9400  131.4670   56.3110 C   0  0  0  0  0  0  0  0  0  0  0  0
  130.6520  131.8350   56.6930 C   0  0  0  0  0  0  0  0  0  0  0  0
  130.3460  132.0960   58.0350 C   0  0  0  0  0  0  0  0  0  0  0  0
  131.3790  131.9760   59.0000 C   0  0  0  0  0  0  0  0  0  0  0  0
  128.9290  132.4850   58.4130 C   0  0  0  0  0  0  0  0  0  0  0  0
  128.0320  132.5920   57.5710 O   0  0  0  0  0  0  0  0  0  0  0  0
  125.1260  132.2990   61.8610 C   0  0  0  0  0  0  0  0  0  0  0  0
  124.3300  131.6070   62.9940 C   0  0  0  0  0  0  0  0  0  0  0  0
  128.6228  126.9833   68.8982 H   0  0  0  0  0  0  0  0  0  0  0  0
  130.4739  125.7356   67.7988 H   0  0  0  0  0  0  0  0  0  0  0  0
  129.5491  127.6647   64.0453 H   0  0  0  0  0  0  0  0  0  0  0  0
  127.8209  130.2247   65.0880 H   0  0  0  0  0  0  0  0  0  0  0  0
  127.3933  128.9366   63.9091 H   0  0  0  0  0  0  0  0  0  0  0  0
  125.5597  128.1715   65.2874 H   0  0  0  0  0  0  0  0  0  0  0  0
  126.3979  128.8591   63.0676 H   0  0  0  0  0  0  0  0  0  0  0  0
  124.8904  128.9447   62.1014 H   0  0  0  0  0  0  0  0  0  0  0  0
  127.3070  130.8399   61.9256 H   0  0  0  0  0  0  0  0  0  0  0  0
  126.7689  129.6307   60.6895 H   0  0  0  0  0  0  0  0  0  0  0  0
  126.7072  131.2410   59.0886 H   0  0  0  0  0  0  0  0  0  0  0  0
  125.4747  132.5793   59.1802 H   0  0  0  0  0  0  0  0  0  0  0  0
  127.0791  133.9959   59.7703 H   0  0  0  0  0  0  0  0  0  0  0  0
  127.3374  132.9623   61.2800 H   0  0  0  0  0  0  0  0  0  0  0  0
  131.8304  132.3225   62.3755 H   0  0  0  0  0  0  0  0  0  0  0  0
  134.1351  131.6756   61.7322 H   0  0  0  0  0  0  0  0  0  0  0  0
  134.7135  131.2072   59.3619 H   0  0  0  0  0  0  0  0  0  0  0  0
  133.9712  131.0568   56.9315 H   0  0  0  0  0  0  0  0  0  0  0  0
  132.1547  131.2675   55.2508 H   0  0  0  0  0  0  0  0  0  0  0  0
  129.8641  131.9219   55.9303 H   0  0  0  0  0  0  0  0  0  0  0  0
  126.0058  132.7962   62.2955 H   0  0  0  0  0  0  0  0  0  0  0  0
  124.4634  133.0280   61.3717 H   0  0  0  0  0  0  0  0  0  0  0  0
  124.1236  132.3337   63.7936 H   0  0  0  0  0  0  0  0  0  0  0  0
  123.3804  131.2231   62.5929 H   0  0  0  0  0  0  0  0  0  0  0  0
  1  2  2  0
  2  3  1  0
  3  4  1  0
  4  5  2  0
  5  6  1  0
  6  7  2  0
  7  8  1  0
  8  9  2  0
  8 10  1  0
  7 11  1  0
 11 12  2  0
 12 13  1  0
 13 14  1  0
 14 15  1  0
 15 16  2  0
 15 17  1  0
 17 18  1  0
 18 19  1  0
 19 20  1  0
 20 21  1  0
 21 22  1  0
 22 23  1  0
 23 24  1  0
 24 25  2  0
 24 26  1  0
 26 27  2  0
 27 28  1  0
 28 29  2  0
 29 30  1  0
 30 31  2  0
 31 32  1  0
 32 33  2  0
 33 34  1  0
 34 35  2  0
 34 36  1  0
 36 37  2  0
 20 38  1  0
 38 39  1  0
 14  2  1  0
 39 17  1  0
 12  4  1  0
 36 23  1  0
 35 26  1  0
 35 30  1  0
  5 40  1  0
  6 41  1  0
 11 42  1  0
 13 43  1  0
 13 44  1  0
 14 45  1  6
 18 46  1  0
 18 47  1  0
 19 48  1  0
 19 49  1  0
 21 50  1  0
 21 51  1  0
 22 52  1  0
 22 53  1  0
 27 54  1  0
 28 55  1  0
 29 56  1  0
 31 57  1  0
 32 58  1  0
 33 59  1  0
 38 60  1  0
 38 61  1  0
 39 62  1  0
 39 63  1  0
M  CHG  2   8   1  10  -1
M  END
>  <Binding energies>  (1) 
[-10.47]

>  <Ligand effiencies>  (1) 
[-0.2684615384615385]

>  <Interactions>  (1) 
["V-A:HIS:456:CE1:4069, V-A:GLU:543:CG:4907, V-B:GLU:543:CD:9879, V-A:GLU:543:CD:4908, V-B:HIS:456:CE1:9041, V-B:ASP:366:CG:8184, V-A:ASP:366:CB:3211, V-A:TYR:539:CD2:4874, V-A:TYR:539:C:4867, V-A:TYR:539:CE2:4876, V-A:PRO:540:N:4884, V-A:MET:535:CE:4835, V-A:LEU:363:CA:3184, V-A:PRO:540:CB:4885, V-A:LEU:363:CD1:3188, V-A:TYR:531:CE2:4793, V-A:ASP:366:CG:3212, H-A:TYR:484:OH:4347, V-A:PRO:540:CA:4883, H-A:ALA:541:N:4891, H-B:TYR:484:OH:9319, V-A:PRO:540:C:4881, H-B:GLY:454:N:9021, V-B:ARG:545:CZ:9897, V-A:ASN:362:CB:3175, H-B:HIS:456:ND1:9038, V-A:ASN:362:C:3171"]

$$$$
RR26_Rahimova_2017
     RDKit          3D

 59 65  0  0  0  0  0  0  0  0999 V2000
  129.8460  121.0440   61.0400 C   0  0  0  0  0  0  0  0  0  0  0  0
  131.3310  120.7880   61.2660 C   0  0  0  0  0  0  0  0  0  0  0  0
  131.9380  119.7450   60.5590 C   0  0  0  0  0  0  0  0  0  0  0  0
  133.3020  119.4920   60.6960 C   0  0  0  0  0  0  0  0  0  0  0  0
  134.0730  120.2870   61.5380 C   0  0  0  0  0  0  0  0  0  0  0  0
  133.4800  121.3290   62.2470 C   0  0  0  0  0  0  0  0  0  0  0  0
  132.1070  121.5940   62.1280 C   0  0  0  0  0  0  0  0  0  0  0  0
  131.5440  122.7260   62.9390 C   0  0  0  0  0  0  0  0  0  0  0  0
  131.3860  122.6470   64.2570 N   0  0  0  0  0  0  0  0  0  0  0  0
  130.8960  123.8230   64.5410 C   0  0  0  0  0  0  0  0  0  0  0  0
  130.3750  124.6330   65.9720 S   0  0  0  0  0  0  0  0  0  0  0  0
  129.9770  126.0850   64.9780 C   0  0  0  0  0  0  0  0  0  0  0  0
  129.4610  127.2610   65.3990 C   0  0  0  0  0  0  0  0  0  0  0  0
  129.1070  127.6500   66.7550 C   0  0  0  0  0  0  0  0  0  0  0  0
  129.7990  127.3920   67.9280 C   0  0  0  0  0  0  0  0  0  0  0  0
  129.1170  127.9850   68.9600 N   0  0  0  0  0  0  0  0  0  0  0  0
  129.4470  127.9960   70.3400 C   0  0  0  0  0  0  0  0  0  0  0  0
  130.1060  129.0940   70.9120 C   0  0  0  0  0  0  0  0  0  0  0  0
  130.4270  129.0910   72.2660 C   0  0  0  0  0  0  0  0  0  0  0  0
  130.0890  127.9930   73.0530 C   0  0  0  0  0  0  0  0  0  0  0  0
  129.4320  126.8970   72.4980 C   0  0  0  0  0  0  0  0  0  0  0  0
  129.1120  126.8960   71.1440 C   0  0  0  0  0  0  0  0  0  0  0  0
  128.0380  128.6320   68.4930 N   0  0  0  0  0  0  0  0  0  0  0  0
  128.0170  128.4370   67.1890 C   0  0  0  0  0  0  0  0  0  0  0  0
  126.9160  129.0300   66.3640 C   0  0  0  0  0  0  0  0  0  0  0  0
  125.6760  129.3320   66.9470 C   0  0  0  0  0  0  0  0  0  0  0  0
  124.6430  129.8810   66.1860 C   0  0  0  0  0  0  0  0  0  0  0  0
  124.8430  130.1310   64.8300 C   0  0  0  0  0  0  0  0  0  0  0  0
  126.0840  129.8510   64.2400 C   0  0  0  0  0  0  0  0  0  0  0  0
  127.1120  129.2970   65.0010 C   0  0  0  0  0  0  0  0  0  0  0  0
  126.3130  130.0410   62.8910 O   0  0  0  0  0  0  0  0  0  0  0  0
  125.3850  130.9280   62.2590 C   0  0  0  0  0  0  0  0  0  0  0  0
  123.9370  130.6070   62.7030 C   0  0  0  0  0  0  0  0  0  0  0  0
  123.8110  130.7190   64.1250 O   0  0  0  0  0  0  0  0  0  0  0  0
  130.2600  125.8810   63.5600 C   0  0  0  0  0  0  0  0  0  0  0  0
  130.1030  126.6570   62.6160 O   0  0  0  0  0  0  0  0  0  0  0  0
  130.7730  124.5800   63.4360 N   0  0  0  0  0  0  0  0  0  0  0  0
  131.1970  123.8760   62.3830 N   0  0  0  0  0  0  0  0  0  0  0  0
  129.3371  121.1317   62.0112 H   0  0  0  0  0  0  0  0  0  0  0  0
  129.7170  121.9776   60.4728 H   0  0  0  0  0  0  0  0  0  0  0  0
  129.4119  120.2074   60.4728 H   0  0  0  0  0  0  0  0  0  0  0  0
  131.3328  119.1178   59.8879 H   0  0  0  0  0  0  0  0  0  0  0  0
  133.7678  118.6654   60.1394 H   0  0  0  0  0  0  0  0  0  0  0  0
  135.1505  120.0928   61.6438 H   0  0  0  0  0  0  0  0  0  0  0  0
  134.0969  121.9534   62.9100 H   0  0  0  0  0  0  0  0  0  0  0  0
  129.2872  128.0176   64.6197 H   0  0  0  0  0  0  0  0  0  0  0  0
  130.7306  126.8138   68.0158 H   0  0  0  0  0  0  0  0  0  0  0  0
  130.3700  129.9606   70.2881 H   0  0  0  0  0  0  0  0  0  0  0  0
  130.9455  129.9522   72.7127 H   0  0  0  0  0  0  0  0  0  0  0  0
  130.3432  127.9910   74.1232 H   0  0  0  0  0  0  0  0  0  0  0  0
  129.1671  126.0352   73.1282 H   0  0  0  0  0  0  0  0  0  0  0  0
  128.5952  126.0309   70.7029 H   0  0  0  0  0  0  0  0  0  0  0  0
  125.5161  129.1336   68.0171 H   0  0  0  0  0  0  0  0  0  0  0  0
  123.6757  130.1152   66.6544 H   0  0  0  0  0  0  0  0  0  0  0  0
  128.0800  129.0685   64.5312 H   0  0  0  0  0  0  0  0  0  0  0  0
  125.6276  131.9640   62.5380 H   0  0  0  0  0  0  0  0  0  0  0  0
  125.4585  130.8008   61.1689 H   0  0  0  0  0  0  0  0  0  0  0  0
  123.2457  131.3145   62.2217 H   0  0  0  0  0  0  0  0  0  0  0  0
  123.6941  129.5764   62.4048 H   0  0  0  0  0  0  0  0  0  0  0  0
  1  2  1  0
  2  3  2  0
  3  4  1  0
  4  5  2  0
  5  6  1  0
  6  7  2  0
  7  8  1  0
  8  9  1  0
  9 10  2  0
 10 11  1  0
 11 12  1  0
 12 13  2  0
 13 14  1  0
 14 15  2  0
 15 16  1  0
 16 17  1  0
 17 18  2  0
 18 19  1  0
 19 20  2  0
 20 21  1  0
 21 22  2  0
 16 23  1  0
 23 24  2  0
 24 25  1  0
 25 26  2  0
 26 27  1  0
 27 28  2  0
 28 29  1  0
 29 30  2  0
 29 31  1  0
 31 32  1  0
 32 33  1  0
 33 34  1  0
 12 35  1  0
 35 36  2  0
 35 37  1  0
 37 38  1  0
  7  2  1  0
 38  8  2  0
 37 10  1  0
 24 14  1  0
 30 25  1  0
 22 17  1  0
 34 28  1  0
  1 39  1  0
  1 40  1  0
  1 41  1  0
  3 42  1  0
  4 43  1  0
  5 44  1  0
  6 45  1  0
 13 46  1  0
 15 47  1  0
 18 48  1  0
 19 49  1  0
 20 50  1  0
 21 51  1  0
 22 52  1  0
 26 53  1  0
 27 54  1  0
 30 55  1  0
 32 56  1  0
 32 57  1  0
 33 58  1  0
 33 59  1  0
M  END
>  <Binding energies>  (1) 
[-9.56]

>  <Ligand effiencies>  (1) 
[-0.25157894736842107]

>  <Interactions>  (1) 
["V-A:HIS:456:CE1:4069, V-A:GLU:543:CB:4906, V-A:GLU:543:CG:4907, V-B:GLU:543:CD:9879, V-A:GLU:543:CD:4908, V-B:HIS:456:CE1:9041, V-B:GLU:543:CG:9878, V-A:TRP:381:CZ2:3369, V-B:ASP:366:CG:8184, V-A:TRP:381:CH2:3371, V-B:TYR:539:CD2:9845, V-B:TYR:539:CE2:9847, V-B:ALA:541:CB:9863, V-A:LEU:475:CD2:4258, V-A:ILE:369:CG2:3236, H-A:TYR:484:OH:4347, V-A:TYR:484:CE1:4344, V-A:GLY:454:CA:4048, V-A:ILE:369:CD1:3238, V-A:GLU:543:C:4902, H-B:GLY:454:N:9021, V-B:ARG:545:CZ:9897, V-B:ARG:545:CD:9894, V-A:SER:385:C:3404"]

$$$$
RR27_Rahimova_2017
     RDKit          3D

 66 71  0  0  0  0  0  0  0  0999 V2000
  132.3810  129.0900   57.8280 O   0  0  0  0  0  0  0  0  0  0  0  0
  131.3350  129.2130   58.4720 C   0  0  0  0  0  0  0  0  0  0  0  0
  130.8610  130.6490   58.8410 C   0  0  0  0  0  0  0  0  0  0  0  0
  130.6980  131.5660   57.6150 C   0  0  0  0  0  0  0  0  0  0  0  0
  131.7590  131.8180   56.7320 C   0  0  0  0  0  0  0  0  0  0  0  0
  131.5760  132.6510   55.6320 C   0  0  0  0  0  0  0  0  0  0  0  0
  130.3330  133.2350   55.4080 C   0  0  0  0  0  0  0  0  0  0  0  0
  129.2720  132.9970   56.2770 C   0  0  0  0  0  0  0  0  0  0  0  0
  129.4540  132.1650   57.3770 C   0  0  0  0  0  0  0  0  0  0  0  0
  131.6920  131.2470   59.9930 C   0  0  0  0  0  0  0  0  0  0  0  0
  131.1160  131.5640   61.2300 C   0  0  0  0  0  0  0  0  0  0  0  0
  131.8930  132.1140   62.2470 C   0  0  0  0  0  0  0  0  0  0  0  0
  133.2470  132.3540   62.0270 C   0  0  0  0  0  0  0  0  0  0  0  0
  133.8300  132.0550   60.7990 C   0  0  0  0  0  0  0  0  0  0  0  0
  133.0520  131.5070   59.7840 C   0  0  0  0  0  0  0  0  0  0  0  0
  130.5240  128.1480   58.7300 N   0  0  0  0  0  0  0  0  0  0  0  0
  129.4150  128.1880   59.6940 C   0  0  0  0  0  0  0  0  0  0  0  0
  130.0080  127.8290   61.0740 C   0  0  0  0  0  0  0  0  0  0  0  0
  130.7690  126.4640   61.0670 C   0  0  0  0  0  0  0  0  0  0  0  0
  131.4750  126.1120   62.3890 C   0  0  0  0  0  0  0  0  0  0  0  0
  132.8180  125.8790   62.3160 N   0  0  0  0  0  0  0  0  0  0  0  0
  133.4960  125.5900   63.4610 C   0  0  0  0  0  0  0  0  0  0  0  0
  134.8430  125.3420   63.5170 O   0  0  0  0  0  0  0  0  0  0  0  0
  132.7830  125.5400   64.6750 C   0  0  0  0  0  0  0  0  0  0  0  0
  133.1410  125.2930   65.9670 N   0  0  0  0  0  0  0  0  0  0  0  0
  131.9940  125.3760   66.7340 N   0  0  0  0  0  0  0  0  0  0  0  0
  130.9530  125.6770   65.9300 N   0  0  0  0  0  0  0  0  0  0  0  0
  129.6040  125.8020   66.4780 C   0  0  0  0  0  0  0  0  0  0  0  0
  129.4340  126.9860   67.4220 C   0  0  0  0  0  0  0  0  0  0  0  0
  128.4500  127.9480   67.1740 C   0  0  0  0  0  0  0  0  0  0  0  0
  128.2870  129.0260   68.0450 C   0  0  0  0  0  0  0  0  0  0  0  0
  129.1030  129.1460   69.1690 C   0  0  0  0  0  0  0  0  0  0  0  0
  130.0810  128.1840   69.4270 C   0  0  0  0  0  0  0  0  0  0  0  0
  131.0750  128.3160   70.8330 Cl  0  0  0  0  0  0  0  0  0  0  0  0
  130.2500  127.1100   68.5530 C   0  0  0  0  0  0  0  0  0  0  0  0
  131.3940  125.7880   64.6220 C   0  0  0  0  0  0  0  0  0  0  0  0
  130.7040  126.0660   63.5130 N   0  0  0  0  0  0  0  0  0  0  0  0
  131.6880  126.3170   59.8160 C   0  0  0  0  0  0  0  0  0  0  0  0
  131.0080  126.7780   58.5020 C   0  0  0  0  0  0  0  0  0  0  0  0
  129.8383  130.5644   59.2372 H   0  0  0  0  0  0  0  0  0  0  0  0
  132.7407  131.3547   56.9101 H   0  0  0  0  0  0  0  0  0  0  0  0
  132.4105  132.8468   54.9426 H   0  0  0  0  0  0  0  0  0  0  0  0
  130.1876  133.8904   54.5366 H   0  0  0  0  0  0  0  0  0  0  0  0
  128.2934  133.4650   56.0947 H   0  0  0  0  0  0  0  0  0  0  0  0
  128.6160  131.9763   58.0642 H   0  0  0  0  0  0  0  0  0  0  0  0
  130.0451  131.3777   61.3990 H   0  0  0  0  0  0  0  0  0  0  0  0
  131.4393  132.3575   63.2190 H   0  0  0  0  0  0  0  0  0  0  0  0
  133.8617  132.7840   62.8315 H   0  0  0  0  0  0  0  0  0  0  0  0
  134.8995  132.2508   60.6320 H   0  0  0  0  0  0  0  0  0  0  0  0
  133.5086  131.2763   58.8102 H   0  0  0  0  0  0  0  0  0  0  0  0
  128.9742  129.1954   59.7221 H   0  0  0  0  0  0  0  0  0  0  0  0
  128.6209  127.4816   59.4105 H   0  0  0  0  0  0  0  0  0  0  0  0
  130.7099  128.6217   61.3724 H   0  0  0  0  0  0  0  0  0  0  0  0
  129.1710  127.7390   61.7820 H   0  0  0  0  0  0  0  0  0  0  0  0
  129.9862  125.6959   60.9821 H   0  0  0  0  0  0  0  0  0  0  0  0
  135.3430  125.8740   62.8940 H   0  0  0  0  0  0  0  0  0  0  0  0
  128.8990  125.9204   65.6419 H   0  0  0  0  0  0  0  0  0  0  0  0
  129.4097  124.8922   67.0650 H   0  0  0  0  0  0  0  0  0  0  0  0
  127.8025  127.8547   66.2897 H   0  0  0  0  0  0  0  0  0  0  0  0
  127.5136  129.7821   67.8445 H   0  0  0  0  0  0  0  0  0  0  0  0
  128.9762  129.9986   69.8524 H   0  0  0  0  0  0  0  0  0  0  0  0
  131.0272  126.3577   68.7531 H   0  0  0  0  0  0  0  0  0  0  0  0
  132.5923  126.9233   59.9732 H   0  0  0  0  0  0  0  0  0  0  0  0
  131.9217  125.2478   59.7057 H   0  0  0  0  0  0  0  0  0  0  0  0
  131.7340  126.7658   57.6757 H   0  0  0  0  0  0  0  0  0  0  0  0
  130.1793  126.1074   58.2309 H   0  0  0  0  0  0  0  0  0  0  0  0
  1  2  2  0
  2  3  1  0
  3  4  1  0
  4  5  2  0
  5  6  1  0
  6  7  2  0
  7  8  1  0
  8  9  2  0
  3 10  1  0
 10 11  2  0
 11 12  1  0
 12 13  2  0
 13 14  1  0
 14 15  2  0
  2 16  1  0
 16 17  1  0
 17 18  1  0
 18 19  1  0
 19 20  1  0
 20 21  2  0
 21 22  1  0
 22 23  1  0
 22 24  2  0
 24 25  1  0
 25 26  2  0
 26 27  1  0
 27 28  1  0
 28 29  1  0
 29 30  2  0
 30 31  1  0
 31 32  2  0
 32 33  1  0
 33 34  1  0
 33 35  2  0
 27 36  1  0
 36 37  2  0
 19 38  1  0
 38 39  1  0
  9  4  1  0
 15 10  1  0
 39 16  1  0
 37 20  1  0
 36 24  1  0
 35 29  1  0
  3 40  1  0
  5 41  1  0
  6 42  1  0
  7 43  1  0
  8 44  1  0
  9 45  1  0
 11 46  1  0
 12 47  1  0
 13 48  1  0
 14 49  1  0
 15 50  1  0
 17 51  1  0
 17 52  1  0
 18 53  1  0
 18 54  1  0
 19 55  1  0
 23 56  1  0
 28 57  1  0
 28 58  1  0
 30 59  1  0
 31 60  1  0
 32 61  1  0
 35 62  1  0
 38 63  1  0
 38 64  1  0
 39 65  1  0
 39 66  1  0
M  END
>  <Binding energies>  (1) 
[-10.55]

>  <Ligand effiencies>  (1) 
[-0.26375000000000004]

>  <Interactions>  (1) 
["V-A:HIS:456:CE1:4069, V-A:GLU:543:CB:4906, V-A:GLU:543:CG:4907, V-B:GLU:543:CD:9879, V-A:GLU:543:CD:4908, V-B:HIS:456:CE1:9041, V-B:GLU:543:CB:9877, V-B:GLU:543:CG:9878, V-A:ASP:366:CB:3211, V-A:ARG:545:CZ:4926, V-A:TYR:539:CD2:4874, V-A:TYR:539:CE2:4876, H-A:TYR:531:OH:4795, V-A:TYR:539:CG:4872, V-A:MET:535:CE:4835, H-A:GLY:454:N:4049, V-A:LEU:363:CA:3184, V-A:PRO:540:CB:4885, V-A:LEU:363:CD1:3188, V-A:ASP:366:CG:3212, H-A:TYR:484:OH:4347, V-A:PRO:540:CA:4883, H-A:ARG:545:NH1:4927, H-A:ARG:545:NH2:4928, H-A:ASP:366:OD1:3213, V-A:PRO:540:C:4881, V-A:TYR:539:CZ:4877, H-A:ARG:545:NE:4924, V-A:ILE:538:CB:4862, V-A:ILE:538:CA:4860, V-A:ILE:538:CG2:4863, V-A:ASN:362:CB:3175, V-A:ALA:541:CA:4890, V-A:TYR:539:CE1:4875, V-A:TYR:539:CD1:4873, V-A:ILE:538:C:4858, V-A:ALA:541:C:4888, V-A:ASN:362:C:3171"]

$$$$
RR27_Rahimova_2017-again1
     RDKit          3D

 66 71  0  0  0  0  0  0  0  0999 V2000
  132.0590  124.9430   60.8500 O   0  0  0  0  0  0  0  0  0  0  0  0
  130.8730  125.1740   61.1080 C   0  0  0  0  0  0  0  0  0  0  0  0
  130.0710  124.1000   61.9040 C   0  0  0  0  0  0  0  0  0  0  0  0
  130.0920  124.3540   63.4240 C   0  0  0  0  0  0  0  0  0  0  0  0
  129.8760  123.3260   64.3540 C   0  0  0  0  0  0  0  0  0  0  0  0
  129.9050  123.5940   65.7190 C   0  0  0  0  0  0  0  0  0  0  0  0
  130.1490  124.8910   66.1630 C   0  0  0  0  0  0  0  0  0  0  0  0
  130.3670  125.9210   65.2540 C   0  0  0  0  0  0  0  0  0  0  0  0
  130.3390  125.6530   63.8880 C   0  0  0  0  0  0  0  0  0  0  0  0
  130.4750  122.6670   61.5100 C   0  0  0  0  0  0  0  0  0  0  0  0
  129.5220  121.7290   61.0840 C   0  0  0  0  0  0  0  0  0  0  0  0
  129.9080  120.4330   60.7530 C   0  0  0  0  0  0  0  0  0  0  0  0
  131.2480  120.0680   60.8420 C   0  0  0  0  0  0  0  0  0  0  0  0
  132.2050  120.9870   61.2640 C   0  0  0  0  0  0  0  0  0  0  0  0
  131.8180  122.2810   61.6030 C   0  0  0  0  0  0  0  0  0  0  0  0
  130.3190  126.3950   60.8550 N   0  0  0  0  0  0  0  0  0  0  0  0
  128.8720  126.6540   60.8730 C   0  0  0  0  0  0  0  0  0  0  0  0
  128.3110  126.2850   59.4800 C   0  0  0  0  0  0  0  0  0  0  0  0
  129.1550  126.7740   58.2570 C   0  0  0  0  0  0  0  0  0  0  0  0
  128.9570  125.9230   56.9990 C   0  0  0  0  0  0  0  0  0  0  0  0
  128.1760  124.8880   57.0200 N   0  0  0  0  0  0  0  0  0  0  0  0
  128.0800  124.2030   55.8470 C   0  0  0  0  0  0  0  0  0  0  0  0
  128.7330  124.5060   54.6620 C   0  0  0  0  0  0  0  0  0  0  0  0
  128.4210  123.6270   53.7260 N   0  0  0  0  0  0  0  0  0  0  0  0
  127.5370  122.7130   54.2910 N   0  0  0  0  0  0  0  0  0  0  0  0
  127.3330  123.0890   55.5650 N   0  0  0  0  0  0  0  0  0  0  0  0
  126.4640  122.3160   56.4440 C   0  0  0  0  0  0  0  0  0  0  0  0
  125.9240  123.1200   57.6170 C   0  0  0  0  0  0  0  0  0  0  0  0
  124.7980  123.9340   57.4520 C   0  0  0  0  0  0  0  0  0  0  0  0
  124.3060  124.6790   58.5250 C   0  0  0  0  0  0  0  0  0  0  0  0
  124.9360  124.6130   59.7670 C   0  0  0  0  0  0  0  0  0  0  0  0
  126.0560  123.8000   59.9400 C   0  0  0  0  0  0  0  0  0  0  0  0
  126.8370  123.7220   61.4770 Cl  0  0  0  0  0  0  0  0  0  0  0  0
  126.5480  123.0530   58.8690 C   0  0  0  0  0  0  0  0  0  0  0  0
  129.6150  125.6720   54.6110 C   0  0  0  0  0  0  0  0  0  0  0  0
  130.2680  126.0980   53.6610 O   0  0  0  0  0  0  0  0  0  0  0  0
  129.6350  126.2930   55.8420 N   0  0  0  0  0  0  0  0  0  0  0  0
  130.6620  127.0700   58.5390 C   0  0  0  0  0  0  0  0  0  0  0  0
  131.0340  127.3650   60.0140 C   0  0  0  0  0  0  0  0  0  0  0  0
  129.0158  124.2024   61.6106 H   0  0  0  0  0  0  0  0  0  0  0  0
  129.6826  122.3020   64.0019 H   0  0  0  0  0  0  0  0  0  0  0  0
  129.7359  122.7846   66.4444 H   0  0  0  0  0  0  0  0  0  0  0  0
  130.1695  125.1029   67.2422 H   0  0  0  0  0  0  0  0  0  0  0  0
  130.5606  126.9427   65.6127 H   0  0  0  0  0  0  0  0  0  0  0  0
  130.5120  126.4665   63.1681 H   0  0  0  0  0  0  0  0  0  0  0  0
  128.4636  122.0196   61.0112 H   0  0  0  0  0  0  0  0  0  0  0  0
  129.1569  119.7005   60.4225 H   0  0  0  0  0  0  0  0  0  0  0  0
  131.5536  119.0451   60.5768 H   0  0  0  0  0  0  0  0  0  0  0  0
  133.2627  120.6920   61.3294 H   0  0  0  0  0  0  0  0  0  0  0  0
  132.5721  123.0047   61.9461 H   0  0  0  0  0  0  0  0  0  0  0  0
  128.3906  126.0372   61.6462 H   0  0  0  0  0  0  0  0  0  0  0  0
  128.6727  127.7115   61.1008 H   0  0  0  0  0  0  0  0  0  0  0  0
  128.2391  125.1888   59.4243 H   0  0  0  0  0  0  0  0  0  0  0  0
  127.3424  126.8004   59.4009 H   0  0  0  0  0  0  0  0  0  0  0  0
  128.7226  127.7643   58.0512 H   0  0  0  0  0  0  0  0  0  0  0  0
  125.6129  121.9443   55.8545 H   0  0  0  0  0  0  0  0  0  0  0  0
  127.0687  121.4975   56.8616 H   0  0  0  0  0  0  0  0  0  0  0  0
  124.2987  123.9870   56.4733 H   0  0  0  0  0  0  0  0  0  0  0  0
  123.4210  125.3183   58.3906 H   0  0  0  0  0  0  0  0  0  0  0  0
  124.5494  125.2027   60.6113 H   0  0  0  0  0  0  0  0  0  0  0  0
  127.4290  122.4093   59.0086 H   0  0  0  0  0  0  0  0  0  0  0  0
  130.2250  127.1100   55.8930 H   0  0  0  0  0  0  0  0  0  0  0  0
  131.2430  126.1942   58.2145 H   0  0  0  0  0  0  0  0  0  0  0  0
  130.8904  127.9932   57.9862 H   0  0  0  0  0  0  0  0  0  0  0  0
  132.1194  127.2564   60.1560 H   0  0  0  0  0  0  0  0  0  0  0  0
  130.7523  128.3931   60.2853 H   0  0  0  0  0  0  0  0  0  0  0  0
  1  2  2  0
  2  3  1  0
  3  4  1  0
  4  5  2  0
  5  6  1  0
  6  7  2  0
  7  8  1  0
  8  9  2  0
  3 10  1  0
 10 11  2  0
 11 12  1  0
 12 13  2  0
 13 14  1  0
 14 15  2  0
  2 16  1  0
 16 17  1  0
 17 18  1  0
 18 19  1  0
 19 20  1  0
 20 21  2  0
 21 22  1  0
 22 23  2  0
 23 24  1  0
 24 25  2  0
 25 26  1  0
 26 27  1  0
 27 28  1  0
 28 29  2  0
 29 30  1  0
 30 31  2  0
 31 32  1  0
 32 33  1  0
 32 34  2  0
 23 35  1  0
 35 36  2  0
 35 37  1  0
 19 38  1  0
 38 39  1  0
  9  4  1  0
 15 10  1  0
 39 16  1  0
 37 20  1  0
 26 22  1  0
 34 28  1  0
  3 40  1  0
  5 41  1  0
  6 42  1  0
  7 43  1  0
  8 44  1  0
  9 45  1  0
 11 46  1  0
 12 47  1  0
 13 48  1  0
 14 49  1  0
 15 50  1  0
 17 51  1  0
 17 52  1  0
 18 53  1  0
 18 54  1  0
 19 55  1  0
 27 56  1  0
 27 57  1  0
 29 58  1  0
 30 59  1  0
 31 60  1  0
 34 61  1  0
 37 62  1  0
 38 63  1  0
 38 64  1  0
 39 65  1  0
 39 66  1  0
M  END
>  <Binding energies>  (1) 
[-10.09]

>  <Ligand effiencies>  (1) 
[-0.25225]

>  <Interactions>  (1) 
["V-B:GLU:543:CD:9879, V-B:GLU:543:CB:9877, V-B:GLU:543:CG:9878, V-B:ASP:366:CG:8184, V-B:LEU:363:CA:8156, V-B:LEU:363:CD1:8160, V-A:TRP:381:CH2:3371, V-B:TYR:539:CD2:9845, V-B:PRO:540:CA:9854, V-B:TYR:539:CE2:9847, V-B:ALA:541:CB:9863, V-B:PRO:540:N:9855, V-A:LEU:475:CD2:4258, V-B:TYR:539:CE1:9846, V-B:PRO:540:CB:9856, V-A:ILE:369:CG2:3236, V-B:TYR:539:CZ:9848, V-B:TYR:539:C:9838, V-B:PRO:540:CD:9858, H-A:TYR:531:OH:4795, V-A:TYR:531:CE1:4792, V-B:TYR:539:CD1:9844, V-A:TYR:531:CZ:4794, V-B:ASP:366:CB:8183, V-A:ASP:366:CG:3212, V-A:TYR:484:CE1:4344, V-A:TYR:484:CZ:4346, H-A:ASN:370:ND2:3247"]

$$$$
RR28_Rahimova_2017
     RDKit          3D

 82 85  0  0  0  0  0  0  0  0999 V2000
  134.5590  125.3740   66.7750 C   0  0  0  0  0  0  0  0  0  0  0  0
  133.6050  125.2260   65.5950 C   0  0  0  0  0  0  0  0  0  0  0  0
  134.0190  125.4160   64.4530 O   0  0  0  0  0  0  0  0  0  0  0  0
  132.3340  124.8880   65.8920 N   0  0  0  0  0  0  0  0  0  0  0  0
  131.2000  124.6850   64.9630 C   0  0  0  0  0  0  0  0  0  0  0  0
  130.2280  125.8910   65.1110 C   0  0  0  0  0  0  0  0  0  0  0  0
  129.7800  126.5580   63.9600 C   0  0  0  0  0  0  0  0  0  0  0  0
  128.9140  127.6430   64.0540 C   0  0  0  0  0  0  0  0  0  0  0  0
  128.4770  128.0880   65.3030 C   0  0  0  0  0  0  0  0  0  0  0  0
  127.5290  129.2840   65.3870 C   0  0  0  0  0  0  0  0  0  0  0  0
  126.3530  129.0410   64.8040 F   0  0  0  0  0  0  0  0  0  0  0  0
  127.2990  129.6040   66.6610 F   0  0  0  0  0  0  0  0  0  0  0  0
  128.0890  130.3290   64.7770 F   0  0  0  0  0  0  0  0  0  0  0  0
  128.9170  127.4330   66.4570 C   0  0  0  0  0  0  0  0  0  0  0  0
  129.7830  126.3470   66.3610 C   0  0  0  0  0  0  0  0  0  0  0  0
  130.5210  123.2910   65.2200 C   0  0  0  0  0  0  0  0  0  0  0  0
  131.4420  122.0900   64.8880 C   0  0  0  0  0  0  0  0  0  0  0  0
  131.8090  122.2260   63.4680 N   0  0  0  0  0  0  0  0  0  0  0  0
  131.0830  121.5920   62.5070 C   0  0  0  0  0  0  0  0  0  0  0  0
  130.2150  120.7610   62.7840 O   0  0  0  0  0  0  0  0  0  0  0  0
  131.4690  121.7970   61.0220 C   0  0  0  0  0  0  0  0  0  0  0  0
  130.2850  121.9460   60.0280 C   0  0  0  0  0  0  0  0  0  0  0  0
  129.0670  122.7300   60.5700 C   0  0  0  0  0  0  0  0  0  0  0  0
  128.3620  122.1860   61.4250 O   0  0  0  0  0  0  0  0  0  0  0  0
  128.8820  124.0300   60.2030 N   0  0  0  0  0  0  0  0  0  0  0  0
  129.4680  124.6180   58.9920 C   0  0  0  0  0  0  0  0  0  0  0  0
  128.4980  124.3000   57.8330 C   0  0  0  0  0  0  0  0  0  0  0  0
  127.0280  124.8020   58.0510 C   0  0  0  0  0  0  0  0  0  0  0  0
  126.1320  124.1080   57.1020 N   0  0  0  0  0  0  0  0  0  0  0  0
  126.1670  122.8160   56.7190 C   0  0  0  0  0  0  0  0  0  0  0  0
  125.1160  122.3850   55.7010 C   0  0  0  0  0  0  0  0  0  0  0  0
  126.9820  121.9950   57.1370 O   0  0  0  0  0  0  0  0  0  0  0  0
  126.9970  126.3260   57.7010 C   0  0  0  0  0  0  0  0  0  0  0  0
  126.4840  127.2980   58.5760 C   0  0  0  0  0  0  0  0  0  0  0  0
  126.4760  128.6450   58.2260 C   0  0  0  0  0  0  0  0  0  0  0  0
  126.9780  129.0560   56.9890 C   0  0  0  0  0  0  0  0  0  0  0  0
  126.9800  130.5310   56.5920 C   0  0  0  0  0  0  0  0  0  0  0  0
  126.3930  130.6990   55.4050 F   0  0  0  0  0  0  0  0  0  0  0  0
  126.3050  131.2300   57.5040 F   0  0  0  0  0  0  0  0  0  0  0  0
  128.2150  131.0300   56.5130 F   0  0  0  0  0  0  0  0  0  0  0  0
  127.4830  128.1010   56.1050 C   0  0  0  0  0  0  0  0  0  0  0  0
  127.4900  126.7550   56.4590 C   0  0  0  0  0  0  0  0  0  0  0  0
  126.5960  124.4980   59.5380 C   0  0  0  0  0  0  0  0  0  0  0  0
  127.6740  124.7500   60.6260 C   0  0  0  0  0  0  0  0  0  0  0  0
  132.6270  123.4150   63.1890 C   0  0  0  0  0  0  0  0  0  0  0  0
  131.7480  124.6540   63.4990 C   0  0  0  0  0  0  0  0  0  0  0  0
  133.9952  125.2865   67.7155 H   0  0  0  0  0  0  0  0  0  0  0  0
  135.3227  124.5836   66.7304 H   0  0  0  0  0  0  0  0  0  0  0  0
  135.0473  126.3586   66.7304 H   0  0  0  0  0  0  0  0  0  0  0  0
  132.1050  124.7780   66.8690 H   0  0  0  0  0  0  0  0  0  0  0  0
  130.1183  126.2182   62.9700 H   0  0  0  0  0  0  0  0  0  0  0  0
  128.5724  128.1521   63.1407 H   0  0  0  0  0  0  0  0  0  0  0  0
  128.5776  127.7771   67.4451 H   0  0  0  0  0  0  0  0  0  0  0  0
  130.1225  125.8403   67.2764 H   0  0  0  0  0  0  0  0  0  0  0  0
  130.2379  123.2309   66.2812 H   0  0  0  0  0  0  0  0  0  0  0  0
  129.6481  123.2261   64.5538 H   0  0  0  0  0  0  0  0  0  0  0  0
  132.3434  122.1165   65.5179 H   0  0  0  0  0  0  0  0  0  0  0  0
  130.9332  121.1334   65.0780 H   0  0  0  0  0  0  0  0  0  0  0  0
  132.0815  122.7083   60.9556 H   0  0  0  0  0  0  0  0  0  0  0  0
  131.9961  120.8793   60.7219 H   0  0  0  0  0  0  0  0  0  0  0  0
  130.6551  122.4677   59.1331 H   0  0  0  0  0  0  0  0  0  0  0  0
  129.9264  120.9263   59.8242 H   0  0  0  0  0  0  0  0  0  0  0  0
  129.5730  125.7065   59.1112 H   0  0  0  0  0  0  0  0  0  0  0  0
  130.4690  124.2064   58.7957 H   0  0  0  0  0  0  0  0  0  0  0  0
  128.8892  124.7721   56.9197 H   0  0  0  0  0  0  0  0  0  0  0  0
  128.4446  123.2034   57.7651 H   0  0  0  0  0  0  0  0  0  0  0  0
  125.4370  124.6970   56.6670 H   0  0  0  0  0  0  0  0  0  0  0  0
  124.2230  122.0188   56.2286 H   0  0  0  0  0  0  0  0  0  0  0  0
  124.8428  123.2437   55.0701 H   0  0  0  0  0  0  0  0  0  0  0  0
  125.5243  121.5817   55.0701 H   0  0  0  0  0  0  0  0  0  0  0  0
  126.0825  126.9898   59.5526 H   0  0  0  0  0  0  0  0  0  0  0  0
  126.0722  129.3900   58.9273 H   0  0  0  0  0  0  0  0  0  0  0  0
  127.8764  128.4130   55.1263 H   0  0  0  0  0  0  0  0  0  0  0  0
  127.8896  126.0132   55.7518 H   0  0  0  0  0  0  0  0  0  0  0  0
  125.7275  125.1312   59.7720 H   0  0  0  0  0  0  0  0  0  0  0  0
  126.3887  123.4182   59.5712 H   0  0  0  0  0  0  0  0  0  0  0  0
  127.8844  125.8266   60.7081 H   0  0  0  0  0  0  0  0  0  0  0  0
  127.3303  124.3990   61.6102 H   0  0  0  0  0  0  0  0  0  0  0  0
  133.5214  123.4168   63.8294 H   0  0  0  0  0  0  0  0  0  0  0  0
  132.9616  123.4238   62.1412 H   0  0  0  0  0  0  0  0  0  0  0  0
  132.3523  125.5584   63.3351 H   0  0  0  0  0  0  0  0  0  0  0  0
  130.8760  124.6052   62.8302 H   0  0  0  0  0  0  0  0  0  0  0  0
  1  2  1  0
  2  3  2  0
  2  4  1  0
  4  5  1  0
  5  6  1  0
  6  7  2  0
  7  8  1  0
  8  9  2  0
  9 10  1  0
 10 11  1  0
 10 12  1  0
 10 13  1  0
  9 14  1  0
 14 15  2  0
  5 16  1  0
 16 17  1  0
 17 18  1  0
 18 19  1  0
 19 20  2  0
 19 21  1  0
 21 22  1  0
 22 23  1  0
 23 24  2  0
 23 25  1  0
 25 26  1  0
 26 27  1  0
 27 28  1  0
 28 29  1  0
 29 30  1  0
 30 31  1  0
 30 32  2  0
 28 33  1  0
 33 34  2  0
 34 35  1  0
 35 36  2  0
 36 37  1  0
 37 38  1  0
 37 39  1  0
 37 40  1  0
 36 41  1  0
 41 42  2  0
 28 43  1  0
 43 44  1  0
 18 45  1  0
 45 46  1  0
 46  5  1  0
 15  6  1  0
 44 25  1  0
 42 33  1  0
  1 47  1  0
  1 48  1  0
  1 49  1  0
  4 50  1  0
  7 51  1  0
  8 52  1  0
 14 53  1  0
 15 54  1  0
 16 55  1  0
 16 56  1  0
 17 57  1  0
 17 58  1  0
 21 59  1  0
 21 60  1  0
 22 61  1  0
 22 62  1  0
 26 63  1  0
 26 64  1  0
 27 65  1  0
 27 66  1  0
 29 67  1  0
 31 68  1  0
 31 69  1  0
 31 70  1  0
 34 71  1  0
 35 72  1  0
 41 73  1  0
 42 74  1  0
 43 75  1  0
 43 76  1  0
 44 77  1  0
 44 78  1  0
 45 79  1  0
 45 80  1  0
 46 81  1  0
 46 82  1  0
M  END
>  <Binding energies>  (1) 
[-9.48]

>  <Ligand effiencies>  (1) 
[-0.1975]

>  <Interactions>  (1) 
["V-A:HIS:456:CE1:4069, V-A:GLU:543:CG:4907, V-B:GLU:543:CD:9879, V-A:GLU:543:CD:4908, V-B:GLU:543:CG:9878, V-B:MET:535:CE:9806, V-B:LEU:363:CD1:8160, V-B:TYR:539:CD2:9845, V-B:PRO:540:CA:9854, V-B:TYR:539:CE2:9847, V-B:ALA:541:CB:9863, V-B:PRO:540:N:9855, V-A:LEU:475:CD2:4258, H-B:TYR:539:N:9841, H-B:ALA:541:N:9862, V-B:TYR:539:CZ:9848, V-B:PRO:540:CD:9858, V-A:ARG:545:CZ:4926, V-B:ILE:538:CA:9831, V-A:TYR:539:CE2:4876, H-B:TYR:531:OH:9766, V-A:MET:535:CE:4835, H-A:GLY:454:N:4049, V-B:ILE:538:CG2:9834, H-A:TYR:484:OH:4347, V-A:TYR:484:CE1:4344, V-B:ILE:538:CD1:9836, V-A:TYR:484:CZ:4346, H-A:ARG:545:NH1:4927, H-A:ARG:545:NH2:4928, V-A:TYR:539:CZ:4877, H-A:ARG:545:NE:4924, V-A:ARG:545:CD:4923, V-A:ILE:455:C:4051, V-A:ARG:545:CG:4922, V-B:ARG:545:CZ:9897, V-A:LEU:475:CD1:4257, V-B:TYR:531:CE1:9763, H-B:MET:535:SD:9805, V-A:GLY:453:C:4041, V-A:GLY:453:CA:4043"]

$$$$
RR29_Rahimova_2017
     RDKit          3D

 35 36  0  0  0  0  0  0  0  0999 V2000
  128.7000  121.4880   60.5880 C   0  0  0  0  0  0  0  0  0  0  0  0
  128.3530  122.9130   60.9910 C   0  0  0  0  0  0  0  0  0  0  0  0
  129.4360  123.9370   60.5800 C   0  0  0  0  0  0  0  0  0  0  0  0
  129.7650  123.8460   59.0760 C   0  0  0  0  0  0  0  0  0  0  0  0
  128.5140  123.8400   58.2100 C   0  0  0  0  0  0  0  0  0  0  0  0
  127.8710  125.0540   57.8960 C   0  0  0  0  0  0  0  0  0  0  0  0
  126.7170  125.0720   57.0990 C   0  0  0  0  0  0  0  0  0  0  0  0
  126.2310  123.8510   56.6460 C   0  0  0  0  0  0  0  0  0  0  0  0
  126.8490  122.6710   56.9500 C   0  0  0  0  0  0  0  0  0  0  0  0
  128.0000  122.6240   57.7280 C   0  0  0  0  0  0  0  0  0  0  0  0
  126.1830  121.6480   56.3510 O   0  0  0  0  0  0  0  0  0  0  0  0
  125.0040  122.2100   55.8400 C   0  0  0  0  0  0  0  0  0  0  0  0
  125.1590  123.6050   55.8470 O   0  0  0  0  0  0  0  0  0  0  0  0
  127.2530  123.1250   61.6130 N   0  0  0  0  0  0  0  0  0  0  0  0
  126.9770  124.4010   62.0540 N   0  0  0  0  0  0  0  0  0  0  0  0
  126.3210  125.3220   61.3290 C   0  0  0  0  0  0  0  0  0  0  0  0
  125.8370  125.1220   60.1030 N   0  0  0  0  0  0  0  0  0  0  0  0
  126.1400  126.5180   61.8690 N   0  0  0  0  0  0  0  0  0  0  0  0
  128.8487  120.8775   61.4909 H   0  0  0  0  0  0  0  0  0  0  0  0
  127.8785  121.0655   59.9908 H   0  0  0  0  0  0  0  0  0  0  0  0
  129.6238  121.4905   59.9908 H   0  0  0  0  0  0  0  0  0  0  0  0
  129.0721  124.9504   60.8047 H   0  0  0  0  0  0  0  0  0  0  0  0
  130.3523  123.7130   61.1458 H   0  0  0  0  0  0  0  0  0  0  0  0
  130.3844  124.7110   58.7965 H   0  0  0  0  0  0  0  0  0  0  0  0
  130.2970  122.8985   58.9049 H   0  0  0  0  0  0  0  0  0  0  0  0
  128.2795  126.0000   58.2810 H   0  0  0  0  0  0  0  0  0  0  0  0
  126.2155  126.0167   56.8421 H   0  0  0  0  0  0  0  0  0  0  0  0
  128.4918  121.6675   57.9586 H   0  0  0  0  0  0  0  0  0  0  0  0
  124.8354  121.8568   54.8120 H   0  0  0  0  0  0  0  0  0  0  0  0
  124.1393  121.9151   56.4526 H   0  0  0  0  0  0  0  0  0  0  0  0
  127.3220  124.6480   62.9710 H   0  0  0  0  0  0  0  0  0  0  0  0
  125.1030  125.7160   59.7430 H   0  0  0  0  0  0  0  0  0  0  0  0
  126.2010  124.3660   59.5410 H   0  0  0  0  0  0  0  0  0  0  0  0
  126.7370  126.8270   62.6230 H   0  0  0  0  0  0  0  0  0  0  0  0
  125.4090  127.1210   61.5220 H   0  0  0  0  0  0  0  0  0  0  0  0
  1  2  1  0
  2  3  1  0
  3  4  1  0
  4  5  1  0
  5  6  2  0
  6  7  1  0
  7  8  2  0
  8  9  1  0
  9 10  2  0
  9 11  1  0
 11 12  1  0
 12 13  1  0
  2 14  2  0
 14 15  1  0
 15 16  1  0
 16 17  1  0
 16 18  2  0
 10  5  1  0
 13  8  1  0
  1 19  1  0
  1 20  1  0
  1 21  1  0
  3 22  1  0
  3 23  1  0
  4 24  1  0
  4 25  1  0
  6 26  1  0
  7 27  1  0
 10 28  1  0
 12 29  1  0
 12 30  1  0
 15 31  1  0
 17 32  1  0
 17 33  1  0
 18 34  1  0
 18 35  1  0
M  CHG  1  18   1
M  END
>  <Binding energies>  (1) 
[-7.85]

>  <Ligand effiencies>  (1) 
[-0.34130434782608693]

>  <Interactions>  (1) 
["V-B:GLU:543:CD:9879, V-B:GLU:543:CG:9878, V-B:MET:535:CE:9806, V-B:ASP:366:CG:8184, V-B:LEU:363:CD1:8160, V-B:TYR:539:CD2:9845, V-B:PRO:540:CA:9854, V-B:TYR:539:CE2:9847, V-B:PRO:540:C:9852, V-B:ALA:541:CB:9863, V-B:PRO:540:N:9855, V-B:TYR:539:CE1:9846, H-B:TYR:539:N:9841, H-B:ALA:541:N:9862, V-B:TYR:539:CZ:9848, V-B:TYR:539:C:9838, V-B:PRO:540:CD:9858, V-B:ILE:538:CA:9831, V-B:TYR:539:CD1:9844, V-B:ILE:538:CG2:9834, V-B:ILE:538:CD1:9836, V-B:TYR:539:CG:9843, H-B:ASP:366:OD2:8186, V-B:ARG:545:CZ:9897, H-B:GLU:543:OE2:9881, H-B:ASP:366:OD1:8185"]

$$$$
RR29_Rahimova_2017-again1
     RDKit          3D

 34 35  0  0  0  0  0  0  0  0999 V2000
  129.5190  122.7760   62.8920 C   0  0  0  0  0  0  0  0  0  0  0  0
  128.4520  122.8140   61.8090 C   0  0  0  0  0  0  0  0  0  0  0  0
  128.9970  122.5080   60.4000 C   0  0  0  0  0  0  0  0  0  0  0  0
  129.0630  123.7800   59.5300 C   0  0  0  0  0  0  0  0  0  0  0  0
  128.3680  123.5980   58.1890 C   0  0  0  0  0  0  0  0  0  0  0  0
  128.7320  124.4060   57.0930 C   0  0  0  0  0  0  0  0  0  0  0  0
  128.1060  124.2540   55.8480 C   0  0  0  0  0  0  0  0  0  0  0  0
  127.1130  123.2870   55.7410 C   0  0  0  0  0  0  0  0  0  0  0  0
  126.7540  122.5020   56.8010 C   0  0  0  0  0  0  0  0  0  0  0  0
  127.3650  122.6240   58.0440 C   0  0  0  0  0  0  0  0  0  0  0  0
  125.7900  121.6290   56.4080 O   0  0  0  0  0  0  0  0  0  0  0  0
  125.4070  122.0420   55.1240 C   0  0  0  0  0  0  0  0  0  0  0  0
  126.3850  122.9300   54.6510 O   0  0  0  0  0  0  0  0  0  0  0  0
  127.2400  123.1020   62.1300 N   0  0  0  0  0  0  0  0  0  0  0  0
  126.3690  123.1520   61.1740 N   0  0  0  0  0  0  0  0  0  0  0  0
  125.8730  124.2990   60.8880 C   0  0  0  0  0  0  0  0  0  0  0  0
  126.1560  125.5540   61.4970 N   0  0  0  0  0  0  0  0  0  0  0  0
  124.9200  124.4480   59.8570 N   0  0  0  0  0  0  0  0  0  0  0  0
  129.0382  122.7931   63.8812 H   0  0  0  0  0  0  0  0  0  0  0  0
  130.1133  121.8561   62.7891 H   0  0  0  0  0  0  0  0  0  0  0  0
  130.1773  123.6513   62.7891 H   0  0  0  0  0  0  0  0  0  0  0  0
  130.0083  122.0853   60.4921 H   0  0  0  0  0  0  0  0  0  0  0  0
  128.3161  121.7933   59.9147 H   0  0  0  0  0  0  0  0  0  0  0  0
  128.5767  124.6048   60.0716 H   0  0  0  0  0  0  0  0  0  0  0  0
  130.1229  123.9989   59.3332 H   0  0  0  0  0  0  0  0  0  0  0  0
  129.5177  125.1659   57.2162 H   0  0  0  0  0  0  0  0  0  0  0  0
  128.3901  124.8771   54.9872 H   0  0  0  0  0  0  0  0  0  0  0  0
  127.0730  121.9795   58.8862 H   0  0  0  0  0  0  0  0  0  0  0  0
  125.3374  121.1710   54.4557 H   0  0  0  0  0  0  0  0  0  0  0  0
  124.4235  122.5338   55.1553 H   0  0  0  0  0  0  0  0  0  0  0  0
  126.8110  125.6430   62.2610 H   0  0  0  0  0  0  0  0  0  0  0  0
  125.7110  126.4110   61.2070 H   0  0  0  0  0  0  0  0  0  0  0  0
  124.5920  123.6640   59.3130 H   0  0  0  0  0  0  0  0  0  0  0  0
  124.5150  125.3410   59.6180 H   0  0  0  0  0  0  0  0  0  0  0  0
  1  2  1  0
  2  3  1  0
  3  4  1  0
  4  5  1  0
  5  6  2  0
  6  7  1  0
  7  8  2  0
  8  9  1  0
  9 10  2  0
  9 11  1  0
 11 12  1  0
 12 13  1  0
  2 14  2  0
 14 15  1  0
 15 16  2  0
 16 17  1  0
 16 18  1  0
 10  5  1  0
 13  8  1  0
  1 19  1  0
  1 20  1  0
  1 21  1  0
  3 22  1  0
  3 23  1  0
  4 24  1  0
  4 25  1  0
  6 26  1  0
  7 27  1  0
 10 28  1  0
 12 29  1  0
 12 30  1  0
 17 31  1  0
 17 32  1  0
 18 33  1  0
 18 34  1  0
M  END
>  <Binding energies>  (1) 
[-7.42]

>  <Ligand effiencies>  (1) 
[-0.3372727272727273]

>  <Interactions>  (1) 
["V-B:MET:535:CE:9806, V-B:LEU:363:CD1:8160, V-B:TYR:539:CD2:9845, V-B:PRO:540:CA:9854, V-B:TYR:539:CE2:9847, V-B:ALA:541:CB:9863, V-B:PRO:540:N:9855, V-B:TYR:539:CE1:9846, V-B:PRO:540:CB:9856, H-B:TYR:539:N:9841, H-B:ALA:541:N:9862, V-B:TYR:539:CZ:9848, V-B:TYR:539:C:9838, V-B:PRO:540:CD:9858, V-B:ILE:538:CA:9831, V-B:TYR:539:CD1:9844, V-B:ILE:538:CG2:9834, V-B:ILE:538:CD1:9836, H-B:ASP:366:OD2:8186, H-B:GLU:543:OE2:9881, V-B:ILE:538:CB:9833, V-B:ILE:538:C:9829, V-B:ILE:538:CG1:9835"]

$$$$
RR2_Rahimova_2017
     RDKit          3D

 76 80  0  0  0  0  0  0  0  0999 V2000
  129.4620  133.5800   55.1150 C   0  0  0  0  0  0  0  0  0  0  0  0
  130.2720  133.4750   56.2810 O   0  0  0  0  0  0  0  0  0  0  0  0
  130.2530  132.3020   57.0120 C   0  0  0  0  0  0  0  0  0  0  0  0
  129.2890  131.9880   57.9800 C   0  0  0  0  0  0  0  0  0  0  0  0
  129.3520  130.7810   58.6700 C   0  0  0  0  0  0  0  0  0  0  0  0
  130.3790  129.8620   58.4120 C   0  0  0  0  0  0  0  0  0  0  0  0
  130.4290  128.5560   59.1820 C   0  0  0  0  0  0  0  0  0  0  0  0
  130.0930  128.5210   60.3710 O   0  0  0  0  0  0  0  0  0  0  0  0
  130.8710  127.4800   58.4900 N   0  0  0  0  0  0  0  0  0  0  0  0
  131.0240  126.2790   59.1740 N   0  0  0  0  0  0  0  0  0  0  0  0
  132.0180  125.4510   58.7940 C   0  0  0  0  0  0  0  0  0  0  0  0
  132.6960  125.5860   57.7710 O   0  0  0  0  0  0  0  0  0  0  0  0
  132.3060  124.2820   59.7450 C   0  0  0  0  0  0  0  0  0  0  0  0
  133.9910  124.2610   60.4590 S   0  0  0  0  0  0  0  0  0  0  0  0
  133.6390  124.6980   62.1350 C   0  0  0  0  0  0  0  0  0  0  0  0
  134.5320  125.2180   62.9400 N   0  0  0  0  0  0  0  0  0  0  0  0
  133.9370  125.3640   64.1850 N   0  0  0  0  0  0  0  0  0  0  0  0
  132.6950  124.9530   64.0790 C   0  0  0  0  0  0  0  0  0  0  0  0
  131.7230  124.9720   65.2140 C   0  0  0  0  0  0  0  0  0  0  0  0
  131.7440  126.0280   66.1280 C   0  0  0  0  0  0  0  0  0  0  0  0
  130.8480  126.0510   67.1930 C   0  0  0  0  0  0  0  0  0  0  0  0
  129.9110  125.0230   67.3440 C   0  0  0  0  0  0  0  0  0  0  0  0
  128.9910  124.9880   68.4040 N   0  0  0  0  0  0  0  0  0  0  0  0
  128.2910  126.4240   69.1840 S   0  0  0  0  0  0  0  0  0  0  0  0
  126.8650  126.1300   69.3640 O   0  0  0  0  0  0  0  0  0  0  0  0
  128.7270  127.6080   68.4340 O   0  0  0  0  0  0  0  0  0  0  0  0
  129.0190  126.4700   70.8200 C   0  0  0  0  0  0  0  0  0  0  0  0
  129.9440  127.4610   71.1600 C   0  0  0  0  0  0  0  0  0  0  0  0
  130.5100  127.4690   72.4320 C   0  0  0  0  0  0  0  0  0  0  0  0
  130.1480  126.4940   73.3640 C   0  0  0  0  0  0  0  0  0  0  0  0
  130.7770  126.4970   74.7450 C   0  0  0  0  0  0  0  0  0  0  0  0
  129.2260  125.5030   73.0200 C   0  0  0  0  0  0  0  0  0  0  0  0
  128.6600  125.4920   71.7480 C   0  0  0  0  0  0  0  0  0  0  0  0
  129.8890  123.9700   66.4290 C   0  0  0  0  0  0  0  0  0  0  0  0
  130.7890  123.9440   65.3680 C   0  0  0  0  0  0  0  0  0  0  0  0
  132.4370  124.5080   62.7920 N   0  0  0  0  0  0  0  0  0  0  0  0
  131.2480  123.9500   62.2790 C   0  0  0  0  0  0  0  0  0  0  0  0
  130.1570  124.7740   61.9980 C   0  0  0  0  0  0  0  0  0  0  0  0
  128.9880  124.2170   61.4880 C   0  0  0  0  0  0  0  0  0  0  0  0
  128.8970  122.8440   61.2560 C   0  0  0  0  0  0  0  0  0  0  0  0
  127.6960  122.3850   60.7490 O   0  0  0  0  0  0  0  0  0  0  0  0
  126.9920  123.1810   59.8010 C   0  0  0  0  0  0  0  0  0  0  0  0
  130.0000  122.0230   61.5420 C   0  0  0  0  0  0  0  0  0  0  0  0
  131.1720  122.5750   62.0500 C   0  0  0  0  0  0  0  0  0  0  0  0
  131.3370  130.1800   57.4370 C   0  0  0  0  0  0  0  0  0  0  0  0
  131.2700  131.3870   56.7470 C   0  0  0  0  0  0  0  0  0  0  0  0
  128.4110  133.7162   55.4097 H   0  0  0  0  0  0  0  0  0  0  0  0
  129.7900  134.4431   54.5172 H   0  0  0  0  0  0  0  0  0  0  0  0
  129.5591  132.6618   54.5172 H   0  0  0  0  0  0  0  0  0  0  0  0
  128.4782  132.6995   58.1954 H   0  0  0  0  0  0  0  0  0  0  0  0
  128.5881  130.5455   59.4257 H   0  0  0  0  0  0  0  0  0  0  0  0
  131.5420  127.5720   57.7420 H   0  0  0  0  0  0  0  0  0  0  0  0
  130.6470  126.3010   60.1110 H   0  0  0  0  0  0  0  0  0  0  0  0
  131.5849  124.3313   60.5742 H   0  0  0  0  0  0  0  0  0  0  0  0
  132.2169  123.3665   59.1417 H   0  0  0  0  0  0  0  0  0  0  0  0
  132.4711  126.8443   66.0058 H   0  0  0  0  0  0  0  0  0  0  0  0
  130.8767  126.8787   67.9170 H   0  0  0  0  0  0  0  0  0  0  0  0
  128.6860  124.0830   68.7300 H   0  0  0  0  0  0  0  0  0  0  0  0
  130.2236  128.2311   70.4260 H   0  0  0  0  0  0  0  0  0  0  0  0
  131.2426  128.2436   72.7030 H   0  0  0  0  0  0  0  0  0  0  0  0
  129.9852  126.4932   75.5086 H   0  0  0  0  0  0  0  0  0  0  0  0
  131.4052  125.6018   74.8637 H   0  0  0  0  0  0  0  0  0  0  0  0
  131.3966  127.3981   74.8637 H   0  0  0  0  0  0  0  0  0  0  0  0
  128.9473  124.7319   73.7533 H   0  0  0  0  0  0  0  0  0  0  0  0
  127.9316  124.7141   71.4754 H   0  0  0  0  0  0  0  0  0  0  0  0
  129.1573  123.1571   66.5468 H   0  0  0  0  0  0  0  0  0  0  0  0
  130.7652  123.1121   64.6487 H   0  0  0  0  0  0  0  0  0  0  0  0
  130.2208  125.8572   62.1786 H   0  0  0  0  0  0  0  0  0  0  0  0
  128.1276  124.8653   61.2657 H   0  0  0  0  0  0  0  0  0  0  0  0
  126.3534  123.9031   60.3308 H   0  0  0  0  0  0  0  0  0  0  0  0
  127.7122  123.7224   59.1700 H   0  0  0  0  0  0  0  0  0  0  0  0
  126.3667  122.5324   59.1700 H   0  0  0  0  0  0  0  0  0  0  0  0
  129.9372  120.9394   61.3637 H   0  0  0  0  0  0  0  0  0  0  0  0
  132.0355  121.9302   62.2703 H   0  0  0  0  0  0  0  0  0  0  0  0
  132.1474  129.4697   57.2163 H   0  0  0  0  0  0  0  0  0  0  0  0
  132.0277  131.6210   55.9847 H   0  0  0  0  0  0  0  0  0  0  0  0
  1  2  1  0
  2  3  1  0
  3  4  2  0
  4  5  1  0
  5  6  2  0
  6  7  1  0
  7  8  2  0
  7  9  1  0
  9 10  1  0
 10 11  1  0
 11 12  2  0
 11 13  1  0
 13 14  1  0
 14 15  1  0
 15 16  2  0
 16 17  1  0
 17 18  2  0
 18 19  1  0
 19 20  2  0
 20 21  1  0
 21 22  2  0
 22 23  1  0
 23 24  1  0
 24 25  2  0
 24 26  2  0
 24 27  1  0
 27 28  2  0
 28 29  1  0
 29 30  2  0
 30 31  1  0
 30 32  1  0
 32 33  2  0
 22 34  1  0
 34 35  2  0
 18 36  1  0
 36 37  1  0
 37 38  2  0
 38 39  1  0
 39 40  2  0
 40 41  1  0
 41 42  1  0
 40 43  1  0
 43 44  2  0
  6 45  1  0
 45 46  2  0
 46  3  1  0
 36 15  1  0
 44 37  1  0
 35 19  1  0
 33 27  1  0
  1 47  1  0
  1 48  1  0
  1 49  1  0
  4 50  1  0
  5 51  1  0
  9 52  1  0
 10 53  1  0
 13 54  1  0
 13 55  1  0
 20 56  1  0
 21 57  1  0
 23 58  1  0
 28 59  1  0
 29 60  1  0
 31 61  1  0
 31 62  1  0
 31 63  1  0
 32 64  1  0
 33 65  1  0
 34 66  1  0
 35 67  1  0
 38 68  1  0
 39 69  1  0
 42 70  1  0
 42 71  1  0
 42 72  1  0
 43 73  1  0
 44 74  1  0
 45 75  1  0
 46 76  1  0
M  END
>  <Binding energies>  (1) 
[-10.49]

>  <Ligand effiencies>  (1) 
[-0.21408163265306124]

>  <Interactions>  (1) 
["V-A:HIS:456:CE1:4069, V-A:HIS:456:CD2:4067, V-B:GLU:543:CD:9879, V-A:GLU:543:CD:4908, V-B:HIS:456:CE1:9041, H-A:HIS:456:NE2:4070, H-B:GLU:543:O:9874, V-B:GLU:543:C:9873, V-B:GLU:543:CB:9877, V-B:GLU:543:CG:9878, V-B:GLU:543:CA:9875, V-B:PRO:540:CA:9854, V-B:TYR:539:CE2:9847, V-B:ALA:541:CB:9863, V-B:PRO:540:CB:9856, H-B:ALA:541:N:9862, V-A:ILE:369:CG2:3236, V-A:ASP:366:CB:3211, H-A:TYR:531:OH:4795, V-A:TYR:539:CG:4872, V-A:MET:535:CE:4835, H-B:TYR:539:OH:9849, V-A:TYR:531:CZ:4794, H-A:GLY:454:N:4049, V-A:ASP:366:CG:3212, V-A:TYR:484:CE1:4344, V-A:TYR:484:CZ:4346, H-A:ARG:545:NH1:4927, V-A:ILE:369:CD1:3238, H-A:ARG:545:NH2:4928, V-A:TYR:539:CZ:4877, H-A:TYR:539:N:4870, H-A:ARG:545:NE:4924, V-A:ILE:538:CB:4862, V-A:ILE:538:CA:4860, V-A:ILE:538:CG2:4863, V-A:TYR:539:CE1:4875, V-A:TYR:539:CD1:4873, V-A:ILE:538:C:4858, H-B:ARG:545:N:9891"]

$$$$
RR30_Rahimova_2017
     RDKit          3D

 29 30  0  0  0  0  0  0  0  0999 V2000
  129.9800  120.6450   60.7800 C   0  0  0  0  0  0  0  0  0  0  0  0
  129.6220  122.0310   60.2250 C   0  0  0  0  0  0  0  0  0  0  0  0
  128.5980  122.7440   61.0810 C   0  0  0  0  0  0  0  0  0  0  0  0
  128.8080  123.5690   62.0770 N   0  0  0  0  0  0  0  0  0  0  0  0
  127.5470  123.9420   62.5360 N   0  0  0  0  0  0  0  0  0  0  0  0
  126.6850  123.3030   61.7850 C   0  0  0  0  0  0  0  0  0  0  0  0
  124.9250  123.3750   61.8700 S   0  0  0  0  0  0  0  0  0  0  0  0
  124.5980  124.5880   60.5520 C   0  0  0  0  0  0  0  0  0  0  0  0
  124.6220  123.9510   59.1600 C   0  0  0  0  0  0  0  0  0  0  0  0
  123.5580  123.6360   58.6230 O   0  0  0  0  0  0  0  0  0  0  0  0
  125.8470  123.7440   58.6260 N   0  0  0  0  0  0  0  0  0  0  0  0
  126.1220  123.1830   57.3880 C   0  0  0  0  0  0  0  0  0  0  0  0
  125.7410  122.0150   56.9210 N   0  0  0  0  0  0  0  0  0  0  0  0
  126.2070  121.7830   55.6330 N   0  0  0  0  0  0  0  0  0  0  0  0
  126.9260  122.7720   55.1540 C   0  0  0  0  0  0  0  0  0  0  0  0
  127.5450  122.7520   53.7750 C   0  0  0  0  0  0  0  0  0  0  0  0
  127.0880  124.0980   56.2720 S   0  0  0  0  0  0  0  0  0  0  0  0
  127.2800  122.5310   60.8410 O   0  0  0  0  0  0  0  0  0  0  0  0
  129.9717  120.6770   61.8795 H   0  0  0  0  0  0  0  0  0  0  0  0
  129.2428  119.9079   60.4291 H   0  0  0  0  0  0  0  0  0  0  0  0
  130.9820  120.3571   60.4291 H   0  0  0  0  0  0  0  0  0  0  0  0
  130.5356  122.6423   60.1830 H   0  0  0  0  0  0  0  0  0  0  0  0
  129.1865  121.8913   59.2246 H   0  0  0  0  0  0  0  0  0  0  0  0
  123.6070  125.0349   60.7199 H   0  0  0  0  0  0  0  0  0  0  0  0
  125.3919  125.3485   60.5888 H   0  0  0  0  0  0  0  0  0  0  0  0
  126.6500  124.0170   59.1750 H   0  0  0  0  0  0  0  0  0  0  0  0
  128.6407  122.7166   53.8654 H   0  0  0  0  0  0  0  0  0  0  0  0
  127.1934  121.8647   53.2281 H   0  0  0  0  0  0  0  0  0  0  0  0
  127.2514  123.6601   53.2281 H   0  0  0  0  0  0  0  0  0  0  0  0
  1  2  1  0
  2  3  1  0
  3  4  2  0
  4  5  1  0
  5  6  2  0
  6  7  1  0
  7  8  1  0
  8  9  1  0
  9 10  2  0
  9 11  1  0
 11 12  1  0
 12 13  2  0
 13 14  1  0
 14 15  2  0
 15 16  1  0
 15 17  1  0
  6 18  1  0
 18  3  1  0
 17 12  1  0
  1 19  1  0
  1 20  1  0
  1 21  1  0
  2 22  1  0
  2 23  1  0
  8 24  1  0
  8 25  1  0
 11 26  1  0
 16 27  1  0
 16 28  1  0
 16 29  1  0
M  END
>  <Binding energies>  (1) 
[-6.62]

>  <Ligand effiencies>  (1) 
[-0.34842105263157896]

>  <Interactions>  (1) 
["V-B:MET:535:CE:9806, V-B:ASP:366:CG:8184, V-B:LEU:363:CA:8156, V-B:ASN:362:C:8143, V-B:TYR:539:CD2:9845, V-B:PRO:540:CA:9854, V-B:TYR:539:CE2:9847, V-B:PRO:540:C:9852, V-B:ALA:541:CB:9863, V-B:PRO:540:N:9855, V-B:TYR:539:CE1:9846, V-B:PRO:540:CB:9856, H-B:TYR:539:N:9841, H-B:ALA:541:N:9862, V-B:TYR:539:CD1:9844, V-B:ALA:541:CA:9861, H-B:LEU:363:N:8157, V-B:MET:535:CB:9803, V-B:VAL:537:C:9821, V-B:MET:535:CG:9804"]

$$$$
RR31_Rahimova_2017
     RDKit          3D

 44 45  0  0  0  0  0  0  0  0999 V2000
  134.0810  120.0190   61.5070 C   0  0  0  0  0  0  0  0  0  0  0  0
  132.7180  120.6830   61.3650 C   0  0  0  0  0  0  0  0  0  0  0  0
  131.6450  119.9390   60.8720 C   0  0  0  0  0  0  0  0  0  0  0  0
  130.3850  120.5160   60.7340 C   0  0  0  0  0  0  0  0  0  0  0  0
  130.1570  121.8550   61.0930 C   0  0  0  0  0  0  0  0  0  0  0  0
  128.9020  122.4510   60.9510 N   0  0  0  0  0  0  0  0  0  0  0  0
  127.9950  122.1100   59.8370 C   0  0  0  0  0  0  0  0  0  0  0  0
  126.8620  123.1380   59.6080 C   0  0  0  0  0  0  0  0  0  0  0  0
  126.0820  123.3370   60.8320 N   0  0  0  0  0  0  0  0  0  0  0  0
  124.9770  124.2810   60.6370 C   0  0  0  0  0  0  0  0  0  0  0  0
  124.0010  123.8450   59.5250 C   0  0  0  0  0  0  0  0  0  0  0  0
  124.1570  124.6880   58.2490 C   0  0  0  0  0  0  0  0  0  0  0  0
  125.0610  125.8940   58.5250 N   0  0  0  0  0  0  0  0  0  0  0  0
  126.9930  123.8510   61.8540 C   0  0  0  0  0  0  0  0  0  0  0  0
  128.1210  122.8340   62.1440 C   0  0  0  0  0  0  0  0  0  0  0  0
  131.2450  122.5940   61.5790 C   0  0  0  0  0  0  0  0  0  0  0  0
  132.5170  122.0260   61.7210 C   0  0  0  0  0  0  0  0  0  0  0  0
  133.6590  122.8840   62.2510 C   0  0  0  0  0  0  0  0  0  0  0  0
  134.3223  119.9015   62.5738 H   0  0  0  0  0  0  0  0  0  0  0  0
  134.0593  119.0305   61.0249 H   0  0  0  0  0  0  0  0  0  0  0  0
  134.8460  120.6454   61.0249 H   0  0  0  0  0  0  0  0  0  0  0  0
  131.7960  118.8866   60.5897 H   0  0  0  0  0  0  0  0  0  0  0  0
  129.5546  119.9134   60.3374 H   0  0  0  0  0  0  0  0  0  0  0  0
  128.5909  122.0415   58.9149 H   0  0  0  0  0  0  0  0  0  0  0  0
  127.5112  121.1583   60.1017 H   0  0  0  0  0  0  0  0  0  0  0  0
  127.3031  124.0980   59.3019 H   0  0  0  0  0  0  0  0  0  0  0  0
  126.1931  122.7551   58.8231 H   0  0  0  0  0  0  0  0  0  0  0  0
  124.4180  124.3660   61.5805 H   0  0  0  0  0  0  0  0  0  0  0  0
  125.4156  125.2424   60.3315 H   0  0  0  0  0  0  0  0  0  0  0  0
  124.1940  122.7905   59.2782 H   0  0  0  0  0  0  0  0  0  0  0  0
  122.9770  123.9886   59.9003 H   0  0  0  0  0  0  0  0  0  0  0  0
  124.6054  124.0703   57.4569 H   0  0  0  0  0  0  0  0  0  0  0  0
  123.1670  125.0446   57.9285 H   0  0  0  0  0  0  0  0  0  0  0  0
  125.1660  126.4490   57.6870 H   0  0  0  0  0  0  0  0  0  0  0  0
  125.9740  125.5830   58.8240 H   0  0  0  0  0  0  0  0  0  0  0  0
  124.6610  126.4720   59.2490 H   0  0  0  0  0  0  0  0  0  0  0  0
  127.4382  124.7925   61.4999 H   0  0  0  0  0  0  0  0  0  0  0  0
  126.4246  124.0214   62.7802 H   0  0  0  0  0  0  0  0  0  0  0  0
  128.8076  123.2786   62.8795 H   0  0  0  0  0  0  0  0  0  0  0  0
  127.6379  121.9188   62.5169 H   0  0  0  0  0  0  0  0  0  0  0  0
  131.0953  123.6480   61.8561 H   0  0  0  0  0  0  0  0  0  0  0  0
  133.6454  122.8738   63.3509 H   0  0  0  0  0  0  0  0  0  0  0  0
  134.6175  122.4808   61.8924 H   0  0  0  0  0  0  0  0  0  0  0  0
  133.5386  123.9169   61.8924 H   0  0  0  0  0  0  0  0  0  0  0  0
  1  2  1  0
  2  3  2  0
  3  4  1  0
  4  5  2  0
  5  6  1  0
  6  7  1  0
  7  8  1  0
  8  9  1  0
  9 10  1  0
 10 11  1  0
 11 12  1  0
 12 13  1  0
  9 14  1  0
 14 15  1  0
  5 16  1  0
 16 17  2  0
 17 18  1  0
 17  2  1  0
 15  6  1  0
  1 19  1  0
  1 20  1  0
  1 21  1  0
  3 22  1  0
  4 23  1  0
  7 24  1  0
  7 25  1  0
  8 26  1  0
  8 27  1  0
 10 28  1  0
 10 29  1  0
 11 30  1  0
 11 31  1  0
 12 32  1  0
 12 33  1  0
 13 34  1  0
 13 35  1  0
 13 36  1  0
 14 37  1  0
 14 38  1  0
 15 39  1  0
 15 40  1  0
 16 41  1  0
 18 42  1  0
 18 43  1  0
 18 44  1  0
M  CHG  1  13   1
M  END
>  <Binding energies>  (1) 
[-6.66]

>  <Ligand effiencies>  (1) 
[-0.31714285714285717]

>  <Interactions>  (1) 
["V-A:TRP:381:CZ2:3369, V-B:ASP:366:CG:8184, V-B:LEU:363:CA:8156, V-B:LEU:363:CD1:8160, V-B:ASN:362:C:8143, V-A:TRP:381:CH2:3371, V-B:TYR:539:CD2:9845, V-B:PRO:540:CA:9854, V-B:TYR:539:CE2:9847, V-B:PRO:540:C:9852, V-B:ALA:541:CB:9863, V-B:PRO:540:N:9855, V-A:LEU:475:CD2:4258, V-B:PRO:540:CB:9856, H-B:ALA:541:N:9862, V-A:ILE:369:CG2:3236, V-B:TYR:539:C:9838, H-B:TYR:531:OH:9766, V-B:ASP:366:CB:8183, V-A:GLY:454:CA:4048, V-A:ILE:369:CD1:3238, H-B:ASP:366:OD2:8186, V-B:ALA:541:CA:9861, V-B:TYR:531:CZ:9765, V-B:TYR:531:CE2:9764, V-A:SER:385:CA:3406, V-A:SER:385:C:3404, V-B:LEU:363:CB:8158"]

$$$$
RR32_Rahimova_2017
     RDKit          3D

 37 39  0  0  0  0  0  0  0  0999 V2000
  126.2900  123.3030   56.7270 C   0  0  0  0  0  0  0  0  0  0  0  0
  126.7200  123.1290   58.1800 C   0  0  0  0  0  0  0  0  0  0  0  0
  127.9830  122.5930   58.4350 C   0  0  0  0  0  0  0  0  0  0  0  0
  128.4100  122.4230   59.7490 C   0  0  0  0  0  0  0  0  0  0  0  0
  129.6630  121.8900   59.9980 N   0  0  0  0  0  0  0  0  0  0  0  0
  130.7290  122.8280   60.3930 C   0  0  0  0  0  0  0  0  0  0  0  0
  132.1260  122.1680   60.4710 C   0  0  0  0  0  0  0  0  0  0  0  0
  132.1070  121.0550   61.4200 N   0  0  0  0  0  0  0  0  0  0  0  0
  133.4320  120.4530   61.5180 C   0  0  0  0  0  0  0  0  0  0  0  0
  131.1370  120.0720   60.9440 C   0  0  0  0  0  0  0  0  0  0  0  0
  129.7260  120.7010   60.8690 C   0  0  0  0  0  0  0  0  0  0  0  0
  127.6420  122.7570   60.8180 N   0  0  0  0  0  0  0  0  0  0  0  0
  126.4040  123.2800   60.6020 C   0  0  0  0  0  0  0  0  0  0  0  0
  125.6240  123.6180   61.7340 C   0  0  0  0  0  0  0  0  0  0  0  0
  124.3530  124.1550   61.5740 C   0  0  0  0  0  0  0  0  0  0  0  0
  123.8320  124.3680   60.3030 C   0  0  0  0  0  0  0  0  0  0  0  0
  124.5730  124.0470   59.1690 C   0  0  0  0  0  0  0  0  0  0  0  0
  125.8810  123.4930   59.2850 C   0  0  0  0  0  0  0  0  0  0  0  0
  125.2708  123.7154   56.6931 H   0  0  0  0  0  0  0  0  0  0  0  0
  126.9814  123.9921   56.2200 H   0  0  0  0  0  0  0  0  0  0  0  0
  126.3076  122.3270   56.2200 H   0  0  0  0  0  0  0  0  0  0  0  0
  128.6392  122.3057   57.6002 H   0  0  0  0  0  0  0  0  0  0  0  0
  130.7684  123.6428   59.6551 H   0  0  0  0  0  0  0  0  0  0  0  0
  130.4844  123.1938   61.4012 H   0  0  0  0  0  0  0  0  0  0  0  0
  132.4063  121.7922   59.4759 H   0  0  0  0  0  0  0  0  0  0  0  0
  132.8578  122.9161   60.8100 H   0  0  0  0  0  0  0  0  0  0  0  0
  133.7016  120.3305   62.5774 H   0  0  0  0  0  0  0  0  0  0  0  0
  133.4253  119.4696   61.0253 H   0  0  0  0  0  0  0  0  0  0  0  0
  134.1683  121.1050   61.0253 H   0  0  0  0  0  0  0  0  0  0  0  0
  131.4333  119.7255   59.9429 H   0  0  0  0  0  0  0  0  0  0  0  0
  131.1136  119.2247   61.6451 H   0  0  0  0  0  0  0  0  0  0  0  0
  129.0272  119.9458   60.4800 H   0  0  0  0  0  0  0  0  0  0  0  0
  129.4601  121.0270   61.8854 H   0  0  0  0  0  0  0  0  0  0  0  0
  126.0262  123.4547   62.7447 H   0  0  0  0  0  0  0  0  0  0  0  0
  123.7542  124.4137   62.4598 H   0  0  0  0  0  0  0  0  0  0  0  0
  122.8241  124.7945   60.1921 H   0  0  0  0  0  0  0  0  0  0  0  0
  124.1439  124.2230   58.1716 H   0  0  0  0  0  0  0  0  0  0  0  0
  1  2  1  0
  2  3  2  0
  3  4  1  0
  4  5  1  0
  5  6  1  0
  6  7  1  0
  7  8  1  0
  8  9  1  0
  8 10  1  0
 10 11  1  0
  4 12  2  0
 12 13  1  0
 13 14  2  0
 14 15  1  0
 15 16  2  0
 16 17  1  0
 17 18  2  0
 18  2  1  0
 11  5  1  0
 18 13  1  0
  1 19  1  0
  1 20  1  0
  1 21  1  0
  3 22  1  0
  6 23  1  0
  6 24  1  0
  7 25  1  0
  7 26  1  0
  9 27  1  0
  9 28  1  0
  9 29  1  0
 10 30  1  0
 10 31  1  0
 11 32  1  0
 11 33  1  0
 14 34  1  0
 15 35  1  0
 16 36  1  0
 17 37  1  0
M  END
>  <Binding energies>  (1) 
[-6.74]

>  <Ligand effiencies>  (1) 
[-0.37444444444444447]

>  <Interactions>  (1) 
["V-B:ASP:366:CG:8184, V-B:LEU:363:CA:8156, V-B:ASN:362:C:8143, V-A:TRP:381:CH2:3371, V-B:TYR:539:CD2:9845, V-B:PRO:540:CA:9854, V-B:TYR:539:CE2:9847, V-B:PRO:540:C:9852, V-B:ALA:541:CB:9863, V-B:PRO:540:N:9855, V-A:LEU:475:CD2:4258, V-B:PRO:540:CB:9856, H-B:ALA:541:N:9862, V-A:ILE:369:CG2:3236, V-B:TYR:539:CZ:9848, V-B:TYR:539:C:9838, V-B:ASN:362:CA:8145, V-B:ASN:362:CB:8147, V-B:TYR:539:CG:9843"]

$$$$
RR32_Rahimova_2017-again1
     RDKit          3D

 38 40  0  0  0  0  0  0  0  0999 V2000
  129.5020  125.0000   55.0970 C   0  0  0  0  0  0  0  0  0  0  0  0
  128.5620  124.5470   56.2050 C   0  0  0  0  0  0  0  0  0  0  0  0
  128.7430  125.0030   57.5110 C   0  0  0  0  0  0  0  0  0  0  0  0
  127.8750  124.5890   58.5270 C   0  0  0  0  0  0  0  0  0  0  0  0
  128.0430  125.0250   59.8450 N   0  0  0  0  0  0  0  0  0  0  0  0
  127.0480  125.9200   60.4680 C   0  0  0  0  0  0  0  0  0  0  0  0
  125.8710  125.1460   61.1080 C   0  0  0  0  0  0  0  0  0  0  0  0
  126.4290  124.2290   62.2130 N   0  0  0  0  0  0  0  0  0  0  0  0
  125.2980  123.4190   62.8750 C   0  0  0  0  0  0  0  0  0  0  0  0
  127.4810  123.2880   61.5900 C   0  0  0  0  0  0  0  0  0  0  0  0
  128.5730  124.1500   60.9130 C   0  0  0  0  0  0  0  0  0  0  0  0
  126.8580  123.7180   58.2780 N   0  0  0  0  0  0  0  0  0  0  0  0
  126.6550  123.2580   57.0140 C   0  0  0  0  0  0  0  0  0  0  0  0
  125.5790  122.3660   56.7890 C   0  0  0  0  0  0  0  0  0  0  0  0
  125.3330  121.8740   55.5100 C   0  0  0  0  0  0  0  0  0  0  0  0
  126.1400  122.2500   54.4410 C   0  0  0  0  0  0  0  0  0  0  0  0
  127.2070  123.1240   54.6310 C   0  0  0  0  0  0  0  0  0  0  0  0
  127.4890  123.6490   55.9220 C   0  0  0  0  0  0  0  0  0  0  0  0
  130.4086  125.4369   55.5411 H   0  0  0  0  0  0  0  0  0  0  0  0
  129.7783  124.1362   54.4746 H   0  0  0  0  0  0  0  0  0  0  0  0
  128.9985  125.7543   54.4746 H   0  0  0  0  0  0  0  0  0  0  0  0
  129.5704  125.6899   57.7425 H   0  0  0  0  0  0  0  0  0  0  0  0
  127.5469  126.5120   61.2494 H   0  0  0  0  0  0  0  0  0  0  0  0
  126.6340  126.5613   59.6759 H   0  0  0  0  0  0  0  0  0  0  0  0
  125.1533  125.8567   61.5436 H   0  0  0  0  0  0  0  0  0  0  0  0
  125.3572  124.5441   60.3439 H   0  0  0  0  0  0  0  0  0  0  0  0
  126.8850  124.8040   62.9070 H   0  0  0  0  0  0  0  0  0  0  0  0
  125.3911  123.4857   63.9690 H   0  0  0  0  0  0  0  0  0  0  0  0
  124.3247  123.8267   62.5643 H   0  0  0  0  0  0  0  0  0  0  0  0
  125.3706  122.3663   62.5643 H   0  0  0  0  0  0  0  0  0  0  0  0
  127.9340  122.6660   62.3761 H   0  0  0  0  0  0  0  0  0  0  0  0
  127.0054  122.6313   60.8467 H   0  0  0  0  0  0  0  0  0  0  0  0
  129.0461  124.7810   61.6798 H   0  0  0  0  0  0  0  0  0  0  0  0
  129.2916  123.4607   60.4455 H   0  0  0  0  0  0  0  0  0  0  0  0
  124.9354  122.0607   57.6272 H   0  0  0  0  0  0  0  0  0  0  0  0
  124.4939  121.1825   55.3434 H   0  0  0  0  0  0  0  0  0  0  0  0
  125.9331  121.8531   53.4362 H   0  0  0  0  0  0  0  0  0  0  0  0
  127.8367  123.4106   53.7758 H   0  0  0  0  0  0  0  0  0  0  0  0
  1  2  1  0
  2  3  2  0
  3  4  1  0
  4  5  1  0
  5  6  1  0
  6  7  1  0
  7  8  1  0
  8  9  1  0
  8 10  1  0
 10 11  1  0
  4 12  2  0
 12 13  1  0
 13 14  2  0
 14 15  1  0
 15 16  2  0
 16 17  1  0
 17 18  2  0
 18  2  1  0
 11  5  1  0
 18 13  1  0
  1 19  1  0
  1 20  1  0
  1 21  1  0
  3 22  1  0
  6 23  1  0
  6 24  1  0
  7 25  1  0
  7 26  1  0
  8 27  1  0
  9 28  1  0
  9 29  1  0
  9 30  1  0
 10 31  1  0
 10 32  1  0
 11 33  1  0
 11 34  1  0
 14 35  1  0
 15 36  1  0
 16 37  1  0
 17 38  1  0
M  CHG  1   8   1
M  END
>  <Binding energies>  (1) 
[-6.6]

>  <Ligand effiencies>  (1) 
[-0.34736842105263155]

>  <Interactions>  (1) 
["V-B:GLU:543:CD:9879, V-B:GLU:543:CG:9878, V-B:MET:535:CE:9806, V-B:LEU:363:CD1:8160, V-B:PRO:540:CA:9854, V-B:ALA:541:CB:9863, V-B:PRO:540:N:9855, V-B:TYR:539:CE1:9846, V-B:PRO:540:CB:9856, V-B:TYR:539:CZ:9848, V-B:TYR:539:C:9838, V-B:PRO:540:CD:9858, V-B:ILE:538:CA:9831, V-B:TYR:539:CD1:9844, V-B:ILE:538:CG2:9834, V-B:ASN:362:CB:8147, V-B:ILE:538:CD1:9836, V-B:ALA:541:C:9859, V-B:ALA:541:CA:9861, H-B:GLU:543:OE2:9881, V-B:ILE:538:CB:9833, V-B:ILE:538:C:9829"]

$$$$
RR32_Rahimova_2017-again2
     RDKit          3D

 39 41  0  0  0  0  0  0  0  0999 V2000
  127.1570  126.3610   57.6760 C   0  0  0  0  0  0  0  0  0  0  0  0
  127.1690  126.0630   59.1690 C   0  0  0  0  0  0  0  0  0  0  0  0
  128.1950  126.5640   59.9770 C   0  0  0  0  0  0  0  0  0  0  0  0
  128.2270  126.2960   61.3510 C   0  0  0  0  0  0  0  0  0  0  0  0
  129.2530  126.7990   62.2300 N   0  0  0  0  0  0  0  0  0  0  0  0
  130.6070  127.1260   61.7100 C   0  0  0  0  0  0  0  0  0  0  0  0
  130.6420  128.5680   61.1350 C   0  0  0  0  0  0  0  0  0  0  0  0
  130.2610  129.5760   62.2460 N   0  0  0  0  0  0  0  0  0  0  0  0
  130.2290  131.0150   61.6980 C   0  0  0  0  0  0  0  0  0  0  0  0
  128.8990  129.1910   62.8720 C   0  0  0  0  0  0  0  0  0  0  0  0
  128.9580  127.7180   63.3590 C   0  0  0  0  0  0  0  0  0  0  0  0
  127.2320  125.5480   61.8710 N   0  0  0  0  0  0  0  0  0  0  0  0
  126.1840  125.0150   61.1570 C   0  0  0  0  0  0  0  0  0  0  0  0
  125.1920  124.2420   61.8020 C   0  0  0  0  0  0  0  0  0  0  0  0
  124.1430  123.7220   61.0490 C   0  0  0  0  0  0  0  0  0  0  0  0
  124.0690  123.9570   59.6780 C   0  0  0  0  0  0  0  0  0  0  0  0
  125.0410  124.7180   59.0280 C   0  0  0  0  0  0  0  0  0  0  0  0
  126.1330  125.2720   59.7550 C   0  0  0  0  0  0  0  0  0  0  0  0
  127.1132  127.4489   57.5196 H   0  0  0  0  0  0  0  0  0  0  0  0
  128.0720  125.9608   57.2149 H   0  0  0  0  0  0  0  0  0  0  0  0
  126.2772  125.8885   57.2149 H   0  0  0  0  0  0  0  0  0  0  0  0
  128.9887  127.1778   59.5262 H   0  0  0  0  0  0  0  0  0  0  0  0
  131.3370  127.0462   62.5290 H   0  0  0  0  0  0  0  0  0  0  0  0
  130.8565  126.4188   60.9053 H   0  0  0  0  0  0  0  0  0  0  0  0
  131.6546  128.7920   60.7683 H   0  0  0  0  0  0  0  0  0  0  0  0
  129.9250  128.6491   60.3048 H   0  0  0  0  0  0  0  0  0  0  0  0
  130.9620  129.5130   62.9730 H   0  0  0  0  0  0  0  0  0  0  0  0
  130.2132  131.7265   62.5368 H   0  0  0  0  0  0  0  0  0  0  0  0
  131.1234  131.1931   61.0829 H   0  0  0  0  0  0  0  0  0  0  0  0
  129.3276  131.1532   61.0829 H   0  0  0  0  0  0  0  0  0  0  0  0
  128.6864  129.8521   63.7251 H   0  0  0  0  0  0  0  0  0  0  0  0
  128.1033  129.2997   62.1203 H   0  0  0  0  0  0  0  0  0  0  0  0
  129.7478  127.6209   64.1185 H   0  0  0  0  0  0  0  0  0  0  0  0
  127.9804  127.4490   63.7855 H   0  0  0  0  0  0  0  0  0  0  0  0
  127.2570  125.3700   62.8640 H   0  0  0  0  0  0  0  0  0  0  0  0
  125.2481  124.0538   62.8843 H   0  0  0  0  0  0  0  0  0  0  0  0
  123.3652  123.1198   61.5413 H   0  0  0  0  0  0  0  0  0  0  0  0
  123.2328  123.5368   59.0999 H   0  0  0  0  0  0  0  0  0  0  0  0
  124.9632  124.8916   57.9446 H   0  0  0  0  0  0  0  0  0  0  0  0
  1  2  1  0
  2  3  2  0
  3  4  1  0
  4  5  1  0
  5  6  1  0
  6  7  1  0
  7  8  1  0
  8  9  1  0
  8 10  1  0
 10 11  1  0
  4 12  2  0
 12 13  1  0
 13 14  2  0
 14 15  1  0
 15 16  2  0
 16 17  1  0
 17 18  2  0
 18  2  1  0
 11  5  1  0
 18 13  1  0
  1 19  1  0
  1 20  1  0
  1 21  1  0
  3 22  1  0
  6 23  1  0
  6 24  1  0
  7 25  1  0
  7 26  1  0
  8 27  1  0
  9 28  1  0
  9 29  1  0
  9 30  1  0
 10 31  1  0
 10 32  1  0
 11 33  1  0
 11 34  1  0
 12 35  1  0
 14 36  1  0
 15 37  1  0
 16 38  1  0
 17 39  1  0
M  CHG  2   8   1  12   1
M  END
>  <Binding energies>  (1) 
[-6.84]

>  <Ligand effiencies>  (1) 
[-0.34199999999999997]

>  <Interactions>  (1) 
["V-B:GLU:543:CD:9879, V-A:GLU:543:CD:4908, V-B:LEU:363:CA:8156, V-B:ASN:362:C:8143, V-B:PRO:540:CA:9854, V-B:PRO:540:CB:9856, V-B:ASN:362:CA:8145, V-B:ASN:362:CB:8147, H-A:ASP:366:OD2:3214, H-B:GLU:543:OE2:9881, H-A:GLU:543:OE1:4909, H-A:GLU:543:OE2:4910"]

$$$$
RR33_Rahimova_2017
     RDKit          3D

 36 37  0  0  0  0  0  0  0  0999 V2000
  132.7120  123.2770   64.1260 C   0  0  0  0  0  0  0  0  0  0  0  0
  131.6530  122.4200   63.4260 C   0  0  0  0  0  0  0  0  0  0  0  0
  131.8770  122.4740   62.0200 O   0  0  0  0  0  0  0  0  0  0  0  0
  130.7940  122.4890   61.1610 C   0  0  0  0  0  0  0  0  0  0  0  0
  130.7120  123.5690   60.2830 C   0  0  0  0  0  0  0  0  0  0  0  0
  129.6550  123.6710   59.3830 C   0  0  0  0  0  0  0  0  0  0  0  0
  128.6600  122.6900   59.3490 C   0  0  0  0  0  0  0  0  0  0  0  0
  127.5250  122.8010   58.3820 C   0  0  0  0  0  0  0  0  0  0  0  0
  127.4180  122.2350   57.2010 N   0  0  0  0  0  0  0  0  0  0  0  0
  126.2440  122.6270   56.7300 C   0  0  0  0  0  0  0  0  0  0  0  0
  125.7550  122.1620   55.3750 C   0  0  0  0  0  0  0  0  0  0  0  0
  126.8780  121.8570   54.5010 N   0  0  0  0  0  0  0  0  0  0  0  0
  127.6030  123.0690   54.1560 C   0  0  0  0  0  0  0  0  0  0  0  0
  125.6240  123.4570   57.6560 C   0  0  0  0  0  0  0  0  0  0  0  0
  124.3130  124.2020   57.7200 C   0  0  0  0  0  0  0  0  0  0  0  0
  126.4540  123.5660   58.7190 O   0  0  0  0  0  0  0  0  0  0  0  0
  128.7400  121.6030   60.2250 C   0  0  0  0  0  0  0  0  0  0  0  0
  129.7980  121.5010   61.1260 C   0  0  0  0  0  0  0  0  0  0  0  0
  132.5971  123.1840   65.2160 H   0  0  0  0  0  0  0  0  0  0  0  0
  133.7147  122.9331   63.8324 H   0  0  0  0  0  0  0  0  0  0  0  0
  132.5847  124.3294   63.8324 H   0  0  0  0  0  0  0  0  0  0  0  0
  131.7306  121.3792   63.7733 H   0  0  0  0  0  0  0  0  0  0  0  0
  130.6481  122.8013   63.6600 H   0  0  0  0  0  0  0  0  0  0  0  0
  131.4893  124.3471   60.3017 H   0  0  0  0  0  0  0  0  0  0  0  0
  129.6025  124.5278   58.6952 H   0  0  0  0  0  0  0  0  0  0  0  0
  125.1410  121.2583   55.5031 H   0  0  0  0  0  0  0  0  0  0  0  0
  125.1591  122.9660   54.9185 H   0  0  0  0  0  0  0  0  0  0  0  0
  126.5320  121.4290   53.6530 H   0  0  0  0  0  0  0  0  0  0  0  0
  127.9122  123.5859   55.0765 H   0  0  0  0  0  0  0  0  0  0  0  0
  128.4935  122.8080   53.5653 H   0  0  0  0  0  0  0  0  0  0  0  0
  126.9519  123.7301   53.5653 H   0  0  0  0  0  0  0  0  0  0  0  0
  124.0327  124.3613   58.7717 H   0  0  0  0  0  0  0  0  0  0  0  0
  124.4191  125.1747   57.2175 H   0  0  0  0  0  0  0  0  0  0  0  0
  123.5316  123.6130   57.2175 H   0  0  0  0  0  0  0  0  0  0  0  0
  127.9635  120.8242   60.2027 H   0  0  0  0  0  0  0  0  0  0  0  0
  129.8527  120.6430   61.8122 H   0  0  0  0  0  0  0  0  0  0  0  0
  1  2  1  0
  2  3  1  0
  3  4  1  0
  4  5  2  0
  5  6  1  0
  6  7  2  0
  7  8  1  0
  8  9  2  0
  9 10  1  0
 10 11  1  0
 11 12  1  0
 12 13  1  0
 10 14  2  0
 14 15  1  0
 14 16  1  0
  7 17  1  0
 17 18  2  0
 18  4  1  0
 16  8  1  0
  1 19  1  0
  1 20  1  0
  1 21  1  0
  2 22  1  0
  2 23  1  0
  5 24  1  0
  6 25  1  0
 11 26  1  0
 11 27  1  0
 12 28  1  0
 13 29  1  0
 13 30  1  0
 13 31  1  0
 15 32  1  0
 15 33  1  0
 15 34  1  0
 17 35  1  0
 18 36  1  0
M  END
>  <Binding energies>  (1) 
[-5.32]

>  <Ligand effiencies>  (1) 
[-0.28]

>  <Interactions>  (1) 
["V-B:MET:535:CE:9806, V-B:LEU:363:CA:8156, V-B:LEU:363:CD1:8160, V-B:TYR:539:CD2:9845, V-B:PRO:540:CA:9854, V-B:TYR:539:CE2:9847, V-B:PRO:540:C:9852, V-B:ALA:541:CB:9863, V-B:PRO:540:N:9855, V-A:LEU:475:CD2:4258, V-B:TYR:539:CE1:9846, V-B:PRO:540:CB:9856, H-B:TYR:539:N:9841, V-B:TYR:539:CZ:9848, V-B:TYR:539:C:9838, V-B:PRO:540:CD:9858, V-B:ILE:538:CA:9831, V-B:TYR:539:CD1:9844, H-B:VAL:537:O:9822, V-B:ILE:538:CG2:9834, V-B:ILE:538:CD1:9836, V-A:GLY:454:CA:4048, V-B:TYR:531:CE2:9764, V-B:ILE:538:C:9829, V-B:MET:535:CB:9803, V-B:MET:535:CG:9804"]

$$$$
RR33_Rahimova_2017-again1
     RDKit          3D

 37 38  0  0  0  0  0  0  0  0999 V2000
  129.8490  123.9930   74.3110 C   0  0  0  0  0  0  0  0  0  0  0  0
  129.8170  125.5070   74.5400 C   0  0  0  0  0  0  0  0  0  0  0  0
  128.7540  126.0650   73.7750 O   0  0  0  0  0  0  0  0  0  0  0  0
  128.9310  126.2740   72.4200 C   0  0  0  0  0  0  0  0  0  0  0  0
  128.3130  125.3630   71.5630 C   0  0  0  0  0  0  0  0  0  0  0  0
  128.4340  125.4930   70.1830 C   0  0  0  0  0  0  0  0  0  0  0  0
  129.1800  126.5420   69.6360 C   0  0  0  0  0  0  0  0  0  0  0  0
  129.3110  126.6860   68.1540 C   0  0  0  0  0  0  0  0  0  0  0  0
  128.6300  127.4850   67.3620 N   0  0  0  0  0  0  0  0  0  0  0  0
  129.1000  127.2580   66.1440 C   0  0  0  0  0  0  0  0  0  0  0  0
  128.5460  127.9940   64.9390 C   0  0  0  0  0  0  0  0  0  0  0  0
  127.0810  128.3750   65.2130 N   0  0  0  0  0  0  0  0  0  0  0  0
  126.8030  129.8790   65.0840 C   0  0  0  0  0  0  0  0  0  0  0  0
  130.0910  126.2850   66.2030 C   0  0  0  0  0  0  0  0  0  0  0  0
  130.9840  125.5980   65.2000 C   0  0  0  0  0  0  0  0  0  0  0  0
  130.2240  125.9220   67.5010 O   0  0  0  0  0  0  0  0  0  0  0  0
  129.8010  127.4580   70.4920 C   0  0  0  0  0  0  0  0  0  0  0  0
  129.6790  127.3280   71.8720 C   0  0  0  0  0  0  0  0  0  0  0  0
  129.8599  123.4755   75.2816 H   0  0  0  0  0  0  0  0  0  0  0  0
  128.9571  123.6891   73.7435 H   0  0  0  0  0  0  0  0  0  0  0  0
  130.7530  123.7270   73.7435 H   0  0  0  0  0  0  0  0  0  0  0  0
  129.6534  125.7159   75.6075 H   0  0  0  0  0  0  0  0  0  0  0  0
  130.7740  125.9519   74.2297 H   0  0  0  0  0  0  0  0  0  0  0  0
  127.7243  124.5338   71.9824 H   0  0  0  0  0  0  0  0  0  0  0  0
  127.9408  124.7676   69.5193 H   0  0  0  0  0  0  0  0  0  0  0  0
  129.1364  128.9047   64.7600 H   0  0  0  0  0  0  0  0  0  0  0  0
  128.6013  127.3468   64.0513 H   0  0  0  0  0  0  0  0  0  0  0  0
  126.4880  127.8740   64.5660 H   0  0  0  0  0  0  0  0  0  0  0  0
  126.8400  128.0770   66.1480 H   0  0  0  0  0  0  0  0  0  0  0  0
  126.7207  130.3240   66.0866 H   0  0  0  0  0  0  0  0  0  0  0  0
  127.6277  130.3587   64.5365 H   0  0  0  0  0  0  0  0  0  0  0  0
  125.8613  130.0322   64.5365 H   0  0  0  0  0  0  0  0  0  0  0  0
  131.7476  125.0105   65.7308 H   0  0  0  0  0  0  0  0  0  0  0  0
  130.3801  124.9294   64.5689 H   0  0  0  0  0  0  0  0  0  0  0  0
  131.4754  126.3531   64.5689 H   0  0  0  0  0  0  0  0  0  0  0  0
  130.3897  128.2865   70.0712 H   0  0  0  0  0  0  0  0  0  0  0  0
  130.1706  128.0540   72.5362 H   0  0  0  0  0  0  0  0  0  0  0  0
  1  2  1  0
  2  3  1  0
  3  4  1  0
  4  5  2  0
  5  6  1  0
  6  7  2  0
  7  8  1  0
  8  9  2  0
  9 10  1  0
 10 11  1  0
 11 12  1  0
 12 13  1  0
 10 14  2  0
 14 15  1  0
 14 16  1  0
  7 17  1  0
 17 18  2  0
 18  4  1  0
 16  8  1  0
  1 19  1  0
  1 20  1  0
  1 21  1  0
  2 22  1  0
  2 23  1  0
  5 24  1  0
  6 25  1  0
 11 26  1  0
 11 27  1  0
 12 28  1  0
 12 29  1  0
 13 30  1  0
 13 31  1  0
 13 32  1  0
 15 33  1  0
 15 34  1  0
 15 35  1  0
 17 36  1  0
 18 37  1  0
M  CHG  1  12   1
M  END
>  <Binding energies>  (1) 
[-5.99]

>  <Ligand effiencies>  (1) 
[-0.2995]

>  <Interactions>  (1) 
["V-A:HIS:456:CE1:4069, V-A:HIS:456:CD2:4067, V-B:GLU:543:CD:9879, V-A:GLU:543:CD:4908, V-B:HIS:456:CE1:9041, V-B:LYS:547:CE:9921, H-B:LYS:547:NZ:9922, V-B:GLU:543:C:9873, V-B:GLU:543:CB:9877, H-B:GLU:543:OE1:9880, H-B:GLU:543:OE2:9881"]

$$$$
RR3_Rahimova_2017
     RDKit          3D

 63 69  0  0  0  0  0  0  0  0999 V2000
  125.6770  122.0070   54.8800 C   0  0  0  0  0  0  0  0  0  0  0  0
  124.9940  122.0310   56.0920 C   0  0  0  0  0  0  0  0  0  0  0  0
  125.5720  122.6480   57.1970 C   0  0  0  0  0  0  0  0  0  0  0  0
  126.8370  123.2490   57.1070 C   0  0  0  0  0  0  0  0  0  0  0  0
  127.4570  123.9140   58.2960 C   0  0  0  0  0  0  0  0  0  0  0  0
  126.6610  124.4600   59.3120 C   0  0  0  0  0  0  0  0  0  0  0  0
  127.2390  125.0820   60.4160 C   0  0  0  0  0  0  0  0  0  0  0  0
  128.6280  125.1780   60.5250 C   0  0  0  0  0  0  0  0  0  0  0  0
  129.2550  125.8490   61.7070 C   0  0  0  0  0  0  0  0  0  0  0  0
  129.1360  125.3130   62.9160 N   0  0  0  0  0  0  0  0  0  0  0  0
  129.8130  126.0810   63.7350 C   0  0  0  0  0  0  0  0  0  0  0  0
  129.9530  125.8630   65.1730 C   0  0  0  0  0  0  0  0  0  0  0  0
  130.6280  124.8130   65.7710 C   0  0  0  0  0  0  0  0  0  0  0  0
  130.5650  124.9260   67.1350 N   0  0  0  0  0  0  0  0  0  0  0  0
  129.8460  126.0490   67.4800 C   0  0  0  0  0  0  0  0  0  0  0  0
  129.5170  126.5740   68.7340 C   0  0  0  0  0  0  0  0  0  0  0  0
  128.7620  127.7470   68.7520 C   0  0  0  0  0  0  0  0  0  0  0  0
  128.3510  128.3720   67.5800 C   0  0  0  0  0  0  0  0  0  0  0  0
  128.6790  127.8500   66.3300 C   0  0  0  0  0  0  0  0  0  0  0  0
  129.4390  126.6690   66.2560 C   0  0  0  0  0  0  0  0  0  0  0  0
  130.3760  127.1330   63.0660 N   0  0  0  0  0  0  0  0  0  0  0  0
  130.0160  127.0300   61.7470 C   0  0  0  0  0  0  0  0  0  0  0  0
  130.4010  128.0440   60.7200 C   0  0  0  0  0  0  0  0  0  0  0  0
  130.2160  129.4040   60.9750 C   0  0  0  0  0  0  0  0  0  0  0  0
  130.5610  130.3500   60.0160 C   0  0  0  0  0  0  0  0  0  0  0  0
  131.1030  129.9620   58.7820 C   0  0  0  0  0  0  0  0  0  0  0  0
  131.4550  130.9820   57.7450 C   0  0  0  0  0  0  0  0  0  0  0  0
  131.4810  130.6440   56.3830 C   0  0  0  0  0  0  0  0  0  0  0  0
  131.8040  131.5950   55.4180 C   0  0  0  0  0  0  0  0  0  0  0  0
  132.1060  132.8970   55.8060 C   0  0  0  0  0  0  0  0  0  0  0  0
  132.0850  133.2530   57.1500 C   0  0  0  0  0  0  0  0  0  0  0  0
  131.7630  132.3010   58.1120 C   0  0  0  0  0  0  0  0  0  0  0  0
  131.3000  128.5940   58.5460 C   0  0  0  0  0  0  0  0  0  0  0  0
  130.9560  127.6440   59.5030 C   0  0  0  0  0  0  0  0  0  0  0  0
  129.4300  124.6250   59.5240 C   0  0  0  0  0  0  0  0  0  0  0  0
  128.8500  124.0050   58.4210 C   0  0  0  0  0  0  0  0  0  0  0  0
  127.5070  123.2120   55.8750 C   0  0  0  0  0  0  0  0  0  0  0  0
  126.9320  122.5960   54.7670 C   0  0  0  0  0  0  0  0  0  0  0  0
  125.2216  121.5191   54.0056 H   0  0  0  0  0  0  0  0  0  0  0  0
  124.0015  121.5642   56.1762 H   0  0  0  0  0  0  0  0  0  0  0  0
  125.0301  122.6650   58.1541 H   0  0  0  0  0  0  0  0  0  0  0  0
  125.5654  124.3965   59.2366 H   0  0  0  0  0  0  0  0  0  0  0  0
  126.5981  125.4999   61.2063 H   0  0  0  0  0  0  0  0  0  0  0  0
  131.1409  124.0046   65.2294 H   0  0  0  0  0  0  0  0  0  0  0  0
  130.9990  124.2590   67.7550 H   0  0  0  0  0  0  0  0  0  0  0  0
  129.8392  126.0838   69.6645 H   0  0  0  0  0  0  0  0  0  0  0  0
  128.4842  128.1896   69.7200 H   0  0  0  0  0  0  0  0  0  0  0  0
  127.7561  129.2953   67.6404 H   0  0  0  0  0  0  0  0  0  0  0  0
  128.3471  128.3562   65.4115 H   0  0  0  0  0  0  0  0  0  0  0  0
  130.9320  127.8700   63.4760 H   0  0  0  0  0  0  0  0  0  0  0  0
  129.7957  129.7286   61.9383 H   0  0  0  0  0  0  0  0  0  0  0  0
  130.4066  131.4182   60.2283 H   0  0  0  0  0  0  0  0  0  0  0  0
  131.2434  129.6154   56.0739 H   0  0  0  0  0  0  0  0  0  0  0  0
  131.8203  131.3181   54.3535 H   0  0  0  0  0  0  0  0  0  0  0  0
  132.3628  133.6487   55.0451 H   0  0  0  0  0  0  0  0  0  0  0  0
  132.3222  134.2839   57.4516 H   0  0  0  0  0  0  0  0  0  0  0  0
  131.7496  132.5859   59.1744 H   0  0  0  0  0  0  0  0  0  0  0  0
  131.7333  128.2665   57.5894 H   0  0  0  0  0  0  0  0  0  0  0  0
  131.1217  126.5756   59.3001 H   0  0  0  0  0  0  0  0  0  0  0  0
  130.5254  124.6797   59.6078 H   0  0  0  0  0  0  0  0  0  0  0  0
  129.4938  123.5806   57.6366 H   0  0  0  0  0  0  0  0  0  0  0  0
  128.5001  123.6760   55.7833 H   0  0  0  0  0  0  0  0  0  0  0  0
  127.4677  122.5751   53.8065 H   0  0  0  0  0  0  0  0  0  0  0  0
  1  2  2  0
  2  3  1  0
  3  4  2  0
  4  5  1  0
  5  6  2  0
  6  7  1  0
  7  8  2  0
  8  9  1  0
  9 10  1  0
 10 11  2  0
 11 12  1  0
 12 13  2  0
 13 14  1  0
 14 15  1  0
 15 16  2  0
 16 17  1  0
 17 18  2  0
 18 19  1  0
 19 20  2  0
 11 21  1  0
 21 22  1  0
 22 23  1  0
 23 24  2  0
 24 25  1  0
 25 26  2  0
 26 27  1  0
 27 28  2  0
 28 29  1  0
 29 30  2  0
 30 31  1  0
 31 32  2  0
 26 33  1  0
 33 34  2  0
  8 35  1  0
 35 36  2  0
  4 37  1  0
 37 38  2  0
 38  1  1  0
 36  5  1  0
 22  9  2  0
 34 23  1  0
 20 12  1  0
 32 27  1  0
 20 15  1  0
  1 39  1  0
  2 40  1  0
  3 41  1  0
  6 42  1  0
  7 43  1  0
 13 44  1  0
 14 45  1  0
 16 46  1  0
 17 47  1  0
 18 48  1  0
 19 49  1  0
 21 50  1  0
 24 51  1  0
 25 52  1  0
 28 53  1  0
 29 54  1  0
 30 55  1  0
 31 56  1  0
 32 57  1  0
 33 58  1  0
 34 59  1  0
 35 60  1  0
 36 61  1  0
 37 62  1  0
 38 63  1  0
M  END
>  <Binding energies>  (1) 
[-10.47]

>  <Ligand effiencies>  (1) 
[-0.26175000000000004]

>  <Interactions>  (1) 
["V-A:HIS:456:CE1:4069, V-A:GLU:543:CG:4907, V-B:GLU:543:CD:9879, V-A:GLU:543:CD:4908, V-B:HIS:456:CE1:9041, H-A:HIS:456:NE2:4070, V-B:GLU:543:CG:9878, V-B:MET:535:CE:9806, V-B:LEU:363:CD1:8160, V-B:PRO:540:CA:9854, V-B:TYR:539:CE2:9847, V-B:PRO:540:N:9855, V-B:TYR:539:CE1:9846, V-B:PRO:540:CB:9856, V-B:TYR:539:CZ:9848, V-A:ASP:366:CB:3211, V-B:PRO:540:CD:9858, V-B:ILE:538:CA:9831, V-A:TYR:539:C:4867, V-A:PRO:540:N:4884, V-A:MET:535:CE:4835, V-B:PRO:540:CG:9857, V-B:TYR:539:CD1:9844, V-A:TYR:531:CZ:4794, V-B:ILE:538:CG2:9834, V-A:PRO:540:CB:4885, V-A:LEU:363:CD1:3188, V-A:TYR:531:CE2:4793, V-A:ASP:366:CG:3212, H-A:TYR:484:OH:4347, V-A:PRO:540:CA:4883, V-A:TYR:484:CE1:4344, V-B:ILE:538:CD1:9836, V-A:TYR:484:CZ:4346, V-A:PRO:540:CD:4887, H-A:GLU:543:OE1:4909, H-A:GLU:543:OE2:4910, V-A:ILE:538:CB:4862, V-A:ILE:538:CA:4860, V-A:ILE:538:CG2:4863, V-B:ILE:538:CB:9833, V-B:ILE:538:C:9829, V-A:PRO:540:CG:4886, V-B:ILE:538:CG1:9835"]

$$$$
RR4_Rahimova_2017
     RDKit          3D

 66 70  0  0  0  0  0  0  0  0999 V2000
  130.6430  126.3910   74.5450 C   0  0  0  0  0  0  0  0  0  0  0  0
  130.6330  127.6020   73.7970 O   0  0  0  0  0  0  0  0  0  0  0  0
  130.2580  127.5700   72.4680 C   0  0  0  0  0  0  0  0  0  0  0  0
  130.9120  128.4540   71.6120 C   0  0  0  0  0  0  0  0  0  0  0  0
  130.6010  128.4910   70.2570 C   0  0  0  0  0  0  0  0  0  0  0  0
  129.6210  127.6450   69.7150 C   0  0  0  0  0  0  0  0  0  0  0  0
  129.2870  127.6890   68.2520 C   0  0  0  0  0  0  0  0  0  0  0  0
  128.3300  128.5580   67.7190 C   0  0  0  0  0  0  0  0  0  0  0  0
  128.0560  128.5640   66.3450 C   0  0  0  0  0  0  0  0  0  0  0  0
  127.0410  129.5390   65.8450 C   0  0  0  0  0  0  0  0  0  0  0  0
  127.4520  130.7280   65.2340 C   0  0  0  0  0  0  0  0  0  0  0  0
  126.5130  131.6370   64.7540 C   0  0  0  0  0  0  0  0  0  0  0  0
  125.1480  131.3740   64.8690 C   0  0  0  0  0  0  0  0  0  0  0  0
  124.2910  132.3330   64.3640 O   0  0  0  0  0  0  0  0  0  0  0  0
  123.8650  132.2390   63.0090 C   0  0  0  0  0  0  0  0  0  0  0  0
  124.7320  130.1800   65.4760 C   0  0  0  0  0  0  0  0  0  0  0  0
  125.6730  129.2720   65.9550 C   0  0  0  0  0  0  0  0  0  0  0  0
  128.7500  127.6490   65.5150 C   0  0  0  0  0  0  0  0  0  0  0  0
  128.5030  127.6140   64.0710 C   0  0  0  0  0  0  0  0  0  0  0  0
  128.3080  127.5860   62.9300 N   0  0  0  0  0  0  0  0  0  0  0  0
  129.6830  126.7790   66.1250 C   0  0  0  0  0  0  0  0  0  0  0  0
  130.6340  125.5620   65.2410 S   0  0  0  0  0  0  0  0  0  0  0  0
  129.5010  124.2200   64.7480 C   0  0  0  0  0  0  0  0  0  0  0  0
  129.2100  124.1520   63.2430 C   0  0  0  0  0  0  0  0  0  0  0  0
  130.1220  124.2810   62.4230 O   0  0  0  0  0  0  0  0  0  0  0  0
  127.9090  123.9590   62.9260 N   0  0  0  0  0  0  0  0  0  0  0  0
  127.3300  123.8510   61.6590 C   0  0  0  0  0  0  0  0  0  0  0  0
  125.9170  124.7530   61.1810 S   0  0  0  0  0  0  0  0  0  0  0  0
  125.9230  124.0340   59.6000 C   0  0  0  0  0  0  0  0  0  0  0  0
  126.9810  123.1240   59.4520 C   0  0  0  0  0  0  0  0  0  0  0  0
  127.7860  123.0340   60.6130 C   0  0  0  0  0  0  0  0  0  0  0  0
  128.9610  122.1730   60.7120 C   0  0  0  0  0  0  0  0  0  0  0  0
  129.8930  121.4910   60.7900 N   0  0  0  0  0  0  0  0  0  0  0  0
  127.2250  122.3850   58.1300 C   0  0  0  0  0  0  0  0  0  0  0  0
  126.4540  123.0640   56.9760 C   0  0  0  0  0  0  0  0  0  0  0  0
  125.0020  123.3950   57.3630 C   0  0  0  0  0  0  0  0  0  0  0  0
  124.9290  124.4220   58.5130 C   0  0  0  0  0  0  0  0  0  0  0  0
  129.9510  126.8170   67.4510 N   0  0  0  0  0  0  0  0  0  0  0  0
  128.9700  126.7560   70.5850 C   0  0  0  0  0  0  0  0  0  0  0  0
  129.2790  126.7160   71.9410 C   0  0  0  0  0  0  0  0  0  0  0  0
  130.6411  126.6240   75.6200 H   0  0  0  0  0  0  0  0  0  0  0  0
  129.7497  125.7992   74.2965 H   0  0  0  0  0  0  0  0  0  0  0  0
  131.5459  125.8140   74.2965 H   0  0  0  0  0  0  0  0  0  0  0  0
  131.6823  129.1296   72.0122 H   0  0  0  0  0  0  0  0  0  0  0  0
  131.1318  129.1949   69.5992 H   0  0  0  0  0  0  0  0  0  0  0  0
  127.7866  129.2441   68.3854 H   0  0  0  0  0  0  0  0  0  0  0  0
  128.5252  130.9466   65.1319 H   0  0  0  0  0  0  0  0  0  0  0  0
  126.8504  132.5705   64.2800 H   0  0  0  0  0  0  0  0  0  0  0  0
  122.7913  132.0021   62.9778 H   0  0  0  0  0  0  0  0  0  0  0  0
  124.0437  133.1982   62.5011 H   0  0  0  0  0  0  0  0  0  0  0  0
  124.4308  131.4441   62.5011 H   0  0  0  0  0  0  0  0  0  0  0  0
  123.6587  129.9600   65.5741 H   0  0  0  0  0  0  0  0  0  0  0  0
  125.3368  128.3357   66.4244 H   0  0  0  0  0  0  0  0  0  0  0  0
  129.9482  123.2630   65.0548 H   0  0  0  0  0  0  0  0  0  0  0  0
  128.5402  124.4248   65.2429 H   0  0  0  0  0  0  0  0  0  0  0  0
  127.2640  123.8690   63.6970 H   0  0  0  0  0  0  0  0  0  0  0  0
  128.3011  122.3976   57.9023 H   0  0  0  0  0  0  0  0  0  0  0  0
  126.8694  121.3491   58.2324 H   0  0  0  0  0  0  0  0  0  0  0  0
  126.9701  123.9971   56.7058 H   0  0  0  0  0  0  0  0  0  0  0  0
  126.4264  122.3623   56.1293 H   0  0  0  0  0  0  0  0  0  0  0  0
  124.4859  123.8089   56.4842 H   0  0  0  0  0  0  0  0  0  0  0  0
  124.5221  122.4666   57.7061 H   0  0  0  0  0  0  0  0  0  0  0  0
  125.1773  125.4222   58.1284 H   0  0  0  0  0  0  0  0  0  0  0  0
  123.9119  124.4338   58.9317 H   0  0  0  0  0  0  0  0  0  0  0  0
  128.2007  126.0780   70.1869 H   0  0  0  0  0  0  0  0  0  0  0  0
  128.7531  126.0115   72.6022 H   0  0  0  0  0  0  0  0  0  0  0  0
  1  2  1  0
  2  3  1  0
  3  4  2  0
  4  5  1  0
  5  6  2  0
  6  7  1  0
  7  8  2  0
  8  9  1  0
  9 10  1  0
 10 11  2  0
 11 12  1  0
 12 13  2  0
 13 14  1  0
 14 15  1  0
 13 16  1  0
 16 17  2  0
  9 18  2  0
 18 19  1  0
 19 20  3  0
 18 21  1  0
 21 22  1  0
 22 23  1  0
 23 24  1  0
 24 25  2  0
 24 26  1  0
 26 27  1  0
 27 28  1  0
 28 29  1  0
 29 30  2  0
 30 31  1  0
 31 32  1  0
 32 33  3  0
 30 34  1  0
 34 35  1  0
 35 36  1  0
 36 37  1  0
 21 38  2  0
  6 39  1  0
 39 40  2  0
 40  3  1  0
 38  7  1  0
 17 10  1  0
 31 27  2  0
 37 29  1  0
  1 41  1  0
  1 42  1  0
  1 43  1  0
  4 44  1  0
  5 45  1  0
  8 46  1  0
 11 47  1  0
 12 48  1  0
 15 49  1  0
 15 50  1  0
 15 51  1  0
 16 52  1  0
 17 53  1  0
 23 54  1  0
 23 55  1  0
 26 56  1  0
 34 57  1  0
 34 58  1  0
 35 59  1  0
 35 60  1  0
 36 61  1  0
 36 62  1  0
 37 63  1  0
 37 64  1  0
 39 65  1  0
 40 66  1  0
M  END
>  <Binding energies>  (1) 
[-10.87]

>  <Ligand effiencies>  (1) 
[-0.26512195121951215]

>  <Interactions>  (1) 
["V-A:HIS:456:CE1:4069, V-A:GLU:543:CB:4906, V-A:GLU:543:CG:4907, V-B:GLU:543:CD:9879, V-A:GLU:543:CD:4908, V-B:HIS:456:CE1:9041, H-A:LYS:547:NZ:4951, V-B:GLU:543:CG:9878, V-B:LEU:363:CD1:8160, V-B:TYR:539:CD2:9845, V-B:PRO:540:CA:9854, V-B:ALA:541:CB:9863, V-B:PRO:540:N:9855, V-B:PRO:540:CB:9856, V-B:TYR:539:C:9838, H-B:GLY:454:N:9021, V-B:GLY:454:CA:9020, V-B:ARG:545:CZ:9897, H-B:GLU:543:OE2:9881, V-B:LEU:475:CD1:9229, V-B:ILE:369:CD1:8210"]

$$$$
RR5_Rahimova_2017
     RDKit          3D

 77 82  0  0  0  0  0  0  0  0999 V2000
  130.1030  125.5780   57.0650 O   0  0  0  0  0  0  0  0  0  0  0  0
  129.7450  125.0650   58.1250 C   0  0  0  0  0  0  0  0  0  0  0  0
  130.8010  124.6630   59.1730 C   0  0  0  0  0  0  0  0  0  0  0  0
  132.0780  125.5760   59.1760 C   0  0  2  0  0  0  0  0  0  0  0  0
  131.8680  126.9440   58.6600 N   0  0  0  0  0  0  0  0  0  0  0  0
  131.0960  127.8700   59.3490 C   0  0  0  0  0  0  0  0  0  0  0  0
  130.5510  127.7060   60.4430 O   0  0  0  0  0  0  0  0  0  0  0  0
  131.0220  128.9920   58.6110 O   0  0  0  0  0  0  0  0  0  0  0  0
  132.1950  129.6640   58.1620 C   0  0  0  0  0  0  0  0  0  0  0  0
  132.0620  131.1900   58.3560 C   0  0  0  0  0  0  0  0  0  0  0  0
  131.2830  131.8790   57.2500 C   0  0  0  0  0  0  0  0  0  0  0  0
  131.5270  131.9070   55.8730 C   0  0  0  0  0  0  0  0  0  0  0  0
  130.6560  132.5930   55.0260 C   0  0  0  0  0  0  0  0  0  0  0  0
  129.5430  133.2520   55.5500 C   0  0  0  0  0  0  0  0  0  0  0  0
  129.2970  133.2280   56.9240 C   0  0  0  0  0  0  0  0  0  0  0  0
  130.1710  132.5420   57.7700 C   0  0  0  0  0  0  0  0  0  0  0  0
  130.1620  132.3610   59.2300 C   0  0  0  0  0  0  0  0  0  0  0  0
  129.2820  132.8290   60.2090 C   0  0  0  0  0  0  0  0  0  0  0  0
  129.5190  132.5270   61.5510 C   0  0  0  0  0  0  0  0  0  0  0  0
  130.6280  131.7590   61.9110 C   0  0  0  0  0  0  0  0  0  0  0  0
  131.5020  131.2900   60.9300 C   0  0  0  0  0  0  0  0  0  0  0  0
  131.2670  131.5880   59.5850 C   0  0  0  0  0  0  0  0  0  0  0  0
  133.2390  124.9010   58.4040 C   0  0  0  0  0  0  0  0  0  0  0  0
  133.2420  124.6870   57.2080 O   0  0  0  0  0  0  0  0  0  0  0  0
  134.2540  124.6050   59.2670 O   0  0  0  0  0  0  0  0  0  0  0  0
  128.4600  124.8440   58.4790 N   0  0  0  0  0  0  0  0  0  0  0  0
  127.1510  125.0750   57.7960 C   0  0  0  0  0  0  0  0  0  0  0  0
  127.2340  126.5970   57.4380 C   0  0  0  0  0  0  0  0  0  0  0  0
  127.2530  127.5850   58.4370 C   0  0  0  0  0  0  0  0  0  0  0  0
  127.3290  128.9350   58.1070 C   0  0  0  0  0  0  0  0  0  0  0  0
  127.3750  129.3220   56.7720 C   0  0  0  0  0  0  0  0  0  0  0  0
  127.3590  128.3660   55.7630 C   0  0  0  0  0  0  0  0  0  0  0  0
  127.2940  127.0160   56.0940 C   0  0  0  0  0  0  0  0  0  0  0  0
  127.1180  124.1590   56.5270 C   0  0  0  0  0  0  0  0  0  0  0  0
  128.0590  124.2960   55.4940 C   0  0  0  0  0  0  0  0  0  0  0  0
  127.9990  123.4830   54.3640 C   0  0  0  0  0  0  0  0  0  0  0  0
  126.9970  122.5250   54.2520 C   0  0  0  0  0  0  0  0  0  0  0  0
  126.0550  122.3690   55.2640 C   0  0  0  0  0  0  0  0  0  0  0  0
  126.1220  123.1750   56.3960 C   0  0  0  0  0  0  0  0  0  0  0  0
  126.0450  124.7590   58.8580 C   0  0  0  0  0  0  0  0  0  0  0  0
  124.6800  124.8610   58.5340 C   0  0  0  0  0  0  0  0  0  0  0  0
  123.6920  124.5890   59.4760 C   0  0  0  0  0  0  0  0  0  0  0  0
  124.0520  124.2020   60.7620 C   0  0  0  0  0  0  0  0  0  0  0  0
  125.3920  124.0790   61.1080 C   0  0  0  0  0  0  0  0  0  0  0  0
  126.3770  124.3520   60.1630 C   0  0  0  0  0  0  0  0  0  0  0  0
  130.3368  124.7144   60.1689 H   0  0  0  0  0  0  0  0  0  0  0  0
  131.1363  123.6480   58.9135 H   0  0  0  0  0  0  0  0  0  0  0  0
  132.3360  125.6901   60.2392 H   0  0  0  0  0  0  0  0  0  0  0  0
  132.1500  127.1460   57.7120 H   0  0  0  0  0  0  0  0  0  0  0  0
  133.0602  129.3017   58.7365 H   0  0  0  0  0  0  0  0  0  0  0  0
  132.3319  129.4558   57.0906 H   0  0  0  0  0  0  0  0  0  0  0  0
  133.1185  131.4923   58.4048 H   0  0  0  0  0  0  0  0  0  0  0  0
  132.4043  131.3889   55.4585 H   0  0  0  0  0  0  0  0  0  0  0  0
  130.8470  132.6145   53.9429 H   0  0  0  0  0  0  0  0  0  0  0  0
  128.8582  133.7914   54.8791 H   0  0  0  0  0  0  0  0  0  0  0  0
  128.4196  133.7465   57.3379 H   0  0  0  0  0  0  0  0  0  0  0  0
  128.4073  133.4320   59.9239 H   0  0  0  0  0  0  0  0  0  0  0  0
  128.8308  132.8947   62.3263 H   0  0  0  0  0  0  0  0  0  0  0  0
  130.8128  131.5234   62.9695 H   0  0  0  0  0  0  0  0  0  0  0  0
  132.3759  130.6858   61.2151 H   0  0  0  0  0  0  0  0  0  0  0  0
  135.1130  124.6270   58.8400 H   0  0  0  0  0  0  0  0  0  0  0  0
  128.3530  124.3260   59.3390 H   0  0  0  0  0  0  0  0  0  0  0  0
  127.2072  127.2872   59.4949 H   0  0  0  0  0  0  0  0  0  0  0  0
  127.3527  129.6953   58.9016 H   0  0  0  0  0  0  0  0  0  0  0  0
  127.4243  130.3900   56.5132 H   0  0  0  0  0  0  0  0  0  0  0  0
  127.3975  128.6752   54.7080 H   0  0  0  0  0  0  0  0  0  0  0  0
  127.2894  126.2627   55.2924 H   0  0  0  0  0  0  0  0  0  0  0  0
  128.8523  125.0534   55.5777 H   0  0  0  0  0  0  0  0  0  0  0  0
  128.7428  123.5987   53.5619 H   0  0  0  0  0  0  0  0  0  0  0  0
  126.9489  121.8865   53.3576 H   0  0  0  0  0  0  0  0  0  0  0  0
  125.2618  121.6127   55.1696 H   0  0  0  0  0  0  0  0  0  0  0  0
  125.3845  123.0405   57.2010 H   0  0  0  0  0  0  0  0  0  0  0  0
  124.3878  125.1614   57.5170 H   0  0  0  0  0  0  0  0  0  0  0  0
  122.6301  124.6799   59.2039 H   0  0  0  0  0  0  0  0  0  0  0  0
  123.2723  123.9922   61.5090 H   0  0  0  0  0  0  0  0  0  0  0  0
  125.6734  123.7671   62.1246 H   0  0  0  0  0  0  0  0  0  0  0  0
  127.4358  124.2474   60.4422 H   0  0  0  0  0  0  0  0  0  0  0  0
  1  2  2  0
  2  3  1  0
  3  4  1  0
  4  5  1  0
  5  6  1  0
  6  7  2  0
  6  8  1  0
  8  9  1  0
  9 10  1  0
 10 11  1  0
 11 12  2  0
 12 13  1  0
 13 14  2  0
 14 15  1  0
 15 16  2  0
 16 17  1  0
 17 18  2  0
 18 19  1  0
 19 20  2  0
 20 21  1  0
 21 22  2  0
  4 23  1  0
 23 24  2  0
 23 25  1  0
  2 26  1  0
 26 27  1  0
 27 28  1  0
 28 29  2  0
 29 30  1  0
 30 31  2  0
 31 32  1  0
 32 33  2  0
 27 34  1  0
 34 35  2  0
 35 36  1  0
 36 37  2  0
 37 38  1  0
 38 39  2  0
 27 40  1  0
 40 41  2  0
 41 42  1  0
 42 43  2  0
 43 44  1  0
 44 45  2  0
 22 10  1  0
 33 28  1  0
 39 34  1  0
 45 40  1  0
 16 11  1  0
 22 17  1  0
  3 46  1  0
  3 47  1  0
  4 48  1  1
  5 49  1  0
  9 50  1  0
  9 51  1  0
 10 52  1  0
 12 53  1  0
 13 54  1  0
 14 55  1  0
 15 56  1  0
 18 57  1  0
 19 58  1  0
 20 59  1  0
 21 60  1  0
 25 61  1  0
 26 62  1  0
 29 63  1  0
 30 64  1  0
 31 65  1  0
 32 66  1  0
 33 67  1  0
 35 68  1  0
 36 69  1  0
 37 70  1  0
 38 71  1  0
 39 72  1  0
 41 73  1  0
 42 74  1  0
 43 75  1  0
 44 76  1  0
 45 77  1  0
M  END
>  <Binding energies>  (1) 
[-11.41]

>  <Ligand effiencies>  (1) 
[-0.23770833333333333]

>  <Interactions>  (1) 
["V-B:MET:535:CE:9806, V-B:ASP:366:CG:8184, V-B:LEU:363:CA:8156, V-B:ASN:362:C:8143, V-B:TYR:539:CE2:9847, V-B:TYR:539:CE1:9846, V-B:PRO:540:CB:9856, V-A:ILE:369:CG2:3236, V-B:TYR:539:CZ:9848, V-A:ILE:369:CB:3235, V-A:ASP:366:CB:3211, V-A:TYR:539:CD2:4874, V-B:ILE:538:CA:9831, V-A:TYR:539:C:4867, V-A:TYR:539:CE2:4876, H-A:TYR:531:OH:4795, V-A:TYR:539:CG:4872, V-A:PRO:540:N:4884, V-A:MET:535:CE:4835, H-B:TYR:539:OH:9849, V-B:TYR:539:CD1:9844, V-A:TYR:531:CZ:4794, V-B:ASP:366:CB:8183, V-A:ASP:366:CA:3209, V-B:ASN:362:CA:8145, V-B:ASN:362:CB:8147, V-A:LEU:363:CD1:3188, V-A:TYR:531:CE2:4793, V-A:ASP:366:CG:3212, V-A:ASP:366:C:3207, V-A:PRO:540:CA:4883, V-B:ILE:538:CD1:9836, H-A:ASP:366:OD1:3213, V-B:TYR:531:CZ:9765, V-A:ALA:541:CB:4892, V-A:TYR:539:CZ:4877, V-A:ILE:538:CB:4862, V-A:ILE:538:CA:4860, V-A:ILE:538:CG2:4863, V-A:TYR:539:CE1:4875, V-A:TYR:539:CD1:4873, H-A:ASP:366:O:3208, V-A:TYR:539:CA:4869, V-A:ILE:538:C:4858, V-B:MET:535:CB:9803, V-B:MET:535:CG:9804, H-A:ASN:370:N:3243, H-A:CYS:365:O:3205"]

$$$$
RR5_Rahimova_2017-again1
     RDKit          3D

 76 81  0  0  0  0  0  0  0  0999 V2000
  130.9390  128.2190   60.1100 O   0  0  0  0  0  0  0  0  0  0  0  0
  130.6890  128.1840   58.9050 C   0  0  0  0  0  0  0  0  0  0  0  0
  130.5460  126.8120   58.2150 C   0  0  0  0  0  0  0  0  0  0  0  0
  129.2830  126.6060   57.3170 C   0  0  2  0  0  0  0  0  0  0  0  0
  128.1420  126.2110   58.1700 N   0  0  0  0  0  0  0  0  0  0  0  0
  126.9580  126.9400   58.1910 C   0  0  0  0  0  0  0  0  0  0  0  0
  126.7200  127.9710   57.5550 O   0  0  0  0  0  0  0  0  0  0  0  0
  126.0940  126.3370   59.0290 O   0  0  0  0  0  0  0  0  0  0  0  0
  124.9350  125.6770   58.5340 C   0  0  0  0  0  0  0  0  0  0  0  0
  125.0840  124.1520   58.6940 C   0  0  0  0  0  0  0  0  0  0  0  0
  125.5800  123.4570   57.4390 C   0  0  0  0  0  0  0  0  0  0  0  0
  125.0130  123.4100   56.1630 C   0  0  0  0  0  0  0  0  0  0  0  0
  125.6580  122.7130   55.1390 C   0  0  0  0  0  0  0  0  0  0  0  0
  126.8650  122.0580   55.3890 C   0  0  0  0  0  0  0  0  0  0  0  0
  127.4310  122.0970   56.6640 C   0  0  0  0  0  0  0  0  0  0  0  0
  126.7850  122.7960   57.6860 C   0  0  0  0  0  0  0  0  0  0  0  0
  127.1410  122.9910   59.1000 C   0  0  0  0  0  0  0  0  0  0  0  0
  128.2300  122.5330   59.8450 C   0  0  0  0  0  0  0  0  0  0  0  0
  128.3240  122.8550   61.2000 C   0  0  0  0  0  0  0  0  0  0  0  0
  127.3340  123.6310   61.8060 C   0  0  0  0  0  0  0  0  0  0  0  0
  126.2470  124.0880   61.0590 C   0  0  0  0  0  0  0  0  0  0  0  0
  126.1510  123.7700   59.7010 C   0  0  0  0  0  0  0  0  0  0  0  0
  129.5420  125.5590   56.1590 C   0  0  0  0  0  0  0  0  0  0  0  0
  130.6090  125.7410   55.5280 O   0  0  0  0  0  0  0  0  0  0  0  0
  128.6900  124.6490   56.0180 O   0  0  0  0  0  0  0  0  0  0  0  0
  130.4110  129.2900   58.1810 N   0  0  0  0  0  0  0  0  0  0  0  0
  130.4480  130.7190   58.5850 C   0  0  0  0  0  0  0  0  0  0  0  0
  129.1420  131.0930   59.3550 C   0  0  0  0  0  0  0  0  0  0  0  0
  128.9160  132.4080   59.7980 C   0  0  0  0  0  0  0  0  0  0  0  0
  127.7480  132.7470   60.4740 C   0  0  0  0  0  0  0  0  0  0  0  0
  126.7840  131.7730   60.7140 C   0  0  0  0  0  0  0  0  0  0  0  0
  126.9800  130.4650   60.2830 C   0  0  0  0  0  0  0  0  0  0  0  0
  128.1500  130.1280   59.6080 C   0  0  0  0  0  0  0  0  0  0  0  0
  131.5870  131.0990   59.5860 C   0  0  0  0  0  0  0  0  0  0  0  0
  132.8790  131.4080   59.1250 C   0  0  0  0  0  0  0  0  0  0  0  0
  133.8960  131.7460   60.0140 C   0  0  0  0  0  0  0  0  0  0  0  0
  133.6330  131.7850   61.3790 C   0  0  0  0  0  0  0  0  0  0  0  0
  132.3600  131.4930   61.8600 C   0  0  0  0  0  0  0  0  0  0  0  0
  131.3450  131.1560   60.9680 C   0  0  0  0  0  0  0  0  0  0  0  0
  130.5310  131.4990   57.2280 C   0  0  0  0  0  0  0  0  0  0  0  0
  131.5890  131.3000   56.3240 C   0  0  0  0  0  0  0  0  0  0  0  0
  131.6390  131.9870   55.1150 C   0  0  0  0  0  0  0  0  0  0  0  0
  130.6220  132.8750   54.7840 C   0  0  0  0  0  0  0  0  0  0  0  0
  129.5510  133.0750   55.6490 C   0  0  0  0  0  0  0  0  0  0  0  0
  129.5050  132.3870   56.8580 C   0  0  0  0  0  0  0  0  0  0  0  0
  131.4331  126.6633   57.5818 H   0  0  0  0  0  0  0  0  0  0  0  0
  130.4396  126.0860   59.0345 H   0  0  0  0  0  0  0  0  0  0  0  0
  129.0449  127.5562   56.8167 H   0  0  0  0  0  0  0  0  0  0  0  0
  128.2070  125.3520   58.6990 H   0  0  0  0  0  0  0  0  0  0  0  0
  124.0540  126.0174   59.0978 H   0  0  0  0  0  0  0  0  0  0  0  0
  124.8128  125.9164   57.4673 H   0  0  0  0  0  0  0  0  0  0  0  0
  124.0676  123.8472   58.9840 H   0  0  0  0  0  0  0  0  0  0  0  0
  124.0595  123.9215   55.9651 H   0  0  0  0  0  0  0  0  0  0  0  0
  125.2139  122.6801   54.1332 H   0  0  0  0  0  0  0  0  0  0  0  0
  127.3707  121.5104   54.5800 H   0  0  0  0  0  0  0  0  0  0  0  0
  128.3812  121.5798   56.8630 H   0  0  0  0  0  0  0  0  0  0  0  0
  129.0094  121.9218   59.3665 H   0  0  0  0  0  0  0  0  0  0  0  0
  129.1795  122.4968   61.7914 H   0  0  0  0  0  0  0  0  0  0  0  0
  127.4108  123.8827   62.8741 H   0  0  0  0  0  0  0  0  0  0  0  0
  125.4668  124.6976   61.5383 H   0  0  0  0  0  0  0  0  0  0  0  0
  130.2830  129.1480   57.1900 H   0  0  0  0  0  0  0  0  0  0  0  0
  129.6747  133.1813   59.6071 H   0  0  0  0  0  0  0  0  0  0  0  0
  127.5877  133.7798   60.8169 H   0  0  0  0  0  0  0  0  0  0  0  0
  125.8601  132.0391   61.2484 H   0  0  0  0  0  0  0  0  0  0  0  0
  126.2134  129.6998   60.4748 H   0  0  0  0  0  0  0  0  0  0  0  0
  128.3009  129.0929   59.2678 H   0  0  0  0  0  0  0  0  0  0  0  0
  133.0895  131.3823   58.0456 H   0  0  0  0  0  0  0  0  0  0  0  0
  134.9028  131.9811   59.6383 H   0  0  0  0  0  0  0  0  0  0  0  0
  134.4361  132.0483   62.0830 H   0  0  0  0  0  0  0  0  0  0  0  0
  132.1564  131.5283   62.9404 H   0  0  0  0  0  0  0  0  0  0  0  0
  130.3389  130.9312   61.3517 H   0  0  0  0  0  0  0  0  0  0  0  0
  132.3902  130.5898   56.5764 H   0  0  0  0  0  0  0  0  0  0  0  0
  132.4799  131.8281   54.4239 H   0  0  0  0  0  0  0  0  0  0  0  0
  130.6644  133.4234   53.8314 H   0  0  0  0  0  0  0  0  0  0  0  0
  128.7449  133.7731   55.3789 H   0  0  0  0  0  0  0  0  0  0  0  0
  128.6520  132.5403   57.5354 H   0  0  0  0  0  0  0  0  0  0  0  0
  1  2  2  0
  2  3  1  0
  3  4  1  0
  4  5  1  0
  5  6  1  0
  6  7  2  0
  6  8  1  0
  8  9  1  0
  9 10  1  0
 10 11  1  0
 11 12  2  0
 12 13  1  0
 13 14  2  0
 14 15  1  0
 15 16  2  0
 16 17  1  0
 17 18  2  0
 18 19  1  0
 19 20  2  0
 20 21  1  0
 21 22  2  0
  4 23  1  0
 23 24  2  0
 23 25  1  0
  2 26  1  0
 26 27  1  0
 27 28  1  0
 28 29  2  0
 29 30  1  0
 30 31  2  0
 31 32  1  0
 32 33  2  0
 27 34  1  0
 34 35  2  0
 35 36  1  0
 36 37  2  0
 37 38  1  0
 38 39  2  0
 27 40  1  0
 40 41  2  0
 41 42  1  0
 42 43  2  0
 43 44  1  0
 44 45  2  0
 22 10  1  0
 33 28  1  0
 39 34  1  0
 45 40  1  0
 16 11  1  0
 22 17  1  0
  3 46  1  0
  3 47  1  0
  4 48  1  6
  5 49  1  0
  9 50  1  0
  9 51  1  0
 10 52  1  0
 12 53  1  0
 13 54  1  0
 14 55  1  0
 15 56  1  0
 18 57  1  0
 19 58  1  0
 20 59  1  0
 21 60  1  0
 26 61  1  0
 29 62  1  0
 30 63  1  0
 31 64  1  0
 32 65  1  0
 33 66  1  0
 35 67  1  0
 36 68  1  0
 37 69  1  0
 38 70  1  0
 39 71  1  0
 41 72  1  0
 42 73  1  0
 43 74  1  0
 44 75  1  0
 45 76  1  0
M  CHG  1  25  -1
M  END
>  <Binding energies>  (1) 
[-10.1]

>  <Ligand effiencies>  (1) 
[-0.2148936170212766]

>  <Interactions>  (1) 
["V-B:MET:535:CE:9806, V-B:ASP:366:CG:8184, V-B:LEU:363:CD1:8160, V-B:TYR:539:CD2:9845, V-B:PRO:540:CA:9854, V-B:TYR:539:CE2:9847, V-B:ALA:541:CB:9863, V-B:PRO:540:N:9855, V-B:TYR:539:CE1:9846, V-B:PRO:540:CB:9856, V-B:TYR:539:CZ:9848, V-B:TYR:539:C:9838, V-A:TYR:539:CD2:4874, V-B:ILE:538:CA:9831, V-A:TYR:539:CE2:4876, H-A:TYR:531:OH:4795, H-B:TYR:531:OH:9766, V-A:MET:535:CE:4835, H-B:TYR:539:OH:9849, V-B:TYR:539:CD1:9844, V-B:ASP:366:CB:8183, V-A:LEU:363:CA:3184, V-A:PRO:540:CB:4885, V-A:LEU:363:CD1:3188, V-A:TYR:531:CE2:4793, V-A:ASP:366:CG:3212, V-A:PRO:540:CA:4883, V-B:ILE:538:CD1:9836, V-B:TYR:539:CA:9840, V-B:TYR:539:CG:9843, V-A:MET:535:CG:4833, V-A:ILE:538:CB:4862, V-A:ILE:538:CA:4860, V-A:ILE:538:CG2:4863, V-A:ASN:362:CB:3175, V-B:ILE:538:C:9829, V-A:TYR:539:CE1:4875, H-A:ASN:370:ND2:3247, V-A:TYR:539:CD1:4873, V-A:ILE:538:C:4858, V-A:LEU:363:CB:3186, V-A:ASN:362:C:3171"]

$$$$
RR6_Rahimova_2017
     RDKit          3D

 63 66  0  0  0  0  0  0  0  0999 V2000
  130.3270  132.8870   55.1820 C   0  0  0  0  0  0  0  0  0  0  0  0
  130.2040  133.3250   56.5270 O   0  0  0  0  0  0  0  0  0  0  0  0
  131.1780  133.0670   57.4380 C   0  0  0  0  0  0  0  0  0  0  0  0
  132.3780  133.2740   57.2270 O   0  0  0  0  0  0  0  0  0  0  0  0
  130.6520  132.5050   58.7270 C   0  0  0  0  0  0  0  0  0  0  0  0
  129.3640  132.8010   59.1970 C   0  0  0  0  0  0  0  0  0  0  0  0
  128.9080  132.2700   60.4010 C   0  0  0  0  0  0  0  0  0  0  0  0
  129.7390  131.4330   61.1600 C   0  0  0  0  0  0  0  0  0  0  0  0
  129.3900  130.8670   62.4010 N   0  0  0  0  0  0  0  0  0  0  0  0
  128.3280  131.1310   63.1940 C   0  0  0  0  0  0  0  0  0  0  0  0
  127.4380  131.9440   62.9470 O   0  0  0  0  0  0  0  0  0  0  0  0
  128.2980  130.3810   64.5300 C   0  0  0  0  0  0  0  0  0  0  0  0
  127.7770  128.6390   64.3810 S   0  0  0  0  0  0  0  0  0  0  0  0
  128.7690  127.7070   65.5280 C   0  0  0  0  0  0  0  0  0  0  0  0
  129.5020  126.7200   64.9580 N   0  0  0  0  0  0  0  0  0  0  0  0
  130.3200  125.9590   65.7280 C   0  0  0  0  0  0  0  0  0  0  0  0
  131.1430  124.9290   65.0110 C   0  0  0  0  0  0  0  0  0  0  0  0
  130.6820  123.6120   64.8610 C   0  0  0  0  0  0  0  0  0  0  0  0
  131.4510  122.6540   64.2070 C   0  0  0  0  0  0  0  0  0  0  0  0
  132.6970  122.9960   63.6850 C   0  0  0  0  0  0  0  0  0  0  0  0
  133.5370  121.9460   62.9810 C   0  0  0  0  0  0  0  0  0  0  0  0
  133.1730  124.2990   63.8220 C   0  0  0  0  0  0  0  0  0  0  0  0
  132.4000  125.2530   64.4750 C   0  0  0  0  0  0  0  0  0  0  0  0
  130.4070  126.1730   67.1070 C   0  0  0  0  0  0  0  0  0  0  0  0
  129.6550  127.1840   67.7220 C   0  0  0  0  0  0  0  0  0  0  0  0
  129.8100  127.3700   69.1950 C   0  0  0  0  0  0  0  0  0  0  0  0
  130.7570  128.2690   69.6950 C   0  0  0  0  0  0  0  0  0  0  0  0
  130.8970  128.4600   71.0670 C   0  0  0  0  0  0  0  0  0  0  0  0
  130.0920  127.7610   71.9650 C   0  0  0  0  0  0  0  0  0  0  0  0
  130.2990  128.0160   73.3070 O   0  0  0  0  0  0  0  0  0  0  0  0
  129.3590  128.8170   74.0140 C   0  0  0  0  0  0  0  0  0  0  0  0
  129.1360  126.8610   71.4680 C   0  0  0  0  0  0  0  0  0  0  0  0
  128.9990  126.6730   70.0960 C   0  0  0  0  0  0  0  0  0  0  0  0
  128.8030  127.9750   66.9120 C   0  0  0  0  0  0  0  0  0  0  0  0
  127.9680  129.0310   67.4930 C   0  0  0  0  0  0  0  0  0  0  0  0
  127.3110  129.8650   67.9530 N   0  0  0  0  0  0  0  0  0  0  0  0
  131.0140  131.1220   60.6880 C   0  0  0  0  0  0  0  0  0  0  0  0
  131.4690  131.6560   59.4850 C   0  0  0  0  0  0  0  0  0  0  0  0
  130.6244  131.8281   55.1670 H   0  0  0  0  0  0  0  0  0  0  0  0
  129.3613  133.0040   54.6685 H   0  0  0  0  0  0  0  0  0  0  0  0
  131.0907  133.4896   54.6685 H   0  0  0  0  0  0  0  0  0  0  0  0
  128.7076  133.4591   58.6088 H   0  0  0  0  0  0  0  0  0  0  0  0
  127.8947  132.5074   60.7572 H   0  0  0  0  0  0  0  0  0  0  0  0
  130.0810  130.2360   62.7790 H   0  0  0  0  0  0  0  0  0  0  0  0
  129.3081  130.4055   64.9648 H   0  0  0  0  0  0  0  0  0  0  0  0
  127.5554  130.8856   65.1655 H   0  0  0  0  0  0  0  0  0  0  0  0
  129.6983  123.3328   65.2664 H   0  0  0  0  0  0  0  0  0  0  0  0
  131.0748  121.6257   64.1020 H   0  0  0  0  0  0  0  0  0  0  0  0
  134.0404  121.3167   63.7297 H   0  0  0  0  0  0  0  0  0  0  0  0
  132.8883  121.3191   62.3515 H   0  0  0  0  0  0  0  0  0  0  0  0
  134.2910  122.4412   62.3515 H   0  0  0  0  0  0  0  0  0  0  0  0
  134.1576  124.5720   63.4146 H   0  0  0  0  0  0  0  0  0  0  0  0
  132.7802  126.2805   64.5735 H   0  0  0  0  0  0  0  0  0  0  0  0
  131.0718  125.5421   67.7153 H   0  0  0  0  0  0  0  0  0  0  0  0
  131.3970  128.8303   68.9983 H   0  0  0  0  0  0  0  0  0  0  0  0
  131.6489  129.1682   71.4454 H   0  0  0  0  0  0  0  0  0  0  0  0
  129.5090  128.6892   75.0962 H   0  0  0  0  0  0  0  0  0  0  0  0
  129.5032  129.8741   73.7461 H   0  0  0  0  0  0  0  0  0  0  0  0
  128.3382  128.5069   73.7461 H   0  0  0  0  0  0  0  0  0  0  0  0
  128.4935  126.3029   72.1650 H   0  0  0  0  0  0  0  0  0  0  0  0
  128.2445  125.9684   69.7161 H   0  0  0  0  0  0  0  0  0  0  0  0
  131.6638  130.4512   61.2692 H   0  0  0  0  0  0  0  0  0  0  0  0
  132.4792  131.4089   59.1266 H   0  0  0  0  0  0  0  0  0  0  0  0
  1  2  1  0
  2  3  1  0
  3  4  2  0
  3  5  1  0
  5  6  2  0
  6  7  1  0
  7  8  2  0
  8  9  1  0
  9 10  1  0
 10 11  2  0
 10 12  1  0
 12 13  1  0
 13 14  1  0
 14 15  2  0
 15 16  1  0
 16 17  1  0
 17 18  2  0
 18 19  1  0
 19 20  2  0
 20 21  1  0
 20 22  1  0
 22 23  2  0
 16 24  2  0
 24 25  1  0
 25 26  1  0
 26 27  2  0
 27 28  1  0
 28 29  2  0
 29 30  1  0
 30 31  1  0
 29 32  1  0
 32 33  2  0
 25 34  2  0
 34 35  1  0
 35 36  3  0
  8 37  1  0
 37 38  2  0
 38  5  1  0
 34 14  1  0
 23 17  1  0
 33 26  1  0
  1 39  1  0
  1 40  1  0
  1 41  1  0
  6 42  1  0
  7 43  1  0
  9 44  1  0
 12 45  1  0
 12 46  1  0
 18 47  1  0
 19 48  1  0
 21 49  1  0
 21 50  1  0
 21 51  1  0
 22 52  1  0
 23 53  1  0
 24 54  1  0
 27 55  1  0
 28 56  1  0
 31 57  1  0
 31 58  1  0
 31 59  1  0
 32 60  1  0
 33 61  1  0
 37 62  1  0
 38 63  1  0
M  END
>  <Binding energies>  (1) 
[-9.94]

>  <Ligand effiencies>  (1) 
[-0.25487179487179484]

>  <Interactions>  (1) 
["V-A:HIS:456:CE1:4069, V-A:GLU:543:CB:4906, V-A:GLU:543:CG:4907, V-B:GLU:543:CD:9879, V-A:GLU:543:CD:4908, V-B:HIS:456:CE1:9041, H-A:LYS:547:NZ:4951, V-A:LEU:475:CD2:4258, V-A:ARG:545:CZ:4926, V-A:TYR:539:C:4867, V-A:PRO:540:N:4884, V-A:MET:535:CE:4835, V-A:PRO:540:CB:4885, V-A:PRO:540:CA:4883, V-A:GLY:454:CA:4048, V-A:ILE:369:CD1:3238, H-B:TYR:484:OH:9319, V-A:PRO:540:CD:4887, H-A:TYR:539:N:4870, H-A:GLU:543:OE1:4909, V-A:ILE:538:CB:4862, V-A:ILE:538:CA:4860, V-A:ILE:538:CG2:4863, V-A:ILE:538:C:4858, H-B:HIS:456:ND1:9038"]

$$$$
RR7_Rahimova_2017
     RDKit          3D

 80 86  0  0  0  0  0  0  0  0999 V2000
  127.3990  131.5100   58.5210 C   0  0  0  0  0  0  0  0  0  0  0  0
  127.3010  130.5700   57.4560 O   0  0  0  0  0  0  0  0  0  0  0  0
  127.2670  129.2200   57.7510 C   0  0  0  0  0  0  0  0  0  0  0  0
  127.7110  128.3530   56.7540 C   0  0  0  0  0  0  0  0  0  0  0  0
  127.7190  126.9780   56.9620 C   0  0  0  0  0  0  0  0  0  0  0  0
  127.2690  126.4330   58.1740 C   0  0  0  0  0  0  0  0  0  0  0  0
  127.2960  124.8970   58.4460 C   0  0  0  0  0  0  0  0  0  0  0  0
  128.5820  124.6130   59.0430 O   0  0  0  0  0  0  0  0  0  0  0  0
  129.7030  124.2950   58.2110 C   0  0  0  0  0  0  0  0  0  0  0  0
  130.6360  125.5150   58.1400 C   0  0  1  0  0  0  0  0  0  0  0  0
  130.4270  126.2640   59.3340 O   0  0  0  0  0  0  0  0  0  0  0  0
  131.6050  126.4080   60.0750 C   0  0  1  0  0  0  0  0  0  0  0  0
  131.3030  126.4330   61.4930 N   0  0  0  0  0  0  0  0  0  0  0  0
  130.2650  127.0890   62.1320 C   0  0  0  0  0  0  0  0  0  0  0  0
  130.2530  126.9810   63.4380 N   0  0  0  0  0  0  0  0  0  0  0  0
  131.3740  126.2470   63.7160 C   0  0  0  0  0  0  0  0  0  0  0  0
  131.9330  125.8010   64.9290 C   0  0  0  0  0  0  0  0  0  0  0  0
  131.2720  126.1160   66.1320 N   0  0  0  0  0  0  0  0  0  0  0  0
  130.2560  125.4620   66.7430 C   0  0  0  0  0  0  0  0  0  0  0  0
  129.7180  124.4450   66.2980 O   0  0  0  0  0  0  0  0  0  0  0  0
  129.7650  126.0760   68.0360 C   0  0  0  0  0  0  0  0  0  0  0  0
  128.8890  125.3520   68.8590 C   0  0  0  0  0  0  0  0  0  0  0  0
  128.4290  125.8960   70.0560 C   0  0  0  0  0  0  0  0  0  0  0  0
  128.8460  127.1660   70.4420 C   0  0  0  0  0  0  0  0  0  0  0  0
  129.7190  127.8980   69.6420 C   0  0  0  0  0  0  0  0  0  0  0  0
  130.1780  127.3560   68.4440 C   0  0  0  0  0  0  0  0  0  0  0  0
  133.0960  125.0840   64.9050 N   0  0  0  0  0  0  0  0  0  0  0  0
  133.6620  124.8340   63.6960 C   0  0  0  0  0  0  0  0  0  0  0  0
  133.2090  125.2110   62.4700 N   0  0  0  0  0  0  0  0  0  0  0  0
  132.0650  125.9060   62.5240 C   0  0  0  0  0  0  0  0  0  0  0  0
  132.5020  125.2590   59.6290 C   0  0  0  0  0  0  0  0  0  0  0  0
  132.1360  125.1870   58.1560 C   0  0  2  0  0  0  0  0  0  0  0  0
  132.8960  126.0930   57.3740 O   0  0  0  0  0  0  0  0  0  0  0  0
  126.2160  124.4600   59.4710 C   0  0  0  0  0  0  0  0  0  0  0  0
  124.8540  124.6560   59.1910 C   0  0  0  0  0  0  0  0  0  0  0  0
  123.8770  124.2800   60.1070 C   0  0  0  0  0  0  0  0  0  0  0  0
  124.2530  123.7040   61.3170 C   0  0  0  0  0  0  0  0  0  0  0  0
  125.5970  123.5010   61.6160 C   0  0  0  0  0  0  0  0  0  0  0  0
  126.5730  123.8780   60.6990 C   0  0  0  0  0  0  0  0  0  0  0  0
  127.0880  123.9850   57.2040 C   0  0  0  0  0  0  0  0  0  0  0  0
  126.2300  122.8760   57.2730 C   0  0  0  0  0  0  0  0  0  0  0  0
  126.0440  122.0490   56.1700 C   0  0  0  0  0  0  0  0  0  0  0  0
  126.7240  122.3170   54.9850 C   0  0  0  0  0  0  0  0  0  0  0  0
  127.5890  123.4030   54.8990 C   0  0  0  0  0  0  0  0  0  0  0  0
  127.7740  124.2290   56.0030 C   0  0  0  0  0  0  0  0  0  0  0  0
  126.8360  127.3110   59.1780 C   0  0  0  0  0  0  0  0  0  0  0  0
  126.8290  128.6870   58.9710 C   0  0  0  0  0  0  0  0  0  0  0  0
  127.3438  130.9805   59.4836 H   0  0  0  0  0  0  0  0  0  0  0  0
  128.3578  132.0447   58.4511 H   0  0  0  0  0  0  0  0  0  0  0  0
  126.5712  132.2310   58.4511 H   0  0  0  0  0  0  0  0  0  0  0  0
  128.0585  128.7604   55.7931 H   0  0  0  0  0  0  0  0  0  0  0  0
  128.0823  126.3100   56.1672 H   0  0  0  0  0  0  0  0  0  0  0  0
  130.2471  123.4390   58.6367 H   0  0  0  0  0  0  0  0  0  0  0  0
  129.3540  124.0349   57.2008 H   0  0  0  0  0  0  0  0  0  0  0  0
  130.3998  126.0241   57.1940 H   0  0  0  0  0  0  0  0  0  0  0  0
  132.1283  127.3593   59.8985 H   0  0  0  0  0  0  0  0  0  0  0  0
  129.5033  127.6611   61.5819 H   0  0  0  0  0  0  0  0  0  0  0  0
  131.6120  126.9490   66.5900 H   0  0  0  0  0  0  0  0  0  0  0  0
  128.5627  124.3461   68.5563 H   0  0  0  0  0  0  0  0  0  0  0  0
  127.7389  125.3238   70.6935 H   0  0  0  0  0  0  0  0  0  0  0  0
  128.4828  127.5953   71.3874 H   0  0  0  0  0  0  0  0  0  0  0  0
  130.0451  128.9009   69.9549 H   0  0  0  0  0  0  0  0  0  0  0  0
  130.8688  127.9339   67.8125 H   0  0  0  0  0  0  0  0  0  0  0  0
  134.5988  124.2577   63.7098 H   0  0  0  0  0  0  0  0  0  0  0  0
  133.5669  125.4941   59.7730 H   0  0  0  0  0  0  0  0  0  0  0  0
  132.3605  124.3208   60.1856 H   0  0  0  0  0  0  0  0  0  0  0  0
  132.3542  124.2048   57.7114 H   0  0  0  0  0  0  0  0  0  0  0  0
  132.5390  126.9760   57.4960 H   0  0  0  0  0  0  0  0  0  0  0  0
  124.5560  125.1125   58.2356 H   0  0  0  0  0  0  0  0  0  0  0  0
  122.8130  124.4370   59.8763 H   0  0  0  0  0  0  0  0  0  0  0  0
  123.4817  123.4068   62.0428 H   0  0  0  0  0  0  0  0  0  0  0  0
  125.8865  123.0442   62.5738 H   0  0  0  0  0  0  0  0  0  0  0  0
  127.6349  123.7188   60.9378 H   0  0  0  0  0  0  0  0  0  0  0  0
  125.6982  122.6583   58.2109 H   0  0  0  0  0  0  0  0  0  0  0  0
  125.3630  121.1875   56.2337 H   0  0  0  0  0  0  0  0  0  0  0  0
  126.5763  121.6656   54.1110 H   0  0  0  0  0  0  0  0  0  0  0  0
  128.1252  123.6081   53.9607 H   0  0  0  0  0  0  0  0  0  0  0  0
  128.4649  125.0822   55.9346 H   0  0  0  0  0  0  0  0  0  0  0  0
  126.4970  126.9062   60.1430 H   0  0  0  0  0  0  0  0  0  0  0  0
  126.4783  129.3591   59.7681 H   0  0  0  0  0  0  0  0  0  0  0  0
  1  2  1  0
  2  3  1  0
  3  4  2  0
  4  5  1  0
  5  6  2  0
  6  7  1  0
  7  8  1  0
  8  9  1  0
  9 10  1  0
 10 11  1  0
 11 12  1  0
 12 13  1  0
 13 14  1  0
 14 15  2  0
 15 16  1  0
 16 17  2  0
 17 18  1  0
 18 19  1  0
 19 20  2  0
 19 21  1  0
 21 22  2  0
 22 23  1  0
 23 24  2  0
 24 25  1  0
 25 26  2  0
 17 27  1  0
 27 28  2  0
 28 29  1  0
 29 30  2  0
 12 31  1  0
 31 32  1  0
 32 33  1  0
  7 34  1  0
 34 35  2  0
 35 36  1  0
 36 37  2  0
 37 38  1  0
 38 39  2  0
  7 40  1  0
 40 41  2  0
 41 42  1  0
 42 43  2  0
 43 44  1  0
 44 45  2  0
  6 46  1  0
 46 47  2  0
 47  3  1  0
 32 10  1  0
 39 34  1  0
 45 40  1  0
 30 13  1  0
 30 16  1  0
 26 21  1  0
  1 48  1  0
  1 49  1  0
  1 50  1  0
  4 51  1  0
  5 52  1  0
  9 53  1  0
  9 54  1  0
 10 55  1  6
 12 56  1  6
 14 57  1  0
 18 58  1  0
 22 59  1  0
 23 60  1  0
 24 61  1  0
 25 62  1  0
 26 63  1  0
 28 64  1  0
 31 65  1  0
 31 66  1  0
 32 67  1  6
 33 68  1  0
 35 69  1  0
 36 70  1  0
 37 71  1  0
 38 72  1  0
 39 73  1  0
 41 74  1  0
 42 75  1  0
 43 76  1  0
 44 77  1  0
 45 78  1  0
 46 79  1  0
 47 80  1  0
M  END
>  <Binding energies>  (1) 
[-10.64]

>  <Ligand effiencies>  (1) 
[-0.21714285714285717]

>  <Interactions>  (1) 
["V-A:HIS:456:CE1:4069, V-A:GLU:543:CB:4906, V-A:GLU:543:CD:4908, V-B:HIS:456:CE1:9041, V-B:GLU:543:C:9873, V-B:GLU:543:CB:9877, V-B:GLU:543:CG:9878, V-B:GLU:543:CA:9875, V-B:MET:535:CE:9806, V-B:ASP:366:CG:8184, V-B:LEU:363:CA:8156, V-B:ASN:362:C:8143, V-B:PRO:540:CA:9854, V-B:TYR:539:CE2:9847, V-B:PRO:540:N:9855, V-B:TYR:539:CE1:9846, V-B:PRO:540:CB:9856, V-B:TYR:539:CZ:9848, V-A:ASP:366:CB:3211, V-B:TYR:539:C:9838, V-B:PRO:540:CD:9858, V-A:ARG:545:CZ:4926, V-B:ILE:538:CA:9831, V-A:TYR:539:CE2:4876, H-A:TYR:531:OH:4795, H-B:TYR:539:OH:9849, V-B:TYR:539:CD1:9844, H-A:GLY:454:N:4049, V-A:ASP:366:CA:3209, V-B:ASN:362:CA:8145, V-B:ASN:362:CB:8147, V-A:ASP:366:CG:3212, H-A:TYR:484:OH:4347, V-B:ILE:538:CD1:9836, V-B:TYR:539:CA:9840, H-A:GLU:543:OE2:4910, H-A:ASP:366:O:3208"]

$$$$
RR8_A_Rahimova_2017
     RDKit          3D

 73 77  0  0  0  0  0  0  0  0999 V2000
  127.5420  123.0380   62.0900 O   0  0  0  0  0  0  0  0  0  0  0  0
  128.0800  124.1500   62.1390 C   0  0  0  0  0  0  0  0  0  0  0  0
  127.6120  125.2640   61.4940 O   0  0  0  0  0  0  0  0  0  0  0  0
  128.0530  125.4880   60.1840 C   0  0  1  0  0  0  0  0  0  0  0  0
  128.8770  126.6140   60.1020 O   0  0  0  0  0  0  0  0  0  0  0  0
  129.9530  126.4190   59.1890 C   0  0  2  0  0  0  0  0  0  0  0  0
  129.9160  127.5440   58.1400 C   0  0  0  0  0  0  0  0  0  0  0  0
  131.1400  128.2640   58.1980 O   0  0  0  0  0  0  0  0  0  0  0  0
  131.0630  129.4760   58.9360 C   0  0  0  0  0  0  0  0  0  0  0  0
  131.1270  130.6640   57.9870 C   0  0  0  0  0  0  0  0  0  0  0  0
  132.0430  130.6630   56.9310 C   0  0  0  0  0  0  0  0  0  0  0  0
  132.1000  131.7460   56.0570 C   0  0  0  0  0  0  0  0  0  0  0  0
  131.2380  132.8260   56.2390 C   0  0  0  0  0  0  0  0  0  0  0  0
  130.3170  132.8320   57.2850 C   0  0  0  0  0  0  0  0  0  0  0  0
  130.2600  131.7480   58.1580 C   0  0  0  0  0  0  0  0  0  0  0  0
  129.7180  125.0020   58.6460 C   0  0  1  0  0  0  0  0  0  0  0  0
  130.9250  124.2650   58.4630 O   0  0  0  0  0  0  0  0  0  0  0  0
  132.0500  124.7310   59.1990 C   0  0  0  0  0  0  0  0  0  0  0  0
  132.3720  123.7590   60.3260 C   0  0  0  0  0  0  0  0  0  0  0  0
  131.6740  122.5510   60.4200 C   0  0  0  0  0  0  0  0  0  0  0  0
  131.9560  121.6620   61.4540 C   0  0  0  0  0  0  0  0  0  0  0  0
  132.9330  121.9850   62.3940 C   0  0  0  0  0  0  0  0  0  0  0  0
  133.6270  123.1890   62.3120 C   0  0  0  0  0  0  0  0  0  0  0  0
  133.3450  124.0790   61.2790 C   0  0  0  0  0  0  0  0  0  0  0  0
  128.9410  124.3260   59.7600 C   0  0  2  0  0  0  0  0  0  0  0  0
  128.2170  123.2050   59.2570 O   0  0  0  0  0  0  0  0  0  0  0  0
  126.8690  123.4620   58.8780 C   0  0  0  0  0  0  0  0  0  0  0  0
  126.6600  123.0830   57.4200 C   0  0  0  0  0  0  0  0  0  0  0  0
  125.5170  122.3750   57.0330 C   0  0  0  0  0  0  0  0  0  0  0  0
  125.3250  122.0400   55.6950 C   0  0  0  0  0  0  0  0  0  0  0  0
  126.2750  122.4140   54.7470 C   0  0  0  0  0  0  0  0  0  0  0  0
  127.4130  123.1240   55.1230 C   0  0  0  0  0  0  0  0  0  0  0  0
  127.6050  123.4600   56.4610 C   0  0  0  0  0  0  0  0  0  0  0  0
  129.3240  124.4210   62.9330 C   0  0  0  0  0  0  0  0  0  0  0  0
  130.0630  125.6040   62.7730 C   0  0  0  0  0  0  0  0  0  0  0  0
  131.2140  125.8260   63.5240 C   0  0  0  0  0  0  0  0  0  0  0  0
  131.6570  124.8730   64.4510 C   0  0  0  0  0  0  0  0  0  0  0  0
  132.8830  125.1110   65.2510 N   0  0  0  0  0  0  0  0  0  0  0  0
  132.7640  125.3910   66.4400 O   0  0  0  0  0  0  0  0  0  0  0  0
  133.9750  125.0200   64.6960 O   0  0  0  0  0  0  0  0  0  0  0  0
  130.9210  123.6920   64.6070 C   0  0  0  0  0  0  0  0  0  0  0  0
  129.7700  123.4680   63.8580 C   0  0  0  0  0  0  0  0  0  0  0  0
  127.1565  125.6108   59.5586 H   0  0  0  0  0  0  0  0  0  0  0  0
  130.9646  126.4784   59.6170 H   0  0  0  0  0  0  0  0  0  0  0  0
  129.7892  127.1104   57.1370 H   0  0  0  0  0  0  0  0  0  0  0  0
  129.0739  128.2207   58.3469 H   0  0  0  0  0  0  0  0  0  0  0  0
  130.1149  129.5045   59.4930 H   0  0  0  0  0  0  0  0  0  0  0  0
  131.9080  129.5271   59.6385 H   0  0  0  0  0  0  0  0  0  0  0  0
  132.7190  129.8067   56.7903 H   0  0  0  0  0  0  0  0  0  0  0  0
  132.8219  131.7489   55.2270 H   0  0  0  0  0  0  0  0  0  0  0  0
  131.2851  133.6823   55.5501 H   0  0  0  0  0  0  0  0  0  0  0  0
  129.6391  133.6877   57.4204 H   0  0  0  0  0  0  0  0  0  0  0  0
  129.5322  131.7446   58.9828 H   0  0  0  0  0  0  0  0  0  0  0  0
  129.2203  125.0425   57.6659 H   0  0  0  0  0  0  0  0  0  0  0  0
  132.9175  124.8107   58.5273 H   0  0  0  0  0  0  0  0  0  0  0  0
  131.8188  125.7175   59.6272 H   0  0  0  0  0  0  0  0  0  0  0  0
  130.9019  122.3029   59.6769 H   0  0  0  0  0  0  0  0  0  0  0  0
  131.4105  120.7097   61.5285 H   0  0  0  0  0  0  0  0  0  0  0  0
  133.1580  121.2814   63.2090 H   0  0  0  0  0  0  0  0  0  0  0  0
  134.3948  123.4361   63.0600 H   0  0  0  0  0  0  0  0  0  0  0  0
  133.8872  125.0337   61.2122 H   0  0  0  0  0  0  0  0  0  0  0  0
  129.5302  123.8957   60.5832 H   0  0  0  0  0  0  0  0  0  0  0  0
  126.1928  122.8675   59.5099 H   0  0  0  0  0  0  0  0  0  0  0  0
  126.6541  124.5329   59.0082 H   0  0  0  0  0  0  0  0  0  0  0  0
  124.7699  122.0829   57.7857 H   0  0  0  0  0  0  0  0  0  0  0  0
  124.4276  121.4828   55.3881 H   0  0  0  0  0  0  0  0  0  0  0  0
  126.1249  122.1459   53.6908 H   0  0  0  0  0  0  0  0  0  0  0  0
  128.1562  123.4178   54.3671 H   0  0  0  0  0  0  0  0  0  0  0  0
  128.5007  124.0223   56.7634 H   0  0  0  0  0  0  0  0  0  0  0  0
  129.7298  126.3616   62.0484 H   0  0  0  0  0  0  0  0  0  0  0  0
  131.7813  126.7586   63.3884 H   0  0  0  0  0  0  0  0  0  0  0  0
  131.2564  122.9333   65.3294 H   0  0  0  0  0  0  0  0  0  0  0  0
  129.2050  122.5340   63.9934 H   0  0  0  0  0  0  0  0  0  0  0  0
  1  2  2  0
  2  3  1  0
  3  4  1  0
  4  5  1  0
  5  6  1  0
  6  7  1  0
  7  8  1  0
  8  9  1  0
  9 10  1  0
 10 11  2  0
 11 12  1  0
 12 13  2  0
 13 14  1  0
 14 15  2  0
  6 16  1  0
 16 17  1  0
 17 18  1  0
 18 19  1  0
 19 20  2  0
 20 21  1  0
 21 22  2  0
 22 23  1  0
 23 24  2  0
 16 25  1  0
 25 26  1  0
 26 27  1  0
 27 28  1  0
 28 29  2  0
 29 30  1  0
 30 31  2  0
 31 32  1  0
 32 33  2  0
  2 34  1  0
 34 35  2  0
 35 36  1  0
 36 37  2  0
 37 38  1  0
 38 39  2  0
 38 40  1  0
 37 41  1  0
 41 42  2  0
 25  4  1  0
 33 28  1  0
 42 34  1  0
 15 10  1  0
 24 19  1  0
  4 43  1  6
  6 44  1  1
  7 45  1  0
  7 46  1  0
  9 47  1  0
  9 48  1  0
 11 49  1  0
 12 50  1  0
 13 51  1  0
 14 52  1  0
 15 53  1  0
 16 54  1  6
 18 55  1  0
 18 56  1  0
 20 57  1  0
 21 58  1  0
 22 59  1  0
 23 60  1  0
 24 61  1  0
 25 62  1  1
 27 63  1  0
 27 64  1  0
 29 65  1  0
 30 66  1  0
 31 67  1  0
 32 68  1  0
 33 69  1  0
 35 70  1  0
 36 71  1  0
 41 72  1  0
 42 73  1  0
M  CHG  2  38   1  40  -1
M  END
>  <Binding energies>  (1) 
[-9.28]

>  <Ligand effiencies>  (1) 
[-0.22095238095238093]

>  <Interactions>  (1) 
["V-B:GLU:543:CG:9878, V-B:MET:535:CE:9806, V-B:LEU:363:CD1:8160, V-B:PRO:540:CA:9854, V-B:TYR:539:CE2:9847, V-B:ALA:541:CB:9863, V-B:PRO:540:N:9855, V-A:LEU:475:CD2:4258, V-B:TYR:539:CE1:9846, V-B:PRO:540:CB:9856, H-B:ALA:541:N:9862, V-A:ILE:369:CG2:3236, V-B:TYR:539:CZ:9848, V-B:TYR:539:C:9838, V-B:PRO:540:CD:9858, V-A:ARG:545:CZ:4926, V-B:ILE:538:CA:9831, V-A:TYR:539:C:4867, H-A:TYR:531:OH:4795, V-A:PRO:540:N:4884, V-B:PRO:540:CG:9857, H-B:TYR:539:OH:9849, V-B:TYR:539:CD1:9844, V-A:TYR:531:CZ:4794, H-A:GLY:454:N:4049, V-B:ILE:538:CG2:9834, V-A:LEU:363:CD1:3188, V-A:TYR:531:CE2:4793, H-A:TYR:484:OH:4347, V-B:ILE:538:CD1:9836, V-A:GLY:454:CA:4048, H-A:ARG:545:NH1:4927, V-A:ILE:369:CD1:3238, H-A:ARG:545:NE:4924, V-A:ILE:538:CB:4862, V-A:ILE:538:CA:4860, V-B:ILE:538:C:9829"]

$$$$
RR8_B_Rahimova_2017
     RDKit          3D

 73 77  0  0  0  0  0  0  0  0999 V2000
  124.3000  131.7100   57.7620 O   0  0  0  0  0  0  0  0  0  0  0  0
  124.8960  130.9010   58.4810 C   0  0  0  0  0  0  0  0  0  0  0  0
  125.7170  129.9120   58.0150 O   0  0  0  0  0  0  0  0  0  0  0  0
  126.5350  130.1960   56.9070 C   0  0  2  0  0  0  0  0  0  0  0  0
  126.8690  129.0380   56.1940 O   0  0  0  0  0  0  0  0  0  0  0  0
  128.0920  128.4720   56.6620 C   0  0  2  0  0  0  0  0  0  0  0  0
  127.8430  127.0250   57.1270 C   0  0  0  0  0  0  0  0  0  0  0  0
  126.5130  126.9140   57.6180 O   0  0  0  0  0  0  0  0  0  0  0  0
  126.2900  125.8220   58.4980 C   0  0  0  0  0  0  0  0  0  0  0  0
  126.2170  124.5350   57.6900 C   0  0  0  0  0  0  0  0  0  0  0  0
  125.0870  124.2670   56.9130 C   0  0  0  0  0  0  0  0  0  0  0  0
  125.0030  123.0790   56.1910 C   0  0  0  0  0  0  0  0  0  0  0  0
  126.0520  122.1640   56.2470 C   0  0  0  0  0  0  0  0  0  0  0  0
  127.1840  122.4270   57.0140 C   0  0  0  0  0  0  0  0  0  0  0  0
  127.2670  123.6130   57.7390 C   0  0  0  0  0  0  0  0  0  0  0  0
  128.5670  129.4410   57.7510 C   0  0  1  0  0  0  0  0  0  0  0  0
  129.9950  129.5310   57.7320 O   0  0  0  0  0  0  0  0  0  0  0  0
  130.6880  129.1120   58.9100 C   0  0  0  0  0  0  0  0  0  0  0  0
  130.6020  130.1440   60.0300 C   0  0  0  0  0  0  0  0  0  0  0  0
  129.4100  130.3090   60.7410 C   0  0  0  0  0  0  0  0  0  0  0  0
  129.3430  131.2300   61.7830 C   0  0  0  0  0  0  0  0  0  0  0  0
  130.4680  131.9850   62.1080 C   0  0  0  0  0  0  0  0  0  0  0  0
  131.6580  131.8300   61.4010 C   0  0  0  0  0  0  0  0  0  0  0  0
  131.7260  130.9060   60.3600 C   0  0  0  0  0  0  0  0  0  0  0  0
  127.8740  130.7510   57.3900 C   0  0  2  0  0  0  0  0  0  0  0  0
  127.7690  131.5890   58.5380 O   0  0  0  0  0  0  0  0  0  0  0  0
  128.3770  132.8660   58.4230 C   0  0  0  0  0  0  0  0  0  0  0  0
  129.5140  132.7630   57.4220 C   0  0  0  0  0  0  0  0  0  0  0  0
  130.8190  132.5150   57.8580 C   0  0  0  0  0  0  0  0  0  0  0  0
  131.8570  132.4420   56.9330 C   0  0  0  0  0  0  0  0  0  0  0  0
  131.5880  132.6170   55.5770 C   0  0  0  0  0  0  0  0  0  0  0  0
  130.2890  132.8630   55.1350 C   0  0  0  0  0  0  0  0  0  0  0  0
  129.2510  132.9350   56.0600 C   0  0  0  0  0  0  0  0  0  0  0  0
  124.7610  130.8770   59.9760 C   0  0  0  0  0  0  0  0  0  0  0  0
  125.6340  130.1340   60.7850 C   0  0  0  0  0  0  0  0  0  0  0  0
  125.4810  130.1240   62.1670 C   0  0  0  0  0  0  0  0  0  0  0  0
  124.4470  130.8460   62.7750 C   0  0  0  0  0  0  0  0  0  0  0  0
  124.2690  130.8120   64.2480 N   0  0  0  0  0  0  0  0  0  0  0  0
  123.7410  129.8250   64.7550 O   0  0  0  0  0  0  0  0  0  0  0  0
  124.6600  131.7700   64.9100 O   0  0  0  0  0  0  0  0  0  0  0  0
  123.5790  131.5920   61.9680 C   0  0  0  0  0  0  0  0  0  0  0  0
  123.7360  131.6090   60.5860 C   0  0  0  0  0  0  0  0  0  0  0  0
  125.9709  130.9001   56.2777 H   0  0  0  0  0  0  0  0  0  0  0  0
  128.8804  128.3728   55.9014 H   0  0  0  0  0  0  0  0  0  0  0  0
  127.9809  126.3373   56.2796 H   0  0  0  0  0  0  0  0  0  0  0  0
  128.5544  126.7656   57.9249 H   0  0  0  0  0  0  0  0  0  0  0  0
  127.1172  125.7566   59.2201 H   0  0  0  0  0  0  0  0  0  0  0  0
  125.3449  125.9717   59.0406 H   0  0  0  0  0  0  0  0  0  0  0  0
  124.2632  124.9948   56.8715 H   0  0  0  0  0  0  0  0  0  0  0  0
  124.1137  122.8645   55.5802 H   0  0  0  0  0  0  0  0  0  0  0  0
  125.9853  121.2241   55.6795 H   0  0  0  0  0  0  0  0  0  0  0  0
  128.0095  121.7007   57.0471 H   0  0  0  0  0  0  0  0  0  0  0  0
  128.1574  123.8242   58.3494 H   0  0  0  0  0  0  0  0  0  0  0  0
  128.3173  129.1316   58.7766 H   0  0  0  0  0  0  0  0  0  0  0  0
  130.2464  128.1686   59.2635 H   0  0  0  0  0  0  0  0  0  0  0  0
  131.7492  128.9859   58.6493 H   0  0  0  0  0  0  0  0  0  0  0  0
  128.5250  129.7113   60.4774 H   0  0  0  0  0  0  0  0  0  0  0  0
  128.4073  131.3608   62.3464 H   0  0  0  0  0  0  0  0  0  0  0  0
  130.4158  132.7116   62.9322 H   0  0  0  0  0  0  0  0  0  0  0  0
  132.5394  132.4337   61.6629 H   0  0  0  0  0  0  0  0  0  0  0  0
  132.6632  130.7766   59.7988 H   0  0  0  0  0  0  0  0  0  0  0  0
  128.3771  131.3945   56.6532 H   0  0  0  0  0  0  0  0  0  0  0  0
  127.6371  133.6002   58.0715 H   0  0  0  0  0  0  0  0  0  0  0  0
  128.7606  133.1931   59.4007 H   0  0  0  0  0  0  0  0  0  0  0  0
  131.0253  132.3778   58.9297 H   0  0  0  0  0  0  0  0  0  0  0  0
  132.8854  132.2470   57.2713 H   0  0  0  0  0  0  0  0  0  0  0  0
  132.4094  132.5604   54.8476 H   0  0  0  0  0  0  0  0  0  0  0  0
  130.0855  132.9993   54.0626 H   0  0  0  0  0  0  0  0  0  0  0  0
  128.2231  133.1274   55.7188 H   0  0  0  0  0  0  0  0  0  0  0  0
  126.4463  129.5545   60.3220 H   0  0  0  0  0  0  0  0  0  0  0  0
  126.1788  129.5435   62.7883 H   0  0  0  0  0  0  0  0  0  0  0  0
  122.7656  132.1698   62.4312 H   0  0  0  0  0  0  0  0  0  0  0  0
  123.0481  132.2034   59.9668 H   0  0  0  0  0  0  0  0  0  0  0  0
  1  2  2  0
  2  3  1  0
  3  4  1  0
  4  5  1  0
  5  6  1  0
  6  7  1  0
  7  8  1  0
  8  9  1  0
  9 10  1  0
 10 11  2  0
 11 12  1  0
 12 13  2  0
 13 14  1  0
 14 15  2  0
  6 16  1  0
 16 17  1  0
 17 18  1  0
 18 19  1  0
 19 20  2  0
 20 21  1  0
 21 22  2  0
 22 23  1  0
 23 24  2  0
 16 25  1  0
 25 26  1  0
 26 27  1  0
 27 28  1  0
 28 29  2  0
 29 30  1  0
 30 31  2  0
 31 32  1  0
 32 33  2  0
  2 34  1  0
 34 35  2  0
 35 36  1  0
 36 37  2  0
 37 38  1  0
 38 39  2  0
 38 40  1  0
 37 41  1  0
 41 42  2  0
 25  4  1  0
 33 28  1  0
 42 34  1  0
 15 10  1  0
 24 19  1  0
  4 43  1  6
  6 44  1  6
  7 45  1  0
  7 46  1  0
  9 47  1  0
  9 48  1  0
 11 49  1  0
 12 50  1  0
 13 51  1  0
 14 52  1  0
 15 53  1  0
 16 54  1  1
 18 55  1  0
 18 56  1  0
 20 57  1  0
 21 58  1  0
 22 59  1  0
 23 60  1  0
 24 61  1  0
 25 62  1  6
 27 63  1  0
 27 64  1  0
 29 65  1  0
 30 66  1  0
 31 67  1  0
 32 68  1  0
 33 69  1  0
 35 70  1  0
 36 71  1  0
 41 72  1  0
 42 73  1  0
M  CHG  2  38   1  40  -1
M  END
>  <Binding energies>  (1) 
[-10.33]

>  <Ligand effiencies>  (1) 
[-0.24595238095238095]

>  <Interactions>  (1) 
["V-B:MET:535:CE:9806, V-B:ASP:366:CG:8184, V-B:LEU:363:CD1:8160, V-B:TYR:539:CD2:9845, V-B:PRO:540:CA:9854, V-B:PRO:540:N:9855, V-B:TYR:539:CE1:9846, V-B:TYR:539:CZ:9848, V-B:TYR:539:C:9838, V-B:PRO:540:CD:9858, V-A:TYR:539:CD2:4874, H-A:TYR:539:OH:4878, V-A:TYR:539:C:4867, V-A:TYR:539:CE2:4876, H-A:TYR:531:OH:4795, H-B:TYR:531:OH:9766, V-A:TYR:539:CG:4872, V-A:PRO:540:N:4884, V-A:MET:535:CE:4835, V-B:TYR:539:CD1:9844, V-B:ASP:366:CB:8183, V-A:LEU:363:CD1:3188, V-A:PRO:540:CA:4883, V-B:TYR:539:CG:9843, V-B:TYR:531:CZ:9765, V-B:TYR:531:CE2:9764, V-A:ALA:541:CB:4892, H-B:TYR:484:OH:9319, V-A:TYR:539:CZ:4877, H-B:ARG:545:NE:9895, H-B:GLY:454:N:9021, V-B:GLY:454:CA:9020, H-B:ARG:545:NH2:9899, H-B:ARG:545:NH1:9898, V-A:ILE:538:CB:4862, V-A:ILE:538:CA:4860, V-A:ILE:538:CG2:4863, V-B:ILE:369:CG2:8208, V-B:ILE:369:CB:8207, V-A:TYR:539:CE1:4875, V-A:TYR:539:CD1:4873, V-A:ILE:538:C:4858, V-B:ILE:369:CD1:8210"]

$$$$
RR9_Rahimova_2017
     RDKit          3D

 64 68  0  0  0  0  0  0  0  0999 V2000
  130.6280  126.1530   73.6860 C   0  0  0  0  0  0  0  0  0  0  0  0
  129.7360  126.9640   72.7410 C   0  0  0  0  0  0  0  0  0  0  0  0
  130.3970  127.0930   71.4860 O   0  0  0  0  0  0  0  0  0  0  0  0
  129.6940  127.5630   70.3940 C   0  0  0  0  0  0  0  0  0  0  0  0
  129.1790  126.6040   69.5230 C   0  0  0  0  0  0  0  0  0  0  0  0
  128.4600  126.9850   68.3950 C   0  0  0  0  0  0  0  0  0  0  0  0
  128.2330  128.3380   68.1050 C   0  0  0  0  0  0  0  0  0  0  0  0
  127.4620  128.7540   66.8880 C   0  0  0  0  0  0  0  0  0  0  0  0
  128.0000  128.6310   65.5970 C   0  0  0  0  0  0  0  0  0  0  0  0
  127.2680  129.0100   64.4580 C   0  0  0  0  0  0  0  0  0  0  0  0
  127.8600  128.7590   63.0980 C   0  0  0  0  0  0  0  0  0  0  0  0
  128.5820  129.6030   62.5680 O   0  0  0  0  0  0  0  0  0  0  0  0
  127.5260  127.5880   62.5210 N   0  0  0  0  0  0  0  0  0  0  0  0
  127.8670  127.1740   61.1560 C   0  0  0  0  0  0  0  0  0  0  0  0
  127.7560  125.6470   60.9410 C   0  0  0  0  0  0  0  0  0  0  0  0
  126.3720  125.1610   60.5240 C   0  0  0  0  0  0  0  0  0  0  0  0
  125.9690  125.2560   59.1880 C   0  0  0  0  0  0  0  0  0  0  0  0
  124.7180  124.7800   58.8040 C   0  0  0  0  0  0  0  0  0  0  0  0
  123.8720  124.2160   59.7570 C   0  0  0  0  0  0  0  0  0  0  0  0
  124.2660  124.1220   61.0900 C   0  0  0  0  0  0  0  0  0  0  0  0
  125.5180  124.5970   61.4750 C   0  0  0  0  0  0  0  0  0  0  0  0
  125.9800  129.5520   64.6930 C   0  0  0  0  0  0  0  0  0  0  0  0
  124.8800  130.1050   63.9380 C   0  0  0  0  0  0  0  0  0  0  0  0
  124.7770  130.3800   62.4740 C   0  0  0  0  0  0  0  0  0  0  0  0
  123.8950  131.3570   62.0020 C   0  0  0  0  0  0  0  0  0  0  0  0
  123.7890  131.6010   60.6350 C   0  0  0  0  0  0  0  0  0  0  0  0
  124.5680  130.8710   59.7350 C   0  0  0  0  0  0  0  0  0  0  0  0
  124.4390  131.1240   58.2440 C   0  0  0  0  0  0  0  0  0  0  0  0
  125.4480  129.8950   60.2020 C   0  0  0  0  0  0  0  0  0  0  0  0
  125.5550  129.6540   61.5690 C   0  0  0  0  0  0  0  0  0  0  0  0
  123.8770  130.4000   64.7340 N   0  0  0  0  0  0  0  0  0  0  0  0
  124.2560  130.1320   65.9940 N   0  0  0  0  0  0  0  0  0  0  0  0
  125.5330  129.6240   66.0340 C   0  0  0  0  0  0  0  0  0  0  0  0
  126.2160  129.2570   67.1170 N   0  0  0  0  0  0  0  0  0  0  0  0
  128.7560  129.2970   68.9840 C   0  0  0  0  0  0  0  0  0  0  0  0
  129.4760  128.9190   70.1150 C   0  0  0  0  0  0  0  0  0  0  0  0
  130.3681  126.3893   74.7284 H   0  0  0  0  0  0  0  0  0  0  0  0
  130.4740  125.0791   73.5041 H   0  0  0  0  0  0  0  0  0  0  0  0
  131.6824  126.4082   73.5041 H   0  0  0  0  0  0  0  0  0  0  0  0
  128.7761  126.4450   72.6020 H   0  0  0  0  0  0  0  0  0  0  0  0
  129.5460  127.9597   73.1681 H   0  0  0  0  0  0  0  0  0  0  0  0
  129.3428  125.5361   69.7298 H   0  0  0  0  0  0  0  0  0  0  0  0
  128.0631  126.2127   67.7197 H   0  0  0  0  0  0  0  0  0  0  0  0
  129.0166  128.2293   65.4740 H   0  0  0  0  0  0  0  0  0  0  0  0
  126.9990  126.9210   63.0670 H   0  0  0  0  0  0  0  0  0  0  0  0
  127.1832  127.6769   60.4563 H   0  0  0  0  0  0  0  0  0  0  0  0
  128.9158  127.4552   60.9798 H   0  0  0  0  0  0  0  0  0  0  0  0
  128.4711  125.3586   60.1565 H   0  0  0  0  0  0  0  0  0  0  0  0
  127.9691  125.1800   61.9139 H   0  0  0  0  0  0  0  0  0  0  0  0
  126.6396  125.7063   58.4414 H   0  0  0  0  0  0  0  0  0  0  0  0
  124.3991  124.8488   57.7535 H   0  0  0  0  0  0  0  0  0  0  0  0
  122.8833  123.8413   59.4537 H   0  0  0  0  0  0  0  0  0  0  0  0
  123.5917  123.6748   61.8352 H   0  0  0  0  0  0  0  0  0  0  0  0
  125.8336  124.5280   62.5265 H   0  0  0  0  0  0  0  0  0  0  0  0
  123.2838  131.9339   62.7117 H   0  0  0  0  0  0  0  0  0  0  0  0
  123.0926  132.3677   60.2648 H   0  0  0  0  0  0  0  0  0  0  0  0
  123.9451  132.0927   58.0779 H   0  0  0  0  0  0  0  0  0  0  0  0
  125.4394  131.1393   57.7868 H   0  0  0  0  0  0  0  0  0  0  0  0
  123.8391  130.3233   57.7868 H   0  0  0  0  0  0  0  0  0  0  0  0
  126.0566  129.3165   59.4914 H   0  0  0  0  0  0  0  0  0  0  0  0
  126.2545  128.8893   61.9377 H   0  0  0  0  0  0  0  0  0  0  0  0
  123.6300  130.3040   66.7670 H   0  0  0  0  0  0  0  0  0  0  0  0
  128.5951  130.3653   68.7771 H   0  0  0  0  0  0  0  0  0  0  0  0
  129.8753  129.6884   70.7922 H   0  0  0  0  0  0  0  0  0  0  0  0
  1  2  1  0
  2  3  1  0
  3  4  1  0
  4  5  2  0
  5  6  1  0
  6  7  2  0
  7  8  1  0
  8  9  2  0
  9 10  1  0
 10 11  1  0
 11 12  2  0
 11 13  1  0
 13 14  1  0
 14 15  1  0
 15 16  1  0
 16 17  2  0
 17 18  1  0
 18 19  2  0
 19 20  1  0
 20 21  2  0
 10 22  2  0
 22 23  1  0
 23 24  1  0
 24 25  2  0
 25 26  1  0
 26 27  2  0
 27 28  1  0
 27 29  1  0
 29 30  2  0
 23 31  2  0
 31 32  1  0
 32 33  1  0
 33 34  2  0
  7 35  1  0
 35 36  2  0
 36  4  1  0
 34  8  1  0
 21 16  1  0
 33 22  1  0
 30 24  1  0
  1 37  1  0
  1 38  1  0
  1 39  1  0
  2 40  1  0
  2 41  1  0
  5 42  1  0
  6 43  1  0
  9 44  1  0
 13 45  1  0
 14 46  1  0
 14 47  1  0
 15 48  1  0
 15 49  1  0
 17 50  1  0
 18 51  1  0
 19 52  1  0
 20 53  1  0
 21 54  1  0
 25 55  1  0
 26 56  1  0
 28 57  1  0
 28 58  1  0
 28 59  1  0
 29 60  1  0
 30 61  1  0
 32 62  1  0
 35 63  1  0
 36 64  1  0
M  END
>  <Binding energies>  (1) 
[-9.02]

>  <Ligand effiencies>  (1) 
[-0.23736842105263156]

>  <Interactions>  (1) 
["V-A:HIS:456:CE1:4069, V-A:HIS:456:CG:4065, V-A:GLU:543:CB:4906, V-A:GLU:543:CG:4907, V-A:HIS:456:CD2:4067, V-B:GLU:543:CD:9879, V-A:GLU:543:CD:4908, V-B:HIS:456:CE1:9041, V-B:GLU:543:CB:9877, V-B:ASP:366:CG:8184, V-B:LEU:363:CA:8156, V-B:ASN:362:C:8143, V-B:PRO:540:CB:9856, V-B:ASP:366:CA:8181, V-A:TYR:539:CE2:4876, V-B:ASP:366:CB:8183, V-B:ASN:362:CB:8147, H-B:TYR:484:OH:9319, H-B:GLY:454:N:9021, V-B:GLY:454:CA:9020, V-B:ARG:545:CZ:9897, H-B:GLU:543:OE1:9880, H-B:GLU:543:OE2:9881, V-B:ILE:369:CG2:8208, H-A:HIS:456:ND1:4066, V-B:ILE:369:CD1:8210, H-B:ILE:455:O:9024"]

$$$$
