1a_Grossjean_2025
     RDKit          3D

 26 27  0  0  0  0  0  0  0  0999 V2000
  124.1530  124.3410   58.9170 C   0  0  0  0  0  0  0  0  0  0  0  0
  124.8030  124.1940   57.5380 C   0  0  0  0  0  0  0  0  0  0  0  0
  125.1540  122.8340   57.3210 O   0  0  0  0  0  0  0  0  0  0  0  0
  126.3660  122.4950   56.8090 C   0  0  0  0  0  0  0  0  0  0  0  0
  126.5070  121.7910   55.8050 O   0  0  0  0  0  0  0  0  0  0  0  0
  127.5180  123.0490   57.5970 C   0  0  0  0  0  0  0  0  0  0  0  0
  127.9040  122.4120   58.7830 C   0  0  0  0  0  0  0  0  0  0  0  0
  128.9650  122.9040   59.5380 C   0  0  0  0  0  0  0  0  0  0  0  0
  129.6600  124.0410   59.1260 C   0  0  0  0  0  0  0  0  0  0  0  0
  130.7130  124.4520   59.9660 N   0  0  0  0  0  0  0  0  0  0  0  0
  132.0440  124.4770   59.7410 C   0  0  0  0  0  0  0  0  0  0  0  0
  132.6000  124.1280   58.7000 O   0  0  0  0  0  0  0  0  0  0  0  0
  132.8950  124.9910   60.9040 C   0  0  0  0  0  0  0  0  0  0  0  0
  133.0800  123.7500   62.2200 S   0  0  0  0  0  0  0  0  0  0  0  0
  132.7360  124.5570   63.7670 C   0  0  0  0  0  0  0  0  0  0  0  0
  133.8260  124.7050   64.5620 N   0  0  0  0  0  0  0  0  0  0  0  0
  133.6770  125.3030   65.7670 C   0  0  0  0  0  0  0  0  0  0  0  0
  134.9360  125.4220   66.6050 C   0  0  0  0  0  0  0  0  0  0  0  0
  132.4510  125.7830   66.2220 C   0  0  0  0  0  0  0  0  0  0  0  0
  131.3240  125.6540   65.4020 C   0  0  0  0  0  0  0  0  0  0  0  0
  129.9940  126.2010   65.9150 C   0  0  0  0  0  0  0  0  0  0  0  0
  131.4570  125.0360   64.1370 C   0  0  0  0  0  0  0  0  0  0  0  0
  130.3020  124.9340   63.2410 C   0  0  0  0  0  0  0  0  0  0  0  0
  129.3880  124.8550   62.5350 N   0  0  0  0  0  0  0  0  0  0  0  0
  129.2850  124.6810   57.9340 C   0  0  0  0  0  0  0  0  0  0  0  0
  128.2240  124.1890   57.1810 C   0  0  0  0  0  0  0  0  0  0  0  0
  1  2  1  0
  2  3  1  0
  3  4  1  0
  4  5  2  0
  4  6  1  0
  6  7  2  0
  7  8  1  0
  8  9  2  0
  9 10  1  0
 10 11  1  0
 11 12  2  0
 11 13  1  0
 13 14  1  0
 14 15  1  0
 15 16  2  0
 16 17  1  0
 17 18  1  0
 17 19  2  0
 19 20  1  0
 20 21  1  0
 20 22  2  0
 22 23  1  0
 23 24  3  0
  9 25  1  0
 25 26  2  0
 26  6  1  0
 22 15  1  0
M  END
>  <Binding energies>  (1) 
[-7.98]

>  <Ligand effiencies>  (1) 
[-0.29555555555555557]

>  <Interactions>  (1) 
["V-A:ASP:366:CG:3212, V-B:TYR:539:CZ:9848, V-B:LEU:363:CD1:8160, V-B:PRO:540:N:9855, V-B:PRO:540:CA:9854, V-B:TYR:539:C:9838, V-B:TYR:539:CE1:9846, V-B:PRO:540:CB:9856, V-B:GLU:543:CD:9879, V-A:GLU:543:CD:4908, V-B:TYR:539:CD2:9845, H-B:TYR:539:N:9841, V-B:LEU:363:CA:8156, H-B:TYR:539:OH:9849, V-B:TYR:539:CE2:9847, V-B:PRO:540:CD:9858, H-A:GLY:454:N:4049, V-A:ARG:545:CZ:4926, H-A:TYR:484:OH:4347, V-A:HIS:456:CE1:4069, V-A:ARG:545:CD:4923, V-A:ILE:455:C:4051, V-A:ARG:545:CG:4922, V-A:GLY:454:CA:4048, V-A:GLY:453:CA:4043, V-A:GLY:453:C:4041"]

$$$$
1aa_Ghoteimi_2023
     RDKit          3D

 40 43  0  0  0  0  0  0  0  0999 V2000
  125.8780  130.6500   55.6610 C   0  0  0  0  0  0  0  0  0  0  0  0
  126.1420  130.5940   57.1690 C   0  0  0  0  0  0  0  0  0  0  0  0
  124.9250  130.3180   57.8520 O   0  0  0  0  0  0  0  0  0  0  0  0
  124.3910  131.2150   58.7210 C   0  0  0  0  0  0  0  0  0  0  0  0
  123.7360  132.2000   58.3660 O   0  0  0  0  0  0  0  0  0  0  0  0
  124.6760  130.8900   60.1590 C   0  0  0  0  0  0  0  0  0  0  0  0
  123.9130  131.4280   61.2070 C   0  0  0  0  0  0  0  0  0  0  0  0
  124.2000  131.1090   62.5320 C   0  0  0  0  0  0  0  0  0  0  0  0
  125.2580  130.2390   62.8330 C   0  0  0  0  0  0  0  0  0  0  0  0
  125.6400  129.8470   64.1290 N   0  0  0  0  0  0  0  0  0  0  0  0
  124.9040  129.7110   65.2560 C   0  0  0  0  0  0  0  0  0  0  0  0
  123.6930  129.9190   65.3350 O   0  0  0  0  0  0  0  0  0  0  0  0
  125.6410  129.2630   66.5280 C   0  0  0  0  0  0  0  0  0  0  0  0
  127.0540  129.4590   66.3860 O   0  0  0  0  0  0  0  0  0  0  0  0
  127.9410  128.4530   66.7380 C   0  0  0  0  0  0  0  0  0  0  0  0
  128.0360  128.1130   68.0530 N   0  0  0  0  0  0  0  0  0  0  0  0
  128.9050  127.1420   68.4400 C   0  0  0  0  0  0  0  0  0  0  0  0
  128.9480  126.8260   69.9070 C   0  0  0  0  0  0  0  0  0  0  0  0
  128.2080  125.7590   70.4380 C   0  0  0  0  0  0  0  0  0  0  0  0
  128.2450  125.4650   71.7980 C   0  0  0  0  0  0  0  0  0  0  0  0
  129.0230  126.2250   72.6690 C   0  0  0  0  0  0  0  0  0  0  0  0
  128.9970  125.8610   74.0010 O   0  0  0  0  0  0  0  0  0  0  0  0
  129.9450  124.9120   74.4800 C   0  0  0  0  0  0  0  0  0  0  0  0
  129.7730  127.2910   72.1530 C   0  0  0  0  0  0  0  0  0  0  0  0
  129.7340  127.5820   70.7920 C   0  0  0  0  0  0  0  0  0  0  0  0
  129.6910  126.4710   67.4950 C   0  0  0  0  0  0  0  0  0  0  0  0
  129.6040  126.7930   66.1340 C   0  0  0  0  0  0  0  0  0  0  0  0
  130.4610  126.0330   65.1760 C   0  0  0  0  0  0  0  0  0  0  0  0
  129.8750  125.1970   64.2190 C   0  0  0  0  0  0  0  0  0  0  0  0
  130.6670  124.4930   63.3160 C   0  0  0  0  0  0  0  0  0  0  0  0
  132.0560  124.6130   63.3450 C   0  0  0  0  0  0  0  0  0  0  0  0
  132.7590  123.8780   62.4120 O   0  0  0  0  0  0  0  0  0  0  0  0
  133.5310  124.5590   61.4290 C   0  0  0  0  0  0  0  0  0  0  0  0
  132.6470  125.4570   64.2980 C   0  0  0  0  0  0  0  0  0  0  0  0
  131.8540  126.1600   65.2010 C   0  0  0  0  0  0  0  0  0  0  0  0
  128.7100  127.8190   65.7470 C   0  0  0  0  0  0  0  0  0  0  0  0
  128.5840  128.2540   64.3560 C   0  0  0  0  0  0  0  0  0  0  0  0
  128.4820  128.5990   63.2560 N   0  0  0  0  0  0  0  0  0  0  0  0
  126.0200  129.7040   61.7930 C   0  0  0  0  0  0  0  0  0  0  0  0
  125.7330  130.0240   60.4700 C   0  0  0  0  0  0  0  0  0  0  0  0
  1  2  1  0
  2  3  1  0
  3  4  1  0
  4  5  2  0
  4  6  1  0
  6  7  2  0
  7  8  1  0
  8  9  2  0
  9 10  1  0
 10 11  1  0
 11 12  2  0
 11 13  1  0
 13 14  1  0
 14 15  1  0
 15 16  2  0
 16 17  1  0
 17 18  1  0
 18 19  2  0
 19 20  1  0
 20 21  2  0
 21 22  1  0
 22 23  1  0
 21 24  1  0
 24 25  2  0
 17 26  2  0
 26 27  1  0
 27 28  1  0
 28 29  2  0
 29 30  1  0
 30 31  2  0
 31 32  1  0
 32 33  1  0
 31 34  1  0
 34 35  2  0
 27 36  2  0
 36 37  1  0
 37 38  3  0
  9 39  1  0
 39 40  2  0
 40  6  1  0
 36 15  1  0
 25 18  1  0
 35 28  1  0
M  END
>  <Binding energies>  (2) 
[-9.61]

>  <Ligand effiencies>  (2) 
[-0.234390243902439]

>  <Interactions>  (2) 
["V-A:TYR:539:CE2:4876, V-A:TYR:539:CZ:4877, V-A:ASP:366:CG:3212, V-B:ASP:366:CG:8184, H-B:TYR:484:OH:9319, V-B:ILE:369:CD1:8210, H-B:GLY:454:N:9021, V-B:GLU:543:CD:9879, V-B:ARG:545:CZ:9897, V-A:MET:535:CE:4835, V-B:HIS:456:CE1:9041, V-A:GLU:543:CG:4907, V-A:GLU:543:CD:4908, H-B:TYR:531:OH:9766, H-A:TYR:539:OH:4878, V-B:ASP:366:CB:8183, V-B:ASP:366:CA:8181, H-B:ARG:545:NH2:9899, V-B:TYR:531:CE1:9763, H-B:ARG:545:NE:9895, V-A:ILE:369:CG2:3236, V-A:ILE:369:CD1:3238, V-B:GLU:543:CG:9878, H-B:ARG:545:NH1:9898, V-A:ARG:545:CZ:4926, V-A:HIS:456:CE1:4069, V-B:GLU:543:CB:9877, V-A:HIS:456:CD2:4067, V-B:LYS:547:CE:9921, H-B:LYS:547:NZ:9922, V-B:GLU:543:C:9873"]

$$$$
1b_Grossjean_2025
     RDKit          3D

 25 26  0  0  0  0  0  0  0  0999 V2000
  132.1070  132.3380   57.1240 C   0  0  0  0  0  0  0  0  0  0  0  0
  131.2780  133.3050   56.4960 O   0  0  0  0  0  0  0  0  0  0  0  0
  130.1410  132.9380   55.8520 C   0  0  0  0  0  0  0  0  0  0  0  0
  130.0290  132.9240   54.6220 O   0  0  0  0  0  0  0  0  0  0  0  0
  129.0320  132.5400   56.7840 C   0  0  0  0  0  0  0  0  0  0  0  0
  129.0170  132.9350   58.1300 C   0  0  0  0  0  0  0  0  0  0  0  0
  127.9750  132.5480   58.9680 C   0  0  0  0  0  0  0  0  0  0  0  0
  126.9300  131.7620   58.4820 C   0  0  0  0  0  0  0  0  0  0  0  0
  125.9320  131.4300   59.4180 N   0  0  0  0  0  0  0  0  0  0  0  0
  124.5900  131.5650   59.3450 C   0  0  0  0  0  0  0  0  0  0  0  0
  123.9680  132.0230   58.3870 O   0  0  0  0  0  0  0  0  0  0  0  0
  123.8150  131.0840   60.5730 C   0  0  0  0  0  0  0  0  0  0  0  0
  123.7370  132.3520   61.8740 S   0  0  0  0  0  0  0  0  0  0  0  0
  125.2930  133.2160   61.8670 C   0  0  0  0  0  0  0  0  0  0  0  0
  126.3710  132.4010   61.9880 N   0  0  0  0  0  0  0  0  0  0  0  0
  127.6060  132.9540   61.9930 C   0  0  0  0  0  0  0  0  0  0  0  0
  128.7640  131.9810   62.1170 C   0  0  0  0  0  0  0  0  0  0  0  0
  127.8150  134.3280   61.8900 C   0  0  0  0  0  0  0  0  0  0  0  0
  126.7100  135.1780   61.7870 C   0  0  0  0  0  0  0  0  0  0  0  0
  126.9630  136.6810   61.6920 C   0  0  0  0  0  0  0  0  0  0  0  0
  125.4100  134.6230   61.7800 C   0  0  0  0  0  0  0  0  0  0  0  0
  124.2350  135.4970   61.7170 C   0  0  0  0  0  0  0  0  0  0  0  0
  123.3100  136.1890   61.6680 N   0  0  0  0  0  0  0  0  0  0  0  0
  126.9380  131.3630   57.1370 C   0  0  0  0  0  0  0  0  0  0  0  0
  127.9800  131.7510   56.3000 C   0  0  0  0  0  0  0  0  0  0  0  0
  1  2  1  0
  2  3  1  0
  3  4  2  0
  3  5  1  0
  5  6  2  0
  6  7  1  0
  7  8  2  0
  8  9  1  0
  9 10  1  0
 10 11  2  0
 10 12  1  0
 12 13  1  0
 13 14  1  0
 14 15  2  0
 15 16  1  0
 16 17  1  0
 16 18  2  0
 18 19  1  0
 19 20  1  0
 19 21  2  0
 21 22  1  0
 22 23  3  0
  8 24  1  0
 24 25  2  0
 25  5  1  0
 21 14  1  0
M  END
>  <Binding energies>  (3) 
[-7.7]

>  <Ligand effiencies>  (3) 
[-0.29615384615384616]

>  <Interactions>  (3) 
["V-A:TYR:539:CE2:4876, V-A:TYR:539:CG:4872, V-A:ILE:538:C:4858, V-A:TYR:539:CZ:4877, V-A:TYR:539:CE1:4875, V-A:LEU:363:CD1:3188, V-A:PRO:540:CB:4885, V-A:PRO:540:N:4884, V-A:TYR:539:CD2:4874, V-A:ILE:538:CA:4860, V-A:TYR:539:C:4867, H-A:TYR:539:N:4870, V-A:ILE:538:CB:4862, V-B:ASP:366:CG:8184, V-B:TRP:381:CZ2:8341, V-B:TRP:381:CH2:8343, V-A:ALA:541:CB:4892, V-B:LEU:475:CD1:9229, V-B:PRO:482:CB:9297, V-B:ILE:369:CD1:8210, V-B:PRO:482:CG:9298, V-B:ILE:369:CG2:8208, V-A:MET:535:CE:4835, H-A:TYR:539:OH:4878, V-B:ASP:366:CB:8183, V-B:ASP:366:CA:8181"]

$$$$
1c_Grossjean_2025
     RDKit          3D

 23 24  0  0  0  0  0  0  0  0999 V2000
  131.4960  132.3420   55.0540 C   0  0  0  0  0  0  0  0  0  0  0  0
  130.8960  133.2810   55.9390 O   0  0  0  0  0  0  0  0  0  0  0  0
  130.4840  132.8600   57.1890 C   0  0  0  0  0  0  0  0  0  0  0  0
  129.1320  133.0280   57.4870 C   0  0  0  0  0  0  0  0  0  0  0  0
  128.6200  132.6340   58.7200 C   0  0  0  0  0  0  0  0  0  0  0  0
  129.4660  132.0540   59.6770 C   0  0  0  0  0  0  0  0  0  0  0  0
  129.0580  131.6290   60.9560 N   0  0  0  0  0  0  0  0  0  0  0  0
  129.6440  131.8330   62.1550 C   0  0  0  0  0  0  0  0  0  0  0  0
  130.6790  132.4720   62.3440 O   0  0  0  0  0  0  0  0  0  0  0  0
  128.9250  131.2070   63.3520 C   0  0  0  0  0  0  0  0  0  0  0  0
  128.1290  132.4630   64.3960 S   0  0  0  0  0  0  0  0  0  0  0  0
  127.0030  133.4030   63.3850 C   0  0  0  0  0  0  0  0  0  0  0  0
  127.5760  134.4860   62.8010 N   0  0  0  0  0  0  0  0  0  0  0  0
  126.8170  135.2780   62.0090 C   0  0  0  0  0  0  0  0  0  0  0  0
  127.5300  136.4620   61.3830 C   0  0  0  0  0  0  0  0  0  0  0  0
  125.4660  135.0330   61.7760 C   0  0  0  0  0  0  0  0  0  0  0  0
  124.8580  133.9350   62.3920 C   0  0  0  0  0  0  0  0  0  0  0  0
  123.3710  133.6970   62.1360 C   0  0  0  0  0  0  0  0  0  0  0  0
  125.6310  133.0940   63.2270 C   0  0  0  0  0  0  0  0  0  0  0  0
  124.9990  131.9710   63.9240 C   0  0  0  0  0  0  0  0  0  0  0  0
  124.5000  131.0840   64.4730 N   0  0  0  0  0  0  0  0  0  0  0  0
  130.8220  131.8940   59.3860 C   0  0  0  0  0  0  0  0  0  0  0  0
  131.3300  132.2900   58.1520 C   0  0  0  0  0  0  0  0  0  0  0  0
  1  2  1  0
  2  3  1  0
  3  4  2  0
  4  5  1  0
  5  6  2  0
  6  7  1  0
  7  8  1  0
  8  9  2  0
  8 10  1  0
 10 11  1  0
 11 12  1  0
 12 13  2  0
 13 14  1  0
 14 15  1  0
 14 16  2  0
 16 17  1  0
 17 18  1  0
 17 19  2  0
 19 20  1  0
 20 21  3  0
  6 22  1  0
 22 23  2  0
 23  3  1  0
 19 12  1  0
M  END
>  <Binding energies>  (4) 
[-7.08]

>  <Ligand effiencies>  (4) 
[-0.295]

>  <Interactions>  (4) 
["V-A:TYR:539:CE2:4876, V-A:TYR:539:CG:4872, V-A:TYR:539:CZ:4877, V-A:LEU:363:CD1:3188, V-A:PRO:540:CA:4883, V-A:ILE:538:CG2:4863, V-A:PRO:540:CB:4885, V-A:PRO:540:N:4884, V-A:TYR:539:CD2:4874, V-A:ILE:538:CA:4860, V-A:TYR:539:C:4867, H-A:TYR:539:N:4870, V-A:ILE:538:CB:4862, V-B:GLY:454:CA:9020, V-A:ALA:541:CB:4892, V-B:LEU:475:CD1:9229, V-B:PRO:482:CB:9297, V-B:ILE:369:CD1:8210, H-B:GLY:454:N:9021, V-B:PRO:482:CG:9298, V-B:ILE:369:CG2:8208, V-A:MET:535:CE:4835, H-A:ALA:541:N:4891, V-A:GLU:543:CG:4907, V-A:GLU:543:CD:4908, V-B:ILE:369:CG1:8209"]

$$$$
1d_Grossjean_2025
     RDKit          3D

 21 22  0  0  0  0  0  0  0  0999 V2000
  129.7630  126.2670   57.4220 C   0  0  0  0  0  0  0  0  0  0  0  0
  128.7290  125.2610   56.9540 C   0  0  0  0  0  0  0  0  0  0  0  0
  128.7700  124.7140   55.6740 C   0  0  0  0  0  0  0  0  0  0  0  0
  127.7960  123.7820   55.3000 C   0  0  0  0  0  0  0  0  0  0  0  0
  127.8710  123.1840   53.8970 C   0  0  0  0  0  0  0  0  0  0  0  0
  126.7900  123.4240   56.2270 C   0  0  0  0  0  0  0  0  0  0  0  0
  125.7880  122.4160   55.8760 C   0  0  0  0  0  0  0  0  0  0  0  0
  124.9980  121.6180   55.5940 N   0  0  0  0  0  0  0  0  0  0  0  0
  126.8110  124.0480   57.4970 C   0  0  0  0  0  0  0  0  0  0  0  0
  125.6250  123.7200   58.7810 S   0  0  0  0  0  0  0  0  0  0  0  0
  126.3060  124.3840   60.3320 C   0  0  0  0  0  0  0  0  0  0  0  0
  127.3110  123.4280   60.9760 C   0  0  0  0  0  0  0  0  0  0  0  0
  127.0990  123.0120   62.1150 O   0  0  0  0  0  0  0  0  0  0  0  0
  128.3670  123.0930   60.2040 N   0  0  0  0  0  0  0  0  0  0  0  0
  129.4670  122.2630   60.4910 C   0  0  0  0  0  0  0  0  0  0  0  0
  130.7260  122.8530   60.3450 C   0  0  0  0  0  0  0  0  0  0  0  0
  131.8800  122.1220   60.6080 C   0  0  0  0  0  0  0  0  0  0  0  0
  131.7770  120.7970   61.0260 C   0  0  0  0  0  0  0  0  0  0  0  0
  130.5290  120.1990   61.1850 C   0  0  0  0  0  0  0  0  0  0  0  0
  129.3730  120.9280   60.9200 C   0  0  0  0  0  0  0  0  0  0  0  0
  127.7740  124.9350   57.8560 N   0  0  0  0  0  0  0  0  0  0  0  0
  1  2  1  0
  2  3  2  0
  3  4  1  0
  4  5  1  0
  4  6  2  0
  6  7  1  0
  7  8  3  0
  6  9  1  0
  9 10  1  0
 10 11  1  0
 11 12  1  0
 12 13  2  0
 12 14  1  0
 14 15  1  0
 15 16  2  0
 16 17  1  0
 17 18  2  0
 18 19  1  0
 19 20  2  0
  9 21  2  0
 21  2  1  0
 20 15  1  0
M  END
>  <Binding energies>  (5) 
[-7.06]

>  <Ligand effiencies>  (5) 
[-0.32090909090909087]

>  <Interactions>  (5) 
["V-B:TYR:539:CZ:9848, V-B:LEU:363:CD1:8160, V-B:PRO:540:N:9855, V-B:PRO:540:CA:9854, V-B:ALA:541:CB:9863, V-B:MET:535:CE:9806, V-B:TYR:539:C:9838, V-B:TYR:539:CE1:9846, V-B:TYR:539:CD1:9844, V-B:TYR:539:CD2:9845, V-B:PRO:540:C:9852, H-B:TYR:539:N:9841, V-B:TYR:539:CE2:9847, V-B:PRO:540:CD:9858, V-A:LEU:475:CD2:4258, V-A:ILE:369:CG2:3236, H-B:ALA:541:N:9862, V-B:MET:535:CB:9803, V-B:MET:535:CG:9804"]

$$$$
1e_Grossjean_2025
     RDKit          3D

 22 23  0  0  0  0  0  0  0  0999 V2000
  123.7920  129.5700   67.6430 C   0  0  0  0  0  0  0  0  0  0  0  0
  124.7090  129.6790   66.4400 C   0  0  0  0  0  0  0  0  0  0  0  0
  126.0940  129.5420   66.5610 C   0  0  0  0  0  0  0  0  0  0  0  0
  126.8750  129.6570   65.4110 C   0  0  0  0  0  0  0  0  0  0  0  0
  126.2620  129.9060   64.1810 C   0  0  0  0  0  0  0  0  0  0  0  0
  124.8680  130.0280   64.1290 C   0  0  0  0  0  0  0  0  0  0  0  0
  124.3080  130.2900   62.8660 N   0  0  0  0  0  0  0  0  0  0  0  0
  123.9620  131.4810   62.3300 C   0  0  0  0  0  0  0  0  0  0  0  0
  124.0790  132.5700   62.8940 O   0  0  0  0  0  0  0  0  0  0  0  0
  123.3570  131.4280   60.9260 C   0  0  0  0  0  0  0  0  0  0  0  0
  124.2080  132.5500   59.7760 S   0  0  0  0  0  0  0  0  0  0  0  0
  125.5950  133.2860   60.6180 C   0  0  0  0  0  0  0  0  0  0  0  0
  126.7160  132.5220   60.5810 N   0  0  0  0  0  0  0  0  0  0  0  0
  127.8360  132.9760   61.1900 C   0  0  0  0  0  0  0  0  0  0  0  0
  129.0500  132.0720   61.1000 C   0  0  0  0  0  0  0  0  0  0  0  0
  127.8830  134.1930   61.8670 C   0  0  0  0  0  0  0  0  0  0  0  0
  126.7270  134.9780   61.9330 C   0  0  0  0  0  0  0  0  0  0  0  0
  126.7990  136.3000   62.6960 C   0  0  0  0  0  0  0  0  0  0  0  0
  125.5440  134.5220   61.3070 C   0  0  0  0  0  0  0  0  0  0  0  0
  124.3100  135.3040   61.4170 C   0  0  0  0  0  0  0  0  0  0  0  0
  123.3370  135.9230   61.5050 N   0  0  0  0  0  0  0  0  0  0  0  0
  124.0980  129.9200   65.2520 N   0  0  0  0  0  0  0  0  0  0  0  0
  1  2  1  0
  2  3  2  0
  3  4  1  0
  4  5  2  0
  5  6  1  0
  6  7  1  0
  7  8  1  0
  8  9  2  0
  8 10  1  0
 10 11  1  0
 11 12  1  0
 12 13  2  0
 13 14  1  0
 14 15  1  0
 14 16  2  0
 16 17  1  0
 17 18  1  0
 17 19  2  0
 19 20  1  0
 20 21  3  0
  6 22  2  0
 22  2  1  0
 19 12  1  0
M  END
>  <Binding energies>  (6) 
[-7.4]

>  <Ligand effiencies>  (6) 
[-0.32173913043478264]

>  <Interactions>  (6) 
["V-A:TYR:539:CE2:4876, V-A:TYR:539:CD2:4874, H-B:ASP:366:OD1:8185, H-B:ASP:366:OD2:8186, V-B:ASP:366:CG:8184, V-B:TRP:381:CZ2:8341, V-B:ARG:545:CD:9894, V-B:TRP:381:CH2:8343, V-A:ALA:541:CB:4892, V-B:LEU:475:CD1:9229, V-B:PRO:482:CB:9297, V-B:ILE:369:CD1:8210, H-B:GLY:454:N:9021, V-B:PRO:482:CG:9298, V-B:ARG:545:CZ:9897, V-B:ARG:545:CG:9893, V-B:ILE:369:CG2:8208, V-B:ILE:455:C:9023, V-B:HIS:456:CE1:9041, V-B:ASP:366:CB:8183, V-B:ASP:366:CA:8181, V-B:ILE:369:CB:8207, H-B:ARG:545:NH2:9899, H-B:ARG:545:NE:9895, V-B:ARG:545:CB:9892"]

$$$$
1f_Grossjean_2025
     RDKit          3D

 21 22  0  0  0  0  0  0  0  0999 V2000
  129.0210  120.9960   60.9630 C   0  0  0  0  0  0  0  0  0  0  0  0
  128.5940  122.3890   60.5400 C   0  0  0  0  0  0  0  0  0  0  0  0
  129.3520  123.1450   59.6490 C   0  0  0  0  0  0  0  0  0  0  0  0
  128.9150  124.4280   59.3050 C   0  0  0  0  0  0  0  0  0  0  0  0
  129.7720  125.2460   58.3410 C   0  0  0  0  0  0  0  0  0  0  0  0
  127.7130  124.9220   59.8620 C   0  0  0  0  0  0  0  0  0  0  0  0
  127.2680  126.2850   59.5580 C   0  0  0  0  0  0  0  0  0  0  0  0
  126.9180  127.3610   59.3160 N   0  0  0  0  0  0  0  0  0  0  0  0
  126.9930  124.0750   60.7360 C   0  0  0  0  0  0  0  0  0  0  0  0
  125.4630  124.5230   61.5320 S   0  0  0  0  0  0  0  0  0  0  0  0
  124.0810  123.9250   60.5000 C   0  0  0  0  0  0  0  0  0  0  0  0
  124.3510  123.9340   58.9880 C   0  0  0  0  0  0  0  0  0  0  0  0
  123.6030  124.5460   58.2240 O   0  0  0  0  0  0  0  0  0  0  0  0
  125.4260  123.2140   58.6060 N   0  0  0  0  0  0  0  0  0  0  0  0
  125.9610  123.0120   57.3190 C   0  0  0  0  0  0  0  0  0  0  0  0
  127.0710  123.6880   56.7780 C   0  0  0  0  0  0  0  0  0  0  0  0
  127.5000  123.3850   55.4830 C   0  0  0  0  0  0  0  0  0  0  0  0
  126.8110  122.4110   54.7610 C   0  0  0  0  0  0  0  0  0  0  0  0
  125.7430  121.7410   55.2610 N   0  0  0  0  0  0  0  0  0  0  0  0
  125.3370  122.0460   56.5210 C   0  0  0  0  0  0  0  0  0  0  0  0
  127.4390  122.8410   61.0820 N   0  0  0  0  0  0  0  0  0  0  0  0
  1  2  1  0
  2  3  2  0
  3  4  1  0
  4  5  1  0
  4  6  2  0
  6  7  1  0
  7  8  3  0
  6  9  1  0
  9 10  1  0
 10 11  1  0
 11 12  1  0
 12 13  2  0
 12 14  1  0
 14 15  1  0
 15 16  2  0
 16 17  1  0
 17 18  2  0
 18 19  1  0
 19 20  2  0
  9 21  2  0
 21  2  1  0
 20 15  1  0
M  END
>  <Binding energies>  (7) 
[-6.71]

>  <Ligand effiencies>  (7) 
[-0.305]

>  <Interactions>  (7) 
["V-B:TYR:539:CZ:9848, V-B:LEU:363:CD1:8160, V-B:PRO:540:N:9855, V-B:PRO:540:CA:9854, V-B:ALA:541:CB:9863, V-B:MET:535:CE:9806, V-B:TYR:539:C:9838, V-B:TYR:539:CE1:9846, V-B:TYR:539:CD1:9844, V-B:PRO:540:CB:9856, H-B:TYR:531:OH:9766, V-B:TYR:539:CD2:9845, V-B:PRO:540:C:9852, H-B:TYR:539:N:9841, V-B:LEU:363:CA:8156, V-B:TYR:539:CE2:9847, V-B:PRO:540:CD:9858, H-B:ARG:545:NH2:9899, V-B:ILE:538:CD1:9836, V-B:ILE:538:CG2:9834, H-B:ALA:541:N:9862, V-B:ILE:538:CA:9831, V-B:ALA:541:CA:9861, V-B:ASN:362:C:8143, V-B:ASN:362:CB:8147, V-B:PRO:540:CG:9857"]

$$$$
1g_Grossjean_2025
     RDKit          3D

 22 23  0  0  0  0  0  0  0  0999 V2000
  126.7920  127.9950   58.6280 C   0  0  0  0  0  0  0  0  0  0  0  0
  126.6570  126.6130   58.0160 C   0  0  0  0  0  0  0  0  0  0  0  0
  127.6200  126.1030   57.1470 C   0  0  0  0  0  0  0  0  0  0  0  0
  127.4350  124.8290   56.6010 C   0  0  0  0  0  0  0  0  0  0  0  0
  128.4970  124.2960   55.6390 C   0  0  0  0  0  0  0  0  0  0  0  0
  126.2830  124.0880   56.9480 C   0  0  0  0  0  0  0  0  0  0  0  0
  126.0420  122.7730   56.3480 C   0  0  0  0  0  0  0  0  0  0  0  0
  125.8540  121.7350   55.8710 N   0  0  0  0  0  0  0  0  0  0  0  0
  125.3710  124.6740   57.8580 C   0  0  0  0  0  0  0  0  0  0  0  0
  123.8790  123.8790   58.4100 S   0  0  0  0  0  0  0  0  0  0  0  0
  123.7510  124.1560   60.2020 C   0  0  0  0  0  0  0  0  0  0  0  0
  125.0880  123.9360   60.9120 C   0  0  0  0  0  0  0  0  0  0  0  0
  125.3520  122.8380   61.4040 O   0  0  0  0  0  0  0  0  0  0  0  0
  125.9170  124.9940   60.9600 N   0  0  0  0  0  0  0  0  0  0  0  0
  127.2620  124.9920   61.5360 C   0  0  0  0  0  0  0  0  0  0  0  0
  128.0900  123.7580   61.1920 C   0  0  0  0  0  0  0  0  0  0  0  0
  128.9360  123.1950   62.1540 C   0  0  0  0  0  0  0  0  0  0  0  0
  129.6910  122.0680   61.8410 C   0  0  0  0  0  0  0  0  0  0  0  0
  129.5940  121.5040   60.5700 C   0  0  0  0  0  0  0  0  0  0  0  0
  128.7500  122.0570   59.6100 C   0  0  0  0  0  0  0  0  0  0  0  0
  127.9960  123.1850   59.9210 C   0  0  0  0  0  0  0  0  0  0  0  0
  125.5480  125.9200   58.3650 N   0  0  0  0  0  0  0  0  0  0  0  0
  1  2  1  0
  2  3  2  0
  3  4  1  0
  4  5  1  0
  4  6  2  0
  6  7  1  0
  7  8  3  0
  6  9  1  0
  9 10  1  0
 10 11  1  0
 11 12  1  0
 12 13  2  0
 12 14  1  0
 14 15  1  0
 15 16  1  0
 16 17  2  0
 17 18  1  0
 18 19  2  0
 19 20  1  0
 20 21  2  0
  9 22  2  0
 22  2  1  0
 21 16  1  0
M  END
>  <Binding energies>  (8) 
[-7.34]

>  <Ligand effiencies>  (8) 
[-0.31913043478260866]

>  <Interactions>  (8) 
["V-B:TYR:539:CZ:9848, V-B:PRO:540:N:9855, V-B:PRO:540:CA:9854, V-B:ALA:541:CB:9863, V-B:TYR:539:C:9838, V-B:TYR:539:CE1:9846, V-B:PRO:540:CB:9856, H-B:ASP:366:OD2:8186, V-B:ASP:366:CG:8184, H-B:TYR:531:OH:9766, V-B:TYR:539:CD2:9845, H-B:TYR:539:N:9841, V-B:LEU:363:CA:8156, V-B:TYR:539:CE2:9847, H-B:ALA:541:N:9862, V-B:ASN:362:C:8143, V-B:ASN:362:CB:8147"]

$$$$
1h_Grossjean_2025
     RDKit          3D

 28 29  0  0  0  0  0  0  0  0999 V2000
  131.2880  132.1960   54.9590 C   0  0  0  0  0  0  0  0  0  0  0  0
  130.3350  133.0940   55.5170 O   0  0  0  0  0  0  0  0  0  0  0  0
  129.5360  132.6710   56.5630 C   0  0  0  0  0  0  0  0  0  0  0  0
  128.2460  132.1410   56.4010 C   0  0  0  0  0  0  0  0  0  0  0  0
  127.4910  131.7470   57.5060 C   0  0  0  0  0  0  0  0  0  0  0  0
  126.0990  131.1530   57.3130 C   0  0  0  0  0  0  0  0  0  0  0  0
  125.3830  130.8980   58.5630 N   0  0  0  0  0  0  0  0  0  0  0  0
  124.2300  131.4850   58.9320 C   0  0  0  0  0  0  0  0  0  0  0  0
  123.6250  132.2990   58.2350 O   0  0  0  0  0  0  0  0  0  0  0  0
  123.6780  131.0990   60.3040 C   0  0  0  0  0  0  0  0  0  0  0  0
  123.4630  132.5470   61.3830 S   0  0  0  0  0  0  0  0  0  0  0  0
  125.0350  132.9030   62.1520 C   0  0  0  0  0  0  0  0  0  0  0  0
  125.7650  133.8900   61.5700 N   0  0  0  0  0  0  0  0  0  0  0  0
  126.9650  134.2140   62.1050 C   0  0  0  0  0  0  0  0  0  0  0  0
  127.7190  135.3280   61.4030 C   0  0  0  0  0  0  0  0  0  0  0  0
  127.4860  133.5750   63.2280 C   0  0  0  0  0  0  0  0  0  0  0  0
  126.7450  132.5560   63.8350 C   0  0  0  0  0  0  0  0  0  0  0  0
  127.3320  131.8700   65.0660 C   0  0  0  0  0  0  0  0  0  0  0  0
  125.4880  132.2010   63.2930 C   0  0  0  0  0  0  0  0  0  0  0  0
  124.6900  131.1350   63.9060 C   0  0  0  0  0  0  0  0  0  0  0  0
  124.0610  130.2930   64.3900 N   0  0  0  0  0  0  0  0  0  0  0  0
  128.0380  131.8470   58.7860 C   0  0  0  0  0  0  0  0  0  0  0  0
  129.3280  132.3670   58.9770 C   0  0  0  0  0  0  0  0  0  0  0  0
  129.9320  132.4970   60.2150 O   0  0  0  0  0  0  0  0  0  0  0  0
  130.1420  131.3380   61.0160 C   0  0  0  0  0  0  0  0  0  0  0  0
  130.0630  132.7860   57.8590 C   0  0  0  0  0  0  0  0  0  0  0  0
  131.3280  133.2920   58.0300 O   0  0  0  0  0  0  0  0  0  0  0  0
  132.3430  132.3000   58.0970 C   0  0  0  0  0  0  0  0  0  0  0  0
  1  2  1  0
  2  3  1  0
  3  4  2  0
  4  5  1  0
  5  6  1  0
  6  7  1  0
  7  8  1  0
  8  9  2  0
  8 10  1  0
 10 11  1  0
 11 12  1  0
 12 13  2  0
 13 14  1  0
 14 15  1  0
 14 16  2  0
 16 17  1  0
 17 18  1  0
 17 19  2  0
 19 20  1  0
 20 21  3  0
  5 22  2  0
 22 23  1  0
 23 24  1  0
 24 25  1  0
 23 26  2  0
 26 27  1  0
 27 28  1  0
 26  3  1  0
 19 12  1  0
M  END
>  <Binding energies>  (9) 
[-7.21]

>  <Ligand effiencies>  (9) 
[-0.24862068965517242]

>  <Interactions>  (9) 
["V-A:TYR:539:CE2:4876, V-A:TYR:539:CZ:4877, V-A:TYR:539:CE1:4875, V-A:LEU:363:CD1:3188, V-A:PRO:540:CA:4883, V-A:ILE:538:CG2:4863, V-A:PRO:540:CB:4885, V-A:PRO:540:N:4884, V-A:TYR:539:CD2:4874, V-A:ILE:538:CA:4860, V-A:TYR:539:C:4867, H-A:TYR:539:N:4870, V-A:ILE:538:CB:4862, V-B:GLY:454:CA:9020, V-B:ASP:366:CG:8184, V-A:ALA:541:CB:4892, V-B:LEU:475:CD1:9229, V-B:ILE:369:CD1:8210, H-B:GLY:454:N:9021, V-A:MET:535:CE:4835, V-A:GLU:543:CG:4907, H-A:TYR:539:OH:4878, V-B:ASP:366:CB:8183, V-B:ASP:366:CA:8181, V-A:MET:535:CG:4833, H-B:ARG:545:NH2:9899, H-B:ASN:370:N:8215"]

$$$$
1i_Grossjean_2025
     RDKit          3D

 20 21  0  0  0  0  0  0  0  0999 V2000
  124.5530  123.1950   62.5700 C   0  0  0  0  0  0  0  0  0  0  0  0
  125.0290  123.8450   61.2850 C   0  0  0  0  0  0  0  0  0  0  0  0
  124.1560  124.1000   60.2300 C   0  0  0  0  0  0  0  0  0  0  0  0
  124.6500  124.7110   59.0720 C   0  0  0  0  0  0  0  0  0  0  0  0
  123.6700  124.9970   57.9350 C   0  0  0  0  0  0  0  0  0  0  0  0
  126.0220  125.0480   58.9980 C   0  0  0  0  0  0  0  0  0  0  0  0
  126.5490  125.7330   57.8160 C   0  0  0  0  0  0  0  0  0  0  0  0
  126.9630  126.2760   56.8810 N   0  0  0  0  0  0  0  0  0  0  0  0
  126.8390  124.7280   60.1080 C   0  0  0  0  0  0  0  0  0  0  0  0
  128.5820  125.0780   60.1860 S   0  0  0  0  0  0  0  0  0  0  0  0
  129.4550  123.7090   59.3680 C   0  0  0  0  0  0  0  0  0  0  0  0
  128.5100  122.8380   58.5370 C   0  0  0  0  0  0  0  0  0  0  0  0
  128.2380  121.7010   58.9260 O   0  0  0  0  0  0  0  0  0  0  0  0
  128.0320  123.4090   57.4100 N   0  0  0  0  0  0  0  0  0  0  0  0
  127.1700  122.8440   56.4810 C   0  0  0  0  0  0  0  0  0  0  0  0
  127.1850  123.1760   55.1280 C   0  0  0  0  0  0  0  0  0  0  0  0
  126.1940  122.4100   54.5600 C   0  0  0  0  0  0  0  0  0  0  0  0
  125.6110  121.6560   55.5210 O   0  0  0  0  0  0  0  0  0  0  0  0
  126.2370  121.9410   56.7360 N   0  0  0  0  0  0  0  0  0  0  0  0
  126.3470  124.1540   61.2340 N   0  0  0  0  0  0  0  0  0  0  0  0
  1  2  1  0
  2  3  2  0
  3  4  1  0
  4  5  1  0
  4  6  2  0
  6  7  1  0
  7  8  3  0
  6  9  1  0
  9 10  1  0
 10 11  1  0
 11 12  1  0
 12 13  2  0
 12 14  1  0
 14 15  1  0
 15 16  1  0
 16 17  2  0
 17 18  1  0
 18 19  1  0
  9 20  2  0
 20  2  1  0
 19 15  2  0
M  END
>  <Binding energies>  (10) 
[-6.7]

>  <Ligand effiencies>  (10) 
[-0.3190476190476191]

>  <Interactions>  (10) 
["V-B:TYR:539:CZ:9848, V-B:LEU:363:CD1:8160, V-B:PRO:540:CA:9854, V-B:MET:535:CE:9806, V-B:TYR:539:CE1:9846, V-B:TYR:539:CD1:9844, V-B:PRO:540:CB:9856, V-B:ASP:366:CG:8184, H-B:TYR:531:OH:9766, V-B:ASP:366:CB:8183, V-B:TYR:539:CD2:9845, H-B:TYR:539:N:9841, V-B:LEU:363:CA:8156, H-B:TYR:539:OH:9849, V-B:TYR:539:CE2:9847, V-B:TYR:531:CZ:9765, V-B:TYR:531:CE2:9764, V-B:ILE:538:CD1:9836, V-B:ILE:538:CA:9831, V-B:TYR:539:CG:9843, V-B:ASN:362:C:8143, V-B:ASN:362:CB:8147, V-B:ALA:541:C:9859, V-B:ASN:362:CG:8148"]

$$$$
1k_Grossjean_2025
     RDKit          3D

 25 25  0  0  0  0  0  0  0  0999 V2000
  123.7540  131.4640   59.1310 C   0  0  0  0  0  0  0  0  0  0  0  0
  124.1940  131.7830   57.8210 O   0  0  0  0  0  0  0  0  0  0  0  0
  125.3080  131.0110   57.3930 C   0  0  0  0  0  0  0  0  0  0  0  0
  126.4480  131.1480   58.4120 C   0  0  0  0  0  0  0  0  0  0  0  0
  127.4100  132.0730   57.9220 O   0  0  0  0  0  0  0  0  0  0  0  0
  128.2570  131.5380   56.9130 C   0  0  0  0  0  0  0  0  0  0  0  0
  128.8680  132.6850   56.0990 C   0  0  0  0  0  0  0  0  0  0  0  0
  129.8380  133.3620   56.8880 O   0  0  0  0  0  0  0  0  0  0  0  0
  131.0700  132.6620   57.0030 C   0  0  0  0  0  0  0  0  0  0  0  0
  131.2770  132.2170   58.4630 C   0  0  0  0  0  0  0  0  0  0  0  0
  130.1450  132.5130   59.3420 N   0  0  0  0  0  0  0  0  0  0  0  0
  130.1960  132.5500   60.6850 C   0  0  0  0  0  0  0  0  0  0  0  0
  131.2270  132.3370   61.3260 O   0  0  0  0  0  0  0  0  0  0  0  0
  128.8680  132.8720   61.3900 C   0  0  0  0  0  0  0  0  0  0  0  0
  127.5740  133.6130   60.3350 S   0  0  0  0  0  0  0  0  0  0  0  0
  126.1080  133.8970   61.3180 C   0  0  0  0  0  0  0  0  0  0  0  0
  125.3510  132.8010   61.5830 N   0  0  0  0  0  0  0  0  0  0  0  0
  124.2220  132.9470   62.3140 C   0  0  0  0  0  0  0  0  0  0  0  0
  123.4270  131.6800   62.5600 C   0  0  0  0  0  0  0  0  0  0  0  0
  123.8050  134.1790   62.8150 C   0  0  0  0  0  0  0  0  0  0  0  0
  124.5800  135.3140   62.5550 C   0  0  0  0  0  0  0  0  0  0  0  0
  124.1060  136.6550   63.1130 C   0  0  0  0  0  0  0  0  0  0  0  0
  125.7600  135.1840   61.7900 C   0  0  0  0  0  0  0  0  0  0  0  0
  126.5890  136.3570   61.4990 C   0  0  0  0  0  0  0  0  0  0  0  0
  127.2430  137.2840   61.2690 N   0  0  0  0  0  0  0  0  0  0  0  0
  1  2  1  0
  2  3  1  0
  3  4  1  0
  4  5  1  0
  5  6  1  0
  6  7  1  0
  7  8  1  0
  8  9  1  0
  9 10  1  0
 10 11  1  0
 11 12  1  0
 12 13  2  0
 12 14  1  0
 14 15  1  0
 15 16  1  0
 16 17  2  0
 17 18  1  0
 18 19  1  0
 18 20  2  0
 20 21  1  0
 21 22  1  0
 21 23  2  0
 23 24  1  0
 24 25  3  0
 23 16  1  0
M  END
>  <Binding energies>  (11) 
[-6.35]

>  <Ligand effiencies>  (11) 
[-0.24423076923076922]

>  <Interactions>  (11) 
["V-A:TYR:539:CD1:4873, V-A:TYR:539:CE2:4876, V-A:TYR:539:CZ:4877, V-A:TYR:539:CE1:4875, V-A:PRO:540:CA:4883, V-A:PRO:540:CB:4885, V-A:PRO:540:N:4884, V-A:TYR:539:CD2:4874, V-A:TYR:539:C:4867, H-A:TYR:539:N:4870, V-B:GLY:454:CA:9020, V-B:ASP:366:CG:8184, V-B:TRP:381:CZ3:8342, V-B:TRP:381:CZ2:8341, V-B:TRP:381:CH2:8343, V-A:ALA:541:CB:4892, V-B:LEU:475:CD1:9229, V-B:LEU:475:CB:9227, V-B:ILE:369:CD1:8210, V-B:SER:385:CA:8378, V-B:ILE:369:CG2:8208, V-A:MET:535:CE:4835, H-A:ALA:541:N:4891, H-A:TYR:539:O:4868, V-B:SER:385:CB:8380, V-A:PRO:540:C:4881, V-B:SER:385:C:8376, H-A:TYR:539:OH:4878, V-B:ASP:366:CB:8183, V-B:ASP:366:C:8179, V-B:ASP:366:CA:8181, V-B:ILE:369:CB:8207"]

$$$$
1l_Grossjean_2025
     RDKit          3D

 17 17  0  0  0  0  0  0  0  0999 V2000
  127.5830  126.9270   61.7470 C   0  0  0  0  0  0  0  0  0  0  0  0
  127.3830  125.6010   61.2800 O   0  0  0  0  0  0  0  0  0  0  0  0
  126.0280  125.3810   61.0390 N   0  0  0  0  0  0  0  0  0  0  0  0
  125.5700  124.1160   60.9840 C   0  0  0  0  0  0  0  0  0  0  0  0
  126.2220  123.1360   61.3570 O   0  0  0  0  0  0  0  0  0  0  0  0
  124.1460  123.9610   60.4310 C   0  0  0  0  0  0  0  0  0  0  0  0
  124.0260  123.9240   58.6100 S   0  0  0  0  0  0  0  0  0  0  0  0
  125.4570  124.7540   57.9410 C   0  0  0  0  0  0  0  0  0  0  0  0
  125.6770  126.0140   58.4010 N   0  0  0  0  0  0  0  0  0  0  0  0
  126.7450  126.7020   57.9340 C   0  0  0  0  0  0  0  0  0  0  0  0
  126.9240  128.1010   58.4940 C   0  0  0  0  0  0  0  0  0  0  0  0
  127.6320  126.1710   57.0010 C   0  0  0  0  0  0  0  0  0  0  0  0
  127.4170  124.8750   56.5210 C   0  0  0  0  0  0  0  0  0  0  0  0
  128.4030  124.3120   55.4990 C   0  0  0  0  0  0  0  0  0  0  0  0
  126.3080  124.1390   56.9940 C   0  0  0  0  0  0  0  0  0  0  0  0
  126.0590  122.7780   56.5090 C   0  0  0  0  0  0  0  0  0  0  0  0
  125.8630  121.7050   56.1250 N   0  0  0  0  0  0  0  0  0  0  0  0
  1  2  1  0
  2  3  1  0
  3  4  1  0
  4  5  2  0
  4  6  1  0
  6  7  1  0
  7  8  1  0
  8  9  2  0
  9 10  1  0
 10 11  1  0
 10 12  2  0
 12 13  1  0
 13 14  1  0
 13 15  2  0
 15 16  1  0
 16 17  3  0
 15  8  1  0
M  END
>  <Binding energies>  (12) 
[-6.01]

>  <Ligand effiencies>  (12) 
[-0.3338888888888889]

>  <Interactions>  (12) 
["V-B:TYR:539:CZ:9848, V-B:PRO:540:N:9855, V-B:PRO:540:CA:9854, V-B:TYR:539:CE1:9846, V-B:PRO:540:CB:9856, H-B:ASP:366:OD2:8186, H-B:TYR:531:OH:9766, H-B:TYR:539:N:9841, V-B:LEU:363:CA:8156, V-B:PRO:540:CD:9858, H-B:ALA:541:N:9862, V-B:ASN:362:C:8143, V-B:ASN:362:CB:8147"]

$$$$
1m_Grossjean_2025
     RDKit          3D

 20 20  0  0  0  0  0  0  0  0999 V2000
  128.9180  132.5800   56.2700 C   0  0  0  0  0  0  0  0  0  0  0  0
  129.8030  133.5620   56.7890 O   0  0  0  0  0  0  0  0  0  0  0  0
  131.0950  133.2600   57.0330 C   0  0  0  0  0  0  0  0  0  0  0  0
  132.0450  133.5130   56.2850 O   0  0  0  0  0  0  0  0  0  0  0  0
  131.2640  132.5520   58.3930 C   0  0  0  0  0  0  0  0  0  0  0  0
  130.1230  132.7720   59.2960 N   0  0  0  0  0  0  0  0  0  0  0  0
  130.1430  132.6330   60.6350 C   0  0  0  0  0  0  0  0  0  0  0  0
  131.1460  132.2810   61.2590 O   0  0  0  0  0  0  0  0  0  0  0  0
  128.8200  132.9360   61.3510 C   0  0  0  0  0  0  0  0  0  0  0  0
  127.4490  133.4170   60.2460 S   0  0  0  0  0  0  0  0  0  0  0  0
  126.0380  133.8100   61.2590 C   0  0  0  0  0  0  0  0  0  0  0  0
  125.2680  132.7330   61.5570 N   0  0  0  0  0  0  0  0  0  0  0  0
  124.1700  132.9100   62.3280 C   0  0  0  0  0  0  0  0  0  0  0  0
  123.3700  131.6590   62.6350 C   0  0  0  0  0  0  0  0  0  0  0  0
  123.7900  134.1580   62.8200 C   0  0  0  0  0  0  0  0  0  0  0  0
  124.5620  135.2790   62.4970 C   0  0  0  0  0  0  0  0  0  0  0  0
  124.1180  136.6380   63.0340 C   0  0  0  0  0  0  0  0  0  0  0  0
  125.7130  135.1180   61.6930 C   0  0  0  0  0  0  0  0  0  0  0  0
  126.5080  136.2850   61.3020 C   0  0  0  0  0  0  0  0  0  0  0  0
  127.1350  137.2070   60.9940 N   0  0  0  0  0  0  0  0  0  0  0  0
  1  2  1  0
  2  3  1  0
  3  4  2  0
  3  5  1  0
  5  6  1  0
  6  7  1  0
  7  8  2  0
  7  9  1  0
  9 10  1  0
 10 11  1  0
 11 12  2  0
 12 13  1  0
 13 14  1  0
 13 15  2  0
 15 16  1  0
 16 17  1  0
 16 18  2  0
 18 19  1  0
 19 20  3  0
 18 11  1  0
M  END
>  <Binding energies>  (13) 
[-6.32]

>  <Ligand effiencies>  (13) 
[-0.30095238095238097]

>  <Interactions>  (13) 
["V-A:TYR:539:CD1:4873, V-A:TYR:539:CE2:4876, V-A:TYR:539:CZ:4877, V-A:TYR:539:CE1:4875, V-A:PRO:540:CA:4883, V-A:TYR:539:CA:4869, V-A:PRO:540:CD:4887, V-A:PRO:540:CB:4885, V-A:PRO:540:N:4884, V-A:TYR:539:CD2:4874, V-A:TYR:539:C:4867, H-A:TYR:539:N:4870, V-B:GLY:454:CA:9020, V-B:TRP:381:CZ3:8342, V-B:TRP:381:CZ2:8341, V-B:TRP:381:CH2:8343, V-A:ALA:541:CB:4892, V-B:LEU:475:CD1:9229, V-B:LEU:475:CB:9227, V-B:ILE:369:CD1:8210, V-B:GLY:453:C:9013, V-B:SER:385:CA:8378, V-A:MET:535:CE:4835, H-A:ALA:541:N:4891, H-A:TYR:539:O:4868, V-B:SER:385:CB:8380, V-A:PRO:540:C:4881, V-B:SER:385:C:8376"]

$$$$
1n_Grossjean_2025
     RDKit          3D

 27 28  0  0  0  0  0  0  0  0999 V2000
  133.8670  125.4180   66.2590 C   0  0  0  0  0  0  0  0  0  0  0  0
  132.9840  125.2490   65.0180 C   0  0  0  0  0  0  0  0  0  0  0  0
  133.6290  124.3830   64.0930 O   0  0  0  0  0  0  0  0  0  0  0  0
  132.9730  123.3300   63.5430 C   0  0  0  0  0  0  0  0  0  0  0  0
  133.4970  122.2300   63.3440 O   0  0  0  0  0  0  0  0  0  0  0  0
  131.5390  123.6330   63.2110 C   0  0  0  0  0  0  0  0  0  0  0  0
  131.1810  124.3680   62.0700 C   0  0  0  0  0  0  0  0  0  0  0  0
  129.8430  124.6330   61.7930 C   0  0  0  0  0  0  0  0  0  0  0  0
  128.8390  124.1800   62.6490 C   0  0  0  0  0  0  0  0  0  0  0  0
  127.5220  124.5100   62.2760 N   0  0  0  0  0  0  0  0  0  0  0  0
  126.6690  123.8620   61.4530 C   0  0  0  0  0  0  0  0  0  0  0  0
  126.9100  122.8100   60.8610 O   0  0  0  0  0  0  0  0  0  0  0  0
  125.2960  124.5210   61.2690 C   0  0  0  0  0  0  0  0  0  0  0  0
  124.2540  123.5800   60.6270 C   0  0  0  0  0  0  0  0  0  0  0  0
  123.9320  123.9010   58.8670 S   0  0  0  0  0  0  0  0  0  0  0  0
  125.3760  124.6900   58.1890 C   0  0  0  0  0  0  0  0  0  0  0  0
  125.6150  125.9220   58.7050 N   0  0  0  0  0  0  0  0  0  0  0  0
  126.6980  126.6090   58.2740 C   0  0  0  0  0  0  0  0  0  0  0  0
  126.9070  127.9730   58.9020 C   0  0  0  0  0  0  0  0  0  0  0  0
  127.5760  126.1060   57.3160 C   0  0  0  0  0  0  0  0  0  0  0  0
  127.3270  124.8450   56.7630 C   0  0  0  0  0  0  0  0  0  0  0  0
  128.2960  124.3190   55.7050 C   0  0  0  0  0  0  0  0  0  0  0  0
  126.1990  124.1110   57.1940 C   0  0  0  0  0  0  0  0  0  0  0  0
  125.8910  122.8130   56.5920 C   0  0  0  0  0  0  0  0  0  0  0  0
  125.6490  121.7870   56.1130 N   0  0  0  0  0  0  0  0  0  0  0  0
  129.1890  123.4370   63.7860 C   0  0  0  0  0  0  0  0  0  0  0  0
  130.5270  123.1680   64.0600 C   0  0  0  0  0  0  0  0  0  0  0  0
  1  2  1  0
  2  3  1  0
  3  4  1  0
  4  5  2  0
  4  6  1  0
  6  7  2  0
  7  8  1  0
  8  9  2  0
  9 10  1  0
 10 11  1  0
 11 12  2  0
 11 13  1  0
 13 14  1  0
 14 15  1  0
 15 16  1  0
 16 17  2  0
 17 18  1  0
 18 19  1  0
 18 20  2  0
 20 21  1  0
 21 22  1  0
 21 23  2  0
 23 24  1  0
 24 25  3  0
  9 26  1  0
 26 27  2  0
 27  6  1  0
 23 16  1  0
M  END
>  <Binding energies>  (14) 
[-8.09]

>  <Ligand effiencies>  (14) 
[-0.2889285714285714]

>  <Interactions>  (14) 
["V-B:TYR:539:CZ:9848, H-B:GLU:543:OE2:9881, V-B:PRO:540:N:9855, V-B:PRO:540:CA:9854, V-B:ALA:541:CB:9863, V-B:TYR:539:CE1:9846, V-B:PRO:540:CB:9856, V-B:GLU:543:CD:9879, H-B:TYR:531:OH:9766, H-B:TYR:539:N:9841, V-B:PRO:540:CD:9858, H-B:ALA:541:N:9862, V-B:ASN:362:C:8143, V-B:ASN:362:CB:8147, V-B:GLU:543:CG:9878, H-A:GLY:454:N:4049, V-A:ARG:545:CZ:4926, V-A:ARG:545:CD:4923, V-A:ARG:545:CG:4922, V-A:GLY:454:CA:4048, H-B:LEU:363:N:8157"]

$$$$
1q_Grossjean_2025
     RDKit          3D

 21 21  0  0  0  0  0  0  0  0999 V2000
  131.4690  132.9150   56.9500 C   0  0  0  0  0  0  0  0  0  0  0  0
  130.1230  133.3160   57.1600 O   0  0  0  0  0  0  0  0  0  0  0  0
  129.1120  132.7170   56.4840 C   0  0  0  0  0  0  0  0  0  0  0  0
  128.5980  133.1360   55.4450 O   0  0  0  0  0  0  0  0  0  0  0  0
  128.5950  131.4220   57.1460 C   0  0  0  0  0  0  0  0  0  0  0  0
  127.1870  131.5120   57.5610 N   0  0  0  0  0  0  0  0  0  0  0  0
  126.1740  130.7620   57.0870 C   0  0  0  0  0  0  0  0  0  0  0  0
  126.3260  129.8890   56.2290 O   0  0  0  0  0  0  0  0  0  0  0  0
  124.7900  131.0390   57.6920 C   0  0  0  0  0  0  0  0  0  0  0  0
  124.7570  131.0170   59.2340 C   0  0  0  0  0  0  0  0  0  0  0  0
  124.1440  132.5610   59.9710 S   0  0  0  0  0  0  0  0  0  0  0  0
  125.5360  133.4910   60.5800 C   0  0  0  0  0  0  0  0  0  0  0  0
  126.7330  132.9250   60.2820 N   0  0  0  0  0  0  0  0  0  0  0  0
  127.8660  133.5400   60.6950 C   0  0  0  0  0  0  0  0  0  0  0  0
  129.1640  132.8390   60.3400 C   0  0  0  0  0  0  0  0  0  0  0  0
  127.8550  134.7380   61.4060 C   0  0  0  0  0  0  0  0  0  0  0  0
  126.6280  135.3430   61.6960 C   0  0  0  0  0  0  0  0  0  0  0  0
  126.6430  136.6670   62.4600 C   0  0  0  0  0  0  0  0  0  0  0  0
  125.4310  134.7220   61.2730 C   0  0  0  0  0  0  0  0  0  0  0  0
  124.1420  135.3700   61.5180 C   0  0  0  0  0  0  0  0  0  0  0  0
  123.1240  135.8850   61.7130 N   0  0  0  0  0  0  0  0  0  0  0  0
  1  2  1  0
  2  3  1  0
  3  4  2  0
  3  5  1  0
  5  6  1  0
  6  7  1  0
  7  8  2  0
  7  9  1  0
  9 10  1  0
 10 11  1  0
 11 12  1  0
 12 13  2  0
 13 14  1  0
 14 15  1  0
 14 16  2  0
 16 17  1  0
 17 18  1  0
 17 19  2  0
 19 20  1  0
 20 21  3  0
 19 12  1  0
M  END
>  <Binding energies>  (15) 
[-6.36]

>  <Ligand effiencies>  (15) 
[-0.2890909090909091]

>  <Interactions>  (15) 
["V-A:TYR:539:CD1:4873, V-A:TYR:539:CE2:4876, V-A:TYR:539:CZ:4877, V-A:TYR:539:CE1:4875, V-A:LEU:363:CD1:3188, V-A:PRO:540:CA:4883, V-A:PRO:540:CD:4887, V-A:PRO:540:N:4884, V-A:TYR:539:CD2:4874, V-A:TYR:539:C:4867, H-A:TYR:539:N:4870, V-B:ASP:366:CG:8184, V-B:TRP:381:CZ2:8341, V-B:TRP:381:CH2:8343, V-A:ALA:541:CB:4892, V-B:LEU:475:CD1:9229, V-B:PRO:482:CB:9297, V-B:PRO:482:CG:9298, V-B:ILE:369:CG2:8208, V-A:MET:535:CE:4835, H-B:TYR:531:OH:9766, H-A:TYR:539:OH:4878, V-B:ASP:366:CB:8183"]

$$$$
2a_Grossjean_2025
     RDKit          3D

 29 30  0  0  0  0  0  0  0  0999 V2000
  132.2100  131.8440   58.4980 C   0  0  0  0  0  0  0  0  0  0  0  0
  132.2080  132.1970   57.0070 C   0  0  0  0  0  0  0  0  0  0  0  0
  131.2380  133.2090   56.7650 O   0  0  0  0  0  0  0  0  0  0  0  0
  130.0980  132.9370   56.0780 C   0  0  0  0  0  0  0  0  0  0  0  0
  130.0170  132.9840   54.8470 O   0  0  0  0  0  0  0  0  0  0  0  0
  128.9510  132.5510   56.9680 C   0  0  0  0  0  0  0  0  0  0  0  0
  128.8990  132.9280   58.3170 C   0  0  0  0  0  0  0  0  0  0  0  0
  127.8210  132.5530   59.1150 C   0  0  0  0  0  0  0  0  0  0  0  0
  126.7800  131.7890   58.5850 C   0  0  0  0  0  0  0  0  0  0  0  0
  125.7510  131.4560   59.4850 N   0  0  0  0  0  0  0  0  0  0  0  0
  124.4110  131.5500   59.3450 C   0  0  0  0  0  0  0  0  0  0  0  0
  123.8250  131.9940   58.3570 O   0  0  0  0  0  0  0  0  0  0  0  0
  123.5860  131.0570   60.5380 C   0  0  0  0  0  0  0  0  0  0  0  0
  123.7280  132.1310   62.0060 S   0  0  0  0  0  0  0  0  0  0  0  0
  125.3380  132.9090   62.0320 C   0  0  0  0  0  0  0  0  0  0  0  0
  126.3920  132.0750   62.2230 N   0  0  0  0  0  0  0  0  0  0  0  0
  127.6390  132.5970   62.2660 C   0  0  0  0  0  0  0  0  0  0  0  0
  128.7620  131.6060   62.5100 C   0  0  0  0  0  0  0  0  0  0  0  0
  127.8890  133.9580   62.1140 C   0  0  0  0  0  0  0  0  0  0  0  0
  126.8160  134.8380   61.9070 C   0  0  0  0  0  0  0  0  0  0  0  0
  127.1090  136.3400   61.7390 C   0  0  0  0  0  0  0  0  0  0  0  0
  126.5720  136.7880   60.6040 F   0  0  0  0  0  0  0  0  0  0  0  0
  126.5930  137.0220   62.7630 F   0  0  0  0  0  0  0  0  0  0  0  0
  128.4170  136.6080   61.6980 F   0  0  0  0  0  0  0  0  0  0  0  0
  125.5020  134.3040   61.8630 C   0  0  0  0  0  0  0  0  0  0  0  0
  124.3440  135.1780   61.6520 C   0  0  0  0  0  0  0  0  0  0  0  0
  123.4290  135.8680   61.4860 N   0  0  0  0  0  0  0  0  0  0  0  0
  126.8210  131.4150   57.2340 C   0  0  0  0  0  0  0  0  0  0  0  0
  127.8980  131.7950   56.4370 C   0  0  0  0  0  0  0  0  0  0  0  0
  1  2  1  0
  2  3  1  0
  3  4  1  0
  4  5  2  0
  4  6  1  0
  6  7  2  0
  7  8  1  0
  8  9  2  0
  9 10  1  0
 10 11  1  0
 11 12  2  0
 11 13  1  0
 13 14  1  0
 14 15  1  0
 15 16  2  0
 16 17  1  0
 17 18  1  0
 17 19  2  0
 19 20  1  0
 20 21  1  0
 21 22  1  0
 21 23  1  0
 21 24  1  0
 20 25  2  0
 25 26  1  0
 26 27  3  0
  9 28  1  0
 28 29  2  0
 29  6  1  0
 25 15  1  0
M  END
>  <Binding energies>  (16) 
[-7.63]

>  <Ligand effiencies>  (16) 
[-0.25433333333333336]

>  <Interactions>  (16) 
["V-A:TYR:539:CE2:4876, V-A:TYR:539:CG:4872, V-A:TYR:539:CZ:4877, V-A:TYR:539:CE1:4875, V-A:LEU:363:CD1:3188, V-A:PRO:540:CA:4883, V-A:PRO:540:CB:4885, V-A:TYR:539:CD2:4874, V-A:ILE:538:CA:4860, V-A:TYR:539:C:4867, H-A:TYR:539:N:4870, V-A:ILE:538:CB:4862, V-B:ASP:366:CG:8184, V-B:TRP:381:CZ3:8342, V-B:TRP:381:CZ2:8341, V-B:TRP:381:CE3:8339, V-B:TRP:381:CH2:8343, V-A:ALA:541:CB:4892, V-B:LEU:475:CD1:9229, V-B:TRP:381:CE2:8338, V-B:PRO:482:CB:9297, V-B:ILE:369:CD1:8210, V-B:PRO:482:CG:9298, V-B:ILE:369:CG2:8208, V-A:MET:535:CE:4835, V-A:PRO:540:C:4881, H-A:TYR:539:OH:4878, V-B:ASP:366:CB:8183, V-B:ASP:366:CA:8181, V-A:TYR:539:CB:4871, V-A:ALA:541:CA:4890"]

$$$$
2b_Grossjean_2025
     RDKit          3D

 28 29  0  0  0  0  0  0  0  0999 V2000
  132.1220  132.3480   57.3780 C   0  0  0  0  0  0  0  0  0  0  0  0
  131.2250  133.3230   56.8640 O   0  0  0  0  0  0  0  0  0  0  0  0
  130.1290  132.9590   56.1510 C   0  0  0  0  0  0  0  0  0  0  0  0
  130.0900  132.9580   54.9160 O   0  0  0  0  0  0  0  0  0  0  0  0
  128.9660  132.5600   57.0130 C   0  0  0  0  0  0  0  0  0  0  0  0
  128.8820  132.9300   58.3630 C   0  0  0  0  0  0  0  0  0  0  0  0
  127.7900  132.5430   59.1350 C   0  0  0  0  0  0  0  0  0  0  0  0
  126.7620  131.7850   58.5760 C   0  0  0  0  0  0  0  0  0  0  0  0
  125.7100  131.4430   59.4470 N   0  0  0  0  0  0  0  0  0  0  0  0
  124.3810  131.6480   59.3170 C   0  0  0  0  0  0  0  0  0  0  0  0
  123.8380  132.2230   58.3730 O   0  0  0  0  0  0  0  0  0  0  0  0
  123.5230  131.1190   60.4710 C   0  0  0  0  0  0  0  0  0  0  0  0
  123.7350  132.0660   62.0140 S   0  0  0  0  0  0  0  0  0  0  0  0
  125.3530  132.8240   62.0480 C   0  0  0  0  0  0  0  0  0  0  0  0
  126.3990  131.9730   62.2080 N   0  0  0  0  0  0  0  0  0  0  0  0
  127.6520  132.4780   62.2480 C   0  0  0  0  0  0  0  0  0  0  0  0
  128.7630  131.4640   62.4420 C   0  0  0  0  0  0  0  0  0  0  0  0
  127.9180  133.8380   62.1240 C   0  0  0  0  0  0  0  0  0  0  0  0
  126.8530  134.7360   61.9500 C   0  0  0  0  0  0  0  0  0  0  0  0
  127.1650  136.2380   61.8090 C   0  0  0  0  0  0  0  0  0  0  0  0
  126.6490  136.9090   62.8400 F   0  0  0  0  0  0  0  0  0  0  0  0
  128.4850  136.4320   61.7850 F   0  0  0  0  0  0  0  0  0  0  0  0
  126.6620  136.7680   60.6920 F   0  0  0  0  0  0  0  0  0  0  0  0
  125.5320  134.2210   61.9130 C   0  0  0  0  0  0  0  0  0  0  0  0
  124.3820  135.1130   61.7400 C   0  0  0  0  0  0  0  0  0  0  0  0
  123.4740  135.8170   61.6030 N   0  0  0  0  0  0  0  0  0  0  0  0
  126.8420  131.4040   57.2290 C   0  0  0  0  0  0  0  0  0  0  0  0
  127.9340  131.7910   56.4580 C   0  0  0  0  0  0  0  0  0  0  0  0
  1  2  1  0
  2  3  1  0
  3  4  2  0
  3  5  1  0
  5  6  2  0
  6  7  1  0
  7  8  2  0
  8  9  1  0
  9 10  1  0
 10 11  2  0
 10 12  1  0
 12 13  1  0
 13 14  1  0
 14 15  2  0
 15 16  1  0
 16 17  1  0
 16 18  2  0
 18 19  1  0
 19 20  1  0
 20 21  1  0
 20 22  1  0
 20 23  1  0
 19 24  2  0
 24 25  1  0
 25 26  3  0
  8 27  1  0
 27 28  2  0
 28  5  1  0
 24 14  1  0
M  END
>  <Binding energies>  (17) 
[-7.52]

>  <Ligand effiencies>  (17) 
[-0.2593103448275862]

>  <Interactions>  (17) 
["V-A:TYR:539:CE2:4876, V-A:TYR:539:CG:4872, V-A:TYR:539:CZ:4877, V-A:TYR:539:CE1:4875, V-A:LEU:363:CD1:3188, V-A:PRO:540:CA:4883, V-A:PRO:540:CB:4885, V-A:PRO:540:N:4884, V-A:TYR:539:CD2:4874, V-A:ILE:538:CA:4860, V-A:TYR:539:C:4867, H-A:TYR:539:N:4870, V-A:ILE:538:CB:4862, V-B:ASP:366:CG:8184, V-B:TRP:381:CZ3:8342, V-B:TRP:381:CZ2:8341, V-B:TRP:381:CE3:8339, V-B:TRP:381:CH2:8343, V-A:ALA:541:CB:4892, V-B:LEU:475:CD1:9229, V-B:TRP:381:CE2:8338, V-B:PRO:482:CB:9297, V-B:ILE:369:CD1:8210, V-B:PRO:482:CG:9298, V-B:ILE:369:CG2:8208, V-A:MET:535:CE:4835, V-A:PRO:540:C:4881, H-A:TYR:539:OH:4878, V-B:ASP:366:CB:8183, V-B:ASP:366:CA:8181, V-A:TYR:539:CB:4871, V-A:ALA:541:CA:4890"]

$$$$
2c_Grossjean_2025
     RDKit          3D

 26 27  0  0  0  0  0  0  0  0999 V2000
  131.6080  132.8800   56.6240 C   0  0  0  0  0  0  0  0  0  0  0  0
  130.2790  132.9220   56.1170 O   0  0  0  0  0  0  0  0  0  0  0  0
  129.2290  132.5910   56.9520 C   0  0  0  0  0  0  0  0  0  0  0  0
  128.1700  131.8930   56.3730 C   0  0  0  0  0  0  0  0  0  0  0  0
  127.0660  131.5160   57.1330 C   0  0  0  0  0  0  0  0  0  0  0  0
  127.0070  131.8490   58.4950 C   0  0  0  0  0  0  0  0  0  0  0  0
  125.9440  131.4970   59.3460 N   0  0  0  0  0  0  0  0  0  0  0  0
  124.6170  131.6390   59.1400 C   0  0  0  0  0  0  0  0  0  0  0  0
  124.1150  132.1730   58.1500 O   0  0  0  0  0  0  0  0  0  0  0  0
  123.7260  131.1110   60.2750 C   0  0  0  0  0  0  0  0  0  0  0  0
  123.8600  132.0100   61.8610 S   0  0  0  0  0  0  0  0  0  0  0  0
  125.4490  132.8250   61.9500 C   0  0  0  0  0  0  0  0  0  0  0  0
  126.5160  132.0120   62.1610 N   0  0  0  0  0  0  0  0  0  0  0  0
  127.7470  132.5600   62.2490 C   0  0  0  0  0  0  0  0  0  0  0  0
  128.8840  131.5880   62.5010 C   0  0  0  0  0  0  0  0  0  0  0  0
  127.9710  133.9290   62.1230 C   0  0  0  0  0  0  0  0  0  0  0  0
  126.8850  134.7870   61.8980 C   0  0  0  0  0  0  0  0  0  0  0  0
  127.1490  136.2990   61.7600 C   0  0  0  0  0  0  0  0  0  0  0  0
  126.5780  136.9570   62.7700 F   0  0  0  0  0  0  0  0  0  0  0  0
  128.4610  136.5390   61.7730 F   0  0  0  0  0  0  0  0  0  0  0  0
  126.6600  136.8060   60.6250 F   0  0  0  0  0  0  0  0  0  0  0  0
  125.5860  134.2260   61.8090 C   0  0  0  0  0  0  0  0  0  0  0  0
  124.4140  135.0770   61.5760 C   0  0  0  0  0  0  0  0  0  0  0  0
  123.4890  135.7480   61.3930 N   0  0  0  0  0  0  0  0  0  0  0  0
  128.0720  132.5350   59.0820 C   0  0  0  0  0  0  0  0  0  0  0  0
  129.1740  132.9080   58.3180 C   0  0  0  0  0  0  0  0  0  0  0  0
  1  2  1  0
  2  3  1  0
  3  4  2  0
  4  5  1  0
  5  6  2  0
  6  7  1  0
  7  8  1  0
  8  9  2  0
  8 10  1  0
 10 11  1  0
 11 12  1  0
 12 13  2  0
 13 14  1  0
 14 15  1  0
 14 16  2  0
 16 17  1  0
 17 18  1  0
 18 19  1  0
 18 20  1  0
 18 21  1  0
 17 22  2  0
 22 23  1  0
 23 24  3  0
  6 25  1  0
 25 26  2  0
 26  3  1  0
 22 12  1  0
M  END
>  <Binding energies>  (18) 
[-6.67]

>  <Ligand effiencies>  (18) 
[-0.24703703703703703]

>  <Interactions>  (18) 
["V-A:TYR:539:CE2:4876, V-A:TYR:539:CG:4872, V-A:TYR:539:CZ:4877, V-A:TYR:539:CE1:4875, V-A:LEU:363:CD1:3188, V-A:PRO:540:CD:4887, V-A:PRO:540:N:4884, V-A:TYR:539:CD2:4874, V-A:TYR:539:C:4867, H-A:TYR:539:N:4870, V-A:ILE:538:CB:4862, V-B:ASP:366:CG:8184, V-B:TRP:381:CZ3:8342, V-B:TRP:381:CZ2:8341, V-B:TRP:381:CE3:8339, V-B:TRP:381:CH2:8343, V-A:ALA:541:CB:4892, V-B:LEU:475:CD1:9229, V-B:TRP:381:CE2:8338, V-B:PRO:482:CB:9297, V-B:ILE:369:CD1:8210, V-B:PRO:482:CG:9298, V-B:ILE:369:CG2:8208, V-A:MET:535:CE:4835, V-A:PRO:540:C:4881, H-A:TYR:539:OH:4878, V-B:ASP:366:CB:8183, V-B:ASP:366:CA:8181, V-A:TYR:539:CB:4871, V-A:ALA:541:CA:4890"]

$$$$
2d_Ghoteimi_2023
     RDKit          3D

 38 42  0  0  0  0  0  0  0  0999 V2000
  124.5160  131.6170   59.8280 C   0  0  0  0  0  0  0  0  0  0  0  0
  124.3320  132.6800   60.7510 O   0  0  0  0  0  0  0  0  0  0  0  0
  123.7310  132.4620   61.9390 C   0  0  0  0  0  0  0  0  0  0  0  0
  123.6810  133.2650   62.8740 O   0  0  0  0  0  0  0  0  0  0  0  0
  123.0940  131.0650   61.9930 C   0  0  0  0  0  0  0  0  0  0  0  0
  123.3340  130.2920   63.6290 S   0  0  0  0  0  0  0  0  0  0  0  0
  125.0830  130.2100   63.9580 C   0  0  0  0  0  0  0  0  0  0  0  0
  125.8450  130.5800   62.8990 N   0  0  0  0  0  0  0  0  0  0  0  0
  127.1970  130.5590   63.0060 C   0  0  0  0  0  0  0  0  0  0  0  0
  127.9700  130.9630   61.7920 C   0  0  0  0  0  0  0  0  0  0  0  0
  128.7500  132.1250   61.7980 C   0  0  0  0  0  0  0  0  0  0  0  0
  129.4730  132.5070   60.6710 C   0  0  0  0  0  0  0  0  0  0  0  0
  129.4510  131.7350   59.5000 C   0  0  0  0  0  0  0  0  0  0  0  0
  130.1570  132.1140   58.3530 N   0  0  0  0  0  0  0  0  0  0  0  0
  129.5210  132.9070   57.2820 C   0  0  0  0  0  0  0  0  0  0  0  0
  130.3150  132.9070   55.9590 C   0  0  0  0  0  0  0  0  0  0  0  0
  131.6440  133.3480   56.1920 O   0  0  0  0  0  0  0  0  0  0  0  0
  132.3210  132.5000   57.1050 C   0  0  0  0  0  0  0  0  0  0  0  0
  131.5840  132.4810   58.4600 C   0  0  0  0  0  0  0  0  0  0  0  0
  128.6570  130.5790   59.4940 C   0  0  0  0  0  0  0  0  0  0  0  0
  127.9330  130.1980   60.6200 C   0  0  0  0  0  0  0  0  0  0  0  0
  127.8200  130.1660   64.1930 C   0  0  0  0  0  0  0  0  0  0  0  0
  127.0570  129.8110   65.3120 C   0  0  0  0  0  0  0  0  0  0  0  0
  127.7910  129.4290   66.5550 C   0  0  0  0  0  0  0  0  0  0  0  0
  127.7640  130.2650   67.6720 C   0  0  0  0  0  0  0  0  0  0  0  0
  128.4340  129.9130   68.8400 C   0  0  0  0  0  0  0  0  0  0  0  0
  129.1560  128.7100   68.9220 C   0  0  0  0  0  0  0  0  0  0  0  0
  129.8250  128.3300   70.0880 N   0  0  0  0  0  0  0  0  0  0  0  0
  129.1270  128.2530   71.3860 C   0  0  0  0  0  0  0  0  0  0  0  0
  129.9180  127.4830   72.4660 C   0  0  0  0  0  0  0  0  0  0  0  0
  131.2100  128.0490   72.6170 O   0  0  0  0  0  0  0  0  0  0  0  0
  131.9510  127.9980   71.4080 C   0  0  0  0  0  0  0  0  0  0  0  0
  131.2130  128.7840   70.3030 C   0  0  0  0  0  0  0  0  0  0  0  0
  129.1630  127.8680   67.8020 C   0  0  0  0  0  0  0  0  0  0  0  0
  128.4910  128.2210   66.6350 C   0  0  0  0  0  0  0  0  0  0  0  0
  125.6440  129.8370   65.2010 C   0  0  0  0  0  0  0  0  0  0  0  0
  124.8020  129.4920   66.3500 C   0  0  0  0  0  0  0  0  0  0  0  0
  124.1400  129.2200   67.2600 N   0  0  0  0  0  0  0  0  0  0  0  0
  1  2  1  0
  2  3  1  0
  3  4  2  0
  3  5  1  0
  5  6  1  0
  6  7  1  0
  7  8  2  0
  8  9  1  0
  9 10  1  0
 10 11  2  0
 11 12  1  0
 12 13  2  0
 13 14  1  0
 14 15  1  0
 15 16  1  0
 16 17  1  0
 17 18  1  0
 18 19  1  0
 13 20  1  0
 20 21  2  0
  9 22  2  0
 22 23  1  0
 23 24  1  0
 24 25  2  0
 25 26  1  0
 26 27  2  0
 27 28  1  0
 28 29  1  0
 29 30  1  0
 30 31  1  0
 31 32  1  0
 32 33  1  0
 27 34  1  0
 34 35  2  0
 23 36  2  0
 36 37  1  0
 37 38  3  0
 36  7  1  0
 21 10  1  0
 35 24  1  0
 19 14  1  0
 33 28  1  0
M  END
>  <Binding energies>  (19) 
[-8.99]

>  <Ligand effiencies>  (19) 
[-0.23657894736842106]

>  <Interactions>  (19) 
["V-A:LEU:363:CD1:3188, V-A:PRO:540:CA:4883, V-A:PRO:540:CD:4887, V-A:PRO:540:CB:4885, V-A:PRO:540:N:4884, V-A:TYR:539:CD2:4874, V-A:ILE:538:CA:4860, V-A:TYR:539:C:4867, H-A:TYR:539:N:4870, V-A:ILE:538:CB:4862, V-B:ASP:366:CG:8184, V-B:ARG:545:CD:9894, H-B:TYR:484:OH:9319, V-B:ILE:369:CD1:8210, H-B:GLY:454:N:9021, V-B:GLU:543:CD:9879, V-B:ARG:545:CZ:9897, V-B:ARG:545:CG:9893, V-B:ILE:369:CG2:8208, V-A:MET:535:CE:4835, V-B:HIS:456:CE1:9041, V-A:GLU:543:CG:4907, V-A:GLU:543:CD:4908, H-B:ARG:545:NH2:9899, H-B:ARG:545:NE:9895, H-B:ARG:545:NH1:9898, V-A:HIS:456:CE1:4069, V-A:GLY:544:C:4912, V-A:GLU:543:C:4902, V-A:ARG:545:CA:4919, V-A:GLU:543:CB:4906, V-B:TYR:484:CE1:9316, V-B:TYR:484:CZ:9318, V-A:GLU:543:CA:4904, V-A:HIS:456:CG:4065, V-B:HIS:456:CD2:9039, H-A:LYS:547:NZ:4951"]

$$$$
2d_Grossjean_2025
     RDKit          3D

 24 25  0  0  0  0  0  0  0  0999 V2000
  128.3800  133.6970   61.3050 C   0  0  0  0  0  0  0  0  0  0  0  0
  127.4630  132.9500   60.3550 C   0  0  0  0  0  0  0  0  0  0  0  0
  126.1150  132.7520   60.6460 C   0  0  0  0  0  0  0  0  0  0  0  0
  125.3070  132.0590   59.7330 C   0  0  0  0  0  0  0  0  0  0  0  0
  123.8160  131.8590   60.0680 C   0  0  0  0  0  0  0  0  0  0  0  0
  123.6290  130.6580   60.6170 F   0  0  0  0  0  0  0  0  0  0  0  0
  123.4110  132.7950   60.9280 F   0  0  0  0  0  0  0  0  0  0  0  0
  123.0300  131.9360   58.9920 F   0  0  0  0  0  0  0  0  0  0  0  0
  125.8970  131.5720   58.5390 C   0  0  0  0  0  0  0  0  0  0  0  0
  125.0860  130.8830   57.5320 C   0  0  0  0  0  0  0  0  0  0  0  0
  124.4440  130.3400   56.7370 N   0  0  0  0  0  0  0  0  0  0  0  0
  127.2790  131.7980   58.3390 C   0  0  0  0  0  0  0  0  0  0  0  0
  128.1850  131.2300   56.9130 S   0  0  0  0  0  0  0  0  0  0  0  0
  129.2520  132.5840   56.3180 C   0  0  0  0  0  0  0  0  0  0  0  0
  130.5180  132.7630   57.1610 C   0  0  0  0  0  0  0  0  0  0  0  0
  131.4080  133.5100   56.7520 O   0  0  0  0  0  0  0  0  0  0  0  0
  130.5670  132.0430   58.3010 N   0  0  0  0  0  0  0  0  0  0  0  0
  131.5800  131.9930   59.2780 C   0  0  0  0  0  0  0  0  0  0  0  0
  131.1640  132.1630   60.6000 C   0  0  0  0  0  0  0  0  0  0  0  0
  132.0930  132.1350   61.6370 C   0  0  0  0  0  0  0  0  0  0  0  0
  133.4430  131.9470   61.3490 C   0  0  0  0  0  0  0  0  0  0  0  0
  133.8710  131.7910   60.0330 C   0  0  0  0  0  0  0  0  0  0  0  0
  132.9450  131.8170   58.9950 C   0  0  0  0  0  0  0  0  0  0  0  0
  128.0410  132.4890   59.2220 N   0  0  0  0  0  0  0  0  0  0  0  0
  1  2  1  0
  2  3  2  0
  3  4  1  0
  4  5  1  0
  5  6  1  0
  5  7  1  0
  5  8  1  0
  4  9  2  0
  9 10  1  0
 10 11  3  0
  9 12  1  0
 12 13  1  0
 13 14  1  0
 14 15  1  0
 15 16  2  0
 15 17  1  0
 17 18  1  0
 18 19  2  0
 19 20  1  0
 20 21  2  0
 21 22  1  0
 22 23  2  0
 12 24  2  0
 24  2  1  0
 23 18  1  0
M  END
>  <Binding energies>  (20) 
[-6.42]

>  <Ligand effiencies>  (20) 
[-0.2568]

>  <Interactions>  (20) 
["V-A:TYR:539:CE2:4876, V-A:TYR:539:CZ:4877, V-A:TYR:539:CE1:4875, V-A:LEU:363:CD1:3188, V-A:PRO:540:CA:4883, V-A:ASN:362:CB:3175, V-A:ASN:362:C:3171, V-A:PRO:540:CB:4885, V-A:PRO:540:N:4884, V-A:TYR:539:CD2:4874, V-A:ASP:366:CG:3212, V-A:TYR:539:C:4867, H-A:TYR:539:N:4870, V-B:ASP:366:CG:8184, V-A:ALA:541:CB:4892, V-B:ILE:369:CD1:8210, V-B:ILE:369:CG2:8208, V-A:MET:535:CE:4835, V-A:PRO:540:C:4881, H-B:TYR:531:OH:9766, H-A:TYR:539:OH:4878, V-A:LEU:363:CA:3184, V-B:ASP:366:CB:8183, V-B:ASP:366:C:8179, V-A:LEU:363:CB:3186, V-B:ASP:366:CA:8181, V-B:ILE:369:CB:8207, V-B:ILE:369:CG1:8209"]

$$$$
2e_Grossjean_2025
     RDKit          3D

 25 26  0  0  0  0  0  0  0  0999 V2000
  132.1760  132.1620   62.5330 C   0  0  0  0  0  0  0  0  0  0  0  0
  132.4170  132.0230   61.0420 C   0  0  0  0  0  0  0  0  0  0  0  0
  133.6940  131.7920   60.5260 C   0  0  0  0  0  0  0  0  0  0  0  0
  133.8380  131.6630   59.1430 C   0  0  0  0  0  0  0  0  0  0  0  0
  132.7150  131.7670   58.3190 C   0  0  0  0  0  0  0  0  0  0  0  0
  131.4650  132.0080   58.9020 C   0  0  0  0  0  0  0  0  0  0  0  0
  130.3630  132.0600   58.0320 N   0  0  0  0  0  0  0  0  0  0  0  0
  130.2100  132.8200   56.9250 C   0  0  0  0  0  0  0  0  0  0  0  0
  131.0750  133.5580   56.4500 O   0  0  0  0  0  0  0  0  0  0  0  0
  128.8300  132.7640   56.2630 C   0  0  0  0  0  0  0  0  0  0  0  0
  127.8450  131.3500   56.8540 S   0  0  0  0  0  0  0  0  0  0  0  0
  127.1340  131.8780   58.3970 C   0  0  0  0  0  0  0  0  0  0  0  0
  128.0060  132.4760   59.2470 N   0  0  0  0  0  0  0  0  0  0  0  0
  127.5580  132.8680   60.4610 C   0  0  0  0  0  0  0  0  0  0  0  0
  128.5850  133.5290   61.3600 C   0  0  0  0  0  0  0  0  0  0  0  0
  126.2410  132.6770   60.8750 C   0  0  0  0  0  0  0  0  0  0  0  0
  125.3290  132.0520   60.0120 C   0  0  0  0  0  0  0  0  0  0  0  0
  123.8830  131.8290   60.4920 C   0  0  0  0  0  0  0  0  0  0  0  0
  123.5180  132.8100   61.3180 F   0  0  0  0  0  0  0  0  0  0  0  0
  123.0540  131.8110   59.4480 F   0  0  0  0  0  0  0  0  0  0  0  0
  123.7300  130.6760   61.1470 F   0  0  0  0  0  0  0  0  0  0  0  0
  125.7810  131.6400   58.7340 C   0  0  0  0  0  0  0  0  0  0  0  0
  124.8850  130.9550   57.7970 C   0  0  0  0  0  0  0  0  0  0  0  0
  124.1770  130.4130   57.0580 N   0  0  0  0  0  0  0  0  0  0  0  0
  131.3160  132.1270   60.2540 N   0  0  0  0  0  0  0  0  0  0  0  0
  1  2  1  0
  2  3  2  0
  3  4  1  0
  4  5  2  0
  5  6  1  0
  6  7  1  0
  7  8  1  0
  8  9  2  0
  8 10  1  0
 10 11  1  0
 11 12  1  0
 12 13  2  0
 13 14  1  0
 14 15  1  0
 14 16  2  0
 16 17  1  0
 17 18  1  0
 18 19  1  0
 18 20  1  0
 18 21  1  0
 17 22  2  0
 22 23  1  0
 23 24  3  0
  6 25  2  0
 25  2  1  0
 22 12  1  0
M  END
>  <Binding energies>  (21) 
[-6.76]

>  <Ligand effiencies>  (21) 
[-0.26]

>  <Interactions>  (21) 
["V-A:TYR:539:CD1:4873, V-A:TYR:539:CE2:4876, V-A:TYR:539:CG:4872, V-A:TYR:539:CZ:4877, V-A:TYR:539:CE1:4875, V-A:LEU:363:CD1:3188, V-A:PRO:540:CA:4883, V-A:ASN:362:CB:3175, V-A:ASP:366:CB:3211, V-A:ASN:362:C:3171, V-A:PRO:540:CB:4885, V-A:PRO:540:N:4884, V-A:TYR:539:CD2:4874, V-A:ASP:366:CG:3212, V-A:TYR:539:C:4867, H-A:TYR:539:N:4870, V-B:ASP:366:CG:8184, V-A:ALA:541:CB:4892, V-B:ILE:369:CD1:8210, V-B:ILE:369:CG2:8208, V-A:MET:535:CE:4835, V-A:PRO:540:C:4881, H-B:TYR:531:OH:9766, H-A:TYR:539:OH:4878, V-A:LEU:363:CA:3184, V-B:ASP:366:CB:8183, V-B:ASP:366:C:8179, V-A:LEU:363:CB:3186, V-B:ASP:366:CA:8181, V-B:ILE:369:CB:8207, V-B:ILE:369:CG1:8209, V-A:ALA:541:CA:4890, V-A:ALA:541:C:4888"]

$$$$
2f_Grossjean_2025
     RDKit          3D

 24 25  0  0  0  0  0  0  0  0999 V2000
  129.0070  120.9400   60.9950 C   0  0  0  0  0  0  0  0  0  0  0  0
  128.6340  122.3640   60.6300 C   0  0  0  0  0  0  0  0  0  0  0  0
  129.4400  123.1390   59.7990 C   0  0  0  0  0  0  0  0  0  0  0  0
  129.0550  124.4550   59.4960 C   0  0  0  0  0  0  0  0  0  0  0  0
  129.9660  125.3000   58.5860 C   0  0  0  0  0  0  0  0  0  0  0  0
  130.2940  126.4410   59.1960 F   0  0  0  0  0  0  0  0  0  0  0  0
  131.0810  124.6250   58.3040 F   0  0  0  0  0  0  0  0  0  0  0  0
  129.3860  125.6200   57.4270 F   0  0  0  0  0  0  0  0  0  0  0  0
  127.8450  124.9510   60.0460 C   0  0  0  0  0  0  0  0  0  0  0  0
  127.4300  126.3360   59.8060 C   0  0  0  0  0  0  0  0  0  0  0  0
  127.1020  127.4290   59.6150 N   0  0  0  0  0  0  0  0  0  0  0  0
  127.0780  124.0830   60.8590 C   0  0  0  0  0  0  0  0  0  0  0  0
  125.5310  124.5330   61.6200 S   0  0  0  0  0  0  0  0  0  0  0  0
  124.1790  123.9100   60.5650 C   0  0  0  0  0  0  0  0  0  0  0  0
  124.4610  123.9440   59.0560 C   0  0  0  0  0  0  0  0  0  0  0  0
  123.7130  124.5540   58.2910 O   0  0  0  0  0  0  0  0  0  0  0  0
  125.5550  123.2490   58.6750 N   0  0  0  0  0  0  0  0  0  0  0  0
  126.1040  123.0790   57.3900 C   0  0  0  0  0  0  0  0  0  0  0  0
  127.1570  123.8380   56.8450 C   0  0  0  0  0  0  0  0  0  0  0  0
  127.6120  123.5610   55.5540 C   0  0  0  0  0  0  0  0  0  0  0  0
  127.0050  122.5280   54.8400 C   0  0  0  0  0  0  0  0  0  0  0  0
  125.9950  121.7760   55.3450 N   0  0  0  0  0  0  0  0  0  0  0  0
  125.5640  122.0570   56.6020 C   0  0  0  0  0  0  0  0  0  0  0  0
  127.4770  122.8220   61.1580 N   0  0  0  0  0  0  0  0  0  0  0  0
  1  2  1  0
  2  3  2  0
  3  4  1  0
  4  5  1  0
  5  6  1  0
  5  7  1  0
  5  8  1  0
  4  9  2  0
  9 10  1  0
 10 11  3  0
  9 12  1  0
 12 13  1  0
 13 14  1  0
 14 15  1  0
 15 16  2  0
 15 17  1  0
 17 18  1  0
 18 19  2  0
 19 20  1  0
 20 21  2  0
 21 22  1  0
 22 23  2  0
 12 24  2  0
 24  2  1  0
 23 18  1  0
M  END
>  <Binding energies>  (22) 
[-6.25]

>  <Ligand effiencies>  (22) 
[-0.25]

>  <Interactions>  (22) 
["V-B:TYR:539:CZ:9848, V-B:LEU:363:CD1:8160, V-B:PRO:540:N:9855, V-B:PRO:540:CA:9854, V-B:ALA:541:CB:9863, V-B:MET:535:CE:9806, V-B:TYR:539:C:9838, V-B:TYR:539:CE1:9846, V-B:TYR:539:CD1:9844, V-B:PRO:540:CB:9856, H-B:TYR:531:OH:9766, V-B:TYR:539:CD2:9845, V-B:PRO:540:C:9852, H-B:TYR:539:N:9841, V-B:LEU:363:CA:8156, V-B:TYR:539:CE2:9847, V-B:PRO:540:CD:9858, H-B:ARG:545:NH2:9899, H-B:ALA:541:N:9862, V-B:ILE:538:CA:9831, V-B:ALA:541:CA:9861, V-B:ASN:362:C:8143, V-B:ASN:362:CB:8147, V-B:PRO:540:CG:9857"]

$$$$
2g_Grossjean_2025
     RDKit          3D

 25 26  0  0  0  0  0  0  0  0999 V2000
  126.3630  128.3270   58.7880 C   0  0  0  0  0  0  0  0  0  0  0  0
  126.3650  126.9450   58.1630 C   0  0  0  0  0  0  0  0  0  0  0  0
  127.3830  126.5330   57.3070 C   0  0  0  0  0  0  0  0  0  0  0  0
  127.3350  125.2470   56.7470 C   0  0  0  0  0  0  0  0  0  0  0  0
  128.4670  124.8120   55.7950 C   0  0  0  0  0  0  0  0  0  0  0  0
  128.6890  125.7560   54.8790 F   0  0  0  0  0  0  0  0  0  0  0  0
  129.5880  124.6100   56.4880 F   0  0  0  0  0  0  0  0  0  0  0  0
  128.1860  123.6820   55.1420 F   0  0  0  0  0  0  0  0  0  0  0  0
  126.2470  124.4010   57.0820 C   0  0  0  0  0  0  0  0  0  0  0  0
  126.1200  123.0700   56.4810 C   0  0  0  0  0  0  0  0  0  0  0  0
  126.0210  122.0200   56.0060 N   0  0  0  0  0  0  0  0  0  0  0  0
  125.2740  124.8940   57.9850 C   0  0  0  0  0  0  0  0  0  0  0  0
  123.8610  123.9590   58.5300 S   0  0  0  0  0  0  0  0  0  0  0  0
  123.7530  124.1390   60.3440 C   0  0  0  0  0  0  0  0  0  0  0  0
  125.0800  123.9380   61.0890 C   0  0  0  0  0  0  0  0  0  0  0  0
  125.3240  122.8930   61.6950 O   0  0  0  0  0  0  0  0  0  0  0  0
  125.9350  124.9750   61.0350 N   0  0  0  0  0  0  0  0  0  0  0  0
  127.2600  125.0170   61.6570 C   0  0  0  0  0  0  0  0  0  0  0  0
  128.1470  123.8210   61.3280 C   0  0  0  0  0  0  0  0  0  0  0  0
  129.0060  123.3030   62.3020 C   0  0  0  0  0  0  0  0  0  0  0  0
  129.7900  122.1880   62.0150 C   0  0  0  0  0  0  0  0  0  0  0  0
  129.7050  121.5890   60.7610 C   0  0  0  0  0  0  0  0  0  0  0  0
  128.8410  122.0930   59.7900 C   0  0  0  0  0  0  0  0  0  0  0  0
  128.0580  123.2070   60.0760 C   0  0  0  0  0  0  0  0  0  0  0  0
  125.3250  126.1480   58.4980 N   0  0  0  0  0  0  0  0  0  0  0  0
  1  2  1  0
  2  3  2  0
  3  4  1  0
  4  5  1  0
  5  6  1  0
  5  7  1  0
  5  8  1  0
  4  9  2  0
  9 10  1  0
 10 11  3  0
  9 12  1  0
 12 13  1  0
 13 14  1  0
 14 15  1  0
 15 16  2  0
 15 17  1  0
 17 18  1  0
 18 19  1  0
 19 20  2  0
 20 21  1  0
 21 22  2  0
 22 23  1  0
 23 24  2  0
 12 25  2  0
 25  2  1  0
 24 19  1  0
M  END
>  <Binding energies>  (23) 
[-6.7]

>  <Ligand effiencies>  (23) 
[-0.2576923076923077]

>  <Interactions>  (23) 
["V-B:TYR:539:CZ:9848, V-B:PRO:540:CA:9854, V-B:ALA:541:CB:9863, V-B:TYR:539:C:9838, V-B:TYR:539:CE1:9846, V-B:TYR:539:CD1:9844, V-B:PRO:540:CB:9856, H-B:ASP:366:OD2:8186, V-B:ASP:366:CG:8184, V-B:GLU:543:CD:9879, H-B:TYR:531:OH:9766, V-B:ASP:366:CB:8183, V-B:TYR:539:CD2:9845, H-B:TYR:539:N:9841, V-B:LEU:363:CA:8156, V-B:TYR:539:CE2:9847, H-B:ALA:541:N:9862, V-B:ASN:362:C:8143, V-B:ASN:362:CB:8147, V-B:ASN:362:CA:8145, H-B:LEU:363:N:8157"]

$$$$
2h_Grossjean_2025
     RDKit          3D

 31 32  0  0  0  0  0  0  0  0999 V2000
  133.1470  131.6380   59.8820 C   0  0  0  0  0  0  0  0  0  0  0  0
  132.6280  131.6250   58.5570 O   0  0  0  0  0  0  0  0  0  0  0  0
  131.2580  131.6150   58.3650 C   0  0  0  0  0  0  0  0  0  0  0  0
  130.3850  130.7090   58.9890 C   0  0  0  0  0  0  0  0  0  0  0  0
  129.0140  130.7660   58.7520 C   0  0  0  0  0  0  0  0  0  0  0  0
  128.4830  131.7270   57.8890 C   0  0  0  0  0  0  0  0  0  0  0  0
  126.9740  131.7820   57.6600 C   0  0  0  0  0  0  0  0  0  0  0  0
  126.1880  131.4230   58.8410 N   0  0  0  0  0  0  0  0  0  0  0  0
  124.8440  131.4010   58.8950 C   0  0  0  0  0  0  0  0  0  0  0  0
  124.1250  131.7660   57.9630 O   0  0  0  0  0  0  0  0  0  0  0  0
  124.2430  130.8760   60.2060 C   0  0  0  0  0  0  0  0  0  0  0  0
  124.1380  132.1030   61.5520 S   0  0  0  0  0  0  0  0  0  0  0  0
  125.7000  132.9560   61.5920 C   0  0  0  0  0  0  0  0  0  0  0  0
  126.7730  132.1280   61.6240 N   0  0  0  0  0  0  0  0  0  0  0  0
  128.0090  132.6710   61.6750 C   0  0  0  0  0  0  0  0  0  0  0  0
  129.1620  131.6850   61.7170 C   0  0  0  0  0  0  0  0  0  0  0  0
  128.2270  134.0470   61.6900 C   0  0  0  0  0  0  0  0  0  0  0  0
  127.1290  134.9200   61.6370 C   0  0  0  0  0  0  0  0  0  0  0  0
  127.3890  136.4390   61.6450 C   0  0  0  0  0  0  0  0  0  0  0  0
  128.7010  136.6760   61.6430 F   0  0  0  0  0  0  0  0  0  0  0  0
  126.8700  137.0580   60.5830 F   0  0  0  0  0  0  0  0  0  0  0  0
  126.8520  136.9900   62.7340 F   0  0  0  0  0  0  0  0  0  0  0  0
  125.8250  134.3650   61.5750 C   0  0  0  0  0  0  0  0  0  0  0  0
  124.6500  135.2330   61.4580 C   0  0  0  0  0  0  0  0  0  0  0  0
  123.7240  135.9190   61.3630 N   0  0  0  0  0  0  0  0  0  0  0  0
  129.3460  132.6230   57.2400 C   0  0  0  0  0  0  0  0  0  0  0  0
  128.8310  133.5700   56.3860 O   0  0  0  0  0  0  0  0  0  0  0  0
  129.0380  133.2900   55.0070 C   0  0  0  0  0  0  0  0  0  0  0  0
  130.7270  132.5770   57.4950 C   0  0  0  0  0  0  0  0  0  0  0  0
  131.5720  133.4660   56.8750 O   0  0  0  0  0  0  0  0  0  0  0  0
  132.2850  132.9190   55.7750 C   0  0  0  0  0  0  0  0  0  0  0  0
  1  2  1  0
  2  3  1  0
  3  4  2  0
  4  5  1  0
  5  6  2  0
  6  7  1  0
  7  8  1  0
  8  9  1  0
  9 10  2  0
  9 11  1  0
 11 12  1  0
 12 13  1  0
 13 14  2  0
 14 15  1  0
 15 16  1  0
 15 17  2  0
 17 18  1  0
 18 19  1  0
 19 20  1  0
 19 21  1  0
 19 22  1  0
 18 23  2  0
 23 24  1  0
 24 25  3  0
  6 26  1  0
 26 27  1  0
 27 28  1  0
 26 29  2  0
 29 30  1  0
 30 31  1  0
 29  3  1  0
 23 13  1  0
M  END
>  <Binding energies>  (24) 
[-6.7]

>  <Ligand effiencies>  (24) 
[-0.209375]

>  <Interactions>  (24) 
["V-A:TYR:539:CD1:4873, V-A:TYR:539:CE2:4876, V-A:TYR:539:CG:4872, V-A:ILE:538:C:4858, V-A:TYR:539:CZ:4877, V-A:TYR:539:CE1:4875, V-A:LEU:363:CD1:3188, V-A:PRO:540:CA:4883, V-A:ILE:538:CG2:4863, V-A:PRO:540:CB:4885, V-A:PRO:540:N:4884, V-A:TYR:539:CD2:4874, V-A:ILE:538:CA:4860, V-A:ASP:366:CG:3212, V-A:TYR:539:C:4867, H-A:TYR:539:N:4870, V-A:ILE:538:CB:4862, V-B:ASP:366:CG:8184, V-B:TRP:381:CZ3:8342, V-B:TRP:381:CZ2:8341, V-B:TRP:381:CE3:8339, V-B:TRP:381:CH2:8343, V-A:ALA:541:CB:4892, V-B:LEU:475:CD1:9229, V-B:TRP:381:CE2:8338, V-B:PRO:482:CB:9297, V-B:PRO:482:CG:9298, V-B:ILE:369:CG2:8208, V-A:MET:535:CE:4835, V-A:PRO:540:C:4881, H-A:TYR:539:OH:4878, V-B:ASP:366:CB:8183, V-B:ASP:366:CA:8181, V-A:TYR:539:CB:4871, V-A:ALA:541:CA:4890, V-B:TRP:381:CD2:8336, V-B:PRO:482:CD:9299"]

$$$$
2i_Grossjean_2025
     RDKit          3D

 23 24  0  0  0  0  0  0  0  0999 V2000
  128.9930  121.0070   60.9840 C   0  0  0  0  0  0  0  0  0  0  0  0
  128.5590  122.3740   60.4900 C   0  0  0  0  0  0  0  0  0  0  0  0
  129.3370  123.1100   59.6010 C   0  0  0  0  0  0  0  0  0  0  0  0
  128.8900  124.3690   59.1720 C   0  0  0  0  0  0  0  0  0  0  0  0
  129.7640  125.1700   58.1880 C   0  0  0  0  0  0  0  0  0  0  0  0
  130.9950  124.6580   58.1510 F   0  0  0  0  0  0  0  0  0  0  0  0
  129.2380  125.1230   56.9640 F   0  0  0  0  0  0  0  0  0  0  0  0
  129.8750  126.4570   58.5270 F   0  0  0  0  0  0  0  0  0  0  0  0
  127.6500  124.8510   59.6630 C   0  0  0  0  0  0  0  0  0  0  0  0
  127.1350  126.1590   59.2470 C   0  0  0  0  0  0  0  0  0  0  0  0
  126.7270  127.1920   58.9190 N   0  0  0  0  0  0  0  0  0  0  0  0
  126.9260  124.0380   60.5650 C   0  0  0  0  0  0  0  0  0  0  0  0
  125.3580  124.5450   61.2550 S   0  0  0  0  0  0  0  0  0  0  0  0
  124.0370  123.9310   60.1670 C   0  0  0  0  0  0  0  0  0  0  0  0
  124.4600  123.9110   58.6970 C   0  0  0  0  0  0  0  0  0  0  0  0
  123.8110  124.5650   57.8780 O   0  0  0  0  0  0  0  0  0  0  0  0
  125.5240  123.1340   58.4010 N   0  0  0  0  0  0  0  0  0  0  0  0
  126.0830  122.9380   57.1490 C   0  0  0  0  0  0  0  0  0  0  0  0
  126.7460  123.8400   56.3050 C   0  0  0  0  0  0  0  0  0  0  0  0
  127.0870  123.0970   55.1980 C   0  0  0  0  0  0  0  0  0  0  0  0
  126.6600  121.8230   55.3700 O   0  0  0  0  0  0  0  0  0  0  0  0
  126.0310  121.7370   56.6140 N   0  0  0  0  0  0  0  0  0  0  0  0
  127.3760  122.8220   60.9670 N   0  0  0  0  0  0  0  0  0  0  0  0
  1  2  1  0
  2  3  2  0
  3  4  1  0
  4  5  1  0
  5  6  1  0
  5  7  1  0
  5  8  1  0
  4  9  2  0
  9 10  1  0
 10 11  3  0
  9 12  1  0
 12 13  1  0
 13 14  1  0
 14 15  1  0
 15 16  2  0
 15 17  1  0
 17 18  1  0
 18 19  1  0
 19 20  2  0
 20 21  1  0
 21 22  1  0
 12 23  2  0
 23  2  1  0
 22 18  2  0
M  END
>  <Binding energies>  (25) 
[-6.43]

>  <Ligand effiencies>  (25) 
[-0.26791666666666664]

>  <Interactions>  (25) 
["V-B:TYR:539:CZ:9848, V-B:LEU:363:CD1:8160, V-B:PRO:540:N:9855, V-B:PRO:540:CA:9854, V-B:ALA:541:CB:9863, V-B:MET:535:CE:9806, V-B:TYR:539:C:9838, V-B:TYR:539:CE1:9846, V-B:TYR:539:CD1:9844, V-B:PRO:540:CB:9856, H-B:TYR:531:OH:9766, V-B:TYR:539:CD2:9845, V-B:PRO:540:C:9852, H-B:TYR:539:N:9841, V-B:LEU:363:CA:8156, V-B:TYR:539:CE2:9847, V-B:PRO:540:CD:9858, H-B:ARG:545:NH2:9899, H-B:ALA:541:N:9862, V-B:ALA:541:CA:9861, V-B:ASN:362:C:8143, V-B:ASN:362:CB:8147"]

$$$$
2k_Grossjean_2025
     RDKit          3D

 28 28  0  0  0  0  0  0  0  0999 V2000
  124.1800  129.6310   66.5980 C   0  0  0  0  0  0  0  0  0  0  0  0
  124.1380  130.2880   65.3410 O   0  0  0  0  0  0  0  0  0  0  0  0
  124.9180  131.4760   65.2960 C   0  0  0  0  0  0  0  0  0  0  0  0
  126.0970  131.2860   64.3330 C   0  0  0  0  0  0  0  0  0  0  0  0
  125.7080  131.7110   63.0350 O   0  0  0  0  0  0  0  0  0  0  0  0
  124.8050  130.8300   62.3770 C   0  0  0  0  0  0  0  0  0  0  0  0
  123.5950  131.6430   61.9010 C   0  0  0  0  0  0  0  0  0  0  0  0
  124.0550  132.9350   61.5380 O   0  0  0  0  0  0  0  0  0  0  0  0
  123.4060  134.0140   62.1930 C   0  0  0  0  0  0  0  0  0  0  0  0
  124.4410  135.1140   62.4910 C   0  0  0  0  0  0  0  0  0  0  0  0
  125.8200  134.6830   62.2480 N   0  0  0  0  0  0  0  0  0  0  0  0
  126.8690  135.4980   62.0280 C   0  0  0  0  0  0  0  0  0  0  0  0
  126.7850  136.7280   62.0360 O   0  0  0  0  0  0  0  0  0  0  0  0
  128.2060  134.8010   61.7370 C   0  0  0  0  0  0  0  0  0  0  0  0
  128.1070  133.3450   60.6380 S   0  0  0  0  0  0  0  0  0  0  0  0
  129.7560  132.7450   60.2970 C   0  0  0  0  0  0  0  0  0  0  0  0
  130.5270  132.4910   61.3860 N   0  0  0  0  0  0  0  0  0  0  0  0
  131.7870  132.0380   61.2020 C   0  0  0  0  0  0  0  0  0  0  0  0
  132.5870  131.7900   62.4660 C   0  0  0  0  0  0  0  0  0  0  0  0
  132.3260  131.8090   59.9400 C   0  0  0  0  0  0  0  0  0  0  0  0
  131.5450  132.0570   58.8000 C   0  0  0  0  0  0  0  0  0  0  0  0
  132.1560  131.7930   57.4110 C   0  0  0  0  0  0  0  0  0  0  0  0
  131.3760  131.0350   56.6390 F   0  0  0  0  0  0  0  0  0  0  0  0
  132.3520  132.9480   56.7710 F   0  0  0  0  0  0  0  0  0  0  0  0
  133.3260  131.1660   57.5380 F   0  0  0  0  0  0  0  0  0  0  0  0
  130.2230  132.5400   58.9780 C   0  0  0  0  0  0  0  0  0  0  0  0
  129.3640  132.8190   57.8230 C   0  0  0  0  0  0  0  0  0  0  0  0
  128.6860  133.0390   56.9110 N   0  0  0  0  0  0  0  0  0  0  0  0
  1  2  1  0
  2  3  1  0
  3  4  1  0
  4  5  1  0
  5  6  1  0
  6  7  1  0
  7  8  1  0
  8  9  1  0
  9 10  1  0
 10 11  1  0
 11 12  1  0
 12 13  2  0
 12 14  1  0
 14 15  1  0
 15 16  1  0
 16 17  2  0
 17 18  1  0
 18 19  1  0
 18 20  2  0
 20 21  1  0
 21 22  1  0
 22 23  1  0
 22 24  1  0
 22 25  1  0
 21 26  2  0
 26 27  1  0
 27 28  3  0
 26 16  1  0
M  END
>  <Binding energies>  (26) 
[-5.76]

>  <Ligand effiencies>  (26) 
[-0.1986206896551724]

>  <Interactions>  (26) 
["V-A:TYR:539:CE2:4876, V-A:LEU:363:CD1:3188, V-A:TYR:531:CE2:4793, V-A:PRO:540:CA:4883, V-A:ASN:362:CB:3175, V-A:ASP:366:CB:3211, V-A:PRO:540:CD:4887, V-A:PRO:540:CB:4885, V-A:PRO:540:N:4884, V-A:TYR:539:CD2:4874, V-A:TYR:539:C:4867, H-A:TYR:539:N:4870, V-A:ILE:538:CB:4862, V-B:GLY:454:CA:9020, V-B:ASP:366:CG:8184, V-B:ARG:545:CD:9894, V-A:ALA:541:CB:4892, H-B:TYR:484:OH:9319, V-B:LEU:475:CD1:9229, V-B:ILE:369:CD1:8210, H-B:GLY:454:N:9021, V-B:ARG:545:CZ:9897, V-B:ARG:545:CG:9893, V-B:ILE:369:CG2:8208, H-A:ALA:541:N:4891, V-A:PRO:540:C:4881, V-A:LEU:363:CA:3184, V-A:ALA:541:CA:4890"]

$$$$
3aa_Grossjean_2025
     RDKit          3D

 34 36  0  0  0  0  0  0  0  0999 V2000
  127.0370  130.9600   56.9100 C   0  0  0  0  0  0  0  0  0  0  0  0
  125.6410  130.6790   56.3470 C   0  0  0  0  0  0  0  0  0  0  0  0
  124.7770  130.2730   57.4020 O   0  0  0  0  0  0  0  0  0  0  0  0
  124.3310  131.1650   58.3230 C   0  0  0  0  0  0  0  0  0  0  0  0
  123.7350  132.2060   58.0290 O   0  0  0  0  0  0  0  0  0  0  0  0
  124.6490  130.7680   59.7370 C   0  0  0  0  0  0  0  0  0  0  0  0
  125.7110  129.9050   60.0450 C   0  0  0  0  0  0  0  0  0  0  0  0
  125.9810  129.5620   61.3680 C   0  0  0  0  0  0  0  0  0  0  0  0
  125.2020  130.0760   62.4050 C   0  0  0  0  0  0  0  0  0  0  0  0
  125.5620  129.6690   63.7050 N   0  0  0  0  0  0  0  0  0  0  0  0
  124.8680  129.7650   64.8610 C   0  0  0  0  0  0  0  0  0  0  0  0
  123.7520  130.2720   64.9840 O   0  0  0  0  0  0  0  0  0  0  0  0
  125.5640  129.1950   66.0970 C   0  0  0  0  0  0  0  0  0  0  0  0
  127.1820  129.9750   66.3800 S   0  0  0  0  0  0  0  0  0  0  0  0
  128.3370  128.6670   66.7300 C   0  0  0  0  0  0  0  0  0  0  0  0
  128.7220  128.6160   68.0270 N   0  0  0  0  0  0  0  0  0  0  0  0
  129.6040  127.6650   68.4300 C   0  0  0  0  0  0  0  0  0  0  0  0
  129.9700  127.6650   69.8840 C   0  0  0  0  0  0  0  0  0  0  0  0
  129.2150  126.9280   70.8110 C   0  0  0  0  0  0  0  0  0  0  0  0
  129.5490  126.9220   72.1630 C   0  0  0  0  0  0  0  0  0  0  0  0
  130.6450  127.6540   72.6060 C   0  0  0  0  0  0  0  0  0  0  0  0
  131.4110  128.3900   71.7080 C   0  0  0  0  0  0  0  0  0  0  0  0
  131.0760  128.3920   70.3570 C   0  0  0  0  0  0  0  0  0  0  0  0
  130.1160  126.7300   67.5260 C   0  0  0  0  0  0  0  0  0  0  0  0
  129.7440  126.7740   66.1730 C   0  0  0  0  0  0  0  0  0  0  0  0
  130.3390  125.7340   65.2050 C   0  0  0  0  0  0  0  0  0  0  0  0
  129.4090  124.9580   64.6440 F   0  0  0  0  0  0  0  0  0  0  0  0
  130.9950  126.3450   64.2180 F   0  0  0  0  0  0  0  0  0  0  0  0
  131.1860  124.9370   65.8580 F   0  0  0  0  0  0  0  0  0  0  0  0
  128.8380  127.7780   65.7540 C   0  0  0  0  0  0  0  0  0  0  0  0
  128.4600  127.9080   64.3440 C   0  0  0  0  0  0  0  0  0  0  0  0
  128.1610  128.0110   63.2300 N   0  0  0  0  0  0  0  0  0  0  0  0
  124.1300  130.9290   62.1030 C   0  0  0  0  0  0  0  0  0  0  0  0
  123.8610  131.2690   60.7810 C   0  0  0  0  0  0  0  0  0  0  0  0
  1  2  1  0
  2  3  1  0
  3  4  1  0
  4  5  2  0
  4  6  1  0
  6  7  2  0
  7  8  1  0
  8  9  2  0
  9 10  1  0
 10 11  1  0
 11 12  2  0
 11 13  1  0
 13 14  1  0
 14 15  1  0
 15 16  2  0
 16 17  1  0
 17 18  1  0
 18 19  2  0
 19 20  1  0
 20 21  2  0
 21 22  1  0
 22 23  2  0
 17 24  2  0
 24 25  1  0
 25 26  1  0
 26 27  1  0
 26 28  1  0
 26 29  1  0
 25 30  2  0
 30 31  1  0
 31 32  3  0
  9 33  1  0
 33 34  2  0
 34  6  1  0
 30 15  1  0
 23 18  1  0
M  END
>  <Binding energies>  (27) 
[-8.08]

>  <Ligand effiencies>  (27) 
[-0.23085714285714287]

>  <Interactions>  (27) 
["V-A:TYR:539:CE2:4876, V-A:TYR:539:CZ:4877, H-B:GLU:543:OE2:9881, V-B:ASP:366:CG:8184, H-B:TYR:484:OH:9319, V-B:ILE:369:CD1:8210, H-B:GLY:454:N:9021, V-B:GLU:543:CD:9879, V-B:ARG:545:CZ:9897, V-A:MET:535:CE:4835, V-B:HIS:456:CE1:9041, V-A:GLU:543:CG:4907, V-A:GLU:543:CD:4908, H-B:TYR:531:OH:9766, H-A:TYR:539:OH:4878, V-B:ASP:366:CB:8183, V-B:ASP:366:C:8179, V-B:ASP:366:CA:8181, H-B:ARG:545:NH2:9899, V-B:TYR:531:CE1:9763, H-B:ARG:545:NE:9895, H-B:ASN:370:N:8215, V-B:GLU:543:CG:9878, V-A:HIS:456:CE1:4069, V-A:GLY:544:C:4912, V-A:GLU:543:CB:4906"]

$$$$
3ad_Grossjean_2025
     RDKit          3D

 29 31  0  0  0  0  0  0  0  0999 V2000
  133.4770  132.0430   58.4060 N   0  0  0  0  0  0  0  0  0  0  0  0
  132.3300  131.9180   58.3250 C   0  0  0  0  0  0  0  0  0  0  0  0
  130.8760  131.7620   58.2180 C   0  0  0  0  0  0  0  0  0  0  0  0
  130.1880  132.1670   57.0490 C   0  0  0  0  0  0  0  0  0  0  0  0
  130.9100  132.7460   55.8170 C   0  0  0  0  0  0  0  0  0  0  0  0
  131.7910  133.6970   56.1320 F   0  0  0  0  0  0  0  0  0  0  0  0
  131.5730  131.7770   55.1820 F   0  0  0  0  0  0  0  0  0  0  0  0
  130.0240  133.2850   54.9780 F   0  0  0  0  0  0  0  0  0  0  0  0
  128.7910  132.0390   57.0150 C   0  0  0  0  0  0  0  0  0  0  0  0
  128.1010  131.5250   58.1180 C   0  0  0  0  0  0  0  0  0  0  0  0
  126.6080  131.3810   58.1410 C   0  0  0  0  0  0  0  0  0  0  0  0
  125.8610  131.8340   59.2400 C   0  0  0  0  0  0  0  0  0  0  0  0
  124.4750  131.7040   59.2670 C   0  0  0  0  0  0  0  0  0  0  0  0
  123.8150  131.1170   58.1910 C   0  0  0  0  0  0  0  0  0  0  0  0
  124.5320  130.6630   57.0900 C   0  0  0  0  0  0  0  0  0  0  0  0
  125.9180  130.7950   57.0660 C   0  0  0  0  0  0  0  0  0  0  0  0
  128.7640  131.1440   59.2390 N   0  0  0  0  0  0  0  0  0  0  0  0
  130.1140  131.2380   59.2870 C   0  0  0  0  0  0  0  0  0  0  0  0
  130.8140  130.6820   60.8250 S   0  0  0  0  0  0  0  0  0  0  0  0
  130.7880  132.0940   61.9710 C   0  0  0  0  0  0  0  0  0  0  0  0
  129.3650  132.5780   62.2580 C   0  0  0  0  0  0  0  0  0  0  0  0
  128.6640  131.9420   63.0460 O   0  0  0  0  0  0  0  0  0  0  0  0
  128.9900  133.6970   61.6020 N   0  0  0  0  0  0  0  0  0  0  0  0
  127.7740  134.4040   61.6480 C   0  0  0  0  0  0  0  0  0  0  0  0
  127.8860  135.7940   61.7530 C   0  0  0  0  0  0  0  0  0  0  0  0
  126.7440  136.5890   61.8100 C   0  0  0  0  0  0  0  0  0  0  0  0
  125.4870  135.9940   61.7680 C   0  0  0  0  0  0  0  0  0  0  0  0
  125.3610  134.6110   61.6720 C   0  0  0  0  0  0  0  0  0  0  0  0
  126.5000  133.8120   61.6140 C   0  0  0  0  0  0  0  0  0  0  0  0
  1  2  3  0
  2  3  1  0
  3  4  2  0
  4  5  1  0
  5  6  1  0
  5  7  1  0
  5  8  1  0
  4  9  1  0
  9 10  2  0
 10 11  1  0
 11 12  2  0
 12 13  1  0
 13 14  2  0
 14 15  1  0
 15 16  2  0
 10 17  1  0
 17 18  2  0
 18 19  1  0
 19 20  1  0
 20 21  1  0
 21 22  2  0
 21 23  1  0
 23 24  1  0
 24 25  2  0
 25 26  1  0
 26 27  2  0
 27 28  1  0
 28 29  2  0
 18  3  1  0
 29 24  1  0
 16 11  1  0
M  END
>  <Binding energies>  (28) 
[-8.05]

>  <Ligand effiencies>  (28) 
[-0.26833333333333337]

>  <Interactions>  (28) 
["V-A:TYR:539:CD1:4873, V-A:TYR:539:CE2:4876, V-A:ILE:538:C:4858, V-A:TYR:539:CZ:4877, V-A:LEU:363:CD1:3188, V-A:TYR:531:CE2:4793, V-A:PRO:540:CA:4883, V-A:ILE:538:CG2:4863, V-A:TYR:539:CA:4869, V-A:PRO:540:CD:4887, V-A:PRO:540:CB:4885, V-A:PRO:540:N:4884, V-A:TYR:539:CD2:4874, V-A:ILE:538:CA:4860, V-A:TYR:539:C:4867, V-A:ILE:538:CB:4862, V-B:ASP:366:CG:8184, V-B:TRP:381:CZ2:8341, V-B:TRP:381:CH2:8343, V-A:ALA:541:CB:4892, V-B:LEU:475:CD1:9229, V-B:PRO:482:CB:9297, V-B:PRO:482:CG:9298, V-A:MET:535:CE:4835, H-A:TYR:539:O:4868, V-A:PRO:540:C:4881, V-B:ASP:366:CB:8183, V-B:ASP:366:C:8179, V-B:ASP:366:CA:8181, V-B:TYR:531:CZ:9765, V-A:MET:535:CG:4833, V-B:TYR:531:CE1:9763, V-A:ALA:541:CA:4890"]

$$$$
3ai_Grossjean_2025
     RDKit          3D

 28 30  0  0  0  0  0  0  0  0999 V2000
  132.1620  130.5270   58.2830 N   0  0  0  0  0  0  0  0  0  0  0  0
  131.3530  131.1860   58.7850 C   0  0  0  0  0  0  0  0  0  0  0  0
  130.3300  132.0210   59.4210 C   0  0  0  0  0  0  0  0  0  0  0  0
  130.3800  132.2960   60.8090 C   0  0  0  0  0  0  0  0  0  0  0  0
  131.5150  131.7860   61.7170 C   0  0  0  0  0  0  0  0  0  0  0  0
  132.7250  132.1580   61.2930 F   0  0  0  0  0  0  0  0  0  0  0  0
  131.3590  132.2630   62.9530 F   0  0  0  0  0  0  0  0  0  0  0  0
  131.5030  130.4530   61.7630 F   0  0  0  0  0  0  0  0  0  0  0  0
  129.3510  133.0600   61.3790 C   0  0  0  0  0  0  0  0  0  0  0  0
  128.3000  133.5340   60.5880 C   0  0  0  0  0  0  0  0  0  0  0  0
  127.1690  134.3450   61.1450 C   0  0  0  0  0  0  0  0  0  0  0  0
  127.4120  135.5820   61.7640 C   0  0  0  0  0  0  0  0  0  0  0  0
  126.3670  136.3430   62.2790 C   0  0  0  0  0  0  0  0  0  0  0  0
  125.0600  135.8770   62.1820 C   0  0  0  0  0  0  0  0  0  0  0  0
  124.7920  134.6560   61.5720 C   0  0  0  0  0  0  0  0  0  0  0  0
  125.8400  133.8980   61.0570 C   0  0  0  0  0  0  0  0  0  0  0  0
  128.2510  133.2610   59.2590 N   0  0  0  0  0  0  0  0  0  0  0  0
  129.2460  132.5450   58.6810 C   0  0  0  0  0  0  0  0  0  0  0  0
  129.0230  132.3060   56.9300 S   0  0  0  0  0  0  0  0  0  0  0  0
  128.2580  130.6680   56.6820 C   0  0  0  0  0  0  0  0  0  0  0  0
  126.7590  130.5950   57.0090 C   0  0  0  0  0  0  0  0  0  0  0  0
  125.9930  129.9290   56.3090 O   0  0  0  0  0  0  0  0  0  0  0  0
  126.3840  131.3060   58.0950 N   0  0  0  0  0  0  0  0  0  0  0  0
  125.1050  131.4190   58.6260 C   0  0  0  0  0  0  0  0  0  0  0  0
  124.7850  131.0440   59.9300 C   0  0  0  0  0  0  0  0  0  0  0  0
  123.4420  131.3070   60.0600 C   0  0  0  0  0  0  0  0  0  0  0  0
  122.9750  131.8160   58.8940 O   0  0  0  0  0  0  0  0  0  0  0  0
  124.0400  131.8830   57.9930 N   0  0  0  0  0  0  0  0  0  0  0  0
  1  2  3  0
  2  3  1  0
  3  4  2  0
  4  5  1  0
  5  6  1  0
  5  7  1  0
  5  8  1  0
  4  9  1  0
  9 10  2  0
 10 11  1  0
 11 12  2  0
 12 13  1  0
 13 14  2  0
 14 15  1  0
 15 16  2  0
 10 17  1  0
 17 18  2  0
 18 19  1  0
 19 20  1  0
 20 21  1  0
 21 22  2  0
 21 23  1  0
 23 24  1  0
 24 25  1  0
 25 26  2  0
 26 27  1  0
 27 28  1  0
 18  3  1  0
 28 24  2  0
 16 11  1  0
M  END
>  <Binding energies>  (29) 
[-7.84]

>  <Ligand effiencies>  (29) 
[-0.27034482758620687]

>  <Interactions>  (29) 
["V-A:TYR:539:CE2:4876, V-A:TYR:539:CZ:4877, V-A:PRO:540:CA:4883, V-A:PRO:540:CB:4885, V-A:TYR:539:CD2:4874, V-A:TYR:539:C:4867, V-B:ASP:366:CG:8184, V-B:TRP:381:CZ2:8341, V-B:TRP:381:CH2:8343, V-A:ALA:541:CB:4892, V-B:LEU:475:CD1:9229, V-B:PRO:482:CB:9297, V-B:ILE:369:CD1:8210, V-B:ILE:369:CG2:8208, V-A:MET:535:CE:4835, V-A:PRO:540:C:4881, V-A:GLU:543:CG:4907, V-A:GLU:543:CD:4908, H-B:TYR:531:OH:9766, H-A:TYR:539:OH:4878, V-B:ASP:366:CB:8183, V-B:ASP:366:CA:8181, V-B:ILE:369:CB:8207, V-A:ALA:541:CA:4890, V-A:ALA:541:C:4888"]

$$$$
3aj_Grossjean_2025
     RDKit          3D

 28 30  0  0  0  0  0  0  0  0999 V2000
  132.1750  130.5720   58.1720 N   0  0  0  0  0  0  0  0  0  0  0  0
  131.3620  131.2180   58.6830 C   0  0  0  0  0  0  0  0  0  0  0  0
  130.3350  132.0370   59.3330 C   0  0  0  0  0  0  0  0  0  0  0  0
  130.3790  132.2810   60.7280 C   0  0  0  0  0  0  0  0  0  0  0  0
  131.5110  131.7510   61.6290 C   0  0  0  0  0  0  0  0  0  0  0  0
  131.4340  132.2110   62.8800 F   0  0  0  0  0  0  0  0  0  0  0  0
  131.4620  130.4200   61.6870 F   0  0  0  0  0  0  0  0  0  0  0  0
  132.6950  132.1200   61.1410 F   0  0  0  0  0  0  0  0  0  0  0  0
  129.3460  133.0320   61.3090 C   0  0  0  0  0  0  0  0  0  0  0  0
  128.2970  133.5210   60.5230 C   0  0  0  0  0  0  0  0  0  0  0  0
  127.1650  134.3180   61.0950 C   0  0  0  0  0  0  0  0  0  0  0  0
  127.4020  135.5520   61.7190 C   0  0  0  0  0  0  0  0  0  0  0  0
  126.3530  136.3010   62.2490 C   0  0  0  0  0  0  0  0  0  0  0  0
  125.0500  135.8210   62.1610 C   0  0  0  0  0  0  0  0  0  0  0  0
  124.7890  134.6010   61.5460 C   0  0  0  0  0  0  0  0  0  0  0  0
  125.8400  133.8580   61.0170 C   0  0  0  0  0  0  0  0  0  0  0  0
  128.2560  133.2770   59.1880 N   0  0  0  0  0  0  0  0  0  0  0  0
  129.2530  132.5760   58.5990 C   0  0  0  0  0  0  0  0  0  0  0  0
  129.0410  132.3770   56.8440 S   0  0  0  0  0  0  0  0  0  0  0  0
  128.2910  130.7390   56.5530 C   0  0  0  0  0  0  0  0  0  0  0  0
  126.8100  130.6240   56.9440 C   0  0  0  0  0  0  0  0  0  0  0  0
  126.0400  129.9110   56.2970 O   0  0  0  0  0  0  0  0  0  0  0  0
  126.4540  131.3510   58.0270 N   0  0  0  0  0  0  0  0  0  0  0  0
  125.1900  131.4250   58.5970 C   0  0  0  0  0  0  0  0  0  0  0  0
  124.0840  131.8850   58.0530 N   0  0  0  0  0  0  0  0  0  0  0  0
  123.0630  131.8000   58.8830 C   0  0  0  0  0  0  0  0  0  0  0  0
  123.3330  131.2590   60.1370 C   0  0  0  0  0  0  0  0  0  0  0  0
  125.0190  130.8450   60.2230 S   0  0  0  0  0  0  0  0  0  0  0  0
  1  2  3  0
  2  3  1  0
  3  4  2  0
  4  5  1  0
  5  6  1  0
  5  7  1  0
  5  8  1  0
  4  9  1  0
  9 10  2  0
 10 11  1  0
 11 12  2  0
 12 13  1  0
 13 14  2  0
 14 15  1  0
 15 16  2  0
 10 17  1  0
 17 18  2  0
 18 19  1  0
 19 20  1  0
 20 21  1  0
 21 22  2  0
 21 23  1  0
 23 24  1  0
 24 25  2  0
 25 26  1  0
 26 27  2  0
 27 28  1  0
 18  3  1  0
 28 24  1  0
 16 11  1  0
M  END
>  <Binding energies>  (30) 
[-7.59]

>  <Ligand effiencies>  (30) 
[-0.2617241379310345]

>  <Interactions>  (30) 
["V-A:TYR:539:CE2:4876, V-A:TYR:539:CZ:4877, V-A:PRO:540:CA:4883, V-A:PRO:540:CB:4885, V-A:TYR:539:CD2:4874, V-A:TYR:539:C:4867, V-B:ASP:366:CG:8184, V-B:TRP:381:CZ2:8341, V-B:TRP:381:CH2:8343, V-A:ALA:541:CB:4892, V-B:LEU:475:CD1:9229, V-B:PRO:482:CB:9297, V-B:ILE:369:CD1:8210, V-B:ILE:369:CG2:8208, V-A:MET:535:CE:4835, V-A:PRO:540:C:4881, V-A:GLU:543:CD:4908, H-B:TYR:531:OH:9766, H-A:TYR:539:OH:4878, V-B:ASP:366:CB:8183, V-B:ASP:366:C:8179, V-B:ASP:366:CA:8181, V-B:ILE:369:CB:8207, V-A:ALA:541:CA:4890, V-A:ALA:541:C:4888"]

$$$$
3ak_Grossjean_2025
     RDKit          3D

 33 34  0  0  0  0  0  0  0  0999 V2000
  132.7050  125.4400   64.8620 C   0  0  0  0  0  0  0  0  0  0  0  0
  133.9320  125.0300   64.2790 O   0  0  0  0  0  0  0  0  0  0  0  0
  133.9150  125.0420   62.8590 C   0  0  0  0  0  0  0  0  0  0  0  0
  132.7020  125.8500   62.3810 C   0  0  0  0  0  0  0  0  0  0  0  0
  132.2630  125.3290   61.1300 O   0  0  0  0  0  0  0  0  0  0  0  0
  133.0750  124.2980   60.5740 C   0  0  0  0  0  0  0  0  0  0  0  0
  133.5230  124.5740   59.1270 C   0  0  0  0  0  0  0  0  0  0  0  0
  132.3790  124.6280   58.2860 O   0  0  0  0  0  0  0  0  0  0  0  0
  131.8610  125.9390   58.1020 C   0  0  0  0  0  0  0  0  0  0  0  0
  130.3370  125.9430   58.3190 C   0  0  0  0  0  0  0  0  0  0  0  0
  129.6230  124.9770   57.4820 N   0  0  0  0  0  0  0  0  0  0  0  0
  128.4300  125.1750   56.8890 C   0  0  0  0  0  0  0  0  0  0  0  0
  127.8060  126.2330   56.9820 O   0  0  0  0  0  0  0  0  0  0  0  0
  127.8160  124.0340   56.0610 C   0  0  0  0  0  0  0  0  0  0  0  0
  127.4950  122.4630   56.9440 S   0  0  0  0  0  0  0  0  0  0  0  0
  127.5040  122.7810   58.7020 C   0  0  0  0  0  0  0  0  0  0  0  0
  128.6610  122.4890   59.3450 N   0  0  0  0  0  0  0  0  0  0  0  0
  128.7640  122.6910   60.6830 C   0  0  0  0  0  0  0  0  0  0  0  0
  130.0790  122.3420   61.3120 C   0  0  0  0  0  0  0  0  0  0  0  0
  130.9730  121.4710   60.6690 C   0  0  0  0  0  0  0  0  0  0  0  0
  132.1980  121.1460   61.2470 C   0  0  0  0  0  0  0  0  0  0  0  0
  132.5470  121.6910   62.4780 C   0  0  0  0  0  0  0  0  0  0  0  0
  131.6810  122.5580   63.1340 C   0  0  0  0  0  0  0  0  0  0  0  0
  130.4580  122.8820   62.5540 C   0  0  0  0  0  0  0  0  0  0  0  0
  127.6910  123.2150   61.4130 C   0  0  0  0  0  0  0  0  0  0  0  0
  126.4840  123.5280   60.7720 C   0  0  0  0  0  0  0  0  0  0  0  0
  125.3240  124.1010   61.6110 C   0  0  0  0  0  0  0  0  0  0  0  0
  124.1580  123.8200   61.0290 F   0  0  0  0  0  0  0  0  0  0  0  0
  125.3370  123.5680   62.8330 F   0  0  0  0  0  0  0  0  0  0  0  0
  125.3930  125.4270   61.7520 F   0  0  0  0  0  0  0  0  0  0  0  0
  126.3800  123.3050   59.3780 C   0  0  0  0  0  0  0  0  0  0  0  0
  125.1420  123.6130   58.6550 C   0  0  0  0  0  0  0  0  0  0  0  0
  124.1640  123.8550   58.0850 N   0  0  0  0  0  0  0  0  0  0  0  0
  1  2  1  0
  2  3  1  0
  3  4  1  0
  4  5  1  0
  5  6  1  0
  6  7  1  0
  7  8  1  0
  8  9  1  0
  9 10  1  0
 10 11  1  0
 11 12  1  0
 12 13  2  0
 12 14  1  0
 14 15  1  0
 15 16  1  0
 16 17  2  0
 17 18  1  0
 18 19  1  0
 19 20  2  0
 20 21  1  0
 21 22  2  0
 22 23  1  0
 23 24  2  0
 18 25  2  0
 25 26  1  0
 26 27  1  0
 27 28  1  0
 27 29  1  0
 27 30  1  0
 26 31  2  0
 31 32  1  0
 32 33  3  0
 31 16  1  0
 24 19  1  0
M  END
>  <Binding energies>  (31) 
[-6.46]

>  <Ligand effiencies>  (31) 
[-0.19]

>  <Interactions>  (31) 
["V-A:ASP:366:CB:3211, V-A:ASP:366:CG:3212, V-B:TYR:539:CZ:9848, V-B:PRO:540:N:9855, V-B:PRO:540:CA:9854, V-B:ALA:541:CB:9863, V-B:TYR:539:C:9838, V-B:TYR:539:CE1:9846, V-B:PRO:540:CB:9856, V-B:ASP:366:CG:8184, V-B:GLU:543:CD:9879, V-B:ARG:545:CZ:9897, V-B:TYR:539:CD2:9845, H-B:TYR:539:OH:9849, V-B:TYR:539:CE2:9847, V-A:LEU:475:CD2:4258, V-A:ASP:366:CA:3209, V-A:ILE:369:CG2:3236, V-B:ASN:362:C:8143, V-B:ASN:362:CB:8147, V-A:ILE:369:CD1:3238, V-B:ALA:541:C:9859, V-B:GLU:543:CG:9878, V-B:ASN:362:CA:8145, V-A:ASP:366:C:3207, H-A:GLY:454:N:4049, V-A:ARG:545:CZ:4926, H-A:ARG:545:NH1:4927, V-A:ILE:369:CB:3235"]

$$$$
3bk_Grossjean_2025
     RDKit          3D

 30 31  0  0  0  0  0  0  0  0999 V2000
  132.6990  131.0870   57.5320 C   0  0  0  0  0  0  0  0  0  0  0  0
  132.4460  132.4830   57.5220 O   0  0  0  0  0  0  0  0  0  0  0  0
  132.0030  132.9690   56.2620 C   0  0  0  0  0  0  0  0  0  0  0  0
  130.5720  132.4820   55.9960 C   0  0  0  0  0  0  0  0  0  0  0  0
  129.6480  133.4330   56.5060 O   0  0  0  0  0  0  0  0  0  0  0  0
  128.7650  132.9070   57.4880 C   0  0  0  0  0  0  0  0  0  0  0  0
  129.0570  131.4140   57.6850 C   0  0  0  0  0  0  0  0  0  0  0  0
  127.8310  130.7040   57.7940 O   0  0  0  0  0  0  0  0  0  0  0  0
  127.1610  130.5190   56.5530 C   0  0  0  0  0  0  0  0  0  0  0  0
  125.6670  130.8230   56.7300 C   0  0  0  0  0  0  0  0  0  0  0  0
  125.2240  130.6580   58.1160 N   0  0  0  0  0  0  0  0  0  0  0  0
  124.2910  131.4030   58.7320 C   0  0  0  0  0  0  0  0  0  0  0  0
  123.6760  132.3190   58.1830 O   0  0  0  0  0  0  0  0  0  0  0  0
  123.9850  131.0470   60.1880 C   0  0  0  0  0  0  0  0  0  0  0  0
  123.7730  132.5300   61.2230 S   0  0  0  0  0  0  0  0  0  0  0  0
  125.3170  133.4220   61.2830 C   0  0  0  0  0  0  0  0  0  0  0  0
  126.4410  132.6740   61.1390 N   0  0  0  0  0  0  0  0  0  0  0  0
  127.6630  133.2680   61.1740 C   0  0  0  0  0  0  0  0  0  0  0  0
  128.8500  132.3730   60.9870 C   0  0  0  0  0  0  0  0  0  0  0  0
  128.7480  130.9900   61.2080 C   0  0  0  0  0  0  0  0  0  0  0  0
  129.8490  130.1540   61.0400 C   0  0  0  0  0  0  0  0  0  0  0  0
  131.0700  130.6900   60.6470 C   0  0  0  0  0  0  0  0  0  0  0  0
  131.1970  132.0570   60.4170 C   0  0  0  0  0  0  0  0  0  0  0  0
  130.0940  132.8890   60.5850 C   0  0  0  0  0  0  0  0  0  0  0  0
  127.7830  134.6520   61.3520 C   0  0  0  0  0  0  0  0  0  0  0  0
  126.6350  135.4380   61.5030 C   0  0  0  0  0  0  0  0  0  0  0  0
  126.8120  136.9430   61.6950 C   0  0  0  0  0  0  0  0  0  0  0  0
  125.3670  134.8210   61.4700 C   0  0  0  0  0  0  0  0  0  0  0  0
  124.1480  135.6190   61.6230 C   0  0  0  0  0  0  0  0  0  0  0  0
  123.1850  136.2500   61.7440 N   0  0  0  0  0  0  0  0  0  0  0  0
  1  2  1  0
  2  3  1  0
  3  4  1  0
  4  5  1  0
  5  6  1  0
  6  7  1  0
  7  8  1  0
  8  9  1  0
  9 10  1  0
 10 11  1  0
 11 12  1  0
 12 13  2  0
 12 14  1  0
 14 15  1  0
 15 16  1  0
 16 17  2  0
 17 18  1  0
 18 19  1  0
 19 20  2  0
 20 21  1  0
 21 22  2  0
 22 23  1  0
 23 24  2  0
 18 25  2  0
 25 26  1  0
 26 27  1  0
 26 28  2  0
 28 29  1  0
 29 30  3  0
 28 16  1  0
 24 19  1  0
M  END
>  <Binding energies>  (32) 
[-7.07]

>  <Ligand effiencies>  (32) 
[-0.22806451612903228]

>  <Interactions>  (32) 
["V-A:TYR:539:CD1:4873, V-A:TYR:539:CE2:4876, V-A:TYR:539:CG:4872, V-A:TYR:539:CZ:4877, V-A:TYR:539:CE1:4875, V-A:LEU:363:CD1:3188, V-A:TYR:531:CE2:4793, V-A:PRO:540:CA:4883, V-A:ILE:538:CG2:4863, V-A:PRO:540:CD:4887, V-A:PRO:540:CB:4885, V-A:PRO:540:N:4884, V-A:TYR:539:CD2:4874, V-A:ILE:538:CA:4860, V-A:TYR:539:C:4867, H-A:TYR:539:N:4870, V-A:ILE:538:CB:4862, H-B:ASP:366:OD2:8186, V-B:ASP:366:CG:8184, V-B:TRP:381:CZ3:8342, V-B:TRP:381:CZ2:8341, V-B:TRP:381:CH2:8343, V-A:ALA:541:CB:4892, V-B:TRP:381:CE2:8338, V-B:PRO:482:CB:9297, V-B:PRO:482:CG:9298, V-B:ILE:369:CG2:8208, V-A:MET:535:CE:4835, V-A:PRO:540:C:4881, H-B:TYR:531:OH:9766, H-A:TYR:539:OH:4878, V-B:ASP:366:CB:8183, V-B:ASP:366:CA:8181, H-B:ASN:370:N:8215"]

$$$$
3cb_Grossjean_2025
     RDKit          3D

 30 32  0  0  0  0  0  0  0  0999 V2000
  132.6090  131.7920   62.3950 C   0  0  0  0  0  0  0  0  0  0  0  0
  131.9680  132.5530   61.3810 O   0  0  0  0  0  0  0  0  0  0  0  0
  130.6470  132.3910   61.1150 C   0  0  0  0  0  0  0  0  0  0  0  0
  129.7490  132.9220   61.7760 O   0  0  0  0  0  0  0  0  0  0  0  0
  130.3840  131.4980   59.9350 C   0  0  0  0  0  0  0  0  0  0  0  0
  130.7010  130.1320   59.9520 C   0  0  0  0  0  0  0  0  0  0  0  0
  130.4420  129.3320   58.8430 C   0  0  0  0  0  0  0  0  0  0  0  0
  129.8670  129.8770   57.6940 C   0  0  0  0  0  0  0  0  0  0  0  0
  129.6460  128.9770   56.6330 N   0  0  0  0  0  0  0  0  0  0  0  0
  128.4880  128.5030   56.1240 C   0  0  0  0  0  0  0  0  0  0  0  0
  127.3640  128.8150   56.5190 O   0  0  0  0  0  0  0  0  0  0  0  0
  128.6620  127.5190   54.9570 C   0  0  0  0  0  0  0  0  0  0  0  0
  129.4330  125.9250   55.4010 S   0  0  0  0  0  0  0  0  0  0  0  0
  128.1500  124.8500   56.0090 C   0  0  0  0  0  0  0  0  0  0  0  0
  127.7430  123.9300   55.1020 N   0  0  0  0  0  0  0  0  0  0  0  0
  126.7710  123.0580   55.4530 C   0  0  0  0  0  0  0  0  0  0  0  0
  126.3750  122.0490   54.3930 C   0  0  0  0  0  0  0  0  0  0  0  0
  126.1690  123.0730   56.7080 C   0  0  0  0  0  0  0  0  0  0  0  0
  126.5620  124.0260   57.6570 C   0  0  0  0  0  0  0  0  0  0  0  0
  125.8820  124.0040   58.9870 C   0  0  0  0  0  0  0  0  0  0  0  0
  124.5210  124.3180   59.0870 C   0  0  0  0  0  0  0  0  0  0  0  0
  123.8750  124.2900   60.3210 C   0  0  0  0  0  0  0  0  0  0  0  0
  124.5900  123.9430   61.4630 C   0  0  0  0  0  0  0  0  0  0  0  0
  125.9410  123.6200   61.3820 C   0  0  0  0  0  0  0  0  0  0  0  0
  126.5830  123.6470   60.1470 C   0  0  0  0  0  0  0  0  0  0  0  0
  127.5720  124.9560   57.2980 C   0  0  0  0  0  0  0  0  0  0  0  0
  127.9560  126.0330   58.2170 C   0  0  0  0  0  0  0  0  0  0  0  0
  128.2600  126.8820   58.9410 N   0  0  0  0  0  0  0  0  0  0  0  0
  129.5430  131.2420   57.6710 C   0  0  0  0  0  0  0  0  0  0  0  0
  129.8020  132.0420   58.7820 C   0  0  0  0  0  0  0  0  0  0  0  0
  1  2  1  0
  2  3  1  0
  3  4  2  0
  3  5  1  0
  5  6  2  0
  6  7  1  0
  7  8  2  0
  8  9  1  0
  9 10  1  0
 10 11  2  0
 10 12  1  0
 12 13  1  0
 13 14  1  0
 14 15  2  0
 15 16  1  0
 16 17  1  0
 16 18  2  0
 18 19  1  0
 19 20  1  0
 20 21  2  0
 21 22  1  0
 22 23  2  0
 23 24  1  0
 24 25  2  0
 19 26  2  0
 26 27  1  0
 27 28  3  0
  8 29  1  0
 29 30  2  0
 30  5  1  0
 26 14  1  0
 25 20  1  0
M  END
>  <Binding energies>  (33) 
[-8.58]

>  <Ligand effiencies>  (33) 
[-0.2767741935483871]

>  <Interactions>  (33) 
["V-A:PRO:540:CA:4883, V-A:ASN:362:CB:3175, V-B:TYR:539:CZ:9848, V-B:PRO:540:CA:9854, V-B:MET:535:CE:9806, V-B:TYR:539:CE1:9846, V-B:TYR:539:CD1:9844, V-B:PRO:540:CB:9856, V-B:ASP:366:CG:8184, V-A:MET:535:CE:4835, H-A:ALA:541:N:4891, V-A:PRO:540:C:4881, H-B:TYR:531:OH:9766, V-B:LEU:363:CA:8156, H-B:TYR:539:OH:9849, H-A:TYR:531:OH:4795, V-B:ILE:538:CD1:9836, V-B:ILE:538:CA:9831, V-B:ILE:538:CB:9833, V-B:ILE:538:C:9829, V-B:VAL:537:C:9821, V-B:ASN:362:C:8143, V-B:ASN:362:CB:8147"]

$$$$
3ch_Grossjean_2025
     RDKit          3D

 32 34  0  0  0  0  0  0  0  0999 V2000
  128.1720  132.9260   59.8500 C   0  0  0  0  0  0  0  0  0  0  0  0
  128.5980  132.8320   58.4950 O   0  0  0  0  0  0  0  0  0  0  0  0
  129.6760  132.0270   58.1730 C   0  0  0  0  0  0  0  0  0  0  0  0
  130.0260  130.8630   58.8770 C   0  0  0  0  0  0  0  0  0  0  0  0
  131.1290  130.0900   58.4860 C   0  0  0  0  0  0  0  0  0  0  0  0
  131.5530  128.9090   59.1240 N   0  0  0  0  0  0  0  0  0  0  0  0
  130.8910  127.7470   59.3170 C   0  0  0  0  0  0  0  0  0  0  0  0
  129.7460  127.5060   58.9350 O   0  0  0  0  0  0  0  0  0  0  0  0
  131.6770  126.6520   60.0360 C   0  0  0  0  0  0  0  0  0  0  0  0
  131.9880  125.2150   58.9680 S   0  0  0  0  0  0  0  0  0  0  0  0
  130.5900  124.1330   59.1770 C   0  0  0  0  0  0  0  0  0  0  0  0
  130.6950  123.2980   60.2400 N   0  0  0  0  0  0  0  0  0  0  0  0
  129.6880  122.4300   60.4820 C   0  0  0  0  0  0  0  0  0  0  0  0
  129.8720  121.5210   61.6820 C   0  0  0  0  0  0  0  0  0  0  0  0
  128.5500  122.3590   59.6820 C   0  0  0  0  0  0  0  0  0  0  0  0
  128.4190  123.2190   58.5820 C   0  0  0  0  0  0  0  0  0  0  0  0
  127.1850  123.1000   57.7470 C   0  0  0  0  0  0  0  0  0  0  0  0
  127.2360  122.4540   56.5060 C   0  0  0  0  0  0  0  0  0  0  0  0
  126.0930  122.3470   55.7180 C   0  0  0  0  0  0  0  0  0  0  0  0
  124.8920  122.8910   56.1680 C   0  0  0  0  0  0  0  0  0  0  0  0
  124.8270  123.5420   57.3960 C   0  0  0  0  0  0  0  0  0  0  0  0
  125.9730  123.6480   58.1810 C   0  0  0  0  0  0  0  0  0  0  0  0
  129.4590  124.1490   58.3280 C   0  0  0  0  0  0  0  0  0  0  0  0
  129.3330  125.1350   57.2500 C   0  0  0  0  0  0  0  0  0  0  0  0
  129.2350  125.9130   56.3990 N   0  0  0  0  0  0  0  0  0  0  0  0
  131.8940  130.5020   57.3930 C   0  0  0  0  0  0  0  0  0  0  0  0
  131.5660  131.6620   56.6750 C   0  0  0  0  0  0  0  0  0  0  0  0
  132.2780  132.1200   55.5790 O   0  0  0  0  0  0  0  0  0  0  0  0
  132.1530  131.4460   54.3310 C   0  0  0  0  0  0  0  0  0  0  0  0
  130.4560  132.4170   57.0760 C   0  0  0  0  0  0  0  0  0  0  0  0
  130.1140  133.5450   56.3700 O   0  0  0  0  0  0  0  0  0  0  0  0
  129.2690  133.2970   55.2540 C   0  0  0  0  0  0  0  0  0  0  0  0
  1  2  1  0
  2  3  1  0
  3  4  2  0
  4  5  1  0
  5  6  1  0
  6  7  1  0
  7  8  2  0
  7  9  1  0
  9 10  1  0
 10 11  1  0
 11 12  2  0
 12 13  1  0
 13 14  1  0
 13 15  2  0
 15 16  1  0
 16 17  1  0
 17 18  2  0
 18 19  1  0
 19 20  2  0
 20 21  1  0
 21 22  2  0
 16 23  2  0
 23 24  1  0
 24 25  3  0
  5 26  2  0
 26 27  1  0
 27 28  1  0
 28 29  1  0
 27 30  2  0
 30 31  1  0
 31 32  1  0
 30  3  1  0
 23 11  1  0
 22 17  1  0
M  END
>  <Binding energies>  (34) 
[-8.33]

>  <Ligand effiencies>  (34) 
[-0.25242424242424244]

>  <Interactions>  (34) 
["V-A:TYR:539:CD1:4873, V-A:TYR:539:CE2:4876, V-A:TYR:539:CG:4872, V-A:ILE:538:C:4858, V-A:TYR:539:CZ:4877, V-A:TYR:539:CE1:4875, V-A:LEU:363:CD1:3188, V-A:TYR:531:CE2:4793, V-A:ILE:538:CG2:4863, V-A:ASP:366:CB:3211, H-A:ASP:366:OD1:3213, V-A:TYR:531:CZ:4794, V-A:TYR:539:CD2:4874, V-A:ILE:538:CA:4860, V-A:ASP:366:CG:3212, H-A:ASP:366:OD2:3214, H-A:TYR:539:N:4870, V-A:ILE:538:CB:4862, V-B:TYR:539:CZ:9848, V-B:LEU:363:CD1:8160, V-B:PRO:540:N:9855, V-B:PRO:540:CA:9854, V-B:ALA:541:CB:9863, V-B:MET:535:CE:9806, V-B:TYR:539:C:9838, V-B:TYR:539:CE1:9846, V-B:TYR:539:CD1:9844, V-B:PRO:540:CB:9856, V-A:MET:535:CE:4835, V-B:TYR:539:CD2:9845, H-B:TYR:539:OH:9849, V-B:TYR:539:CE2:9847, V-B:PRO:540:CD:9858, H-A:TYR:531:OH:4795, V-A:MET:535:CG:4833, V-B:ILE:538:CA:9831, V-B:TYR:539:CG:9843, V-A:MET:535:CB:4832, V-A:TYR:531:CD2:4791"]

$$$$
3ci_Grossjean_2025
     RDKit          3D

 25 27  0  0  0  0  0  0  0  0999 V2000
  127.8090  133.8940   61.6110 C   0  0  0  0  0  0  0  0  0  0  0  0
  127.5680  133.0370   60.3820 C   0  0  0  0  0  0  0  0  0  0  0  0
  128.5180  132.9250   59.3720 C   0  0  0  0  0  0  0  0  0  0  0  0
  128.2570  132.1080   58.2630 C   0  0  0  0  0  0  0  0  0  0  0  0
  129.3120  132.0060   57.2100 C   0  0  0  0  0  0  0  0  0  0  0  0
  130.2310  130.9490   57.2160 C   0  0  0  0  0  0  0  0  0  0  0  0
  131.2170  130.8630   56.2370 C   0  0  0  0  0  0  0  0  0  0  0  0
  131.2930  131.8410   55.2500 C   0  0  0  0  0  0  0  0  0  0  0  0
  130.3940  132.9040   55.2350 C   0  0  0  0  0  0  0  0  0  0  0  0
  129.4080  132.9860   56.2140 C   0  0  0  0  0  0  0  0  0  0  0  0
  127.0140  131.4270   58.2060 C   0  0  0  0  0  0  0  0  0  0  0  0
  126.6670  130.5920   57.0510 C   0  0  0  0  0  0  0  0  0  0  0  0
  126.3950  129.9330   56.1390 N   0  0  0  0  0  0  0  0  0  0  0  0
  126.1070  131.5920   59.2800 C   0  0  0  0  0  0  0  0  0  0  0  0
  124.5220  130.7640   59.3220 S   0  0  0  0  0  0  0  0  0  0  0  0
  123.3520  131.7400   60.3220 C   0  0  0  0  0  0  0  0  0  0  0  0
  123.6950  131.7580   61.8160 C   0  0  0  0  0  0  0  0  0  0  0  0
  123.7320  132.8370   62.4120 O   0  0  0  0  0  0  0  0  0  0  0  0
  123.9530  130.5540   62.3730 N   0  0  0  0  0  0  0  0  0  0  0  0
  124.2590  130.2910   63.7010 C   0  0  0  0  0  0  0  0  0  0  0  0
  125.5500  130.3950   64.2190 C   0  0  0  0  0  0  0  0  0  0  0  0
  125.4310  130.0530   65.5470 C   0  0  0  0  0  0  0  0  0  0  0  0
  124.1350  129.7600   65.8140 O   0  0  0  0  0  0  0  0  0  0  0  0
  123.4030  129.9130   64.6360 N   0  0  0  0  0  0  0  0  0  0  0  0
  126.3830  132.3900   60.3430 N   0  0  0  0  0  0  0  0  0  0  0  0
  1  2  1  0
  2  3  2  0
  3  4  1  0
  4  5  1  0
  5  6  2  0
  6  7  1  0
  7  8  2  0
  8  9  1  0
  9 10  2  0
  4 11  2  0
 11 12  1  0
 12 13  3  0
 11 14  1  0
 14 15  1  0
 15 16  1  0
 16 17  1  0
 17 18  2  0
 17 19  1  0
 19 20  1  0
 20 21  1  0
 21 22  2  0
 22 23  1  0
 23 24  1  0
 14 25  2  0
 25  2  1  0
 10  5  1  0
 24 20  2  0
M  END
>  <Binding energies>  (35) 
[-8.35]

>  <Ligand effiencies>  (35) 
[-0.3211538461538461]

>  <Interactions>  (35) 
["V-A:TYR:539:CD1:4873, V-A:TYR:539:CE2:4876, V-A:TYR:539:CG:4872, V-A:ILE:538:C:4858, V-A:TYR:539:CZ:4877, V-A:TYR:539:CE1:4875, V-A:TYR:531:CE2:4793, V-A:ILE:538:CG2:4863, V-A:TYR:531:CZ:4794, V-A:TYR:539:CD2:4874, V-A:ILE:538:CA:4860, V-A:TYR:539:C:4867, V-A:ILE:538:CB:4862, H-B:ASP:366:OD1:8185, H-B:ASP:366:OD2:8186, V-B:ASP:366:CG:8184, V-A:ALA:541:CB:4892, H-B:TYR:484:OH:9319, V-B:ILE:369:CD1:8210, H-B:GLY:454:N:9021, V-B:ARG:545:CZ:9897, V-B:ILE:369:CG2:8208, V-A:MET:535:CE:4835, H-B:TYR:531:OH:9766, V-B:ASP:366:CB:8183, V-B:ASP:366:CA:8181, V-A:MET:535:CG:4833, V-B:ILE:369:CB:8207, H-B:ARG:545:NH2:9899, H-B:ARG:545:NE:9895, H-B:ARG:545:NH1:9898"]

$$$$
3ck_Grossjean_2025
     RDKit          3D

 30 31  0  0  0  0  0  0  0  0999 V2000
  123.7310  131.6910   59.3810 C   0  0  0  0  0  0  0  0  0  0  0  0
  123.7360  131.8480   57.9700 O   0  0  0  0  0  0  0  0  0  0  0  0
  124.1360  130.6770   57.2720 C   0  0  0  0  0  0  0  0  0  0  0  0
  125.6680  130.6040   57.2280 C   0  0  0  0  0  0  0  0  0  0  0  0
  126.0640  129.5460   56.3650 O   0  0  0  0  0  0  0  0  0  0  0  0
  127.1190  128.7450   56.8800 C   0  0  0  0  0  0  0  0  0  0  0  0
  127.0330  128.7270   58.4110 C   0  0  0  0  0  0  0  0  0  0  0  0
  126.9160  127.3780   58.8380 O   0  0  0  0  0  0  0  0  0  0  0  0
  127.9080  126.9580   59.7620 C   0  0  0  0  0  0  0  0  0  0  0  0
  127.3900  127.1570   61.1990 C   0  0  0  0  0  0  0  0  0  0  0  0
  127.8760  126.1490   62.1470 N   0  0  0  0  0  0  0  0  0  0  0  0
  129.1360  126.0480   62.6070 C   0  0  0  0  0  0  0  0  0  0  0  0
  130.0350  126.8300   62.2920 O   0  0  0  0  0  0  0  0  0  0  0  0
  129.3960  124.8810   63.5730 C   0  0  0  0  0  0  0  0  0  0  0  0
  129.0380  123.2190   62.9080 S   0  0  0  0  0  0  0  0  0  0  0  0
  127.8050  123.3560   61.6220 C   0  0  0  0  0  0  0  0  0  0  0  0
  126.5190  123.4350   62.0500 N   0  0  0  0  0  0  0  0  0  0  0  0
  125.5330  123.5360   61.1310 C   0  0  0  0  0  0  0  0  0  0  0  0
  124.1230  123.6170   61.6830 C   0  0  0  0  0  0  0  0  0  0  0  0
  125.7840  123.5620   59.7610 C   0  0  0  0  0  0  0  0  0  0  0  0
  127.1030  123.4760   59.2970 C   0  0  0  0  0  0  0  0  0  0  0  0
  127.3220  123.4850   57.8190 C   0  0  0  0  0  0  0  0  0  0  0  0
  128.0780  124.5030   57.2260 C   0  0  0  0  0  0  0  0  0  0  0  0
  128.2780  124.5230   55.8470 C   0  0  0  0  0  0  0  0  0  0  0  0
  127.7170  123.5250   55.0560 C   0  0  0  0  0  0  0  0  0  0  0  0
  126.9560  122.5090   55.6300 C   0  0  0  0  0  0  0  0  0  0  0  0
  126.7580  122.4920   57.0080 C   0  0  0  0  0  0  0  0  0  0  0  0
  128.1490  123.3820   60.2510 C   0  0  0  0  0  0  0  0  0  0  0  0
  129.5510  123.3310   59.8240 C   0  0  0  0  0  0  0  0  0  0  0  0
  130.6580  123.2910   59.4870 N   0  0  0  0  0  0  0  0  0  0  0  0
  1  2  1  0
  2  3  1  0
  3  4  1  0
  4  5  1  0
  5  6  1  0
  6  7  1  0
  7  8  1  0
  8  9  1  0
  9 10  1  0
 10 11  1  0
 11 12  1  0
 12 13  2  0
 12 14  1  0
 14 15  1  0
 15 16  1  0
 16 17  2  0
 17 18  1  0
 18 19  1  0
 18 20  2  0
 20 21  1  0
 21 22  1  0
 22 23  2  0
 23 24  1  0
 24 25  2  0
 25 26  1  0
 26 27  2  0
 21 28  2  0
 28 29  1  0
 29 30  3  0
 28 16  1  0
 27 22  1  0
M  END
>  <Binding energies>  (36) 
[-6.51]

>  <Ligand effiencies>  (36) 
[-0.21]

>  <Interactions>  (36) 
["V-A:TYR:539:CZ:4877, V-B:TYR:539:CZ:9848, H-B:GLU:543:OE2:9881, V-B:PRO:540:N:9855, V-B:PRO:540:CA:9854, V-B:ALA:541:CB:9863, V-B:MET:535:CE:9806, V-B:TYR:539:C:9838, V-B:TYR:539:CE1:9846, V-B:TYR:539:CD1:9844, V-B:PRO:540:CB:9856, V-B:ASP:366:CG:8184, V-B:GLU:543:CD:9879, V-B:ILE:369:CG2:8208, H-B:TYR:531:OH:9766, H-A:TYR:539:OH:4878, V-B:ASP:366:CB:8183, V-B:ASP:366:C:8179, V-B:ASP:366:CA:8181, H-B:TYR:539:OH:9849, V-B:TYR:539:CE2:9847, V-B:TYR:531:CZ:9765, V-B:PRO:540:CD:9858, V-B:ILE:369:CB:8207, V-B:TYR:531:CE1:9763, H-B:ALA:541:N:9862, V-B:ASN:362:C:8143, V-B:ASN:362:CB:8147, V-B:ASN:362:CG:8148, V-B:GLU:543:CG:9878, V-B:ASN:362:CA:8145, V-B:ASN:370:CB:8216"]

$$$$
4aa_Grossjean_2025
     RDKit          3D

 26 28  0  0  0  0  0  0  0  0999 V2000
  129.9670  125.0930   67.3570 C   0  0  0  0  0  0  0  0  0  0  0  0
  130.9080  126.1820   66.8310 C   0  0  0  0  0  0  0  0  0  0  0  0
  132.2520  125.7260   66.9170 O   0  0  0  0  0  0  0  0  0  0  0  0
  132.8880  125.2110   65.8340 C   0  0  0  0  0  0  0  0  0  0  0  0
  134.1160  125.1010   65.7550 O   0  0  0  0  0  0  0  0  0  0  0  0
  131.9510  124.7930   64.7380 C   0  0  0  0  0  0  0  0  0  0  0  0
  131.6980  125.6760   63.6800 C   0  0  0  0  0  0  0  0  0  0  0  0
  130.8300  125.3190   62.6520 C   0  0  0  0  0  0  0  0  0  0  0  0
  130.2050  124.0720   62.6550 C   0  0  0  0  0  0  0  0  0  0  0  0
  129.3410  123.8180   61.5720 N   0  0  0  0  0  0  0  0  0  0  0  0
  128.0440  123.4250   61.5620 C   0  0  0  0  0  0  0  0  0  0  0  0
  127.3910  123.1700   62.5750 O   0  0  0  0  0  0  0  0  0  0  0  0
  127.4430  123.2880   60.2340 C   0  0  0  0  0  0  0  0  0  0  0  0
  128.2460  122.3300   58.9880 S   0  0  0  0  0  0  0  0  0  0  0  0
  126.9940  122.7060   57.8260 C   0  0  0  0  0  0  0  0  0  0  0  0
  127.0250  122.2360   56.5780 N   0  0  0  0  0  0  0  0  0  0  0  0
  125.9950  122.6070   55.7780 C   0  0  0  0  0  0  0  0  0  0  0  0
  126.0520  122.0660   54.3600 C   0  0  0  0  0  0  0  0  0  0  0  0
  124.9460  123.4240   56.1920 C   0  0  0  0  0  0  0  0  0  0  0  0
  124.9160  123.9130   57.5030 C   0  0  0  0  0  0  0  0  0  0  0  0
  123.7490  124.8020   57.9090 C   0  0  0  0  0  0  0  0  0  0  0  0
  125.9800  123.5500   58.3710 C   0  0  0  0  0  0  0  0  0  0  0  0
  126.2640  123.8700   59.7450 C   0  0  0  0  0  0  0  0  0  0  0  0
  125.4390  124.6730   60.4940 N   0  0  0  0  0  0  0  0  0  0  0  0
  130.4470  123.1840   63.7120 C   0  0  0  0  0  0  0  0  0  0  0  0
  131.3130  123.5430   64.7420 C   0  0  0  0  0  0  0  0  0  0  0  0
  1  2  1  0
  2  3  1  0
  3  4  1  0
  4  5  2  0
  4  6  1  0
  6  7  2  0
  7  8  1  0
  8  9  2  0
  9 10  1  0
 10 11  1  0
 11 12  2  0
 11 13  1  0
 13 14  1  0
 14 15  1  0
 15 16  2  0
 16 17  1  0
 17 18  1  0
 17 19  2  0
 19 20  1  0
 20 21  1  0
 20 22  2  0
 22 23  1  0
 23 24  1  0
  9 25  1  0
 25 26  2  0
 26  6  1  0
 23 13  2  0
 22 15  1  0
M  END
>  <Binding energies>  (37) 
[-8.02]

>  <Ligand effiencies>  (37) 
[-0.276551724137931]

>  <Interactions>  (37) 
["V-B:TYR:539:CZ:9848, H-B:GLU:543:OE2:9881, V-B:LEU:363:CD1:8160, V-B:PRO:540:N:9855, V-B:PRO:540:CA:9854, V-B:ALA:541:CB:9863, V-B:MET:535:CE:9806, V-B:TYR:539:C:9838, V-B:TYR:539:CD1:9844, V-B:PRO:540:CB:9856, H-B:ASP:366:OD2:8186, V-A:GLU:543:CD:4908, V-B:ASP:366:CB:8183, V-B:TYR:539:CD2:9845, H-B:TYR:539:N:9841, V-B:LEU:363:CA:8156, V-B:TYR:539:CE2:9847, V-B:TYR:531:CZ:9765, V-B:TYR:531:CE2:9764, V-B:ILE:538:CD1:9836, V-B:ILE:538:CG2:9834, H-B:ALA:541:N:9862, V-B:ILE:538:CA:9831, V-B:ILE:538:CB:9833, V-B:TYR:539:CG:9843, V-B:ILE:538:C:9829, V-B:VAL:537:C:9821, V-B:GLU:543:CG:9878, H-A:GLY:454:N:4049, V-A:ARG:545:CZ:4926, H-A:ARG:545:NE:4924, H-A:TYR:484:OH:4347, V-A:HIS:456:CE1:4069, V-B:GLU:543:CB:9877, V-A:TYR:484:CE1:4344, V-A:TYR:484:CZ:4346, V-B:ILE:538:CG1:9835"]

$$$$
4ab_Grossjean_2025
     RDKit          3D

 25 27  0  0  0  0  0  0  0  0999 V2000
  134.6290  125.0410   66.9720 C   0  0  0  0  0  0  0  0  0  0  0  0
  133.7420  125.3950   65.9210 O   0  0  0  0  0  0  0  0  0  0  0  0
  132.4270  125.6280   66.1650 C   0  0  0  0  0  0  0  0  0  0  0  0
  132.0100  126.1540   67.2030 O   0  0  0  0  0  0  0  0  0  0  0  0
  131.5280  125.1750   65.0510 C   0  0  0  0  0  0  0  0  0  0  0  0
  131.6770  125.7430   63.7790 C   0  0  0  0  0  0  0  0  0  0  0  0
  130.8570  125.3450   62.7260 C   0  0  0  0  0  0  0  0  0  0  0  0
  129.8800  124.3690   62.9200 C   0  0  0  0  0  0  0  0  0  0  0  0
  129.1040  124.0490   61.7890 N   0  0  0  0  0  0  0  0  0  0  0  0
  127.8710  123.4930   61.7050 C   0  0  0  0  0  0  0  0  0  0  0  0
  127.2110  123.1200   62.6760 O   0  0  0  0  0  0  0  0  0  0  0  0
  127.3520  123.3300   60.3460 C   0  0  0  0  0  0  0  0  0  0  0  0
  128.2510  122.3840   59.1570 S   0  0  0  0  0  0  0  0  0  0  0  0
  127.0590  122.7160   57.9210 C   0  0  0  0  0  0  0  0  0  0  0  0
  127.1760  122.2390   56.6810 N   0  0  0  0  0  0  0  0  0  0  0  0
  126.1850  122.5720   55.8190 C   0  0  0  0  0  0  0  0  0  0  0  0
  126.3390  122.0240   54.4120 C   0  0  0  0  0  0  0  0  0  0  0  0
  125.0890  123.3600   56.1650 C   0  0  0  0  0  0  0  0  0  0  0  0
  124.9700  123.8600   57.4670 C   0  0  0  0  0  0  0  0  0  0  0  0
  123.7570  124.7170   57.7950 C   0  0  0  0  0  0  0  0  0  0  0  0
  125.9920  123.5350   58.3990 C   0  0  0  0  0  0  0  0  0  0  0  0
  126.1880  123.8750   59.7820 C   0  0  0  0  0  0  0  0  0  0  0  0
  125.3010  124.6620   60.4740 N   0  0  0  0  0  0  0  0  0  0  0  0
  129.7190  123.7980   64.1910 C   0  0  0  0  0  0  0  0  0  0  0  0
  130.5380  124.1990   65.2440 C   0  0  0  0  0  0  0  0  0  0  0  0
  1  2  1  0
  2  3  1  0
  3  4  2  0
  3  5  1  0
  5  6  2  0
  6  7  1  0
  7  8  2  0
  8  9  1  0
  9 10  1  0
 10 11  2  0
 10 12  1  0
 12 13  1  0
 13 14  1  0
 14 15  2  0
 15 16  1  0
 16 17  1  0
 16 18  2  0
 18 19  1  0
 19 20  1  0
 19 21  2  0
 21 22  1  0
 22 23  1  0
  8 24  1  0
 24 25  2  0
 25  5  1  0
 22 12  2  0
 21 14  1  0
M  END
>  <Binding energies>  (38) 
[-7.93]

>  <Ligand effiencies>  (38) 
[-0.2832142857142857]

>  <Interactions>  (38) 
["H-B:GLU:543:OE2:9881, V-B:LEU:363:CD1:8160, V-B:PRO:540:N:9855, V-B:PRO:540:CA:9854, V-B:ALA:541:CB:9863, V-B:MET:535:CE:9806, V-B:TYR:539:C:9838, V-B:TYR:539:CE1:9846, V-B:TYR:539:CD1:9844, V-B:PRO:540:CB:9856, H-B:ASP:366:OD2:8186, V-B:ASP:366:CB:8183, V-B:TYR:539:CD2:9845, H-B:TYR:539:N:9841, V-B:LEU:363:CA:8156, V-B:TYR:539:CE2:9847, V-B:TYR:531:CZ:9765, V-B:TYR:531:CE2:9764, V-B:ILE:538:CD1:9836, V-B:LEU:363:CB:8158, H-B:ALA:541:N:9862, V-B:ILE:538:CA:9831, V-B:ILE:538:CB:9833, V-B:ILE:538:C:9829, V-B:VAL:537:C:9821, V-B:GLU:543:CG:9878, H-A:GLY:454:N:4049, H-A:ARG:545:NE:4924, H-A:TYR:484:OH:4347, V-A:HIS:456:CE1:4069, V-A:ARG:545:CD:4923, V-A:ILE:455:C:4051, V-A:ARG:545:CG:4922, V-A:GLY:454:CA:4048, V-A:GLY:453:CA:4043, V-A:GLY:453:C:4041, H-A:HIS:456:ND1:4066, V-A:GLY:454:C:4046, V-A:ILE:455:CA:4053"]

$$$$
4ac_Grossjean_2025
     RDKit          3D

 23 25  0  0  0  0  0  0  0  0999 V2000
  133.7240  125.4080   66.7370 C   0  0  0  0  0  0  0  0  0  0  0  0
  133.9190  124.7210   65.5050 O   0  0  0  0  0  0  0  0  0  0  0  0
  132.8430  124.5370   64.6580 C   0  0  0  0  0  0  0  0  0  0  0  0
  133.1370  124.1050   63.3650 C   0  0  0  0  0  0  0  0  0  0  0  0
  132.1180  123.8910   62.4410 C   0  0  0  0  0  0  0  0  0  0  0  0
  130.7860  124.0990   62.8030 C   0  0  0  0  0  0  0  0  0  0  0  0
  129.8260  123.8710   61.7990 N   0  0  0  0  0  0  0  0  0  0  0  0
  128.5170  123.5460   61.9240 C   0  0  0  0  0  0  0  0  0  0  0  0
  127.9530  123.3590   63.0040 O   0  0  0  0  0  0  0  0  0  0  0  0
  127.7800  123.4140   60.6640 C   0  0  0  0  0  0  0  0  0  0  0  0
  128.4030  122.3890   59.3700 S   0  0  0  0  0  0  0  0  0  0  0  0
  127.0420  122.7780   58.3430 C   0  0  0  0  0  0  0  0  0  0  0  0
  126.9150  122.2710   57.1160 N   0  0  0  0  0  0  0  0  0  0  0  0
  125.8140  122.6530   56.4240 C   0  0  0  0  0  0  0  0  0  0  0  0
  125.6880  122.0640   55.0320 C   0  0  0  0  0  0  0  0  0  0  0  0
  124.8480  123.5240   56.9250 C   0  0  0  0  0  0  0  0  0  0  0  0
  124.9840  124.0550   58.2130 C   0  0  0  0  0  0  0  0  0  0  0  0
  123.9040  125.0010   58.7140 C   0  0  0  0  0  0  0  0  0  0  0  0
  126.1250  123.6750   58.9690 C   0  0  0  0  0  0  0  0  0  0  0  0
  126.5700  124.0200   60.2930 C   0  0  0  0  0  0  0  0  0  0  0  0
  125.8600  124.8690   61.1040 N   0  0  0  0  0  0  0  0  0  0  0  0
  130.4830  124.5460   64.0970 C   0  0  0  0  0  0  0  0  0  0  0  0
  131.5050  124.7590   65.0190 C   0  0  0  0  0  0  0  0  0  0  0  0
  1  2  1  0
  2  3  1  0
  3  4  2  0
  4  5  1  0
  5  6  2  0
  6  7  1  0
  7  8  1  0
  8  9  2  0
  8 10  1  0
 10 11  1  0
 11 12  1  0
 12 13  2  0
 13 14  1  0
 14 15  1  0
 14 16  2  0
 16 17  1  0
 17 18  1  0
 17 19  2  0
 19 20  1  0
 20 21  1  0
  6 22  1  0
 22 23  2  0
 23  3  1  0
 20 10  2  0
 19 12  1  0
M  END
>  <Binding energies>  (39) 
[-7.76]

>  <Ligand effiencies>  (39) 
[-0.29846153846153844]

>  <Interactions>  (39) 
["H-B:GLU:543:OE2:9881, V-B:LEU:363:CD1:8160, V-B:PRO:540:N:9855, V-B:PRO:540:CA:9854, V-B:ALA:541:CB:9863, V-B:MET:535:CE:9806, V-B:TYR:539:C:9838, V-B:PRO:540:CB:9856, H-B:ASP:366:OD2:8186, V-B:ASP:366:CG:8184, V-B:ASP:366:CB:8183, V-B:TYR:539:CD2:9845, H-B:TYR:539:N:9841, V-B:LEU:363:CA:8156, V-B:TYR:539:CE2:9847, V-B:PRO:540:CD:9858, V-B:ILE:538:CD1:9836, V-B:ILE:538:CG2:9834, V-B:ILE:538:CA:9831, V-B:ILE:538:CB:9833, V-B:ILE:538:C:9829, H-A:GLY:454:N:4049, V-A:ARG:545:CZ:4926, H-A:TYR:484:OH:4347, V-A:HIS:456:CE1:4069, V-A:ARG:545:CD:4923, V-A:ARG:545:CG:4922"]

$$$$
4ad_Grossjean_2025
     RDKit          3D

 21 23  0  0  0  0  0  0  0  0999 V2000
  126.6950  122.0580   54.4980 C   0  0  0  0  0  0  0  0  0  0  0  0
  126.3920  122.5970   55.8830 C   0  0  0  0  0  0  0  0  0  0  0  0
  125.2560  123.3680   56.1210 C   0  0  0  0  0  0  0  0  0  0  0  0
  124.9980  123.8560   57.4080 C   0  0  0  0  0  0  0  0  0  0  0  0
  123.7460  124.6960   57.6170 C   0  0  0  0  0  0  0  0  0  0  0  0
  125.9250  123.5370   58.4360 C   0  0  0  0  0  0  0  0  0  0  0  0
  125.9700  123.8640   59.8360 C   0  0  0  0  0  0  0  0  0  0  0  0
  124.9980  124.6180   60.4430 N   0  0  0  0  0  0  0  0  0  0  0  0
  127.0880  123.3420   60.5080 C   0  0  0  0  0  0  0  0  0  0  0  0
  127.4550  123.4910   61.9170 C   0  0  0  0  0  0  0  0  0  0  0  0
  126.6670  123.1700   62.8090 O   0  0  0  0  0  0  0  0  0  0  0  0
  128.6980  123.9840   62.1440 N   0  0  0  0  0  0  0  0  0  0  0  0
  129.3320  124.2840   63.3650 C   0  0  0  0  0  0  0  0  0  0  0  0
  129.4910  123.2140   64.2510 C   0  0  0  0  0  0  0  0  0  0  0  0
  130.1160  123.4070   65.4800 C   0  0  0  0  0  0  0  0  0  0  0  0
  130.5910  124.6700   65.8210 C   0  0  0  0  0  0  0  0  0  0  0  0
  130.4520  125.7410   64.9420 C   0  0  0  0  0  0  0  0  0  0  0  0
  129.8270  125.5510   63.7130 C   0  0  0  0  0  0  0  0  0  0  0  0
  128.1170  122.4210   59.4100 S   0  0  0  0  0  0  0  0  0  0  0  0
  127.0490  122.7410   58.0630 C   0  0  0  0  0  0  0  0  0  0  0  0
  127.2970  122.2730   56.8380 N   0  0  0  0  0  0  0  0  0  0  0  0
  1  2  1  0
  2  3  2  0
  3  4  1  0
  4  5  1  0
  4  6  2  0
  6  7  1  0
  7  8  1  0
  7  9  2  0
  9 10  1  0
 10 11  2  0
 10 12  1  0
 12 13  1  0
 13 14  2  0
 14 15  1  0
 15 16  2  0
 16 17  1  0
 17 18  2  0
  9 19  1  0
 19 20  1  0
 20 21  2  0
 21  2  1  0
 20  6  1  0
 18 13  1  0
M  END
>  <Binding energies>  (40) 
[-7.59]

>  <Ligand effiencies>  (40) 
[-0.31625]

>  <Interactions>  (40) 
["V-B:LEU:363:CD1:8160, V-B:PRO:540:N:9855, V-B:PRO:540:CA:9854, V-B:ALA:541:CB:9863, V-B:MET:535:CE:9806, V-B:TYR:539:C:9838, V-B:TYR:539:CE1:9846, V-B:TYR:539:CD1:9844, V-B:PRO:540:CB:9856, H-B:ASP:366:OD2:8186, V-B:ASP:366:CG:8184, V-B:GLU:543:CD:9879, V-B:ASP:366:CB:8183, V-B:TYR:539:CD2:9845, H-B:TYR:539:N:9841, V-B:LEU:363:CA:8156, V-B:TYR:539:CE2:9847, V-B:TYR:531:CZ:9765, V-B:TYR:531:CE2:9764, V-B:ILE:538:CD1:9836, V-B:LEU:363:CB:8158, H-B:ALA:541:N:9862, V-B:ILE:538:CA:9831, V-B:ILE:538:C:9829, V-B:VAL:537:C:9821, V-B:GLU:543:CG:9878, V-A:TYR:484:CE1:4344, V-A:TYR:484:CZ:4346"]

$$$$
4ae_Grossjean_2025
     RDKit          3D

 22 24  0  0  0  0  0  0  0  0999 V2000
  129.8300  126.5440   65.8430 C   0  0  0  0  0  0  0  0  0  0  0  0
  130.0800  125.2680   65.0640 C   0  0  0  0  0  0  0  0  0  0  0  0
  131.0080  124.3170   65.4960 C   0  0  0  0  0  0  0  0  0  0  0  0
  131.1910  123.1700   64.7240 C   0  0  0  0  0  0  0  0  0  0  0  0
  130.4520  123.0030   63.5500 C   0  0  0  0  0  0  0  0  0  0  0  0
  129.5340  123.9900   63.1790 C   0  0  0  0  0  0  0  0  0  0  0  0
  128.8350  123.7750   61.9790 N   0  0  0  0  0  0  0  0  0  0  0  0
  127.5430  123.3980   61.8050 C   0  0  0  0  0  0  0  0  0  0  0  0
  126.7640  123.1720   62.7320 O   0  0  0  0  0  0  0  0  0  0  0  0
  127.1120  123.2640   60.4120 C   0  0  0  0  0  0  0  0  0  0  0  0
  128.0590  122.3040   59.2740 S   0  0  0  0  0  0  0  0  0  0  0  0
  126.9610  122.6810   57.9670 C   0  0  0  0  0  0  0  0  0  0  0  0
  127.1470  122.2150   56.7320 N   0  0  0  0  0  0  0  0  0  0  0  0
  126.2270  122.5870   55.8100 C   0  0  0  0  0  0  0  0  0  0  0  0
  126.4620  122.0500   54.4090 C   0  0  0  0  0  0  0  0  0  0  0  0
  125.1330  123.4040   56.0910 C   0  0  0  0  0  0  0  0  0  0  0  0
  124.9400  123.8910   57.3890 C   0  0  0  0  0  0  0  0  0  0  0  0
  123.7350  124.7820   57.6470 C   0  0  0  0  0  0  0  0  0  0  0  0
  125.8870  123.5240   58.3840 C   0  0  0  0  0  0  0  0  0  0  0  0
  125.9950  123.8400   59.7830 C   0  0  0  0  0  0  0  0  0  0  0  0
  125.0820  124.6350   60.4280 N   0  0  0  0  0  0  0  0  0  0  0  0
  129.3540  125.1190   63.9270 N   0  0  0  0  0  0  0  0  0  0  0  0
  1  2  1  0
  2  3  2  0
  3  4  1  0
  4  5  2  0
  5  6  1  0
  6  7  1  0
  7  8  1  0
  8  9  2  0
  8 10  1  0
 10 11  1  0
 11 12  1  0
 12 13  2  0
 13 14  1  0
 14 15  1  0
 14 16  2  0
 16 17  1  0
 17 18  1  0
 17 19  2  0
 19 20  1  0
 20 21  1  0
  6 22  2  0
 22  2  1  0
 20 10  2  0
 19 12  1  0
M  END
>  <Binding energies>  (41) 
[-7.47]

>  <Ligand effiencies>  (41) 
[-0.2988]

>  <Interactions>  (41) 
["H-B:GLU:543:OE2:9881, V-B:LEU:363:CD1:8160, V-B:PRO:540:N:9855, V-B:PRO:540:CA:9854, V-B:ALA:541:CB:9863, V-B:MET:535:CE:9806, V-B:TYR:539:C:9838, V-B:TYR:539:CE1:9846, V-B:TYR:539:CD1:9844, V-B:PRO:540:CB:9856, H-B:ASP:366:OD2:8186, V-B:ASP:366:CG:8184, V-B:GLU:543:CD:9879, V-A:GLU:543:CD:4908, V-B:ASP:366:CB:8183, V-B:TYR:539:CD2:9845, H-B:TYR:539:N:9841, V-B:LEU:363:CA:8156, V-B:TYR:539:CE2:9847, V-B:TYR:531:CZ:9765, V-B:TYR:531:CE2:9764, V-B:ILE:538:CD1:9836, H-B:ALA:541:N:9862, V-B:ILE:538:CA:9831, V-B:ILE:538:CB:9833, V-B:ILE:538:C:9829, V-B:VAL:537:C:9821, V-B:GLU:543:CG:9878, V-A:TYR:484:CZ:4346"]

$$$$
4af_Grossjean_2025
     RDKit          3D

 21 23  0  0  0  0  0  0  0  0999 V2000
  126.6940  122.0670   54.5320 C   0  0  0  0  0  0  0  0  0  0  0  0
  126.3850  122.6090   55.9160 C   0  0  0  0  0  0  0  0  0  0  0  0
  125.2580  123.3970   56.1430 C   0  0  0  0  0  0  0  0  0  0  0  0
  124.9950  123.8880   57.4270 C   0  0  0  0  0  0  0  0  0  0  0  0
  123.7540  124.7440   57.6250 C   0  0  0  0  0  0  0  0  0  0  0  0
  125.9070  123.5550   58.4650 C   0  0  0  0  0  0  0  0  0  0  0  0
  125.9450  123.8830   59.8650 C   0  0  0  0  0  0  0  0  0  0  0  0
  124.9810  124.6560   60.4620 N   0  0  0  0  0  0  0  0  0  0  0  0
  127.0450  123.3420   60.5480 C   0  0  0  0  0  0  0  0  0  0  0  0
  127.4090  123.4970   61.9580 C   0  0  0  0  0  0  0  0  0  0  0  0
  126.6220  123.1730   62.8480 O   0  0  0  0  0  0  0  0  0  0  0  0
  128.6480  123.9950   62.1860 N   0  0  0  0  0  0  0  0  0  0  0  0
  129.2780  124.3070   63.4050 C   0  0  0  0  0  0  0  0  0  0  0  0
  129.7870  125.5700   63.7610 C   0  0  0  0  0  0  0  0  0  0  0  0
  130.4070  125.7400   65.0000 C   0  0  0  0  0  0  0  0  0  0  0  0
  130.5080  124.6420   65.8550 C   0  0  0  0  0  0  0  0  0  0  0  0
  130.0330  123.4120   65.5320 N   0  0  0  0  0  0  0  0  0  0  0  0
  129.4330  123.2620   64.3240 C   0  0  0  0  0  0  0  0  0  0  0  0
  128.0730  122.4050   59.4600 S   0  0  0  0  0  0  0  0  0  0  0  0
  127.0220  122.7420   58.1030 C   0  0  0  0  0  0  0  0  0  0  0  0
  127.2760  122.2710   56.8810 N   0  0  0  0  0  0  0  0  0  0  0  0
  1  2  1  0
  2  3  2  0
  3  4  1  0
  4  5  1  0
  4  6  2  0
  6  7  1  0
  7  8  1  0
  7  9  2  0
  9 10  1  0
 10 11  2  0
 10 12  1  0
 12 13  1  0
 13 14  2  0
 14 15  1  0
 15 16  2  0
 16 17  1  0
 17 18  2  0
  9 19  1  0
 19 20  1  0
 20 21  2  0
 21  2  1  0
 20  6  1  0
 18 13  1  0
M  END
>  <Binding energies>  (42) 
[-7.27]

>  <Ligand effiencies>  (42) 
[-0.30291666666666667]

>  <Interactions>  (42) 
["H-B:GLU:543:OE2:9881, V-B:LEU:363:CD1:8160, V-B:PRO:540:N:9855, V-B:PRO:540:CA:9854, V-B:ALA:541:CB:9863, V-B:MET:535:CE:9806, V-B:TYR:539:C:9838, V-B:TYR:539:CE1:9846, V-B:TYR:539:CD1:9844, V-B:PRO:540:CB:9856, H-B:ASP:366:OD2:8186, V-B:ASP:366:CG:8184, V-B:GLU:543:CD:9879, V-B:ASP:366:CB:8183, V-B:TYR:539:CD2:9845, H-B:TYR:539:N:9841, V-B:LEU:363:CA:8156, V-B:TYR:539:CE2:9847, V-B:TYR:531:CZ:9765, V-B:TYR:531:CE2:9764, V-B:ILE:538:CD1:9836, H-B:ALA:541:N:9862, V-B:ILE:538:CA:9831, V-B:ILE:538:C:9829, V-B:VAL:537:C:9821, V-B:GLU:543:CG:9878, H-A:TYR:484:OH:4347"]

$$$$
4ag_Grossjean_2025
     RDKit          3D

 22 24  0  0  0  0  0  0  0  0999 V2000
  125.9230  122.0660   54.9960 C   0  0  0  0  0  0  0  0  0  0  0  0
  126.0060  122.6190   56.4070 C   0  0  0  0  0  0  0  0  0  0  0  0
  125.0740  123.5460   56.8700 C   0  0  0  0  0  0  0  0  0  0  0  0
  125.1690  124.0420   58.1750 C   0  0  0  0  0  0  0  0  0  0  0  0
  124.1290  125.0520   58.6350 C   0  0  0  0  0  0  0  0  0  0  0  0
  126.2330  123.5680   58.9890 C   0  0  0  0  0  0  0  0  0  0  0  0
  126.6200  123.8570   60.3430 C   0  0  0  0  0  0  0  0  0  0  0  0
  125.9260  124.7400   61.1320 N   0  0  0  0  0  0  0  0  0  0  0  0
  127.7610  123.1610   60.7700 C   0  0  0  0  0  0  0  0  0  0  0  0
  128.4170  123.2060   62.0760 C   0  0  0  0  0  0  0  0  0  0  0  0
  127.8820  123.7480   63.0460 O   0  0  0  0  0  0  0  0  0  0  0  0
  129.6410  122.6400   62.1460 N   0  0  0  0  0  0  0  0  0  0  0  0
  130.4640  122.5480   63.3510 C   0  0  0  0  0  0  0  0  0  0  0  0
  131.6880  123.4560   63.3360 C   0  0  0  0  0  0  0  0  0  0  0  0
  131.9960  124.2270   64.4610 C   0  0  0  0  0  0  0  0  0  0  0  0
  133.1280  125.0390   64.4580 C   0  0  0  0  0  0  0  0  0  0  0  0
  133.9530  125.0690   63.3360 C   0  0  0  0  0  0  0  0  0  0  0  0
  133.6600  124.2920   62.2180 C   0  0  0  0  0  0  0  0  0  0  0  0
  132.5300  123.4800   62.2200 C   0  0  0  0  0  0  0  0  0  0  0  0
  128.3830  122.1110   59.4970 S   0  0  0  0  0  0  0  0  0  0  0  0
  127.1200  122.6180   58.3980 C   0  0  0  0  0  0  0  0  0  0  0  0
  127.0310  122.1430   57.1550 N   0  0  0  0  0  0  0  0  0  0  0  0
  1  2  1  0
  2  3  2  0
  3  4  1  0
  4  5  1  0
  4  6  2  0
  6  7  1  0
  7  8  1  0
  7  9  2  0
  9 10  1  0
 10 11  2  0
 10 12  1  0
 12 13  1  0
 13 14  1  0
 14 15  2  0
 15 16  1  0
 16 17  2  0
 17 18  1  0
 18 19  2  0
  9 20  1  0
 20 21  1  0
 21 22  2  0
 22  2  1  0
 21  6  1  0
 19 14  1  0
M  END
>  <Binding energies>  (43) 
[-7.31]

>  <Ligand effiencies>  (43) 
[-0.2924]

>  <Interactions>  (43) 
["H-B:GLU:543:OE2:9881, V-B:LEU:363:CD1:8160, V-B:PRO:540:N:9855, V-B:PRO:540:CA:9854, V-B:ALA:541:CB:9863, V-B:MET:535:CE:9806, V-B:TYR:539:C:9838, V-B:TYR:539:CD1:9844, V-B:PRO:540:CB:9856, H-B:ASP:366:OD2:8186, V-B:ASP:366:CG:8184, V-B:ASP:366:CB:8183, V-B:TYR:539:CD2:9845, H-B:TYR:539:N:9841, V-B:LEU:363:CA:8156, V-B:TYR:539:CE2:9847, V-B:PRO:540:CD:9858, V-B:ILE:538:CD1:9836, V-B:ILE:538:CG2:9834, V-B:ILE:538:CA:9831, V-B:ILE:538:CB:9833, V-B:ILE:538:C:9829, V-A:ILE:369:CD1:3238, V-A:ARG:545:CZ:4926, V-A:GLY:453:CA:4043"]

$$$$
4ah_Grossjean_2025
     RDKit          3D

 28 30  0  0  0  0  0  0  0  0999 V2000
  134.5500  125.0030   62.5580 C   0  0  0  0  0  0  0  0  0  0  0  0
  134.1080  125.0150   63.9100 O   0  0  0  0  0  0  0  0  0  0  0  0
  132.8770  124.4660   64.2270 C   0  0  0  0  0  0  0  0  0  0  0  0
  132.3350  123.3380   63.5920 C   0  0  0  0  0  0  0  0  0  0  0  0
  131.0850  122.8410   63.9630 C   0  0  0  0  0  0  0  0  0  0  0  0
  130.5330  121.5860   63.2940 C   0  0  0  0  0  0  0  0  0  0  0  0
  129.6940  121.8660   62.1290 N   0  0  0  0  0  0  0  0  0  0  0  0
  128.7210  122.8000   62.0720 C   0  0  0  0  0  0  0  0  0  0  0  0
  128.4160  123.5010   63.0390 O   0  0  0  0  0  0  0  0  0  0  0  0
  128.0110  122.9090   60.7990 C   0  0  0  0  0  0  0  0  0  0  0  0
  128.6290  122.0850   59.3660 S   0  0  0  0  0  0  0  0  0  0  0  0
  127.3310  122.7260   58.3830 C   0  0  0  0  0  0  0  0  0  0  0  0
  127.2220  122.4410   57.0860 N   0  0  0  0  0  0  0  0  0  0  0  0
  126.1700  123.0000   56.4400 C   0  0  0  0  0  0  0  0  0  0  0  0
  126.0660  122.6660   54.9630 C   0  0  0  0  0  0  0  0  0  0  0  0
  125.2330  123.8260   57.0560 C   0  0  0  0  0  0  0  0  0  0  0  0
  125.3510  124.1260   58.4180 C   0  0  0  0  0  0  0  0  0  0  0  0
  124.3040  125.0340   59.0460 C   0  0  0  0  0  0  0  0  0  0  0  0
  126.4440  123.5590   59.1290 C   0  0  0  0  0  0  0  0  0  0  0  0
  126.8620  123.6560   60.5020 C   0  0  0  0  0  0  0  0  0  0  0  0
  126.1820  124.4090   61.4250 N   0  0  0  0  0  0  0  0  0  0  0  0
  130.3790  123.4560   64.9970 C   0  0  0  0  0  0  0  0  0  0  0  0
  130.8940  124.5890   65.6460 C   0  0  0  0  0  0  0  0  0  0  0  0
  130.2420  125.2570   66.6670 O   0  0  0  0  0  0  0  0  0  0  0  0
  129.6740  126.5380   66.4110 C   0  0  0  0  0  0  0  0  0  0  0  0
  132.1420  125.0880   65.2470 C   0  0  0  0  0  0  0  0  0  0  0  0
  132.6670  126.1860   65.8860 O   0  0  0  0  0  0  0  0  0  0  0  0
  133.5130  125.8670   66.9820 C   0  0  0  0  0  0  0  0  0  0  0  0
  1  2  1  0
  2  3  1  0
  3  4  2  0
  4  5  1  0
  5  6  1  0
  6  7  1  0
  7  8  1  0
  8  9  2  0
  8 10  1  0
 10 11  1  0
 11 12  1  0
 12 13  2  0
 13 14  1  0
 14 15  1  0
 14 16  2  0
 16 17  1  0
 17 18  1  0
 17 19  2  0
 19 20  1  0
 20 21  1  0
  5 22  2  0
 22 23  1  0
 23 24  1  0
 24 25  1  0
 23 26  2  0
 26 27  1  0
 27 28  1  0
 26  3  1  0
 20 10  2  0
 19 12  1  0
M  END
>  <Binding energies>  (44) 
[-6.98]

>  <Ligand effiencies>  (44) 
[-0.22516129032258067]

>  <Interactions>  (44) 
["V-A:ASP:366:CG:3212, V-B:TYR:539:CZ:9848, H-B:GLU:543:OE2:9881, V-B:LEU:363:CD1:8160, V-B:PRO:540:N:9855, V-B:PRO:540:CA:9854, V-B:ALA:541:CB:9863, V-B:MET:535:CE:9806, V-B:TYR:539:C:9838, V-B:PRO:540:CB:9856, H-B:ASP:366:OD2:8186, V-B:ASP:366:CG:8184, V-B:GLU:543:CD:9879, V-A:GLU:543:CD:4908, V-B:ASP:366:CB:8183, V-B:TYR:539:CD2:9845, V-B:LEU:363:CA:8156, V-B:TYR:539:CE2:9847, V-A:LEU:475:CD2:4258, V-B:ILE:538:CD1:9836, V-B:ILE:538:CA:9831, V-B:TYR:539:CG:9843, V-A:ILE:369:CD1:3238, V-B:GLU:543:CG:9878, H-A:ARG:545:NH2:4928, H-A:GLY:454:N:4049, V-A:ARG:545:CZ:4926, H-A:ARG:545:NE:4924, H-A:TYR:484:OH:4347, H-A:ARG:545:NH1:4927, V-A:HIS:456:CE1:4069, V-A:ARG:545:CD:4923, V-A:ARG:545:CG:4922, V-A:TYR:484:CE1:4344, V-A:TYR:484:CZ:4346, V-A:GLY:453:CA:4043, V-A:GLY:453:C:4041, V-A:LEU:475:CD1:4257"]

$$$$
4ai_Grossjean_2025
     RDKit          3D

 20 22  0  0  0  0  0  0  0  0999 V2000
  126.3680  122.1390   54.3960 C   0  0  0  0  0  0  0  0  0  0  0  0
  126.2130  122.6580   55.8140 C   0  0  0  0  0  0  0  0  0  0  0  0
  125.1870  123.5410   56.1460 C   0  0  0  0  0  0  0  0  0  0  0  0
  125.0600  124.0030   57.4610 C   0  0  0  0  0  0  0  0  0  0  0  0
  123.9220  124.9630   57.7750 C   0  0  0  0  0  0  0  0  0  0  0  0
  126.0010  123.5410   58.4210 C   0  0  0  0  0  0  0  0  0  0  0  0
  126.1620  123.8040   59.8250 C   0  0  0  0  0  0  0  0  0  0  0  0
  125.3260  124.6480   60.5130 N   0  0  0  0  0  0  0  0  0  0  0  0
  127.2370  123.1200   60.4150 C   0  0  0  0  0  0  0  0  0  0  0  0
  127.6910  123.1630   61.8060 C   0  0  0  0  0  0  0  0  0  0  0  0
  126.8790  123.2240   62.7310 O   0  0  0  0  0  0  0  0  0  0  0  0
  129.0360  123.1120   61.9800 N   0  0  0  0  0  0  0  0  0  0  0  0
  129.7320  123.1260   63.1820 C   0  0  0  0  0  0  0  0  0  0  0  0
  129.6720  124.1860   64.0860 C   0  0  0  0  0  0  0  0  0  0  0  0
  130.4920  123.8170   65.1270 C   0  0  0  0  0  0  0  0  0  0  0  0
  131.0190  122.5970   64.8650 O   0  0  0  0  0  0  0  0  0  0  0  0
  130.5290  122.1680   63.6300 N   0  0  0  0  0  0  0  0  0  0  0  0
  128.0990  122.1430   59.2240 S   0  0  0  0  0  0  0  0  0  0  0  0
  127.0040  122.6390   57.9530 C   0  0  0  0  0  0  0  0  0  0  0  0
  127.1290  122.1980   56.7010 N   0  0  0  0  0  0  0  0  0  0  0  0
  1  2  1  0
  2  3  2  0
  3  4  1  0
  4  5  1  0
  4  6  2  0
  6  7  1  0
  7  8  1  0
  7  9  2  0
  9 10  1  0
 10 11  2  0
 10 12  1  0
 12 13  1  0
 13 14  1  0
 14 15  2  0
 15 16  1  0
 16 17  1  0
  9 18  1  0
 18 19  1  0
 19 20  2  0
 20  2  1  0
 19  6  1  0
 17 13  2  0
M  END
>  <Binding energies>  (45) 
[-6.9]

>  <Ligand effiencies>  (45) 
[-0.3]

>  <Interactions>  (45) 
["H-B:GLU:543:OE2:9881, V-B:LEU:363:CD1:8160, V-B:PRO:540:N:9855, V-B:PRO:540:CA:9854, V-B:ALA:541:CB:9863, V-B:MET:535:CE:9806, V-B:TYR:539:C:9838, V-B:TYR:539:CE1:9846, V-B:TYR:539:CD1:9844, V-B:PRO:540:CB:9856, H-B:ASP:366:OD2:8186, V-B:GLU:543:CD:9879, V-B:ASP:366:CB:8183, V-B:TYR:539:CD2:9845, V-B:PRO:540:C:9852, H-B:TYR:539:N:9841, V-B:LEU:363:CA:8156, V-B:TYR:539:CE2:9847, V-B:TYR:531:CZ:9765, V-B:TYR:531:CE2:9764, V-B:ILE:538:CD1:9836, H-B:ALA:541:N:9862, V-B:ILE:538:CA:9831, V-B:ILE:538:CB:9833, V-B:ILE:538:C:9829, V-B:VAL:537:C:9821, V-B:ALA:541:CA:9861, V-B:GLU:543:CG:9878, H-A:TYR:484:OH:4347"]

$$$$
4aj_Grossjean_2025
     RDKit          3D

 20 22  0  0  0  0  0  0  0  0999 V2000
  126.6730  122.0940   54.5260 C   0  0  0  0  0  0  0  0  0  0  0  0
  126.3860  122.6100   55.9240 C   0  0  0  0  0  0  0  0  0  0  0  0
  125.2730  123.4080   56.1780 C   0  0  0  0  0  0  0  0  0  0  0  0
  125.0300  123.8780   57.4740 C   0  0  0  0  0  0  0  0  0  0  0  0
  123.8010  124.7450   57.7010 C   0  0  0  0  0  0  0  0  0  0  0  0
  125.9470  123.5130   58.4950 C   0  0  0  0  0  0  0  0  0  0  0  0
  126.0030  123.8130   59.9010 C   0  0  0  0  0  0  0  0  0  0  0  0
  125.0610  124.5920   60.5220 N   0  0  0  0  0  0  0  0  0  0  0  0
  127.0960  123.2340   60.5640 C   0  0  0  0  0  0  0  0  0  0  0  0
  127.4640  123.3380   61.9770 C   0  0  0  0  0  0  0  0  0  0  0  0
  126.6220  123.1650   62.8610 O   0  0  0  0  0  0  0  0  0  0  0  0
  128.7680  123.6180   62.2200 N   0  0  0  0  0  0  0  0  0  0  0  0
  129.3740  123.7570   63.4620 C   0  0  0  0  0  0  0  0  0  0  0  0
  129.4750  122.8570   64.4160 N   0  0  0  0  0  0  0  0  0  0  0  0
  130.1210  123.3330   65.4640 C   0  0  0  0  0  0  0  0  0  0  0  0
  130.5590  124.6510   65.3710 C   0  0  0  0  0  0  0  0  0  0  0  0
  130.0960  125.2920   63.8220 S   0  0  0  0  0  0  0  0  0  0  0  0
  128.1010  122.3070   59.4470 S   0  0  0  0  0  0  0  0  0  0  0  0
  127.0460  122.6890   58.1050 C   0  0  0  0  0  0  0  0  0  0  0  0
  127.2810  122.2400   56.8720 N   0  0  0  0  0  0  0  0  0  0  0  0
  1  2  1  0
  2  3  2  0
  3  4  1  0
  4  5  1  0
  4  6  2  0
  6  7  1  0
  7  8  1  0
  7  9  2  0
  9 10  1  0
 10 11  2  0
 10 12  1  0
 12 13  1  0
 13 14  2  0
 14 15  1  0
 15 16  2  0
 16 17  1  0
  9 18  1  0
 18 19  1  0
 19 20  2  0
 20  2  1  0
 19  6  1  0
 17 13  1  0
M  END
>  <Binding energies>  (46) 
[-7.01]

>  <Ligand effiencies>  (46) 
[-0.30478260869565216]

>  <Interactions>  (46) 
["H-B:GLU:543:OE2:9881, V-B:LEU:363:CD1:8160, V-B:PRO:540:N:9855, V-B:PRO:540:CA:9854, V-B:ALA:541:CB:9863, V-B:MET:535:CE:9806, V-B:TYR:539:C:9838, V-B:TYR:539:CE1:9846, V-B:TYR:539:CD1:9844, V-B:PRO:540:CB:9856, H-B:ASP:366:OD2:8186, V-B:ASP:366:CG:8184, V-B:ASP:366:CB:8183, V-B:TYR:539:CD2:9845, V-B:PRO:540:C:9852, H-B:TYR:539:N:9841, V-B:LEU:363:CA:8156, V-B:TYR:539:CE2:9847, V-B:TYR:531:CZ:9765, V-B:TYR:531:CE2:9764, V-B:ILE:538:CD1:9836, H-B:ALA:541:N:9862, V-B:ILE:538:CA:9831, V-B:ILE:538:C:9829, V-B:VAL:537:C:9821, V-B:GLU:543:CG:9878, V-A:TYR:484:CE1:4344, V-A:TYR:484:CZ:4346"]

$$$$
4ak_Grossjean_2025
     RDKit          3D

 25 26  0  0  0  0  0  0  0  0999 V2000
  131.9830  124.7240   60.3450 C   0  0  0  0  0  0  0  0  0  0  0  0
  131.9400  123.5270   61.1070 O   0  0  0  0  0  0  0  0  0  0  0  0
  133.0810  123.3430   61.9370 C   0  0  0  0  0  0  0  0  0  0  0  0
  133.4980  124.6910   62.5390 C   0  0  0  0  0  0  0  0  0  0  0  0
  133.8540  124.5080   63.9030 O   0  0  0  0  0  0  0  0  0  0  0  0
  132.9390  125.0950   64.8190 C   0  0  0  0  0  0  0  0  0  0  0  0
  131.6470  125.4640   64.0800 C   0  0  0  0  0  0  0  0  0  0  0  0
  130.5340  125.2100   64.9250 O   0  0  0  0  0  0  0  0  0  0  0  0
  129.4190  124.6410   64.2510 C   0  0  0  0  0  0  0  0  0  0  0  0
  129.9010  123.4830   63.3580 C   0  0  0  0  0  0  0  0  0  0  0  0
  129.2040  123.4050   62.0740 N   0  0  0  0  0  0  0  0  0  0  0  0
  127.8750  123.2480   61.9160 C   0  0  0  0  0  0  0  0  0  0  0  0
  127.1000  123.1750   62.8710 O   0  0  0  0  0  0  0  0  0  0  0  0
  127.3950  123.1760   60.5370 C   0  0  0  0  0  0  0  0  0  0  0  0
  128.2550  122.2040   59.3440 S   0  0  0  0  0  0  0  0  0  0  0  0
  127.1060  122.6330   58.0970 C   0  0  0  0  0  0  0  0  0  0  0  0
  127.2180  122.1780   56.8480 N   0  0  0  0  0  0  0  0  0  0  0  0
  126.2620  122.5890   55.9790 C   0  0  0  0  0  0  0  0  0  0  0  0
  126.4060  122.0600   54.5630 C   0  0  0  0  0  0  0  0  0  0  0  0
  125.2090  123.4320   56.3260 C   0  0  0  0  0  0  0  0  0  0  0  0
  125.0940  123.9060   57.6380 C   0  0  0  0  0  0  0  0  0  0  0  0
  123.9300  124.8270   57.9670 C   0  0  0  0  0  0  0  0  0  0  0  0
  126.0780  123.4990   58.5780 C   0  0  0  0  0  0  0  0  0  0  0  0
  126.2640  123.7880   59.9740 C   0  0  0  0  0  0  0  0  0  0  0  0
  125.4050  124.5950   60.6770 N   0  0  0  0  0  0  0  0  0  0  0  0
  1  2  1  0
  2  3  1  0
  3  4  1  0
  4  5  1  0
  5  6  1  0
  6  7  1  0
  7  8  1  0
  8  9  1  0
  9 10  1  0
 10 11  1  0
 11 12  1  0
 12 13  2  0
 12 14  1  0
 14 15  1  0
 15 16  1  0
 16 17  2  0
 17 18  1  0
 18 19  1  0
 18 20  2  0
 20 21  1  0
 21 22  1  0
 21 23  2  0
 23 24  1  0
 24 25  1  0
 24 14  2  0
 23 16  1  0
M  END
>  <Binding energies>  (47) 
[-6.18]

>  <Ligand effiencies>  (47) 
[-0.2207142857142857]

>  <Interactions>  (47) 
["H-B:GLU:543:OE2:9881, V-B:LEU:363:CD1:8160, V-B:PRO:540:N:9855, V-B:PRO:540:CA:9854, V-B:ALA:541:CB:9863, V-B:MET:535:CE:9806, V-B:TYR:539:C:9838, V-B:TYR:539:CE1:9846, V-B:TYR:539:CD1:9844, V-B:PRO:540:CB:9856, H-B:ASP:366:OD2:8186, V-B:GLU:543:CD:9879, V-B:ASP:366:CB:8183, V-B:TYR:539:CD2:9845, H-B:TYR:539:N:9841, V-B:LEU:363:CA:8156, V-B:TYR:539:CE2:9847, V-B:TYR:531:CZ:9765, V-B:TYR:531:CE2:9764, V-A:ILE:369:CG2:3236, V-B:ILE:538:CD1:9836, H-B:ALA:541:N:9862, V-B:ILE:538:CA:9831, V-B:ILE:538:CB:9833, V-B:ILE:538:C:9829, V-A:ILE:369:CD1:3238, V-B:GLU:543:CG:9878, H-A:GLY:454:N:4049, V-A:ARG:545:CZ:4926"]

$$$$
4al_Grossjean_2025
     RDKit          3D

 16 17  0  0  0  0  0  0  0  0999 V2000
  129.4880  123.8000   63.1770 C   0  0  0  0  0  0  0  0  0  0  0  0
  128.9130  123.3280   61.9670 O   0  0  0  0  0  0  0  0  0  0  0  0
  127.5660  123.2170   61.8320 C   0  0  0  0  0  0  0  0  0  0  0  0
  126.7800  123.1680   62.7810 O   0  0  0  0  0  0  0  0  0  0  0  0
  127.1320  123.1590   60.4190 C   0  0  0  0  0  0  0  0  0  0  0  0
  128.0470  122.1990   59.2540 S   0  0  0  0  0  0  0  0  0  0  0  0
  126.9530  122.6450   57.9650 C   0  0  0  0  0  0  0  0  0  0  0  0
  127.1160  122.2020   56.7180 N   0  0  0  0  0  0  0  0  0  0  0  0
  126.1980  122.6230   55.8120 C   0  0  0  0  0  0  0  0  0  0  0  0
  126.4020  122.1080   54.3990 C   0  0  0  0  0  0  0  0  0  0  0  0
  125.1330  123.4670   56.1220 C   0  0  0  0  0  0  0  0  0  0  0  0
  124.9650  123.9290   57.4320 C   0  0  0  0  0  0  0  0  0  0  0  0
  123.7890  124.8480   57.7220 C   0  0  0  0  0  0  0  0  0  0  0  0
  125.9080  123.5090   58.4090 C   0  0  0  0  0  0  0  0  0  0  0  0
  126.0360  123.7850   59.8130 C   0  0  0  0  0  0  0  0  0  0  0  0
  125.1580  124.5910   60.4900 N   0  0  0  0  0  0  0  0  0  0  0  0
  1  2  1  0
  2  3  1  0
  3  4  2  0
  3  5  1  0
  5  6  1  0
  6  7  1  0
  7  8  2  0
  8  9  1  0
  9 10  1  0
  9 11  2  0
 11 12  1  0
 12 13  1  0
 12 14  2  0
 14 15  1  0
 15 16  1  0
 15  5  2  0
 14  7  1  0
M  END
>  <Binding energies>  (48) 
[-6.03]

>  <Ligand effiencies>  (48) 
[-0.335]

>  <Interactions>  (48) 
["H-B:GLU:543:OE2:9881, V-B:LEU:363:CD1:8160, V-B:PRO:540:N:9855, V-B:PRO:540:CA:9854, V-B:ALA:541:CB:9863, V-B:MET:535:CE:9806, V-B:TYR:539:C:9838, V-B:TYR:539:CE1:9846, V-B:TYR:539:CD1:9844, V-B:PRO:540:CB:9856, H-B:ASP:366:OD2:8186, V-B:ASP:366:CB:8183, V-B:TYR:539:CD2:9845, V-B:PRO:540:C:9852, H-B:TYR:539:N:9841, V-B:LEU:363:CA:8156, V-B:TYR:539:CE2:9847, V-B:TYR:531:CZ:9765, V-B:TYR:531:CE2:9764, V-B:ILE:538:CD1:9836, H-B:ALA:541:N:9862, V-B:ILE:538:CA:9831, V-B:ILE:538:CB:9833, V-B:ILE:538:C:9829, V-B:VAL:537:C:9821, V-B:ALA:541:CA:9861"]

$$$$
4bc_Grossjean_2025
     RDKit          3D

 26 28  0  0  0  0  0  0  0  0999 V2000
  133.5070  125.4360   66.5920 C   0  0  0  0  0  0  0  0  0  0  0  0
  133.8390  124.6650   65.4430 O   0  0  0  0  0  0  0  0  0  0  0  0
  132.8440  124.3350   64.5430 C   0  0  0  0  0  0  0  0  0  0  0  0
  132.7670  125.1110   63.3870 C   0  0  0  0  0  0  0  0  0  0  0  0
  131.7970  124.8540   62.4220 C   0  0  0  0  0  0  0  0  0  0  0  0
  130.8910  123.8060   62.5980 C   0  0  0  0  0  0  0  0  0  0  0  0
  129.9370  123.6320   61.5790 N   0  0  0  0  0  0  0  0  0  0  0  0
  128.6020  123.4200   61.6820 C   0  0  0  0  0  0  0  0  0  0  0  0
  128.0040  123.3090   62.7530 O   0  0  0  0  0  0  0  0  0  0  0  0
  127.8810  123.3170   60.4090 C   0  0  0  0  0  0  0  0  0  0  0  0
  128.5050  122.2950   59.1160 S   0  0  0  0  0  0  0  0  0  0  0  0
  127.1690  122.7210   58.0730 C   0  0  0  0  0  0  0  0  0  0  0  0
  127.0610  122.2210   56.8420 N   0  0  0  0  0  0  0  0  0  0  0  0
  125.9850  122.6250   56.1290 C   0  0  0  0  0  0  0  0  0  0  0  0
  125.8780  122.0410   54.7320 C   0  0  0  0  0  0  0  0  0  0  0  0
  125.0230  123.5090   56.6120 C   0  0  0  0  0  0  0  0  0  0  0  0
  125.1320  124.0390   57.9070 C   0  0  0  0  0  0  0  0  0  0  0  0
  124.0500  125.0100   58.3940 C   0  0  0  0  0  0  0  0  0  0  0  0
  122.9730  125.0280   57.6060 F   0  0  0  0  0  0  0  0  0  0  0  0
  123.6470  124.6600   59.6140 F   0  0  0  0  0  0  0  0  0  0  0  0
  124.5390  126.2500   58.4290 F   0  0  0  0  0  0  0  0  0  0  0  0
  126.2550  123.6320   58.6870 C   0  0  0  0  0  0  0  0  0  0  0  0
  126.6890  123.9520   60.0250 C   0  0  0  0  0  0  0  0  0  0  0  0
  125.9930  124.8020   60.8460 N   0  0  0  0  0  0  0  0  0  0  0  0
  130.9530  123.0290   63.7650 C   0  0  0  0  0  0  0  0  0  0  0  0
  131.9240  123.2900   64.7270 C   0  0  0  0  0  0  0  0  0  0  0  0
  1  2  1  0
  2  3  1  0
  3  4  2  0
  4  5  1  0
  5  6  2  0
  6  7  1  0
  7  8  1  0
  8  9  2  0
  8 10  1  0
 10 11  1  0
 11 12  1  0
 12 13  2  0
 13 14  1  0
 14 15  1  0
 14 16  2  0
 16 17  1  0
 17 18  1  0
 18 19  1  0
 18 20  1  0
 18 21  1  0
 17 22  2  0
 22 23  1  0
 23 24  1  0
  6 25  1  0
 25 26  2  0
 26  3  1  0
 23 10  2  0
 22 12  1  0
M  END
>  <Binding energies>  (49) 
[-7.09]

>  <Ligand effiencies>  (49) 
[-0.24448275862068966]

>  <Interactions>  (49) 
["V-B:TYR:539:CZ:9848, H-B:GLU:543:OE2:9881, V-B:LEU:363:CD1:8160, V-B:PRO:540:N:9855, V-B:PRO:540:CA:9854, V-B:ALA:541:CB:9863, V-B:MET:535:CE:9806, V-B:TYR:539:C:9838, V-B:PRO:540:CB:9856, H-B:ASP:366:OD2:8186, V-B:ASP:366:CG:8184, V-B:ASP:366:CB:8183, V-B:TYR:539:CD2:9845, H-B:TYR:539:N:9841, V-B:LEU:363:CA:8156, V-B:TYR:539:CE2:9847, V-B:TYR:531:CZ:9765, V-B:TYR:531:CE2:9764, V-B:PRO:540:CD:9858, V-B:ILE:538:CD1:9836, V-B:ILE:538:CG2:9834, V-B:LEU:363:CB:8158, H-B:ALA:541:N:9862, V-B:ILE:538:CA:9831, V-B:ILE:538:CB:9833, V-B:TYR:539:CG:9843, V-B:ILE:538:C:9829, V-B:ASN:362:C:8143, H-A:GLY:454:N:4049, V-A:ARG:545:CZ:4926, H-A:TYR:484:OH:4347, V-A:HIS:456:CE1:4069, V-A:ARG:545:CD:4923, V-A:ARG:545:CG:4922, V-A:GLY:454:CA:4048, V-A:TYR:484:CZ:4346, V-B:ILE:538:CG1:9835, V-B:LEU:363:CG:8159, V-B:LEU:363:C:8154"]

$$$$
4bf_Grossjean_2025
     RDKit          3D

 24 26  0  0  0  0  0  0  0  0999 V2000
  126.8510  122.0580   54.7910 C   0  0  0  0  0  0  0  0  0  0  0  0
  126.8010  123.3060   55.6540 C   0  0  0  0  0  0  0  0  0  0  0  0
  125.8450  123.4460   56.6570 C   0  0  0  0  0  0  0  0  0  0  0  0
  125.8070  124.6070   57.4450 C   0  0  0  0  0  0  0  0  0  0  0  0
  124.7360  124.7180   58.5350 C   0  0  0  0  0  0  0  0  0  0  0  0
  123.8630  125.7030   58.3100 F   0  0  0  0  0  0  0  0  0  0  0  0
  124.0440  123.5800   58.6060 F   0  0  0  0  0  0  0  0  0  0  0  0
  125.3130  124.9570   59.7130 F   0  0  0  0  0  0  0  0  0  0  0  0
  126.7800  125.6140   57.1710 C   0  0  0  0  0  0  0  0  0  0  0  0
  127.0450  126.9070   57.7530 C   0  0  0  0  0  0  0  0  0  0  0  0
  126.3070  127.4150   58.7910 N   0  0  0  0  0  0  0  0  0  0  0  0
  128.1230  127.5910   57.1670 C   0  0  0  0  0  0  0  0  0  0  0  0
  128.6410  128.9240   57.4870 C   0  0  0  0  0  0  0  0  0  0  0  0
  128.1020  129.6160   58.3510 O   0  0  0  0  0  0  0  0  0  0  0  0
  129.7350  129.3060   56.7830 N   0  0  0  0  0  0  0  0  0  0  0  0
  130.4390  130.5250   56.8120 C   0  0  0  0  0  0  0  0  0  0  0  0
  131.7900  130.6780   57.1720 C   0  0  0  0  0  0  0  0  0  0  0  0
  132.3650  131.9510   57.1740 C   0  0  0  0  0  0  0  0  0  0  0  0
  131.5720  133.0420   56.8190 C   0  0  0  0  0  0  0  0  0  0  0  0
  130.2650  132.9230   56.4750 N   0  0  0  0  0  0  0  0  0  0  0  0
  129.7200  131.6790   56.4780 C   0  0  0  0  0  0  0  0  0  0  0  0
  128.8430  126.6480   55.8640 S   0  0  0  0  0  0  0  0  0  0  0  0
  127.7040  125.3450   56.1140 C   0  0  0  0  0  0  0  0  0  0  0  0
  127.7370  124.2410   55.3690 N   0  0  0  0  0  0  0  0  0  0  0  0
  1  2  1  0
  2  3  2  0
  3  4  1  0
  4  5  1  0
  5  6  1  0
  5  7  1  0
  5  8  1  0
  4  9  2  0
  9 10  1  0
 10 11  1  0
 10 12  2  0
 12 13  1  0
 13 14  2  0
 13 15  1  0
 15 16  1  0
 16 17  2  0
 17 18  1  0
 18 19  2  0
 19 20  1  0
 20 21  2  0
 12 22  1  0
 22 23  1  0
 23 24  2  0
 24  2  1  0
 23  9  1  0
 21 16  1  0
M  END
>  <Binding energies>  (50) 
[-6.59]

>  <Ligand effiencies>  (50) 
[-0.24407407407407408]

>  <Interactions>  (50) 
["V-A:LEU:363:CD1:3188, V-A:TYR:531:CE2:4793, V-A:PRO:540:CA:4883, V-A:PRO:540:CD:4887, V-A:TYR:531:CZ:4794, V-A:PRO:540:CB:4885, V-A:PRO:540:N:4884, V-A:TYR:539:C:4867, H-A:TYR:539:N:4870, V-A:ILE:538:CB:4862, V-B:LEU:363:CD1:8160, V-B:PRO:540:CA:9854, V-B:MET:535:CE:9806, V-B:TYR:539:CE1:9846, V-B:TYR:539:CD1:9844, V-B:PRO:540:CB:9856, H-B:ASP:366:OD2:8186, V-B:ASP:366:CG:8184, V-A:MET:535:CE:4835, H-B:TYR:531:OH:9766, V-B:ASP:366:CB:8183, V-B:LEU:363:CA:8156, V-B:TYR:531:CZ:9765, V-B:TYR:531:CE2:9764, H-A:TYR:531:OH:4795, V-B:ILE:538:CD1:9836, V-B:LEU:363:CB:8158, V-B:ILE:538:CA:9831, V-B:ILE:538:C:9829"]

$$$$
4bh_Grossjean_2025
     RDKit          3D

 31 33  0  0  0  0  0  0  0  0999 V2000
  123.6750  131.0450   62.3490 C   0  0  0  0  0  0  0  0  0  0  0  0
  123.7410  131.2610   63.7540 O   0  0  0  0  0  0  0  0  0  0  0  0
  124.9550  131.1350   64.4050 C   0  0  0  0  0  0  0  0  0  0  0  0
  126.1050  131.8640   64.0650 C   0  0  0  0  0  0  0  0  0  0  0  0
  127.2990  131.6850   64.7640 C   0  0  0  0  0  0  0  0  0  0  0  0
  128.5250  132.5180   64.4110 C   0  0  0  0  0  0  0  0  0  0  0  0
  128.8140  132.5520   62.9770 N   0  0  0  0  0  0  0  0  0  0  0  0
  130.0160  132.3050   62.4150 C   0  0  0  0  0  0  0  0  0  0  0  0
  131.0220  132.0580   63.0840 O   0  0  0  0  0  0  0  0  0  0  0  0
  130.0740  132.3900   60.9560 C   0  0  0  0  0  0  0  0  0  0  0  0
  128.7720  133.1750   60.0670 S   0  0  0  0  0  0  0  0  0  0  0  0
  129.5440  132.8210   58.5390 C   0  0  0  0  0  0  0  0  0  0  0  0
  129.0010  133.1970   57.3820 N   0  0  0  0  0  0  0  0  0  0  0  0
  129.6920  132.8680   56.2670 C   0  0  0  0  0  0  0  0  0  0  0  0
  129.0540  133.3040   54.9590 C   0  0  0  0  0  0  0  0  0  0  0  0
  130.9030  132.1810   56.2800 C   0  0  0  0  0  0  0  0  0  0  0  0
  131.4800  131.7810   57.4950 C   0  0  0  0  0  0  0  0  0  0  0  0
  132.8150  131.0290   57.4610 C   0  0  0  0  0  0  0  0  0  0  0  0
  133.7280  131.5470   58.2850 F   0  0  0  0  0  0  0  0  0  0  0  0
  132.6280  129.7600   57.8200 F   0  0  0  0  0  0  0  0  0  0  0  0
  133.3210  131.0680   56.2280 F   0  0  0  0  0  0  0  0  0  0  0  0
  130.7750  132.1090   58.6910 C   0  0  0  0  0  0  0  0  0  0  0  0
  131.0430  131.8660   60.0870 C   0  0  0  0  0  0  0  0  0  0  0  0
  132.1530  131.1890   60.5230 N   0  0  0  0  0  0  0  0  0  0  0  0
  127.3410  130.7890   65.8340 C   0  0  0  0  0  0  0  0  0  0  0  0
  126.2090  130.0410   66.1910 C   0  0  0  0  0  0  0  0  0  0  0  0
  126.1830  129.1260   67.2290 O   0  0  0  0  0  0  0  0  0  0  0  0
  127.3860  128.4630   67.6050 C   0  0  0  0  0  0  0  0  0  0  0  0
  125.0230  130.2190   65.4640 C   0  0  0  0  0  0  0  0  0  0  0  0
  123.9010  129.5060   65.8150 O   0  0  0  0  0  0  0  0  0  0  0  0
  123.4180  129.7940   67.1210 C   0  0  0  0  0  0  0  0  0  0  0  0
  1  2  1  0
  2  3  1  0
  3  4  2  0
  4  5  1  0
  5  6  1  0
  6  7  1  0
  7  8  1  0
  8  9  2  0
  8 10  1  0
 10 11  1  0
 11 12  1  0
 12 13  2  0
 13 14  1  0
 14 15  1  0
 14 16  2  0
 16 17  1  0
 17 18  1  0
 18 19  1  0
 18 20  1  0
 18 21  1  0
 17 22  2  0
 22 23  1  0
 23 24  1  0
  5 25  2  0
 25 26  1  0
 26 27  1  0
 27 28  1  0
 26 29  2  0
 29 30  1  0
 30 31  1  0
 29  3  1  0
 23 10  2  0
 22 12  1  0
M  END
>  <Binding energies>  (51) 
[-6.63]

>  <Ligand effiencies>  (51) 
[-0.195]

>  <Interactions>  (51) 
["V-A:TYR:539:CD1:4873, V-A:TYR:539:CG:4872, V-A:ILE:538:C:4858, V-A:TYR:539:CZ:4877, V-A:TYR:539:CE1:4875, V-A:LEU:363:CD1:3188, V-A:TYR:531:CE2:4793, V-A:PRO:540:CA:4883, V-A:ASP:366:CB:3211, H-A:GLU:543:OE1:4909, V-A:TYR:531:CZ:4794, V-A:PRO:540:CB:4885, V-A:PRO:540:N:4884, V-A:TYR:539:CD2:4874, V-A:ILE:538:CA:4860, V-A:ASP:366:CG:3212, V-A:TYR:539:C:4867, H-A:ASP:366:OD2:3214, H-A:TYR:539:N:4870, V-A:ILE:538:CB:4862, V-B:GLY:454:CA:9020, V-B:ASP:366:CG:8184, V-B:ARG:545:CD:9894, V-A:ALA:541:CB:4892, H-B:TYR:484:OH:9319, V-B:LEU:475:CD1:9229, V-B:ILE:369:CD1:8210, H-B:GLY:454:N:9021, V-B:GLY:453:C:9013, V-B:GLU:543:CD:9879, V-B:ARG:545:CG:9893, V-A:MET:535:CE:4835, H-A:ALA:541:N:4891, V-B:HIS:456:CE1:9041, V-B:GLY:454:C:9018, V-A:GLU:543:CG:4907, V-A:LEU:363:CA:3184, V-A:LEU:363:CB:3186, H-B:ARG:545:NH2:9899, H-B:ARG:545:NE:9895, V-A:ALA:541:CA:4890, H-B:ARG:545:NH1:9898, V-A:TYR:531:CD2:4791, V-A:LEU:363:CG:3187"]

$$$$
4bi_Grossjean_2025
     RDKit          3D

 23 25  0  0  0  0  0  0  0  0999 V2000
  126.6750  122.5040   56.4380 C   0  0  0  0  0  0  0  0  0  0  0  0
  126.9460  122.8080   57.9010 C   0  0  0  0  0  0  0  0  0  0  0  0
  125.9270  123.2430   58.7440 C   0  0  0  0  0  0  0  0  0  0  0  0
  126.1910  123.5170   60.0960 C   0  0  0  0  0  0  0  0  0  0  0  0
  125.0350  123.9850   60.9870 C   0  0  0  0  0  0  0  0  0  0  0  0
  125.3300  125.0810   61.6910 F   0  0  0  0  0  0  0  0  0  0  0  0
  123.9720  124.2690   60.2350 F   0  0  0  0  0  0  0  0  0  0  0  0
  124.7170  123.0250   61.8560 F   0  0  0  0  0  0  0  0  0  0  0  0
  127.5310  123.3330   60.5490 C   0  0  0  0  0  0  0  0  0  0  0  0
  128.1660  123.5120   61.8310 C   0  0  0  0  0  0  0  0  0  0  0  0
  127.4880  123.9470   62.9410 N   0  0  0  0  0  0  0  0  0  0  0  0
  129.5350  123.1960   61.8430 C   0  0  0  0  0  0  0  0  0  0  0  0
  130.4810  123.2740   62.9600 C   0  0  0  0  0  0  0  0  0  0  0  0
  130.5830  122.3470   63.7650 O   0  0  0  0  0  0  0  0  0  0  0  0
  131.2230  124.4090   63.0160 N   0  0  0  0  0  0  0  0  0  0  0  0
  132.1940  124.7380   63.9520 C   0  0  0  0  0  0  0  0  0  0  0  0
  131.8950  125.2700   65.2050 C   0  0  0  0  0  0  0  0  0  0  0  0
  133.1140  125.4530   65.8180 C   0  0  0  0  0  0  0  0  0  0  0  0
  134.0970  125.0520   64.9760 O   0  0  0  0  0  0  0  0  0  0  0  0
  133.5000  124.6010   63.7960 N   0  0  0  0  0  0  0  0  0  0  0  0
  130.0850  122.6870   60.2480 S   0  0  0  0  0  0  0  0  0  0  0  0
  128.4810  122.8830   59.5820 C   0  0  0  0  0  0  0  0  0  0  0  0
  128.2250  122.6230   58.3000 N   0  0  0  0  0  0  0  0  0  0  0  0
  1  2  1  0
  2  3  2  0
  3  4  1  0
  4  5  1  0
  5  6  1  0
  5  7  1  0
  5  8  1  0
  4  9  2  0
  9 10  1  0
 10 11  1  0
 10 12  2  0
 12 13  1  0
 13 14  2  0
 13 15  1  0
 15 16  1  0
 16 17  1  0
 17 18  2  0
 18 19  1  0
 19 20  1  0
 12 21  1  0
 21 22  1  0
 22 23  2  0
 23  2  1  0
 22  9  1  0
 20 16  2  0
M  END
>  <Binding energies>  (52) 
[-6.66]

>  <Ligand effiencies>  (52) 
[-0.2561538461538462]

>  <Interactions>  (52) 
["H-B:GLU:543:OE2:9881, V-B:PRO:540:N:9855, V-B:PRO:540:CA:9854, V-B:ALA:541:CB:9863, V-B:TYR:539:C:9838, V-B:TYR:539:CE1:9846, V-B:TYR:539:CD1:9844, V-B:PRO:540:CB:9856, V-B:ASP:366:CG:8184, V-B:GLU:543:CD:9879, V-B:ARG:545:CZ:9897, V-B:TYR:539:CD2:9845, V-B:PRO:540:C:9852, V-B:LEU:363:CA:8156, V-B:TYR:539:CE2:9847, V-B:ASN:362:C:8143, V-B:ASN:362:CB:8147, V-B:ALA:541:C:9859, V-B:GLU:543:CG:9878, H-A:GLY:454:N:4049, V-A:ARG:545:CZ:4926, H-A:ARG:545:NE:4924, H-A:TYR:484:OH:4347, H-A:ARG:545:NH1:4927, V-A:ARG:545:CD:4923"]

$$$$
4bj_Grossjean_2025
     RDKit          3D

 23 25  0  0  0  0  0  0  0  0999 V2000
  126.0900  122.1890   54.5410 C   0  0  0  0  0  0  0  0  0  0  0  0
  126.0550  122.6660   55.9810 C   0  0  0  0  0  0  0  0  0  0  0  0
  125.0630  123.5360   56.4250 C   0  0  0  0  0  0  0  0  0  0  0  0
  125.0460  123.9740   57.7580 C   0  0  0  0  0  0  0  0  0  0  0  0
  123.9350  124.9340   58.2000 C   0  0  0  0  0  0  0  0  0  0  0  0
  122.9520  125.0410   57.3040 F   0  0  0  0  0  0  0  0  0  0  0  0
  123.3930  124.5040   59.3380 F   0  0  0  0  0  0  0  0  0  0  0  0
  124.4420  126.1530   58.3850 F   0  0  0  0  0  0  0  0  0  0  0  0
  126.0760  123.4890   58.6180 C   0  0  0  0  0  0  0  0  0  0  0  0
  126.3810  123.7140   60.0100 C   0  0  0  0  0  0  0  0  0  0  0  0
  125.6280  124.5370   60.8090 N   0  0  0  0  0  0  0  0  0  0  0  0
  127.5060  123.0130   60.4710 C   0  0  0  0  0  0  0  0  0  0  0  0
  128.0980  123.0180   61.8110 C   0  0  0  0  0  0  0  0  0  0  0  0
  127.4060  123.2450   62.8060 O   0  0  0  0  0  0  0  0  0  0  0  0
  129.4250  122.7450   61.8630 N   0  0  0  0  0  0  0  0  0  0  0  0
  130.2180  122.6770   63.0000 C   0  0  0  0  0  0  0  0  0  0  0  0
  129.8460  122.8070   64.2550 N   0  0  0  0  0  0  0  0  0  0  0  0
  130.8660  122.6780   65.0800 C   0  0  0  0  0  0  0  0  0  0  0  0
  132.1040  122.4370   64.4940 C   0  0  0  0  0  0  0  0  0  0  0  0
  131.9120  122.3810   62.7670 S   0  0  0  0  0  0  0  0  0  0  0  0
  128.2410  122.0650   59.1810 S   0  0  0  0  0  0  0  0  0  0  0  0
  127.0310  122.5980   58.0380 C   0  0  0  0  0  0  0  0  0  0  0  0
  127.0440  122.1870   56.7710 N   0  0  0  0  0  0  0  0  0  0  0  0
  1  2  1  0
  2  3  2  0
  3  4  1  0
  4  5  1  0
  5  6  1  0
  5  7  1  0
  5  8  1  0
  4  9  2  0
  9 10  1  0
 10 11  1  0
 10 12  2  0
 12 13  1  0
 13 14  2  0
 13 15  1  0
 15 16  1  0
 16 17  2  0
 17 18  1  0
 18 19  2  0
 19 20  1  0
 12 21  1  0
 21 22  1  0
 22 23  2  0
 23  2  1  0
 22  9  1  0
 20 16  1  0
M  END
>  <Binding energies>  (53) 
[-6.31]

>  <Ligand effiencies>  (53) 
[-0.24269230769230768]

>  <Interactions>  (53) 
["H-B:GLU:543:OE2:9881, V-B:LEU:363:CD1:8160, V-B:PRO:540:N:9855, V-B:PRO:540:CA:9854, V-B:ALA:541:CB:9863, V-B:MET:535:CE:9806, V-B:TYR:539:C:9838, V-B:TYR:539:CD1:9844, V-B:PRO:540:CB:9856, H-B:ASP:366:OD2:8186, V-B:ASP:366:CG:8184, V-B:ASP:366:CB:8183, V-B:TYR:539:CD2:9845, V-B:PRO:540:C:9852, H-B:TYR:539:N:9841, V-B:LEU:363:CA:8156, V-B:TYR:539:CE2:9847, V-B:TYR:531:CZ:9765, V-B:TYR:531:CE2:9764, V-A:LEU:475:CD2:4258, V-B:ILE:538:CD1:9836, V-B:LEU:363:CB:8158, H-B:ALA:541:N:9862, V-B:ILE:538:CA:9831, V-B:ILE:538:CB:9833, V-B:TYR:539:CG:9843, V-B:ILE:538:C:9829, V-B:ASN:362:C:8143, V-A:GLY:454:CA:4048, V-A:TYR:484:CE1:4344, V-A:TYR:484:CZ:4346, V-B:LEU:363:CG:8159, V-B:LEU:363:C:8154, V-B:TYR:531:CD2:9762"]

$$$$
4bk_Grossjean_2025
     RDKit          3D

 28 29  0  0  0  0  0  0  0  0999 V2000
  127.4440  122.2490   57.2320 C   0  0  0  0  0  0  0  0  0  0  0  0
  126.3800  121.6740   56.4900 O   0  0  0  0  0  0  0  0  0  0  0  0
  125.3380  122.5940   56.1900 C   0  0  0  0  0  0  0  0  0  0  0  0
  125.8990  124.0210   56.1900 C   0  0  0  0  0  0  0  0  0  0  0  0
  125.5200  124.6780   57.3920 O   0  0  0  0  0  0  0  0  0  0  0  0
  124.3320  124.1620   57.9780 C   0  0  0  0  0  0  0  0  0  0  0  0
  124.2780  124.5620   59.4580 C   0  0  0  0  0  0  0  0  0  0  0  0
  123.5990  123.5530   60.1930 O   0  0  0  0  0  0  0  0  0  0  0  0
  124.2570  123.1770   61.3970 C   0  0  0  0  0  0  0  0  0  0  0  0
  125.1360  124.3430   61.8830 C   0  0  0  0  0  0  0  0  0  0  0  0
  126.5410  123.9800   62.0760 N   0  0  0  0  0  0  0  0  0  0  0  0
  127.2750  123.2310   61.2280 C   0  0  0  0  0  0  0  0  0  0  0  0
  126.8190  122.7890   60.1720 O   0  0  0  0  0  0  0  0  0  0  0  0
  128.6600  122.9770   61.6270 C   0  0  0  0  0  0  0  0  0  0  0  0
  129.5500  121.6280   60.9250 S   0  0  0  0  0  0  0  0  0  0  0  0
  130.9800  122.0370   61.8410 C   0  0  0  0  0  0  0  0  0  0  0  0
  132.1000  121.3220   61.7390 N   0  0  0  0  0  0  0  0  0  0  0  0
  133.1420  121.7370   62.4970 C   0  0  0  0  0  0  0  0  0  0  0  0
  134.4070  120.9080   62.3630 C   0  0  0  0  0  0  0  0  0  0  0  0
  133.0910  122.8390   63.3450 C   0  0  0  0  0  0  0  0  0  0  0  0
  131.9140  123.5970   63.4590 C   0  0  0  0  0  0  0  0  0  0  0  0
  131.9060  124.7990   64.4090 C   0  0  0  0  0  0  0  0  0  0  0  0
  133.0600  124.9590   65.0590 F   0  0  0  0  0  0  0  0  0  0  0  0
  131.6760  125.9160   63.7200 F   0  0  0  0  0  0  0  0  0  0  0  0
  130.9510  124.6430   65.3250 F   0  0  0  0  0  0  0  0  0  0  0  0
  130.7970  123.1870   62.6720 C   0  0  0  0  0  0  0  0  0  0  0  0
  129.4590  123.7040   62.5230 C   0  0  0  0  0  0  0  0  0  0  0  0
  129.0100  124.8070   63.2020 N   0  0  0  0  0  0  0  0  0  0  0  0
  1  2  1  0
  2  3  1  0
  3  4  1  0
  4  5  1  0
  5  6  1  0
  6  7  1  0
  7  8  1  0
  8  9  1  0
  9 10  1  0
 10 11  1  0
 11 12  1  0
 12 13  2  0
 12 14  1  0
 14 15  1  0
 15 16  1  0
 16 17  2  0
 17 18  1  0
 18 19  1  0
 18 20  2  0
 20 21  1  0
 21 22  1  0
 22 23  1  0
 22 24  1  0
 22 25  1  0
 21 26  2  0
 26 27  1  0
 27 28  1  0
 27 14  2  0
 26 16  1  0
M  END
>  <Binding energies>  (54) 
[-6.14]

>  <Ligand effiencies>  (54) 
[-0.19806451612903225]

>  <Interactions>  (54) 
["V-B:TYR:539:CZ:9848, H-B:GLU:543:OE2:9881, V-B:LEU:363:CD1:8160, V-B:PRO:540:N:9855, V-B:PRO:540:CA:9854, V-B:ALA:541:CB:9863, V-B:MET:535:CE:9806, V-B:TYR:539:C:9838, V-B:TYR:539:CE1:9846, V-B:TYR:539:CD1:9844, V-B:PRO:540:CB:9856, V-B:ASP:366:CG:8184, V-B:GLU:543:CD:9879, H-B:TYR:531:OH:9766, V-B:TYR:539:CD2:9845, V-B:PRO:540:C:9852, H-B:TYR:539:N:9841, V-B:LEU:363:CA:8156, V-B:TYR:539:CA:9840, V-B:TYR:539:CE2:9847, V-B:PRO:540:CD:9858, V-A:LEU:475:CD2:4258, V-A:ILE:369:CG2:3236, H-B:ALA:541:N:9862, V-B:TYR:539:CG:9843, V-B:ASN:362:C:8143, V-B:ASN:362:CB:8147, V-A:ILE:369:CD1:3238, V-B:GLU:543:CG:9878, V-A:ARG:545:CZ:4926, V-A:GLY:454:CA:4048, H-B:LEU:363:N:8157, V-A:ILE:369:CG1:3237, V-A:SER:385:C:3404"]

$$$$
4cd_Grossjean_2025
     RDKit          3D

 29 32  0  0  0  0  0  0  0  0999 V2000
  126.3710  127.4840   62.0340 N   0  0  0  0  0  0  0  0  0  0  0  0
  126.6690  128.5450   61.2170 C   0  0  0  0  0  0  0  0  0  0  0  0
  127.0850  128.3950   59.8840 C   0  0  0  0  0  0  0  0  0  0  0  0
  127.2970  127.1580   59.1260 C   0  0  0  0  0  0  0  0  0  0  0  0
  128.4030  126.8930   58.6540 O   0  0  0  0  0  0  0  0  0  0  0  0
  126.2090  126.3590   59.0030 N   0  0  0  0  0  0  0  0  0  0  0  0
  126.0620  125.1460   58.3060 C   0  0  0  0  0  0  0  0  0  0  0  0
  124.7540  124.6710   58.1710 C   0  0  0  0  0  0  0  0  0  0  0  0
  124.5040  123.4860   57.4860 C   0  0  0  0  0  0  0  0  0  0  0  0
  125.5630  122.7760   56.9260 C   0  0  0  0  0  0  0  0  0  0  0  0
  126.8700  123.2440   57.0410 C   0  0  0  0  0  0  0  0  0  0  0  0
  127.1240  124.4300   57.7260 C   0  0  0  0  0  0  0  0  0  0  0  0
  127.3730  129.9610   59.1290 S   0  0  0  0  0  0  0  0  0  0  0  0
  126.9450  130.8000   60.6000 C   0  0  0  0  0  0  0  0  0  0  0  0
  126.9700  132.1290   60.6750 N   0  0  0  0  0  0  0  0  0  0  0  0
  126.6340  132.6910   61.8660 C   0  0  0  0  0  0  0  0  0  0  0  0
  126.6750  134.1910   61.9200 C   0  0  0  0  0  0  0  0  0  0  0  0
  127.8730  134.8860   61.6860 C   0  0  0  0  0  0  0  0  0  0  0  0
  127.9180  136.2760   61.7340 C   0  0  0  0  0  0  0  0  0  0  0  0
  126.7620  136.9940   62.0180 C   0  0  0  0  0  0  0  0  0  0  0  0
  125.5620  136.3310   62.2510 C   0  0  0  0  0  0  0  0  0  0  0  0
  125.5200  134.9410   62.2000 C   0  0  0  0  0  0  0  0  0  0  0  0
  126.2550  131.9180   62.9670 C   0  0  0  0  0  0  0  0  0  0  0  0
  126.2210  130.5160   62.8970 C   0  0  0  0  0  0  0  0  0  0  0  0
  125.8000  129.7290   64.1440 C   0  0  0  0  0  0  0  0  0  0  0  0
  125.9340  130.4270   65.2740 F   0  0  0  0  0  0  0  0  0  0  0  0
  124.5190  129.3750   64.0440 F   0  0  0  0  0  0  0  0  0  0  0  0
  126.5510  128.6340   64.2610 F   0  0  0  0  0  0  0  0  0  0  0  0
  126.5830  129.9150   61.6580 C   0  0  0  0  0  0  0  0  0  0  0  0
  1  2  1  0
  2  3  2  0
  3  4  1  0
  4  5  2  0
  4  6  1  0
  6  7  1  0
  7  8  2  0
  8  9  1  0
  9 10  2  0
 10 11  1  0
 11 12  2  0
  3 13  1  0
 13 14  1  0
 14 15  2  0
 15 16  1  0
 16 17  1  0
 17 18  2  0
 18 19  1  0
 19 20  2  0
 20 21  1  0
 21 22  2  0
 16 23  2  0
 23 24  1  0
 24 25  1  0
 25 26  1  0
 25 27  1  0
 25 28  1  0
 24 29  2  0
 29  2  1  0
 12  7  1  0
 29 14  1  0
 22 17  1  0
M  END
>  <Binding energies>  (55) 
[-7.38]

>  <Ligand effiencies>  (55) 
[-0.230625]

>  <Interactions>  (55) 
["V-A:TYR:539:CD2:4874, H-B:GLU:543:OE2:9881, V-B:LEU:363:CD1:8160, V-B:PRO:540:N:9855, V-B:PRO:540:CA:9854, H-B:ASP:366:OD1:8185, V-B:PRO:540:CB:9856, H-B:ASP:366:OD2:8186, V-B:ASP:366:CG:8184, V-B:TRP:381:CZ2:8341, V-B:TRP:381:CH2:8343, V-A:ALA:541:CB:4892, V-B:LEU:475:CD1:9229, V-B:TRP:381:CE2:8338, V-B:PRO:482:CB:9297, V-B:PRO:482:CG:9298, V-B:GLU:543:CD:9879, V-B:ARG:545:CZ:9897, H-B:TYR:531:OH:9766, V-B:PRO:540:CD:9858"]

$$$$
4cg_Grossjean_2025
     RDKit          3D

 30 33  0  0  0  0  0  0  0  0999 V2000
  127.2640  128.2000   63.2730 N   0  0  0  0  0  0  0  0  0  0  0  0
  127.0390  128.6370   64.5530 C   0  0  0  0  0  0  0  0  0  0  0  0
  125.9860  129.4960   64.8970 C   0  0  0  0  0  0  0  0  0  0  0  0
  124.9350  130.0410   64.0380 C   0  0  0  0  0  0  0  0  0  0  0  0
  123.7530  130.0360   64.3880 O   0  0  0  0  0  0  0  0  0  0  0  0
  125.3350  130.5060   62.8360 N   0  0  0  0  0  0  0  0  0  0  0  0
  124.4650  131.1120   61.8300 C   0  0  0  0  0  0  0  0  0  0  0  0
  124.4550  132.6360   61.8760 C   0  0  0  0  0  0  0  0  0  0  0  0
  125.1000  133.3650   60.8720 C   0  0  0  0  0  0  0  0  0  0  0  0
  125.0660  134.7570   60.8930 C   0  0  0  0  0  0  0  0  0  0  0  0
  124.3800  135.4150   61.9120 C   0  0  0  0  0  0  0  0  0  0  0  0
  123.7210  134.6930   62.9060 C   0  0  0  0  0  0  0  0  0  0  0  0
  123.7530  133.3020   62.8840 C   0  0  0  0  0  0  0  0  0  0  0  0
  125.9760  129.8400   66.6250 S   0  0  0  0  0  0  0  0  0  0  0  0
  127.3950  128.8490   66.8710 C   0  0  0  0  0  0  0  0  0  0  0  0
  127.9320  128.6940   68.0780 N   0  0  0  0  0  0  0  0  0  0  0  0
  129.0310  127.9020   68.1740 C   0  0  0  0  0  0  0  0  0  0  0  0
  129.6150  127.7490   69.5500 C   0  0  0  0  0  0  0  0  0  0  0  0
  130.7900  128.4270   69.9150 C   0  0  0  0  0  0  0  0  0  0  0  0
  131.3350  128.2870   71.1880 C   0  0  0  0  0  0  0  0  0  0  0  0
  130.7110  127.4630   72.1190 C   0  0  0  0  0  0  0  0  0  0  0  0
  129.5480  126.7780   71.7850 C   0  0  0  0  0  0  0  0  0  0  0  0
  129.0070  126.9210   70.5100 C   0  0  0  0  0  0  0  0  0  0  0  0
  129.5970  127.2850   67.0530 C   0  0  0  0  0  0  0  0  0  0  0  0
  129.0390  127.4420   65.7740 C   0  0  0  0  0  0  0  0  0  0  0  0
  129.7090  126.7380   64.5890 C   0  0  0  0  0  0  0  0  0  0  0  0
  129.0050  125.7010   64.1300 F   0  0  0  0  0  0  0  0  0  0  0  0
  129.8580  127.5980   63.5800 F   0  0  0  0  0  0  0  0  0  0  0  0
  130.9040  126.2780   64.9550 F   0  0  0  0  0  0  0  0  0  0  0  0
  127.8760  128.2590   65.6660 C   0  0  0  0  0  0  0  0  0  0  0  0
  1  2  1  0
  2  3  2  0
  3  4  1  0
  4  5  2  0
  4  6  1  0
  6  7  1  0
  7  8  1  0
  8  9  2  0
  9 10  1  0
 10 11  2  0
 11 12  1  0
 12 13  2  0
  3 14  1  0
 14 15  1  0
 15 16  2  0
 16 17  1  0
 17 18  1  0
 18 19  2  0
 19 20  1  0
 20 21  2  0
 21 22  1  0
 22 23  2  0
 17 24  2  0
 24 25  1  0
 25 26  1  0
 26 27  1  0
 26 28  1  0
 26 29  1  0
 25 30  2  0
 30  2  1  0
 13  8  1  0
 30 15  1  0
 23 18  1  0
M  END
>  <Binding energies>  (56) 
[-7.47]

>  <Ligand effiencies>  (56) 
[-0.22636363636363635]

>  <Interactions>  (56) 
["V-A:TYR:539:CE2:4876, V-A:TYR:539:CD2:4874, H-B:GLU:543:OE2:9881, V-B:GLY:454:CA:9020, V-B:ASP:366:CG:8184, V-B:TRP:381:CZ2:8341, V-B:TRP:381:CH2:8343, V-B:LEU:475:CD1:9229, V-B:ILE:369:CD1:8210, H-B:GLY:454:N:9021, V-B:GLU:543:CD:9879, V-B:ARG:545:CZ:9897, V-B:ILE:369:CG2:8208, V-B:SER:385:C:8376, V-B:HIS:456:CE1:9041, V-A:GLU:543:CG:4907, V-A:GLU:543:CD:4908, H-B:ARG:545:NH2:9899, H-B:ARG:545:NE:9895, V-B:GLU:543:CG:9878, H-B:ARG:545:NH1:9898, H-B:GLU:543:OE1:9880, V-A:HIS:456:CE1:4069, V-A:GLY:544:C:4912, V-A:GLU:543:CB:4906, V-A:HIS:456:CD2:4067"]

$$$$
4ch_Grossjean_2025
     RDKit          3D

 36 39  0  0  0  0  0  0  0  0999 V2000
  126.7160  122.8360   55.2000 C   0  0  0  0  0  0  0  0  0  0  0  0
  126.7420  121.9860   56.3420 O   0  0  0  0  0  0  0  0  0  0  0  0
  126.9000  122.5420   57.5980 C   0  0  0  0  0  0  0  0  0  0  0  0
  128.1020  122.5080   58.3250 C   0  0  0  0  0  0  0  0  0  0  0  0
  128.1910  123.0930   59.5890 C   0  0  0  0  0  0  0  0  0  0  0  0
  129.4950  123.0220   60.3740 C   0  0  0  0  0  0  0  0  0  0  0  0
  129.4920  123.7970   61.6160 N   0  0  0  0  0  0  0  0  0  0  0  0
  129.7920  123.3170   62.8410 C   0  0  0  0  0  0  0  0  0  0  0  0
  130.1340  122.1480   63.0290 O   0  0  0  0  0  0  0  0  0  0  0  0
  129.7240  124.2800   63.9410 C   0  0  0  0  0  0  0  0  0  0  0  0
  130.3580  123.8530   65.5270 S   0  0  0  0  0  0  0  0  0  0  0  0
  129.9420  125.4250   66.1640 C   0  0  0  0  0  0  0  0  0  0  0  0
  130.1850  125.7480   67.4320 N   0  0  0  0  0  0  0  0  0  0  0  0
  129.8310  126.9960   67.8360 C   0  0  0  0  0  0  0  0  0  0  0  0
  130.1130  127.3250   69.2740 C   0  0  0  0  0  0  0  0  0  0  0  0
  131.2490  128.0710   69.6310 C   0  0  0  0  0  0  0  0  0  0  0  0
  131.5170  128.3790   70.9630 C   0  0  0  0  0  0  0  0  0  0  0  0
  130.6510  127.9440   71.9590 C   0  0  0  0  0  0  0  0  0  0  0  0
  129.5210  127.2010   71.6340 C   0  0  0  0  0  0  0  0  0  0  0  0
  129.2580  126.8930   70.3020 C   0  0  0  0  0  0  0  0  0  0  0  0
  129.2200  127.9070   66.9700 C   0  0  0  0  0  0  0  0  0  0  0  0
  128.9570  127.5780   65.6300 C   0  0  0  0  0  0  0  0  0  0  0  0
  128.2840  128.6230   64.7340 C   0  0  0  0  0  0  0  0  0  0  0  0
  128.1240  129.8040   65.3370 F   0  0  0  0  0  0  0  0  0  0  0  0
  129.0240  128.8290   63.6460 F   0  0  0  0  0  0  0  0  0  0  0  0
  127.0760  128.1950   64.3700 F   0  0  0  0  0  0  0  0  0  0  0  0
  129.3360  126.2760   65.1930 C   0  0  0  0  0  0  0  0  0  0  0  0
  129.2350  125.5950   63.9240 C   0  0  0  0  0  0  0  0  0  0  0  0
  128.6980  126.1820   62.8060 N   0  0  0  0  0  0  0  0  0  0  0  0
  127.0660  123.7050   60.1450 C   0  0  0  0  0  0  0  0  0  0  0  0
  125.8520  123.7520   59.4410 C   0  0  0  0  0  0  0  0  0  0  0  0
  124.7000  124.3430   59.9300 O   0  0  0  0  0  0  0  0  0  0  0  0
  124.4300  124.2970   61.3270 C   0  0  0  0  0  0  0  0  0  0  0  0
  125.7840  123.1730   58.1660 C   0  0  0  0  0  0  0  0  0  0  0  0
  124.5980  123.1990   57.4740 O   0  0  0  0  0  0  0  0  0  0  0  0
  124.1410  124.5070   57.1570 C   0  0  0  0  0  0  0  0  0  0  0  0
  1  2  1  0
  2  3  1  0
  3  4  2  0
  4  5  1  0
  5  6  1  0
  6  7  1  0
  7  8  1  0
  8  9  2  0
  8 10  1  0
 10 11  1  0
 11 12  1  0
 12 13  2  0
 13 14  1  0
 14 15  1  0
 15 16  2  0
 16 17  1  0
 17 18  2  0
 18 19  1  0
 19 20  2  0
 14 21  2  0
 21 22  1  0
 22 23  1  0
 23 24  1  0
 23 25  1  0
 23 26  1  0
 22 27  2  0
 27 28  1  0
 28 29  1  0
  5 30  2  0
 30 31  1  0
 31 32  1  0
 32 33  1  0
 31 34  2  0
 34 35  1  0
 35 36  1  0
 34  3  1  0
 28 10  2  0
 27 12  1  0
 20 15  1  0
M  END
>  <Binding energies>  (57) 
[-7.03]

>  <Ligand effiencies>  (57) 
[-0.18025641025641026]

>  <Interactions>  (57) 
["V-B:TYR:539:CZ:9848, H-B:GLU:543:OE2:9881, V-B:LEU:363:CD1:8160, V-B:PRO:540:N:9855, V-B:PRO:540:CA:9854, V-B:ALA:541:CB:9863, V-B:MET:535:CE:9806, V-B:TYR:539:C:9838, V-B:TYR:539:CE1:9846, V-B:TYR:539:CD1:9844, V-B:PRO:540:CB:9856, V-B:GLU:543:CD:9879, V-B:HIS:456:CE1:9041, V-A:GLU:543:CG:4907, V-A:GLU:543:CD:4908, V-B:TYR:539:CD2:9845, H-B:TYR:539:N:9841, V-B:LEU:363:CA:8156, V-B:TYR:539:CE2:9847, V-B:TYR:531:CZ:9765, V-B:TYR:531:CE2:9764, V-B:PRO:540:CD:9858, V-B:TYR:539:CG:9843, V-B:ASN:362:C:8143, V-B:ASN:362:CB:8147, V-B:GLU:543:CG:9878, V-A:HIS:456:CE1:4069, V-A:ARG:545:CG:4922, V-A:GLY:544:C:4912, V-A:ARG:545:CA:4919, V-A:GLU:543:CB:4906, V-A:TYR:484:CE1:4344, V-A:TYR:484:CZ:4346"]

$$$$
4cj_Grossjean_2025
     RDKit          3D

 28 31  0  0  0  0  0  0  0  0999 V2000
  128.2460  123.7880   63.5780 N   0  0  0  0  0  0  0  0  0  0  0  0
  128.8540  123.5680   62.3680 C   0  0  0  0  0  0  0  0  0  0  0  0
  130.2440  123.4400   62.2180 C   0  0  0  0  0  0  0  0  0  0  0  0
  131.2840  123.5010   63.2490 C   0  0  0  0  0  0  0  0  0  0  0  0
  131.9400  122.4990   63.5430 O   0  0  0  0  0  0  0  0  0  0  0  0
  131.4490  124.7110   63.8380 N   0  0  0  0  0  0  0  0  0  0  0  0
  132.3590  125.0350   64.8350 C   0  0  0  0  0  0  0  0  0  0  0  0
  133.6680  124.8970   64.8100 N   0  0  0  0  0  0  0  0  0  0  0  0
  134.2200  125.3110   65.9330 C   0  0  0  0  0  0  0  0  0  0  0  0
  133.3510  125.8010   66.9030 C   0  0  0  0  0  0  0  0  0  0  0  0
  131.7220  125.7100   66.3010 S   0  0  0  0  0  0  0  0  0  0  0  0
  130.6790  123.1510   60.5350 S   0  0  0  0  0  0  0  0  0  0  0  0
  129.0020  123.2060   60.0460 C   0  0  0  0  0  0  0  0  0  0  0  0
  128.6440  123.0350   58.7760 N   0  0  0  0  0  0  0  0  0  0  0  0
  127.3170  123.0870   58.4920 C   0  0  0  0  0  0  0  0  0  0  0  0
  126.9450  122.8770   57.0520 C   0  0  0  0  0  0  0  0  0  0  0  0
  125.7470  122.2340   56.7060 C   0  0  0  0  0  0  0  0  0  0  0  0
  125.3990  122.0310   55.3720 C   0  0  0  0  0  0  0  0  0  0  0  0
  126.2500  122.4690   54.3630 C   0  0  0  0  0  0  0  0  0  0  0  0
  127.4440  123.1080   54.6780 C   0  0  0  0  0  0  0  0  0  0  0  0
  127.7870  123.3090   56.0130 C   0  0  0  0  0  0  0  0  0  0  0  0
  126.3590  123.3340   59.4810 C   0  0  0  0  0  0  0  0  0  0  0  0
  126.7260  123.5170   60.8240 C   0  0  0  0  0  0  0  0  0  0  0  0
  125.6240  123.7810   61.8570 C   0  0  0  0  0  0  0  0  0  0  0  0
  125.8350  123.1590   63.0180 F   0  0  0  0  0  0  0  0  0  0  0  0
  125.5490  125.0870   62.1110 F   0  0  0  0  0  0  0  0  0  0  0  0
  124.4520  123.3570   61.3850 F   0  0  0  0  0  0  0  0  0  0  0  0
  128.1140  123.4460   61.1350 C   0  0  0  0  0  0  0  0  0  0  0  0
  1  2  1  0
  2  3  2  0
  3  4  1  0
  4  5  2  0
  4  6  1  0
  6  7  1  0
  7  8  2  0
  8  9  1  0
  9 10  2  0
 10 11  1  0
  3 12  1  0
 12 13  1  0
 13 14  2  0
 14 15  1  0
 15 16  1  0
 16 17  2  0
 17 18  1  0
 18 19  2  0
 19 20  1  0
 20 21  2  0
 15 22  2  0
 22 23  1  0
 23 24  1  0
 24 25  1  0
 24 26  1  0
 24 27  1  0
 23 28  2  0
 28  2  1  0
 11  7  1  0
 28 13  1  0
 21 16  1  0
M  END
>  <Binding energies>  (58) 
[-7.82]

>  <Ligand effiencies>  (58) 
[-0.25225806451612903]

>  <Interactions>  (58) 
["V-B:TYR:539:CZ:9848, H-B:GLU:543:OE2:9881, V-B:LEU:363:CD1:8160, V-B:PRO:540:N:9855, V-B:PRO:540:CA:9854, V-B:ALA:541:CB:9863, V-B:MET:535:CE:9806, V-B:TYR:539:C:9838, V-B:TYR:539:CE1:9846, V-B:TYR:539:CD1:9844, V-B:PRO:540:CB:9856, V-B:GLU:543:CD:9879, V-B:ARG:545:CZ:9897, V-B:TYR:539:CE2:9847, V-B:PRO:540:CD:9858, V-B:ILE:538:CD1:9836, V-B:ILE:538:CG2:9834, V-B:ILE:538:CA:9831, V-B:ILE:538:CB:9833, V-B:ILE:538:C:9829, V-B:MET:535:CB:9803, V-B:ALA:541:CA:9861, V-B:ASN:362:C:8143, V-B:ASN:362:CB:8147, V-B:ALA:541:C:9859, V-B:GLU:543:CG:9878, H-B:GLU:543:OE1:9880, H-A:GLY:454:N:4049, V-A:ARG:545:CZ:4926, H-A:TYR:484:OH:4347, V-A:HIS:456:CE1:4069, V-A:ARG:545:CD:4923, V-A:ARG:545:CG:4922, V-A:GLY:454:CA:4048, V-A:GLY:453:CA:4043, V-A:GLY:453:C:4041"]

$$$$
4ck_Grossjean_2025
     RDKit          3D

 33 35  0  0  0  0  0  0  0  0999 V2000
  124.9530  122.0880   55.4880 C   0  0  0  0  0  0  0  0  0  0  0  0
  126.2930  121.6780   55.7130 O   0  0  0  0  0  0  0  0  0  0  0  0
  127.1440  122.7350   56.1360 C   0  0  0  0  0  0  0  0  0  0  0  0
  127.4600  122.5570   57.6260 C   0  0  0  0  0  0  0  0  0  0  0  0
  126.8450  123.6080   58.3590 O   0  0  0  0  0  0  0  0  0  0  0  0
  125.4540  123.4080   58.5780 C   0  0  0  0  0  0  0  0  0  0  0  0
  124.8420  124.7010   59.1320 C   0  0  0  0  0  0  0  0  0  0  0  0
  124.2900  124.4330   60.4130 O   0  0  0  0  0  0  0  0  0  0  0  0
  125.1470  123.6800   61.2620 C   0  0  0  0  0  0  0  0  0  0  0  0
  126.5010  124.3930   61.3910 C   0  0  0  0  0  0  0  0  0  0  0  0
  126.3780  125.8420   61.2290 N   0  0  0  0  0  0  0  0  0  0  0  0
  127.3650  126.7440   61.4080 C   0  0  0  0  0  0  0  0  0  0  0  0
  128.5150  126.4210   61.7100 O   0  0  0  0  0  0  0  0  0  0  0  0
  126.9940  128.1460   61.2110 C   0  0  0  0  0  0  0  0  0  0  0  0
  127.3780  129.3440   62.4440 S   0  0  0  0  0  0  0  0  0  0  0  0
  126.7060  130.6280   61.4670 C   0  0  0  0  0  0  0  0  0  0  0  0
  126.6990  131.8900   61.8880 N   0  0  0  0  0  0  0  0  0  0  0  0
  126.1540  132.8190   61.0600 C   0  0  0  0  0  0  0  0  0  0  0  0
  126.1770  134.2360   61.5560 C   0  0  0  0  0  0  0  0  0  0  0  0
  125.0000  134.8650   61.9920 C   0  0  0  0  0  0  0  0  0  0  0  0
  125.0140  136.1800   62.4510 C   0  0  0  0  0  0  0  0  0  0  0  0
  126.2110  136.8870   62.4820 C   0  0  0  0  0  0  0  0  0  0  0  0
  127.3930  136.2870   62.0610 C   0  0  0  0  0  0  0  0  0  0  0  0
  127.3740  134.9710   61.6030 C   0  0  0  0  0  0  0  0  0  0  0  0
  125.6280  132.4770   59.8090 C   0  0  0  0  0  0  0  0  0  0  0  0
  125.6300  131.1490   59.3560 C   0  0  0  0  0  0  0  0  0  0  0  0
  125.0340  130.8430   57.9770 C   0  0  0  0  0  0  0  0  0  0  0  0
  124.5490  129.6050   57.8780 F   0  0  0  0  0  0  0  0  0  0  0  0
  124.0330  131.6860   57.7220 F   0  0  0  0  0  0  0  0  0  0  0  0
  125.9730  130.9800   57.0400 F   0  0  0  0  0  0  0  0  0  0  0  0
  126.1970  130.1660   60.2180 C   0  0  0  0  0  0  0  0  0  0  0  0
  126.3830  128.7400   60.0960 C   0  0  0  0  0  0  0  0  0  0  0  0
  125.9910  128.0310   58.9890 N   0  0  0  0  0  0  0  0  0  0  0  0
  1  2  1  0
  2  3  1  0
  3  4  1  0
  4  5  1  0
  5  6  1  0
  6  7  1  0
  7  8  1  0
  8  9  1  0
  9 10  1  0
 10 11  1  0
 11 12  1  0
 12 13  2  0
 12 14  1  0
 14 15  1  0
 15 16  1  0
 16 17  2  0
 17 18  1  0
 18 19  1  0
 19 20  2  0
 20 21  1  0
 21 22  2  0
 22 23  1  0
 23 24  2  0
 18 25  2  0
 25 26  1  0
 26 27  1  0
 27 28  1  0
 27 29  1  0
 27 30  1  0
 26 31  2  0
 31 32  1  0
 32 33  1  0
 32 14  2  0
 31 16  1  0
 24 19  1  0
M  END
>  <Binding energies>  (59) 
[-6.47]

>  <Ligand effiencies>  (59) 
[-0.17972222222222223]

>  <Interactions>  (59) 
["V-A:TYR:539:CE2:4876, V-A:TYR:539:CZ:4877, V-A:TYR:539:CD2:4874, V-B:TYR:539:CZ:9848, H-B:GLU:543:OE2:9881, V-B:LEU:363:CD1:8160, V-B:PRO:540:N:9855, V-B:PRO:540:CA:9854, V-B:MET:535:CE:9806, V-B:TYR:539:C:9838, V-B:TYR:539:CE1:9846, V-B:TYR:539:CD1:9844, V-B:PRO:540:CB:9856, H-B:ASP:366:OD2:8186, V-B:ASP:366:CG:8184, V-B:TRP:381:CZ2:8341, V-B:TRP:381:CH2:8343, V-A:ALA:541:CB:4892, V-B:LEU:475:CD1:9229, V-B:TRP:381:CE2:8338, V-B:PRO:482:CB:9297, V-B:PRO:482:CG:9298, H-B:TYR:531:OH:9766, V-B:ASP:366:CB:8183, V-B:ASP:366:C:8179, V-B:ASP:366:CA:8181, V-B:TYR:539:CD2:9845, H-B:TYR:539:N:9841, V-B:TYR:539:CE2:9847, V-B:TYR:531:CZ:9765, V-B:PRO:540:CD:9858, V-B:TYR:531:CE1:9763, V-B:ILE:538:CD1:9836, V-B:ILE:538:CG2:9834, V-B:ILE:538:CA:9831, V-B:ILE:538:CB:9833, V-B:TYR:539:CG:9843, V-B:ASN:362:CB:8147"]

$$$$
4dd_Grossjean_2025
     RDKit          3D

 26 29  0  0  0  0  0  0  0  0999 V2000
  125.7470  129.6560   64.1270 C   0  0  0  0  0  0  0  0  0  0  0  0
  126.1200  130.4740   62.9000 C   0  0  0  0  0  0  0  0  0  0  0  0
  126.1140  131.8700   63.0110 C   0  0  0  0  0  0  0  0  0  0  0  0
  126.4480  132.6790   61.9180 C   0  0  0  0  0  0  0  0  0  0  0  0
  126.4430  134.1770   62.0060 C   0  0  0  0  0  0  0  0  0  0  0  0
  127.5930  134.9200   61.6910 C   0  0  0  0  0  0  0  0  0  0  0  0
  127.5950  136.3100   61.7670 C   0  0  0  0  0  0  0  0  0  0  0  0
  126.4430  136.9800   62.1630 C   0  0  0  0  0  0  0  0  0  0  0  0
  125.2890  136.2710   62.4790 C   0  0  0  0  0  0  0  0  0  0  0  0
  125.2910  134.8800   62.3990 C   0  0  0  0  0  0  0  0  0  0  0  0
  126.7790  132.1520   60.7080 N   0  0  0  0  0  0  0  0  0  0  0  0
  126.7920  130.8240   60.6030 C   0  0  0  0  0  0  0  0  0  0  0  0
  127.2170  130.0140   59.1120 S   0  0  0  0  0  0  0  0  0  0  0  0
  126.9860  128.4290   59.8520 C   0  0  0  0  0  0  0  0  0  0  0  0
  127.2160  127.2080   59.0770 C   0  0  0  0  0  0  0  0  0  0  0  0
  128.3150  126.9870   58.5660 O   0  0  0  0  0  0  0  0  0  0  0  0
  126.1540  126.3720   58.9820 N   0  0  0  0  0  0  0  0  0  0  0  0
  126.0260  125.1610   58.2760 C   0  0  0  0  0  0  0  0  0  0  0  0
  124.7330  124.6390   58.1880 C   0  0  0  0  0  0  0  0  0  0  0  0
  124.5000  123.4520   57.4980 C   0  0  0  0  0  0  0  0  0  0  0  0
  125.5620  122.7900   56.8880 C   0  0  0  0  0  0  0  0  0  0  0  0
  126.8530  123.3050   56.9570 C   0  0  0  0  0  0  0  0  0  0  0  0
  127.0890  124.4920   57.6470 C   0  0  0  0  0  0  0  0  0  0  0  0
  126.5920  128.5500   61.1940 C   0  0  0  0  0  0  0  0  0  0  0  0
  126.3360  127.4800   62.0150 N   0  0  0  0  0  0  0  0  0  0  0  0
  126.4770  129.9100   61.6480 C   0  0  0  0  0  0  0  0  0  0  0  0
  1  2  1  0
  2  3  2  0
  3  4  1  0
  4  5  1  0
  5  6  2  0
  6  7  1  0
  7  8  2  0
  8  9  1  0
  9 10  2  0
  4 11  2  0
 11 12  1  0
 12 13  1  0
 13 14  1  0
 14 15  1  0
 15 16  2  0
 15 17  1  0
 17 18  1  0
 18 19  2  0
 19 20  1  0
 20 21  2  0
 21 22  1  0
 22 23  2  0
 14 24  2  0
 24 25  1  0
 24 26  1  0
 26  2  1  0
 10  5  1  0
 26 12  2  0
 23 18  1  0
M  END
>  <Binding energies>  (60) 
[-7.75]

>  <Ligand effiencies>  (60) 
[-0.2672413793103448]

>  <Interactions>  (60) 
["V-A:TYR:539:CD2:4874, H-B:GLU:543:OE2:9881, V-B:LEU:363:CD1:8160, V-B:PRO:540:N:9855, V-B:PRO:540:CA:9854, H-B:ASP:366:OD1:8185, V-B:PRO:540:CB:9856, H-B:ASP:366:OD2:8186, V-B:ASP:366:CG:8184, V-B:TRP:381:CZ2:8341, V-B:TRP:381:CH2:8343, V-A:ALA:541:CB:4892, V-B:LEU:475:CD1:9229, V-B:TRP:381:CE2:8338, V-B:PRO:482:CB:9297, V-B:PRO:482:CG:9298, V-B:ARG:545:CZ:9897, H-B:TYR:531:OH:9766, V-B:LEU:363:CA:8156, V-B:PRO:540:CD:9858"]

$$$$
4dg_Grossjean_2025
     RDKit          3D

 27 30  0  0  0  0  0  0  0  0999 V2000
  130.9720  126.6290   63.4460 C   0  0  0  0  0  0  0  0  0  0  0  0
  131.0400  125.8800   62.1230 C   0  0  0  0  0  0  0  0  0  0  0  0
  130.9810  124.4810   62.1530 C   0  0  0  0  0  0  0  0  0  0  0  0
  131.0390  123.7330   60.9710 C   0  0  0  0  0  0  0  0  0  0  0  0
  130.9760  122.2320   60.9710 C   0  0  0  0  0  0  0  0  0  0  0  0
  129.7900  121.5600   61.3070 C   0  0  0  0  0  0  0  0  0  0  0  0
  129.7280  120.1680   61.3130 C   0  0  0  0  0  0  0  0  0  0  0  0
  130.8550  119.4260   60.9810 C   0  0  0  0  0  0  0  0  0  0  0  0
  132.0450  120.0650   60.6470 C   0  0  0  0  0  0  0  0  0  0  0  0
  132.1030  121.4560   60.6440 C   0  0  0  0  0  0  0  0  0  0  0  0
  131.1350  124.3260   59.7500 N   0  0  0  0  0  0  0  0  0  0  0  0
  131.1920  125.6570   59.7200 C   0  0  0  0  0  0  0  0  0  0  0  0
  131.3240  126.5450   58.2200 S   0  0  0  0  0  0  0  0  0  0  0  0
  131.3280  128.0840   59.0800 C   0  0  0  0  0  0  0  0  0  0  0  0
  131.4690  129.3380   58.3420 C   0  0  0  0  0  0  0  0  0  0  0  0
  130.8530  129.5380   57.2930 O   0  0  0  0  0  0  0  0  0  0  0  0
  132.3380  130.2320   58.8590 N   0  0  0  0  0  0  0  0  0  0  0  0
  132.6210  131.5550   58.3040 C   0  0  0  0  0  0  0  0  0  0  0  0
  131.4590  132.1400   57.5090 C   0  0  0  0  0  0  0  0  0  0  0  0
  130.2880  132.5230   58.1700 C   0  0  0  0  0  0  0  0  0  0  0  0
  129.2380  133.0870   57.4510 C   0  0  0  0  0  0  0  0  0  0  0  0
  129.3640  133.2750   56.0770 C   0  0  0  0  0  0  0  0  0  0  0  0
  130.5340  132.9110   55.4140 C   0  0  0  0  0  0  0  0  0  0  0  0
  131.5860  132.3480   56.1330 C   0  0  0  0  0  0  0  0  0  0  0  0
  131.2470  127.8930   60.4670 C   0  0  0  0  0  0  0  0  0  0  0  0
  131.2450  128.9170   61.3800 N   0  0  0  0  0  0  0  0  0  0  0  0
  131.1550  126.5120   60.8590 C   0  0  0  0  0  0  0  0  0  0  0  0
  1  2  1  0
  2  3  2  0
  3  4  1  0
  4  5  1  0
  5  6  2  0
  6  7  1  0
  7  8  2  0
  8  9  1  0
  9 10  2  0
  4 11  2  0
 11 12  1  0
 12 13  1  0
 13 14  1  0
 14 15  1  0
 15 16  2  0
 15 17  1  0
 17 18  1  0
 18 19  1  0
 19 20  2  0
 20 21  1  0
 21 22  2  0
 22 23  1  0
 23 24  2  0
 14 25  2  0
 25 26  1  0
 25 27  1  0
 27  2  1  0
 10  5  1  0
 27 12  2  0
 24 19  1  0
M  END
>  <Binding energies>  (61) 
[-7.83]

>  <Ligand effiencies>  (61) 
[-0.261]

>  <Interactions>  (61) 
["V-A:TYR:539:CD1:4873, V-A:TYR:539:CE2:4876, V-A:TYR:539:CG:4872, V-A:ILE:538:C:4858, V-A:TYR:539:CZ:4877, V-A:TYR:539:CE1:4875, V-A:LEU:363:CD1:3188, V-A:PRO:540:CA:4883, V-A:ILE:538:CG2:4863, V-A:TYR:539:CA:4869, V-A:ASP:366:CB:3211, H-A:GLU:543:OE1:4909, V-A:PRO:540:CB:4885, V-A:PRO:540:N:4884, V-A:TYR:539:CD2:4874, V-A:ILE:538:CA:4860, V-A:ASP:366:CG:3212, V-A:TYR:539:C:4867, H-A:ASP:366:OD2:3214, V-A:ILE:538:CB:4862, V-B:ALA:541:CB:9863, V-A:MET:535:CE:4835, V-B:TYR:539:CD2:9845, V-B:TYR:539:CE2:9847, V-A:PRO:482:CB:4325, V-A:TRP:381:CH2:3371, V-A:LEU:475:CD2:4258, H-A:TYR:531:OH:4795, V-A:ILE:369:CG2:3236, V-A:TRP:381:CZ2:3369, V-B:ALA:541:CA:9861"]

$$$$
4dj_Grossjean_2025
     RDKit          3D

 25 28  0  0  0  0  0  0  0  0999 V2000
  125.6670  123.9170   61.9490 C   0  0  0  0  0  0  0  0  0  0  0  0
  126.7240  123.5910   60.9050 C   0  0  0  0  0  0  0  0  0  0  0  0
  126.3060  123.3810   59.5860 C   0  0  0  0  0  0  0  0  0  0  0  0
  127.2290  123.0760   58.5780 C   0  0  0  0  0  0  0  0  0  0  0  0
  126.8100  122.8520   57.1530 C   0  0  0  0  0  0  0  0  0  0  0  0
  125.5850  122.2360   56.8510 C   0  0  0  0  0  0  0  0  0  0  0  0
  125.1900  122.0250   55.5320 C   0  0  0  0  0  0  0  0  0  0  0  0
  126.0230  122.4250   54.4920 C   0  0  0  0  0  0  0  0  0  0  0  0
  127.2440  123.0330   54.7610 C   0  0  0  0  0  0  0  0  0  0  0  0
  127.6330  123.2430   56.0810 C   0  0  0  0  0  0  0  0  0  0  0  0
  128.5640  122.9860   58.8300 N   0  0  0  0  0  0  0  0  0  0  0  0
  128.9630  123.1840   60.0850 C   0  0  0  0  0  0  0  0  0  0  0  0
  130.6470  123.0920   60.5490 S   0  0  0  0  0  0  0  0  0  0  0  0
  130.2540  123.4600   62.2290 C   0  0  0  0  0  0  0  0  0  0  0  0
  131.3110  123.5310   63.2390 C   0  0  0  0  0  0  0  0  0  0  0  0
  131.9870  122.5360   63.5150 O   0  0  0  0  0  0  0  0  0  0  0  0
  131.4730  124.7400   63.8310 N   0  0  0  0  0  0  0  0  0  0  0  0
  132.3950  125.0710   64.8130 C   0  0  0  0  0  0  0  0  0  0  0  0
  133.7080  125.0060   64.7440 N   0  0  0  0  0  0  0  0  0  0  0  0
  134.2720  125.4020   65.8680 C   0  0  0  0  0  0  0  0  0  0  0  0
  133.4090  125.8020   66.8840 C   0  0  0  0  0  0  0  0  0  0  0  0
  131.7700  125.6470   66.3250 S   0  0  0  0  0  0  0  0  0  0  0  0
  128.8720  123.6390   62.3970 C   0  0  0  0  0  0  0  0  0  0  0  0
  128.2810  123.9330   63.6000 N   0  0  0  0  0  0  0  0  0  0  0  0
  128.1120  123.4890   61.1850 C   0  0  0  0  0  0  0  0  0  0  0  0
  1  2  1  0
  2  3  2  0
  3  4  1  0
  4  5  1  0
  5  6  2  0
  6  7  1  0
  7  8  2  0
  8  9  1  0
  9 10  2  0
  4 11  2  0
 11 12  1  0
 12 13  1  0
 13 14  1  0
 14 15  1  0
 15 16  2  0
 15 17  1  0
 17 18  1  0
 18 19  2  0
 19 20  1  0
 20 21  2  0
 21 22  1  0
 14 23  2  0
 23 24  1  0
 23 25  1  0
 25  2  1  0
 10  5  1  0
 25 12  2  0
 22 18  1  0
M  END
>  <Binding energies>  (62) 
[-8.08]

>  <Ligand effiencies>  (62) 
[-0.2885714285714286]

>  <Interactions>  (62) 
["V-B:TYR:539:CZ:9848, H-B:GLU:543:OE2:9881, V-B:LEU:363:CD1:8160, V-B:PRO:540:N:9855, V-B:PRO:540:CA:9854, V-B:ALA:541:CB:9863, V-B:MET:535:CE:9806, V-B:TYR:539:C:9838, V-B:TYR:539:CE1:9846, V-B:TYR:539:CD1:9844, V-B:PRO:540:CB:9856, V-B:GLU:543:CD:9879, V-B:TYR:539:CE2:9847, V-B:PRO:540:CD:9858, V-B:ILE:538:CD1:9836, V-B:ILE:538:CG2:9834, V-B:ILE:538:CA:9831, V-B:ILE:538:CB:9833, V-B:ILE:538:C:9829, V-B:GLU:543:CG:9878, V-B:PRO:540:CG:9857, H-B:GLU:543:OE1:9880, H-A:GLY:454:N:4049, V-A:ARG:545:CZ:4926, H-A:TYR:484:OH:4347, V-A:HIS:456:CE1:4069, V-A:ARG:545:CD:4923, V-A:ARG:545:CG:4922, V-A:GLY:454:CA:4048, V-A:GLY:453:CA:4043, V-A:GLY:453:C:4041"]

$$$$
4ea_Grossjean_2025
     RDKit          3D

 31 34  0  0  0  0  0  0  0  0999 V2000
  126.8390  122.4230   54.1540 C   0  0  0  0  0  0  0  0  0  0  0  0
  125.5520  122.4210   54.9840 C   0  0  0  0  0  0  0  0  0  0  0  0
  125.8230  121.8910   56.2750 O   0  0  0  0  0  0  0  0  0  0  0  0
  126.8580  122.3550   57.0210 C   0  0  0  0  0  0  0  0  0  0  0  0
  127.8530  121.6780   57.2970 O   0  0  0  0  0  0  0  0  0  0  0  0
  126.6720  123.7730   57.4770 C   0  0  0  0  0  0  0  0  0  0  0  0
  125.7480  124.0480   58.4940 C   0  0  0  0  0  0  0  0  0  0  0  0
  125.5520  125.3530   58.9390 C   0  0  0  0  0  0  0  0  0  0  0  0
  126.2740  126.4070   58.3790 C   0  0  0  0  0  0  0  0  0  0  0  0
  125.9930  127.6820   58.9070 N   0  0  0  0  0  0  0  0  0  0  0  0
  126.0510  128.9060   58.3260 C   0  0  0  0  0  0  0  0  0  0  0  0
  126.3830  129.1040   57.1580 O   0  0  0  0  0  0  0  0  0  0  0  0
  125.6820  130.0270   59.1950 C   0  0  0  0  0  0  0  0  0  0  0  0
  125.1060  131.5440   58.5000 S   0  0  0  0  0  0  0  0  0  0  0  0
  124.9150  132.2550   60.0870 C   0  0  0  0  0  0  0  0  0  0  0  0
  124.4720  133.5020   60.2510 N   0  0  0  0  0  0  0  0  0  0  0  0
  124.3700  133.9340   61.5330 C   0  0  0  0  0  0  0  0  0  0  0  0
  123.8640  135.3550   61.6970 C   0  0  0  0  0  0  0  0  0  0  0  0
  124.6960  133.1550   62.6410 C   0  0  0  0  0  0  0  0  0  0  0  0
  125.1610  131.8480   62.4630 C   0  0  0  0  0  0  0  0  0  0  0  0
  125.5040  131.0330   63.6510 C   0  0  0  0  0  0  0  0  0  0  0  0
  126.8240  130.9820   64.1100 C   0  0  0  0  0  0  0  0  0  0  0  0
  127.1470  130.2180   65.2290 C   0  0  0  0  0  0  0  0  0  0  0  0
  126.1500  129.5010   65.8850 C   0  0  0  0  0  0  0  0  0  0  0  0
  124.8330  129.5420   65.4340 C   0  0  0  0  0  0  0  0  0  0  0  0
  124.5110  130.3060   64.3150 C   0  0  0  0  0  0  0  0  0  0  0  0
  125.2830  131.3570   61.1340 C   0  0  0  0  0  0  0  0  0  0  0  0
  125.7170  130.0930   60.5970 C   0  0  0  0  0  0  0  0  0  0  0  0
  126.1230  129.0590   61.4000 N   0  0  0  0  0  0  0  0  0  0  0  0
  127.2020  126.1410   57.3600 C   0  0  0  0  0  0  0  0  0  0  0  0
  127.3960  124.8360   56.9160 C   0  0  0  0  0  0  0  0  0  0  0  0
  1  2  1  0
  2  3  1  0
  3  4  1  0
  4  5  2  0
  4  6  1  0
  6  7  2  0
  7  8  1  0
  8  9  2  0
  9 10  1  0
 10 11  1  0
 11 12  2  0
 11 13  1  0
 13 14  1  0
 14 15  1  0
 15 16  2  0
 16 17  1  0
 17 18  1  0
 17 19  2  0
 19 20  1  0
 20 21  1  0
 21 22  2  0
 22 23  1  0
 23 24  2  0
 24 25  1  0
 25 26  2  0
 20 27  2  0
 27 28  1  0
 28 29  1  0
  9 30  1  0
 30 31  2  0
 31  6  1  0
 28 13  2  0
 27 15  1  0
 26 21  1  0
M  END
>  <Binding energies>  (63) 
[-8.87]

>  <Ligand effiencies>  (63) 
[-0.26088235294117645]

>  <Interactions>  (63) 
["V-A:TYR:539:CE2:4876, V-A:TYR:539:CZ:4877, V-B:LEU:363:CD1:8160, V-B:PRO:540:N:9855, V-B:PRO:540:CA:9854, V-B:MET:535:CE:9806, V-B:TYR:539:C:9838, V-B:TYR:539:CE1:9846, V-B:TYR:539:CD1:9844, H-B:ASP:366:OD1:8185, V-B:PRO:540:CB:9856, H-B:ASP:366:OD2:8186, V-B:ASP:366:CG:8184, V-B:TRP:381:CZ2:8341, V-B:TRP:381:CH2:8343, V-B:LEU:475:CD1:9229, V-B:ARG:545:CZ:9897, V-B:ILE:369:CG2:8208, V-A:GLU:543:CG:4907, H-B:TYR:531:OH:9766, V-B:ASP:366:CB:8183, H-B:TYR:539:N:9841, V-B:PRO:540:CD:9858, V-B:ILE:538:CD1:9836, V-B:ILE:538:CG2:9834, V-B:ILE:538:CA:9831, V-B:TYR:539:CG:9843, V-B:MET:535:CB:9803, V-B:VAL:537:C:9821"]

$$$$
4eb_Grossjean_2025
     RDKit          3D

 30 33  0  0  0  0  0  0  0  0999 V2000
  127.9590  122.0990   58.5350 C   0  0  0  0  0  0  0  0  0  0  0  0
  127.4780  121.6740   57.2690 O   0  0  0  0  0  0  0  0  0  0  0  0
  126.6180  122.4450   56.5530 C   0  0  0  0  0  0  0  0  0  0  0  0
  126.0100  122.0420   55.5580 O   0  0  0  0  0  0  0  0  0  0  0  0
  126.4800  123.8390   57.0950 C   0  0  0  0  0  0  0  0  0  0  0  0
  125.4050  124.1410   57.9420 C   0  0  0  0  0  0  0  0  0  0  0  0
  125.2500  125.4230   58.4600 C   0  0  0  0  0  0  0  0  0  0  0  0
  126.1640  126.4290   58.1450 C   0  0  0  0  0  0  0  0  0  0  0  0
  125.9070  127.6860   58.7260 N   0  0  0  0  0  0  0  0  0  0  0  0
  126.0040  128.9320   58.2010 C   0  0  0  0  0  0  0  0  0  0  0  0
  126.3600  129.1740   57.0470 O   0  0  0  0  0  0  0  0  0  0  0  0
  125.6510  130.0240   59.1130 C   0  0  0  0  0  0  0  0  0  0  0  0
  125.0810  131.5680   58.4770 S   0  0  0  0  0  0  0  0  0  0  0  0
  124.9080  132.2230   60.0900 C   0  0  0  0  0  0  0  0  0  0  0  0
  124.4760  133.4670   60.3030 N   0  0  0  0  0  0  0  0  0  0  0  0
  124.3860  133.8530   61.5980 C   0  0  0  0  0  0  0  0  0  0  0  0
  123.8920  135.2720   61.8170 C   0  0  0  0  0  0  0  0  0  0  0  0
  124.7160  133.0340   62.6760 C   0  0  0  0  0  0  0  0  0  0  0  0
  125.1690  131.7300   62.4480 C   0  0  0  0  0  0  0  0  0  0  0  0
  125.5160  130.8710   63.6030 C   0  0  0  0  0  0  0  0  0  0  0  0
  124.5050  130.3250   64.4000 C   0  0  0  0  0  0  0  0  0  0  0  0
  124.8300  129.5150   65.4860 C   0  0  0  0  0  0  0  0  0  0  0  0
  126.1670  129.2550   65.7760 C   0  0  0  0  0  0  0  0  0  0  0  0
  127.1810  129.7970   64.9890 C   0  0  0  0  0  0  0  0  0  0  0  0
  126.8550  130.6050   63.9040 C   0  0  0  0  0  0  0  0  0  0  0  0
  125.2770  131.2860   61.1010 C   0  0  0  0  0  0  0  0  0  0  0  0
  125.6970  130.0400   60.5160 C   0  0  0  0  0  0  0  0  0  0  0  0
  126.1020  128.9730   61.2780 N   0  0  0  0  0  0  0  0  0  0  0  0
  127.2440  126.1370   57.2980 C   0  0  0  0  0  0  0  0  0  0  0  0
  127.3970  124.8540   56.7800 C   0  0  0  0  0  0  0  0  0  0  0  0
  1  2  1  0
  2  3  1  0
  3  4  2  0
  3  5  1  0
  5  6  2  0
  6  7  1  0
  7  8  2  0
  8  9  1  0
  9 10  1  0
 10 11  2  0
 10 12  1  0
 12 13  1  0
 13 14  1  0
 14 15  2  0
 15 16  1  0
 16 17  1  0
 16 18  2  0
 18 19  1  0
 19 20  1  0
 20 21  2  0
 21 22  1  0
 22 23  2  0
 23 24  1  0
 24 25  2  0
 19 26  2  0
 26 27  1  0
 27 28  1  0
  8 29  1  0
 29 30  2  0
 30  5  1  0
 27 12  2  0
 26 14  1  0
 25 20  1  0
M  END
>  <Binding energies>  (64) 
[-8.68]

>  <Ligand effiencies>  (64) 
[-0.263030303030303]

>  <Interactions>  (64) 
["V-A:TYR:539:CE2:4876, V-A:TYR:539:CZ:4877, V-B:TYR:539:CZ:9848, V-B:PRO:540:N:9855, V-B:PRO:540:CA:9854, V-B:TYR:539:C:9838, V-B:TYR:539:CE1:9846, V-B:TYR:539:CD1:9844, H-B:ASP:366:OD1:8185, H-B:ASP:366:OD2:8186, V-B:GLY:454:CA:9020, V-B:ASP:366:CG:8184, V-B:TRP:381:CZ2:8341, V-B:ARG:545:CD:9894, V-B:TRP:381:CH2:8343, V-B:LEU:475:CD1:9229, V-B:GLU:543:CD:9879, V-B:ARG:545:CZ:9897, V-B:ILE:369:CG2:8208, H-B:TYR:531:OH:9766, V-B:ASP:366:CB:8183, V-B:TYR:539:CD2:9845, H-B:TYR:539:N:9841, V-B:TYR:539:CE2:9847, V-B:PRO:540:CD:9858, V-B:TYR:539:CG:9843"]

$$$$
8b_Ghoteimi_2023
     RDKit          3D

 34 38  0  0  0  0  0  0  0  0999 V2000
  129.1300  129.4150   75.3230 C   0  0  0  0  0  0  0  0  0  0  0  0
  130.1180  128.8590   74.4620 O   0  0  0  0  0  0  0  0  0  0  0  0
  129.8590  128.7730   73.1070 C   0  0  0  0  0  0  0  0  0  0  0  0
  129.8330  127.4930   72.5570 C   0  0  0  0  0  0  0  0  0  0  0  0
  129.5820  127.3090   71.2020 C   0  0  0  0  0  0  0  0  0  0  0  0
  129.3480  128.4050   70.3570 C   0  0  0  0  0  0  0  0  0  0  0  0
  129.0780  128.2140   68.8990 C   0  0  0  0  0  0  0  0  0  0  0  0
  128.2720  129.1000   68.1760 C   0  0  0  0  0  0  0  0  0  0  0  0
  128.0360  128.8990   66.8130 C   0  0  0  0  0  0  0  0  0  0  0  0
  127.1700  129.8510   66.0790 C   0  0  0  0  0  0  0  0  0  0  0  0
  125.7970  129.6210   65.9830 C   0  0  0  0  0  0  0  0  0  0  0  0
  124.9830  130.5210   65.3010 C   0  0  0  0  0  0  0  0  0  0  0  0
  125.5270  131.6600   64.7050 C   0  0  0  0  0  0  0  0  0  0  0  0
  124.6440  132.4970   64.0510 O   0  0  0  0  0  0  0  0  0  0  0  0
  123.9290  132.0080   62.9210 C   0  0  0  0  0  0  0  0  0  0  0  0
  126.9090  131.8860   64.7990 C   0  0  0  0  0  0  0  0  0  0  0  0
  127.7220  130.9850   65.4820 C   0  0  0  0  0  0  0  0  0  0  0  0
  128.6440  127.7780   66.1870 C   0  0  0  0  0  0  0  0  0  0  0  0
  128.6230  127.2840   64.8350 C   0  0  0  0  0  0  0  0  0  0  0  0
  127.9220  127.9090   63.8360 N   0  0  0  0  0  0  0  0  0  0  0  0
  129.3800  126.1170   64.6440 C   0  0  0  0  0  0  0  0  0  0  0  0
  129.5830  125.3540   63.4100 C   0  0  0  0  0  0  0  0  0  0  0  0
  130.5720  125.5550   62.7020 O   0  0  0  0  0  0  0  0  0  0  0  0
  128.6190  124.4420   63.1260 N   0  0  0  0  0  0  0  0  0  0  0  0
  128.5610  123.5870   62.0330 C   0  0  0  0  0  0  0  0  0  0  0  0
  129.6600  123.3150   61.2200 C   0  0  0  0  0  0  0  0  0  0  0  0
  129.1920  122.4410   60.2660 C   0  0  0  0  0  0  0  0  0  0  0  0
  127.8800  122.1960   60.4940 O   0  0  0  0  0  0  0  0  0  0  0  0
  127.4910  122.9270   61.6190 N   0  0  0  0  0  0  0  0  0  0  0  0
  130.1450  125.6010   66.1470 S   0  0  0  0  0  0  0  0  0  0  0  0
  129.4480  126.9470   67.0190 C   0  0  0  0  0  0  0  0  0  0  0  0
  129.6710  127.1360   68.3190 N   0  0  0  0  0  0  0  0  0  0  0  0
  129.3720  129.6890   70.9170 C   0  0  0  0  0  0  0  0  0  0  0  0
  129.6240  129.8760   72.2730 C   0  0  0  0  0  0  0  0  0  0  0  0
  1  2  1  0
  2  3  1  0
  3  4  2  0
  4  5  1  0
  5  6  2  0
  6  7  1  0
  7  8  2  0
  8  9  1  0
  9 10  1  0
 10 11  2  0
 11 12  1  0
 12 13  2  0
 13 14  1  0
 14 15  1  0
 13 16  1  0
 16 17  2  0
  9 18  2  0
 18 19  1  0
 19 20  1  0
 19 21  2  0
 21 22  1  0
 22 23  2  0
 22 24  1  0
 24 25  1  0
 25 26  1  0
 26 27  2  0
 27 28  1  0
 28 29  1  0
 21 30  1  0
 30 31  1  0
 31 32  2  0
  6 33  1  0
 33 34  2  0
 34  3  1  0
 32  7  1  0
 17 10  1  0
 31 18  1  0
 29 25  2  0
M  END
>  <Binding energies>  (65) 
[-8.52]

>  <Ligand effiencies>  (65) 
[-0.23027027027027025]

>  <Interactions>  (65) 
["H-A:GLU:543:OE1:4909, H-B:GLU:543:OE2:9881, V-B:ALA:541:CB:9863, V-B:GLY:454:CA:9020, V-B:LEU:475:CD1:9229, V-B:ILE:369:CD1:8210, H-B:GLY:454:N:9021, V-B:GLU:543:CD:9879, V-B:HIS:456:CE1:9041, V-A:GLU:543:CG:4907, V-A:GLU:543:CD:4908, V-B:TYR:539:CD2:9845, V-B:TYR:539:CE2:9847, H-B:ALA:541:N:9862, V-B:GLU:543:CG:9878, H-B:GLU:543:OE1:9880, V-A:HIS:456:CE1:4069, V-A:GLU:543:C:4902, V-A:GLU:543:CB:4906, H-A:LYS:547:NZ:4951, V-A:LYS:547:CE:4950"]

$$$$
9d_Ghoteimi_2023
     RDKit          3D

 38 43  0  0  0  0  0  0  0  0999 V2000
  133.6720  125.1880   63.5860 C   0  0  0  0  0  0  0  0  0  0  0  0
  133.1420  124.1190   64.3560 O   0  0  0  0  0  0  0  0  0  0  0  0
  131.8110  123.8480   64.3470 C   0  0  0  0  0  0  0  0  0  0  0  0
  131.3350  122.7340   64.1140 O   0  0  0  0  0  0  0  0  0  0  0  0
  130.9790  125.0350   64.6420 C   0  0  0  0  0  0  0  0  0  0  0  0
  130.4650  126.0960   63.3310 S   0  0  0  0  0  0  0  0  0  0  0  0
  129.5880  127.1160   64.4460 C   0  0  0  0  0  0  0  0  0  0  0  0
  128.8920  128.1720   64.0260 N   0  0  0  0  0  0  0  0  0  0  0  0
  128.2300  128.8900   64.9710 C   0  0  0  0  0  0  0  0  0  0  0  0
  127.4360  130.0560   64.4730 C   0  0  0  0  0  0  0  0  0  0  0  0
  128.0790  131.1840   63.9560 C   0  0  0  0  0  0  0  0  0  0  0  0
  127.3490  132.2750   63.4930 C   0  0  0  0  0  0  0  0  0  0  0  0
  125.9450  132.2720   63.5180 C   0  0  0  0  0  0  0  0  0  0  0  0
  125.1980  133.3670   63.0730 N   0  0  0  0  0  0  0  0  0  0  0  0
  125.8270  134.4710   62.3200 C   0  0  0  0  0  0  0  0  0  0  0  0
  124.9490  135.7350   62.2150 C   0  0  0  0  0  0  0  0  0  0  0  0
  123.6830  135.4040   61.6690 O   0  0  0  0  0  0  0  0  0  0  0  0
  122.9960  134.4670   62.4810 C   0  0  0  0  0  0  0  0  0  0  0  0
  123.8130  133.1620   62.5970 C   0  0  0  0  0  0  0  0  0  0  0  0
  125.3050  131.1430   64.0520 C   0  0  0  0  0  0  0  0  0  0  0  0
  126.0370  130.0540   64.5180 C   0  0  0  0  0  0  0  0  0  0  0  0
  128.2930  128.5720   66.3300 C   0  0  0  0  0  0  0  0  0  0  0  0
  129.0380  127.4760   66.7780 C   0  0  0  0  0  0  0  0  0  0  0  0
  129.0940  127.1980   68.2370 C   0  0  0  0  0  0  0  0  0  0  0  0
  128.2930  126.2050   68.8050 C   0  0  0  0  0  0  0  0  0  0  0  0
  128.3620  125.9360   70.1700 C   0  0  0  0  0  0  0  0  0  0  0  0
  129.2470  126.6420   70.9990 C   0  0  0  0  0  0  0  0  0  0  0  0
  129.3290  126.3980   72.3720 N   0  0  0  0  0  0  0  0  0  0  0  0
  129.0690  125.0350   72.8750 C   0  0  0  0  0  0  0  0  0  0  0  0
  129.5650  124.8130   74.3190 C   0  0  0  0  0  0  0  0  0  0  0  0
  129.0000  125.7890   75.1830 O   0  0  0  0  0  0  0  0  0  0  0  0
  129.3580  127.1060   74.7910 C   0  0  0  0  0  0  0  0  0  0  0  0
  128.8510  127.3840   73.3600 C   0  0  0  0  0  0  0  0  0  0  0  0
  130.0460  127.6380   70.4180 C   0  0  0  0  0  0  0  0  0  0  0  0
  129.9750  127.9080   69.0550 C   0  0  0  0  0  0  0  0  0  0  0  0
  129.7050  126.6850   65.8010 C   0  0  0  0  0  0  0  0  0  0  0  0
  130.4910  125.4810   65.8770 C   0  0  0  0  0  0  0  0  0  0  0  0
  130.7220  124.8160   67.0540 N   0  0  0  0  0  0  0  0  0  0  0  0
  1  2  1  0
  2  3  1  0
  3  4  2  0
  3  5  1  0
  5  6  1  0
  6  7  1  0
  7  8  2  0
  8  9  1  0
  9 10  1  0
 10 11  2  0
 11 12  1  0
 12 13  2  0
 13 14  1  0
 14 15  1  0
 15 16  1  0
 16 17  1  0
 17 18  1  0
 18 19  1  0
 13 20  1  0
 20 21  2  0
  9 22  2  0
 22 23  1  0
 23 24  1  0
 24 25  2  0
 25 26  1  0
 26 27  2  0
 27 28  1  0
 28 29  1  0
 29 30  1  0
 30 31  1  0
 31 32  1  0
 32 33  1  0
 27 34  1  0
 34 35  2  0
 23 36  2  0
 36 37  1  0
 37 38  1  0
 37  5  2  0
 36  7  1  0
 21 10  1  0
 35 24  1  0
 19 14  1  0
 33 28  1  0
M  END
>  <Binding energies>  (66) 
[-8.5]

>  <Ligand effiencies>  (66) 
[-0.2125]

>  <Interactions>  (66) 
["V-B:GLY:454:CA:9020, V-B:TRP:381:CZ2:8341, V-B:TRP:381:CH2:8343, V-A:ALA:541:CB:4892, V-B:LEU:475:CD1:9229, V-B:ILE:369:CD1:8210, V-B:GLU:543:CD:9879, V-B:ILE:369:CG2:8208, V-B:SER:385:C:8376, V-B:HIS:456:CE1:9041, V-A:GLU:543:CG:4907, V-A:GLU:543:CD:4908, V-B:ILE:369:CG1:8209, V-B:GLU:543:CG:9878, H-A:GLY:454:N:4049, V-A:ARG:545:CZ:4926, H-A:TYR:484:OH:4347, V-A:HIS:456:CE1:4069, V-B:GLU:543:CB:9877, V-A:GLU:543:CB:4906, V-A:HIS:456:CD2:4067, V-A:TYR:484:CE1:4344, V-A:TYR:484:CZ:4346, V-B:HIS:456:CD2:9039, V-B:LYS:547:CE:9921, H-B:LYS:547:NZ:9922, V-B:GLU:543:C:9873, H-A:HIS:456:NE2:4070"]

$$$$
RR10_Rahimova_2017
     RDKit          3D

 34 38  0  0  0  0  0  0  0  0999 V2000
  131.7780  120.2730   60.5770 C   0  0  0  0  0  0  0  0  0  0  0  0
  131.4280  121.5980   61.2770 C   0  0  1  0  0  0  0  0  0  0  0  0
  131.1900  122.7410   60.2630 C   0  0  0  0  0  0  0  0  0  0  0  0
  130.8740  124.0680   60.9890 C   0  0  0  0  0  0  0  0  0  0  0  0
  129.6380  123.9470   61.9170 C   0  0  1  0  0  0  0  0  0  0  0  0
  128.4120  123.7640   61.1290 N   0  0  0  0  0  0  0  0  0  0  0  0
  127.2170  123.3880   61.6220 C   0  0  0  0  0  0  0  0  0  0  0  0
  127.0220  123.1760   62.8210 O   0  0  0  0  0  0  0  0  0  0  0  0
  126.0710  123.2140   60.6040 C   0  0  1  0  0  0  0  0  0  0  0  0
  124.9550  124.2490   60.9030 C   0  0  0  0  0  0  0  0  0  0  0  0
  123.8470  124.1390   59.8290 C   0  0  0  0  0  0  0  0  0  0  0  0
  124.4060  124.2160   58.3900 C   0  0  0  0  0  0  0  0  0  0  0  0
  125.5130  123.2380   58.2040 N   0  0  0  0  0  0  0  0  0  0  0  0
  126.0280  123.0250   56.5220 S   0  0  0  0  0  0  0  0  0  0  0  0
  124.8520  123.1900   55.6600 O   0  0  0  0  0  0  0  0  0  0  0  0
  126.8320  121.7990   56.4490 O   0  0  0  0  0  0  0  0  0  0  0  0
  127.1110  124.4140   56.1880 C   0  0  0  0  0  0  0  0  0  0  0  0
  128.2180  124.2340   55.3520 C   0  0  0  0  0  0  0  0  0  0  0  0
  129.1020  125.2750   55.0540 C   0  0  0  0  0  0  0  0  0  0  0  0
  128.8230  126.5150   55.6320 C   0  0  0  0  0  0  0  0  0  0  0  0
  129.4350  127.7450   55.5900 N   0  0  0  0  0  0  0  0  0  0  0  0
  128.7010  128.6130   56.3720 C   0  0  0  0  0  0  0  0  0  0  0  0
  129.0650  130.0550   56.5800 C   0  0  0  0  0  0  0  0  0  0  0  0
  130.3960  130.4770   56.4520 C   0  0  0  0  0  0  0  0  0  0  0  0
  130.7340  131.8140   56.6400 C   0  0  0  0  0  0  0  0  0  0  0  0
  129.7420  132.7380   56.9610 C   0  0  0  0  0  0  0  0  0  0  0  0
  128.4160  132.3350   57.0920 C   0  0  0  0  0  0  0  0  0  0  0  0
  128.0790  130.9970   56.9030 C   0  0  0  0  0  0  0  0  0  0  0  0
  127.6550  128.0250   56.9100 N   0  0  0  0  0  0  0  0  0  0  0  0
  127.7050  126.7280   56.4740 C   0  0  0  0  0  0  0  0  0  0  0  0
  126.8340  125.6640   56.7530 C   0  0  0  0  0  0  0  0  0  0  0  0
  126.6250  123.4120   59.1720 C   0  0  0  0  0  0  0  0  0  0  0  0
  129.8830  122.7850   62.9180 C   0  0  0  0  0  0  0  0  0  0  0  0
  130.1920  121.4550   62.1960 C   0  0  0  0  0  0  0  0  0  0  0  0
  2  1  1  6
  2  3  1  0
  3  4  1  0
  4  5  1  0
  5  6  1  6
  6  7  1  0
  7  8  2  0
  9  7  1  1
  9 10  1  0
 10 11  1  0
 11 12  1  0
 12 13  1  0
 13 14  1  0
 14 15  2  0
 14 16  2  0
 14 17  1  0
 17 18  2  0
 18 19  1  0
 19 20  2  0
 20 21  1  0
 21 22  1  0
 22 23  1  0
 23 24  2  0
 24 25  1  0
 25 26  2  0
 26 27  1  0
 27 28  2  0
 22 29  2  0
 29 30  1  0
 30 31  2  0
 13 32  1  0
  5 33  1  0
 33 34  1  0
 34  2  1  0
 32  9  1  0
 31 17  1  0
 30 20  1  0
 28 23  1  0
M  END
>  <Binding energies>  (67) 
[-11.12]

>  <Ligand effiencies>  (67) 
[-0.3088888888888889]

>  <Interactions>  (67) 
["V-A:TYR:539:CE2:4876, V-A:TYR:539:CZ:4877, V-A:TYR:539:CE1:4875, V-A:TYR:531:CZ:4794, V-A:TYR:539:CD2:4874, V-A:TYR:539:C:4867, V-B:TYR:539:CZ:9848, V-B:LEU:363:CD1:8160, V-B:PRO:540:CA:9854, V-B:ALA:541:CB:9863, V-B:MET:535:CE:9806, V-B:TYR:539:CE1:9846, V-B:PRO:540:CB:9856, V-B:ASP:366:CG:8184, V-A:MET:535:CE:4835, H-B:TYR:531:OH:9766, V-B:TYR:539:CD2:9845, V-B:PRO:540:C:9852, H-B:TYR:539:N:9841, V-B:LEU:363:CA:8156, V-B:TYR:539:CE2:9847, V-A:TRP:381:CH2:3371, V-A:LEU:475:CD2:4258, H-A:TYR:531:OH:4795, V-A:ILE:369:CG2:3236, H-B:ALA:541:N:9862, V-B:ASN:362:C:8143, H-A:MET:535:SD:4834"]

$$$$
RR12_Rahimova_2017
     RDKit          3D

 26 28  0  0  0  0  0  0  0  0999 V2000
  127.3770  135.1680   61.3550 C   0  0  0  0  0  0  0  0  0  0  0  0
  128.2220  133.8910   61.4540 C   0  0  0  0  0  0  0  0  0  0  0  0
  128.1720  133.0470   60.1670 C   0  0  0  0  0  0  0  0  0  0  0  0
  129.5200  132.7170   59.7110 N   0  0  0  0  0  0  0  0  0  0  0  0
  130.0110  132.7770   58.4160 C   0  0  0  0  0  0  0  0  0  0  0  0
  129.1750  133.1690   57.2100 C   0  0  0  0  0  0  0  0  0  0  0  0
  128.5310  131.9520   56.5210 C   0  0  0  0  0  0  0  0  0  0  0  0
  127.9240  130.9520   57.5240 C   0  0  0  0  0  0  0  0  0  0  0  0
  126.5060  131.1790   57.8000 N   0  0  0  0  0  0  0  0  0  0  0  0
  125.4890  130.6500   57.0970 C   0  0  0  0  0  0  0  0  0  0  0  0
  125.6520  129.9060   56.1270 O   0  0  0  0  0  0  0  0  0  0  0  0
  124.0820  131.0240   57.5810 C   0  0  0  0  0  0  0  0  0  0  0  0
  124.1260  132.2900   58.2400 O   0  0  0  0  0  0  0  0  0  0  0  0
  124.1240  132.3350   59.6220 C   0  0  0  0  0  0  0  0  0  0  0  0
  123.7030  131.1760   60.2790 C   0  0  0  0  0  0  0  0  0  0  0  0
  123.6710  131.1250   61.6700 C   0  0  0  0  0  0  0  0  0  0  0  0
  124.0610  132.2370   62.4100 C   0  0  0  0  0  0  0  0  0  0  0  0
  124.4810  133.4010   61.7710 C   0  0  0  0  0  0  0  0  0  0  0  0
  124.5130  133.4520   60.3800 C   0  0  0  0  0  0  0  0  0  0  0  0
  131.2750  132.4440   58.3230 N   0  0  0  0  0  0  0  0  0  0  0  0
  131.6610  132.1720   59.6060 C   0  0  0  0  0  0  0  0  0  0  0  0
  132.9200  131.7790   60.0850 C   0  0  0  0  0  0  0  0  0  0  0  0
  133.0650  131.5660   61.4560 C   0  0  0  0  0  0  0  0  0  0  0  0
  131.9930  131.7380   62.3330 C   0  0  0  0  0  0  0  0  0  0  0  0
  130.7280  132.1270   61.8880 C   0  0  0  0  0  0  0  0  0  0  0  0
  130.5830  132.3390   60.5110 C   0  0  0  0  0  0  0  0  0  0  0  0
  1  2  1  0
  2  3  1  0
  3  4  1  0
  4  5  1  0
  5  6  1  0
  6  7  1  0
  7  8  1  0
  8  9  1  0
  9 10  1  0
 10 11  2  0
 10 12  1  0
 12 13  1  0
 13 14  1  0
 14 15  2  0
 15 16  1  0
 16 17  2  0
 17 18  1  0
 18 19  2  0
  5 20  2  0
 20 21  1  0
 21 22  2  0
 22 23  1  0
 23 24  2  0
 24 25  1  0
 25 26  2  0
 26  4  1  0
 19 14  1  0
 26 21  1  0
M  END
>  <Binding energies>  (68) 
[-6.98]

>  <Ligand effiencies>  (68) 
[-0.25851851851851854]

>  <Interactions>  (68) 
["V-A:TYR:539:CD1:4873, V-A:TYR:539:CE2:4876, V-A:TYR:539:CG:4872, V-A:TYR:539:CZ:4877, V-A:TYR:539:CE1:4875, V-A:PRO:540:CA:4883, V-A:ASN:362:CB:3175, V-A:TYR:539:CA:4869, V-A:PRO:540:CB:4885, V-A:PRO:540:N:4884, V-A:TYR:539:CD2:4874, V-A:ASP:366:CG:3212, V-A:TYR:539:C:4867, V-B:ASP:366:CG:8184, V-A:ALA:541:CB:4892, V-B:ILE:369:CD1:8210, V-B:ILE:369:CG2:8208, V-A:MET:535:CE:4835, V-A:PRO:540:C:4881, V-A:GLU:543:CD:4908, H-B:TYR:531:OH:9766, H-A:TYR:539:OH:4878, V-B:ASP:366:CB:8183, V-B:ASP:366:C:8179, V-B:ASP:366:CA:8181, V-B:ILE:369:CB:8207"]

$$$$
RR13_Rahimova_2017
     RDKit          3D

 48 54  0  0  0  0  0  0  0  0999 V2000
  131.0050  125.0830   58.2660 Cl  0  0  0  0  0  0  0  0  0  0  0  0
  130.0000  123.9180   59.0610 C   0  0  0  0  0  0  0  0  0  0  0  0
  130.5030  123.3000   60.2080 C   0  0  0  0  0  0  0  0  0  0  0  0
  129.7530  122.3390   60.8800 C   0  0  0  0  0  0  0  0  0  0  0  0
  128.4920  121.9870   60.4060 C   0  0  0  0  0  0  0  0  0  0  0  0
  127.9830  122.5990   59.2620 C   0  0  0  0  0  0  0  0  0  0  0  0
  128.7200  123.5790   58.5770 C   0  0  0  0  0  0  0  0  0  0  0  0
  128.1440  124.2240   57.2970 C   0  0  1  0  0  0  0  0  0  0  0  0
  126.9900  123.3850   56.7270 C   0  0  0  0  0  0  0  0  0  0  0  0
  127.0940  122.2480   56.0750 N   0  0  0  0  0  0  0  0  0  0  0  0
  125.7940  121.8830   55.7380 N   0  0  0  0  0  0  0  0  0  0  0  0
  124.9020  122.8370   56.1860 N   0  0  0  0  0  0  0  0  0  0  0  0
  125.6660  123.7660   56.7710 N   0  0  0  0  0  0  0  0  0  0  0  0
  125.0580  124.9290   57.4050 C   0  0  0  0  0  0  0  0  0  0  0  0
  124.0100  124.4850   58.4430 C   0  0  0  0  0  0  0  0  0  0  0  0
  124.6220  124.2580   59.8170 C   0  0  0  0  0  0  0  0  0  0  0  0
  123.9240  123.5240   60.7790 C   0  0  0  0  0  0  0  0  0  0  0  0
  124.4810  123.3230   62.0390 C   0  0  0  0  0  0  0  0  0  0  0  0
  125.7350  123.8590   62.3320 C   0  0  0  0  0  0  0  0  0  0  0  0
  126.4340  124.5920   61.3780 C   0  0  0  0  0  0  0  0  0  0  0  0
  125.8770  124.7930   60.1170 C   0  0  0  0  0  0  0  0  0  0  0  0
  127.7750  125.6490   57.4690 N   0  0  0  0  0  0  0  0  0  0  0  0
  128.4240  126.4800   56.4380 C   0  0  0  0  0  0  0  0  0  0  0  0
  127.9390  127.9460   56.5290 C   0  0  0  0  0  0  0  0  0  0  0  0
  128.2820  128.5260   57.8380 N   0  0  0  0  0  0  0  0  0  0  0  0
  127.9100  129.9560   57.9390 C   0  0  1  0  0  0  0  0  0  0  0  0
  128.8700  130.9450   57.2430 C   0  0  0  0  0  0  0  0  0  0  0  0
  128.2920  131.9780   56.4920 C   0  0  0  0  0  0  0  0  0  0  0  0
  129.0820  132.9270   55.8440 C   0  0  0  0  0  0  0  0  0  0  0  0
  130.4690  132.8530   55.9330 C   0  0  0  0  0  0  0  0  0  0  0  0
  131.0630  131.8260   56.6600 C   0  0  0  0  0  0  0  0  0  0  0  0
  130.2810  130.8680   57.3100 C   0  0  0  0  0  0  0  0  0  0  0  0
  131.1160  129.5910   58.1310 Cl  0  0  0  0  0  0  0  0  0  0  0  0
  126.4670  130.2330   57.5090 C   0  0  0  0  0  0  0  0  0  0  0  0
  125.9510  129.9370   56.3390 N   0  0  0  0  0  0  0  0  0  0  0  0
  124.6230  130.3470   56.3920 N   0  0  0  0  0  0  0  0  0  0  0  0
  124.3440  130.8860   57.6310 N   0  0  0  0  0  0  0  0  0  0  0  0
  125.4920  130.7860   58.3110 N   0  0  0  0  0  0  0  0  0  0  0  0
  125.5760  131.2860   59.6790 C   0  0  0  0  0  0  0  0  0  0  0  0
  126.8030  132.2020   59.8420 C   0  0  0  0  0  0  0  0  0  0  0  0
  126.4610  133.4970   60.5610 C   0  0  0  0  0  0  0  0  0  0  0  0
  125.1240  133.8450   60.7740 C   0  0  0  0  0  0  0  0  0  0  0  0
  124.8110  135.0280   61.4390 C   0  0  0  0  0  0  0  0  0  0  0  0
  125.8360  135.8590   61.8880 C   0  0  0  0  0  0  0  0  0  0  0  0
  127.1710  135.5170   61.6790 C   0  0  0  0  0  0  0  0  0  0  0  0
  127.4850  134.3340   61.0160 C   0  0  0  0  0  0  0  0  0  0  0  0
  127.6280  127.6960   58.8650 C   0  0  0  0  0  0  0  0  0  0  0  0
  128.1240  126.2340   58.7760 C   0  0  0  0  0  0  0  0  0  0  0  0
  1  2  1  0
  2  3  2  0
  3  4  1  0
  4  5  2  0
  5  6  1  0
  6  7  2  0
  7  8  1  0
  8  9  1  0
  9 10  2  0
 10 11  1  0
 11 12  2  0
 12 13  1  0
 13 14  1  0
 14 15  1  0
 15 16  1  0
 16 17  2  0
 17 18  1  0
 18 19  2  0
 19 20  1  0
 20 21  2  0
  8 22  1  1
 22 23  1  0
 23 24  1  0
 24 25  1  0
 26 25  1  6
 26 27  1  0
 27 28  2  0
 28 29  1  0
 29 30  2  0
 30 31  1  0
 31 32  2  0
 32 33  1  0
 26 34  1  0
 34 35  2  0
 35 36  1  0
 36 37  2  0
 37 38  1  0
 38 39  1  0
 39 40  1  0
 40 41  1  0
 41 42  2  0
 42 43  1  0
 43 44  2  0
 44 45  1  0
 45 46  2  0
 25 47  1  0
 47 48  1  0
  7  2  1  0
 13  9  1  0
 21 16  1  0
 48 22  1  0
 32 27  1  0
 38 34  1  0
 46 41  1  0
M  END
>  <Binding energies>  (69) 
[-15.0]

>  <Ligand effiencies>  (69) 
[-0.3125]

>  <Interactions>  (69) 
["V-A:TYR:539:CD1:4873, V-A:TYR:539:CE2:4876, V-A:TYR:539:CG:4872, V-A:TYR:539:CZ:4877, V-A:TYR:539:CE1:4875, V-A:TYR:539:CD2:4874, V-A:ILE:538:CA:4860, V-A:ILE:538:CB:4862, V-B:TYR:539:CZ:9848, V-B:LEU:363:CD1:8160, V-B:PRO:540:N:9855, V-B:PRO:540:CA:9854, V-B:ALA:541:CB:9863, V-B:MET:535:CE:9806, V-B:TYR:539:C:9838, V-B:TYR:539:CE1:9846, V-B:PRO:540:CB:9856, V-B:TRP:381:CZ2:8341, V-B:TRP:381:CH2:8343, V-A:ALA:541:CB:4892, V-B:LEU:475:CD1:9229, V-B:GLU:543:CD:9879, V-B:ILE:369:CG2:8208, V-A:MET:535:CE:4835, H-B:TYR:531:OH:9766, H-A:TYR:539:OH:4878, V-B:TYR:539:CD2:9845, V-B:PRO:540:C:9852, H-B:TYR:539:N:9841, V-B:LEU:363:CA:8156, V-B:TYR:539:CE2:9847, V-B:TYR:531:CZ:9765, V-B:TYR:531:CE2:9764, V-B:ASN:362:C:8143, V-B:ASN:362:CB:8147, V-B:ASN:362:CG:8148, V-B:GLU:543:CG:9878, V-B:ASN:362:CA:8145"]

$$$$
RR14_Rahimova_2017
     RDKit          3D

 39 43  0  0  0  0  0  0  0  0999 V2000
  124.8870  129.5640   66.2380 C   0  0  0  0  0  0  0  0  0  0  0  0
  123.8670  129.8360   65.2830 O   0  0  0  0  0  0  0  0  0  0  0  0
  124.2160  130.3720   64.0590 C   0  0  0  0  0  0  0  0  0  0  0  0
  125.5650  130.6770   63.8750 C   0  0  0  0  0  0  0  0  0  0  0  0
  126.0070  131.2430   62.6830 C   0  0  0  0  0  0  0  0  0  0  0  0
  125.0970  131.5160   61.6600 C   0  0  0  0  0  0  0  0  0  0  0  0
  125.5660  132.1960   60.3800 C   0  0  0  0  0  0  0  0  0  0  0  0
  124.8070  131.7900   59.1970 N   0  0  0  0  0  0  0  0  0  0  0  0
  123.9230  132.6270   58.6410 N   0  0  0  0  0  0  0  0  0  0  0  0
  123.3830  131.9170   57.5870 N   0  0  0  0  0  0  0  0  0  0  0  0
  123.9480  130.6470   57.5260 N   0  0  0  0  0  0  0  0  0  0  0  0
  124.8050  130.5910   58.5180 C   0  0  0  0  0  0  0  0  0  0  0  0
  125.6570  129.3800   58.8740 C   0  0  0  0  0  0  0  0  0  0  0  0
  126.7450  129.1540   57.9080 N   0  0  0  0  0  0  0  0  0  0  0  0
  127.6110  130.3320   57.7700 C   0  0  0  0  0  0  0  0  0  0  0  0
  128.1060  130.8910   59.1220 C   0  0  0  0  0  0  0  0  0  0  0  0
  129.0370  132.1130   58.9840 C   0  0  0  0  0  0  0  0  0  0  0  0
  129.7760  132.1400   57.7180 N   0  0  0  0  0  0  0  0  0  0  0  0
  131.1560  132.5910   57.9400 C   0  0  0  0  0  0  0  0  0  0  0  0
  131.9460  132.6810   56.6180 C   0  0  0  0  0  0  0  0  0  0  0  0
  131.2520  133.5050   55.6880 O   0  0  0  0  0  0  0  0  0  0  0  0
  129.9550  133.0040   55.3860 C   0  0  0  0  0  0  0  0  0  0  0  0
  129.1040  132.9250   56.6710 C   0  0  0  0  0  0  0  0  0  0  0  0
  127.5340  127.9780   58.3010 C   0  0  0  0  0  0  0  0  0  0  0  0
  127.2510  126.6910   57.5300 C   0  0  0  0  0  0  0  0  0  0  0  0
  126.3070  125.8150   57.9540 C   0  0  0  0  0  0  0  0  0  0  0  0
  126.0410  124.5440   57.2490 C   0  0  0  0  0  0  0  0  0  0  0  0
  125.0580  123.6240   57.6480 C   0  0  0  0  0  0  0  0  0  0  0  0
  124.1760  123.8750   58.8640 C   0  0  0  0  0  0  0  0  0  0  0  0
  124.8850  122.4500   56.9090 C   0  0  0  0  0  0  0  0  0  0  0  0
  125.6730  122.1920   55.7890 C   0  0  0  0  0  0  0  0  0  0  0  0
  126.6530  123.1030   55.3820 C   0  0  0  0  0  0  0  0  0  0  0  0
  127.4970  122.7930   54.1520 C   0  0  0  0  0  0  0  0  0  0  0  0
  126.8350  124.2850   56.1170 C   0  0  0  0  0  0  0  0  0  0  0  0
  127.8130  125.2320   55.7460 N   0  0  0  0  0  0  0  0  0  0  0  0
  128.0910  126.4080   56.3620 C   0  0  0  0  0  0  0  0  0  0  0  0
  128.9870  127.1370   55.9380 O   0  0  0  0  0  0  0  0  0  0  0  0
  123.7490  131.1870   61.8230 C   0  0  0  0  0  0  0  0  0  0  0  0
  123.3090  130.6220   63.0160 C   0  0  0  0  0  0  0  0  0  0  0  0
  1  2  1  0
  2  3  1  0
  3  4  2  0
  4  5  1  0
  5  6  2  0
  6  7  1  0
  7  8  1  0
  8  9  1  0
  9 10  2  0
 10 11  1  0
 11 12  2  0
 12 13  1  0
 13 14  1  0
 14 15  1  0
 15 16  1  0
 16 17  1  0
 17 18  1  0
 18 19  1  0
 19 20  1  0
 20 21  1  0
 21 22  1  0
 22 23  1  0
 14 24  1  0
 24 25  1  0
 25 26  2  0
 26 27  1  0
 27 28  2  0
 28 29  1  0
 28 30  1  0
 30 31  2  0
 31 32  1  0
 32 33  1  0
 32 34  2  0
 34 35  1  0
 35 36  1  0
 36 37  2  0
  6 38  1  0
 38 39  2  0
 39  3  1  0
 12  8  1  0
 23 18  1  0
 36 25  1  0
 34 27  1  0
M  END
>  <Binding energies>  (70) 
[-11.62]

>  <Ligand effiencies>  (70) 
[-0.2905]

>  <Interactions>  (70) 
["V-A:TYR:539:CD1:4873, V-A:TYR:539:CE2:4876, V-A:TYR:539:CG:4872, V-A:ILE:538:C:4858, V-A:TYR:539:CZ:4877, V-A:TYR:539:CE1:4875, V-A:LEU:363:CD1:3188, V-A:PRO:540:CA:4883, V-A:ILE:538:CG2:4863, V-A:PRO:540:CD:4887, V-A:PRO:540:CB:4885, V-A:PRO:540:N:4884, V-A:TYR:539:CD2:4874, V-A:ILE:538:CA:4860, V-A:TYR:539:C:4867, H-A:TYR:539:N:4870, V-A:ILE:538:CB:4862, V-B:LEU:363:CD1:8160, V-B:PRO:540:N:9855, V-B:PRO:540:CA:9854, V-B:MET:535:CE:9806, V-B:TYR:539:CE1:9846, V-B:TYR:539:CD1:9844, V-B:PRO:540:CB:9856, V-B:GLY:454:CA:9020, V-B:ASP:366:CG:8184, V-B:ARG:545:CD:9894, V-B:ILE:369:CD1:8210, V-B:GLY:453:CA:9015, H-B:GLY:454:N:9021, V-B:GLY:453:C:9013, V-B:ARG:545:CZ:9897, V-A:MET:535:CE:4835, H-B:TYR:531:OH:9766, H-A:TYR:539:OH:4878, V-B:ASP:366:CB:8183, V-B:ASP:366:CA:8181, V-B:LEU:363:CA:8156, V-B:PRO:540:CD:9858, H-A:TYR:531:OH:4795, H-B:ARG:545:NH2:9899, H-B:MET:535:SD:9805, H-B:ARG:545:NE:9895, H-B:ASN:370:N:8215, V-B:ILE:538:CD1:9836, V-B:ILE:538:CG2:9834, V-B:LEU:363:CB:8158, V-B:ILE:538:CA:9831, V-B:MET:535:CB:9803, V-B:PRO:540:CG:9857, H-B:ARG:545:NH1:9898"]

$$$$
RR15_Rahimova_2017
     RDKit          3D

 45 49  0  0  0  0  0  0  0  0999 V2000
  129.3430  128.6020   74.8420 C   0  0  0  0  0  0  0  0  0  0  0  0
  130.3920  128.0570   74.0490 O   0  0  0  0  0  0  0  0  0  0  0  0
  130.2100  127.9100   72.6850 C   0  0  0  0  0  0  0  0  0  0  0  0
  130.8010  128.7490   71.7270 C   0  0  0  0  0  0  0  0  0  0  0  0
  130.5740  128.5470   70.3670 C   0  0  0  0  0  0  0  0  0  0  0  0
  129.7520  127.5060   69.9260 C   0  0  0  0  0  0  0  0  0  0  0  0
  129.5020  127.2920   68.4580 C   0  0  0  0  0  0  0  0  0  0  0  0
  128.7130  128.0790   67.7400 N   0  0  0  0  0  0  0  0  0  0  0  0
  128.7260  127.5670   66.4590 N   0  0  0  0  0  0  0  0  0  0  0  0
  129.5680  126.5360   66.5420 N   0  0  0  0  0  0  0  0  0  0  0  0
  129.7560  125.5980   65.4360 C   0  0  0  0  0  0  0  0  0  0  0  0
  130.7580  126.0670   64.3510 C   0  0  0  0  0  0  0  0  0  0  0  0
  131.9190  126.3010   64.6920 O   0  0  0  0  0  0  0  0  0  0  0  0
  130.3440  126.1800   63.0510 N   0  0  0  0  0  0  0  0  0  0  0  0
  129.0880  125.5560   62.5880 C   0  0  0  0  0  0  0  0  0  0  0  0
  129.1050  124.0140   62.6520 C   0  0  0  0  0  0  0  0  0  0  0  0
  128.5850  123.3060   61.3780 C   0  0  0  0  0  0  0  0  0  0  0  0
  127.1250  123.1780   61.3280 N   0  0  0  0  0  0  0  0  0  0  0  0
  126.4660  123.4640   62.6110 C   0  0  0  0  0  0  0  0  0  0  0  0
  124.9290  123.3990   62.4830 C   0  0  0  0  0  0  0  0  0  0  0  0
  124.4860  124.2660   61.4440 O   0  0  0  0  0  0  0  0  0  0  0  0
  125.0430  123.9260   60.1790 C   0  0  0  0  0  0  0  0  0  0  0  0
  126.5840  124.0090   60.2440 C   0  0  0  0  0  0  0  0  0  0  0  0
  131.0000  127.0810   62.0540 C   0  0  2  0  0  0  0  0  0  0  0  0
  130.1080  128.2740   61.5900 C   0  0  0  0  0  0  0  0  0  0  0  0
  129.0770  128.0830   60.9440 O   0  0  0  0  0  0  0  0  0  0  0  0
  130.5200  129.4940   61.9780 N   0  0  0  0  0  0  0  0  0  0  0  0
  129.7970  130.7400   61.7510 C   0  0  0  0  0  0  0  0  0  0  0  0
  130.7650  131.8950   61.4340 C   0  0  2  0  0  0  0  0  0  0  0  0
  131.1880  132.0160   59.9600 C   0  0  0  0  0  0  0  0  0  0  0  0
  132.5700  131.4100   59.9110 C   0  0  0  0  0  0  0  0  0  0  0  0
  133.1130  131.7930   61.2770 C   0  0  0  0  0  0  0  0  0  0  0  0
  131.9860  131.5930   62.1230 O   0  0  0  0  0  0  0  0  0  0  0  0
  131.7020  126.2670   60.9730 C   0  0  0  0  0  0  0  0  0  0  0  0
  131.3660  126.5170   59.6370 C   0  0  0  0  0  0  0  0  0  0  0  0
  131.9730  125.8040   58.6080 C   0  0  0  0  0  0  0  0  0  0  0  0
  132.9250  124.8340   58.9080 C   0  0  0  0  0  0  0  0  0  0  0  0
  133.5170  124.1420   57.9080 F   0  0  0  0  0  0  0  0  0  0  0  0
  133.2740  124.5730   60.2300 C   0  0  0  0  0  0  0  0  0  0  0  0
  132.6650  125.2860   61.2590 C   0  0  0  0  0  0  0  0  0  0  0  0
  130.0420  126.3030   67.7720 N   0  0  0  0  0  0  0  0  0  0  0  0
  129.1660  126.6690   70.8840 C   0  0  0  0  0  0  0  0  0  0  0  0
  129.3870  126.8570   72.2590 C   0  0  0  0  0  0  0  0  0  0  0  0
  128.8340  126.0550   73.2420 O   0  0  0  0  0  0  0  0  0  0  0  0
  129.0310  124.6470   73.1940 C   0  0  0  0  0  0  0  0  0  0  0  0
  1  2  1  0
  2  3  1  0
  3  4  2  0
  4  5  1  0
  5  6  2  0
  6  7  1  0
  7  8  1  0
  8  9  2  0
  9 10  1  0
 10 11  1  0
 11 12  1  0
 12 13  2  0
 12 14  1  0
 14 15  1  0
 15 16  1  0
 16 17  1  0
 17 18  1  0
 18 19  1  0
 19 20  1  0
 20 21  1  0
 21 22  1  0
 22 23  1  0
 24 14  1  6
 24 25  1  0
 25 26  2  0
 25 27  1  0
 27 28  1  0
 29 28  1  6
 29 30  1  0
 30 31  1  0
 31 32  1  0
 32 33  1  0
 24 34  1  0
 34 35  2  0
 35 36  1  0
 36 37  2  0
 37 38  1  0
 37 39  1  0
 39 40  2  0
 10 41  1  0
  6 42  1  0
 42 43  2  0
 43 44  1  0
 44 45  1  0
 43  3  1  0
 41  7  2  0
 23 18  1  0
 33 29  1  0
 40 34  1  0
M  END
>  <Binding energies>  (71) 
[-9.73]

>  <Ligand effiencies>  (71) 
[-0.2115217391304348]

>  <Interactions>  (71) 
["V-A:PRO:540:CA:4883, V-A:ASN:362:CB:3175, V-A:ASP:366:CB:3211, H-A:GLU:543:OE1:4909, V-A:PRO:540:CB:4885, V-A:ASP:366:CG:3212, H-A:ASP:366:OD2:3214, V-B:TYR:539:CZ:9848, V-B:PRO:540:CA:9854, V-B:ALA:541:CB:9863, V-B:PRO:540:CB:9856, V-B:GLU:543:CD:9879, H-A:ALA:541:N:4891, V-B:HIS:456:CE1:9041, V-A:GLU:543:CD:4908, V-B:TYR:539:CE2:9847, V-A:ASP:366:CA:3209, H-B:ARG:545:NH2:9899, V-A:ILE:369:CG2:3236, H-B:ALA:541:N:9862, V-B:ALA:541:CA:9861, V-B:ASN:362:CB:8147, V-A:ILE:369:CD1:3238, V-B:ALA:541:C:9859, V-B:ASN:362:CG:8148, V-B:GLU:543:CG:9878, H-A:ARG:545:NH2:4928, V-A:ASP:366:C:3207, H-A:ARG:545:NE:4924, V-A:HIS:456:CE1:4069, V-A:GLU:543:CB:4906, V-A:HIS:456:CD2:4067, V-B:LYS:547:CE:9921, H-B:LYS:547:NZ:9922, H-A:LYS:547:NZ:4951, V-A:LYS:547:CE:4950, V-A:ILE:369:CB:3235, V-A:ILE:369:C:3231"]

$$$$
RR17_Rahimova_2017
     RDKit          3D

 38 41  0  0  0  0  0  0  0  0999 V2000
  132.0530  132.1830   57.8200 C   0  0  0  0  0  0  0  0  0  0  0  0
  131.2980  132.6120   56.5580 C   0  0  0  0  0  0  0  0  0  0  0  0
  130.1390  133.3450   56.9450 O   0  0  0  0  0  0  0  0  0  0  0  0
  128.9990  132.6590   57.3240 C   0  0  0  0  0  0  0  0  0  0  0  0
  128.5850  132.8240   58.6450 C   0  0  0  0  0  0  0  0  0  0  0  0
  127.4500  132.1740   59.1180 C   0  0  0  0  0  0  0  0  0  0  0  0
  126.7030  131.3380   58.2760 C   0  0  0  0  0  0  0  0  0  0  0  0
  125.4830  130.6500   58.8140 C   0  0  0  0  0  0  0  0  0  0  0  0
  124.5430  130.3080   58.0910 O   0  0  0  0  0  0  0  0  0  0  0  0
  125.4360  130.3940   60.3370 C   0  0  0  0  0  0  0  0  0  0  0  0
  124.1590  131.4050   61.1680 S   0  0  0  0  0  0  0  0  0  0  0  0
  124.4640  130.9580   62.8540 C   0  0  0  0  0  0  0  0  0  0  0  0
  123.5770  130.4540   63.6790 N   0  0  0  0  0  0  0  0  0  0  0  0
  124.2060  130.2330   64.8980 N   0  0  0  0  0  0  0  0  0  0  0  0
  125.4520  130.6090   64.7620 C   0  0  0  0  0  0  0  0  0  0  0  0
  126.5040  130.5270   65.8590 C   0  0  0  0  0  0  0  0  0  0  0  0
  126.7050  129.1790   66.3830 N   0  0  0  0  0  0  0  0  0  0  0  0
  127.6830  128.8510   67.3390 C   0  0  0  0  0  0  0  0  0  0  0  0
  128.0230  129.8300   68.2730 C   0  0  0  0  0  0  0  0  0  0  0  0
  128.9870  129.5740   69.2430 C   0  0  0  0  0  0  0  0  0  0  0  0
  129.6220  128.3290   69.2940 C   0  0  0  0  0  0  0  0  0  0  0  0
  130.6830  128.0660   70.3620 C   0  0  0  0  0  0  0  0  0  0  0  0
  130.8250  129.0970   71.1980 F   0  0  0  0  0  0  0  0  0  0  0  0
  130.3600  126.9920   71.0840 F   0  0  0  0  0  0  0  0  0  0  0  0
  131.8550  127.8450   69.7670 F   0  0  0  0  0  0  0  0  0  0  0  0
  129.2770  127.3430   68.3640 C   0  0  0  0  0  0  0  0  0  0  0  0
  128.3120  127.6000   67.3950 C   0  0  0  0  0  0  0  0  0  0  0  0
  125.6820  131.0910   63.4890 N   0  0  0  0  0  0  0  0  0  0  0  0
  126.8860  131.5750   62.9570 C   0  0  0  0  0  0  0  0  0  0  0  0
  127.0000  132.9270   62.6320 C   0  0  0  0  0  0  0  0  0  0  0  0
  128.1940  133.4060   62.1010 C   0  0  0  0  0  0  0  0  0  0  0  0
  129.2760  132.5350   61.8930 C   0  0  0  0  0  0  0  0  0  0  0  0
  130.4960  132.9210   61.3720 O   0  0  0  0  0  0  0  0  0  0  0  0
  131.5810  132.0000   61.3870 C   0  0  0  0  0  0  0  0  0  0  0  0
  129.1430  131.1850   62.2220 C   0  0  0  0  0  0  0  0  0  0  0  0
  127.9520  130.6990   62.7550 C   0  0  0  0  0  0  0  0  0  0  0  0
  127.1210  131.1740   56.9470 C   0  0  0  0  0  0  0  0  0  0  0  0
  128.2560  131.8270   56.4750 C   0  0  0  0  0  0  0  0  0  0  0  0
  1  2  1  0
  2  3  1  0
  3  4  1  0
  4  5  2  0
  5  6  1  0
  6  7  2  0
  7  8  1  0
  8  9  2  0
  8 10  1  0
 10 11  1  0
 11 12  1  0
 12 13  2  0
 13 14  1  0
 14 15  2  0
 15 16  1  0
 16 17  1  0
 17 18  1  0
 18 19  2  0
 19 20  1  0
 20 21  2  0
 21 22  1  0
 22 23  1  0
 22 24  1  0
 22 25  1  0
 21 26  1  0
 26 27  2  0
 15 28  1  0
 28 29  1  0
 29 30  2  0
 30 31  1  0
 31 32  2  0
 32 33  1  0
 33 34  1  0
 32 35  1  0
 35 36  2  0
  7 37  1  0
 37 38  2  0
 38  4  1  0
 28 12  1  0
 36 29  1  0
 27 18  1  0
M  END
>  <Binding energies>  (72) 
[-9.39]

>  <Ligand effiencies>  (72) 
[-0.2407692307692308]

>  <Interactions>  (72) 
["V-A:TYR:539:CE2:4876, V-A:TYR:539:CZ:4877, V-A:TYR:539:CE1:4875, V-A:LEU:363:CD1:3188, V-A:PRO:540:CA:4883, V-A:PRO:540:CB:4885, V-A:PRO:540:N:4884, V-A:TYR:539:CD2:4874, V-A:TYR:539:C:4867, H-A:TYR:539:N:4870, H-B:GLU:543:OE2:9881, V-B:ASP:366:CG:8184, V-A:ALA:541:CB:4892, H-B:GLY:454:N:9021, V-B:GLU:543:CD:9879, V-A:MET:535:CE:4835, H-A:ALA:541:N:4891, V-A:PRO:540:C:4881, V-B:HIS:456:CE1:9041, V-A:GLU:543:CG:4907, H-B:TYR:531:OH:9766, V-B:ASP:366:CB:8183, H-B:ARG:545:NH2:9899, H-B:ARG:545:NH1:9898, H-B:GLU:543:OE1:9880, V-A:HIS:456:CE1:4069, V-A:ARG:545:CG:4922, V-A:GLY:544:C:4912, V-A:GLU:543:C:4902, V-A:ARG:545:CA:4919, V-A:GLU:543:CB:4906, V-B:TYR:484:CE1:9316, V-A:HIS:456:CD2:4067, V-B:TYR:484:CZ:9318, V-A:GLU:543:CA:4904, V-A:HIS:456:CG:4065"]

$$$$
RR19_Rahimova_2017
     RDKit          3D

 46 51  0  0  0  0  0  0  0  0999 V2000
  126.8000  129.2800   55.5260 O   0  0  0  0  0  0  0  0  0  0  0  0
  127.0580  129.2140   56.7310 C   0  0  0  0  0  0  0  0  0  0  0  0
  126.4220  129.8920   57.7210 N   0  0  0  0  0  0  0  0  0  0  0  0
  125.2590  130.6210   57.7570 C   0  0  0  0  0  0  0  0  0  0  0  0
  124.0940  130.6810   56.5300 S   0  0  0  0  0  0  0  0  0  0  0  0
  125.1970  131.2900   58.9540 N   0  0  0  0  0  0  0  0  0  0  0  0
  124.2250  132.0220   59.5550 C   0  0  0  0  0  0  0  0  0  0  0  0
  123.0460  132.1010   59.2030 O   0  0  0  0  0  0  0  0  0  0  0  0
  124.7150  132.8290   60.7840 C   0  0  2  0  0  0  0  0  0  0  0  0
  125.8930  133.8040   60.4970 C   0  0  0  0  0  0  0  0  0  0  0  0
  125.9490  135.0320   61.3910 C   0  0  0  0  0  0  0  0  0  0  0  0
  127.0940  135.8580   61.4170 C   0  0  0  0  0  0  0  0  0  0  0  0
  127.0970  137.0170   62.1800 C   0  0  0  0  0  0  0  0  0  0  0  0
  125.9700  137.3810   62.9070 C   0  0  0  0  0  0  0  0  0  0  0  0
  124.8260  136.5950   62.8680 C   0  0  0  0  0  0  0  0  0  0  0  0
  124.8010  135.4320   62.1090 C   0  0  0  0  0  0  0  0  0  0  0  0
  125.0150  131.9330   61.9340 N   0  0  0  0  0  0  0  0  0  0  0  0
  124.3690  132.0700   63.1270 C   0  0  0  0  0  0  0  0  0  0  0  0
  123.5220  132.9140   63.4250 O   0  0  0  0  0  0  0  0  0  0  0  0
  124.8980  130.9860   63.9920 C   0  0  0  0  0  0  0  0  0  0  0  0
  124.6060  130.6450   65.3130 C   0  0  0  0  0  0  0  0  0  0  0  0
  125.2630  129.5490   65.8830 C   0  0  0  0  0  0  0  0  0  0  0  0
  126.1920  128.8150   65.1330 C   0  0  0  0  0  0  0  0  0  0  0  0
  126.4700  129.1730   63.8090 C   0  0  0  0  0  0  0  0  0  0  0  0
  125.8060  130.2700   63.2600 C   0  0  0  0  0  0  0  0  0  0  0  0
  125.8800  130.8750   61.9070 C   0  0  0  0  0  0  0  0  0  0  0  0
  126.5710  130.4950   60.9600 O   0  0  0  0  0  0  0  0  0  0  0  0
  128.2130  128.2990   57.2190 C   0  0  2  0  0  0  0  0  0  0  0  0
  129.5960  128.6430   56.5930 C   0  0  0  0  0  0  0  0  0  0  0  0
  129.9620  130.1140   56.6780 C   0  0  0  0  0  0  0  0  0  0  0  0
  129.4830  130.9020   57.7470 C   0  0  0  0  0  0  0  0  0  0  0  0
  129.9010  132.2210   57.8780 C   0  0  0  0  0  0  0  0  0  0  0  0
  130.8110  132.7600   56.9790 C   0  0  0  0  0  0  0  0  0  0  0  0
  131.3220  131.9840   55.9460 C   0  0  0  0  0  0  0  0  0  0  0  0
  130.9160  130.6640   55.7950 C   0  0  0  0  0  0  0  0  0  0  0  0
  127.9070  126.8450   57.1000 N   0  0  0  0  0  0  0  0  0  0  0  0
  127.3030  126.1550   58.1080 C   0  0  0  0  0  0  0  0  0  0  0  0
  126.9560  126.5900   59.2070 O   0  0  0  0  0  0  0  0  0  0  0  0
  127.1510  124.7690   57.6000 C   0  0  0  0  0  0  0  0  0  0  0  0
  126.6080  123.6310   58.1970 C   0  0  0  0  0  0  0  0  0  0  0  0
  126.5930  122.4350   57.4700 C   0  0  0  0  0  0  0  0  0  0  0  0
  127.1120  122.3930   56.1700 C   0  0  0  0  0  0  0  0  0  0  0  0
  127.6510  123.5460   55.5870 C   0  0  0  0  0  0  0  0  0  0  0  0
  127.6580  124.7280   56.3300 C   0  0  0  0  0  0  0  0  0  0  0  0
  128.1480  126.0860   55.9900 C   0  0  0  0  0  0  0  0  0  0  0  0
  128.6610  126.4510   54.9320 O   0  0  0  0  0  0  0  0  0  0  0  0
  1  2  2  0
  2  3  1  0
  3  4  1  0
  4  5  2  0
  4  6  1  0
  6  7  1  0
  7  8  2  0
  7  9  1  0
  9 10  1  6
 10 11  1  0
 11 12  2  0
 12 13  1  0
 13 14  2  0
 14 15  1  0
 15 16  2  0
  9 17  1  0
 17 18  1  0
 18 19  2  0
 18 20  1  0
 20 21  2  0
 21 22  1  0
 22 23  2  0
 23 24  1  0
 24 25  2  0
 25 26  1  0
 26 27  2  0
  2 28  1  0
 28 29  1  6
 29 30  1  0
 30 31  2  0
 31 32  1  0
 32 33  2  0
 33 34  1  0
 34 35  2  0
 28 36  1  0
 36 37  1  0
 37 38  2  0
 37 39  1  0
 39 40  2  0
 40 41  1  0
 41 42  2  0
 42 43  1  0
 43 44  2  0
 44 45  1  0
 45 46  2  0
 16 11  1  0
 26 17  1  0
 35 30  1  0
 45 36  1  0
 25 20  1  0
 44 39  1  0
M  END
>  <Binding energies>  (73) 
[-11.66]

>  <Ligand effiencies>  (73) 
[-0.24291666666666667]

>  <Interactions>  (73) 
["V-A:TYR:539:CE2:4876, V-A:TYR:531:CE2:4793, V-A:TYR:531:CZ:4794, V-A:PRO:540:N:4884, V-A:TYR:539:CD2:4874, V-A:TYR:539:C:4867, V-B:TYR:539:CZ:9848, V-B:PRO:540:N:9855, V-B:PRO:540:CA:9854, V-B:TYR:539:C:9838, V-B:TYR:539:CE1:9846, V-B:TYR:539:CD1:9844, V-B:PRO:540:CB:9856, V-B:GLY:454:CA:9020, V-B:TRP:381:CZ2:8341, V-B:TRP:381:CH2:8343, V-B:LEU:475:CD1:9229, V-B:LEU:475:CB:9227, V-B:TRP:381:CE2:8338, V-B:PRO:482:CB:9297, H-B:GLY:454:N:9021, V-B:PRO:482:CG:9298, V-B:GLU:543:CD:9879, V-B:ARG:545:CZ:9897, V-B:ILE:369:CG2:8208, V-A:MET:535:CE:4835, V-B:SER:385:CB:8380, H-B:TYR:531:OH:9766, V-B:ASP:366:CB:8183, V-B:ASP:366:C:8179, V-B:TYR:531:CZ:9765, V-B:PRO:540:CD:9858, V-B:TYR:531:CE1:9763, V-B:TYR:539:CG:9843, V-B:ASN:370:CB:8216"]

$$$$
RR1_Rahimova_2017
     RDKit          3D

 41 44  0  0  0  0  0  0  0  0999 V2000
  126.3880  122.2320   53.9310 C   0  0  0  0  0  0  0  0  0  0  0  0
  125.6950  121.8380   55.1090 O   0  0  0  0  0  0  0  0  0  0  0  0
  126.0230  122.4280   56.3140 C   0  0  0  0  0  0  0  0  0  0  0  0
  125.2110  123.3520   56.9900 C   0  0  0  0  0  0  0  0  0  0  0  0
  125.6290  123.9010   58.1990 C   0  0  0  0  0  0  0  0  0  0  0  0
  126.8560  123.5360   58.7540 C   0  0  0  0  0  0  0  0  0  0  0  0
  127.2110  124.1800   59.9550 N   0  0  0  0  0  0  0  0  0  0  0  0
  127.5500  123.6430   61.1460 C   0  0  0  0  0  0  0  0  0  0  0  0
  127.5370  122.4390   61.4020 O   0  0  0  0  0  0  0  0  0  0  0  0
  127.9670  124.6670   62.2140 C   0  0  0  0  0  0  0  0  0  0  0  0
  129.0020  126.0480   61.6140 S   0  0  0  0  0  0  0  0  0  0  0  0
  128.6510  127.1910   62.9070 C   0  0  0  0  0  0  0  0  0  0  0  0
  127.6260  128.0040   62.9130 N   0  0  0  0  0  0  0  0  0  0  0  0
  127.7460  128.6600   64.0620 C   0  0  0  0  0  0  0  0  0  0  0  0
  126.7580  129.7050   64.4990 C   0  0  0  0  0  0  0  0  0  0  0  0
  127.1470  131.0350   64.7210 C   0  0  0  0  0  0  0  0  0  0  0  0
  126.2070  131.9840   65.1300 C   0  0  0  0  0  0  0  0  0  0  0  0
  124.8860  131.5760   65.3070 C   0  0  0  0  0  0  0  0  0  0  0  0
  124.4760  130.2990   65.1020 N   0  0  0  0  0  0  0  0  0  0  0  0
  125.4050  129.3930   64.7040 C   0  0  0  0  0  0  0  0  0  0  0  0
  128.7910  128.3280   64.7970 N   0  0  0  0  0  0  0  0  0  0  0  0
  129.3760  127.3830   64.0550 N   0  0  0  0  0  0  0  0  0  0  0  0
  130.5880  126.7120   64.5270 C   0  0  0  0  0  0  0  0  0  0  0  0
  130.5070  126.1560   65.9590 C   0  0  0  0  0  0  0  0  0  0  0  0
  131.3620  125.3700   66.3820 O   0  0  0  0  0  0  0  0  0  0  0  0
  129.4540  126.5900   66.6780 N   0  0  0  0  0  0  0  0  0  0  0  0
  129.3960  126.2490   68.0220 N   0  0  0  0  0  0  0  0  0  0  0  0
  128.8860  127.1570   68.8820 C   0  0  0  0  0  0  0  0  0  0  0  0
  128.3750  128.2280   68.5350 O   0  0  0  0  0  0  0  0  0  0  0  0
  128.9450  126.7790   70.3480 C   0  0  0  0  0  0  0  0  0  0  0  0
  128.3820  125.5730   70.7810 C   0  0  0  0  0  0  0  0  0  0  0  0
  128.4140  125.2120   72.1240 C   0  0  0  0  0  0  0  0  0  0  0  0
  129.0060  126.0520   73.0800 C   0  0  0  0  0  0  0  0  0  0  0  0
  129.0600  125.7590   74.4310 O   0  0  0  0  0  0  0  0  0  0  0  0
  130.2530  125.2150   74.9840 C   0  0  0  0  0  0  0  0  0  0  0  0
  129.5690  127.2670   72.6670 C   0  0  0  0  0  0  0  0  0  0  0  0
  130.1230  128.0690   73.6520 O   0  0  0  0  0  0  0  0  0  0  0  0
  129.6140  129.3810   73.8590 C   0  0  0  0  0  0  0  0  0  0  0  0
  129.5360  127.6180   71.3060 C   0  0  0  0  0  0  0  0  0  0  0  0
  127.6710  122.6120   58.0820 C   0  0  0  0  0  0  0  0  0  0  0  0
  127.2490  122.0640   56.8740 C   0  0  0  0  0  0  0  0  0  0  0  0
  1  2  1  0
  2  3  1  0
  3  4  2  0
  4  5  1  0
  5  6  2  0
  6  7  1  0
  7  8  1  0
  8  9  2  0
  8 10  1  0
 10 11  1  0
 11 12  1  0
 12 13  2  0
 13 14  1  0
 14 15  1  0
 15 16  2  0
 16 17  1  0
 17 18  2  0
 18 19  1  0
 19 20  2  0
 14 21  2  0
 21 22  1  0
 22 23  1  0
 23 24  1  0
 24 25  2  0
 24 26  1  0
 26 27  1  0
 27 28  1  0
 28 29  2  0
 28 30  1  0
 30 31  2  0
 31 32  1  0
 32 33  2  0
 33 34  1  0
 34 35  1  0
 33 36  1  0
 36 37  1  0
 37 38  1  0
 36 39  2  0
  6 40  1  0
 40 41  2  0
 41  3  1  0
 22 12  1  0
 39 30  1  0
 20 15  1  0
M  END
>  <Binding energies>  (74) 
[-9.35]

>  <Ligand effiencies>  (74) 
[-0.2125]

>  <Interactions>  (74) 
["V-B:TYR:539:CZ:9848, H-B:GLU:543:OE2:9881, V-B:LEU:363:CD1:8160, V-B:PRO:540:N:9855, V-B:PRO:540:CA:9854, V-B:MET:535:CE:9806, V-B:TYR:539:C:9838, V-B:TYR:539:CE1:9846, V-B:TYR:539:CD1:9844, V-B:PRO:540:CB:9856, V-B:GLY:454:CA:9020, V-B:LEU:475:CD1:9229, H-B:GLY:454:N:9021, V-B:GLU:543:CD:9879, V-B:ARG:545:CZ:9897, V-B:HIS:456:CE1:9041, V-A:GLU:543:CD:4908, V-B:TYR:539:CD2:9845, H-B:TYR:539:N:9841, V-B:TYR:539:CA:9840, V-B:TYR:539:CE2:9847, V-B:PRO:540:CD:9858, V-B:ILE:538:CD1:9836, H-B:ALA:541:N:9862, V-B:ILE:538:CA:9831, V-B:ILE:538:CB:9833, V-B:TYR:539:CG:9843, V-B:ILE:538:C:9829, V-B:MET:535:CB:9803, V-B:VAL:537:C:9821, V-B:GLU:543:CG:9878, H-B:GLU:543:OE1:9880, H-A:GLU:543:OE2:4910, H-A:TYR:484:OH:4347, V-A:HIS:456:CE1:4069, V-B:GLU:543:CB:9877, V-A:HIS:456:CD2:4067, H-B:LYS:547:NZ:9922, H-A:LYS:547:NZ:4951, V-B:ILE:538:CG1:9835, V-A:LYS:547:CE:4950, V-B:GLU:543:C:9873, H-A:HIS:456:NE2:4070"]

$$$$
RR22_Rahimova_2017
     RDKit          3D

 31 36  0  0  0  0  0  0  0  0999 V2000
  129.2740  133.6700   55.3470 O   0  0  0  0  0  0  0  0  0  0  0  0
  129.3030  132.9180   56.3190 C   0  0  0  0  0  0  0  0  0  0  0  0
  130.0710  133.0460   57.4630 N   0  0  0  0  0  0  0  0  0  0  0  0
  129.9400  132.1080   58.5360 C   0  0  1  0  0  0  0  0  0  0  0  0
  131.2590  131.5980   58.7520 O   0  0  0  0  0  0  0  0  0  0  0  0
  131.8420  131.7760   60.0070 C   0  0  0  0  0  0  0  0  0  0  0  0
  133.2250  131.6110   60.0790 C   0  0  0  0  0  0  0  0  0  0  0  0
  133.8740  131.7320   61.3080 C   0  0  0  0  0  0  0  0  0  0  0  0
  133.1400  132.0110   62.4610 C   0  0  0  0  0  0  0  0  0  0  0  0
  131.7560  132.1760   62.3890 C   0  0  0  0  0  0  0  0  0  0  0  0
  131.0950  132.0810   61.1600 C   0  0  0  0  0  0  0  0  0  0  0  0
  129.5980  132.2000   60.9820 C   0  0  1  0  0  0  0  0  0  0  0  0
  128.7410  133.0890   61.8610 C   0  0  0  0  0  0  0  0  0  0  0  0
  127.6330  133.4490   60.8670 C   0  0  0  0  0  0  0  0  0  0  0  0
  126.3240  133.9840   61.2910 C   0  0  0  0  0  0  0  0  0  0  0  0
  125.2180  133.1340   61.4340 C   0  0  0  0  0  0  0  0  0  0  0  0
  123.9860  133.6440   61.8350 C   0  0  0  0  0  0  0  0  0  0  0  0
  123.8520  135.0050   62.0960 C   0  0  0  0  0  0  0  0  0  0  0  0
  124.9410  135.8620   61.9590 C   0  0  0  0  0  0  0  0  0  0  0  0
  126.1740  135.3540   61.5590 C   0  0  0  0  0  0  0  0  0  0  0  0
  128.0100  133.2460   59.6610 N   0  0  0  0  0  0  0  0  0  0  0  0
  129.3340  132.7750   59.6980 N   0  0  0  0  0  0  0  0  0  0  0  0
  129.0970  130.9570   58.0090 C   0  0  0  0  0  0  0  0  0  0  0  0
  129.0450  129.7450   58.6100 C   0  0  0  0  0  0  0  0  0  0  0  0
  128.2610  128.5580   58.2190 C   0  0  0  0  0  0  0  0  0  0  0  0
  127.1280  128.1220   58.9210 C   0  0  0  0  0  0  0  0  0  0  0  0
  126.4350  126.9880   58.4930 C   0  0  0  0  0  0  0  0  0  0  0  0
  126.9010  126.3100   57.3670 C   0  0  0  0  0  0  0  0  0  0  0  0
  127.9980  126.7030   56.6730 N   0  0  0  0  0  0  0  0  0  0  0  0
  128.6580  127.8090   57.1050 C   0  0  0  0  0  0  0  0  0  0  0  0
  128.3080  131.4050   56.4890 S   0  0  0  0  0  0  0  0  0  0  0  0
  1  2  2  0
  2  3  1  0
  4  3  1  6
  4  5  1  0
  5  6  1  0
  6  7  2  0
  7  8  1  0
  8  9  2  0
  9 10  1  0
 10 11  2  0
 11 12  1  0
 12 13  1  1
 13 14  1  0
 14 15  1  0
 15 16  2  0
 16 17  1  0
 17 18  2  0
 18 19  1  0
 19 20  2  0
 14 21  2  0
 21 22  1  0
  4 23  1  0
 23 24  2  0
 24 25  1  0
 25 26  2  0
 26 27  1  0
 27 28  2  0
 28 29  1  0
 29 30  2  0
 23 31  1  0
 31  2  1  0
 22  4  1  0
 30 25  1  0
 11  6  1  0
 22 12  1  0
 20 15  1  0
M  END
>  <Binding energies>  (75) 
[-8.98]

>  <Ligand effiencies>  (75) 
[-0.280625]

>  <Interactions>  (75) 
["V-A:TYR:539:CD1:4873, V-A:TYR:539:CE2:4876, V-A:TYR:539:CG:4872, V-A:TYR:539:CZ:4877, V-A:TYR:539:CE1:4875, V-A:PRO:540:CA:4883, V-A:ASN:362:CB:3175, V-A:TYR:539:CA:4869, V-A:ASN:362:C:3171, V-A:PRO:540:CB:4885, V-A:PRO:540:N:4884, V-A:TYR:539:CD2:4874, V-A:ASP:366:CG:3212, V-A:TYR:539:C:4867, V-A:ASN:362:CA:3173, H-A:TYR:539:N:4870, V-B:TRP:381:CZ2:8341, V-B:TRP:381:CH2:8343, V-A:ALA:541:CB:4892, V-B:LEU:475:CD1:9229, V-B:ILE:369:CD1:8210, V-B:ILE:369:CG2:8208, V-A:MET:535:CE:4835, H-A:TYR:539:O:4868, V-A:PRO:540:C:4881, V-A:ALA:541:CA:4890, V-A:ALA:541:C:4888"]

$$$$
RR24_Rahimova_2017
     RDKit          3D

 43 49  0  0  0  0  0  0  0  0999 V2000
  126.7490  122.0800   54.8320 C   0  0  0  0  0  0  0  0  0  0  0  0
  126.8540  123.5110   55.3770 C   0  0  2  0  0  0  0  0  0  0  0  0
  128.2430  124.1670   55.1180 C   0  0  0  0  0  0  0  0  0  0  0  0
  128.7570  124.1930   53.9950 O   0  0  0  0  0  0  0  0  0  0  0  0
  128.8070  124.6640   56.2570 O   0  0  0  0  0  0  0  0  0  0  0  0
  128.7770  126.0190   56.4950 C   0  0  0  0  0  0  0  0  0  0  0  0
  129.2010  126.5070   57.7330 C   0  0  0  0  0  0  0  0  0  0  0  0
  129.1840  127.8760   57.9810 C   0  0  0  0  0  0  0  0  0  0  0  0
  128.7520  128.7640   56.9920 C   0  0  0  0  0  0  0  0  0  0  0  0
  128.7170  130.2700   57.2780 C   0  0  1  0  0  0  0  0  0  0  0  0
  127.3800  130.7050   57.9230 C   0  0  0  0  0  0  0  0  0  0  0  0
  127.3190  131.4390   59.0490 C   0  0  0  0  0  0  0  0  0  0  0  0
  128.4460  131.8560   59.7130 N   0  0  0  0  0  0  0  0  0  0  0  0
  129.7030  131.5390   59.2550 C   0  0  0  0  0  0  0  0  0  0  0  0
  130.7100  132.0340   60.0200 N   0  0  0  0  0  0  0  0  0  0  0  0
  132.0190  131.7580   59.7680 C   0  0  0  0  0  0  0  0  0  0  0  0
  132.8570  131.9550   60.6500 O   0  0  0  0  0  0  0  0  0  0  0  0
  132.2380  131.1130   58.5610 N   0  0  0  0  0  0  0  0  0  0  0  0
  133.6490  130.8710   58.1950 C   0  0  0  0  0  0  0  0  0  0  0  0
  131.2910  130.5680   57.7100 C   0  0  0  0  0  0  0  0  0  0  0  0
  131.5630  129.9580   56.6710 O   0  0  0  0  0  0  0  0  0  0  0  0
  129.9070  130.7990   58.1340 C   0  0  0  0  0  0  0  0  0  0  0  0
  125.9390  131.6980   59.4240 C   0  0  0  0  0  0  0  0  0  0  0  0
  125.3550  132.3900   60.4850 C   0  0  0  0  0  0  0  0  0  0  0  0
  123.9620  132.4610   60.5690 C   0  0  0  0  0  0  0  0  0  0  0  0
  123.1660  131.8470   59.5980 C   0  0  0  0  0  0  0  0  0  0  0  0
  123.7570  131.1550   58.5360 C   0  0  0  0  0  0  0  0  0  0  0  0
  125.1490  131.0860   58.4590 C   0  0  0  0  0  0  0  0  0  0  0  0
  126.0230  130.4350   57.4610 C   0  0  0  0  0  0  0  0  0  0  0  0
  125.7250  129.7970   56.4520 O   0  0  0  0  0  0  0  0  0  0  0  0
  128.3450  128.2740   55.7470 C   0  0  0  0  0  0  0  0  0  0  0  0
  128.3640  126.9050   55.4970 C   0  0  0  0  0  0  0  0  0  0  0  0
  126.4440  123.5970   56.8090 N   0  0  0  0  0  0  0  0  0  0  0  0
  125.2510  124.1440   57.1780 C   0  0  0  0  0  0  0  0  0  0  0  0
  124.3900  124.6270   56.4400 O   0  0  0  0  0  0  0  0  0  0  0  0
  125.2070  124.0370   58.6570 C   0  0  0  0  0  0  0  0  0  0  0  0
  124.2320  124.4330   59.5730 C   0  0  0  0  0  0  0  0  0  0  0  0
  124.4580  124.2000   60.9350 C   0  0  0  0  0  0  0  0  0  0  0  0
  125.6410  123.5800   61.3580 C   0  0  0  0  0  0  0  0  0  0  0  0
  126.6070  123.1900   60.4240 C   0  0  0  0  0  0  0  0  0  0  0  0
  126.3630  123.4320   59.0710 C   0  0  0  0  0  0  0  0  0  0  0  0
  127.1790  123.1360   57.8670 C   0  0  0  0  0  0  0  0  0  0  0  0
  128.2810  122.5870   57.8300 O   0  0  0  0  0  0  0  0  0  0  0  0
  2  1  1  1
  2  3  1  0
  3  4  2  0
  3  5  1  0
  5  6  1  0
  6  7  2  0
  7  8  1  0
  8  9  2  0
 10  9  1  1
 10 11  1  0
 11 12  2  0
 12 13  1  0
 13 14  1  0
 14 15  1  0
 15 16  1  0
 16 17  2  0
 16 18  1  0
 18 19  1  0
 18 20  1  0
 20 21  2  0
 20 22  1  0
 12 23  1  0
 23 24  2  0
 24 25  1  0
 25 26  2  0
 26 27  1  0
 27 28  2  0
 28 29  1  0
 29 30  2  0
  9 31  1  0
 31 32  2  0
  2 33  1  0
 33 34  1  0
 34 35  2  0
 34 36  1  0
 36 37  2  0
 37 38  1  0
 38 39  2  0
 39 40  1  0
 40 41  2  0
 41 42  1  0
 42 43  2  0
 32  6  1  0
 42 33  1  0
 22 10  1  0
 28 23  1  0
 41 36  1  0
 29 11  1  0
 22 14  2  0
M  END
>  <Binding energies>  (76) 
[-11.1]

>  <Ligand effiencies>  (76) 
[-0.24666666666666665]

>  <Interactions>  (76) 
["V-A:TYR:539:CE2:4876, V-A:LEU:363:CD1:3188, V-A:TYR:531:CE2:4793, V-A:PRO:540:CA:4883, V-A:ASP:366:CB:3211, V-A:PRO:540:CB:4885, V-A:ASP:366:CG:3212, V-B:TYR:539:CZ:9848, V-B:LEU:363:CD1:8160, V-B:PRO:540:N:9855, V-B:PRO:540:CA:9854, V-B:MET:535:CE:9806, V-B:TYR:539:CE1:9846, V-B:TYR:539:CD1:9844, V-B:PRO:540:CB:9856, V-B:ASP:366:CG:8184, V-B:ILE:369:CD1:8210, V-B:ILE:369:CG2:8208, V-A:MET:535:CE:4835, H-A:TYR:539:O:4868, H-B:TYR:531:OH:9766, V-A:LEU:363:CA:3184, V-B:ASP:366:CB:8183, V-B:ASP:366:C:8179, V-B:ASP:366:CA:8181, V-B:PRO:540:C:9852, V-B:LEU:363:CA:8156, H-B:TYR:539:OH:9849, H-A:TYR:531:OH:4795, V-B:ILE:369:CB:8207, V-B:ILE:369:CG1:8209, V-B:ILE:538:CD1:9836, V-B:ILE:538:CA:9831, V-B:ILE:538:C:9829, V-B:ASN:362:C:8143, V-B:ASN:362:CB:8147, H-A:ASN:370:ND2:3247"]

$$$$
RR25_Rahimova_2017
     RDKit          3D

 39 44  0  0  0  0  0  0  0  0999 V2000
  125.6770  130.0340   66.1750 O   0  0  0  0  0  0  0  0  0  0  0  0
  125.6980  129.9180   64.9490 C   0  0  0  0  0  0  0  0  0  0  0  0
  124.5510  130.2780   64.2860 O   0  0  0  0  0  0  0  0  0  0  0  0
  124.5290  130.4320   62.9120 C   0  0  0  0  0  0  0  0  0  0  0  0
  123.5650  131.2940   62.3920 C   0  0  0  0  0  0  0  0  0  0  0  0
  123.4810  131.4890   61.0160 C   0  0  0  0  0  0  0  0  0  0  0  0
  124.3530  130.8250   60.1410 C   0  0  0  0  0  0  0  0  0  0  0  0
  124.2670  131.0410   58.6750 N   0  0  0  0  0  0  0  0  0  0  0  0
  123.7270  132.0640   58.2630 O   0  0  0  0  0  0  0  0  0  0  0  0
  124.7380  130.1890   57.9280 O   0  0  0  0  0  0  0  0  0  0  0  0
  125.3100  129.9520   60.6840 C   0  0  0  0  0  0  0  0  0  0  0  0
  125.4020  129.7390   62.0620 C   0  0  0  0  0  0  0  0  0  0  0  0
  126.4240  128.8140   62.6980 C   0  0  0  0  0  0  0  0  0  0  0  0
  126.8700  129.3920   64.0710 C   0  0  2  0  0  0  0  0  0  0  0  0
  127.8450  128.4200   64.7980 C   0  0  0  0  0  0  0  0  0  0  0  0
  127.8170  128.4470   66.0310 O   0  0  0  0  0  0  0  0  0  0  0  0
  128.5960  127.5010   64.1200 N   0  0  0  0  0  0  0  0  0  0  0  0
  128.9050  127.6250   62.6800 C   0  0  0  0  0  0  0  0  0  0  0  0
  128.9010  126.2190   62.0430 C   0  0  0  0  0  0  0  0  0  0  0  0
  129.8130  125.3110   62.7440 N   0  0  0  0  0  0  0  0  0  0  0  0
  129.9110  124.0140   62.0610 C   0  0  0  0  0  0  0  0  0  0  0  0
  128.5910  123.1990   62.1240 C   0  0  0  0  0  0  0  0  0  0  0  0
  127.7140  123.2790   60.9200 N   0  0  0  0  0  0  0  0  0  0  0  0
  126.4600  123.8110   61.1390 C   0  0  0  0  0  0  0  0  0  0  0  0
  126.0620  124.1670   62.2540 O   0  0  0  0  0  0  0  0  0  0  0  0
  125.6050  123.9460   59.8940 C   0  0  0  0  0  0  0  0  0  0  0  0
  124.3220  124.4990   59.9970 C   0  0  0  0  0  0  0  0  0  0  0  0
  123.5120  124.6450   58.8730 C   0  0  0  0  0  0  0  0  0  0  0  0
  123.9570  124.2490   57.6130 C   0  0  0  0  0  0  0  0  0  0  0  0
  125.2460  123.6840   57.4590 C   0  0  0  0  0  0  0  0  0  0  0  0
  125.7610  123.2620   56.2110 C   0  0  0  0  0  0  0  0  0  0  0  0
  127.0420  122.7180   56.1300 C   0  0  0  0  0  0  0  0  0  0  0  0
  127.8330  122.5780   57.2680 C   0  0  0  0  0  0  0  0  0  0  0  0
  127.3660  122.9820   58.5250 C   0  0  0  0  0  0  0  0  0  0  0  0
  126.0640  123.5380   58.6150 C   0  0  0  0  0  0  0  0  0  0  0  0
  128.2610  122.8210   59.7390 C   0  0  0  0  0  0  0  0  0  0  0  0
  129.3930  122.3340   59.6580 O   0  0  0  0  0  0  0  0  0  0  0  0
  129.3890  125.1580   64.1370 C   0  0  0  0  0  0  0  0  0  0  0  0
  129.3890  126.5120   64.8860 C   0  0  0  0  0  0  0  0  0  0  0  0
  1  2  2  0
  2  3  1  0
  3  4  1  0
  4  5  2  0
  5  6  1  0
  6  7  2  0
  7  8  1  0
  8  9  2  0
  8 10  1  0
  7 11  1  0
 11 12  2  0
 12 13  1  0
 13 14  1  0
 14 15  1  1
 15 16  2  0
 15 17  1  0
 17 18  1  0
 18 19  1  0
 19 20  1  0
 20 21  1  0
 21 22  1  0
 22 23  1  0
 23 24  1  0
 24 25  2  0
 24 26  1  0
 26 27  2  0
 27 28  1  0
 28 29  2  0
 29 30  1  0
 30 31  2  0
 31 32  1  0
 32 33  2  0
 33 34  1  0
 34 35  2  0
 34 36  1  0
 36 37  2  0
 20 38  1  0
 38 39  1  0
 14  2  1  0
 39 17  1  0
 12  4  1  0
 36 23  1  0
 35 26  1  0
 35 30  1  0
M  CHG  2   8   1  10  -1
M  END
>  <Binding energies>  (77) 
[-10.53]

>  <Ligand effiencies>  (77) 
[-0.26999999999999996]

>  <Interactions>  (77) 
["V-B:TYR:539:CZ:9848, V-B:LEU:363:CD1:8160, V-B:PRO:540:N:9855, V-B:PRO:540:CA:9854, V-B:ALA:541:CB:9863, V-B:MET:535:CE:9806, V-B:TYR:539:C:9838, V-B:TYR:539:CE1:9846, V-B:TYR:539:CD1:9844, V-B:PRO:540:CB:9856, V-B:ASP:366:CG:8184, H-B:TYR:484:OH:9319, V-B:ILE:369:CD1:8210, H-B:GLY:454:N:9021, V-B:GLU:543:CD:9879, V-B:ILE:369:CG2:8208, V-A:GLU:543:CD:4908, H-B:TYR:531:OH:9766, H-A:TYR:539:OH:4878, V-B:ASP:366:CB:8183, V-B:ASP:366:C:8179, V-B:ASP:366:CA:8181, V-B:TYR:539:CD2:9845, V-B:LEU:363:CA:8156, V-B:TYR:539:CE2:9847, V-B:TYR:531:CE2:9764, V-B:ILE:369:CB:8207, H-B:ARG:545:NH2:9899, V-B:LEU:363:CB:8158, V-B:TYR:539:CG:9843, V-B:ASN:362:C:8143, V-B:GLU:543:CG:9878, V-B:LEU:363:C:8154"]

$$$$
RR27_Rahimova_2017
     RDKit          3D

 39 44  0  0  0  0  0  0  0  0999 V2000
  129.6850  124.9910   57.6420 O   0  0  0  0  0  0  0  0  0  0  0  0
  129.1900  125.1460   58.7620 C   0  0  0  0  0  0  0  0  0  0  0  0
  128.3360  123.9890   59.3580 C   0  0  0  0  0  0  0  0  0  0  0  0
  129.1880  122.8720   59.9900 C   0  0  0  0  0  0  0  0  0  0  0  0
  128.6170  121.6750   60.4480 C   0  0  0  0  0  0  0  0  0  0  0  0
  129.4170  120.6850   61.0120 C   0  0  0  0  0  0  0  0  0  0  0  0
  130.7900  120.8870   61.1200 C   0  0  0  0  0  0  0  0  0  0  0  0
  131.3700  122.0710   60.6720 C   0  0  0  0  0  0  0  0  0  0  0  0
  130.5700  123.0600   60.1080 C   0  0  0  0  0  0  0  0  0  0  0  0
  127.2600  123.5030   58.3680 C   0  0  0  0  0  0  0  0  0  0  0  0
  125.9280  123.9280   58.4600 C   0  0  0  0  0  0  0  0  0  0  0  0
  124.9780  123.4600   57.5550 C   0  0  0  0  0  0  0  0  0  0  0  0
  125.3550  122.5630   56.5600 C   0  0  0  0  0  0  0  0  0  0  0  0
  126.6730  122.1250   56.4630 C   0  0  0  0  0  0  0  0  0  0  0  0
  127.6210  122.5910   57.3680 C   0  0  0  0  0  0  0  0  0  0  0  0
  129.4950  126.2270   59.5350 N   0  0  0  0  0  0  0  0  0  0  0  0
  128.7510  126.5900   60.7510 C   0  0  0  0  0  0  0  0  0  0  0  0
  127.5710  127.4800   60.3040 C   0  0  0  0  0  0  0  0  0  0  0  0
  128.0300  128.7190   59.4710 C   0  0  0  0  0  0  0  0  0  0  0  0
  126.8840  129.5780   58.9060 C   0  0  0  0  0  0  0  0  0  0  0  0
  126.7420  129.5840   57.5490 N   0  0  0  0  0  0  0  0  0  0  0  0
  125.7260  130.3070   56.9990 C   0  0  0  0  0  0  0  0  0  0  0  0
  125.4790  130.3860   55.6540 O   0  0  0  0  0  0  0  0  0  0  0  0
  124.8660  131.0210   57.8550 C   0  0  0  0  0  0  0  0  0  0  0  0
  123.7790  131.8180   57.6450 N   0  0  0  0  0  0  0  0  0  0  0  0
  123.3450  132.2550   58.8830 N   0  0  0  0  0  0  0  0  0  0  0  0
  124.1440  131.7300   59.8350 N   0  0  0  0  0  0  0  0  0  0  0  0
  123.9260  132.0480   61.2440 C   0  0  0  0  0  0  0  0  0  0  0  0
  124.2990  133.4780   61.6140 C   0  0  0  0  0  0  0  0  0  0  0  0
  123.3650  134.3090   62.2410 C   0  0  0  0  0  0  0  0  0  0  0  0
  123.7110  135.6160   62.5890 C   0  0  0  0  0  0  0  0  0  0  0  0
  124.9920  136.0960   62.3170 C   0  0  0  0  0  0  0  0  0  0  0  0
  125.9310  135.2680   61.7000 C   0  0  0  0  0  0  0  0  0  0  0  0
  127.5260  135.8510   61.3870 Cl  0  0  0  0  0  0  0  0  0  0  0  0
  125.5840  133.9640   61.3450 C   0  0  0  0  0  0  0  0  0  0  0  0
  125.1210  130.9490   59.2420 C   0  0  0  0  0  0  0  0  0  0  0  0
  126.1130  130.2540   59.8050 N   0  0  0  0  0  0  0  0  0  0  0  0
  129.1010  128.3370   58.4030 C   0  0  0  0  0  0  0  0  0  0  0  0
  130.1930  127.3820   58.9490 C   0  0  0  0  0  0  0  0  0  0  0  0
  1  2  2  0
  2  3  1  0
  3  4  1  0
  4  5  2  0
  5  6  1  0
  6  7  2  0
  7  8  1  0
  8  9  2  0
  3 10  1  0
 10 11  2  0
 11 12  1  0
 12 13  2  0
 13 14  1  0
 14 15  2  0
  2 16  1  0
 16 17  1  0
 17 18  1  0
 18 19  1  0
 19 20  1  0
 20 21  2  0
 21 22  1  0
 22 23  1  0
 22 24  2  0
 24 25  1  0
 25 26  2  0
 26 27  1  0
 27 28  1  0
 28 29  1  0
 29 30  2  0
 30 31  1  0
 31 32  2  0
 32 33  1  0
 33 34  1  0
 33 35  2  0
 27 36  1  0
 36 37  2  0
 19 38  1  0
 38 39  1  0
  9  4  1  0
 15 10  1  0
 39 16  1  0
 37 20  1  0
 36 24  1  0
 35 29  1  0
M  END
>  <Binding energies>  (78) 
[-11.41]

>  <Ligand effiencies>  (78) 
[-0.28525]

>  <Interactions>  (78) 
["V-A:TYR:539:CE2:4876, V-A:TYR:539:CZ:4877, V-A:TYR:539:CD2:4874, V-B:TYR:539:CZ:9848, V-B:LEU:363:CD1:8160, V-B:PRO:540:N:9855, V-B:PRO:540:CA:9854, V-B:ALA:541:CB:9863, V-B:TYR:539:C:9838, V-B:TYR:539:CE1:9846, V-B:TYR:539:CD1:9844, V-B:PRO:540:CB:9856, V-B:ASP:366:CG:8184, V-B:TRP:381:CZ2:8341, V-B:TRP:381:CH2:8343, V-A:ALA:541:CB:4892, V-B:LEU:475:CD1:9229, V-B:ILE:369:CD1:8210, V-B:PRO:482:CG:9298, V-B:SER:385:CA:8378, V-B:ILE:369:CG2:8208, V-B:SER:385:CB:8380, V-B:SER:385:C:8376, H-B:TYR:531:OH:9766, H-A:TYR:539:OH:4878, V-B:ASP:366:CB:8183, V-B:TYR:539:CD2:9845, V-B:PRO:540:C:9852, H-B:TYR:539:OH:9849, V-B:TYR:539:CA:9840, V-B:TYR:539:CE2:9847, V-B:PRO:540:CD:9858, V-A:LEU:475:CD2:4258, V-B:TYR:531:CE1:9763, H-B:ASN:370:N:8215, V-A:ILE:369:CG2:3236, V-B:TYR:539:CG:9843, V-B:ALA:541:CA:9861"]

$$$$
RR28_Rahimova_2017
     RDKit          3D

 46 49  0  0  0  0  0  0  0  0999 V2000
  123.9130  130.0630   63.7170 C   0  0  0  0  0  0  0  0  0  0  0  0
  124.0810  131.2020   62.7160 C   0  0  0  0  0  0  0  0  0  0  0  0
  123.3660  132.1980   62.8050 O   0  0  0  0  0  0  0  0  0  0  0  0
  125.0300  131.0330   61.7730 N   0  0  0  0  0  0  0  0  0  0  0  0
  125.4080  131.9550   60.6790 C   0  0  0  0  0  0  0  0  0  0  0  0
  125.5190  133.3900   61.2690 C   0  0  0  0  0  0  0  0  0  0  0  0
  126.6990  133.7750   61.9250 C   0  0  0  0  0  0  0  0  0  0  0  0
  126.8330  135.0490   62.4680 C   0  0  0  0  0  0  0  0  0  0  0  0
  125.7880  135.9690   62.3700 C   0  0  0  0  0  0  0  0  0  0  0  0
  125.9510  137.3620   62.9770 C   0  0  0  0  0  0  0  0  0  0  0  0
  126.6790  137.3450   64.0950 F   0  0  0  0  0  0  0  0  0  0  0  0
  126.5490  138.1780   62.1090 F   0  0  0  0  0  0  0  0  0  0  0  0
  124.7470  137.8550   63.2710 F   0  0  0  0  0  0  0  0  0  0  0  0
  124.6070  135.5980   61.7200 C   0  0  0  0  0  0  0  0  0  0  0  0
  124.4750  134.3230   61.1770 C   0  0  0  0  0  0  0  0  0  0  0  0
  124.3920  131.8390   59.4860 C   0  0  0  0  0  0  0  0  0  0  0  0
  124.4250  130.4580   58.7840 C   0  0  0  0  0  0  0  0  0  0  0  0
  125.8030  130.2700   58.3010 N   0  0  0  0  0  0  0  0  0  0  0  0
  126.1410  130.6260   57.0320 C   0  0  0  0  0  0  0  0  0  0  0  0
  125.2950  130.9530   56.1960 O   0  0  0  0  0  0  0  0  0  0  0  0
  127.6110  130.4580   56.5740 C   0  0  0  0  0  0  0  0  0  0  0  0
  128.3830  129.2620   57.1970 C   0  0  0  0  0  0  0  0  0  0  0  0
  127.9400  127.8650   56.7010 C   0  0  0  0  0  0  0  0  0  0  0  0
  127.1560  127.8110   55.7490 O   0  0  0  0  0  0  0  0  0  0  0  0
  128.5210  126.7480   57.2220 N   0  0  0  0  0  0  0  0  0  0  0  0
  129.1960  126.7220   58.5250 C   0  0  0  0  0  0  0  0  0  0  0  0
  128.1000  126.4750   59.5850 C   0  0  0  0  0  0  0  0  0  0  0  0
  127.2520  125.1740   59.3610 C   0  0  0  0  0  0  0  0  0  0  0  0
  126.0170  125.2560   60.1690 N   0  0  0  0  0  0  0  0  0  0  0  0
  125.4320  124.2830   60.8950 C   0  0  0  0  0  0  0  0  0  0  0  0
  124.1410  124.6600   61.6160 C   0  0  0  0  0  0  0  0  0  0  0  0
  125.8750  123.1400   61.0000 O   0  0  0  0  0  0  0  0  0  0  0  0
  128.0900  123.9710   59.9020 C   0  0  0  0  0  0  0  0  0  0  0  0
  128.8390  124.0370   61.0880 C   0  0  0  0  0  0  0  0  0  0  0  0
  129.5720  122.9400   61.5360 C   0  0  0  0  0  0  0  0  0  0  0  0
  129.5760  121.7500   60.8060 C   0  0  0  0  0  0  0  0  0  0  0  0
  130.3720  120.5360   61.2860 C   0  0  0  0  0  0  0  0  0  0  0  0
  129.5940  119.4530   61.3350 F   0  0  0  0  0  0  0  0  0  0  0  0
  131.3710  120.3050   60.4350 F   0  0  0  0  0  0  0  0  0  0  0  0
  130.8910  120.7240   62.5010 F   0  0  0  0  0  0  0  0  0  0  0  0
  128.8430  121.6710   59.6210 C   0  0  0  0  0  0  0  0  0  0  0  0
  128.1120  122.7680   59.1770 C   0  0  0  0  0  0  0  0  0  0  0  0
  126.9000  125.0480   57.8280 C   0  0  0  0  0  0  0  0  0  0  0  0
  128.0350  125.4170   56.8360 C   0  0  0  0  0  0  0  0  0  0  0  0
  126.7910  130.1640   59.3850 C   0  0  0  0  0  0  0  0  0  0  0  0
  126.8050  131.5290   60.1210 C   0  0  0  0  0  0  0  0  0  0  0  0
  1  2  1  0
  2  3  2  0
  2  4  1  0
  4  5  1  0
  5  6  1  0
  6  7  2  0
  7  8  1  0
  8  9  2  0
  9 10  1  0
 10 11  1  0
 10 12  1  0
 10 13  1  0
  9 14  1  0
 14 15  2  0
  5 16  1  0
 16 17  1  0
 17 18  1  0
 18 19  1  0
 19 20  2  0
 19 21  1  0
 21 22  1  0
 22 23  1  0
 23 24  2  0
 23 25  1  0
 25 26  1  0
 26 27  1  0
 27 28  1  0
 28 29  1  0
 29 30  1  0
 30 31  1  0
 30 32  2  0
 28 33  1  0
 33 34  2  0
 34 35  1  0
 35 36  2  0
 36 37  1  0
 37 38  1  0
 37 39  1  0
 37 40  1  0
 36 41  1  0
 41 42  2  0
 28 43  1  0
 43 44  1  0
 18 45  1  0
 45 46  1  0
 46  5  1  0
 15  6  1  0
 44 25  1  0
 42 33  1  0
M  END
>  <Binding energies>  (79) 
[-9.44]

>  <Ligand effiencies>  (79) 
[-0.19666666666666666]

>  <Interactions>  (79) 
["V-A:TYR:539:CE2:4876, V-A:TYR:539:CZ:4877, V-B:PRO:540:N:9855, V-B:PRO:540:CA:9854, V-B:ALA:541:CB:9863, V-B:TYR:539:C:9838, H-B:ASP:366:OD1:8185, H-B:ASP:366:OD2:8186, V-B:ASP:366:CG:8184, V-B:TRP:381:CZ3:8342, V-B:TRP:381:CZ2:8341, V-B:TRP:381:CE3:8339, V-B:TRP:381:CH2:8343, V-A:ALA:541:CB:4892, V-B:LEU:475:CD1:9229, V-B:LEU:475:CB:9227, V-B:TRP:381:CE2:8338, V-B:PRO:482:CB:9297, V-B:GLY:453:CA:9015, H-B:GLY:454:N:9021, V-B:PRO:482:CG:9298, V-B:ARG:545:CZ:9897, V-B:SER:385:CA:8378, V-B:ILE:369:CG2:8208, V-A:MET:535:CE:4835, V-B:SER:385:CB:8380, H-B:TYR:531:OH:9766, H-A:TYR:539:OH:4878, V-B:ASP:366:CB:8183, V-B:ASP:366:C:8179, V-B:ASP:366:CA:8181, V-B:TYR:539:CD2:9845, V-B:PRO:540:C:9852, V-A:PRO:482:CG:4326, V-B:TYR:539:CE2:9847, V-A:PRO:482:CB:4325, V-A:TRP:381:CH2:3371, V-A:LEU:475:CD2:4258, V-B:LEU:475:CG:9228, H-B:ALA:541:N:9862, V-B:TYR:539:CG:9843, V-B:ALA:541:CA:9861, V-B:ASN:362:C:8143, V-B:ASN:362:CB:8147, V-B:ASN:362:CA:8145, V-B:TRP:381:CD2:8336, V-A:LEU:475:CD1:4257, V-B:LEU:475:CD2:9230, V-B:PRO:482:CA:9295, V-A:LEU:475:CG:4256"]

$$$$
RR29_Rahimova_2017
     RDKit          3D

 18 19  0  0  0  0  0  0  0  0999 V2000
  128.6200  121.3840   60.6620 C   0  0  0  0  0  0  0  0  0  0  0  0
  128.3590  122.8330   61.0450 C   0  0  0  0  0  0  0  0  0  0  0  0
  129.5650  123.7580   60.7640 C   0  0  0  0  0  0  0  0  0  0  0  0
  129.9470  123.7580   59.2690 C   0  0  0  0  0  0  0  0  0  0  0  0
  128.7270  123.8000   58.3620 C   0  0  0  0  0  0  0  0  0  0  0  0
  128.1670  125.0390   57.9930 C   0  0  0  0  0  0  0  0  0  0  0  0
  127.0430  125.1010   57.1570 C   0  0  0  0  0  0  0  0  0  0  0  0
  126.5010  123.8980   56.7190 C   0  0  0  0  0  0  0  0  0  0  0  0
  127.0390  122.6930   57.0750 C   0  0  0  0  0  0  0  0  0  0  0  0
  128.1590  122.6020   57.8940 C   0  0  0  0  0  0  0  0  0  0  0  0
  126.3350  121.6940   56.4810 O   0  0  0  0  0  0  0  0  0  0  0  0
  125.2090  122.3080   55.9150 C   0  0  0  0  0  0  0  0  0  0  0  0
  125.4440  123.6910   55.8900 O   0  0  0  0  0  0  0  0  0  0  0  0
  127.2220  123.1400   61.5510 N   0  0  0  0  0  0  0  0  0  0  0  0
  127.0140  124.4330   61.9780 N   0  0  0  0  0  0  0  0  0  0  0  0
  126.4150  125.3810   61.2380 C   0  0  0  0  0  0  0  0  0  0  0  0
  125.9280  125.1960   60.0110 N   0  0  0  0  0  0  0  0  0  0  0  0
  126.2970  126.5910   61.7660 N   0  0  0  0  0  0  0  0  0  0  0  0
  1  2  1  0
  2  3  1  0
  3  4  1  0
  4  5  1  0
  5  6  2  0
  6  7  1  0
  7  8  2  0
  8  9  1  0
  9 10  2  0
  9 11  1  0
 11 12  1  0
 12 13  1  0
  2 14  2  0
 14 15  1  0
 15 16  1  0
 16 17  1  0
 16 18  2  0
 10  5  1  0
 13  8  1  0
M  CHG  1  18   1
M  END
>  <Binding energies>  (80) 
[-7.63]

>  <Ligand effiencies>  (80) 
[-0.3317391304347826]

>  <Interactions>  (80) 
["V-B:TYR:539:CZ:9848, H-B:GLU:543:OE2:9881, V-B:LEU:363:CD1:8160, V-B:PRO:540:N:9855, V-B:PRO:540:CA:9854, V-B:ALA:541:CB:9863, V-B:MET:535:CE:9806, V-B:TYR:539:C:9838, V-B:TYR:539:CE1:9846, V-B:TYR:539:CD1:9844, H-B:ASP:366:OD1:8185, H-B:ASP:366:OD2:8186, V-B:ASP:366:CG:8184, V-B:GLU:543:CD:9879, V-B:TYR:539:CD2:9845, V-B:PRO:540:C:9852, H-B:TYR:539:N:9841, V-B:TYR:539:CE2:9847, V-B:PRO:540:CD:9858, V-B:ILE:538:CD1:9836, V-B:ILE:538:CG2:9834, H-B:ALA:541:N:9862, V-B:TYR:539:CG:9843, V-B:ALA:541:CA:9861"]

$$$$
RR30_Rahimova_2017
     RDKit          3D

 18 19  0  0  0  0  0  0  0  0999 V2000
  128.8200  123.2800   59.0530 C   0  0  0  0  0  0  0  0  0  0  0  0
  128.9230  122.9410   60.5470 C   0  0  0  0  0  0  0  0  0  0  0  0
  127.5930  123.0680   61.2570 C   0  0  0  0  0  0  0  0  0  0  0  0
  127.3680  123.1850   62.5420 N   0  0  0  0  0  0  0  0  0  0  0  0
  125.9850  123.2590   62.6830 N   0  0  0  0  0  0  0  0  0  0  0  0
  125.4930  123.1700   61.4740 C   0  0  0  0  0  0  0  0  0  0  0  0
  123.7950  123.2160   60.9970 S   0  0  0  0  0  0  0  0  0  0  0  0
  123.8200  124.6630   59.8910 C   0  0  0  0  0  0  0  0  0  0  0  0
  124.1300  124.2780   58.4420 C   0  0  0  0  0  0  0  0  0  0  0  0
  123.3930  124.6830   57.5400 O   0  0  0  0  0  0  0  0  0  0  0  0
  125.2000  123.4720   58.2610 N   0  0  0  0  0  0  0  0  0  0  0  0
  125.6730  122.9900   57.0490 C   0  0  0  0  0  0  0  0  0  0  0  0
  125.4100  121.8380   56.4730 N   0  0  0  0  0  0  0  0  0  0  0  0
  126.0650  121.6950   55.2570 N   0  0  0  0  0  0  0  0  0  0  0  0
  126.8060  122.7320   54.9380 C   0  0  0  0  0  0  0  0  0  0  0  0
  127.6170  122.8100   53.6660 C   0  0  0  0  0  0  0  0  0  0  0  0
  126.7510  123.9970   56.1350 S   0  0  0  0  0  0  0  0  0  0  0  0
  126.4530  123.0530   60.5210 O   0  0  0  0  0  0  0  0  0  0  0  0
  1  2  1  0
  2  3  1  0
  3  4  2  0
  4  5  1  0
  5  6  2  0
  6  7  1  0
  7  8  1  0
  8  9  1  0
  9 10  2  0
  9 11  1  0
 11 12  1  0
 12 13  2  0
 13 14  1  0
 14 15  2  0
 15 16  1  0
 15 17  1  0
  6 18  1  0
 18  3  1  0
 17 12  1  0
M  END
>  <Binding energies>  (81) 
[-7.0]

>  <Ligand effiencies>  (81) 
[-0.3684210526315789]

>  <Interactions>  (81) 
["V-B:TYR:539:CZ:9848, V-B:LEU:363:CD1:8160, V-B:PRO:540:N:9855, V-B:PRO:540:CA:9854, V-B:ALA:541:CB:9863, V-B:MET:535:CE:9806, V-B:TYR:539:CE1:9846, V-B:TYR:539:CD1:9844, V-B:PRO:540:CB:9856, V-B:ASP:366:CG:8184, H-B:TYR:531:OH:9766, V-B:ASP:366:CB:8183, V-B:TYR:539:CD2:9845, V-B:PRO:540:C:9852, H-B:TYR:539:N:9841, V-B:LEU:363:CA:8156, V-B:TYR:539:CE2:9847, V-B:PRO:540:CD:9858, H-B:ALA:541:N:9862, V-B:MET:535:CB:9803, V-B:VAL:537:C:9821, V-B:ASN:362:C:8143, V-B:MET:535:CG:9804, H-B:LEU:363:N:8157"]

$$$$
RR31_Rahimova_2017
     RDKit          3D

 18 19  0  0  0  0  0  0  0  0999 V2000
  133.5690  119.7880   61.0250 C   0  0  0  0  0  0  0  0  0  0  0  0
  132.2250  120.5040   61.0130 C   0  0  0  0  0  0  0  0  0  0  0  0
  131.0780  119.7930   60.6590 C   0  0  0  0  0  0  0  0  0  0  0  0
  129.8330  120.4190   60.6420 C   0  0  0  0  0  0  0  0  0  0  0  0
  129.6960  121.7730   60.9880 C   0  0  0  0  0  0  0  0  0  0  0  0
  128.4560  122.4160   60.9660 N   0  0  0  0  0  0  0  0  0  0  0  0
  127.9970  123.2650   62.0820 C   0  0  0  0  0  0  0  0  0  0  0  0
  126.4760  123.5490   62.0740 C   0  0  0  0  0  0  0  0  0  0  0  0
  126.0610  124.1450   60.8020 N   0  0  0  0  0  0  0  0  0  0  0  0
  124.6290  124.4590   60.7770 C   0  0  0  0  0  0  0  0  0  0  0  0
  123.9160  123.9210   59.5200 C   0  0  0  0  0  0  0  0  0  0  0  0
  123.9520  124.9240   58.3560 C   0  0  0  0  0  0  0  0  0  0  0  0
  125.1230  125.8970   58.5380 N   0  0  0  0  0  0  0  0  0  0  0  0
  126.3730  123.1830   59.7460 C   0  0  0  0  0  0  0  0  0  0  0  0
  127.8920  122.9010   59.6910 C   0  0  0  0  0  0  0  0  0  0  0  0
  130.8580  122.4780   61.3340 C   0  0  0  0  0  0  0  0  0  0  0  0
  132.1150  121.8610   61.3530 C   0  0  0  0  0  0  0  0  0  0  0  0
  133.3390  122.6840   61.7350 C   0  0  0  0  0  0  0  0  0  0  0  0
  1  2  1  0
  2  3  2  0
  3  4  1  0
  4  5  2  0
  5  6  1  0
  6  7  1  0
  7  8  1  0
  8  9  1  0
  9 10  1  0
 10 11  1  0
 11 12  1  0
 12 13  1  0
  9 14  1  0
 14 15  1  0
  5 16  1  0
 16 17  2  0
 17 18  1  0
 17  2  1  0
 15  6  1  0
M  CHG  1  13   1
M  END
>  <Binding energies>  (82) 
[-6.48]

>  <Ligand effiencies>  (82) 
[-0.3085714285714286]

>  <Interactions>  (82) 
["V-B:LEU:363:CD1:8160, V-B:PRO:540:N:9855, V-B:PRO:540:CA:9854, V-B:ALA:541:CB:9863, V-B:TYR:539:C:9838, V-B:PRO:540:CB:9856, H-B:ASP:366:OD2:8186, V-B:ASP:366:CG:8184, V-B:GLU:543:CD:9879, H-B:TYR:531:OH:9766, V-B:ASP:366:CB:8183, V-B:TYR:539:CD2:9845, V-B:PRO:540:C:9852, V-B:LEU:363:CA:8156, V-B:TYR:539:CE2:9847, V-B:TYR:531:CE2:9764, V-A:TRP:381:CH2:3371, V-A:LEU:475:CD2:4258, V-A:ILE:369:CG2:3236, V-B:LEU:363:CB:8158, V-A:TRP:381:CZ2:3369, V-B:ASN:362:C:8143, V-B:ASN:362:CB:8147, V-A:ILE:369:CD1:3238, V-B:GLU:543:CG:9878"]

$$$$
RR32_Rahimova_2017
     RDKit          3D

 18 20  0  0  0  0  0  0  0  0999 V2000
  126.8000  123.1890   56.9070 C   0  0  0  0  0  0  0  0  0  0  0  0
  127.0000  123.0760   58.4140 C   0  0  0  0  0  0  0  0  0  0  0  0
  128.2130  122.5690   58.8830 C   0  0  0  0  0  0  0  0  0  0  0  0
  128.4320  122.4540   60.2530 C   0  0  0  0  0  0  0  0  0  0  0  0
  129.6360  121.9510   60.7140 N   0  0  0  0  0  0  0  0  0  0  0  0
  129.8330  120.4920   60.6360 C   0  0  0  0  0  0  0  0  0  0  0  0
  131.1250  120.0110   61.3370 C   0  0  0  0  0  0  0  0  0  0  0  0
  132.2920  120.6710   60.7530 N   0  0  0  0  0  0  0  0  0  0  0  0
  133.5130  120.1940   61.3930 C   0  0  0  0  0  0  0  0  0  0  0  0
  132.1440  122.1110   60.9540 C   0  0  0  0  0  0  0  0  0  0  0  0
  130.8650  122.6230   60.2500 C   0  0  0  0  0  0  0  0  0  0  0  0
  127.5030  122.8160   61.1750 N   0  0  0  0  0  0  0  0  0  0  0  0
  126.3100  123.3110   60.7500 C   0  0  0  0  0  0  0  0  0  0  0  0
  125.3590  123.6780   61.7330 C   0  0  0  0  0  0  0  0  0  0  0  0
  124.1230  124.1890   61.3570 C   0  0  0  0  0  0  0  0  0  0  0  0
  123.8050  124.3470   60.0130 C   0  0  0  0  0  0  0  0  0  0  0  0
  124.7160  123.9960   59.0210 C   0  0  0  0  0  0  0  0  0  0  0  0
  125.9950  123.4670   59.3600 C   0  0  0  0  0  0  0  0  0  0  0  0
  1  2  1  0
  2  3  2  0
  3  4  1  0
  4  5  1  0
  5  6  1  0
  6  7  1  0
  7  8  1  0
  8  9  1  0
  8 10  1  0
 10 11  1  0
  4 12  2  0
 12 13  1  0
 13 14  2  0
 14 15  1  0
 15 16  2  0
 16 17  1  0
 17 18  2  0
 18  2  1  0
 11  5  1  0
 18 13  1  0
M  END
>  <Binding energies>  (83) 
[-6.81]

>  <Ligand effiencies>  (83) 
[-0.3783333333333333]

>  <Interactions>  (83) 
["V-B:TYR:539:CZ:9848, V-B:PRO:540:N:9855, V-B:PRO:540:CA:9854, V-B:ALA:541:CB:9863, V-B:TYR:539:C:9838, V-B:PRO:540:CB:9856, V-B:ASP:366:CG:8184, V-B:TYR:539:CD2:9845, V-B:PRO:540:C:9852, V-B:LEU:363:CA:8156, V-B:TYR:539:CE2:9847, V-A:TRP:381:CH2:3371, V-A:LEU:475:CD2:4258, V-A:ILE:369:CG2:3236, H-B:ALA:541:N:9862, V-B:ASN:362:C:8143, V-B:ASN:362:CB:8147, V-B:ASN:362:CA:8145"]

$$$$
RR5_Rahimova_2017
     RDKit          3D

 45 50  0  0  0  0  0  0  0  0999 V2000
  129.4560  124.0590   58.2740 O   0  0  0  0  0  0  0  0  0  0  0  0
  129.6500  125.2030   58.6820 C   0  0  0  0  0  0  0  0  0  0  0  0
  130.7730  125.4700   59.7020 C   0  0  0  0  0  0  0  0  0  0  0  0
  132.1050  126.0010   59.0610 C   0  0  2  0  0  0  0  0  0  0  0  0
  132.0030  127.3270   58.4190 N   0  0  0  0  0  0  0  0  0  0  0  0
  131.2150  128.3360   58.9570 C   0  0  0  0  0  0  0  0  0  0  0  0
  130.5690  128.2860   60.0060 O   0  0  0  0  0  0  0  0  0  0  0  0
  131.2580  129.3940   58.1280 O   0  0  0  0  0  0  0  0  0  0  0  0
  132.3920  130.2540   58.0780 C   0  0  0  0  0  0  0  0  0  0  0  0
  131.9740  131.7270   58.2790 C   0  0  0  0  0  0  0  0  0  0  0  0
  131.1000  132.2700   57.1620 C   0  0  0  0  0  0  0  0  0  0  0  0
  131.3610  132.3560   55.7910 C   0  0  0  0  0  0  0  0  0  0  0  0
  130.3930  132.8760   54.9300 C   0  0  0  0  0  0  0  0  0  0  0  0
  129.1670  133.3110   55.4360 C   0  0  0  0  0  0  0  0  0  0  0  0
  128.9050  133.2290   56.8050 C   0  0  0  0  0  0  0  0  0  0  0  0
  129.8750  132.7090   57.6640 C   0  0  0  0  0  0  0  0  0  0  0  0
  129.8730  132.5160   59.1220 C   0  0  0  0  0  0  0  0  0  0  0  0
  128.9040  132.8020   60.0860 C   0  0  0  0  0  0  0  0  0  0  0  0
  129.1680  132.5370   61.4310 C   0  0  0  0  0  0  0  0  0  0  0  0
  130.3940  131.9840   61.8080 C   0  0  0  0  0  0  0  0  0  0  0  0
  131.3570  131.6960   60.8420 C   0  0  0  0  0  0  0  0  0  0  0  0
  131.0970  131.9580   59.4950 C   0  0  0  0  0  0  0  0  0  0  0  0
  132.6750  124.9760   58.0500 C   0  0  0  0  0  0  0  0  0  0  0  0
  133.2400  123.9440   58.3540 O   0  0  0  0  0  0  0  0  0  0  0  0
  132.4280  125.4010   56.7760 O   0  0  0  0  0  0  0  0  0  0  0  0
  128.9590  126.2930   58.2780 N   0  0  0  0  0  0  0  0  0  0  0  0
  127.8240  126.4960   57.3290 C   0  0  0  0  0  0  0  0  0  0  0  0
  128.4540  126.0540   55.9650 C   0  0  0  0  0  0  0  0  0  0  0  0
  128.3190  124.7410   55.4870 C   0  0  0  0  0  0  0  0  0  0  0  0
  128.8820  124.3590   54.2720 C   0  0  0  0  0  0  0  0  0  0  0  0
  129.6000  125.2830   53.5200 C   0  0  0  0  0  0  0  0  0  0  0  0
  129.7490  126.5900   53.9690 C   0  0  0  0  0  0  0  0  0  0  0  0
  129.1770  126.9730   55.1780 C   0  0  0  0  0  0  0  0  0  0  0  0
  126.6590  125.5560   57.7860 C   0  0  0  0  0  0  0  0  0  0  0  0
  125.7480  125.0090   56.8680 C   0  0  0  0  0  0  0  0  0  0  0  0
  124.7070  124.1910   57.3000 C   0  0  0  0  0  0  0  0  0  0  0  0
  124.5620  123.9100   58.6550 C   0  0  0  0  0  0  0  0  0  0  0  0
  125.4540  124.4370   59.5830 C   0  0  0  0  0  0  0  0  0  0  0  0
  126.4990  125.2470   59.1490 C   0  0  0  0  0  0  0  0  0  0  0  0
  127.4860  128.0250   57.3760 C   0  0  0  0  0  0  0  0  0  0  0  0
  127.1120  128.7200   56.2120 C   0  0  0  0  0  0  0  0  0  0  0  0
  126.8180  130.0800   56.2460 C   0  0  0  0  0  0  0  0  0  0  0  0
  126.8880  130.7710   57.4500 C   0  0  0  0  0  0  0  0  0  0  0  0
  127.2410  130.1090   58.6200 C   0  0  0  0  0  0  0  0  0  0  0  0
  127.5340  128.7480   58.5810 C   0  0  0  0  0  0  0  0  0  0  0  0
  1  2  2  0
  2  3  1  0
  4  3  1  6
  4  5  1  0
  5  6  1  0
  6  7  2  0
  6  8  1  0
  8  9  1  0
  9 10  1  0
 10 11  1  0
 11 12  2  0
 12 13  1  0
 13 14  2  0
 14 15  1  0
 15 16  2  0
 16 17  1  0
 17 18  2  0
 18 19  1  0
 19 20  2  0
 20 21  1  0
 21 22  2  0
  4 23  1  0
 23 24  2  0
 23 25  1  0
  2 26  1  0
 26 27  1  0
 27 28  1  0
 28 29  2  0
 29 30  1  0
 30 31  2  0
 31 32  1  0
 32 33  2  0
 27 34  1  0
 34 35  2  0
 35 36  1  0
 36 37  2  0
 37 38  1  0
 38 39  2  0
 27 40  1  0
 40 41  2  0
 41 42  1  0
 42 43  2  0
 43 44  1  0
 44 45  2  0
 22 10  1  0
 33 28  1  0
 39 34  1  0
 45 40  1  0
 16 11  1  0
 22 17  1  0
M  END
>  <Binding energies>  (84) 
[-11.01]

>  <Ligand effiencies>  (84) 
[-0.229375]

>  <Interactions>  (84) 
["V-A:TYR:539:CD1:4873, V-A:TYR:539:CE2:4876, V-A:TYR:539:CG:4872, V-A:ILE:538:C:4858, V-A:TYR:539:CZ:4877, V-A:TYR:539:CE1:4875, V-A:LEU:363:CD1:3188, V-A:TYR:531:CE2:4793, V-A:PRO:540:CA:4883, V-A:ILE:538:CG2:4863, V-A:TYR:539:CA:4869, V-A:ASP:366:CB:3211, V-A:TYR:531:CZ:4794, V-A:PRO:540:CB:4885, V-A:PRO:540:N:4884, V-A:TYR:539:CD2:4874, V-A:ILE:538:CA:4860, V-A:ASP:366:CG:3212, V-A:TYR:539:C:4867, V-A:ILE:538:CB:4862, V-B:TYR:539:CZ:9848, V-B:LEU:363:CD1:8160, V-B:PRO:540:CA:9854, V-B:MET:535:CE:9806, V-B:TYR:539:CE1:9846, V-B:PRO:540:CB:9856, V-A:ALA:541:CB:4892, V-A:MET:535:CE:4835, V-B:LEU:363:CA:8156, H-B:TYR:539:OH:9849, V-B:TYR:531:CZ:9765, V-B:TYR:531:CE2:9764, V-A:ASP:366:CA:3209, H-A:TYR:531:OH:4795, V-A:TYR:531:CE1:4792, V-B:MET:535:CG:9804, V-A:ASP:366:C:3207"]

$$$$
