1a_Ghoteimi_2023
     RDKit          3D

 40 43  0  0  0  0  0  0  0  0999 V2000
  128.5780  124.7030   55.5780 C   0  0  0  0  0  0  0  0  0  0  0  0
  127.4670  124.9790   56.5960 C   0  0  0  0  0  0  0  0  0  0  0  0
  126.4900  123.9480   56.5190 O   0  0  0  0  0  0  0  0  0  0  0  0
  126.5800  122.8370   57.2930 C   0  0  0  0  0  0  0  0  0  0  0  0
  126.3960  121.6930   56.8660 O   0  0  0  0  0  0  0  0  0  0  0  0
  126.9310  123.1370   58.7220 C   0  0  0  0  0  0  0  0  0  0  0  0
  126.0730  123.8660   59.5600 C   0  0  0  0  0  0  0  0  0  0  0  0
  126.4270  124.1320   60.8800 C   0  0  0  0  0  0  0  0  0  0  0  0
  127.6490  123.6680   61.3890 C   0  0  0  0  0  0  0  0  0  0  0  0
  128.1090  123.8820   62.7030 N   0  0  0  0  0  0  0  0  0  0  0  0
  129.3260  123.6510   63.2420 C   0  0  0  0  0  0  0  0  0  0  0  0
  130.3020  123.2030   62.6410 O   0  0  0  0  0  0  0  0  0  0  0  0
  129.4630  123.9960   64.7250 C   0  0  0  0  0  0  0  0  0  0  0  0
  130.4310  125.5130   64.9760 S   0  0  0  0  0  0  0  0  0  0  0  0
  129.3940  126.6130   65.9130 C   0  0  0  0  0  0  0  0  0  0  0  0
  129.3960  126.3680   67.2450 N   0  0  0  0  0  0  0  0  0  0  0  0
  128.6470  127.1410   68.0750 C   0  0  0  0  0  0  0  0  0  0  0  0
  128.7180  126.8200   69.5400 C   0  0  0  0  0  0  0  0  0  0  0  0
  129.5040  127.5850   70.4170 C   0  0  0  0  0  0  0  0  0  0  0  0
  129.5670  127.2850   71.7750 C   0  0  0  0  0  0  0  0  0  0  0  0
  128.8510  126.2120   72.2980 C   0  0  0  0  0  0  0  0  0  0  0  0
  128.9710  125.9890   73.6570 O   0  0  0  0  0  0  0  0  0  0  0  0
  130.1270  125.3230   74.1510 C   0  0  0  0  0  0  0  0  0  0  0  0
  128.0650  125.4360   71.4340 C   0  0  0  0  0  0  0  0  0  0  0  0
  128.0050  125.7380   70.0780 C   0  0  0  0  0  0  0  0  0  0  0  0
  127.8720  128.1900   67.5640 C   0  0  0  0  0  0  0  0  0  0  0  0
  127.8350  128.4460   66.1870 C   0  0  0  0  0  0  0  0  0  0  0  0
  126.9610  129.5610   65.7110 C   0  0  0  0  0  0  0  0  0  0  0  0
  127.4760  130.8480   65.5270 C   0  0  0  0  0  0  0  0  0  0  0  0
  126.6580  131.8780   65.0690 C   0  0  0  0  0  0  0  0  0  0  0  0
  125.3150  131.6410   64.7800 C   0  0  0  0  0  0  0  0  0  0  0  0
  124.5820  132.7210   64.3300 O   0  0  0  0  0  0  0  0  0  0  0  0
  123.9500  132.6500   63.0570 C   0  0  0  0  0  0  0  0  0  0  0  0
  124.7960  130.3490   64.9560 C   0  0  0  0  0  0  0  0  0  0  0  0
  125.6160  129.3210   65.4150 C   0  0  0  0  0  0  0  0  0  0  0  0
  128.6210  127.6390   65.3300 C   0  0  0  0  0  0  0  0  0  0  0  0
  128.6350  127.8700   63.8820 C   0  0  0  0  0  0  0  0  0  0  0  0
  128.6460  128.0520   62.7390 N   0  0  0  0  0  0  0  0  0  0  0  0
  128.5060  122.9460   60.5580 C   0  0  0  0  0  0  0  0  0  0  0  0
  128.1510  122.6810   59.2370 C   0  0  0  0  0  0  0  0  0  0  0  0
  1  2  1  0
  2  3  1  0
  3  4  1  0
  4  5  2  0
  4  6  1  0
  6  7  2  0
  7  8  1  0
  8  9  2  0
  9 10  1  0
 10 11  1  0
 11 12  2  0
 11 13  1  0
 13 14  1  0
 14 15  1  0
 15 16  2  0
 16 17  1  0
 17 18  1  0
 18 19  2  0
 19 20  1  0
 20 21  2  0
 21 22  1  0
 22 23  1  0
 21 24  1  0
 24 25  2  0
 17 26  2  0
 26 27  1  0
 27 28  1  0
 28 29  2  0
 29 30  1  0
 30 31  2  0
 31 32  1  0
 32 33  1  0
 31 34  1  0
 34 35  2  0
 27 36  2  0
 36 37  1  0
 37 38  3  0
  9 39  1  0
 39 40  2  0
 40  6  1  0
 36 15  1  0
 25 18  1  0
 35 28  1  0
M  END
>  <Binding energies>  (1) 
[-9.96]

>  <Ligand effiencies>  (1) 
[-0.2429268292682927]

>  <Interactions>  (1) 
["V-B:TYR:539:CZ:9848, H-B:GLU:543:OE2:9881, V-B:PRO:540:N:9855, V-B:PRO:540:CA:9854, V-B:ALA:541:CB:9863, V-B:TYR:539:C:9838, V-B:TYR:539:CE1:9846, V-B:PRO:540:CB:9856, V-B:GLY:454:CA:9020, V-B:LEU:475:CD1:9229, V-B:ILE:369:CD1:8210, H-B:GLY:454:N:9021, V-B:GLU:543:CD:9879, V-B:ARG:545:CZ:9897, V-B:HIS:456:CE1:9041, V-A:GLU:543:CG:4907, V-A:GLU:543:CD:4908, V-B:TYR:539:CD2:9845, H-B:TYR:539:N:9841, V-B:TYR:539:CE2:9847, V-B:GLU:543:CG:9878, V-A:HIS:456:CE1:4069, V-B:GLU:543:CB:9877, V-A:HIS:456:CD2:4067, H-B:LYS:547:NZ:9922, V-B:GLY:544:C:9883, V-B:GLU:543:C:9873"]

$$$$
1b_Ghoteimi_2023
     RDKit          3D

 34 37  0  0  0  0  0  0  0  0999 V2000
  131.6310  132.4050   55.8480 C   0  0  0  0  0  0  0  0  0  0  0  0
  130.8640  133.3470   56.5880 O   0  0  0  0  0  0  0  0  0  0  0  0
  130.1220  132.9110   57.6690 C   0  0  0  0  0  0  0  0  0  0  0  0
  128.7380  132.9010   57.5130 C   0  0  0  0  0  0  0  0  0  0  0  0
  127.9100  132.4780   58.5490 C   0  0  0  0  0  0  0  0  0  0  0  0
  128.4420  132.0490   59.7740 C   0  0  0  0  0  0  0  0  0  0  0  0
  127.5450  131.5950   60.8910 C   0  0  0  0  0  0  0  0  0  0  0  0
  127.9830  130.7720   61.9330 C   0  0  0  0  0  0  0  0  0  0  0  0
  127.1070  130.3800   62.9530 C   0  0  0  0  0  0  0  0  0  0  0  0
  127.6420  129.4960   64.0310 C   0  0  0  0  0  0  0  0  0  0  0  0
  128.4060  128.3710   63.7060 C   0  0  0  0  0  0  0  0  0  0  0  0
  128.9000  127.5390   64.7060 C   0  0  0  0  0  0  0  0  0  0  0  0
  128.6380  127.8120   66.0490 C   0  0  0  0  0  0  0  0  0  0  0  0
  129.1690  126.9320   66.9730 O   0  0  0  0  0  0  0  0  0  0  0  0
  129.7380  125.7090   66.5180 C   0  0  0  0  0  0  0  0  0  0  0  0
  127.8660  128.9360   66.3790 C   0  0  0  0  0  0  0  0  0  0  0  0
  127.3720  129.7650   65.3770 C   0  0  0  0  0  0  0  0  0  0  0  0
  125.7700  130.8480   62.9100 C   0  0  0  0  0  0  0  0  0  0  0  0
  124.8400  130.5470   64.0020 C   0  0  0  0  0  0  0  0  0  0  0  0
  124.1070  130.3080   64.8660 N   0  0  0  0  0  0  0  0  0  0  0  0
  125.3870  131.6600   61.8190 C   0  0  0  0  0  0  0  0  0  0  0  0
  123.7520  132.3300   61.5960 S   0  0  0  0  0  0  0  0  0  0  0  0
  122.9570  131.4260   60.2250 C   0  0  0  0  0  0  0  0  0  0  0  0
  123.7740  131.3640   58.9270 C   0  0  0  0  0  0  0  0  0  0  0  0
  123.6270  132.2170   58.0490 O   0  0  0  0  0  0  0  0  0  0  0  0
  124.6310  130.3210   58.8500 N   0  0  0  0  0  0  0  0  0  0  0  0
  125.4920  130.0160   57.8020 C   0  0  0  0  0  0  0  0  0  0  0  0
  126.7320  129.4070   57.9890 C   0  0  0  0  0  0  0  0  0  0  0  0
  127.2630  129.2800   56.7260 C   0  0  0  0  0  0  0  0  0  0  0  0
  126.3850  129.7840   55.8250 O   0  0  0  0  0  0  0  0  0  0  0  0
  125.2670  130.2470   56.5190 N   0  0  0  0  0  0  0  0  0  0  0  0
  126.2600  132.0350   60.8530 N   0  0  0  0  0  0  0  0  0  0  0  0
  129.8380  132.0650   59.9200 C   0  0  0  0  0  0  0  0  0  0  0  0
  130.6700  132.4880   58.8880 C   0  0  0  0  0  0  0  0  0  0  0  0
  1  2  1  0
  2  3  1  0
  3  4  2  0
  4  5  1  0
  5  6  2  0
  6  7  1  0
  7  8  2  0
  8  9  1  0
  9 10  1  0
 10 11  2  0
 11 12  1  0
 12 13  2  0
 13 14  1  0
 14 15  1  0
 13 16  1  0
 16 17  2  0
  9 18  2  0
 18 19  1  0
 19 20  3  0
 18 21  1  0
 21 22  1  0
 22 23  1  0
 23 24  1  0
 24 25  2  0
 24 26  1  0
 26 27  1  0
 27 28  1  0
 28 29  2  0
 29 30  1  0
 30 31  1  0
 21 32  2  0
  6 33  1  0
 33 34  2  0
 34  3  1  0
 32  7  1  0
 17 10  1  0
 31 27  2  0
M  END
>  <Binding energies>  (2) 
[-9.3]

>  <Ligand effiencies>  (2) 
[-0.26571428571428574]

>  <Interactions>  (2) 
["V-A:TYR:539:CD1:4873, V-A:TYR:539:CE2:4876, V-A:TYR:539:CG:4872, V-A:TYR:539:CZ:4877, V-A:TYR:539:CE1:4875, V-A:LEU:363:CD1:3188, V-A:PRO:540:CA:4883, V-A:ILE:538:CG2:4863, V-A:PRO:540:CB:4885, V-A:PRO:540:N:4884, V-A:TYR:539:CD2:4874, V-A:TYR:539:C:4867, H-A:TYR:539:N:4870, V-A:ILE:538:CB:4862, H-B:ASP:366:OD1:8185, H-B:ASP:366:OD2:8186, V-B:ASP:366:CG:8184, V-B:ILE:369:CD1:8210, H-B:GLY:454:N:9021, V-B:GLU:543:CD:9879, V-B:ILE:369:CG2:8208, V-A:MET:535:CE:4835, V-A:GLU:543:CG:4907, V-A:GLU:543:CD:4908, H-B:TYR:531:OH:9766, H-A:TYR:539:OH:4878, V-B:ASP:366:CB:8183, V-B:ASP:366:C:8179, V-B:ASP:366:CA:8181, V-B:ILE:369:CB:8207, H-B:ARG:545:NH2:9899, V-B:ILE:369:CG1:8209, H-B:ASN:370:N:8215, V-B:GLU:543:CG:9878, V-B:GLU:543:CB:9877"]

$$$$
1c_Ghoteimi_2023
     RDKit          3D

 34 37  0  0  0  0  0  0  0  0999 V2000
  130.0990  125.3070   75.0520 C   0  0  0  0  0  0  0  0  0  0  0  0
  129.0110  125.9680   74.4160 O   0  0  0  0  0  0  0  0  0  0  0  0
  129.0790  126.2320   73.0610 C   0  0  0  0  0  0  0  0  0  0  0  0
  128.4090  125.3490   72.2190 C   0  0  0  0  0  0  0  0  0  0  0  0
  128.4270  125.5360   70.8390 C   0  0  0  0  0  0  0  0  0  0  0  0
  129.1170  126.6120   70.2610 C   0  0  0  0  0  0  0  0  0  0  0  0
  129.1430  126.8150   68.7730 C   0  0  0  0  0  0  0  0  0  0  0  0
  129.7510  125.9100   67.8970 C   0  0  0  0  0  0  0  0  0  0  0  0
  129.7260  126.1270   66.5140 C   0  0  0  0  0  0  0  0  0  0  0  0
  130.3360  125.0870   65.6350 C   0  0  0  0  0  0  0  0  0  0  0  0
  129.7530  123.8210   65.5210 C   0  0  0  0  0  0  0  0  0  0  0  0
  130.3350  122.8460   64.7170 C   0  0  0  0  0  0  0  0  0  0  0  0
  131.5110  123.1130   64.0180 C   0  0  0  0  0  0  0  0  0  0  0  0
  132.0170  122.0850   63.2450 O   0  0  0  0  0  0  0  0  0  0  0  0
  133.2510  122.2740   62.5600 C   0  0  0  0  0  0  0  0  0  0  0  0
  132.1030  124.3800   64.1350 C   0  0  0  0  0  0  0  0  0  0  0  0
  131.5190  125.3550   64.9400 C   0  0  0  0  0  0  0  0  0  0  0  0
  129.0980  127.2980   66.0290 C   0  0  0  0  0  0  0  0  0  0  0  0
  129.0670  127.6010   64.5940 C   0  0  0  0  0  0  0  0  0  0  0  0
  129.0430  127.8380   63.4610 N   0  0  0  0  0  0  0  0  0  0  0  0
  128.4890  128.1590   66.9650 C   0  0  0  0  0  0  0  0  0  0  0  0
  127.5210  129.5730   66.4850 S   0  0  0  0  0  0  0  0  0  0  0  0
  125.8180  129.1650   66.9890 C   0  0  0  0  0  0  0  0  0  0  0  0
  124.7940  129.5160   65.9040 C   0  0  0  0  0  0  0  0  0  0  0  0
  123.6030  129.6160   66.2010 O   0  0  0  0  0  0  0  0  0  0  0  0
  125.3100  129.7370   64.6750 N   0  0  0  0  0  0  0  0  0  0  0  0
  124.6320  130.2140   63.5650 C   0  0  0  0  0  0  0  0  0  0  0  0
  123.3750  130.5950   63.4890 N   0  0  0  0  0  0  0  0  0  0  0  0
  123.0750  131.0330   62.2820 C   0  0  0  0  0  0  0  0  0  0  0  0
  124.1060  131.0160   61.3470 C   0  0  0  0  0  0  0  0  0  0  0  0
  125.5410  130.3870   62.0990 S   0  0  0  0  0  0  0  0  0  0  0  0
  128.5050  127.9170   68.2980 N   0  0  0  0  0  0  0  0  0  0  0  0
  129.7820  127.4990   71.1200 C   0  0  0  0  0  0  0  0  0  0  0  0
  129.7690  127.3150   72.4990 C   0  0  0  0  0  0  0  0  0  0  0  0
  1  2  1  0
  2  3  1  0
  3  4  2  0
  4  5  1  0
  5  6  2  0
  6  7  1  0
  7  8  2  0
  8  9  1  0
  9 10  1  0
 10 11  2  0
 11 12  1  0
 12 13  2  0
 13 14  1  0
 14 15  1  0
 13 16  1  0
 16 17  2  0
  9 18  2  0
 18 19  1  0
 19 20  3  0
 18 21  1  0
 21 22  1  0
 22 23  1  0
 23 24  1  0
 24 25  2  0
 24 26  1  0
 26 27  1  0
 27 28  2  0
 28 29  1  0
 29 30  2  0
 30 31  1  0
 21 32  2  0
  6 33  1  0
 33 34  2  0
 34  3  1  0
 32  7  1  0
 17 10  1  0
 31 27  1  0
M  END
>  <Binding energies>  (3) 
[-8.83]

>  <Ligand effiencies>  (3) 
[-0.2522857142857143]

>  <Interactions>  (3) 
["V-B:ALA:541:CB:9863, V-B:ASP:366:CG:8184, V-B:ARG:545:CD:9894, H-B:TYR:484:OH:9319, V-B:ILE:369:CD1:8210, H-B:GLY:454:N:9021, V-B:GLU:543:CD:9879, V-B:ARG:545:CZ:9897, V-B:HIS:456:CE1:9041, V-A:GLU:543:CG:4907, V-A:GLU:543:CD:4908, V-A:LEU:475:CD2:4258, H-B:ARG:545:NE:9895, V-A:ILE:369:CG2:3236, V-A:ILE:369:CD1:3238, V-B:GLU:543:CG:9878, V-A:HIS:456:CE1:4069, V-A:GLY:454:CA:4048, V-B:GLU:543:CB:9877, V-A:TYR:484:CE1:4344, H-B:LYS:547:NZ:9922, V-B:GLU:543:C:9873"]

$$$$
1d_Ghoteimi_2023
     RDKit          3D

 30 32  0  0  0  0  0  0  0  0999 V2000
  133.8620  125.3560   63.6890 C   0  0  0  0  0  0  0  0  0  0  0  0
  133.5420  124.6470   64.8760 O   0  0  0  0  0  0  0  0  0  0  0  0
  133.9110  125.1280   66.0820 C   0  0  0  0  0  0  0  0  0  0  0  0
  135.0330  125.0480   66.5860 O   0  0  0  0  0  0  0  0  0  0  0  0
  132.7580  125.8120   66.8110 C   0  0  0  0  0  0  0  0  0  0  0  0
  131.3030  125.7390   65.7230 S   0  0  0  0  0  0  0  0  0  0  0  0
  130.0140  126.6770   66.5140 C   0  0  0  0  0  0  0  0  0  0  0  0
  129.9540  126.4990   67.8550 N   0  0  0  0  0  0  0  0  0  0  0  0
  129.0140  127.1520   68.5840 C   0  0  0  0  0  0  0  0  0  0  0  0
  129.0190  126.9040   70.0650 C   0  0  0  0  0  0  0  0  0  0  0  0
  128.3610  125.7950   70.6200 C   0  0  0  0  0  0  0  0  0  0  0  0
  128.3610  125.5710   71.9930 C   0  0  0  0  0  0  0  0  0  0  0  0
  129.0160  126.4470   72.8550 C   0  0  0  0  0  0  0  0  0  0  0  0
  128.9610  126.1470   74.2030 O   0  0  0  0  0  0  0  0  0  0  0  0
  130.0290  125.4140   74.7940 C   0  0  0  0  0  0  0  0  0  0  0  0
  129.6780  127.5590   72.3160 C   0  0  0  0  0  0  0  0  0  0  0  0
  129.6760  127.7800   70.9420 C   0  0  0  0  0  0  0  0  0  0  0  0
  128.1080  128.0210   67.9640 C   0  0  0  0  0  0  0  0  0  0  0  0
  128.1370  128.2120   66.5770 C   0  0  0  0  0  0  0  0  0  0  0  0
  127.1360  129.1470   65.9790 C   0  0  0  0  0  0  0  0  0  0  0  0
  125.8250  129.1780   66.4640 C   0  0  0  0  0  0  0  0  0  0  0  0
  124.8870  130.0470   65.9120 C   0  0  0  0  0  0  0  0  0  0  0  0
  125.2410  130.9040   64.8710 C   0  0  0  0  0  0  0  0  0  0  0  0
  124.2450  131.7260   64.3810 O   0  0  0  0  0  0  0  0  0  0  0  0
  123.7940  131.5500   63.0420 C   0  0  0  0  0  0  0  0  0  0  0  0
  126.5600  130.8860   64.3890 C   0  0  0  0  0  0  0  0  0  0  0  0
  127.4950  130.0170   64.9440 C   0  0  0  0  0  0  0  0  0  0  0  0
  129.1050  127.5060   65.8190 C   0  0  0  0  0  0  0  0  0  0  0  0
  129.1140  127.5880   64.3550 C   0  0  0  0  0  0  0  0  0  0  0  0
  129.1210  127.6530   63.2000 N   0  0  0  0  0  0  0  0  0  0  0  0
  1  2  1  0
  2  3  1  0
  3  4  2  0
  3  5  1  0
  5  6  1  0
  6  7  1  0
  7  8  2  0
  8  9  1  0
  9 10  1  0
 10 11  2  0
 11 12  1  0
 12 13  2  0
 13 14  1  0
 14 15  1  0
 13 16  1  0
 16 17  2  0
  9 18  2  0
 18 19  1  0
 19 20  1  0
 20 21  2  0
 21 22  1  0
 22 23  2  0
 23 24  1  0
 24 25  1  0
 23 26  1  0
 26 27  2  0
 19 28  2  0
 28 29  1  0
 29 30  3  0
 28  7  1  0
 17 10  1  0
 27 20  1  0
M  END
>  <Binding energies>  (4) 
[-8.39]

>  <Ligand effiencies>  (4) 
[-0.2796666666666667]

>  <Interactions>  (4) 
["V-B:GLY:454:CA:9020, V-B:ILE:369:CD1:8210, H-B:GLY:454:N:9021, V-B:GLU:543:CD:9879, V-B:ARG:545:CZ:9897, V-B:HIS:456:CE1:9041, V-A:GLU:543:CG:4907, V-A:GLU:543:CD:4908, H-A:GLY:454:N:4049, V-A:ARG:545:CZ:4926, H-A:ARG:545:NE:4924, H-A:TYR:484:OH:4347, V-A:HIS:456:CE1:4069, V-A:ARG:545:CD:4923, V-A:ARG:545:CG:4922, V-A:GLY:454:CA:4048, V-A:GLY:453:CA:4043, H-B:LYS:547:NZ:9922, V-B:GLU:543:C:9873, H-A:ILE:455:N:4054"]

$$$$
1j_Grossjean_2025
     RDKit          3D

 20 21  0  0  0  0  0  0  0  0999 V2000
  127.2630  127.7190   58.2710 C   0  0  0  0  0  0  0  0  0  0  0  0
  126.8650  126.3910   57.6530 C   0  0  0  0  0  0  0  0  0  0  0  0
  127.6250  125.7980   56.6480 C   0  0  0  0  0  0  0  0  0  0  0  0
  127.2170  124.5670   56.1250 C   0  0  0  0  0  0  0  0  0  0  0  0
  128.0770  123.9270   55.0350 C   0  0  0  0  0  0  0  0  0  0  0  0
  126.0420  123.9600   56.6230 C   0  0  0  0  0  0  0  0  0  0  0  0
  125.6250  122.6460   56.1270 C   0  0  0  0  0  0  0  0  0  0  0  0
  125.2990  121.6070   55.7340 N   0  0  0  0  0  0  0  0  0  0  0  0
  125.3180  124.6470   57.6260 C   0  0  0  0  0  0  0  0  0  0  0  0
  123.8190  124.0330   58.3630 S   0  0  0  0  0  0  0  0  0  0  0  0
  123.9350  124.3010   60.1570 C   0  0  0  0  0  0  0  0  0  0  0  0
  125.0980  123.5270   60.7790 C   0  0  0  0  0  0  0  0  0  0  0  0
  124.8920  122.8120   61.7600 O   0  0  0  0  0  0  0  0  0  0  0  0
  126.2970  123.6950   60.1790 N   0  0  0  0  0  0  0  0  0  0  0  0
  127.5000  123.1120   60.5530 C   0  0  0  0  0  0  0  0  0  0  0  0
  127.8980  122.7910   61.7660 N   0  0  0  0  0  0  0  0  0  0  0  0
  129.1010  122.2530   61.7520 C   0  0  0  0  0  0  0  0  0  0  0  0
  129.7060  122.1260   60.5050 C   0  0  0  0  0  0  0  0  0  0  0  0
  128.6300  122.7480   59.2900 S   0  0  0  0  0  0  0  0  0  0  0  0
  125.7340  125.8310   58.1420 N   0  0  0  0  0  0  0  0  0  0  0  0
  1  2  1  0
  2  3  2  0
  3  4  1  0
  4  5  1  0
  4  6  2  0
  6  7  1  0
  7  8  3  0
  6  9  1  0
  9 10  1  0
 10 11  1  0
 11 12  1  0
 12 13  2  0
 12 14  1  0
 14 15  1  0
 15 16  2  0
 16 17  1  0
 17 18  2  0
 18 19  1  0
  9 20  2  0
 20  2  1  0
 19 15  1  0
M  END
>  <Binding energies>  (5) 
[-6.65]

>  <Ligand effiencies>  (5) 
[-0.3166666666666667]

>  <Interactions>  (5) 
["V-B:TYR:539:CZ:9848, V-B:LEU:363:CD1:8160, V-B:PRO:540:N:9855, V-B:PRO:540:CA:9854, V-B:ALA:541:CB:9863, V-B:MET:535:CE:9806, V-B:TYR:539:CE1:9846, V-B:TYR:539:CD1:9844, V-B:PRO:540:CB:9856, V-B:ASP:366:CG:8184, H-B:TYR:531:OH:9766, V-B:TYR:539:CD2:9845, H-B:TYR:539:N:9841, V-B:LEU:363:CA:8156, V-B:TYR:539:CE2:9847, V-B:PRO:540:CD:9858, H-B:ALA:541:N:9862, V-B:ASN:362:C:8143, V-B:ASN:362:CB:8147"]

$$$$
1o_Grossjean_2025
     RDKit          3D

 26 27  0  0  0  0  0  0  0  0999 V2000
  126.3800  122.3780   54.6310 C   0  0  0  0  0  0  0  0  0  0  0  0
  126.0880  122.0600   55.9840 O   0  0  0  0  0  0  0  0  0  0  0  0
  126.9150  122.4470   56.9890 C   0  0  0  0  0  0  0  0  0  0  0  0
  127.7070  121.6840   57.5500 O   0  0  0  0  0  0  0  0  0  0  0  0
  126.7760  123.8990   57.3470 C   0  0  0  0  0  0  0  0  0  0  0  0
  125.6850  124.3800   58.0850 C   0  0  0  0  0  0  0  0  0  0  0  0
  125.5880  125.7320   58.4030 C   0  0  0  0  0  0  0  0  0  0  0  0
  126.5710  126.6300   57.9860 C   0  0  0  0  0  0  0  0  0  0  0  0
  126.3780  127.9720   58.3700 N   0  0  0  0  0  0  0  0  0  0  0  0
  126.4660  129.1030   57.6360 C   0  0  0  0  0  0  0  0  0  0  0  0
  126.7020  129.1490   56.4290 O   0  0  0  0  0  0  0  0  0  0  0  0
  126.2160  130.4100   58.4040 C   0  0  0  0  0  0  0  0  0  0  0  0
  127.1140  131.5730   57.9380 C   0  0  0  0  0  0  0  0  0  0  0  0
  128.2340  132.2020   59.2240 S   0  0  0  0  0  0  0  0  0  0  0  0
  129.9120  131.9810   58.6680 C   0  0  0  0  0  0  0  0  0  0  0  0
  130.0170  131.7940   57.3280 N   0  0  0  0  0  0  0  0  0  0  0  0
  131.2470  131.6230   56.7890 C   0  0  0  0  0  0  0  0  0  0  0  0
  131.2860  131.4340   55.2830 C   0  0  0  0  0  0  0  0  0  0  0  0
  132.4090  131.6200   57.5550 C   0  0  0  0  0  0  0  0  0  0  0  0
  132.3110  131.7870   58.9400 C   0  0  0  0  0  0  0  0  0  0  0  0
  133.6000  131.7650   59.7610 C   0  0  0  0  0  0  0  0  0  0  0  0
  131.0370  131.9620   59.5270 C   0  0  0  0  0  0  0  0  0  0  0  0
  130.9090  132.0790   60.9820 C   0  0  0  0  0  0  0  0  0  0  0  0
  130.8110  132.1720   62.1310 N   0  0  0  0  0  0  0  0  0  0  0  0
  127.6680  126.1550   57.2510 C   0  0  0  0  0  0  0  0  0  0  0  0
  127.7640  124.8030   56.9360 C   0  0  0  0  0  0  0  0  0  0  0  0
  1  2  1  0
  2  3  1  0
  3  4  2  0
  3  5  1  0
  5  6  2  0
  6  7  1  0
  7  8  2  0
  8  9  1  0
  9 10  1  0
 10 11  2  0
 10 12  1  0
 12 13  1  0
 13 14  1  0
 14 15  1  0
 15 16  2  0
 16 17  1  0
 17 18  1  0
 17 19  2  0
 19 20  1  0
 20 21  1  0
 20 22  2  0
 22 23  1  0
 23 24  3  0
  8 25  1  0
 25 26  2  0
 26  5  1  0
 22 15  1  0
M  END
>  <Binding energies>  (6) 
[-7.98]

>  <Ligand effiencies>  (6) 
[-0.29555555555555557]

>  <Interactions>  (6) 
["V-A:TYR:539:CE2:4876, V-A:TYR:539:CZ:4877, V-A:LEU:363:CD1:3188, V-A:TYR:531:CE2:4793, V-A:PRO:540:CA:4883, V-A:ASN:362:C:3171, V-A:TYR:531:CZ:4794, V-A:PRO:540:CB:4885, V-A:ASP:366:CG:3212, V-B:PRO:540:N:9855, V-B:PRO:540:CA:9854, V-B:MET:535:CE:9806, V-B:TYR:539:C:9838, V-B:TYR:539:CE1:9846, V-B:TYR:539:CD1:9844, H-B:ASP:366:OD2:8186, V-B:ASP:366:CG:8184, V-A:MET:535:CE:4835, H-A:ALA:541:N:4891, V-A:PRO:540:C:4881, H-B:TYR:531:OH:9766, V-A:LEU:363:CA:3184, H-B:TYR:539:N:9841, V-B:PRO:540:CD:9858, V-A:MET:535:CG:4833, V-B:ILE:538:CD1:9836, V-B:ILE:538:CA:9831, V-B:TYR:539:CG:9843"]

$$$$
1p_Grossjean_2025
     RDKit          3D

 21 22  0  0  0  0  0  0  0  0999 V2000
  123.2970  135.4100   62.1290 C   0  0  0  0  0  0  0  0  0  0  0  0
  124.7270  134.9230   61.9950 C   0  0  0  0  0  0  0  0  0  0  0  0
  125.7960  135.8140   61.9150 C   0  0  0  0  0  0  0  0  0  0  0  0
  127.0930  135.3080   61.7790 C   0  0  0  0  0  0  0  0  0  0  0  0
  128.2480  136.3030   61.6780 C   0  0  0  0  0  0  0  0  0  0  0  0
  127.2890  133.9100   61.7330 C   0  0  0  0  0  0  0  0  0  0  0  0
  128.6310  133.3570   61.5430 C   0  0  0  0  0  0  0  0  0  0  0  0
  129.6930  132.9210   61.3920 N   0  0  0  0  0  0  0  0  0  0  0  0
  126.1480  133.0800   61.8450 C   0  0  0  0  0  0  0  0  0  0  0  0
  126.2170  131.3030   61.8170 S   0  0  0  0  0  0  0  0  0  0  0  0
  127.1050  130.8340   60.3030 C   0  0  0  0  0  0  0  0  0  0  0  0
  126.5170  131.4540   59.0210 C   0  0  0  0  0  0  0  0  0  0  0  0
  127.5760  131.7980   57.9640 C   0  0  0  0  0  0  0  0  0  0  0  0
  127.3130  131.6500   56.7690 O   0  0  0  0  0  0  0  0  0  0  0  0
  128.7500  132.2660   58.4440 N   0  0  0  0  0  0  0  0  0  0  0  0
  129.8660  132.6500   57.7110 C   0  0  0  0  0  0  0  0  0  0  0  0
  131.1730  132.3770   58.1130 C   0  0  0  0  0  0  0  0  0  0  0  0
  131.9710  132.9140   57.1290 C   0  0  0  0  0  0  0  0  0  0  0  0
  131.1850  133.4810   56.1830 O   0  0  0  0  0  0  0  0  0  0  0  0
  129.8530  133.3090   56.5640 N   0  0  0  0  0  0  0  0  0  0  0  0
  124.8910  133.5800   61.9560 N   0  0  0  0  0  0  0  0  0  0  0  0
  1  2  1  0
  2  3  2  0
  3  4  1  0
  4  5  1  0
  4  6  2  0
  6  7  1  0
  7  8  3  0
  6  9  1  0
  9 10  1  0
 10 11  1  0
 11 12  1  0
 12 13  1  0
 13 14  2  0
 13 15  1  0
 15 16  1  0
 16 17  1  0
 17 18  2  0
 18 19  1  0
 19 20  1  0
  9 21  2  0
 21  2  1  0
 20 16  2  0
M  END
>  <Binding energies>  (7) 
[-6.87]

>  <Ligand effiencies>  (7) 
[-0.31227272727272726]

>  <Interactions>  (7) 
["V-A:TYR:539:CE2:4876, V-A:TYR:539:CZ:4877, V-A:LEU:363:CD1:3188, V-A:PRO:540:CA:4883, V-A:PRO:540:CD:4887, V-A:PRO:540:CB:4885, V-A:PRO:540:N:4884, V-A:TYR:539:CD2:4874, V-A:TYR:539:C:4867, H-A:TYR:539:N:4870, V-B:TRP:381:CZ2:8341, V-B:TRP:381:CH2:8343, V-A:ALA:541:CB:4892, V-B:LEU:475:CD1:9229, V-B:PRO:482:CB:9297, V-B:ILE:369:CD1:8210, V-B:PRO:482:CG:9298, V-B:SER:385:CA:8378, V-B:ILE:369:CG2:8208, H-A:ALA:541:N:4891, H-A:TYR:539:O:4868, V-A:PRO:540:C:4881, V-B:SER:385:C:8376, H-A:TYR:539:OH:4878, V-A:ALA:541:CA:4890"]

$$$$
2a_Ghoteimi_2023
     RDKit          3D

 48 53  0  0  0  0  0  0  0  0999 V2000
  127.3970  122.8110   54.3850 C   0  0  0  0  0  0  0  0  0  0  0  0
  126.1210  122.0580   54.7700 C   0  0  0  0  0  0  0  0  0  0  0  0
  125.9770  122.0660   56.1850 O   0  0  0  0  0  0  0  0  0  0  0  0
  125.4180  123.1240   56.8270 C   0  0  0  0  0  0  0  0  0  0  0  0
  124.5430  123.8390   56.3270 O   0  0  0  0  0  0  0  0  0  0  0  0
  125.9650  123.3340   58.2100 C   0  0  0  0  0  0  0  0  0  0  0  0
  127.3260  123.1680   58.5040 C   0  0  0  0  0  0  0  0  0  0  0  0
  127.8000  123.3710   59.7960 C   0  0  0  0  0  0  0  0  0  0  0  0
  126.9290  123.7480   60.8190 C   0  0  0  0  0  0  0  0  0  0  0  0
  127.5150  123.9230   62.0880 N   0  0  0  0  0  0  0  0  0  0  0  0
  128.7010  123.4820   62.5610 C   0  0  0  0  0  0  0  0  0  0  0  0
  129.4920  122.7720   61.9390 O   0  0  0  0  0  0  0  0  0  0  0  0
  129.0200  123.8920   64.0040 C   0  0  0  0  0  0  0  0  0  0  0  0
  130.2700  125.2090   64.1550 S   0  0  0  0  0  0  0  0  0  0  0  0
  129.4710  126.5300   65.0360 C   0  0  0  0  0  0  0  0  0  0  0  0
  129.5370  126.4100   66.3820 N   0  0  0  0  0  0  0  0  0  0  0  0
  128.9560  127.3530   67.1660 C   0  0  0  0  0  0  0  0  0  0  0  0
  129.0610  127.1490   68.6430 C   0  0  0  0  0  0  0  0  0  0  0  0
  128.3600  126.1210   69.2850 C   0  0  0  0  0  0  0  0  0  0  0  0
  128.4530  125.9430   70.6630 C   0  0  0  0  0  0  0  0  0  0  0  0
  129.2540  126.7820   71.4500 C   0  0  0  0  0  0  0  0  0  0  0  0
  129.3140  126.6110   72.8370 N   0  0  0  0  0  0  0  0  0  0  0  0
  129.3760  125.2660   73.4450 C   0  0  0  0  0  0  0  0  0  0  0  0
  129.7970  125.2720   74.9290 C   0  0  0  0  0  0  0  0  0  0  0  0
  128.9440  126.1270   75.6730 O   0  0  0  0  0  0  0  0  0  0  0  0
  129.0080  127.4620   75.2000 C   0  0  0  0  0  0  0  0  0  0  0  0
  128.5640  127.5250   73.7240 C   0  0  0  0  0  0  0  0  0  0  0  0
  129.9450  127.8200   70.8020 C   0  0  0  0  0  0  0  0  0  0  0  0
  129.8540  127.9950   69.4250 C   0  0  0  0  0  0  0  0  0  0  0  0
  128.3010  128.4530   66.6070 C   0  0  0  0  0  0  0  0  0  0  0  0
  128.2190  128.5990   65.2150 C   0  0  0  0  0  0  0  0  0  0  0  0
  127.4990  129.7960   64.6840 C   0  0  0  0  0  0  0  0  0  0  0  0
  126.1070  129.7840   64.5680 C   0  0  0  0  0  0  0  0  0  0  0  0
  125.4280  130.8860   64.0570 C   0  0  0  0  0  0  0  0  0  0  0  0
  126.1220  132.0360   63.6490 C   0  0  0  0  0  0  0  0  0  0  0  0
  125.4610  133.1460   63.1150 N   0  0  0  0  0  0  0  0  0  0  0  0
  124.0510  133.0170   62.6970 C   0  0  0  0  0  0  0  0  0  0  0  0
  123.3450  134.3760   62.5040 C   0  0  0  0  0  0  0  0  0  0  0  0
  124.0730  135.1750   61.5840 O   0  0  0  0  0  0  0  0  0  0  0  0
  125.3930  135.4280   62.0380 C   0  0  0  0  0  0  0  0  0  0  0  0
  126.1520  134.0980   62.2230 C   0  0  0  0  0  0  0  0  0  0  0  0
  127.5200  132.0350   63.7580 C   0  0  0  0  0  0  0  0  0  0  0  0
  128.1990  130.9320   64.2670 C   0  0  0  0  0  0  0  0  0  0  0  0
  128.8260  127.6140   64.3990 C   0  0  0  0  0  0  0  0  0  0  0  0
  128.8230  127.7410   62.9380 C   0  0  0  0  0  0  0  0  0  0  0  0
  128.8180  127.8430   61.7850 N   0  0  0  0  0  0  0  0  0  0  0  0
  125.5650  123.9080   60.5360 C   0  0  0  0  0  0  0  0  0  0  0  0
  125.0920  123.7060   59.2420 C   0  0  0  0  0  0  0  0  0  0  0  0
  1  2  1  0
  2  3  1  0
  3  4  1  0
  4  5  2  0
  4  6  1  0
  6  7  2  0
  7  8  1  0
  8  9  2  0
  9 10  1  0
 10 11  1  0
 11 12  2  0
 11 13  1  0
 13 14  1  0
 14 15  1  0
 15 16  2  0
 16 17  1  0
 17 18  1  0
 18 19  2  0
 19 20  1  0
 20 21  2  0
 21 22  1  0
 22 23  1  0
 23 24  1  0
 24 25  1  0
 25 26  1  0
 26 27  1  0
 21 28  1  0
 28 29  2  0
 17 30  2  0
 30 31  1  0
 31 32  1  0
 32 33  2  0
 33 34  1  0
 34 35  2  0
 35 36  1  0
 36 37  1  0
 37 38  1  0
 38 39  1  0
 39 40  1  0
 40 41  1  0
 35 42  1  0
 42 43  2  0
 31 44  2  0
 44 45  1  0
 45 46  3  0
  9 47  1  0
 47 48  2  0
 48  6  1  0
 44 15  1  0
 29 18  1  0
 43 32  1  0
 27 22  1  0
 41 36  1  0
M  END
>  <Binding energies>  (8) 
[-11.43]

>  <Ligand effiencies>  (8) 
[-0.23326530612244897]

>  <Interactions>  (8) 
["V-B:TYR:539:CZ:9848, H-B:GLU:543:OE2:9881, V-B:LEU:363:CD1:8160, V-B:PRO:540:N:9855, V-B:PRO:540:CA:9854, V-B:ALA:541:CB:9863, V-B:MET:535:CE:9806, V-B:TYR:539:CE1:9846, V-B:TYR:539:CD1:9844, V-B:PRO:540:CB:9856, V-B:GLY:454:CA:9020, V-B:TRP:381:CH2:8343, V-B:LEU:475:CD1:9229, V-B:ILE:369:CD1:8210, V-B:GLU:543:CD:9879, V-B:ILE:369:CG2:8208, V-B:SER:385:C:8376, V-B:HIS:456:CE1:9041, V-A:GLU:543:CG:4907, V-A:GLU:543:CD:4908, H-B:TYR:531:OH:9766, H-B:TYR:539:N:9841, V-B:ILE:538:CD1:9836, V-B:ILE:538:CG2:9834, V-B:ILE:538:CA:9831, V-B:ILE:538:CB:9833, V-B:ILE:538:C:9829, V-B:MET:535:CB:9803, V-B:GLU:543:CG:9878, V-A:HIS:456:CE1:4069, V-B:GLU:543:CB:9877, V-A:GLU:543:CB:4906, V-A:HIS:456:CD2:4067, V-B:HIS:456:CD2:9039, V-B:LYS:547:CE:9921, H-B:LYS:547:NZ:9922"]

$$$$
2aa_Ghoteimi_2023
     RDKit          3D

 48 53  0  0  0  0  0  0  0  0999 V2000
  125.9990  138.9540   64.4230 C   0  0  0  0  0  0  0  0  0  0  0  0
  125.8310  137.9140   63.3100 C   0  0  0  0  0  0  0  0  0  0  0  0
  126.7340  138.2070   62.2520 O   0  0  0  0  0  0  0  0  0  0  0  0
  127.0930  137.2550   61.3510 C   0  0  0  0  0  0  0  0  0  0  0  0
  127.8850  137.4590   60.4250 O   0  0  0  0  0  0  0  0  0  0  0  0
  126.4410  135.9260   61.6020 C   0  0  0  0  0  0  0  0  0  0  0  0
  127.1140  134.8830   62.2560 C   0  0  0  0  0  0  0  0  0  0  0  0
  126.4810  133.6630   62.4770 C   0  0  0  0  0  0  0  0  0  0  0  0
  125.1700  133.4570   62.0440 C   0  0  0  0  0  0  0  0  0  0  0  0
  124.6270  132.1880   62.3230 N   0  0  0  0  0  0  0  0  0  0  0  0
  123.4480  131.8580   62.8920 C   0  0  0  0  0  0  0  0  0  0  0  0
  122.5880  132.6620   63.2580 O   0  0  0  0  0  0  0  0  0  0  0  0
  123.2120  130.3490   63.0440 C   0  0  0  0  0  0  0  0  0  0  0  0
  123.8340  129.8840   64.2470 O   0  0  0  0  0  0  0  0  0  0  0  0
  125.2160  129.9260   64.3780 C   0  0  0  0  0  0  0  0  0  0  0  0
  125.9510  130.3030   63.2950 N   0  0  0  0  0  0  0  0  0  0  0  0
  127.3030  130.3580   63.3900 C   0  0  0  0  0  0  0  0  0  0  0  0
  128.0440  130.7750   62.1590 C   0  0  0  0  0  0  0  0  0  0  0  0
  127.6480  130.3190   60.8980 C   0  0  0  0  0  0  0  0  0  0  0  0
  128.3300  130.7100   59.7480 C   0  0  0  0  0  0  0  0  0  0  0  0
  129.4260  131.5840   59.8160 C   0  0  0  0  0  0  0  0  0  0  0  0
  130.1300  131.9760   58.6720 N   0  0  0  0  0  0  0  0  0  0  0  0
  129.5250  132.8720   57.6650 C   0  0  0  0  0  0  0  0  0  0  0  0
  130.2900  132.9100   56.3260 C   0  0  0  0  0  0  0  0  0  0  0  0
  131.6490  133.2460   56.5520 O   0  0  0  0  0  0  0  0  0  0  0  0
  132.2870  132.2940   57.3890 C   0  0  0  0  0  0  0  0  0  0  0  0
  131.5820  132.2380   58.7610 C   0  0  0  0  0  0  0  0  0  0  0  0
  129.8320  132.0210   61.0850 C   0  0  0  0  0  0  0  0  0  0  0  0
  129.1510  131.6280   62.2340 C   0  0  0  0  0  0  0  0  0  0  0  0
  127.9580  130.0180   64.5770 C   0  0  0  0  0  0  0  0  0  0  0  0
  127.2270  129.6160   65.7020 C   0  0  0  0  0  0  0  0  0  0  0  0
  127.9840  129.2410   66.9350 C   0  0  0  0  0  0  0  0  0  0  0  0
  128.7520  128.0740   66.9630 C   0  0  0  0  0  0  0  0  0  0  0  0
  129.4440  127.7080   68.1140 C   0  0  0  0  0  0  0  0  0  0  0  0
  129.3760  128.4920   69.2770 C   0  0  0  0  0  0  0  0  0  0  0  0
  130.0650  128.1460   70.4420 N   0  0  0  0  0  0  0  0  0  0  0  0
  129.4170  128.2120   71.7660 C   0  0  0  0  0  0  0  0  0  0  0  0
  130.1980  127.4680   72.8710 C   0  0  0  0  0  0  0  0  0  0  0  0
  131.5300  127.9540   72.9340 O   0  0  0  0  0  0  0  0  0  0  0  0
  132.2150  127.7620   71.7060 C   0  0  0  0  0  0  0  0  0  0  0  0
  131.4890  128.5140   70.5720 C   0  0  0  0  0  0  0  0  0  0  0  0
  128.6080  129.6640   69.2370 C   0  0  0  0  0  0  0  0  0  0  0  0
  127.9170  130.0300   68.0860 C   0  0  0  0  0  0  0  0  0  0  0  0
  125.8160  129.5830   65.6030 C   0  0  0  0  0  0  0  0  0  0  0  0
  124.9690  129.2240   66.7420 C   0  0  0  0  0  0  0  0  0  0  0  0
  124.3000  128.9400   67.6430 N   0  0  0  0  0  0  0  0  0  0  0  0
  124.4890  134.4970   61.3960 C   0  0  0  0  0  0  0  0  0  0  0  0
  125.1220  135.7170   61.1790 C   0  0  0  0  0  0  0  0  0  0  0  0
  1  2  1  0
  2  3  1  0
  3  4  1  0
  4  5  2  0
  4  6  1  0
  6  7  2  0
  7  8  1  0
  8  9  2  0
  9 10  1  0
 10 11  1  0
 11 12  2  0
 11 13  1  0
 13 14  1  0
 14 15  1  0
 15 16  2  0
 16 17  1  0
 17 18  1  0
 18 19  2  0
 19 20  1  0
 20 21  2  0
 21 22  1  0
 22 23  1  0
 23 24  1  0
 24 25  1  0
 25 26  1  0
 26 27  1  0
 21 28  1  0
 28 29  2  0
 17 30  2  0
 30 31  1  0
 31 32  1  0
 32 33  2  0
 33 34  1  0
 34 35  2  0
 35 36  1  0
 36 37  1  0
 37 38  1  0
 38 39  1  0
 39 40  1  0
 40 41  1  0
 35 42  1  0
 42 43  2  0
 31 44  2  0
 44 45  1  0
 45 46  3  0
  9 47  1  0
 47 48  2  0
 48  6  1  0
 44 15  1  0
 29 18  1  0
 43 32  1  0
 27 22  1  0
 41 36  1  0
M  END
>  <Binding energies>  (9) 
[-11.35]

>  <Ligand effiencies>  (9) 
[-0.2316326530612245]

>  <Interactions>  (9) 
["V-A:TYR:539:CE2:4876, V-A:LEU:363:CD1:3188, V-A:PRO:540:CA:4883, V-A:PRO:540:CB:4885, V-A:PRO:540:N:4884, V-A:TYR:539:CD2:4874, V-A:ILE:538:CA:4860, V-A:TYR:539:C:4867, H-A:TYR:539:N:4870, V-B:GLY:454:CA:9020, V-B:ASP:366:CG:8184, V-B:TRP:381:CZ3:8342, V-B:TRP:381:CZ2:8341, V-B:TRP:381:CE3:8339, V-B:ARG:545:CD:9894, V-B:TRP:381:CH2:8343, V-A:ALA:541:CB:4892, H-B:TYR:484:OH:9319, V-B:LEU:475:CD1:9229, V-B:LEU:475:CB:9227, V-B:TRP:381:CE2:8338, V-B:PRO:482:CB:9297, V-B:ILE:369:CD1:8210, V-B:GLY:453:CA:9015, H-B:GLY:454:N:9021, V-B:PRO:482:CG:9298, V-B:GLY:453:C:9013, V-B:GLU:543:CD:9879, V-B:ARG:545:CZ:9897, V-B:ARG:545:CG:9893, V-B:ILE:369:CG2:8208, V-B:HIS:456:CE1:9041, V-A:GLU:543:CG:4907, V-A:GLU:543:CD:4908, V-B:LEU:475:CG:9228, H-B:ARG:545:NH2:9899, H-B:ARG:545:NE:9895, H-B:ARG:545:NH1:9898, V-A:HIS:456:CE1:4069, V-A:GLY:544:C:4912, V-A:ARG:545:CA:4919, V-A:GLU:543:CB:4906, V-B:TYR:484:CE1:9316, V-B:TYR:484:CZ:9318, H-B:HIS:456:ND1:9038, V-A:HIS:456:CG:4065, H-A:LYS:547:NZ:4951, V-B:TRP:381:CD2:8336, V-B:PRO:482:CA:9295, H-B:TRP:381:NE1:8337, V-B:LEU:475:C:9223, V-B:CYS:476:C:9235"]

$$$$
2b_Ghoteimi_2023
     RDKit          3D

 42 47  0  0  0  0  0  0  0  0999 V2000
  124.1890  129.1230   67.2230 N   0  0  0  0  0  0  0  0  0  0  0  0
  124.8590  129.4420   66.3350 C   0  0  0  0  0  0  0  0  0  0  0  0
  125.7130  129.8440   65.2130 C   0  0  0  0  0  0  0  0  0  0  0  0
  127.1240  129.8460   65.3460 C   0  0  0  0  0  0  0  0  0  0  0  0
  127.8400  129.4510   66.5950 C   0  0  0  0  0  0  0  0  0  0  0  0
  127.8400  130.2980   67.7050 C   0  0  0  0  0  0  0  0  0  0  0  0
  128.5070  129.9350   68.8720 C   0  0  0  0  0  0  0  0  0  0  0  0
  129.2080  128.7220   68.9540 C   0  0  0  0  0  0  0  0  0  0  0  0
  129.8740  128.3310   70.1170 N   0  0  0  0  0  0  0  0  0  0  0  0
  131.2380  128.8370   70.3700 C   0  0  0  0  0  0  0  0  0  0  0  0
  131.9900  128.0480   71.4630 C   0  0  0  0  0  0  0  0  0  0  0  0
  131.2250  128.0190   72.6590 O   0  0  0  0  0  0  0  0  0  0  0  0
  129.9630  127.4010   72.4600 C   0  0  0  0  0  0  0  0  0  0  0  0
  129.1580  128.1800   71.4000 C   0  0  0  0  0  0  0  0  0  0  0  0
  129.2060  127.8800   67.8330 C   0  0  0  0  0  0  0  0  0  0  0  0
  128.5360  128.2410   66.6680 C   0  0  0  0  0  0  0  0  0  0  0  0
  127.8980  130.2340   64.2450 C   0  0  0  0  0  0  0  0  0  0  0  0
  127.2860  130.5780   63.0370 C   0  0  0  0  0  0  0  0  0  0  0  0
  128.0680  130.9690   61.8230 C   0  0  0  0  0  0  0  0  0  0  0  0
  128.3930  130.0210   60.8470 C   0  0  0  0  0  0  0  0  0  0  0  0
  129.1060  130.3810   59.7070 C   0  0  0  0  0  0  0  0  0  0  0  0
  129.5330  131.7030   59.5060 C   0  0  0  0  0  0  0  0  0  0  0  0
  130.2240  132.0870   58.3510 N   0  0  0  0  0  0  0  0  0  0  0  0
  129.5400  132.8890   57.3150 C   0  0  0  0  0  0  0  0  0  0  0  0
  130.2750  132.9010   55.9580 C   0  0  0  0  0  0  0  0  0  0  0  0
  131.6140  133.3350   56.1350 O   0  0  0  0  0  0  0  0  0  0  0  0
  132.3300  132.4720   57.0040 C   0  0  0  0  0  0  0  0  0  0  0  0
  131.6560  132.4430   58.3920 C   0  0  0  0  0  0  0  0  0  0  0  0
  129.1980  132.6520   60.4820 C   0  0  0  0  0  0  0  0  0  0  0  0
  128.4820  132.2910   61.6210 C   0  0  0  0  0  0  0  0  0  0  0  0
  125.9340  130.5740   62.9100 N   0  0  0  0  0  0  0  0  0  0  0  0
  125.1640  130.2360   63.9710 C   0  0  0  0  0  0  0  0  0  0  0  0
  123.4180  130.2900   63.6290 S   0  0  0  0  0  0  0  0  0  0  0  0
  123.0620  131.8900   62.8430 C   0  0  0  0  0  0  0  0  0  0  0  0
  123.8070  132.0580   61.5180 C   0  0  0  0  0  0  0  0  0  0  0  0
  124.6790  132.9230   61.4210 O   0  0  0  0  0  0  0  0  0  0  0  0
  123.4290  131.2190   60.5280 N   0  0  0  0  0  0  0  0  0  0  0  0
  123.9440  131.1500   59.2410 C   0  0  0  0  0  0  0  0  0  0  0  0
  125.0970  130.4360   58.9210 C   0  0  0  0  0  0  0  0  0  0  0  0
  125.2650  130.6160   57.5680 C   0  0  0  0  0  0  0  0  0  0  0  0
  124.2650  131.3970   57.0980 O   0  0  0  0  0  0  0  0  0  0  0  0
  123.4310  131.7280   58.1690 N   0  0  0  0  0  0  0  0  0  0  0  0
  1  2  3  0
  2  3  1  0
  3  4  2  0
  4  5  1  0
  5  6  2  0
  6  7  1  0
  7  8  2  0
  8  9  1  0
  9 10  1  0
 10 11  1  0
 11 12  1  0
 12 13  1  0
 13 14  1  0
  8 15  1  0
 15 16  2  0
  4 17  1  0
 17 18  2  0
 18 19  1  0
 19 20  2  0
 20 21  1  0
 21 22  2  0
 22 23  1  0
 23 24  1  0
 24 25  1  0
 25 26  1  0
 26 27  1  0
 27 28  1  0
 22 29  1  0
 29 30  2  0
 18 31  1  0
 31 32  2  0
 32 33  1  0
 33 34  1  0
 34 35  1  0
 35 36  2  0
 35 37  1  0
 37 38  1  0
 38 39  1  0
 39 40  2  0
 40 41  1  0
 41 42  1  0
 32  3  1  0
 42 38  2  0
 16  5  1  0
 30 19  1  0
 14  9  1  0
 28 23  1  0
M  END
>  <Binding energies>  (10) 
[-11.15]

>  <Ligand effiencies>  (10) 
[-0.2593023255813954]

>  <Interactions>  (10) 
["V-A:LEU:363:CD1:3188, V-A:PRO:540:CA:4883, V-A:PRO:540:CD:4887, V-A:PRO:540:CB:4885, V-A:PRO:540:N:4884, V-A:TYR:539:CD2:4874, V-A:ILE:538:CA:4860, V-A:TYR:539:C:4867, H-A:TYR:539:N:4870, V-A:ILE:538:CB:4862, H-B:ASP:366:OD1:8185, H-B:ASP:366:OD2:8186, V-B:GLY:454:CA:9020, V-B:ASP:366:CG:8184, V-B:ARG:545:CD:9894, H-B:TYR:484:OH:9319, V-B:ILE:369:CD1:8210, V-B:GLY:453:CA:9015, H-B:GLY:454:N:9021, V-B:GLY:453:C:9013, V-B:GLU:543:CD:9879, V-B:ARG:545:CZ:9897, V-B:ARG:545:CG:9893, V-B:ILE:369:CG2:8208, V-A:MET:535:CE:4835, V-B:HIS:456:CE1:9041, V-A:GLU:543:CG:4907, V-A:GLU:543:CD:4908, H-A:TYR:539:OH:4878, V-B:ASP:366:CB:8183, V-B:ASP:366:C:8179, V-B:ASP:366:CA:8181, V-B:ILE:369:CB:8207, H-B:ARG:545:NH2:9899, H-B:ARG:545:NE:9895, H-B:ASN:370:N:8215, H-B:ARG:545:NH1:9898, V-A:HIS:456:CE1:4069, V-A:GLY:544:C:4912, V-A:GLU:543:C:4902, V-A:ARG:545:CA:4919, V-A:GLU:543:CB:4906, V-B:TYR:484:CE1:9316, V-B:TYR:484:CZ:9318, V-A:GLU:543:CA:4904, V-A:HIS:456:CG:4065, V-B:HIS:456:CD2:9039, H-A:LYS:547:NZ:4951"]

$$$$
2c_Ghoteimi_2023
     RDKit          3D

 42 47  0  0  0  0  0  0  0  0999 V2000
  126.3540  130.3830   57.7500 N   0  0  0  0  0  0  0  0  0  0  0  0
  126.6050  130.0590   58.8310 C   0  0  0  0  0  0  0  0  0  0  0  0
  126.9250  129.6410   60.2000 C   0  0  0  0  0  0  0  0  0  0  0  0
  127.0700  128.2680   60.5210 C   0  0  0  0  0  0  0  0  0  0  0  0
  126.9130  127.1620   59.5300 C   0  0  0  0  0  0  0  0  0  0  0  0
  126.3550  125.9430   59.9200 C   0  0  0  0  0  0  0  0  0  0  0  0
  126.2010  124.9080   59.0010 C   0  0  0  0  0  0  0  0  0  0  0  0
  126.6140  125.0580   57.6690 C   0  0  0  0  0  0  0  0  0  0  0  0
  126.4510  124.0410   56.7250 N   0  0  0  0  0  0  0  0  0  0  0  0
  127.5960  123.6490   55.8800 C   0  0  0  0  0  0  0  0  0  0  0  0
  127.1870  122.8140   54.6480 C   0  0  0  0  0  0  0  0  0  0  0  0
  126.4460  121.6750   55.0570 O   0  0  0  0  0  0  0  0  0  0  0  0
  125.2630  122.0390   55.7510 C   0  0  0  0  0  0  0  0  0  0  0  0
  125.6210  122.8550   57.0110 C   0  0  0  0  0  0  0  0  0  0  0  0
  127.1780  126.2850   57.2870 C   0  0  0  0  0  0  0  0  0  0  0  0
  127.3290  127.3190   58.2060 C   0  0  0  0  0  0  0  0  0  0  0  0
  127.3790  127.9210   61.8420 C   0  0  0  0  0  0  0  0  0  0  0  0
  127.5650  128.9130   62.8100 C   0  0  0  0  0  0  0  0  0  0  0  0
  127.9120  128.5950   64.2290 C   0  0  0  0  0  0  0  0  0  0  0  0
  128.8510  127.6030   64.5300 C   0  0  0  0  0  0  0  0  0  0  0  0
  129.1830  127.3060   65.8490 C   0  0  0  0  0  0  0  0  0  0  0  0
  128.5780  127.9850   66.9200 C   0  0  0  0  0  0  0  0  0  0  0  0
  128.9190  127.7160   68.2490 N   0  0  0  0  0  0  0  0  0  0  0  0
  129.2490  128.8290   69.1630 C   0  0  0  0  0  0  0  0  0  0  0  0
  129.9660  128.3790   70.4530 C   0  0  0  0  0  0  0  0  0  0  0  0
  129.1950  127.3930   71.1190 O   0  0  0  0  0  0  0  0  0  0  0  0
  129.0070  126.2450   70.3060 C   0  0  0  0  0  0  0  0  0  0  0  0
  128.2660  126.6300   69.0080 C   0  0  0  0  0  0  0  0  0  0  0  0
  127.6470  128.9870   66.6130 C   0  0  0  0  0  0  0  0  0  0  0  0
  127.3170  129.2840   65.2930 C   0  0  0  0  0  0  0  0  0  0  0  0
  127.4270  130.2280   62.5000 N   0  0  0  0  0  0  0  0  0  0  0  0
  127.0980  130.5870   61.2360 C   0  0  0  0  0  0  0  0  0  0  0  0
  126.9490  132.3450   61.0120 S   0  0  0  0  0  0  0  0  0  0  0  0
  128.5120  133.0990   61.5550 C   0  0  0  0  0  0  0  0  0  0  0  0
  129.6550  132.8160   60.5780 C   0  0  0  0  0  0  0  0  0  0  0  0
  130.7690  132.5270   61.0190 O   0  0  0  0  0  0  0  0  0  0  0  0
  129.3400  132.9140   59.2690 N   0  0  0  0  0  0  0  0  0  0  0  0
  130.1870  132.6910   58.1930 C   0  0  0  0  0  0  0  0  0  0  0  0
  130.1770  133.2860   57.0200 N   0  0  0  0  0  0  0  0  0  0  0  0
  131.1330  132.8300   56.2360 C   0  0  0  0  0  0  0  0  0  0  0  0
  131.9480  131.8370   56.7730 C   0  0  0  0  0  0  0  0  0  0  0  0
  131.4240  131.4920   58.3950 S   0  0  0  0  0  0  0  0  0  0  0  0
  1  2  3  0
  2  3  1  0
  3  4  2  0
  4  5  1  0
  5  6  2  0
  6  7  1  0
  7  8  2  0
  8  9  1  0
  9 10  1  0
 10 11  1  0
 11 12  1  0
 12 13  1  0
 13 14  1  0
  8 15  1  0
 15 16  2  0
  4 17  1  0
 17 18  2  0
 18 19  1  0
 19 20  2  0
 20 21  1  0
 21 22  2  0
 22 23  1  0
 23 24  1  0
 24 25  1  0
 25 26  1  0
 26 27  1  0
 27 28  1  0
 22 29  1  0
 29 30  2  0
 18 31  1  0
 31 32  2  0
 32 33  1  0
 33 34  1  0
 34 35  1  0
 35 36  2  0
 35 37  1  0
 37 38  1  0
 38 39  2  0
 39 40  1  0
 40 41  2  0
 41 42  1  0
 32  3  1  0
 42 38  1  0
 16  5  1  0
 30 19  1  0
 14  9  1  0
 28 23  1  0
M  END
>  <Binding energies>  (11) 
[-10.52]

>  <Ligand effiencies>  (11) 
[-0.24465116279069765]

>  <Interactions>  (11) 
["V-A:LEU:363:CD1:3188, V-A:PRO:540:CA:4883, V-A:PRO:540:N:4884, V-A:TYR:539:CD2:4874, V-A:ILE:538:CA:4860, V-A:TYR:539:C:4867, H-A:TYR:539:N:4870, V-A:ILE:538:CB:4862, V-B:TYR:539:CZ:9848, V-B:LEU:363:CD1:8160, V-B:PRO:540:N:9855, V-B:PRO:540:CA:9854, V-B:MET:535:CE:9806, V-B:TYR:539:CE1:9846, V-B:TYR:539:CD1:9844, V-B:PRO:540:CB:9856, V-B:ASP:366:CG:8184, V-A:ALA:541:CB:4892, V-B:GLU:543:CD:9879, H-A:ALA:541:N:4891, H-A:TYR:539:O:4868, V-B:HIS:456:CE1:9041, V-A:GLU:543:CG:4907, V-A:GLU:543:CD:4908, H-B:TYR:539:N:9841, V-B:PRO:540:CD:9858, V-B:ILE:538:CD1:9836, V-B:ILE:538:CG2:9834, V-B:ILE:538:CA:9831, V-A:HIS:456:CE1:4069, V-B:GLU:543:CB:9877, V-A:GLU:543:CB:4906"]

$$$$
2j_Grossjean_2025
     RDKit          3D

 23 24  0  0  0  0  0  0  0  0999 V2000
  127.0740  133.9380   61.2890 C   0  0  0  0  0  0  0  0  0  0  0  0
  128.2750  133.2830   60.6320 C   0  0  0  0  0  0  0  0  0  0  0  0
  129.3730  132.8580   61.3760 C   0  0  0  0  0  0  0  0  0  0  0  0
  130.4580  132.2550   60.7230 C   0  0  0  0  0  0  0  0  0  0  0  0
  131.6640  131.7910   61.5620 C   0  0  0  0  0  0  0  0  0  0  0  0
  131.6690  130.4600   61.6550 F   0  0  0  0  0  0  0  0  0  0  0  0
  132.8000  132.1890   60.9880 F   0  0  0  0  0  0  0  0  0  0  0  0
  131.6480  132.2810   62.8030 F   0  0  0  0  0  0  0  0  0  0  0  0
  130.3980  132.0980   59.3160 C   0  0  0  0  0  0  0  0  0  0  0  0
  131.5030  131.4740   58.5810 C   0  0  0  0  0  0  0  0  0  0  0  0
  132.3760  130.9810   58.0020 N   0  0  0  0  0  0  0  0  0  0  0  0
  129.2430  132.5590   58.6390 C   0  0  0  0  0  0  0  0  0  0  0  0
  129.0590  132.4110   56.8670 S   0  0  0  0  0  0  0  0  0  0  0  0
  128.3000  130.7920   56.5010 C   0  0  0  0  0  0  0  0  0  0  0  0
  126.8250  130.6630   56.9090 C   0  0  0  0  0  0  0  0  0  0  0  0
  126.0610  129.9260   56.2830 O   0  0  0  0  0  0  0  0  0  0  0  0
  126.4630  131.4170   57.9710 N   0  0  0  0  0  0  0  0  0  0  0  0
  125.2010  131.4890   58.5460 C   0  0  0  0  0  0  0  0  0  0  0  0
  124.0650  131.8040   57.9620 N   0  0  0  0  0  0  0  0  0  0  0  0
  123.0570  131.7710   58.8110 C   0  0  0  0  0  0  0  0  0  0  0  0
  123.3680  131.4230   60.1220 C   0  0  0  0  0  0  0  0  0  0  0  0
  125.0770  131.1240   60.2370 S   0  0  0  0  0  0  0  0  0  0  0  0
  128.2030  133.1380   59.2890 N   0  0  0  0  0  0  0  0  0  0  0  0
  1  2  1  0
  2  3  2  0
  3  4  1  0
  4  5  1  0
  5  6  1  0
  5  7  1  0
  5  8  1  0
  4  9  2  0
  9 10  1  0
 10 11  3  0
  9 12  1  0
 12 13  1  0
 13 14  1  0
 14 15  1  0
 15 16  2  0
 15 17  1  0
 17 18  1  0
 18 19  2  0
 19 20  1  0
 20 21  2  0
 21 22  1  0
 12 23  2  0
 23  2  1  0
 22 18  1  0
M  END
>  <Binding energies>  (12) 
[-5.87]

>  <Ligand effiencies>  (12) 
[-0.24458333333333335]

>  <Interactions>  (12) 
["V-A:TYR:539:CE2:4876, V-A:TYR:539:CZ:4877, V-A:PRO:540:CA:4883, V-A:PRO:540:CB:4885, V-A:TYR:539:CD2:4874, V-A:TYR:539:C:4867, V-B:ASP:366:CG:8184, V-A:ALA:541:CB:4892, V-B:ILE:369:CD1:8210, V-B:ILE:369:CG2:8208, V-A:MET:535:CE:4835, V-A:PRO:540:C:4881, V-A:GLU:543:CD:4908, H-B:TYR:531:OH:9766, H-A:TYR:539:OH:4878, V-B:ASP:366:CB:8183, V-B:ASP:366:C:8179, V-B:ASP:366:CA:8181, V-B:ILE:369:CB:8207, V-A:ALA:541:CA:4890, V-A:ALA:541:C:4888"]

$$$$
3ab_Grossjean_2025
     RDKit          3D

 33 35  0  0  0  0  0  0  0  0999 V2000
  132.0730  132.3660   57.1010 C   0  0  0  0  0  0  0  0  0  0  0  0
  131.2430  133.3280   56.4650 O   0  0  0  0  0  0  0  0  0  0  0  0
  130.1470  132.9490   55.7610 C   0  0  0  0  0  0  0  0  0  0  0  0
  130.0920  132.9630   54.5270 O   0  0  0  0  0  0  0  0  0  0  0  0
  129.0060  132.5070   56.6310 C   0  0  0  0  0  0  0  0  0  0  0  0
  127.9890  131.6660   56.1530 C   0  0  0  0  0  0  0  0  0  0  0  0
  126.9440  131.2710   56.9830 C   0  0  0  0  0  0  0  0  0  0  0  0
  126.8960  131.7160   58.3140 C   0  0  0  0  0  0  0  0  0  0  0  0
  125.8920  131.3760   59.2410 N   0  0  0  0  0  0  0  0  0  0  0  0
  124.5660  131.6250   59.2120 C   0  0  0  0  0  0  0  0  0  0  0  0
  123.9720  132.2390   58.3260 O   0  0  0  0  0  0  0  0  0  0  0  0
  123.7710  131.0830   60.4020 C   0  0  0  0  0  0  0  0  0  0  0  0
  123.8640  132.1850   61.8460 S   0  0  0  0  0  0  0  0  0  0  0  0
  125.4480  132.9960   61.7980 C   0  0  0  0  0  0  0  0  0  0  0  0
  126.4960  132.1380   61.7930 N   0  0  0  0  0  0  0  0  0  0  0  0
  127.7650  132.6190   61.7530 C   0  0  0  0  0  0  0  0  0  0  0  0
  128.8680  131.6030   61.7470 C   0  0  0  0  0  0  0  0  0  0  0  0
  128.6100  130.2610   62.0680 C   0  0  0  0  0  0  0  0  0  0  0  0
  129.6300  129.3130   62.0630 C   0  0  0  0  0  0  0  0  0  0  0  0
  130.9270  129.6960   61.7380 C   0  0  0  0  0  0  0  0  0  0  0  0
  131.2110  131.0200   61.4200 C   0  0  0  0  0  0  0  0  0  0  0  0
  130.1880  131.9640   61.4260 C   0  0  0  0  0  0  0  0  0  0  0  0
  128.0070  133.9980   61.7380 C   0  0  0  0  0  0  0  0  0  0  0  0
  126.9400  134.9070   61.7620 C   0  0  0  0  0  0  0  0  0  0  0  0
  127.2500  136.4160   61.7500 C   0  0  0  0  0  0  0  0  0  0  0  0
  126.7410  137.0570   62.8050 F   0  0  0  0  0  0  0  0  0  0  0  0
  128.5680  136.6150   61.7610 F   0  0  0  0  0  0  0  0  0  0  0  0
  126.7370  136.9770   60.6530 F   0  0  0  0  0  0  0  0  0  0  0  0
  125.6170  134.3980   61.8020 C   0  0  0  0  0  0  0  0  0  0  0  0
  124.4680  135.3040   61.8860 C   0  0  0  0  0  0  0  0  0  0  0  0
  123.5630  136.0220   61.9520 N   0  0  0  0  0  0  0  0  0  0  0  0
  127.9080  132.5480   58.7930 C   0  0  0  0  0  0  0  0  0  0  0  0
  128.9510  132.9420   57.9610 C   0  0  0  0  0  0  0  0  0  0  0  0
  1  2  1  0
  2  3  1  0
  3  4  2  0
  3  5  1  0
  5  6  2  0
  6  7  1  0
  7  8  2  0
  8  9  1  0
  9 10  1  0
 10 11  2  0
 10 12  1  0
 12 13  1  0
 13 14  1  0
 14 15  2  0
 15 16  1  0
 16 17  1  0
 17 18  2  0
 18 19  1  0
 19 20  2  0
 20 21  1  0
 21 22  2  0
 16 23  2  0
 23 24  1  0
 24 25  1  0
 25 26  1  0
 25 27  1  0
 25 28  1  0
 24 29  2  0
 29 30  1  0
 30 31  3  0
  8 32  1  0
 32 33  2  0
 33  5  1  0
 29 14  1  0
 22 17  1  0
M  END
>  <Binding energies>  (13) 
[-8.27]

>  <Ligand effiencies>  (13) 
[-0.24323529411764705]

>  <Interactions>  (13) 
["V-A:TYR:539:CE2:4876, V-A:TYR:539:CG:4872, V-A:ILE:538:C:4858, V-A:TYR:539:CZ:4877, V-A:TYR:539:CE1:4875, V-A:LEU:363:CD1:3188, V-A:PRO:540:CB:4885, V-A:PRO:540:N:4884, V-A:TYR:539:CD2:4874, V-A:ILE:538:CA:4860, V-A:TYR:539:C:4867, H-A:TYR:539:N:4870, V-A:ILE:538:CB:4862, V-B:ASP:366:CG:8184, V-B:TRP:381:CZ3:8342, V-B:TRP:381:CZ2:8341, V-B:TRP:381:CE3:8339, V-B:TRP:381:CH2:8343, V-A:ALA:541:CB:4892, V-B:LEU:475:CD1:9229, V-B:TRP:381:CE2:8338, V-B:PRO:482:CB:9297, V-B:ILE:369:CD1:8210, V-B:PRO:482:CG:9298, V-B:ILE:369:CG2:8208, V-A:MET:535:CE:4835, V-A:PRO:540:C:4881, H-A:TYR:539:OH:4878, V-B:ASP:366:CB:8183, V-B:ASP:366:CA:8181, V-A:TYR:539:CB:4871, V-A:ALA:541:CA:4890, V-B:TRP:381:CD2:8336"]

$$$$
3ac_Grossjean_2025
     RDKit          3D

 31 33  0  0  0  0  0  0  0  0999 V2000
  126.6100  122.0640   54.2920 C   0  0  0  0  0  0  0  0  0  0  0  0
  126.0240  121.8650   55.5750 O   0  0  0  0  0  0  0  0  0  0  0  0
  125.9370  122.9310   56.4500 C   0  0  0  0  0  0  0  0  0  0  0  0
  126.9980  123.8360   56.4350 C   0  0  0  0  0  0  0  0  0  0  0  0
  126.9960  124.9420   57.2790 C   0  0  0  0  0  0  0  0  0  0  0  0
  125.9340  125.1550   58.1590 C   0  0  0  0  0  0  0  0  0  0  0  0
  126.0120  126.3120   58.9570 N   0  0  0  0  0  0  0  0  0  0  0  0
  127.1000  126.8970   59.5050 C   0  0  0  0  0  0  0  0  0  0  0  0
  128.2620  126.5200   59.3540 O   0  0  0  0  0  0  0  0  0  0  0  0
  126.8210  128.1250   60.3720 C   0  0  0  0  0  0  0  0  0  0  0  0
  125.9020  129.4100   59.4710 S   0  0  0  0  0  0  0  0  0  0  0  0
  126.7300  130.9720   59.7000 C   0  0  0  0  0  0  0  0  0  0  0  0
  127.7610  131.1590   58.8410 N   0  0  0  0  0  0  0  0  0  0  0  0
  128.4840  132.3080   58.8920 C   0  0  0  0  0  0  0  0  0  0  0  0
  129.6120  132.4340   57.9120 C   0  0  0  0  0  0  0  0  0  0  0  0
  130.9430  132.2510   58.3220 C   0  0  0  0  0  0  0  0  0  0  0  0
  131.9950  132.3600   57.4160 C   0  0  0  0  0  0  0  0  0  0  0  0
  131.7290  132.6570   56.0840 C   0  0  0  0  0  0  0  0  0  0  0  0
  130.4210  132.8490   55.6520 C   0  0  0  0  0  0  0  0  0  0  0  0
  129.3720  132.7390   56.5610 C   0  0  0  0  0  0  0  0  0  0  0  0
  128.1890  133.2980   59.8340 C   0  0  0  0  0  0  0  0  0  0  0  0
  127.1420  133.1200   60.7490 C   0  0  0  0  0  0  0  0  0  0  0  0
  126.8550  134.2340   61.7740 C   0  0  0  0  0  0  0  0  0  0  0  0
  127.6480  135.2960   61.6200 F   0  0  0  0  0  0  0  0  0  0  0  0
  125.5960  134.6590   61.6540 F   0  0  0  0  0  0  0  0  0  0  0  0
  127.0380  133.7700   63.0110 F   0  0  0  0  0  0  0  0  0  0  0  0
  126.3940  131.9170   60.6960 C   0  0  0  0  0  0  0  0  0  0  0  0
  125.3420  131.6520   61.6800 C   0  0  0  0  0  0  0  0  0  0  0  0
  124.5100  131.4430   62.4580 N   0  0  0  0  0  0  0  0  0  0  0  0
  124.8590  124.2530   58.1750 C   0  0  0  0  0  0  0  0  0  0  0  0
  124.8640  123.1470   57.3290 C   0  0  0  0  0  0  0  0  0  0  0  0
  1  2  1  0
  2  3  1  0
  3  4  2  0
  4  5  1  0
  5  6  2  0
  6  7  1  0
  7  8  1  0
  8  9  2  0
  8 10  1  0
 10 11  1  0
 11 12  1  0
 12 13  2  0
 13 14  1  0
 14 15  1  0
 15 16  2  0
 16 17  1  0
 17 18  2  0
 18 19  1  0
 19 20  2  0
 14 21  2  0
 21 22  1  0
 22 23  1  0
 23 24  1  0
 23 25  1  0
 23 26  1  0
 22 27  2  0
 27 28  1  0
 28 29  3  0
  6 30  1  0
 30 31  2  0
 31  3  1  0
 27 12  1  0
 20 15  1  0
M  END
>  <Binding energies>  (14) 
[-7.95]

>  <Ligand effiencies>  (14) 
[-0.2484375]

>  <Interactions>  (14) 
["V-A:TYR:539:CE2:4876, V-A:LEU:363:CD1:3188, V-A:PRO:540:CA:4883, V-A:ILE:538:CG2:4863, V-A:PRO:540:CB:4885, V-A:PRO:540:N:4884, V-A:TYR:539:CD2:4874, V-A:ILE:538:CA:4860, V-A:TYR:539:C:4867, V-A:ILE:538:CB:4862, V-B:LEU:363:CD1:8160, V-B:PRO:540:N:9855, V-B:PRO:540:CA:9854, V-B:MET:535:CE:9806, V-B:TYR:539:CE1:9846, V-B:TYR:539:CD1:9844, V-B:PRO:540:CB:9856, H-B:ASP:366:OD2:8186, V-B:ASP:366:CG:8184, V-A:ALA:541:CB:4892, V-B:LEU:475:CD1:9229, V-A:MET:535:CE:4835, H-B:TYR:531:OH:9766, H-B:TYR:539:N:9841, V-B:PRO:540:CD:9858, V-B:ILE:538:CD1:9836, V-B:ILE:538:CA:9831, V-B:ILE:538:C:9829, V-B:VAL:537:C:9821"]

$$$$
3af_Grossjean_2025
     RDKit          3D

 29 31  0  0  0  0  0  0  0  0999 V2000
  123.6810  134.0090   61.3840 N   0  0  0  0  0  0  0  0  0  0  0  0
  124.8060  133.7490   61.3050 C   0  0  0  0  0  0  0  0  0  0  0  0
  126.2300  133.4210   61.2060 C   0  0  0  0  0  0  0  0  0  0  0  0
  127.2180  134.3800   61.5370 C   0  0  0  0  0  0  0  0  0  0  0  0
  126.8680  135.7870   62.0620 C   0  0  0  0  0  0  0  0  0  0  0  0
  126.5980  136.6530   61.0820 F   0  0  0  0  0  0  0  0  0  0  0  0
  125.7950  135.7250   62.8510 F   0  0  0  0  0  0  0  0  0  0  0  0
  127.8910  136.2830   62.7590 F   0  0  0  0  0  0  0  0  0  0  0  0
  128.5690  134.0370   61.3740 C   0  0  0  0  0  0  0  0  0  0  0  0
  128.9230  132.7730   60.8910 C   0  0  0  0  0  0  0  0  0  0  0  0
  130.3490  132.3610   60.6800 C   0  0  0  0  0  0  0  0  0  0  0  0
  131.1920  132.1060   61.7730 C   0  0  0  0  0  0  0  0  0  0  0  0
  132.5170  131.7200   61.5830 C   0  0  0  0  0  0  0  0  0  0  0  0
  133.0170  131.5840   60.2930 C   0  0  0  0  0  0  0  0  0  0  0  0
  132.2020  131.8270   59.1920 C   0  0  0  0  0  0  0  0  0  0  0  0
  130.8780  132.2120   59.3870 C   0  0  0  0  0  0  0  0  0  0  0  0
  127.9740  131.8570   60.5710 N   0  0  0  0  0  0  0  0  0  0  0  0
  126.6630  132.1570   60.7420 C   0  0  0  0  0  0  0  0  0  0  0  0
  125.5700  130.8280   60.2830 S   0  0  0  0  0  0  0  0  0  0  0  0
  125.1050  131.0580   58.5410 C   0  0  0  0  0  0  0  0  0  0  0  0
  126.2970  130.8690   57.6040 C   0  0  0  0  0  0  0  0  0  0  0  0
  126.2420  130.0040   56.7300 O   0  0  0  0  0  0  0  0  0  0  0  0
  127.3460  131.6900   57.8300 N   0  0  0  0  0  0  0  0  0  0  0  0
  128.5840  131.7690   57.1630 C   0  0  0  0  0  0  0  0  0  0  0  0
  129.4240  130.6820   56.8580 C   0  0  0  0  0  0  0  0  0  0  0  0
  130.6310  130.9070   56.1920 C   0  0  0  0  0  0  0  0  0  0  0  0
  130.9700  132.2160   55.8460 C   0  0  0  0  0  0  0  0  0  0  0  0
  130.1780  133.2800   56.1280 N   0  0  0  0  0  0  0  0  0  0  0  0
  129.0090  133.0450   56.7760 C   0  0  0  0  0  0  0  0  0  0  0  0
  1  2  3  0
  2  3  1  0
  3  4  2  0
  4  5  1  0
  5  6  1  0
  5  7  1  0
  5  8  1  0
  4  9  1  0
  9 10  2  0
 10 11  1  0
 11 12  2  0
 12 13  1  0
 13 14  2  0
 14 15  1  0
 15 16  2  0
 10 17  1  0
 17 18  2  0
 18 19  1  0
 19 20  1  0
 20 21  1  0
 21 22  2  0
 21 23  1  0
 23 24  1  0
 24 25  2  0
 25 26  1  0
 26 27  2  0
 27 28  1  0
 28 29  2  0
 18  3  1  0
 29 24  1  0
 16 11  1  0
M  END
>  <Binding energies>  (15) 
[-7.51]

>  <Ligand effiencies>  (15) 
[-0.25033333333333335]

>  <Interactions>  (15) 
["V-A:TYR:539:CD1:4873, V-A:TYR:539:CE2:4876, V-A:TYR:539:CG:4872, V-A:TYR:539:CZ:4877, V-A:TYR:539:CE1:4875, V-A:PRO:540:CA:4883, V-A:PRO:540:CB:4885, V-A:PRO:540:N:4884, V-A:TYR:539:CD2:4874, V-A:ASP:366:CG:3212, V-A:TYR:539:C:4867, H-A:TYR:539:N:4870, V-A:ILE:538:CB:4862, V-B:TRP:381:CZ3:8342, V-B:TRP:381:CZ2:8341, V-B:TRP:381:CE3:8339, V-B:TRP:381:CH2:8343, V-A:ALA:541:CB:4892, V-B:LEU:475:CD1:9229, V-B:TRP:381:CE2:8338, V-B:PRO:482:CB:9297, V-B:PRO:482:CG:9298, V-B:ILE:369:CG2:8208, V-A:MET:535:CE:4835, V-A:PRO:540:C:4881, H-B:TYR:531:OH:9766, V-B:ASP:366:CB:8183, V-A:ALA:541:CA:4890"]

$$$$
3ag_Grossjean_2025
     RDKit          3D

 30 32  0  0  0  0  0  0  0  0999 V2000
  123.7460  124.6880   58.0690 N   0  0  0  0  0  0  0  0  0  0  0  0
  124.7000  124.1850   58.4890 C   0  0  0  0  0  0  0  0  0  0  0  0
  125.9070  123.5500   59.0260 C   0  0  0  0  0  0  0  0  0  0  0  0
  126.1860  123.5810   60.4140 C   0  0  0  0  0  0  0  0  0  0  0  0
  125.2290  124.2200   61.4400 C   0  0  0  0  0  0  0  0  0  0  0  0
  123.9640  124.2490   61.0200 F   0  0  0  0  0  0  0  0  0  0  0  0
  125.2590  123.5280   62.5790 F   0  0  0  0  0  0  0  0  0  0  0  0
  125.5960  125.4780   61.6890 F   0  0  0  0  0  0  0  0  0  0  0  0
  127.3800  123.0050   60.8720 C   0  0  0  0  0  0  0  0  0  0  0  0
  128.2770  122.4250   59.9680 C   0  0  0  0  0  0  0  0  0  0  0  0
  129.5680  121.7990   60.4010 C   0  0  0  0  0  0  0  0  0  0  0  0
  129.5870  120.5120   60.9610 C   0  0  0  0  0  0  0  0  0  0  0  0
  130.7830  119.9230   61.3660 C   0  0  0  0  0  0  0  0  0  0  0  0
  131.9790  120.6170   61.2150 C   0  0  0  0  0  0  0  0  0  0  0  0
  131.9870  121.8950   60.6650 C   0  0  0  0  0  0  0  0  0  0  0  0
  130.7900  122.4800   60.2630 C   0  0  0  0  0  0  0  0  0  0  0  0
  128.0010  122.3860   58.6390 N   0  0  0  0  0  0  0  0  0  0  0  0
  126.8440  122.9190   58.1770 C   0  0  0  0  0  0  0  0  0  0  0  0
  126.6490  122.7740   56.4140 S   0  0  0  0  0  0  0  0  0  0  0  0
  127.8550  123.8940   55.6430 C   0  0  0  0  0  0  0  0  0  0  0  0
  128.2310  125.0590   56.5590 C   0  0  0  0  0  0  0  0  0  0  0  0
  127.3570  125.8270   56.9670 O   0  0  0  0  0  0  0  0  0  0  0  0
  129.5310  125.1730   56.8790 N   0  0  0  0  0  0  0  0  0  0  0  0
  130.1030  126.1860   57.7650 C   0  0  0  0  0  0  0  0  0  0  0  0
  131.2650  125.6850   58.6160 C   0  0  0  0  0  0  0  0  0  0  0  0
  132.3760  125.1040   57.9990 C   0  0  0  0  0  0  0  0  0  0  0  0
  133.4530  124.6720   58.7700 C   0  0  0  0  0  0  0  0  0  0  0  0
  133.4180  124.8320   60.1530 C   0  0  0  0  0  0  0  0  0  0  0  0
  132.3200  125.4240   60.7730 C   0  0  0  0  0  0  0  0  0  0  0  0
  131.2440  125.8570   60.0030 C   0  0  0  0  0  0  0  0  0  0  0  0
  1  2  3  0
  2  3  1  0
  3  4  2  0
  4  5  1  0
  5  6  1  0
  5  7  1  0
  5  8  1  0
  4  9  1  0
  9 10  2  0
 10 11  1  0
 11 12  2  0
 12 13  1  0
 13 14  2  0
 14 15  1  0
 15 16  2  0
 10 17  1  0
 17 18  2  0
 18 19  1  0
 19 20  1  0
 20 21  1  0
 21 22  2  0
 21 23  1  0
 23 24  1  0
 24 25  1  0
 25 26  2  0
 26 27  1  0
 27 28  2  0
 28 29  1  0
 29 30  2  0
 18  3  1  0
 30 25  1  0
 16 11  1  0
M  END
>  <Binding energies>  (16) 
[-8.29]

>  <Ligand effiencies>  (16) 
[-0.26741935483870966]

>  <Interactions>  (16) 
["V-A:ASP:366:CB:3211, V-A:ASP:366:CG:3212, V-B:TYR:539:CZ:9848, V-B:PRO:540:N:9855, V-B:PRO:540:CA:9854, V-B:ALA:541:CB:9863, V-B:TYR:539:C:9838, V-B:TYR:539:CE1:9846, V-B:TYR:539:CD1:9844, V-B:PRO:540:CB:9856, V-B:ASP:366:CG:8184, V-B:GLU:543:CD:9879, V-B:ARG:545:CZ:9897, H-B:TYR:531:OH:9766, V-B:TYR:539:CD2:9845, V-B:PRO:540:C:9852, V-B:LEU:363:CA:8156, H-B:TYR:539:OH:9849, V-B:TYR:539:CE2:9847, V-A:TRP:381:CH2:3371, V-A:LEU:475:CD2:4258, V-A:ASP:366:CA:3209, V-A:ILE:369:CG2:3236, V-B:ASN:362:C:8143, V-B:ASN:362:CB:8147, V-A:ILE:369:CD1:3238, V-B:ALA:541:C:9859, V-B:GLU:543:CG:9878, V-B:ASN:362:CA:8145, V-A:ASP:366:C:3207, V-A:ILE:369:CB:3235"]

$$$$
3bc_Grossjean_2025
     RDKit          3D

 28 30  0  0  0  0  0  0  0  0999 V2000
  131.4800  132.8940   56.3060 C   0  0  0  0  0  0  0  0  0  0  0  0
  130.1510  133.1800   55.8870 O   0  0  0  0  0  0  0  0  0  0  0  0
  129.0910  132.7010   56.6350 C   0  0  0  0  0  0  0  0  0  0  0  0
  129.0450  133.0970   57.9720 C   0  0  0  0  0  0  0  0  0  0  0  0
  128.0160  132.6650   58.8040 C   0  0  0  0  0  0  0  0  0  0  0  0
  127.0190  131.8220   58.3090 C   0  0  0  0  0  0  0  0  0  0  0  0
  126.0140  131.4490   59.2210 N   0  0  0  0  0  0  0  0  0  0  0  0
  124.6750  131.5870   59.1170 C   0  0  0  0  0  0  0  0  0  0  0  0
  124.0920  132.0540   58.1360 O   0  0  0  0  0  0  0  0  0  0  0  0
  123.8800  131.0710   60.3250 C   0  0  0  0  0  0  0  0  0  0  0  0
  123.8020  132.2120   61.7470 S   0  0  0  0  0  0  0  0  0  0  0  0
  125.3130  133.1510   61.7740 C   0  0  0  0  0  0  0  0  0  0  0  0
  126.4310  132.3860   61.7430 N   0  0  0  0  0  0  0  0  0  0  0  0
  127.6550  132.9750   61.7560 C   0  0  0  0  0  0  0  0  0  0  0  0
  128.8420  132.0580   61.7400 C   0  0  0  0  0  0  0  0  0  0  0  0
  130.1080  132.5300   61.3630 C   0  0  0  0  0  0  0  0  0  0  0  0
  131.2140  131.6840   61.3460 C   0  0  0  0  0  0  0  0  0  0  0  0
  131.0670  130.3490   61.7070 C   0  0  0  0  0  0  0  0  0  0  0  0
  129.8220  129.8540   62.0820 C   0  0  0  0  0  0  0  0  0  0  0  0
  128.7180  130.7040   62.0960 C   0  0  0  0  0  0  0  0  0  0  0  0
  127.7820  134.3670   61.8040 C   0  0  0  0  0  0  0  0  0  0  0  0
  126.6370  135.1720   61.8130 C   0  0  0  0  0  0  0  0  0  0  0  0
  126.8230  136.6890   61.8480 C   0  0  0  0  0  0  0  0  0  0  0  0
  125.3640  134.5630   61.7880 C   0  0  0  0  0  0  0  0  0  0  0  0
  124.1530  135.3860   61.7490 C   0  0  0  0  0  0  0  0  0  0  0  0
  123.1980  136.0390   61.7180 N   0  0  0  0  0  0  0  0  0  0  0  0
  127.0500  131.4300   56.9630 C   0  0  0  0  0  0  0  0  0  0  0  0
  128.0820  131.8650   56.1340 C   0  0  0  0  0  0  0  0  0  0  0  0
  1  2  1  0
  2  3  1  0
  3  4  2  0
  4  5  1  0
  5  6  2  0
  6  7  1  0
  7  8  1  0
  8  9  2  0
  8 10  1  0
 10 11  1  0
 11 12  1  0
 12 13  2  0
 13 14  1  0
 14 15  1  0
 15 16  2  0
 16 17  1  0
 17 18  2  0
 18 19  1  0
 19 20  2  0
 14 21  2  0
 21 22  1  0
 22 23  1  0
 22 24  2  0
 24 25  1  0
 25 26  3  0
  6 27  1  0
 27 28  2  0
 28  3  1  0
 24 12  1  0
 20 15  1  0
M  END
>  <Binding energies>  (17) 
[-7.89]

>  <Ligand effiencies>  (17) 
[-0.27206896551724136]

>  <Interactions>  (17) 
["V-A:TYR:539:CD1:4873, V-A:TYR:539:CE2:4876, V-A:TYR:539:CG:4872, V-A:TYR:539:CZ:4877, V-A:TYR:539:CE1:4875, V-A:LEU:363:CD1:3188, V-A:PRO:540:CA:4883, V-A:PRO:540:N:4884, V-A:TYR:539:CD2:4874, V-A:ILE:538:CA:4860, V-A:TYR:539:C:4867, H-A:TYR:539:N:4870, V-A:ILE:538:CB:4862, V-B:ASP:366:CG:8184, V-B:TRP:381:CZ2:8341, V-B:TRP:381:CH2:8343, V-A:ALA:541:CB:4892, V-B:LEU:475:CD1:9229, V-B:PRO:482:CB:9297, V-B:PRO:482:CG:9298, V-B:ILE:369:CG2:8208, V-A:MET:535:CE:4835, V-A:PRO:540:C:4881, H-A:TYR:539:OH:4878, V-B:ASP:366:CB:8183, V-B:ASP:366:CA:8181"]

$$$$
3bd_Grossjean_2025
     RDKit          3D

 26 28  0  0  0  0  0  0  0  0999 V2000
  131.4580  131.7720   61.7190 C   0  0  0  0  0  0  0  0  0  0  0  0
  130.3450  132.2880   60.8080 C   0  0  0  0  0  0  0  0  0  0  0  0
  129.3350  133.0710   61.3770 C   0  0  0  0  0  0  0  0  0  0  0  0
  128.2950  133.5600   60.5780 C   0  0  0  0  0  0  0  0  0  0  0  0
  127.1840  134.4080   61.1220 C   0  0  0  0  0  0  0  0  0  0  0  0
  125.8460  133.9990   61.0050 C   0  0  0  0  0  0  0  0  0  0  0  0
  124.8100  134.7830   61.5060 C   0  0  0  0  0  0  0  0  0  0  0  0
  125.0990  135.9910   62.1330 C   0  0  0  0  0  0  0  0  0  0  0  0
  126.4160  136.4200   62.2590 C   0  0  0  0  0  0  0  0  0  0  0  0
  127.4490  135.6340   61.7560 C   0  0  0  0  0  0  0  0  0  0  0  0
  128.2590  133.2940   59.2460 N   0  0  0  0  0  0  0  0  0  0  0  0
  129.2300  132.5360   58.6770 C   0  0  0  0  0  0  0  0  0  0  0  0
  129.0620  132.2500   56.9230 S   0  0  0  0  0  0  0  0  0  0  0  0
  128.3420  130.5970   56.6880 C   0  0  0  0  0  0  0  0  0  0  0  0
  126.8810  130.5400   57.1350 C   0  0  0  0  0  0  0  0  0  0  0  0
  126.0620  129.9470   56.4310 O   0  0  0  0  0  0  0  0  0  0  0  0
  126.5970  131.1750   58.2930 N   0  0  0  0  0  0  0  0  0  0  0  0
  125.3670  131.2760   58.9690 C   0  0  0  0  0  0  0  0  0  0  0  0
  125.3700  130.8860   60.3110 C   0  0  0  0  0  0  0  0  0  0  0  0
  124.1970  130.9430   61.0600 C   0  0  0  0  0  0  0  0  0  0  0  0
  123.0180  131.3800   60.4640 C   0  0  0  0  0  0  0  0  0  0  0  0
  122.9990  131.7580   59.1230 C   0  0  0  0  0  0  0  0  0  0  0  0
  124.1700  131.7040   58.3720 C   0  0  0  0  0  0  0  0  0  0  0  0
  130.3020  132.0050   59.4270 C   0  0  0  0  0  0  0  0  0  0  0  0
  131.3460  131.1880   58.8000 C   0  0  0  0  0  0  0  0  0  0  0  0
  132.1720  130.5440   58.3070 N   0  0  0  0  0  0  0  0  0  0  0  0
  1  2  1  0
  2  3  2  0
  3  4  1  0
  4  5  1  0
  5  6  2  0
  6  7  1  0
  7  8  2  0
  8  9  1  0
  9 10  2  0
  4 11  2  0
 11 12  1  0
 12 13  1  0
 13 14  1  0
 14 15  1  0
 15 16  2  0
 15 17  1  0
 17 18  1  0
 18 19  2  0
 19 20  1  0
 20 21  2  0
 21 22  1  0
 22 23  2  0
 12 24  2  0
 24 25  1  0
 25 26  3  0
 24  2  1  0
 10  5  1  0
 23 18  1  0
M  END
>  <Binding energies>  (18) 
[-7.67]

>  <Ligand effiencies>  (18) 
[-0.2840740740740741]

>  <Interactions>  (18) 
["V-A:TYR:539:CE2:4876, V-A:TYR:539:CZ:4877, V-A:PRO:540:CA:4883, V-A:TYR:539:CD2:4874, V-A:TYR:539:C:4867, V-B:ASP:366:CG:8184, V-B:TRP:381:CZ2:8341, V-B:TRP:381:CH2:8343, V-A:ALA:541:CB:4892, V-B:LEU:475:CD1:9229, V-B:PRO:482:CB:9297, V-B:ILE:369:CD1:8210, V-B:ILE:369:CG2:8208, V-A:MET:535:CE:4835, V-A:PRO:540:C:4881, H-B:TYR:531:OH:9766, V-B:ASP:366:CB:8183, V-B:ASP:366:C:8179, V-B:ASP:366:CA:8181, V-B:ILE:369:CB:8207, V-B:ILE:369:CG1:8209"]

$$$$
3be_Grossjean_2025
     RDKit          3D

 27 29  0  0  0  0  0  0  0  0999 V2000
  123.7040  129.8230   67.3620 C   0  0  0  0  0  0  0  0  0  0  0  0
  124.5950  129.8460   66.1360 C   0  0  0  0  0  0  0  0  0  0  0  0
  125.9740  129.6460   66.2290 C   0  0  0  0  0  0  0  0  0  0  0  0
  126.7320  129.6840   65.0580 C   0  0  0  0  0  0  0  0  0  0  0  0
  126.0990  129.9180   63.8350 C   0  0  0  0  0  0  0  0  0  0  0  0
  124.7130  130.1060   63.8110 C   0  0  0  0  0  0  0  0  0  0  0  0
  124.1370  130.3480   62.5500 N   0  0  0  0  0  0  0  0  0  0  0  0
  123.5880  131.4870   62.0750 C   0  0  0  0  0  0  0  0  0  0  0  0
  123.5000  132.5390   62.7110 O   0  0  0  0  0  0  0  0  0  0  0  0
  123.0600  131.3940   60.6350 C   0  0  0  0  0  0  0  0  0  0  0  0
  124.3430  131.3810   59.3370 S   0  0  0  0  0  0  0  0  0  0  0  0
  125.7370  132.3160   59.9280 C   0  0  0  0  0  0  0  0  0  0  0  0
  125.3920  133.3790   60.6960 N   0  0  0  0  0  0  0  0  0  0  0  0
  126.3590  134.1790   61.2180 C   0  0  0  0  0  0  0  0  0  0  0  0
  125.8930  135.3410   62.0440 C   0  0  0  0  0  0  0  0  0  0  0  0
  126.7890  136.3500   62.4340 C   0  0  0  0  0  0  0  0  0  0  0  0
  126.3640  137.4290   63.2020 C   0  0  0  0  0  0  0  0  0  0  0  0
  125.0330  137.5160   63.5940 C   0  0  0  0  0  0  0  0  0  0  0  0
  124.1250  136.5300   63.2240 C   0  0  0  0  0  0  0  0  0  0  0  0
  124.5550  135.4510   62.4550 C   0  0  0  0  0  0  0  0  0  0  0  0
  127.7120  133.9230   60.9710 C   0  0  0  0  0  0  0  0  0  0  0  0
  128.0850  132.8170   60.2020 C   0  0  0  0  0  0  0  0  0  0  0  0
  129.5750  132.5670   59.9740 C   0  0  0  0  0  0  0  0  0  0  0  0
  127.0840  131.9760   59.6700 C   0  0  0  0  0  0  0  0  0  0  0  0
  127.4540  130.7820   58.9070 C   0  0  0  0  0  0  0  0  0  0  0  0
  127.7490  129.8380   58.3050 N   0  0  0  0  0  0  0  0  0  0  0  0
  123.9670  130.0730   64.9540 N   0  0  0  0  0  0  0  0  0  0  0  0
  1  2  1  0
  2  3  2  0
  3  4  1  0
  4  5  2  0
  5  6  1  0
  6  7  1  0
  7  8  1  0
  8  9  2  0
  8 10  1  0
 10 11  1  0
 11 12  1  0
 12 13  2  0
 13 14  1  0
 14 15  1  0
 15 16  2  0
 16 17  1  0
 17 18  2  0
 18 19  1  0
 19 20  2  0
 14 21  2  0
 21 22  1  0
 22 23  1  0
 22 24  2  0
 24 25  1  0
 25 26  3  0
  6 27  2  0
 27  2  1  0
 24 12  1  0
 20 15  1  0
M  END
>  <Binding energies>  (19) 
[-8.63]

>  <Ligand effiencies>  (19) 
[-0.3082142857142857]

>  <Interactions>  (19) 
["V-A:TYR:539:CE2:4876, V-A:PRO:540:CA:4883, V-A:TYR:539:CD2:4874, V-A:TYR:539:C:4867, H-B:ASP:366:OD1:8185, H-B:ASP:366:OD2:8186, V-B:GLY:454:CA:9020, V-B:ASP:366:CG:8184, V-B:TRP:381:CZ2:8341, V-B:ARG:545:CD:9894, V-B:TRP:381:CH2:8343, V-A:ALA:541:CB:4892, V-B:LEU:475:CD1:9229, V-B:LEU:475:CB:9227, V-B:TRP:381:CE2:8338, V-B:PRO:482:CB:9297, V-B:ILE:369:CD1:8210, H-B:GLY:454:N:9021, V-B:PRO:482:CG:9298, V-B:ARG:545:CZ:9897, V-B:ARG:545:CG:9893, V-B:SER:385:CA:8378, V-B:ILE:369:CG2:8208, V-B:SER:385:CB:8380, V-B:SER:385:C:8376, V-B:ILE:455:C:9023, V-B:HIS:456:CE1:9041, V-B:GLY:454:C:9018, V-B:ASP:366:CB:8183, V-B:ASP:366:CA:8181, V-B:LEU:475:CG:9228, V-B:ILE:369:CB:8207, H-B:ARG:545:NH2:9899, V-B:ILE:369:CG1:8209, H-B:ARG:545:NE:9895"]

$$$$
3bf_Grossjean_2025
     RDKit          3D

 26 28  0  0  0  0  0  0  0  0999 V2000
  126.8150  135.6790   62.1870 C   0  0  0  0  0  0  0  0  0  0  0  0
  127.1640  134.3210   61.5840 C   0  0  0  0  0  0  0  0  0  0  0  0
  128.5130  134.0220   61.3690 C   0  0  0  0  0  0  0  0  0  0  0  0
  128.8780  132.7820   60.8310 C   0  0  0  0  0  0  0  0  0  0  0  0
  130.3060  132.3920   60.5970 C   0  0  0  0  0  0  0  0  0  0  0  0
  130.8010  132.2320   59.2940 C   0  0  0  0  0  0  0  0  0  0  0  0
  132.1260  131.8700   59.0680 C   0  0  0  0  0  0  0  0  0  0  0  0
  132.9770  131.6610   60.1490 C   0  0  0  0  0  0  0  0  0  0  0  0
  132.5120  131.8110   61.4500 C   0  0  0  0  0  0  0  0  0  0  0  0
  131.1850  132.1730   61.6710 C   0  0  0  0  0  0  0  0  0  0  0  0
  127.9350  131.8560   60.5120 N   0  0  0  0  0  0  0  0  0  0  0  0
  126.6210  132.1410   60.6910 C   0  0  0  0  0  0  0  0  0  0  0  0
  125.5330  130.8160   60.2130 S   0  0  0  0  0  0  0  0  0  0  0  0
  125.0860  131.0560   58.4600 C   0  0  0  0  0  0  0  0  0  0  0  0
  126.2600  130.9840   57.4720 C   0  0  0  0  0  0  0  0  0  0  0  0
  126.2080  130.2450   56.4870 O   0  0  0  0  0  0  0  0  0  0  0  0
  127.2940  131.8010   57.7650 N   0  0  0  0  0  0  0  0  0  0  0  0
  128.5110  131.9670   57.0790 C   0  0  0  0  0  0  0  0  0  0  0  0
  129.2600  130.8140   56.8190 C   0  0  0  0  0  0  0  0  0  0  0  0
  130.4700  130.9100   56.1300 C   0  0  0  0  0  0  0  0  0  0  0  0
  130.8990  132.1700   55.7100 C   0  0  0  0  0  0  0  0  0  0  0  0
  130.1890  133.3030   55.9380 N   0  0  0  0  0  0  0  0  0  0  0  0
  129.0140  133.1930   56.6100 C   0  0  0  0  0  0  0  0  0  0  0  0
  126.1830  133.3630   61.2460 C   0  0  0  0  0  0  0  0  0  0  0  0
  124.7670  133.6370   61.5090 C   0  0  0  0  0  0  0  0  0  0  0  0
  123.6500  133.8540   61.7170 N   0  0  0  0  0  0  0  0  0  0  0  0
  1  2  1  0
  2  3  2  0
  3  4  1  0
  4  5  1  0
  5  6  2  0
  6  7  1  0
  7  8  2  0
  8  9  1  0
  9 10  2  0
  4 11  2  0
 11 12  1  0
 12 13  1  0
 13 14  1  0
 14 15  1  0
 15 16  2  0
 15 17  1  0
 17 18  1  0
 18 19  2  0
 19 20  1  0
 20 21  2  0
 21 22  1  0
 22 23  2  0
 12 24  2  0
 24 25  1  0
 25 26  3  0
 24  2  1  0
 10  5  1  0
 23 18  1  0
M  END
>  <Binding energies>  (20) 
[-7.64]

>  <Ligand effiencies>  (20) 
[-0.28296296296296297]

>  <Interactions>  (20) 
["V-A:TYR:539:CD1:4873, V-A:TYR:539:CE2:4876, V-A:TYR:539:CG:4872, V-A:TYR:539:CZ:4877, V-A:TYR:539:CE1:4875, V-A:PRO:540:CA:4883, V-A:TYR:539:CA:4869, V-A:PRO:540:CB:4885, V-A:PRO:540:N:4884, V-A:TYR:539:CD2:4874, V-A:ASP:366:CG:3212, V-A:TYR:539:C:4867, H-A:TYR:539:N:4870, V-A:ILE:538:CB:4862, V-A:ALA:541:CB:4892, V-B:LEU:475:CD1:9229, V-B:ILE:369:CG2:8208, V-A:MET:535:CE:4835, V-A:PRO:540:C:4881, H-B:TYR:531:OH:9766, H-A:TYR:539:OH:4878, V-B:ASP:366:CB:8183"]

$$$$
3bg_Grossjean_2025
     RDKit          3D

 27 29  0  0  0  0  0  0  0  0999 V2000
  125.0680  124.3900   61.3130 C   0  0  0  0  0  0  0  0  0  0  0  0
  126.0210  123.7120   60.3310 C   0  0  0  0  0  0  0  0  0  0  0  0
  127.1950  123.1430   60.8350 C   0  0  0  0  0  0  0  0  0  0  0  0
  128.0930  122.5040   59.9690 C   0  0  0  0  0  0  0  0  0  0  0  0
  129.3660  121.8620   60.4470 C   0  0  0  0  0  0  0  0  0  0  0  0
  130.5940  122.5400   60.3650 C   0  0  0  0  0  0  0  0  0  0  0  0
  131.7720  121.9560   60.8230 C   0  0  0  0  0  0  0  0  0  0  0  0
  131.7420  120.6770   61.3690 C   0  0  0  0  0  0  0  0  0  0  0  0
  130.5440  119.9780   61.4510 C   0  0  0  0  0  0  0  0  0  0  0  0
  129.3690  120.5650   60.9910 C   0  0  0  0  0  0  0  0  0  0  0  0
  127.8260  122.4160   58.6390 N   0  0  0  0  0  0  0  0  0  0  0  0
  126.6900  122.9610   58.1340 C   0  0  0  0  0  0  0  0  0  0  0  0
  126.4420  122.7470   56.3780 S   0  0  0  0  0  0  0  0  0  0  0  0
  127.6880  123.7450   55.4990 C   0  0  0  0  0  0  0  0  0  0  0  0
  128.0960  124.9840   56.3030 C   0  0  0  0  0  0  0  0  0  0  0  0
  127.2640  125.8580   56.5470 O   0  0  0  0  0  0  0  0  0  0  0  0
  129.3830  125.0530   56.6830 N   0  0  0  0  0  0  0  0  0  0  0  0
  130.0280  126.2160   57.2940 C   0  0  0  0  0  0  0  0  0  0  0  0
  131.0130  125.8100   58.3830 C   0  0  0  0  0  0  0  0  0  0  0  0
  132.2370  125.2250   58.0390 C   0  0  0  0  0  0  0  0  0  0  0  0
  133.1320  124.8460   59.0340 C   0  0  0  0  0  0  0  0  0  0  0  0
  132.8080  125.0630   60.3730 C   0  0  0  0  0  0  0  0  0  0  0  0
  131.6010  125.6640   60.7230 C   0  0  0  0  0  0  0  0  0  0  0  0
  130.7050  126.0430   59.7260 C   0  0  0  0  0  0  0  0  0  0  0  0
  125.7540  123.6320   58.9480 C   0  0  0  0  0  0  0  0  0  0  0  0
  124.5290  124.2120   58.3920 C   0  0  0  0  0  0  0  0  0  0  0  0
  123.5610  124.6710   57.9540 N   0  0  0  0  0  0  0  0  0  0  0  0
  1  2  1  0
  2  3  2  0
  3  4  1  0
  4  5  1  0
  5  6  2  0
  6  7  1  0
  7  8  2  0
  8  9  1  0
  9 10  2  0
  4 11  2  0
 11 12  1  0
 12 13  1  0
 13 14  1  0
 14 15  1  0
 15 16  2  0
 15 17  1  0
 17 18  1  0
 18 19  1  0
 19 20  2  0
 20 21  1  0
 21 22  2  0
 22 23  1  0
 23 24  2  0
 12 25  2  0
 25 26  1  0
 26 27  3  0
 25  2  1  0
 10  5  1  0
 24 19  1  0
M  END
>  <Binding energies>  (21) 
[-8.41]

>  <Ligand effiencies>  (21) 
[-0.3003571428571429]

>  <Interactions>  (21) 
["V-A:ASP:366:CB:3211, V-A:ASP:366:CG:3212, V-B:TYR:539:CZ:9848, V-B:LEU:363:CD1:8160, V-B:PRO:540:N:9855, V-B:PRO:540:CA:9854, V-B:ALA:541:CB:9863, V-B:TYR:539:C:9838, V-B:TYR:539:CE1:9846, V-B:TYR:539:CD1:9844, V-B:PRO:540:CB:9856, H-B:TYR:531:OH:9766, V-B:TYR:539:CD2:9845, V-B:PRO:540:C:9852, V-B:LEU:363:CA:8156, H-B:TYR:539:OH:9849, V-B:TYR:539:CE2:9847, V-A:PRO:482:CB:4325, V-A:LEU:475:CD2:4258, V-A:ASP:366:CA:3209, V-A:ILE:369:CG2:3236, V-B:ALA:541:CA:9861, V-B:ASN:362:CB:8147, V-A:ASP:366:C:3207, V-A:ILE:369:CB:3235"]

$$$$
3ca_Grossjean_2025
     RDKit          3D

 31 33  0  0  0  0  0  0  0  0999 V2000
  132.1670  131.1600   56.5070 C   0  0  0  0  0  0  0  0  0  0  0  0
  132.0770  132.4460   57.3320 C   0  0  0  0  0  0  0  0  0  0  0  0
  131.2070  133.3650   56.6820 O   0  0  0  0  0  0  0  0  0  0  0  0
  130.1270  132.9340   55.9820 C   0  0  0  0  0  0  0  0  0  0  0  0
  130.0990  132.8640   54.7490 O   0  0  0  0  0  0  0  0  0  0  0  0
  128.9700  132.5430   56.8560 C   0  0  0  0  0  0  0  0  0  0  0  0
  128.9490  132.9640   58.1920 C   0  0  0  0  0  0  0  0  0  0  0  0
  127.8910  132.6170   59.0270 C   0  0  0  0  0  0  0  0  0  0  0  0
  126.8370  131.8370   58.5470 C   0  0  0  0  0  0  0  0  0  0  0  0
  125.8180  131.5460   59.4750 N   0  0  0  0  0  0  0  0  0  0  0  0
  124.4780  131.5590   59.3140 C   0  0  0  0  0  0  0  0  0  0  0  0
  123.8880  131.8240   58.2670 O   0  0  0  0  0  0  0  0  0  0  0  0
  123.6660  131.1850   60.5590 C   0  0  0  0  0  0  0  0  0  0  0  0
  123.9790  132.2870   61.9780 S   0  0  0  0  0  0  0  0  0  0  0  0
  125.6140  131.9820   62.6340 C   0  0  0  0  0  0  0  0  0  0  0  0
  126.6280  132.6370   62.0130 N   0  0  0  0  0  0  0  0  0  0  0  0
  127.8880  132.4700   62.4690 C   0  0  0  0  0  0  0  0  0  0  0  0
  128.9620  133.2480   61.7350 C   0  0  0  0  0  0  0  0  0  0  0  0
  128.1920  131.6380   63.5440 C   0  0  0  0  0  0  0  0  0  0  0  0
  127.1660  130.9380   64.1900 C   0  0  0  0  0  0  0  0  0  0  0  0
  127.5410  130.0470   65.3300 C   0  0  0  0  0  0  0  0  0  0  0  0
  128.2310  128.8520   65.0900 C   0  0  0  0  0  0  0  0  0  0  0  0
  128.5760  128.0110   66.1450 C   0  0  0  0  0  0  0  0  0  0  0  0
  128.2280  128.3610   67.4470 C   0  0  0  0  0  0  0  0  0  0  0  0
  127.5360  129.5430   67.7020 C   0  0  0  0  0  0  0  0  0  0  0  0
  127.1920  130.3810   66.6440 C   0  0  0  0  0  0  0  0  0  0  0  0
  125.8350  131.1180   63.7320 C   0  0  0  0  0  0  0  0  0  0  0  0
  124.7140  130.4500   64.4010 C   0  0  0  0  0  0  0  0  0  0  0  0
  123.8290  129.9230   64.9300 N   0  0  0  0  0  0  0  0  0  0  0  0
  126.8470  131.4170   57.2090 C   0  0  0  0  0  0  0  0  0  0  0  0
  127.9050  131.7670   56.3740 C   0  0  0  0  0  0  0  0  0  0  0  0
  1  2  1  0
  2  3  1  0
  3  4  1  0
  4  5  2  0
  4  6  1  0
  6  7  2  0
  7  8  1  0
  8  9  2  0
  9 10  1  0
 10 11  1  0
 11 12  2  0
 11 13  1  0
 13 14  1  0
 14 15  1  0
 15 16  2  0
 16 17  1  0
 17 18  1  0
 17 19  2  0
 19 20  1  0
 20 21  1  0
 21 22  2  0
 22 23  1  0
 23 24  2  0
 24 25  1  0
 25 26  2  0
 20 27  2  0
 27 28  1  0
 28 29  3  0
  9 30  1  0
 30 31  2  0
 31  6  1  0
 27 15  1  0
 26 21  1  0
M  END
>  <Binding energies>  (22) 
[-8.75]

>  <Ligand effiencies>  (22) 
[-0.2734375]

>  <Interactions>  (22) 
["V-A:TYR:539:CE2:4876, V-A:TYR:539:CG:4872, V-A:TYR:539:CZ:4877, V-A:TYR:539:CE1:4875, V-A:LEU:363:CD1:3188, V-A:TYR:531:CE2:4793, V-A:PRO:540:CA:4883, V-A:PRO:540:CD:4887, V-A:TYR:531:CZ:4794, V-A:PRO:540:CB:4885, V-A:PRO:540:N:4884, V-A:TYR:539:CD2:4874, V-A:ILE:538:CA:4860, V-A:TYR:539:C:4867, H-A:TYR:539:N:4870, V-A:ILE:538:CB:4862, V-B:ASP:366:CG:8184, V-A:ALA:541:CB:4892, V-B:ILE:369:CD1:8210, H-B:GLY:454:N:9021, V-B:GLU:543:CD:9879, V-B:ARG:545:CZ:9897, V-A:MET:535:CE:4835, V-B:HIS:456:CE1:9041, V-A:GLU:543:CG:4907, V-A:GLU:543:CD:4908, H-A:TYR:539:OH:4878, V-B:ASP:366:CB:8183, V-B:ASP:366:CA:8181, H-B:ARG:545:NH2:9899, H-B:ARG:545:NE:9895, V-A:ALA:541:CA:4890, H-B:ARG:545:NH1:9898, V-B:TYR:484:CE1:9316, V-B:TYR:484:CZ:9318"]

$$$$
3ce_Grossjean_2025
     RDKit          3D

 27 29  0  0  0  0  0  0  0  0999 V2000
  123.4870  129.5710   67.3850 C   0  0  0  0  0  0  0  0  0  0  0  0
  124.4420  129.6740   66.2120 C   0  0  0  0  0  0  0  0  0  0  0  0
  125.8140  129.4550   66.3640 C   0  0  0  0  0  0  0  0  0  0  0  0
  126.6310  129.5570   65.2380 C   0  0  0  0  0  0  0  0  0  0  0  0
  126.0650  129.8730   64.0010 C   0  0  0  0  0  0  0  0  0  0  0  0
  124.6850  130.0900   63.9200 C   0  0  0  0  0  0  0  0  0  0  0  0
  124.1690  130.3850   62.6470 N   0  0  0  0  0  0  0  0  0  0  0  0
  123.9520  131.5990   62.0940 C   0  0  0  0  0  0  0  0  0  0  0  0
  124.1890  132.6770   62.6410 O   0  0  0  0  0  0  0  0  0  0  0  0
  123.3770  131.5890   60.6780 C   0  0  0  0  0  0  0  0  0  0  0  0
  124.4310  130.6640   59.5230 S   0  0  0  0  0  0  0  0  0  0  0  0
  125.9780  131.5380   59.4740 C   0  0  0  0  0  0  0  0  0  0  0  0
  126.2020  132.3220   60.5570 N   0  0  0  0  0  0  0  0  0  0  0  0
  127.3610  133.0170   60.6240 C   0  0  0  0  0  0  0  0  0  0  0  0
  127.5530  133.8630   61.8680 C   0  0  0  0  0  0  0  0  0  0  0  0
  128.3240  132.9690   59.6190 C   0  0  0  0  0  0  0  0  0  0  0  0
  128.0990  132.1840   58.4800 C   0  0  0  0  0  0  0  0  0  0  0  0
  129.1490  132.1840   57.4170 C   0  0  0  0  0  0  0  0  0  0  0  0
  130.3340  131.4630   57.6000 C   0  0  0  0  0  0  0  0  0  0  0  0
  131.3200  131.4630   56.6170 C   0  0  0  0  0  0  0  0  0  0  0  0
  131.1280  132.1920   55.4470 C   0  0  0  0  0  0  0  0  0  0  0  0
  129.9580  132.9230   55.2540 C   0  0  0  0  0  0  0  0  0  0  0  0
  128.9740  132.9200   56.2380 C   0  0  0  0  0  0  0  0  0  0  0  0
  126.8940  131.4410   58.4000 C   0  0  0  0  0  0  0  0  0  0  0  0
  126.6100  130.5910   57.2390 C   0  0  0  0  0  0  0  0  0  0  0  0
  126.3880  129.9210   56.3230 N   0  0  0  0  0  0  0  0  0  0  0  0
  123.8780  129.9840   65.0160 N   0  0  0  0  0  0  0  0  0  0  0  0
  1  2  1  0
  2  3  2  0
  3  4  1  0
  4  5  2  0
  5  6  1  0
  6  7  1  0
  7  8  1  0
  8  9  2  0
  8 10  1  0
 10 11  1  0
 11 12  1  0
 12 13  2  0
 13 14  1  0
 14 15  1  0
 14 16  2  0
 16 17  1  0
 17 18  1  0
 18 19  2  0
 19 20  1  0
 20 21  2  0
 21 22  1  0
 22 23  2  0
 17 24  2  0
 24 25  1  0
 25 26  3  0
  6 27  2  0
 27  2  1  0
 24 12  1  0
 23 18  1  0
M  END
>  <Binding energies>  (23) 
[-9.1]

>  <Ligand effiencies>  (23) 
[-0.325]

>  <Interactions>  (23) 
["V-A:TYR:539:CD1:4873, V-A:TYR:539:CE2:4876, V-A:TYR:539:CG:4872, V-A:ILE:538:C:4858, V-A:TYR:539:CZ:4877, V-A:TYR:539:CE1:4875, V-A:ILE:538:CG2:4863, V-A:TYR:539:CD2:4874, V-A:ILE:538:CA:4860, V-A:TYR:539:C:4867, V-A:ILE:538:CB:4862, H-B:ASP:366:OD1:8185, H-B:ASP:366:OD2:8186, V-B:ASP:366:CG:8184, V-B:ARG:545:CD:9894, V-A:ALA:541:CB:4892, V-B:ILE:369:CD1:8210, H-B:GLY:454:N:9021, V-B:ARG:545:CZ:9897, V-B:ARG:545:CG:9893, V-B:ILE:369:CG2:8208, V-A:MET:535:CE:4835, V-B:ILE:455:C:9023, H-B:TYR:531:OH:9766, V-B:ASP:366:CB:8183, V-B:ASP:366:CA:8181, V-B:ILE:369:CB:8207, H-B:ARG:545:NH2:9899, H-B:ARG:545:NE:9895, H-B:ARG:545:NH1:9898, V-B:ARG:545:CB:9892"]

$$$$
3cj_Grossjean_2025
     RDKit          3D

 25 27  0  0  0  0  0  0  0  0999 V2000
  130.1740  121.0030   61.7260 C   0  0  0  0  0  0  0  0  0  0  0  0
  129.9460  122.0480   60.6520 C   0  0  0  0  0  0  0  0  0  0  0  0
  128.7940  122.0480   59.8680 C   0  0  0  0  0  0  0  0  0  0  0  0
  128.6140  123.0470   58.9010 C   0  0  0  0  0  0  0  0  0  0  0  0
  127.3360  123.0450   58.1310 C   0  0  0  0  0  0  0  0  0  0  0  0
  126.1800  123.6240   58.6690 C   0  0  0  0  0  0  0  0  0  0  0  0
  124.9850  123.6100   57.9540 C   0  0  0  0  0  0  0  0  0  0  0  0
  124.9410  123.0110   56.6980 C   0  0  0  0  0  0  0  0  0  0  0  0
  126.0800  122.4240   56.1540 C   0  0  0  0  0  0  0  0  0  0  0  0
  127.2740  122.4390   56.8700 C   0  0  0  0  0  0  0  0  0  0  0  0
  129.6360  124.0120   58.7310 C   0  0  0  0  0  0  0  0  0  0  0  0
  129.5190  125.0650   57.7170 C   0  0  0  0  0  0  0  0  0  0  0  0
  129.4260  125.8960   56.9170 N   0  0  0  0  0  0  0  0  0  0  0  0
  130.7690  123.9390   59.5730 C   0  0  0  0  0  0  0  0  0  0  0  0
  132.0610  125.1640   59.5550 S   0  0  0  0  0  0  0  0  0  0  0  0
  133.4820  124.3550   60.3580 C   0  0  0  0  0  0  0  0  0  0  0  0
  133.2580  124.1710   61.8620 C   0  0  0  0  0  0  0  0  0  0  0  0
  133.1010  123.0370   62.3190 O   0  0  0  0  0  0  0  0  0  0  0  0
  133.2910  125.3050   62.5950 N   0  0  0  0  0  0  0  0  0  0  0  0
  133.2510  125.3990   63.9770 C   0  0  0  0  0  0  0  0  0  0  0  0
  134.2310  125.1900   64.8300 N   0  0  0  0  0  0  0  0  0  0  0  0
  133.8430  125.4000   66.0720 C   0  0  0  0  0  0  0  0  0  0  0  0
  132.5180  125.7890   66.2470 C   0  0  0  0  0  0  0  0  0  0  0  0
  131.7450  125.8800   64.6920 S   0  0  0  0  0  0  0  0  0  0  0  0
  130.9150  122.9800   60.5220 N   0  0  0  0  0  0  0  0  0  0  0  0
  1  2  1  0
  2  3  2  0
  3  4  1  0
  4  5  1  0
  5  6  2  0
  6  7  1  0
  7  8  2  0
  8  9  1  0
  9 10  2  0
  4 11  2  0
 11 12  1  0
 12 13  3  0
 11 14  1  0
 14 15  1  0
 15 16  1  0
 16 17  1  0
 17 18  2  0
 17 19  1  0
 19 20  1  0
 20 21  2  0
 21 22  1  0
 22 23  2  0
 23 24  1  0
 14 25  2  0
 25  2  1  0
 10  5  1  0
 24 20  1  0
M  END
>  <Binding energies>  (24) 
[-8.17]

>  <Ligand effiencies>  (24) 
[-0.3142307692307692]

>  <Interactions>  (24) 
["H-A:ASP:366:OD1:3213, V-A:ASP:366:CG:3212, H-A:ASP:366:OD2:3214, V-B:TYR:539:CZ:9848, V-B:LEU:363:CD1:8160, V-B:PRO:540:N:9855, V-B:PRO:540:CA:9854, V-B:ALA:541:CB:9863, V-B:MET:535:CE:9806, V-B:TYR:539:C:9838, V-B:TYR:539:CE1:9846, V-B:TYR:539:CD1:9844, V-B:PRO:540:CB:9856, V-B:TYR:539:CD2:9845, H-B:TYR:539:OH:9849, V-B:TYR:539:CE2:9847, V-B:PRO:540:CD:9858, V-A:LEU:475:CD2:4258, V-A:ASP:366:CA:3209, H-A:TYR:531:OH:4795, V-A:ILE:369:CG2:3236, V-B:TYR:539:CG:9843, V-A:ILE:369:CD1:3238, H-A:GLY:454:N:4049, V-A:ARG:545:CZ:4926, H-A:ARG:545:NE:4924, H-A:ARG:545:NH1:4927, V-A:HIS:456:CE1:4069, V-A:ARG:545:CD:4923, V-A:ARG:545:CG:4922, V-A:ILE:369:CB:3235"]

$$$$
4ba_Grossjean_2025
     RDKit          3D

 28 30  0  0  0  0  0  0  0  0999 V2000
  131.4580  126.1360   66.9880 C   0  0  0  0  0  0  0  0  0  0  0  0
  132.9610  125.7980   66.9810 C   0  0  0  0  0  0  0  0  0  0  0  0
  133.5380  125.4090   65.6040 C   0  0  0  0  0  0  0  0  0  0  0  0
  134.7560  125.4630   65.4190 O   0  0  0  0  0  0  0  0  0  0  0  0
  132.5720  124.9710   64.5420 C   0  0  0  0  0  0  0  0  0  0  0  0
  131.7880  125.9300   63.8880 C   0  0  0  0  0  0  0  0  0  0  0  0
  130.8830  125.5520   62.9010 C   0  0  0  0  0  0  0  0  0  0  0  0
  130.7460  124.2100   62.5430 C   0  0  0  0  0  0  0  0  0  0  0  0
  129.7970  123.9390   61.5390 N   0  0  0  0  0  0  0  0  0  0  0  0
  128.5110  123.5200   61.6440 C   0  0  0  0  0  0  0  0  0  0  0  0
  127.9550  123.2560   62.7110 O   0  0  0  0  0  0  0  0  0  0  0  0
  127.7980  123.3680   60.3750 C   0  0  0  0  0  0  0  0  0  0  0  0
  128.4600  122.3440   59.1020 S   0  0  0  0  0  0  0  0  0  0  0  0
  127.1370  122.7390   58.0310 C   0  0  0  0  0  0  0  0  0  0  0  0
  127.0640  122.2300   56.8020 N   0  0  0  0  0  0  0  0  0  0  0  0
  125.9940  122.6080   56.0660 C   0  0  0  0  0  0  0  0  0  0  0  0
  125.9350  122.0250   54.6650 C   0  0  0  0  0  0  0  0  0  0  0  0
  125.0040  123.4720   56.5260 C   0  0  0  0  0  0  0  0  0  0  0  0
  125.0750  124.0110   57.8210 C   0  0  0  0  0  0  0  0  0  0  0  0
  123.9600  124.9540   58.2840 C   0  0  0  0  0  0  0  0  0  0  0  0
  122.9270  124.9960   57.4390 F   0  0  0  0  0  0  0  0  0  0  0  0
  123.4920  124.5560   59.4670 F   0  0  0  0  0  0  0  0  0  0  0  0
  124.4360  126.1950   58.3940 F   0  0  0  0  0  0  0  0  0  0  0  0
  126.1950  123.6350   58.6220 C   0  0  0  0  0  0  0  0  0  0  0  0
  126.6060  123.9850   59.9600 C   0  0  0  0  0  0  0  0  0  0  0  0
  125.8890  124.8440   60.7530 N   0  0  0  0  0  0  0  0  0  0  0  0
  131.5230  123.2430   63.1970 C   0  0  0  0  0  0  0  0  0  0  0  0
  132.4280  123.6230   64.1850 C   0  0  0  0  0  0  0  0  0  0  0  0
  1  2  1  0
  2  3  1  0
  3  4  2  0
  3  5  1  0
  5  6  2  0
  6  7  1  0
  7  8  2  0
  8  9  1  0
  9 10  1  0
 10 11  2  0
 10 12  1  0
 12 13  1  0
 13 14  1  0
 14 15  2  0
 15 16  1  0
 16 17  1  0
 16 18  2  0
 18 19  1  0
 19 20  1  0
 20 21  1  0
 20 22  1  0
 20 23  1  0
 19 24  2  0
 24 25  1  0
 25 26  1  0
  8 27  1  0
 27 28  2  0
 28  5  1  0
 25 12  2  0
 24 14  1  0
M  END
>  <Binding energies>  (25) 
[-7.83]

>  <Ligand effiencies>  (25) 
[-0.2525806451612903]

>  <Interactions>  (25) 
["V-B:TYR:539:CZ:9848, H-B:GLU:543:OE2:9881, V-B:LEU:363:CD1:8160, V-B:PRO:540:N:9855, V-B:PRO:540:CA:9854, V-B:ALA:541:CB:9863, V-B:MET:535:CE:9806, V-B:TYR:539:C:9838, V-B:TYR:539:CD1:9844, V-B:PRO:540:CB:9856, H-B:ASP:366:OD2:8186, V-B:ASP:366:CG:8184, V-A:GLU:543:CD:4908, V-B:ASP:366:CB:8183, V-B:TYR:539:CD2:9845, H-B:TYR:539:N:9841, V-B:LEU:363:CA:8156, V-B:TYR:539:CE2:9847, V-B:TYR:531:CZ:9765, V-B:TYR:531:CE2:9764, V-B:PRO:540:CD:9858, V-B:ILE:538:CD1:9836, V-B:ILE:538:CG2:9834, V-B:LEU:363:CB:8158, H-B:ALA:541:N:9862, V-B:ILE:538:CA:9831, V-B:ILE:538:CB:9833, V-B:TYR:539:CG:9843, V-B:ILE:538:C:9829, V-B:ASN:362:C:8143, H-A:GLY:454:N:4049, V-A:ARG:545:CZ:4926, H-A:ARG:545:NE:4924, H-A:ARG:545:NH1:4927, V-A:HIS:456:CE1:4069, V-A:ARG:545:CD:4923, V-A:ARG:545:CG:4922, V-A:GLY:454:CA:4048, V-B:ILE:538:CG1:9835, V-B:LEU:363:CG:8159, V-B:LEU:363:C:8154, V-B:TYR:531:CD2:9762"]

$$$$
4bb_Grossjean_2025
     RDKit          3D

 27 29  0  0  0  0  0  0  0  0999 V2000
  132.8240  126.1250   67.0000 C   0  0  0  0  0  0  0  0  0  0  0  0
  133.3440  125.3420   65.7930 C   0  0  0  0  0  0  0  0  0  0  0  0
  134.5500  125.0930   65.7380 O   0  0  0  0  0  0  0  0  0  0  0  0
  132.3630  124.9270   64.7370 C   0  0  0  0  0  0  0  0  0  0  0  0
  131.9590  125.8580   63.7720 C   0  0  0  0  0  0  0  0  0  0  0  0
  131.0490  125.4990   62.7820 C   0  0  0  0  0  0  0  0  0  0  0  0
  130.5320  124.2030   62.7330 C   0  0  0  0  0  0  0  0  0  0  0  0
  129.6170  123.9490   61.6920 N   0  0  0  0  0  0  0  0  0  0  0  0
  128.3470  123.4780   61.7440 C   0  0  0  0  0  0  0  0  0  0  0  0
  127.7710  123.1540   62.7820 O   0  0  0  0  0  0  0  0  0  0  0  0
  127.6780  123.3420   60.4470 C   0  0  0  0  0  0  0  0  0  0  0  0
  128.3910  122.3460   59.1810 S   0  0  0  0  0  0  0  0  0  0  0  0
  127.0970  122.7420   58.0750 C   0  0  0  0  0  0  0  0  0  0  0  0
  127.0620  122.2460   56.8390 N   0  0  0  0  0  0  0  0  0  0  0  0
  126.0110  122.6250   56.0760 C   0  0  0  0  0  0  0  0  0  0  0  0
  125.9910  122.0470   54.6720 C   0  0  0  0  0  0  0  0  0  0  0  0
  125.0040  123.4800   56.5150 C   0  0  0  0  0  0  0  0  0  0  0  0
  125.0350  124.0050   57.8160 C   0  0  0  0  0  0  0  0  0  0  0  0
  123.9040  124.9420   58.2540 C   0  0  0  0  0  0  0  0  0  0  0  0
  123.3680  124.5990   59.4280 F   0  0  0  0  0  0  0  0  0  0  0  0
  124.3700  126.1850   58.3750 F   0  0  0  0  0  0  0  0  0  0  0  0
  122.9260  124.9240   57.3480 F   0  0  0  0  0  0  0  0  0  0  0  0
  126.1310  123.6250   58.6480 C   0  0  0  0  0  0  0  0  0  0  0  0
  126.4930  123.9550   60.0040 C   0  0  0  0  0  0  0  0  0  0  0  0
  125.7400  124.7880   60.7900 N   0  0  0  0  0  0  0  0  0  0  0  0
  130.9270  123.2680   63.7010 C   0  0  0  0  0  0  0  0  0  0  0  0
  131.8360  123.6290   64.6920 C   0  0  0  0  0  0  0  0  0  0  0  0
  1  2  1  0
  2  3  2  0
  2  4  1  0
  4  5  2  0
  5  6  1  0
  6  7  2  0
  7  8  1  0
  8  9  1  0
  9 10  2  0
  9 11  1  0
 11 12  1  0
 12 13  1  0
 13 14  2  0
 14 15  1  0
 15 16  1  0
 15 17  2  0
 17 18  1  0
 18 19  1  0
 19 20  1  0
 19 21  1  0
 19 22  1  0
 18 23  2  0
 23 24  1  0
 24 25  1  0
  7 26  1  0
 26 27  2  0
 27  4  1  0
 24 11  2  0
 23 13  1  0
M  END
>  <Binding energies>  (26) 
[-7.86]

>  <Ligand effiencies>  (26) 
[-0.262]

>  <Interactions>  (26) 
["V-B:TYR:539:CZ:9848, H-B:GLU:543:OE2:9881, V-B:LEU:363:CD1:8160, V-B:PRO:540:N:9855, V-B:PRO:540:CA:9854, V-B:ALA:541:CB:9863, V-B:MET:535:CE:9806, V-B:TYR:539:C:9838, V-B:TYR:539:CD1:9844, V-B:PRO:540:CB:9856, H-B:ASP:366:OD2:8186, V-B:ASP:366:CG:8184, V-B:ASP:366:CB:8183, V-B:TYR:539:CD2:9845, H-B:TYR:539:N:9841, V-B:LEU:363:CA:8156, V-B:TYR:539:CE2:9847, V-B:TYR:531:CZ:9765, V-B:TYR:531:CE2:9764, V-B:PRO:540:CD:9858, V-B:ILE:538:CD1:9836, V-B:ILE:538:CG2:9834, V-B:LEU:363:CB:8158, H-B:ALA:541:N:9862, V-B:ILE:538:CA:9831, V-B:ILE:538:CB:9833, V-B:ILE:538:C:9829, V-B:ASN:362:C:8143, H-A:GLY:454:N:4049, V-A:ARG:545:CZ:4926, H-A:ARG:545:NE:4924, H-A:TYR:484:OH:4347, V-A:HIS:456:CE1:4069, V-A:ARG:545:CD:4923, V-A:ARG:545:CG:4922, V-A:TYR:484:CZ:4346, V-B:ILE:538:CG1:9835, V-B:LEU:363:CG:8159, V-B:LEU:363:C:8154, H-A:ILE:455:N:4054, V-B:TYR:531:CD2:9762"]

$$$$
4bd_Grossjean_2025
     RDKit          3D

 24 26  0  0  0  0  0  0  0  0999 V2000
  134.3700  130.3050   57.6170 C   0  0  0  0  0  0  0  0  0  0  0  0
  133.0350  130.9790   57.8770 C   0  0  0  0  0  0  0  0  0  0  0  0
  132.1920  131.3320   56.8270 C   0  0  0  0  0  0  0  0  0  0  0  0
  130.9610  131.9570   57.0820 C   0  0  0  0  0  0  0  0  0  0  0  0
  130.0690  132.3310   55.8930 C   0  0  0  0  0  0  0  0  0  0  0  0
  129.7240  133.6200   55.8860 F   0  0  0  0  0  0  0  0  0  0  0  0
  130.7100  132.0820   54.7520 F   0  0  0  0  0  0  0  0  0  0  0  0
  128.9440  131.6180   55.9320 F   0  0  0  0  0  0  0  0  0  0  0  0
  130.6240  132.2030   58.4460 C   0  0  0  0  0  0  0  0  0  0  0  0
  129.4780  132.8060   59.0810 C   0  0  0  0  0  0  0  0  0  0  0  0
  128.4080  133.2860   58.3720 N   0  0  0  0  0  0  0  0  0  0  0  0
  129.5590  132.8580   60.4830 C   0  0  0  0  0  0  0  0  0  0  0  0
  128.5910  133.4130   61.4340 C   0  0  0  0  0  0  0  0  0  0  0  0
  128.4570  132.9190   62.5540 O   0  0  0  0  0  0  0  0  0  0  0  0
  127.8910  134.4870   60.9910 N   0  0  0  0  0  0  0  0  0  0  0  0
  126.8730  135.2170   61.6300 C   0  0  0  0  0  0  0  0  0  0  0  0
  125.6030  134.6340   61.6210 C   0  0  0  0  0  0  0  0  0  0  0  0
  124.5310  135.2750   62.2370 C   0  0  0  0  0  0  0  0  0  0  0  0
  124.7300  136.4970   62.8720 C   0  0  0  0  0  0  0  0  0  0  0  0
  125.9940  137.0820   62.9010 C   0  0  0  0  0  0  0  0  0  0  0  0
  127.0680  136.4450   62.2850 C   0  0  0  0  0  0  0  0  0  0  0  0
  131.0650  132.1490   61.0610 S   0  0  0  0  0  0  0  0  0  0  0  0
  131.5770  131.7920   59.4280 C   0  0  0  0  0  0  0  0  0  0  0  0
  132.7440  131.1990   59.1810 N   0  0  0  0  0  0  0  0  0  0  0  0
  1  2  1  0
  2  3  2  0
  3  4  1  0
  4  5  1  0
  5  6  1  0
  5  7  1  0
  5  8  1  0
  4  9  2  0
  9 10  1  0
 10 11  1  0
 10 12  2  0
 12 13  1  0
 13 14  2  0
 13 15  1  0
 15 16  1  0
 16 17  2  0
 17 18  1  0
 18 19  2  0
 19 20  1  0
 20 21  2  0
 12 22  1  0
 22 23  1  0
 23 24  2  0
 24  2  1  0
 23  9  1  0
 21 16  1  0
M  END
>  <Binding energies>  (27) 
[-6.67]

>  <Ligand effiencies>  (27) 
[-0.24703703703703703]

>  <Interactions>  (27) 
["V-A:TYR:539:CD1:4873, V-A:TYR:539:CE2:4876, V-A:TYR:539:CG:4872, V-A:ILE:538:C:4858, V-A:TYR:539:CZ:4877, V-A:TYR:539:CE1:4875, V-A:LEU:363:CD1:3188, V-A:TYR:531:CE2:4793, V-A:PRO:540:CA:4883, V-A:ILE:538:CG2:4863, V-A:TYR:539:CA:4869, V-A:ASP:366:CB:3211, V-A:PRO:540:CB:4885, V-A:PRO:540:N:4884, V-A:TYR:539:CD2:4874, V-A:ILE:538:CA:4860, V-A:ASP:366:CG:3212, V-A:TYR:539:C:4867, V-A:ILE:538:CB:4862, V-B:TRP:381:CZ2:8341, V-B:TRP:381:CH2:8343, V-A:ALA:541:CB:4892, V-B:LEU:475:CD1:9229, V-B:LEU:475:CB:9227, V-B:TRP:381:CE2:8338, V-B:PRO:482:CB:9297, V-B:PRO:482:CG:9298, V-A:MET:535:CE:4835, H-A:TYR:539:O:4868, V-B:SER:385:CB:8380, V-A:PRO:540:C:4881, V-A:LEU:363:CA:3184, V-A:LEU:363:CB:3186, V-A:MET:535:CG:4833, V-A:MET:535:CB:4832, V-A:LEU:363:CG:3187, V-A:LEU:363:C:3182"]

$$$$
4be_Grossjean_2025
     RDKit          3D

 25 27  0  0  0  0  0  0  0  0999 V2000
  130.3680  125.1040   66.7250 C   0  0  0  0  0  0  0  0  0  0  0  0
  130.9530  124.7650   65.3680 C   0  0  0  0  0  0  0  0  0  0  0  0
  132.3330  124.6810   65.1670 C   0  0  0  0  0  0  0  0  0  0  0  0
  132.8010  124.3680   63.8910 C   0  0  0  0  0  0  0  0  0  0  0  0
  131.8880  124.1490   62.8560 C   0  0  0  0  0  0  0  0  0  0  0  0
  130.5190  124.2430   63.1270 C   0  0  0  0  0  0  0  0  0  0  0  0
  129.6530  124.0180   62.0410 N   0  0  0  0  0  0  0  0  0  0  0  0
  128.3940  123.5120   62.0460 C   0  0  0  0  0  0  0  0  0  0  0  0
  127.7990  123.1630   63.0670 O   0  0  0  0  0  0  0  0  0  0  0  0
  127.7660  123.3750   60.7290 C   0  0  0  0  0  0  0  0  0  0  0  0
  128.5160  122.3690   59.4910 S   0  0  0  0  0  0  0  0  0  0  0  0
  127.2560  122.7610   58.3450 C   0  0  0  0  0  0  0  0  0  0  0  0
  127.2580  122.2590   57.1110 N   0  0  0  0  0  0  0  0  0  0  0  0
  126.2290  122.6340   56.3160 C   0  0  0  0  0  0  0  0  0  0  0  0
  126.2510  122.0530   54.9140 C   0  0  0  0  0  0  0  0  0  0  0  0
  125.2080  123.4890   56.7220 C   0  0  0  0  0  0  0  0  0  0  0  0
  125.2000  124.0210   58.0210 C   0  0  0  0  0  0  0  0  0  0  0  0
  124.0540  124.9550   58.4230 C   0  0  0  0  0  0  0  0  0  0  0  0
  123.5580  124.6810   59.6330 F   0  0  0  0  0  0  0  0  0  0  0  0
  124.4860  126.2150   58.4470 F   0  0  0  0  0  0  0  0  0  0  0  0
  123.0550  124.8480   57.5480 F   0  0  0  0  0  0  0  0  0  0  0  0
  126.2740  123.6490   58.8840 C   0  0  0  0  0  0  0  0  0  0  0  0
  126.6000  123.9900   60.2470 C   0  0  0  0  0  0  0  0  0  0  0  0
  125.8300  124.8360   61.0040 N   0  0  0  0  0  0  0  0  0  0  0  0
  130.0540  124.5540   64.3720 N   0  0  0  0  0  0  0  0  0  0  0  0
  1  2  1  0
  2  3  2  0
  3  4  1  0
  4  5  2  0
  5  6  1  0
  6  7  1  0
  7  8  1  0
  8  9  2  0
  8 10  1  0
 10 11  1  0
 11 12  1  0
 12 13  2  0
 13 14  1  0
 14 15  1  0
 14 16  2  0
 16 17  1  0
 17 18  1  0
 18 19  1  0
 18 20  1  0
 18 21  1  0
 17 22  2  0
 22 23  1  0
 23 24  1  0
  6 25  2  0
 25  2  1  0
 23 10  2  0
 22 12  1  0
M  END
>  <Binding energies>  (28) 
[-6.81]

>  <Ligand effiencies>  (28) 
[-0.2432142857142857]

>  <Interactions>  (28) 
["H-B:GLU:543:OE2:9881, V-B:LEU:363:CD1:8160, V-B:PRO:540:N:9855, V-B:PRO:540:CA:9854, V-B:ALA:541:CB:9863, V-B:MET:535:CE:9806, V-B:TYR:539:C:9838, V-B:TYR:539:CE1:9846, V-B:TYR:539:CD1:9844, V-B:PRO:540:CB:9856, H-B:ASP:366:OD2:8186, V-B:ASP:366:CG:8184, V-B:ASP:366:CB:8183, V-B:TYR:539:CD2:9845, H-B:TYR:539:N:9841, V-B:LEU:363:CA:8156, V-B:TYR:539:CE2:9847, V-B:TYR:531:CZ:9765, V-B:TYR:531:CE2:9764, V-B:PRO:540:CD:9858, V-B:ILE:538:CD1:9836, V-B:LEU:363:CB:8158, H-B:ALA:541:N:9862, V-B:ILE:538:CA:9831, V-B:ILE:538:C:9829, V-B:ASN:362:C:8143, V-A:HIS:456:CE1:4069, V-B:LEU:363:CG:8159, V-B:LEU:363:C:8154"]

$$$$
4bg_Grossjean_2025
     RDKit          3D

 25 27  0  0  0  0  0  0  0  0999 V2000
  126.2830  122.0470   54.8200 C   0  0  0  0  0  0  0  0  0  0  0  0
  126.2500  122.5880   56.2390 C   0  0  0  0  0  0  0  0  0  0  0  0
  125.2760  123.4990   56.6370 C   0  0  0  0  0  0  0  0  0  0  0  0
  125.2600  123.9950   57.9500 C   0  0  0  0  0  0  0  0  0  0  0  0
  124.1690  124.9960   58.3420 C   0  0  0  0  0  0  0  0  0  0  0  0
  123.1410  125.0080   57.4900 F   0  0  0  0  0  0  0  0  0  0  0  0
  123.6850  124.6880   59.5460 F   0  0  0  0  0  0  0  0  0  0  0  0
  124.6760  126.2280   58.3740 F   0  0  0  0  0  0  0  0  0  0  0  0
  126.2740  123.5240   58.8370 C   0  0  0  0  0  0  0  0  0  0  0  0
  126.5760  123.8040   60.2190 C   0  0  0  0  0  0  0  0  0  0  0  0
  125.8460  124.6850   60.9760 N   0  0  0  0  0  0  0  0  0  0  0  0
  127.6760  123.0890   60.7200 C   0  0  0  0  0  0  0  0  0  0  0  0
  128.2720  123.1500   62.0540 C   0  0  0  0  0  0  0  0  0  0  0  0
  127.6380  123.5710   63.0230 O   0  0  0  0  0  0  0  0  0  0  0  0
  129.5330  122.6830   62.1590 N   0  0  0  0  0  0  0  0  0  0  0  0
  130.3300  122.6590   63.3850 C   0  0  0  0  0  0  0  0  0  0  0  0
  131.5690  123.5440   63.3250 C   0  0  0  0  0  0  0  0  0  0  0  0
  131.9500  124.2950   64.4400 C   0  0  0  0  0  0  0  0  0  0  0  0
  133.1040  125.0730   64.3940 C   0  0  0  0  0  0  0  0  0  0  0  0
  133.8820  125.0860   63.2390 C   0  0  0  0  0  0  0  0  0  0  0  0
  133.5190  124.3260   62.1300 C   0  0  0  0  0  0  0  0  0  0  0  0
  132.3630  123.5490   62.1740 C   0  0  0  0  0  0  0  0  0  0  0  0
  128.3980  122.0710   59.4780 S   0  0  0  0  0  0  0  0  0  0  0  0
  127.2100  122.5840   58.3040 C   0  0  0  0  0  0  0  0  0  0  0  0
  127.2210  122.1180   57.0550 N   0  0  0  0  0  0  0  0  0  0  0  0
  1  2  1  0
  2  3  2  0
  3  4  1  0
  4  5  1  0
  5  6  1  0
  5  7  1  0
  5  8  1  0
  4  9  2  0
  9 10  1  0
 10 11  1  0
 10 12  2  0
 12 13  1  0
 13 14  2  0
 13 15  1  0
 15 16  1  0
 16 17  1  0
 17 18  2  0
 18 19  1  0
 19 20  2  0
 20 21  1  0
 21 22  2  0
 12 23  1  0
 23 24  1  0
 24 25  2  0
 25  2  1  0
 24  9  1  0
 22 17  1  0
M  END
>  <Binding energies>  (29) 
[-6.95]

>  <Ligand effiencies>  (29) 
[-0.24821428571428572]

>  <Interactions>  (29) 
["H-B:GLU:543:OE2:9881, V-B:LEU:363:CD1:8160, V-B:PRO:540:N:9855, V-B:PRO:540:CA:9854, V-B:ALA:541:CB:9863, V-B:MET:535:CE:9806, V-B:TYR:539:C:9838, V-B:TYR:539:CE1:9846, V-B:TYR:539:CD1:9844, V-B:PRO:540:CB:9856, H-B:ASP:366:OD2:8186, V-B:ASP:366:CG:8184, V-B:ASP:366:CB:8183, V-B:TYR:539:CD2:9845, H-B:TYR:539:N:9841, V-B:LEU:363:CA:8156, V-B:TYR:539:CE2:9847, V-B:TYR:531:CZ:9765, V-B:TYR:531:CE2:9764, V-B:PRO:540:CD:9858, V-B:ILE:538:CD1:9836, V-B:LEU:363:CB:8158, V-B:ILE:538:CA:9831, V-B:ILE:538:CB:9833, V-B:ILE:538:C:9829, V-B:ASN:362:C:8143, V-A:ILE:369:CD1:3238, V-A:ARG:545:CZ:4926, V-A:GLY:453:CA:4043, V-B:LEU:363:CG:8159, V-B:LEU:363:C:8154"]

$$$$
4ca_Grossjean_2025
     RDKit          3D

 34 37  0  0  0  0  0  0  0  0999 V2000
  123.7890  124.7050   57.7390 C   0  0  0  0  0  0  0  0  0  0  0  0
  124.8710  124.2180   56.7710 C   0  0  0  0  0  0  0  0  0  0  0  0
  125.1870  122.8620   57.0600 O   0  0  0  0  0  0  0  0  0  0  0  0
  126.4530  122.4900   57.3840 C   0  0  0  0  0  0  0  0  0  0  0  0
  127.1150  121.6830   56.7230 O   0  0  0  0  0  0  0  0  0  0  0  0
  126.9680  123.1600   58.6240 C   0  0  0  0  0  0  0  0  0  0  0  0
  126.0710  123.4780   59.6530 C   0  0  0  0  0  0  0  0  0  0  0  0
  126.5200  124.0950   60.8170 C   0  0  0  0  0  0  0  0  0  0  0  0
  127.8690  124.4140   60.9750 C   0  0  0  0  0  0  0  0  0  0  0  0
  128.2140  125.0290   62.1940 N   0  0  0  0  0  0  0  0  0  0  0  0
  129.4210  125.1520   62.7980 C   0  0  0  0  0  0  0  0  0  0  0  0
  130.4810  124.7570   62.3120 O   0  0  0  0  0  0  0  0  0  0  0  0
  129.4040  125.8220   64.1010 C   0  0  0  0  0  0  0  0  0  0  0  0
  130.3020  125.1460   65.4570 S   0  0  0  0  0  0  0  0  0  0  0  0
  129.8190  126.4680   66.4930 C   0  0  0  0  0  0  0  0  0  0  0  0
  130.2190  126.5370   67.7610 N   0  0  0  0  0  0  0  0  0  0  0  0
  129.8050  127.6090   68.4850 C   0  0  0  0  0  0  0  0  0  0  0  0
  130.2800  127.6630   69.9090 C   0  0  0  0  0  0  0  0  0  0  0  0
  129.4930  127.1440   70.9500 C   0  0  0  0  0  0  0  0  0  0  0  0
  129.9260  127.1960   72.2720 C   0  0  0  0  0  0  0  0  0  0  0  0
  131.1560  127.7720   72.5740 C   0  0  0  0  0  0  0  0  0  0  0  0
  131.9540  128.2960   71.5630 C   0  0  0  0  0  0  0  0  0  0  0  0
  131.5180  128.2420   70.2420 C   0  0  0  0  0  0  0  0  0  0  0  0
  128.9740  128.5930   67.9400 C   0  0  0  0  0  0  0  0  0  0  0  0
  128.5430  128.5270   66.6060 C   0  0  0  0  0  0  0  0  0  0  0  0
  127.6370  129.6420   66.0720 C   0  0  0  0  0  0  0  0  0  0  0  0
  128.0880  130.1870   64.9410 F   0  0  0  0  0  0  0  0  0  0  0  0
  126.4220  129.1550   65.8220 F   0  0  0  0  0  0  0  0  0  0  0  0
  127.5430  130.6180   66.9740 F   0  0  0  0  0  0  0  0  0  0  0  0
  128.9860  127.4160   65.8320 C   0  0  0  0  0  0  0  0  0  0  0  0
  128.7670  127.0220   64.4620 C   0  0  0  0  0  0  0  0  0  0  0  0
  128.0010  127.7560   63.5930 N   0  0  0  0  0  0  0  0  0  0  0  0
  128.7750  124.0950   59.9530 C   0  0  0  0  0  0  0  0  0  0  0  0
  128.3250  123.4750   58.7900 C   0  0  0  0  0  0  0  0  0  0  0  0
  1  2  1  0
  2  3  1  0
  3  4  1  0
  4  5  2  0
  4  6  1  0
  6  7  2  0
  7  8  1  0
  8  9  2  0
  9 10  1  0
 10 11  1  0
 11 12  2  0
 11 13  1  0
 13 14  1  0
 14 15  1  0
 15 16  2  0
 16 17  1  0
 17 18  1  0
 18 19  2  0
 19 20  1  0
 20 21  2  0
 21 22  1  0
 22 23  2  0
 17 24  2  0
 24 25  1  0
 25 26  1  0
 26 27  1  0
 26 28  1  0
 26 29  1  0
 25 30  2  0
 30 31  1  0
 31 32  1  0
  9 33  1  0
 33 34  2  0
 34  6  1  0
 31 13  2  0
 30 15  1  0
 23 18  1  0
M  END
>  <Binding energies>  (30) 
[-7.83]

>  <Ligand effiencies>  (30) 
[-0.21162162162162163]

>  <Interactions>  (30) 
["V-B:TYR:539:CZ:9848, H-B:GLU:543:OE2:9881, V-B:LEU:363:CD1:8160, V-B:PRO:540:N:9855, V-B:PRO:540:CA:9854, V-B:MET:535:CE:9806, V-B:TYR:539:C:9838, V-B:PRO:540:CB:9856, V-B:GLU:543:CD:9879, V-B:HIS:456:CE1:9041, V-A:GLU:543:CG:4907, V-A:GLU:543:CD:4908, V-B:ASP:366:CB:8183, H-B:TYR:539:N:9841, V-B:LEU:363:CA:8156, V-B:TYR:539:CE2:9847, V-B:TYR:531:CZ:9765, V-B:TYR:531:CE2:9764, V-B:PRO:540:CD:9858, V-B:GLU:543:CG:9878, H-B:GLU:543:OE1:9880, V-A:HIS:456:CE1:4069, V-A:ARG:545:CG:4922, V-A:GLY:544:C:4912, V-A:ARG:545:CA:4919, V-A:GLU:543:CB:4906, V-B:TYR:484:CE1:9316, V-B:TYR:484:CZ:9318"]

$$$$
4cb_Grossjean_2025
     RDKit          3D

 33 36  0  0  0  0  0  0  0  0999 V2000
  127.0250  122.4330   53.9820 C   0  0  0  0  0  0  0  0  0  0  0  0
  126.7730  121.7900   55.2240 O   0  0  0  0  0  0  0  0  0  0  0  0
  125.6370  122.0420   55.9230 C   0  0  0  0  0  0  0  0  0  0  0  0
  124.6230  121.3410   55.8530 O   0  0  0  0  0  0  0  0  0  0  0  0
  125.7350  123.2630   56.7930 C   0  0  0  0  0  0  0  0  0  0  0  0
  126.8520  124.1010   56.6730 C   0  0  0  0  0  0  0  0  0  0  0  0
  126.9680  125.2440   57.4590 C   0  0  0  0  0  0  0  0  0  0  0  0
  125.9760  125.5690   58.3850 C   0  0  0  0  0  0  0  0  0  0  0  0
  126.1890  126.7530   59.1170 N   0  0  0  0  0  0  0  0  0  0  0  0
  127.2970  127.1960   59.7590 C   0  0  0  0  0  0  0  0  0  0  0  0
  128.3780  126.6050   59.7590 O   0  0  0  0  0  0  0  0  0  0  0  0
  127.1450  128.4720   60.4630 C   0  0  0  0  0  0  0  0  0  0  0  0
  127.3040  129.9930   59.5880 S   0  0  0  0  0  0  0  0  0  0  0  0
  126.9610  130.9140   61.0340 C   0  0  0  0  0  0  0  0  0  0  0  0
  126.9300  132.2440   61.0200 N   0  0  0  0  0  0  0  0  0  0  0  0
  126.6440  132.8720   62.1900 C   0  0  0  0  0  0  0  0  0  0  0  0
  126.6110  134.3720   62.1410 C   0  0  0  0  0  0  0  0  0  0  0  0
  127.7450  135.1020   61.7510 C   0  0  0  0  0  0  0  0  0  0  0  0
  127.7230  136.4940   61.7070 C   0  0  0  0  0  0  0  0  0  0  0  0
  126.5620  137.1770   62.0540 C   0  0  0  0  0  0  0  0  0  0  0  0
  125.4250  136.4780   62.4470 C   0  0  0  0  0  0  0  0  0  0  0  0
  125.4520  135.0870   62.4910 C   0  0  0  0  0  0  0  0  0  0  0  0
  126.4120  132.1600   63.3720 C   0  0  0  0  0  0  0  0  0  0  0  0
  126.4450  130.7580   63.3980 C   0  0  0  0  0  0  0  0  0  0  0  0
  126.1800  130.0410   64.7280 C   0  0  0  0  0  0  0  0  0  0  0  0
  127.2130  129.3040   65.1400 F   0  0  0  0  0  0  0  0  0  0  0  0
  125.9260  130.9390   65.6800 F   0  0  0  0  0  0  0  0  0  0  0  0
  125.1330  129.2260   64.6010 F   0  0  0  0  0  0  0  0  0  0  0  0
  126.7280  130.0890   62.1730 C   0  0  0  0  0  0  0  0  0  0  0  0
  126.8350  128.6950   61.8150 C   0  0  0  0  0  0  0  0  0  0  0  0
  126.6500  127.6820   62.7210 N   0  0  0  0  0  0  0  0  0  0  0  0
  124.8530  124.7370   58.5100 C   0  0  0  0  0  0  0  0  0  0  0  0
  124.7380  123.5960   57.7220 C   0  0  0  0  0  0  0  0  0  0  0  0
  1  2  1  0
  2  3  1  0
  3  4  2  0
  3  5  1  0
  5  6  2  0
  6  7  1  0
  7  8  2  0
  8  9  1  0
  9 10  1  0
 10 11  2  0
 10 12  1  0
 12 13  1  0
 13 14  1  0
 14 15  2  0
 15 16  1  0
 16 17  1  0
 17 18  2  0
 18 19  1  0
 19 20  2  0
 20 21  1  0
 21 22  2  0
 16 23  2  0
 23 24  1  0
 24 25  1  0
 25 26  1  0
 25 27  1  0
 25 28  1  0
 24 29  2  0
 29 30  1  0
 30 31  1  0
  8 32  1  0
 32 33  2  0
 33  5  1  0
 30 12  2  0
 29 14  1  0
 22 17  1  0
M  END
>  <Binding energies>  (31) 
[-8.43]

>  <Ligand effiencies>  (31) 
[-0.23416666666666666]

>  <Interactions>  (31) 
["V-A:TYR:539:CD2:4874, H-B:GLU:543:OE2:9881, V-B:LEU:363:CD1:8160, V-B:PRO:540:N:9855, V-B:PRO:540:CA:9854, V-B:MET:535:CE:9806, V-B:TYR:539:CE1:9846, V-B:TYR:539:CD1:9844, V-B:PRO:540:CB:9856, H-B:ASP:366:OD2:8186, V-B:ASP:366:CG:8184, V-B:TRP:381:CZ3:8342, V-B:TRP:381:CZ2:8341, V-B:TRP:381:CH2:8343, V-A:ALA:541:CB:4892, V-B:LEU:475:CD1:9229, V-B:TRP:381:CE2:8338, V-B:PRO:482:CB:9297, V-B:PRO:482:CG:9298, V-B:GLU:543:CD:9879, V-B:ARG:545:CZ:9897, H-B:TYR:531:OH:9766, H-B:TYR:539:N:9841, V-B:PRO:540:CD:9858, V-B:ILE:538:CD1:9836, V-B:ILE:538:CG2:9834, V-B:ILE:538:CA:9831, V-B:MET:535:CB:9803, V-B:VAL:537:C:9821, H-B:GLU:543:OE1:9880"]

$$$$
4cc_Grossjean_2025
     RDKit          3D

 31 34  0  0  0  0  0  0  0  0999 V2000
  126.7220  122.0480   54.5750 C   0  0  0  0  0  0  0  0  0  0  0  0
  126.0280  122.0010   55.8170 O   0  0  0  0  0  0  0  0  0  0  0  0
  125.9760  123.1360   56.6030 C   0  0  0  0  0  0  0  0  0  0  0  0
  127.0320  124.0370   56.4670 C   0  0  0  0  0  0  0  0  0  0  0  0
  127.0650  125.2090   57.2160 C   0  0  0  0  0  0  0  0  0  0  0  0
  126.0430  125.4920   58.1250 C   0  0  0  0  0  0  0  0  0  0  0  0
  126.1540  126.7070   58.8260 N   0  0  0  0  0  0  0  0  0  0  0  0
  127.2680  127.3700   59.2210 C   0  0  0  0  0  0  0  0  0  0  0  0
  128.4160  126.9980   58.9710 O   0  0  0  0  0  0  0  0  0  0  0  0
  127.0320  128.5990   59.9850 C   0  0  0  0  0  0  0  0  0  0  0  0
  127.2990  130.1740   59.2390 S   0  0  0  0  0  0  0  0  0  0  0  0
  126.8170  130.9980   60.7020 C   0  0  0  0  0  0  0  0  0  0  0  0
  126.8040  132.3270   60.7780 N   0  0  0  0  0  0  0  0  0  0  0  0
  126.4050  132.8780   61.9540 C   0  0  0  0  0  0  0  0  0  0  0  0
  126.4040  134.3780   62.0110 C   0  0  0  0  0  0  0  0  0  0  0  0
  127.5420  135.1120   61.6410 C   0  0  0  0  0  0  0  0  0  0  0  0
  127.5490  136.5040   61.6940 C   0  0  0  0  0  0  0  0  0  0  0  0
  126.4130  137.1840   62.1200 C   0  0  0  0  0  0  0  0  0  0  0  0
  125.2720  136.4810   62.4950 C   0  0  0  0  0  0  0  0  0  0  0  0
  125.2710  135.0890   62.4420 C   0  0  0  0  0  0  0  0  0  0  0  0
  126.0380  132.0930   63.0510 C   0  0  0  0  0  0  0  0  0  0  0  0
  126.0500  130.6900   62.9820 C   0  0  0  0  0  0  0  0  0  0  0  0
  125.6300  129.8920   64.2210 C   0  0  0  0  0  0  0  0  0  0  0  0
  126.3420  128.7750   64.3920 F   0  0  0  0  0  0  0  0  0  0  0  0
  125.7890  130.6380   65.3140 F   0  0  0  0  0  0  0  0  0  0  0  0
  124.3490  129.5360   64.1150 F   0  0  0  0  0  0  0  0  0  0  0  0
  126.4580  130.1020   61.7510 C   0  0  0  0  0  0  0  0  0  0  0  0
  126.5950  128.7350   61.3120 C   0  0  0  0  0  0  0  0  0  0  0  0
  126.3180  127.6640   62.1240 N   0  0  0  0  0  0  0  0  0  0  0  0
  124.9720  124.5970   58.2590 C   0  0  0  0  0  0  0  0  0  0  0  0
  124.9420  123.4260   57.5070 C   0  0  0  0  0  0  0  0  0  0  0  0
  1  2  1  0
  2  3  1  0
  3  4  2  0
  4  5  1  0
  5  6  2  0
  6  7  1  0
  7  8  1  0
  8  9  2  0
  8 10  1  0
 10 11  1  0
 11 12  1  0
 12 13  2  0
 13 14  1  0
 14 15  1  0
 15 16  2  0
 16 17  1  0
 17 18  2  0
 18 19  1  0
 19 20  2  0
 14 21  2  0
 21 22  1  0
 22 23  1  0
 23 24  1  0
 23 25  1  0
 23 26  1  0
 22 27  2  0
 27 28  1  0
 28 29  1  0
  6 30  1  0
 30 31  2  0
 31  3  1  0
 28 10  2  0
 27 12  1  0
 20 15  1  0
M  END
>  <Binding energies>  (32) 
[-8.18]

>  <Ligand effiencies>  (32) 
[-0.24058823529411763]

>  <Interactions>  (32) 
["V-A:TYR:539:CD2:4874, H-B:GLU:543:OE2:9881, V-B:LEU:363:CD1:8160, V-B:PRO:540:CA:9854, V-B:MET:535:CE:9806, V-B:TYR:539:CE1:9846, V-B:TYR:539:CD1:9844, H-B:ASP:366:OD1:8185, V-B:PRO:540:CB:9856, H-B:ASP:366:OD2:8186, V-B:ASP:366:CG:8184, V-B:TRP:381:CZ3:8342, V-B:TRP:381:CZ2:8341, V-B:TRP:381:CH2:8343, V-A:ALA:541:CB:4892, V-B:LEU:475:CD1:9229, V-B:TRP:381:CE2:8338, V-B:PRO:482:CB:9297, V-B:PRO:482:CG:9298, V-B:GLU:543:CD:9879, V-B:ARG:545:CZ:9897, H-B:TYR:531:OH:9766, H-B:TYR:539:N:9841, V-B:ILE:538:CD1:9836, V-B:ILE:538:CA:9831, V-B:ILE:538:C:9829, V-B:VAL:537:C:9821, H-B:GLU:543:OE1:9880"]

$$$$
4ce_Grossjean_2025
     RDKit          3D

 30 33  0  0  0  0  0  0  0  0999 V2000
  127.4190  123.2830   55.4610 C   0  0  0  0  0  0  0  0  0  0  0  0
  126.3950  123.7050   56.4970 C   0  0  0  0  0  0  0  0  0  0  0  0
  125.2780  122.9160   56.7850 C   0  0  0  0  0  0  0  0  0  0  0  0
  124.3820  123.3640   57.7560 C   0  0  0  0  0  0  0  0  0  0  0  0
  124.6200  124.5740   58.4100 C   0  0  0  0  0  0  0  0  0  0  0  0
  125.7560  125.3190   58.0690 C   0  0  0  0  0  0  0  0  0  0  0  0
  125.9540  126.5170   58.7780 N   0  0  0  0  0  0  0  0  0  0  0  0
  127.1170  127.1600   59.0490 C   0  0  0  0  0  0  0  0  0  0  0  0
  128.2220  126.7650   58.6730 O   0  0  0  0  0  0  0  0  0  0  0  0
  126.9880  128.3890   59.8360 C   0  0  0  0  0  0  0  0  0  0  0  0
  127.2500  129.9580   59.0790 S   0  0  0  0  0  0  0  0  0  0  0  0
  126.8850  130.7890   60.5720 C   0  0  0  0  0  0  0  0  0  0  0  0
  126.9100  132.1170   60.6510 N   0  0  0  0  0  0  0  0  0  0  0  0
  126.5960  132.6740   61.8500 C   0  0  0  0  0  0  0  0  0  0  0  0
  126.6280  134.1730   61.9040 C   0  0  0  0  0  0  0  0  0  0  0  0
  125.4540  134.9070   62.1420 C   0  0  0  0  0  0  0  0  0  0  0  0
  125.4750  136.2980   62.1870 C   0  0  0  0  0  0  0  0  0  0  0  0
  126.6740  136.9770   61.9950 C   0  0  0  0  0  0  0  0  0  0  0  0
  127.8500  136.2750   61.7570 C   0  0  0  0  0  0  0  0  0  0  0  0
  127.8250  134.8830   61.7110 C   0  0  0  0  0  0  0  0  0  0  0  0
  126.2810  131.8950   62.9680 C   0  0  0  0  0  0  0  0  0  0  0  0
  126.2570  130.4930   62.8970 C   0  0  0  0  0  0  0  0  0  0  0  0
  125.9010  129.7000   64.1590 C   0  0  0  0  0  0  0  0  0  0  0  0
  125.9430  130.4380   65.2700 F   0  0  0  0  0  0  0  0  0  0  0  0
  124.6650  129.2110   64.0510 F   0  0  0  0  0  0  0  0  0  0  0  0
  126.7600  128.6940   64.3160 F   0  0  0  0  0  0  0  0  0  0  0  0
  126.5690  129.8990   61.6400 C   0  0  0  0  0  0  0  0  0  0  0  0
  126.6380  128.5300   61.1900 C   0  0  0  0  0  0  0  0  0  0  0  0
  126.3810  127.4640   62.0130 N   0  0  0  0  0  0  0  0  0  0  0  0
  126.6400  124.8850   57.1230 N   0  0  0  0  0  0  0  0  0  0  0  0
  1  2  1  0
  2  3  2  0
  3  4  1  0
  4  5  2  0
  5  6  1  0
  6  7  1  0
  7  8  1  0
  8  9  2  0
  8 10  1  0
 10 11  1  0
 11 12  1  0
 12 13  2  0
 13 14  1  0
 14 15  1  0
 15 16  2  0
 16 17  1  0
 17 18  2  0
 18 19  1  0
 19 20  2  0
 14 21  2  0
 21 22  1  0
 22 23  1  0
 23 24  1  0
 23 25  1  0
 23 26  1  0
 22 27  2  0
 27 28  1  0
 28 29  1  0
  6 30  2  0
 30  2  1  0
 28 10  2  0
 27 12  1  0
 20 15  1  0
M  END
>  <Binding energies>  (33) 
[-7.46]

>  <Ligand effiencies>  (33) 
[-0.22606060606060607]

>  <Interactions>  (33) 
["V-A:TYR:539:CD2:4874, V-B:TYR:539:CZ:9848, H-B:GLU:543:OE2:9881, V-B:LEU:363:CD1:8160, V-B:PRO:540:N:9855, V-B:PRO:540:CA:9854, V-B:MET:535:CE:9806, V-B:TYR:539:CE1:9846, V-B:TYR:539:CD1:9844, H-B:ASP:366:OD1:8185, V-B:PRO:540:CB:9856, H-B:ASP:366:OD2:8186, V-B:ASP:366:CG:8184, V-B:TRP:381:CZ3:8342, V-B:TRP:381:CZ2:8341, V-B:TRP:381:CH2:8343, V-A:ALA:541:CB:4892, V-B:LEU:475:CD1:9229, V-B:TRP:381:CE2:8338, V-B:PRO:482:CB:9297, V-B:PRO:482:CG:9298, V-B:GLU:543:CD:9879, V-B:ARG:545:CZ:9897, H-B:TYR:531:OH:9766, V-B:ASP:366:CB:8183, V-B:LEU:363:CA:8156, V-B:PRO:540:CD:9858, V-B:LEU:363:CB:8158"]

$$$$
4cf_Grossjean_2025
     RDKit          3D

 29 32  0  0  0  0  0  0  0  0999 V2000
  127.8770  123.8910   63.3090 N   0  0  0  0  0  0  0  0  0  0  0  0
  128.5350  123.5370   62.1590 C   0  0  0  0  0  0  0  0  0  0  0  0
  129.9110  123.2580   62.1150 C   0  0  0  0  0  0  0  0  0  0  0  0
  130.8910  123.3160   63.2030 C   0  0  0  0  0  0  0  0  0  0  0  0
  131.4250  122.2870   63.6210 O   0  0  0  0  0  0  0  0  0  0  0  0
  131.1560  124.5560   63.6800 N   0  0  0  0  0  0  0  0  0  0  0  0
  131.9950  124.9510   64.7390 C   0  0  0  0  0  0  0  0  0  0  0  0
  131.5620  125.4290   65.9910 C   0  0  0  0  0  0  0  0  0  0  0  0
  132.5050  125.8020   66.9510 C   0  0  0  0  0  0  0  0  0  0  0  0
  133.8590  125.6890   66.6370 C   0  0  0  0  0  0  0  0  0  0  0  0
  134.3030  125.2390   65.4370 N   0  0  0  0  0  0  0  0  0  0  0  0
  133.3750  124.8810   64.5120 C   0  0  0  0  0  0  0  0  0  0  0  0
  130.4210  122.8310   60.4830 S   0  0  0  0  0  0  0  0  0  0  0  0
  128.7960  123.0360   59.8730 C   0  0  0  0  0  0  0  0  0  0  0  0
  128.5070  122.8470   58.5870 N   0  0  0  0  0  0  0  0  0  0  0  0
  127.2180  123.0480   58.2050 C   0  0  0  0  0  0  0  0  0  0  0  0
  126.9240  122.8340   56.7480 C   0  0  0  0  0  0  0  0  0  0  0  0
  125.7530  122.1750   56.3420 C   0  0  0  0  0  0  0  0  0  0  0  0
  125.4720  121.9740   54.9930 C   0  0  0  0  0  0  0  0  0  0  0  0
  126.3620  122.4340   54.0280 C   0  0  0  0  0  0  0  0  0  0  0  0
  127.5280  123.0940   54.4020 C   0  0  0  0  0  0  0  0  0  0  0  0
  127.8040  123.2930   55.7520 C   0  0  0  0  0  0  0  0  0  0  0  0
  126.2240  123.4110   59.1170 C   0  0  0  0  0  0  0  0  0  0  0  0
  126.5170  123.6080   60.4760 C   0  0  0  0  0  0  0  0  0  0  0  0
  125.3790  124.0120   61.4210 C   0  0  0  0  0  0  0  0  0  0  0  0
  125.5240  125.2410   61.9210 F   0  0  0  0  0  0  0  0  0  0  0  0
  124.2180  123.9810   60.7680 F   0  0  0  0  0  0  0  0  0  0  0  0
  125.3270  123.1670   62.4510 F   0  0  0  0  0  0  0  0  0  0  0  0
  127.8690  123.4200   60.8850 C   0  0  0  0  0  0  0  0  0  0  0  0
  1  2  1  0
  2  3  2  0
  3  4  1  0
  4  5  2  0
  4  6  1  0
  6  7  1  0
  7  8  2  0
  8  9  1  0
  9 10  2  0
 10 11  1  0
 11 12  2  0
  3 13  1  0
 13 14  1  0
 14 15  2  0
 15 16  1  0
 16 17  1  0
 17 18  2  0
 18 19  1  0
 19 20  2  0
 20 21  1  0
 21 22  2  0
 16 23  2  0
 23 24  1  0
 24 25  1  0
 25 26  1  0
 25 27  1  0
 25 28  1  0
 24 29  2  0
 29  2  1  0
 12  7  1  0
 29 14  1  0
 22 17  1  0
M  END
>  <Binding energies>  (34) 
[-7.79]

>  <Ligand effiencies>  (34) 
[-0.2434375]

>  <Interactions>  (34) 
["V-B:TYR:539:CZ:9848, H-B:GLU:543:OE2:9881, V-B:LEU:363:CD1:8160, V-B:PRO:540:N:9855, V-B:PRO:540:CA:9854, V-B:ALA:541:CB:9863, V-B:MET:535:CE:9806, V-B:TYR:539:C:9838, V-B:TYR:539:CE1:9846, V-B:TYR:539:CD1:9844, V-B:PRO:540:CB:9856, V-B:GLU:543:CD:9879, V-B:ARG:545:CZ:9897, V-B:PRO:540:C:9852, V-B:TYR:539:CE2:9847, V-B:PRO:540:CD:9858, V-B:ILE:538:CD1:9836, V-B:ILE:538:CG2:9834, V-B:ILE:538:CA:9831, V-B:ILE:538:CB:9833, V-B:ILE:538:C:9829, V-B:MET:535:CB:9803, V-B:VAL:537:C:9821, V-B:ALA:541:CA:9861, V-B:ASN:362:C:8143, V-B:ASN:362:CB:8147, V-B:ALA:541:C:9859, V-B:GLU:543:CG:9878, H-A:GLY:454:N:4049, V-A:ARG:545:CZ:4926, H-A:ARG:545:NE:4924, H-A:TYR:484:OH:4347, H-A:ARG:545:NH1:4927, V-A:HIS:456:CE1:4069, V-A:ARG:545:CD:4923, V-A:ARG:545:CG:4922, V-A:GLY:454:CA:4048, V-B:ILE:538:CG1:9835"]

$$$$
4ci_Grossjean_2025
     RDKit          3D

 28 31  0  0  0  0  0  0  0  0999 V2000
  128.2380  123.8720   63.5100 N   0  0  0  0  0  0  0  0  0  0  0  0
  128.8170  123.5780   62.3030 C   0  0  0  0  0  0  0  0  0  0  0  0
  130.1980  123.3820   62.1400 C   0  0  0  0  0  0  0  0  0  0  0  0
  131.2540  123.4300   63.1560 C   0  0  0  0  0  0  0  0  0  0  0  0
  131.7570  122.3910   63.5890 O   0  0  0  0  0  0  0  0  0  0  0  0
  131.6060  124.6720   63.5730 N   0  0  0  0  0  0  0  0  0  0  0  0
  132.5660  125.0050   64.5200 C   0  0  0  0  0  0  0  0  0  0  0  0
  132.2500  125.4120   65.8160 C   0  0  0  0  0  0  0  0  0  0  0  0
  133.4610  125.6450   66.4230 C   0  0  0  0  0  0  0  0  0  0  0  0
  134.4570  125.3920   65.5390 O   0  0  0  0  0  0  0  0  0  0  0  0
  133.8760  124.9880   64.3360 N   0  0  0  0  0  0  0  0  0  0  0  0
  130.5960  123.0130   60.4640 S   0  0  0  0  0  0  0  0  0  0  0  0
  128.9170  123.1330   59.9920 C   0  0  0  0  0  0  0  0  0  0  0  0
  128.5330  122.9420   58.7320 N   0  0  0  0  0  0  0  0  0  0  0  0
  127.2070  123.0530   58.4610 C   0  0  0  0  0  0  0  0  0  0  0  0
  126.8060  122.8360   57.0300 C   0  0  0  0  0  0  0  0  0  0  0  0
  127.6350  123.2590   55.9770 C   0  0  0  0  0  0  0  0  0  0  0  0
  127.2690  123.0600   54.6480 C   0  0  0  0  0  0  0  0  0  0  0  0
  126.0620  122.4340   54.3520 C   0  0  0  0  0  0  0  0  0  0  0  0
  125.2200  122.0100   55.3730 C   0  0  0  0  0  0  0  0  0  0  0  0
  125.5900  122.2120   56.7010 C   0  0  0  0  0  0  0  0  0  0  0  0
  126.2760  123.3730   59.4540 C   0  0  0  0  0  0  0  0  0  0  0  0
  126.6690  123.5760   60.7870 C   0  0  0  0  0  0  0  0  0  0  0  0
  125.5950  123.9230   61.8240 C   0  0  0  0  0  0  0  0  0  0  0  0
  124.3570  123.6490   61.4090 F   0  0  0  0  0  0  0  0  0  0  0  0
  125.8060  123.2250   62.9390 F   0  0  0  0  0  0  0  0  0  0  0  0
  125.6430  125.2260   62.1050 F   0  0  0  0  0  0  0  0  0  0  0  0
  128.0560  123.4500   61.0830 C   0  0  0  0  0  0  0  0  0  0  0  0
  1  2  1  0
  2  3  2  0
  3  4  1  0
  4  5  2  0
  4  6  1  0
  6  7  1  0
  7  8  1  0
  8  9  2  0
  9 10  1  0
 10 11  1  0
  3 12  1  0
 12 13  1  0
 13 14  2  0
 14 15  1  0
 15 16  1  0
 16 17  2  0
 17 18  1  0
 18 19  2  0
 19 20  1  0
 20 21  2  0
 15 22  2  0
 22 23  1  0
 23 24  1  0
 24 25  1  0
 24 26  1  0
 24 27  1  0
 23 28  2  0
 28  2  1  0
 11  7  2  0
 28 13  1  0
 21 16  1  0
M  END
>  <Binding energies>  (35) 
[-8.3]

>  <Ligand effiencies>  (35) 
[-0.267741935483871]

>  <Interactions>  (35) 
["V-B:TYR:539:CZ:9848, H-B:GLU:543:OE2:9881, V-B:LEU:363:CD1:8160, V-B:PRO:540:N:9855, V-B:PRO:540:CA:9854, V-B:ALA:541:CB:9863, V-B:MET:535:CE:9806, V-B:TYR:539:C:9838, V-B:TYR:539:CE1:9846, V-B:TYR:539:CD1:9844, V-B:PRO:540:CB:9856, V-B:GLU:543:CD:9879, V-B:ARG:545:CZ:9897, V-B:TYR:539:CE2:9847, V-B:PRO:540:CD:9858, V-B:ILE:538:CD1:9836, V-B:ILE:538:CG2:9834, V-B:ILE:538:CA:9831, V-B:ILE:538:CB:9833, V-B:ILE:538:C:9829, V-B:ALA:541:CA:9861, V-B:ASN:362:C:8143, V-B:ASN:362:CB:8147, V-B:ALA:541:C:9859, V-B:GLU:543:CG:9878, V-B:PRO:540:CG:9857, H-B:GLU:543:OE1:9880, H-A:GLY:454:N:4049, V-A:ARG:545:CZ:4926, H-A:ARG:545:NE:4924, H-A:ARG:545:NH1:4927, V-A:HIS:456:CE1:4069, V-A:ARG:545:CD:4923, V-A:ARG:545:CG:4922"]

$$$$
8a_Ghoteimi_2023
     RDKit          3D

 40 44  0  0  0  0  0  0  0  0999 V2000
  131.2210  132.2450   55.1600 C   0  0  0  0  0  0  0  0  0  0  0  0
  131.9810  132.5410   56.4560 C   0  0  0  0  0  0  0  0  0  0  0  0
  131.2390  133.4680   57.2380 O   0  0  0  0  0  0  0  0  0  0  0  0
  129.9230  133.2620   57.5090 C   0  0  0  0  0  0  0  0  0  0  0  0
  129.0090  133.6700   56.7850 O   0  0  0  0  0  0  0  0  0  0  0  0
  129.6910  132.4950   58.7780 C   0  0  0  0  0  0  0  0  0  0  0  0
  130.7150  131.6870   59.2850 C   0  0  0  0  0  0  0  0  0  0  0  0
  130.5300  130.9620   60.4600 C   0  0  0  0  0  0  0  0  0  0  0  0
  129.3200  131.0290   61.1510 C   0  0  0  0  0  0  0  0  0  0  0  0
  129.2450  130.2500   62.3230 N   0  0  0  0  0  0  0  0  0  0  0  0
  128.2080  129.5510   62.8460 C   0  0  0  0  0  0  0  0  0  0  0  0
  127.0880  129.4870   62.3400 O   0  0  0  0  0  0  0  0  0  0  0  0
  128.5020  128.8390   64.0940 C   0  0  0  0  0  0  0  0  0  0  0  0
  127.7630  129.3560   65.6090 S   0  0  0  0  0  0  0  0  0  0  0  0
  128.5900  128.0960   66.4960 C   0  0  0  0  0  0  0  0  0  0  0  0
  128.4500  127.9610   67.8150 N   0  0  0  0  0  0  0  0  0  0  0  0
  129.1420  126.9510   68.4070 C   0  0  0  0  0  0  0  0  0  0  0  0
  128.9860  126.8310   69.8900 C   0  0  0  0  0  0  0  0  0  0  0  0
  129.5870  127.7530   70.7580 C   0  0  0  0  0  0  0  0  0  0  0  0
  129.4480  127.6290   72.1370 C   0  0  0  0  0  0  0  0  0  0  0  0
  128.7050  126.5840   72.6830 C   0  0  0  0  0  0  0  0  0  0  0  0
  128.6230  126.5390   74.0620 O   0  0  0  0  0  0  0  0  0  0  0  0
  129.8090  126.3190   74.8190 C   0  0  0  0  0  0  0  0  0  0  0  0
  128.0950  125.6600   71.8240 C   0  0  0  0  0  0  0  0  0  0  0  0
  128.2380  125.7850   70.4440 C   0  0  0  0  0  0  0  0  0  0  0  0
  129.9600  126.0810   67.6840 C   0  0  0  0  0  0  0  0  0  0  0  0
  130.0960  126.2100   66.2970 C   0  0  0  0  0  0  0  0  0  0  0  0
  130.9540  125.2380   65.5720 C   0  0  0  0  0  0  0  0  0  0  0  0
  132.3010  125.5230   65.3430 C   0  0  0  0  0  0  0  0  0  0  0  0
  133.1130  124.6070   64.6820 C   0  0  0  0  0  0  0  0  0  0  0  0
  132.5960  123.3880   64.2430 C   0  0  0  0  0  0  0  0  0  0  0  0
  133.4750  122.5400   63.5970 O   0  0  0  0  0  0  0  0  0  0  0  0
  133.4220  122.4340   62.1790 C   0  0  0  0  0  0  0  0  0  0  0  0
  131.2430  123.0950   64.4790 C   0  0  0  0  0  0  0  0  0  0  0  0
  130.4330  124.0140   65.1420 C   0  0  0  0  0  0  0  0  0  0  0  0
  129.3990  127.2730   65.6580 C   0  0  0  0  0  0  0  0  0  0  0  0
  129.3440  127.7330   64.2920 C   0  0  0  0  0  0  0  0  0  0  0  0
  130.0690  127.1440   63.2860 N   0  0  0  0  0  0  0  0  0  0  0  0
  128.2890  131.8410   60.6520 C   0  0  0  0  0  0  0  0  0  0  0  0
  128.4760  132.5650   59.4770 C   0  0  0  0  0  0  0  0  0  0  0  0
  1  2  1  0
  2  3  1  0
  3  4  1  0
  4  5  2  0
  4  6  1  0
  6  7  2  0
  7  8  1  0
  8  9  2  0
  9 10  1  0
 10 11  1  0
 11 12  2  0
 11 13  1  0
 13 14  1  0
 14 15  1  0
 15 16  2  0
 16 17  1  0
 17 18  1  0
 18 19  2  0
 19 20  1  0
 20 21  2  0
 21 22  1  0
 22 23  1  0
 21 24  1  0
 24 25  2  0
 17 26  2  0
 26 27  1  0
 27 28  1  0
 28 29  2  0
 29 30  1  0
 30 31  2  0
 31 32  1  0
 32 33  1  0
 31 34  1  0
 34 35  2  0
 27 36  2  0
 36 37  1  0
 37 38  1  0
  9 39  1  0
 39 40  2  0
 40  6  1  0
 37 13  2  0
 36 15  1  0
 25 18  1  0
 35 28  1  0
M  END
>  <Binding energies>  (36) 
[-9.92]

>  <Ligand effiencies>  (36) 
[-0.23069767441860464]

>  <Interactions>  (36) 
["V-A:TYR:539:CE2:4876, V-A:TYR:539:CG:4872, V-A:LEU:363:CD1:3188, V-A:PRO:540:CA:4883, V-A:ILE:538:CG2:4863, V-A:TYR:539:CA:4869, H-A:GLU:543:OE1:4909, V-A:PRO:540:N:4884, V-A:TYR:539:CD2:4874, V-A:ILE:538:CA:4860, V-A:TYR:539:C:4867, H-A:TYR:539:N:4870, V-A:ILE:538:CB:4862, V-B:GLU:543:CD:9879, V-A:MET:535:CE:4835, V-B:HIS:456:CE1:9041, V-A:GLU:543:CG:4907, V-A:GLU:543:CD:4908, V-A:ILE:369:CG2:3236, V-A:ILE:369:CD1:3238, V-B:GLU:543:CG:9878, H-A:GLY:454:N:4049, V-A:ARG:545:CZ:4926, V-A:HIS:456:CE1:4069, V-A:GLY:454:CA:4048, V-B:GLU:543:CB:9877, V-B:HIS:456:CD2:9039, H-B:LYS:547:NZ:9922, V-B:GLU:543:C:9873"]

$$$$
8c_Ghoteimi_2023
     RDKit          3D

 34 38  0  0  0  0  0  0  0  0999 V2000
  129.0850  128.9970   75.3020 C   0  0  0  0  0  0  0  0  0  0  0  0
  130.1210  128.5930   74.4150 O   0  0  0  0  0  0  0  0  0  0  0  0
  129.8660  128.5450   73.0570 C   0  0  0  0  0  0  0  0  0  0  0  0
  129.7270  127.2780   72.4930 C   0  0  0  0  0  0  0  0  0  0  0  0
  129.4710  127.1340   71.1330 C   0  0  0  0  0  0  0  0  0  0  0  0
  129.3470  128.2550   70.3000 C   0  0  0  0  0  0  0  0  0  0  0  0
  129.0760  128.1070   68.8360 C   0  0  0  0  0  0  0  0  0  0  0  0
  128.2400  128.9910   68.1480 C   0  0  0  0  0  0  0  0  0  0  0  0
  128.0050  128.8310   66.7780 C   0  0  0  0  0  0  0  0  0  0  0  0
  127.1070  129.7800   66.0810 C   0  0  0  0  0  0  0  0  0  0  0  0
  125.7330  129.5350   66.0240 C   0  0  0  0  0  0  0  0  0  0  0  0
  124.8900  130.4330   65.3760 C   0  0  0  0  0  0  0  0  0  0  0  0
  125.4030  131.5830   64.7750 C   0  0  0  0  0  0  0  0  0  0  0  0
  124.4910  132.4170   64.1580 O   0  0  0  0  0  0  0  0  0  0  0  0
  123.9550  132.0460   62.8930 C   0  0  0  0  0  0  0  0  0  0  0  0
  126.7850  131.8240   64.8300 C   0  0  0  0  0  0  0  0  0  0  0  0
  127.6280  130.9260   65.4780 C   0  0  0  0  0  0  0  0  0  0  0  0
  128.6450  127.7520   66.1120 C   0  0  0  0  0  0  0  0  0  0  0  0
  128.6310  127.3040   64.7450 C   0  0  0  0  0  0  0  0  0  0  0  0
  127.9050  127.9400   63.7700 N   0  0  0  0  0  0  0  0  0  0  0  0
  129.4230  126.1680   64.5100 C   0  0  0  0  0  0  0  0  0  0  0  0
  129.6420  125.4540   63.2510 C   0  0  0  0  0  0  0  0  0  0  0  0
  130.7090  125.5620   62.6420 O   0  0  0  0  0  0  0  0  0  0  0  0
  128.6040  124.6910   62.8270 N   0  0  0  0  0  0  0  0  0  0  0  0
  128.5530  123.9170   61.6760 C   0  0  0  0  0  0  0  0  0  0  0  0
  127.8710  122.8100   61.4770 N   0  0  0  0  0  0  0  0  0  0  0  0
  128.0540  122.3400   60.2600 C   0  0  0  0  0  0  0  0  0  0  0  0
  128.9050  123.0720   59.4390 C   0  0  0  0  0  0  0  0  0  0  0  0
  129.4930  124.4510   60.3210 S   0  0  0  0  0  0  0  0  0  0  0  0
  130.2130  125.6260   65.9910 S   0  0  0  0  0  0  0  0  0  0  0  0
  129.4790  126.9180   66.9120 C   0  0  0  0  0  0  0  0  0  0  0  0
  129.7010  127.0680   68.2180 N   0  0  0  0  0  0  0  0  0  0  0  0
  129.4860  129.5260   70.8750 C   0  0  0  0  0  0  0  0  0  0  0  0
  129.7420  129.6740   72.2350 C   0  0  0  0  0  0  0  0  0  0  0  0
  1  2  1  0
  2  3  1  0
  3  4  2  0
  4  5  1  0
  5  6  2  0
  6  7  1  0
  7  8  2  0
  8  9  1  0
  9 10  1  0
 10 11  2  0
 11 12  1  0
 12 13  2  0
 13 14  1  0
 14 15  1  0
 13 16  1  0
 16 17  2  0
  9 18  2  0
 18 19  1  0
 19 20  1  0
 19 21  2  0
 21 22  1  0
 22 23  2  0
 22 24  1  0
 24 25  1  0
 25 26  2  0
 26 27  1  0
 27 28  2  0
 28 29  1  0
 21 30  1  0
 30 31  1  0
 31 32  2  0
  6 33  1  0
 33 34  2  0
 34  3  1  0
 32  7  1  0
 17 10  1  0
 31 18  1  0
 29 25  1  0
M  END
>  <Binding energies>  (37) 
[-8.34]

>  <Ligand effiencies>  (37) 
[-0.2254054054054054]

>  <Interactions>  (37) 
["V-B:TYR:539:CZ:9848, H-B:GLU:543:OE2:9881, V-B:PRO:540:N:9855, V-B:PRO:540:CA:9854, V-B:TYR:539:C:9838, V-B:GLY:454:CA:9020, V-B:LEU:475:CD1:9229, V-B:ILE:369:CD1:8210, H-B:GLY:454:N:9021, V-B:GLU:543:CD:9879, V-B:HIS:456:CE1:9041, V-A:GLU:543:CG:4907, V-A:GLU:543:CD:4908, V-B:TYR:539:CD2:9845, V-B:PRO:540:C:9852, V-B:TYR:539:CE2:9847, H-B:ALA:541:N:9862, V-B:GLU:543:CG:9878, H-B:GLU:543:OE1:9880, V-A:HIS:456:CE1:4069, V-A:GLU:543:C:4902, V-A:GLU:543:CB:4906, H-A:LYS:547:NZ:4951, V-A:LYS:547:CE:4950"]

$$$$
8d_Ghoteimi_2023
     RDKit          3D

 30 33  0  0  0  0  0  0  0  0999 V2000
  132.4880  132.1530   61.8620 C   0  0  0  0  0  0  0  0  0  0  0  0
  131.0800  132.0010   61.7410 O   0  0  0  0  0  0  0  0  0  0  0  0
  130.5040  131.8010   60.5270 C   0  0  0  0  0  0  0  0  0  0  0  0
  130.2080  132.7080   59.7460 O   0  0  0  0  0  0  0  0  0  0  0  0
  130.2630  130.3710   60.2330 C   0  0  0  0  0  0  0  0  0  0  0  0
  129.2120  129.9130   58.8910 S   0  0  0  0  0  0  0  0  0  0  0  0
  129.4590  128.2150   59.2260 C   0  0  0  0  0  0  0  0  0  0  0  0
  128.8790  127.2620   58.4960 N   0  0  0  0  0  0  0  0  0  0  0  0
  129.1390  125.9730   58.8410 C   0  0  0  0  0  0  0  0  0  0  0  0
  128.4730  124.9240   58.0080 C   0  0  0  0  0  0  0  0  0  0  0  0
  127.8360  123.8240   58.6000 C   0  0  0  0  0  0  0  0  0  0  0  0
  127.2190  122.8510   57.8210 C   0  0  0  0  0  0  0  0  0  0  0  0
  127.2210  122.9500   56.4300 C   0  0  0  0  0  0  0  0  0  0  0  0
  126.5840  121.9390   55.7370 O   0  0  0  0  0  0  0  0  0  0  0  0
  125.1940  122.0610   55.4530 C   0  0  0  0  0  0  0  0  0  0  0  0
  127.8530  124.0460   55.8270 C   0  0  0  0  0  0  0  0  0  0  0  0
  128.4690  125.0190   56.6100 C   0  0  0  0  0  0  0  0  0  0  0  0
  129.9690  125.6410   59.9160 C   0  0  0  0  0  0  0  0  0  0  0  0
  130.5790  126.6410   60.6800 C   0  0  0  0  0  0  0  0  0  0  0  0
  131.4600  126.2570   61.8080 C   0  0  0  0  0  0  0  0  0  0  0  0
  132.6780  125.6210   61.5620 C   0  0  0  0  0  0  0  0  0  0  0  0
  133.5020  125.2520   62.6220 C   0  0  0  0  0  0  0  0  0  0  0  0
  133.1240  125.5170   63.9390 C   0  0  0  0  0  0  0  0  0  0  0  0
  134.0030  125.1150   64.9260 O   0  0  0  0  0  0  0  0  0  0  0  0
  133.7050  125.4110   66.2850 C   0  0  0  0  0  0  0  0  0  0  0  0
  131.9000  126.1610   64.1840 C   0  0  0  0  0  0  0  0  0  0  0  0
  131.0770  126.5280   63.1220 C   0  0  0  0  0  0  0  0  0  0  0  0
  130.3240  127.9940   60.3360 C   0  0  0  0  0  0  0  0  0  0  0  0
  130.7680  129.2430   60.8910 C   0  0  0  0  0  0  0  0  0  0  0  0
  131.6070  129.3140   61.9740 N   0  0  0  0  0  0  0  0  0  0  0  0
  1  2  1  0
  2  3  1  0
  3  4  2  0
  3  5  1  0
  5  6  1  0
  6  7  1  0
  7  8  2  0
  8  9  1  0
  9 10  1  0
 10 11  2  0
 11 12  1  0
 12 13  2  0
 13 14  1  0
 14 15  1  0
 13 16  1  0
 16 17  2  0
  9 18  2  0
 18 19  1  0
 19 20  1  0
 20 21  2  0
 21 22  1  0
 22 23  2  0
 23 24  1  0
 24 25  1  0
 23 26  1  0
 26 27  2  0
 19 28  2  0
 28 29  1  0
 29 30  1  0
 29  5  2  0
 28  7  1  0
 17 10  1  0
 27 20  1  0
M  END
>  <Binding energies>  (38) 
[-7.31]

>  <Ligand effiencies>  (38) 
[-0.2284375]

>  <Interactions>  (38) 
["V-A:PRO:540:CA:4883, H-A:GLU:543:OE1:4909, H-A:ASP:366:OD1:3213, V-A:PRO:540:CB:4885, V-A:ASP:366:CG:3212, H-A:ASP:366:OD2:3214, V-B:TYR:539:CZ:9848, V-B:LEU:363:CD1:8160, V-B:PRO:540:N:9855, V-B:PRO:540:CA:9854, V-B:MET:535:CE:9806, V-B:TYR:539:C:9838, V-B:TYR:539:CE1:9846, V-B:TYR:539:CD1:9844, H-A:ALA:541:N:4891, V-A:PRO:540:C:4881, V-A:GLU:543:CD:4908, H-B:TYR:539:N:9841, V-B:PRO:540:CD:9858, V-B:ILE:538:CD1:9836, V-B:ILE:538:CG2:9834, V-B:ILE:538:CA:9831, V-B:ILE:538:CB:9833, V-B:ILE:538:C:9829, H-A:GLY:454:N:4049, V-A:ARG:545:CZ:4926, H-A:ARG:545:NE:4924, H-A:TYR:484:OH:4347, H-A:ARG:545:NH1:4927, V-A:HIS:456:CE1:4069, V-A:ARG:545:CD:4923, V-A:ARG:545:CG:4922"]

$$$$
9a_Ghoteimi_2023
     RDKit          3D

 48 54  0  0  0  0  0  0  0  0999 V2000
  131.3080  132.1380   54.9870 C   0  0  0  0  0  0  0  0  0  0  0  0
  132.0140  132.5500   56.2820 C   0  0  0  0  0  0  0  0  0  0  0  0
  131.2220  133.5130   56.9680 O   0  0  0  0  0  0  0  0  0  0  0  0
  129.9070  133.2890   57.2180 C   0  0  0  0  0  0  0  0  0  0  0  0
  128.9970  133.6960   56.4890 O   0  0  0  0  0  0  0  0  0  0  0  0
  129.6670  132.5020   58.4740 C   0  0  0  0  0  0  0  0  0  0  0  0
  130.7320  131.8070   59.0610 C   0  0  0  0  0  0  0  0  0  0  0  0
  130.5420  131.0670   60.2250 C   0  0  0  0  0  0  0  0  0  0  0  0
  129.2850  131.0080   60.8270 C   0  0  0  0  0  0  0  0  0  0  0  0
  129.2090  130.2300   61.9990 N   0  0  0  0  0  0  0  0  0  0  0  0
  128.1300  129.7550   62.6700 C   0  0  0  0  0  0  0  0  0  0  0  0
  126.9630  129.9470   62.3280 O   0  0  0  0  0  0  0  0  0  0  0  0
  128.4360  128.9650   63.8670 C   0  0  0  0  0  0  0  0  0  0  0  0
  128.1120  129.6200   65.4730 S   0  0  0  0  0  0  0  0  0  0  0  0
  128.7000  128.1610   66.2350 C   0  0  0  0  0  0  0  0  0  0  0  0
  128.6970  128.0150   67.5600 N   0  0  0  0  0  0  0  0  0  0  0  0
  129.1640  126.8370   68.0520 C   0  0  0  0  0  0  0  0  0  0  0  0
  129.1410  126.6920   69.5390 C   0  0  0  0  0  0  0  0  0  0  0  0
  129.8840  127.5570   70.3500 C   0  0  0  0  0  0  0  0  0  0  0  0
  129.8680  127.4290   71.7360 C   0  0  0  0  0  0  0  0  0  0  0  0
  129.0960  126.4390   72.3640 C   0  0  0  0  0  0  0  0  0  0  0  0
  129.0850  126.2860   73.7550 N   0  0  0  0  0  0  0  0  0  0  0  0
  129.8740  125.2310   74.4220 C   0  0  0  0  0  0  0  0  0  0  0  0
  129.4650  124.9810   75.8890 C   0  0  0  0  0  0  0  0  0  0  0  0
  129.5150  126.1930   76.6210 O   0  0  0  0  0  0  0  0  0  0  0  0
  128.6320  127.1640   76.0820 C   0  0  0  0  0  0  0  0  0  0  0  0
  129.0220  127.4800   74.6240 C   0  0  0  0  0  0  0  0  0  0  0  0
  128.3650  125.5650   71.5460 C   0  0  0  0  0  0  0  0  0  0  0  0
  128.3850  125.6910   70.1610 C   0  0  0  0  0  0  0  0  0  0  0  0
  129.6560  125.8260   67.2240 C   0  0  0  0  0  0  0  0  0  0  0  0
  129.6790  125.9830   65.8330 C   0  0  0  0  0  0  0  0  0  0  0  0
  130.2460  124.8910   65.0010 C   0  0  0  0  0  0  0  0  0  0  0  0
  129.4090  123.9570   64.3850 C   0  0  0  0  0  0  0  0  0  0  0  0
  129.9410  122.9430   63.5950 C   0  0  0  0  0  0  0  0  0  0  0  0
  131.3260  122.8460   63.3840 C   0  0  0  0  0  0  0  0  0  0  0  0
  131.8840  121.8300   62.6040 N   0  0  0  0  0  0  0  0  0  0  0  0
  133.3220  121.8840   62.2740 C   0  0  0  0  0  0  0  0  0  0  0  0
  133.8790  120.5440   61.7500 C   0  0  0  0  0  0  0  0  0  0  0  0
  133.1200  120.1050   60.6340 O   0  0  0  0  0  0  0  0  0  0  0  0
  131.7560  119.9080   60.9720 C   0  0  0  0  0  0  0  0  0  0  0  0
  131.1420  121.2320   61.4760 C   0  0  0  0  0  0  0  0  0  0  0  0
  132.1570  123.7900   64.0040 C   0  0  0  0  0  0  0  0  0  0  0  0
  131.6250  124.8020   64.7980 C   0  0  0  0  0  0  0  0  0  0  0  0
  129.1610  127.1950   65.2940 C   0  0  0  0  0  0  0  0  0  0  0  0
  128.9760  127.6720   63.9460 C   0  0  0  0  0  0  0  0  0  0  0  0
  129.2890  126.9160   62.8460 N   0  0  0  0  0  0  0  0  0  0  0  0
  128.2120  131.7040   60.2490 C   0  0  0  0  0  0  0  0  0  0  0  0
  128.4040  132.4420   59.0840 C   0  0  0  0  0  0  0  0  0  0  0  0
  1  2  1  0
  2  3  1  0
  3  4  1  0
  4  5  2  0
  4  6  1  0
  6  7  2  0
  7  8  1  0
  8  9  2  0
  9 10  1  0
 10 11  1  0
 11 12  2  0
 11 13  1  0
 13 14  1  0
 14 15  1  0
 15 16  2  0
 16 17  1  0
 17 18  1  0
 18 19  2  0
 19 20  1  0
 20 21  2  0
 21 22  1  0
 22 23  1  0
 23 24  1  0
 24 25  1  0
 25 26  1  0
 26 27  1  0
 21 28  1  0
 28 29  2  0
 17 30  2  0
 30 31  1  0
 31 32  1  0
 32 33  2  0
 33 34  1  0
 34 35  2  0
 35 36  1  0
 36 37  1  0
 37 38  1  0
 38 39  1  0
 39 40  1  0
 40 41  1  0
 35 42  1  0
 42 43  2  0
 31 44  2  0
 44 45  1  0
 45 46  1  0
  9 47  1  0
 47 48  2  0
 48  6  1  0
 45 13  2  0
 44 15  1  0
 29 18  1  0
 43 32  1  0
 27 22  1  0
 41 36  1  0
M  END
>  <Binding energies>  (39) 
[-10.13]

>  <Ligand effiencies>  (39) 
[-0.19862745098039217]

>  <Interactions>  (39) 
["V-A:TYR:539:CE2:4876, V-A:TYR:539:CG:4872, V-A:LEU:363:CD1:3188, V-A:PRO:540:CA:4883, V-A:ILE:538:CG2:4863, V-A:TYR:539:CA:4869, H-A:GLU:543:OE1:4909, V-A:PRO:540:N:4884, V-A:TYR:539:CD2:4874, V-A:ILE:538:CA:4860, V-A:TYR:539:C:4867, H-A:TYR:539:N:4870, V-A:ILE:538:CB:4862, H-B:GLU:543:OE2:9881, V-B:ALA:541:CB:9863, V-B:GLU:543:CD:9879, V-A:MET:535:CE:4835, V-B:HIS:456:CE1:9041, V-A:GLU:543:CG:4907, V-A:GLU:543:CD:4908, V-B:TYR:539:CD2:9845, V-B:TYR:539:CE2:9847, V-A:TRP:381:CH2:3371, V-A:LEU:475:CD2:4258, V-A:MET:535:CG:4833, V-A:ILE:369:CG2:3236, V-A:TRP:381:CZ2:3369, V-A:ILE:369:CD1:3238, V-B:GLU:543:CG:9878, V-A:HIS:456:CE1:4069, V-A:GLY:454:CA:4048, V-B:GLU:543:CB:9877, V-A:HIS:456:CD2:4067, V-B:LYS:547:CE:9921, V-B:GLU:543:C:9873"]

$$$$
9b_Ghoteimi_2023
     RDKit          3D

 42 48  0  0  0  0  0  0  0  0999 V2000
  128.8010  125.8970   58.6610 N   0  0  0  0  0  0  0  0  0  0  0  0
  128.7550  125.1920   59.8360 C   0  0  0  0  0  0  0  0  0  0  0  0
  128.3650  123.8460   59.9160 C   0  0  0  0  0  0  0  0  0  0  0  0
  127.9720  122.9430   58.8310 C   0  0  0  0  0  0  0  0  0  0  0  0
  128.1840  121.7310   58.9130 O   0  0  0  0  0  0  0  0  0  0  0  0
  127.3800  123.5360   57.7650 N   0  0  0  0  0  0  0  0  0  0  0  0
  126.9220  122.9280   56.6030 C   0  0  0  0  0  0  0  0  0  0  0  0
  127.4140  123.2380   55.3360 C   0  0  0  0  0  0  0  0  0  0  0  0
  126.7140  122.4280   54.4720 C   0  0  0  0  0  0  0  0  0  0  0  0
  125.8450  121.6700   55.1820 O   0  0  0  0  0  0  0  0  0  0  0  0
  125.9860  121.9960   56.5310 N   0  0  0  0  0  0  0  0  0  0  0  0
  128.3910  123.2720   61.5830 S   0  0  0  0  0  0  0  0  0  0  0  0
  128.9040  124.8380   62.1620 C   0  0  0  0  0  0  0  0  0  0  0  0
  129.0900  125.0770   63.4590 N   0  0  0  0  0  0  0  0  0  0  0  0
  129.4720  126.3340   63.8070 C   0  0  0  0  0  0  0  0  0  0  0  0
  129.6530  126.5800   65.2700 C   0  0  0  0  0  0  0  0  0  0  0  0
  128.8320  127.4790   65.9600 C   0  0  0  0  0  0  0  0  0  0  0  0
  129.0150  127.7150   67.3190 C   0  0  0  0  0  0  0  0  0  0  0  0
  130.0360  127.0710   68.0360 C   0  0  0  0  0  0  0  0  0  0  0  0
  130.2300  127.2960   69.4030 N   0  0  0  0  0  0  0  0  0  0  0  0
  129.1000  127.2740   70.3540 C   0  0  0  0  0  0  0  0  0  0  0  0
  129.5320  127.1940   71.8330 C   0  0  0  0  0  0  0  0  0  0  0  0
  130.4280  128.2510   72.1350 O   0  0  0  0  0  0  0  0  0  0  0  0
  131.6000  128.1810   71.3390 C   0  0  0  0  0  0  0  0  0  0  0  0
  131.2340  128.2870   69.8430 C   0  0  0  0  0  0  0  0  0  0  0  0
  130.8420  126.1570   67.3440 C   0  0  0  0  0  0  0  0  0  0  0  0
  130.6570  125.9170   65.9850 C   0  0  0  0  0  0  0  0  0  0  0  0
  129.6920  127.3360   62.8590 C   0  0  0  0  0  0  0  0  0  0  0  0
  129.5170  127.0840   61.4930 C   0  0  0  0  0  0  0  0  0  0  0  0
  129.7930  128.1750   60.5240 C   0  0  0  0  0  0  0  0  0  0  0  0
  130.8830  128.0880   59.6570 C   0  0  0  0  0  0  0  0  0  0  0  0
  131.1330  129.0990   58.7340 C   0  0  0  0  0  0  0  0  0  0  0  0
  130.2990  130.2260   58.6540 C   0  0  0  0  0  0  0  0  0  0  0  0
  130.5230  131.2460   57.7250 N   0  0  0  0  0  0  0  0  0  0  0  0
  129.4050  132.1280   57.3380 C   0  0  0  0  0  0  0  0  0  0  0  0
  129.6780  132.9230   56.0430 C   0  0  0  0  0  0  0  0  0  0  0  0
  130.8810  133.6660   56.1750 O   0  0  0  0  0  0  0  0  0  0  0  0
  131.9960  132.8210   56.4160 C   0  0  0  0  0  0  0  0  0  0  0  0
  131.7810  132.0190   57.7170 C   0  0  0  0  0  0  0  0  0  0  0  0
  129.1970  130.2940   59.5180 C   0  0  0  0  0  0  0  0  0  0  0  0
  128.9470  129.2820   60.4410 C   0  0  0  0  0  0  0  0  0  0  0  0
  129.0840  125.7840   61.1090 C   0  0  0  0  0  0  0  0  0  0  0  0
  1  2  1  0
  2  3  2  0
  3  4  1  0
  4  5  2  0
  4  6  1  0
  6  7  1  0
  7  8  1  0
  8  9  2  0
  9 10  1  0
 10 11  1  0
  3 12  1  0
 12 13  1  0
 13 14  2  0
 14 15  1  0
 15 16  1  0
 16 17  2  0
 17 18  1  0
 18 19  2  0
 19 20  1  0
 20 21  1  0
 21 22  1  0
 22 23  1  0
 23 24  1  0
 24 25  1  0
 19 26  1  0
 26 27  2  0
 15 28  2  0
 28 29  1  0
 29 30  1  0
 30 31  2  0
 31 32  1  0
 32 33  2  0
 33 34  1  0
 34 35  1  0
 35 36  1  0
 36 37  1  0
 37 38  1  0
 38 39  1  0
 33 40  1  0
 40 41  2  0
 29 42  2  0
 42  2  1  0
 11  7  2  0
 42 13  1  0
 27 16  1  0
 41 30  1  0
 25 20  1  0
 39 34  1  0
M  END
>  <Binding energies>  (40) 
[-10.36]

>  <Ligand effiencies>  (40) 
[-0.23022222222222222]

>  <Interactions>  (40) 
["V-A:TYR:539:CD1:4873, V-A:TYR:539:CE1:4875, V-A:LEU:363:CD1:3188, V-A:PRO:540:CA:4883, V-A:PRO:540:CD:4887, V-A:PRO:540:CB:4885, V-A:PRO:540:N:4884, V-A:ILE:538:CA:4860, V-A:ASP:366:CG:3212, H-A:TYR:539:N:4870, V-A:ILE:538:CB:4862, V-B:TYR:539:CZ:9848, V-B:PRO:540:CA:9854, V-B:ALA:541:CB:9863, V-B:MET:535:CE:9806, V-B:TYR:539:CE1:9846, V-B:TYR:539:CD1:9844, V-B:GLU:543:CD:9879, V-A:MET:535:CE:4835, V-B:HIS:456:CE1:9041, V-A:GLU:543:CG:4907, V-A:GLU:543:CD:4908, V-B:TYR:539:CD2:9845, H-B:TYR:539:N:9841, V-B:TYR:539:CE2:9847, V-B:ILE:538:CD1:9836, V-B:ILE:538:CA:9831, V-A:HIS:456:CE1:4069, V-A:ARG:545:CG:4922, V-A:GLY:544:C:4912, V-A:ARG:545:CA:4919, V-A:GLU:543:CB:4906"]

$$$$
9c_Ghoteimi_2023
     RDKit          3D

 42 48  0  0  0  0  0  0  0  0999 V2000
  128.7110  125.8860   58.6950 N   0  0  0  0  0  0  0  0  0  0  0  0
  128.6640  125.1880   59.8750 C   0  0  0  0  0  0  0  0  0  0  0  0
  128.2620  123.8460   59.9640 C   0  0  0  0  0  0  0  0  0  0  0  0
  127.8500  122.9430   58.8860 C   0  0  0  0  0  0  0  0  0  0  0  0
  128.1440  121.7460   58.9190 O   0  0  0  0  0  0  0  0  0  0  0  0
  127.1470  123.5200   57.8810 N   0  0  0  0  0  0  0  0  0  0  0  0
  126.6550  122.8970   56.7420 C   0  0  0  0  0  0  0  0  0  0  0  0
  125.6220  122.0890   56.6460 N   0  0  0  0  0  0  0  0  0  0  0  0
  125.4440  121.6760   55.4050 C   0  0  0  0  0  0  0  0  0  0  0  0
  126.3490  122.1520   54.4620 C   0  0  0  0  0  0  0  0  0  0  0  0
  127.4910  123.1980   55.2520 S   0  0  0  0  0  0  0  0  0  0  0  0
  128.2930  123.2810   61.6340 S   0  0  0  0  0  0  0  0  0  0  0  0
  128.8240  124.8460   62.2020 C   0  0  0  0  0  0  0  0  0  0  0  0
  129.0220  125.0890   63.4970 N   0  0  0  0  0  0  0  0  0  0  0  0
  129.4180  126.3430   63.8360 C   0  0  0  0  0  0  0  0  0  0  0  0
  129.6120  126.5940   65.2960 C   0  0  0  0  0  0  0  0  0  0  0  0
  128.7960  127.4950   65.9910 C   0  0  0  0  0  0  0  0  0  0  0  0
  128.9860  127.7320   67.3490 C   0  0  0  0  0  0  0  0  0  0  0  0
  130.0100  127.0850   68.0610 C   0  0  0  0  0  0  0  0  0  0  0  0
  130.2090  127.3070   69.4280 N   0  0  0  0  0  0  0  0  0  0  0  0
  129.0910  127.2310   70.3910 C   0  0  0  0  0  0  0  0  0  0  0  0
  129.5420  127.1530   71.8650 C   0  0  0  0  0  0  0  0  0  0  0  0
  130.3980  128.2430   72.1670 O   0  0  0  0  0  0  0  0  0  0  0  0
  131.5640  128.2270   71.3580 C   0  0  0  0  0  0  0  0  0  0  0  0
  131.1770  128.3330   69.8670 C   0  0  0  0  0  0  0  0  0  0  0  0
  130.8110  126.1690   67.3640 C   0  0  0  0  0  0  0  0  0  0  0  0
  130.6170  125.9300   66.0060 C   0  0  0  0  0  0  0  0  0  0  0  0
  129.6420  127.3380   62.8810 C   0  0  0  0  0  0  0  0  0  0  0  0
  129.4570  127.0810   61.5180 C   0  0  0  0  0  0  0  0  0  0  0  0
  129.7380  128.1620   60.5410 C   0  0  0  0  0  0  0  0  0  0  0  0
  130.9260  128.1590   59.8080 C   0  0  0  0  0  0  0  0  0  0  0  0
  131.1860  129.1620   58.8790 C   0  0  0  0  0  0  0  0  0  0  0  0
  130.2640  130.1970   58.6580 C   0  0  0  0  0  0  0  0  0  0  0  0
  130.4990  131.2080   57.7210 N   0  0  0  0  0  0  0  0  0  0  0  0
  129.4010  132.1290   57.3660 C   0  0  0  0  0  0  0  0  0  0  0  0
  129.6670  132.9220   56.0680 C   0  0  0  0  0  0  0  0  0  0  0  0
  130.8970  133.6230   56.1710 O   0  0  0  0  0  0  0  0  0  0  0  0
  131.9880  132.7400   56.3780 C   0  0  0  0  0  0  0  0  0  0  0  0
  131.7810  131.9370   57.6810 C   0  0  0  0  0  0  0  0  0  0  0  0
  129.0640  130.1790   59.3850 C   0  0  0  0  0  0  0  0  0  0  0  0
  128.8050  129.1760   60.3150 C   0  0  0  0  0  0  0  0  0  0  0  0
  129.0070  125.7830   61.1430 C   0  0  0  0  0  0  0  0  0  0  0  0
  1  2  1  0
  2  3  2  0
  3  4  1  0
  4  5  2  0
  4  6  1  0
  6  7  1  0
  7  8  2  0
  8  9  1  0
  9 10  2  0
 10 11  1  0
  3 12  1  0
 12 13  1  0
 13 14  2  0
 14 15  1  0
 15 16  1  0
 16 17  2  0
 17 18  1  0
 18 19  2  0
 19 20  1  0
 20 21  1  0
 21 22  1  0
 22 23  1  0
 23 24  1  0
 24 25  1  0
 19 26  1  0
 26 27  2  0
 15 28  2  0
 28 29  1  0
 29 30  1  0
 30 31  2  0
 31 32  1  0
 32 33  2  0
 33 34  1  0
 34 35  1  0
 35 36  1  0
 36 37  1  0
 37 38  1  0
 38 39  1  0
 33 40  1  0
 40 41  2  0
 29 42  2  0
 42  2  1  0
 11  7  1  0
 42 13  1  0
 27 16  1  0
 41 30  1  0
 25 20  1  0
 39 34  1  0
M  END
>  <Binding energies>  (41) 
[-9.38]

>  <Ligand effiencies>  (41) 
[-0.20844444444444446]

>  <Interactions>  (41) 
["V-A:TYR:539:CD1:4873, V-A:TYR:539:CE1:4875, V-A:LEU:363:CD1:3188, V-A:PRO:540:CA:4883, V-A:ASP:366:CB:3211, V-A:PRO:540:CD:4887, V-A:PRO:540:CB:4885, V-A:ILE:538:CA:4860, V-A:ASP:366:CG:3212, H-A:TYR:539:N:4870, V-A:ILE:538:CB:4862, V-B:TYR:539:CZ:9848, V-B:LEU:363:CD1:8160, V-B:PRO:540:N:9855, V-B:PRO:540:CA:9854, V-B:ALA:541:CB:9863, V-B:MET:535:CE:9806, V-B:TYR:539:CE1:9846, V-B:TYR:539:CD1:9844, V-B:GLU:543:CD:9879, V-A:MET:535:CE:4835, V-B:HIS:456:CE1:9041, V-A:GLU:543:CG:4907, V-A:GLU:543:CD:4908, H-B:TYR:539:N:9841, V-B:TYR:539:CE2:9847, V-B:PRO:540:CD:9858, V-B:ILE:538:CD1:9836, V-B:ILE:538:CG2:9834, V-B:ILE:538:CA:9831, V-B:ILE:538:CB:9833, V-B:ILE:538:C:9829, V-A:HIS:456:CE1:4069, V-A:ARG:545:CG:4922, V-A:GLY:544:C:4912, V-A:ARG:545:CA:4919, V-A:GLU:543:CB:4906"]

$$$$
RR11_Rahimova_2017
     RDKit          3D

 33 38  0  0  0  0  0  0  0  0999 V2000
  134.1950  121.7930   62.1260 N   0  0  0  0  0  0  0  0  0  0  0  0
  133.3920  122.5830   62.9470 C   0  0  0  0  0  0  0  0  0  0  0  0
  133.6260  123.9550   63.0330 C   0  0  0  0  0  0  0  0  0  0  0  0
  132.8220  124.7430   63.8510 C   0  0  0  0  0  0  0  0  0  0  0  0
  131.7780  124.1700   64.5890 C   0  0  0  0  0  0  0  0  0  0  0  0
  130.9090  125.0230   65.4660 C   0  0  0  0  0  0  0  0  0  0  0  0
  130.4120  126.1880   65.1120 N   0  0  0  0  0  0  0  0  0  0  0  0
  129.6790  126.6110   66.1890 C   0  0  0  0  0  0  0  0  0  0  0  0
  128.9320  127.7870   66.3450 C   0  0  0  0  0  0  0  0  0  0  0  0
  128.2470  127.9850   67.5500 C   0  0  0  0  0  0  0  0  0  0  0  0
  127.4320  129.2560   67.7510 C   0  0  0  0  0  0  0  0  0  0  0  0
  126.4670  129.5300   66.6060 C   0  0  0  0  0  0  0  0  0  0  0  0
  125.0930  129.5950   66.8630 C   0  0  0  0  0  0  0  0  0  0  0  0
  124.1700  129.8530   65.8480 C   0  0  0  0  0  0  0  0  0  0  0  0
  124.6560  130.0530   64.5490 C   0  0  0  0  0  0  0  0  0  0  0  0
  123.9640  130.3110   63.3940 N   0  0  0  0  0  0  0  0  0  0  0  0
  124.8810  130.4100   62.4550 C   0  0  0  0  0  0  0  0  0  0  0  0
  124.5880  130.6740   61.0060 C   0  0  0  0  0  0  0  0  0  0  0  0
  123.4820  131.4500   60.6350 C   0  0  0  0  0  0  0  0  0  0  0  0
  123.2040  131.6860   59.2910 C   0  0  0  0  0  0  0  0  0  0  0  0
  124.0310  131.1480   58.3080 C   0  0  0  0  0  0  0  0  0  0  0  0
  123.7500  131.3800   56.9620 N   0  0  0  0  0  0  0  0  0  0  0  0
  125.1360  130.3780   58.6620 C   0  0  0  0  0  0  0  0  0  0  0  0
  125.4130  130.1430   60.0060 C   0  0  0  0  0  0  0  0  0  0  0  0
  126.1540  130.2330   62.9560 N   0  0  0  0  0  0  0  0  0  0  0  0
  126.0490  129.9970   64.3060 C   0  0  0  0  0  0  0  0  0  0  0  0
  126.9780  129.7450   65.3180 C   0  0  0  0  0  0  0  0  0  0  0  0
  128.3290  127.0420   68.5810 C   0  0  0  0  0  0  0  0  0  0  0  0
  129.0690  125.8630   68.4580 C   0  0  0  0  0  0  0  0  0  0  0  0
  129.7340  125.6700   67.2440 C   0  0  0  0  0  0  0  0  0  0  0  0
  130.5330  124.6690   66.7450 N   0  0  0  0  0  0  0  0  0  0  0  0
  131.5560  122.7900   64.4950 C   0  0  0  0  0  0  0  0  0  0  0  0
  132.3580  121.9990   63.6770 C   0  0  0  0  0  0  0  0  0  0  0  0
  1  2  1  0
  2  3  2  0
  3  4  1  0
  4  5  2  0
  5  6  1  0
  6  7  2  0
  7  8  1  0
  8  9  2  0
  9 10  1  0
 10 11  1  0
 11 12  1  0
 12 13  2  0
 13 14  1  0
 14 15  2  0
 15 16  1  0
 16 17  2  0
 17 18  1  0
 18 19  2  0
 19 20  1  0
 20 21  2  0
 21 22  1  0
 21 23  1  0
 23 24  2  0
 17 25  1  0
 25 26  1  0
 26 27  2  0
 10 28  2  0
 28 29  1  0
 29 30  2  0
 30 31  1  0
  5 32  1  0
 32 33  2  0
 33  2  1  0
 31  6  1  0
 30  8  1  0
 27 12  1  0
 26 15  1  0
 24 18  1  0
M  END
>  <Binding energies>  (42) 
[-8.85]

>  <Ligand effiencies>  (42) 
[-0.22692307692307692]

>  <Interactions>  (42) 
["V-A:TYR:539:CE2:4876, V-A:TYR:539:CZ:4877, V-B:GLY:454:CA:9020, V-B:ASP:366:CG:8184, V-B:ARG:545:CD:9894, V-B:ILE:369:CD1:8210, H-B:GLY:454:N:9021, V-B:GLU:543:CD:9879, V-B:ARG:545:CZ:9897, V-B:ARG:545:CG:9893, V-B:ILE:369:CG2:8208, V-B:HIS:456:CE1:9041, V-A:GLU:543:CG:4907, V-A:GLU:543:CD:4908, H-A:TYR:539:OH:4878, V-B:ASP:366:CB:8183, V-B:ASP:366:C:8179, V-B:ASP:366:CA:8181, V-A:LEU:475:CD2:4258, V-B:ILE:369:CB:8207, H-B:ARG:545:NH2:9899, V-B:TYR:531:CE1:9763, V-A:ILE:369:CG2:3236, V-A:ILE:369:CD1:3238, V-B:GLU:543:CG:9878, H-B:ASP:366:O:8180, H-A:TYR:484:OH:4347, V-A:HIS:456:CE1:4069, V-A:GLY:454:CA:4048, V-B:GLU:543:CB:9877, V-A:TYR:484:CE1:4344, V-A:TYR:484:CZ:4346, V-B:ASN:370:CB:8216, V-A:ILE:369:CB:3235, V-A:ILE:369:CG1:3237, H-A:HIS:456:NE2:4070, H-A:SER:385:O:3405, V-B:ASN:370:CA:8214"]

$$$$
RR16_Rahimova_2017
     RDKit          3D

 44 49  0  0  0  0  0  0  0  0999 V2000
  122.7360  130.9780   62.2950 O   0  0  0  0  0  0  0  0  0  0  0  0
  124.0050  131.7140   62.3220 S   0  0  0  0  0  0  0  0  0  0  0  0
  125.0190  131.4290   63.3440 O   0  0  0  0  0  0  0  0  0  0  0  0
  123.6200  133.4350   62.3960 N   0  0  0  0  0  0  0  0  0  0  0  0
  124.6520  134.4300   62.7730 C   0  0  0  0  0  0  0  0  0  0  0  0
  125.8600  134.3000   61.8090 C   0  0  0  0  0  0  0  0  0  0  0  0
  127.2550  134.6290   62.3760 C   0  0  0  0  0  0  0  0  0  0  0  0
  127.3800  136.0570   62.9370 C   0  0  0  0  0  0  0  0  0  0  0  0
  126.2840  137.0500   62.5030 C   0  0  0  0  0  0  0  0  0  0  0  0
  124.9320  136.9730   63.2400 C   0  0  0  0  0  0  0  0  0  0  0  0
  123.9880  135.8250   62.8310 C   0  0  0  0  0  0  0  0  0  0  0  0
  124.7650  131.4960   60.7170 C   0  0  0  0  0  0  0  0  0  0  0  0
  123.9770  131.2340   59.5940 C   0  0  0  0  0  0  0  0  0  0  0  0
  124.5870  130.9450   58.3770 C   0  0  0  0  0  0  0  0  0  0  0  0
  125.9800  130.9210   58.2880 C   0  0  0  0  0  0  0  0  0  0  0  0
  126.7670  130.4130   56.7610 S   0  0  0  0  0  0  0  0  0  0  0  0
  127.6390  131.5130   56.3280 O   0  0  0  0  0  0  0  0  0  0  0  0
  125.7150  129.9070   55.8710 O   0  0  0  0  0  0  0  0  0  0  0  0
  127.7930  129.0450   57.2360 N   0  0  0  0  0  0  0  0  0  0  0  0
  127.7620  127.8960   56.2940 C   0  0  0  0  0  0  0  0  0  0  0  0
  128.4200  126.6560   56.9330 C   0  0  0  0  0  0  0  0  0  0  0  0
  129.8430  126.9680   57.4600 C   0  0  0  0  0  0  0  0  0  0  0  0
  130.4960  125.7620   58.1400 C   0  0  0  0  0  0  0  0  0  0  0  0
  131.8940  125.6680   58.1970 C   0  0  0  0  0  0  0  0  0  0  0  0
  132.5310  124.5900   58.8140 C   0  0  0  0  0  0  0  0  0  0  0  0
  133.8990  124.5170   58.8630 O   0  0  0  0  0  0  0  0  0  0  0  0
  131.7330  123.5880   59.3860 C   0  0  0  0  0  0  0  0  0  0  0  0
  132.0690  122.4490   60.0590 N   0  0  0  0  0  0  0  0  0  0  0  0
  130.8980  121.8300   60.4380 N   0  0  0  0  0  0  0  0  0  0  0  0
  129.8630  122.5540   59.9690 N   0  0  0  0  0  0  0  0  0  0  0  0
  128.4950  122.1750   60.2980 C   0  0  0  0  0  0  0  0  0  0  0  0
  127.4780  122.7370   59.3150 C   0  0  0  0  0  0  0  0  0  0  0  0
  126.5260  123.6670   59.7460 C   0  0  0  0  0  0  0  0  0  0  0  0
  125.6060  124.2010   58.8420 C   0  0  0  0  0  0  0  0  0  0  0  0
  125.6350  123.8090   57.5030 C   0  0  0  0  0  0  0  0  0  0  0  0
  126.5830  122.8830   57.0670 C   0  0  0  0  0  0  0  0  0  0  0  0
  126.6280  122.4040   55.4090 Cl  0  0  0  0  0  0  0  0  0  0  0  0
  127.5010  122.3460   57.9720 C   0  0  0  0  0  0  0  0  0  0  0  0
  130.3230  123.6870   59.3180 C   0  0  0  0  0  0  0  0  0  0  0  0
  129.6830  124.7640   58.6970 C   0  0  0  0  0  0  0  0  0  0  0  0
  129.8780  128.2450   58.3390 C   0  0  0  0  0  0  0  0  0  0  0  0
  129.1640  129.4310   57.6600 C   0  0  0  0  0  0  0  0  0  0  0  0
  126.7660  131.2250   59.4020 C   0  0  0  0  0  0  0  0  0  0  0  0
  126.1570  131.5090   60.6190 C   0  0  0  0  0  0  0  0  0  0  0  0
  1  2  2  0
  2  3  2  0
  2  4  1  0
  4  5  1  0
  5  6  1  0
  6  7  1  0
  7  8  1  0
  8  9  1  0
  9 10  1  0
 10 11  1  0
  2 12  1  0
 12 13  2  0
 13 14  1  0
 14 15  2  0
 15 16  1  0
 16 17  2  0
 16 18  2  0
 16 19  1  0
 19 20  1  0
 20 21  1  0
 21 22  1  0
 22 23  1  0
 23 24  2  0
 24 25  1  0
 25 26  1  0
 25 27  2  0
 27 28  1  0
 28 29  2  0
 29 30  1  0
 30 31  1  0
 31 32  1  0
 32 33  2  0
 33 34  1  0
 34 35  2  0
 35 36  1  0
 36 37  1  0
 36 38  2  0
 30 39  1  0
 39 40  2  0
 22 41  1  0
 41 42  1  0
 15 43  1  0
 43 44  2  0
 11  5  1  0
 44 12  1  0
 42 19  1  0
 40 23  1  0
 39 27  1  0
 38 32  1  0
M  END
>  <Binding energies>  (43) 
[-10.33]

>  <Ligand effiencies>  (43) 
[-0.21520833333333333]

>  <Interactions>  (43) 
["V-A:TYR:539:CE2:4876, V-A:ASP:366:CB:3211, V-B:TYR:539:CZ:9848, V-B:PRO:540:N:9855, V-B:PRO:540:CA:9854, V-B:MET:535:CE:9806, V-B:TYR:539:C:9838, V-B:TYR:539:CE1:9846, V-B:TYR:539:CD1:9844, V-B:PRO:540:CB:9856, V-B:ASP:366:CG:8184, V-B:TRP:381:CZ2:8341, V-B:TRP:381:CH2:8343, V-A:ALA:541:CB:4892, V-B:LEU:475:CD1:9229, V-B:LEU:475:CB:9227, V-B:TRP:381:CE2:8338, V-B:PRO:482:CB:9297, V-B:ILE:369:CD1:8210, H-B:GLY:454:N:9021, V-B:PRO:482:CG:9298, V-B:SER:385:CA:8378, V-A:MET:535:CE:4835, V-B:SER:385:CB:8380, V-B:SER:385:C:8376, H-B:TYR:531:OH:9766, H-A:TYR:539:OH:4878, V-B:ASP:366:CB:8183, V-B:ASP:366:CA:8181, V-B:TYR:539:CD2:9845, V-B:PRO:540:C:9852, V-B:TYR:539:CE2:9847, V-B:LEU:475:CG:9228, V-A:ILE:369:CG2:3236, V-B:ILE:538:CA:9831, V-B:TYR:539:CG:9843, H-A:ASP:366:O:3208, H-B:SER:385:O:8377"]

$$$$
RR18_Rahimova_2017
     RDKit          3D

 36 41  0  0  0  0  0  0  0  0999 V2000
  123.8750  123.7550   60.7830 C   0  0  0  0  0  0  0  0  0  0  0  0
  125.2900  124.1610   61.1110 C   0  0  0  0  0  0  0  0  0  0  0  0
  126.3450  123.5430   61.7620 C   0  0  0  0  0  0  0  0  0  0  0  0
  127.4100  124.4430   61.7460 C   0  0  0  0  0  0  0  0  0  0  0  0
  126.9680  125.5770   61.0860 C   0  0  0  0  0  0  0  0  0  0  0  0
  127.6170  126.9100   60.7200 C   0  0  1  0  0  0  0  0  0  0  0  0
  127.1870  127.3850   59.3000 C   0  0  0  0  0  0  0  0  0  0  0  0
  127.5690  126.6190   58.1180 C   0  0  0  0  0  0  0  0  0  0  0  0
  128.5320  126.9400   57.4190 O   0  0  0  0  0  0  0  0  0  0  0  0
  126.7900  125.5380   57.8820 N   0  0  0  0  0  0  0  0  0  0  0  0
  126.8390  124.5870   56.8400 C   0  0  0  0  0  0  0  0  0  0  0  0
  127.8940  124.5070   55.9130 C   0  0  0  0  0  0  0  0  0  0  0  0
  127.8790  123.5480   54.9020 C   0  0  0  0  0  0  0  0  0  0  0  0
  126.8120  122.6610   54.7960 C   0  0  0  0  0  0  0  0  0  0  0  0
  125.7540  122.7370   55.7000 C   0  0  0  0  0  0  0  0  0  0  0  0
  125.7560  123.6930   56.7200 C   0  0  0  0  0  0  0  0  0  0  0  0
  124.5710  123.7370   57.6810 C   0  0  0  0  0  0  0  0  0  0  0  0
  126.3670  128.4640   59.2000 C   0  0  0  0  0  0  0  0  0  0  0  0
  125.9790  129.2450   60.2450 N   0  0  0  0  0  0  0  0  0  0  0  0
  126.4650  129.0250   61.4110 C   0  0  0  0  0  0  0  0  0  0  0  0
  126.1790  130.0320   62.8110 S   0  0  0  0  0  0  0  0  0  0  0  0
  127.2290  129.0000   63.8330 C   0  0  0  0  0  0  0  0  0  0  0  0
  127.5210  129.1730   65.1680 C   0  0  0  0  0  0  0  0  0  0  0  0
  127.0170  130.3500   65.8910 C   0  0  0  0  0  0  0  0  0  0  0  0
  126.3050  131.2750   65.5010 O   0  0  0  0  0  0  0  0  0  0  0  0
  127.4950  130.2870   67.1380 N   0  0  0  0  0  0  0  0  0  0  0  0
  128.2460  129.1730   67.3630 C   0  0  0  0  0  0  0  0  0  0  0  0
  128.8760  128.7920   68.5470 C   0  0  0  0  0  0  0  0  0  0  0  0
  129.5760  127.5890   68.5790 C   0  0  0  0  0  0  0  0  0  0  0  0
  129.6270  126.7900   67.4390 C   0  0  0  0  0  0  0  0  0  0  0  0
  128.9870  127.1940   66.2630 C   0  0  0  0  0  0  0  0  0  0  0  0
  128.2940  128.4180   66.2040 C   0  0  0  0  0  0  0  0  0  0  0  0
  127.7530  127.9200   62.9960 C   0  0  0  0  0  0  0  0  0  0  0  0
  128.5480  127.0500   63.3390 O   0  0  0  0  0  0  0  0  0  0  0  0
  127.2730  127.9800   61.7230 N   0  0  0  0  0  0  0  0  0  0  0  0
  125.6750  125.3980   60.7030 O   0  0  0  0  0  0  0  0  0  0  0  0
  1  2  1  0
  2  3  2  0
  3  4  1  0
  4  5  2  0
  6  5  1  1
  6  7  1  0
  7  8  1  0
  8  9  2  0
  8 10  1  0
 10 11  1  0
 11 12  2  0
 12 13  1  0
 13 14  2  0
 14 15  1  0
 15 16  2  0
 16 17  1  0
  7 18  2  0
 18 19  1  0
 19 20  2  0
 20 21  1  0
 21 22  1  0
 22 23  2  0
 23 24  1  0
 24 25  2  0
 24 26  1  0
 26 27  1  0
 27 28  2  0
 28 29  1  0
 29 30  2  0
 30 31  1  0
 31 32  2  0
 22 33  1  0
 33 34  2  0
 33 35  1  0
  5 36  1  0
 36  2  1  0
 35  6  1  0
 16 11  1  0
 35 20  1  0
 32 23  1  0
 32 27  1  0
M  END
>  <Binding energies>  (44) 
[-8.5]

>  <Ligand effiencies>  (44) 
[-0.2236842105263158]

>  <Interactions>  (44) 
["V-B:TYR:539:CZ:9848, V-B:LEU:363:CD1:8160, V-B:PRO:540:CA:9854, V-B:MET:535:CE:9806, V-B:TYR:539:CE1:9846, V-B:TYR:539:CD1:9844, V-B:PRO:540:CB:9856, H-B:ASP:366:OD2:8186, V-B:ASP:366:CG:8184, H-B:TYR:484:OH:9319, V-B:GLU:543:CD:9879, V-B:HIS:456:CE1:9041, V-A:GLU:543:CG:4907, V-A:GLU:543:CD:4908, H-B:TYR:531:OH:9766, V-B:ASP:366:CB:8183, V-B:LEU:363:CA:8156, H-B:ARG:545:NH2:9899, V-B:ILE:538:CD1:9836, V-B:ILE:538:CA:9831, V-B:ASN:362:C:8143, V-B:ASN:362:CB:8147, V-B:GLU:543:CG:9878, V-B:ASN:362:CA:8145, V-A:HIS:456:CE1:4069, V-A:GLU:543:CB:4906, V-B:TYR:484:CE1:9316, V-B:TYR:484:CZ:9318"]

$$$$
RR20_Rahimova_2017
     RDKit          3D

 38 43  0  0  0  0  0  0  0  0999 V2000
  124.1210  124.0100   60.8910 C   0  0  0  0  0  0  0  0  0  0  0  0
  124.9470  123.9360   59.6200 C   0  0  0  0  0  0  0  0  0  0  0  0
  126.2830  123.5400   59.6830 C   0  0  0  0  0  0  0  0  0  0  0  0
  127.0400  123.4630   58.5170 C   0  0  0  0  0  0  0  0  0  0  0  0
  126.4720  123.7940   57.2810 C   0  0  0  0  0  0  0  0  0  0  0  0
  127.3060  123.6840   56.0240 C   0  0  0  0  0  0  0  0  0  0  0  0
  127.1160  122.7070   55.2970 O   0  0  0  0  0  0  0  0  0  0  0  0
  128.2150  124.6610   55.7370 N   0  0  0  0  0  0  0  0  0  0  0  0
  128.9640  124.6710   54.4690 C   0  0  0  0  0  0  0  0  0  0  0  0
  129.7490  125.9710   54.4450 C   0  0  0  0  0  0  0  0  0  0  0  0
  129.0960  126.7760   55.5270 C   0  0  0  0  0  0  0  0  0  0  0  0
  129.3380  128.0950   55.9090 C   0  0  0  0  0  0  0  0  0  0  0  0
  128.7390  128.6270   57.0580 C   0  0  0  0  0  0  0  0  0  0  0  0
  128.9920  130.0520   57.4650 C   0  0  0  0  0  0  0  0  0  0  0  0
  128.2560  130.5690   58.4360 N   0  0  0  0  0  0  0  0  0  0  0  0
  128.5750  131.8060   58.7210 C   0  0  0  0  0  0  0  0  0  0  0  0
  128.0120  132.6340   59.6800 N   0  0  0  0  0  0  0  0  0  0  0  0
  128.6230  133.1410   60.7780 C   0  0  0  0  0  0  0  0  0  0  0  0
  129.8050  132.9410   61.0640 O   0  0  0  0  0  0  0  0  0  0  0  0
  127.7940  134.0490   61.7170 C   0  0  0  0  0  0  0  0  0  0  0  0
  126.9330  133.2870   62.6410 N   0  0  0  0  0  0  0  0  0  0  0  0
  125.7950  132.6550   61.9570 C   0  0  0  0  0  0  0  0  0  0  0  0
  124.7900  132.1030   62.9930 C   0  0  0  0  0  0  0  0  0  0  0  0
  125.4650  131.3250   64.1230 C   0  0  0  0  0  0  0  0  0  0  0  0
  124.7150  130.5300   64.9980 C   0  0  0  0  0  0  0  0  0  0  0  0
  125.3250  129.8520   66.0510 C   0  0  0  0  0  0  0  0  0  0  0  0
  126.6990  129.9590   66.2400 C   0  0  0  0  0  0  0  0  0  0  0  0
  127.4580  130.7390   65.3710 C   0  0  0  0  0  0  0  0  0  0  0  0
  126.8580  131.4270   64.3100 C   0  0  0  0  0  0  0  0  0  0  0  0
  127.6990  132.2360   63.3220 C   0  0  0  0  0  0  0  0  0  0  0  0
  129.8510  132.4490   57.7640 S   0  0  0  0  0  0  0  0  0  0  0  0
  129.9500  130.9270   56.9100 C   0  0  0  0  0  0  0  0  0  0  0  0
  130.9310  130.7490   55.7720 C   0  0  0  0  0  0  0  0  0  0  0  0
  127.9360  127.7860   57.8450 C   0  0  0  0  0  0  0  0  0  0  0  0
  127.7080  126.4610   57.4760 C   0  0  0  0  0  0  0  0  0  0  0  0
  128.2440  125.9670   56.2790 C   0  0  0  0  0  0  0  0  0  0  0  0
  125.1220  124.1630   57.2230 C   0  0  0  0  0  0  0  0  0  0  0  0
  124.3630  124.2390   58.3890 C   0  0  0  0  0  0  0  0  0  0  0  0
  1  2  1  0
  2  3  2  0
  3  4  1  0
  4  5  2  0
  5  6  1  0
  6  7  2  0
  6  8  1  0
  8  9  1  0
  9 10  1  0
 10 11  1  0
 11 12  2  0
 12 13  1  0
 13 14  1  0
 14 15  1  0
 15 16  2  0
 16 17  1  0
 17 18  1  0
 18 19  2  0
 18 20  1  0
 20 21  1  0
 21 22  1  0
 22 23  1  0
 23 24  1  0
 24 25  2  0
 25 26  1  0
 26 27  2  0
 27 28  1  0
 28 29  2  0
 29 30  1  0
 16 31  1  0
 31 32  1  0
 32 33  1  0
 13 34  2  0
 34 35  1  0
 35 36  2  0
  5 37  1  0
 37 38  2  0
 38  2  1  0
 36  8  1  0
 36 11  1  0
 32 14  2  0
 30 21  1  0
 29 24  1  0
M  END
>  <Binding energies>  (45) 
[-10.38]

>  <Ligand effiencies>  (45) 
[-0.2661538461538462]

>  <Interactions>  (45) 
["V-A:TYR:539:CE2:4876, V-A:TYR:531:CE2:4793, V-A:TYR:531:CZ:4794, V-A:TYR:539:CD2:4874, V-A:TYR:539:C:4867, V-B:TYR:539:CZ:9848, V-B:LEU:363:CD1:8160, V-B:PRO:540:CA:9854, V-B:TYR:539:CE1:9846, V-B:PRO:540:CB:9856, V-B:GLY:454:CA:9020, V-A:ALA:541:CB:4892, V-A:MET:535:CE:4835, H-A:ALA:541:N:4891, V-A:GLU:543:CG:4907, V-B:LEU:363:CA:8156, V-A:TYR:531:CE1:4792, V-B:ASN:362:C:8143, V-B:ASN:362:CB:8147"]

$$$$
RR21_Rahimova_2017
     RDKit          3D

 40 45  0  0  0  0  0  0  0  0999 V2000
  132.0880  131.5680   54.8890 C   0  0  0  0  0  0  0  0  0  0  0  0
  132.2930  132.3080   56.0880 O   0  0  0  0  0  0  0  0  0  0  0  0
  131.2620  132.4120   57.0030 C   0  0  0  0  0  0  0  0  0  0  0  0
  131.3740  132.0720   58.3620 C   0  0  0  0  0  0  0  0  0  0  0  0
  130.2840  132.2090   59.2200 C   0  0  0  0  0  0  0  0  0  0  0  0
  129.0590  132.6920   58.7470 C   0  0  0  0  0  0  0  0  0  0  0  0
  127.8910  132.8440   59.6730 C   0  0  0  0  0  0  0  0  0  0  0  0
  127.6550  134.0080   60.2460 N   0  0  0  0  0  0  0  0  0  0  0  0
  126.5620  133.8480   61.0080 N   0  0  0  0  0  0  0  0  0  0  0  0
  126.0170  134.9230   61.7560 C   0  0  0  0  0  0  0  0  0  0  0  0
  124.6530  134.9500   62.0840 C   0  0  0  0  0  0  0  0  0  0  0  0
  124.1300  136.0080   62.8230 C   0  0  0  0  0  0  0  0  0  0  0  0
  124.9670  137.0420   63.2360 C   0  0  0  0  0  0  0  0  0  0  0  0
  126.3220  137.0280   62.9150 C   0  0  0  0  0  0  0  0  0  0  0  0
  126.8480  135.9720   62.1760 C   0  0  0  0  0  0  0  0  0  0  0  0
  126.0920  132.5630   60.8980 C   0  0  0  0  0  0  0  0  0  0  0  0
  126.9380  131.8680   60.0470 C   0  0  0  0  0  0  0  0  0  0  0  0
  126.8210  130.4920   59.5900 C   0  0  0  0  0  0  0  0  0  0  0  0
  127.2120  129.3630   60.2260 C   0  0  0  0  0  0  0  0  0  0  0  0
  127.9980  129.2200   61.8140 S   0  0  0  0  0  0  0  0  0  0  0  0
  128.0010  127.4710   61.6400 C   0  0  0  0  0  0  0  0  0  0  0  0
  128.4380  126.5890   62.4840 N   0  0  0  0  0  0  0  0  0  0  0  0
  128.3700  125.1920   62.2230 C   0  0  0  0  0  0  0  0  0  0  0  0
  128.7430  124.2940   62.9770 O   0  0  0  0  0  0  0  0  0  0  0  0
  127.7680  124.8520   60.8870 C   0  0  0  0  0  0  0  0  0  0  0  0
  127.6610  123.3750   60.4870 C   0  0  0  0  0  0  0  0  0  0  0  0
  127.0240  123.1380   59.1190 C   0  0  0  0  0  0  0  0  0  0  0  0
  127.7400  122.4720   58.1200 C   0  0  0  0  0  0  0  0  0  0  0  0
  127.1530  122.2420   56.8790 C   0  0  0  0  0  0  0  0  0  0  0  0
  125.8480  122.6740   56.6330 C   0  0  0  0  0  0  0  0  0  0  0  0
  125.2090  122.4100   55.2820 C   0  0  0  0  0  0  0  0  0  0  0  0
  125.1270  123.3300   57.6340 C   0  0  0  0  0  0  0  0  0  0  0  0
  125.7140  123.5610   58.8750 C   0  0  0  0  0  0  0  0  0  0  0  0
  127.3420  125.7430   60.0540 N   0  0  0  0  0  0  0  0  0  0  0  0
  127.4590  127.0840   60.4430 N   0  0  0  0  0  0  0  0  0  0  0  0
  127.0100  128.0570   59.6130 C   0  0  0  0  0  0  0  0  0  0  0  0
  126.5000  127.8590   58.5040 O   0  0  0  0  0  0  0  0  0  0  0  0
  128.9450  133.0250   57.3930 C   0  0  0  0  0  0  0  0  0  0  0  0
  130.0340  132.8880   56.5320 C   0  0  0  0  0  0  0  0  0  0  0  0
  129.8910  133.2190   55.2280 F   0  0  0  0  0  0  0  0  0  0  0  0
  1  2  1  0
  2  3  1  0
  3  4  2  0
  4  5  1  0
  5  6  2  0
  6  7  1  0
  7  8  2  0
  8  9  1  0
  9 10  1  0
 10 11  2  0
 11 12  1  0
 12 13  2  0
 13 14  1  0
 14 15  2  0
  9 16  1  0
 16 17  2  0
 17 18  1  0
 18 19  2  0
 19 20  1  0
 20 21  1  0
 21 22  2  0
 22 23  1  0
 23 24  2  0
 23 25  1  0
 25 26  1  0
 26 27  1  0
 27 28  2  0
 28 29  1  0
 29 30  2  0
 30 31  1  0
 30 32  1  0
 32 33  2  0
 25 34  2  0
 34 35  1  0
 35 36  1  0
 36 37  2  0
  6 38  1  0
 38 39  2  0
 39 40  1  0
 39  3  1  0
 17  7  1  0
 36 19  1  0
 15 10  1  0
 35 21  1  0
 33 27  1  0
M  END
>  <Binding energies>  (46) 
[-10.04]

>  <Ligand effiencies>  (46) 
[-0.251]

>  <Interactions>  (46) 
["V-A:TYR:539:CD1:4873, V-A:TYR:539:CE2:4876, V-A:TYR:539:CG:4872, V-A:ILE:538:C:4858, V-A:TYR:539:CZ:4877, V-A:TYR:539:CE1:4875, V-A:LEU:363:CD1:3188, V-A:TYR:531:CE2:4793, V-A:PRO:540:CA:4883, V-A:ILE:538:CG2:4863, V-A:TYR:531:CZ:4794, V-A:PRO:540:CB:4885, V-A:PRO:540:N:4884, V-A:TYR:539:CD2:4874, V-A:ILE:538:CA:4860, V-A:TYR:539:C:4867, V-A:ILE:538:CB:4862, V-B:TYR:539:CZ:9848, V-B:LEU:363:CD1:8160, V-B:PRO:540:N:9855, V-B:PRO:540:CA:9854, V-B:MET:535:CE:9806, V-B:TYR:539:C:9838, V-B:TYR:539:CE1:9846, V-B:TYR:539:CD1:9844, V-B:PRO:540:CB:9856, V-B:TRP:381:CZ2:8341, V-B:TRP:381:CH2:8343, V-A:ALA:541:CB:4892, V-B:LEU:475:CD1:9229, V-B:LEU:475:CB:9227, V-B:TRP:381:CE2:8338, V-B:PRO:482:CB:9297, V-B:PRO:482:CG:9298, V-B:GLU:543:CD:9879, V-B:SER:385:CA:8378, V-A:MET:535:CE:4835, V-B:SER:385:CB:8380, V-B:SER:385:C:8376, H-B:TYR:531:OH:9766, V-B:TYR:539:CD2:9845, V-B:TYR:539:CA:9840, V-B:TYR:539:CE2:9847, V-B:PRO:540:CD:9858, V-A:MET:535:CG:4833, V-B:LEU:475:CG:9228, V-B:ILE:538:CD1:9836, V-B:ILE:538:CG2:9834, V-B:ILE:538:CA:9831, V-B:TYR:539:CG:9843, V-A:TYR:531:CD2:4791"]

$$$$
RR23_Rahimova_2017
     RDKit          3D

 39 44  0  0  0  0  0  0  0  0999 V2000
  124.1150  124.2390   60.9980 C   0  0  0  0  0  0  0  0  0  0  0  0
  124.8830  123.9360   59.7240 C   0  0  0  0  0  0  0  0  0  0  0  0
  124.2710  124.1060   58.4820 C   0  0  0  0  0  0  0  0  0  0  0  0
  124.9800  123.8370   57.3140 C   0  0  0  0  0  0  0  0  0  0  0  0
  126.3030  123.3830   57.3800 C   0  0  0  0  0  0  0  0  0  0  0  0
  127.0620  123.1160   56.0990 C   0  0  0  0  0  0  0  0  0  0  0  0
  126.8220  122.0640   55.5020 O   0  0  0  0  0  0  0  0  0  0  0  0
  127.9610  124.0410   55.6480 N   0  0  0  0  0  0  0  0  0  0  0  0
  128.5710  123.9320   54.3130 C   0  0  0  0  0  0  0  0  0  0  0  0
  129.3880  125.1990   54.1120 C   0  0  0  0  0  0  0  0  0  0  0  0
  128.8760  126.1000   55.1940 C   0  0  0  0  0  0  0  0  0  0  0  0
  129.1950  127.4340   55.4500 C   0  0  0  0  0  0  0  0  0  0  0  0
  128.7290  128.0640   56.6150 C   0  0  0  0  0  0  0  0  0  0  0  0
  129.0560  129.5300   56.9350 C   0  0  2  0  0  0  0  0  0  0  0  0
  129.3890  129.7230   58.3300 N   0  0  0  0  0  0  0  0  0  0  0  0
  129.0310  130.8700   58.7490 C   0  0  0  0  0  0  0  0  0  0  0  0
  129.1580  131.3830   60.0020 N   0  0  0  0  0  0  0  0  0  0  0  0
  129.5650  130.7540   61.1310 C   0  0  0  0  0  0  0  0  0  0  0  0
  129.9380  129.5820   61.2040 O   0  0  0  0  0  0  0  0  0  0  0  0
  129.5390  131.6080   62.4100 C   0  0  0  0  0  0  0  0  0  0  0  0
  128.5410  132.6890   62.2510 N   0  0  0  0  0  0  0  0  0  0  0  0
  129.0120  133.8540   61.6590 N   0  0  0  0  0  0  0  0  0  0  0  0
  128.2390  134.8740   61.4650 N   0  0  0  0  0  0  0  0  0  0  0  0
  126.8980  134.8140   61.8530 C   0  0  0  0  0  0  0  0  0  0  0  0
  126.0920  135.9320   61.6310 C   0  0  0  0  0  0  0  0  0  0  0  0
  124.7480  135.9020   62.0080 C   0  0  0  0  0  0  0  0  0  0  0  0
  124.2120  134.7600   62.6060 C   0  0  0  0  0  0  0  0  0  0  0  0
  125.0160  133.6410   62.8300 C   0  0  0  0  0  0  0  0  0  0  0  0
  126.3630  133.6710   62.4500 C   0  0  0  0  0  0  0  0  0  0  0  0
  127.2520  132.4720   62.6860 C   0  0  0  0  0  0  0  0  0  0  0  0
  126.8670  131.4260   63.2180 O   0  0  0  0  0  0  0  0  0  0  0  0
  128.2470  131.9560   57.5650 S   0  0  0  0  0  0  0  0  0  0  0  0
  127.9690  130.5370   56.4910 C   0  0  2  0  0  0  0  0  0  0  0  0
  126.5020  130.0790   56.6310 C   0  0  0  0  0  0  0  0  0  0  0  0
  127.9840  127.3170   57.5340 C   0  0  0  0  0  0  0  0  0  0  0  0
  127.6830  125.9760   57.2890 C   0  0  0  0  0  0  0  0  0  0  0  0
  128.0820  125.3780   56.0860 C   0  0  0  0  0  0  0  0  0  0  0  0
  126.9200  123.2410   58.6290 C   0  0  0  0  0  0  0  0  0  0  0  0
  126.2110  123.5120   59.7970 C   0  0  0  0  0  0  0  0  0  0  0  0
  1  2  1  0
  2  3  2  0
  3  4  1  0
  4  5  2  0
  5  6  1  0
  6  7  2  0
  6  8  1  0
  8  9  1  0
  9 10  1  0
 10 11  1  0
 11 12  2  0
 12 13  1  0
 14 13  1  1
 14 15  1  0
 15 16  2  0
 16 17  1  0
 17 18  1  0
 18 19  2  0
 18 20  1  0
 20 21  1  0
 21 22  1  0
 22 23  2  0
 23 24  1  0
 24 25  2  0
 25 26  1  0
 26 27  2  0
 27 28  1  0
 28 29  2  0
 29 30  1  0
 30 31  2  0
 16 32  1  0
 32 33  1  0
 33 34  1  1
 13 35  2  0
 35 36  1  0
 36 37  2  0
  5 38  1  0
 38 39  2  0
 39  2  1  0
 37  8  1  0
 37 11  1  0
 33 14  1  0
 30 21  1  0
 29 24  1  0
M  END
>  <Binding energies>  (47) 
[-10.62]

>  <Ligand effiencies>  (47) 
[-0.26549999999999996]

>  <Interactions>  (47) 
["V-A:TYR:531:CZ:4794, V-A:TYR:539:CD2:4874, V-B:TYR:539:CZ:9848, V-B:LEU:363:CD1:8160, V-B:PRO:540:N:9855, V-B:PRO:540:CA:9854, V-B:TYR:539:CE1:9846, V-B:TYR:539:CD1:9844, V-B:PRO:540:CB:9856, V-B:ASP:366:CG:8184, V-B:TRP:381:CZ2:8341, V-B:TRP:381:CH2:8343, V-A:ALA:541:CB:4892, V-B:LEU:475:CD1:9229, V-A:MET:535:CE:4835, H-A:ALA:541:N:4891, H-A:TYR:539:O:4868, H-B:TYR:539:N:9841, V-B:LEU:363:CA:8156, V-B:MET:535:CB:9803, V-B:ASN:362:C:8143, V-B:ASN:362:CB:8147, V-B:MET:535:CG:9804, V-B:ASN:362:CA:8145"]

$$$$
RR26_Rahimova_2017
     RDKit          3D

 38 44  0  0  0  0  0  0  0  0999 V2000
  124.1840  124.3760   58.4030 C   0  0  0  0  0  0  0  0  0  0  0  0
  125.3580  123.9830   57.5150 C   0  0  0  0  0  0  0  0  0  0  0  0
  125.2570  122.8050   56.7670 C   0  0  0  0  0  0  0  0  0  0  0  0
  126.2830  122.4170   55.9080 C   0  0  0  0  0  0  0  0  0  0  0  0
  127.4190  123.2100   55.7830 C   0  0  0  0  0  0  0  0  0  0  0  0
  127.5310  124.3870   56.5210 C   0  0  0  0  0  0  0  0  0  0  0  0
  126.5120  124.7880   57.3990 C   0  0  0  0  0  0  0  0  0  0  0  0
  126.7190  126.0610   58.1680 C   0  0  0  0  0  0  0  0  0  0  0  0
  126.3740  127.2500   57.6820 N   0  0  0  0  0  0  0  0  0  0  0  0
  126.7110  128.0490   58.6580 C   0  0  0  0  0  0  0  0  0  0  0  0
  126.6520  129.7500   58.9410 S   0  0  0  0  0  0  0  0  0  0  0  0
  127.3770  129.4800   60.5710 C   0  0  0  0  0  0  0  0  0  0  0  0
  127.6860  130.4090   61.5030 C   0  0  0  0  0  0  0  0  0  0  0  0
  127.5040  131.8490   61.4280 C   0  0  0  0  0  0  0  0  0  0  0  0
  126.6470  132.6450   62.1730 C   0  0  0  0  0  0  0  0  0  0  0  0
  126.8430  133.9480   61.7930 N   0  0  0  0  0  0  0  0  0  0  0  0
  126.1970  135.1120   62.2830 C   0  0  0  0  0  0  0  0  0  0  0  0
  124.8010  135.1570   62.4160 C   0  0  0  0  0  0  0  0  0  0  0  0
  124.1800  136.3070   62.8950 C   0  0  0  0  0  0  0  0  0  0  0  0
  124.9490  137.4130   63.2470 C   0  0  0  0  0  0  0  0  0  0  0  0
  126.3370  137.3800   63.1230 C   0  0  0  0  0  0  0  0  0  0  0  0
  126.9610  136.2330   62.6410 C   0  0  0  0  0  0  0  0  0  0  0  0
  127.8050  134.0210   60.8610 N   0  0  0  0  0  0  0  0  0  0  0  0
  128.2020  132.7850   60.6310 C   0  0  0  0  0  0  0  0  0  0  0  0
  129.2750  132.5220   59.6200 C   0  0  0  0  0  0  0  0  0  0  0  0
  130.4410  131.8320   59.9860 C   0  0  0  0  0  0  0  0  0  0  0  0
  131.4490  131.5850   59.0520 C   0  0  0  0  0  0  0  0  0  0  0  0
  131.2970  132.0290   57.7400 C   0  0  0  0  0  0  0  0  0  0  0  0
  130.1280  132.7030   57.3570 C   0  0  0  0  0  0  0  0  0  0  0  0
  129.1260  132.9540   58.2940 C   0  0  0  0  0  0  0  0  0  0  0  0
  129.9540  133.2000   56.0810 O   0  0  0  0  0  0  0  0  0  0  0  0
  130.8130  132.6090   55.1010 C   0  0  0  0  0  0  0  0  0  0  0  0
  132.2610  132.5050   55.6390 C   0  0  0  0  0  0  0  0  0  0  0  0
  132.2960  131.7220   56.8370 O   0  0  0  0  0  0  0  0  0  0  0  0
  127.6450  128.0690   60.8320 C   0  0  0  0  0  0  0  0  0  0  0  0
  128.1360  127.5430   61.8330 O   0  0  0  0  0  0  0  0  0  0  0  0
  127.2300  127.3630   59.6930 N   0  0  0  0  0  0  0  0  0  0  0  0
  127.2370  126.0630   59.3870 N   0  0  0  0  0  0  0  0  0  0  0  0
  1  2  1  0
  2  3  2  0
  3  4  1  0
  4  5  2  0
  5  6  1  0
  6  7  2  0
  7  8  1  0
  8  9  1  0
  9 10  2  0
 10 11  1  0
 11 12  1  0
 12 13  2  0
 13 14  1  0
 14 15  2  0
 15 16  1  0
 16 17  1  0
 17 18  2  0
 18 19  1  0
 19 20  2  0
 20 21  1  0
 21 22  2  0
 16 23  1  0
 23 24  2  0
 24 25  1  0
 25 26  2  0
 26 27  1  0
 27 28  2  0
 28 29  1  0
 29 30  2  0
 29 31  1  0
 31 32  1  0
 32 33  1  0
 33 34  1  0
 12 35  1  0
 35 36  2  0
 35 37  1  0
 37 38  1  0
  7  2  1  0
 38  8  2  0
 37 10  1  0
 24 14  1  0
 30 25  1  0
 22 17  1  0
 34 28  1  0
M  END
>  <Binding energies>  (48) 
[-10.54]

>  <Ligand effiencies>  (48) 
[-0.27736842105263154]

>  <Interactions>  (48) 
["V-A:TYR:539:CE2:4876, V-A:TYR:539:CG:4872, V-A:LEU:363:CD1:3188, V-A:PRO:540:CA:4883, V-A:ILE:538:CG2:4863, V-A:PRO:540:CB:4885, V-A:PRO:540:N:4884, V-A:TYR:539:CD2:4874, V-A:ILE:538:CA:4860, V-A:TYR:539:C:4867, H-A:TYR:539:N:4870, V-A:ILE:538:CB:4862, V-B:TYR:539:CZ:9848, V-B:LEU:363:CD1:8160, V-B:PRO:540:N:9855, V-B:PRO:540:CA:9854, V-B:TYR:539:CE1:9846, V-B:TYR:539:CD1:9844, V-B:PRO:540:CB:9856, V-B:TRP:381:CZ2:8341, V-B:TRP:381:CH2:8343, V-A:ALA:541:CB:4892, V-B:LEU:475:CD1:9229, V-B:LEU:475:CB:9227, V-B:TRP:381:CE2:8338, V-B:PRO:482:CB:9297, V-B:PRO:482:CG:9298, V-B:SER:385:CA:8378, V-A:MET:535:CE:4835, V-B:SER:385:CB:8380, V-B:SER:385:C:8376, H-B:TYR:531:OH:9766, V-B:LEU:363:CA:8156, V-B:PRO:540:CD:9858"]

$$$$
RR2_Rahimova_2017
     RDKit          3D

 46 50  0  0  0  0  0  0  0  0999 V2000
  124.5750  133.8720   61.4260 C   0  0  0  0  0  0  0  0  0  0  0  0
  124.3950  132.4910   61.7220 O   0  0  0  0  0  0  0  0  0  0  0  0
  124.7640  131.5460   60.7830 C   0  0  0  0  0  0  0  0  0  0  0  0
  124.3520  131.5600   59.4430 C   0  0  0  0  0  0  0  0  0  0  0  0
  124.7720  130.5620   58.5680 C   0  0  0  0  0  0  0  0  0  0  0  0
  125.6090  129.5280   59.0100 C   0  0  0  0  0  0  0  0  0  0  0  0
  126.0460  128.4490   58.0390 C   0  0  0  0  0  0  0  0  0  0  0  0
  126.6650  128.7490   57.0120 O   0  0  0  0  0  0  0  0  0  0  0  0
  125.7030  127.1820   58.3700 N   0  0  0  0  0  0  0  0  0  0  0  0
  125.9980  126.1650   57.4680 N   0  0  0  0  0  0  0  0  0  0  0  0
  125.4200  124.9620   57.6520 C   0  0  0  0  0  0  0  0  0  0  0  0
  124.7860  124.6310   58.6590 O   0  0  0  0  0  0  0  0  0  0  0  0
  125.5680  123.9710   56.4900 C   0  0  0  0  0  0  0  0  0  0  0  0
  127.2850  123.4450   56.1350 S   0  0  0  0  0  0  0  0  0  0  0  0
  128.1720  124.9080   56.5770 C   0  0  0  0  0  0  0  0  0  0  0  0
  128.7410  125.6920   55.6960 N   0  0  0  0  0  0  0  0  0  0  0  0
  129.4030  126.6930   56.3940 N   0  0  0  0  0  0  0  0  0  0  0  0
  129.1830  126.4940   57.6720 C   0  0  0  0  0  0  0  0  0  0  0  0
  129.7220  127.3820   58.7460 C   0  0  0  0  0  0  0  0  0  0  0  0
  130.7290  126.9140   59.5950 C   0  0  0  0  0  0  0  0  0  0  0  0
  131.2310  127.7310   60.6030 C   0  0  0  0  0  0  0  0  0  0  0  0
  130.7430  129.0330   60.7610 C   0  0  0  0  0  0  0  0  0  0  0  0
  131.2050  129.8970   61.7660 N   0  0  0  0  0  0  0  0  0  0  0  0
  131.6140  131.6090   61.5190 S   0  0  0  0  0  0  0  0  0  0  0  0
  132.9990  131.7630   61.9810 O   0  0  0  0  0  0  0  0  0  0  0  0
  130.5350  132.4220   62.0910 O   0  0  0  0  0  0  0  0  0  0  0  0
  131.6360  131.8340   59.7420 C   0  0  0  0  0  0  0  0  0  0  0  0
  132.6930  131.3400   58.9750 C   0  0  0  0  0  0  0  0  0  0  0  0
  132.6990  131.5390   57.5970 C   0  0  0  0  0  0  0  0  0  0  0  0
  131.6470  132.2270   56.9870 C   0  0  0  0  0  0  0  0  0  0  0  0
  131.6620  132.4560   55.4860 C   0  0  0  0  0  0  0  0  0  0  0  0
  130.5930  132.7230   57.7570 C   0  0  0  0  0  0  0  0  0  0  0  0
  130.5870  132.5260   59.1350 C   0  0  0  0  0  0  0  0  0  0  0  0
  129.7400  129.5000   59.9110 C   0  0  0  0  0  0  0  0  0  0  0  0
  129.2320  128.6820   58.9070 C   0  0  0  0  0  0  0  0  0  0  0  0
  128.4050  125.3640   57.8620 N   0  0  0  0  0  0  0  0  0  0  0  0
  127.9850  124.7830   59.0770 C   0  0  0  0  0  0  0  0  0  0  0  0
  127.5340  125.5960   60.1180 C   0  0  0  0  0  0  0  0  0  0  0  0
  127.1160  125.0160   61.3120 C   0  0  0  0  0  0  0  0  0  0  0  0
  127.1450  123.6300   61.4780 C   0  0  0  0  0  0  0  0  0  0  0  0
  126.7120  123.1480   62.6980 O   0  0  0  0  0  0  0  0  0  0  0  0
  125.3250  123.2080   63.0170 C   0  0  0  0  0  0  0  0  0  0  0  0
  127.6010  122.8210   60.4250 C   0  0  0  0  0  0  0  0  0  0  0  0
  128.0180  123.3950   59.2280 C   0  0  0  0  0  0  0  0  0  0  0  0
  126.0220  129.5240   60.3510 C   0  0  0  0  0  0  0  0  0  0  0  0
  125.6020  130.5240   61.2240 C   0  0  0  0  0  0  0  0  0  0  0  0
  1  2  1  0
  2  3  1  0
  3  4  2  0
  4  5  1  0
  5  6  2  0
  6  7  1  0
  7  8  2  0
  7  9  1  0
  9 10  1  0
 10 11  1  0
 11 12  2  0
 11 13  1  0
 13 14  1  0
 14 15  1  0
 15 16  2  0
 16 17  1  0
 17 18  2  0
 18 19  1  0
 19 20  2  0
 20 21  1  0
 21 22  2  0
 22 23  1  0
 23 24  1  0
 24 25  2  0
 24 26  2  0
 24 27  1  0
 27 28  2  0
 28 29  1  0
 29 30  2  0
 30 31  1  0
 30 32  1  0
 32 33  2  0
 22 34  1  0
 34 35  2  0
 18 36  1  0
 36 37  1  0
 37 38  2  0
 38 39  1  0
 39 40  2  0
 40 41  1  0
 41 42  1  0
 40 43  1  0
 43 44  2  0
  6 45  1  0
 45 46  2  0
 46  3  1  0
 36 15  1  0
 44 37  1  0
 35 19  1  0
 33 27  1  0
M  END
>  <Binding energies>  (49) 
[-10.26]

>  <Ligand effiencies>  (49) 
[-0.2093877551020408]

>  <Interactions>  (49) 
["V-A:TYR:539:CE2:4876, V-A:LEU:363:CD1:3188, V-A:PRO:540:CA:4883, V-A:ILE:538:CG2:4863, H-A:GLU:543:OE1:4909, V-A:PRO:540:CB:4885, V-A:PRO:540:N:4884, V-A:ILE:538:CA:4860, V-A:ASP:366:CG:3212, V-A:TYR:539:C:4867, H-A:ASP:366:OD2:3214, V-A:ILE:538:CB:4862, V-B:TYR:539:CZ:9848, V-B:LEU:363:CD1:8160, V-B:PRO:540:CA:9854, V-B:ALA:541:CB:9863, V-B:MET:535:CE:9806, H-B:ASP:366:OD2:8186, V-B:ASP:366:CG:8184, V-B:GLU:543:CD:9879, V-B:ILE:369:CG2:8208, H-A:ALA:541:N:4891, H-B:TYR:531:OH:9766, V-B:ASP:366:CB:8183, V-B:ASP:366:CA:8181, V-B:PRO:540:C:9852, V-B:TYR:531:CZ:9765, H-A:TYR:531:OH:4795, H-B:MET:535:SD:9805, H-B:ALA:541:N:9862, V-B:ALA:541:CA:9861, V-B:ASN:362:CB:8147, V-B:ALA:541:C:9859, V-B:GLU:543:CG:9878, H-A:ARG:545:NH2:4928"]

$$$$
RR33_Rahimova_2017
     RDKit          3D

 18 19  0  0  0  0  0  0  0  0999 V2000
  125.5700  130.6790   56.8700 C   0  0  0  0  0  0  0  0  0  0  0  0
  124.1260  130.7840   57.3710 C   0  0  0  0  0  0  0  0  0  0  0  0
  124.0610  131.8000   58.3680 O   0  0  0  0  0  0  0  0  0  0  0  0
  124.3880  131.4890   59.6740 C   0  0  0  0  0  0  0  0  0  0  0  0
  123.3290  131.4170   60.5790 C   0  0  0  0  0  0  0  0  0  0  0  0
  123.5620  131.1130   61.9180 C   0  0  0  0  0  0  0  0  0  0  0  0
  124.8620  130.8760   62.3730 C   0  0  0  0  0  0  0  0  0  0  0  0
  125.1110  130.5510   63.8110 C   0  0  0  0  0  0  0  0  0  0  0  0
  126.2680  130.4800   64.4290 N   0  0  0  0  0  0  0  0  0  0  0  0
  125.9770  130.1650   65.6810 C   0  0  0  0  0  0  0  0  0  0  0  0
  127.0690  130.0030   66.7170 C   0  0  0  0  0  0  0  0  0  0  0  0
  126.9560  128.7160   67.3860 N   0  0  0  0  0  0  0  0  0  0  0  0
  128.2500  128.0560   67.4500 C   0  0  0  0  0  0  0  0  0  0  0  0
  124.6010  130.0410   65.8240 C   0  0  0  0  0  0  0  0  0  0  0  0
  123.6640  129.7170   66.9610 C   0  0  0  0  0  0  0  0  0  0  0  0
  124.0470  130.2900   64.6150 O   0  0  0  0  0  0  0  0  0  0  0  0
  125.9260  130.9430   61.4680 C   0  0  0  0  0  0  0  0  0  0  0  0
  125.6940  131.2480   60.1280 C   0  0  0  0  0  0  0  0  0  0  0  0
  1  2  1  0
  2  3  1  0
  3  4  1  0
  4  5  2  0
  5  6  1  0
  6  7  2  0
  7  8  1  0
  8  9  2  0
  9 10  1  0
 10 11  1  0
 11 12  1  0
 12 13  1  0
 10 14  2  0
 14 15  1  0
 14 16  1  0
  7 17  1  0
 17 18  2  0
 18  4  1  0
 16  8  1  0
M  END
>  <Binding energies>  (50) 
[-5.66]

>  <Ligand effiencies>  (50) 
[-0.29789473684210527]

>  <Interactions>  (50) 
["V-A:TYR:539:CZ:4877, H-B:GLU:543:OE2:9881, V-B:GLY:454:CA:9020, V-B:ASP:366:CG:8184, V-B:ARG:545:CD:9894, V-B:ILE:369:CD1:8210, H-B:GLY:454:N:9021, V-B:GLU:543:CD:9879, V-B:ARG:545:CZ:9897, V-B:ARG:545:CG:9893, V-B:ILE:369:CG2:8208, V-B:HIS:456:CE1:9041, V-A:GLU:543:CG:4907, V-A:GLU:543:CD:4908, H-A:TYR:539:OH:4878, V-B:ASP:366:CB:8183, V-B:ASP:366:C:8179, V-B:ASP:366:CA:8181, V-B:TYR:531:CZ:9765, V-B:ILE:369:CB:8207, H-B:ARG:545:NH2:9899, V-B:TYR:531:CE1:9763, H-B:GLU:543:OE1:9880, V-B:TYR:484:CZ:9318, V-B:ASN:370:CB:8216"]

$$$$
RR3_Rahimova_2017
     RDKit          3D

 38 44  0  0  0  0  0  0  0  0999 V2000
  125.5680  122.0140   54.9900 C   0  0  0  0  0  0  0  0  0  0  0  0
  124.8850  122.1030   56.1990 C   0  0  0  0  0  0  0  0  0  0  0  0
  125.4830  122.7380   57.2840 C   0  0  0  0  0  0  0  0  0  0  0  0
  126.7680  123.2910   57.1760 C   0  0  0  0  0  0  0  0  0  0  0  0
  127.4090  123.9740   58.3430 C   0  0  0  0  0  0  0  0  0  0  0  0
  127.0340  125.2730   58.7130 C   0  0  0  0  0  0  0  0  0  0  0  0
  127.6330  125.9090   59.7960 C   0  0  0  0  0  0  0  0  0  0  0  0
  128.6300  125.2620   60.5320 C   0  0  0  0  0  0  0  0  0  0  0  0
  129.2820  125.9420   61.6940 C   0  0  0  0  0  0  0  0  0  0  0  0
  129.1830  125.4190   62.9120 N   0  0  0  0  0  0  0  0  0  0  0  0
  129.8790  126.1930   63.7100 C   0  0  0  0  0  0  0  0  0  0  0  0
  130.0440  125.9890   65.1460 C   0  0  0  0  0  0  0  0  0  0  0  0
  130.8070  124.9990   65.7420 C   0  0  0  0  0  0  0  0  0  0  0  0
  130.7420  125.1080   67.1060 N   0  0  0  0  0  0  0  0  0  0  0  0
  129.9350  126.1690   67.4540 C   0  0  0  0  0  0  0  0  0  0  0  0
  129.5720  126.6660   68.7100 C   0  0  0  0  0  0  0  0  0  0  0  0
  128.7240  127.7730   68.7310 C   0  0  0  0  0  0  0  0  0  0  0  0
  128.2560  128.3610   67.5610 C   0  0  0  0  0  0  0  0  0  0  0  0
  128.6180  127.8660   66.3090 C   0  0  0  0  0  0  0  0  0  0  0  0
  129.4720  126.7510   66.2320 C   0  0  0  0  0  0  0  0  0  0  0  0
  130.4340  127.2350   63.0190 N   0  0  0  0  0  0  0  0  0  0  0  0
  130.0490  127.1200   61.7080 C   0  0  0  0  0  0  0  0  0  0  0  0
  130.4190  128.1210   60.6640 C   0  0  0  0  0  0  0  0  0  0  0  0
  130.4300  129.4820   60.9710 C   0  0  0  0  0  0  0  0  0  0  0  0
  130.7620  130.4190   59.9980 C   0  0  0  0  0  0  0  0  0  0  0  0
  131.0960  130.0180   58.6960 C   0  0  0  0  0  0  0  0  0  0  0  0
  131.4330  131.0290   57.6460 C   0  0  0  0  0  0  0  0  0  0  0  0
  131.4280  130.6830   56.2860 C   0  0  0  0  0  0  0  0  0  0  0  0
  131.7380  131.6260   55.3080 C   0  0  0  0  0  0  0  0  0  0  0  0
  132.0560  132.9280   55.6820 C   0  0  0  0  0  0  0  0  0  0  0  0
  132.0660  133.2920   57.0240 C   0  0  0  0  0  0  0  0  0  0  0  0
  131.7580  132.3480   57.9990 C   0  0  0  0  0  0  0  0  0  0  0  0
  131.0980  128.6460   58.4050 C   0  0  0  0  0  0  0  0  0  0  0  0
  130.7660  127.7070   59.3760 C   0  0  0  0  0  0  0  0  0  0  0  0
  129.0010  123.9630   60.1800 C   0  0  0  0  0  0  0  0  0  0  0  0
  128.4000  123.3290   59.0950 C   0  0  0  0  0  0  0  0  0  0  0  0
  127.4380  123.1880   55.9480 C   0  0  0  0  0  0  0  0  0  0  0  0
  126.8430  122.5550   54.8600 C   0  0  0  0  0  0  0  0  0  0  0  0
  1  2  2  0
  2  3  1  0
  3  4  2  0
  4  5  1  0
  5  6  2  0
  6  7  1  0
  7  8  2  0
  8  9  1  0
  9 10  1  0
 10 11  2  0
 11 12  1  0
 12 13  2  0
 13 14  1  0
 14 15  1  0
 15 16  2  0
 16 17  1  0
 17 18  2  0
 18 19  1  0
 19 20  2  0
 11 21  1  0
 21 22  1  0
 22 23  1  0
 23 24  2  0
 24 25  1  0
 25 26  2  0
 26 27  1  0
 27 28  2  0
 28 29  1  0
 29 30  2  0
 30 31  1  0
 31 32  2  0
 26 33  1  0
 33 34  2  0
  8 35  1  0
 35 36  2  0
  4 37  1  0
 37 38  2  0
 38  1  1  0
 36  5  1  0
 22  9  2  0
 34 23  1  0
 20 12  1  0
 32 27  1  0
 20 15  1  0
M  END
>  <Binding energies>  (51) 
[-10.47]

>  <Ligand effiencies>  (51) 
[-0.26175000000000004]

>  <Interactions>  (51) 
["V-A:LEU:363:CD1:3188, V-A:TYR:531:CE2:4793, V-A:PRO:540:CA:4883, V-A:ILE:538:CG2:4863, V-A:ASP:366:CB:3211, H-A:GLU:543:OE1:4909, V-A:PRO:540:CD:4887, V-A:TYR:531:CZ:4794, V-A:PRO:540:CB:4885, V-A:PRO:540:N:4884, V-A:ILE:538:CA:4860, V-A:TYR:539:C:4867, V-A:ILE:538:CB:4862, V-B:TYR:539:CZ:9848, V-B:LEU:363:CD1:8160, V-B:PRO:540:N:9855, V-B:PRO:540:CA:9854, V-B:MET:535:CE:9806, V-B:TYR:539:CE1:9846, V-B:TYR:539:CD1:9844, V-B:PRO:540:CB:9856, V-B:GLU:543:CD:9879, V-A:MET:535:CE:4835, V-B:HIS:456:CE1:9041, V-A:GLU:543:CG:4907, V-A:GLU:543:CD:4908, V-B:TYR:539:CE2:9847, V-B:PRO:540:CD:9858, V-A:MET:535:CG:4833, V-B:ILE:538:CD1:9836, V-B:ILE:538:CG2:9834, V-B:ILE:538:CA:9831, V-B:ILE:538:CB:9833, V-B:ILE:538:C:9829, V-B:GLU:543:CG:9878, V-B:PRO:540:CG:9857, V-A:PRO:540:CG:4886, H-A:GLU:543:OE2:4910, H-A:TYR:484:OH:4347, V-A:HIS:456:CE1:4069, V-A:TYR:484:CE1:4344, V-A:TYR:484:CZ:4346, V-B:ILE:538:CG1:9835, H-A:HIS:456:NE2:4070"]

$$$$
RR4_Rahimova_2017
     RDKit          3D

 40 44  0  0  0  0  0  0  0  0999 V2000
  130.0700  125.2610   74.1500 C   0  0  0  0  0  0  0  0  0  0  0  0
  128.9550  125.9790   73.6350 O   0  0  0  0  0  0  0  0  0  0  0  0
  128.9380  126.3300   72.2980 C   0  0  0  0  0  0  0  0  0  0  0  0
  128.2280  125.4930   71.4410 C   0  0  0  0  0  0  0  0  0  0  0  0
  128.1550  125.7690   70.0790 C   0  0  0  0  0  0  0  0  0  0  0  0
  128.7950  126.8910   69.5320 C   0  0  0  0  0  0  0  0  0  0  0  0
  128.7160  127.1850   68.0610 C   0  0  0  0  0  0  0  0  0  0  0  0
  127.9180  128.2060   67.5340 C   0  0  0  0  0  0  0  0  0  0  0  0
  127.8810  128.4430   66.1540 C   0  0  0  0  0  0  0  0  0  0  0  0
  127.0280  129.5690   65.6680 C   0  0  0  0  0  0  0  0  0  0  0  0
  125.6760  129.3530   65.3820 C   0  0  0  0  0  0  0  0  0  0  0  0
  124.8720  130.4000   64.9390 C   0  0  0  0  0  0  0  0  0  0  0  0
  125.3990  131.6810   64.7800 C   0  0  0  0  0  0  0  0  0  0  0  0
  124.5260  132.6560   64.3370 O   0  0  0  0  0  0  0  0  0  0  0  0
  124.1000  132.6420   62.9780 C   0  0  0  0  0  0  0  0  0  0  0  0
  126.7530  131.9030   65.0710 C   0  0  0  0  0  0  0  0  0  0  0  0
  127.5560  130.8550   65.5130 C   0  0  0  0  0  0  0  0  0  0  0  0
  128.6470  127.6070   65.3050 C   0  0  0  0  0  0  0  0  0  0  0  0
  128.6450  127.8130   63.8530 C   0  0  0  0  0  0  0  0  0  0  0  0
  128.6440  127.9750   62.7080 N   0  0  0  0  0  0  0  0  0  0  0  0
  129.4070  126.5760   65.9020 C   0  0  0  0  0  0  0  0  0  0  0  0
  130.4160  125.4260   64.9910 S   0  0  0  0  0  0  0  0  0  0  0  0
  129.4190  123.9290   64.6900 C   0  0  0  0  0  0  0  0  0  0  0  0
  129.3080  123.5230   63.2140 C   0  0  0  0  0  0  0  0  0  0  0  0
  130.2230  122.9050   62.6640 O   0  0  0  0  0  0  0  0  0  0  0  0
  128.1630  123.9090   62.6050 N   0  0  0  0  0  0  0  0  0  0  0  0
  127.7670  123.6920   61.2830 C   0  0  0  0  0  0  0  0  0  0  0  0
  128.8780  123.2250   60.0240 S   0  0  0  0  0  0  0  0  0  0  0  0
  127.6100  123.1980   58.8370 C   0  0  0  0  0  0  0  0  0  0  0  0
  126.3710  123.5430   59.3980 C   0  0  0  0  0  0  0  0  0  0  0  0
  126.4590  123.8070   60.7870 C   0  0  0  0  0  0  0  0  0  0  0  0
  125.3100  124.1690   61.6110 C   0  0  0  0  0  0  0  0  0  0  0  0
  124.3980  124.4560   62.2630 N   0  0  0  0  0  0  0  0  0  0  0  0
  125.0860  123.5540   58.5610 C   0  0  0  0  0  0  0  0  0  0  0  0
  125.2910  122.7820   57.2380 C   0  0  0  0  0  0  0  0  0  0  0  0
  126.6110  123.1590   56.5440 C   0  0  0  0  0  0  0  0  0  0  0  0
  127.8420  122.7760   57.3920 C   0  0  0  0  0  0  0  0  0  0  0  0
  129.4500  126.3890   67.2420 N   0  0  0  0  0  0  0  0  0  0  0  0
  129.5050  127.7310   70.4050 C   0  0  0  0  0  0  0  0  0  0  0  0
  129.5800  127.4580   71.7670 C   0  0  0  0  0  0  0  0  0  0  0  0
  1  2  1  0
  2  3  1  0
  3  4  2  0
  4  5  1  0
  5  6  2  0
  6  7  1  0
  7  8  2  0
  8  9  1  0
  9 10  1  0
 10 11  2  0
 11 12  1  0
 12 13  2  0
 13 14  1  0
 14 15  1  0
 13 16  1  0
 16 17  2  0
  9 18  2  0
 18 19  1  0
 19 20  3  0
 18 21  1  0
 21 22  1  0
 22 23  1  0
 23 24  1  0
 24 25  2  0
 24 26  1  0
 26 27  1  0
 27 28  1  0
 28 29  1  0
 29 30  2  0
 30 31  1  0
 31 32  1  0
 32 33  3  0
 30 34  1  0
 34 35  1  0
 35 36  1  0
 36 37  1  0
 21 38  2  0
  6 39  1  0
 39 40  2  0
 40  3  1  0
 38  7  1  0
 17 10  1  0
 31 27  2  0
 37 29  1  0
M  END
>  <Binding energies>  (52) 
[-11.26]

>  <Ligand effiencies>  (52) 
[-0.27463414634146344]

>  <Interactions>  (52) 
["V-B:TYR:539:CZ:9848, H-B:GLU:543:OE2:9881, V-B:LEU:363:CD1:8160, V-B:PRO:540:N:9855, V-B:PRO:540:CA:9854, V-B:ALA:541:CB:9863, V-B:TYR:539:C:9838, V-B:TYR:539:CE1:9846, V-B:TYR:539:CD1:9844, V-B:PRO:540:CB:9856, V-B:GLY:454:CA:9020, V-B:LEU:475:CD1:9229, V-B:ILE:369:CD1:8210, H-B:GLY:454:N:9021, V-B:GLU:543:CD:9879, V-B:ARG:545:CZ:9897, V-B:HIS:456:CE1:9041, V-A:GLU:543:CG:4907, V-A:GLU:543:CD:4908, V-B:TYR:539:CD2:9845, V-B:TYR:539:CE2:9847, V-B:PRO:540:CD:9858, H-B:ARG:545:NH2:9899, V-B:TYR:539:CG:9843, V-B:ASN:362:CB:8147, V-B:GLU:543:CG:9878, V-B:PRO:540:CG:9857, V-A:HIS:456:CE1:4069, V-B:GLU:543:CB:9877, V-A:HIS:456:CD2:4067, H-B:LYS:547:NZ:9922, V-B:GLU:543:C:9873"]

$$$$
RR6_Rahimova_2017
     RDKit          3D

 38 41  0  0  0  0  0  0  0  0999 V2000
  131.9180  132.4640   55.7960 C   0  0  0  0  0  0  0  0  0  0  0  0
  131.4000  133.3360   56.7920 O   0  0  0  0  0  0  0  0  0  0  0  0
  130.1110  133.2350   57.2070 C   0  0  0  0  0  0  0  0  0  0  0  0
  129.1460  133.5900   56.5220 O   0  0  0  0  0  0  0  0  0  0  0  0
  129.9740  132.6470   58.5820 C   0  0  0  0  0  0  0  0  0  0  0  0
  131.0770  132.1530   59.2930 C   0  0  0  0  0  0  0  0  0  0  0  0
  130.9160  131.6070   60.5640 C   0  0  0  0  0  0  0  0  0  0  0  0
  129.6410  131.5420   61.1450 C   0  0  0  0  0  0  0  0  0  0  0  0
  129.3630  130.9860   62.4080 N   0  0  0  0  0  0  0  0  0  0  0  0
  128.2020  130.9730   63.1000 C   0  0  0  0  0  0  0  0  0  0  0  0
  127.1380  131.4600   62.7190 O   0  0  0  0  0  0  0  0  0  0  0  0
  128.2720  130.3440   64.4960 C   0  0  0  0  0  0  0  0  0  0  0  0
  127.6370  128.6360   64.5630 S   0  0  0  0  0  0  0  0  0  0  0  0
  128.6720  127.7480   65.7090 C   0  0  0  0  0  0  0  0  0  0  0  0
  129.4090  126.7610   65.1450 N   0  0  0  0  0  0  0  0  0  0  0  0
  130.2580  126.0330   65.9120 C   0  0  0  0  0  0  0  0  0  0  0  0
  131.0820  125.0000   65.2000 C   0  0  0  0  0  0  0  0  0  0  0  0
  132.3500  125.3150   64.6880 C   0  0  0  0  0  0  0  0  0  0  0  0
  133.1090  124.3600   64.0150 C   0  0  0  0  0  0  0  0  0  0  0  0
  132.6130  123.0680   63.8470 C   0  0  0  0  0  0  0  0  0  0  0  0
  133.4400  122.0330   63.1050 C   0  0  0  0  0  0  0  0  0  0  0  0
  131.3580  122.7350   64.3490 C   0  0  0  0  0  0  0  0  0  0  0  0
  130.6040  123.6920   65.0210 C   0  0  0  0  0  0  0  0  0  0  0  0
  130.3740  126.2810   67.2830 C   0  0  0  0  0  0  0  0  0  0  0  0
  129.6200  127.2940   67.8910 C   0  0  0  0  0  0  0  0  0  0  0  0
  129.8070  127.5180   69.3560 C   0  0  0  0  0  0  0  0  0  0  0  0
  130.7810  128.4110   69.8120 C   0  0  0  0  0  0  0  0  0  0  0  0
  130.9510  128.6370   71.1750 C   0  0  0  0  0  0  0  0  0  0  0  0
  130.1490  127.9810   72.1080 C   0  0  0  0  0  0  0  0  0  0  0  0
  130.3870  128.2690   73.4380 O   0  0  0  0  0  0  0  0  0  0  0  0
  129.3770  128.9250   74.1970 C   0  0  0  0  0  0  0  0  0  0  0  0
  129.1660  127.0870   71.6550 C   0  0  0  0  0  0  0  0  0  0  0  0
  128.9990  126.8640   70.2910 C   0  0  0  0  0  0  0  0  0  0  0  0
  128.7350  128.0510   67.0840 C   0  0  0  0  0  0  0  0  0  0  0  0
  127.8960  129.1060   67.6610 C   0  0  0  0  0  0  0  0  0  0  0  0
  127.2350  129.9400   68.1160 N   0  0  0  0  0  0  0  0  0  0  0  0
  128.5440  132.0470   60.4480 C   0  0  0  0  0  0  0  0  0  0  0  0
  128.7060  132.5910   59.1770 C   0  0  0  0  0  0  0  0  0  0  0  0
  1  2  1  0
  2  3  1  0
  3  4  2  0
  3  5  1  0
  5  6  2  0
  6  7  1  0
  7  8  2  0
  8  9  1  0
  9 10  1  0
 10 11  2  0
 10 12  1  0
 12 13  1  0
 13 14  1  0
 14 15  2  0
 15 16  1  0
 16 17  1  0
 17 18  2  0
 18 19  1  0
 19 20  2  0
 20 21  1  0
 20 22  1  0
 22 23  2  0
 16 24  2  0
 24 25  1  0
 25 26  1  0
 26 27  2  0
 27 28  1  0
 28 29  2  0
 29 30  1  0
 30 31  1  0
 29 32  1  0
 32 33  2  0
 25 34  2  0
 34 35  1  0
 35 36  3  0
  8 37  1  0
 37 38  2  0
 38  5  1  0
 34 14  1  0
 23 17  1  0
 33 26  1  0
M  END
>  <Binding energies>  (53) 
[-10.29]

>  <Ligand effiencies>  (53) 
[-0.26384615384615384]

>  <Interactions>  (53) 
["V-A:TYR:539:CE2:4876, V-A:LEU:363:CD1:3188, V-A:PRO:540:CA:4883, V-A:ILE:538:CG2:4863, V-A:TYR:539:CA:4869, H-A:GLU:543:OE1:4909, V-A:PRO:540:CB:4885, V-A:PRO:540:N:4884, V-A:TYR:539:CD2:4874, V-A:TYR:539:C:4867, H-A:TYR:539:N:4870, V-A:ILE:538:CB:4862, H-B:TYR:484:OH:9319, V-B:GLU:543:CD:9879, V-B:HIS:456:CE1:9041, V-A:GLU:543:CG:4907, V-A:GLU:543:CD:4908, V-A:LEU:475:CD2:4258, V-A:ILE:369:CD1:3238, V-A:ARG:545:CZ:4926, V-A:HIS:456:CE1:4069, V-A:GLY:454:CA:4048, V-A:GLU:543:CB:4906, H-B:HIS:456:ND1:9038, H-A:LYS:547:NZ:4951, V-A:LYS:547:CE:4950"]

$$$$
RR7_Rahimova_2017
     RDKit          3D

 47 53  0  0  0  0  0  0  0  0999 V2000
  132.8200  122.8590   61.9770 C   0  0  0  0  0  0  0  0  0  0  0  0
  132.1090  122.1020   61.0030 O   0  0  0  0  0  0  0  0  0  0  0  0
  131.0110  122.6650   60.3820 C   0  0  0  0  0  0  0  0  0  0  0  0
  129.8490  121.8960   60.3540 C   0  0  0  0  0  0  0  0  0  0  0  0
  128.6910  122.3820   59.7550 C   0  0  0  0  0  0  0  0  0  0  0  0
  128.6710  123.6510   59.1570 C   0  0  0  0  0  0  0  0  0  0  0  0
  127.3780  124.2350   58.5080 C   0  0  0  0  0  0  0  0  0  0  0  0
  127.6690  125.6140   58.1900 O   0  0  0  0  0  0  0  0  0  0  0  0
  126.7470  126.3800   57.4080 C   0  0  0  0  0  0  0  0  0  0  0  0
  127.5320  127.2040   56.3740 C   0  0  1  0  0  0  0  0  0  0  0  0
  127.1930  128.5710   56.5930 O   0  0  0  0  0  0  0  0  0  0  0  0
  128.3190  129.3480   56.8850 C   0  0  1  0  0  0  0  0  0  0  0  0
  127.9650  130.4120   57.8060 N   0  0  0  0  0  0  0  0  0  0  0  0
  126.7240  130.9910   58.0030 C   0  0  0  0  0  0  0  0  0  0  0  0
  126.6950  131.9730   58.8700 N   0  0  0  0  0  0  0  0  0  0  0  0
  128.0010  132.1070   59.2570 C   0  0  0  0  0  0  0  0  0  0  0  0
  128.6330  132.9900   60.1540 C   0  0  0  0  0  0  0  0  0  0  0  0
  127.8470  133.9390   60.8340 N   0  0  0  0  0  0  0  0  0  0  0  0
  126.6670  133.7660   61.4760 C   0  0  0  0  0  0  0  0  0  0  0  0
  126.0660  132.6910   61.5470 O   0  0  0  0  0  0  0  0  0  0  0  0
  126.0750  135.0100   62.1040 C   0  0  0  0  0  0  0  0  0  0  0  0
  126.9140  136.0790   62.4520 C   0  0  0  0  0  0  0  0  0  0  0  0
  126.3900  137.2330   63.0260 C   0  0  0  0  0  0  0  0  0  0  0  0
  125.0210  137.3310   63.2510 C   0  0  0  0  0  0  0  0  0  0  0  0
  124.1700  136.2840   62.9090 C   0  0  0  0  0  0  0  0  0  0  0  0
  124.6940  135.1270   62.3360 C   0  0  0  0  0  0  0  0  0  0  0  0
  129.9850  132.9030   60.3340 N   0  0  0  0  0  0  0  0  0  0  0  0
  130.6600  131.9580   59.6290 C   0  0  0  0  0  0  0  0  0  0  0  0
  130.1520  131.0570   58.7460 N   0  0  0  0  0  0  0  0  0  0  0  0
  128.8250  131.1610   58.5940 C   0  0  0  0  0  0  0  0  0  0  0  0
  129.3600  128.3660   57.4080 C   0  0  0  0  0  0  0  0  0  0  0  0
  129.0580  127.1610   56.5330 C   0  0  2  0  0  0  0  0  0  0  0  0
  129.7340  127.2260   55.2880 O   0  0  0  0  0  0  0  0  0  0  0  0
  127.0170  123.5290   57.1740 C   0  0  0  0  0  0  0  0  0  0  0  0
  127.7770  123.7680   56.0180 C   0  0  0  0  0  0  0  0  0  0  0  0
  127.4550  123.1520   54.8130 C   0  0  0  0  0  0  0  0  0  0  0  0
  126.3640  122.2900   54.7510 C   0  0  0  0  0  0  0  0  0  0  0  0
  125.5960  122.0390   55.8840 C   0  0  0  0  0  0  0  0  0  0  0  0
  125.9190  122.6560   57.0890 C   0  0  0  0  0  0  0  0  0  0  0  0
  126.0920  124.1640   59.3790 C   0  0  0  0  0  0  0  0  0  0  0  0
  126.1340  123.5970   60.6630 C   0  0  0  0  0  0  0  0  0  0  0  0
  124.9870  123.5210   61.4470 C   0  0  0  0  0  0  0  0  0  0  0  0
  123.7790  124.0030   60.9490 C   0  0  0  0  0  0  0  0  0  0  0  0
  123.7110  124.5560   59.6750 C   0  0  0  0  0  0  0  0  0  0  0  0
  124.8600  124.6320   58.8930 C   0  0  0  0  0  0  0  0  0  0  0  0
  129.8390  124.4260   59.2010 C   0  0  0  0  0  0  0  0  0  0  0  0
  130.9970  123.9410   59.8010 C   0  0  0  0  0  0  0  0  0  0  0  0
  1  2  1  0
  2  3  1  0
  3  4  2  0
  4  5  1  0
  5  6  2  0
  6  7  1  0
  7  8  1  0
  8  9  1  0
 10  9  1  1
 10 11  1  0
 11 12  1  0
 12 13  1  1
 13 14  1  0
 14 15  2  0
 15 16  1  0
 16 17  2  0
 17 18  1  0
 18 19  1  0
 19 20  2  0
 19 21  1  0
 21 22  2  0
 22 23  1  0
 23 24  2  0
 24 25  1  0
 25 26  2  0
 17 27  1  0
 27 28  2  0
 28 29  1  0
 29 30  2  0
 12 31  1  0
 31 32  1  0
 32 33  1  6
  7 34  1  0
 34 35  2  0
 35 36  1  0
 36 37  2  0
 37 38  1  0
 38 39  2  0
  7 40  1  0
 40 41  2  0
 41 42  1  0
 42 43  2  0
 43 44  1  0
 44 45  2  0
  6 46  1  0
 46 47  2  0
 47  3  1  0
 32 10  1  0
 39 34  1  0
 45 40  1  0
 30 13  1  0
 30 16  1  0
 26 21  1  0
M  END
>  <Binding energies>  (54) 
[-11.71]

>  <Ligand effiencies>  (54) 
[-0.2389795918367347]

>  <Interactions>  (54) 
["V-A:TYR:539:CE2:4876, V-A:TYR:539:CZ:4877, V-A:PRO:540:CA:4883, V-A:TYR:539:CD2:4874, V-A:TYR:539:C:4867, V-B:TYR:539:CZ:9848, V-B:LEU:363:CD1:8160, V-B:PRO:540:N:9855, V-B:PRO:540:CA:9854, V-B:MET:535:CE:9806, V-B:TYR:539:C:9838, V-B:TYR:539:CE1:9846, V-B:TYR:539:CD1:9844, V-B:PRO:540:CB:9856, V-B:ASP:366:CG:8184, V-B:TRP:381:CZ2:8341, V-B:TRP:381:CH2:8343, V-A:ALA:541:CB:4892, V-B:LEU:475:CD1:9229, V-B:LEU:475:CB:9227, V-B:TRP:381:CE2:8338, V-B:PRO:482:CB:9297, V-B:PRO:482:CG:9298, V-B:SER:385:CA:8378, V-A:MET:535:CE:4835, H-A:ALA:541:N:4891, H-A:TYR:539:O:4868, V-B:SER:385:CB:8380, V-B:SER:385:C:8376, H-B:TYR:531:OH:9766, V-B:ASP:366:CB:8183, V-B:TYR:539:CD2:9845, V-B:LEU:363:CA:8156, V-B:TYR:539:CE2:9847, V-B:PRO:540:CD:9858, H-A:TYR:531:OH:4795, V-A:ILE:369:CG2:3236, V-B:ILE:538:CD1:9836, V-B:ILE:538:CG2:9834, V-B:ILE:538:CA:9831, V-B:ILE:538:C:9829, V-B:ASN:362:C:8143, V-B:ASN:362:CB:8147, V-B:ASN:362:CA:8145, H-A:MET:535:SD:4834"]

$$$$
RR8_A_Rahimova_2017
     RDKit          3D

 42 46  0  0  0  0  0  0  0  0999 V2000
  132.3880  132.5470   61.9740 O   0  0  0  0  0  0  0  0  0  0  0  0
  131.8040  131.7400   61.2420 C   0  0  0  0  0  0  0  0  0  0  0  0
  131.1910  130.5990   61.6830 O   0  0  0  0  0  0  0  0  0  0  0  0
  129.7930  130.6120   61.7850 C   0  0  1  0  0  0  0  0  0  0  0  0
  129.3250  129.5680   62.5880 O   0  0  0  0  0  0  0  0  0  0  0  0
  128.2220  129.9730   63.3940 C   0  0  2  0  0  0  0  0  0  0  0  0
  127.0410  129.0260   63.1200 C   0  0  0  0  0  0  0  0  0  0  0  0
  126.0960  129.6980   62.2970 O   0  0  0  0  0  0  0  0  0  0  0  0
  126.3240  129.5340   60.9040 C   0  0  0  0  0  0  0  0  0  0  0  0
  125.2900  130.3250   60.1160 C   0  0  0  0  0  0  0  0  0  0  0  0
  124.3110  131.0590   60.7910 C   0  0  0  0  0  0  0  0  0  0  0  0
  123.3670  131.7880   60.0720 C   0  0  0  0  0  0  0  0  0  0  0  0
  123.4070  131.7850   58.6790 C   0  0  0  0  0  0  0  0  0  0  0  0
  124.3840  131.0610   57.9980 C   0  0  0  0  0  0  0  0  0  0  0  0
  125.3280  130.3330   58.7170 C   0  0  0  0  0  0  0  0  0  0  0  0
  127.9990  131.4390   62.9970 C   0  0  1  0  0  0  0  0  0  0  0  0
  127.6530  132.2710   64.1020 O   0  0  0  0  0  0  0  0  0  0  0  0
  127.9400  131.7390   65.3900 C   0  0  0  0  0  0  0  0  0  0  0  0
  126.7760  130.8840   65.8700 C   0  0  0  0  0  0  0  0  0  0  0  0
  125.5030  131.0740   65.3220 C   0  0  0  0  0  0  0  0  0  0  0  0
  124.4320  130.3020   65.7620 C   0  0  0  0  0  0  0  0  0  0  0  0
  124.6340  129.3430   66.7530 C   0  0  0  0  0  0  0  0  0  0  0  0
  125.8960  129.1520   67.3090 C   0  0  0  0  0  0  0  0  0  0  0  0
  126.9680  129.9250   66.8700 C   0  0  0  0  0  0  0  0  0  0  0  0
  129.3670  131.8810   62.5100 C   0  0  2  0  0  0  0  0  0  0  0  0
  129.2530  133.0170   61.6570 O   0  0  0  0  0  0  0  0  0  0  0  0
  128.0480  133.1040   60.9040 C   0  0  0  0  0  0  0  0  0  0  0  0
  127.1900  134.2460   61.4290 C   0  0  0  0  0  0  0  0  0  0  0  0
  125.8170  134.0640   61.6210 C   0  0  0  0  0  0  0  0  0  0  0  0
  125.0380  135.1080   62.1110 C   0  0  0  0  0  0  0  0  0  0  0  0
  125.6330  136.3310   62.4110 C   0  0  0  0  0  0  0  0  0  0  0  0
  127.0010  136.5200   62.2280 C   0  0  0  0  0  0  0  0  0  0  0  0
  127.7820  135.4750   61.7380 C   0  0  0  0  0  0  0  0  0  0  0  0
  131.6860  131.9240   59.7560 C   0  0  0  0  0  0  0  0  0  0  0  0
  132.6870  131.4890   58.8730 C   0  0  0  0  0  0  0  0  0  0  0  0
  132.5480  131.6750   57.5000 C   0  0  0  0  0  0  0  0  0  0  0  0
  131.4090  132.3000   56.9750 C   0  0  0  0  0  0  0  0  0  0  0  0
  131.2620  132.4960   55.5130 N   0  0  0  0  0  0  0  0  0  0  0  0
  130.4190  133.2910   55.1070 O   0  0  0  0  0  0  0  0  0  0  0  0
  131.9900  131.8570   54.7580 O   0  0  0  0  0  0  0  0  0  0  0  0
  130.4130  132.7360   57.8580 C   0  0  0  0  0  0  0  0  0  0  0  0
  130.5490  132.5510   59.2300 C   0  0  0  0  0  0  0  0  0  0  0  0
  1  2  2  0
  2  3  1  0
  4  3  1  1
  4  5  1  0
  5  6  1  0
  6  7  1  6
  7  8  1  0
  8  9  1  0
  9 10  1  0
 10 11  2  0
 11 12  1  0
 12 13  2  0
 13 14  1  0
 14 15  2  0
  6 16  1  0
 16 17  1  1
 17 18  1  0
 18 19  1  0
 19 20  2  0
 20 21  1  0
 21 22  2  0
 22 23  1  0
 23 24  2  0
 16 25  1  0
 25 26  1  6
 26 27  1  0
 27 28  1  0
 28 29  2  0
 29 30  1  0
 30 31  2  0
 31 32  1  0
 32 33  2  0
  2 34  1  0
 34 35  2  0
 35 36  1  0
 36 37  2  0
 37 38  1  0
 38 39  2  0
 38 40  1  0
 37 41  1  0
 41 42  2  0
 25  4  1  0
 33 28  1  0
 42 34  1  0
 15 10  1  0
 24 19  1  0
M  CHG  2  38   1  40  -1
M  END
>  <Binding energies>  (55) 
[-10.39]

>  <Ligand effiencies>  (55) 
[-0.2473809523809524]

>  <Interactions>  (55) 
["V-A:TYR:539:CE2:4876, V-A:LEU:363:CD1:3188, V-A:PRO:540:CA:4883, V-A:ILE:538:CG2:4863, V-A:PRO:540:CB:4885, V-A:PRO:540:N:4884, V-A:TYR:539:CD2:4874, V-A:ILE:538:CA:4860, V-A:TYR:539:C:4867, H-A:TYR:539:N:4870, V-A:ILE:538:CB:4862, V-B:GLY:454:CA:9020, V-B:ASP:366:CG:8184, V-B:TRP:381:CZ2:8341, V-B:ARG:545:CD:9894, V-B:TRP:381:CH2:8343, V-A:ALA:541:CB:4892, V-B:LEU:475:CD1:9229, V-B:PRO:482:CB:9297, V-B:ILE:369:CD1:8210, V-B:PRO:482:CG:9298, V-B:ARG:545:CZ:9897, V-B:ARG:545:CG:9893, V-B:ILE:369:CG2:8208, V-A:MET:535:CE:4835, H-A:ALA:541:N:4891, V-B:HIS:456:CE1:9041, V-A:GLU:543:CG:4907, V-A:GLU:543:CD:4908, V-B:ASP:366:CB:8183, V-B:ASP:366:C:8179, V-B:ASP:366:CA:8181, V-B:ILE:369:CB:8207, H-B:ARG:545:NH2:9899, H-A:ARG:545:NH2:4928, V-B:TYR:484:CZ:9318"]

$$$$
RR8_B_Rahimova_2017
     RDKit          3D

 42 46  0  0  0  0  0  0  0  0999 V2000
  124.0500  131.7940   57.6300 O   0  0  0  0  0  0  0  0  0  0  0  0
  124.6560  130.9900   58.3460 C   0  0  0  0  0  0  0  0  0  0  0  0
  125.4900  130.0130   57.8770 O   0  0  0  0  0  0  0  0  0  0  0  0
  126.3860  130.3430   56.8450 C   0  0  2  0  0  0  0  0  0  0  0  0
  126.6820  129.2390   56.0380 O   0  0  0  0  0  0  0  0  0  0  0  0
  127.8370  128.5440   56.5070 C   0  0  2  0  0  0  0  0  0  0  0  0
  127.4670  127.0810   56.8110 C   0  0  0  0  0  0  0  0  0  0  0  0
  128.0670  126.2350   55.8370 O   0  0  0  0  0  0  0  0  0  0  0  0
  128.5160  124.9810   56.3290 C   0  0  0  0  0  0  0  0  0  0  0  0
  127.4220  123.9430   56.1280 C   0  0  0  0  0  0  0  0  0  0  0  0
  127.4050  123.1710   54.9630 C   0  0  0  0  0  0  0  0  0  0  0  0
  126.3930  122.2360   54.7600 C   0  0  0  0  0  0  0  0  0  0  0  0
  125.4010  122.0750   55.7270 C   0  0  0  0  0  0  0  0  0  0  0  0
  125.4160  122.8360   56.8930 C   0  0  0  0  0  0  0  0  0  0  0  0
  126.4260  123.7740   57.0940 C   0  0  0  0  0  0  0  0  0  0  0  0
  128.3130  129.3670   57.7100 C   0  0  1  0  0  0  0  0  0  0  0  0
  129.7420  129.3560   57.7710 O   0  0  0  0  0  0  0  0  0  0  0  0
  130.3370  128.8920   58.9860 C   0  0  0  0  0  0  0  0  0  0  0  0
  130.2550  129.9290   60.1020 C   0  0  0  0  0  0  0  0  0  0  0  0
  129.0750  130.0770   60.8360 C   0  0  0  0  0  0  0  0  0  0  0  0
  129.0140  131.0020   61.8750 C   0  0  0  0  0  0  0  0  0  0  0  0
  130.1320  131.7790   62.1740 C   0  0  0  0  0  0  0  0  0  0  0  0
  131.3100  131.6400   61.4430 C   0  0  0  0  0  0  0  0  0  0  0  0
  131.3720  130.7120   60.4050 C   0  0  0  0  0  0  0  0  0  0  0  0
  127.7290  130.7510   57.4480 C   0  0  2  0  0  0  0  0  0  0  0  0
  127.6150  131.4810   58.6680 O   0  0  0  0  0  0  0  0  0  0  0  0
  128.2470  132.7510   58.6850 C   0  0  0  0  0  0  0  0  0  0  0  0
  129.3530  132.7460   57.6440 C   0  0  0  0  0  0  0  0  0  0  0  0
  130.6690  132.4530   58.0120 C   0  0  0  0  0  0  0  0  0  0  0  0
  131.6770  132.4700   57.0520 C   0  0  0  0  0  0  0  0  0  0  0  0
  131.3680  132.7800   55.7300 C   0  0  0  0  0  0  0  0  0  0  0  0
  130.0570  133.0720   55.3550 C   0  0  0  0  0  0  0  0  0  0  0  0
  129.0480  133.0540   56.3140 C   0  0  0  0  0  0  0  0  0  0  0  0
  124.5240  130.9620   59.8420 C   0  0  0  0  0  0  0  0  0  0  0  0
  123.4780  131.6220   60.5040 C   0  0  0  0  0  0  0  0  0  0  0  0
  123.3860  131.5850   61.8910 C   0  0  0  0  0  0  0  0  0  0  0  0
  124.3400  130.8980   62.6520 C   0  0  0  0  0  0  0  0  0  0  0  0
  124.2540  130.8820   64.1330 N   0  0  0  0  0  0  0  0  0  0  0  0
  123.7380  129.9130   64.6830 O   0  0  0  0  0  0  0  0  0  0  0  0
  124.7060  131.8380   64.7590 O   0  0  0  0  0  0  0  0  0  0  0  0
  125.3800  130.2340   61.9890 C   0  0  0  0  0  0  0  0  0  0  0  0
  125.4700  130.2640   60.6020 C   0  0  0  0  0  0  0  0  0  0  0  0
  1  2  2  0
  2  3  1  0
  4  3  1  1
  4  5  1  0
  5  6  1  0
  6  7  1  1
  7  8  1  0
  8  9  1  0
  9 10  1  0
 10 11  2  0
 11 12  1  0
 12 13  2  0
 13 14  1  0
 14 15  2  0
  6 16  1  0
 16 17  1  6
 17 18  1  0
 18 19  1  0
 19 20  2  0
 20 21  1  0
 21 22  2  0
 22 23  1  0
 23 24  2  0
 16 25  1  0
 25 26  1  1
 26 27  1  0
 27 28  1  0
 28 29  2  0
 29 30  1  0
 30 31  2  0
 31 32  1  0
 32 33  2  0
  2 34  1  0
 34 35  2  0
 35 36  1  0
 36 37  2  0
 37 38  1  0
 38 39  2  0
 38 40  1  0
 37 41  1  0
 41 42  2  0
 25  4  1  0
 33 28  1  0
 42 34  1  0
 15 10  1  0
 24 19  1  0
M  CHG  2  38   1  40  -1
M  END
>  <Binding energies>  (56) 
[-10.79]

>  <Ligand effiencies>  (56) 
[-0.25690476190476186]

>  <Interactions>  (56) 
["V-A:TYR:539:CD1:4873, V-A:TYR:539:CE2:4876, V-A:TYR:539:CG:4872, V-A:ILE:538:C:4858, V-A:TYR:539:CZ:4877, V-A:TYR:539:CE1:4875, V-A:LEU:363:CD1:3188, V-A:PRO:540:CA:4883, V-A:ILE:538:CG2:4863, V-A:PRO:540:N:4884, V-A:TYR:539:CD2:4874, V-A:ILE:538:CA:4860, V-A:TYR:539:C:4867, V-A:ILE:538:CB:4862, V-B:TYR:539:CZ:9848, V-B:LEU:363:CD1:8160, V-B:PRO:540:N:9855, V-B:PRO:540:CA:9854, V-B:MET:535:CE:9806, V-B:TYR:539:CE1:9846, V-B:TYR:539:CD1:9844, V-B:PRO:540:CB:9856, V-B:GLY:454:CA:9020, V-B:ASP:366:CG:8184, V-A:ALA:541:CB:4892, H-B:TYR:484:OH:9319, V-B:ILE:369:CD1:8210, H-B:GLY:454:N:9021, V-B:ILE:369:CG2:8208, V-A:MET:535:CE:4835, H-B:TYR:531:OH:9766, H-A:TYR:539:OH:4878, V-B:ASP:366:CB:8183, V-B:ASP:366:CA:8181, V-B:PRO:540:CD:9858, H-A:TYR:531:OH:4795, V-B:ILE:369:CB:8207, H-B:ARG:545:NH2:9899, H-B:ARG:545:NE:9895, V-B:ILE:538:CD1:9836, V-B:ILE:538:CG2:9834, V-B:ILE:538:CA:9831, V-B:ILE:538:C:9829, H-B:ARG:545:NH1:9898"]

$$$$
RR9_Rahimova_2017
     RDKit          3D

 36 40  0  0  0  0  0  0  0  0999 V2000
  125.2290  122.1010   55.3710 C   0  0  0  0  0  0  0  0  0  0  0  0
  126.7120  122.4840   55.4000 C   0  0  0  0  0  0  0  0  0  0  0  0
  127.0660  122.8450   56.7320 O   0  0  0  0  0  0  0  0  0  0  0  0
  126.9720  124.1670   57.1240 C   0  0  0  0  0  0  0  0  0  0  0  0
  125.8950  124.4990   57.9430 C   0  0  0  0  0  0  0  0  0  0  0  0
  125.7170  125.8060   58.3850 C   0  0  0  0  0  0  0  0  0  0  0  0
  126.6150  126.8200   58.0200 C   0  0  0  0  0  0  0  0  0  0  0  0
  126.4260  128.2320   58.4900 C   0  0  0  0  0  0  0  0  0  0  0  0
  127.3340  128.8430   59.3700 C   0  0  0  0  0  0  0  0  0  0  0  0
  127.1590  130.1710   59.7980 C   0  0  0  0  0  0  0  0  0  0  0  0
  128.2200  130.8010   60.6590 C   0  0  0  0  0  0  0  0  0  0  0  0
  127.9390  131.2320   61.7770 O   0  0  0  0  0  0  0  0  0  0  0  0
  129.4510  130.8740   60.1130 N   0  0  0  0  0  0  0  0  0  0  0  0
  130.6110  131.5550   60.6970 C   0  0  0  0  0  0  0  0  0  0  0  0
  131.6840  131.9290   59.6480 C   0  0  0  0  0  0  0  0  0  0  0  0
  131.1320  132.3000   58.2760 C   0  0  0  0  0  0  0  0  0  0  0  0
  131.8780  132.0320   57.1240 C   0  0  0  0  0  0  0  0  0  0  0  0
  131.3560  132.3400   55.8700 C   0  0  0  0  0  0  0  0  0  0  0  0
  130.0920  132.9190   55.7730 C   0  0  0  0  0  0  0  0  0  0  0  0
  129.3450  133.1930   56.9170 C   0  0  0  0  0  0  0  0  0  0  0  0
  129.8670  132.8840   58.1710 C   0  0  0  0  0  0  0  0  0  0  0  0
  126.0040  130.8370   59.3190 C   0  0  0  0  0  0  0  0  0  0  0  0
  125.3520  132.1180   59.4600 C   0  0  0  0  0  0  0  0  0  0  0  0
  125.7090  133.2730   60.3350 C   0  0  0  0  0  0  0  0  0  0  0  0
  124.7090  133.9850   61.0040 C   0  0  0  0  0  0  0  0  0  0  0  0
  125.0440  135.0730   61.8070 C   0  0  0  0  0  0  0  0  0  0  0  0
  126.3800  135.4500   61.9470 C   0  0  0  0  0  0  0  0  0  0  0  0
  126.7430  136.6470   62.8070 C   0  0  0  0  0  0  0  0  0  0  0  0
  127.3810  134.7440   61.2790 C   0  0  0  0  0  0  0  0  0  0  0  0
  127.0460  133.6550   60.4790 C   0  0  0  0  0  0  0  0  0  0  0  0
  124.2890  132.1800   58.6900 N   0  0  0  0  0  0  0  0  0  0  0  0
  124.1510  130.9940   58.0780 N   0  0  0  0  0  0  0  0  0  0  0  0
  125.1600  130.1290   58.4310 C   0  0  0  0  0  0  0  0  0  0  0  0
  125.3240  128.8750   58.0130 N   0  0  0  0  0  0  0  0  0  0  0  0
  127.6950  126.4790   57.1940 C   0  0  0  0  0  0  0  0  0  0  0  0
  127.8750  125.1710   56.7500 C   0  0  0  0  0  0  0  0  0  0  0  0
  1  2  1  0
  2  3  1  0
  3  4  1  0
  4  5  2  0
  5  6  1  0
  6  7  2  0
  7  8  1  0
  8  9  2  0
  9 10  1  0
 10 11  1  0
 11 12  2  0
 11 13  1  0
 13 14  1  0
 14 15  1  0
 15 16  1  0
 16 17  2  0
 17 18  1  0
 18 19  2  0
 19 20  1  0
 20 21  2  0
 10 22  2  0
 22 23  1  0
 23 24  1  0
 24 25  2  0
 25 26  1  0
 26 27  2  0
 27 28  1  0
 27 29  1  0
 29 30  2  0
 23 31  2  0
 31 32  1  0
 32 33  1  0
 33 34  2  0
  7 35  1  0
 35 36  2  0
 36  4  1  0
 34  8  1  0
 21 16  1  0
 33 22  1  0
 30 24  1  0
M  END
>  <Binding energies>  (57) 
[-9.55]

>  <Ligand effiencies>  (57) 
[-0.2513157894736842]

>  <Interactions>  (57) 
["V-A:TYR:539:CD1:4873, V-A:TYR:539:CE2:4876, V-A:TYR:539:CG:4872, V-A:ILE:538:C:4858, V-A:TYR:539:CZ:4877, V-A:TYR:539:CE1:4875, V-A:LEU:363:CD1:3188, V-A:PRO:540:CA:4883, V-A:ILE:538:CG2:4863, V-A:TYR:539:CA:4869, V-A:PRO:540:CB:4885, V-A:PRO:540:N:4884, V-A:TYR:539:CD2:4874, V-A:ILE:538:CA:4860, V-A:TYR:539:C:4867, V-A:ILE:538:CB:4862, V-B:LEU:363:CD1:8160, V-B:MET:535:CE:9806, V-B:TYR:539:CE1:9846, V-B:TYR:539:CD1:9844, V-B:ASP:366:CG:8184, V-B:TRP:381:CZ2:8341, V-B:TRP:381:CH2:8343, V-A:ALA:541:CB:4892, V-B:LEU:475:CD1:9229, V-B:PRO:482:CB:9297, V-B:PRO:482:CG:9298, V-B:ILE:369:CG2:8208, V-A:MET:535:CE:4835, H-B:TYR:531:OH:9766, H-A:TYR:539:OH:4878, V-B:ASP:366:CB:8183, V-B:ASP:366:C:8179, V-B:ASP:366:CA:8181, V-B:PRO:540:CD:9858, V-B:ILE:538:CD1:9836, V-B:ILE:538:CG2:9834, V-B:ILE:538:CA:9831, V-B:ILE:538:CB:9833, H-B:ASP:366:O:8180"]

$$$$
