1a_Grossjean_2025
     RDKit          3D

 26 27  0  0  0  0  0  0  0  0999 V2000
  125.6000  126.6770   74.1950 C   0  0  0  0  0  0  0  0  0  0  0  0
  126.8060  127.0650   73.3360 C   0  0  0  0  0  0  0  0  0  0  0  0
  127.8720  126.1560   73.5770 O   0  0  0  0  0  0  0  0  0  0  0  0
  129.1280  126.4110   73.1250 C   0  0  0  0  0  0  0  0  0  0  0  0
  129.9900  126.9820   73.7990 O   0  0  0  0  0  0  0  0  0  0  0  0
  129.3570  125.9460   71.7160 C   0  0  0  0  0  0  0  0  0  0  0  0
  128.9980  126.7840   70.6520 C   0  0  0  0  0  0  0  0  0  0  0  0
  129.1930  126.3790   69.3350 C   0  0  0  0  0  0  0  0  0  0  0  0
  129.7490  125.1300   69.0530 C   0  0  0  0  0  0  0  0  0  0  0  0
  129.8980  124.8230   67.6860 N   0  0  0  0  0  0  0  0  0  0  0  0
  129.2990  125.3640   66.6040 C   0  0  0  0  0  0  0  0  0  0  0  0
  128.4710  126.2750   66.6260 O   0  0  0  0  0  0  0  0  0  0  0  0
  129.7140  124.7660   65.2580 C   0  0  0  0  0  0  0  0  0  0  0  0
  130.0440  122.9820   65.3730 S   0  0  0  0  0  0  0  0  0  0  0  0
  130.8720  122.4950   63.8760 C   0  0  0  0  0  0  0  0  0  0  0  0
  130.1020  121.7530   63.0410 N   0  0  0  0  0  0  0  0  0  0  0  0
  130.6350  121.3240   61.8730 C   0  0  0  0  0  0  0  0  0  0  0  0
  129.7200  120.4880   60.9970 C   0  0  0  0  0  0  0  0  0  0  0  0
  131.9410  121.6210   61.4880 C   0  0  0  0  0  0  0  0  0  0  0  0
  132.7360  122.4040   62.3320 C   0  0  0  0  0  0  0  0  0  0  0  0
  134.1590  122.7310   61.8820 C   0  0  0  0  0  0  0  0  0  0  0  0
  132.1990  122.8660   63.5560 C   0  0  0  0  0  0  0  0  0  0  0  0
  132.9970  123.7280   64.4330 C   0  0  0  0  0  0  0  0  0  0  0  0
  133.6290  124.4070   65.1230 N   0  0  0  0  0  0  0  0  0  0  0  0
  130.1190  124.2870   70.1120 C   0  0  0  0  0  0  0  0  0  0  0  0
  129.9220  124.6930   71.4290 C   0  0  0  0  0  0  0  0  0  0  0  0
  1  2  1  0
  2  3  1  0
  3  4  1  0
  4  5  2  0
  4  6  1  0
  6  7  2  0
  7  8  1  0
  8  9  2  0
  9 10  1  0
 10 11  1  0
 11 12  2  0
 11 13  1  0
 13 14  1  0
 14 15  1  0
 15 16  2  0
 16 17  1  0
 17 18  1  0
 17 19  2  0
 19 20  1  0
 20 21  1  0
 20 22  2  0
 22 23  1  0
 23 24  3  0
  9 25  1  0
 25 26  2  0
 26  6  1  0
 22 15  1  0
M  END
>  <Binding energies>  (1) 
[-8.0]

>  <Ligand effiencies>  (1) 
[-0.2962962962962963]

>  <Interactions>  (1) 
["V-A:HIS:456:CD2:4068, H-B:LYS:547:NZ:9923, V-B:GLU:543:C:9874, H-A:LYS:547:NZ:4951, V-B:GLU:543:CB:9878, V-A:HIS:456:CE1:4069, V-B:HIS:456:CE1:9040, V-B:GLU:543:CG:9879, V-B:ALA:541:CB:9864, V-B:GLU:543:CA:9876, V-A:TYR:484:CZ:4347, V-A:LEU:475:CD1:4258, V-A:TYR:484:CE1:4345, H-A:GLY:454:N:4050, H-A:TYR:484:OH:4348, V-A:GLY:454:CA:4049, V-A:ILE:369:CD1:3239, V-B:TYR:539:CD2:9846, V-A:HIS:456:CG:4066, V-A:TYR:484:CE2:4346, V-A:TYR:484:CD1:4343, V-B:LYS:547:CD:9921, H-B:GLU:543:O:9875, H-A:HIS:456:ND1:4067"]

$$$$
1aa_Ghoteimi_2023
     RDKit          3D

 40 43  0  0  0  0  0  0  0  0999 V2000
  123.6470  134.6130   61.3020 C   0  0  0  0  0  0  0  0  0  0  0  0
  124.7030  133.7570   60.5960 C   0  0  0  0  0  0  0  0  0  0  0  0
  124.1080  133.0860   59.4920 O   0  0  0  0  0  0  0  0  0  0  0  0
  123.6890  131.7990   59.5960 C   0  0  0  0  0  0  0  0  0  0  0  0
  123.0420  131.2210   58.7180 O   0  0  0  0  0  0  0  0  0  0  0  0
  124.0900  131.1470   60.8880 C   0  0  0  0  0  0  0  0  0  0  0  0
  123.1960  131.0140   61.9620 C   0  0  0  0  0  0  0  0  0  0  0  0
  123.5960  130.4030   63.1480 C   0  0  0  0  0  0  0  0  0  0  0  0
  124.9020  129.9110   63.2800 C   0  0  0  0  0  0  0  0  0  0  0  0
  125.4170  129.2790   64.4270 N   0  0  0  0  0  0  0  0  0  0  0  0
  124.9550  129.2590   65.6990 C   0  0  0  0  0  0  0  0  0  0  0  0
  123.9340  129.8270   66.0860 O   0  0  0  0  0  0  0  0  0  0  0  0
  125.7710  128.4650   66.7320 C   0  0  0  0  0  0  0  0  0  0  0  0
  127.1630  128.4790   66.3900 O   0  0  0  0  0  0  0  0  0  0  0  0
  128.0090  127.4800   66.8520 C   0  0  0  0  0  0  0  0  0  0  0  0
  128.0980  127.2880   68.1970 N   0  0  0  0  0  0  0  0  0  0  0  0
  128.9270  126.3300   68.6890 C   0  0  0  0  0  0  0  0  0  0  0  0
  128.9670  126.1800   70.1830 C   0  0  0  0  0  0  0  0  0  0  0  0
  128.3450  127.1180   71.0200 C   0  0  0  0  0  0  0  0  0  0  0  0
  128.3820  126.9820   72.4050 C   0  0  0  0  0  0  0  0  0  0  0  0
  129.0400  125.9050   72.9960 C   0  0  0  0  0  0  0  0  0  0  0  0
  129.0260  125.8530   74.3770 O   0  0  0  0  0  0  0  0  0  0  0  0
  130.2570  125.7280   75.0790 C   0  0  0  0  0  0  0  0  0  0  0  0
  129.6610  124.9560   72.1730 C   0  0  0  0  0  0  0  0  0  0  0  0
  129.6210  125.0940   70.7880 C   0  0  0  0  0  0  0  0  0  0  0  0
  129.6760  125.5220   67.8250 C   0  0  0  0  0  0  0  0  0  0  0  0
  129.5940  125.6920   66.4360 C   0  0  0  0  0  0  0  0  0  0  0  0
  130.4100  124.7920   65.5680 C   0  0  0  0  0  0  0  0  0  0  0  0
  131.6980  125.1700   65.1780 C   0  0  0  0  0  0  0  0  0  0  0  0
  132.4690  124.3330   64.3770 C   0  0  0  0  0  0  0  0  0  0  0  0
  131.9730  123.1000   63.9550 C   0  0  0  0  0  0  0  0  0  0  0  0
  132.8080  122.3360   63.1630 O   0  0  0  0  0  0  0  0  0  0  0  0
  133.6540  122.9830   62.2200 C   0  0  0  0  0  0  0  0  0  0  0  0
  130.6840  122.7130   64.3510 C   0  0  0  0  0  0  0  0  0  0  0  0
  129.9140  123.5520   65.1520 C   0  0  0  0  0  0  0  0  0  0  0  0
  128.7420  126.7060   65.9380 C   0  0  0  0  0  0  0  0  0  0  0  0
  128.6250  126.9860   64.5060 C   0  0  0  0  0  0  0  0  0  0  0  0
  128.5300  127.2080   63.3750 N   0  0  0  0  0  0  0  0  0  0  0  0
  125.7940  130.0440   62.2150 C   0  0  0  0  0  0  0  0  0  0  0  0
  125.3940  130.6540   61.0310 C   0  0  0  0  0  0  0  0  0  0  0  0
  1  2  1  0
  2  3  1  0
  3  4  1  0
  4  5  2  0
  4  6  1  0
  6  7  2  0
  7  8  1  0
  8  9  2  0
  9 10  1  0
 10 11  1  0
 11 12  2  0
 11 13  1  0
 13 14  1  0
 14 15  1  0
 15 16  2  0
 16 17  1  0
 17 18  1  0
 18 19  2  0
 19 20  1  0
 20 21  2  0
 21 22  1  0
 22 23  1  0
 21 24  1  0
 24 25  2  0
 17 26  2  0
 26 27  1  0
 27 28  1  0
 28 29  2  0
 29 30  1  0
 30 31  2  0
 31 32  1  0
 32 33  1  0
 31 34  1  0
 34 35  2  0
 27 36  2  0
 36 37  1  0
 37 38  3  0
  9 39  1  0
 39 40  2  0
 40  6  1  0
 36 15  1  0
 25 18  1  0
 35 28  1  0
M  END
>  <Binding energies>  (2) 
[-8.91]

>  <Ligand effiencies>  (2) 
[-0.2173170731707317]

>  <Interactions>  (2) 
["V-B:ARG:545:CG:9894, V-A:HIS:456:CD2:4068, V-B:GLU:543:CD:9880, H-B:LYS:547:NZ:9923, V-B:GLU:543:CB:9878, V-A:HIS:456:CE1:4069, V-B:ARG:545:CZ:9898, V-B:ARG:545:CD:9895, V-B:HIS:456:CE1:9040, V-B:GLU:543:CG:9879, V-B:TRP:381:CH2:8343, H-B:GLY:454:N:9021, V-B:ILE:369:CB:8207, V-B:ASP:366:CG:8184, V-B:LEU:475:CD1:9229, V-B:ILE:369:CD1:8210, V-A:TYR:539:CE2:4876, H-B:TYR:484:OH:9319, V-B:ILE:369:CG2:8208, V-A:TYR:539:CD2:4874, V-B:GLU:543:CA:9876, H-B:ARG:545:NE:9896, V-A:TYR:484:CZ:4347, V-A:LEU:475:CD1:4258, V-A:TYR:484:CE1:4345, V-A:GLY:454:CA:4049, H-A:TYR:539:OH:4878, V-A:HIS:456:CG:4066, H-B:GLU:543:OE1:9881"]

$$$$
1b_Grossjean_2025
     RDKit          3D

 25 26  0  0  0  0  0  0  0  0999 V2000
  125.7250  127.3740   73.3980 C   0  0  0  0  0  0  0  0  0  0  0  0
  126.9620  127.5080   72.7110 O   0  0  0  0  0  0  0  0  0  0  0  0
  127.8790  126.5070   72.7230 C   0  0  0  0  0  0  0  0  0  0  0  0
  128.2530  125.9390   73.7540 O   0  0  0  0  0  0  0  0  0  0  0  0
  128.3890  126.1520   71.3550 C   0  0  0  0  0  0  0  0  0  0  0  0
  129.2930  125.0990   71.1500 C   0  0  0  0  0  0  0  0  0  0  0  0
  129.7460  124.7970   69.8700 C   0  0  0  0  0  0  0  0  0  0  0  0
  129.3090  125.5360   68.7700 C   0  0  0  0  0  0  0  0  0  0  0  0
  129.8340  125.1430   67.5250 N   0  0  0  0  0  0  0  0  0  0  0  0
  129.6010  125.6340   66.2880 C   0  0  0  0  0  0  0  0  0  0  0  0
  128.8490  126.5690   66.0200 O   0  0  0  0  0  0  0  0  0  0  0  0
  130.3660  124.9460   65.1560 C   0  0  0  0  0  0  0  0  0  0  0  0
  130.0870  123.1500   65.1310 S   0  0  0  0  0  0  0  0  0  0  0  0
  130.9120  122.5040   63.6920 C   0  0  0  0  0  0  0  0  0  0  0  0
  130.1550  121.6420   62.9690 N   0  0  0  0  0  0  0  0  0  0  0  0
  130.6850  121.0910   61.8520 C   0  0  0  0  0  0  0  0  0  0  0  0
  129.7760  120.1480   61.0860 C   0  0  0  0  0  0  0  0  0  0  0  0
  131.9810  121.3660   61.4200 C   0  0  0  0  0  0  0  0  0  0  0  0
  132.7770  122.2370   62.1710 C   0  0  0  0  0  0  0  0  0  0  0  0
  134.2000  122.5100   61.6870 C   0  0  0  0  0  0  0  0  0  0  0  0
  132.2450  122.8240   63.3420 C   0  0  0  0  0  0  0  0  0  0  0  0
  133.0750  123.7040   64.1680 C   0  0  0  0  0  0  0  0  0  0  0  0
  133.7330  124.3990   64.8180 N   0  0  0  0  0  0  0  0  0  0  0  0
  128.4040  126.5900   68.9670 C   0  0  0  0  0  0  0  0  0  0  0  0
  127.9510  126.8910   70.2480 C   0  0  0  0  0  0  0  0  0  0  0  0
  1  2  1  0
  2  3  1  0
  3  4  2  0
  3  5  1  0
  5  6  2  0
  6  7  1  0
  7  8  2  0
  8  9  1  0
  9 10  1  0
 10 11  2  0
 10 12  1  0
 12 13  1  0
 13 14  1  0
 14 15  2  0
 15 16  1  0
 16 17  1  0
 16 18  2  0
 18 19  1  0
 19 20  1  0
 19 21  2  0
 21 22  1  0
 22 23  3  0
  8 24  1  0
 24 25  2  0
 25  5  1  0
 21 14  1  0
M  END
>  <Binding energies>  (3) 
[-7.84]

>  <Ligand effiencies>  (3) 
[-0.30153846153846153]

>  <Interactions>  (3) 
["V-A:HIS:456:CD2:4068, H-B:LYS:547:NZ:9923, V-B:GLU:543:C:9874, V-B:GLU:543:CB:9878, V-A:HIS:456:CE1:4069, V-B:HIS:456:CE1:9040, V-B:ALA:541:CB:9864, V-A:TYR:484:CZ:4347, V-A:LEU:475:CD1:4258, V-A:TYR:484:CE1:4345, H-A:GLY:454:N:4050, H-A:TYR:484:OH:4348, V-A:GLY:454:CA:4049, V-A:ILE:369:CD1:3239, V-B:TYR:539:CD2:9846, V-A:PRO:482:CG:4327, V-B:GLY:544:C:9884, V-A:HIS:456:CG:4066, V-B:HIS:456:CB:9036, V-B:HIS:456:CG:9037, H-B:GLU:543:O:9875, H-A:HIS:456:ND1:4067"]

$$$$
1c_Grossjean_2025
     RDKit          3D

 23 24  0  0  0  0  0  0  0  0999 V2000
  127.2500  126.9210   73.4490 C   0  0  0  0  0  0  0  0  0  0  0  0
  128.2330  125.9310   73.1690 O   0  0  0  0  0  0  0  0  0  0  0  0
  128.6200  125.7190   71.8590 C   0  0  0  0  0  0  0  0  0  0  0  0
  129.4910  124.6520   71.6330 C   0  0  0  0  0  0  0  0  0  0  0  0
  129.9370  124.3580   70.3480 C   0  0  0  0  0  0  0  0  0  0  0  0
  129.5060  125.1340   69.2610 C   0  0  0  0  0  0  0  0  0  0  0  0
  129.9020  124.9310   67.9250 N   0  0  0  0  0  0  0  0  0  0  0  0
  129.4990  125.5690   66.8060 C   0  0  0  0  0  0  0  0  0  0  0  0
  128.6890  126.4950   66.7630 O   0  0  0  0  0  0  0  0  0  0  0  0
  130.1330  125.0730   65.5040 C   0  0  0  0  0  0  0  0  0  0  0  0
  130.1550  123.2580   65.4110 S   0  0  0  0  0  0  0  0  0  0  0  0
  130.9660  122.7830   63.8970 C   0  0  0  0  0  0  0  0  0  0  0  0
  130.2100  121.9750   63.1110 N   0  0  0  0  0  0  0  0  0  0  0  0
  130.7220  121.5470   61.9330 C   0  0  0  0  0  0  0  0  0  0  0  0
  129.8150  120.6560   61.1050 C   0  0  0  0  0  0  0  0  0  0  0  0
  131.9980  121.8950   61.4980 C   0  0  0  0  0  0  0  0  0  0  0  0
  132.7950  122.7070   62.3110 C   0  0  0  0  0  0  0  0  0  0  0  0
  134.1980  123.0600   61.8210 C   0  0  0  0  0  0  0  0  0  0  0  0
  132.2830  123.1640   63.5480 C   0  0  0  0  0  0  0  0  0  0  0  0
  133.1230  123.9700   64.4370 C   0  0  0  0  0  0  0  0  0  0  0  0
  133.7860  124.6070   65.1390 N   0  0  0  0  0  0  0  0  0  0  0  0
  128.6440  126.2090   69.4850 C   0  0  0  0  0  0  0  0  0  0  0  0
  128.2010  126.5000   70.7720 C   0  0  0  0  0  0  0  0  0  0  0  0
  1  2  1  0
  2  3  1  0
  3  4  2  0
  4  5  1  0
  5  6  2  0
  6  7  1  0
  7  8  1  0
  8  9  2  0
  8 10  1  0
 10 11  1  0
 11 12  1  0
 12 13  2  0
 13 14  1  0
 14 15  1  0
 14 16  2  0
 16 17  1  0
 17 18  1  0
 17 19  2  0
 19 20  1  0
 20 21  3  0
  6 22  1  0
 22 23  2  0
 23  3  1  0
 19 12  1  0
M  END
>  <Binding energies>  (4) 
[-7.47]

>  <Ligand effiencies>  (4) 
[-0.31124999999999997]

>  <Interactions>  (4) 
["V-A:HIS:456:CD2:4068, H-B:LYS:547:NZ:9923, V-B:GLU:543:C:9874, V-B:GLU:543:CB:9878, V-A:HIS:456:CE1:4069, V-B:HIS:456:CE1:9040, V-B:ALA:541:CB:9864, V-A:TYR:484:CZ:4347, V-A:LEU:475:CD1:4258, V-A:TYR:484:CE1:4345, H-A:GLY:454:N:4050, H-A:TYR:484:OH:4348, V-A:GLY:454:CA:4049, V-A:ILE:369:CD1:3239, V-B:TYR:539:CD2:9846, V-B:GLY:544:C:9884, V-A:HIS:456:CG:4066, V-A:TYR:484:CD1:4343, H-B:GLU:543:O:9875, H-A:HIS:456:ND1:4067"]

$$$$
1d_Grossjean_2025
     RDKit          3D

 21 22  0  0  0  0  0  0  0  0999 V2000
  130.8330  125.5550   66.1400 C   0  0  0  0  0  0  0  0  0  0  0  0
  129.5560  126.3530   66.3190 C   0  0  0  0  0  0  0  0  0  0  0  0
  129.0980  127.2270   65.3370 C   0  0  0  0  0  0  0  0  0  0  0  0
  127.9080  127.9300   65.5530 C   0  0  0  0  0  0  0  0  0  0  0  0
  127.4170  128.8710   64.4540 C   0  0  0  0  0  0  0  0  0  0  0  0
  127.2040  127.7420   66.7650 C   0  0  0  0  0  0  0  0  0  0  0  0
  125.9320  128.4300   66.9930 C   0  0  0  0  0  0  0  0  0  0  0  0
  124.9260  128.9750   67.1690 N   0  0  0  0  0  0  0  0  0  0  0  0
  127.7570  126.8530   67.7170 C   0  0  0  0  0  0  0  0  0  0  0  0
  127.0080  126.4990   69.2910 S   0  0  0  0  0  0  0  0  0  0  0  0
  128.3540  126.2560   70.4900 C   0  0  0  0  0  0  0  0  0  0  0  0
  127.8830  126.4530   71.9320 C   0  0  0  0  0  0  0  0  0  0  0  0
  128.4330  125.8210   72.8340 O   0  0  0  0  0  0  0  0  0  0  0  0
  126.8880  127.3500   72.0980 N   0  0  0  0  0  0  0  0  0  0  0  0
  126.2210  127.7510   73.2700 C   0  0  0  0  0  0  0  0  0  0  0  0
  124.9030  127.3050   73.4000 C   0  0  0  0  0  0  0  0  0  0  0  0
  124.1550  127.6390   74.5250 C   0  0  0  0  0  0  0  0  0  0  0  0
  124.7270  128.4170   75.5280 C   0  0  0  0  0  0  0  0  0  0  0  0
  126.0420  128.8610   75.4160 C   0  0  0  0  0  0  0  0  0  0  0  0
  126.7930  128.5290   74.2920 C   0  0  0  0  0  0  0  0  0  0  0  0
  128.9010  126.1600   67.4880 N   0  0  0  0  0  0  0  0  0  0  0  0
  1  2  1  0
  2  3  2  0
  3  4  1  0
  4  5  1  0
  4  6  2  0
  6  7  1  0
  7  8  3  0
  6  9  1  0
  9 10  1  0
 10 11  1  0
 11 12  1  0
 12 13  2  0
 12 14  1  0
 14 15  1  0
 15 16  2  0
 16 17  1  0
 17 18  2  0
 18 19  1  0
 19 20  2  0
  9 21  2  0
 21  2  1  0
 20 15  1  0
M  END
>  <Binding energies>  (5) 
[-6.8]

>  <Ligand effiencies>  (5) 
[-0.3090909090909091]

>  <Interactions>  (5) 
["V-B:ARG:545:CG:9894, V-B:GLU:543:CD:9880, H-B:LYS:547:NZ:9923, V-B:HIS:456:CD2:9039, V-B:GLU:543:CB:9878, V-A:HIS:456:CE1:4069, V-B:HIS:456:CE1:9040, V-A:GLU:543:CD:4908, H-B:TYR:484:OH:9319, H-B:ARG:545:NE:9896, H-B:HIS:456:ND1:9038, V-B:GLY:544:C:9884, H-B:ARG:545:N:9892, V-B:ARG:545:CA:9891, V-B:HIS:456:CB:9036, V-B:HIS:456:C:9032, V-B:ARG:545:C:9889, V-B:VAL:458:CG2:9058, V-B:VAL:457:C:9044, V-B:HIS:456:CG:9037, H-B:GLY:544:O:9885, V-B:HIS:456:CA:9034, V-B:VAL:457:CA:9046"]

$$$$
1e_Grossjean_2025
     RDKit          3D

 22 23  0  0  0  0  0  0  0  0999 V2000
  130.0550  126.5860   66.4900 C   0  0  0  0  0  0  0  0  0  0  0  0
  128.8480  126.6030   67.4090 C   0  0  0  0  0  0  0  0  0  0  0  0
  127.5450  126.6530   66.9050 C   0  0  0  0  0  0  0  0  0  0  0  0
  126.4850  126.6680   67.8110 C   0  0  0  0  0  0  0  0  0  0  0  0
  126.7460  126.6350   69.1830 C   0  0  0  0  0  0  0  0  0  0  0  0
  128.0750  126.5800   69.6200 C   0  0  0  0  0  0  0  0  0  0  0  0
  128.2760  126.5610   71.0120 N   0  0  0  0  0  0  0  0  0  0  0  0
  129.1460  127.2890   71.7450 C   0  0  0  0  0  0  0  0  0  0  0  0
  129.9410  128.1120   71.2880 O   0  0  0  0  0  0  0  0  0  0  0  0
  129.1330  127.0220   73.2520 C   0  0  0  0  0  0  0  0  0  0  0  0
  127.4490  126.7430   73.8780 S   0  0  0  0  0  0  0  0  0  0  0  0
  126.8120  128.2840   74.5080 C   0  0  0  0  0  0  0  0  0  0  0  0
  127.7290  129.2860   74.5100 N   0  0  0  0  0  0  0  0  0  0  0  0
  127.3620  130.5050   74.9690 C   0  0  0  0  0  0  0  0  0  0  0  0
  128.4350  131.5750   74.9330 C   0  0  0  0  0  0  0  0  0  0  0  0
  126.0820  130.7720   75.4510 C   0  0  0  0  0  0  0  0  0  0  0  0
  125.1370  129.7420   75.4770 C   0  0  0  0  0  0  0  0  0  0  0  0
  123.7470  130.0560   76.0280 C   0  0  0  0  0  0  0  0  0  0  0  0
  125.4990  128.4590   75.0060 C   0  0  0  0  0  0  0  0  0  0  0  0
  124.5390  127.3540   75.0800 C   0  0  0  0  0  0  0  0  0  0  0  0
  123.7790  126.4830   75.1400 N   0  0  0  0  0  0  0  0  0  0  0  0
  129.1180  126.5700   68.7390 N   0  0  0  0  0  0  0  0  0  0  0  0
  1  2  1  0
  2  3  2  0
  3  4  1  0
  4  5  2  0
  5  6  1  0
  6  7  1  0
  7  8  1  0
  8  9  2  0
  8 10  1  0
 10 11  1  0
 11 12  1  0
 12 13  2  0
 13 14  1  0
 14 15  1  0
 14 16  2  0
 16 17  1  0
 17 18  1  0
 17 19  2  0
 19 20  1  0
 20 21  3  0
  6 22  2  0
 22  2  1  0
 19 12  1  0
M  END
>  <Binding energies>  (6) 
[-6.7]

>  <Ligand effiencies>  (6) 
[-0.29130434782608694]

>  <Interactions>  (6) 
["V-B:ARG:545:CG:9894, H-B:HIS:456:NE2:9041, V-A:HIS:456:CD2:4068, V-B:GLU:543:CD:9880, H-B:LYS:547:NZ:9923, V-B:GLU:543:C:9874, H-A:LYS:547:NZ:4951, V-B:HIS:456:CD2:9039, V-B:GLU:543:CB:9878, V-A:HIS:456:CE1:4069, H-A:HIS:456:NE2:4070, V-B:HIS:456:CE1:9040, V-B:GLU:543:CG:9879, V-A:GLU:543:CD:4908, V-B:GLY:544:C:9884, V-B:ARG:545:CA:9891, V-B:HIS:456:CB:9036, V-B:HIS:456:C:9032, V-B:VAL:458:CG2:9058, V-B:VAL:457:C:9044, V-B:HIS:456:CG:9037, H-B:GLY:544:O:9885, H-B:GLU:543:O:9875, V-B:VAL:457:CA:9046, V-B:LYS:471:CE:9191, H-B:LYS:547:N:9918, V-B:LYS:471:CG:9189"]

$$$$
1f_Grossjean_2025
     RDKit          3D

 21 22  0  0  0  0  0  0  0  0999 V2000
  123.7400  129.8200   66.4010 C   0  0  0  0  0  0  0  0  0  0  0  0
  125.0720  129.0960   66.3330 C   0  0  0  0  0  0  0  0  0  0  0  0
  125.9320  129.2500   65.2480 C   0  0  0  0  0  0  0  0  0  0  0  0
  127.1410  128.5470   65.2360 C   0  0  0  0  0  0  0  0  0  0  0  0
  128.0590  128.7180   64.0270 C   0  0  0  0  0  0  0  0  0  0  0  0
  127.4640  127.7060   66.3250 C   0  0  0  0  0  0  0  0  0  0  0  0
  128.7000  126.9190   66.3040 C   0  0  0  0  0  0  0  0  0  0  0  0
  129.6760  126.2990   66.2860 N   0  0  0  0  0  0  0  0  0  0  0  0
  126.5440  127.6320   67.3970 C   0  0  0  0  0  0  0  0  0  0  0  0
  126.7790  126.6290   68.8510 S   0  0  0  0  0  0  0  0  0  0  0  0
  128.5590  126.6100   69.2560 C   0  0  0  0  0  0  0  0  0  0  0  0
  128.9200  125.8610   70.5480 C   0  0  0  0  0  0  0  0  0  0  0  0
  128.7550  126.3950   71.6460 O   0  0  0  0  0  0  0  0  0  0  0  0
  129.4360  124.6290   70.3560 N   0  0  0  0  0  0  0  0  0  0  0  0
  129.8640  123.6770   71.3010 C   0  0  0  0  0  0  0  0  0  0  0  0
  130.9700  123.8140   72.1600 C   0  0  0  0  0  0  0  0  0  0  0  0
  131.2800  122.7870   73.0570 C   0  0  0  0  0  0  0  0  0  0  0  0
  130.4740  121.6490   73.0750 C   0  0  0  0  0  0  0  0  0  0  0  0
  129.4000  121.4950   72.2610 N   0  0  0  0  0  0  0  0  0  0  0  0
  129.1110  122.5000   71.3960 C   0  0  0  0  0  0  0  0  0  0  0  0
  125.3630  128.3000   67.3880 N   0  0  0  0  0  0  0  0  0  0  0  0
  1  2  1  0
  2  3  2  0
  3  4  1  0
  4  5  1  0
  4  6  2  0
  6  7  1  0
  7  8  3  0
  6  9  1  0
  9 10  1  0
 10 11  1  0
 11 12  1  0
 12 13  2  0
 12 14  1  0
 14 15  1  0
 15 16  2  0
 16 17  1  0
 17 18  2  0
 18 19  1  0
 19 20  2  0
  9 21  2  0
 21  2  1  0
 20 15  1  0
M  END
>  <Binding energies>  (7) 
[-6.88]

>  <Ligand effiencies>  (7) 
[-0.31272727272727274]

>  <Interactions>  (7) 
["V-B:ARG:545:CG:9894, V-A:HIS:456:CD2:4068, V-B:GLU:543:CD:9880, H-B:LYS:547:NZ:9923, V-B:GLU:543:C:9874, V-B:GLU:543:CB:9878, V-A:HIS:456:CE1:4069, V-B:ARG:545:CZ:9898, V-B:ARG:545:CD:9895, V-B:HIS:456:CE1:9040, V-A:GLU:543:CD:4908, V-B:GLY:454:CA:9020, H-B:ARG:545:NE:9896, V-A:TYR:484:CZ:4347, V-A:TYR:484:CE1:4345, H-A:TYR:484:OH:4348, H-B:ARG:545:N:9892, V-A:HIS:456:CG:4066, V-A:TYR:484:CD2:4344, V-A:TYR:484:CD1:4343, V-A:HIS:456:CB:4065, V-A:TYR:484:CG:4342, H-B:GLU:543:O:9875, V-B:LYS:547:CE:9922, V-B:GLY:544:CA:9886, V-A:ASP:473:CB:4239, V-A:TYR:484:CB:4341"]

$$$$
1g_Grossjean_2025
     RDKit          3D

 22 23  0  0  0  0  0  0  0  0999 V2000
  128.5670  131.8550   75.0290 C   0  0  0  0  0  0  0  0  0  0  0  0
  127.5380  130.7450   74.9340 C   0  0  0  0  0  0  0  0  0  0  0  0
  126.2620  130.8840   75.4770 C   0  0  0  0  0  0  0  0  0  0  0  0
  125.3600  129.8200   75.3730 C   0  0  0  0  0  0  0  0  0  0  0  0
  123.9710  129.9890   75.9890 C   0  0  0  0  0  0  0  0  0  0  0  0
  125.7600  128.6350   74.7140 C   0  0  0  0  0  0  0  0  0  0  0  0
  124.8510  127.4890   74.6390 C   0  0  0  0  0  0  0  0  0  0  0  0
  124.1310  126.5850   74.5830 N   0  0  0  0  0  0  0  0  0  0  0  0
  127.0660  128.5920   74.1710 C   0  0  0  0  0  0  0  0  0  0  0  0
  127.7280  127.1870   73.3030 S   0  0  0  0  0  0  0  0  0  0  0  0
  129.3240  127.6940   72.5940 C   0  0  0  0  0  0  0  0  0  0  0  0
  129.3610  127.5080   71.0770 C   0  0  0  0  0  0  0  0  0  0  0  0
  129.7600  128.4220   70.3530 O   0  0  0  0  0  0  0  0  0  0  0  0
  128.9360  126.3210   70.6120 N   0  0  0  0  0  0  0  0  0  0  0  0
  128.9400  125.9080   69.2090 C   0  0  0  0  0  0  0  0  0  0  0  0
  128.1440  126.8230   68.2830 C   0  0  0  0  0  0  0  0  0  0  0  0
  126.7510  126.7190   68.2270 C   0  0  0  0  0  0  0  0  0  0  0  0
  126.0240  127.5540   67.3820 C   0  0  0  0  0  0  0  0  0  0  0  0
  126.6930  128.4950   66.6000 C   0  0  0  0  0  0  0  0  0  0  0  0
  128.0800  128.6070   66.6550 C   0  0  0  0  0  0  0  0  0  0  0  0
  128.8080  127.7700   67.4980 C   0  0  0  0  0  0  0  0  0  0  0  0
  127.9420  129.6210   74.2960 N   0  0  0  0  0  0  0  0  0  0  0  0
  1  2  1  0
  2  3  2  0
  3  4  1  0
  4  5  1  0
  4  6  2  0
  6  7  1  0
  7  8  3  0
  6  9  1  0
  9 10  1  0
 10 11  1  0
 11 12  1  0
 12 13  2  0
 12 14  1  0
 14 15  1  0
 15 16  1  0
 16 17  2  0
 17 18  1  0
 18 19  2  0
 19 20  1  0
 20 21  2  0
  9 22  2  0
 22  2  1  0
 21 16  1  0
M  END
>  <Binding energies>  (8) 
[-6.96]

>  <Ligand effiencies>  (8) 
[-0.3026086956521739]

>  <Interactions>  (8) 
["V-B:ARG:545:CG:9894, H-B:HIS:456:NE2:9041, V-A:HIS:456:CD2:4068, V-B:GLU:543:C:9874, H-A:LYS:547:NZ:4951, V-B:HIS:456:CD2:9039, V-B:GLU:543:CB:9878, V-A:HIS:456:CE1:4069, H-A:HIS:456:NE2:4070, V-B:ARG:545:CD:9895, V-B:HIS:456:CE1:9040, V-A:GLU:543:CB:4906, V-B:HIS:456:CB:9036, V-B:HIS:456:C:9032, V-B:VAL:458:CG2:9058, V-B:VAL:457:C:9044, V-B:HIS:456:CG:9037, H-B:GLY:544:O:9885, H-B:GLU:543:O:9875, V-B:VAL:457:CA:9046, V-B:LYS:471:CE:9191, V-B:LYS:471:CG:9189"]

$$$$
1h_Grossjean_2025
     RDKit          3D

 28 29  0  0  0  0  0  0  0  0999 V2000
  126.8040  127.5860   73.1240 C   0  0  0  0  0  0  0  0  0  0  0  0
  128.1180  127.7130   72.5940 O   0  0  0  0  0  0  0  0  0  0  0  0
  128.6420  126.6900   71.8260 C   0  0  0  0  0  0  0  0  0  0  0  0
  128.7340  126.7290   70.4260 C   0  0  0  0  0  0  0  0  0  0  0  0
  129.2630  125.6520   69.7130 C   0  0  0  0  0  0  0  0  0  0  0  0
  129.3780  125.7170   68.1930 C   0  0  0  0  0  0  0  0  0  0  0  0
  128.7090  126.8720   67.5950 N   0  0  0  0  0  0  0  0  0  0  0  0
  129.1200  128.1490   67.7020 C   0  0  0  0  0  0  0  0  0  0  0  0
  130.1370  128.4910   68.3050 O   0  0  0  0  0  0  0  0  0  0  0  0
  128.2430  129.2050   67.0290 C   0  0  0  0  0  0  0  0  0  0  0  0
  126.5860  128.5660   66.6390 S   0  0  0  0  0  0  0  0  0  0  0  0
  126.1670  129.0870   64.9840 C   0  0  0  0  0  0  0  0  0  0  0  0
  127.1340  128.9090   64.0460 N   0  0  0  0  0  0  0  0  0  0  0  0
  126.8810  129.2790   62.7700 C   0  0  0  0  0  0  0  0  0  0  0  0
  128.0070  129.0450   61.7810 C   0  0  0  0  0  0  0  0  0  0  0  0
  125.6670  129.8380   62.3750 C   0  0  0  0  0  0  0  0  0  0  0  0
  124.6640  130.0290   63.3310 C   0  0  0  0  0  0  0  0  0  0  0  0
  123.3410  130.6410   62.8770 C   0  0  0  0  0  0  0  0  0  0  0  0
  124.9070  129.6490   64.6710 C   0  0  0  0  0  0  0  0  0  0  0  0
  123.8760  129.8390   65.6940 C   0  0  0  0  0  0  0  0  0  0  0  0
  123.0600  129.9900   66.5020 N   0  0  0  0  0  0  0  0  0  0  0  0
  129.7390  124.5370   70.4040 C   0  0  0  0  0  0  0  0  0  0  0  0
  129.6650  124.4720   71.8050 C   0  0  0  0  0  0  0  0  0  0  0  0
  130.1150  123.4000   72.5530 O   0  0  0  0  0  0  0  0  0  0  0  0
  131.4890  123.0320   72.4920 C   0  0  0  0  0  0  0  0  0  0  0  0
  129.1040  125.5510   72.5030 C   0  0  0  0  0  0  0  0  0  0  0  0
  129.0310  125.5050   73.8740 O   0  0  0  0  0  0  0  0  0  0  0  0
  130.2390  125.8640   74.5310 C   0  0  0  0  0  0  0  0  0  0  0  0
  1  2  1  0
  2  3  1  0
  3  4  2  0
  4  5  1  0
  5  6  1  0
  6  7  1  0
  7  8  1  0
  8  9  2  0
  8 10  1  0
 10 11  1  0
 11 12  1  0
 12 13  2  0
 13 14  1  0
 14 15  1  0
 14 16  2  0
 16 17  1  0
 17 18  1  0
 17 19  2  0
 19 20  1  0
 20 21  3  0
  5 22  2  0
 22 23  1  0
 23 24  1  0
 24 25  1  0
 23 26  2  0
 26 27  1  0
 27 28  1  0
 26  3  1  0
 19 12  1  0
M  END
>  <Binding energies>  (9) 
[-7.3]

>  <Ligand effiencies>  (9) 
[-0.2517241379310345]

>  <Interactions>  (9) 
["H-B:HIS:456:NE2:9041, V-A:HIS:456:CD2:4068, H-B:LYS:547:NZ:9923, V-B:HIS:456:CD2:9039, V-A:HIS:456:CE1:4069, V-B:ARG:545:CZ:9898, H-A:HIS:456:NE2:4070, V-B:ARG:545:CD:9895, V-B:HIS:456:CE1:9040, V-A:GLU:543:CG:4907, V-A:GLU:543:CD:4908, H-B:GLY:454:N:9021, V-B:GLY:454:CA:9020, V-B:ILE:369:CD1:8210, H-B:ILE:455:N:9026, H-B:TYR:484:OH:9319, V-B:GLY:453:CA:9015, V-B:GLY:453:C:9013, H-B:ARG:545:NE:9896, V-A:TYR:484:CZ:4347, V-A:GLU:543:CB:4906, V-A:TYR:484:CE1:4345, V-A:HIS:456:CG:4066, H-B:GLU:543:OE1:9881, V-A:TYR:484:CD2:4344, V-A:TYR:484:CE2:4346, V-A:HIS:456:CB:4065, V-A:TYR:484:CG:4342, V-B:HIS:456:CB:9036, V-B:HIS:456:CG:9037"]

$$$$
1i_Grossjean_2025
     RDKit          3D

 20 21  0  0  0  0  0  0  0  0999 V2000
  130.7720  125.5710   66.0750 C   0  0  0  0  0  0  0  0  0  0  0  0
  129.4910  126.3570   66.2790 C   0  0  0  0  0  0  0  0  0  0  0  0
  129.0760  127.3250   65.3680 C   0  0  0  0  0  0  0  0  0  0  0  0
  127.8790  128.0110   65.6020 C   0  0  0  0  0  0  0  0  0  0  0  0
  127.4370  129.0570   64.5800 C   0  0  0  0  0  0  0  0  0  0  0  0
  127.1250  127.7100   66.7600 C   0  0  0  0  0  0  0  0  0  0  0  0
  125.8440  128.3810   66.9990 C   0  0  0  0  0  0  0  0  0  0  0  0
  124.8320  128.9100   67.1850 N   0  0  0  0  0  0  0  0  0  0  0  0
  127.6350  126.7290   67.6430 C   0  0  0  0  0  0  0  0  0  0  0  0
  126.8200  126.2280   69.1430 S   0  0  0  0  0  0  0  0  0  0  0  0
  127.7280  126.9630   70.5350 C   0  0  0  0  0  0  0  0  0  0  0  0
  128.3130  125.8990   71.4670 C   0  0  0  0  0  0  0  0  0  0  0  0
  128.2670  126.0730   72.6850 O   0  0  0  0  0  0  0  0  0  0  0  0
  128.8450  124.8180   70.8550 N   0  0  0  0  0  0  0  0  0  0  0  0
  129.4400  123.7190   71.4580 C   0  0  0  0  0  0  0  0  0  0  0  0
  130.6930  123.7710   72.0660 C   0  0  0  0  0  0  0  0  0  0  0  0
  130.9170  122.4960   72.5330 C   0  0  0  0  0  0  0  0  0  0  0  0
  129.8550  121.7160   72.2190 O   0  0  0  0  0  0  0  0  0  0  0  0
  128.9260  122.5030   71.5360 N   0  0  0  0  0  0  0  0  0  0  0  0
  128.7870  126.0550   67.3960 N   0  0  0  0  0  0  0  0  0  0  0  0
  1  2  1  0
  2  3  2  0
  3  4  1  0
  4  5  1  0
  4  6  2  0
  6  7  1  0
  7  8  3  0
  6  9  1  0
  9 10  1  0
 10 11  1  0
 11 12  1  0
 12 13  2  0
 12 14  1  0
 14 15  1  0
 15 16  1  0
 16 17  2  0
 17 18  1  0
 18 19  1  0
  9 20  2  0
 20  2  1  0
 19 15  2  0
M  END
>  <Binding energies>  (10) 
[-7.34]

>  <Ligand effiencies>  (10) 
[-0.3495238095238095]

>  <Interactions>  (10) 
["V-B:ARG:545:CG:9894, V-A:HIS:456:CD2:4068, V-B:GLU:543:CD:9880, H-B:LYS:547:NZ:9923, V-B:GLU:543:C:9874, V-B:GLU:543:CB:9878, V-A:HIS:456:CE1:4069, V-B:ARG:545:CD:9895, V-B:HIS:456:CE1:9040, V-A:GLU:543:CD:4908, H-B:TYR:484:OH:9319, H-B:ARG:545:NE:9896, V-B:GLY:544:C:9884, H-B:ARG:545:N:9892, V-A:HIS:456:CG:4066, V-A:TYR:484:CD2:4344, V-A:TYR:484:CE2:4346, V-A:HIS:456:CB:4065, V-A:TYR:484:CG:4342, H-B:GLU:543:O:9875, V-B:GLY:544:CA:9886, V-A:TYR:484:CB:4341"]

$$$$
1k_Grossjean_2025
     RDKit          3D

 25 25  0  0  0  0  0  0  0  0999 V2000
  124.1850  126.6090   74.4860 C   0  0  0  0  0  0  0  0  0  0  0  0
  124.5530  127.3370   73.3260 O   0  0  0  0  0  0  0  0  0  0  0  0
  125.9530  127.5600   73.2180 C   0  0  0  0  0  0  0  0  0  0  0  0
  126.7030  126.5420   74.0880 C   0  0  0  0  0  0  0  0  0  0  0  0
  127.8450  126.0690   73.3850 O   0  0  0  0  0  0  0  0  0  0  0  0
  128.2890  126.9480   72.3600 C   0  0  0  0  0  0  0  0  0  0  0  0
  128.2570  126.2160   71.0130 C   0  0  0  0  0  0  0  0  0  0  0  0
  129.1570  126.8460   70.1090 O   0  0  0  0  0  0  0  0  0  0  0  0
  128.5900  127.1150   68.8340 C   0  0  0  0  0  0  0  0  0  0  0  0
  129.6890  127.6090   67.8740 C   0  0  0  0  0  0  0  0  0  0  0  0
  129.8340  126.7960   66.6660 N   0  0  0  0  0  0  0  0  0  0  0  0
  129.9440  125.4560   66.6410 C   0  0  0  0  0  0  0  0  0  0  0  0
  129.9270  124.7610   67.6580 O   0  0  0  0  0  0  0  0  0  0  0  0
  130.0990  124.8300   65.2460 C   0  0  0  0  0  0  0  0  0  0  0  0
  129.9970  123.0070   65.1830 S   0  0  0  0  0  0  0  0  0  0  0  0
  130.8530  122.4210   63.7270 C   0  0  0  0  0  0  0  0  0  0  0  0
  130.1400  121.6060   62.9080 N   0  0  0  0  0  0  0  0  0  0  0  0
  130.7320  121.1190   61.7930 C   0  0  0  0  0  0  0  0  0  0  0  0
  129.8740  120.2100   60.9350 C   0  0  0  0  0  0  0  0  0  0  0  0
  132.0450  121.4270   61.4440 C   0  0  0  0  0  0  0  0  0  0  0  0
  132.7880  122.2710   62.2760 C   0  0  0  0  0  0  0  0  0  0  0  0
  134.2260  122.5960   61.8760 C   0  0  0  0  0  0  0  0  0  0  0  0
  132.1900  122.7870   63.4470 C   0  0  0  0  0  0  0  0  0  0  0  0
  132.9460  123.6710   64.3390 C   0  0  0  0  0  0  0  0  0  0  0  0
  133.5440  124.3690   65.0420 N   0  0  0  0  0  0  0  0  0  0  0  0
  1  2  1  0
  2  3  1  0
  3  4  1  0
  4  5  1  0
  5  6  1  0
  6  7  1  0
  7  8  1  0
  8  9  1  0
  9 10  1  0
 10 11  1  0
 11 12  1  0
 12 13  2  0
 12 14  1  0
 14 15  1  0
 15 16  1  0
 16 17  2  0
 17 18  1  0
 18 19  1  0
 18 20  2  0
 20 21  1  0
 21 22  1  0
 21 23  2  0
 23 24  1  0
 24 25  3  0
 23 16  1  0
M  END
>  <Binding energies>  (11) 
[-5.92]

>  <Ligand effiencies>  (11) 
[-0.2276923076923077]

>  <Interactions>  (11) 
["H-B:LYS:547:NZ:9923, V-B:HIS:456:CD2:9039, V-A:HIS:456:CE1:4069, H-A:GLU:543:OE1:4909, H-A:HIS:456:NE2:4070, V-B:HIS:456:CE1:9040, H-A:GLU:543:OE2:4910, V-A:GLU:543:CG:4907, V-A:GLU:543:CD:4908, V-B:ALA:541:CB:9864, V-A:LEU:475:CD1:4258, H-A:GLY:454:N:4050, H-A:TYR:484:OH:4348, V-A:GLY:454:CA:4049, V-A:ILE:369:CD1:3239, V-B:TYR:539:CD2:9846, V-A:PRO:482:CG:4327, V-B:GLY:544:C:9884, V-B:HIS:456:CB:9036, V-B:LYS:547:CD:9921, V-B:LYS:547:CG:9920, V-B:LYS:547:CB:9919, V-B:ARG:545:C:9889, V-B:VAL:458:CG2:9058, V-B:VAL:457:C:9044, V-B:HIS:456:CG:9037, V-B:LYS:547:CE:9922, H-B:VAL:457:N:9047"]

$$$$
1l_Grossjean_2025
     RDKit          3D

 17 17  0  0  0  0  0  0  0  0999 V2000
  123.8990  130.3930   62.6340 C   0  0  0  0  0  0  0  0  0  0  0  0
  123.3830  130.3610   63.9570 O   0  0  0  0  0  0  0  0  0  0  0  0
  124.2360  129.6310   64.7830 N   0  0  0  0  0  0  0  0  0  0  0  0
  124.0020  129.6100   66.1090 C   0  0  0  0  0  0  0  0  0  0  0  0
  122.9530  130.0060   66.6250 O   0  0  0  0  0  0  0  0  0  0  0  0
  125.1400  129.0330   66.9630 C   0  0  0  0  0  0  0  0  0  0  0  0
  126.7850  129.0560   66.1730 S   0  0  0  0  0  0  0  0  0  0  0  0
  127.7340  127.6930   66.8270 C   0  0  0  0  0  0  0  0  0  0  0  0
  127.5560  127.4300   68.1480 N   0  0  0  0  0  0  0  0  0  0  0  0
  128.2470  126.4090   68.7090 C   0  0  0  0  0  0  0  0  0  0  0  0
  127.9950  126.1780   70.1870 C   0  0  0  0  0  0  0  0  0  0  0  0
  129.1340  125.6150   67.9870 C   0  0  0  0  0  0  0  0  0  0  0  0
  129.3240  125.8740   66.6260 C   0  0  0  0  0  0  0  0  0  0  0  0
  130.3010  124.9890   65.8530 C   0  0  0  0  0  0  0  0  0  0  0  0
  128.6150  126.9350   66.0200 C   0  0  0  0  0  0  0  0  0  0  0  0
  128.7950  127.2300   64.5950 C   0  0  0  0  0  0  0  0  0  0  0  0
  128.9380  127.4610   63.4710 N   0  0  0  0  0  0  0  0  0  0  0  0
  1  2  1  0
  2  3  1  0
  3  4  1  0
  4  5  2  0
  4  6  1  0
  6  7  1  0
  7  8  1  0
  8  9  2  0
  9 10  1  0
 10 11  1  0
 10 12  2  0
 12 13  1  0
 13 14  1  0
 13 15  2  0
 15 16  1  0
 16 17  3  0
 15  8  1  0
M  END
>  <Binding energies>  (12) 
[-6.07]

>  <Ligand effiencies>  (12) 
[-0.33722222222222226]

>  <Interactions>  (12) 
["V-B:ARG:545:CG:9894, V-B:GLU:543:CD:9880, V-B:GLU:543:C:9874, V-B:GLU:543:CB:9878, V-A:HIS:456:CE1:4069, V-B:ARG:545:CZ:9898, V-B:ARG:545:CD:9895, V-B:HIS:456:CE1:9040, V-A:GLU:543:CD:4908, H-B:GLY:454:N:9021, V-B:ASP:366:CG:8184, H-B:ARG:545:NH1:9899, H-B:ILE:455:N:9026, H-B:TYR:484:OH:9319, H-B:ARG:545:NH2:9900, H-B:ARG:545:NE:9896, V-B:GLY:544:C:9884, H-B:GLU:543:OE1:9881"]

$$$$
1m_Grossjean_2025
     RDKit          3D

 20 20  0  0  0  0  0  0  0  0999 V2000
  131.5260  122.6920   72.6920 C   0  0  0  0  0  0  0  0  0  0  0  0
  130.1650  122.3000   72.5910 O   0  0  0  0  0  0  0  0  0  0  0  0
  129.4260  122.6550   71.5190 C   0  0  0  0  0  0  0  0  0  0  0  0
  128.3230  122.1880   71.2220 O   0  0  0  0  0  0  0  0  0  0  0  0
  130.1280  123.7470   70.6850 C   0  0  0  0  0  0  0  0  0  0  0  0
  129.2330  124.8600   70.3360 N   0  0  0  0  0  0  0  0  0  0  0  0
  128.6440  125.6990   71.2090 C   0  0  0  0  0  0  0  0  0  0  0  0
  128.7880  125.6060   72.4300 O   0  0  0  0  0  0  0  0  0  0  0  0
  127.7630  126.7900   70.5880 C   0  0  0  0  0  0  0  0  0  0  0  0
  126.7460  126.2360   69.1760 S   0  0  0  0  0  0  0  0  0  0  0  0
  127.5900  126.6940   67.6770 C   0  0  0  0  0  0  0  0  0  0  0  0
  128.7720  126.0500   67.5020 N   0  0  0  0  0  0  0  0  0  0  0  0
  129.4990  126.3150   66.3920 C   0  0  0  0  0  0  0  0  0  0  0  0
  130.7990  125.5440   66.2550 C   0  0  0  0  0  0  0  0  0  0  0  0
  129.0900  127.2300   65.4250 C   0  0  0  0  0  0  0  0  0  0  0  0
  127.8860  127.9190   65.6080 C   0  0  0  0  0  0  0  0  0  0  0  0
  127.4650  128.9300   64.5430 C   0  0  0  0  0  0  0  0  0  0  0  0
  127.1090  127.6600   66.7600 C   0  0  0  0  0  0  0  0  0  0  0  0
  125.8710  128.4060   66.9960 C   0  0  0  0  0  0  0  0  0  0  0  0
  124.8920  128.9940   67.1820 N   0  0  0  0  0  0  0  0  0  0  0  0
  1  2  1  0
  2  3  1  0
  3  4  2  0
  3  5  1  0
  5  6  1  0
  6  7  1  0
  7  8  2  0
  7  9  1  0
  9 10  1  0
 10 11  1  0
 11 12  2  0
 12 13  1  0
 13 14  1  0
 13 15  2  0
 15 16  1  0
 16 17  1  0
 16 18  2  0
 18 19  1  0
 19 20  3  0
 18 11  1  0
M  END
>  <Binding energies>  (13) 
[-6.12]

>  <Ligand effiencies>  (13) 
[-0.2914285714285714]

>  <Interactions>  (13) 
["V-B:ARG:545:CG:9894, V-A:HIS:456:CD2:4068, V-B:GLU:543:CD:9880, H-B:LYS:547:NZ:9923, V-B:GLU:543:C:9874, V-B:GLU:543:CB:9878, V-A:HIS:456:CE1:4069, V-B:HIS:456:CE1:9040, V-A:GLU:543:CD:4908, H-B:TYR:484:OH:9319, H-B:ARG:545:NE:9896, V-A:TYR:484:CZ:4347, V-A:TYR:484:CE1:4345, H-B:GLY:544:N:9887, V-B:GLY:544:C:9884, H-B:ARG:545:N:9892, V-A:HIS:456:CG:4066, V-A:TYR:484:CD2:4344, V-A:TYR:484:CE2:4346, V-A:TYR:484:CD1:4343, V-A:HIS:456:CB:4065, V-A:TYR:484:CG:4342, H-B:GLU:543:O:9875, V-B:LYS:547:CE:9922, V-A:ASP:473:CB:4239, V-A:TYR:484:CB:4341"]

$$$$
1n_Grossjean_2025
     RDKit          3D

 27 28  0  0  0  0  0  0  0  0999 V2000
  125.9170  126.6510   74.1360 C   0  0  0  0  0  0  0  0  0  0  0  0
  127.2720  127.0080   74.7560 C   0  0  0  0  0  0  0  0  0  0  0  0
  128.2120  125.9820   74.4590 O   0  0  0  0  0  0  0  0  0  0  0  0
  129.3770  126.2620   73.8190 C   0  0  0  0  0  0  0  0  0  0  0  0
  130.3990  126.6390   74.4010 O   0  0  0  0  0  0  0  0  0  0  0  0
  129.3020  126.0550   72.3340 C   0  0  0  0  0  0  0  0  0  0  0  0
  128.7460  127.0170   71.4770 C   0  0  0  0  0  0  0  0  0  0  0  0
  128.6890  126.7930   70.1050 C   0  0  0  0  0  0  0  0  0  0  0  0
  129.1770  125.6040   69.5610 C   0  0  0  0  0  0  0  0  0  0  0  0
  129.0640  125.4790   68.1630 N   0  0  0  0  0  0  0  0  0  0  0  0
  129.4380  126.3330   67.1860 C   0  0  0  0  0  0  0  0  0  0  0  0
  129.9780  127.4260   67.3620 O   0  0  0  0  0  0  0  0  0  0  0  0
  129.1540  125.8670   65.7520 C   0  0  0  0  0  0  0  0  0  0  0  0
  130.3110  125.0490   65.1410 C   0  0  0  0  0  0  0  0  0  0  0  0
  130.0360  123.2520   65.1230 S   0  0  0  0  0  0  0  0  0  0  0  0
  130.9040  122.5870   63.7190 C   0  0  0  0  0  0  0  0  0  0  0  0
  130.1490  121.7550   62.9580 N   0  0  0  0  0  0  0  0  0  0  0  0
  130.7030  121.2030   61.8530 C   0  0  0  0  0  0  0  0  0  0  0  0
  129.7960  120.2940   61.0460 C   0  0  0  0  0  0  0  0  0  0  0  0
  132.0190  121.4490   61.4680 C   0  0  0  0  0  0  0  0  0  0  0  0
  132.8120  122.2880   62.2580 C   0  0  0  0  0  0  0  0  0  0  0  0
  134.2560  122.5320   61.8240 C   0  0  0  0  0  0  0  0  0  0  0  0
  132.2570  122.8720   63.4190 C   0  0  0  0  0  0  0  0  0  0  0  0
  133.0840  123.7120   64.2880 C   0  0  0  0  0  0  0  0  0  0  0  0
  133.7390  124.3750   64.9730 N   0  0  0  0  0  0  0  0  0  0  0  0
  129.7430  124.6420   70.4100 C   0  0  0  0  0  0  0  0  0  0  0  0
  129.8030  124.8690   71.7820 C   0  0  0  0  0  0  0  0  0  0  0  0
  1  2  1  0
  2  3  1  0
  3  4  1  0
  4  5  2  0
  4  6  1  0
  6  7  2  0
  7  8  1  0
  8  9  2  0
  9 10  1  0
 10 11  1  0
 11 12  2  0
 11 13  1  0
 13 14  1  0
 14 15  1  0
 15 16  1  0
 16 17  2  0
 17 18  1  0
 18 19  1  0
 18 20  2  0
 20 21  1  0
 21 22  1  0
 21 23  2  0
 23 24  1  0
 24 25  3  0
  9 26  1  0
 26 27  2  0
 27  6  1  0
 23 16  1  0
M  END
>  <Binding energies>  (14) 
[-8.3]

>  <Ligand effiencies>  (14) 
[-0.29642857142857143]

>  <Interactions>  (14) 
["V-A:HIS:456:CD2:4068, V-B:GLU:543:CD:9880, H-B:LYS:547:NZ:9923, V-B:GLU:543:C:9874, H-A:LYS:547:NZ:4951, V-B:GLU:543:CB:9878, V-A:HIS:456:CE1:4069, H-A:HIS:456:NE2:4070, V-B:HIS:456:CE1:9040, V-B:GLU:543:CG:9879, V-B:ALA:541:CB:9864, V-A:TYR:484:CZ:4347, V-A:LEU:475:CD1:4258, V-A:TYR:484:CE1:4345, H-A:GLY:454:N:4050, H-A:TYR:484:OH:4348, V-A:GLY:454:CA:4049, V-A:ILE:369:CD1:3239, V-B:TYR:539:CD2:9846, V-A:HIS:456:CG:4066, V-B:LYS:547:CD:9921, H-B:GLU:543:O:9875, V-B:LYS:547:CE:9922"]

$$$$
1q_Grossjean_2025
     RDKit          3D

 21 21  0  0  0  0  0  0  0  0999 V2000
  124.8550  130.7640   64.1830 C   0  0  0  0  0  0  0  0  0  0  0  0
  124.0580  129.7210   64.7260 O   0  0  0  0  0  0  0  0  0  0  0  0
  123.8240  129.6570   66.0600 C   0  0  0  0  0  0  0  0  0  0  0  0
  122.7590  129.9360   66.6140 O   0  0  0  0  0  0  0  0  0  0  0  0
  125.0470  129.2190   66.8930 C   0  0  0  0  0  0  0  0  0  0  0  0
  126.0650  128.5190   66.0950 N   0  0  0  0  0  0  0  0  0  0  0  0
  127.3830  128.4640   66.3690 C   0  0  0  0  0  0  0  0  0  0  0  0
  127.8900  129.0090   67.3520 O   0  0  0  0  0  0  0  0  0  0  0  0
  128.2410  127.6560   65.3850 C   0  0  0  0  0  0  0  0  0  0  0  0
  128.6210  126.2480   65.8840 C   0  0  0  0  0  0  0  0  0  0  0  0
  130.4090  125.9240   65.8590 S   0  0  0  0  0  0  0  0  0  0  0  0
  130.7440  124.6830   64.6260 C   0  0  0  0  0  0  0  0  0  0  0  0
  129.6330  124.2640   63.9680 N   0  0  0  0  0  0  0  0  0  0  0  0
  129.7620  123.3200   63.0070 C   0  0  0  0  0  0  0  0  0  0  0  0
  128.4740  122.8900   62.3290 C   0  0  0  0  0  0  0  0  0  0  0  0
  130.9910  122.7660   62.6560 C   0  0  0  0  0  0  0  0  0  0  0  0
  132.1460  123.2090   63.3100 C   0  0  0  0  0  0  0  0  0  0  0  0
  133.4850  122.5990   62.8940 C   0  0  0  0  0  0  0  0  0  0  0  0
  132.0370  124.1960   64.3150 C   0  0  0  0  0  0  0  0  0  0  0  0
  133.2410  124.7120   64.9690 C   0  0  0  0  0  0  0  0  0  0  0  0
  134.1960  125.1180   65.4830 N   0  0  0  0  0  0  0  0  0  0  0  0
  1  2  1  0
  2  3  1  0
  3  4  2  0
  3  5  1  0
  5  6  1  0
  6  7  1  0
  7  8  2  0
  7  9  1  0
  9 10  1  0
 10 11  1  0
 11 12  1  0
 12 13  2  0
 13 14  1  0
 14 15  1  0
 14 16  2  0
 16 17  1  0
 17 18  1  0
 17 19  2  0
 19 20  1  0
 20 21  3  0
 19 12  1  0
M  END
>  <Binding energies>  (15) 
[-6.26]

>  <Ligand effiencies>  (15) 
[-0.28454545454545455]

>  <Interactions>  (15) 
["V-B:ARG:545:CG:9894, H-B:HIS:456:NE2:9041, V-B:GLU:543:CD:9880, V-B:GLU:543:CB:9878, V-B:ARG:545:CZ:9898, V-B:ARG:545:CD:9895, V-B:HIS:456:CE1:9040, V-B:GLU:543:CG:9879, V-A:GLU:543:CD:4908, H-B:GLY:454:N:9021, H-B:ARG:545:NH1:9899, H-B:ILE:455:N:9026, H-B:TYR:484:OH:9319, H-B:ARG:545:NH2:9900, V-B:ALA:541:CB:9864, H-B:ARG:545:NE:9896, V-A:LEU:475:CD1:4258, H-A:GLY:454:N:4050, V-A:ARG:545:CZ:4926, H-A:TYR:484:OH:4348, V-A:GLY:454:CA:4049, H-A:ARG:545:NE:4924, V-B:TYR:484:CZ:9318, H-B:GLU:543:OE1:9881"]

$$$$
2a_Grossjean_2025
     RDKit          3D

 29 30  0  0  0  0  0  0  0  0999 V2000
  126.0810  127.3870   73.4260 C   0  0  0  0  0  0  0  0  0  0  0  0
  127.0840  127.0890   74.5450 C   0  0  0  0  0  0  0  0  0  0  0  0
  128.0100  126.1060   74.0970 O   0  0  0  0  0  0  0  0  0  0  0  0
  129.1840  126.4630   73.5150 C   0  0  0  0  0  0  0  0  0  0  0  0
  130.1150  126.9920   74.1290 O   0  0  0  0  0  0  0  0  0  0  0  0
  129.2430  126.1300   72.0520 C   0  0  0  0  0  0  0  0  0  0  0  0
  128.7990  127.0260   71.0680 C   0  0  0  0  0  0  0  0  0  0  0  0
  128.8660  126.6860   69.7210 C   0  0  0  0  0  0  0  0  0  0  0  0
  129.3700  125.4460   69.3270 C   0  0  0  0  0  0  0  0  0  0  0  0
  129.3780  125.2030   67.9410 N   0  0  0  0  0  0  0  0  0  0  0  0
  129.8160  125.9800   66.9270 C   0  0  0  0  0  0  0  0  0  0  0  0
  130.2890  127.1100   67.0450 O   0  0  0  0  0  0  0  0  0  0  0  0
  129.6940  125.3680   65.5270 C   0  0  0  0  0  0  0  0  0  0  0  0
  129.9530  123.5630   65.5030 S   0  0  0  0  0  0  0  0  0  0  0  0
  130.5710  123.0630   63.9000 C   0  0  0  0  0  0  0  0  0  0  0  0
  129.6620  122.4850   63.0730 N   0  0  0  0  0  0  0  0  0  0  0  0
  130.0620  122.0710   61.8500 C   0  0  0  0  0  0  0  0  0  0  0  0
  128.9970  121.4110   60.9940 C   0  0  0  0  0  0  0  0  0  0  0  0
  131.3700  122.2200   61.3970 C   0  0  0  0  0  0  0  0  0  0  0  0
  132.3240  122.8220   62.2320 C   0  0  0  0  0  0  0  0  0  0  0  0
  133.7670  122.9800   61.7150 C   0  0  0  0  0  0  0  0  0  0  0  0
  133.8050  122.7860   60.3970 F   0  0  0  0  0  0  0  0  0  0  0  0
  134.2160  124.2070   61.9870 F   0  0  0  0  0  0  0  0  0  0  0  0
  134.6130  122.1110   62.2740 F   0  0  0  0  0  0  0  0  0  0  0  0
  131.9190  123.2580   63.5190 C   0  0  0  0  0  0  0  0  0  0  0  0
  132.8750  123.8910   64.4330 C   0  0  0  0  0  0  0  0  0  0  0  0
  133.6300  124.3900   65.1540 N   0  0  0  0  0  0  0  0  0  0  0  0
  129.8240  124.5480   70.3040 C   0  0  0  0  0  0  0  0  0  0  0  0
  129.7590  124.8910   71.6520 C   0  0  0  0  0  0  0  0  0  0  0  0
  1  2  1  0
  2  3  1  0
  3  4  1  0
  4  5  2  0
  4  6  1  0
  6  7  2  0
  7  8  1  0
  8  9  2  0
  9 10  1  0
 10 11  1  0
 11 12  2  0
 11 13  1  0
 13 14  1  0
 14 15  1  0
 15 16  2  0
 16 17  1  0
 17 18  1  0
 17 19  2  0
 19 20  1  0
 20 21  1  0
 21 22  1  0
 21 23  1  0
 21 24  1  0
 20 25  2  0
 25 26  1  0
 26 27  3  0
  9 28  1  0
 28 29  2  0
 29  6  1  0
 25 15  1  0
M  END
>  <Binding energies>  (16) 
[-7.67]

>  <Ligand effiencies>  (16) 
[-0.25566666666666665]

>  <Interactions>  (16) 
["V-A:HIS:456:CD2:4068, H-B:LYS:547:NZ:9923, V-B:GLU:543:C:9874, H-A:LYS:547:NZ:4951, V-B:HIS:456:CD2:9039, V-B:GLU:543:CB:9878, V-A:HIS:456:CE1:4069, H-A:HIS:456:NE2:4070, V-B:HIS:456:CE1:9040, V-B:GLU:543:CG:9879, V-B:ALA:541:CB:9864, V-A:TYR:484:CZ:4347, V-A:LEU:475:CD1:4258, V-A:TYR:484:CE1:4345, H-A:GLY:454:N:4050, H-A:TYR:484:OH:4348, V-A:GLY:453:C:4042, V-A:GLY:454:CA:4049, V-A:ASP:366:CG:3213, V-A:ILE:369:CB:3236, V-A:ILE:369:CG2:3237, V-A:ILE:369:CD1:3239, V-B:TYR:539:CD2:9846, V-B:ALA:541:CA:9862, V-A:HIS:456:CG:4066, V-B:HIS:456:CB:9036, V-B:LYS:547:CD:9921, V-B:HIS:456:CG:9037, H-B:GLU:543:O:9875"]

$$$$
2b_Grossjean_2025
     RDKit          3D

 28 29  0  0  0  0  0  0  0  0999 V2000
  126.9670  126.6300   73.9330 C   0  0  0  0  0  0  0  0  0  0  0  0
  128.2020  125.9350   74.0360 O   0  0  0  0  0  0  0  0  0  0  0  0
  129.3050  126.3680   73.3740 C   0  0  0  0  0  0  0  0  0  0  0  0
  130.2360  126.9660   73.9230 O   0  0  0  0  0  0  0  0  0  0  0  0
  129.2790  126.0510   71.9070 C   0  0  0  0  0  0  0  0  0  0  0  0
  129.8110  124.8580   71.3960 C   0  0  0  0  0  0  0  0  0  0  0  0
  129.7720  124.5950   70.0300 C   0  0  0  0  0  0  0  0  0  0  0  0
  129.1980  125.5120   69.1490 C   0  0  0  0  0  0  0  0  0  0  0  0
  129.2170  125.1490   67.7880 N   0  0  0  0  0  0  0  0  0  0  0  0
  129.8240  125.7520   66.7440 C   0  0  0  0  0  0  0  0  0  0  0  0
  130.4800  126.7940   66.8050 O   0  0  0  0  0  0  0  0  0  0  0  0
  129.6400  125.0570   65.3920 C   0  0  0  0  0  0  0  0  0  0  0  0
  130.0290  123.2760   65.4420 S   0  0  0  0  0  0  0  0  0  0  0  0
  130.7170  122.7570   63.8760 C   0  0  0  0  0  0  0  0  0  0  0  0
  129.8740  122.0760   63.0590 N   0  0  0  0  0  0  0  0  0  0  0  0
  130.3290  121.6480   61.8600 C   0  0  0  0  0  0  0  0  0  0  0  0
  129.3300  120.8840   61.0130 C   0  0  0  0  0  0  0  0  0  0  0  0
  131.6290  121.8850   61.4220 C   0  0  0  0  0  0  0  0  0  0  0  0
  132.5160  122.5940   62.2470 C   0  0  0  0  0  0  0  0  0  0  0  0
  133.9490  122.8520   61.7450 C   0  0  0  0  0  0  0  0  0  0  0  0
  134.8020  122.0340   62.3630 F   0  0  0  0  0  0  0  0  0  0  0  0
  134.0200  122.6370   60.4300 F   0  0  0  0  0  0  0  0  0  0  0  0
  134.3580  124.1020   61.9690 F   0  0  0  0  0  0  0  0  0  0  0  0
  132.0540  123.0430   63.5100 C   0  0  0  0  0  0  0  0  0  0  0  0
  132.9390  123.7830   64.4150 C   0  0  0  0  0  0  0  0  0  0  0  0
  133.6380  124.3670   65.1280 N   0  0  0  0  0  0  0  0  0  0  0  0
  128.6710  126.7110   69.6510 C   0  0  0  0  0  0  0  0  0  0  0  0
  128.7110  126.9730   71.0170 C   0  0  0  0  0  0  0  0  0  0  0  0
  1  2  1  0
  2  3  1  0
  3  4  2  0
  3  5  1  0
  5  6  2  0
  6  7  1  0
  7  8  2  0
  8  9  1  0
  9 10  1  0
 10 11  2  0
 10 12  1  0
 12 13  1  0
 13 14  1  0
 14 15  2  0
 15 16  1  0
 16 17  1  0
 16 18  2  0
 18 19  1  0
 19 20  1  0
 20 21  1  0
 20 22  1  0
 20 23  1  0
 19 24  2  0
 24 25  1  0
 25 26  3  0
  8 27  1  0
 27 28  2  0
 28  5  1  0
 24 14  1  0
M  END
>  <Binding energies>  (17) 
[-7.51]

>  <Ligand effiencies>  (17) 
[-0.2589655172413793]

>  <Interactions>  (17) 
["V-A:HIS:456:CD2:4068, H-B:LYS:547:NZ:9923, V-B:GLU:543:C:9874, H-A:LYS:547:NZ:4951, V-B:GLU:543:CB:9878, V-A:HIS:456:CE1:4069, H-A:HIS:456:NE2:4070, V-B:HIS:456:CE1:9040, V-B:GLU:543:CG:9879, V-B:ALA:541:CB:9864, V-B:GLU:543:CA:9876, V-A:TYR:484:CZ:4347, V-A:LEU:475:CD1:4258, V-A:TYR:484:CE1:4345, H-A:GLY:454:N:4050, H-A:TYR:484:OH:4348, V-A:GLY:453:C:4042, V-A:GLY:454:CA:4049, V-A:ASP:366:CG:3213, V-A:ILE:369:CB:3236, V-A:ILE:369:CG2:3237, V-A:ILE:369:CD1:3239, V-B:TYR:539:CD2:9846, V-B:ALA:541:CA:9862, V-A:HIS:456:CG:4066, V-B:LYS:547:CD:9921, H-B:GLU:543:O:9875, V-B:LYS:547:CE:9922"]

$$$$
2c_Grossjean_2025
     RDKit          3D

 26 27  0  0  0  0  0  0  0  0999 V2000
  127.1640  126.9880   73.5020 C   0  0  0  0  0  0  0  0  0  0  0  0
  128.2210  126.0530   73.3170 O   0  0  0  0  0  0  0  0  0  0  0  0
  128.6370  125.7500   72.0350 C   0  0  0  0  0  0  0  0  0  0  0  0
  128.2230  126.6190   71.0250 C   0  0  0  0  0  0  0  0  0  0  0  0
  128.5900  126.3960   69.7010 C   0  0  0  0  0  0  0  0  0  0  0  0
  129.3750  125.2810   69.3700 C   0  0  0  0  0  0  0  0  0  0  0  0
  129.8100  124.9840   68.0660 N   0  0  0  0  0  0  0  0  0  0  0  0
  129.3430  125.4630   66.8920 C   0  0  0  0  0  0  0  0  0  0  0  0
  128.3850  126.2290   66.7790 O   0  0  0  0  0  0  0  0  0  0  0  0
  130.0790  124.9480   65.6460 C   0  0  0  0  0  0  0  0  0  0  0  0
  129.9440  123.1510   65.3400 S   0  0  0  0  0  0  0  0  0  0  0  0
  130.6550  122.7650   63.7450 C   0  0  0  0  0  0  0  0  0  0  0  0
  129.8340  122.1190   62.8770 N   0  0  0  0  0  0  0  0  0  0  0  0
  130.3070  121.7860   61.6560 C   0  0  0  0  0  0  0  0  0  0  0  0
  129.3360  121.0520   60.7520 C   0  0  0  0  0  0  0  0  0  0  0  0
  131.6030  122.0880   61.2450 C   0  0  0  0  0  0  0  0  0  0  0  0
  132.4650  122.7610   62.1210 C   0  0  0  0  0  0  0  0  0  0  0  0
  133.8960  123.0890   61.6510 C   0  0  0  0  0  0  0  0  0  0  0  0
  133.9850  122.9460   60.3280 F   0  0  0  0  0  0  0  0  0  0  0  0
  134.2070  124.3450   61.9730 F   0  0  0  0  0  0  0  0  0  0  0  0
  134.8150  122.2930   62.2030 F   0  0  0  0  0  0  0  0  0  0  0  0
  131.9840  123.1120   63.4080 C   0  0  0  0  0  0  0  0  0  0  0  0
  132.8430  123.8150   64.3670 C   0  0  0  0  0  0  0  0  0  0  0  0
  133.5210  124.3700   65.1230 N   0  0  0  0  0  0  0  0  0  0  0  0
  129.8050  124.4180   70.3790 C   0  0  0  0  0  0  0  0  0  0  0  0
  129.4360  124.6450   71.7020 C   0  0  0  0  0  0  0  0  0  0  0  0
  1  2  1  0
  2  3  1  0
  3  4  2  0
  4  5  1  0
  5  6  2  0
  6  7  1  0
  7  8  1  0
  8  9  2  0
  8 10  1  0
 10 11  1  0
 11 12  1  0
 12 13  2  0
 13 14  1  0
 14 15  1  0
 14 16  2  0
 16 17  1  0
 17 18  1  0
 18 19  1  0
 18 20  1  0
 18 21  1  0
 17 22  2  0
 22 23  1  0
 23 24  3  0
  6 25  1  0
 25 26  2  0
 26  3  1  0
 22 12  1  0
M  END
>  <Binding energies>  (18) 
[-7.08]

>  <Ligand effiencies>  (18) 
[-0.26222222222222225]

>  <Interactions>  (18) 
["V-A:HIS:456:CD2:4068, H-B:LYS:547:NZ:9923, V-B:GLU:543:C:9874, V-B:GLU:543:CB:9878, V-A:HIS:456:CE1:4069, V-B:HIS:456:CE1:9040, V-B:ALA:541:CB:9864, V-A:TYR:484:CZ:4347, V-A:LEU:475:CD1:4258, V-A:TYR:484:CE1:4345, H-A:GLY:454:N:4050, H-A:TYR:484:OH:4348, V-A:GLY:453:C:4042, V-A:GLY:454:CA:4049, V-A:ASP:366:CG:3213, V-B:TYR:539:CE2:9848, V-A:ILE:369:CB:3236, V-A:ILE:369:CG2:3237, V-A:ILE:369:CD1:3239, V-B:TYR:539:CD2:9846, V-A:HIS:456:CG:4066, H-B:GLU:543:O:9875, H-A:HIS:456:ND1:4067"]

$$$$
2d_Ghoteimi_2023
     RDKit          3D

 38 42  0  0  0  0  0  0  0  0999 V2000
  124.6420  130.3780   63.1940 C   0  0  0  0  0  0  0  0  0  0  0  0
  123.8090  130.5150   64.3350 O   0  0  0  0  0  0  0  0  0  0  0  0
  124.1850  129.9990   65.5240 C   0  0  0  0  0  0  0  0  0  0  0  0
  123.7280  130.3250   66.6230 O   0  0  0  0  0  0  0  0  0  0  0  0
  125.2700  128.9250   65.3480 C   0  0  0  0  0  0  0  0  0  0  0  0
  126.8810  129.5050   65.9800 S   0  0  0  0  0  0  0  0  0  0  0  0
  127.8670  128.0790   66.3920 C   0  0  0  0  0  0  0  0  0  0  0  0
  127.9880  127.8810   67.7280 N   0  0  0  0  0  0  0  0  0  0  0  0
  128.7180  126.8340   68.1870 C   0  0  0  0  0  0  0  0  0  0  0  0
  128.8210  126.6890   69.6710 C   0  0  0  0  0  0  0  0  0  0  0  0
  129.3050  127.7410   70.4570 C   0  0  0  0  0  0  0  0  0  0  0  0
  129.4040  127.6130   71.8400 C   0  0  0  0  0  0  0  0  0  0  0  0
  129.0120  126.4320   72.4880 C   0  0  0  0  0  0  0  0  0  0  0  0
  129.1220  126.2810   73.8750 N   0  0  0  0  0  0  0  0  0  0  0  0
  130.4340  126.1290   74.5340 C   0  0  0  0  0  0  0  0  0  0  0  0
  130.3420  125.6070   75.9830 C   0  0  0  0  0  0  0  0  0  0  0  0
  129.4880  126.4450   76.7460 O   0  0  0  0  0  0  0  0  0  0  0  0
  128.1750  126.4750   76.2110 C   0  0  0  0  0  0  0  0  0  0  0  0
  128.2020  127.0170   74.7660 C   0  0  0  0  0  0  0  0  0  0  0  0
  128.5410  125.3760   71.6950 C   0  0  0  0  0  0  0  0  0  0  0  0
  128.4440  125.5030   70.3120 C   0  0  0  0  0  0  0  0  0  0  0  0
  129.3460  125.9510   67.3040 C   0  0  0  0  0  0  0  0  0  0  0  0
  129.2090  126.1140   65.9200 C   0  0  0  0  0  0  0  0  0  0  0  0
  129.8850  125.1160   65.0370 C   0  0  0  0  0  0  0  0  0  0  0  0
  130.9560  125.5030   64.2310 C   0  0  0  0  0  0  0  0  0  0  0  0
  131.6010  124.5790   63.4140 C   0  0  0  0  0  0  0  0  0  0  0  0
  131.1880  123.2370   63.3790 C   0  0  0  0  0  0  0  0  0  0  0  0
  131.8280  122.2890   62.5760 N   0  0  0  0  0  0  0  0  0  0  0  0
  133.2290  122.4660   62.1450 C   0  0  0  0  0  0  0  0  0  0  0  0
  133.8670  121.1770   61.5830 C   0  0  0  0  0  0  0  0  0  0  0  0
  133.0720  120.6620   60.5260 O   0  0  0  0  0  0  0  0  0  0  0  0
  131.7580  120.3500   60.9630 C   0  0  0  0  0  0  0  0  0  0  0  0
  131.0650  121.6180   61.5060 C   0  0  0  0  0  0  0  0  0  0  0  0
  130.1230  122.8530   64.2050 C   0  0  0  0  0  0  0  0  0  0  0  0
  129.4800  123.7780   65.0230 C   0  0  0  0  0  0  0  0  0  0  0  0
  128.4430  127.2060   65.4420 C   0  0  0  0  0  0  0  0  0  0  0  0
  128.2540  127.4080   64.0020 C   0  0  0  0  0  0  0  0  0  0  0  0
  128.1080  127.5630   62.8640 N   0  0  0  0  0  0  0  0  0  0  0  0
  1  2  1  0
  2  3  1  0
  3  4  2  0
  3  5  1  0
  5  6  1  0
  6  7  1  0
  7  8  2  0
  8  9  1  0
  9 10  1  0
 10 11  2  0
 11 12  1  0
 12 13  2  0
 13 14  1  0
 14 15  1  0
 15 16  1  0
 16 17  1  0
 17 18  1  0
 18 19  1  0
 13 20  1  0
 20 21  2  0
  9 22  2  0
 22 23  1  0
 23 24  1  0
 24 25  2  0
 25 26  1  0
 26 27  2  0
 27 28  1  0
 28 29  1  0
 29 30  1  0
 30 31  1  0
 31 32  1  0
 32 33  1  0
 27 34  1  0
 34 35  2  0
 23 36  2  0
 36 37  1  0
 37 38  3  0
 36  7  1  0
 21 10  1  0
 35 24  1  0
 19 14  1  0
 33 28  1  0
M  END
>  <Binding energies>  (19) 
[-8.92]

>  <Ligand effiencies>  (19) 
[-0.23473684210526316]

>  <Interactions>  (19) 
["V-A:HIS:456:CD2:4068, V-B:GLU:543:CD:9880, V-B:GLU:543:C:9874, V-B:GLU:543:CB:9878, V-A:HIS:456:CE1:4069, V-B:ARG:545:CZ:9898, V-B:ARG:545:CD:9895, V-B:HIS:456:CE1:9040, V-B:GLU:543:CG:9879, H-B:GLY:454:N:9021, V-B:GLY:454:CA:9020, H-B:ILE:455:N:9026, H-B:TYR:484:OH:9319, H-B:ARG:545:NH2:9900, V-B:ALA:541:CB:9864, V-B:GLU:543:CA:9876, V-A:LEU:475:CD1:4258, V-A:TYR:484:CE1:4345, V-A:GLY:454:CA:4049, V-A:ILE:369:CG2:3237, V-A:ILE:369:CD1:3239, V-B:TYR:539:CD2:9846, V-A:TRP:381:CH2:3372, V-B:GLY:544:C:9884"]

$$$$
2d_Grossjean_2025
     RDKit          3D

 24 25  0  0  0  0  0  0  0  0999 V2000
  130.8210  125.4950   66.1500 C   0  0  0  0  0  0  0  0  0  0  0  0
  129.5380  126.2780   66.3550 C   0  0  0  0  0  0  0  0  0  0  0  0
  129.0920  127.2050   65.4150 C   0  0  0  0  0  0  0  0  0  0  0  0
  127.8970  127.9010   65.6470 C   0  0  0  0  0  0  0  0  0  0  0  0
  127.4140  128.9150   64.5920 C   0  0  0  0  0  0  0  0  0  0  0  0
  127.5950  130.1580   65.0370 F   0  0  0  0  0  0  0  0  0  0  0  0
  128.1010  128.7580   63.4590 F   0  0  0  0  0  0  0  0  0  0  0  0
  126.1190  128.7780   64.2980 F   0  0  0  0  0  0  0  0  0  0  0  0
  127.1810  127.6410   66.8440 C   0  0  0  0  0  0  0  0  0  0  0  0
  125.9040  128.3070   67.1110 C   0  0  0  0  0  0  0  0  0  0  0  0
  124.8950  128.8330   67.3210 N   0  0  0  0  0  0  0  0  0  0  0  0
  127.7240  126.7010   67.7520 C   0  0  0  0  0  0  0  0  0  0  0  0
  126.9740  126.2780   69.3130 S   0  0  0  0  0  0  0  0  0  0  0  0
  128.2950  125.9400   70.5240 C   0  0  0  0  0  0  0  0  0  0  0  0
  127.8910  126.2830   71.9610 C   0  0  0  0  0  0  0  0  0  0  0  0
  128.5850  125.8710   72.8920 O   0  0  0  0  0  0  0  0  0  0  0  0
  126.7580  127.0040   72.0930 N   0  0  0  0  0  0  0  0  0  0  0  0
  126.1350  127.4740   73.2650 C   0  0  0  0  0  0  0  0  0  0  0  0
  126.8910  128.3460   74.0530 C   0  0  0  0  0  0  0  0  0  0  0  0
  126.3630  128.8600   75.2340 C   0  0  0  0  0  0  0  0  0  0  0  0
  125.0790  128.4940   75.6330 C   0  0  0  0  0  0  0  0  0  0  0  0
  124.3220  127.6160   74.8630 C   0  0  0  0  0  0  0  0  0  0  0  0
  124.8460  127.1010   73.6810 C   0  0  0  0  0  0  0  0  0  0  0  0
  128.8700  126.0210   67.5020 N   0  0  0  0  0  0  0  0  0  0  0  0
  1  2  1  0
  2  3  2  0
  3  4  1  0
  4  5  1  0
  5  6  1  0
  5  7  1  0
  5  8  1  0
  4  9  2  0
  9 10  1  0
 10 11  3  0
  9 12  1  0
 12 13  1  0
 13 14  1  0
 14 15  1  0
 15 16  2  0
 15 17  1  0
 17 18  1  0
 18 19  2  0
 19 20  1  0
 20 21  2  0
 21 22  1  0
 22 23  2  0
 12 24  2  0
 24  2  1  0
 23 18  1  0
M  END
>  <Binding energies>  (20) 
[-6.57]

>  <Ligand effiencies>  (20) 
[-0.26280000000000003]

>  <Interactions>  (20) 
["V-B:ARG:545:CG:9894, V-B:GLU:543:CD:9880, H-B:LYS:547:NZ:9923, V-B:HIS:456:CD2:9039, V-B:GLU:543:CB:9878, V-A:HIS:456:CE1:4069, V-B:ARG:545:CZ:9898, V-B:HIS:456:CE1:9040, V-A:GLU:543:CD:4908, H-B:TYR:484:OH:9319, H-B:ARG:545:NE:9896, H-B:HIS:456:ND1:9038, V-A:GLU:543:CB:4906, V-B:GLY:544:C:9884, H-B:ARG:545:N:9892, V-B:HIS:456:CB:9036, V-B:HIS:456:C:9032, V-B:ARG:545:C:9889, V-B:VAL:458:CG2:9058, V-B:VAL:457:C:9044, V-B:HIS:456:CG:9037, H-B:GLY:544:O:9885"]

$$$$
2e_Grossjean_2025
     RDKit          3D

 25 26  0  0  0  0  0  0  0  0999 V2000
  123.1110  133.7580   62.4800 C   0  0  0  0  0  0  0  0  0  0  0  0
  123.6700  132.3660   62.2560 C   0  0  0  0  0  0  0  0  0  0  0  0
  123.7620  131.8120   60.9770 C   0  0  0  0  0  0  0  0  0  0  0  0
  124.2980  130.5300   60.8460 C   0  0  0  0  0  0  0  0  0  0  0  0
  124.7240  129.8400   61.9840 C   0  0  0  0  0  0  0  0  0  0  0  0
  124.5930  130.4500   63.2360 C   0  0  0  0  0  0  0  0  0  0  0  0
  125.0760  129.7300   64.3420 N   0  0  0  0  0  0  0  0  0  0  0  0
  124.6040  129.7300   65.6080 C   0  0  0  0  0  0  0  0  0  0  0  0
  123.5960  130.3290   65.9860 O   0  0  0  0  0  0  0  0  0  0  0  0
  125.4370  128.9510   66.6310 C   0  0  0  0  0  0  0  0  0  0  0  0
  127.1840  129.4680   66.6260 S   0  0  0  0  0  0  0  0  0  0  0  0
  128.0460  128.2220   65.6930 C   0  0  0  0  0  0  0  0  0  0  0  0
  127.7190  128.1730   64.3780 N   0  0  0  0  0  0  0  0  0  0  0  0
  128.2950  127.2250   63.6050 C   0  0  0  0  0  0  0  0  0  0  0  0
  127.8860  127.2270   62.1450 C   0  0  0  0  0  0  0  0  0  0  0  0
  129.2030  126.2940   64.1070 C   0  0  0  0  0  0  0  0  0  0  0  0
  129.5450  126.3260   65.4670 C   0  0  0  0  0  0  0  0  0  0  0  0
  130.5330  125.2770   66.0110 C   0  0  0  0  0  0  0  0  0  0  0  0
  130.6810  124.2870   65.1300 F   0  0  0  0  0  0  0  0  0  0  0  0
  131.7210  125.8420   66.2300 F   0  0  0  0  0  0  0  0  0  0  0  0
  130.1280  124.7340   67.1610 F   0  0  0  0  0  0  0  0  0  0  0  0
  128.9540  127.3170   66.2890 C   0  0  0  0  0  0  0  0  0  0  0  0
  129.2460  127.3840   67.7250 C   0  0  0  0  0  0  0  0  0  0  0  0
  129.4770  127.4360   68.8580 N   0  0  0  0  0  0  0  0  0  0  0  0
  124.0770  131.7070   63.3710 N   0  0  0  0  0  0  0  0  0  0  0  0
  1  2  1  0
  2  3  2  0
  3  4  1  0
  4  5  2  0
  5  6  1  0
  6  7  1  0
  7  8  1  0
  8  9  2  0
  8 10  1  0
 10 11  1  0
 11 12  1  0
 12 13  2  0
 13 14  1  0
 14 15  1  0
 14 16  2  0
 16 17  1  0
 17 18  1  0
 18 19  1  0
 18 20  1  0
 18 21  1  0
 17 22  2  0
 22 23  1  0
 23 24  3  0
  6 25  2  0
 25  2  1  0
 22 12  1  0
M  END
>  <Binding energies>  (21) 
[-6.08]

>  <Ligand effiencies>  (21) 
[-0.23384615384615384]

>  <Interactions>  (21) 
["V-B:ARG:545:CG:9894, V-B:GLU:543:CD:9880, V-A:HIS:456:CE1:4069, V-B:ARG:545:CZ:9898, H-A:HIS:456:NE2:4070, V-B:ARG:545:CD:9895, V-B:HIS:456:CE1:9040, V-B:GLU:543:CG:9879, V-A:GLU:543:CD:4908, H-B:GLY:454:N:9021, V-B:GLY:454:CA:9020, V-B:ASP:366:CG:8184, V-B:LEU:475:CD1:9229, V-B:ILE:369:CD1:8210, H-B:ILE:455:N:9026, H-B:TYR:484:OH:9319, V-B:ILE:369:CG2:8208, V-A:TYR:484:CZ:4347, V-A:TYR:484:CE1:4345, H-B:GLU:543:OE1:9881"]

$$$$
2f_Grossjean_2025
     RDKit          3D

 24 25  0  0  0  0  0  0  0  0999 V2000
  127.9190  130.6860   65.0470 C   0  0  0  0  0  0  0  0  0  0  0  0
  128.3700  129.3180   65.5230 C   0  0  0  0  0  0  0  0  0  0  0  0
  128.6200  128.2800   64.6290 C   0  0  0  0  0  0  0  0  0  0  0  0
  129.0280  127.0290   65.1190 C   0  0  0  0  0  0  0  0  0  0  0  0
  129.2880  125.8910   64.1140 C   0  0  0  0  0  0  0  0  0  0  0  0
  128.7580  124.7520   64.5640 F   0  0  0  0  0  0  0  0  0  0  0  0
  128.7380  126.1880   62.9370 F   0  0  0  0  0  0  0  0  0  0  0  0
  130.5880  125.6710   63.9070 F   0  0  0  0  0  0  0  0  0  0  0  0
  129.1790  126.8670   66.5200 C   0  0  0  0  0  0  0  0  0  0  0  0
  129.5470  125.5650   67.0840 C   0  0  0  0  0  0  0  0  0  0  0  0
  129.8390  124.5370   67.5290 N   0  0  0  0  0  0  0  0  0  0  0  0
  128.9280  127.9850   67.3510 C   0  0  0  0  0  0  0  0  0  0  0  0
  129.0780  127.9640   69.1260 S   0  0  0  0  0  0  0  0  0  0  0  0
  127.9070  126.7270   69.7790 C   0  0  0  0  0  0  0  0  0  0  0  0
  128.4250  125.9010   70.9650 C   0  0  0  0  0  0  0  0  0  0  0  0
  128.2330  126.2760   72.1230 O   0  0  0  0  0  0  0  0  0  0  0  0
  129.1000  124.7840   70.6180 N   0  0  0  0  0  0  0  0  0  0  0  0
  129.6950  123.8060   71.4380 C   0  0  0  0  0  0  0  0  0  0  0  0
  130.8580  123.9850   72.2100 C   0  0  0  0  0  0  0  0  0  0  0  0
  131.3410  122.9300   72.9870 C   0  0  0  0  0  0  0  0  0  0  0  0
  130.6450  121.7210   72.9770 C   0  0  0  0  0  0  0  0  0  0  0  0
  129.5170  121.5260   72.2480 N   0  0  0  0  0  0  0  0  0  0  0  0
  129.0590  122.5610   71.4990 C   0  0  0  0  0  0  0  0  0  0  0  0
  128.5130  129.1780   66.8610 N   0  0  0  0  0  0  0  0  0  0  0  0
  1  2  1  0
  2  3  2  0
  3  4  1  0
  4  5  1  0
  5  6  1  0
  5  7  1  0
  5  8  1  0
  4  9  2  0
  9 10  1  0
 10 11  3  0
  9 12  1  0
 12 13  1  0
 13 14  1  0
 14 15  1  0
 15 16  2  0
 15 17  1  0
 17 18  1  0
 18 19  2  0
 19 20  1  0
 20 21  2  0
 21 22  1  0
 22 23  2  0
 12 24  2  0
 24  2  1  0
 23 18  1  0
M  END
>  <Binding energies>  (22) 
[-6.01]

>  <Ligand effiencies>  (22) 
[-0.2404]

>  <Interactions>  (22) 
["H-B:HIS:456:NE2:9041, V-A:HIS:456:CD2:4068, V-B:GLU:543:CD:9880, H-B:LYS:547:NZ:9923, V-B:GLU:543:C:9874, V-B:GLU:543:CB:9878, V-A:HIS:456:CE1:4069, H-A:HIS:456:NE2:4070, V-B:HIS:456:CE1:9040, V-B:GLU:543:CG:9879, V-A:GLU:543:CG:4907, V-A:GLU:543:CD:4908, V-B:GLU:543:CA:9876, V-A:GLU:543:CB:4906, V-A:TYR:484:CE1:4345, H-A:TYR:484:OH:4348, V-B:GLY:544:C:9884, V-A:HIS:456:CG:4066, V-A:TYR:484:CD2:4344, V-A:TYR:484:CD1:4343, V-A:HIS:456:CB:4065, V-A:TYR:484:CG:4342, H-B:GLU:543:O:9875, V-B:LYS:547:CE:9922, V-B:GLY:544:CA:9886, V-A:ASP:473:CB:4239, V-A:TYR:484:CB:4341"]

$$$$
2g_Grossjean_2025
     RDKit          3D

 25 26  0  0  0  0  0  0  0  0999 V2000
  130.1160  126.1600   65.5380 C   0  0  0  0  0  0  0  0  0  0  0  0
  128.8280  126.8960   65.8540 C   0  0  0  0  0  0  0  0  0  0  0  0
  128.2950  127.8420   64.9820 C   0  0  0  0  0  0  0  0  0  0  0  0
  127.1050  128.5020   65.3230 C   0  0  0  0  0  0  0  0  0  0  0  0
  126.5350  129.5520   64.3490 C   0  0  0  0  0  0  0  0  0  0  0  0
  127.0980  129.4200   63.1470 F   0  0  0  0  0  0  0  0  0  0  0  0
  125.2170  129.3890   64.2300 F   0  0  0  0  0  0  0  0  0  0  0  0
  126.7520  130.8050   64.7560 F   0  0  0  0  0  0  0  0  0  0  0  0
  126.4760  128.1750   66.5520 C   0  0  0  0  0  0  0  0  0  0  0  0
  125.2630  128.8750   66.9820 C   0  0  0  0  0  0  0  0  0  0  0  0
  124.3050  129.4290   67.3220 N   0  0  0  0  0  0  0  0  0  0  0  0
  127.0740  127.1790   67.3610 C   0  0  0  0  0  0  0  0  0  0  0  0
  126.4060  126.6300   68.9170 S   0  0  0  0  0  0  0  0  0  0  0  0
  127.7990  126.0200   69.9270 C   0  0  0  0  0  0  0  0  0  0  0  0
  128.2430  126.9700   71.0480 C   0  0  0  0  0  0  0  0  0  0  0  0
  129.2090  127.7230   70.9080 O   0  0  0  0  0  0  0  0  0  0  0  0
  127.5130  126.9130   72.1770 N   0  0  0  0  0  0  0  0  0  0  0  0
  127.7350  127.7240   73.3750 C   0  0  0  0  0  0  0  0  0  0  0  0
  126.4580  128.1480   74.0930 C   0  0  0  0  0  0  0  0  0  0  0  0
  125.2910  127.3950   73.9390 C   0  0  0  0  0  0  0  0  0  0  0  0
  124.1330  127.7580   74.6240 C   0  0  0  0  0  0  0  0  0  0  0  0
  124.1500  128.8670   75.4670 C   0  0  0  0  0  0  0  0  0  0  0  0
  125.3150  129.6140   75.6350 C   0  0  0  0  0  0  0  0  0  0  0  0
  126.4720  129.2510   74.9510 C   0  0  0  0  0  0  0  0  0  0  0  0
  128.2370  126.5670   67.0250 N   0  0  0  0  0  0  0  0  0  0  0  0
  1  2  1  0
  2  3  2  0
  3  4  1  0
  4  5  1  0
  5  6  1  0
  5  7  1  0
  5  8  1  0
  4  9  2  0
  9 10  1  0
 10 11  3  0
  9 12  1  0
 12 13  1  0
 13 14  1  0
 14 15  1  0
 15 16  2  0
 15 17  1  0
 17 18  1  0
 18 19  1  0
 19 20  2  0
 20 21  1  0
 21 22  2  0
 22 23  1  0
 23 24  2  0
 12 25  2  0
 25  2  1  0
 24 19  1  0
M  END
>  <Binding energies>  (23) 
[-6.66]

>  <Ligand effiencies>  (23) 
[-0.2561538461538462]

>  <Interactions>  (23) 
["V-B:ARG:545:CG:9894, H-B:HIS:456:NE2:9041, V-B:GLU:543:CD:9880, V-B:GLU:543:C:9874, V-B:HIS:456:CD2:9039, V-B:GLU:543:CB:9878, V-B:ARG:545:CZ:9898, H-A:HIS:456:NE2:4070, V-B:ARG:545:CD:9895, V-B:HIS:456:CE1:9040, V-A:GLU:543:CD:4908, H-B:TYR:484:OH:9319, H-B:ARG:545:NE:9896, V-B:TYR:484:CZ:9318, V-B:GLY:544:C:9884, H-B:ARG:545:N:9892, V-B:HIS:456:CB:9036, V-B:HIS:456:C:9032, V-B:VAL:458:CG2:9058, V-B:VAL:457:C:9044, V-B:HIS:456:CG:9037, H-B:GLY:544:O:9885, V-B:HIS:456:CA:9034, V-B:VAL:457:CA:9046, V-B:LYS:471:CE:9191"]

$$$$
2h_Grossjean_2025
     RDKit          3D

 31 32  0  0  0  0  0  0  0  0999 V2000
  132.6660  126.6360   74.3450 C   0  0  0  0  0  0  0  0  0  0  0  0
  131.2910  126.9930   74.4150 O   0  0  0  0  0  0  0  0  0  0  0  0
  130.4940  126.8510   73.2930 C   0  0  0  0  0  0  0  0  0  0  0  0
  130.1200  127.9160   72.4580 C   0  0  0  0  0  0  0  0  0  0  0  0
  129.3210  127.6950   71.3390 C   0  0  0  0  0  0  0  0  0  0  0  0
  128.8790  126.4080   71.0280 C   0  0  0  0  0  0  0  0  0  0  0  0
  128.0210  126.1870   69.7830 C   0  0  0  0  0  0  0  0  0  0  0  0
  128.7970  125.8700   68.5840 N   0  0  0  0  0  0  0  0  0  0  0  0
  129.3560  126.7790   67.7660 C   0  0  0  0  0  0  0  0  0  0  0  0
  129.2020  127.9950   67.9010 O   0  0  0  0  0  0  0  0  0  0  0  0
  130.2250  126.2080   66.6360 C   0  0  0  0  0  0  0  0  0  0  0  0
  130.1130  124.4010   66.4160 S   0  0  0  0  0  0  0  0  0  0  0  0
  130.5080  124.0650   64.7140 C   0  0  0  0  0  0  0  0  0  0  0  0
  129.4250  123.7950   63.9450 N   0  0  0  0  0  0  0  0  0  0  0  0
  129.6130  123.5070   62.6390 C   0  0  0  0  0  0  0  0  0  0  0  0
  128.3570  123.2090   61.8420 C   0  0  0  0  0  0  0  0  0  0  0  0
  130.8750  123.4810   62.0480 C   0  0  0  0  0  0  0  0  0  0  0  0
  132.0060  123.7780   62.8230 C   0  0  0  0  0  0  0  0  0  0  0  0
  133.3920  123.7530   62.1500 C   0  0  0  0  0  0  0  0  0  0  0  0
  133.2540  123.7790   60.8240 F   0  0  0  0  0  0  0  0  0  0  0  0
  134.1520  124.7960   62.4930 F   0  0  0  0  0  0  0  0  0  0  0  0
  134.0500  122.6460   62.4950 F   0  0  0  0  0  0  0  0  0  0  0  0
  131.8250  124.0900   64.1940 C   0  0  0  0  0  0  0  0  0  0  0  0
  132.9670  124.4640   65.0320 C   0  0  0  0  0  0  0  0  0  0  0  0
  133.8700  124.7620   65.6910 N   0  0  0  0  0  0  0  0  0  0  0  0
  129.2260  125.3370   71.8660 C   0  0  0  0  0  0  0  0  0  0  0  0
  128.7910  124.0680   71.5670 O   0  0  0  0  0  0  0  0  0  0  0  0
  129.7400  123.2730   70.8660 C   0  0  0  0  0  0  0  0  0  0  0  0
  130.0480  125.5600   72.9840 C   0  0  0  0  0  0  0  0  0  0  0  0
  130.4040  124.5100   73.7960 O   0  0  0  0  0  0  0  0  0  0  0  0
  131.5690  123.8170   73.3710 C   0  0  0  0  0  0  0  0  0  0  0  0
  1  2  1  0
  2  3  1  0
  3  4  2  0
  4  5  1  0
  5  6  2  0
  6  7  1  0
  7  8  1  0
  8  9  1  0
  9 10  2  0
  9 11  1  0
 11 12  1  0
 12 13  1  0
 13 14  2  0
 14 15  1  0
 15 16  1  0
 15 17  2  0
 17 18  1  0
 18 19  1  0
 19 20  1  0
 19 21  1  0
 19 22  1  0
 18 23  2  0
 23 24  1  0
 24 25  3  0
  6 26  1  0
 26 27  1  0
 27 28  1  0
 26 29  2  0
 29 30  1  0
 30 31  1  0
 29  3  1  0
 23 13  1  0
M  END
>  <Binding energies>  (24) 
[-6.84]

>  <Ligand effiencies>  (24) 
[-0.21375]

>  <Interactions>  (24) 
["V-A:HIS:456:CD2:4068, V-B:GLU:543:CD:9880, H-B:LYS:547:NZ:9923, V-B:GLU:543:C:9874, H-A:LYS:547:NZ:4951, V-A:HIS:456:CE1:4069, V-B:HIS:456:CE1:9040, V-B:GLU:543:CG:9879, V-A:GLU:543:CD:4908, V-B:ALA:541:CB:9864, V-A:TYR:484:CZ:4347, V-A:LEU:475:CD1:4258, V-A:TYR:484:CE1:4345, H-A:GLY:454:N:4050, V-A:ARG:545:CZ:4926, V-A:GLY:453:CA:4044, H-A:TYR:484:OH:4348, V-A:GLY:453:C:4042, V-A:GLY:454:CA:4049, H-A:ARG:545:NE:4924, V-A:ASP:366:CG:3213, V-A:ILE:369:CD1:3239, V-B:GLY:544:C:9884, V-A:HIS:456:CG:4066, V-A:TYR:484:CD2:4344, V-A:TYR:484:CE2:4346, V-A:TYR:484:CD1:4343, V-A:HIS:456:CB:4065, V-A:TYR:484:CG:4342, V-A:LYS:547:CE:4950, H-B:GLU:543:O:9875, V-A:LYS:547:CD:4949"]

$$$$
2i_Grossjean_2025
     RDKit          3D

 23 24  0  0  0  0  0  0  0  0999 V2000
  130.8540  125.4610   66.1000 C   0  0  0  0  0  0  0  0  0  0  0  0
  129.5800  126.2640   66.2840 C   0  0  0  0  0  0  0  0  0  0  0  0
  129.1700  127.2080   65.3460 C   0  0  0  0  0  0  0  0  0  0  0  0
  127.9820  127.9230   65.5610 C   0  0  0  0  0  0  0  0  0  0  0  0
  127.5430  128.9640   64.5140 C   0  0  0  0  0  0  0  0  0  0  0  0
  127.6960  130.1950   65.0030 F   0  0  0  0  0  0  0  0  0  0  0  0
  128.2810  128.8420   63.4100 F   0  0  0  0  0  0  0  0  0  0  0  0
  126.2640  128.8300   64.1570 F   0  0  0  0  0  0  0  0  0  0  0  0
  127.2350  127.6570   66.7370 C   0  0  0  0  0  0  0  0  0  0  0  0
  125.9860  128.3740   67.0110 C   0  0  0  0  0  0  0  0  0  0  0  0
  124.9990  128.9390   67.2280 N   0  0  0  0  0  0  0  0  0  0  0  0
  127.7260  126.6830   67.6370 C   0  0  0  0  0  0  0  0  0  0  0  0
  126.8750  126.2710   69.1520 S   0  0  0  0  0  0  0  0  0  0  0  0
  127.8270  126.9580   70.5400 C   0  0  0  0  0  0  0  0  0  0  0  0
  128.3410  125.8710   71.4860 C   0  0  0  0  0  0  0  0  0  0  0  0
  128.2280  126.0330   72.7030 O   0  0  0  0  0  0  0  0  0  0  0  0
  128.9160  124.8010   70.8960 N   0  0  0  0  0  0  0  0  0  0  0  0
  129.4680  123.7020   71.5330 C   0  0  0  0  0  0  0  0  0  0  0  0
  130.6890  123.5700   72.2100 C   0  0  0  0  0  0  0  0  0  0  0  0
  130.7100  122.2640   72.6410 C   0  0  0  0  0  0  0  0  0  0  0  0
  129.5670  121.6500   72.2530 O   0  0  0  0  0  0  0  0  0  0  0  0
  128.7880  122.5770   71.5570 N   0  0  0  0  0  0  0  0  0  0  0  0
  128.8780  126.0010   67.4090 N   0  0  0  0  0  0  0  0  0  0  0  0
  1  2  1  0
  2  3  2  0
  3  4  1  0
  4  5  1  0
  5  6  1  0
  5  7  1  0
  5  8  1  0
  4  9  2  0
  9 10  1  0
 10 11  3  0
  9 12  1  0
 12 13  1  0
 13 14  1  0
 14 15  1  0
 15 16  2  0
 15 17  1  0
 17 18  1  0
 18 19  1  0
 19 20  2  0
 20 21  1  0
 21 22  1  0
 12 23  2  0
 23  2  1  0
 22 18  2  0
M  END
>  <Binding energies>  (25) 
[-6.99]

>  <Ligand effiencies>  (25) 
[-0.29125]

>  <Interactions>  (25) 
["V-B:ARG:545:CG:9894, V-A:HIS:456:CD2:4068, V-B:GLU:543:CD:9880, H-B:LYS:547:NZ:9923, V-B:GLU:543:C:9874, V-B:GLU:543:CB:9878, V-A:HIS:456:CE1:4069, V-B:HIS:456:CE1:9040, V-A:GLU:543:CD:4908, H-B:TYR:484:OH:9319, H-B:ARG:545:NE:9896, V-A:GLU:543:CB:4906, V-B:GLY:544:C:9884, H-B:ARG:545:N:9892, V-A:HIS:456:CG:4066, V-A:TYR:484:CD2:4344, V-A:TYR:484:CE2:4346, V-A:HIS:456:CB:4065, V-A:TYR:484:CG:4342, H-B:GLU:543:O:9875, V-A:TYR:484:CB:4341"]

$$$$
2k_Grossjean_2025
     RDKit          3D

 28 28  0  0  0  0  0  0  0  0999 V2000
  133.0390  126.5390   74.5010 C   0  0  0  0  0  0  0  0  0  0  0  0
  131.6290  126.6940   74.5410 O   0  0  0  0  0  0  0  0  0  0  0  0
  130.9380  125.5000   74.8850 C   0  0  0  0  0  0  0  0  0  0  0  0
  131.5780  124.3060   74.1660 C   0  0  0  0  0  0  0  0  0  0  0  0
  130.5640  123.5680   73.5000 O   0  0  0  0  0  0  0  0  0  0  0  0
  131.0000  122.9150   72.3140 C   0  0  0  0  0  0  0  0  0  0  0  0
  130.3890  123.6400   71.1080 C   0  0  0  0  0  0  0  0  0  0  0  0
  129.0660  124.0210   71.4550 O   0  0  0  0  0  0  0  0  0  0  0  0
  128.9190  125.3650   71.8890 C   0  0  0  0  0  0  0  0  0  0  0  0
  128.4960  126.2340   70.6900 C   0  0  0  0  0  0  0  0  0  0  0  0
  128.8310  125.6280   69.3990 N   0  0  0  0  0  0  0  0  0  0  0  0
  128.8940  126.2790   68.2210 C   0  0  0  0  0  0  0  0  0  0  0  0
  128.6990  127.4910   68.1050 O   0  0  0  0  0  0  0  0  0  0  0  0
  129.2070  125.4090   66.9950 C   0  0  0  0  0  0  0  0  0  0  0  0
  130.8430  125.6910   66.2330 S   0  0  0  0  0  0  0  0  0  0  0  0
  130.9820  124.7100   64.7450 C   0  0  0  0  0  0  0  0  0  0  0  0
  129.8080  124.3340   64.1760 N   0  0  0  0  0  0  0  0  0  0  0  0
  129.8380  123.5860   63.0510 C   0  0  0  0  0  0  0  0  0  0  0  0
  128.4870  123.1970   62.4830 C   0  0  0  0  0  0  0  0  0  0  0  0
  131.0260  123.1940   62.4410 C   0  0  0  0  0  0  0  0  0  0  0  0
  132.2510  123.5780   63.0070 C   0  0  0  0  0  0  0  0  0  0  0  0
  133.5570  123.1400   62.3160 C   0  0  0  0  0  0  0  0  0  0  0  0
  134.5250  124.0520   62.4140 F   0  0  0  0  0  0  0  0  0  0  0  0
  134.0100  122.0130   62.8680 F   0  0  0  0  0  0  0  0  0  0  0  0
  133.3370  122.9260   61.0180 F   0  0  0  0  0  0  0  0  0  0  0  0
  132.2350  124.3560   64.1920 C   0  0  0  0  0  0  0  0  0  0  0  0
  133.4860  124.7820   64.8290 C   0  0  0  0  0  0  0  0  0  0  0  0
  134.4730  125.1190   65.3300 N   0  0  0  0  0  0  0  0  0  0  0  0
  1  2  1  0
  2  3  1  0
  3  4  1  0
  4  5  1  0
  5  6  1  0
  6  7  1  0
  7  8  1  0
  8  9  1  0
  9 10  1  0
 10 11  1  0
 11 12  1  0
 12 13  2  0
 12 14  1  0
 14 15  1  0
 15 16  1  0
 16 17  2  0
 17 18  1  0
 18 19  1  0
 18 20  2  0
 20 21  1  0
 21 22  1  0
 22 23  1  0
 22 24  1  0
 22 25  1  0
 21 26  2  0
 26 27  1  0
 27 28  3  0
 26 16  1  0
M  END
>  <Binding energies>  (26) 
[-5.32]

>  <Ligand effiencies>  (26) 
[-0.18344827586206897]

>  <Interactions>  (26) 
["V-A:HIS:456:CD2:4068, V-B:GLU:543:CD:9880, H-B:LYS:547:NZ:9923, V-B:GLU:543:C:9874, H-A:LYS:547:NZ:4951, V-B:GLU:543:CB:9878, V-A:HIS:456:CE1:4069, V-B:GLU:543:CG:9879, V-B:ALA:541:CB:9864, V-B:GLU:543:CA:9876, V-A:TYR:484:CZ:4347, V-A:LEU:475:CD1:4258, V-A:TYR:484:CE1:4345, H-A:GLY:454:N:4050, V-A:ARG:545:CZ:4926, V-A:GLY:453:CA:4044, H-A:TYR:484:OH:4348, V-A:GLY:453:C:4042, V-A:GLY:454:CA:4049, H-A:ARG:545:NE:4924, V-A:ILE:369:CD1:3239, V-A:HIS:456:CG:4066, V-A:TYR:484:CD2:4344, V-A:TYR:484:CE2:4346, V-A:TYR:484:CD1:4343, V-A:HIS:456:CB:4065, V-A:TYR:484:CG:4342, V-A:LYS:547:CE:4950, H-B:GLU:543:O:9875, V-A:LYS:547:CD:4949"]

$$$$
3aa_Grossjean_2025
     RDKit          3D

 34 36  0  0  0  0  0  0  0  0999 V2000
  125.5830  126.6280   74.1260 C   0  0  0  0  0  0  0  0  0  0  0  0
  126.9560  127.0570   74.6530 C   0  0  0  0  0  0  0  0  0  0  0  0
  127.8970  126.0150   74.4270 O   0  0  0  0  0  0  0  0  0  0  0  0
  129.1030  126.2740   73.8590 C   0  0  0  0  0  0  0  0  0  0  0  0
  130.0950  126.6310   74.5010 O   0  0  0  0  0  0  0  0  0  0  0  0
  129.1060  126.0980   72.3670 C   0  0  0  0  0  0  0  0  0  0  0  0
  129.5530  124.9160   71.7590 C   0  0  0  0  0  0  0  0  0  0  0  0
  129.5380  124.7850   70.3720 C   0  0  0  0  0  0  0  0  0  0  0  0
  129.0710  125.8260   69.5680 C   0  0  0  0  0  0  0  0  0  0  0  0
  129.0950  125.5890   68.1790 N   0  0  0  0  0  0  0  0  0  0  0  0
  129.1320  126.4710   67.1560 C   0  0  0  0  0  0  0  0  0  0  0  0
  129.1290  127.6970   67.2700 O   0  0  0  0  0  0  0  0  0  0  0  0
  129.1680  125.8550   65.7570 C   0  0  0  0  0  0  0  0  0  0  0  0
  130.0360  124.2570   65.7440 S   0  0  0  0  0  0  0  0  0  0  0  0
  130.6440  124.0070   64.0910 C   0  0  0  0  0  0  0  0  0  0  0  0
  129.6660  123.7790   63.1820 N   0  0  0  0  0  0  0  0  0  0  0  0
  129.9930  123.5700   61.8810 C   0  0  0  0  0  0  0  0  0  0  0  0
  128.8540  123.3400   60.9330 C   0  0  0  0  0  0  0  0  0  0  0  0
  128.9610  122.3900   59.9050 C   0  0  0  0  0  0  0  0  0  0  0  0
  127.9060  122.1690   59.0220 C   0  0  0  0  0  0  0  0  0  0  0  0
  126.7300  122.8980   59.1560 C   0  0  0  0  0  0  0  0  0  0  0  0
  126.5980  123.8430   60.1680 C   0  0  0  0  0  0  0  0  0  0  0  0
  127.6520  124.0590   61.0510 C   0  0  0  0  0  0  0  0  0  0  0  0
  131.3270  123.5940   61.4620 C   0  0  0  0  0  0  0  0  0  0  0  0
  132.3580  123.8110   62.3890 C   0  0  0  0  0  0  0  0  0  0  0  0
  133.8150  123.8180   61.8900 C   0  0  0  0  0  0  0  0  0  0  0  0
  134.5600  124.7550   62.4800 F   0  0  0  0  0  0  0  0  0  0  0  0
  134.3910  122.6400   62.1340 F   0  0  0  0  0  0  0  0  0  0  0  0
  133.8450  124.0490   60.5770 F   0  0  0  0  0  0  0  0  0  0  0  0
  132.0130  124.0120   63.7470 C   0  0  0  0  0  0  0  0  0  0  0  0
  133.0510  124.1850   64.7680 C   0  0  0  0  0  0  0  0  0  0  0  0
  133.8710  124.3220   65.5740 N   0  0  0  0  0  0  0  0  0  0  0  0
  128.6340  127.0160   70.1690 C   0  0  0  0  0  0  0  0  0  0  0  0
  128.6520  127.1460   71.5540 C   0  0  0  0  0  0  0  0  0  0  0  0
  1  2  1  0
  2  3  1  0
  3  4  1  0
  4  5  2  0
  4  6  1  0
  6  7  2  0
  7  8  1  0
  8  9  2  0
  9 10  1  0
 10 11  1  0
 11 12  2  0
 11 13  1  0
 13 14  1  0
 14 15  1  0
 15 16  2  0
 16 17  1  0
 17 18  1  0
 18 19  2  0
 19 20  1  0
 20 21  2  0
 21 22  1  0
 22 23  2  0
 17 24  2  0
 24 25  1  0
 25 26  1  0
 26 27  1  0
 26 28  1  0
 26 29  1  0
 25 30  2  0
 30 31  1  0
 31 32  3  0
  9 33  1  0
 33 34  2  0
 34  6  1  0
 30 15  1  0
 23 18  1  0
M  END
>  <Binding energies>  (27) 
[-8.44]

>  <Ligand effiencies>  (27) 
[-0.24114285714285713]

>  <Interactions>  (27) 
["V-A:HIS:456:CD2:4068, V-B:GLU:543:CD:9880, H-B:LYS:547:NZ:9923, V-B:GLU:543:C:9874, H-A:LYS:547:NZ:4951, V-B:GLU:543:CB:9878, V-A:HIS:456:CE1:4069, V-B:HIS:456:CE1:9040, V-B:GLU:543:CG:9879, H-A:GLY:454:N:4050, V-A:ARG:545:CZ:4926, V-A:GLY:453:CA:4044, H-A:TYR:484:OH:4348, V-A:GLY:453:C:4042, V-A:GLY:454:CA:4049, V-A:ASP:366:CG:3213, V-B:TYR:539:CE2:9848, V-B:PRO:540:CA:9855, V-A:ILE:369:CD1:3239, V-B:TYR:539:CD2:9846, V-B:PRO:540:CB:9857, V-B:PRO:540:N:9856, V-B:TYR:539:C:9839, V-B:LYS:547:CD:9921, V-B:LYS:547:CG:9920, H-B:GLU:543:O:9875, V-B:LYS:547:CE:9922"]

$$$$
3ad_Grossjean_2025
     RDKit          3D

 29 31  0  0  0  0  0  0  0  0999 V2000
  123.3780  134.2900   61.0460 N   0  0  0  0  0  0  0  0  0  0  0  0
  124.4620  133.8940   60.9630 C   0  0  0  0  0  0  0  0  0  0  0  0
  125.8370  133.3960   60.8600 C   0  0  0  0  0  0  0  0  0  0  0  0
  126.9370  134.2490   61.1160 C   0  0  0  0  0  0  0  0  0  0  0  0
  126.7680  135.7160   61.5550 C   0  0  0  0  0  0  0  0  0  0  0  0
  127.2000  136.5850   60.6390 F   0  0  0  0  0  0  0  0  0  0  0  0
  125.4790  135.9770   61.7810 F   0  0  0  0  0  0  0  0  0  0  0  0
  127.4580  135.9420   62.6750 F   0  0  0  0  0  0  0  0  0  0  0  0
  128.2340  133.7360   60.9570 C   0  0  0  0  0  0  0  0  0  0  0  0
  128.4260  132.4110   60.5520 C   0  0  0  0  0  0  0  0  0  0  0  0
  129.7890  131.8170   60.3530 C   0  0  0  0  0  0  0  0  0  0  0  0
  130.5930  131.4810   61.4530 C   0  0  0  0  0  0  0  0  0  0  0  0
  131.8580  130.9290   61.2750 C   0  0  0  0  0  0  0  0  0  0  0  0
  132.3380  130.7030   59.9880 C   0  0  0  0  0  0  0  0  0  0  0  0
  131.5600  131.0240   58.8820 C   0  0  0  0  0  0  0  0  0  0  0  0
  130.2940  131.5760   59.0640 C   0  0  0  0  0  0  0  0  0  0  0  0
  127.3680  131.5990   60.3020 N   0  0  0  0  0  0  0  0  0  0  0  0
  126.1080  132.0650   60.4680 C   0  0  0  0  0  0  0  0  0  0  0  0
  124.8480  130.8620   60.1080 S   0  0  0  0  0  0  0  0  0  0  0  0
  123.6130  130.9600   61.4380 C   0  0  0  0  0  0  0  0  0  0  0  0
  124.1500  130.4250   62.7670 C   0  0  0  0  0  0  0  0  0  0  0  0
  123.3740  130.2800   63.7120 O   0  0  0  0  0  0  0  0  0  0  0  0
  125.4720  130.1500   62.7890 N   0  0  0  0  0  0  0  0  0  0  0  0
  126.2690  129.6400   63.8310 C   0  0  0  0  0  0  0  0  0  0  0  0
  127.5440  129.2030   63.4590 C   0  0  0  0  0  0  0  0  0  0  0  0
  128.4130  128.6770   64.4120 C   0  0  0  0  0  0  0  0  0  0  0  0
  128.0050  128.5830   65.7390 C   0  0  0  0  0  0  0  0  0  0  0  0
  126.7360  129.0070   66.1220 C   0  0  0  0  0  0  0  0  0  0  0  0
  125.8640  129.5340   65.1720 C   0  0  0  0  0  0  0  0  0  0  0  0
  1  2  3  0
  2  3  1  0
  3  4  2  0
  4  5  1  0
  5  6  1  0
  5  7  1  0
  5  8  1  0
  4  9  1  0
  9 10  2  0
 10 11  1  0
 11 12  2  0
 12 13  1  0
 13 14  2  0
 14 15  1  0
 15 16  2  0
 10 17  1  0
 17 18  2  0
 18 19  1  0
 19 20  1  0
 20 21  1  0
 21 22  2  0
 21 23  1  0
 23 24  1  0
 24 25  2  0
 25 26  1  0
 26 27  2  0
 27 28  1  0
 28 29  2  0
 18  3  1  0
 29 24  1  0
 16 11  1  0
M  END
>  <Binding energies>  (28) 
[-7.2]

>  <Ligand effiencies>  (28) 
[-0.24000000000000002]

>  <Interactions>  (28) 
["V-B:ARG:545:CZ:9898, V-B:HIS:456:CE1:9040, V-A:GLU:543:CD:4908, V-B:TRP:381:CH2:8343, H-B:GLY:454:N:9021, V-B:ASP:366:CG:8184, V-A:ALA:541:CA:4890, V-B:PRO:482:CG:9298, V-B:LEU:475:CD1:9229, V-B:PRO:482:CB:9297, V-A:PRO:540:CA:4883, V-B:ILE:369:CD1:8210, H-B:ARG:545:NH1:9899, V-A:TYR:539:CE2:4876, V-A:ALA:541:CB:4892, V-B:ILE:369:CG2:8208, H-B:ARG:545:NH2:9900, V-A:TYR:539:CD2:4874, V-A:PRO:540:C:4881, V-A:PRO:540:CB:4885, V-B:TRP:381:CZ2:8341, V-B:TRP:381:CZ3:8342, V-B:LEU:475:CD2:9230, V-B:TRP:381:CE2:8338, V-B:TRP:381:CE3:8339"]

$$$$
3ai_Grossjean_2025
     RDKit          3D

 28 30  0  0  0  0  0  0  0  0999 V2000
  125.2610  129.1420   67.3290 N   0  0  0  0  0  0  0  0  0  0  0  0
  126.1580  128.4920   66.9940 C   0  0  0  0  0  0  0  0  0  0  0  0
  127.2950  127.6700   66.5690 C   0  0  0  0  0  0  0  0  0  0  0  0
  127.9340  127.9050   65.3270 C   0  0  0  0  0  0  0  0  0  0  0  0
  127.5160  129.0450   64.3790 C   0  0  0  0  0  0  0  0  0  0  0  0
  128.1870  129.0330   63.2260 F   0  0  0  0  0  0  0  0  0  0  0  0
  126.2170  128.9430   64.0900 F   0  0  0  0  0  0  0  0  0  0  0  0
  127.7390  130.2260   64.9570 F   0  0  0  0  0  0  0  0  0  0  0  0
  128.9870  127.0600   64.9440 C   0  0  0  0  0  0  0  0  0  0  0  0
  129.3890  126.0090   65.7750 C   0  0  0  0  0  0  0  0  0  0  0  0
  130.4990  125.0700   65.4110 C   0  0  0  0  0  0  0  0  0  0  0  0
  130.2230  123.7440   65.0410 C   0  0  0  0  0  0  0  0  0  0  0  0
  131.2490  122.8670   64.6980 C   0  0  0  0  0  0  0  0  0  0  0  0
  132.5680  123.3070   64.7190 C   0  0  0  0  0  0  0  0  0  0  0  0
  132.8680  124.6160   65.0790 C   0  0  0  0  0  0  0  0  0  0  0  0
  131.8400  125.4900   65.4210 C   0  0  0  0  0  0  0  0  0  0  0  0
  128.7680  125.7820   66.9600 N   0  0  0  0  0  0  0  0  0  0  0  0
  127.7650  126.5990   67.3630 C   0  0  0  0  0  0  0  0  0  0  0  0
  127.0880  126.1620   68.9510 S   0  0  0  0  0  0  0  0  0  0  0  0
  128.2490  126.7430   70.2340 C   0  0  0  0  0  0  0  0  0  0  0  0
  128.6380  125.6900   71.2820 C   0  0  0  0  0  0  0  0  0  0  0  0
  128.4570  125.9010   72.4840 O   0  0  0  0  0  0  0  0  0  0  0  0
  129.1760  124.5590   70.7730 N   0  0  0  0  0  0  0  0  0  0  0  0
  129.6100  123.4430   71.4770 C   0  0  0  0  0  0  0  0  0  0  0  0
  130.8360  123.3900   72.1390 C   0  0  0  0  0  0  0  0  0  0  0  0
  130.8870  122.1350   72.6990 C   0  0  0  0  0  0  0  0  0  0  0  0
  129.7500  121.4660   72.3920 O   0  0  0  0  0  0  0  0  0  0  0  0
  128.9480  122.3070   71.6180 N   0  0  0  0  0  0  0  0  0  0  0  0
  1  2  3  0
  2  3  1  0
  3  4  2  0
  4  5  1  0
  5  6  1  0
  5  7  1  0
  5  8  1  0
  4  9  1  0
  9 10  2  0
 10 11  1  0
 11 12  2  0
 12 13  1  0
 13 14  2  0
 14 15  1  0
 15 16  2  0
 10 17  1  0
 17 18  2  0
 18 19  1  0
 19 20  1  0
 20 21  1  0
 21 22  2  0
 21 23  1  0
 23 24  1  0
 24 25  1  0
 25 26  2  0
 26 27  1  0
 27 28  1  0
 18  3  1  0
 28 24  2  0
 16 11  1  0
M  END
>  <Binding energies>  (29) 
[-8.26]

>  <Ligand effiencies>  (29) 
[-0.2848275862068965]

>  <Interactions>  (29) 
["V-B:ARG:545:CG:9894, V-A:HIS:456:CD2:4068, V-B:GLU:543:CD:9880, H-B:LYS:547:NZ:9923, V-B:GLU:543:C:9874, V-B:GLU:543:CB:9878, V-A:HIS:456:CE1:4069, V-B:HIS:456:CE1:9040, V-A:GLU:543:CD:4908, H-B:TYR:484:OH:9319, V-A:TYR:484:CZ:4347, V-A:LEU:475:CD1:4258, V-A:GLU:543:CB:4906, V-A:TYR:484:CE1:4345, V-A:GLY:454:CA:4049, H-B:ARG:545:N:9892, V-A:HIS:456:CG:4066, V-A:TYR:484:CD2:4344, V-A:TYR:484:CE2:4346, V-A:TYR:484:CD1:4343, V-A:HIS:456:CB:4065, V-A:TYR:484:CG:4342, H-B:GLU:543:O:9875, V-A:ASP:473:CB:4239, V-A:TYR:484:CB:4341"]

$$$$
3aj_Grossjean_2025
     RDKit          3D

 28 30  0  0  0  0  0  0  0  0999 V2000
  128.2050  127.6250   63.2440 N   0  0  0  0  0  0  0  0  0  0  0  0
  128.4100  127.3230   64.3420 C   0  0  0  0  0  0  0  0  0  0  0  0
  128.6730  126.9390   65.7320 C   0  0  0  0  0  0  0  0  0  0  0  0
  129.3680  125.7430   66.0330 C   0  0  0  0  0  0  0  0  0  0  0  0
  129.9220  124.8050   64.9430 C   0  0  0  0  0  0  0  0  0  0  0  0
  130.9500  125.3370   64.2770 F   0  0  0  0  0  0  0  0  0  0  0  0
  130.3440  123.6660   65.4920 F   0  0  0  0  0  0  0  0  0  0  0  0
  128.9700  124.5290   64.0510 F   0  0  0  0  0  0  0  0  0  0  0  0
  129.5520  125.3960   67.3810 C   0  0  0  0  0  0  0  0  0  0  0  0
  129.0540  126.2180   68.3970 C   0  0  0  0  0  0  0  0  0  0  0  0
  129.2140  125.8910   69.8500 C   0  0  0  0  0  0  0  0  0  0  0  0
  128.8200  126.8060   70.8380 C   0  0  0  0  0  0  0  0  0  0  0  0
  128.9630  126.5060   72.1910 C   0  0  0  0  0  0  0  0  0  0  0  0
  129.5040  125.2830   72.5740 C   0  0  0  0  0  0  0  0  0  0  0  0
  129.9010  124.3580   71.6140 C   0  0  0  0  0  0  0  0  0  0  0  0
  129.7550  124.6610   70.2630 C   0  0  0  0  0  0  0  0  0  0  0  0
  128.3820  127.3600   68.1030 N   0  0  0  0  0  0  0  0  0  0  0  0
  128.2120  127.7290   66.8110 C   0  0  0  0  0  0  0  0  0  0  0  0
  127.3300  129.2630   66.6200 S   0  0  0  0  0  0  0  0  0  0  0  0
  125.5450  128.8980   66.7270 C   0  0  0  0  0  0  0  0  0  0  0  0
  124.6690  129.6340   65.7020 C   0  0  0  0  0  0  0  0  0  0  0  0
  123.7060  130.3130   66.0670 O   0  0  0  0  0  0  0  0  0  0  0  0
  125.0470  129.4690   64.4150 N   0  0  0  0  0  0  0  0  0  0  0  0
  124.4410  130.0220   63.2950 C   0  0  0  0  0  0  0  0  0  0  0  0
  123.2350  130.5400   63.2030 N   0  0  0  0  0  0  0  0  0  0  0  0
  122.9870  130.9790   61.9850 C   0  0  0  0  0  0  0  0  0  0  0  0
  124.0100  130.8200   61.0530 C   0  0  0  0  0  0  0  0  0  0  0  0
  125.3630  130.0510   61.8260 S   0  0  0  0  0  0  0  0  0  0  0  0
  1  2  3  0
  2  3  1  0
  3  4  2  0
  4  5  1  0
  5  6  1  0
  5  7  1  0
  5  8  1  0
  4  9  1  0
  9 10  2  0
 10 11  1  0
 11 12  2  0
 12 13  1  0
 13 14  2  0
 14 15  1  0
 15 16  2  0
 10 17  1  0
 17 18  2  0
 18 19  1  0
 19 20  1  0
 20 21  1  0
 21 22  2  0
 21 23  1  0
 23 24  1  0
 24 25  2  0
 25 26  1  0
 26 27  2  0
 27 28  1  0
 18  3  1  0
 28 24  1  0
 16 11  1  0
M  END
>  <Binding energies>  (30) 
[-7.4]

>  <Ligand effiencies>  (30) 
[-0.25517241379310346]

>  <Interactions>  (30) 
["V-B:ARG:545:CG:9894, V-A:HIS:456:CD2:4068, V-B:GLU:543:CD:9880, V-B:GLU:543:CB:9878, V-A:HIS:456:CE1:4069, V-B:ARG:545:CZ:9898, V-B:ARG:545:CD:9895, V-B:HIS:456:CE1:9040, V-B:GLU:543:CG:9879, H-B:GLY:454:N:9021, V-B:ASP:366:CG:8184, V-B:ILE:369:CD1:8210, H-B:ARG:545:NH1:9899, H-B:ILE:455:N:9026, H-B:TYR:484:OH:9319, H-B:ARG:545:NH2:9900, V-A:TYR:484:CZ:4347, V-A:TYR:484:CE1:4345, V-A:HIS:456:CG:4066, H-B:GLU:543:OE1:9881"]

$$$$
3ak_Grossjean_2025
     RDKit          3D

 33 34  0  0  0  0  0  0  0  0999 V2000
  129.7490  131.3500   61.7080 C   0  0  0  0  0  0  0  0  0  0  0  0
  129.4440  132.7070   61.4270 O   0  0  0  0  0  0  0  0  0  0  0  0
  128.0550  132.9490   61.2530 C   0  0  0  0  0  0  0  0  0  0  0  0
  127.7930  134.4560   61.3640 C   0  0  0  0  0  0  0  0  0  0  0  0
  126.3910  134.6750   61.4810 O   0  0  0  0  0  0  0  0  0  0  0  0
  125.5620  133.6440   60.9500 C   0  0  0  0  0  0  0  0  0  0  0  0
  124.1670  133.5750   61.5980 C   0  0  0  0  0  0  0  0  0  0  0  0
  124.0560  132.3700   62.3410 O   0  0  0  0  0  0  0  0  0  0  0  0
  125.2810  131.6590   62.4730 C   0  0  0  0  0  0  0  0  0  0  0  0
  125.0100  130.1460   62.5600 C   0  0  0  0  0  0  0  0  0  0  0  0
  125.4420  129.5460   63.8240 N   0  0  0  0  0  0  0  0  0  0  0  0
  124.8090  129.6540   65.0070 C   0  0  0  0  0  0  0  0  0  0  0  0
  123.7550  130.2770   65.1450 O   0  0  0  0  0  0  0  0  0  0  0  0
  125.4230  128.9720   66.2410 C   0  0  0  0  0  0  0  0  0  0  0  0
  127.1630  129.3920   66.6270 S   0  0  0  0  0  0  0  0  0  0  0  0
  128.0930  127.8770   66.8020 C   0  0  0  0  0  0  0  0  0  0  0  0
  128.2970  127.4580   68.0750 N   0  0  0  0  0  0  0  0  0  0  0  0
  128.9980  126.3200   68.3110 C   0  0  0  0  0  0  0  0  0  0  0  0
  129.1750  125.9310   69.7480 C   0  0  0  0  0  0  0  0  0  0  0  0
  129.7820  124.7140   70.0930 C   0  0  0  0  0  0  0  0  0  0  0  0
  129.9520  124.3490   71.4260 C   0  0  0  0  0  0  0  0  0  0  0  0
  129.5180  125.2010   72.4350 C   0  0  0  0  0  0  0  0  0  0  0  0
  128.9160  126.4140   72.1220 C   0  0  0  0  0  0  0  0  0  0  0  0
  128.7480  126.7760   70.7880 C   0  0  0  0  0  0  0  0  0  0  0  0
  129.5040  125.5580   67.2530 C   0  0  0  0  0  0  0  0  0  0  0  0
  129.3060  125.9670   65.9260 C   0  0  0  0  0  0  0  0  0  0  0  0
  129.8810  125.1020   64.7870 C   0  0  0  0  0  0  0  0  0  0  0  0
  128.9340  124.8490   63.8840 F   0  0  0  0  0  0  0  0  0  0  0  0
  130.8870  125.7420   64.1900 F   0  0  0  0  0  0  0  0  0  0  0  0
  130.3520  123.9290   65.2150 F   0  0  0  0  0  0  0  0  0  0  0  0
  128.5820  127.1600   65.6880 C   0  0  0  0  0  0  0  0  0  0  0  0
  128.3450  127.6370   64.3220 C   0  0  0  0  0  0  0  0  0  0  0  0
  128.1580  128.0150   63.2430 N   0  0  0  0  0  0  0  0  0  0  0  0
  1  2  1  0
  2  3  1  0
  3  4  1  0
  4  5  1  0
  5  6  1  0
  6  7  1  0
  7  8  1  0
  8  9  1  0
  9 10  1  0
 10 11  1  0
 11 12  1  0
 12 13  2  0
 12 14  1  0
 14 15  1  0
 15 16  1  0
 16 17  2  0
 17 18  1  0
 18 19  1  0
 19 20  2  0
 20 21  1  0
 21 22  2  0
 22 23  1  0
 23 24  2  0
 18 25  2  0
 25 26  1  0
 26 27  1  0
 27 28  1  0
 27 29  1  0
 27 30  1  0
 26 31  2  0
 31 32  1  0
 32 33  3  0
 31 16  1  0
 24 19  1  0
M  END
>  <Binding energies>  (31) 
[-5.95]

>  <Ligand effiencies>  (31) 
[-0.17500000000000002]

>  <Interactions>  (31) 
["V-B:ARG:545:CG:9894, V-A:HIS:456:CD2:4068, V-B:GLU:543:CD:9880, V-B:GLU:543:CB:9878, V-A:HIS:456:CE1:4069, V-B:ARG:545:CZ:9898, V-B:ARG:545:CD:9895, V-B:HIS:456:CE1:9040, V-B:GLU:543:CG:9879, V-A:GLU:543:CD:4908, H-B:GLY:454:N:9021, V-B:LEU:475:CD1:9229, V-B:ILE:369:CD1:8210, V-A:TYR:539:CE2:4876, V-A:ALA:541:CB:4892, H-B:TYR:484:OH:9319, V-B:ILE:369:CG2:8208, V-A:TYR:539:CD2:4874, H-B:ARG:545:NE:9896, V-A:TYR:484:CZ:4347, V-A:TYR:484:CE1:4345, H-A:ALA:541:N:4891, V-A:HIS:456:CG:4066, H-B:GLU:543:OE1:9881"]

$$$$
3bk_Grossjean_2025
     RDKit          3D

 30 31  0  0  0  0  0  0  0  0999 V2000
  123.3960  130.7650   61.8890 C   0  0  0  0  0  0  0  0  0  0  0  0
  123.3600  130.5970   63.2980 O   0  0  0  0  0  0  0  0  0  0  0  0
  124.5240  131.0790   63.9560 C   0  0  0  0  0  0  0  0  0  0  0  0
  125.1780  129.9380   64.7470 C   0  0  0  0  0  0  0  0  0  0  0  0
  124.4020  129.6620   65.9040 O   0  0  0  0  0  0  0  0  0  0  0  0
  125.1090  128.9560   66.9160 C   0  0  0  0  0  0  0  0  0  0  0  0
  126.5150  128.6130   66.4050 C   0  0  0  0  0  0  0  0  0  0  0  0
  127.2040  127.8580   67.3930 O   0  0  0  0  0  0  0  0  0  0  0  0
  128.5760  127.6370   67.0940 C   0  0  0  0  0  0  0  0  0  0  0  0
  129.2880  127.0860   68.3380 C   0  0  0  0  0  0  0  0  0  0  0  0
  128.3800  126.9310   69.4760 N   0  0  0  0  0  0  0  0  0  0  0  0
  128.6560  127.2690   70.7470 C   0  0  0  0  0  0  0  0  0  0  0  0
  129.7210  127.7760   71.1030 O   0  0  0  0  0  0  0  0  0  0  0  0
  127.5510  127.0200   71.7750 C   0  0  0  0  0  0  0  0  0  0  0  0
  128.1550  127.2040   73.4830 S   0  0  0  0  0  0  0  0  0  0  0  0
  127.4800  128.7030   74.1800 C   0  0  0  0  0  0  0  0  0  0  0  0
  128.2490  129.8140   74.0530 N   0  0  0  0  0  0  0  0  0  0  0  0
  127.8170  131.0010   74.5560 C   0  0  0  0  0  0  0  0  0  0  0  0
  128.7170  132.1820   74.3550 C   0  0  0  0  0  0  0  0  0  0  0  0
  128.7950  133.1990   75.3200 C   0  0  0  0  0  0  0  0  0  0  0  0
  129.6250  134.3010   75.1350 C   0  0  0  0  0  0  0  0  0  0  0  0
  130.3930  134.4020   73.9800 C   0  0  0  0  0  0  0  0  0  0  0  0
  130.3380  133.4060   73.0100 C   0  0  0  0  0  0  0  0  0  0  0  0
  129.5070  132.3050   73.1990 C   0  0  0  0  0  0  0  0  0  0  0  0
  126.5790  131.0980   75.2030 C   0  0  0  0  0  0  0  0  0  0  0  0
  125.7740  129.9620   75.3430 C   0  0  0  0  0  0  0  0  0  0  0  0
  124.4310  130.1120   76.0560 C   0  0  0  0  0  0  0  0  0  0  0  0
  126.2240  128.7300   74.8240 C   0  0  0  0  0  0  0  0  0  0  0  0
  125.4010  127.5240   74.9540 C   0  0  0  0  0  0  0  0  0  0  0  0
  124.7520  126.5710   75.0580 N   0  0  0  0  0  0  0  0  0  0  0  0
  1  2  1  0
  2  3  1  0
  3  4  1  0
  4  5  1  0
  5  6  1  0
  6  7  1  0
  7  8  1  0
  8  9  1  0
  9 10  1  0
 10 11  1  0
 11 12  1  0
 12 13  2  0
 12 14  1  0
 14 15  1  0
 15 16  1  0
 16 17  2  0
 17 18  1  0
 18 19  1  0
 19 20  2  0
 20 21  1  0
 21 22  2  0
 22 23  1  0
 23 24  2  0
 18 25  2  0
 25 26  1  0
 26 27  1  0
 26 28  2  0
 28 29  1  0
 29 30  3  0
 28 16  1  0
 24 19  1  0
M  END
>  <Binding energies>  (32) 
[-6.85]

>  <Ligand effiencies>  (32) 
[-0.22096774193548385]

>  <Interactions>  (32) 
["V-B:ARG:545:CG:9894, H-B:HIS:456:NE2:9041, H-A:LYS:547:NZ:4951, V-B:HIS:456:CD2:9039, V-A:HIS:456:CE1:4069, V-B:ARG:545:CZ:9898, H-A:HIS:456:NE2:4070, V-B:ARG:545:CD:9895, V-B:HIS:456:CE1:9040, H-B:GLY:454:N:9021, V-B:GLY:454:CA:9020, V-B:ASP:366:CG:8184, V-B:ILE:369:CD1:8210, H-B:TYR:484:OH:9319, H-B:ARG:545:NH2:9900, H-B:ARG:545:NE:9896, V-B:GLY:544:C:9884, V-B:HIS:456:CB:9036, V-B:HIS:456:C:9032, V-B:VAL:458:CG2:9058, V-B:HIS:456:CG:9037, V-A:LYS:547:CE:4950, H-B:GLY:544:O:9885, H-B:GLU:543:O:9875, V-B:LYS:471:CE:9191, V-B:LYS:471:CD:9190, V-B:LYS:471:CG:9189"]

$$$$
3cb_Grossjean_2025
     RDKit          3D

 30 32  0  0  0  0  0  0  0  0999 V2000
  127.1710  126.7400   74.6720 C   0  0  0  0  0  0  0  0  0  0  0  0
  128.3080  125.8900   74.6320 O   0  0  0  0  0  0  0  0  0  0  0  0
  129.4320  126.2560   73.9640 C   0  0  0  0  0  0  0  0  0  0  0  0
  130.4460  126.6870   74.5220 O   0  0  0  0  0  0  0  0  0  0  0  0
  129.3200  126.0850   72.4760 C   0  0  0  0  0  0  0  0  0  0  0  0
  128.7620  127.0760   71.6540 C   0  0  0  0  0  0  0  0  0  0  0  0
  128.6760  126.8870   70.2780 C   0  0  0  0  0  0  0  0  0  0  0  0
  129.1370  125.7070   69.6940 C   0  0  0  0  0  0  0  0  0  0  0  0
  129.0030  125.6230   68.2930 N   0  0  0  0  0  0  0  0  0  0  0  0
  129.3740  126.4970   67.3320 C   0  0  0  0  0  0  0  0  0  0  0  0
  129.9420  127.5710   67.5360 O   0  0  0  0  0  0  0  0  0  0  0  0
  129.0470  126.0450   65.9010 C   0  0  0  0  0  0  0  0  0  0  0  0
  129.5850  124.3510   65.4860 S   0  0  0  0  0  0  0  0  0  0  0  0
  131.1520  124.4660   64.6500 C   0  0  0  0  0  0  0  0  0  0  0  0
  132.1890  124.7330   65.4810 N   0  0  0  0  0  0  0  0  0  0  0  0
  133.4300  124.8430   64.9560 C   0  0  0  0  0  0  0  0  0  0  0  0
  134.5420  125.1300   65.9460 C   0  0  0  0  0  0  0  0  0  0  0  0
  133.6830  124.6990   63.5950 C   0  0  0  0  0  0  0  0  0  0  0  0
  132.6250  124.4390   62.7140 C   0  0  0  0  0  0  0  0  0  0  0  0
  132.9480  124.2980   61.2620 C   0  0  0  0  0  0  0  0  0  0  0  0
  133.9610  123.4250   60.8470 C   0  0  0  0  0  0  0  0  0  0  0  0
  134.2620  123.2780   59.4950 C   0  0  0  0  0  0  0  0  0  0  0  0
  133.5450  124.0060   58.5480 C   0  0  0  0  0  0  0  0  0  0  0  0
  132.5300  124.8730   58.9420 C   0  0  0  0  0  0  0  0  0  0  0  0
  132.2300  125.0150   60.2940 C   0  0  0  0  0  0  0  0  0  0  0  0
  131.3140  124.3340   63.2480 C   0  0  0  0  0  0  0  0  0  0  0  0
  130.1590  124.1560   62.3640 C   0  0  0  0  0  0  0  0  0  0  0  0
  129.2470  124.0160   61.6660 N   0  0  0  0  0  0  0  0  0  0  0  0
  129.7000  124.7130   70.5080 C   0  0  0  0  0  0  0  0  0  0  0  0
  129.7870  124.9030   71.8850 C   0  0  0  0  0  0  0  0  0  0  0  0
  1  2  1  0
  2  3  1  0
  3  4  2  0
  3  5  1  0
  5  6  2  0
  6  7  1  0
  7  8  2  0
  8  9  1  0
  9 10  1  0
 10 11  2  0
 10 12  1  0
 12 13  1  0
 13 14  1  0
 14 15  2  0
 15 16  1  0
 16 17  1  0
 16 18  2  0
 18 19  1  0
 19 20  1  0
 20 21  2  0
 21 22  1  0
 22 23  2  0
 23 24  1  0
 24 25  2  0
 19 26  2  0
 26 27  1  0
 27 28  3  0
  8 29  1  0
 29 30  2  0
 30  5  1  0
 26 14  1  0
 25 20  1  0
M  END
>  <Binding energies>  (33) 
[-8.23]

>  <Ligand effiencies>  (33) 
[-0.26548387096774195]

>  <Interactions>  (33) 
["V-A:HIS:456:CD2:4068, V-B:GLU:543:CD:9880, H-B:LYS:547:NZ:9923, V-B:GLU:543:C:9874, H-A:LYS:547:NZ:4951, V-B:GLU:543:CB:9878, V-A:HIS:456:CE1:4069, H-A:HIS:456:NE2:4070, V-B:HIS:456:CE1:9040, V-B:GLU:543:CG:9879, V-A:ARG:545:CZ:4926, V-A:GLY:453:CA:4044, H-A:TYR:484:OH:4348, V-A:GLY:453:C:4042, V-A:ASP:366:CB:3212, V-A:ASP:366:CG:3213, V-B:TYR:539:CE2:9848, V-A:ARG:545:CD:4923, V-A:ILE:369:CB:3236, V-A:ILE:369:CG2:3237, V-A:ASP:366:CA:3210, V-A:ILE:369:CG1:3238, V-A:ILE:369:CD1:3239, V-A:ARG:545:CG:4922, V-A:HIS:456:CG:4066, V-B:LYS:547:CD:9921, H-B:GLU:543:O:9875"]

$$$$
3ch_Grossjean_2025
     RDKit          3D

 32 34  0  0  0  0  0  0  0  0999 V2000
  127.1830  127.9470   73.6410 C   0  0  0  0  0  0  0  0  0  0  0  0
  128.4490  127.9560   72.9910 O   0  0  0  0  0  0  0  0  0  0  0  0
  128.7450  126.9800   72.0560 C   0  0  0  0  0  0  0  0  0  0  0  0
  128.7200  127.1890   70.6680 C   0  0  0  0  0  0  0  0  0  0  0  0
  129.0410  126.1530   69.7790 C   0  0  0  0  0  0  0  0  0  0  0  0
  129.0480  126.2680   68.3760 N   0  0  0  0  0  0  0  0  0  0  0  0
  129.5500  127.2490   67.5930 C   0  0  0  0  0  0  0  0  0  0  0  0
  130.1270  128.2590   67.9960 O   0  0  0  0  0  0  0  0  0  0  0  0
  129.4030  127.0300   66.0880 C   0  0  0  0  0  0  0  0  0  0  0  0
  129.1200  125.2840   65.6720 S   0  0  0  0  0  0  0  0  0  0  0  0
  130.6400  124.6930   64.9610 C   0  0  0  0  0  0  0  0  0  0  0  0
  131.7520  125.1030   65.6210 N   0  0  0  0  0  0  0  0  0  0  0  0
  132.9600  124.7130   65.1550 C   0  0  0  0  0  0  0  0  0  0  0  0
  134.1610  125.2120   65.9370 C   0  0  0  0  0  0  0  0  0  0  0  0
  133.1070  123.9100   64.0270 C   0  0  0  0  0  0  0  0  0  0  0  0
  131.9690  123.4700   63.3360 C   0  0  0  0  0  0  0  0  0  0  0  0
  132.1760  122.6180   62.1240 C   0  0  0  0  0  0  0  0  0  0  0  0
  131.5940  121.3470   62.0510 C   0  0  0  0  0  0  0  0  0  0  0  0
  131.7880  120.5450   60.9290 C   0  0  0  0  0  0  0  0  0  0  0  0
  132.5710  121.0110   59.8760 C   0  0  0  0  0  0  0  0  0  0  0  0
  133.1630  122.2700   59.9370 C   0  0  0  0  0  0  0  0  0  0  0  0
  132.9670  123.0690   61.0610 C   0  0  0  0  0  0  0  0  0  0  0  0
  130.6940  123.8540   63.8230 C   0  0  0  0  0  0  0  0  0  0  0  0
  129.4700  123.3460   63.1970 C   0  0  0  0  0  0  0  0  0  0  0  0
  128.5030  122.9460   62.7020 N   0  0  0  0  0  0  0  0  0  0  0  0
  129.3680  124.8960   70.2900 C   0  0  0  0  0  0  0  0  0  0  0  0
  129.3980  124.6620   71.6740 C   0  0  0  0  0  0  0  0  0  0  0  0
  129.7220  123.4430   72.2440 O   0  0  0  0  0  0  0  0  0  0  0  0
  131.0850  123.0320   72.2930 C   0  0  0  0  0  0  0  0  0  0  0  0
  129.0820  125.7110   72.5460 C   0  0  0  0  0  0  0  0  0  0  0  0
  129.1250  125.5000   73.9030 O   0  0  0  0  0  0  0  0  0  0  0  0
  130.3910  125.7630   74.4910 C   0  0  0  0  0  0  0  0  0  0  0  0
  1  2  1  0
  2  3  1  0
  3  4  2  0
  4  5  1  0
  5  6  1  0
  6  7  1  0
  7  8  2  0
  7  9  1  0
  9 10  1  0
 10 11  1  0
 11 12  2  0
 12 13  1  0
 13 14  1  0
 13 15  2  0
 15 16  1  0
 16 17  1  0
 17 18  2  0
 18 19  1  0
 19 20  2  0
 20 21  1  0
 21 22  2  0
 16 23  2  0
 23 24  1  0
 24 25  3  0
  5 26  2  0
 26 27  1  0
 27 28  1  0
 28 29  1  0
 27 30  2  0
 30 31  1  0
 31 32  1  0
 30  3  1  0
 23 11  1  0
 22 17  1  0
M  END
>  <Binding energies>  (34) 
[-7.79]

>  <Ligand effiencies>  (34) 
[-0.23606060606060605]

>  <Interactions>  (34) 
["V-A:HIS:456:CD2:4068, H-B:LYS:547:NZ:9923, V-B:GLU:543:C:9874, H-A:LYS:547:NZ:4951, V-B:HIS:456:CD2:9039, V-A:HIS:456:CE1:4069, H-A:HIS:456:NE2:4070, V-B:HIS:456:CE1:9040, V-B:GLU:543:CG:9879, V-A:GLU:543:CD:4908, V-B:ALA:541:CB:9864, V-A:LEU:475:CD1:4258, V-A:ARG:545:CZ:4926, V-A:GLY:453:CA:4044, H-A:TYR:484:OH:4348, V-A:GLY:454:CA:4049, V-B:TYR:539:CE2:9848, V-A:ARG:545:CD:4923, V-A:ILE:369:CG2:3237, V-A:ILE:369:CD1:3239, V-B:TYR:539:CD2:9846, V-A:ARG:545:CG:4922, V-A:HIS:456:CG:4066, V-A:TYR:484:CD2:4344, V-A:TYR:484:CE2:4346, V-A:HIS:456:CB:4065, V-A:TYR:484:CG:4342, V-B:HIS:456:CB:9036, V-B:HIS:456:CG:9037, H-B:GLU:543:O:9875"]

$$$$
3ci_Grossjean_2025
     RDKit          3D

 25 27  0  0  0  0  0  0  0  0999 V2000
  128.5430  125.9770   70.4130 C   0  0  0  0  0  0  0  0  0  0  0  0
  128.6740  126.2390   68.9250 C   0  0  0  0  0  0  0  0  0  0  0  0
  129.4320  125.4120   68.1010 C   0  0  0  0  0  0  0  0  0  0  0  0
  129.5090  125.6860   66.7280 C   0  0  0  0  0  0  0  0  0  0  0  0
  130.3220  124.7630   65.8800 C   0  0  0  0  0  0  0  0  0  0  0  0
  131.5950  125.1360   65.4300 C   0  0  0  0  0  0  0  0  0  0  0  0
  132.3440  124.2760   64.6330 C   0  0  0  0  0  0  0  0  0  0  0  0
  131.8200  123.0370   64.2750 C   0  0  0  0  0  0  0  0  0  0  0  0
  130.5530  122.6540   64.7060 C   0  0  0  0  0  0  0  0  0  0  0  0
  129.8060  123.5160   65.5040 C   0  0  0  0  0  0  0  0  0  0  0  0
  128.8140  126.8150   66.2260 C   0  0  0  0  0  0  0  0  0  0  0  0
  128.8930  127.1760   64.8060 C   0  0  0  0  0  0  0  0  0  0  0  0
  128.9550  127.4590   63.6850 N   0  0  0  0  0  0  0  0  0  0  0  0
  128.0620  127.6000   67.1330 C   0  0  0  0  0  0  0  0  0  0  0  0
  127.1290  129.0320   66.6050 S   0  0  0  0  0  0  0  0  0  0  0  0
  125.3680  128.7940   67.0110 C   0  0  0  0  0  0  0  0  0  0  0  0
  124.4230  129.6040   66.1160 C   0  0  0  0  0  0  0  0  0  0  0  0
  123.4120  130.1080   66.6080 O   0  0  0  0  0  0  0  0  0  0  0  0
  124.7780  129.6900   64.8140 N   0  0  0  0  0  0  0  0  0  0  0  0
  124.1180  130.3810   63.8070 C   0  0  0  0  0  0  0  0  0  0  0  0
  124.6210  131.5450   63.2280 C   0  0  0  0  0  0  0  0  0  0  0  0
  123.6830  131.9130   62.2900 C   0  0  0  0  0  0  0  0  0  0  0  0
  122.6690  131.0150   62.3040 O   0  0  0  0  0  0  0  0  0  0  0  0
  122.9550  130.0490   63.2700 N   0  0  0  0  0  0  0  0  0  0  0  0
  128.0030  127.3150   68.4590 N   0  0  0  0  0  0  0  0  0  0  0  0
  1  2  1  0
  2  3  2  0
  3  4  1  0
  4  5  1  0
  5  6  2  0
  6  7  1  0
  7  8  2  0
  8  9  1  0
  9 10  2  0
  4 11  2  0
 11 12  1  0
 12 13  3  0
 11 14  1  0
 14 15  1  0
 15 16  1  0
 16 17  1  0
 17 18  2  0
 17 19  1  0
 19 20  1  0
 20 21  1  0
 21 22  2  0
 22 23  1  0
 23 24  1  0
 14 25  2  0
 25  2  1  0
 10  5  1  0
 24 20  2  0
M  END
>  <Binding energies>  (35) 
[-8.12]

>  <Ligand effiencies>  (35) 
[-0.3123076923076923]

>  <Interactions>  (35) 
["V-B:ARG:545:CG:9894, V-B:GLU:543:CD:9880, V-B:GLU:543:C:9874, V-B:GLU:543:CB:9878, V-A:HIS:456:CE1:4069, V-B:ARG:545:CZ:9898, V-B:ARG:545:CD:9895, V-B:HIS:456:CE1:9040, V-B:GLU:543:CG:9879, V-A:GLU:543:CD:4908, H-B:GLY:454:N:9021, V-B:GLY:454:CA:9020, V-B:LEU:475:CD1:9229, V-B:ILE:369:CD1:8210, H-B:ARG:545:NH1:9899, H-B:ILE:455:N:9026, H-B:TYR:484:OH:9319, H-B:ARG:545:NH2:9900, V-B:GLU:543:CA:9876, H-B:ARG:545:NE:9896, V-A:TYR:484:CZ:4347, V-A:LEU:475:CD1:4258, V-A:TYR:484:CE1:4345, H-B:GLU:543:OE1:9881"]

$$$$
3ck_Grossjean_2025
     RDKit          3D

 30 31  0  0  0  0  0  0  0  0999 V2000
  131.5810  131.1860   61.3650 C   0  0  0  0  0  0  0  0  0  0  0  0
  130.5390  132.1480   61.4030 O   0  0  0  0  0  0  0  0  0  0  0  0
  129.4120  131.7310   62.1620 C   0  0  0  0  0  0  0  0  0  0  0  0
  129.0660  130.2780   61.8120 C   0  0  0  0  0  0  0  0  0  0  0  0
  127.6710  130.1750   61.5570 O   0  0  0  0  0  0  0  0  0  0  0  0
  127.3340  129.2070   60.5720 C   0  0  0  0  0  0  0  0  0  0  0  0
  126.0380  128.5010   60.9860 C   0  0  0  0  0  0  0  0  0  0  0  0
  125.6200  129.0290   62.2360 O   0  0  0  0  0  0  0  0  0  0  0  0
  124.6520  130.0640   62.1520 C   0  0  0  0  0  0  0  0  0  0  0  0
  124.0180  130.2910   63.5370 C   0  0  0  0  0  0  0  0  0  0  0  0
  124.7290  129.6200   64.6290 N   0  0  0  0  0  0  0  0  0  0  0  0
  124.3830  129.6530   65.9290 C   0  0  0  0  0  0  0  0  0  0  0  0
  123.3870  130.2470   66.3470 O   0  0  0  0  0  0  0  0  0  0  0  0
  125.3150  128.8870   66.8820 C   0  0  0  0  0  0  0  0  0  0  0  0
  127.1010  129.1600   66.6180 S   0  0  0  0  0  0  0  0  0  0  0  0
  127.9980  127.7050   67.1360 C   0  0  0  0  0  0  0  0  0  0  0  0
  127.9110  127.4020   68.4560 N   0  0  0  0  0  0  0  0  0  0  0  0
  128.5690  126.3160   68.9190 C   0  0  0  0  0  0  0  0  0  0  0  0
  128.4280  126.0430   70.4040 C   0  0  0  0  0  0  0  0  0  0  0  0
  129.3340  125.4950   68.0950 C   0  0  0  0  0  0  0  0  0  0  0  0
  129.4440  125.7910   66.7300 C   0  0  0  0  0  0  0  0  0  0  0  0
  130.2940  124.8960   65.8890 C   0  0  0  0  0  0  0  0  0  0  0  0
  129.8170  123.6400   65.4950 C   0  0  0  0  0  0  0  0  0  0  0  0
  130.6090  122.7960   64.7190 C   0  0  0  0  0  0  0  0  0  0  0  0
  131.8840  123.2040   64.3390 C   0  0  0  0  0  0  0  0  0  0  0  0
  132.3760  124.4470   64.7300 C   0  0  0  0  0  0  0  0  0  0  0  0
  131.5820  125.2880   65.5050 C   0  0  0  0  0  0  0  0  0  0  0  0
  128.7480  126.9220   66.2280 C   0  0  0  0  0  0  0  0  0  0  0  0
  128.7920  127.2570   64.8000 C   0  0  0  0  0  0  0  0  0  0  0  0
  128.8260  127.5200   63.6740 N   0  0  0  0  0  0  0  0  0  0  0  0
  1  2  1  0
  2  3  1  0
  3  4  1  0
  4  5  1  0
  5  6  1  0
  6  7  1  0
  7  8  1  0
  8  9  1  0
  9 10  1  0
 10 11  1  0
 11 12  1  0
 12 13  2  0
 12 14  1  0
 14 15  1  0
 15 16  1  0
 16 17  2  0
 17 18  1  0
 18 19  1  0
 18 20  2  0
 20 21  1  0
 21 22  1  0
 22 23  2  0
 23 24  1  0
 24 25  2  0
 25 26  1  0
 26 27  2  0
 21 28  2  0
 28 29  1  0
 29 30  3  0
 28 16  1  0
 27 22  1  0
M  END
>  <Binding energies>  (36) 
[-6.36]

>  <Ligand effiencies>  (36) 
[-0.20516129032258065]

>  <Interactions>  (36) 
["V-B:ARG:545:CG:9894, V-B:GLU:543:CD:9880, V-B:GLU:543:C:9874, V-B:GLU:543:CB:9878, V-A:HIS:456:CE1:4069, V-B:ARG:545:CZ:9898, V-B:ARG:545:CD:9895, V-B:HIS:456:CE1:9040, V-B:GLU:543:CG:9879, V-A:GLU:543:CD:4908, H-B:GLY:454:N:9021, V-B:ASP:366:CG:8184, V-A:PRO:540:CA:4883, H-B:ILE:455:N:9026, V-A:ALA:541:CB:4892, H-B:TYR:484:OH:9319, H-B:ARG:545:NH2:9900, V-B:GLU:543:CA:9876, V-A:TYR:484:CZ:4347, V-A:LEU:475:CD1:4258, V-A:TYR:484:CE1:4345, V-A:PRO:540:CB:4885, V-B:GLY:544:C:9884, H-A:ALA:541:N:4891, H-B:GLU:543:OE1:9881"]

$$$$
4aa_Grossjean_2025
     RDKit          3D

 26 28  0  0  0  0  0  0  0  0999 V2000
  125.3020  126.6460   74.1880 C   0  0  0  0  0  0  0  0  0  0  0  0
  126.5650  127.1090   73.4550 C   0  0  0  0  0  0  0  0  0  0  0  0
  127.6340  126.2180   73.7470 O   0  0  0  0  0  0  0  0  0  0  0  0
  128.8990  126.4780   73.3260 C   0  0  0  0  0  0  0  0  0  0  0  0
  129.7600  127.0020   74.0410 O   0  0  0  0  0  0  0  0  0  0  0  0
  129.1460  126.0700   71.9030 C   0  0  0  0  0  0  0  0  0  0  0  0
  129.7810  124.8490   71.6420 C   0  0  0  0  0  0  0  0  0  0  0  0
  130.0290  124.4450   70.3330 C   0  0  0  0  0  0  0  0  0  0  0  0
  129.6400  125.2470   69.2590 C   0  0  0  0  0  0  0  0  0  0  0  0
  129.9460  124.7460   67.9790 N   0  0  0  0  0  0  0  0  0  0  0  0
  129.4640  125.1010   66.7640 C   0  0  0  0  0  0  0  0  0  0  0  0
  128.5890  125.9490   66.5870 O   0  0  0  0  0  0  0  0  0  0  0  0
  130.0410  124.3790   65.6280 C   0  0  0  0  0  0  0  0  0  0  0  0
  129.3550  122.8350   65.1140 S   0  0  0  0  0  0  0  0  0  0  0  0
  130.5590  122.6670   63.8560 C   0  0  0  0  0  0  0  0  0  0  0  0
  130.5830  121.6130   63.0390 N   0  0  0  0  0  0  0  0  0  0  0  0
  131.5700  121.6030   62.1100 C   0  0  0  0  0  0  0  0  0  0  0  0
  131.5840  120.3920   61.1940 C   0  0  0  0  0  0  0  0  0  0  0  0
  132.5200  122.6130   61.9770 C   0  0  0  0  0  0  0  0  0  0  0  0
  132.4900  123.7190   62.8350 C   0  0  0  0  0  0  0  0  0  0  0  0
  133.5480  124.7970   62.6510 C   0  0  0  0  0  0  0  0  0  0  0  0
  131.4720  123.7630   63.8250 C   0  0  0  0  0  0  0  0  0  0  0  0
  131.1570  124.7230   64.8500 C   0  0  0  0  0  0  0  0  0  0  0  0
  131.8920  125.8670   65.0310 N   0  0  0  0  0  0  0  0  0  0  0  0
  129.0080  126.4730   69.5100 C   0  0  0  0  0  0  0  0  0  0  0  0
  128.7640  126.8780   70.8210 C   0  0  0  0  0  0  0  0  0  0  0  0
  1  2  1  0
  2  3  1  0
  3  4  1  0
  4  5  2  0
  4  6  1  0
  6  7  2  0
  7  8  1  0
  8  9  2  0
  9 10  1  0
 10 11  1  0
 11 12  2  0
 11 13  1  0
 13 14  1  0
 14 15  1  0
 15 16  2  0
 16 17  1  0
 17 18  1  0
 17 19  2  0
 19 20  1  0
 20 21  1  0
 20 22  2  0
 22 23  1  0
 23 24  1  0
  9 25  1  0
 25 26  2  0
 26  6  1  0
 23 13  2  0
 22 15  1  0
M  END
>  <Binding energies>  (37) 
[-7.79]

>  <Ligand effiencies>  (37) 
[-0.26862068965517244]

>  <Interactions>  (37) 
["V-A:HIS:456:CD2:4068, H-B:LYS:547:NZ:9923, V-B:GLU:543:C:9874, H-A:LYS:547:NZ:4951, V-B:GLU:543:CB:9878, V-A:HIS:456:CE1:4069, V-B:HIS:456:CE1:9040, V-B:GLU:543:CG:9879, H-A:GLU:543:OE2:4910, V-A:GLU:543:CD:4908, V-B:ALA:541:CB:9864, V-B:GLU:543:CA:9876, V-A:TYR:484:CZ:4347, V-A:LEU:475:CD1:4258, V-A:TYR:484:CE1:4345, V-A:ARG:545:CZ:4926, H-A:TYR:484:OH:4348, V-A:ASP:366:CG:3213, V-A:HIS:456:CG:4066, V-B:LYS:547:CD:9921, V-B:LYS:547:CG:9920, V-B:HIS:456:CG:9037, H-B:GLU:543:O:9875, H-A:HIS:456:ND1:4067"]

$$$$
4ab_Grossjean_2025
     RDKit          3D

 25 27  0  0  0  0  0  0  0  0999 V2000
  126.6930  126.8080   73.7510 C   0  0  0  0  0  0  0  0  0  0  0  0
  127.8310  125.9650   73.8520 O   0  0  0  0  0  0  0  0  0  0  0  0
  129.0410  126.3640   73.3820 C   0  0  0  0  0  0  0  0  0  0  0  0
  129.8640  126.9860   74.0610 O   0  0  0  0  0  0  0  0  0  0  0  0
  129.2760  125.9790   71.9500 C   0  0  0  0  0  0  0  0  0  0  0  0
  129.8720  124.7440   71.6630 C   0  0  0  0  0  0  0  0  0  0  0  0
  130.1050  124.3600   70.3440 C   0  0  0  0  0  0  0  0  0  0  0  0
  129.7400  125.1960   69.2890 C   0  0  0  0  0  0  0  0  0  0  0  0
  130.0280  124.7110   67.9990 N   0  0  0  0  0  0  0  0  0  0  0  0
  129.4840  125.0380   66.8010 C   0  0  0  0  0  0  0  0  0  0  0  0
  128.5610  125.8390   66.6550 O   0  0  0  0  0  0  0  0  0  0  0  0
  130.0580  124.3450   65.6460 C   0  0  0  0  0  0  0  0  0  0  0  0
  129.3710  122.8140   65.0950 S   0  0  0  0  0  0  0  0  0  0  0  0
  130.5690  122.6780   63.8280 C   0  0  0  0  0  0  0  0  0  0  0  0
  130.5930  121.6440   62.9870 N   0  0  0  0  0  0  0  0  0  0  0  0
  131.5740  121.6580   62.0530 C   0  0  0  0  0  0  0  0  0  0  0  0
  131.5860  120.4700   61.1090 C   0  0  0  0  0  0  0  0  0  0  0  0
  132.5220  122.6730   61.9400 C   0  0  0  0  0  0  0  0  0  0  0  0
  132.4950  123.7570   62.8250 C   0  0  0  0  0  0  0  0  0  0  0  0
  133.5510  124.8390   62.6620 C   0  0  0  0  0  0  0  0  0  0  0  0
  131.4820  123.7760   63.8220 C   0  0  0  0  0  0  0  0  0  0  0  0
  131.1710  124.7070   64.8720 C   0  0  0  0  0  0  0  0  0  0  0  0
  131.9070  125.8470   65.0800 N   0  0  0  0  0  0  0  0  0  0  0  0
  129.1470  126.4370   69.5670 C   0  0  0  0  0  0  0  0  0  0  0  0
  128.9170  126.8200   70.8850 C   0  0  0  0  0  0  0  0  0  0  0  0
  1  2  1  0
  2  3  1  0
  3  4  2  0
  3  5  1  0
  5  6  2  0
  6  7  1  0
  7  8  2  0
  8  9  1  0
  9 10  1  0
 10 11  2  0
 10 12  1  0
 12 13  1  0
 13 14  1  0
 14 15  2  0
 15 16  1  0
 16 17  1  0
 16 18  2  0
 18 19  1  0
 19 20  1  0
 19 21  2  0
 21 22  1  0
 22 23  1  0
  8 24  1  0
 24 25  2  0
 25  5  1  0
 22 12  2  0
 21 14  1  0
M  END
>  <Binding energies>  (38) 
[-7.54]

>  <Ligand effiencies>  (38) 
[-0.2692857142857143]

>  <Interactions>  (38) 
["V-A:HIS:456:CD2:4068, H-B:LYS:547:NZ:9923, V-B:GLU:543:C:9874, H-A:LYS:547:NZ:4951, V-B:GLU:543:CB:9878, V-A:HIS:456:CE1:4069, V-B:HIS:456:CE1:9040, V-B:GLU:543:CG:9879, H-A:GLU:543:OE2:4910, V-A:GLU:543:CD:4908, V-B:ALA:541:CB:9864, V-B:GLU:543:CA:9876, V-A:TYR:484:CZ:4347, V-A:LEU:475:CD1:4258, V-A:TYR:484:CE1:4345, V-A:ARG:545:CZ:4926, H-A:TYR:484:OH:4348, V-A:ASP:366:CG:3213, V-B:TYR:539:CD2:9846, V-A:HIS:456:CG:4066, V-A:TYR:484:CE2:4346, V-A:TYR:484:CD1:4343, V-B:LYS:547:CD:9921, H-B:GLU:543:O:9875, H-A:HIS:456:ND1:4067"]

$$$$
4ac_Grossjean_2025
     RDKit          3D

 23 25  0  0  0  0  0  0  0  0999 V2000
  127.0490  126.9940   73.3810 C   0  0  0  0  0  0  0  0  0  0  0  0
  127.9030  125.8860   73.1170 O   0  0  0  0  0  0  0  0  0  0  0  0
  128.3980  125.7050   71.8400 C   0  0  0  0  0  0  0  0  0  0  0  0
  129.3030  124.6590   71.6660 C   0  0  0  0  0  0  0  0  0  0  0  0
  129.8540  124.3990   70.4130 C   0  0  0  0  0  0  0  0  0  0  0  0
  129.4990  125.1810   69.3140 C   0  0  0  0  0  0  0  0  0  0  0  0
  130.1160  124.8540   68.0930 N   0  0  0  0  0  0  0  0  0  0  0  0
  129.7680  125.2110   66.8330 C   0  0  0  0  0  0  0  0  0  0  0  0
  128.7770  125.8910   66.5590 O   0  0  0  0  0  0  0  0  0  0  0  0
  130.6560  124.7250   65.7740 C   0  0  0  0  0  0  0  0  0  0  0  0
  132.2400  125.4620   65.5290 S   0  0  0  0  0  0  0  0  0  0  0  0
  132.5880  124.3840   64.1960 C   0  0  0  0  0  0  0  0  0  0  0  0
  133.7390  124.4400   63.5250 N   0  0  0  0  0  0  0  0  0  0  0  0
  133.8830  123.5490   62.5150 C   0  0  0  0  0  0  0  0  0  0  0  0
  135.1990  123.6290   61.7640 C   0  0  0  0  0  0  0  0  0  0  0  0
  132.9110  122.6140   62.1610 C   0  0  0  0  0  0  0  0  0  0  0  0
  131.7040  122.5580   62.8680 C   0  0  0  0  0  0  0  0  0  0  0  0
  130.6750  121.5210   62.4440 C   0  0  0  0  0  0  0  0  0  0  0  0
  131.5190  123.4760   63.9360 C   0  0  0  0  0  0  0  0  0  0  0  0
  130.4300  123.6910   64.8510 C   0  0  0  0  0  0  0  0  0  0  0  0
  129.2810  122.9420   64.8090 N   0  0  0  0  0  0  0  0  0  0  0  0
  128.5990  126.2440   69.4830 C   0  0  0  0  0  0  0  0  0  0  0  0
  128.0500  126.5010   70.7370 C   0  0  0  0  0  0  0  0  0  0  0  0
  1  2  1  0
  2  3  1  0
  3  4  2  0
  4  5  1  0
  5  6  2  0
  6  7  1  0
  7  8  1  0
  8  9  2  0
  8 10  1  0
 10 11  1  0
 11 12  1  0
 12 13  2  0
 13 14  1  0
 14 15  1  0
 14 16  2  0
 16 17  1  0
 17 18  1  0
 17 19  2  0
 19 20  1  0
 20 21  1  0
  6 22  1  0
 22 23  2  0
 23  3  1  0
 20 10  2  0
 19 12  1  0
M  END
>  <Binding energies>  (39) 
[-6.9]

>  <Ligand effiencies>  (39) 
[-0.2653846153846154]

>  <Interactions>  (39) 
["V-A:HIS:456:CD2:4068, H-B:LYS:547:NZ:9923, V-B:GLU:543:C:9874, V-B:GLU:543:CB:9878, V-A:HIS:456:CE1:4069, V-B:HIS:456:CE1:9040, V-B:GLU:543:CG:9879, V-B:ALA:541:CB:9864, V-B:GLU:543:CA:9876, V-A:TYR:484:CZ:4347, V-A:LEU:475:CD1:4258, V-A:TYR:484:CE1:4345, H-A:GLY:454:N:4050, V-A:GLY:453:CA:4044, H-A:ARG:545:NH2:4928, H-A:TYR:484:OH:4348, V-A:GLY:453:C:4042, V-A:GLY:454:CA:4049, V-A:ILE:369:CD1:3239, V-B:GLY:544:C:9884, V-A:HIS:456:CG:4066, H-B:GLU:543:O:9875, H-A:HIS:456:ND1:4067"]

$$$$
4ad_Grossjean_2025
     RDKit          3D

 21 23  0  0  0  0  0  0  0  0999 V2000
  123.3460  134.8350   61.3160 C   0  0  0  0  0  0  0  0  0  0  0  0
  124.5580  134.0220   61.7310 C   0  0  0  0  0  0  0  0  0  0  0  0
  125.8270  134.3270   61.2460 C   0  0  0  0  0  0  0  0  0  0  0  0
  126.9310  133.5610   61.6400 C   0  0  0  0  0  0  0  0  0  0  0  0
  128.2970  133.9320   61.0820 C   0  0  0  0  0  0  0  0  0  0  0  0
  126.7030  132.4830   62.5380 C   0  0  0  0  0  0  0  0  0  0  0  0
  127.5830  131.5160   63.1360 C   0  0  0  0  0  0  0  0  0  0  0  0
  128.9330  131.5070   62.8920 N   0  0  0  0  0  0  0  0  0  0  0  0
  126.9350  130.5990   63.9790 C   0  0  0  0  0  0  0  0  0  0  0  0
  127.5150  129.4830   64.7290 C   0  0  0  0  0  0  0  0  0  0  0  0
  128.3940  128.7790   64.2270 O   0  0  0  0  0  0  0  0  0  0  0  0
  127.0270  129.3080   65.9810 N   0  0  0  0  0  0  0  0  0  0  0  0
  127.3360  128.3170   66.9330 C   0  0  0  0  0  0  0  0  0  0  0  0
  128.6560  128.3020   67.3920 C   0  0  0  0  0  0  0  0  0  0  0  0
  129.0580  127.3660   68.3410 C   0  0  0  0  0  0  0  0  0  0  0  0
  128.1360  126.4500   68.8400 C   0  0  0  0  0  0  0  0  0  0  0  0
  126.8150  126.4630   68.4010 C   0  0  0  0  0  0  0  0  0  0  0  0
  126.4100  127.3970   67.4510 C   0  0  0  0  0  0  0  0  0  0  0  0
  125.2020  130.9200   64.0560 S   0  0  0  0  0  0  0  0  0  0  0  0
  125.3550  132.2740   62.9600 C   0  0  0  0  0  0  0  0  0  0  0  0
  124.3020  133.0030   62.5860 N   0  0  0  0  0  0  0  0  0  0  0  0
  1  2  1  0
  2  3  2  0
  3  4  1  0
  4  5  1  0
  4  6  2  0
  6  7  1  0
  7  8  1  0
  7  9  2  0
  9 10  1  0
 10 11  2  0
 10 12  1  0
 12 13  1  0
 13 14  2  0
 14 15  1  0
 15 16  2  0
 16 17  1  0
 17 18  2  0
  9 19  1  0
 19 20  1  0
 20 21  2  0
 21  2  1  0
 20  6  1  0
 18 13  1  0
M  END
>  <Binding energies>  (40) 
[-6.42]

>  <Ligand effiencies>  (40) 
[-0.2675]

>  <Interactions>  (40) 
["V-B:ARG:545:CG:9894, V-B:GLU:543:C:9874, V-B:GLU:543:CB:9878, V-A:HIS:456:CE1:4069, H-A:GLU:543:OE1:4909, V-B:HIS:456:CE1:9040, V-B:TRP:381:CH2:8343, V-A:ALA:541:CA:4890, V-B:LEU:475:CD1:9229, V-A:PRO:540:CA:4883, V-B:ILE:369:CD1:8210, V-A:TYR:539:CE2:4876, V-A:ALA:541:CB:4892, H-B:TYR:484:OH:9319, V-B:ILE:369:CG2:8208, V-A:TYR:539:CD2:4874, V-A:PRO:540:C:4881, V-A:GLU:543:CB:4906, V-B:GLY:544:C:9884"]

$$$$
4ae_Grossjean_2025
     RDKit          3D

 22 24  0  0  0  0  0  0  0  0999 V2000
  128.2060  119.9270   72.9420 C   0  0  0  0  0  0  0  0  0  0  0  0
  129.2580  121.0000   72.7360 C   0  0  0  0  0  0  0  0  0  0  0  0
  130.4320  121.0260   73.4920 C   0  0  0  0  0  0  0  0  0  0  0  0
  131.3510  122.0490   73.2540 C   0  0  0  0  0  0  0  0  0  0  0  0
  131.0770  123.0100   72.2780 C   0  0  0  0  0  0  0  0  0  0  0  0
  129.8850  122.9190   71.5510 C   0  0  0  0  0  0  0  0  0  0  0  0
  129.6550  123.9260   70.5980 N   0  0  0  0  0  0  0  0  0  0  0  0
  129.5930  125.2690   70.7810 C   0  0  0  0  0  0  0  0  0  0  0  0
  129.7300  125.8190   71.8740 O   0  0  0  0  0  0  0  0  0  0  0  0
  129.3400  126.0550   69.5710 C   0  0  0  0  0  0  0  0  0  0  0  0
  128.8590  127.7490   69.6940 S   0  0  0  0  0  0  0  0  0  0  0  0
  128.7360  127.8900   67.9560 C   0  0  0  0  0  0  0  0  0  0  0  0
  128.3760  129.0290   67.3640 N   0  0  0  0  0  0  0  0  0  0  0  0
  128.3140  129.0030   66.0110 C   0  0  0  0  0  0  0  0  0  0  0  0
  127.8950  130.3080   65.3580 C   0  0  0  0  0  0  0  0  0  0  0  0
  128.6030  127.8760   65.2430 C   0  0  0  0  0  0  0  0  0  0  0  0
  128.9810  126.6820   65.8670 C   0  0  0  0  0  0  0  0  0  0  0  0
  129.2830  125.4790   64.9870 C   0  0  0  0  0  0  0  0  0  0  0  0
  129.0560  126.6710   67.2860 C   0  0  0  0  0  0  0  0  0  0  0  0
  129.3990  125.6410   68.2310 C   0  0  0  0  0  0  0  0  0  0  0  0
  129.7480  124.3730   67.8390 N   0  0  0  0  0  0  0  0  0  0  0  0
  128.9770  121.9250   71.7840 N   0  0  0  0  0  0  0  0  0  0  0  0
  1  2  1  0
  2  3  2  0
  3  4  1  0
  4  5  2  0
  5  6  1  0
  6  7  1  0
  7  8  1  0
  8  9  2  0
  8 10  1  0
 10 11  1  0
 11 12  1  0
 12 13  2  0
 13 14  1  0
 14 15  1  0
 14 16  2  0
 16 17  1  0
 17 18  1  0
 17 19  2  0
 19 20  1  0
 20 21  1  0
  6 22  2  0
 22  2  1  0
 20 10  2  0
 19 12  1  0
M  END
>  <Binding energies>  (41) 
[-7.47]

>  <Ligand effiencies>  (41) 
[-0.2988]

>  <Interactions>  (41) 
["H-B:HIS:456:NE2:9041, V-A:HIS:456:CD2:4068, V-B:GLU:543:CD:9880, H-B:LYS:547:NZ:9923, V-B:GLU:543:C:9874, V-B:GLU:543:CB:9878, V-A:HIS:456:CE1:4069, H-A:HIS:456:NE2:4070, V-B:HIS:456:CE1:9040, V-B:GLU:543:CG:9879, V-A:GLU:543:CD:4908, V-B:GLU:543:CA:9876, V-A:TYR:484:CZ:4347, V-A:GLU:543:CB:4906, V-A:TYR:484:CE1:4345, H-A:TYR:484:OH:4348, V-A:HIS:456:CG:4066, V-A:TYR:484:CD2:4344, V-A:TYR:484:CE2:4346, V-A:TYR:484:CD1:4343, V-A:HIS:456:CB:4065, V-A:TYR:484:CG:4342, H-B:GLU:543:O:9875, V-B:LYS:547:CE:9922, V-A:ASP:473:CG:4240, H-A:HIS:456:ND1:4067, V-A:ASP:473:CB:4239, V-A:TYR:484:CB:4341"]

$$$$
4af_Grossjean_2025
     RDKit          3D

 21 23  0  0  0  0  0  0  0  0999 V2000
  127.9350  130.0340   64.3730 C   0  0  0  0  0  0  0  0  0  0  0  0
  128.3300  128.7970   65.1580 C   0  0  0  0  0  0  0  0  0  0  0  0
  128.6650  127.6110   64.5080 C   0  0  0  0  0  0  0  0  0  0  0  0
  129.0240  126.4820   65.2540 C   0  0  0  0  0  0  0  0  0  0  0  0
  129.3790  125.2100   64.5000 C   0  0  0  0  0  0  0  0  0  0  0  0
  129.0300  126.5970   66.6700 C   0  0  0  0  0  0  0  0  0  0  0  0
  129.3380  125.6600   67.7180 C   0  0  0  0  0  0  0  0  0  0  0  0
  129.7160  124.3670   67.4560 N   0  0  0  0  0  0  0  0  0  0  0  0
  129.2170  126.1900   69.0120 C   0  0  0  0  0  0  0  0  0  0  0  0
  129.4210  125.5170   70.2960 C   0  0  0  0  0  0  0  0  0  0  0  0
  129.2850  126.1320   71.3550 O   0  0  0  0  0  0  0  0  0  0  0  0
  129.7450  124.2040   70.2170 N   0  0  0  0  0  0  0  0  0  0  0  0
  130.0500  123.2930   71.2460 C   0  0  0  0  0  0  0  0  0  0  0  0
  131.2280  123.2950   72.0140 C   0  0  0  0  0  0  0  0  0  0  0  0
  131.4140  122.3200   72.9960 C   0  0  0  0  0  0  0  0  0  0  0  0
  130.4170  121.3620   73.1850 C   0  0  0  0  0  0  0  0  0  0  0  0
  129.2760  121.3330   72.4520 N   0  0  0  0  0  0  0  0  0  0  0  0
  129.1100  122.2870   71.5010 C   0  0  0  0  0  0  0  0  0  0  0  0
  128.7100  127.8810   68.9620 S   0  0  0  0  0  0  0  0  0  0  0  0
  128.6680  127.8660   67.2130 C   0  0  0  0  0  0  0  0  0  0  0  0
  128.3270  128.9440   66.5060 N   0  0  0  0  0  0  0  0  0  0  0  0
  1  2  1  0
  2  3  2  0
  3  4  1  0
  4  5  1  0
  4  6  2  0
  6  7  1  0
  7  8  1  0
  7  9  2  0
  9 10  1  0
 10 11  2  0
 10 12  1  0
 12 13  1  0
 13 14  2  0
 14 15  1  0
 15 16  2  0
 16 17  1  0
 17 18  2  0
  9 19  1  0
 19 20  1  0
 20 21  2  0
 21  2  1  0
 20  6  1  0
 18 13  1  0
M  END
>  <Binding energies>  (42) 
[-6.95]

>  <Ligand effiencies>  (42) 
[-0.28958333333333336]

>  <Interactions>  (42) 
["V-A:HIS:456:CD2:4068, V-B:GLU:543:CD:9880, H-B:LYS:547:NZ:9923, V-B:GLU:543:C:9874, V-B:GLU:543:CB:9878, V-A:HIS:456:CE1:4069, H-A:HIS:456:NE2:4070, V-B:HIS:456:CE1:9040, V-B:GLU:543:CG:9879, V-A:GLU:543:CD:4908, V-B:GLU:543:CA:9876, V-A:TYR:484:CZ:4347, V-A:GLU:543:CB:4906, V-A:TYR:484:CE1:4345, H-A:TYR:484:OH:4348, V-A:HIS:456:CG:4066, V-A:TYR:484:CD2:4344, V-A:TYR:484:CE2:4346, V-A:TYR:484:CD1:4343, V-A:HIS:456:CB:4065, V-A:TYR:484:CG:4342, H-B:GLU:543:O:9875, V-B:LYS:547:CE:9922, V-A:ASP:473:CG:4240, V-B:GLY:544:CA:9886, H-A:HIS:456:ND1:4067, V-A:ASP:473:CB:4239, V-A:TYR:484:CB:4341"]

$$$$
4ag_Grossjean_2025
     RDKit          3D

 22 24  0  0  0  0  0  0  0  0999 V2000
  133.3290  126.0160   75.6020 C   0  0  0  0  0  0  0  0  0  0  0  0
  132.2790  125.6210   74.5800 C   0  0  0  0  0  0  0  0  0  0  0  0
  132.1830  124.3090   74.1210 C   0  0  0  0  0  0  0  0  0  0  0  0
  131.2070  123.9660   73.1790 C   0  0  0  0  0  0  0  0  0  0  0  0
  131.1420  122.5200   72.7090 C   0  0  0  0  0  0  0  0  0  0  0  0
  130.3380  124.9920   72.7210 C   0  0  0  0  0  0  0  0  0  0  0  0
  129.2500  124.9930   71.7820 C   0  0  0  0  0  0  0  0  0  0  0  0
  128.8530  123.8590   71.1170 N   0  0  0  0  0  0  0  0  0  0  0  0
  128.6450  126.2470   71.6130 C   0  0  0  0  0  0  0  0  0  0  0  0
  127.5160  126.6030   70.7530 C   0  0  0  0  0  0  0  0  0  0  0  0
  126.6360  127.3770   71.1350 O   0  0  0  0  0  0  0  0  0  0  0  0
  127.4910  126.0210   69.5350 N   0  0  0  0  0  0  0  0  0  0  0  0
  126.4760  126.2510   68.5070 C   0  0  0  0  0  0  0  0  0  0  0  0
  126.8080  127.3940   67.5540 C   0  0  0  0  0  0  0  0  0  0  0  0
  128.1410  127.6710   67.2380 C   0  0  0  0  0  0  0  0  0  0  0  0
  128.4460  128.6980   66.3480 C   0  0  0  0  0  0  0  0  0  0  0  0
  127.4160  129.4370   65.7690 C   0  0  0  0  0  0  0  0  0  0  0  0
  126.0850  129.1560   66.0680 C   0  0  0  0  0  0  0  0  0  0  0  0
  125.7800  128.1290   66.9570 C   0  0  0  0  0  0  0  0  0  0  0  0
  129.4070  127.4680   72.6310 S   0  0  0  0  0  0  0  0  0  0  0  0
  130.5380  126.2950   73.2690 C   0  0  0  0  0  0  0  0  0  0  0  0
  131.4670  126.6250   74.1680 N   0  0  0  0  0  0  0  0  0  0  0  0
  1  2  1  0
  2  3  2  0
  3  4  1  0
  4  5  1  0
  4  6  2  0
  6  7  1  0
  7  8  1  0
  7  9  2  0
  9 10  1  0
 10 11  2  0
 10 12  1  0
 12 13  1  0
 13 14  1  0
 14 15  2  0
 15 16  1  0
 16 17  2  0
 17 18  1  0
 18 19  2  0
  9 20  1  0
 20 21  1  0
 21 22  2  0
 22  2  1  0
 21  6  1  0
 19 14  1  0
M  END
>  <Binding energies>  (43) 
[-7.33]

>  <Ligand effiencies>  (43) 
[-0.2932]

>  <Interactions>  (43) 
["V-B:ARG:545:CG:9894, H-B:HIS:456:NE2:9041, V-A:HIS:456:CD2:4068, V-B:GLU:543:C:9874, H-A:LYS:547:NZ:4951, V-B:GLU:543:CB:9878, V-B:ARG:545:CD:9895, V-B:HIS:456:CE1:9040, V-A:GLU:543:CG:4907, V-A:GLU:543:CD:4908, V-A:GLU:543:CB:4906, V-B:GLY:544:C:9884, V-B:ARG:545:CA:9891, V-A:HIS:456:CG:4066, V-A:TYR:484:CD2:4344, V-A:TYR:484:CE2:4346, V-A:HIS:456:CB:4065, V-A:TYR:484:CG:4342, H-B:GLY:544:O:9885, H-B:GLU:543:O:9875, V-A:VAL:458:CG2:4087, V-A:LYS:547:CD:4949, V-B:GLY:544:CA:9886, V-A:ASP:473:CB:4239, V-A:TYR:484:CB:4341"]

$$$$
4ah_Grossjean_2025
     RDKit          3D

 28 30  0  0  0  0  0  0  0  0999 V2000
  133.0530  126.6830   74.4770 C   0  0  0  0  0  0  0  0  0  0  0  0
  131.6430  126.8620   74.5550 O   0  0  0  0  0  0  0  0  0  0  0  0
  130.8270  126.2340   73.6290 C   0  0  0  0  0  0  0  0  0  0  0  0
  129.9310  126.9120   72.7880 C   0  0  0  0  0  0  0  0  0  0  0  0
  129.1370  126.2130   71.8790 C   0  0  0  0  0  0  0  0  0  0  0  0
  128.2030  126.9700   70.9400 C   0  0  0  0  0  0  0  0  0  0  0  0
  128.3920  126.6330   69.5300 N   0  0  0  0  0  0  0  0  0  0  0  0
  129.1510  127.3260   68.6550 C   0  0  0  0  0  0  0  0  0  0  0  0
  129.7430  128.3620   68.9650 O   0  0  0  0  0  0  0  0  0  0  0  0
  129.2000  126.8010   67.2910 C   0  0  0  0  0  0  0  0  0  0  0  0
  128.8420  127.8550   65.9220 S   0  0  0  0  0  0  0  0  0  0  0  0
  129.0630  126.5370   64.7930 C   0  0  0  0  0  0  0  0  0  0  0  0
  128.9250  126.7030   63.4780 N   0  0  0  0  0  0  0  0  0  0  0  0
  129.1250  125.6030   62.7140 C   0  0  0  0  0  0  0  0  0  0  0  0
  128.9590  125.8130   61.2200 C   0  0  0  0  0  0  0  0  0  0  0  0
  129.4570  124.3520   63.2290 C   0  0  0  0  0  0  0  0  0  0  0  0
  129.6000  124.1780   64.6100 C   0  0  0  0  0  0  0  0  0  0  0  0
  129.9630  122.7940   65.1250 C   0  0  0  0  0  0  0  0  0  0  0  0
  129.3960  125.3110   65.4450 C   0  0  0  0  0  0  0  0  0  0  0  0
  129.4550  125.4880   66.8710 C   0  0  0  0  0  0  0  0  0  0  0  0
  129.7460  124.4560   67.7270 N   0  0  0  0  0  0  0  0  0  0  0  0
  129.2550  124.8260   71.7860 C   0  0  0  0  0  0  0  0  0  0  0  0
  130.1390  124.1210   72.6180 C   0  0  0  0  0  0  0  0  0  0  0  0
  130.2960  122.7470   72.5900 O   0  0  0  0  0  0  0  0  0  0  0  0
  131.6070  122.1940   72.6290 C   0  0  0  0  0  0  0  0  0  0  0  0
  130.9150  124.8370   73.5410 C   0  0  0  0  0  0  0  0  0  0  0  0
  131.7980  124.1620   74.3490 O   0  0  0  0  0  0  0  0  0  0  0  0
  131.3120  123.9230   75.6630 C   0  0  0  0  0  0  0  0  0  0  0  0
  1  2  1  0
  2  3  1  0
  3  4  2  0
  4  5  1  0
  5  6  1  0
  6  7  1  0
  7  8  1  0
  8  9  2  0
  8 10  1  0
 10 11  1  0
 11 12  1  0
 12 13  2  0
 13 14  1  0
 14 15  1  0
 14 16  2  0
 16 17  1  0
 17 18  1  0
 17 19  2  0
 19 20  1  0
 20 21  1  0
  5 22  2  0
 22 23  1  0
 23 24  1  0
 24 25  1  0
 23 26  2  0
 26 27  1  0
 27 28  1  0
 26  3  1  0
 20 10  2  0
 19 12  1  0
M  END
>  <Binding energies>  (44) 
[-6.99]

>  <Ligand effiencies>  (44) 
[-0.22548387096774195]

>  <Interactions>  (44) 
["H-B:HIS:456:NE2:9041, V-A:HIS:456:CD2:4068, V-B:GLU:543:CD:9880, H-B:LYS:547:NZ:9923, V-B:GLU:543:C:9874, H-A:LYS:547:NZ:4951, V-B:GLU:543:CB:9878, V-A:HIS:456:CE1:4069, H-A:HIS:456:NE2:4070, V-B:HIS:456:CE1:9040, V-B:GLU:543:CG:9879, V-A:GLU:543:CD:4908, V-B:ALA:541:CB:9864, V-B:GLU:543:CA:9876, V-A:TYR:484:CZ:4347, V-A:TYR:484:CE1:4345, H-A:TYR:484:OH:4348, V-A:HIS:456:CG:4066, V-A:TYR:484:CD2:4344, V-A:TYR:484:CE2:4346, V-A:HIS:456:CB:4065, V-A:TYR:484:CG:4342, V-A:LYS:547:CE:4950, H-B:GLY:544:O:9885, H-B:GLU:543:O:9875, V-A:ASP:473:CG:4240, V-A:LYS:547:CD:4949, H-A:HIS:456:ND1:4067, V-A:ASP:473:CB:4239, V-A:TYR:484:CB:4341"]

$$$$
4ai_Grossjean_2025
     RDKit          3D

 20 22  0  0  0  0  0  0  0  0999 V2000
  127.9000  130.2720   65.2140 C   0  0  0  0  0  0  0  0  0  0  0  0
  128.3080  128.9720   65.8820 C   0  0  0  0  0  0  0  0  0  0  0  0
  128.6080  127.8410   65.1260 C   0  0  0  0  0  0  0  0  0  0  0  0
  128.9880  126.6540   65.7630 C   0  0  0  0  0  0  0  0  0  0  0  0
  129.3070  125.4470   64.8940 C   0  0  0  0  0  0  0  0  0  0  0  0
  129.0540  126.6550   67.1820 C   0  0  0  0  0  0  0  0  0  0  0  0
  129.3990  125.6360   68.1370 C   0  0  0  0  0  0  0  0  0  0  0  0
  129.7510  124.3650   67.7570 N   0  0  0  0  0  0  0  0  0  0  0  0
  129.3490  126.0650   69.4730 C   0  0  0  0  0  0  0  0  0  0  0  0
  129.6260  125.2970   70.6880 C   0  0  0  0  0  0  0  0  0  0  0  0
  129.7620  125.8630   71.7740 O   0  0  0  0  0  0  0  0  0  0  0  0
  129.7000  123.9520   70.5200 N   0  0  0  0  0  0  0  0  0  0  0  0
  129.9390  122.9920   71.4950 C   0  0  0  0  0  0  0  0  0  0  0  0
  131.1210  122.9340   72.2340 C   0  0  0  0  0  0  0  0  0  0  0  0
  130.9650  121.8560   73.0750 C   0  0  0  0  0  0  0  0  0  0  0  0
  129.7520  121.2950   72.8560 O   0  0  0  0  0  0  0  0  0  0  0  0
  129.1100  122.0240   71.8530 N   0  0  0  0  0  0  0  0  0  0  0  0
  128.8420  127.7530   69.5810 S   0  0  0  0  0  0  0  0  0  0  0  0
  128.7220  127.8780   67.8390 C   0  0  0  0  0  0  0  0  0  0  0  0
  128.3580  129.0100   67.2360 N   0  0  0  0  0  0  0  0  0  0  0  0
  1  2  1  0
  2  3  2  0
  3  4  1  0
  4  5  1  0
  4  6  2  0
  6  7  1  0
  7  8  1  0
  7  9  2  0
  9 10  1  0
 10 11  2  0
 10 12  1  0
 12 13  1  0
 13 14  1  0
 14 15  2  0
 15 16  1  0
 16 17  1  0
  9 18  1  0
 18 19  1  0
 19 20  2  0
 20  2  1  0
 19  6  1  0
 17 13  2  0
M  END
>  <Binding energies>  (45) 
[-7.66]

>  <Ligand effiencies>  (45) 
[-0.33304347826086955]

>  <Interactions>  (45) 
["V-A:HIS:456:CD2:4068, V-B:GLU:543:CD:9880, H-B:LYS:547:NZ:9923, V-B:GLU:543:C:9874, V-B:GLU:543:CB:9878, V-A:HIS:456:CE1:4069, H-A:HIS:456:NE2:4070, V-B:HIS:456:CE1:9040, V-B:GLU:543:CG:9879, V-A:GLU:543:CD:4908, V-B:GLU:543:CA:9876, V-A:TYR:484:CZ:4347, V-A:GLU:543:CB:4906, V-A:TYR:484:CE1:4345, H-A:TYR:484:OH:4348, V-A:HIS:456:CG:4066, V-A:TYR:484:CD2:4344, V-A:TYR:484:CE2:4346, V-A:TYR:484:CD1:4343, V-A:HIS:456:CB:4065, V-A:TYR:484:CG:4342, H-B:GLU:543:O:9875, V-A:ASP:473:CG:4240, H-A:HIS:456:ND1:4067, V-A:ASP:473:CB:4239, V-A:TYR:484:CB:4341"]

$$$$
4aj_Grossjean_2025
     RDKit          3D

 20 22  0  0  0  0  0  0  0  0999 V2000
  127.9010  130.2670   65.2270 C   0  0  0  0  0  0  0  0  0  0  0  0
  128.3180  128.9720   65.9000 C   0  0  0  0  0  0  0  0  0  0  0  0
  128.5990  127.8320   65.1510 C   0  0  0  0  0  0  0  0  0  0  0  0
  128.9770  126.6480   65.7930 C   0  0  0  0  0  0  0  0  0  0  0  0
  129.2730  125.4300   64.9300 C   0  0  0  0  0  0  0  0  0  0  0  0
  129.0600  126.6590   67.2110 C   0  0  0  0  0  0  0  0  0  0  0  0
  129.4070  125.6450   68.1700 C   0  0  0  0  0  0  0  0  0  0  0  0
  129.7430  124.3690   67.7970 N   0  0  0  0  0  0  0  0  0  0  0  0
  129.3720  126.0850   69.5020 C   0  0  0  0  0  0  0  0  0  0  0  0
  129.6540  125.3240   70.7210 C   0  0  0  0  0  0  0  0  0  0  0  0
  129.7140  125.8870   71.8160 O   0  0  0  0  0  0  0  0  0  0  0  0
  129.8240  123.9900   70.5480 N   0  0  0  0  0  0  0  0  0  0  0  0
  130.0880  123.0480   71.5330 C   0  0  0  0  0  0  0  0  0  0  0  0
  129.3470  122.0200   71.8860 N   0  0  0  0  0  0  0  0  0  0  0  0
  129.9090  121.3290   72.8590 C   0  0  0  0  0  0  0  0  0  0  0  0
  131.1370  121.7980   73.3180 C   0  0  0  0  0  0  0  0  0  0  0  0
  131.5690  123.2210   72.4170 S   0  0  0  0  0  0  0  0  0  0  0  0
  128.8890  127.7790   69.6020 S   0  0  0  0  0  0  0  0  0  0  0  0
  128.7490  127.8910   67.8620 C   0  0  0  0  0  0  0  0  0  0  0  0
  128.3880  129.0220   67.2530 N   0  0  0  0  0  0  0  0  0  0  0  0
  1  2  1  0
  2  3  2  0
  3  4  1  0
  4  5  1  0
  4  6  2  0
  6  7  1  0
  7  8  1  0
  7  9  2  0
  9 10  1  0
 10 11  2  0
 10 12  1  0
 12 13  1  0
 13 14  2  0
 14 15  1  0
 15 16  2  0
 16 17  1  0
  9 18  1  0
 18 19  1  0
 19 20  2  0
 20  2  1  0
 19  6  1  0
 17 13  1  0
M  END
>  <Binding energies>  (46) 
[-6.85]

>  <Ligand effiencies>  (46) 
[-0.29782608695652174]

>  <Interactions>  (46) 
["V-A:HIS:456:CD2:4068, V-B:GLU:543:CD:9880, H-B:LYS:547:NZ:9923, V-B:GLU:543:C:9874, V-B:GLU:543:CB:9878, V-A:HIS:456:CE1:4069, H-A:HIS:456:NE2:4070, V-B:HIS:456:CE1:9040, V-B:GLU:543:CG:9879, V-A:GLU:543:CD:4908, V-B:GLU:543:CA:9876, V-A:TYR:484:CZ:4347, V-A:GLU:543:CB:4906, V-A:TYR:484:CE1:4345, H-A:TYR:484:OH:4348, V-A:HIS:456:CG:4066, V-A:TYR:484:CD2:4344, V-A:TYR:484:CE2:4346, V-A:TYR:484:CD1:4343, V-A:HIS:456:CB:4065, V-A:TYR:484:CG:4342, H-B:GLU:543:O:9875, V-B:LYS:547:CE:9922, V-A:ASP:473:CG:4240, H-A:HIS:456:ND1:4067, V-A:ASP:473:CB:4239, V-A:TYR:484:CB:4341"]

$$$$
4ak_Grossjean_2025
     RDKit          3D

 25 26  0  0  0  0  0  0  0  0999 V2000
  133.9220  125.1320   65.8720 C   0  0  0  0  0  0  0  0  0  0  0  0
  134.2550  124.8610   64.5200 O   0  0  0  0  0  0  0  0  0  0  0  0
  133.1380  124.4720   63.7290 C   0  0  0  0  0  0  0  0  0  0  0  0
  131.9130  124.2830   64.6330 C   0  0  0  0  0  0  0  0  0  0  0  0
  130.7670  124.8300   63.9950 O   0  0  0  0  0  0  0  0  0  0  0  0
  129.9900  125.6730   64.8350 C   0  0  0  0  0  0  0  0  0  0  0  0
  130.3680  125.4180   66.2990 C   0  0  0  0  0  0  0  0  0  0  0  0
  129.1840  125.2840   67.0730 O   0  0  0  0  0  0  0  0  0  0  0  0
  128.1990  126.2690   66.7920 C   0  0  0  0  0  0  0  0  0  0  0  0
  127.5850  126.7660   68.1130 C   0  0  0  0  0  0  0  0  0  0  0  0
  128.3970  126.4570   69.2900 N   0  0  0  0  0  0  0  0  0  0  0  0
  128.0050  126.6100   70.5710 C   0  0  0  0  0  0  0  0  0  0  0  0
  126.8830  127.0180   70.8740 O   0  0  0  0  0  0  0  0  0  0  0  0
  128.9900  126.2550   71.5920 C   0  0  0  0  0  0  0  0  0  0  0  0
  129.5570  127.4670   72.7410 S   0  0  0  0  0  0  0  0  0  0  0  0
  130.5960  126.3010   73.5270 C   0  0  0  0  0  0  0  0  0  0  0  0
  131.3670  126.6290   74.5660 N   0  0  0  0  0  0  0  0  0  0  0  0
  132.1270  125.6320   75.0810 C   0  0  0  0  0  0  0  0  0  0  0  0
  132.9950  126.0260   76.2620 C   0  0  0  0  0  0  0  0  0  0  0  0
  132.1340  124.3290   74.5890 C   0  0  0  0  0  0  0  0  0  0  0  0
  131.3240  123.9870   73.4990 C   0  0  0  0  0  0  0  0  0  0  0  0
  131.3690  122.5530   72.9950 C   0  0  0  0  0  0  0  0  0  0  0  0
  130.5140  125.0060   72.9310 C   0  0  0  0  0  0  0  0  0  0  0  0
  129.5850  125.0070   71.8330 C   0  0  0  0  0  0  0  0  0  0  0  0
  129.3200  123.8810   71.0950 N   0  0  0  0  0  0  0  0  0  0  0  0
  1  2  1  0
  2  3  1  0
  3  4  1  0
  4  5  1  0
  5  6  1  0
  6  7  1  0
  7  8  1  0
  8  9  1  0
  9 10  1  0
 10 11  1  0
 11 12  1  0
 12 13  2  0
 12 14  1  0
 14 15  1  0
 15 16  1  0
 16 17  2  0
 17 18  1  0
 18 19  1  0
 18 20  2  0
 20 21  1  0
 21 22  1  0
 21 23  2  0
 23 24  1  0
 24 25  1  0
 24 14  2  0
 23 16  1  0
M  END
>  <Binding energies>  (47) 
[-5.83]

>  <Ligand effiencies>  (47) 
[-0.2082142857142857]

>  <Interactions>  (47) 
["H-B:HIS:456:NE2:9041, V-A:HIS:456:CD2:4068, V-B:GLU:543:CD:9880, V-B:GLU:543:C:9874, H-A:LYS:547:NZ:4951, V-B:GLU:543:CB:9878, V-A:HIS:456:CE1:4069, V-B:HIS:456:CE1:9040, V-B:GLU:543:CG:9879, V-A:TYR:484:CE1:4345, H-A:GLY:454:N:4050, V-A:ARG:545:CZ:4926, H-A:ARG:545:NH2:4928, H-A:ARG:545:NE:4924, V-A:ARG:545:CD:4923, V-A:ARG:545:CG:4922, V-B:GLY:544:C:9884, V-A:HIS:456:CG:4066, V-A:TYR:484:CD2:4344, V-A:TYR:484:CD1:4343, V-A:HIS:456:CB:4065, V-A:TYR:484:CG:4342, H-B:GLY:544:O:9885, H-B:GLU:543:O:9875, V-A:VAL:458:CG2:4087, V-A:LYS:547:CD:4949, V-A:ASP:473:CB:4239"]

$$$$
4al_Grossjean_2025
     RDKit          3D

 16 17  0  0  0  0  0  0  0  0999 V2000
  124.5920  131.6010   63.6620 C   0  0  0  0  0  0  0  0  0  0  0  0
  124.0820  130.3750   64.1650 O   0  0  0  0  0  0  0  0  0  0  0  0
  124.1300  130.0930   65.4920 C   0  0  0  0  0  0  0  0  0  0  0  0
  123.3060  130.5020   66.3140 O   0  0  0  0  0  0  0  0  0  0  0  0
  125.2790  129.2370   65.8590 C   0  0  0  0  0  0  0  0  0  0  0  0
  126.6190  129.0290   64.7280 S   0  0  0  0  0  0  0  0  0  0  0  0
  127.4530  127.9750   65.8470 C   0  0  0  0  0  0  0  0  0  0  0  0
  128.6360  127.4330   65.5550 N   0  0  0  0  0  0  0  0  0  0  0  0
  129.1760  126.6340   66.5090 C   0  0  0  0  0  0  0  0  0  0  0  0
  130.5220  126.0280   66.1570 C   0  0  0  0  0  0  0  0  0  0  0  0
  128.5670  126.3690   67.7330 C   0  0  0  0  0  0  0  0  0  0  0  0
  127.3260  126.9390   68.0360 C   0  0  0  0  0  0  0  0  0  0  0  0
  126.7000  126.6200   69.3840 C   0  0  0  0  0  0  0  0  0  0  0  0
  126.7290  127.7820   67.0600 C   0  0  0  0  0  0  0  0  0  0  0  0
  125.4930  128.5140   67.0380 C   0  0  0  0  0  0  0  0  0  0  0  0
  124.6070  128.4990   68.0850 N   0  0  0  0  0  0  0  0  0  0  0  0
  1  2  1  0
  2  3  1  0
  3  4  2  0
  3  5  1  0
  5  6  1  0
  6  7  1  0
  7  8  2  0
  8  9  1  0
  9 10  1  0
  9 11  2  0
 11 12  1  0
 12 13  1  0
 12 14  2  0
 14 15  1  0
 15 16  1  0
 15  5  2  0
 14  7  1  0
M  END
>  <Binding energies>  (48) 
[-5.19]

>  <Ligand effiencies>  (48) 
[-0.28833333333333333]

>  <Interactions>  (48) 
["V-B:ARG:545:CG:9894, V-B:GLU:543:CD:9880, V-B:GLU:543:C:9874, V-B:GLU:543:CB:9878, V-A:HIS:456:CE1:4069, V-B:ARG:545:CZ:9898, V-B:ARG:545:CD:9895, V-B:HIS:456:CE1:9040, V-A:GLU:543:CD:4908, H-B:GLY:454:N:9021, V-B:GLY:454:CA:9020, V-B:LEU:475:CD1:9229, H-B:ILE:455:N:9026, H-B:TYR:484:OH:9319, H-B:ARG:545:NH2:9900, H-B:HIS:456:ND1:9038, V-B:GLY:544:C:9884, V-B:ARG:545:CA:9891, V-B:ARG:545:CB:9893, H-B:ILE:455:O:9024"]

$$$$
4bc_Grossjean_2025
     RDKit          3D

 26 28  0  0  0  0  0  0  0  0999 V2000
  127.0520  126.9960   73.3490 C   0  0  0  0  0  0  0  0  0  0  0  0
  127.8930  125.8800   73.0800 O   0  0  0  0  0  0  0  0  0  0  0  0
  128.3850  125.7000   71.8010 C   0  0  0  0  0  0  0  0  0  0  0  0
  129.2900  124.6540   71.6240 C   0  0  0  0  0  0  0  0  0  0  0  0
  129.8390  124.3950   70.3710 C   0  0  0  0  0  0  0  0  0  0  0  0
  129.4810  125.1780   69.2720 C   0  0  0  0  0  0  0  0  0  0  0  0
  130.0980  124.8530   68.0500 N   0  0  0  0  0  0  0  0  0  0  0  0
  129.7630  125.2330   66.7930 C   0  0  0  0  0  0  0  0  0  0  0  0
  128.7860  125.9340   66.5240 O   0  0  0  0  0  0  0  0  0  0  0  0
  130.6470  124.7430   65.7310 C   0  0  0  0  0  0  0  0  0  0  0  0
  132.2480  125.4450   65.5160 S   0  0  0  0  0  0  0  0  0  0  0  0
  132.5830  124.3850   64.1670 C   0  0  0  0  0  0  0  0  0  0  0  0
  133.7450  124.4330   63.5170 N   0  0  0  0  0  0  0  0  0  0  0  0
  133.8870  123.5650   62.4890 C   0  0  0  0  0  0  0  0  0  0  0  0
  135.2190  123.6310   61.7660 C   0  0  0  0  0  0  0  0  0  0  0  0
  132.9030  122.6580   62.0990 C   0  0  0  0  0  0  0  0  0  0  0  0
  131.6770  122.6040   62.7810 C   0  0  0  0  0  0  0  0  0  0  0  0
  130.6250  121.5920   62.3130 C   0  0  0  0  0  0  0  0  0  0  0  0
  130.1250  120.8610   63.3110 F   0  0  0  0  0  0  0  0  0  0  0  0
  129.6080  122.2340   61.7380 F   0  0  0  0  0  0  0  0  0  0  0  0
  131.1680  120.7500   61.4340 F   0  0  0  0  0  0  0  0  0  0  0  0
  131.4960  123.5060   63.8710 C   0  0  0  0  0  0  0  0  0  0  0  0
  130.4030  123.7340   64.7860 C   0  0  0  0  0  0  0  0  0  0  0  0
  129.2320  123.0220   64.7310 N   0  0  0  0  0  0  0  0  0  0  0  0
  128.5810  126.2410   69.4450 C   0  0  0  0  0  0  0  0  0  0  0  0
  128.0350  126.4970   70.6990 C   0  0  0  0  0  0  0  0  0  0  0  0
  1  2  1  0
  2  3  1  0
  3  4  2  0
  4  5  1  0
  5  6  2  0
  6  7  1  0
  7  8  1  0
  8  9  2  0
  8 10  1  0
 10 11  1  0
 11 12  1  0
 12 13  2  0
 13 14  1  0
 14 15  1  0
 14 16  2  0
 16 17  1  0
 17 18  1  0
 18 19  1  0
 18 20  1  0
 18 21  1  0
 17 22  2  0
 22 23  1  0
 23 24  1  0
  6 25  1  0
 25 26  2  0
 26  3  1  0
 23 10  2  0
 22 12  1  0
M  END
>  <Binding energies>  (49) 
[-6.58]

>  <Ligand effiencies>  (49) 
[-0.22689655172413795]

>  <Interactions>  (49) 
["V-A:HIS:456:CD2:4068, H-B:LYS:547:NZ:9923, V-B:GLU:543:C:9874, V-B:GLU:543:CB:9878, V-A:HIS:456:CE1:4069, V-B:HIS:456:CE1:9040, V-B:GLU:543:CG:9879, V-B:ALA:541:CB:9864, V-B:GLU:543:CA:9876, V-A:TYR:484:CZ:4347, V-A:LEU:475:CD1:4258, V-A:TYR:484:CE1:4345, H-A:GLY:454:N:4050, V-A:GLY:453:CA:4044, H-A:ARG:545:NH2:4928, H-A:TYR:484:OH:4348, V-A:GLY:453:C:4042, V-A:GLY:454:CA:4049, V-A:ILE:369:CD1:3239, V-B:GLY:544:C:9884, V-A:LEU:475:CD2:4259, V-A:HIS:456:CG:4066, H-B:GLU:543:O:9875, H-A:HIS:456:ND1:4067"]

$$$$
4bf_Grossjean_2025
     RDKit          3D

 24 26  0  0  0  0  0  0  0  0999 V2000
  128.0700  130.0810   64.3720 C   0  0  0  0  0  0  0  0  0  0  0  0
  128.4390  128.8320   65.1520 C   0  0  0  0  0  0  0  0  0  0  0  0
  128.7780  127.6510   64.4970 C   0  0  0  0  0  0  0  0  0  0  0  0
  129.1140  126.5030   65.2300 C   0  0  0  0  0  0  0  0  0  0  0  0
  129.4770  125.2250   64.4660 C   0  0  0  0  0  0  0  0  0  0  0  0
  128.9990  125.2090   63.2190 F   0  0  0  0  0  0  0  0  0  0  0  0
  130.8030  125.1070   64.3860 F   0  0  0  0  0  0  0  0  0  0  0  0
  128.9770  124.1630   65.0980 F   0  0  0  0  0  0  0  0  0  0  0  0
  129.0910  126.6070   66.6530 C   0  0  0  0  0  0  0  0  0  0  0  0
  129.3670  125.6660   67.7110 C   0  0  0  0  0  0  0  0  0  0  0  0
  129.7440  124.3700   67.4670 N   0  0  0  0  0  0  0  0  0  0  0  0
  129.2190  126.1950   69.0040 C   0  0  0  0  0  0  0  0  0  0  0  0
  129.3870  125.5170   70.2930 C   0  0  0  0  0  0  0  0  0  0  0  0
  129.1950  126.1210   71.3490 O   0  0  0  0  0  0  0  0  0  0  0  0
  129.7450  124.2110   70.2200 N   0  0  0  0  0  0  0  0  0  0  0  0
  130.0300  123.3010   71.2550 C   0  0  0  0  0  0  0  0  0  0  0  0
  131.1980  123.2980   72.0380 C   0  0  0  0  0  0  0  0  0  0  0  0
  131.3640  122.3250   73.0270 C   0  0  0  0  0  0  0  0  0  0  0  0
  130.3570  121.3760   73.2060 C   0  0  0  0  0  0  0  0  0  0  0  0
  129.2250  121.3530   72.4590 N   0  0  0  0  0  0  0  0  0  0  0  0
  129.0780  122.3040   71.5020 C   0  0  0  0  0  0  0  0  0  0  0  0
  128.7260  127.8850   68.9470 S   0  0  0  0  0  0  0  0  0  0  0  0
  128.7260  127.8760   67.1990 C   0  0  0  0  0  0  0  0  0  0  0  0
  128.4090  128.9640   66.4990 N   0  0  0  0  0  0  0  0  0  0  0  0
  1  2  1  0
  2  3  2  0
  3  4  1  0
  4  5  1  0
  5  6  1  0
  5  7  1  0
  5  8  1  0
  4  9  2  0
  9 10  1  0
 10 11  1  0
 10 12  2  0
 12 13  1  0
 13 14  2  0
 13 15  1  0
 15 16  1  0
 16 17  2  0
 17 18  1  0
 18 19  2  0
 19 20  1  0
 20 21  2  0
 12 22  1  0
 22 23  1  0
 23 24  2  0
 24  2  1  0
 23  9  1  0
 21 16  1  0
M  END
>  <Binding energies>  (50) 
[-6.63]

>  <Ligand effiencies>  (50) 
[-0.24555555555555555]

>  <Interactions>  (50) 
["V-A:HIS:456:CD2:4068, V-B:GLU:543:CD:9880, H-B:LYS:547:NZ:9923, V-B:GLU:543:C:9874, V-B:GLU:543:CB:9878, V-A:HIS:456:CE1:4069, H-A:HIS:456:NE2:4070, V-B:HIS:456:CE1:9040, V-B:GLU:543:CG:9879, V-A:GLU:543:CD:4908, V-B:GLU:543:CA:9876, V-A:TYR:484:CZ:4347, V-A:GLU:543:CB:4906, V-A:TYR:484:CE1:4345, H-A:TYR:484:OH:4348, V-A:HIS:456:CG:4066, V-A:TYR:484:CD2:4344, V-A:TYR:484:CE2:4346, V-A:TYR:484:CD1:4343, V-A:HIS:456:CB:4065, V-A:TYR:484:CG:4342, H-B:GLU:543:O:9875, V-B:LYS:547:CE:9922, V-A:ASP:473:CG:4240, V-B:GLY:544:CA:9886, H-A:HIS:456:ND1:4067, V-A:ASP:473:CB:4239, V-A:TYR:484:CB:4341"]

$$$$
4bh_Grossjean_2025
     RDKit          3D

 31 33  0  0  0  0  0  0  0  0999 V2000
  133.0560  126.9280   74.3900 C   0  0  0  0  0  0  0  0  0  0  0  0
  131.6600  126.7530   74.6040 O   0  0  0  0  0  0  0  0  0  0  0  0
  130.9090  126.0740   73.6620 C   0  0  0  0  0  0  0  0  0  0  0  0
  129.8500  126.6480   72.9420 C   0  0  0  0  0  0  0  0  0  0  0  0
  129.1320  125.9010   72.0070 C   0  0  0  0  0  0  0  0  0  0  0  0
  128.0150  126.5540   71.2020 C   0  0  0  0  0  0  0  0  0  0  0  0
  128.2040  126.4560   69.7540 N   0  0  0  0  0  0  0  0  0  0  0  0
  129.0230  127.2360   69.0180 C   0  0  0  0  0  0  0  0  0  0  0  0
  129.6790  128.1570   69.5090 O   0  0  0  0  0  0  0  0  0  0  0  0
  129.0590  126.9560   67.5830 C   0  0  0  0  0  0  0  0  0  0  0  0
  128.5610  128.1910   66.4310 S   0  0  0  0  0  0  0  0  0  0  0  0
  128.8400  127.1100   65.0860 C   0  0  0  0  0  0  0  0  0  0  0  0
  128.6290  127.4970   63.8280 N   0  0  0  0  0  0  0  0  0  0  0  0
  128.8830  126.5730   62.8730 C   0  0  0  0  0  0  0  0  0  0  0  0
  128.6340  127.0340   61.4470 C   0  0  0  0  0  0  0  0  0  0  0  0
  129.3390  125.2850   63.1410 C   0  0  0  0  0  0  0  0  0  0  0  0
  129.5610  124.8710   64.4640 C   0  0  0  0  0  0  0  0  0  0  0  0
  130.0650  123.4460   64.7110 C   0  0  0  0  0  0  0  0  0  0  0  0
  129.9970  122.6710   63.6250 F   0  0  0  0  0  0  0  0  0  0  0  0
  131.3400  123.4790   65.0970 F   0  0  0  0  0  0  0  0  0  0  0  0
  129.3320  122.8660   65.6620 F   0  0  0  0  0  0  0  0  0  0  0  0
  129.3010  125.8210   65.4960 C   0  0  0  0  0  0  0  0  0  0  0  0
  129.4030  125.7600   66.9340 C   0  0  0  0  0  0  0  0  0  0  0  0
  129.8080  124.6340   67.6030 N   0  0  0  0  0  0  0  0  0  0  0  0
  129.4920  124.5740   71.7640 C   0  0  0  0  0  0  0  0  0  0  0  0
  130.5420  123.9720   72.4750 C   0  0  0  0  0  0  0  0  0  0  0  0
  130.9430  122.6600   72.2960 O   0  0  0  0  0  0  0  0  0  0  0  0
  130.8760  121.7550   73.3930 C   0  0  0  0  0  0  0  0  0  0  0  0
  131.2390  124.7320   73.4250 C   0  0  0  0  0  0  0  0  0  0  0  0
  132.2820  124.1590   74.1160 O   0  0  0  0  0  0  0  0  0  0  0  0
  132.0440  124.0200   75.5090 C   0  0  0  0  0  0  0  0  0  0  0  0
  1  2  1  0
  2  3  1  0
  3  4  2  0
  4  5  1  0
  5  6  1  0
  6  7  1  0
  7  8  1  0
  8  9  2  0
  8 10  1  0
 10 11  1  0
 11 12  1  0
 12 13  2  0
 13 14  1  0
 14 15  1  0
 14 16  2  0
 16 17  1  0
 17 18  1  0
 18 19  1  0
 18 20  1  0
 18 21  1  0
 17 22  2  0
 22 23  1  0
 23 24  1  0
  5 25  2  0
 25 26  1  0
 26 27  1  0
 27 28  1  0
 26 29  2  0
 29 30  1  0
 30 31  1  0
 29  3  1  0
 23 10  2  0
 22 12  1  0
M  END
>  <Binding energies>  (51) 
[-6.67]

>  <Ligand effiencies>  (51) 
[-0.19617647058823529]

>  <Interactions>  (51) 
["H-B:HIS:456:NE2:9041, V-A:HIS:456:CD2:4068, V-B:GLU:543:CD:9880, H-B:LYS:547:NZ:9923, V-B:GLU:543:C:9874, H-A:LYS:547:NZ:4951, V-B:GLU:543:CB:9878, V-A:HIS:456:CE1:4069, H-A:HIS:456:NE2:4070, V-B:HIS:456:CE1:9040, V-B:GLU:543:CG:9879, V-A:GLU:543:CD:4908, V-B:ALA:541:CB:9864, V-B:GLU:543:CA:9876, V-A:TYR:484:CZ:4347, V-A:GLU:543:CB:4906, V-A:TYR:484:CE1:4345, H-A:TYR:484:OH:4348, V-B:GLY:544:C:9884, V-A:HIS:456:CG:4066, V-A:TYR:484:CD2:4344, V-A:HIS:456:CB:4065, V-A:TYR:484:CG:4342, V-A:LYS:547:CE:4950, H-B:GLY:544:O:9885, H-B:GLU:543:O:9875, V-A:ASP:473:CG:4240, V-A:LYS:547:CD:4949, H-A:HIS:456:ND1:4067, V-A:ASP:473:CB:4239, V-A:TYR:484:CB:4341"]

$$$$
4bi_Grossjean_2025
     RDKit          3D

 23 25  0  0  0  0  0  0  0  0999 V2000
  127.8550  130.2130   65.0810 C   0  0  0  0  0  0  0  0  0  0  0  0
  128.2830  128.9290   65.7700 C   0  0  0  0  0  0  0  0  0  0  0  0
  128.6750  127.8160   65.0320 C   0  0  0  0  0  0  0  0  0  0  0  0
  129.0730  126.6360   65.6830 C   0  0  0  0  0  0  0  0  0  0  0  0
  129.5040  125.4390   64.8290 C   0  0  0  0  0  0  0  0  0  0  0  0
  130.8290  125.2910   64.7680 F   0  0  0  0  0  0  0  0  0  0  0  0
  129.0010  124.3150   65.3400 F   0  0  0  0  0  0  0  0  0  0  0  0
  129.0610  125.5920   63.5810 F   0  0  0  0  0  0  0  0  0  0  0  0
  129.0490  126.6380   67.1100 C   0  0  0  0  0  0  0  0  0  0  0  0
  129.3750  125.6400   68.0980 C   0  0  0  0  0  0  0  0  0  0  0  0
  129.8020  124.3790   67.7660 N   0  0  0  0  0  0  0  0  0  0  0  0
  129.2230  126.0740   69.4250 C   0  0  0  0  0  0  0  0  0  0  0  0
  129.4500  125.3240   70.6640 C   0  0  0  0  0  0  0  0  0  0  0  0
  129.3970  125.8870   71.7590 O   0  0  0  0  0  0  0  0  0  0  0  0
  129.6960  123.9990   70.5060 N   0  0  0  0  0  0  0  0  0  0  0  0
  129.9320  123.0580   71.4990 C   0  0  0  0  0  0  0  0  0  0  0  0
  131.1060  123.0210   72.2490 C   0  0  0  0  0  0  0  0  0  0  0  0
  130.9480  121.9590   73.1110 C   0  0  0  0  0  0  0  0  0  0  0  0
  129.7400  121.3880   72.8910 O   0  0  0  0  0  0  0  0  0  0  0  0
  129.1050  122.0930   71.8670 N   0  0  0  0  0  0  0  0  0  0  0  0
  128.6430  127.7370   69.4890 S   0  0  0  0  0  0  0  0  0  0  0  0
  128.6260  127.8460   67.7450 C   0  0  0  0  0  0  0  0  0  0  0  0
  128.2520  128.9640   67.1220 N   0  0  0  0  0  0  0  0  0  0  0  0
  1  2  1  0
  2  3  2  0
  3  4  1  0
  4  5  1  0
  5  6  1  0
  5  7  1  0
  5  8  1  0
  4  9  2  0
  9 10  1  0
 10 11  1  0
 10 12  2  0
 12 13  1  0
 13 14  2  0
 13 15  1  0
 15 16  1  0
 16 17  1  0
 17 18  2  0
 18 19  1  0
 19 20  1  0
 12 21  1  0
 21 22  1  0
 22 23  2  0
 23  2  1  0
 22  9  1  0
 20 16  2  0
M  END
>  <Binding energies>  (52) 
[-7.4]

>  <Ligand effiencies>  (52) 
[-0.2846153846153846]

>  <Interactions>  (52) 
["V-A:HIS:456:CD2:4068, V-B:GLU:543:CD:9880, H-B:LYS:547:NZ:9923, V-B:GLU:543:C:9874, V-B:GLU:543:CB:9878, V-A:HIS:456:CE1:4069, H-A:HIS:456:NE2:4070, V-B:HIS:456:CE1:9040, V-B:GLU:543:CG:9879, V-A:GLU:543:CD:4908, V-B:GLU:543:CA:9876, V-A:TYR:484:CZ:4347, V-A:GLU:543:CB:4906, V-A:TYR:484:CE1:4345, H-A:TYR:484:OH:4348, V-A:HIS:456:CG:4066, V-A:TYR:484:CD2:4344, V-A:TYR:484:CE2:4346, V-A:TYR:484:CD1:4343, V-A:HIS:456:CB:4065, V-A:TYR:484:CG:4342, H-B:GLU:543:O:9875, V-A:ASP:473:CG:4240, H-A:HIS:456:ND1:4067, V-A:ASP:473:CB:4239, V-A:TYR:484:CB:4341"]

$$$$
4bj_Grossjean_2025
     RDKit          3D

 23 25  0  0  0  0  0  0  0  0999 V2000
  127.7800  130.2220   65.1930 C   0  0  0  0  0  0  0  0  0  0  0  0
  128.2330  128.9370   65.8620 C   0  0  0  0  0  0  0  0  0  0  0  0
  128.5950  127.8240   65.1060 C   0  0  0  0  0  0  0  0  0  0  0  0
  129.0060  126.6400   65.7370 C   0  0  0  0  0  0  0  0  0  0  0  0
  129.3920  125.4410   64.8640 C   0  0  0  0  0  0  0  0  0  0  0  0
  128.9740  124.2760   65.3620 F   0  0  0  0  0  0  0  0  0  0  0  0
  128.8540  125.5740   63.6520 F   0  0  0  0  0  0  0  0  0  0  0  0
  130.7190  125.3740   64.7520 F   0  0  0  0  0  0  0  0  0  0  0  0
  129.0360  126.6370   67.1640 C   0  0  0  0  0  0  0  0  0  0  0  0
  129.3890  125.6320   68.1370 C   0  0  0  0  0  0  0  0  0  0  0  0
  129.7960  124.3700   67.7840 N   0  0  0  0  0  0  0  0  0  0  0  0
  129.2860  126.0620   69.4690 C   0  0  0  0  0  0  0  0  0  0  0  0
  129.5540  125.3060   70.6950 C   0  0  0  0  0  0  0  0  0  0  0  0
  129.5660  125.8680   71.7930 O   0  0  0  0  0  0  0  0  0  0  0  0
  129.7660  123.9780   70.5270 N   0  0  0  0  0  0  0  0  0  0  0  0
  130.0280  123.0430   71.5180 C   0  0  0  0  0  0  0  0  0  0  0  0
  129.3000  122.0030   71.8620 N   0  0  0  0  0  0  0  0  0  0  0  0
  129.8560  121.3240   72.8450 C   0  0  0  0  0  0  0  0  0  0  0  0
  131.0670  121.8140   73.3230 C   0  0  0  0  0  0  0  0  0  0  0  0
  131.4900  123.2450   72.4310 S   0  0  0  0  0  0  0  0  0  0  0  0
  128.7230  127.7290   69.5600 S   0  0  0  0  0  0  0  0  0  0  0  0
  128.6440  127.8450   67.8180 C   0  0  0  0  0  0  0  0  0  0  0  0
  128.2520  128.9670   67.2140 N   0  0  0  0  0  0  0  0  0  0  0  0
  1  2  1  0
  2  3  2  0
  3  4  1  0
  4  5  1  0
  5  6  1  0
  5  7  1  0
  5  8  1  0
  4  9  2  0
  9 10  1  0
 10 11  1  0
 10 12  2  0
 12 13  1  0
 13 14  2  0
 13 15  1  0
 15 16  1  0
 16 17  2  0
 17 18  1  0
 18 19  2  0
 19 20  1  0
 12 21  1  0
 21 22  1  0
 22 23  2  0
 23  2  1  0
 22  9  1  0
 20 16  1  0
M  END
>  <Binding energies>  (53) 
[-6.53]

>  <Ligand effiencies>  (53) 
[-0.25115384615384617]

>  <Interactions>  (53) 
["V-A:HIS:456:CD2:4068, V-B:GLU:543:CD:9880, H-B:LYS:547:NZ:9923, V-B:GLU:543:C:9874, V-B:GLU:543:CB:9878, V-A:HIS:456:CE1:4069, H-A:HIS:456:NE2:4070, V-B:HIS:456:CE1:9040, V-B:GLU:543:CG:9879, V-A:GLU:543:CD:4908, V-B:GLU:543:CA:9876, V-A:TYR:484:CZ:4347, V-A:GLU:543:CB:4906, V-A:TYR:484:CE1:4345, H-A:TYR:484:OH:4348, V-A:HIS:456:CG:4066, V-A:TYR:484:CD2:4344, V-A:TYR:484:CE2:4346, V-A:TYR:484:CD1:4343, V-A:HIS:456:CB:4065, V-A:TYR:484:CG:4342, H-B:GLU:543:O:9875, V-B:LYS:547:CE:9922, V-A:ASP:473:CG:4240, H-A:HIS:456:ND1:4067, V-A:ASP:473:CB:4239, V-A:TYR:484:CB:4341"]

$$$$
4bk_Grossjean_2025
     RDKit          3D

 28 29  0  0  0  0  0  0  0  0999 V2000
  126.4730  119.4940   70.3870 C   0  0  0  0  0  0  0  0  0  0  0  0
  127.6300  119.5160   71.2090 O   0  0  0  0  0  0  0  0  0  0  0  0
  127.3390  119.4300   72.5980 C   0  0  0  0  0  0  0  0  0  0  0  0
  128.5950  119.7780   73.4070 C   0  0  0  0  0  0  0  0  0  0  0  0
  129.1480  120.9930   72.9210 O   0  0  0  0  0  0  0  0  0  0  0  0
  130.4670  121.2490   73.3840 C   0  0  0  0  0  0  0  0  0  0  0  0
  131.0280  122.4840   72.6680 C   0  0  0  0  0  0  0  0  0  0  0  0
  129.9570  123.2230   72.0960 O   0  0  0  0  0  0  0  0  0  0  0  0
  130.1450  124.6320   72.1370 C   0  0  0  0  0  0  0  0  0  0  0  0
  128.8590  125.3310   71.6630 C   0  0  0  0  0  0  0  0  0  0  0  0
  128.8300  125.5960   70.2230 N   0  0  0  0  0  0  0  0  0  0  0  0
  129.0750  126.7900   69.6450 C   0  0  0  0  0  0  0  0  0  0  0  0
  129.3720  127.7920   70.2990 O   0  0  0  0  0  0  0  0  0  0  0  0
  128.9760  126.8320   68.1860 C   0  0  0  0  0  0  0  0  0  0  0  0
  128.3710  128.2780   67.3810 S   0  0  0  0  0  0  0  0  0  0  0  0
  128.5950  127.5500   65.8090 C   0  0  0  0  0  0  0  0  0  0  0  0
  128.2880  128.2040   64.6890 N   0  0  0  0  0  0  0  0  0  0  0  0
  128.5070  127.5380   63.5320 C   0  0  0  0  0  0  0  0  0  0  0  0
  128.1520  128.3030   62.2700 C   0  0  0  0  0  0  0  0  0  0  0  0
  129.0200  126.2450   63.4680 C   0  0  0  0  0  0  0  0  0  0  0  0
  129.3440  125.5490   64.6440 C   0  0  0  0  0  0  0  0  0  0  0  0
  129.9030  124.1280   64.5230 C   0  0  0  0  0  0  0  0  0  0  0  0
  129.8240  123.6390   63.2830 F   0  0  0  0  0  0  0  0  0  0  0  0
  131.1880  124.1160   64.8770 F   0  0  0  0  0  0  0  0  0  0  0  0
  129.2210  123.3060   65.3190 F   0  0  0  0  0  0  0  0  0  0  0  0
  129.1270  126.2240   65.8820 C   0  0  0  0  0  0  0  0  0  0  0  0
  129.3380  125.8450   67.2570 C   0  0  0  0  0  0  0  0  0  0  0  0
  129.8450  124.6230   67.6200 N   0  0  0  0  0  0  0  0  0  0  0  0
  1  2  1  0
  2  3  1  0
  3  4  1  0
  4  5  1  0
  5  6  1  0
  6  7  1  0
  7  8  1  0
  8  9  1  0
  9 10  1  0
 10 11  1  0
 11 12  1  0
 12 13  2  0
 12 14  1  0
 14 15  1  0
 15 16  1  0
 16 17  2  0
 17 18  1  0
 18 19  1  0
 18 20  2  0
 20 21  1  0
 21 22  1  0
 22 23  1  0
 22 24  1  0
 22 25  1  0
 21 26  2  0
 26 27  1  0
 27 28  1  0
 27 14  2  0
 26 16  1  0
M  END
>  <Binding energies>  (54) 
[-6.41]

>  <Ligand effiencies>  (54) 
[-0.2067741935483871]

>  <Interactions>  (54) 
["H-B:HIS:456:NE2:9041, V-A:HIS:456:CD2:4068, V-B:GLU:543:CD:9880, H-B:LYS:547:NZ:9923, V-B:GLU:543:C:9874, V-B:GLU:543:CB:9878, V-A:HIS:456:CE1:4069, H-A:HIS:456:NE2:4070, V-B:HIS:456:CE1:9040, V-B:GLU:543:CG:9879, V-A:GLU:543:CD:4908, V-B:ALA:541:CB:9864, V-B:GLU:543:CA:9876, V-A:TYR:484:CZ:4347, V-A:TYR:484:CE1:4345, H-A:TYR:484:OH:4348, V-A:HIS:456:CG:4066, V-A:TYR:484:CD2:4344, V-A:TYR:484:CE2:4346, V-A:TYR:484:CG:4342, H-B:GLU:543:O:9875, V-B:LYS:547:CE:9922, V-A:ASP:473:CG:4240, V-B:GLY:544:CA:9886, H-A:HIS:456:ND1:4067, V-A:ASP:473:CB:4239, V-A:TYR:484:CB:4341, V-B:VAL:542:CG1:9871, V-B:VAL:542:C:9866, H-A:TYR:484:N:4340, H-A:SER:483:OG:4334"]

$$$$
4cd_Grossjean_2025
     RDKit          3D

 29 32  0  0  0  0  0  0  0  0999 V2000
  129.6820  124.2260   66.9710 N   0  0  0  0  0  0  0  0  0  0  0  0
  129.4580  124.9240   65.8110 C   0  0  0  0  0  0  0  0  0  0  0  0
  129.7380  124.4070   64.5360 C   0  0  0  0  0  0  0  0  0  0  0  0
  130.3110  123.1040   64.1830 C   0  0  0  0  0  0  0  0  0  0  0  0
  130.7020  122.3330   65.0600 O   0  0  0  0  0  0  0  0  0  0  0  0
  130.3610  122.8310   62.8570 N   0  0  0  0  0  0  0  0  0  0  0  0
  130.8890  121.7100   62.1910 C   0  0  0  0  0  0  0  0  0  0  0  0
  132.2680  121.7270   61.9630 C   0  0  0  0  0  0  0  0  0  0  0  0
  132.8880  120.6570   61.3240 C   0  0  0  0  0  0  0  0  0  0  0  0
  132.1290  119.5630   60.9180 C   0  0  0  0  0  0  0  0  0  0  0  0
  130.7560  119.5270   61.1500 C   0  0  0  0  0  0  0  0  0  0  0  0
  130.1330  120.5960   61.7890 C   0  0  0  0  0  0  0  0  0  0  0  0
  129.3200  125.5650   63.2750 S   0  0  0  0  0  0  0  0  0  0  0  0
  128.7840  126.7310   64.4600 C   0  0  0  0  0  0  0  0  0  0  0  0
  128.3150  127.9230   64.0990 N   0  0  0  0  0  0  0  0  0  0  0  0
  127.9350  128.7680   65.0930 C   0  0  0  0  0  0  0  0  0  0  0  0
  127.4120  130.1060   64.6560 C   0  0  0  0  0  0  0  0  0  0  0  0
  126.1070  130.2370   64.1520 C   0  0  0  0  0  0  0  0  0  0  0  0
  125.6160  131.4750   63.7450 C   0  0  0  0  0  0  0  0  0  0  0  0
  126.4250  132.6020   63.8370 C   0  0  0  0  0  0  0  0  0  0  0  0
  127.7190  132.5000   64.3350 C   0  0  0  0  0  0  0  0  0  0  0  0
  128.2060  131.2620   64.7420 C   0  0  0  0  0  0  0  0  0  0  0  0
  128.0100  128.4050   66.4410 C   0  0  0  0  0  0  0  0  0  0  0  0
  128.5000  127.1490   66.8320 C   0  0  0  0  0  0  0  0  0  0  0  0
  128.5590  126.8170   68.3280 C   0  0  0  0  0  0  0  0  0  0  0  0
  129.6100  126.0620   68.6570 F   0  0  0  0  0  0  0  0  0  0  0  0
  128.6390  127.9430   69.0370 F   0  0  0  0  0  0  0  0  0  0  0  0
  127.4620  126.1500   68.6850 F   0  0  0  0  0  0  0  0  0  0  0  0
  128.9130  126.2600   65.8000 C   0  0  0  0  0  0  0  0  0  0  0  0
  1  2  1  0
  2  3  2  0
  3  4  1  0
  4  5  2  0
  4  6  1  0
  6  7  1  0
  7  8  2  0
  8  9  1  0
  9 10  2  0
 10 11  1  0
 11 12  2  0
  3 13  1  0
 13 14  1  0
 14 15  2  0
 15 16  1  0
 16 17  1  0
 17 18  2  0
 18 19  1  0
 19 20  2  0
 20 21  1  0
 21 22  2  0
 16 23  2  0
 23 24  1  0
 24 25  1  0
 25 26  1  0
 25 27  1  0
 25 28  1  0
 24 29  2  0
 29  2  1  0
 12  7  1  0
 29 14  1  0
 22 17  1  0
M  END
>  <Binding energies>  (55) 
[-7.07]

>  <Ligand effiencies>  (55) 
[-0.2209375]

>  <Interactions>  (55) 
["V-A:HIS:456:CD2:4068, V-B:GLU:543:CD:9880, V-B:GLU:543:C:9874, V-B:GLU:543:CB:9878, V-A:HIS:456:CE1:4069, V-B:HIS:456:CE1:9040, V-B:GLU:543:CG:9879, V-A:GLU:543:CD:4908, V-B:LEU:475:CD1:9229, V-A:ALA:541:CB:4892, V-B:ALA:541:CB:9864, V-B:GLU:543:CA:9876, V-A:TYR:484:CZ:4347, V-A:LEU:475:CD1:4258, V-A:GLU:543:CB:4906, V-A:TYR:484:CE1:4345, H-A:TYR:484:OH:4348, V-B:TYR:539:CD2:9846, V-A:PRO:482:CG:4327, V-A:TRP:381:CZ2:3370, V-A:TRP:381:CH2:3372, V-A:PRO:482:CB:4326, V-B:GLY:544:C:9884, V-B:LEU:475:CG:9228, H-B:GLU:543:O:9875"]

$$$$
4cg_Grossjean_2025
     RDKit          3D

 30 33  0  0  0  0  0  0  0  0999 V2000
  125.6360  126.1410   59.3380 N   0  0  0  0  0  0  0  0  0  0  0  0
  126.6990  125.8710   60.1610 C   0  0  0  0  0  0  0  0  0  0  0  0
  127.1830  126.7810   61.1120 C   0  0  0  0  0  0  0  0  0  0  0  0
  126.6690  128.1070   61.4510 C   0  0  0  0  0  0  0  0  0  0  0  0
  126.3520  128.9160   60.5760 O   0  0  0  0  0  0  0  0  0  0  0  0
  126.6030  128.3980   62.7670 N   0  0  0  0  0  0  0  0  0  0  0  0
  126.1030  129.6490   63.3340 C   0  0  0  0  0  0  0  0  0  0  0  0
  125.4470  129.4760   64.7000 C   0  0  0  0  0  0  0  0  0  0  0  0
  126.1470  128.8430   65.7310 C   0  0  0  0  0  0  0  0  0  0  0  0
  125.5640  128.7110   66.9880 C   0  0  0  0  0  0  0  0  0  0  0  0
  124.2870  129.2210   67.2130 C   0  0  0  0  0  0  0  0  0  0  0  0
  123.5910  129.8680   66.1950 C   0  0  0  0  0  0  0  0  0  0  0  0
  124.1740  130.0020   64.9380 C   0  0  0  0  0  0  0  0  0  0  0  0
  128.5400  126.1080   62.0110 S   0  0  0  0  0  0  0  0  0  0  0  0
  128.4650  124.6230   61.0930 C   0  0  0  0  0  0  0  0  0  0  0  0
  129.3120  123.6230   61.3200 N   0  0  0  0  0  0  0  0  0  0  0  0
  129.1750  122.5050   60.5600 C   0  0  0  0  0  0  0  0  0  0  0  0
  130.1480  121.3950   60.8390 C   0  0  0  0  0  0  0  0  0  0  0  0
  131.5330  121.6310   60.8290 C   0  0  0  0  0  0  0  0  0  0  0  0
  132.4390  120.6060   61.0860 C   0  0  0  0  0  0  0  0  0  0  0  0
  131.9710  119.3230   61.3560 C   0  0  0  0  0  0  0  0  0  0  0  0
  130.6060  119.0610   61.3700 C   0  0  0  0  0  0  0  0  0  0  0  0
  129.7040  120.0890   61.1120 C   0  0  0  0  0  0  0  0  0  0  0  0
  128.1980  122.4060   59.5620 C   0  0  0  0  0  0  0  0  0  0  0  0
  127.2990  123.4550   59.3140 C   0  0  0  0  0  0  0  0  0  0  0  0
  126.2540  123.2800   58.2060 C   0  0  0  0  0  0  0  0  0  0  0  0
  126.2660  124.2730   57.3140 F   0  0  0  0  0  0  0  0  0  0  0  0
  126.4840  122.1460   57.5450 F   0  0  0  0  0  0  0  0  0  0  0  0
  125.0350  123.2390   58.7400 F   0  0  0  0  0  0  0  0  0  0  0  0
  127.4260  124.6260   60.1160 C   0  0  0  0  0  0  0  0  0  0  0  0
  1  2  1  0
  2  3  2  0
  3  4  1  0
  4  5  2  0
  4  6  1  0
  6  7  1  0
  7  8  1  0
  8  9  2  0
  9 10  1  0
 10 11  2  0
 11 12  1  0
 12 13  2  0
  3 14  1  0
 14 15  1  0
 15 16  2  0
 16 17  1  0
 17 18  1  0
 18 19  2  0
 19 20  1  0
 20 21  2  0
 21 22  1  0
 22 23  2  0
 17 24  2  0
 24 25  1  0
 25 26  1  0
 26 27  1  0
 26 28  1  0
 26 29  1  0
 25 30  2  0
 30  2  1  0
 13  8  1  0
 30 15  1  0
 23 18  1  0
M  END
>  <Binding energies>  (56) 
[-7.21]

>  <Ligand effiencies>  (56) 
[-0.21848484848484848]

>  <Interactions>  (56) 
["V-B:ARG:545:CG:9894, V-B:GLU:543:CD:9880, V-B:ARG:545:CZ:9898, V-B:ARG:545:CD:9895, V-B:HIS:456:CE1:9040, V-B:ILE:455:C:9023, H-B:ASP:366:OD1:8185, V-B:GLY:454:CA:9020, V-B:ASP:366:CG:8184, V-B:ALA:541:CB:9864, V-A:LEU:475:CD1:4258, V-B:TYR:539:CE2:9848, V-B:PRO:540:CA:9855, V-B:TYR:539:CD2:9846, V-A:PRO:482:CG:4327, V-A:TRP:381:CZ2:3370, V-B:PRO:540:CB:9857, V-A:TRP:381:CH2:3372, V-A:PRO:482:CB:4326, V-B:PRO:540:N:9856, V-B:TYR:539:C:9839, H-B:GLU:543:OE1:9881, H-B:GLU:543:OE2:9882, V-B:ARG:545:CB:9893, V-B:LEU:363:CD1:8160, V-B:PRO:540:CD:9859, V-B:TYR:539:CA:9841"]

$$$$
4ch_Grossjean_2025
     RDKit          3D

 36 39  0  0  0  0  0  0  0  0999 V2000
  130.1340  130.1040   72.2470 C   0  0  0  0  0  0  0  0  0  0  0  0
  129.7130  128.9830   73.0160 O   0  0  0  0  0  0  0  0  0  0  0  0
  129.4210  127.7920   72.3760 C   0  0  0  0  0  0  0  0  0  0  0  0
  128.5750  127.6900   71.2600 C   0  0  0  0  0  0  0  0  0  0  0  0
  128.3260  126.4530   70.6620 C   0  0  0  0  0  0  0  0  0  0  0  0
  127.3830  126.3580   69.4680 C   0  0  0  0  0  0  0  0  0  0  0  0
  128.0180  125.8850   68.2370 N   0  0  0  0  0  0  0  0  0  0  0  0
  128.6580  126.6600   67.3370 C   0  0  0  0  0  0  0  0  0  0  0  0
  128.7940  127.8760   67.4870 O   0  0  0  0  0  0  0  0  0  0  0  0
  129.2200  125.9660   66.1770 C   0  0  0  0  0  0  0  0  0  0  0  0
  129.5350  124.2350   66.2520 S   0  0  0  0  0  0  0  0  0  0  0  0
  130.1100  124.2240   64.6030 C   0  0  0  0  0  0  0  0  0  0  0  0
  130.5390  123.1060   64.0240 N   0  0  0  0  0  0  0  0  0  0  0  0
  130.9620  123.1940   62.7360 C   0  0  0  0  0  0  0  0  0  0  0  0
  131.4470  121.9160   62.1140 C   0  0  0  0  0  0  0  0  0  0  0  0
  130.5520  120.8710   61.8300 C   0  0  0  0  0  0  0  0  0  0  0  0
  130.9950  119.6820   61.2540 C   0  0  0  0  0  0  0  0  0  0  0  0
  132.3430  119.5210   60.9550 C   0  0  0  0  0  0  0  0  0  0  0  0
  133.2510  120.5380   61.2290 C   0  0  0  0  0  0  0  0  0  0  0  0
  132.8040  121.7240   61.8070 C   0  0  0  0  0  0  0  0  0  0  0  0
  130.9680  124.4080   62.0420 C   0  0  0  0  0  0  0  0  0  0  0  0
  130.5180  125.5950   62.6430 C   0  0  0  0  0  0  0  0  0  0  0  0
  130.5500  126.8910   61.8250 C   0  0  0  0  0  0  0  0  0  0  0  0
  131.0880  126.7330   60.6130 F   0  0  0  0  0  0  0  0  0  0  0  0
  129.3110  127.3490   61.6540 F   0  0  0  0  0  0  0  0  0  0  0  0
  131.2740  127.8100   62.4640 F   0  0  0  0  0  0  0  0  0  0  0  0
  130.0600  125.5110   63.9890 C   0  0  0  0  0  0  0  0  0  0  0  0
  129.5350  126.4870   64.9130 C   0  0  0  0  0  0  0  0  0  0  0  0
  129.3680  127.8080   64.5830 N   0  0  0  0  0  0  0  0  0  0  0  0
  128.9110  125.3020   71.1910 C   0  0  0  0  0  0  0  0  0  0  0  0
  129.7600  125.3750   72.3080 C   0  0  0  0  0  0  0  0  0  0  0  0
  130.3740  124.2780   72.8830 O   0  0  0  0  0  0  0  0  0  0  0  0
  130.9130  123.2600   72.0460 C   0  0  0  0  0  0  0  0  0  0  0  0
  130.0110  126.6280   72.8870 C   0  0  0  0  0  0  0  0  0  0  0  0
  130.8270  126.7110   73.9890 O   0  0  0  0  0  0  0  0  0  0  0  0
  130.2600  126.1670   75.1720 C   0  0  0  0  0  0  0  0  0  0  0  0
  1  2  1  0
  2  3  1  0
  3  4  2  0
  4  5  1  0
  5  6  1  0
  6  7  1  0
  7  8  1  0
  8  9  2  0
  8 10  1  0
 10 11  1  0
 11 12  1  0
 12 13  2  0
 13 14  1  0
 14 15  1  0
 15 16  2  0
 16 17  1  0
 17 18  2  0
 18 19  1  0
 19 20  2  0
 14 21  2  0
 21 22  1  0
 22 23  1  0
 23 24  1  0
 23 25  1  0
 23 26  1  0
 22 27  2  0
 27 28  1  0
 28 29  1  0
  5 30  2  0
 30 31  1  0
 31 32  1  0
 32 33  1  0
 31 34  2  0
 34 35  1  0
 35 36  1  0
 34  3  1  0
 28 10  2  0
 27 12  1  0
 20 15  1  0
M  END
>  <Binding energies>  (57) 
[-6.99]

>  <Ligand effiencies>  (57) 
[-0.17923076923076925]

>  <Interactions>  (57) 
["H-B:HIS:456:NE2:9041, V-A:HIS:456:CD2:4068, H-B:LYS:547:NZ:9923, V-B:GLU:543:C:9874, H-A:LYS:547:NZ:4951, V-B:HIS:456:CD2:9039, V-B:GLU:543:CB:9878, H-A:GLU:543:OE1:4909, V-B:HIS:456:CE1:9040, V-B:GLU:543:CG:9879, H-A:GLU:543:OE2:4910, V-A:GLU:543:CD:4908, V-B:ALA:541:CB:9864, V-B:GLU:543:CA:9876, V-A:TYR:484:CZ:4347, V-A:LEU:475:CD1:4258, V-A:TYR:484:CE1:4345, V-A:GLU:543:C:4902, V-A:ARG:545:CZ:4926, V-A:ASP:366:CG:3213, V-A:ILE:369:CG2:3237, V-A:ILE:369:CD1:3239, V-B:TYR:539:CD2:9846, V-A:TRP:381:CZ2:3370, V-A:TRP:381:CH2:3372, V-A:PRO:482:CB:4326, V-B:GLY:544:C:9884, V-A:HIS:456:CG:4066, V-A:TYR:484:CD2:4344, V-A:TYR:484:CE2:4346, V-A:HIS:456:CB:4065, V-A:TYR:484:CG:4342, V-A:LYS:547:CE:4950, H-B:GLU:543:O:9875, V-A:GLY:544:CA:4914, V-A:GLY:544:C:4912"]

$$$$
4cj_Grossjean_2025
     RDKit          3D

 28 31  0  0  0  0  0  0  0  0999 V2000
  130.2860  124.7230   68.0850 N   0  0  0  0  0  0  0  0  0  0  0  0
  129.2760  125.6050   68.3730 C   0  0  0  0  0  0  0  0  0  0  0  0
  128.7410  125.7690   69.6610 C   0  0  0  0  0  0  0  0  0  0  0  0
  129.1210  125.0880   70.9010 C   0  0  0  0  0  0  0  0  0  0  0  0
  129.0310  125.6620   71.9890 O   0  0  0  0  0  0  0  0  0  0  0  0
  129.5750  123.8190   70.7530 N   0  0  0  0  0  0  0  0  0  0  0  0
  129.9960  122.9610   71.7600 C   0  0  0  0  0  0  0  0  0  0  0  0
  129.4610  121.8140   72.1200 N   0  0  0  0  0  0  0  0  0  0  0  0
  130.1230  121.2610   73.1160 C   0  0  0  0  0  0  0  0  0  0  0  0
  131.2280  121.9650   73.5870 C   0  0  0  0  0  0  0  0  0  0  0  0
  131.3990  123.4310   72.6670 S   0  0  0  0  0  0  0  0  0  0  0  0
  127.4710  126.9910   69.6730 S   0  0  0  0  0  0  0  0  0  0  0  0
  127.6630  127.2700   67.9580 C   0  0  0  0  0  0  0  0  0  0  0  0
  126.9220  128.1680   67.3140 N   0  0  0  0  0  0  0  0  0  0  0  0
  127.1470  128.3220   65.9840 C   0  0  0  0  0  0  0  0  0  0  0  0
  126.3020  129.3520   65.2900 C   0  0  0  0  0  0  0  0  0  0  0  0
  124.9140  129.3990   65.4960 C   0  0  0  0  0  0  0  0  0  0  0  0
  124.1240  130.3480   64.8510 C   0  0  0  0  0  0  0  0  0  0  0  0
  124.7140  131.2640   63.9860 C   0  0  0  0  0  0  0  0  0  0  0  0
  126.0860  131.2380   63.7640 C   0  0  0  0  0  0  0  0  0  0  0  0
  126.8720  130.2890   64.4110 C   0  0  0  0  0  0  0  0  0  0  0  0
  128.0990  127.5560   65.3030 C   0  0  0  0  0  0  0  0  0  0  0  0
  128.8850  126.6050   65.9720 C   0  0  0  0  0  0  0  0  0  0  0  0
  129.9130  125.8030   65.1650 C   0  0  0  0  0  0  0  0  0  0  0  0
  129.6070  124.5070   65.0680 F   0  0  0  0  0  0  0  0  0  0  0  0
  129.9890  126.2880   63.9260 F   0  0  0  0  0  0  0  0  0  0  0  0
  131.1100  125.8880   65.7450 F   0  0  0  0  0  0  0  0  0  0  0  0
  128.6700  126.4490   67.3710 C   0  0  0  0  0  0  0  0  0  0  0  0
  1  2  1  0
  2  3  2  0
  3  4  1  0
  4  5  2  0
  4  6  1  0
  6  7  1  0
  7  8  2  0
  8  9  1  0
  9 10  2  0
 10 11  1  0
  3 12  1  0
 12 13  1  0
 13 14  2  0
 14 15  1  0
 15 16  1  0
 16 17  2  0
 17 18  1  0
 18 19  2  0
 19 20  1  0
 20 21  2  0
 15 22  2  0
 22 23  1  0
 23 24  1  0
 24 25  1  0
 24 26  1  0
 24 27  1  0
 23 28  2  0
 28  2  1  0
 11  7  1  0
 28 13  1  0
 21 16  1  0
M  END
>  <Binding energies>  (58) 
[-7.66]

>  <Ligand effiencies>  (58) 
[-0.2470967741935484]

>  <Interactions>  (58) 
["V-A:HIS:456:CD2:4068, V-B:GLU:543:CD:9880, H-B:LYS:547:NZ:9923, V-B:GLU:543:C:9874, V-B:GLU:543:CB:9878, V-A:HIS:456:CE1:4069, V-B:ARG:545:CZ:9898, V-B:ARG:545:CD:9895, V-B:HIS:456:CE1:9040, V-B:GLU:543:CG:9879, V-A:GLU:543:CD:4908, V-B:GLY:454:CA:9020, V-A:TYR:484:CZ:4347, V-A:TYR:484:CE1:4345, H-A:TYR:484:OH:4348, V-B:GLY:544:C:9884, V-A:HIS:456:CG:4066, V-A:TYR:484:CD2:4344, V-A:TYR:484:CE2:4346, V-A:TYR:484:CD1:4343, V-A:HIS:456:CB:4065, V-A:TYR:484:CG:4342, H-B:GLU:543:O:9875, V-A:ASP:473:CG:4240, H-A:HIS:456:ND1:4067, V-A:ASP:473:CB:4239, V-A:TYR:484:CB:4341"]

$$$$
4ck_Grossjean_2025
     RDKit          3D

 33 35  0  0  0  0  0  0  0  0999 V2000
  123.6920  130.6500   76.1150 C   0  0  0  0  0  0  0  0  0  0  0  0
  124.6440  130.0200   75.2720 O   0  0  0  0  0  0  0  0  0  0  0  0
  124.8950  128.6650   75.6180 C   0  0  0  0  0  0  0  0  0  0  0  0
  124.1350  127.7520   74.6480 C   0  0  0  0  0  0  0  0  0  0  0  0
  125.0630  127.1360   73.7670 O   0  0  0  0  0  0  0  0  0  0  0  0
  126.3360  127.7680   73.7510 C   0  0  0  0  0  0  0  0  0  0  0  0
  127.3500  126.8740   74.4780 C   0  0  0  0  0  0  0  0  0  0  0  0
  127.8160  125.8820   73.5730 O   0  0  0  0  0  0  0  0  0  0  0  0
  128.4580  126.4120   72.4200 C   0  0  0  0  0  0  0  0  0  0  0  0
  129.0130  125.2620   71.5660 C   0  0  0  0  0  0  0  0  0  0  0  0
  128.9270  125.5500   70.1330 N   0  0  0  0  0  0  0  0  0  0  0  0
  129.1770  126.7400   69.5500 C   0  0  0  0  0  0  0  0  0  0  0  0
  129.5410  127.7300   70.1870 O   0  0  0  0  0  0  0  0  0  0  0  0
  128.9990  126.7900   68.0980 C   0  0  0  0  0  0  0  0  0  0  0  0
  128.3350  128.2340   67.3380 S   0  0  0  0  0  0  0  0  0  0  0  0
  128.5110  127.5300   65.7480 C   0  0  0  0  0  0  0  0  0  0  0  0
  128.1510  128.1920   64.6510 N   0  0  0  0  0  0  0  0  0  0  0  0
  128.3240  127.5630   63.4600 C   0  0  0  0  0  0  0  0  0  0  0  0
  127.9260  128.3440   62.2400 C   0  0  0  0  0  0  0  0  0  0  0  0
  126.6880  128.1200   61.6160 C   0  0  0  0  0  0  0  0  0  0  0  0
  126.3130  128.8390   60.4830 C   0  0  0  0  0  0  0  0  0  0  0  0
  127.1740  129.7960   59.9580 C   0  0  0  0  0  0  0  0  0  0  0  0
  128.4040  130.0420   60.5600 C   0  0  0  0  0  0  0  0  0  0  0  0
  128.7740  129.3210   61.6930 C   0  0  0  0  0  0  0  0  0  0  0  0
  128.8660  126.2760   63.3750 C   0  0  0  0  0  0  0  0  0  0  0  0
  129.2480  125.5690   64.5260 C   0  0  0  0  0  0  0  0  0  0  0  0
  129.8320  124.1600   64.3610 C   0  0  0  0  0  0  0  0  0  0  0  0
  129.2510  123.2570   65.1520 F   0  0  0  0  0  0  0  0  0  0  0  0
  129.6720  123.7510   63.1030 F   0  0  0  0  0  0  0  0  0  0  0  0
  131.1320  124.1740   64.6570 F   0  0  0  0  0  0  0  0  0  0  0  0
  129.0690  126.2180   65.7810 C   0  0  0  0  0  0  0  0  0  0  0  0
  129.3450  125.8240   67.1410 C   0  0  0  0  0  0  0  0  0  0  0  0
  129.8940  124.6100   67.4660 N   0  0  0  0  0  0  0  0  0  0  0  0
  1  2  1  0
  2  3  1  0
  3  4  1  0
  4  5  1  0
  5  6  1  0
  6  7  1  0
  7  8  1  0
  8  9  1  0
  9 10  1  0
 10 11  1  0
 11 12  1  0
 12 13  2  0
 12 14  1  0
 14 15  1  0
 15 16  1  0
 16 17  2  0
 17 18  1  0
 18 19  1  0
 19 20  2  0
 20 21  1  0
 21 22  2  0
 22 23  1  0
 23 24  2  0
 18 25  2  0
 25 26  1  0
 26 27  1  0
 27 28  1  0
 27 29  1  0
 27 30  1  0
 26 31  2  0
 31 32  1  0
 32 33  1  0
 32 14  2  0
 31 16  1  0
 24 19  1  0
M  END
>  <Binding energies>  (59) 
[-6.42]

>  <Ligand effiencies>  (59) 
[-0.17833333333333334]

>  <Interactions>  (59) 
["H-B:HIS:456:NE2:9041, V-A:HIS:456:CD2:4068, V-B:GLU:543:CD:9880, H-B:LYS:547:NZ:9923, V-B:GLU:543:C:9874, V-B:HIS:456:CD2:9039, V-B:GLU:543:CB:9878, V-A:HIS:456:CE1:4069, H-A:HIS:456:NE2:4070, V-B:HIS:456:CE1:9040, V-B:GLU:543:CG:9879, V-A:GLU:543:CD:4908, V-B:ALA:541:CB:9864, V-B:GLU:543:CA:9876, V-A:TYR:484:CZ:4347, V-A:TYR:484:CE1:4345, H-A:TYR:484:OH:4348, V-B:HIS:456:CB:9036, V-B:LYS:547:CD:9921, V-B:HIS:456:C:9032, V-B:VAL:458:CG2:9058, V-B:VAL:457:C:9044, V-B:HIS:456:CG:9037, V-B:HIS:456:CA:9034, H-B:GLU:543:O:9875, V-B:VAL:457:CA:9046, V-B:LYS:471:CE:9191, H-B:VAL:457:N:9047, H-A:HIS:456:ND1:4067, V-B:LYS:471:CG:9189, V-B:LYS:471:C:9184"]

$$$$
4dd_Grossjean_2025
     RDKit          3D

 26 29  0  0  0  0  0  0  0  0999 V2000
  129.6620  126.9620   64.2700 C   0  0  0  0  0  0  0  0  0  0  0  0
  128.7970  127.1930   65.5010 C   0  0  0  0  0  0  0  0  0  0  0  0
  129.1500  126.5380   66.6880 C   0  0  0  0  0  0  0  0  0  0  0  0
  128.3950  126.7100   67.8550 C   0  0  0  0  0  0  0  0  0  0  0  0
  128.7460  126.0170   69.1380 C   0  0  0  0  0  0  0  0  0  0  0  0
  129.7490  125.0350   69.1760 C   0  0  0  0  0  0  0  0  0  0  0  0
  130.0810  124.3900   70.3640 C   0  0  0  0  0  0  0  0  0  0  0  0
  129.4110  124.7180   71.5370 C   0  0  0  0  0  0  0  0  0  0  0  0
  128.4140  125.6880   71.5300 C   0  0  0  0  0  0  0  0  0  0  0  0
  128.0860  126.3320   70.3390 C   0  0  0  0  0  0  0  0  0  0  0  0
  127.2890  127.5030   67.8860 N   0  0  0  0  0  0  0  0  0  0  0  0
  126.9570  128.1310   66.7590 C   0  0  0  0  0  0  0  0  0  0  0  0
  125.5720  129.1950   66.6640 S   0  0  0  0  0  0  0  0  0  0  0  0
  125.8930  129.5380   64.9630 C   0  0  0  0  0  0  0  0  0  0  0  0
  125.0310  130.4570   64.2160 C   0  0  0  0  0  0  0  0  0  0  0  0
  123.8070  130.3160   64.2250 O   0  0  0  0  0  0  0  0  0  0  0  0
  125.6760  131.4430   63.5460 N   0  0  0  0  0  0  0  0  0  0  0  0
  125.1560  132.4420   62.7030 C   0  0  0  0  0  0  0  0  0  0  0  0
  126.0980  133.1890   61.9890 C   0  0  0  0  0  0  0  0  0  0  0  0
  125.6830  134.1920   61.1170 C   0  0  0  0  0  0  0  0  0  0  0  0
  124.3230  134.4440   60.9520 C   0  0  0  0  0  0  0  0  0  0  0  0
  123.3750  133.6990   61.6480 C   0  0  0  0  0  0  0  0  0  0  0  0
  123.7860  132.6960   62.5210 C   0  0  0  0  0  0  0  0  0  0  0  0
  127.0260  128.8430   64.5120 C   0  0  0  0  0  0  0  0  0  0  0  0
  127.5080  128.9170   63.2290 N   0  0  0  0  0  0  0  0  0  0  0  0
  127.6550  128.0330   65.5220 C   0  0  0  0  0  0  0  0  0  0  0  0
  1  2  1  0
  2  3  2  0
  3  4  1  0
  4  5  1  0
  5  6  2  0
  6  7  1  0
  7  8  2  0
  8  9  1  0
  9 10  2  0
  4 11  2  0
 11 12  1  0
 12 13  1  0
 13 14  1  0
 14 15  1  0
 15 16  2  0
 15 17  1  0
 17 18  1  0
 18 19  2  0
 19 20  1  0
 20 21  2  0
 21 22  1  0
 22 23  2  0
 14 24  2  0
 24 25  1  0
 24 26  1  0
 26  2  1  0
 10  5  1  0
 26 12  2  0
 23 18  1  0
M  END
>  <Binding energies>  (60) 
[-7.52]

>  <Ligand effiencies>  (60) 
[-0.2593103448275862]

>  <Interactions>  (60) 
["V-B:ARG:545:CG:9894, V-A:HIS:456:CD2:4068, V-B:GLU:543:CD:9880, V-B:GLU:543:C:9874, V-B:GLU:543:CB:9878, V-A:HIS:456:CE1:4069, H-A:GLU:543:OE1:4909, V-B:HIS:456:CE1:9040, V-A:GLU:543:CD:4908, V-B:TRP:381:CH2:8343, H-B:GLY:454:N:9021, V-B:GLY:454:CA:9020, V-B:LEU:475:CD1:9229, V-B:ILE:369:CD1:8210, V-A:TYR:539:CE2:4876, H-B:TYR:484:OH:9319, V-B:ILE:369:CG2:8208, H-B:ARG:545:NH2:9900, V-A:TYR:539:CD2:4874, V-A:TYR:484:CZ:4347, V-A:TYR:484:CE1:4345, V-B:TYR:484:CZ:9318, V-B:GLY:544:C:9884, V-A:HIS:456:CG:4066, H-B:GLU:543:OE1:9881, V-A:TYR:484:CE2:4346"]

$$$$
4dg_Grossjean_2025
     RDKit          3D

 27 30  0  0  0  0  0  0  0  0999 V2000
  126.3100  127.1100   67.5280 C   0  0  0  0  0  0  0  0  0  0  0  0
  127.6070  126.3990   67.8850 C   0  0  0  0  0  0  0  0  0  0  0  0
  128.4140  125.9360   66.8390 C   0  0  0  0  0  0  0  0  0  0  0  0
  129.6200  125.2740   67.1010 C   0  0  0  0  0  0  0  0  0  0  0  0
  130.5090  124.7670   66.0000 C   0  0  0  0  0  0  0  0  0  0  0  0
  130.1750  123.6090   65.2790 C   0  0  0  0  0  0  0  0  0  0  0  0
  130.9970  123.1330   64.2610 C   0  0  0  0  0  0  0  0  0  0  0  0
  132.1700  123.8100   63.9470 C   0  0  0  0  0  0  0  0  0  0  0  0
  132.5280  124.9580   64.6470 C   0  0  0  0  0  0  0  0  0  0  0  0
  131.7040  125.4300   65.6650 C   0  0  0  0  0  0  0  0  0  0  0  0
  130.0660  125.0690   68.3700 N   0  0  0  0  0  0  0  0  0  0  0  0
  129.2980  125.5090   69.3660 C   0  0  0  0  0  0  0  0  0  0  0  0
  129.7490  125.3050   71.0430 S   0  0  0  0  0  0  0  0  0  0  0  0
  128.2810  126.1180   71.5820 C   0  0  0  0  0  0  0  0  0  0  0  0
  128.0000  126.2560   73.0100 C   0  0  0  0  0  0  0  0  0  0  0  0
  128.8910  126.1380   73.8540 O   0  0  0  0  0  0  0  0  0  0  0  0
  126.7100  126.4800   73.3380 N   0  0  0  0  0  0  0  0  0  0  0  0
  126.2030  126.6730   74.6960 C   0  0  0  0  0  0  0  0  0  0  0  0
  125.8360  128.1200   75.0060 C   0  0  0  0  0  0  0  0  0  0  0  0
  124.5170  128.4460   75.3350 C   0  0  0  0  0  0  0  0  0  0  0  0
  124.1840  129.7610   75.6490 C   0  0  0  0  0  0  0  0  0  0  0  0
  125.1730  130.7420   75.6450 C   0  0  0  0  0  0  0  0  0  0  0  0
  126.4930  130.4210   75.3350 C   0  0  0  0  0  0  0  0  0  0  0  0
  126.8260  129.1060   75.0220 C   0  0  0  0  0  0  0  0  0  0  0  0
  127.4850  126.5070   70.4940 C   0  0  0  0  0  0  0  0  0  0  0  0
  126.2780  127.1480   70.6220 N   0  0  0  0  0  0  0  0  0  0  0  0
  128.0520  126.1800   69.2140 C   0  0  0  0  0  0  0  0  0  0  0  0
  1  2  1  0
  2  3  2  0
  3  4  1  0
  4  5  1  0
  5  6  2  0
  6  7  1  0
  7  8  2  0
  8  9  1  0
  9 10  2  0
  4 11  2  0
 11 12  1  0
 12 13  1  0
 13 14  1  0
 14 15  1  0
 15 16  2  0
 15 17  1  0
 17 18  1  0
 18 19  1  0
 19 20  2  0
 20 21  1  0
 21 22  2  0
 22 23  1  0
 23 24  2  0
 14 25  2  0
 25 26  1  0
 25 27  1  0
 27  2  1  0
 10  5  1  0
 27 12  2  0
 24 19  1  0
M  END
>  <Binding energies>  (61) 
[-8.14]

>  <Ligand effiencies>  (61) 
[-0.27133333333333337]

>  <Interactions>  (61) 
["V-B:ARG:545:CG:9894, V-A:HIS:456:CD2:4068, V-B:GLU:543:CD:9880, H-B:LYS:547:NZ:9923, V-B:GLU:543:C:9874, V-B:HIS:456:CD2:9039, V-B:GLU:543:CB:9878, V-A:HIS:456:CE1:4069, H-A:HIS:456:NE2:4070, V-B:HIS:456:CE1:9040, V-B:GLU:543:CG:9879, V-B:GLU:543:CA:9876, V-A:TYR:484:CZ:4347, H-B:HIS:456:ND1:9038, V-A:LEU:475:CD1:4258, V-A:TYR:484:CE1:4345, H-A:TYR:484:OH:4348, V-B:GLY:544:C:9884, V-B:ARG:545:CA:9891, V-A:HIS:456:CG:4066, V-B:HIS:456:CB:9036, V-B:LYS:547:CD:9921, V-B:HIS:456:C:9032, V-B:VAL:458:CG2:9058, V-B:VAL:457:C:9044, V-B:HIS:456:CG:9037, H-B:GLY:544:O:9885, V-B:HIS:456:CA:9034, V-B:LYS:547:CE:9922, V-B:VAL:457:CA:9046, V-B:LYS:471:CE:9191, H-B:ARG:545:O:9890, V-B:LYS:471:CG:9189"]

$$$$
4dj_Grossjean_2025
     RDKit          3D

 25 28  0  0  0  0  0  0  0  0999 V2000
  129.2570  125.3230   64.8890 C   0  0  0  0  0  0  0  0  0  0  0  0
  128.8510  126.5300   65.7200 C   0  0  0  0  0  0  0  0  0  0  0  0
  128.3670  127.6590   65.0500 C   0  0  0  0  0  0  0  0  0  0  0  0
  127.9780  128.8040   65.7570 C   0  0  0  0  0  0  0  0  0  0  0  0
  127.4490  130.0280   65.0660 C   0  0  0  0  0  0  0  0  0  0  0  0
  126.1510  130.0490   64.5280 C   0  0  0  0  0  0  0  0  0  0  0  0
  125.6550  131.1800   63.8860 C   0  0  0  0  0  0  0  0  0  0  0  0
  126.4560  132.3120   63.7680 C   0  0  0  0  0  0  0  0  0  0  0  0
  127.7460  132.3180   64.2870 C   0  0  0  0  0  0  0  0  0  0  0  0
  128.2370  131.1860   64.9290 C   0  0  0  0  0  0  0  0  0  0  0  0
  128.0360  128.8630   67.1160 N   0  0  0  0  0  0  0  0  0  0  0  0
  128.4970  127.7890   67.7550 C   0  0  0  0  0  0  0  0  0  0  0  0
  128.6320  127.7330   69.4980 S   0  0  0  0  0  0  0  0  0  0  0  0
  129.2690  126.0880   69.4430 C   0  0  0  0  0  0  0  0  0  0  0  0
  129.6300  125.3930   70.6790 C   0  0  0  0  0  0  0  0  0  0  0  0
  129.7920  126.0180   71.7300 O   0  0  0  0  0  0  0  0  0  0  0  0
  129.7770  124.0490   70.5710 N   0  0  0  0  0  0  0  0  0  0  0  0
  130.1150  123.1630   71.5840 C   0  0  0  0  0  0  0  0  0  0  0  0
  129.5230  122.0300   71.8970 N   0  0  0  0  0  0  0  0  0  0  0  0
  130.1140  121.4410   72.9190 C   0  0  0  0  0  0  0  0  0  0  0  0
  131.2150  122.1000   73.4570 C   0  0  0  0  0  0  0  0  0  0  0  0
  131.4820  123.5710   72.5700 S   0  0  0  0  0  0  0  0  0  0  0  0
  129.3660  125.6280   68.1200 C   0  0  0  0  0  0  0  0  0  0  0  0
  129.8320  124.3830   67.7780 N   0  0  0  0  0  0  0  0  0  0  0  0
  128.9280  126.5810   67.1360 C   0  0  0  0  0  0  0  0  0  0  0  0
  1  2  1  0
  2  3  2  0
  3  4  1  0
  4  5  1  0
  5  6  2  0
  6  7  1  0
  7  8  2  0
  8  9  1  0
  9 10  2  0
  4 11  2  0
 11 12  1  0
 12 13  1  0
 13 14  1  0
 14 15  1  0
 15 16  2  0
 15 17  1  0
 17 18  1  0
 18 19  2  0
 19 20  1  0
 20 21  2  0
 21 22  1  0
 14 23  2  0
 23 24  1  0
 23 25  1  0
 25  2  1  0
 10  5  1  0
 25 12  2  0
 22 18  1  0
M  END
>  <Binding energies>  (62) 
[-8.0]

>  <Ligand effiencies>  (62) 
[-0.2857142857142857]

>  <Interactions>  (62) 
["V-A:HIS:456:CD2:4068, V-B:GLU:543:CD:9880, H-B:LYS:547:NZ:9923, V-B:GLU:543:C:9874, V-B:GLU:543:CB:9878, V-A:HIS:456:CE1:4069, H-A:HIS:456:NE2:4070, V-B:HIS:456:CE1:9040, V-B:GLU:543:CG:9879, V-A:GLU:543:CD:4908, V-B:LEU:475:CD1:9229, V-A:ALA:541:CB:4892, V-B:GLU:543:CA:9876, V-A:TYR:484:CZ:4347, V-A:GLU:543:CB:4906, V-A:TYR:484:CE1:4345, H-A:TYR:484:OH:4348, V-B:TYR:484:CE1:9316, V-A:HIS:456:CG:4066, V-A:TYR:484:CD2:4344, V-A:TYR:484:CE2:4346, V-A:TYR:484:CD1:4343, V-A:HIS:456:CB:4065, V-A:TYR:484:CG:4342, H-B:GLU:543:O:9875, V-A:ASP:473:CG:4240, H-A:HIS:456:ND1:4067, V-A:ASP:473:CB:4239, V-A:TYR:484:CB:4341"]

$$$$
4ea_Grossjean_2025
     RDKit          3D

 31 34  0  0  0  0  0  0  0  0999 V2000
  124.4280  126.9080   73.9840 C   0  0  0  0  0  0  0  0  0  0  0  0
  125.8470  127.4750   73.8900 C   0  0  0  0  0  0  0  0  0  0  0  0
  126.4580  127.0240   72.6880 O   0  0  0  0  0  0  0  0  0  0  0  0
  127.6150  126.3130   72.7120 C   0  0  0  0  0  0  0  0  0  0  0  0
  128.1230  125.8780   73.7500 O   0  0  0  0  0  0  0  0  0  0  0  0
  128.2140  126.1100   71.3500 C   0  0  0  0  0  0  0  0  0  0  0  0
  129.1690  125.1010   71.1680 C   0  0  0  0  0  0  0  0  0  0  0  0
  129.7430  124.8870   69.9180 C   0  0  0  0  0  0  0  0  0  0  0  0
  129.3760  125.6750   68.8260 C   0  0  0  0  0  0  0  0  0  0  0  0
  130.0220  125.3680   67.6130 N   0  0  0  0  0  0  0  0  0  0  0  0
  129.7150  125.7210   66.3400 C   0  0  0  0  0  0  0  0  0  0  0  0
  128.7480  126.4180   66.0280 O   0  0  0  0  0  0  0  0  0  0  0  0
  130.6270  125.2110   65.3140 C   0  0  0  0  0  0  0  0  0  0  0  0
  132.3650  125.4970   65.4410 S   0  0  0  0  0  0  0  0  0  0  0  0
  132.6650  124.6330   63.9500 C   0  0  0  0  0  0  0  0  0  0  0  0
  133.8960  124.4840   63.4580 N   0  0  0  0  0  0  0  0  0  0  0  0
  133.9930  123.7940   62.2950 C   0  0  0  0  0  0  0  0  0  0  0  0
  135.4010  123.6360   61.7530 C   0  0  0  0  0  0  0  0  0  0  0  0
  132.8990  123.2550   61.6200 C   0  0  0  0  0  0  0  0  0  0  0  0
  131.6100  123.4140   62.1400 C   0  0  0  0  0  0  0  0  0  0  0  0
  130.4590  122.8360   61.4120 C   0  0  0  0  0  0  0  0  0  0  0  0
  129.5910  123.6660   60.6950 C   0  0  0  0  0  0  0  0  0  0  0  0
  128.5090  123.1230   60.0070 C   0  0  0  0  0  0  0  0  0  0  0  0
  128.2920  121.7480   60.0400 C   0  0  0  0  0  0  0  0  0  0  0  0
  129.1470  120.9120   60.7550 C   0  0  0  0  0  0  0  0  0  0  0  0
  130.2280  121.4570   61.4420 C   0  0  0  0  0  0  0  0  0  0  0  0
  131.4660  124.1320   63.3590 C   0  0  0  0  0  0  0  0  0  0  0  0
  130.3180  124.4760   64.1580 C   0  0  0  0  0  0  0  0  0  0  0  0
  129.0450  124.1100   63.8040 N   0  0  0  0  0  0  0  0  0  0  0  0
  128.4200  126.6880   69.0000 C   0  0  0  0  0  0  0  0  0  0  0  0
  127.8470  126.9000   70.2500 C   0  0  0  0  0  0  0  0  0  0  0  0
  1  2  1  0
  2  3  1  0
  3  4  1  0
  4  5  2  0
  4  6  1  0
  6  7  2  0
  7  8  1  0
  8  9  2  0
  9 10  1  0
 10 11  1  0
 11 12  2  0
 11 13  1  0
 13 14  1  0
 14 15  1  0
 15 16  2  0
 16 17  1  0
 17 18  1  0
 17 19  2  0
 19 20  1  0
 20 21  1  0
 21 22  2  0
 22 23  1  0
 23 24  2  0
 24 25  1  0
 25 26  2  0
 20 27  2  0
 27 28  1  0
 28 29  1  0
  9 30  1  0
 30 31  2  0
 31  6  1  0
 28 13  2  0
 27 15  1  0
 26 21  1  0
M  END
>  <Binding energies>  (63) 
[-8.46]

>  <Ligand effiencies>  (63) 
[-0.24882352941176472]

>  <Interactions>  (63) 
["V-A:HIS:456:CD2:4068, V-B:GLU:543:CD:9880, H-B:LYS:547:NZ:9923, V-B:GLU:543:CB:9878, V-A:HIS:456:CE1:4069, V-B:HIS:456:CE1:9040, V-B:GLU:543:CG:9879, V-B:ALA:541:CB:9864, V-A:TYR:484:CZ:4347, V-A:TYR:484:CE1:4345, H-A:GLY:454:N:4050, V-A:GLY:453:CA:4044, H-A:ARG:545:NH2:4928, H-A:TYR:484:OH:4348, V-A:GLY:453:C:4042, V-A:GLY:454:CA:4049, V-B:TYR:539:CE2:9848, V-B:PRO:540:CA:9855, V-A:ILE:369:CD1:3239, V-B:TYR:539:CD2:9846, V-B:ALA:541:CA:9862, V-B:GLY:544:C:9884, V-B:PRO:540:N:9856, V-B:TYR:539:C:9839, V-A:HIS:456:CG:4066, H-B:GLU:543:OE1:9881, V-B:PRO:540:C:9853, H-B:GLU:543:OE2:9882, V-B:HIS:456:CB:9036, V-B:LYS:547:CD:9921, V-B:ARG:545:C:9889, V-B:HIS:456:CG:9037, H-A:HIS:456:ND1:4067"]

$$$$
4eb_Grossjean_2025
     RDKit          3D

 30 33  0  0  0  0  0  0  0  0999 V2000
  125.3230  127.4310   73.1770 C   0  0  0  0  0  0  0  0  0  0  0  0
  126.4580  127.4060   72.3240 O   0  0  0  0  0  0  0  0  0  0  0  0
  127.4930  126.5590   72.5640 C   0  0  0  0  0  0  0  0  0  0  0  0
  127.8080  126.1740   73.6930 O   0  0  0  0  0  0  0  0  0  0  0  0
  128.2160  126.1380   71.3170 C   0  0  0  0  0  0  0  0  0  0  0  0
  128.0070  126.8540   70.1310 C   0  0  0  0  0  0  0  0  0  0  0  0
  128.6620  126.4890   68.9590 C   0  0  0  0  0  0  0  0  0  0  0  0
  129.5390  125.4030   68.9460 C   0  0  0  0  0  0  0  0  0  0  0  0
  130.1440  125.1250   67.7050 N   0  0  0  0  0  0  0  0  0  0  0  0
  129.7220  125.3880   66.4440 C   0  0  0  0  0  0  0  0  0  0  0  0
  128.6630  125.9540   66.1710 O   0  0  0  0  0  0  0  0  0  0  0  0
  130.6260  124.9490   65.3780 C   0  0  0  0  0  0  0  0  0  0  0  0
  132.3640  125.2310   65.5090 S   0  0  0  0  0  0  0  0  0  0  0  0
  132.6530  124.4670   63.9620 C   0  0  0  0  0  0  0  0  0  0  0  0
  133.8800  124.3530   63.4510 N   0  0  0  0  0  0  0  0  0  0  0  0
  133.9680  123.7410   62.2450 C   0  0  0  0  0  0  0  0  0  0  0  0
  135.3730  123.6230   61.6820 C   0  0  0  0  0  0  0  0  0  0  0  0
  132.8710  123.2440   61.5460 C   0  0  0  0  0  0  0  0  0  0  0  0
  131.5860  123.3650   62.0870 C   0  0  0  0  0  0  0  0  0  0  0  0
  130.4290  122.8310   61.3310 C   0  0  0  0  0  0  0  0  0  0  0  0
  130.1370  121.4650   61.3670 C   0  0  0  0  0  0  0  0  0  0  0  0
  129.0480  120.9620   60.6580 C   0  0  0  0  0  0  0  0  0  0  0  0
  128.2520  121.8280   59.9120 C   0  0  0  0  0  0  0  0  0  0  0  0
  128.5370  123.1920   59.8680 C   0  0  0  0  0  0  0  0  0  0  0  0
  129.6260  123.6920   60.5770 C   0  0  0  0  0  0  0  0  0  0  0  0
  131.4500  124.0020   63.3500 C   0  0  0  0  0  0  0  0  0  0  0  0
  130.3100  124.2900   64.1800 C   0  0  0  0  0  0  0  0  0  0  0  0
  129.0330  123.9430   63.8150 N   0  0  0  0  0  0  0  0  0  0  0  0
  129.7550  124.6800   70.1290 C   0  0  0  0  0  0  0  0  0  0  0  0
  129.0980  125.0460   71.3010 C   0  0  0  0  0  0  0  0  0  0  0  0
  1  2  1  0
  2  3  1  0
  3  4  2  0
  3  5  1  0
  5  6  2  0
  6  7  1  0
  7  8  2  0
  8  9  1  0
  9 10  1  0
 10 11  2  0
 10 12  1  0
 12 13  1  0
 13 14  1  0
 14 15  2  0
 15 16  1  0
 16 17  1  0
 16 18  2  0
 18 19  1  0
 19 20  1  0
 20 21  2  0
 21 22  1  0
 22 23  2  0
 23 24  1  0
 24 25  2  0
 19 26  2  0
 26 27  1  0
 27 28  1  0
  8 29  1  0
 29 30  2  0
 30  5  1  0
 27 12  2  0
 26 14  1  0
 25 20  1  0
M  END
>  <Binding energies>  (64) 
[-8.03]

>  <Ligand effiencies>  (64) 
[-0.24333333333333332]

>  <Interactions>  (64) 
["V-A:HIS:456:CD2:4068, V-B:GLU:543:CD:9880, H-B:LYS:547:NZ:9923, V-B:GLU:543:C:9874, V-B:GLU:543:CB:9878, V-A:HIS:456:CE1:4069, V-B:HIS:456:CE1:9040, V-B:GLU:543:CG:9879, V-B:ALA:541:CB:9864, V-A:TYR:484:CZ:4347, V-A:TYR:484:CE1:4345, H-A:GLY:454:N:4050, V-A:GLY:453:CA:4044, H-A:TYR:484:OH:4348, V-A:GLY:453:C:4042, V-B:TYR:539:CE2:9848, V-B:PRO:540:CA:9855, V-A:ILE:369:CD1:3239, V-B:TYR:539:CD2:9846, V-B:ALA:541:CA:9862, V-B:GLY:544:C:9884, V-B:ARG:545:CA:9891, V-B:PRO:540:N:9856, V-B:TYR:539:C:9839, V-A:HIS:456:CG:4066, H-B:GLU:543:OE1:9881, V-B:PRO:540:C:9853, H-B:GLU:543:OE2:9882, V-B:HIS:456:CB:9036, V-B:ARG:545:C:9889, V-B:HIS:456:CG:9037, V-B:HIS:456:CA:9034, H-A:HIS:456:ND1:4067"]

$$$$
8b_Ghoteimi_2023
     RDKit          3D

 34 38  0  0  0  0  0  0  0  0999 V2000
  123.3850  131.6640   62.0340 C   0  0  0  0  0  0  0  0  0  0  0  0
  123.9060  131.9880   63.3190 O   0  0  0  0  0  0  0  0  0  0  0  0
  124.7520  131.0940   63.9480 C   0  0  0  0  0  0  0  0  0  0  0  0
  124.1720  130.2360   64.8790 C   0  0  0  0  0  0  0  0  0  0  0  0
  124.9460  129.3040   65.5620 C   0  0  0  0  0  0  0  0  0  0  0  0
  126.3260  129.2050   65.3300 C   0  0  0  0  0  0  0  0  0  0  0  0
  127.1640  128.2060   66.0620 C   0  0  0  0  0  0  0  0  0  0  0  0
  128.1820  127.4890   65.4240 C   0  0  0  0  0  0  0  0  0  0  0  0
  128.9510  126.5610   66.1320 C   0  0  0  0  0  0  0  0  0  0  0  0
  130.0150  125.8110   65.4240 C   0  0  0  0  0  0  0  0  0  0  0  0
  131.3370  125.8790   65.8670 C   0  0  0  0  0  0  0  0  0  0  0  0
  132.3340  125.1660   65.2060 C   0  0  0  0  0  0  0  0  0  0  0  0
  132.0260  124.3790   64.0950 C   0  0  0  0  0  0  0  0  0  0  0  0
  133.0780  123.7060   63.5050 O   0  0  0  0  0  0  0  0  0  0  0  0
  133.8660  124.3730   62.5240 C   0  0  0  0  0  0  0  0  0  0  0  0
  130.6970  124.3160   63.6500 C   0  0  0  0  0  0  0  0  0  0  0  0
  129.7000  125.0290   64.3120 C   0  0  0  0  0  0  0  0  0  0  0  0
  128.6740  126.3760   67.5130 C   0  0  0  0  0  0  0  0  0  0  0  0
  129.2580  125.5310   68.5210 C   0  0  0  0  0  0  0  0  0  0  0  0
  130.2970  124.6770   68.2520 N   0  0  0  0  0  0  0  0  0  0  0  0
  128.6680  125.6660   69.7880 C   0  0  0  0  0  0  0  0  0  0  0  0
  129.0090  124.9720   71.0310 C   0  0  0  0  0  0  0  0  0  0  0  0
  128.7740  125.4900   72.1260 O   0  0  0  0  0  0  0  0  0  0  0  0
  129.5880  123.7550   70.8780 N   0  0  0  0  0  0  0  0  0  0  0  0
  130.0070  122.8860   71.8760 C   0  0  0  0  0  0  0  0  0  0  0  0
  131.1600  123.0930   72.6310 C   0  0  0  0  0  0  0  0  0  0  0  0
  131.2200  122.0220   73.4940 C   0  0  0  0  0  0  0  0  0  0  0  0
  130.1560  121.2140   73.2730 O   0  0  0  0  0  0  0  0  0  0  0  0
  129.3930  121.7730   72.2460 N   0  0  0  0  0  0  0  0  0  0  0  0
  127.3660  126.8570   69.7600 S   0  0  0  0  0  0  0  0  0  0  0  0
  127.6190  127.1640   68.0570 C   0  0  0  0  0  0  0  0  0  0  0  0
  126.8830  128.0470   67.3830 N   0  0  0  0  0  0  0  0  0  0  0  0
  126.9030  130.0690   64.3900 C   0  0  0  0  0  0  0  0  0  0  0  0
  126.1310  131.0040   63.7050 C   0  0  0  0  0  0  0  0  0  0  0  0
  1  2  1  0
  2  3  1  0
  3  4  2  0
  4  5  1  0
  5  6  2  0
  6  7  1  0
  7  8  2  0
  8  9  1  0
  9 10  1  0
 10 11  2  0
 11 12  1  0
 12 13  2  0
 13 14  1  0
 14 15  1  0
 13 16  1  0
 16 17  2  0
  9 18  2  0
 18 19  1  0
 19 20  1  0
 19 21  2  0
 21 22  1  0
 22 23  2  0
 22 24  1  0
 24 25  1  0
 25 26  1  0
 26 27  2  0
 27 28  1  0
 28 29  1  0
 21 30  1  0
 30 31  1  0
 31 32  2  0
  6 33  1  0
 33 34  2  0
 34  3  1  0
 32  7  1  0
 17 10  1  0
 31 18  1  0
 29 25  2  0
M  END
>  <Binding energies>  (65) 
[-9.62]

>  <Ligand effiencies>  (65) 
[-0.25999999999999995]

>  <Interactions>  (65) 
["V-B:GLU:543:CD:9880, H-B:LYS:547:NZ:9923, V-B:GLU:543:C:9874, V-B:GLU:543:CB:9878, V-A:HIS:456:CE1:4069, V-B:ARG:545:CZ:9898, V-B:ARG:545:CD:9895, V-B:HIS:456:CE1:9040, V-B:GLU:543:CG:9879, V-A:GLU:543:CD:4908, H-B:GLY:454:N:9021, V-B:GLY:454:CA:9020, V-B:ILE:369:CD1:8210, V-A:TYR:484:CZ:4347, V-A:TYR:484:CE1:4345, H-A:GLY:454:N:4050, V-A:ARG:545:CZ:4926, H-A:TYR:484:OH:4348, V-B:GLY:544:C:9884, V-A:HIS:456:CG:4066, V-A:TYR:484:CD2:4344, V-A:TYR:484:CE2:4346, V-A:TYR:484:CD1:4343, V-A:HIS:456:CB:4065, V-A:TYR:484:CG:4342, H-B:GLU:543:O:9875, V-A:ASP:473:CG:4240, H-A:HIS:456:ND1:4067, V-A:ASP:473:CB:4239, V-A:TYR:484:CB:4341"]

$$$$
9d_Ghoteimi_2023
     RDKit          3D

 38 43  0  0  0  0  0  0  0  0999 V2000
  132.8230  124.4960   64.7230 C   0  0  0  0  0  0  0  0  0  0  0  0
  132.1310  123.3050   64.3780 O   0  0  0  0  0  0  0  0  0  0  0  0
  130.8030  123.1720   64.6330 C   0  0  0  0  0  0  0  0  0  0  0  0
  130.2260  122.0860   64.7340 O   0  0  0  0  0  0  0  0  0  0  0  0
  130.1110  124.4710   64.7750 C   0  0  0  0  0  0  0  0  0  0  0  0
  129.7330  125.4260   63.3420 S   0  0  0  0  0  0  0  0  0  0  0  0
  128.9690  126.6600   64.3170 C   0  0  0  0  0  0  0  0  0  0  0  0
  128.4030  127.7320   63.7660 N   0  0  0  0  0  0  0  0  0  0  0  0
  127.8200  128.6240   64.6100 C   0  0  0  0  0  0  0  0  0  0  0  0
  127.1680  129.8070   63.9680 C   0  0  0  0  0  0  0  0  0  0  0  0
  127.9000  130.9730   63.7190 C   0  0  0  0  0  0  0  0  0  0  0  0
  127.3020  132.0800   63.1240 C   0  0  0  0  0  0  0  0  0  0  0  0
  125.9510  132.0580   62.7440 C   0  0  0  0  0  0  0  0  0  0  0  0
  125.3320  133.1690   62.1610 N   0  0  0  0  0  0  0  0  0  0  0  0
  125.9210  133.8510   60.9910 C   0  0  0  0  0  0  0  0  0  0  0  0
  125.3070  135.2370   60.7020 C   0  0  0  0  0  0  0  0  0  0  0  0
  123.9000  135.1270   60.5710 O   0  0  0  0  0  0  0  0  0  0  0  0
  123.3050  134.6310   61.7590 C   0  0  0  0  0  0  0  0  0  0  0  0
  123.8570  133.2260   62.0840 C   0  0  0  0  0  0  0  0  0  0  0  0
  125.2180  130.8920   63.0090 C   0  0  0  0  0  0  0  0  0  0  0  0
  125.8160  129.7860   63.6070 C   0  0  0  0  0  0  0  0  0  0  0  0
  127.8350  128.4580   65.9970 C   0  0  0  0  0  0  0  0  0  0  0  0
  128.4460  127.3430   66.5810 C   0  0  0  0  0  0  0  0  0  0  0  0
  128.4570  127.2290   68.0630 C   0  0  0  0  0  0  0  0  0  0  0  0
  129.3740  127.9550   68.8270 C   0  0  0  0  0  0  0  0  0  0  0  0
  129.3690  127.8600   70.2160 C   0  0  0  0  0  0  0  0  0  0  0  0
  128.4350  127.0480   70.8790 C   0  0  0  0  0  0  0  0  0  0  0  0
  128.4150  126.9280   72.2700 N   0  0  0  0  0  0  0  0  0  0  0  0
  129.3370  125.9770   72.9220 C   0  0  0  0  0  0  0  0  0  0  0  0
  129.4910  126.2210   74.4390 C   0  0  0  0  0  0  0  0  0  0  0  0
  128.2170  126.2030   75.0660 O   0  0  0  0  0  0  0  0  0  0  0  0
  127.3610  127.2090   74.5430 C   0  0  0  0  0  0  0  0  0  0  0  0
  127.1520  126.9850   73.0300 C   0  0  0  0  0  0  0  0  0  0  0  0
  127.5200  126.3230   70.1020 C   0  0  0  0  0  0  0  0  0  0  0  0
  127.5270  126.4170   68.7130 C   0  0  0  0  0  0  0  0  0  0  0  0
  129.0250  126.3750   65.7140 C   0  0  0  0  0  0  0  0  0  0  0  0
  129.6670  125.1070   65.9420 C   0  0  0  0  0  0  0  0  0  0  0  0
  129.8110  124.5590   67.1900 N   0  0  0  0  0  0  0  0  0  0  0  0
  1  2  1  0
  2  3  1  0
  3  4  2  0
  3  5  1  0
  5  6  1  0
  6  7  1  0
  7  8  2  0
  8  9  1  0
  9 10  1  0
 10 11  2  0
 11 12  1  0
 12 13  2  0
 13 14  1  0
 14 15  1  0
 15 16  1  0
 16 17  1  0
 17 18  1  0
 18 19  1  0
 13 20  1  0
 20 21  2  0
  9 22  2  0
 22 23  1  0
 23 24  1  0
 24 25  2  0
 25 26  1  0
 26 27  2  0
 27 28  1  0
 28 29  1  0
 29 30  1  0
 30 31  1  0
 31 32  1  0
 32 33  1  0
 27 34  1  0
 34 35  2  0
 23 36  2  0
 36 37  1  0
 37 38  1  0
 37  5  2  0
 36  7  1  0
 21 10  1  0
 35 24  1  0
 19 14  1  0
 33 28  1  0
M  END
>  <Binding energies>  (66) 
[-9.45]

>  <Ligand effiencies>  (66) 
[-0.23625]

>  <Interactions>  (66) 
["V-A:HIS:456:CD2:4068, V-B:GLU:543:CD:9880, H-B:LYS:547:NZ:9923, V-B:GLU:543:C:9874, V-B:GLU:543:CB:9878, V-A:HIS:456:CE1:4069, V-B:HIS:456:CE1:9040, V-B:GLU:543:CG:9879, V-B:TRP:381:CH2:8343, V-B:GLY:454:CA:9020, V-B:LEU:475:CD1:9229, V-B:ILE:369:CD1:8210, V-A:TYR:539:CE2:4876, V-A:ALA:541:CB:4892, V-B:ILE:369:CG2:8208, V-A:TYR:539:CD2:4874, V-B:GLU:543:CA:9876, V-A:TYR:484:CZ:4347, V-A:TYR:484:CE1:4345, H-A:TYR:484:OH:4348, V-B:TRP:381:CZ2:8341, V-B:TRP:381:CZ3:8342, V-B:SER:385:C:8376, V-B:GLY:544:C:9884, H-B:GLU:543:O:9875, H-A:HIS:456:ND1:4067"]

$$$$
RR10_Rahimova_2017
     RDKit          3D

 34 38  0  0  0  0  0  0  0  0999 V2000
  133.3720  119.6250   60.6300 C   0  0  0  0  0  0  0  0  0  0  0  0
  133.8480  121.0870   60.6730 C   0  0  1  0  0  0  0  0  0  0  0  0
  132.7960  122.0540   60.0810 C   0  0  0  0  0  0  0  0  0  0  0  0
  133.3100  123.5120   60.1030 C   0  0  0  0  0  0  0  0  0  0  0  0
  133.6810  123.9800   61.5330 C   0  0  1  0  0  0  0  0  0  0  0  0
  132.4810  124.0960   62.3710 N   0  0  0  0  0  0  0  0  0  0  0  0
  132.4740  124.3170   63.6990 C   0  0  0  0  0  0  0  0  0  0  0  0
  133.5050  124.4690   64.3590 O   0  0  0  0  0  0  0  0  0  0  0  0
  131.0950  124.3610   64.3890 C   0  0  1  0  0  0  0  0  0  0  0  0
  130.7100  122.9340   64.8600 C   0  0  0  0  0  0  0  0  0  0  0  0
  129.3700  122.9890   65.6330 C   0  0  0  0  0  0  0  0  0  0  0  0
  129.3820  124.0420   66.7650 C   0  0  0  0  0  0  0  0  0  0  0  0
  129.8230  125.3650   66.2450 N   0  0  0  0  0  0  0  0  0  0  0  0
  129.5910  126.7110   67.3740 S   0  0  0  0  0  0  0  0  0  0  0  0
  130.7080  127.6480   67.2030 O   0  0  0  0  0  0  0  0  0  0  0  0
  129.2980  126.1440   68.6970 O   0  0  0  0  0  0  0  0  0  0  0  0
  128.1180  127.5540   66.7980 C   0  0  0  0  0  0  0  0  0  0  0  0
  126.9480  127.4890   67.5620 C   0  0  0  0  0  0  0  0  0  0  0  0
  125.7660  128.1210   67.1670 C   0  0  0  0  0  0  0  0  0  0  0  0
  125.8090  128.8310   65.9640 C   0  0  0  0  0  0  0  0  0  0  0  0
  124.8850  129.5600   65.2550 N   0  0  0  0  0  0  0  0  0  0  0  0
  125.5030  130.0380   64.1180 C   0  0  0  0  0  0  0  0  0  0  0  0
  124.8070  130.8760   63.0840 C   0  0  0  0  0  0  0  0  0  0  0  0
  124.4850  132.2130   63.3530 C   0  0  0  0  0  0  0  0  0  0  0  0
  123.8430  132.9920   62.3940 C   0  0  0  0  0  0  0  0  0  0  0  0
  123.5190  132.4370   61.1590 C   0  0  0  0  0  0  0  0  0  0  0  0
  123.8330  131.1110   60.8750 C   0  0  0  0  0  0  0  0  0  0  0  0
  124.4750  130.3330   61.8350 C   0  0  0  0  0  0  0  0  0  0  0  0
  126.7640  129.6710   64.0510 N   0  0  0  0  0  0  0  0  0  0  0  0
  126.9820  128.9210   65.1770 C   0  0  0  0  0  0  0  0  0  0  0  0
  128.1540  128.2770   65.6000 C   0  0  0  0  0  0  0  0  0  0  0  0
  131.1570  125.3310   65.5940 C   0  0  0  0  0  0  0  0  0  0  0  0
  134.7240  122.9910   62.1210 C   0  0  0  0  0  0  0  0  0  0  0  0
  134.2120  121.5330   62.1090 C   0  0  0  0  0  0  0  0  0  0  0  0
  2  1  1  1
  2  3  1  0
  3  4  1  0
  4  5  1  0
  5  6  1  1
  6  7  1  0
  7  8  2  0
  9  7  1  1
  9 10  1  0
 10 11  1  0
 11 12  1  0
 12 13  1  0
 13 14  1  0
 14 15  2  0
 14 16  2  0
 14 17  1  0
 17 18  2  0
 18 19  1  0
 19 20  2  0
 20 21  1  0
 21 22  1  0
 22 23  1  0
 23 24  2  0
 24 25  1  0
 25 26  2  0
 26 27  1  0
 27 28  2  0
 22 29  2  0
 29 30  1  0
 30 31  2  0
 13 32  1  0
  5 33  1  0
 33 34  1  0
 34  2  1  0
 32  9  1  0
 31 17  1  0
 30 20  1  0
 28 23  1  0
M  END
>  <Binding energies>  (67) 
[-9.62]

>  <Ligand effiencies>  (67) 
[-0.2672222222222222]

>  <Interactions>  (67) 
["V-B:ARG:545:CG:9894, V-B:GLU:543:C:9874, V-B:GLU:543:CB:9878, V-A:HIS:456:CE1:4069, V-B:ARG:545:CZ:9898, H-A:HIS:456:NE2:4070, V-B:ARG:545:CD:9895, V-B:HIS:456:CE1:9040, V-B:GLU:543:CG:9879, V-A:GLU:543:CD:4908, V-B:GLY:454:CA:9020, V-B:ASP:366:CG:8184, V-B:LEU:475:CD1:9229, V-B:ILE:369:CD1:8210, H-B:TYR:484:OH:9319, V-B:ILE:369:CG2:8208, V-B:ALA:541:CB:9864, V-B:GLU:543:CA:9876, V-A:TYR:484:CZ:4347, V-A:LEU:475:CD1:4258, V-A:TYR:484:CE1:4345, H-A:GLY:454:N:4050, V-A:GLY:453:CA:4044, H-A:TYR:484:OH:4348, V-A:GLY:453:C:4042, V-A:GLY:454:CA:4049, V-A:ASP:366:CG:3213, V-B:TYR:539:CE2:9848, V-A:ILE:369:CB:3236, V-A:ILE:369:CG2:3237, V-A:ILE:369:CD1:3239, V-A:TRP:381:CH2:3372"]

$$$$
RR12_Rahimova_2017
     RDKit          3D

 26 28  0  0  0  0  0  0  0  0999 V2000
  128.6160  125.6860   70.5720 C   0  0  0  0  0  0  0  0  0  0  0  0
  127.8300  126.8740   70.0010 C   0  0  0  0  0  0  0  0  0  0  0  0
  126.9400  126.4760   68.8100 C   0  0  0  0  0  0  0  0  0  0  0  0
  127.3280  127.2090   67.6070 N   0  0  0  0  0  0  0  0  0  0  0  0
  128.5280  127.1250   66.9170 C   0  0  0  0  0  0  0  0  0  0  0  0
  129.6940  126.2530   67.3500 C   0  0  0  0  0  0  0  0  0  0  0  0
  130.0840  125.2200   66.2780 C   0  0  0  0  0  0  0  0  0  0  0  0
  131.4650  125.4990   65.6550 C   0  0  0  0  0  0  0  0  0  0  0  0
  131.7830  124.6440   64.5130 N   0  0  0  0  0  0  0  0  0  0  0  0
  133.0260  124.3410   64.0960 C   0  0  0  0  0  0  0  0  0  0  0  0
  134.0440  124.7670   64.6460 O   0  0  0  0  0  0  0  0  0  0  0  0
  133.1100  123.4140   62.8770 C   0  0  0  0  0  0  0  0  0  0  0  0
  131.7970  123.1710   62.3710 O   0  0  0  0  0  0  0  0  0  0  0  0
  131.5160  121.9560   61.7740 C   0  0  0  0  0  0  0  0  0  0  0  0
  130.1690  121.5910   61.7160 C   0  0  0  0  0  0  0  0  0  0  0  0
  129.7870  120.3870   61.1300 C   0  0  0  0  0  0  0  0  0  0  0  0
  130.7570  119.5430   60.5970 C   0  0  0  0  0  0  0  0  0  0  0  0
  132.1050  119.8910   60.6480 C   0  0  0  0  0  0  0  0  0  0  0  0
  132.4860  121.0950   61.2350 C   0  0  0  0  0  0  0  0  0  0  0  0
  128.5710  127.8890   65.8540 N   0  0  0  0  0  0  0  0  0  0  0  0
  127.3460  128.4940   65.8060 C   0  0  0  0  0  0  0  0  0  0  0  0
  126.8470  129.4050   64.8630 C   0  0  0  0  0  0  0  0  0  0  0  0
  125.5460  129.8800   65.0320 C   0  0  0  0  0  0  0  0  0  0  0  0
  124.7570  129.4650   66.1050 C   0  0  0  0  0  0  0  0  0  0  0  0
  125.2250  128.5610   67.0610 C   0  0  0  0  0  0  0  0  0  0  0  0
  126.5310  128.0850   66.8920 C   0  0  0  0  0  0  0  0  0  0  0  0
  1  2  1  0
  2  3  1  0
  3  4  1  0
  4  5  1  0
  5  6  1  0
  6  7  1  0
  7  8  1  0
  8  9  1  0
  9 10  1  0
 10 11  2  0
 10 12  1  0
 12 13  1  0
 13 14  1  0
 14 15  2  0
 15 16  1  0
 16 17  2  0
 17 18  1  0
 18 19  2  0
  5 20  2  0
 20 21  1  0
 21 22  2  0
 22 23  1  0
 23 24  2  0
 24 25  1  0
 25 26  2  0
 26  4  1  0
 19 14  1  0
 26 21  1  0
M  END
>  <Binding energies>  (68) 
[-6.51]

>  <Ligand effiencies>  (68) 
[-0.2411111111111111]

>  <Interactions>  (68) 
["V-B:ARG:545:CG:9894, V-B:GLU:543:C:9874, V-B:GLU:543:CB:9878, V-A:HIS:456:CE1:4069, V-B:ARG:545:CZ:9898, V-B:ARG:545:CD:9895, V-B:HIS:456:CE1:9040, V-B:ALA:541:CB:9864, V-A:LEU:475:CD1:4258, H-A:GLY:454:N:4050, H-A:TYR:484:OH:4348, V-A:GLY:454:CA:4049, H-A:ARG:545:NE:4924, V-B:TYR:539:CE2:9848, V-B:TYR:539:CD2:9846, V-A:PRO:482:CG:4327, V-A:TRP:381:CZ2:3370, V-A:TRP:381:CH2:3372, V-B:GLY:544:C:9884, V-B:ARG:545:CA:9891"]

$$$$
RR13_Rahimova_2017
     RDKit          3D

 48 54  0  0  0  0  0  0  0  0999 V2000
  127.9750  131.5460   58.5280 Cl  0  0  0  0  0  0  0  0  0  0  0  0
  127.0530  130.5580   59.6100 C   0  0  0  0  0  0  0  0  0  0  0  0
  125.6830  130.8070   59.7100 C   0  0  0  0  0  0  0  0  0  0  0  0
  124.8900  130.0610   60.5780 C   0  0  0  0  0  0  0  0  0  0  0  0
  125.4650  129.0600   61.3560 C   0  0  0  0  0  0  0  0  0  0  0  0
  126.8320  128.8050   61.2620 C   0  0  0  0  0  0  0  0  0  0  0  0
  127.6460  129.5390   60.3830 C   0  0  0  0  0  0  0  0  0  0  0  0
  129.1620  129.2540   60.3160 C   0  0  1  0  0  0  0  0  0  0  0  0
  129.9690  130.4080   60.9300 C   0  0  0  0  0  0  0  0  0  0  0  0
  131.1080  130.8930   60.4880 N   0  0  0  0  0  0  0  0  0  0  0  0
  131.4640  131.9010   61.3770 N   0  0  0  0  0  0  0  0  0  0  0  0
  130.5210  132.0030   62.3820 N   0  0  0  0  0  0  0  0  0  0  0  0
  129.6220  131.0540   62.0970 N   0  0  0  0  0  0  0  0  0  0  0  0
  128.4390  130.8850   62.9330 C   0  0  0  0  0  0  0  0  0  0  0  0
  127.9960  132.2410   63.5130 C   0  0  0  0  0  0  0  0  0  0  0  0
  127.2040  133.0640   62.5080 C   0  0  0  0  0  0  0  0  0  0  0  0
  127.8530  134.0250   61.7280 C   0  0  0  0  0  0  0  0  0  0  0  0
  127.1260  134.7830   60.8140 C   0  0  0  0  0  0  0  0  0  0  0  0
  125.7530  134.5780   60.6840 C   0  0  0  0  0  0  0  0  0  0  0  0
  125.1010  133.6220   61.4590 C   0  0  0  0  0  0  0  0  0  0  0  0
  125.8280  132.8630   62.3740 C   0  0  0  0  0  0  0  0  0  0  0  0
  129.5410  127.9360   60.8810 N   0  0  0  0  0  0  0  0  0  0  0  0
  129.8130  128.0530   62.3260 C   0  0  0  0  0  0  0  0  0  0  0  0
  130.0790  126.6620   62.9480 C   0  0  0  0  0  0  0  0  0  0  0  0
  131.2570  126.0330   62.3290 N   0  0  0  0  0  0  0  0  0  0  0  0
  131.5980  124.7320   62.9520 C   0  0  1  0  0  0  0  0  0  0  0  0
  132.0910  123.6370   61.9810 C   0  0  0  0  0  0  0  0  0  0  0  0
  133.3360  123.8380   61.3700 C   0  0  0  0  0  0  0  0  0  0  0  0
  133.8680  122.8940   60.4920 C   0  0  0  0  0  0  0  0  0  0  0  0
  133.1560  121.7330   60.2060 C   0  0  0  0  0  0  0  0  0  0  0  0
  131.9100  121.5220   60.7900 C   0  0  0  0  0  0  0  0  0  0  0  0
  131.3660  122.4640   61.6680 C   0  0  0  0  0  0  0  0  0  0  0  0
  129.7810  122.1430   62.2880 Cl  0  0  0  0  0  0  0  0  0  0  0  0
  132.5660  124.8650   64.1300 C   0  0  0  0  0  0  0  0  0  0  0  0
  133.8760  124.8370   64.0460 N   0  0  0  0  0  0  0  0  0  0  0  0
  134.3460  125.0090   65.3440 N   0  0  0  0  0  0  0  0  0  0  0  0
  133.2870  125.1590   66.2150 N   0  0  0  0  0  0  0  0  0  0  0  0
  132.1980  125.0880   65.4400 N   0  0  0  0  0  0  0  0  0  0  0  0
  130.8700  125.1860   66.0360 C   0  0  0  0  0  0  0  0  0  0  0  0
  130.6410  126.5970   66.6090 C   0  0  0  0  0  0  0  0  0  0  0  0
  129.1750  126.8610   66.9160 C   0  0  0  0  0  0  0  0  0  0  0  0
  128.5040  126.0680   67.8500 C   0  0  0  0  0  0  0  0  0  0  0  0
  127.1640  126.3150   68.1360 C   0  0  0  0  0  0  0  0  0  0  0  0
  126.4990  127.3530   67.4860 C   0  0  0  0  0  0  0  0  0  0  0  0
  127.1640  128.1480   66.5530 C   0  0  0  0  0  0  0  0  0  0  0  0
  128.5040  127.9020   66.2680 C   0  0  0  0  0  0  0  0  0  0  0  0
  130.9790  125.9130   60.8870 C   0  0  0  0  0  0  0  0  0  0  0  0
  130.7240  127.3080   60.2680 C   0  0  0  0  0  0  0  0  0  0  0  0
  1  2  1  0
  2  3  2  0
  3  4  1  0
  4  5  2  0
  5  6  1  0
  6  7  2  0
  7  8  1  0
  8  9  1  0
  9 10  2  0
 10 11  1  0
 11 12  2  0
 12 13  1  0
 13 14  1  0
 14 15  1  0
 15 16  1  0
 16 17  2  0
 17 18  1  0
 18 19  2  0
 19 20  1  0
 20 21  2  0
  8 22  1  1
 22 23  1  0
 23 24  1  0
 24 25  1  0
 26 25  1  6
 26 27  1  0
 27 28  2  0
 28 29  1  0
 29 30  2  0
 30 31  1  0
 31 32  2  0
 32 33  1  0
 26 34  1  0
 34 35  2  0
 35 36  1  0
 36 37  2  0
 37 38  1  0
 38 39  1  0
 39 40  1  0
 40 41  1  0
 41 42  2  0
 42 43  1  0
 43 44  2  0
 44 45  1  0
 45 46  2  0
 25 47  1  0
 47 48  1  0
  7  2  1  0
 13  9  1  0
 21 16  1  0
 48 22  1  0
 32 27  1  0
 38 34  1  0
 46 41  1  0
M  END
>  <Binding energies>  (69) 
[-11.72]

>  <Ligand effiencies>  (69) 
[-0.24416666666666667]

>  <Interactions>  (69) 
["V-B:ARG:545:CG:9894, V-B:GLU:543:C:9874, V-B:GLU:543:CB:9878, V-A:HIS:456:CE1:4069, V-B:HIS:456:CE1:9040, V-A:GLU:543:CD:4908, V-B:TRP:381:CH2:8343, V-B:ASP:366:CG:8184, V-B:LEU:475:CD1:9229, V-A:TYR:539:CE2:4876, V-A:ALA:541:CB:4892, V-A:TYR:539:CD2:4874, V-B:ALA:541:CB:9864, V-A:TYR:484:CZ:4347, H-A:GLY:454:N:4050, V-A:ARG:545:CZ:4926, H-A:ARG:545:NH2:4928, H-A:TYR:484:OH:4348, H-A:ARG:545:NE:4924, V-B:TYR:539:CE2:9848, V-A:ILE:369:CG2:3237, V-A:ILE:369:CD1:3239, V-A:TYR:539:CZ:4877, H-A:ALA:541:N:4891"]

$$$$
RR14_Rahimova_2017
     RDKit          3D

 39 43  0  0  0  0  0  0  0  0999 V2000
  127.3350  126.8400   75.6770 C   0  0  0  0  0  0  0  0  0  0  0  0
  128.3540  126.2310   74.8910 O   0  0  0  0  0  0  0  0  0  0  0  0
  128.2940  126.3330   73.5150 C   0  0  0  0  0  0  0  0  0  0  0  0
  127.2690  127.1230   72.9930 C   0  0  0  0  0  0  0  0  0  0  0  0
  127.1140  127.2660   71.6180 C   0  0  0  0  0  0  0  0  0  0  0  0
  127.9870  126.6110   70.7460 C   0  0  0  0  0  0  0  0  0  0  0  0
  127.7810  126.7110   69.2390 C   0  0  0  0  0  0  0  0  0  0  0  0
  128.9440  127.2460   68.5310 N   0  0  0  0  0  0  0  0  0  0  0  0
  129.6760  128.2250   69.0750 N   0  0  0  0  0  0  0  0  0  0  0  0
  130.6520  128.4960   68.1370 N   0  0  0  0  0  0  0  0  0  0  0  0
  130.4890  127.6750   67.0260 N   0  0  0  0  0  0  0  0  0  0  0  0
  129.4410  126.9290   67.2850 C   0  0  0  0  0  0  0  0  0  0  0  0
  128.8550  125.8830   66.3460 C   0  0  0  0  0  0  0  0  0  0  0  0
  129.4470  125.9410   65.0000 N   0  0  0  0  0  0  0  0  0  0  0  0
  129.3370  127.2810   64.4080 C   0  0  0  0  0  0  0  0  0  0  0  0
  127.9310  127.9030   64.5570 C   0  0  0  0  0  0  0  0  0  0  0  0
  127.9030  129.1670   65.4420 C   0  0  0  0  0  0  0  0  0  0  0  0
  126.5840  129.8050   65.5010 N   0  0  0  0  0  0  0  0  0  0  0  0
  125.6430  128.9640   66.2530 C   0  0  0  0  0  0  0  0  0  0  0  0
  124.2300  129.5830   66.2890 C   0  0  0  0  0  0  0  0  0  0  0  0
  123.7770  129.8480   64.9660 O   0  0  0  0  0  0  0  0  0  0  0  0
  124.6310  130.7540   64.2760 C   0  0  0  0  0  0  0  0  0  0  0  0
  126.0560  130.1700   64.1770 C   0  0  0  0  0  0  0  0  0  0  0  0
  130.8530  125.5130   65.0460 C   0  0  0  0  0  0  0  0  0  0  0  0
  131.2450  124.3920   64.0870 C   0  0  0  0  0  0  0  0  0  0  0  0
  130.3240  123.8050   63.2830 C   0  0  0  0  0  0  0  0  0  0  0  0
  130.6690  122.6920   62.3750 C   0  0  0  0  0  0  0  0  0  0  0  0
  129.7450  122.0740   61.5150 C   0  0  0  0  0  0  0  0  0  0  0  0
  128.2890  122.5180   61.4560 C   0  0  0  0  0  0  0  0  0  0  0  0
  130.1760  121.0300   60.6930 C   0  0  0  0  0  0  0  0  0  0  0  0
  131.5020  120.6020   60.7200 C   0  0  0  0  0  0  0  0  0  0  0  0
  132.4290  121.2120   61.5710 C   0  0  0  0  0  0  0  0  0  0  0  0
  133.8720  120.7240   61.5760 C   0  0  0  0  0  0  0  0  0  0  0  0
  132.0080  122.2620   62.4010 C   0  0  0  0  0  0  0  0  0  0  0  0
  132.9070  122.9050   63.2770 N   0  0  0  0  0  0  0  0  0  0  0  0
  132.6350  123.9280   64.1260 C   0  0  0  0  0  0  0  0  0  0  0  0
  133.5180  124.3880   64.8510 O   0  0  0  0  0  0  0  0  0  0  0  0
  129.0340  125.8420   71.2580 C   0  0  0  0  0  0  0  0  0  0  0  0
  129.1860  125.7000   72.6340 C   0  0  0  0  0  0  0  0  0  0  0  0
  1  2  1  0
  2  3  1  0
  3  4  2  0
  4  5  1  0
  5  6  2  0
  6  7  1  0
  7  8  1  0
  8  9  1  0
  9 10  2  0
 10 11  1  0
 11 12  2  0
 12 13  1  0
 13 14  1  0
 14 15  1  0
 15 16  1  0
 16 17  1  0
 17 18  1  0
 18 19  1  0
 19 20  1  0
 20 21  1  0
 21 22  1  0
 22 23  1  0
 14 24  1  0
 24 25  1  0
 25 26  2  0
 26 27  1  0
 27 28  2  0
 28 29  1  0
 28 30  1  0
 30 31  2  0
 31 32  1  0
 32 33  1  0
 32 34  2  0
 34 35  1  0
 35 36  1  0
 36 37  2  0
  6 38  1  0
 38 39  2  0
 39  3  1  0
 12  8  1  0
 23 18  1  0
 36 25  1  0
 34 27  1  0
M  END
>  <Binding energies>  (70) 
[-10.0]

>  <Ligand effiencies>  (70) 
[-0.25]

>  <Interactions>  (70) 
["V-B:ARG:545:CG:9894, H-B:HIS:456:NE2:9041, V-A:HIS:456:CD2:4068, V-B:GLU:543:CD:9880, H-B:LYS:547:NZ:9923, V-B:HIS:456:CD2:9039, V-B:GLU:543:CB:9878, V-A:HIS:456:CE1:4069, V-B:ARG:545:CZ:9898, H-A:HIS:456:NE2:4070, V-B:ARG:545:CD:9895, V-B:HIS:456:CE1:9040, V-B:GLU:543:CG:9879, V-A:GLU:543:CD:4908, H-B:GLY:454:N:9021, V-B:GLY:454:CA:9020, H-B:ARG:545:NH1:9899, H-B:TYR:484:OH:9319, H-B:ARG:545:NH2:9900, V-B:ALA:541:CB:9864, H-B:ARG:545:NE:9896, V-A:LEU:475:CD1:4258, V-A:GLU:543:CB:4906, H-A:GLY:454:N:4050, H-A:TYR:484:OH:4348, V-A:GLY:454:CA:4049, V-B:TYR:539:CE2:9848, V-A:ILE:369:CG2:3237, V-A:ILE:369:CD1:3239, V-B:TYR:539:CD2:9846, V-B:GLY:544:C:9884, V-B:LYS:547:CD:9921, V-B:HIS:456:CG:9037"]

$$$$
RR15_Rahimova_2017
     RDKit          3D

 45 49  0  0  0  0  0  0  0  0999 V2000
  130.9240  125.5470   74.5120 C   0  0  0  0  0  0  0  0  0  0  0  0
  129.5700  125.4860   74.0760 O   0  0  0  0  0  0  0  0  0  0  0  0
  129.2550  125.8500   72.7780 C   0  0  0  0  0  0  0  0  0  0  0  0
  128.8870  127.1520   72.4030 C   0  0  0  0  0  0  0  0  0  0  0  0
  128.5790  127.4510   71.0780 C   0  0  0  0  0  0  0  0  0  0  0  0
  128.6280  126.4610   70.0910 C   0  0  0  0  0  0  0  0  0  0  0  0
  128.2890  126.7820   68.6620 C   0  0  0  0  0  0  0  0  0  0  0  0
  127.0740  126.6250   68.1560 N   0  0  0  0  0  0  0  0  0  0  0  0
  127.1570  127.0110   66.8340 N   0  0  0  0  0  0  0  0  0  0  0  0
  128.4250  127.4010   66.7000 N   0  0  0  0  0  0  0  0  0  0  0  0
  128.9980  127.7400   65.3980 C   0  0  0  0  0  0  0  0  0  0  0  0
  129.3040  126.5250   64.4870 C   0  0  0  0  0  0  0  0  0  0  0  0
  129.3480  125.4060   65.0030 O   0  0  0  0  0  0  0  0  0  0  0  0
  129.4840  126.7140   63.1440 N   0  0  0  0  0  0  0  0  0  0  0  0
  128.3350  126.8550   62.2270 C   0  0  0  0  0  0  0  0  0  0  0  0
  127.1850  127.7080   62.8050 C   0  0  0  0  0  0  0  0  0  0  0  0
  126.8530  128.9840   61.9950 C   0  0  0  0  0  0  0  0  0  0  0  0
  125.8840  129.8650   62.6540 N   0  0  0  0  0  0  0  0  0  0  0  0
  124.6270  130.0190   61.9060 C   0  0  0  0  0  0  0  0  0  0  0  0
  123.6110  130.8850   62.6810 C   0  0  0  0  0  0  0  0  0  0  0  0
  123.4010  130.3480   63.9830 O   0  0  0  0  0  0  0  0  0  0  0  0
  124.6000  130.2940   64.7470 C   0  0  0  0  0  0  0  0  0  0  0  0
  125.6430  129.4090   64.0300 C   0  0  0  0  0  0  0  0  0  0  0  0
  130.8170  126.9860   62.5240 C   0  0  2  0  0  0  0  0  0  0  0  0
  130.7440  127.7640   61.1730 C   0  0  0  0  0  0  0  0  0  0  0  0
  130.7590  127.1690   60.0950 O   0  0  0  0  0  0  0  0  0  0  0  0
  130.6240  129.1000   61.2760 N   0  0  0  0  0  0  0  0  0  0  0  0
  130.4370  130.0190   60.1590 C   0  0  0  0  0  0  0  0  0  0  0  0
  131.3110  131.2770   60.3210 C   0  0  2  0  0  0  0  0  0  0  0  0
  132.7990  131.0950   59.9740 C   0  0  0  0  0  0  0  0  0  0  0  0
  133.4860  130.9640   61.3110 C   0  0  0  0  0  0  0  0  0  0  0  0
  132.6320  131.8730   62.1770 C   0  0  0  0  0  0  0  0  0  0  0  0
  131.3150  131.5820   61.7220 O   0  0  0  0  0  0  0  0  0  0  0  0
  131.6960  125.7420   62.5700 C   0  0  0  0  0  0  0  0  0  0  0  0
  132.3430  125.4360   63.7740 C   0  0  0  0  0  0  0  0  0  0  0  0
  133.1590  124.3130   63.8740 C   0  0  0  0  0  0  0  0  0  0  0  0
  133.3330  123.4840   62.7700 C   0  0  0  0  0  0  0  0  0  0  0  0
  134.1240  122.3920   62.8680 F   0  0  0  0  0  0  0  0  0  0  0  0
  132.6960  123.7710   61.5650 C   0  0  0  0  0  0  0  0  0  0  0  0
  131.8820  124.8960   61.4650 C   0  0  0  0  0  0  0  0  0  0  0  0
  129.1750  127.2390   67.7960 N   0  0  0  0  0  0  0  0  0  0  0  0
  128.9980  125.1630   70.4680 C   0  0  0  0  0  0  0  0  0  0  0  0
  129.3140  124.8460   71.8000 C   0  0  0  0  0  0  0  0  0  0  0  0
  129.6880  123.5820   72.2200 O   0  0  0  0  0  0  0  0  0  0  0  0
  131.0400  123.1620   72.0710 C   0  0  0  0  0  0  0  0  0  0  0  0
  1  2  1  0
  2  3  1  0
  3  4  2  0
  4  5  1  0
  5  6  2  0
  6  7  1  0
  7  8  1  0
  8  9  2  0
  9 10  1  0
 10 11  1  0
 11 12  1  0
 12 13  2  0
 12 14  1  0
 14 15  1  0
 15 16  1  0
 16 17  1  0
 17 18  1  0
 18 19  1  0
 19 20  1  0
 20 21  1  0
 21 22  1  0
 22 23  1  0
 24 14  1  6
 24 25  1  0
 25 26  2  0
 25 27  1  0
 27 28  1  0
 29 28  1  1
 29 30  1  0
 30 31  1  0
 31 32  1  0
 32 33  1  0
 24 34  1  0
 34 35  2  0
 35 36  1  0
 36 37  2  0
 37 38  1  0
 37 39  1  0
 39 40  2  0
 10 41  1  0
  6 42  1  0
 42 43  2  0
 43 44  1  0
 44 45  1  0
 43  3  1  0
 41  7  2  0
 23 18  1  0
 33 29  1  0
 40 34  1  0
M  END
>  <Binding energies>  (71) 
[-9.67]

>  <Ligand effiencies>  (71) 
[-0.21021739130434783]

>  <Interactions>  (71) 
["V-A:HIS:456:CD2:4068, V-B:GLU:543:CD:9880, H-B:LYS:547:NZ:9923, V-B:GLU:543:C:9874, V-B:HIS:456:CD2:9039, V-B:ARG:545:CZ:9898, H-A:GLU:543:OE1:4909, H-A:HIS:456:NE2:4070, V-B:HIS:456:CE1:9040, H-A:GLU:543:OE2:4910, V-A:GLU:543:CD:4908, H-B:GLY:454:N:9021, V-B:ASP:366:CG:8184, V-A:ALA:541:CA:4890, V-A:PRO:540:CA:4883, V-B:ILE:369:CD1:8210, H-B:ARG:545:NH1:9899, H-B:ARG:545:NH2:9900, V-A:PRO:540:C:4881, V-A:LEU:475:CD1:4258, V-A:ARG:545:CZ:4926, V-A:GLY:453:C:4042, V-A:GLY:454:CA:4049, V-A:ILE:369:CD1:3239, V-A:PRO:540:CB:4885, H-A:ALA:541:N:4891, V-A:ASN:362:CB:3176, V-A:HIS:456:CG:4066, V-A:TYR:484:CD2:4344, V-A:TYR:484:CE2:4346, V-A:HIS:456:CB:4065, V-A:TYR:484:CG:4342, V-A:ALA:541:C:4888, V-A:ASN:362:C:3172"]

$$$$
RR17_Rahimova_2017
     RDKit          3D

 38 41  0  0  0  0  0  0  0  0999 V2000
  130.7350  132.1610   57.2780 C   0  0  0  0  0  0  0  0  0  0  0  0
  129.3290  132.6280   57.6670 C   0  0  0  0  0  0  0  0  0  0  0  0
  128.9940  132.0650   58.9320 O   0  0  0  0  0  0  0  0  0  0  0  0
  127.6730  131.7680   59.2140 C   0  0  0  0  0  0  0  0  0  0  0  0
  126.9470  132.7450   59.8950 C   0  0  0  0  0  0  0  0  0  0  0  0
  125.6120  132.5360   60.2230 C   0  0  0  0  0  0  0  0  0  0  0  0
  124.9710  131.3390   59.8750 C   0  0  0  0  0  0  0  0  0  0  0  0
  123.5280  131.1420   60.2410 C   0  0  0  0  0  0  0  0  0  0  0  0
  122.6120  131.2970   59.4280 O   0  0  0  0  0  0  0  0  0  0  0  0
  123.2230  130.7480   61.7040 C   0  0  0  0  0  0  0  0  0  0  0  0
  124.0060  131.8860   62.9020 S   0  0  0  0  0  0  0  0  0  0  0  0
  124.5210  130.7240   64.1350 C   0  0  0  0  0  0  0  0  0  0  0  0
  123.7260  130.1080   64.9780 N   0  0  0  0  0  0  0  0  0  0  0  0
  124.5080  129.2780   65.7710 N   0  0  0  0  0  0  0  0  0  0  0  0
  125.7480  129.4210   65.3750 C   0  0  0  0  0  0  0  0  0  0  0  0
  126.9360  128.6820   65.9710 C   0  0  0  0  0  0  0  0  0  0  0  0
  126.5750  127.4530   66.6740 N   0  0  0  0  0  0  0  0  0  0  0  0
  127.3490  126.8840   67.7010 C   0  0  0  0  0  0  0  0  0  0  0  0
  126.7630  126.7730   68.9610 C   0  0  0  0  0  0  0  0  0  0  0  0
  127.4750  126.2250   70.0230 C   0  0  0  0  0  0  0  0  0  0  0  0
  128.7850  125.7750   69.8360 C   0  0  0  0  0  0  0  0  0  0  0  0
  129.5560  125.1810   71.0140 C   0  0  0  0  0  0  0  0  0  0  0  0
  130.1050  126.1220   71.7850 F   0  0  0  0  0  0  0  0  0  0  0  0
  128.7460  124.4460   71.7770 F   0  0  0  0  0  0  0  0  0  0  0  0
  130.5310  124.4000   70.5490 F   0  0  0  0  0  0  0  0  0  0  0  0
  129.3720  125.8780   68.5700 C   0  0  0  0  0  0  0  0  0  0  0  0
  128.6590  126.4250   67.5080 C   0  0  0  0  0  0  0  0  0  0  0  0
  125.8290  130.3350   64.3440 N   0  0  0  0  0  0  0  0  0  0  0  0
  126.9750  130.7490   63.6490 C   0  0  0  0  0  0  0  0  0  0  0  0
  127.2990  132.1040   63.6010 C   0  0  0  0  0  0  0  0  0  0  0  0
  128.4340  132.5140   62.9090 C   0  0  0  0  0  0  0  0  0  0  0  0
  129.2490  131.5700   62.2620 C   0  0  0  0  0  0  0  0  0  0  0  0
  130.3920  131.8840   61.5530 O   0  0  0  0  0  0  0  0  0  0  0  0
  131.1860  130.8330   61.0140 C   0  0  0  0  0  0  0  0  0  0  0  0
  128.9070  130.2170   62.3190 C   0  0  0  0  0  0  0  0  0  0  0  0
  127.7740  129.8000   63.0110 C   0  0  0  0  0  0  0  0  0  0  0  0
  125.7010  130.3570   59.1890 C   0  0  0  0  0  0  0  0  0  0  0  0
  127.0380  130.5690   58.8610 C   0  0  0  0  0  0  0  0  0  0  0  0
  1  2  1  0
  2  3  1  0
  3  4  1  0
  4  5  2  0
  5  6  1  0
  6  7  2  0
  7  8  1  0
  8  9  2  0
  8 10  1  0
 10 11  1  0
 11 12  1  0
 12 13  2  0
 13 14  1  0
 14 15  2  0
 15 16  1  0
 16 17  1  0
 17 18  1  0
 18 19  2  0
 19 20  1  0
 20 21  2  0
 21 22  1  0
 22 23  1  0
 22 24  1  0
 22 25  1  0
 21 26  1  0
 26 27  2  0
 15 28  1  0
 28 29  1  0
 29 30  2  0
 30 31  1  0
 31 32  2  0
 32 33  1  0
 33 34  1  0
 32 35  1  0
 35 36  2  0
  7 37  1  0
 37 38  2  0
 38  4  1  0
 28 12  1  0
 36 29  1  0
 27 18  1  0
M  END
>  <Binding energies>  (72) 
[-8.5]

>  <Ligand effiencies>  (72) 
[-0.21794871794871795]

>  <Interactions>  (72) 
["V-B:ARG:545:CG:9894, V-A:HIS:456:CD2:4068, V-B:GLU:543:CD:9880, V-B:GLU:543:C:9874, V-B:GLU:543:CB:9878, V-A:HIS:456:CE1:4069, V-B:HIS:456:CE1:9040, V-A:GLU:543:CD:4908, H-B:GLY:454:N:9021, V-A:PRO:540:N:4884, V-A:TYR:539:C:4867, V-B:GLY:454:CA:9020, V-B:ASP:366:CG:8184, V-B:ASP:366:CA:8181, V-B:ASP:366:CB:8183, V-B:LEU:475:CD1:9229, V-A:PRO:540:CA:4883, V-B:ILE:369:CD1:8210, V-A:TYR:539:CE2:4876, V-A:ALA:541:CB:4892, H-B:TYR:484:OH:9319, V-B:ILE:369:CG2:8208, H-B:ARG:545:NH2:9900, V-A:TYR:539:CD2:4874, H-B:ARG:545:NE:9896, V-A:TYR:484:CZ:4347, V-A:TYR:484:CE1:4345, V-A:TYR:539:CZ:4877, V-A:PRO:540:CB:4885, V-B:GLY:544:C:9884, V-B:ARG:545:CA:9891, H-A:ALA:541:N:4891, V-A:HIS:456:CG:4066, H-B:GLU:543:OE1:9881, V-A:TYR:484:CE2:4346, V-A:PRO:540:CD:4887, V-A:TYR:539:CE1:4875, V-A:TYR:539:CG:4872, V-B:LYS:547:CE:9922, V-B:GLY:544:CA:9886, V-A:TYR:539:CD1:4873"]

$$$$
RR19_Rahimova_2017
     RDKit          3D

 46 51  0  0  0  0  0  0  0  0999 V2000
  128.8660  125.2180   59.5250 O   0  0  0  0  0  0  0  0  0  0  0  0
  128.4840  125.6590   60.6130 C   0  0  0  0  0  0  0  0  0  0  0  0
  127.6920  126.7460   60.7980 N   0  0  0  0  0  0  0  0  0  0  0  0
  126.9360  127.5100   59.9430 C   0  0  0  0  0  0  0  0  0  0  0  0
  126.5800  127.1260   58.3330 S   0  0  0  0  0  0  0  0  0  0  0  0
  126.5170  128.6330   60.6110 N   0  0  0  0  0  0  0  0  0  0  0  0
  125.6500  129.6280   60.2940 C   0  0  0  0  0  0  0  0  0  0  0  0
  124.8690  129.6410   59.3400 O   0  0  0  0  0  0  0  0  0  0  0  0
  125.7120  130.8450   61.2510 C   0  0  2  0  0  0  0  0  0  0  0  0
  126.9630  131.7530   61.0720 C   0  0  0  0  0  0  0  0  0  0  0  0
  126.6960  133.2470   61.1630 C   0  0  0  0  0  0  0  0  0  0  0  0
  125.3760  133.7480   61.1720 C   0  0  0  0  0  0  0  0  0  0  0  0
  125.1510  135.1080   61.3350 C   0  0  0  0  0  0  0  0  0  0  0  0
  126.2190  135.9800   61.5100 C   0  0  0  0  0  0  0  0  0  0  0  0
  127.5210  135.4980   61.5330 C   0  0  0  0  0  0  0  0  0  0  0  0
  127.7680  134.1410   61.3740 C   0  0  0  0  0  0  0  0  0  0  0  0
  125.5400  130.4260   62.6690 N   0  0  0  0  0  0  0  0  0  0  0  0
  124.3770  130.6610   63.3410 C   0  0  0  0  0  0  0  0  0  0  0  0
  123.3740  131.2390   62.9190 O   0  0  0  0  0  0  0  0  0  0  0  0
  124.5700  130.0680   64.6880 C   0  0  0  0  0  0  0  0  0  0  0  0
  123.7210  130.0120   65.7930 C   0  0  0  0  0  0  0  0  0  0  0  0
  124.1710  129.3720   66.9530 C   0  0  0  0  0  0  0  0  0  0  0  0
  125.4510  128.8000   66.9920 C   0  0  0  0  0  0  0  0  0  0  0  0
  126.2870  128.8660   65.8720 C   0  0  0  0  0  0  0  0  0  0  0  0
  125.8190  129.5110   64.7260 C   0  0  0  0  0  0  0  0  0  0  0  0
  126.4580  129.7300   63.4050 C   0  0  0  0  0  0  0  0  0  0  0  0
  127.5750  129.3540   63.0480 O   0  0  0  0  0  0  0  0  0  0  0  0
  128.9270  124.9560   61.9230 C   0  0  2  0  0  0  0  0  0  0  0  0
  129.8590  125.8220   62.8190 C   0  0  0  0  0  0  0  0  0  0  0  0
  129.5550  125.7220   64.3030 C   0  0  0  0  0  0  0  0  0  0  0  0
  129.8810  124.5470   65.0150 C   0  0  0  0  0  0  0  0  0  0  0  0
  129.6960  124.4950   66.3910 C   0  0  0  0  0  0  0  0  0  0  0  0
  129.2170  125.6040   67.0750 C   0  0  0  0  0  0  0  0  0  0  0  0
  128.9290  126.7800   66.3930 C   0  0  0  0  0  0  0  0  0  0  0  0
  129.1060  126.8520   65.0180 C   0  0  0  0  0  0  0  0  0  0  0  0
  129.4940  123.5950   61.7020 N   0  0  0  0  0  0  0  0  0  0  0  0
  128.6960  122.5180   61.4540 C   0  0  0  0  0  0  0  0  0  0  0  0
  127.4660  122.4980   61.3970 O   0  0  0  0  0  0  0  0  0  0  0  0
  129.6250  121.3760   61.2670 C   0  0  0  0  0  0  0  0  0  0  0  0
  129.3750  120.0290   60.9960 C   0  0  0  0  0  0  0  0  0  0  0  0
  130.4630  119.1590   60.8660 C   0  0  0  0  0  0  0  0  0  0  0  0
  131.7720  119.6400   61.0030 C   0  0  0  0  0  0  0  0  0  0  0  0
  132.0020  120.9940   61.2730 C   0  0  0  0  0  0  0  0  0  0  0  0
  130.9030  121.8450   61.4020 C   0  0  0  0  0  0  0  0  0  0  0  0
  130.8270  123.3000   61.6770 C   0  0  0  0  0  0  0  0  0  0  0  0
  131.7680  124.0770   61.8480 O   0  0  0  0  0  0  0  0  0  0  0  0
  1  2  2  0
  2  3  1  0
  3  4  1  0
  4  5  2  0
  4  6  1  0
  6  7  1  0
  7  8  2  0
  7  9  1  0
  9 10  1  1
 10 11  1  0
 11 12  2  0
 12 13  1  0
 13 14  2  0
 14 15  1  0
 15 16  2  0
  9 17  1  0
 17 18  1  0
 18 19  2  0
 18 20  1  0
 20 21  2  0
 21 22  1  0
 22 23  2  0
 23 24  1  0
 24 25  2  0
 25 26  1  0
 26 27  2  0
  2 28  1  0
 28 29  1  6
 29 30  1  0
 30 31  2  0
 31 32  1  0
 32 33  2  0
 33 34  1  0
 34 35  2  0
 28 36  1  0
 36 37  1  0
 37 38  2  0
 37 39  1  0
 39 40  2  0
 40 41  1  0
 41 42  2  0
 42 43  1  0
 43 44  2  0
 44 45  1  0
 45 46  2  0
 16 11  1  0
 26 17  1  0
 35 30  1  0
 45 36  1  0
 25 20  1  0
 44 39  1  0
M  END
>  <Binding energies>  (73) 
[-11.3]

>  <Ligand effiencies>  (73) 
[-0.2354166666666667]

>  <Interactions>  (73) 
["V-B:ARG:545:CG:9894, V-B:GLU:543:CD:9880, V-B:GLU:543:CB:9878, V-A:HIS:456:CE1:4069, V-B:ARG:545:CZ:9898, V-B:ARG:545:CD:9895, V-B:HIS:456:CE1:9040, V-B:GLU:543:CG:9879, V-B:ILE:455:C:9023, V-A:GLU:543:CD:4908, V-B:TRP:381:CH2:8343, H-B:GLY:454:N:9021, V-B:GLY:454:CA:9020, V-B:ASP:366:CG:8184, V-B:PRO:482:CG:9298, V-B:LEU:475:CD1:9229, V-B:PRO:482:CB:9297, V-A:TYR:539:CE2:4876, V-A:ALA:541:CB:4892, V-B:GLY:453:C:9013, V-B:ALA:541:CB:9864, V-B:GLU:543:CA:9876, V-A:TYR:484:CZ:4347, V-A:LEU:475:CD1:4258, V-A:TYR:484:CE1:4345, H-B:ALA:541:N:9863, V-B:TRP:381:CZ2:8341, V-B:TRP:381:CZ3:8342, V-B:TYR:539:CD2:9846, V-A:PRO:482:CG:4327, V-A:TRP:381:CZ2:3370, V-B:ALA:541:CA:9862, V-A:TRP:381:CH2:3372, V-A:PRO:482:CB:4326, V-B:TYR:539:C:9839, H-B:GLU:543:OE1:9881, V-B:PRO:540:C:9853, H-B:GLU:543:OE2:9882"]

$$$$
RR1_Rahimova_2017
     RDKit          3D

 41 44  0  0  0  0  0  0  0  0999 V2000
  134.1460  123.5930   59.7190 C   0  0  0  0  0  0  0  0  0  0  0  0
  134.2660  122.8550   60.9300 O   0  0  0  0  0  0  0  0  0  0  0  0
  133.5520  123.2610   62.0410 C   0  0  0  0  0  0  0  0  0  0  0  0
  133.0770  122.3940   63.0370 C   0  0  0  0  0  0  0  0  0  0  0  0
  132.3590  122.8940   64.1190 C   0  0  0  0  0  0  0  0  0  0  0  0
  132.1090  124.2630   64.2290 C   0  0  0  0  0  0  0  0  0  0  0  0
  131.3350  124.6650   65.3340 N   0  0  0  0  0  0  0  0  0  0  0  0
  130.2650  125.4870   65.3750 C   0  0  0  0  0  0  0  0  0  0  0  0
  129.8140  126.1000   64.4070 O   0  0  0  0  0  0  0  0  0  0  0  0
  129.6160  125.6240   66.7620 C   0  0  0  0  0  0  0  0  0  0  0  0
  129.9910  127.1750   67.6520 S   0  0  0  0  0  0  0  0  0  0  0  0
  128.7100  127.0750   68.8580 C   0  0  0  0  0  0  0  0  0  0  0  0
  128.9180  126.9960   70.1480 N   0  0  0  0  0  0  0  0  0  0  0  0
  127.6940  126.9540   70.6650 C   0  0  0  0  0  0  0  0  0  0  0  0
  127.4490  126.8750   72.1450 C   0  0  0  0  0  0  0  0  0  0  0  0
  126.2940  127.4200   72.7290 C   0  0  0  0  0  0  0  0  0  0  0  0
  126.0960  127.3330   74.1080 C   0  0  0  0  0  0  0  0  0  0  0  0
  127.0660  126.6970   74.8800 C   0  0  0  0  0  0  0  0  0  0  0  0
  128.1940  126.1600   74.3500 N   0  0  0  0  0  0  0  0  0  0  0  0
  128.3670  126.2540   73.0070 C   0  0  0  0  0  0  0  0  0  0  0  0
  126.7080  126.9920   69.7890 N   0  0  0  0  0  0  0  0  0  0  0  0
  127.3590  127.0680   68.6240 N   0  0  0  0  0  0  0  0  0  0  0  0
  126.6210  127.1560   67.3640 C   0  0  0  0  0  0  0  0  0  0  0  0
  126.8290  128.4630   66.5790 C   0  0  0  0  0  0  0  0  0  0  0  0
  127.8670  129.1220   66.7100 O   0  0  0  0  0  0  0  0  0  0  0  0
  125.8100  128.8070   65.7690 N   0  0  0  0  0  0  0  0  0  0  0  0
  125.9860  129.8910   64.9200 N   0  0  0  0  0  0  0  0  0  0  0  0
  124.8990  130.3780   64.2850 C   0  0  0  0  0  0  0  0  0  0  0  0
  123.7440  129.9880   64.4890 O   0  0  0  0  0  0  0  0  0  0  0  0
  125.1630  131.4900   63.2890 C   0  0  0  0  0  0  0  0  0  0  0  0
  124.0930  132.1940   62.7270 C   0  0  0  0  0  0  0  0  0  0  0  0
  124.3130  133.2090   61.8030 C   0  0  0  0  0  0  0  0  0  0  0  0
  125.6160  133.5480   61.4040 C   0  0  0  0  0  0  0  0  0  0  0  0
  125.9020  134.5370   60.4800 O   0  0  0  0  0  0  0  0  0  0  0  0
  126.6830  135.6600   60.8740 C   0  0  0  0  0  0  0  0  0  0  0  0
  126.7010  132.8500   61.9500 C   0  0  0  0  0  0  0  0  0  0  0  0
  127.9640  133.2090   61.5090 O   0  0  0  0  0  0  0  0  0  0  0  0
  128.4390  132.7190   60.2600 C   0  0  0  0  0  0  0  0  0  0  0  0
  126.4660  131.8300   62.8890 C   0  0  0  0  0  0  0  0  0  0  0  0
  132.5820  125.1330   63.2350 C   0  0  0  0  0  0  0  0  0  0  0  0
  133.3010  124.6290   62.1550 C   0  0  0  0  0  0  0  0  0  0  0  0
  1  2  1  0
  2  3  1  0
  3  4  2  0
  4  5  1  0
  5  6  2  0
  6  7  1  0
  7  8  1  0
  8  9  2  0
  8 10  1  0
 10 11  1  0
 11 12  1  0
 12 13  2  0
 13 14  1  0
 14 15  1  0
 15 16  2  0
 16 17  1  0
 17 18  2  0
 18 19  1  0
 19 20  2  0
 14 21  2  0
 21 22  1  0
 22 23  1  0
 23 24  1  0
 24 25  2  0
 24 26  1  0
 26 27  1  0
 27 28  1  0
 28 29  2  0
 28 30  1  0
 30 31  2  0
 31 32  1  0
 32 33  2  0
 33 34  1  0
 34 35  1  0
 33 36  1  0
 36 37  1  0
 37 38  1  0
 36 39  2  0
  6 40  1  0
 40 41  2  0
 41  3  1  0
 22 12  1  0
 39 30  1  0
 20 15  1  0
M  END
>  <Binding energies>  (74) 
[-9.09]

>  <Ligand effiencies>  (74) 
[-0.20659090909090908]

>  <Interactions>  (74) 
["V-B:ARG:545:CG:9894, H-B:LYS:547:NZ:9923, V-B:HIS:456:CD2:9039, V-B:GLU:543:CB:9878, V-A:HIS:456:CE1:4069, H-A:HIS:456:NE2:4070, V-B:HIS:456:CE1:9040, V-B:TRP:381:CH2:8343, H-B:GLY:454:N:9021, V-B:GLY:454:CA:9020, V-B:PRO:482:CG:9298, V-B:LEU:475:CD1:9229, V-A:PRO:540:CA:4883, V-B:ILE:369:CD1:8210, H-B:ARG:545:NH1:9899, V-A:TYR:539:CE2:4876, H-B:TYR:484:OH:9319, H-B:ARG:545:NH2:9900, V-A:TYR:539:CD2:4874, H-B:ARG:545:NE:9896, V-A:TYR:484:CZ:4347, V-A:LEU:475:CD1:4258, V-A:ARG:545:CZ:4926, H-A:TYR:484:OH:4348, V-A:GLY:454:CA:4049, V-A:ASP:366:CB:3212, V-A:ASP:366:CG:3213, V-A:ILE:369:CB:3236, V-A:ILE:369:CG2:3237, V-A:ASP:366:CA:3210, V-A:ILE:369:CD1:3239, V-B:TRP:381:CZ2:8341, V-B:TRP:381:CZ3:8342, V-B:GLY:544:C:9884, H-B:ARG:545:N:9892, H-B:GLU:543:OE1:9881, V-B:HIS:456:CB:9036, V-B:LYS:547:CD:9921, V-B:HIS:456:CG:9037"]

$$$$
RR22_Rahimova_2017
     RDKit          3D

 31 36  0  0  0  0  0  0  0  0999 V2000
  134.4760  125.1100   64.8150 O   0  0  0  0  0  0  0  0  0  0  0  0
  133.2890  125.0630   64.5030 C   0  0  0  0  0  0  0  0  0  0  0  0
  132.2640  125.8760   64.9550 N   0  0  0  0  0  0  0  0  0  0  0  0
  130.9360  125.7280   64.4440 C   0  0  1  0  0  0  0  0  0  0  0  0
  130.1120  125.5200   65.5940 O   0  0  0  0  0  0  0  0  0  0  0  0
  129.0820  126.4270   65.8450 C   0  0  0  0  0  0  0  0  0  0  0  0
  128.5480  126.4200   67.1330 C   0  0  0  0  0  0  0  0  0  0  0  0
  127.4880  127.2710   67.4480 C   0  0  0  0  0  0  0  0  0  0  0  0
  126.9600  128.1200   66.4750 C   0  0  0  0  0  0  0  0  0  0  0  0
  127.4950  128.1260   65.1850 C   0  0  0  0  0  0  0  0  0  0  0  0
  128.5730  127.2960   64.8620 C   0  0  0  0  0  0  0  0  0  0  0  0
  129.1940  127.1970   63.4870 C   0  0  1  0  0  0  0  0  0  0  0  0
  129.2620  128.3760   62.5370 C   0  0  0  0  0  0  0  0  0  0  0  0
  130.5420  128.0240   61.7740 C   0  0  0  0  0  0  0  0  0  0  0  0
  130.8840  128.6230   60.4690 C   0  0  0  0  0  0  0  0  0  0  0  0
  130.8590  127.8490   59.2990 C   0  0  0  0  0  0  0  0  0  0  0  0
  131.1810  128.4200   58.0710 C   0  0  0  0  0  0  0  0  0  0  0  0
  131.5300  129.7660   58.0040 C   0  0  0  0  0  0  0  0  0  0  0  0
  131.5600  130.5480   59.1560 C   0  0  0  0  0  0  0  0  0  0  0  0
  131.2370  129.9790   60.3850 C   0  0  0  0  0  0  0  0  0  0  0  0
  131.2530  127.1840   62.4280 N   0  0  0  0  0  0  0  0  0  0  0  0
  130.5880  126.9050   63.6340 N   0  0  0  0  0  0  0  0  0  0  0  0
  130.9210  124.4340   63.6430 C   0  0  0  0  0  0  0  0  0  0  0  0
  129.7780  123.7930   63.3000 C   0  0  0  0  0  0  0  0  0  0  0  0
  129.6200  122.5530   62.5160 C   0  0  0  0  0  0  0  0  0  0  0  0
  130.4140  121.4150   62.7110 C   0  0  0  0  0  0  0  0  0  0  0  0
  130.2070  120.2770   61.9300 C   0  0  0  0  0  0  0  0  0  0  0  0
  129.2040  120.3090   60.9610 C   0  0  0  0  0  0  0  0  0  0  0  0
  128.4260  121.3980   60.7440 N   0  0  0  0  0  0  0  0  0  0  0  0
  128.6430  122.4950   61.5150 C   0  0  0  0  0  0  0  0  0  0  0  0
  132.5690  123.8690   63.3350 S   0  0  0  0  0  0  0  0  0  0  0  0
  1  2  2  0
  2  3  1  0
  4  3  1  1
  4  5  1  0
  5  6  1  0
  6  7  2  0
  7  8  1  0
  8  9  2  0
  9 10  1  0
 10 11  2  0
 11 12  1  0
 12 13  1  1
 13 14  1  0
 14 15  1  0
 15 16  2  0
 16 17  1  0
 17 18  2  0
 18 19  1  0
 19 20  2  0
 14 21  2  0
 21 22  1  0
  4 23  1  0
 23 24  2  0
 24 25  1  0
 25 26  2  0
 26 27  1  0
 27 28  2  0
 28 29  1  0
 29 30  2  0
 23 31  1  0
 31  2  1  0
 22  4  1  0
 30 25  1  0
 11  6  1  0
 22 12  1  0
 20 15  1  0
M  END
>  <Binding energies>  (75) 
[-8.44]

>  <Ligand effiencies>  (75) 
[-0.26375]

>  <Interactions>  (75) 
["V-B:GLU:543:CD:9880, V-B:GLU:543:CB:9878, V-A:HIS:456:CE1:4069, V-B:HIS:456:CE1:9040, V-B:GLU:543:CG:9879, H-A:GLU:543:OE2:4910, V-A:GLU:543:CD:4908, V-B:ALA:541:CB:9864, V-A:LEU:475:CD1:4258, H-A:GLY:454:N:4050, V-A:ARG:545:CZ:4926, H-A:ARG:545:NH2:4928, H-A:ARG:545:NE:4924, H-A:ARG:545:NH1:4927, H-B:ALA:541:N:9863, V-A:PRO:540:CB:4885, V-B:TYR:539:CD2:9846, V-A:PRO:482:CG:4327, V-B:ALA:541:CA:9862, V-A:PRO:482:CB:4326, V-B:TYR:539:C:9839, V-B:PRO:540:C:9853"]

$$$$
RR24_Rahimova_2017
     RDKit          3D

 43 49  0  0  0  0  0  0  0  0999 V2000
  122.5430  130.7710   62.2260 C   0  0  0  0  0  0  0  0  0  0  0  0
  124.0070  130.6700   62.6760 C   0  0  2  0  0  0  0  0  0  0  0  0
  124.1630  130.3250   64.1870 C   0  0  0  0  0  0  0  0  0  0  0  0
  123.3100  129.6770   64.8020 O   0  0  0  0  0  0  0  0  0  0  0  0
  125.3080  130.8380   64.7250 O   0  0  0  0  0  0  0  0  0  0  0  0
  126.3150  129.9860   65.1180 C   0  0  0  0  0  0  0  0  0  0  0  0
  126.0180  128.9230   65.9730 C   0  0  0  0  0  0  0  0  0  0  0  0
  127.0260  128.0490   66.3690 C   0  0  0  0  0  0  0  0  0  0  0  0
  128.3330  128.2290   65.9060 C   0  0  0  0  0  0  0  0  0  0  0  0
  129.4430  127.2740   66.3620 C   0  0  1  0  0  0  0  0  0  0  0  0
  129.3850  127.0050   67.8840 C   0  0  0  0  0  0  0  0  0  0  0  0
  129.3920  125.7640   68.4040 C   0  0  0  0  0  0  0  0  0  0  0  0
  129.4510  124.6400   67.6170 N   0  0  0  0  0  0  0  0  0  0  0  0
  129.5040  124.7300   66.2460 C   0  0  0  0  0  0  0  0  0  0  0  0
  129.5670  123.5290   65.6160 N   0  0  0  0  0  0  0  0  0  0  0  0
  129.5470  123.4160   64.2600 C   0  0  0  0  0  0  0  0  0  0  0  0
  129.2870  122.3250   63.7500 O   0  0  0  0  0  0  0  0  0  0  0  0
  129.6660  124.6240   63.5910 N   0  0  0  0  0  0  0  0  0  0  0  0
  129.7410  124.5510   62.1170 C   0  0  0  0  0  0  0  0  0  0  0  0
  129.6110  125.8980   64.1300 C   0  0  0  0  0  0  0  0  0  0  0  0
  129.6730  126.9360   63.4640 O   0  0  0  0  0  0  0  0  0  0  0  0
  129.4960  125.9210   65.5920 C   0  0  0  0  0  0  0  0  0  0  0  0
  129.3290  125.8110   69.8550 C   0  0  0  0  0  0  0  0  0  0  0  0
  129.3060  124.8210   70.8390 C   0  0  0  0  0  0  0  0  0  0  0  0
  129.2400  125.1980   72.1830 C   0  0  0  0  0  0  0  0  0  0  0  0
  129.1990  126.5510   72.5340 C   0  0  0  0  0  0  0  0  0  0  0  0
  129.2230  127.5370   71.5440 C   0  0  0  0  0  0  0  0  0  0  0  0
  129.2870  127.1550   70.2030 C   0  0  0  0  0  0  0  0  0  0  0  0
  129.3270  127.9730   68.9730 C   0  0  0  0  0  0  0  0  0  0  0  0
  129.3160  129.1960   68.8410 O   0  0  0  0  0  0  0  0  0  0  0  0
  128.6240  129.2830   65.0350 C   0  0  0  0  0  0  0  0  0  0  0  0
  127.6150  130.1560   64.6360 C   0  0  0  0  0  0  0  0  0  0  0  0
  124.7990  131.8740   62.2840 N   0  0  0  0  0  0  0  0  0  0  0  0
  126.1330  131.7940   62.0190 C   0  0  0  0  0  0  0  0  0  0  0  0
  126.8470  130.7900   62.0670 O   0  0  0  0  0  0  0  0  0  0  0  0
  126.5480  133.1730   61.6610 C   0  0  0  0  0  0  0  0  0  0  0  0
  127.7940  133.6880   61.3000 C   0  0  0  0  0  0  0  0  0  0  0  0
  127.8950  135.0520   61.0060 C   0  0  0  0  0  0  0  0  0  0  0  0
  126.7640  135.8750   61.0750 C   0  0  0  0  0  0  0  0  0  0  0  0
  125.5230  135.3400   61.4380 C   0  0  0  0  0  0  0  0  0  0  0  0
  125.4430  133.9770   61.7280 C   0  0  0  0  0  0  0  0  0  0  0  0
  124.2900  133.1340   62.1320 C   0  0  0  0  0  0  0  0  0  0  0  0
  123.1230  133.4940   62.2910 O   0  0  0  0  0  0  0  0  0  0  0  0
  2  1  1  1
  2  3  1  0
  3  4  2  0
  3  5  1  0
  5  6  1  0
  6  7  2  0
  7  8  1  0
  8  9  2  0
 10  9  1  6
 10 11  1  0
 11 12  2  0
 12 13  1  0
 13 14  1  0
 14 15  1  0
 15 16  1  0
 16 17  2  0
 16 18  1  0
 18 19  1  0
 18 20  1  0
 20 21  2  0
 20 22  1  0
 12 23  1  0
 23 24  2  0
 24 25  1  0
 25 26  2  0
 26 27  1  0
 27 28  2  0
 28 29  1  0
 29 30  2  0
  9 31  1  0
 31 32  2  0
  2 33  1  0
 33 34  1  0
 34 35  2  0
 34 36  1  0
 36 37  2  0
 37 38  1  0
 38 39  2  0
 39 40  1  0
 40 41  2  0
 41 42  1  0
 42 43  2  0
 32  6  1  0
 42 33  1  0
 22 10  1  0
 28 23  1  0
 41 36  1  0
 29 11  1  0
 22 14  2  0
M  END
>  <Binding energies>  (76) 
[-10.56]

>  <Ligand effiencies>  (76) 
[-0.2346666666666667]

>  <Interactions>  (76) 
["H-B:HIS:456:NE2:9041, V-A:HIS:456:CD2:4068, V-B:GLU:543:CD:9880, V-B:GLU:543:C:9874, V-B:GLU:543:CB:9878, V-A:HIS:456:CE1:4069, V-B:ARG:545:CZ:9898, V-B:HIS:456:CE1:9040, V-B:GLU:543:CG:9879, V-A:GLU:543:CG:4907, V-A:GLU:543:CD:4908, V-B:TRP:381:CH2:8343, H-B:GLY:454:N:9021, V-A:TYR:539:C:4867, V-B:GLY:454:CA:9020, V-B:ASP:366:CG:8184, V-B:PRO:482:CG:9298, V-B:LEU:475:CD1:9229, V-B:PRO:482:CB:9297, V-B:ILE:369:CD1:8210, H-B:ARG:545:NH1:9899, V-A:ALA:541:CB:4892, H-B:TYR:484:OH:9319, H-B:ARG:545:NH2:9900, V-A:TYR:539:CD2:4874, V-A:PRO:540:C:4881, V-B:GLY:453:CA:9015, V-B:GLY:453:C:9013, V-B:ALA:541:CB:9864, V-B:GLU:543:CA:9876, H-B:ARG:545:NE:9896, V-A:TYR:484:CZ:4347, V-A:GLU:543:CB:4906, V-A:TYR:484:CE1:4345, H-A:TYR:484:OH:4348, V-B:TRP:381:CZ2:8341, V-B:TRP:381:CZ3:8342, H-B:GLU:543:O:9875"]

$$$$
RR25_Rahimova_2017
     RDKit          3D

 39 44  0  0  0  0  0  0  0  0999 V2000
  123.4300  130.3160   66.3620 O   0  0  0  0  0  0  0  0  0  0  0  0
  124.1170  130.1130   65.3600 C   0  0  0  0  0  0  0  0  0  0  0  0
  123.5120  130.3530   64.1510 O   0  0  0  0  0  0  0  0  0  0  0  0
  124.2410  130.4040   62.9760 C   0  0  0  0  0  0  0  0  0  0  0  0
  123.7060  131.1660   61.9390 C   0  0  0  0  0  0  0  0  0  0  0  0
  124.3830  131.2540   60.7250 C   0  0  0  0  0  0  0  0  0  0  0  0
  125.5990  130.5810   60.5290 C   0  0  0  0  0  0  0  0  0  0  0  0
  126.3220  130.6830   59.2370 N   0  0  0  0  0  0  0  0  0  0  0  0
  125.9970  129.9330   58.3210 O   0  0  0  0  0  0  0  0  0  0  0  0
  127.2200  131.5140   59.1310 O   0  0  0  0  0  0  0  0  0  0  0  0
  126.1140  129.8090   61.5830 C   0  0  0  0  0  0  0  0  0  0  0  0
  125.4430  129.7040   62.8040 C   0  0  0  0  0  0  0  0  0  0  0  0
  125.9640  128.8920   63.9760 C   0  0  0  0  0  0  0  0  0  0  0  0
  125.5840  129.5940   65.3100 C   0  0  2  0  0  0  0  0  0  0  0  0
  126.0160  128.7390   66.5370 C   0  0  0  0  0  0  0  0  0  0  0  0
  125.1590  128.5730   67.4100 O   0  0  0  0  0  0  0  0  0  0  0  0
  127.2240  128.1030   66.5910 N   0  0  0  0  0  0  0  0  0  0  0  0
  128.3780  128.5020   65.7570 C   0  0  0  0  0  0  0  0  0  0  0  0
  129.1540  127.2370   65.3340 C   0  0  0  0  0  0  0  0  0  0  0  0
  129.5430  126.4350   66.4970 N   0  0  0  0  0  0  0  0  0  0  0  0
  130.3950  125.3020   66.1090 C   0  0  0  0  0  0  0  0  0  0  0  0
  131.1810  125.5620   64.7960 C   0  0  0  0  0  0  0  0  0  0  0  0
  131.2610  124.4170   63.8420 N   0  0  0  0  0  0  0  0  0  0  0  0
  132.5220  123.8920   63.6570 C   0  0  0  0  0  0  0  0  0  0  0  0
  133.5320  124.3480   64.2060 O   0  0  0  0  0  0  0  0  0  0  0  0
  132.5760  122.6880   62.7360 C   0  0  0  0  0  0  0  0  0  0  0  0
  133.8050  122.0590   62.4980 C   0  0  0  0  0  0  0  0  0  0  0  0
  133.8890  120.9460   61.6630 C   0  0  0  0  0  0  0  0  0  0  0  0
  132.7540  120.4250   61.0450 C   0  0  0  0  0  0  0  0  0  0  0  0
  131.4910  121.0280   61.2560 C   0  0  0  0  0  0  0  0  0  0  0  0
  130.2980  120.5510   60.6620 C   0  0  0  0  0  0  0  0  0  0  0  0
  129.0860  121.1910   60.9140 C   0  0  0  0  0  0  0  0  0  0  0  0
  129.0250  122.3040   61.7500 C   0  0  0  0  0  0  0  0  0  0  0  0
  130.1790  122.8120   62.3600 C   0  0  0  0  0  0  0  0  0  0  0  0
  131.4160  122.1650   62.1080 C   0  0  0  0  0  0  0  0  0  0  0  0
  130.0690  124.0200   63.2700 C   0  0  0  0  0  0  0  0  0  0  0  0
  128.9910  124.5830   63.4850 O   0  0  0  0  0  0  0  0  0  0  0  0
  128.3490  125.9910   67.2180 C   0  0  0  0  0  0  0  0  0  0  0  0
  127.5070  127.1880   67.7210 C   0  0  0  0  0  0  0  0  0  0  0  0
  1  2  2  0
  2  3  1  0
  3  4  1  0
  4  5  2  0
  5  6  1  0
  6  7  2  0
  7  8  1  0
  8  9  2  0
  8 10  1  0
  7 11  1  0
 11 12  2  0
 12 13  1  0
 13 14  1  0
 14 15  1  1
 15 16  2  0
 15 17  1  0
 17 18  1  0
 18 19  1  0
 19 20  1  0
 20 21  1  0
 21 22  1  0
 22 23  1  0
 23 24  1  0
 24 25  2  0
 24 26  1  0
 26 27  2  0
 27 28  1  0
 28 29  2  0
 29 30  1  0
 30 31  2  0
 31 32  1  0
 32 33  2  0
 33 34  1  0
 34 35  2  0
 34 36  1  0
 36 37  2  0
 20 38  1  0
 38 39  1  0
 14  2  1  0
 39 17  1  0
 12  4  1  0
 36 23  1  0
 35 26  1  0
 35 30  1  0
M  CHG  2   8   1  10  -1
M  END
>  <Binding energies>  (77) 
[-11.21]

>  <Ligand effiencies>  (77) 
[-0.2874358974358975]

>  <Interactions>  (77) 
["V-B:ARG:545:CG:9894, V-B:GLU:543:CD:9880, V-B:GLU:543:C:9874, V-B:GLU:543:CB:9878, V-A:HIS:456:CE1:4069, V-B:ARG:545:CZ:9898, V-B:ARG:545:CD:9895, V-B:HIS:456:CE1:9040, V-B:GLU:543:CG:9879, V-A:GLU:543:CD:4908, H-B:GLY:454:N:9021, V-B:GLY:454:CA:9020, V-B:ILE:369:CD1:8210, H-B:ARG:545:NH1:9899, H-B:ILE:455:N:9026, H-B:TYR:484:OH:9319, H-B:ARG:545:NH2:9900, V-B:ALA:541:CB:9864, V-B:GLU:543:CA:9876, H-B:ARG:545:NE:9896, V-A:LEU:475:CD1:4258, V-A:GLU:543:CB:4906, H-A:GLY:454:N:4050, V-A:GLY:454:CA:4049, V-B:TYR:539:CE2:9848, V-A:ILE:369:CG2:3237, V-A:ILE:369:CD1:3239, H-A:TYR:539:OH:4878, V-B:TYR:539:CD2:9846, V-B:ALA:541:CA:9862"]

$$$$
RR27_Rahimova_2017
     RDKit          3D

 39 44  0  0  0  0  0  0  0  0999 V2000
  128.7040  125.5130   61.0430 O   0  0  0  0  0  0  0  0  0  0  0  0
  129.2420  124.5520   61.6010 C   0  0  0  0  0  0  0  0  0  0  0  0
  128.7260  123.1210   61.2710 C   0  0  0  0  0  0  0  0  0  0  0  0
  129.8610  122.1100   61.0240 C   0  0  0  0  0  0  0  0  0  0  0  0
  129.7480  120.7630   61.4000 C   0  0  0  0  0  0  0  0  0  0  0  0
  130.7920  119.8760   61.1600 C   0  0  0  0  0  0  0  0  0  0  0  0
  131.9550  120.3300   60.5440 C   0  0  0  0  0  0  0  0  0  0  0  0
  132.0830  121.6640   60.1680 C   0  0  0  0  0  0  0  0  0  0  0  0
  131.0380  122.5510   60.4080 C   0  0  0  0  0  0  0  0  0  0  0  0
  127.6310  123.1450   60.1870 C   0  0  0  0  0  0  0  0  0  0  0  0
  127.8940  122.7630   58.8650 C   0  0  0  0  0  0  0  0  0  0  0  0
  126.8830  122.8070   57.9070 C   0  0  0  0  0  0  0  0  0  0  0  0
  125.6100  123.2380   58.2670 C   0  0  0  0  0  0  0  0  0  0  0  0
  125.3370  123.6320   59.5740 C   0  0  0  0  0  0  0  0  0  0  0  0
  126.3470  123.5880   60.5300 C   0  0  0  0  0  0  0  0  0  0  0  0
  130.3580  124.7060   62.3690 N   0  0  0  0  0  0  0  0  0  0  0  0
  130.8850  123.6540   63.2530 C   0  0  0  0  0  0  0  0  0  0  0  0
  130.1610  123.8050   64.6090 C   0  0  0  0  0  0  0  0  0  0  0  0
  130.2980  125.2400   65.2100 C   0  0  0  0  0  0  0  0  0  0  0  0
  129.5010  125.4750   66.5060 C   0  0  0  0  0  0  0  0  0  0  0  0
  130.0300  124.9470   67.6490 N   0  0  0  0  0  0  0  0  0  0  0  0
  129.3780  125.1500   68.8270 C   0  0  0  0  0  0  0  0  0  0  0  0
  129.8110  124.6750   70.0370 O   0  0  0  0  0  0  0  0  0  0  0  0
  128.1830  125.8950   68.8190 C   0  0  0  0  0  0  0  0  0  0  0  0
  127.3060  126.2790   69.7910 N   0  0  0  0  0  0  0  0  0  0  0  0
  126.2990  126.9980   69.1760 N   0  0  0  0  0  0  0  0  0  0  0  0
  126.5560  127.0630   67.8520 N   0  0  0  0  0  0  0  0  0  0  0  0
  125.6340  127.7490   66.9500 C   0  0  0  0  0  0  0  0  0  0  0  0
  126.2950  128.8280   66.1030 C   0  0  0  0  0  0  0  0  0  0  0  0
  127.5920  129.2590   66.3990 C   0  0  0  0  0  0  0  0  0  0  0  0
  128.2020  130.2400   65.6150 C   0  0  0  0  0  0  0  0  0  0  0  0
  127.5200  130.7910   64.5310 C   0  0  0  0  0  0  0  0  0  0  0  0
  126.2290  130.3580   64.2240 C   0  0  0  0  0  0  0  0  0  0  0  0
  125.3940  131.0200   62.8650 Cl  0  0  0  0  0  0  0  0  0  0  0  0
  125.6160  129.3830   65.0120 C   0  0  0  0  0  0  0  0  0  0  0  0
  127.7280  126.3800   67.5730 C   0  0  0  0  0  0  0  0  0  0  0  0
  128.3430  126.1890   66.4030 N   0  0  0  0  0  0  0  0  0  0  0  0
  130.0700  126.3460   64.1340 C   0  0  0  0  0  0  0  0  0  0  0  0
  130.7860  126.0480   62.7920 C   0  0  0  0  0  0  0  0  0  0  0  0
  1  2  2  0
  2  3  1  0
  3  4  1  0
  4  5  2  0
  5  6  1  0
  6  7  2  0
  7  8  1  0
  8  9  2  0
  3 10  1  0
 10 11  2  0
 11 12  1  0
 12 13  2  0
 13 14  1  0
 14 15  2  0
  2 16  1  0
 16 17  1  0
 17 18  1  0
 18 19  1  0
 19 20  1  0
 20 21  2  0
 21 22  1  0
 22 23  1  0
 22 24  2  0
 24 25  1  0
 25 26  2  0
 26 27  1  0
 27 28  1  0
 28 29  1  0
 29 30  2  0
 30 31  1  0
 31 32  2  0
 32 33  1  0
 33 34  1  0
 33 35  2  0
 27 36  1  0
 36 37  2  0
 19 38  1  0
 38 39  1  0
  9  4  1  0
 15 10  1  0
 39 16  1  0
 37 20  1  0
 36 24  1  0
 35 29  1  0
M  END
>  <Binding energies>  (78) 
[-9.64]

>  <Ligand effiencies>  (78) 
[-0.24100000000000002]

>  <Interactions>  (78) 
["V-B:ARG:545:CG:9894, V-B:GLU:543:CD:9880, V-B:GLU:543:C:9874, V-B:GLU:543:CB:9878, V-A:HIS:456:CE1:4069, V-B:ARG:545:CZ:9898, H-A:HIS:456:NE2:4070, V-B:ARG:545:CD:9895, V-B:HIS:456:CE1:9040, V-B:GLU:543:CG:9879, V-A:GLU:543:CG:4907, V-A:GLU:543:CD:4908, V-B:ALA:541:CB:9864, V-A:TYR:484:CZ:4347, V-A:LEU:475:CD1:4258, V-A:GLU:543:CB:4906, V-A:TYR:484:CE1:4345, H-A:TYR:484:OH:4348, V-B:TYR:539:CE2:9848, V-B:PRO:540:CA:9855, V-B:TYR:539:CD2:9846, V-B:PRO:540:CB:9857, V-A:TRP:381:CH2:3372, H-B:ARG:545:N:9892, V-B:PRO:540:N:9856, V-B:TYR:539:C:9839, H-B:GLU:543:O:9875"]

$$$$
RR28_Rahimova_2017
     RDKit          3D

 46 49  0  0  0  0  0  0  0  0999 V2000
  127.1800  136.3820   60.8020 C   0  0  0  0  0  0  0  0  0  0  0  0
  127.3390  134.9590   61.3240 C   0  0  0  0  0  0  0  0  0  0  0  0
  127.5600  134.7710   62.5190 O   0  0  0  0  0  0  0  0  0  0  0  0
  127.2250  133.9720   60.4120 N   0  0  0  0  0  0  0  0  0  0  0  0
  127.3400  132.5110   60.6240 C   0  0  0  0  0  0  0  0  0  0  0  0
  128.7260  132.0490   60.0910 C   0  0  0  0  0  0  0  0  0  0  0  0
  128.9980  132.1360   58.7170 C   0  0  0  0  0  0  0  0  0  0  0  0
  130.2260  131.7280   58.2040 C   0  0  0  0  0  0  0  0  0  0  0  0
  131.2110  131.2230   59.0540 C   0  0  0  0  0  0  0  0  0  0  0  0
  132.5510  130.7750   58.4720 C   0  0  0  0  0  0  0  0  0  0  0  0
  132.9460  131.5480   57.4570 F   0  0  0  0  0  0  0  0  0  0  0  0
  133.4980  130.8110   59.4090 F   0  0  0  0  0  0  0  0  0  0  0  0
  132.4380  129.5250   58.0230 F   0  0  0  0  0  0  0  0  0  0  0  0
  130.9520  131.1300   60.4240 C   0  0  0  0  0  0  0  0  0  0  0  0
  129.7230  131.5380   60.9360 C   0  0  0  0  0  0  0  0  0  0  0  0
  126.1270  131.7620   59.9640 C   0  0  0  0  0  0  0  0  0  0  0  0
  124.7670  132.0890   60.6310 C   0  0  0  0  0  0  0  0  0  0  0  0
  124.8940  131.7060   62.0470 N   0  0  0  0  0  0  0  0  0  0  0  0
  124.4990  130.4720   62.4630 C   0  0  0  0  0  0  0  0  0  0  0  0
  123.8750  129.7030   61.7290 O   0  0  0  0  0  0  0  0  0  0  0  0
  124.6930  130.0870   63.9500 C   0  0  0  0  0  0  0  0  0  0  0  0
  125.5980  128.8540   64.2200 C   0  0  0  0  0  0  0  0  0  0  0  0
  127.0080  129.1820   64.7640 C   0  0  0  0  0  0  0  0  0  0  0  0
  127.8600  129.5780   63.9640 O   0  0  0  0  0  0  0  0  0  0  0  0
  127.2350  129.1610   66.1080 N   0  0  0  0  0  0  0  0  0  0  0  0
  126.3970  128.4190   67.0570 C   0  0  0  0  0  0  0  0  0  0  0  0
  126.9370  126.9720   67.0860 C   0  0  0  0  0  0  0  0  0  0  0  0
  128.4570  126.8470   67.4550 C   0  0  0  0  0  0  0  0  0  0  0  0
  128.9420  125.5060   67.0640 N   0  0  0  0  0  0  0  0  0  0  0  0
  129.3960  125.1050   65.8600 C   0  0  0  0  0  0  0  0  0  0  0  0
  129.8150  123.6430   65.7480 C   0  0  0  0  0  0  0  0  0  0  0  0
  129.4840  125.8400   64.8770 O   0  0  0  0  0  0  0  0  0  0  0  0
  128.5700  126.9540   69.0110 C   0  0  0  0  0  0  0  0  0  0  0  0
  129.3240  127.9500   69.6520 C   0  0  0  0  0  0  0  0  0  0  0  0
  129.3990  128.0110   71.0410 C   0  0  0  0  0  0  0  0  0  0  0  0
  128.7230  127.0740   71.8260 C   0  0  0  0  0  0  0  0  0  0  0  0
  128.7920  127.1290   73.3510 C   0  0  0  0  0  0  0  0  0  0  0  0
  128.4310  128.3350   73.7950 F   0  0  0  0  0  0  0  0  0  0  0  0
  127.9590  126.2210   73.8590 F   0  0  0  0  0  0  0  0  0  0  0  0
  130.0190  126.8740   73.8090 F   0  0  0  0  0  0  0  0  0  0  0  0
  127.9770  126.0720   71.2030 C   0  0  0  0  0  0  0  0  0  0  0  0
  127.9040  126.0150   69.8150 C   0  0  0  0  0  0  0  0  0  0  0  0
  129.2650  127.9690   66.6950 C   0  0  0  0  0  0  0  0  0  0  0  0
  128.5930  129.3670   66.6290 C   0  0  0  0  0  0  0  0  0  0  0  0
  125.8780  132.5140   62.7830 C   0  0  0  0  0  0  0  0  0  0  0  0
  127.2660  132.2190   62.1590 C   0  0  0  0  0  0  0  0  0  0  0  0
  1  2  1  0
  2  3  2  0
  2  4  1  0
  4  5  1  0
  5  6  1  0
  6  7  2  0
  7  8  1  0
  8  9  2  0
  9 10  1  0
 10 11  1  0
 10 12  1  0
 10 13  1  0
  9 14  1  0
 14 15  2  0
  5 16  1  0
 16 17  1  0
 17 18  1  0
 18 19  1  0
 19 20  2  0
 19 21  1  0
 21 22  1  0
 22 23  1  0
 23 24  2  0
 23 25  1  0
 25 26  1  0
 26 27  1  0
 27 28  1  0
 28 29  1  0
 29 30  1  0
 30 31  1  0
 30 32  2  0
 28 33  1  0
 33 34  2  0
 34 35  1  0
 35 36  2  0
 36 37  1  0
 37 38  1  0
 37 39  1  0
 37 40  1  0
 36 41  1  0
 41 42  2  0
 28 43  1  0
 43 44  1  0
 18 45  1  0
 45 46  1  0
 46  5  1  0
 15  6  1  0
 44 25  1  0
 42 33  1  0
M  END
>  <Binding energies>  (79) 
[-9.02]

>  <Ligand effiencies>  (79) 
[-0.18791666666666665]

>  <Interactions>  (79) 
["V-B:ARG:545:CG:9894, V-A:HIS:456:CD2:4068, V-B:GLU:543:CD:9880, V-B:GLU:543:C:9874, V-B:HIS:456:CD2:9039, V-B:GLU:543:CB:9878, V-A:HIS:456:CE1:4069, V-B:ARG:545:CZ:9898, V-B:HIS:456:CE1:9040, V-B:GLU:543:CG:9879, V-A:GLU:543:CG:4907, V-A:GLU:543:CD:4908, V-B:TRP:381:CH2:8343, V-A:PRO:540:N:4884, V-A:TYR:539:C:4867, V-B:PRO:482:CG:9298, V-B:LEU:475:CD1:9229, V-B:PRO:482:CB:9297, V-A:PRO:540:CA:4883, V-A:TYR:539:CE2:4876, V-A:ALA:541:CB:4892, H-B:ARG:545:NH2:9900, V-A:TYR:539:CD2:4874, V-B:GLU:543:CA:9876, V-A:TYR:484:CZ:4347, V-A:GLU:543:CB:4906, V-A:TYR:484:CE1:4345, V-A:ASP:366:CB:3212, V-A:ASP:366:CG:3213, V-A:PRO:540:CB:4885, V-B:TRP:381:CZ2:8341, V-B:TRP:381:CZ3:8342, V-B:GLY:544:C:9884, V-A:PRO:540:CD:4887, V-A:LEU:363:CD1:3189, V-A:LEU:363:CA:3185, V-A:PRO:540:CG:4886, H-A:TYR:539:O:4868, V-B:LYS:547:CD:9921, H-B:GLU:543:O:9875, V-A:ASN:362:C:3172, V-B:LYS:547:CE:9922, V-B:TRP:381:CE2:8338"]

$$$$
RR29_Rahimova_2017
     RDKit          3D

 18 19  0  0  0  0  0  0  0  0999 V2000
  126.3330  127.3620   67.3660 C   0  0  0  0  0  0  0  0  0  0  0  0
  127.8170  127.0830   67.1730 C   0  0  0  0  0  0  0  0  0  0  0  0
  128.6390  127.2700   68.4670 C   0  0  0  0  0  0  0  0  0  0  0  0
  128.1620  126.3230   69.5880 C   0  0  0  0  0  0  0  0  0  0  0  0
  128.9020  126.5570   70.8960 C   0  0  0  0  0  0  0  0  0  0  0  0
  129.3750  127.8450   71.2150 C   0  0  0  0  0  0  0  0  0  0  0  0
  130.0590  128.0840   72.4160 C   0  0  0  0  0  0  0  0  0  0  0  0
  130.2600  127.0030   73.2660 C   0  0  0  0  0  0  0  0  0  0  0  0
  129.8050  125.7510   72.9610 C   0  0  0  0  0  0  0  0  0  0  0  0
  129.1150  125.4870   71.7830 C   0  0  0  0  0  0  0  0  0  0  0  0
  130.1080  124.9020   73.9780 O   0  0  0  0  0  0  0  0  0  0  0  0
  130.9570  125.6220   74.8320 C   0  0  0  0  0  0  0  0  0  0  0  0
  130.8620  126.9780   74.4850 O   0  0  0  0  0  0  0  0  0  0  0  0
  128.2310  126.7450   66.0080 N   0  0  0  0  0  0  0  0  0  0  0  0
  129.5840  126.5750   65.8100 N   0  0  0  0  0  0  0  0  0  0  0  0
  130.2850  125.5270   66.2710 C   0  0  0  0  0  0  0  0  0  0  0  0
  129.7690  124.5080   66.9590 N   0  0  0  0  0  0  0  0  0  0  0  0
  131.5860  125.4990   66.0240 N   0  0  0  0  0  0  0  0  0  0  0  0
  1  2  1  0
  2  3  1  0
  3  4  1  0
  4  5  1  0
  5  6  2  0
  6  7  1  0
  7  8  2  0
  8  9  1  0
  9 10  2  0
  9 11  1  0
 11 12  1  0
 12 13  1  0
  2 14  2  0
 14 15  1  0
 15 16  1  0
 16 17  1  0
 16 18  2  0
 10  5  1  0
 13  8  1  0
M  CHG  1  18   1
M  END
>  <Binding energies>  (80) 
[-6.97]

>  <Ligand effiencies>  (80) 
[-0.3030434782608696]

>  <Interactions>  (80) 
["V-B:ARG:545:CG:9894, V-A:HIS:456:CD2:4068, H-B:LYS:547:NZ:9923, V-B:GLU:543:C:9874, H-A:LYS:547:NZ:4951, V-B:HIS:456:CD2:9039, V-B:GLU:543:CB:9878, V-A:HIS:456:CE1:4069, H-A:GLU:543:OE1:4909, V-B:HIS:456:CE1:9040, H-A:GLU:543:OE2:4910, V-A:GLU:543:CD:4908, V-B:GLU:543:CA:9876, V-A:TYR:484:CZ:4347, V-A:TYR:484:CE1:4345, H-A:TYR:484:OH:4348, V-A:LYS:547:CE:4950, H-B:GLU:543:O:9875, H-A:HIS:456:ND1:4067"]

$$$$
RR30_Rahimova_2017
     RDKit          3D

 18 19  0  0  0  0  0  0  0  0999 V2000
  132.3150  123.6730   74.1370 C   0  0  0  0  0  0  0  0  0  0  0  0
  131.9870  122.6830   73.0100 C   0  0  0  0  0  0  0  0  0  0  0  0
  130.6480  122.9700   72.3670 C   0  0  0  0  0  0  0  0  0  0  0  0
  129.7010  122.1210   72.0540 N   0  0  0  0  0  0  0  0  0  0  0  0
  128.6820  122.8790   71.4820 N   0  0  0  0  0  0  0  0  0  0  0  0
  129.1050  124.1170   71.4890 C   0  0  0  0  0  0  0  0  0  0  0  0
  128.2530  125.5480   70.9070 S   0  0  0  0  0  0  0  0  0  0  0  0
  129.1670  126.8420   71.8040 C   0  0  0  0  0  0  0  0  0  0  0  0
  128.2700  127.6180   72.7730 C   0  0  0  0  0  0  0  0  0  0  0  0
  128.7240  128.6060   73.3530 O   0  0  0  0  0  0  0  0  0  0  0  0
  127.0230  127.1250   72.9470 N   0  0  0  0  0  0  0  0  0  0  0  0
  126.0380  127.6500   73.7700 C   0  0  0  0  0  0  0  0  0  0  0  0
  124.8190  127.2010   73.9670 N   0  0  0  0  0  0  0  0  0  0  0  0
  124.1060  127.9870   74.8650 N   0  0  0  0  0  0  0  0  0  0  0  0
  124.7940  129.0060   75.3260 C   0  0  0  0  0  0  0  0  0  0  0  0
  124.2330  130.0050   76.3110 C   0  0  0  0  0  0  0  0  0  0  0  0
  126.4100  129.0810   74.6800 S   0  0  0  0  0  0  0  0  0  0  0  0
  130.3390  124.2500   72.0380 O   0  0  0  0  0  0  0  0  0  0  0  0
  1  2  1  0
  2  3  1  0
  3  4  2  0
  4  5  1  0
  5  6  2  0
  6  7  1  0
  7  8  1  0
  8  9  1  0
  9 10  2  0
  9 11  1  0
 11 12  1  0
 12 13  2  0
 13 14  1  0
 14 15  2  0
 15 16  1  0
 15 17  1  0
  6 18  1  0
 18  3  1  0
 17 12  1  0
M  END
>  <Binding energies>  (81) 
[-6.46]

>  <Ligand effiencies>  (81) 
[-0.34]

>  <Interactions>  (81) 
["H-B:HIS:456:NE2:9041, V-A:HIS:456:CD2:4068, H-B:LYS:547:NZ:9923, H-A:LYS:547:NZ:4951, V-B:HIS:456:CD2:9039, V-A:HIS:456:CG:4066, V-A:TYR:484:CD2:4344, V-A:TYR:484:CE2:4346, V-A:HIS:456:CB:4065, V-A:TYR:484:CG:4342, V-B:HIS:456:CB:9036, V-B:HIS:456:C:9032, V-B:VAL:458:CG2:9058, V-B:VAL:457:C:9044, V-B:HIS:456:CG:9037, H-B:GLY:544:O:9885, V-B:HIS:456:CA:9034, V-B:LYS:547:CE:9922, V-B:LYS:471:CE:9191, H-B:VAL:457:N:9047, V-A:ASP:473:CG:4240, V-A:ASP:473:CB:4239, V-B:LYS:471:CD:9190, V-B:LYS:471:CG:9189"]

$$$$
RR31_Rahimova_2017
     RDKit          3D

 18 19  0  0  0  0  0  0  0  0999 V2000
  133.7930  119.3640   61.3500 C   0  0  0  0  0  0  0  0  0  0  0  0
  132.5270  120.1700   61.0860 C   0  0  0  0  0  0  0  0  0  0  0  0
  131.3030  119.5060   60.9990 C   0  0  0  0  0  0  0  0  0  0  0  0
  130.1270  120.2150   60.7630 C   0  0  0  0  0  0  0  0  0  0  0  0
  130.1390  121.6110   60.6140 C   0  0  0  0  0  0  0  0  0  0  0  0
  128.9700  122.3350   60.3660 N   0  0  0  0  0  0  0  0  0  0  0  0
  128.0040  121.9290   59.3270 C   0  0  0  0  0  0  0  0  0  0  0  0
  127.0110  123.0420   58.9180 C   0  0  0  0  0  0  0  0  0  0  0  0
  126.2890  123.5530   60.0860 N   0  0  0  0  0  0  0  0  0  0  0  0
  125.3130  124.5870   59.7250 C   0  0  0  0  0  0  0  0  0  0  0  0
  123.8710  124.0500   59.6380 C   0  0  0  0  0  0  0  0  0  0  0  0
  123.3670  123.5110   60.9860 C   0  0  0  0  0  0  0  0  0  0  0  0
  124.5210  122.8530   61.7520 N   0  0  0  0  0  0  0  0  0  0  0  0
  127.2810  124.1110   61.0050 C   0  0  0  0  0  0  0  0  0  0  0  0
  128.2710  123.0200   61.4720 C   0  0  0  0  0  0  0  0  0  0  0  0
  131.3770  122.2650   60.6950 C   0  0  0  0  0  0  0  0  0  0  0  0
  132.5660  121.5640   60.9310 C   0  0  0  0  0  0  0  0  0  0  0  0
  133.8790  122.3330   61.0040 C   0  0  0  0  0  0  0  0  0  0  0  0
  1  2  1  0
  2  3  2  0
  3  4  1  0
  4  5  2  0
  5  6  1  0
  6  7  1  0
  7  8  1  0
  8  9  1  0
  9 10  1  0
 10 11  1  0
 11 12  1  0
 12 13  1  0
  9 14  1  0
 14 15  1  0
  5 16  1  0
 16 17  2  0
 17 18  1  0
 17  2  1  0
 15  6  1  0
M  CHG  1  13   1
M  END
>  <Binding energies>  (82) 
[-6.29]

>  <Ligand effiencies>  (82) 
[-0.2995238095238095]

>  <Interactions>  (82) 
["V-B:GLU:543:CD:9880, V-B:GLU:543:CG:9879, V-B:ALA:541:CB:9864, V-A:LEU:475:CD1:4258, V-B:TYR:539:CE2:9848, V-A:ILE:369:CG2:3237, V-B:PRO:540:CA:9855, V-A:ILE:369:CD1:3239, V-B:TYR:539:CD2:9846, V-A:TRP:381:CZ2:3370, V-B:PRO:540:CB:9857, V-A:TRP:381:CH2:3372, V-B:PRO:540:N:9856, V-B:TYR:539:C:9839, V-B:PRO:540:C:9853, V-A:SER:385:CA:3407, V-A:SER:385:C:3405, H-B:GLU:543:OE2:9882, V-B:ASN:362:CB:8147, V-B:ASN:362:C:8143, V-B:LEU:363:CA:8156, H-B:ALA:541:O:9861, V-B:LEU:363:CD1:8160, V-B:ASN:362:CA:8145, V-B:ALA:541:C:9860"]

$$$$
RR32_Rahimova_2017
     RDKit          3D

 18 20  0  0  0  0  0  0  0  0999 V2000
  126.9460  124.8330   57.2970 C   0  0  0  0  0  0  0  0  0  0  0  0
  126.9060  124.0390   58.5980 C   0  0  0  0  0  0  0  0  0  0  0  0
  128.0940  123.4700   59.0610 C   0  0  0  0  0  0  0  0  0  0  0  0
  128.0960  122.7410   60.2470 C   0  0  0  0  0  0  0  0  0  0  0  0
  129.2760  122.1790   60.7020 N   0  0  0  0  0  0  0  0  0  0  0  0
  129.3820  120.7090   60.6650 C   0  0  0  0  0  0  0  0  0  0  0  0
  130.6560  120.1710   61.3590 C   0  0  0  0  0  0  0  0  0  0  0  0
  131.8500  120.7410   60.7350 N   0  0  0  0  0  0  0  0  0  0  0  0
  133.0520  120.2090   61.3680 C   0  0  0  0  0  0  0  0  0  0  0  0
  131.7930  122.1920   60.8950 C   0  0  0  0  0  0  0  0  0  0  0  0
  130.5350  122.7610   60.1980 C   0  0  0  0  0  0  0  0  0  0  0  0
  126.9760  122.5490   60.9900 N   0  0  0  0  0  0  0  0  0  0  0  0
  125.8020  123.0890   60.5640 C   0  0  0  0  0  0  0  0  0  0  0  0
  124.6500  122.8700   61.3580 C   0  0  0  0  0  0  0  0  0  0  0  0
  123.4230  123.3980   60.9710 C   0  0  0  0  0  0  0  0  0  0  0  0
  123.3130  124.1440   59.8040 C   0  0  0  0  0  0  0  0  0  0  0  0
  124.4260  124.3770   59.0010 C   0  0  0  0  0  0  0  0  0  0  0  0
  125.7030  123.8560   59.3570 C   0  0  0  0  0  0  0  0  0  0  0  0
  1  2  1  0
  2  3  2  0
  3  4  1  0
  4  5  1  0
  5  6  1  0
  6  7  1  0
  7  8  1  0
  8  9  1  0
  8 10  1  0
 10 11  1  0
  4 12  2  0
 12 13  1  0
 13 14  2  0
 14 15  1  0
 15 16  2  0
 16 17  1  0
 17 18  2  0
 18  2  1  0
 11  5  1  0
 18 13  1  0
M  END
>  <Binding energies>  (83) 
[-6.14]

>  <Ligand effiencies>  (83) 
[-0.3411111111111111]

>  <Interactions>  (83) 
["V-B:GLU:543:CD:9880, V-B:GLU:543:CG:9879, V-B:ASP:366:CG:8184, V-B:ALA:541:CB:9864, V-A:LEU:475:CD1:4258, V-B:TYR:539:CE2:9848, H-B:ALA:541:N:9863, V-B:PRO:540:CA:9855, V-B:TYR:539:CD2:9846, V-B:PRO:540:CB:9857, V-B:TYR:539:C:9839, V-B:PRO:540:C:9853, V-B:ASN:362:CB:8147, V-B:ASN:362:C:8143, V-B:LEU:363:CA:8156, V-B:LEU:363:CD1:8160"]

$$$$
RR5_Rahimova_2017
     RDKit          3D

 45 50  0  0  0  0  0  0  0  0999 V2000
  128.3930  122.4460   59.0600 O   0  0  0  0  0  0  0  0  0  0  0  0
  128.1070  123.0930   60.0670 C   0  0  0  0  0  0  0  0  0  0  0  0
  126.6360  123.4540   60.3490 C   0  0  0  0  0  0  0  0  0  0  0  0
  126.1160  124.6920   59.5350 C   0  0  2  0  0  0  0  0  0  0  0  0
  125.9590  125.9330   60.3210 N   0  0  0  0  0  0  0  0  0  0  0  0
  127.0260  126.5050   60.9980 C   0  0  0  0  0  0  0  0  0  0  0  0
  128.1950  126.1090   61.0000 O   0  0  0  0  0  0  0  0  0  0  0  0
  126.5740  127.5730   61.6790 O   0  0  0  0  0  0  0  0  0  0  0  0
  127.1970  128.0040   62.8850 C   0  0  0  0  0  0  0  0  0  0  0  0
  126.6810  129.3990   63.3010 C   0  0  0  0  0  0  0  0  0  0  0  0
  125.6510  129.9770   62.3470 C   0  0  0  0  0  0  0  0  0  0  0  0
  125.7560  130.2400   60.9780 C   0  0  0  0  0  0  0  0  0  0  0  0
  124.6610  130.7580   60.2830 C   0  0  0  0  0  0  0  0  0  0  0  0
  123.4640  131.0160   60.9530 C   0  0  0  0  0  0  0  0  0  0  0  0
  123.3580  130.7560   62.3210 C   0  0  0  0  0  0  0  0  0  0  0  0
  124.4540  130.2390   63.0130 C   0  0  0  0  0  0  0  0  0  0  0  0
  124.6240  129.8850   64.4320 C   0  0  0  0  0  0  0  0  0  0  0  0
  123.7420  129.9680   65.5120 C   0  0  0  0  0  0  0  0  0  0  0  0
  124.1690  129.5800   66.7820 C   0  0  0  0  0  0  0  0  0  0  0  0
  125.4700  129.1090   66.9710 C   0  0  0  0  0  0  0  0  0  0  0  0
  126.3460  129.0240   65.8890 C   0  0  0  0  0  0  0  0  0  0  0  0
  125.9220  129.4080   64.6140 C   0  0  0  0  0  0  0  0  0  0  0  0
  124.7850  124.3580   58.8170 C   0  0  0  0  0  0  0  0  0  0  0  0
  124.7000  123.8960   57.6970 O   0  0  0  0  0  0  0  0  0  0  0  0
  123.7340  124.6430   59.6420 O   0  0  0  0  0  0  0  0  0  0  0  0
  128.9970  123.5030   60.9980 N   0  0  0  0  0  0  0  0  0  0  0  0
  130.4790  123.3750   61.1300 C   0  0  0  0  0  0  0  0  0  0  0  0
  130.7480  124.0880   62.4980 C   0  0  0  0  0  0  0  0  0  0  0  0
  131.8880  124.8850   62.6970 C   0  0  0  0  0  0  0  0  0  0  0  0
  132.1160  125.5160   63.9170 C   0  0  0  0  0  0  0  0  0  0  0  0
  131.2140  125.3510   64.9630 C   0  0  0  0  0  0  0  0  0  0  0  0
  130.0770  124.5690   64.7930 C   0  0  0  0  0  0  0  0  0  0  0  0
  129.8440  123.9480   63.5700 C   0  0  0  0  0  0  0  0  0  0  0  0
  130.8130  121.8460   61.1730 C   0  0  0  0  0  0  0  0  0  0  0  0
  129.8050  120.8700   61.1760 C   0  0  0  0  0  0  0  0  0  0  0  0
  130.1250  119.5150   61.2340 C   0  0  0  0  0  0  0  0  0  0  0  0
  131.4570  119.1210   61.2910 C   0  0  0  0  0  0  0  0  0  0  0  0
  132.4750  120.0690   61.2850 C   0  0  0  0  0  0  0  0  0  0  0  0
  132.1530  121.4210   61.2190 C   0  0  0  0  0  0  0  0  0  0  0  0
  131.0920  124.1440   59.9120 C   0  0  0  0  0  0  0  0  0  0  0  0
  130.3570  125.1350   59.2360 C   0  0  0  0  0  0  0  0  0  0  0  0
  130.8940  125.8160   58.1480 C   0  0  0  0  0  0  0  0  0  0  0  0
  132.1820  125.5230   57.7180 C   0  0  0  0  0  0  0  0  0  0  0  0
  132.9390  124.5590   58.3730 C   0  0  0  0  0  0  0  0  0  0  0  0
  132.3990  123.8800   59.4620 C   0  0  0  0  0  0  0  0  0  0  0  0
  1  2  2  0
  2  3  1  0
  4  3  1  1
  4  5  1  0
  5  6  1  0
  6  7  2  0
  6  8  1  0
  8  9  1  0
  9 10  1  0
 10 11  1  0
 11 12  2  0
 12 13  1  0
 13 14  2  0
 14 15  1  0
 15 16  2  0
 16 17  1  0
 17 18  2  0
 18 19  1  0
 19 20  2  0
 20 21  1  0
 21 22  2  0
  4 23  1  0
 23 24  2  0
 23 25  1  0
  2 26  1  0
 26 27  1  0
 27 28  1  0
 28 29  2  0
 29 30  1  0
 30 31  2  0
 31 32  1  0
 32 33  2  0
 27 34  1  0
 34 35  2  0
 35 36  1  0
 36 37  2  0
 37 38  1  0
 38 39  2  0
 27 40  1  0
 40 41  2  0
 41 42  1  0
 42 43  2  0
 43 44  1  0
 44 45  2  0
 22 10  1  0
 33 28  1  0
 39 34  1  0
 45 40  1  0
 16 11  1  0
 22 17  1  0
M  END
>  <Binding energies>  (84) 
[-10.47]

>  <Ligand effiencies>  (84) 
[-0.218125]

>  <Interactions>  (84) 
["V-B:ARG:545:CG:9894, V-B:GLU:543:CD:9880, V-B:ARG:545:CZ:9898, V-B:ARG:545:CD:9895, V-B:HIS:456:CE1:9040, V-B:GLU:543:CG:9879, H-B:ASP:366:OD1:8185, V-B:GLY:454:CA:9020, V-B:ASP:366:CG:8184, H-B:ASP:366:OD2:8186, V-B:ILE:369:CD1:8210, H-B:ARG:545:NH2:9900, V-B:GLY:453:C:9013, V-B:ALA:541:CB:9864, V-A:LEU:475:CD1:4258, V-A:ARG:545:CZ:4926, V-A:ASP:366:CB:3212, V-A:ASP:366:CG:3213, V-B:TYR:539:CE2:9848, V-B:PRO:540:CA:9855, V-A:ASP:366:CA:3210, V-B:TYR:484:CZ:9318, V-B:TYR:539:CD2:9846, V-A:PRO:482:CG:4327, V-A:TRP:381:CZ2:3370, V-B:PRO:540:CB:9857, V-A:TRP:381:CH2:3372, V-A:PRO:482:CB:4326, H-B:GLU:543:OE2:9882"]

$$$$
