1a_Ghoteimi_2023
     RDKit          3D

 67 70  0  0  0  0  0  0  0  0999 V2000
  123.7600  134.5200   61.3640 C   0  0  0  0  0  0  0  0  0  0  0  0
  124.7710  133.6390   60.6230 C   0  0  0  0  0  0  0  0  0  0  0  0
  124.1300  133.0110   59.5200 O   0  0  0  0  0  0  0  0  0  0  0  0
  123.7290  131.7160   59.5860 C   0  0  0  0  0  0  0  0  0  0  0  0
  123.0220  131.1770   58.7280 O   0  0  0  0  0  0  0  0  0  0  0  0
  124.2350  131.0010   60.8050 C   0  0  0  0  0  0  0  0  0  0  0  0
  125.4060  130.2280   60.7800 C   0  0  0  0  0  0  0  0  0  0  0  0
  125.8490  129.5730   61.9260 C   0  0  0  0  0  0  0  0  0  0  0  0
  125.1280  129.6850   63.1250 C   0  0  0  0  0  0  0  0  0  0  0  0
  125.4810  129.0640   64.3390 N   0  0  0  0  0  0  0  0  0  0  0  0
  124.9440  129.2040   65.5700 C   0  0  0  0  0  0  0  0  0  0  0  0
  123.9910  129.9280   65.8580 O   0  0  0  0  0  0  0  0  0  0  0  0
  125.6000  128.3710   66.6710 C   0  0  0  0  0  0  0  0  0  0  0  0
  127.3120  128.8940   66.9810 S   0  0  0  0  0  0  0  0  0  0  0  0
  128.2540  127.4020   67.1970 C   0  0  0  0  0  0  0  0  0  0  0  0
  128.5070  127.0940   68.4910 N   0  0  0  0  0  0  0  0  0  0  0  0
  129.2150  125.9740   68.7940 C   0  0  0  0  0  0  0  0  0  0  0  0
  129.4360  125.6910   70.2520 C   0  0  0  0  0  0  0  0  0  0  0  0
  129.9020  124.4410   70.6900 C   0  0  0  0  0  0  0  0  0  0  0  0
  130.1060  124.1820   72.0430 C   0  0  0  0  0  0  0  0  0  0  0  0
  129.8510  125.1620   72.9990 C   0  0  0  0  0  0  0  0  0  0  0  0
  130.0840  124.8190   74.3170 O   0  0  0  0  0  0  0  0  0  0  0  0
  131.3720  124.3420   74.6920 C   0  0  0  0  0  0  0  0  0  0  0  0
  129.3820  126.4140   72.5770 C   0  0  0  0  0  0  0  0  0  0  0  0
  129.1780  126.6690   71.2250 C   0  0  0  0  0  0  0  0  0  0  0  0
  129.6870  125.1340   67.7780 C   0  0  0  0  0  0  0  0  0  0  0  0
  129.4590  125.4440   66.4310 C   0  0  0  0  0  0  0  0  0  0  0  0
  130.0200  124.5190   65.4000 C   0  0  0  0  0  0  0  0  0  0  0  0
  131.2140  124.8220   64.7380 C   0  0  0  0  0  0  0  0  0  0  0  0
  131.7380  123.9470   63.7900 C   0  0  0  0  0  0  0  0  0  0  0  0
  131.0840  122.7520   63.4890 C   0  0  0  0  0  0  0  0  0  0  0  0
  131.6780  121.9480   62.5370 O   0  0  0  0  0  0  0  0  0  0  0  0
  130.8570  121.1400   61.7010 C   0  0  0  0  0  0  0  0  0  0  0  0
  129.8900  122.4410   64.1580 C   0  0  0  0  0  0  0  0  0  0  0  0
  129.3670  123.3180   65.1050 C   0  0  0  0  0  0  0  0  0  0  0  0
  128.7170  126.6100   66.1240 C   0  0  0  0  0  0  0  0  0  0  0  0
  128.4340  126.9790   64.7330 C   0  0  0  0  0  0  0  0  0  0  0  0
  128.2100  127.2690   63.6350 N   0  0  0  0  0  0  0  0  0  0  0  0
  123.9620  130.4490   63.1520 C   0  0  0  0  0  0  0  0  0  0  0  0
  123.5190  131.1040   62.0050 C   0  0  0  0  0  0  0  0  0  0  0  0
  123.8962  134.4013   62.4491 H   0  0  0  0  0  0  0  0  0  0  0  0
  123.9190  135.5727   61.0875 H   0  0  0  0  0  0  0  0  0  0  0  0
  122.7389  134.2185   61.0875 H   0  0  0  0  0  0  0  0  0  0  0  0
  125.6024  134.2606   60.2592 H   0  0  0  0  0  0  0  0  0  0  0  0
  125.1610  132.8713   61.3075 H   0  0  0  0  0  0  0  0  0  0  0  0
  125.9796  130.1387   59.8457 H   0  0  0  0  0  0  0  0  0  0  0  0
  126.7660  128.9664   61.8916 H   0  0  0  0  0  0  0  0  0  0  0  0
  126.2290  128.3920   64.2550 H   0  0  0  0  0  0  0  0  0  0  0  0
  125.0191  128.4851   67.5981 H   0  0  0  0  0  0  0  0  0  0  0  0
  125.6167  127.3213   66.3424 H   0  0  0  0  0  0  0  0  0  0  0  0
  130.1095  123.6526   69.9515 H   0  0  0  0  0  0  0  0  0  0  0  0
  130.4720  123.1941   72.3595 H   0  0  0  0  0  0  0  0  0  0  0  0
  131.4475  124.3140   75.7890 H   0  0  0  0  0  0  0  0  0  0  0  0
  131.5199  123.3295   74.2883 H   0  0  0  0  0  0  0  0  0  0  0  0
  132.1437  125.0140   74.2883 H   0  0  0  0  0  0  0  0  0  0  0  0
  129.1742  127.1989   73.3192 H   0  0  0  0  0  0  0  0  0  0  0  0
  128.8073  127.6563   70.9123 H   0  0  0  0  0  0  0  0  0  0  0  0
  130.2424  124.2215   68.0402 H   0  0  0  0  0  0  0  0  0  0  0  0
  131.7432  125.7585   64.9679 H   0  0  0  0  0  0  0  0  0  0  0  0
  132.6758  124.2002   63.2739 H   0  0  0  0  0  0  0  0  0  0  0  0
  130.2113  120.5046   62.3250 H   0  0  0  0  0  0  0  0  0  0  0  0
  130.2326  121.7856   61.0660 H   0  0  0  0  0  0  0  0  0  0  0  0
  131.4926  120.5054   61.0660 H   0  0  0  0  0  0  0  0  0  0  0  0
  129.3652  121.5007   63.9334 H   0  0  0  0  0  0  0  0  0  0  0  0
  128.4319  123.0638   65.6256 H   0  0  0  0  0  0  0  0  0  0  0  0
  123.3875  130.5352   64.0861 H   0  0  0  0  0  0  0  0  0  0  0  0
  122.5997  131.7069   62.0417 H   0  0  0  0  0  0  0  0  0  0  0  0
  1  2  1  0
  2  3  1  0
  3  4  1  0
  4  5  2  0
  4  6  1  0
  6  7  2  0
  7  8  1  0
  8  9  2  0
  9 10  1  0
 10 11  1  0
 11 12  2  0
 11 13  1  0
 13 14  1  0
 14 15  1  0
 15 16  2  0
 16 17  1  0
 17 18  1  0
 18 19  2  0
 19 20  1  0
 20 21  2  0
 21 22  1  0
 22 23  1  0
 21 24  1  0
 24 25  2  0
 17 26  2  0
 26 27  1  0
 27 28  1  0
 28 29  2  0
 29 30  1  0
 30 31  2  0
 31 32  1  0
 32 33  1  0
 31 34  1  0
 34 35  2  0
 27 36  2  0
 36 37  1  0
 37 38  3  0
  9 39  1  0
 39 40  2  0
 40  6  1  0
 36 15  1  0
 25 18  1  0
 35 28  1  0
  1 41  1  0
  1 42  1  0
  1 43  1  0
  2 44  1  0
  2 45  1  0
  7 46  1  0
  8 47  1  0
 10 48  1  0
 13 49  1  0
 13 50  1  0
 19 51  1  0
 20 52  1  0
 23 53  1  0
 23 54  1  0
 23 55  1  0
 24 56  1  0
 25 57  1  0
 26 58  1  0
 29 59  1  0
 30 60  1  0
 33 61  1  0
 33 62  1  0
 33 63  1  0
 34 64  1  0
 35 65  1  0
 39 66  1  0
 40 67  1  0
M  END
>  <Binding energies>  (1) 
[-8.93]

>  <Ligand effiencies>  (1) 
[-0.2178048780487805]

>  <Interactions>  (1) 
["V-B:ARG:545:CG:9894, V-A:HIS:456:CD2:4068, V-B:GLU:543:CD:9880, H-B:LYS:547:NZ:9923, V-B:GLU:543:C:9874, V-B:GLU:543:CB:9878, V-A:HIS:456:CE1:4069, V-B:ARG:545:CZ:9898, V-B:ARG:545:CD:9895, V-B:HIS:456:CE1:9040, V-B:GLU:543:CG:9879, H-B:GLY:454:N:9021, V-B:ILE:369:CB:8207, V-B:ASP:366:CG:8184, V-B:LEU:475:CD1:9229, V-B:ILE:369:CD1:8210, V-A:TYR:539:CE2:4876, H-B:TYR:484:OH:9319, V-B:ILE:369:CG2:8208, V-B:ALA:541:CB:9864, V-B:GLU:543:CA:9876, H-B:ARG:545:NE:9896, V-A:TYR:484:CZ:4347, V-A:LEU:475:CD1:4258, V-A:TYR:484:CE1:4345, H-A:TYR:539:OH:4878, V-A:HIS:456:CG:4066, H-B:GLU:543:OE1:9881"]

$$$$
1a_Grossjean_2025
     RDKit          3D

 45 46  0  0  0  0  0  0  0  0999 V2000
  125.6000  126.6770   74.1950 C   0  0  0  0  0  0  0  0  0  0  0  0
  126.8060  127.0650   73.3360 C   0  0  0  0  0  0  0  0  0  0  0  0
  127.8720  126.1560   73.5770 O   0  0  0  0  0  0  0  0  0  0  0  0
  129.1280  126.4110   73.1250 C   0  0  0  0  0  0  0  0  0  0  0  0
  129.9900  126.9820   73.7990 O   0  0  0  0  0  0  0  0  0  0  0  0
  129.3570  125.9460   71.7160 C   0  0  0  0  0  0  0  0  0  0  0  0
  128.9980  126.7840   70.6520 C   0  0  0  0  0  0  0  0  0  0  0  0
  129.1930  126.3790   69.3350 C   0  0  0  0  0  0  0  0  0  0  0  0
  129.7490  125.1300   69.0530 C   0  0  0  0  0  0  0  0  0  0  0  0
  129.8980  124.8230   67.6860 N   0  0  0  0  0  0  0  0  0  0  0  0
  129.2990  125.3640   66.6040 C   0  0  0  0  0  0  0  0  0  0  0  0
  128.4710  126.2750   66.6260 O   0  0  0  0  0  0  0  0  0  0  0  0
  129.7140  124.7660   65.2580 C   0  0  0  0  0  0  0  0  0  0  0  0
  130.0440  122.9820   65.3730 S   0  0  0  0  0  0  0  0  0  0  0  0
  130.8720  122.4950   63.8760 C   0  0  0  0  0  0  0  0  0  0  0  0
  130.1020  121.7530   63.0410 N   0  0  0  0  0  0  0  0  0  0  0  0
  130.6350  121.3240   61.8730 C   0  0  0  0  0  0  0  0  0  0  0  0
  129.7200  120.4880   60.9970 C   0  0  0  0  0  0  0  0  0  0  0  0
  131.9410  121.6210   61.4880 C   0  0  0  0  0  0  0  0  0  0  0  0
  132.7360  122.4040   62.3320 C   0  0  0  0  0  0  0  0  0  0  0  0
  134.1590  122.7310   61.8820 C   0  0  0  0  0  0  0  0  0  0  0  0
  132.1990  122.8660   63.5560 C   0  0  0  0  0  0  0  0  0  0  0  0
  132.9970  123.7280   64.4330 C   0  0  0  0  0  0  0  0  0  0  0  0
  133.6290  124.4070   65.1230 N   0  0  0  0  0  0  0  0  0  0  0  0
  130.1190  124.2870   70.1120 C   0  0  0  0  0  0  0  0  0  0  0  0
  129.9220  124.6930   71.4290 C   0  0  0  0  0  0  0  0  0  0  0  0
  125.8652  126.7623   75.2592 H   0  0  0  0  0  0  0  0  0  0  0  0
  124.7590  127.3499   73.9716 H   0  0  0  0  0  0  0  0  0  0  0  0
  125.3091  125.6399   73.9716 H   0  0  0  0  0  0  0  0  0  0  0  0
  126.5260  127.0280   72.2729 H   0  0  0  0  0  0  0  0  0  0  0  0
  127.1279  128.0844   73.5953 H   0  0  0  0  0  0  0  0  0  0  0  0
  128.5582  127.7707   70.8595 H   0  0  0  0  0  0  0  0  0  0  0  0
  128.9069  127.0480   68.5101 H   0  0  0  0  0  0  0  0  0  0  0  0
  130.5840  124.1070   67.5010 H   0  0  0  0  0  0  0  0  0  0  0  0
  128.9040  124.9305   64.5322 H   0  0  0  0  0  0  0  0  0  0  0  0
  130.6429  125.2619   64.9397 H   0  0  0  0  0  0  0  0  0  0  0  0
  129.0570  119.8823   61.6323 H   0  0  0  0  0  0  0  0  0  0  0  0
  129.1141  121.1510   60.3619 H   0  0  0  0  0  0  0  0  0  0  0  0
  130.3257  119.8248   60.3619 H   0  0  0  0  0  0  0  0  0  0  0  0
  132.3409  121.2454   60.5346 H   0  0  0  0  0  0  0  0  0  0  0  0
  134.7982  122.8779   62.7651 H   0  0  0  0  0  0  0  0  0  0  0  0
  134.5528  121.8999   61.2785 H   0  0  0  0  0  0  0  0  0  0  0  0
  134.1505  123.6506   61.2785 H   0  0  0  0  0  0  0  0  0  0  0  0
  130.5653  123.3040   69.9013 H   0  0  0  0  0  0  0  0  0  0  0  0
  130.2120  124.0251   72.2535 H   0  0  0  0  0  0  0  0  0  0  0  0
  1  2  1  0
  2  3  1  0
  3  4  1  0
  4  5  2  0
  4  6  1  0
  6  7  2  0
  7  8  1  0
  8  9  2  0
  9 10  1  0
 10 11  1  0
 11 12  2  0
 11 13  1  0
 13 14  1  0
 14 15  1  0
 15 16  2  0
 16 17  1  0
 17 18  1  0
 17 19  2  0
 19 20  1  0
 20 21  1  0
 20 22  2  0
 22 23  1  0
 23 24  3  0
  9 25  1  0
 25 26  2  0
 26  6  1  0
 22 15  1  0
  1 27  1  0
  1 28  1  0
  1 29  1  0
  2 30  1  0
  2 31  1  0
  7 32  1  0
  8 33  1  0
 10 34  1  0
 13 35  1  0
 13 36  1  0
 18 37  1  0
 18 38  1  0
 18 39  1  0
 19 40  1  0
 21 41  1  0
 21 42  1  0
 21 43  1  0
 25 44  1  0
 26 45  1  0
M  END
>  <Binding energies>  (1) 
[-8.0]

>  <Ligand effiencies>  (1) 
[-0.2962962962962963]

>  <Interactions>  (1) 
["V-A:HIS:456:CD2:4068, H-B:LYS:547:NZ:9923, V-B:GLU:543:C:9874, H-A:LYS:547:NZ:4951, V-B:GLU:543:CB:9878, V-A:HIS:456:CE1:4069, V-B:HIS:456:CE1:9040, V-B:GLU:543:CG:9879, V-B:ALA:541:CB:9864, V-B:GLU:543:CA:9876, V-A:TYR:484:CZ:4347, V-A:LEU:475:CD1:4258, V-A:TYR:484:CE1:4345, H-A:GLY:454:N:4050, H-A:TYR:484:OH:4348, V-A:GLY:454:CA:4049, V-A:ILE:369:CD1:3239, V-B:TYR:539:CD2:9846, V-A:HIS:456:CG:4066, V-A:TYR:484:CE2:4346, V-A:TYR:484:CD1:4343, V-B:LYS:547:CD:9921, H-B:GLU:543:O:9875, H-A:HIS:456:ND1:4067"]

$$$$
1aa_Ghoteimi_2023
     RDKit          3D

 67 70  0  0  0  0  0  0  0  0999 V2000
  123.6470  134.6130   61.3020 C   0  0  0  0  0  0  0  0  0  0  0  0
  124.7030  133.7570   60.5960 C   0  0  0  0  0  0  0  0  0  0  0  0
  124.1080  133.0860   59.4920 O   0  0  0  0  0  0  0  0  0  0  0  0
  123.6890  131.7990   59.5960 C   0  0  0  0  0  0  0  0  0  0  0  0
  123.0420  131.2210   58.7180 O   0  0  0  0  0  0  0  0  0  0  0  0
  124.0900  131.1470   60.8880 C   0  0  0  0  0  0  0  0  0  0  0  0
  123.1960  131.0140   61.9620 C   0  0  0  0  0  0  0  0  0  0  0  0
  123.5960  130.4030   63.1480 C   0  0  0  0  0  0  0  0  0  0  0  0
  124.9020  129.9110   63.2800 C   0  0  0  0  0  0  0  0  0  0  0  0
  125.4170  129.2790   64.4270 N   0  0  0  0  0  0  0  0  0  0  0  0
  124.9550  129.2590   65.6990 C   0  0  0  0  0  0  0  0  0  0  0  0
  123.9340  129.8270   66.0860 O   0  0  0  0  0  0  0  0  0  0  0  0
  125.7710  128.4650   66.7320 C   0  0  0  0  0  0  0  0  0  0  0  0
  127.1630  128.4790   66.3900 O   0  0  0  0  0  0  0  0  0  0  0  0
  128.0090  127.4800   66.8520 C   0  0  0  0  0  0  0  0  0  0  0  0
  128.0980  127.2880   68.1970 N   0  0  0  0  0  0  0  0  0  0  0  0
  128.9270  126.3300   68.6890 C   0  0  0  0  0  0  0  0  0  0  0  0
  128.9670  126.1800   70.1830 C   0  0  0  0  0  0  0  0  0  0  0  0
  128.3450  127.1180   71.0200 C   0  0  0  0  0  0  0  0  0  0  0  0
  128.3820  126.9820   72.4050 C   0  0  0  0  0  0  0  0  0  0  0  0
  129.0400  125.9050   72.9960 C   0  0  0  0  0  0  0  0  0  0  0  0
  129.0260  125.8530   74.3770 O   0  0  0  0  0  0  0  0  0  0  0  0
  130.2570  125.7280   75.0790 C   0  0  0  0  0  0  0  0  0  0  0  0
  129.6610  124.9560   72.1730 C   0  0  0  0  0  0  0  0  0  0  0  0
  129.6210  125.0940   70.7880 C   0  0  0  0  0  0  0  0  0  0  0  0
  129.6760  125.5220   67.8250 C   0  0  0  0  0  0  0  0  0  0  0  0
  129.5940  125.6920   66.4360 C   0  0  0  0  0  0  0  0  0  0  0  0
  130.4100  124.7920   65.5680 C   0  0  0  0  0  0  0  0  0  0  0  0
  131.6980  125.1700   65.1780 C   0  0  0  0  0  0  0  0  0  0  0  0
  132.4690  124.3330   64.3770 C   0  0  0  0  0  0  0  0  0  0  0  0
  131.9730  123.1000   63.9550 C   0  0  0  0  0  0  0  0  0  0  0  0
  132.8080  122.3360   63.1630 O   0  0  0  0  0  0  0  0  0  0  0  0
  133.6540  122.9830   62.2200 C   0  0  0  0  0  0  0  0  0  0  0  0
  130.6840  122.7130   64.3510 C   0  0  0  0  0  0  0  0  0  0  0  0
  129.9140  123.5520   65.1520 C   0  0  0  0  0  0  0  0  0  0  0  0
  128.7420  126.7060   65.9380 C   0  0  0  0  0  0  0  0  0  0  0  0
  128.6250  126.9860   64.5060 C   0  0  0  0  0  0  0  0  0  0  0  0
  128.5300  127.2080   63.3750 N   0  0  0  0  0  0  0  0  0  0  0  0
  125.7940  130.0440   62.2150 C   0  0  0  0  0  0  0  0  0  0  0  0
  125.3940  130.6540   61.0310 C   0  0  0  0  0  0  0  0  0  0  0  0
  123.7656  134.5169   62.3914 H   0  0  0  0  0  0  0  0  0  0  0  0
  123.7741  135.6661   61.0108 H   0  0  0  0  0  0  0  0  0  0  0  0
  122.6430  134.2707   61.0108 H   0  0  0  0  0  0  0  0  0  0  0  0
  125.5181  134.4025   60.2369 H   0  0  0  0  0  0  0  0  0  0  0  0
  125.1063  133.0159   61.3018 H   0  0  0  0  0  0  0  0  0  0  0  0
  122.1690  131.3962   61.8660 H   0  0  0  0  0  0  0  0  0  0  0  0
  122.8859  130.3064   63.9825 H   0  0  0  0  0  0  0  0  0  0  0  0
  126.2640  128.7540   64.2620 H   0  0  0  0  0  0  0  0  0  0  0  0
  125.6376  128.9189   67.7251 H   0  0  0  0  0  0  0  0  0  0  0  0
  125.4171  127.4235   66.7406 H   0  0  0  0  0  0  0  0  0  0  0  0
  127.8192  127.9754   70.5746 H   0  0  0  0  0  0  0  0  0  0  0  0
  127.8869  127.7321   73.0392 H   0  0  0  0  0  0  0  0  0  0  0  0
  130.0651  125.7475   76.1620 H   0  0  0  0  0  0  0  0  0  0  0  0
  130.7381  124.7764   74.8089 H   0  0  0  0  0  0  0  0  0  0  0  0
  130.9196  126.5635   74.8089 H   0  0  0  0  0  0  0  0  0  0  0  0
  130.1824  124.0983   72.6230 H   0  0  0  0  0  0  0  0  0  0  0  0
  130.1106  124.3385   70.1559 H   0  0  0  0  0  0  0  0  0  0  0  0
  130.3355  124.7459   68.2404 H   0  0  0  0  0  0  0  0  0  0  0  0
  132.1056  126.1373   65.5070 H   0  0  0  0  0  0  0  0  0  0  0  0
  133.4788  124.6469   64.0740 H   0  0  0  0  0  0  0  0  0  0  0  0
  134.4182  123.5674   62.7534 H   0  0  0  0  0  0  0  0  0  0  0  0
  134.1446  122.2275   61.5887 H   0  0  0  0  0  0  0  0  0  0  0  0
  133.0534  123.6544   61.5887 H   0  0  0  0  0  0  0  0  0  0  0  0
  130.2799  121.7425   64.0273 H   0  0  0  0  0  0  0  0  0  0  0  0
  128.9063  123.2369   65.4606 H   0  0  0  0  0  0  0  0  0  0  0  0
  126.8214  129.6634   62.3128 H   0  0  0  0  0  0  0  0  0  0  0  0
  126.1075  130.7504   60.1993 H   0  0  0  0  0  0  0  0  0  0  0  0
  1  2  1  0
  2  3  1  0
  3  4  1  0
  4  5  2  0
  4  6  1  0
  6  7  2  0
  7  8  1  0
  8  9  2  0
  9 10  1  0
 10 11  1  0
 11 12  2  0
 11 13  1  0
 13 14  1  0
 14 15  1  0
 15 16  2  0
 16 17  1  0
 17 18  1  0
 18 19  2  0
 19 20  1  0
 20 21  2  0
 21 22  1  0
 22 23  1  0
 21 24  1  0
 24 25  2  0
 17 26  2  0
 26 27  1  0
 27 28  1  0
 28 29  2  0
 29 30  1  0
 30 31  2  0
 31 32  1  0
 32 33  1  0
 31 34  1  0
 34 35  2  0
 27 36  2  0
 36 37  1  0
 37 38  3  0
  9 39  1  0
 39 40  2  0
 40  6  1  0
 36 15  1  0
 25 18  1  0
 35 28  1  0
  1 41  1  0
  1 42  1  0
  1 43  1  0
  2 44  1  0
  2 45  1  0
  7 46  1  0
  8 47  1  0
 10 48  1  0
 13 49  1  0
 13 50  1  0
 19 51  1  0
 20 52  1  0
 23 53  1  0
 23 54  1  0
 23 55  1  0
 24 56  1  0
 25 57  1  0
 26 58  1  0
 29 59  1  0
 30 60  1  0
 33 61  1  0
 33 62  1  0
 33 63  1  0
 34 64  1  0
 35 65  1  0
 39 66  1  0
 40 67  1  0
M  END
>  <Binding energies>  (1) 
[-8.91]

>  <Ligand effiencies>  (1) 
[-0.2173170731707317]

>  <Interactions>  (1) 
["V-B:ARG:545:CG:9894, V-A:HIS:456:CD2:4068, V-B:GLU:543:CD:9880, H-B:LYS:547:NZ:9923, V-B:GLU:543:CB:9878, V-A:HIS:456:CE1:4069, V-B:ARG:545:CZ:9898, V-B:ARG:545:CD:9895, V-B:HIS:456:CE1:9040, V-B:GLU:543:CG:9879, V-B:TRP:381:CH2:8343, H-B:GLY:454:N:9021, V-B:ILE:369:CB:8207, V-B:ASP:366:CG:8184, V-B:LEU:475:CD1:9229, V-B:ILE:369:CD1:8210, V-A:TYR:539:CE2:4876, H-B:TYR:484:OH:9319, V-B:ILE:369:CG2:8208, V-A:TYR:539:CD2:4874, V-B:GLU:543:CA:9876, H-B:ARG:545:NE:9896, V-A:TYR:484:CZ:4347, V-A:LEU:475:CD1:4258, V-A:TYR:484:CE1:4345, V-A:GLY:454:CA:4049, H-A:TYR:539:OH:4878, V-A:HIS:456:CG:4066, H-B:GLU:543:OE1:9881"]

$$$$
1b_Ghoteimi_2023
     RDKit          3D

 54 57  0  0  0  0  0  0  0  0999 V2000
  134.0900  124.3900   62.6320 C   0  0  0  0  0  0  0  0  0  0  0  0
  133.6780  124.3660   63.9940 O   0  0  0  0  0  0  0  0  0  0  0  0
  132.4970  124.9860   64.3510 C   0  0  0  0  0  0  0  0  0  0  0  0
  132.3210  125.2630   65.7060 C   0  0  0  0  0  0  0  0  0  0  0  0
  131.1610  125.8850   66.1590 C   0  0  0  0  0  0  0  0  0  0  0  0
  130.1410  126.2530   65.2690 C   0  0  0  0  0  0  0  0  0  0  0  0
  128.8890  126.9230   65.7630 C   0  0  0  0  0  0  0  0  0  0  0  0
  128.2470  127.9480   65.0600 C   0  0  0  0  0  0  0  0  0  0  0  0
  127.0790  128.5360   65.5620 C   0  0  0  0  0  0  0  0  0  0  0  0
  126.4500  129.6290   64.7620 C   0  0  0  0  0  0  0  0  0  0  0  0
  125.1390  129.4960   64.2950 C   0  0  0  0  0  0  0  0  0  0  0  0
  124.5510  130.5080   63.5410 C   0  0  0  0  0  0  0  0  0  0  0  0
  125.2620  131.6690   63.2350 C   0  0  0  0  0  0  0  0  0  0  0  0
  124.5990  132.6180   62.4820 O   0  0  0  0  0  0  0  0  0  0  0  0
  123.7450  132.1930   61.4250 C   0  0  0  0  0  0  0  0  0  0  0  0
  126.5810  131.8020   63.6940 C   0  0  0  0  0  0  0  0  0  0  0  0
  127.1660  130.7890   64.4470 C   0  0  0  0  0  0  0  0  0  0  0  0
  126.5590  128.0610   66.7910 C   0  0  0  0  0  0  0  0  0  0  0  0
  125.2890  128.5760   67.3110 C   0  0  0  0  0  0  0  0  0  0  0  0
  124.2860  128.9840   67.7210 N   0  0  0  0  0  0  0  0  0  0  0  0
  127.2680  127.0380   67.4600 C   0  0  0  0  0  0  0  0  0  0  0  0
  126.7690  126.3250   69.0140 S   0  0  0  0  0  0  0  0  0  0  0  0
  127.9390  126.8920   70.2930 C   0  0  0  0  0  0  0  0  0  0  0  0
  128.3720  125.8170   71.3000 C   0  0  0  0  0  0  0  0  0  0  0  0
  128.1900  125.9770   72.5090 O   0  0  0  0  0  0  0  0  0  0  0  0
  128.9500  124.7270   70.7470 N   0  0  0  0  0  0  0  0  0  0  0  0
  129.4340  123.6050   71.4090 C   0  0  0  0  0  0  0  0  0  0  0  0
  130.6640  123.5800   72.0640 C   0  0  0  0  0  0  0  0  0  0  0  0
  130.7680  122.3090   72.5810 C   0  0  0  0  0  0  0  0  0  0  0  0
  129.6570  121.6060   72.2550 O   0  0  0  0  0  0  0  0  0  0  0  0
  128.8190  122.4380   71.5130 N   0  0  0  0  0  0  0  0  0  0  0  0
  128.3880  126.4760   66.9440 N   0  0  0  0  0  0  0  0  0  0  0  0
  130.3280  125.9690   63.9070 C   0  0  0  0  0  0  0  0  0  0  0  0
  131.4850  125.3460   63.4500 C   0  0  0  0  0  0  0  0  0  0  0  0
  135.1870  124.4539   62.5818 H   0  0  0  0  0  0  0  0  0  0  0  0
  133.7530  123.4707   62.1307 H   0  0  0  0  0  0  0  0  0  0  0  0
  133.6485  125.2639   62.1307 H   0  0  0  0  0  0  0  0  0  0  0  0
  133.1069  124.9872   66.4245 H   0  0  0  0  0  0  0  0  0  0  0  0
  131.0422  126.0914   67.2329 H   0  0  0  0  0  0  0  0  0  0  0  0
  128.6637  128.2958   64.1032 H   0  0  0  0  0  0  0  0  0  0  0  0
  124.5676  128.5847   64.5251 H   0  0  0  0  0  0  0  0  0  0  0  0
  123.5173  130.3913   63.1835 H   0  0  0  0  0  0  0  0  0  0  0  0
  122.8358  131.7405   61.8476 H   0  0  0  0  0  0  0  0  0  0  0  0
  123.4696  133.0591   60.8054 H   0  0  0  0  0  0  0  0  0  0  0  0
  124.2699  131.4510   60.8054 H   0  0  0  0  0  0  0  0  0  0  0  0
  127.1546  132.7104   63.4577 H   0  0  0  0  0  0  0  0  0  0  0  0
  128.2023  130.9012   64.7984 H   0  0  0  0  0  0  0  0  0  0  0  0
  128.8405  127.2688   69.7876 H   0  0  0  0  0  0  0  0  0  0  0  0
  127.4095  127.6615   70.8740 H   0  0  0  0  0  0  0  0  0  0  0  0
  129.0330  124.7080   69.7410 H   0  0  0  0  0  0  0  0  0  0  0  0
  131.3935  124.3988   72.1492 H   0  0  0  0  0  0  0  0  0  0  0  0
  131.6173  121.9253   73.1654 H   0  0  0  0  0  0  0  0  0  0  0  0
  129.5439  126.2446   63.1865 H   0  0  0  0  0  0  0  0  0  0  0  0
  131.6063  125.1350   62.3773 H   0  0  0  0  0  0  0  0  0  0  0  0
  1  2  1  0
  2  3  1  0
  3  4  2  0
  4  5  1  0
  5  6  2  0
  6  7  1  0
  7  8  2  0
  8  9  1  0
  9 10  1  0
 10 11  2  0
 11 12  1  0
 12 13  2  0
 13 14  1  0
 14 15  1  0
 13 16  1  0
 16 17  2  0
  9 18  2  0
 18 19  1  0
 19 20  3  0
 18 21  1  0
 21 22  1  0
 22 23  1  0
 23 24  1  0
 24 25  2  0
 24 26  1  0
 26 27  1  0
 27 28  1  0
 28 29  2  0
 29 30  1  0
 30 31  1  0
 21 32  2  0
  6 33  1  0
 33 34  2  0
 34  3  1  0
 32  7  1  0
 17 10  1  0
 31 27  2  0
  1 35  1  0
  1 36  1  0
  1 37  1  0
  4 38  1  0
  5 39  1  0
  8 40  1  0
 11 41  1  0
 12 42  1  0
 15 43  1  0
 15 44  1  0
 15 45  1  0
 16 46  1  0
 17 47  1  0
 23 48  1  0
 23 49  1  0
 26 50  1  0
 28 51  1  0
 29 52  1  0
 33 53  1  0
 34 54  1  0
M  END
>  <Binding energies>  (1) 
[-9.97]

>  <Ligand effiencies>  (1) 
[-0.28485714285714286]

>  <Interactions>  (1) 
["V-B:ARG:545:CG:9894, V-A:HIS:456:CD2:4068, V-B:GLU:543:CD:9880, H-B:LYS:547:NZ:9923, V-B:GLU:543:C:9874, V-B:GLU:543:CB:9878, V-A:HIS:456:CE1:4069, V-B:ARG:545:CZ:9898, V-B:ARG:545:CD:9895, V-B:HIS:456:CE1:9040, V-A:GLU:543:CD:4908, V-B:LEU:475:CD1:9229, V-B:ILE:369:CD1:8210, H-B:TYR:484:OH:9319, V-B:ILE:369:CG2:8208, H-B:ARG:545:NE:9896, H-A:GLY:454:N:4050, V-A:ARG:545:CZ:4926, V-A:GLY:453:CA:4044, V-A:GLY:453:C:4042, V-B:GLY:544:C:9884, H-B:ARG:545:N:9892, V-A:HIS:456:CG:4066, V-A:TYR:484:CD2:4344, V-A:TYR:484:CE2:4346, V-A:TYR:484:CD1:4343, V-A:HIS:456:CB:4065, V-A:TYR:484:CG:4342, H-B:GLU:543:O:9875, V-A:TYR:484:CB:4341"]

$$$$
1b_Grossjean_2025
     RDKit          3D

 42 43  0  0  0  0  0  0  0  0999 V2000
  125.7250  127.3740   73.3980 C   0  0  0  0  0  0  0  0  0  0  0  0
  126.9620  127.5080   72.7110 O   0  0  0  0  0  0  0  0  0  0  0  0
  127.8790  126.5070   72.7230 C   0  0  0  0  0  0  0  0  0  0  0  0
  128.2530  125.9390   73.7540 O   0  0  0  0  0  0  0  0  0  0  0  0
  128.3890  126.1520   71.3550 C   0  0  0  0  0  0  0  0  0  0  0  0
  129.2930  125.0990   71.1500 C   0  0  0  0  0  0  0  0  0  0  0  0
  129.7460  124.7970   69.8700 C   0  0  0  0  0  0  0  0  0  0  0  0
  129.3090  125.5360   68.7700 C   0  0  0  0  0  0  0  0  0  0  0  0
  129.8340  125.1430   67.5250 N   0  0  0  0  0  0  0  0  0  0  0  0
  129.6010  125.6340   66.2880 C   0  0  0  0  0  0  0  0  0  0  0  0
  128.8490  126.5690   66.0200 O   0  0  0  0  0  0  0  0  0  0  0  0
  130.3660  124.9460   65.1560 C   0  0  0  0  0  0  0  0  0  0  0  0
  130.0870  123.1500   65.1310 S   0  0  0  0  0  0  0  0  0  0  0  0
  130.9120  122.5040   63.6920 C   0  0  0  0  0  0  0  0  0  0  0  0
  130.1550  121.6420   62.9690 N   0  0  0  0  0  0  0  0  0  0  0  0
  130.6850  121.0910   61.8520 C   0  0  0  0  0  0  0  0  0  0  0  0
  129.7760  120.1480   61.0860 C   0  0  0  0  0  0  0  0  0  0  0  0
  131.9810  121.3660   61.4200 C   0  0  0  0  0  0  0  0  0  0  0  0
  132.7770  122.2370   62.1710 C   0  0  0  0  0  0  0  0  0  0  0  0
  134.2000  122.5100   61.6870 C   0  0  0  0  0  0  0  0  0  0  0  0
  132.2450  122.8240   63.3420 C   0  0  0  0  0  0  0  0  0  0  0  0
  133.0750  123.7040   64.1680 C   0  0  0  0  0  0  0  0  0  0  0  0
  133.7330  124.3990   64.8180 N   0  0  0  0  0  0  0  0  0  0  0  0
  128.4040  126.5900   68.9670 C   0  0  0  0  0  0  0  0  0  0  0  0
  127.9510  126.8910   70.2480 C   0  0  0  0  0  0  0  0  0  0  0  0
  125.9043  127.3934   74.4831 H   0  0  0  0  0  0  0  0  0  0  0  0
  125.0600  128.2054   73.1213 H   0  0  0  0  0  0  0  0  0  0  0  0
  125.2534  126.4195   73.1213 H   0  0  0  0  0  0  0  0  0  0  0  0
  129.6462  124.5078   72.0078 H   0  0  0  0  0  0  0  0  0  0  0  0
  130.4547  123.9686   69.7237 H   0  0  0  0  0  0  0  0  0  0  0  0
  130.4740  124.3640   67.5780 H   0  0  0  0  0  0  0  0  0  0  0  0
  130.0348  125.3693   64.1962 H   0  0  0  0  0  0  0  0  0  0  0  0
  131.4398  125.1186   65.3205 H   0  0  0  0  0  0  0  0  0  0  0  0
  129.1930  119.5432   61.7961 H   0  0  0  0  0  0  0  0  0  0  0  0
  129.0914  120.7319   60.4533 H   0  0  0  0  0  0  0  0  0  0  0  0
  130.3846  119.4853   60.4533 H   0  0  0  0  0  0  0  0  0  0  0  0
  132.3725  120.9046   60.5014 H   0  0  0  0  0  0  0  0  0  0  0  0
  134.8642  122.6374   62.5545 H   0  0  0  0  0  0  0  0  0  0  0  0
  134.5494  121.6625   61.0790 H   0  0  0  0  0  0  0  0  0  0  0  0
  134.2110  123.4266   61.0790 H   0  0  0  0  0  0  0  0  0  0  0  0
  128.0520  127.1794   68.1075 H   0  0  0  0  0  0  0  0  0  0  0  0
  127.2410  127.7185   70.3931 H   0  0  0  0  0  0  0  0  0  0  0  0
  1  2  1  0
  2  3  1  0
  3  4  2  0
  3  5  1  0
  5  6  2  0
  6  7  1  0
  7  8  2  0
  8  9  1  0
  9 10  1  0
 10 11  2  0
 10 12  1  0
 12 13  1  0
 13 14  1  0
 14 15  2  0
 15 16  1  0
 16 17  1  0
 16 18  2  0
 18 19  1  0
 19 20  1  0
 19 21  2  0
 21 22  1  0
 22 23  3  0
  8 24  1  0
 24 25  2  0
 25  5  1  0
 21 14  1  0
  1 26  1  0
  1 27  1  0
  1 28  1  0
  6 29  1  0
  7 30  1  0
  9 31  1  0
 12 32  1  0
 12 33  1  0
 17 34  1  0
 17 35  1  0
 17 36  1  0
 18 37  1  0
 20 38  1  0
 20 39  1  0
 20 40  1  0
 24 41  1  0
 25 42  1  0
M  END
>  <Binding energies>  (1) 
[-7.84]

>  <Ligand effiencies>  (1) 
[-0.30153846153846153]

>  <Interactions>  (1) 
["V-A:HIS:456:CD2:4068, H-B:LYS:547:NZ:9923, V-B:GLU:543:C:9874, V-B:GLU:543:CB:9878, V-A:HIS:456:CE1:4069, V-B:HIS:456:CE1:9040, V-B:ALA:541:CB:9864, V-A:TYR:484:CZ:4347, V-A:LEU:475:CD1:4258, V-A:TYR:484:CE1:4345, H-A:GLY:454:N:4050, H-A:TYR:484:OH:4348, V-A:GLY:454:CA:4049, V-A:ILE:369:CD1:3239, V-B:TYR:539:CD2:9846, V-A:PRO:482:CG:4327, V-B:GLY:544:C:9884, V-A:HIS:456:CG:4066, V-B:HIS:456:CB:9036, V-B:HIS:456:CG:9037, H-B:GLU:543:O:9875, H-A:HIS:456:ND1:4067"]

$$$$
1c_Ghoteimi_2023
     RDKit          3D

 54 57  0  0  0  0  0  0  0  0999 V2000
  127.2280  126.6200   74.8260 C   0  0  0  0  0  0  0  0  0  0  0  0
  128.2720  125.8770   74.2060 O   0  0  0  0  0  0  0  0  0  0  0  0
  128.4670  125.9950   72.8430 C   0  0  0  0  0  0  0  0  0  0  0  0
  127.8650  127.0830   72.2170 C   0  0  0  0  0  0  0  0  0  0  0  0
  128.0070  127.2780   70.8460 C   0  0  0  0  0  0  0  0  0  0  0  0
  128.7550  126.3890   70.0590 C   0  0  0  0  0  0  0  0  0  0  0  0
  128.9060  126.5930   68.5790 C   0  0  0  0  0  0  0  0  0  0  0  0
  129.6180  125.7070   67.7620 C   0  0  0  0  0  0  0  0  0  0  0  0
  129.7090  125.9250   66.3820 C   0  0  0  0  0  0  0  0  0  0  0  0
  130.4260  124.9050   65.5630 C   0  0  0  0  0  0  0  0  0  0  0  0
  131.7430  125.1230   65.1470 C   0  0  0  0  0  0  0  0  0  0  0  0
  132.4020  124.1800   64.3650 C   0  0  0  0  0  0  0  0  0  0  0  0
  131.7580  123.0050   63.9800 C   0  0  0  0  0  0  0  0  0  0  0  0
  132.4900  122.1260   63.2040 O   0  0  0  0  0  0  0  0  0  0  0  0
  133.5000  122.6370   62.3400 C   0  0  0  0  0  0  0  0  0  0  0  0
  130.4340  122.7850   64.3890 C   0  0  0  0  0  0  0  0  0  0  0  0
  129.7760  123.7300   65.1710 C   0  0  0  0  0  0  0  0  0  0  0  0
  129.0900  127.0770   65.8400 C   0  0  0  0  0  0  0  0  0  0  0  0
  129.1770  127.3790   64.4070 C   0  0  0  0  0  0  0  0  0  0  0  0
  129.2470  127.6170   63.2770 N   0  0  0  0  0  0  0  0  0  0  0  0
  128.3750  127.9180   66.7180 C   0  0  0  0  0  0  0  0  0  0  0  0
  127.4100  129.3010   66.1510 S   0  0  0  0  0  0  0  0  0  0  0  0
  125.6940  128.8920   66.6100 C   0  0  0  0  0  0  0  0  0  0  0  0
  124.6730  129.5550   65.6790 C   0  0  0  0  0  0  0  0  0  0  0  0
  123.7520  130.2170   66.1600 O   0  0  0  0  0  0  0  0  0  0  0  0
  124.9030  129.3860   64.3580 N   0  0  0  0  0  0  0  0  0  0  0  0
  124.2290  130.0000   63.3150 C   0  0  0  0  0  0  0  0  0  0  0  0
  122.9590  130.3410   63.2630 N   0  0  0  0  0  0  0  0  0  0  0  0
  122.6670  130.9460   62.1270 C   0  0  0  0  0  0  0  0  0  0  0  0
  123.7170  131.1080   61.2290 C   0  0  0  0  0  0  0  0  0  0  0  0
  125.1610  130.4260   61.9160 S   0  0  0  0  0  0  0  0  0  0  0  0
  128.2800  127.6750   68.0470 N   0  0  0  0  0  0  0  0  0  0  0  0
  129.3620  125.3000   70.7010 C   0  0  0  0  0  0  0  0  0  0  0  0
  129.2220  125.1000   72.0710 C   0  0  0  0  0  0  0  0  0  0  0  0
  127.3271  126.5495   75.9193 H   0  0  0  0  0  0  0  0  0  0  0  0
  127.2959  127.6741   74.5189 H   0  0  0  0  0  0  0  0  0  0  0  0
  126.2543  126.2106   74.5189 H   0  0  0  0  0  0  0  0  0  0  0  0
  127.2722  127.7945   72.8106 H   0  0  0  0  0  0  0  0  0  0  0  0
  127.5241  128.1447   70.3709 H   0  0  0  0  0  0  0  0  0  0  0  0
  130.1109  124.8309   68.2086 H   0  0  0  0  0  0  0  0  0  0  0  0
  132.2620  126.0474   65.4404 H   0  0  0  0  0  0  0  0  0  0  0  0
  133.4393  124.3628   64.0479 H   0  0  0  0  0  0  0  0  0  0  0  0
  134.3215  123.0527   62.9419 H   0  0  0  0  0  0  0  0  0  0  0  0
  133.8848  121.8251   61.7053 H   0  0  0  0  0  0  0  0  0  0  0  0
  133.0739  123.4280   61.7053 H   0  0  0  0  0  0  0  0  0  0  0  0
  129.9142  121.8626   64.0907 H   0  0  0  0  0  0  0  0  0  0  0  0
  128.7365  123.5514   65.4833 H   0  0  0  0  0  0  0  0  0  0  0  0
  125.5639  127.8009   66.5590 H   0  0  0  0  0  0  0  0  0  0  0  0
  125.5175  129.2686   67.6283 H   0  0  0  0  0  0  0  0  0  0  0  0
  125.6890  128.8120   64.0940 H   0  0  0  0  0  0  0  0  0  0  0  0
  121.6506  131.3021   61.9029 H   0  0  0  0  0  0  0  0  0  0  0  0
  123.6452  131.5901   60.2429 H   0  0  0  0  0  0  0  0  0  0  0  0
  129.9601  124.5904   70.1105 H   0  0  0  0  0  0  0  0  0  0  0  0
  129.7056  124.2362   72.5505 H   0  0  0  0  0  0  0  0  0  0  0  0
  1  2  1  0
  2  3  1  0
  3  4  2  0
  4  5  1  0
  5  6  2  0
  6  7  1  0
  7  8  2  0
  8  9  1  0
  9 10  1  0
 10 11  2  0
 11 12  1  0
 12 13  2  0
 13 14  1  0
 14 15  1  0
 13 16  1  0
 16 17  2  0
  9 18  2  0
 18 19  1  0
 19 20  3  0
 18 21  1  0
 21 22  1  0
 22 23  1  0
 23 24  1  0
 24 25  2  0
 24 26  1  0
 26 27  1  0
 27 28  2  0
 28 29  1  0
 29 30  2  0
 30 31  1  0
 21 32  2  0
  6 33  1  0
 33 34  2  0
 34  3  1  0
 32  7  1  0
 17 10  1  0
 31 27  1  0
  1 35  1  0
  1 36  1  0
  1 37  1  0
  4 38  1  0
  5 39  1  0
  8 40  1  0
 11 41  1  0
 12 42  1  0
 15 43  1  0
 15 44  1  0
 15 45  1  0
 16 46  1  0
 17 47  1  0
 23 48  1  0
 23 49  1  0
 26 50  1  0
 29 51  1  0
 30 52  1  0
 33 53  1  0
 34 54  1  0
M  END
>  <Binding energies>  (1) 
[-9.45]

>  <Ligand effiencies>  (1) 
[-0.26999999999999996]

>  <Interactions>  (1) 
["V-B:ARG:545:CG:9894, V-A:HIS:456:CD2:4068, H-B:LYS:547:NZ:9923, V-B:HIS:456:CD2:9039, V-B:GLU:543:CB:9878, V-A:HIS:456:CE1:4069, V-B:ARG:545:CZ:9898, V-B:ARG:545:CD:9895, V-B:HIS:456:CE1:9040, V-B:GLU:543:CG:9879, V-A:GLU:543:CD:4908, H-B:GLY:454:N:9021, V-B:ASP:366:CG:8184, V-B:ILE:369:CD1:8210, H-B:ARG:545:NH1:9899, H-B:ILE:455:N:9026, H-B:TYR:484:OH:9319, H-B:ARG:545:NH2:9900, V-B:GLY:453:CA:9015, V-B:GLY:453:C:9013, V-B:GLU:543:CA:9876, H-B:ARG:545:NE:9896, V-A:LEU:475:CD1:4258, V-A:TYR:484:CE1:4345, V-A:GLY:454:CA:4049, H-B:GLU:543:OE1:9881, V-B:LYS:547:CD:9921, V-B:LYS:547:CE:9922"]

$$$$
1c_Grossjean_2025
     RDKit          3D

 40 41  0  0  0  0  0  0  0  0999 V2000
  127.2500  126.9210   73.4490 C   0  0  0  0  0  0  0  0  0  0  0  0
  128.2330  125.9310   73.1690 O   0  0  0  0  0  0  0  0  0  0  0  0
  128.6200  125.7190   71.8590 C   0  0  0  0  0  0  0  0  0  0  0  0
  129.4910  124.6520   71.6330 C   0  0  0  0  0  0  0  0  0  0  0  0
  129.9370  124.3580   70.3480 C   0  0  0  0  0  0  0  0  0  0  0  0
  129.5060  125.1340   69.2610 C   0  0  0  0  0  0  0  0  0  0  0  0
  129.9020  124.9310   67.9250 N   0  0  0  0  0  0  0  0  0  0  0  0
  129.4990  125.5690   66.8060 C   0  0  0  0  0  0  0  0  0  0  0  0
  128.6890  126.4950   66.7630 O   0  0  0  0  0  0  0  0  0  0  0  0
  130.1330  125.0730   65.5040 C   0  0  0  0  0  0  0  0  0  0  0  0
  130.1550  123.2580   65.4110 S   0  0  0  0  0  0  0  0  0  0  0  0
  130.9660  122.7830   63.8970 C   0  0  0  0  0  0  0  0  0  0  0  0
  130.2100  121.9750   63.1110 N   0  0  0  0  0  0  0  0  0  0  0  0
  130.7220  121.5470   61.9330 C   0  0  0  0  0  0  0  0  0  0  0  0
  129.8150  120.6560   61.1050 C   0  0  0  0  0  0  0  0  0  0  0  0
  131.9980  121.8950   61.4980 C   0  0  0  0  0  0  0  0  0  0  0  0
  132.7950  122.7070   62.3110 C   0  0  0  0  0  0  0  0  0  0  0  0
  134.1980  123.0600   61.8210 C   0  0  0  0  0  0  0  0  0  0  0  0
  132.2830  123.1640   63.5480 C   0  0  0  0  0  0  0  0  0  0  0  0
  133.1230  123.9700   64.4370 C   0  0  0  0  0  0  0  0  0  0  0  0
  133.7860  124.6070   65.1390 N   0  0  0  0  0  0  0  0  0  0  0  0
  128.6440  126.2090   69.4850 C   0  0  0  0  0  0  0  0  0  0  0  0
  128.2010  126.5000   70.7720 C   0  0  0  0  0  0  0  0  0  0  0  0
  127.1405  127.0313   74.5380 H   0  0  0  0  0  0  0  0  0  0  0  0
  127.5621  127.8813   73.0127 H   0  0  0  0  0  0  0  0  0  0  0  0
  126.2875  126.6157   73.0127 H   0  0  0  0  0  0  0  0  0  0  0  0
  129.8286  124.0367   72.4800 H   0  0  0  0  0  0  0  0  0  0  0  0
  130.6273  123.5174   70.1843 H   0  0  0  0  0  0  0  0  0  0  0  0
  130.6270  124.2390   67.8070 H   0  0  0  0  0  0  0  0  0  0  0  0
  129.5550  125.4659   64.6545 H   0  0  0  0  0  0  0  0  0  0  0  0
  131.1733  125.4291   65.4735 H   0  0  0  0  0  0  0  0  0  0  0  0
  129.1921  120.0441   61.7740 H   0  0  0  0  0  0  0  0  0  0  0  0
  129.1683  121.2797   60.4704 H   0  0  0  0  0  0  0  0  0  0  0  0
  130.4271  119.9983   60.4704 H   0  0  0  0  0  0  0  0  0  0  0  0
  132.3739  121.5363   60.5285 H   0  0  0  0  0  0  0  0  0  0  0  0
  134.8574  123.2259   62.6857 H   0  0  0  0  0  0  0  0  0  0  0  0
  134.5926  122.2332   61.2122 H   0  0  0  0  0  0  0  0  0  0  0  0
  134.1543  123.9751   61.2122 H   0  0  0  0  0  0  0  0  0  0  0  0
  128.3129  126.8297   68.6394 H   0  0  0  0  0  0  0  0  0  0  0  0
  127.5188  127.3469   70.9374 H   0  0  0  0  0  0  0  0  0  0  0  0
  1  2  1  0
  2  3  1  0
  3  4  2  0
  4  5  1  0
  5  6  2  0
  6  7  1  0
  7  8  1  0
  8  9  2  0
  8 10  1  0
 10 11  1  0
 11 12  1  0
 12 13  2  0
 13 14  1  0
 14 15  1  0
 14 16  2  0
 16 17  1  0
 17 18  1  0
 17 19  2  0
 19 20  1  0
 20 21  3  0
  6 22  1  0
 22 23  2  0
 23  3  1  0
 19 12  1  0
  1 24  1  0
  1 25  1  0
  1 26  1  0
  4 27  1  0
  5 28  1  0
  7 29  1  0
 10 30  1  0
 10 31  1  0
 15 32  1  0
 15 33  1  0
 15 34  1  0
 16 35  1  0
 18 36  1  0
 18 37  1  0
 18 38  1  0
 22 39  1  0
 23 40  1  0
M  END
>  <Binding energies>  (1) 
[-7.47]

>  <Ligand effiencies>  (1) 
[-0.31124999999999997]

>  <Interactions>  (1) 
["V-A:HIS:456:CD2:4068, H-B:LYS:547:NZ:9923, V-B:GLU:543:C:9874, V-B:GLU:543:CB:9878, V-A:HIS:456:CE1:4069, V-B:HIS:456:CE1:9040, V-B:ALA:541:CB:9864, V-A:TYR:484:CZ:4347, V-A:LEU:475:CD1:4258, V-A:TYR:484:CE1:4345, H-A:GLY:454:N:4050, H-A:TYR:484:OH:4348, V-A:GLY:454:CA:4049, V-A:ILE:369:CD1:3239, V-B:TYR:539:CD2:9846, V-B:GLY:544:C:9884, V-A:HIS:456:CG:4066, V-A:TYR:484:CD1:4343, H-B:GLU:543:O:9875, H-A:HIS:456:ND1:4067"]

$$$$
1d_Ghoteimi_2023
     RDKit          3D

 50 52  0  0  0  0  0  0  0  0999 V2000
  133.4740  124.8890   63.1360 C   0  0  0  0  0  0  0  0  0  0  0  0
  133.5340  124.1950   64.3730 O   0  0  0  0  0  0  0  0  0  0  0  0
  133.7420  124.8650   65.5250 C   0  0  0  0  0  0  0  0  0  0  0  0
  134.7000  124.7260   66.2860 O   0  0  0  0  0  0  0  0  0  0  0  0
  132.6260  125.8630   65.8250 C   0  0  0  0  0  0  0  0  0  0  0  0
  131.0430  125.0130   65.5470 S   0  0  0  0  0  0  0  0  0  0  0  0
  129.7810  125.9970   66.3250 C   0  0  0  0  0  0  0  0  0  0  0  0
  129.7350  125.8600   67.6720 N   0  0  0  0  0  0  0  0  0  0  0  0
  128.8150  126.5520   68.3920 C   0  0  0  0  0  0  0  0  0  0  0  0
  128.8360  126.3490   69.8790 C   0  0  0  0  0  0  0  0  0  0  0  0
  128.3220  127.3190   70.7540 C   0  0  0  0  0  0  0  0  0  0  0  0
  128.3470  127.1310   72.1330 C   0  0  0  0  0  0  0  0  0  0  0  0
  128.8880  125.9710   72.6810 C   0  0  0  0  0  0  0  0  0  0  0  0
  128.8750  125.8720   74.0590 O   0  0  0  0  0  0  0  0  0  0  0  0
  128.0370  126.7450   74.8090 C   0  0  0  0  0  0  0  0  0  0  0  0
  129.4060  124.9930   71.8210 C   0  0  0  0  0  0  0  0  0  0  0  0
  129.3770  125.1830   70.4420 C   0  0  0  0  0  0  0  0  0  0  0  0
  127.9160  127.4160   67.7570 C   0  0  0  0  0  0  0  0  0  0  0  0
  127.9310  127.5650   66.3640 C   0  0  0  0  0  0  0  0  0  0  0  0
  126.9380  128.4990   65.7510 C   0  0  0  0  0  0  0  0  0  0  0  0
  125.6210  128.5340   66.2210 C   0  0  0  0  0  0  0  0  0  0  0  0
  124.6910  129.4010   65.6540 C   0  0  0  0  0  0  0  0  0  0  0  0
  125.0580  130.2530   64.6130 C   0  0  0  0  0  0  0  0  0  0  0  0
  124.0680  131.0740   64.1080 O   0  0  0  0  0  0  0  0  0  0  0  0
  123.7520  131.0100   62.7220 C   0  0  0  0  0  0  0  0  0  0  0  0
  126.3810  130.2310   64.1470 C   0  0  0  0  0  0  0  0  0  0  0  0
  127.3100  129.3630   64.7160 C   0  0  0  0  0  0  0  0  0  0  0  0
  128.8760  126.8200   65.6170 C   0  0  0  0  0  0  0  0  0  0  0  0
  128.8680  126.8570   64.1510 C   0  0  0  0  0  0  0  0  0  0  0  0
  128.8610  126.8880   62.9940 N   0  0  0  0  0  0  0  0  0  0  0  0
  133.3807  125.9685   63.3254 H   0  0  0  0  0  0  0  0  0  0  0  0
  134.3922  124.6955   62.5621 H   0  0  0  0  0  0  0  0  0  0  0  0
  132.6026  124.5407   62.5621 H   0  0  0  0  0  0  0  0  0  0  0  0
  132.6935  126.1987   66.8703 H   0  0  0  0  0  0  0  0  0  0  0  0
  132.7109  126.7461   65.1746 H   0  0  0  0  0  0  0  0  0  0  0  0
  127.8919  128.2440   70.3426 H   0  0  0  0  0  0  0  0  0  0  0  0
  127.9354  127.9062   72.7961 H   0  0  0  0  0  0  0  0  0  0  0  0
  128.1995  126.5757   75.8837 H   0  0  0  0  0  0  0  0  0  0  0  0
  128.2799  127.7889   74.5614 H   0  0  0  0  0  0  0  0  0  0  0  0
  126.9841  126.5449   74.5614 H   0  0  0  0  0  0  0  0  0  0  0  0
  129.8375  124.0709   72.2375 H   0  0  0  0  0  0  0  0  0  0  0  0
  129.7859  124.4043   69.7813 H   0  0  0  0  0  0  0  0  0  0  0  0
  127.1902  127.9839   68.3575 H   0  0  0  0  0  0  0  0  0  0  0  0
  125.3178  127.8713   67.0450 H   0  0  0  0  0  0  0  0  0  0  0  0
  123.6575  129.4140   66.0305 H   0  0  0  0  0  0  0  0  0  0  0  0
  122.6806  130.7930   62.5999 H   0  0  0  0  0  0  0  0  0  0  0  0
  123.9873  131.9740   62.2474 H   0  0  0  0  0  0  0  0  0  0  0  0
  124.3439  130.2135   62.2474 H   0  0  0  0  0  0  0  0  0  0  0  0
  126.6857  130.9013   63.3297 H   0  0  0  0  0  0  0  0  0  0  0  0
  128.3465  129.3570   64.3477 H   0  0  0  0  0  0  0  0  0  0  0  0
  1  2  1  0
  2  3  1  0
  3  4  2  0
  3  5  1  0
  5  6  1  0
  6  7  1  0
  7  8  2  0
  8  9  1  0
  9 10  1  0
 10 11  2  0
 11 12  1  0
 12 13  2  0
 13 14  1  0
 14 15  1  0
 13 16  1  0
 16 17  2  0
  9 18  2  0
 18 19  1  0
 19 20  1  0
 20 21  2  0
 21 22  1  0
 22 23  2  0
 23 24  1  0
 24 25  1  0
 23 26  1  0
 26 27  2  0
 19 28  2  0
 28 29  1  0
 29 30  3  0
 28  7  1  0
 17 10  1  0
 27 20  1  0
  1 31  1  0
  1 32  1  0
  1 33  1  0
  5 34  1  0
  5 35  1  0
 11 36  1  0
 12 37  1  0
 15 38  1  0
 15 39  1  0
 15 40  1  0
 16 41  1  0
 17 42  1  0
 18 43  1  0
 21 44  1  0
 22 45  1  0
 25 46  1  0
 25 47  1  0
 25 48  1  0
 26 49  1  0
 27 50  1  0
M  END
>  <Binding energies>  (1) 
[-8.63]

>  <Ligand effiencies>  (1) 
[-0.2876666666666667]

>  <Interactions>  (1) 
["V-B:ARG:545:CG:9894, V-A:HIS:456:CD2:4068, V-B:GLU:543:CD:9880, H-B:LYS:547:NZ:9923, V-B:HIS:456:CD2:9039, V-A:HIS:456:CE1:4069, V-B:ARG:545:CZ:9898, H-A:HIS:456:NE2:4070, V-B:ARG:545:CD:9895, V-B:HIS:456:CE1:9040, V-A:GLU:543:CD:4908, H-B:GLY:454:N:9021, V-B:GLY:454:CA:9020, H-B:TYR:484:OH:9319, H-A:ILE:455:N:4055, H-A:GLY:454:N:4050, V-A:ARG:545:CZ:4926, H-A:TYR:484:OH:4348, V-A:ARG:545:CD:4923, V-A:ARG:545:CG:4922"]

$$$$
1d_Grossjean_2025
     RDKit          3D

 36 37  0  0  0  0  0  0  0  0999 V2000
  130.8330  125.5550   66.1400 C   0  0  0  0  0  0  0  0  0  0  0  0
  129.5560  126.3530   66.3190 C   0  0  0  0  0  0  0  0  0  0  0  0
  129.0980  127.2270   65.3370 C   0  0  0  0  0  0  0  0  0  0  0  0
  127.9080  127.9300   65.5530 C   0  0  0  0  0  0  0  0  0  0  0  0
  127.4170  128.8710   64.4540 C   0  0  0  0  0  0  0  0  0  0  0  0
  127.2040  127.7420   66.7650 C   0  0  0  0  0  0  0  0  0  0  0  0
  125.9320  128.4300   66.9930 C   0  0  0  0  0  0  0  0  0  0  0  0
  124.9260  128.9750   67.1690 N   0  0  0  0  0  0  0  0  0  0  0  0
  127.7570  126.8530   67.7170 C   0  0  0  0  0  0  0  0  0  0  0  0
  127.0080  126.4990   69.2910 S   0  0  0  0  0  0  0  0  0  0  0  0
  128.3540  126.2560   70.4900 C   0  0  0  0  0  0  0  0  0  0  0  0
  127.8830  126.4530   71.9320 C   0  0  0  0  0  0  0  0  0  0  0  0
  128.4330  125.8210   72.8340 O   0  0  0  0  0  0  0  0  0  0  0  0
  126.8880  127.3500   72.0980 N   0  0  0  0  0  0  0  0  0  0  0  0
  126.2210  127.7510   73.2700 C   0  0  0  0  0  0  0  0  0  0  0  0
  124.9030  127.3050   73.4000 C   0  0  0  0  0  0  0  0  0  0  0  0
  124.1550  127.6390   74.5250 C   0  0  0  0  0  0  0  0  0  0  0  0
  124.7270  128.4170   75.5280 C   0  0  0  0  0  0  0  0  0  0  0  0
  126.0420  128.8610   75.4160 C   0  0  0  0  0  0  0  0  0  0  0  0
  126.7930  128.5290   74.2920 C   0  0  0  0  0  0  0  0  0  0  0  0
  128.9010  126.1600   67.4880 N   0  0  0  0  0  0  0  0  0  0  0  0
  131.2456  125.2972   67.1266 H   0  0  0  0  0  0  0  0  0  0  0  0
  130.6139  124.6328   65.5818 H   0  0  0  0  0  0  0  0  0  0  0  0
  131.5658  126.1561   65.5818 H   0  0  0  0  0  0  0  0  0  0  0  0
  129.6642  127.3630   64.4038 H   0  0  0  0  0  0  0  0  0  0  0  0
  126.9541  129.7582   64.9107 H   0  0  0  0  0  0  0  0  0  0  0  0
  128.2680  129.1816   63.8300 H   0  0  0  0  0  0  0  0  0  0  0  0
  126.6754  128.3507   63.8300 H   0  0  0  0  0  0  0  0  0  0  0  0
  128.7455  125.2338   70.3813 H   0  0  0  0  0  0  0  0  0  0  0  0
  129.1318  127.0056   70.2824 H   0  0  0  0  0  0  0  0  0  0  0  0
  126.5740  127.8240   71.2640 H   0  0  0  0  0  0  0  0  0  0  0  0
  124.4543  126.6865   72.6087 H   0  0  0  0  0  0  0  0  0  0  0  0
  123.1163  127.2898   74.6214 H   0  0  0  0  0  0  0  0  0  0  0  0
  124.1352  128.6831   76.4162 H   0  0  0  0  0  0  0  0  0  0  0  0
  126.4866  129.4731   76.2145 H   0  0  0  0  0  0  0  0  0  0  0  0
  127.8334  128.8751   74.2034 H   0  0  0  0  0  0  0  0  0  0  0  0
  1  2  1  0
  2  3  2  0
  3  4  1  0
  4  5  1  0
  4  6  2  0
  6  7  1  0
  7  8  3  0
  6  9  1  0
  9 10  1  0
 10 11  1  0
 11 12  1  0
 12 13  2  0
 12 14  1  0
 14 15  1  0
 15 16  2  0
 16 17  1  0
 17 18  2  0
 18 19  1  0
 19 20  2  0
  9 21  2  0
 21  2  1  0
 20 15  1  0
  1 22  1  0
  1 23  1  0
  1 24  1  0
  3 25  1  0
  5 26  1  0
  5 27  1  0
  5 28  1  0
 11 29  1  0
 11 30  1  0
 14 31  1  0
 16 32  1  0
 17 33  1  0
 18 34  1  0
 19 35  1  0
 20 36  1  0
M  END
>  <Binding energies>  (1) 
[-6.8]

>  <Ligand effiencies>  (1) 
[-0.3090909090909091]

>  <Interactions>  (1) 
["V-B:ARG:545:CG:9894, V-B:GLU:543:CD:9880, H-B:LYS:547:NZ:9923, V-B:HIS:456:CD2:9039, V-B:GLU:543:CB:9878, V-A:HIS:456:CE1:4069, V-B:HIS:456:CE1:9040, V-A:GLU:543:CD:4908, H-B:TYR:484:OH:9319, H-B:ARG:545:NE:9896, H-B:HIS:456:ND1:9038, V-B:GLY:544:C:9884, H-B:ARG:545:N:9892, V-B:ARG:545:CA:9891, V-B:HIS:456:CB:9036, V-B:HIS:456:C:9032, V-B:ARG:545:C:9889, V-B:VAL:458:CG2:9058, V-B:VAL:457:C:9044, V-B:HIS:456:CG:9037, H-B:GLY:544:O:9885, V-B:HIS:456:CA:9034, V-B:VAL:457:CA:9046"]

$$$$
1e_Grossjean_2025
     RDKit          3D

 38 39  0  0  0  0  0  0  0  0999 V2000
  130.0550  126.5860   66.4900 C   0  0  0  0  0  0  0  0  0  0  0  0
  128.8480  126.6030   67.4090 C   0  0  0  0  0  0  0  0  0  0  0  0
  127.5450  126.6530   66.9050 C   0  0  0  0  0  0  0  0  0  0  0  0
  126.4850  126.6680   67.8110 C   0  0  0  0  0  0  0  0  0  0  0  0
  126.7460  126.6350   69.1830 C   0  0  0  0  0  0  0  0  0  0  0  0
  128.0750  126.5800   69.6200 C   0  0  0  0  0  0  0  0  0  0  0  0
  128.2760  126.5610   71.0120 N   0  0  0  0  0  0  0  0  0  0  0  0
  129.1460  127.2890   71.7450 C   0  0  0  0  0  0  0  0  0  0  0  0
  129.9410  128.1120   71.2880 O   0  0  0  0  0  0  0  0  0  0  0  0
  129.1330  127.0220   73.2520 C   0  0  0  0  0  0  0  0  0  0  0  0
  127.4490  126.7430   73.8780 S   0  0  0  0  0  0  0  0  0  0  0  0
  126.8120  128.2840   74.5080 C   0  0  0  0  0  0  0  0  0  0  0  0
  127.7290  129.2860   74.5100 N   0  0  0  0  0  0  0  0  0  0  0  0
  127.3620  130.5050   74.9690 C   0  0  0  0  0  0  0  0  0  0  0  0
  128.4350  131.5750   74.9330 C   0  0  0  0  0  0  0  0  0  0  0  0
  126.0820  130.7720   75.4510 C   0  0  0  0  0  0  0  0  0  0  0  0
  125.1370  129.7420   75.4770 C   0  0  0  0  0  0  0  0  0  0  0  0
  123.7470  130.0560   76.0280 C   0  0  0  0  0  0  0  0  0  0  0  0
  125.4990  128.4590   75.0060 C   0  0  0  0  0  0  0  0  0  0  0  0
  124.5390  127.3540   75.0800 C   0  0  0  0  0  0  0  0  0  0  0  0
  123.7790  126.4830   75.1400 N   0  0  0  0  0  0  0  0  0  0  0  0
  129.1180  126.5700   68.7390 N   0  0  0  0  0  0  0  0  0  0  0  0
  130.9749  126.5730   67.0931 H   0  0  0  0  0  0  0  0  0  0  0  0
  130.0200  125.6883   65.8553 H   0  0  0  0  0  0  0  0  0  0  0  0
  130.0453  127.4844   65.8553 H   0  0  0  0  0  0  0  0  0  0  0  0
  127.3605  126.6798   65.8209 H   0  0  0  0  0  0  0  0  0  0  0  0
  125.4477  126.7057   67.4469 H   0  0  0  0  0  0  0  0  0  0  0  0
  125.9198  126.6520   69.9090 H   0  0  0  0  0  0  0  0  0  0  0  0
  127.7300  125.8730   71.5080 H   0  0  0  0  0  0  0  0  0  0  0  0
  129.7419  126.1299   73.4601 H   0  0  0  0  0  0  0  0  0  0  0  0
  129.5418  127.9088   73.7584 H   0  0  0  0  0  0  0  0  0  0  0  0
  128.7120  131.8512   75.9611 H   0  0  0  0  0  0  0  0  0  0  0  0
  129.3200  131.1892   74.4059 H   0  0  0  0  0  0  0  0  0  0  0  0
  128.0516  132.4611   74.4059 H   0  0  0  0  0  0  0  0  0  0  0  0
  125.8188  131.7793   75.8061 H   0  0  0  0  0  0  0  0  0  0  0  0
  123.7782  130.0489   77.1275 H   0  0  0  0  0  0  0  0  0  0  0  0
  123.4289  131.0486   75.6766 H   0  0  0  0  0  0  0  0  0  0  0  0
  123.0331  129.2965   75.6766 H   0  0  0  0  0  0  0  0  0  0  0  0
  1  2  1  0
  2  3  2  0
  3  4  1  0
  4  5  2  0
  5  6  1  0
  6  7  1  0
  7  8  1  0
  8  9  2  0
  8 10  1  0
 10 11  1  0
 11 12  1  0
 12 13  2  0
 13 14  1  0
 14 15  1  0
 14 16  2  0
 16 17  1  0
 17 18  1  0
 17 19  2  0
 19 20  1  0
 20 21  3  0
  6 22  2  0
 22  2  1  0
 19 12  1  0
  1 23  1  0
  1 24  1  0
  1 25  1  0
  3 26  1  0
  4 27  1  0
  5 28  1  0
  7 29  1  0
 10 30  1  0
 10 31  1  0
 15 32  1  0
 15 33  1  0
 15 34  1  0
 16 35  1  0
 18 36  1  0
 18 37  1  0
 18 38  1  0
M  END
>  <Binding energies>  (1) 
[-6.7]

>  <Ligand effiencies>  (1) 
[-0.29130434782608694]

>  <Interactions>  (1) 
["V-B:ARG:545:CG:9894, H-B:HIS:456:NE2:9041, V-A:HIS:456:CD2:4068, V-B:GLU:543:CD:9880, H-B:LYS:547:NZ:9923, V-B:GLU:543:C:9874, H-A:LYS:547:NZ:4951, V-B:HIS:456:CD2:9039, V-B:GLU:543:CB:9878, V-A:HIS:456:CE1:4069, H-A:HIS:456:NE2:4070, V-B:HIS:456:CE1:9040, V-B:GLU:543:CG:9879, V-A:GLU:543:CD:4908, V-B:GLY:544:C:9884, V-B:ARG:545:CA:9891, V-B:HIS:456:CB:9036, V-B:HIS:456:C:9032, V-B:VAL:458:CG2:9058, V-B:VAL:457:C:9044, V-B:HIS:456:CG:9037, H-B:GLY:544:O:9885, H-B:GLU:543:O:9875, V-B:VAL:457:CA:9046, V-B:LYS:471:CE:9191, H-B:LYS:547:N:9918, V-B:LYS:471:CG:9189"]

$$$$
1f_Grossjean_2025
     RDKit          3D

 35 36  0  0  0  0  0  0  0  0999 V2000
  123.7400  129.8200   66.4010 C   0  0  0  0  0  0  0  0  0  0  0  0
  125.0720  129.0960   66.3330 C   0  0  0  0  0  0  0  0  0  0  0  0
  125.9320  129.2500   65.2480 C   0  0  0  0  0  0  0  0  0  0  0  0
  127.1410  128.5470   65.2360 C   0  0  0  0  0  0  0  0  0  0  0  0
  128.0590  128.7180   64.0270 C   0  0  0  0  0  0  0  0  0  0  0  0
  127.4640  127.7060   66.3250 C   0  0  0  0  0  0  0  0  0  0  0  0
  128.7000  126.9190   66.3040 C   0  0  0  0  0  0  0  0  0  0  0  0
  129.6760  126.2990   66.2860 N   0  0  0  0  0  0  0  0  0  0  0  0
  126.5440  127.6320   67.3970 C   0  0  0  0  0  0  0  0  0  0  0  0
  126.7790  126.6290   68.8510 S   0  0  0  0  0  0  0  0  0  0  0  0
  128.5590  126.6100   69.2560 C   0  0  0  0  0  0  0  0  0  0  0  0
  128.9200  125.8610   70.5480 C   0  0  0  0  0  0  0  0  0  0  0  0
  128.7550  126.3950   71.6460 O   0  0  0  0  0  0  0  0  0  0  0  0
  129.4360  124.6290   70.3560 N   0  0  0  0  0  0  0  0  0  0  0  0
  129.8640  123.6770   71.3010 C   0  0  0  0  0  0  0  0  0  0  0  0
  130.9700  123.8140   72.1600 C   0  0  0  0  0  0  0  0  0  0  0  0
  131.2800  122.7870   73.0570 C   0  0  0  0  0  0  0  0  0  0  0  0
  130.4740  121.6490   73.0750 C   0  0  0  0  0  0  0  0  0  0  0  0
  129.4000  121.4950   72.2610 N   0  0  0  0  0  0  0  0  0  0  0  0
  129.1110  122.5000   71.3960 C   0  0  0  0  0  0  0  0  0  0  0  0
  125.3630  128.3000   67.3880 N   0  0  0  0  0  0  0  0  0  0  0  0
  123.4590  129.9727   67.4535 H   0  0  0  0  0  0  0  0  0  0  0  0
  123.8267  130.7951   65.8994 H   0  0  0  0  0  0  0  0  0  0  0  0
  122.9688  129.2169   65.8994 H   0  0  0  0  0  0  0  0  0  0  0  0
  125.6642  129.9145   64.4133 H   0  0  0  0  0  0  0  0  0  0  0  0
  129.0862  128.9093   64.3708 H   0  0  0  0  0  0  0  0  0  0  0  0
  128.0404  127.8009   63.4198 H   0  0  0  0  0  0  0  0  0  0  0  0
  127.7114  129.5668   63.4198 H   0  0  0  0  0  0  0  0  0  0  0  0
  129.0941  126.1314   68.4226 H   0  0  0  0  0  0  0  0  0  0  0  0
  128.8506  127.6586   69.4153 H   0  0  0  0  0  0  0  0  0  0  0  0
  129.5520  124.3400   69.3950 H   0  0  0  0  0  0  0  0  0  0  0  0
  131.5873  124.7238   72.1261 H   0  0  0  0  0  0  0  0  0  0  0  0
  132.1420  122.8749   73.7346 H   0  0  0  0  0  0  0  0  0  0  0  0
  130.7200  120.8412   73.7800 H   0  0  0  0  0  0  0  0  0  0  0  0
  128.2396  122.3840   70.7348 H   0  0  0  0  0  0  0  0  0  0  0  0
  1  2  1  0
  2  3  2  0
  3  4  1  0
  4  5  1  0
  4  6  2  0
  6  7  1  0
  7  8  3  0
  6  9  1  0
  9 10  1  0
 10 11  1  0
 11 12  1  0
 12 13  2  0
 12 14  1  0
 14 15  1  0
 15 16  2  0
 16 17  1  0
 17 18  2  0
 18 19  1  0
 19 20  2  0
  9 21  2  0
 21  2  1  0
 20 15  1  0
  1 22  1  0
  1 23  1  0
  1 24  1  0
  3 25  1  0
  5 26  1  0
  5 27  1  0
  5 28  1  0
 11 29  1  0
 11 30  1  0
 14 31  1  0
 16 32  1  0
 17 33  1  0
 18 34  1  0
 20 35  1  0
M  END
>  <Binding energies>  (1) 
[-6.88]

>  <Ligand effiencies>  (1) 
[-0.31272727272727274]

>  <Interactions>  (1) 
["V-B:ARG:545:CG:9894, V-A:HIS:456:CD2:4068, V-B:GLU:543:CD:9880, H-B:LYS:547:NZ:9923, V-B:GLU:543:C:9874, V-B:GLU:543:CB:9878, V-A:HIS:456:CE1:4069, V-B:ARG:545:CZ:9898, V-B:ARG:545:CD:9895, V-B:HIS:456:CE1:9040, V-A:GLU:543:CD:4908, V-B:GLY:454:CA:9020, H-B:ARG:545:NE:9896, V-A:TYR:484:CZ:4347, V-A:TYR:484:CE1:4345, H-A:TYR:484:OH:4348, H-B:ARG:545:N:9892, V-A:HIS:456:CG:4066, V-A:TYR:484:CD2:4344, V-A:TYR:484:CD1:4343, V-A:HIS:456:CB:4065, V-A:TYR:484:CG:4342, H-B:GLU:543:O:9875, V-B:LYS:547:CE:9922, V-B:GLY:544:CA:9886, V-A:ASP:473:CB:4239, V-A:TYR:484:CB:4341"]

$$$$
1g_Grossjean_2025
     RDKit          3D

 39 40  0  0  0  0  0  0  0  0999 V2000
  128.5670  131.8550   75.0290 C   0  0  0  0  0  0  0  0  0  0  0  0
  127.5380  130.7450   74.9340 C   0  0  0  0  0  0  0  0  0  0  0  0
  126.2620  130.8840   75.4770 C   0  0  0  0  0  0  0  0  0  0  0  0
  125.3600  129.8200   75.3730 C   0  0  0  0  0  0  0  0  0  0  0  0
  123.9710  129.9890   75.9890 C   0  0  0  0  0  0  0  0  0  0  0  0
  125.7600  128.6350   74.7140 C   0  0  0  0  0  0  0  0  0  0  0  0
  124.8510  127.4890   74.6390 C   0  0  0  0  0  0  0  0  0  0  0  0
  124.1310  126.5850   74.5830 N   0  0  0  0  0  0  0  0  0  0  0  0
  127.0660  128.5920   74.1710 C   0  0  0  0  0  0  0  0  0  0  0  0
  127.7280  127.1870   73.3030 S   0  0  0  0  0  0  0  0  0  0  0  0
  129.3240  127.6940   72.5940 C   0  0  0  0  0  0  0  0  0  0  0  0
  129.3610  127.5080   71.0770 C   0  0  0  0  0  0  0  0  0  0  0  0
  129.7600  128.4220   70.3530 O   0  0  0  0  0  0  0  0  0  0  0  0
  128.9360  126.3210   70.6120 N   0  0  0  0  0  0  0  0  0  0  0  0
  128.9400  125.9080   69.2090 C   0  0  0  0  0  0  0  0  0  0  0  0
  128.1440  126.8230   68.2830 C   0  0  0  0  0  0  0  0  0  0  0  0
  126.7510  126.7190   68.2270 C   0  0  0  0  0  0  0  0  0  0  0  0
  126.0240  127.5540   67.3820 C   0  0  0  0  0  0  0  0  0  0  0  0
  126.6930  128.4950   66.6000 C   0  0  0  0  0  0  0  0  0  0  0  0
  128.0800  128.6070   66.6550 C   0  0  0  0  0  0  0  0  0  0  0  0
  128.8080  127.7700   67.4980 C   0  0  0  0  0  0  0  0  0  0  0  0
  127.9420  129.6210   74.2960 N   0  0  0  0  0  0  0  0  0  0  0  0
  128.7716  132.0757   76.0870 H   0  0  0  0  0  0  0  0  0  0  0  0
  129.4965  131.5366   74.5344 H   0  0  0  0  0  0  0  0  0  0  0  0
  128.1792  132.7578   74.5344 H   0  0  0  0  0  0  0  0  0  0  0  0
  125.9684  131.8171   75.9802 H   0  0  0  0  0  0  0  0  0  0  0  0
  124.0527  129.9791   77.0859 H   0  0  0  0  0  0  0  0  0  0  0  0
  123.5389  130.9463   75.6621 H   0  0  0  0  0  0  0  0  0  0  0  0
  123.3220  129.1632   75.6621 H   0  0  0  0  0  0  0  0  0  0  0  0
  129.4946  128.7556   72.8260 H   0  0  0  0  0  0  0  0  0  0  0  0
  130.1081  127.0600   73.0336 H   0  0  0  0  0  0  0  0  0  0  0  0
  128.6440  125.6200   71.2790 H   0  0  0  0  0  0  0  0  0  0  0  0
  129.9827  125.8865   68.8592 H   0  0  0  0  0  0  0  0  0  0  0  0
  128.4555  124.9212   69.1696 H   0  0  0  0  0  0  0  0  0  0  0  0
  126.2292  125.9778   68.8502 H   0  0  0  0  0  0  0  0  0  0  0  0
  124.9282  127.4717   67.3318 H   0  0  0  0  0  0  0  0  0  0  0  0
  126.1194  129.1554   65.9330 H   0  0  0  0  0  0  0  0  0  0  0  0
  128.5987  129.3533   66.0354 H   0  0  0  0  0  0  0  0  0  0  0  0
  129.9037  127.8543   67.5457 H   0  0  0  0  0  0  0  0  0  0  0  0
  1  2  1  0
  2  3  2  0
  3  4  1  0
  4  5  1  0
  4  6  2  0
  6  7  1  0
  7  8  3  0
  6  9  1  0
  9 10  1  0
 10 11  1  0
 11 12  1  0
 12 13  2  0
 12 14  1  0
 14 15  1  0
 15 16  1  0
 16 17  2  0
 17 18  1  0
 18 19  2  0
 19 20  1  0
 20 21  2  0
  9 22  2  0
 22  2  1  0
 21 16  1  0
  1 23  1  0
  1 24  1  0
  1 25  1  0
  3 26  1  0
  5 27  1  0
  5 28  1  0
  5 29  1  0
 11 30  1  0
 11 31  1  0
 14 32  1  0
 15 33  1  0
 15 34  1  0
 17 35  1  0
 18 36  1  0
 19 37  1  0
 20 38  1  0
 21 39  1  0
M  END
>  <Binding energies>  (1) 
[-6.96]

>  <Ligand effiencies>  (1) 
[-0.3026086956521739]

>  <Interactions>  (1) 
["V-B:ARG:545:CG:9894, H-B:HIS:456:NE2:9041, V-A:HIS:456:CD2:4068, V-B:GLU:543:C:9874, H-A:LYS:547:NZ:4951, V-B:HIS:456:CD2:9039, V-B:GLU:543:CB:9878, V-A:HIS:456:CE1:4069, H-A:HIS:456:NE2:4070, V-B:ARG:545:CD:9895, V-B:HIS:456:CE1:9040, V-A:GLU:543:CB:4906, V-B:HIS:456:CB:9036, V-B:HIS:456:C:9032, V-B:VAL:458:CG2:9058, V-B:VAL:457:C:9044, V-B:HIS:456:CG:9037, H-B:GLY:544:O:9885, H-B:GLU:543:O:9875, V-B:VAL:457:CA:9046, V-B:LYS:471:CE:9191, V-B:LYS:471:CG:9189"]

$$$$
1h_Grossjean_2025
     RDKit          3D

 51 52  0  0  0  0  0  0  0  0999 V2000
  126.8040  127.5860   73.1240 C   0  0  0  0  0  0  0  0  0  0  0  0
  128.1180  127.7130   72.5940 O   0  0  0  0  0  0  0  0  0  0  0  0
  128.6420  126.6900   71.8260 C   0  0  0  0  0  0  0  0  0  0  0  0
  128.7340  126.7290   70.4260 C   0  0  0  0  0  0  0  0  0  0  0  0
  129.2630  125.6520   69.7130 C   0  0  0  0  0  0  0  0  0  0  0  0
  129.3780  125.7170   68.1930 C   0  0  0  0  0  0  0  0  0  0  0  0
  128.7090  126.8720   67.5950 N   0  0  0  0  0  0  0  0  0  0  0  0
  129.1200  128.1490   67.7020 C   0  0  0  0  0  0  0  0  0  0  0  0
  130.1370  128.4910   68.3050 O   0  0  0  0  0  0  0  0  0  0  0  0
  128.2430  129.2050   67.0290 C   0  0  0  0  0  0  0  0  0  0  0  0
  126.5860  128.5660   66.6390 S   0  0  0  0  0  0  0  0  0  0  0  0
  126.1670  129.0870   64.9840 C   0  0  0  0  0  0  0  0  0  0  0  0
  127.1340  128.9090   64.0460 N   0  0  0  0  0  0  0  0  0  0  0  0
  126.8810  129.2790   62.7700 C   0  0  0  0  0  0  0  0  0  0  0  0
  128.0070  129.0450   61.7810 C   0  0  0  0  0  0  0  0  0  0  0  0
  125.6670  129.8380   62.3750 C   0  0  0  0  0  0  0  0  0  0  0  0
  124.6640  130.0290   63.3310 C   0  0  0  0  0  0  0  0  0  0  0  0
  123.3410  130.6410   62.8770 C   0  0  0  0  0  0  0  0  0  0  0  0
  124.9070  129.6490   64.6710 C   0  0  0  0  0  0  0  0  0  0  0  0
  123.8760  129.8390   65.6940 C   0  0  0  0  0  0  0  0  0  0  0  0
  123.0600  129.9900   66.5020 N   0  0  0  0  0  0  0  0  0  0  0  0
  129.7390  124.5370   70.4040 C   0  0  0  0  0  0  0  0  0  0  0  0
  129.6650  124.4720   71.8050 C   0  0  0  0  0  0  0  0  0  0  0  0
  130.1150  123.4000   72.5530 O   0  0  0  0  0  0  0  0  0  0  0  0
  131.4890  123.0320   72.4920 C   0  0  0  0  0  0  0  0  0  0  0  0
  129.1040  125.5510   72.5030 C   0  0  0  0  0  0  0  0  0  0  0  0
  129.0310  125.5050   73.8740 O   0  0  0  0  0  0  0  0  0  0  0  0
  130.2390  125.8640   74.5310 C   0  0  0  0  0  0  0  0  0  0  0  0
  126.8499  127.5904   74.2230 H   0  0  0  0  0  0  0  0  0  0  0  0
  126.1866  128.4287   72.7794 H   0  0  0  0  0  0  0  0  0  0  0  0
  126.3594  126.6407   72.7794 H   0  0  0  0  0  0  0  0  0  0  0  0
  128.3846  127.6200   69.8836 H   0  0  0  0  0  0  0  0  0  0  0  0
  130.4448  125.7598   67.9283 H   0  0  0  0  0  0  0  0  0  0  0  0
  128.8792  124.8200   67.7973 H   0  0  0  0  0  0  0  0  0  0  0  0
  127.8550  126.6810   67.0930 H   0  0  0  0  0  0  0  0  0  0  0  0
  128.1414  130.0661   67.7058 H   0  0  0  0  0  0  0  0  0  0  0  0
  128.7259  129.4962   66.0846 H   0  0  0  0  0  0  0  0  0  0  0  0
  128.9412  128.8508   62.3283 H   0  0  0  0  0  0  0  0  0  0  0  0
  127.7654  128.1779   61.1488 H   0  0  0  0  0  0  0  0  0  0  0  0
  128.1309  129.9366   61.1488 H   0  0  0  0  0  0  0  0  0  0  0  0
  125.5000  130.1249   61.3263 H   0  0  0  0  0  0  0  0  0  0  0  0
  122.7434  130.9175   63.7581 H   0  0  0  0  0  0  0  0  0  0  0  0
  123.5403  131.5384   62.2729 H   0  0  0  0  0  0  0  0  0  0  0  0
  122.7861  129.9081   62.2729 H   0  0  0  0  0  0  0  0  0  0  0  0
  130.1779  123.6980   69.8441 H   0  0  0  0  0  0  0  0  0  0  0  0
  131.8858  122.9257   73.5124 H   0  0  0  0  0  0  0  0  0  0  0  0
  131.5890  122.0754   71.9582 H   0  0  0  0  0  0  0  0  0  0  0  0
  132.0538  123.8105   71.9582 H   0  0  0  0  0  0  0  0  0  0  0  0
  130.0911  125.8200   75.6201 H   0  0  0  0  0  0  0  0  0  0  0  0
  131.0363  125.1640   74.2407 H   0  0  0  0  0  0  0  0  0  0  0  0
  130.5246  126.8858   74.2407 H   0  0  0  0  0  0  0  0  0  0  0  0
  1  2  1  0
  2  3  1  0
  3  4  2  0
  4  5  1  0
  5  6  1  0
  6  7  1  0
  7  8  1  0
  8  9  2  0
  8 10  1  0
 10 11  1  0
 11 12  1  0
 12 13  2  0
 13 14  1  0
 14 15  1  0
 14 16  2  0
 16 17  1  0
 17 18  1  0
 17 19  2  0
 19 20  1  0
 20 21  3  0
  5 22  2  0
 22 23  1  0
 23 24  1  0
 24 25  1  0
 23 26  2  0
 26 27  1  0
 27 28  1  0
 26  3  1  0
 19 12  1  0
  1 29  1  0
  1 30  1  0
  1 31  1  0
  4 32  1  0
  6 33  1  0
  6 34  1  0
  7 35  1  0
 10 36  1  0
 10 37  1  0
 15 38  1  0
 15 39  1  0
 15 40  1  0
 16 41  1  0
 18 42  1  0
 18 43  1  0
 18 44  1  0
 22 45  1  0
 25 46  1  0
 25 47  1  0
 25 48  1  0
 28 49  1  0
 28 50  1  0
 28 51  1  0
M  END
>  <Binding energies>  (1) 
[-7.3]

>  <Ligand effiencies>  (1) 
[-0.2517241379310345]

>  <Interactions>  (1) 
["H-B:HIS:456:NE2:9041, V-A:HIS:456:CD2:4068, H-B:LYS:547:NZ:9923, V-B:HIS:456:CD2:9039, V-A:HIS:456:CE1:4069, V-B:ARG:545:CZ:9898, H-A:HIS:456:NE2:4070, V-B:ARG:545:CD:9895, V-B:HIS:456:CE1:9040, V-A:GLU:543:CG:4907, V-A:GLU:543:CD:4908, H-B:GLY:454:N:9021, V-B:GLY:454:CA:9020, V-B:ILE:369:CD1:8210, H-B:ILE:455:N:9026, H-B:TYR:484:OH:9319, V-B:GLY:453:CA:9015, V-B:GLY:453:C:9013, H-B:ARG:545:NE:9896, V-A:TYR:484:CZ:4347, V-A:GLU:543:CB:4906, V-A:TYR:484:CE1:4345, V-A:HIS:456:CG:4066, H-B:GLU:543:OE1:9881, V-A:TYR:484:CD2:4344, V-A:TYR:484:CE2:4346, V-A:HIS:456:CB:4065, V-A:TYR:484:CG:4342, V-B:HIS:456:CB:9036, V-B:HIS:456:CG:9037"]

$$$$
1i_Grossjean_2025
     RDKit          3D

 32 33  0  0  0  0  0  0  0  0999 V2000
  130.7720  125.5710   66.0750 C   0  0  0  0  0  0  0  0  0  0  0  0
  129.4910  126.3570   66.2790 C   0  0  0  0  0  0  0  0  0  0  0  0
  129.0760  127.3250   65.3680 C   0  0  0  0  0  0  0  0  0  0  0  0
  127.8790  128.0110   65.6020 C   0  0  0  0  0  0  0  0  0  0  0  0
  127.4370  129.0570   64.5800 C   0  0  0  0  0  0  0  0  0  0  0  0
  127.1250  127.7100   66.7600 C   0  0  0  0  0  0  0  0  0  0  0  0
  125.8440  128.3810   66.9990 C   0  0  0  0  0  0  0  0  0  0  0  0
  124.8320  128.9100   67.1850 N   0  0  0  0  0  0  0  0  0  0  0  0
  127.6350  126.7290   67.6430 C   0  0  0  0  0  0  0  0  0  0  0  0
  126.8200  126.2280   69.1430 S   0  0  0  0  0  0  0  0  0  0  0  0
  127.7280  126.9630   70.5350 C   0  0  0  0  0  0  0  0  0  0  0  0
  128.3130  125.8990   71.4670 C   0  0  0  0  0  0  0  0  0  0  0  0
  128.2670  126.0730   72.6850 O   0  0  0  0  0  0  0  0  0  0  0  0
  128.8450  124.8180   70.8550 N   0  0  0  0  0  0  0  0  0  0  0  0
  129.4400  123.7190   71.4580 C   0  0  0  0  0  0  0  0  0  0  0  0
  130.6930  123.7710   72.0660 C   0  0  0  0  0  0  0  0  0  0  0  0
  130.9170  122.4960   72.5330 C   0  0  0  0  0  0  0  0  0  0  0  0
  129.8550  121.7160   72.2190 O   0  0  0  0  0  0  0  0  0  0  0  0
  128.9260  122.5030   71.5360 N   0  0  0  0  0  0  0  0  0  0  0  0
  128.7870  126.0550   67.3960 N   0  0  0  0  0  0  0  0  0  0  0  0
  131.2006  125.3080   67.0534 H   0  0  0  0  0  0  0  0  0  0  0  0
  130.5525  124.6519   65.5118 H   0  0  0  0  0  0  0  0  0  0  0  0
  131.4920  126.1830   65.5118 H   0  0  0  0  0  0  0  0  0  0  0  0
  129.6809  127.5474   64.4766 H   0  0  0  0  0  0  0  0  0  0  0  0
  127.0609  129.9471   65.1056 H   0  0  0  0  0  0  0  0  0  0  0  0
  128.2933  129.3381   63.9493 H   0  0  0  0  0  0  0  0  0  0  0  0
  126.6386  128.6389   63.9493 H   0  0  0  0  0  0  0  0  0  0  0  0
  128.5497  127.5771   70.1378 H   0  0  0  0  0  0  0  0  0  0  0  0
  127.0205  127.5714   71.1174 H   0  0  0  0  0  0  0  0  0  0  0  0
  128.8470  124.8120   69.8450 H   0  0  0  0  0  0  0  0  0  0  0  0
  131.3587  124.6423   72.1536 H   0  0  0  0  0  0  0  0  0  0  0  0
  131.8148  122.1635   73.0746 H   0  0  0  0  0  0  0  0  0  0  0  0
  1  2  1  0
  2  3  2  0
  3  4  1  0
  4  5  1  0
  4  6  2  0
  6  7  1  0
  7  8  3  0
  6  9  1  0
  9 10  1  0
 10 11  1  0
 11 12  1  0
 12 13  2  0
 12 14  1  0
 14 15  1  0
 15 16  1  0
 16 17  2  0
 17 18  1  0
 18 19  1  0
  9 20  2  0
 20  2  1  0
 19 15  2  0
  1 21  1  0
  1 22  1  0
  1 23  1  0
  3 24  1  0
  5 25  1  0
  5 26  1  0
  5 27  1  0
 11 28  1  0
 11 29  1  0
 14 30  1  0
 16 31  1  0
 17 32  1  0
M  END
>  <Binding energies>  (1) 
[-7.34]

>  <Ligand effiencies>  (1) 
[-0.3495238095238095]

>  <Interactions>  (1) 
["V-B:ARG:545:CG:9894, V-A:HIS:456:CD2:4068, V-B:GLU:543:CD:9880, H-B:LYS:547:NZ:9923, V-B:GLU:543:C:9874, V-B:GLU:543:CB:9878, V-A:HIS:456:CE1:4069, V-B:ARG:545:CD:9895, V-B:HIS:456:CE1:9040, V-A:GLU:543:CD:4908, H-B:TYR:484:OH:9319, H-B:ARG:545:NE:9896, V-B:GLY:544:C:9884, H-B:ARG:545:N:9892, V-A:HIS:456:CG:4066, V-A:TYR:484:CD2:4344, V-A:TYR:484:CE2:4346, V-A:HIS:456:CB:4065, V-A:TYR:484:CG:4342, H-B:GLU:543:O:9875, V-B:GLY:544:CA:9886, V-A:TYR:484:CB:4341"]

$$$$
1j_Grossjean_2025
     RDKit          3D

 32 33  0  0  0  0  0  0  0  0999 V2000
  129.7670  123.5700   65.8700 C   0  0  0  0  0  0  0  0  0  0  0  0
  129.4380  125.0380   66.0690 C   0  0  0  0  0  0  0  0  0  0  0  0
  129.2070  125.8860   64.9880 C   0  0  0  0  0  0  0  0  0  0  0  0
  128.8950  127.2270   65.2320 C   0  0  0  0  0  0  0  0  0  0  0  0
  128.6290  128.1340   64.0310 C   0  0  0  0  0  0  0  0  0  0  0  0
  128.8300  127.6900   66.5660 C   0  0  0  0  0  0  0  0  0  0  0  0
  128.4530  129.0780   66.8460 C   0  0  0  0  0  0  0  0  0  0  0  0
  128.1540  130.1740   67.0640 N   0  0  0  0  0  0  0  0  0  0  0  0
  129.1050  126.7640   67.6000 C   0  0  0  0  0  0  0  0  0  0  0  0
  129.0710  127.1740   69.3320 S   0  0  0  0  0  0  0  0  0  0  0  0
  127.8900  126.0540   70.1410 C   0  0  0  0  0  0  0  0  0  0  0  0
  128.5240  125.2990   71.3110 C   0  0  0  0  0  0  0  0  0  0  0  0
  128.3300  125.6940   72.4610 O   0  0  0  0  0  0  0  0  0  0  0  0
  129.2670  124.2220   70.9740 N   0  0  0  0  0  0  0  0  0  0  0  0
  129.9470  123.3810   71.8440 C   0  0  0  0  0  0  0  0  0  0  0  0
  129.7380  122.0980   72.0540 N   0  0  0  0  0  0  0  0  0  0  0  0
  130.5740  121.6140   72.9510 C   0  0  0  0  0  0  0  0  0  0  0  0
  131.4890  122.5130   73.4900 C   0  0  0  0  0  0  0  0  0  0  0  0
  131.2340  124.0760   72.7740 S   0  0  0  0  0  0  0  0  0  0  0  0
  129.3860  125.4600   67.3540 N   0  0  0  0  0  0  0  0  0  0  0  0
  129.8762  123.0826   66.8501 H   0  0  0  0  0  0  0  0  0  0  0  0
  128.9552  123.0852   65.3078 H   0  0  0  0  0  0  0  0  0  0  0  0
  130.7080  123.4781   65.3078 H   0  0  0  0  0  0  0  0  0  0  0  0
  129.2692  125.5061   63.9576 H   0  0  0  0  0  0  0  0  0  0  0  0
  128.3358  129.1336   64.3843 H   0  0  0  0  0  0  0  0  0  0  0  0
  129.5417  128.2133   63.4222 H   0  0  0  0  0  0  0  0  0  0  0  0
  127.8180  127.7078   63.4222 H   0  0  0  0  0  0  0  0  0  0  0  0
  127.0417  126.6444   70.5175 H   0  0  0  0  0  0  0  0  0  0  0  0
  127.5609  125.3132   69.3975 H   0  0  0  0  0  0  0  0  0  0  0  0
  129.3710  124.0140   69.9920 H   0  0  0  0  0  0  0  0  0  0  0  0
  130.5496  120.5576   73.2565 H   0  0  0  0  0  0  0  0  0  0  0  0
  132.2505  122.2733   74.2468 H   0  0  0  0  0  0  0  0  0  0  0  0
  1  2  1  0
  2  3  2  0
  3  4  1  0
  4  5  1  0
  4  6  2  0
  6  7  1  0
  7  8  3  0
  6  9  1  0
  9 10  1  0
 10 11  1  0
 11 12  1  0
 12 13  2  0
 12 14  1  0
 14 15  1  0
 15 16  2  0
 16 17  1  0
 17 18  2  0
 18 19  1  0
  9 20  2  0
 20  2  1  0
 19 15  1  0
  1 21  1  0
  1 22  1  0
  1 23  1  0
  3 24  1  0
  5 25  1  0
  5 26  1  0
  5 27  1  0
 11 28  1  0
 11 29  1  0
 14 30  1  0
 17 31  1  0
 18 32  1  0
M  END
>  <Binding energies>  (1) 
[-6.68]

>  <Ligand effiencies>  (1) 
[-0.3180952380952381]

>  <Interactions>  (1) 
["H-B:HIS:456:NE2:9041, V-A:HIS:456:CD2:4068, V-B:GLU:543:CD:9880, H-B:LYS:547:NZ:9923, V-B:GLU:543:C:9874, V-B:GLU:543:CB:9878, V-A:HIS:456:CE1:4069, H-A:HIS:456:NE2:4070, V-B:HIS:456:CE1:9040, V-B:GLU:543:CG:9879, V-A:GLU:543:CG:4907, V-A:GLU:543:CD:4908, H-B:TYR:484:OH:9319, V-B:GLU:543:CA:9876, V-A:TYR:484:CZ:4347, V-A:GLU:543:CB:4906, V-A:TYR:484:CE1:4345, V-B:GLY:544:C:9884, V-A:HIS:456:CG:4066, V-A:TYR:484:CD2:4344, V-A:TYR:484:CD1:4343, V-A:HIS:456:CB:4065, V-A:TYR:484:CG:4342, H-B:GLU:543:O:9875, V-A:ASP:473:CG:4240, V-A:ASP:473:CB:4239, V-A:TYR:484:CB:4341"]

$$$$
1k_Grossjean_2025
     RDKit          3D

 50 50  0  0  0  0  0  0  0  0999 V2000
  124.1850  126.6090   74.4860 C   0  0  0  0  0  0  0  0  0  0  0  0
  124.5530  127.3370   73.3260 O   0  0  0  0  0  0  0  0  0  0  0  0
  125.9530  127.5600   73.2180 C   0  0  0  0  0  0  0  0  0  0  0  0
  126.7030  126.5420   74.0880 C   0  0  0  0  0  0  0  0  0  0  0  0
  127.8450  126.0690   73.3850 O   0  0  0  0  0  0  0  0  0  0  0  0
  128.2890  126.9480   72.3600 C   0  0  0  0  0  0  0  0  0  0  0  0
  128.2570  126.2160   71.0130 C   0  0  0  0  0  0  0  0  0  0  0  0
  129.1570  126.8460   70.1090 O   0  0  0  0  0  0  0  0  0  0  0  0
  128.5900  127.1150   68.8340 C   0  0  0  0  0  0  0  0  0  0  0  0
  129.6890  127.6090   67.8740 C   0  0  0  0  0  0  0  0  0  0  0  0
  129.8340  126.7960   66.6660 N   0  0  0  0  0  0  0  0  0  0  0  0
  129.9440  125.4560   66.6410 C   0  0  0  0  0  0  0  0  0  0  0  0
  129.9270  124.7610   67.6580 O   0  0  0  0  0  0  0  0  0  0  0  0
  130.0990  124.8300   65.2460 C   0  0  0  0  0  0  0  0  0  0  0  0
  129.9970  123.0070   65.1830 S   0  0  0  0  0  0  0  0  0  0  0  0
  130.8530  122.4210   63.7270 C   0  0  0  0  0  0  0  0  0  0  0  0
  130.1400  121.6060   62.9080 N   0  0  0  0  0  0  0  0  0  0  0  0
  130.7320  121.1190   61.7930 C   0  0  0  0  0  0  0  0  0  0  0  0
  129.8740  120.2100   60.9350 C   0  0  0  0  0  0  0  0  0  0  0  0
  132.0450  121.4270   61.4440 C   0  0  0  0  0  0  0  0  0  0  0  0
  132.7880  122.2710   62.2760 C   0  0  0  0  0  0  0  0  0  0  0  0
  134.2260  122.5960   61.8760 C   0  0  0  0  0  0  0  0  0  0  0  0
  132.1900  122.7870   63.4470 C   0  0  0  0  0  0  0  0  0  0  0  0
  132.9460  123.6710   64.3390 C   0  0  0  0  0  0  0  0  0  0  0  0
  133.5440  124.3690   65.0420 N   0  0  0  0  0  0  0  0  0  0  0  0
  124.4726  127.1779   75.3825 H   0  0  0  0  0  0  0  0  0  0  0  0
  123.0969  126.4474   74.4877 H   0  0  0  0  0  0  0  0  0  0  0  0
  124.7000  125.6370   74.4877 H   0  0  0  0  0  0  0  0  0  0  0  0
  126.2627  127.4441   72.1689 H   0  0  0  0  0  0  0  0  0  0  0  0
  126.1891  128.5784   73.5602 H   0  0  0  0  0  0  0  0  0  0  0  0
  127.0220  127.0239   75.0240 H   0  0  0  0  0  0  0  0  0  0  0  0
  126.0383  125.6966   74.3193 H   0  0  0  0  0  0  0  0  0  0  0  0
  127.6271  127.8255   72.3168 H   0  0  0  0  0  0  0  0  0  0  0  0
  129.3166  127.2756   72.5761 H   0  0  0  0  0  0  0  0  0  0  0  0
  128.5571  125.1677   71.1582 H   0  0  0  0  0  0  0  0  0  0  0  0
  127.2380  126.2521   70.6004 H   0  0  0  0  0  0  0  0  0  0  0  0
  128.1392  126.1955   68.4324 H   0  0  0  0  0  0  0  0  0  0  0  0
  127.8165  127.8907   68.9342 H   0  0  0  0  0  0  0  0  0  0  0  0
  129.4465  128.6383   67.5711 H   0  0  0  0  0  0  0  0  0  0  0  0
  130.6419  127.5411   68.4194 H   0  0  0  0  0  0  0  0  0  0  0  0
  129.8570  127.2990   65.7910 H   0  0  0  0  0  0  0  0  0  0  0  0
  129.3043  125.2358   64.6028 H   0  0  0  0  0  0  0  0  0  0  0  0
  131.1154  125.0862   64.9125 H   0  0  0  0  0  0  0  0  0  0  0  0
  129.2636  119.5634   61.5825 H   0  0  0  0  0  0  0  0  0  0  0  0
  129.2148  120.8201   60.3000 H   0  0  0  0  0  0  0  0  0  0  0  0
  130.5211  119.5871   60.3000 H   0  0  0  0  0  0  0  0  0  0  0  0
  132.4909  121.0126   60.5278 H   0  0  0  0  0  0  0  0  0  0  0  0
  134.8360  122.7339   62.7809 H   0  0  0  0  0  0  0  0  0  0  0  0
  134.6367  121.7680   61.2795 H   0  0  0  0  0  0  0  0  0  0  0  0
  134.2407  123.5201   61.2795 H   0  0  0  0  0  0  0  0  0  0  0  0
  1  2  1  0
  2  3  1  0
  3  4  1  0
  4  5  1  0
  5  6  1  0
  6  7  1  0
  7  8  1  0
  8  9  1  0
  9 10  1  0
 10 11  1  0
 11 12  1  0
 12 13  2  0
 12 14  1  0
 14 15  1  0
 15 16  1  0
 16 17  2  0
 17 18  1  0
 18 19  1  0
 18 20  2  0
 20 21  1  0
 21 22  1  0
 21 23  2  0
 23 24  1  0
 24 25  3  0
 23 16  1  0
  1 26  1  0
  1 27  1  0
  1 28  1  0
  3 29  1  0
  3 30  1  0
  4 31  1  0
  4 32  1  0
  6 33  1  0
  6 34  1  0
  7 35  1  0
  7 36  1  0
  9 37  1  0
  9 38  1  0
 10 39  1  0
 10 40  1  0
 11 41  1  0
 14 42  1  0
 14 43  1  0
 19 44  1  0
 19 45  1  0
 19 46  1  0
 20 47  1  0
 22 48  1  0
 22 49  1  0
 22 50  1  0
M  END
>  <Binding energies>  (1) 
[-5.92]

>  <Ligand effiencies>  (1) 
[-0.2276923076923077]

>  <Interactions>  (1) 
["H-B:LYS:547:NZ:9923, V-B:HIS:456:CD2:9039, V-A:HIS:456:CE1:4069, H-A:GLU:543:OE1:4909, H-A:HIS:456:NE2:4070, V-B:HIS:456:CE1:9040, H-A:GLU:543:OE2:4910, V-A:GLU:543:CG:4907, V-A:GLU:543:CD:4908, V-B:ALA:541:CB:9864, V-A:LEU:475:CD1:4258, H-A:GLY:454:N:4050, H-A:TYR:484:OH:4348, V-A:GLY:454:CA:4049, V-A:ILE:369:CD1:3239, V-B:TYR:539:CD2:9846, V-A:PRO:482:CG:4327, V-B:GLY:544:C:9884, V-B:HIS:456:CB:9036, V-B:LYS:547:CD:9921, V-B:LYS:547:CG:9920, V-B:LYS:547:CB:9919, V-B:ARG:545:C:9889, V-B:VAL:458:CG2:9058, V-B:VAL:457:C:9044, V-B:HIS:456:CG:9037, V-B:LYS:547:CE:9922, H-B:VAL:457:N:9047"]

$$$$
1l_Grossjean_2025
     RDKit          3D

 30 30  0  0  0  0  0  0  0  0999 V2000
  123.8990  130.3930   62.6340 C   0  0  0  0  0  0  0  0  0  0  0  0
  123.3830  130.3610   63.9570 O   0  0  0  0  0  0  0  0  0  0  0  0
  124.2360  129.6310   64.7830 N   0  0  0  0  0  0  0  0  0  0  0  0
  124.0020  129.6100   66.1090 C   0  0  0  0  0  0  0  0  0  0  0  0
  122.9530  130.0060   66.6250 O   0  0  0  0  0  0  0  0  0  0  0  0
  125.1400  129.0330   66.9630 C   0  0  0  0  0  0  0  0  0  0  0  0
  126.7850  129.0560   66.1730 S   0  0  0  0  0  0  0  0  0  0  0  0
  127.7340  127.6930   66.8270 C   0  0  0  0  0  0  0  0  0  0  0  0
  127.5560  127.4300   68.1480 N   0  0  0  0  0  0  0  0  0  0  0  0
  128.2470  126.4090   68.7090 C   0  0  0  0  0  0  0  0  0  0  0  0
  127.9950  126.1780   70.1870 C   0  0  0  0  0  0  0  0  0  0  0  0
  129.1340  125.6150   67.9870 C   0  0  0  0  0  0  0  0  0  0  0  0
  129.3240  125.8740   66.6260 C   0  0  0  0  0  0  0  0  0  0  0  0
  130.3010  124.9890   65.8530 C   0  0  0  0  0  0  0  0  0  0  0  0
  128.6150  126.9350   66.0200 C   0  0  0  0  0  0  0  0  0  0  0  0
  128.7950  127.2300   64.5950 C   0  0  0  0  0  0  0  0  0  0  0  0
  128.9380  127.4610   63.4710 N   0  0  0  0  0  0  0  0  0  0  0  0
  124.9963  130.4610   62.6700 H   0  0  0  0  0  0  0  0  0  0  0  0
  123.6057  129.4749   62.1037 H   0  0  0  0  0  0  0  0  0  0  0  0
  123.4946  131.2678   62.1037 H   0  0  0  0  0  0  0  0  0  0  0  0
  125.1510  129.5060   64.3720 H   0  0  0  0  0  0  0  0  0  0  0  0
  125.1996  129.6182   67.8925 H   0  0  0  0  0  0  0  0  0  0  0  0
  124.8934  127.9739   67.1288 H   0  0  0  0  0  0  0  0  0  0  0  0
  128.6789  126.8049   70.7779 H   0  0  0  0  0  0  0  0  0  0  0  0
  126.9548  126.4429   70.4274 H   0  0  0  0  0  0  0  0  0  0  0  0
  128.1686  125.1187   70.4274 H   0  0  0  0  0  0  0  0  0  0  0  0
  129.6776  124.7956   68.4801 H   0  0  0  0  0  0  0  0  0  0  0  0
  130.9242  124.4245   66.5622 H   0  0  0  0  0  0  0  0  0  0  0  0
  129.7381  124.2871   65.2202 H   0  0  0  0  0  0  0  0  0  0  0  0
  130.9440  125.6184   65.2202 H   0  0  0  0  0  0  0  0  0  0  0  0
  1  2  1  0
  2  3  1  0
  3  4  1  0
  4  5  2  0
  4  6  1  0
  6  7  1  0
  7  8  1  0
  8  9  2  0
  9 10  1  0
 10 11  1  0
 10 12  2  0
 12 13  1  0
 13 14  1  0
 13 15  2  0
 15 16  1  0
 16 17  3  0
 15  8  1  0
  1 18  1  0
  1 19  1  0
  1 20  1  0
  3 21  1  0
  6 22  1  0
  6 23  1  0
 11 24  1  0
 11 25  1  0
 11 26  1  0
 12 27  1  0
 14 28  1  0
 14 29  1  0
 14 30  1  0
M  END
>  <Binding energies>  (1) 
[-6.07]

>  <Ligand effiencies>  (1) 
[-0.33722222222222226]

>  <Interactions>  (1) 
["V-B:ARG:545:CG:9894, V-B:GLU:543:CD:9880, V-B:GLU:543:C:9874, V-B:GLU:543:CB:9878, V-A:HIS:456:CE1:4069, V-B:ARG:545:CZ:9898, V-B:ARG:545:CD:9895, V-B:HIS:456:CE1:9040, V-A:GLU:543:CD:4908, H-B:GLY:454:N:9021, V-B:ASP:366:CG:8184, H-B:ARG:545:NH1:9899, H-B:ILE:455:N:9026, H-B:TYR:484:OH:9319, H-B:ARG:545:NH2:9900, H-B:ARG:545:NE:9896, V-B:GLY:544:C:9884, H-B:GLU:543:OE1:9881"]

$$$$
1m_Grossjean_2025
     RDKit          3D

 35 35  0  0  0  0  0  0  0  0999 V2000
  131.5260  122.6920   72.6920 C   0  0  0  0  0  0  0  0  0  0  0  0
  130.1650  122.3000   72.5910 O   0  0  0  0  0  0  0  0  0  0  0  0
  129.4260  122.6550   71.5190 C   0  0  0  0  0  0  0  0  0  0  0  0
  128.3230  122.1880   71.2220 O   0  0  0  0  0  0  0  0  0  0  0  0
  130.1280  123.7470   70.6850 C   0  0  0  0  0  0  0  0  0  0  0  0
  129.2330  124.8600   70.3360 N   0  0  0  0  0  0  0  0  0  0  0  0
  128.6440  125.6990   71.2090 C   0  0  0  0  0  0  0  0  0  0  0  0
  128.7880  125.6060   72.4300 O   0  0  0  0  0  0  0  0  0  0  0  0
  127.7630  126.7900   70.5880 C   0  0  0  0  0  0  0  0  0  0  0  0
  126.7460  126.2360   69.1760 S   0  0  0  0  0  0  0  0  0  0  0  0
  127.5900  126.6940   67.6770 C   0  0  0  0  0  0  0  0  0  0  0  0
  128.7720  126.0500   67.5020 N   0  0  0  0  0  0  0  0  0  0  0  0
  129.4990  126.3150   66.3920 C   0  0  0  0  0  0  0  0  0  0  0  0
  130.7990  125.5440   66.2550 C   0  0  0  0  0  0  0  0  0  0  0  0
  129.0900  127.2300   65.4250 C   0  0  0  0  0  0  0  0  0  0  0  0
  127.8860  127.9190   65.6080 C   0  0  0  0  0  0  0  0  0  0  0  0
  127.4650  128.9300   64.5430 C   0  0  0  0  0  0  0  0  0  0  0  0
  127.1090  127.6600   66.7600 C   0  0  0  0  0  0  0  0  0  0  0  0
  125.8710  128.4060   66.9960 C   0  0  0  0  0  0  0  0  0  0  0  0
  124.8920  128.9940   67.1820 N   0  0  0  0  0  0  0  0  0  0  0  0
  131.8066  122.7728   73.7525 H   0  0  0  0  0  0  0  0  0  0  0  0
  132.1615  121.9404   72.2008 H   0  0  0  0  0  0  0  0  0  0  0  0
  131.6643  123.6665   72.2008 H   0  0  0  0  0  0  0  0  0  0  0  0
  130.9731  124.1444   71.2663 H   0  0  0  0  0  0  0  0  0  0  0  0
  130.4619  123.2830   69.7452 H   0  0  0  0  0  0  0  0  0  0  0  0
  129.0450  124.9850   69.3510 H   0  0  0  0  0  0  0  0  0  0  0  0
  127.0877  127.1708   71.3684 H   0  0  0  0  0  0  0  0  0  0  0  0
  128.4473  127.5571   70.1965 H   0  0  0  0  0  0  0  0  0  0  0  0
  131.1936  125.3100   67.2548 H   0  0  0  0  0  0  0  0  0  0  0  0
  130.6147  124.6091   65.7055 H   0  0  0  0  0  0  0  0  0  0  0  0
  131.5310  126.1541   65.7055 H   0  0  0  0  0  0  0  0  0  0  0  0
  129.7046  127.4085   64.5303 H   0  0  0  0  0  0  0  0  0  0  0  0
  127.0860  129.8401   65.0309 H   0  0  0  0  0  0  0  0  0  0  0  0
  128.3321  129.1842   63.9156 H   0  0  0  0  0  0  0  0  0  0  0  0
  126.6738  128.4937   63.9156 H   0  0  0  0  0  0  0  0  0  0  0  0
  1  2  1  0
  2  3  1  0
  3  4  2  0
  3  5  1  0
  5  6  1  0
  6  7  1  0
  7  8  2  0
  7  9  1  0
  9 10  1  0
 10 11  1  0
 11 12  2  0
 12 13  1  0
 13 14  1  0
 13 15  2  0
 15 16  1  0
 16 17  1  0
 16 18  2  0
 18 19  1  0
 19 20  3  0
 18 11  1  0
  1 21  1  0
  1 22  1  0
  1 23  1  0
  5 24  1  0
  5 25  1  0
  6 26  1  0
  9 27  1  0
  9 28  1  0
 14 29  1  0
 14 30  1  0
 14 31  1  0
 15 32  1  0
 17 33  1  0
 17 34  1  0
 17 35  1  0
M  END
>  <Binding energies>  (1) 
[-6.12]

>  <Ligand effiencies>  (1) 
[-0.2914285714285714]

>  <Interactions>  (1) 
["V-B:ARG:545:CG:9894, V-A:HIS:456:CD2:4068, V-B:GLU:543:CD:9880, H-B:LYS:547:NZ:9923, V-B:GLU:543:C:9874, V-B:GLU:543:CB:9878, V-A:HIS:456:CE1:4069, V-B:HIS:456:CE1:9040, V-A:GLU:543:CD:4908, H-B:TYR:484:OH:9319, H-B:ARG:545:NE:9896, V-A:TYR:484:CZ:4347, V-A:TYR:484:CE1:4345, H-B:GLY:544:N:9887, V-B:GLY:544:C:9884, H-B:ARG:545:N:9892, V-A:HIS:456:CG:4066, V-A:TYR:484:CD2:4344, V-A:TYR:484:CE2:4346, V-A:TYR:484:CD1:4343, V-A:HIS:456:CB:4065, V-A:TYR:484:CG:4342, H-B:GLU:543:O:9875, V-B:LYS:547:CE:9922, V-A:ASP:473:CB:4239, V-A:TYR:484:CB:4341"]

$$$$
1n_Grossjean_2025
     RDKit          3D

 48 49  0  0  0  0  0  0  0  0999 V2000
  125.9170  126.6510   74.1360 C   0  0  0  0  0  0  0  0  0  0  0  0
  127.2720  127.0080   74.7560 C   0  0  0  0  0  0  0  0  0  0  0  0
  128.2120  125.9820   74.4590 O   0  0  0  0  0  0  0  0  0  0  0  0
  129.3770  126.2620   73.8190 C   0  0  0  0  0  0  0  0  0  0  0  0
  130.3990  126.6390   74.4010 O   0  0  0  0  0  0  0  0  0  0  0  0
  129.3020  126.0550   72.3340 C   0  0  0  0  0  0  0  0  0  0  0  0
  128.7460  127.0170   71.4770 C   0  0  0  0  0  0  0  0  0  0  0  0
  128.6890  126.7930   70.1050 C   0  0  0  0  0  0  0  0  0  0  0  0
  129.1770  125.6040   69.5610 C   0  0  0  0  0  0  0  0  0  0  0  0
  129.0640  125.4790   68.1630 N   0  0  0  0  0  0  0  0  0  0  0  0
  129.4380  126.3330   67.1860 C   0  0  0  0  0  0  0  0  0  0  0  0
  129.9780  127.4260   67.3620 O   0  0  0  0  0  0  0  0  0  0  0  0
  129.1540  125.8670   65.7520 C   0  0  0  0  0  0  0  0  0  0  0  0
  130.3110  125.0490   65.1410 C   0  0  0  0  0  0  0  0  0  0  0  0
  130.0360  123.2520   65.1230 S   0  0  0  0  0  0  0  0  0  0  0  0
  130.9040  122.5870   63.7190 C   0  0  0  0  0  0  0  0  0  0  0  0
  130.1490  121.7550   62.9580 N   0  0  0  0  0  0  0  0  0  0  0  0
  130.7030  121.2030   61.8530 C   0  0  0  0  0  0  0  0  0  0  0  0
  129.7960  120.2940   61.0460 C   0  0  0  0  0  0  0  0  0  0  0  0
  132.0190  121.4490   61.4680 C   0  0  0  0  0  0  0  0  0  0  0  0
  132.8120  122.2880   62.2580 C   0  0  0  0  0  0  0  0  0  0  0  0
  134.2560  122.5320   61.8240 C   0  0  0  0  0  0  0  0  0  0  0  0
  132.2570  122.8720   63.4190 C   0  0  0  0  0  0  0  0  0  0  0  0
  133.0840  123.7120   64.2880 C   0  0  0  0  0  0  0  0  0  0  0  0
  133.7390  124.3750   64.9730 N   0  0  0  0  0  0  0  0  0  0  0  0
  129.7430  124.6420   70.4100 C   0  0  0  0  0  0  0  0  0  0  0  0
  129.8030  124.8690   71.7820 C   0  0  0  0  0  0  0  0  0  0  0  0
  125.1870  126.4587   74.9360 H   0  0  0  0  0  0  0  0  0  0  0  0
  125.5668  127.4875   73.5134 H   0  0  0  0  0  0  0  0  0  0  0  0
  126.0245  125.7505   73.5134 H   0  0  0  0  0  0  0  0  0  0  0  0
  127.6263  127.9624   74.3393 H   0  0  0  0  0  0  0  0  0  0  0  0
  127.1638  127.1030   75.8465 H   0  0  0  0  0  0  0  0  0  0  0  0
  128.3520  127.9559   71.8933 H   0  0  0  0  0  0  0  0  0  0  0  0
  128.2562  127.5586   69.4443 H   0  0  0  0  0  0  0  0  0  0  0  0
  128.6790  124.5970   67.8570 H   0  0  0  0  0  0  0  0  0  0  0  0
  128.2491  125.2416   65.7599 H   0  0  0  0  0  0  0  0  0  0  0  0
  129.0268  126.7677   65.1335 H   0  0  0  0  0  0  0  0  0  0  0  0
  130.4587  125.3844   64.1039 H   0  0  0  0  0  0  0  0  0  0  0  0
  131.1896  125.2248   65.7790 H   0  0  0  0  0  0  0  0  0  0  0  0
  129.1869  119.6836   61.7290 H   0  0  0  0  0  0  0  0  0  0  0  0
  129.1358  120.9039   60.4119 H   0  0  0  0  0  0  0  0  0  0  0  0
  130.4074  119.6352   60.4119 H   0  0  0  0  0  0  0  0  0  0  0  0
  132.4286  120.9902   60.5560 H   0  0  0  0  0  0  0  0  0  0  0  0
  134.8932  122.6397   62.7142 H   0  0  0  0  0  0  0  0  0  0  0  0
  134.6070  121.6804   61.2226 H   0  0  0  0  0  0  0  0  0  0  0  0
  134.3077  123.4516   61.2226 H   0  0  0  0  0  0  0  0  0  0  0  0
  130.1405  123.7059   69.9908 H   0  0  0  0  0  0  0  0  0  0  0  0
  130.2488  124.1086   72.4401 H   0  0  0  0  0  0  0  0  0  0  0  0
  1  2  1  0
  2  3  1  0
  3  4  1  0
  4  5  2  0
  4  6  1  0
  6  7  2  0
  7  8  1  0
  8  9  2  0
  9 10  1  0
 10 11  1  0
 11 12  2  0
 11 13  1  0
 13 14  1  0
 14 15  1  0
 15 16  1  0
 16 17  2  0
 17 18  1  0
 18 19  1  0
 18 20  2  0
 20 21  1  0
 21 22  1  0
 21 23  2  0
 23 24  1  0
 24 25  3  0
  9 26  1  0
 26 27  2  0
 27  6  1  0
 23 16  1  0
  1 28  1  0
  1 29  1  0
  1 30  1  0
  2 31  1  0
  2 32  1  0
  7 33  1  0
  8 34  1  0
 10 35  1  0
 13 36  1  0
 13 37  1  0
 14 38  1  0
 14 39  1  0
 19 40  1  0
 19 41  1  0
 19 42  1  0
 20 43  1  0
 22 44  1  0
 22 45  1  0
 22 46  1  0
 26 47  1  0
 27 48  1  0
M  END
>  <Binding energies>  (1) 
[-8.3]

>  <Ligand effiencies>  (1) 
[-0.29642857142857143]

>  <Interactions>  (1) 
["V-A:HIS:456:CD2:4068, V-B:GLU:543:CD:9880, H-B:LYS:547:NZ:9923, V-B:GLU:543:C:9874, H-A:LYS:547:NZ:4951, V-B:GLU:543:CB:9878, V-A:HIS:456:CE1:4069, H-A:HIS:456:NE2:4070, V-B:HIS:456:CE1:9040, V-B:GLU:543:CG:9879, V-B:ALA:541:CB:9864, V-A:TYR:484:CZ:4347, V-A:LEU:475:CD1:4258, V-A:TYR:484:CE1:4345, H-A:GLY:454:N:4050, H-A:TYR:484:OH:4348, V-A:GLY:454:CA:4049, V-A:ILE:369:CD1:3239, V-B:TYR:539:CD2:9846, V-A:HIS:456:CG:4066, V-B:LYS:547:CD:9921, H-B:GLU:543:O:9875, V-B:LYS:547:CE:9922"]

$$$$
1o_Grossjean_2025
     RDKit          3D

 45 46  0  0  0  0  0  0  0  0999 V2000
  127.1260  126.6550   74.2980 C   0  0  0  0  0  0  0  0  0  0  0  0
  128.3100  125.8880   74.4690 O   0  0  0  0  0  0  0  0  0  0  0  0
  129.4570  126.2190   73.8220 C   0  0  0  0  0  0  0  0  0  0  0  0
  130.4570  126.6620   74.3940 O   0  0  0  0  0  0  0  0  0  0  0  0
  129.3900  125.9880   72.3400 C   0  0  0  0  0  0  0  0  0  0  0  0
  128.9350  126.9750   71.4540 C   0  0  0  0  0  0  0  0  0  0  0  0
  128.8880  126.7290   70.0840 C   0  0  0  0  0  0  0  0  0  0  0  0
  129.2880  125.4940   69.5720 C   0  0  0  0  0  0  0  0  0  0  0  0
  129.2090  125.3570   68.1730 N   0  0  0  0  0  0  0  0  0  0  0  0
  129.4250  126.2690   67.1990 C   0  0  0  0  0  0  0  0  0  0  0  0
  129.7930  127.4290   67.3830 O   0  0  0  0  0  0  0  0  0  0  0  0
  129.2140  125.7660   65.7640 C   0  0  0  0  0  0  0  0  0  0  0  0
  130.4000  124.9420   65.2240 C   0  0  0  0  0  0  0  0  0  0  0  0
  130.0730  123.1570   65.1220 S   0  0  0  0  0  0  0  0  0  0  0  0
  130.9270  122.5080   63.6990 C   0  0  0  0  0  0  0  0  0  0  0  0
  130.1790  121.6440   62.9680 N   0  0  0  0  0  0  0  0  0  0  0  0
  130.7200  121.0920   61.8570 C   0  0  0  0  0  0  0  0  0  0  0  0
  129.8190  120.1470   61.0840 C   0  0  0  0  0  0  0  0  0  0  0  0
  132.0210  121.3650   61.4400 C   0  0  0  0  0  0  0  0  0  0  0  0
  132.8100  122.2340   62.2000 C   0  0  0  0  0  0  0  0  0  0  0  0
  134.2380  122.5070   61.7300 C   0  0  0  0  0  0  0  0  0  0  0  0
  132.2670  122.8200   63.3670 C   0  0  0  0  0  0  0  0  0  0  0  0
  133.0980  123.6860   64.2070 C   0  0  0  0  0  0  0  0  0  0  0  0
  133.7550  124.3700   64.8690 N   0  0  0  0  0  0  0  0  0  0  0  0
  129.7500  124.5040   70.4520 C   0  0  0  0  0  0  0  0  0  0  0  0
  129.7970  124.7520   71.8210 C   0  0  0  0  0  0  0  0  0  0  0  0
  126.7158  126.9208   75.2834 H   0  0  0  0  0  0  0  0  0  0  0  0
  127.3612  127.5728   73.7391 H   0  0  0  0  0  0  0  0  0  0  0  0
  126.3846  126.0652   73.7391 H   0  0  0  0  0  0  0  0  0  0  0  0
  128.6125  127.9516   71.8442 H   0  0  0  0  0  0  0  0  0  0  0  0
  128.5329  127.5142   69.4003 H   0  0  0  0  0  0  0  0  0  0  0  0
  128.9750  124.4240   67.8630 H   0  0  0  0  0  0  0  0  0  0  0  0
  128.3132  125.1349   65.7445 H   0  0  0  0  0  0  0  0  0  0  0  0
  129.1143  126.6524   65.1203 H   0  0  0  0  0  0  0  0  0  0  0  0
  130.6445  125.3072   64.2156 H   0  0  0  0  0  0  0  0  0  0  0  0
  131.2294  125.0739   65.9344 H   0  0  0  0  0  0  0  0  0  0  0  0
  129.2367  119.5363   61.7896 H   0  0  0  0  0  0  0  0  0  0  0  0
  129.1335  120.7296   60.4510 H   0  0  0  0  0  0  0  0  0  0  0  0
  130.4336  119.4901   60.4510 H   0  0  0  0  0  0  0  0  0  0  0  0
  132.4220  120.9034   60.5256 H   0  0  0  0  0  0  0  0  0  0  0  0
  134.8940  122.6324   62.6040 H   0  0  0  0  0  0  0  0  0  0  0  0
  134.5927  121.6604   61.1238 H   0  0  0  0  0  0  0  0  0  0  0  0
  134.2554  123.4247   61.1238 H   0  0  0  0  0  0  0  0  0  0  0  0
  130.0759  123.5295   70.0594 H   0  0  0  0  0  0  0  0  0  0  0  0
  130.1579  123.9683   72.5033 H   0  0  0  0  0  0  0  0  0  0  0  0
  1  2  1  0
  2  3  1  0
  3  4  2  0
  3  5  1  0
  5  6  2  0
  6  7  1  0
  7  8  2  0
  8  9  1  0
  9 10  1  0
 10 11  2  0
 10 12  1  0
 12 13  1  0
 13 14  1  0
 14 15  1  0
 15 16  2  0
 16 17  1  0
 17 18  1  0
 17 19  2  0
 19 20  1  0
 20 21  1  0
 20 22  2  0
 22 23  1  0
 23 24  3  0
  8 25  1  0
 25 26  2  0
 26  5  1  0
 22 15  1  0
  1 27  1  0
  1 28  1  0
  1 29  1  0
  6 30  1  0
  7 31  1  0
  9 32  1  0
 12 33  1  0
 12 34  1  0
 13 35  1  0
 13 36  1  0
 18 37  1  0
 18 38  1  0
 18 39  1  0
 19 40  1  0
 21 41  1  0
 21 42  1  0
 21 43  1  0
 25 44  1  0
 26 45  1  0
M  END
>  <Binding energies>  (1) 
[-8.21]

>  <Ligand effiencies>  (1) 
[-0.3040740740740741]

>  <Interactions>  (1) 
["V-A:HIS:456:CD2:4068, V-B:GLU:543:CD:9880, H-B:LYS:547:NZ:9923, V-B:GLU:543:C:9874, H-A:LYS:547:NZ:4951, V-B:GLU:543:CB:9878, V-A:HIS:456:CE1:4069, H-A:HIS:456:NE2:4070, V-B:HIS:456:CE1:9040, V-B:GLU:543:CG:9879, V-B:ALA:541:CB:9864, V-A:TYR:484:CZ:4347, V-A:LEU:475:CD1:4258, V-A:TYR:484:CE1:4345, H-A:GLY:454:N:4050, H-A:TYR:484:OH:4348, V-A:GLY:454:CA:4049, V-A:ILE:369:CD1:3239, V-B:TYR:539:CD2:9846, V-A:PRO:482:CG:4327, V-A:HIS:456:CG:4066, V-B:LYS:547:CD:9921, H-B:GLU:543:O:9875, V-B:LYS:547:CE:9922"]

$$$$
1p_Grossjean_2025
     RDKit          3D

 35 36  0  0  0  0  0  0  0  0999 V2000
  123.6550  129.9600   66.2550 C   0  0  0  0  0  0  0  0  0  0  0  0
  125.0040  129.2680   66.2370 C   0  0  0  0  0  0  0  0  0  0  0  0
  125.9790  129.5990   65.2970 C   0  0  0  0  0  0  0  0  0  0  0  0
  127.2020  128.9190   65.3180 C   0  0  0  0  0  0  0  0  0  0  0  0
  128.2500  129.2860   64.2690 C   0  0  0  0  0  0  0  0  0  0  0  0
  127.4210  127.9210   66.2940 C   0  0  0  0  0  0  0  0  0  0  0  0
  128.6720  127.1620   66.3070 C   0  0  0  0  0  0  0  0  0  0  0  0
  129.6630  126.5620   66.3170 N   0  0  0  0  0  0  0  0  0  0  0  0
  126.3830  127.6670   67.2230 C   0  0  0  0  0  0  0  0  0  0  0  0
  126.4980  126.4560   68.5200 S   0  0  0  0  0  0  0  0  0  0  0  0
  127.8930  126.9440   69.5750 C   0  0  0  0  0  0  0  0  0  0  0  0
  127.5630  126.9460   71.0800 C   0  0  0  0  0  0  0  0  0  0  0  0
  128.3440  125.8930   71.8810 C   0  0  0  0  0  0  0  0  0  0  0  0
  128.5570  126.0770   73.0810 O   0  0  0  0  0  0  0  0  0  0  0  0
  128.7370  124.8030   71.1850 N   0  0  0  0  0  0  0  0  0  0  0  0
  129.4510  123.7120   71.6640 C   0  0  0  0  0  0  0  0  0  0  0  0
  130.7480  123.8110   72.1670 C   0  0  0  0  0  0  0  0  0  0  0  0
  131.0900  122.5290   72.5330 C   0  0  0  0  0  0  0  0  0  0  0  0
  130.0540  121.7010   72.2620 O   0  0  0  0  0  0  0  0  0  0  0  0
  129.0210  122.4620   71.7110 N   0  0  0  0  0  0  0  0  0  0  0  0
  125.1930  128.3180   67.1810 N   0  0  0  0  0  0  0  0  0  0  0  0
  123.3397  130.1217   67.2964 H   0  0  0  0  0  0  0  0  0  0  0  0
  123.7332  130.9293   65.7408 H   0  0  0  0  0  0  0  0  0  0  0  0
  122.9134  129.3310   65.7408 H   0  0  0  0  0  0  0  0  0  0  0  0
  125.7897  130.3835   64.5495 H   0  0  0  0  0  0  0  0  0  0  0  0
  129.1737  129.6095   64.7711 H   0  0  0  0  0  0  0  0  0  0  0  0
  128.4623  128.4087   63.6403 H   0  0  0  0  0  0  0  0  0  0  0  0
  127.8686  130.1041   63.6403 H   0  0  0  0  0  0  0  0  0  0  0  0
  128.7211  126.2408   69.4024 H   0  0  0  0  0  0  0  0  0  0  0  0
  128.1547  127.9772   69.3028 H   0  0  0  0  0  0  0  0  0  0  0  0
  127.8009  127.9398   71.4871 H   0  0  0  0  0  0  0  0  0  0  0  0
  126.4954  126.6995   71.1771 H   0  0  0  0  0  0  0  0  0  0  0  0
  128.5010  124.7700   70.2040 H   0  0  0  0  0  0  0  0  0  0  0  0
  131.3646  124.7179   72.2527 H   0  0  0  0  0  0  0  0  0  0  0  0
  132.0508  122.2260   72.9747 H   0  0  0  0  0  0  0  0  0  0  0  0
  1  2  1  0
  2  3  2  0
  3  4  1  0
  4  5  1  0
  4  6  2  0
  6  7  1  0
  7  8  3  0
  6  9  1  0
  9 10  1  0
 10 11  1  0
 11 12  1  0
 12 13  1  0
 13 14  2  0
 13 15  1  0
 15 16  1  0
 16 17  1  0
 17 18  2  0
 18 19  1  0
 19 20  1  0
  9 21  2  0
 21  2  1  0
 20 16  2  0
  1 22  1  0
  1 23  1  0
  1 24  1  0
  3 25  1  0
  5 26  1  0
  5 27  1  0
  5 28  1  0
 11 29  1  0
 11 30  1  0
 12 31  1  0
 12 32  1  0
 15 33  1  0
 17 34  1  0
 18 35  1  0
M  END
>  <Binding energies>  (1) 
[-7.52]

>  <Ligand effiencies>  (1) 
[-0.3418181818181818]

>  <Interactions>  (1) 
["V-B:ARG:545:CG:9894, V-A:HIS:456:CD2:4068, H-B:LYS:547:NZ:9923, V-B:GLU:543:CB:9878, V-B:ARG:545:CZ:9898, V-B:ARG:545:CD:9895, V-B:HIS:456:CE1:9040, V-A:GLU:543:CD:4908, V-B:GLY:454:CA:9020, H-B:ARG:545:NE:9896, V-B:GLY:454:C:9018, V-B:GLY:544:C:9884, H-B:ARG:545:N:9892, V-A:HIS:456:CG:4066, V-A:TYR:484:CD2:4344, V-A:TYR:484:CE2:4346, V-A:HIS:456:CB:4065, V-A:TYR:484:CG:4342, H-B:GLY:544:O:9885, H-B:GLU:543:O:9875, V-B:LYS:547:CE:9922, V-B:GLY:544:CA:9886, V-A:ASP:473:CB:4239, V-A:TYR:484:CB:4341"]

$$$$
1q_Grossjean_2025
     RDKit          3D

 38 38  0  0  0  0  0  0  0  0999 V2000
  124.8550  130.7640   64.1830 C   0  0  0  0  0  0  0  0  0  0  0  0
  124.0580  129.7210   64.7260 O   0  0  0  0  0  0  0  0  0  0  0  0
  123.8240  129.6570   66.0600 C   0  0  0  0  0  0  0  0  0  0  0  0
  122.7590  129.9360   66.6140 O   0  0  0  0  0  0  0  0  0  0  0  0
  125.0470  129.2190   66.8930 C   0  0  0  0  0  0  0  0  0  0  0  0
  126.0650  128.5190   66.0950 N   0  0  0  0  0  0  0  0  0  0  0  0
  127.3830  128.4640   66.3690 C   0  0  0  0  0  0  0  0  0  0  0  0
  127.8900  129.0090   67.3520 O   0  0  0  0  0  0  0  0  0  0  0  0
  128.2410  127.6560   65.3850 C   0  0  0  0  0  0  0  0  0  0  0  0
  128.6210  126.2480   65.8840 C   0  0  0  0  0  0  0  0  0  0  0  0
  130.4090  125.9240   65.8590 S   0  0  0  0  0  0  0  0  0  0  0  0
  130.7440  124.6830   64.6260 C   0  0  0  0  0  0  0  0  0  0  0  0
  129.6330  124.2640   63.9680 N   0  0  0  0  0  0  0  0  0  0  0  0
  129.7620  123.3200   63.0070 C   0  0  0  0  0  0  0  0  0  0  0  0
  128.4740  122.8900   62.3290 C   0  0  0  0  0  0  0  0  0  0  0  0
  130.9910  122.7660   62.6560 C   0  0  0  0  0  0  0  0  0  0  0  0
  132.1460  123.2090   63.3100 C   0  0  0  0  0  0  0  0  0  0  0  0
  133.4850  122.5990   62.8940 C   0  0  0  0  0  0  0  0  0  0  0  0
  132.0370  124.1960   64.3150 C   0  0  0  0  0  0  0  0  0  0  0  0
  133.2410  124.7120   64.9690 C   0  0  0  0  0  0  0  0  0  0  0  0
  134.1960  125.1180   65.4830 N   0  0  0  0  0  0  0  0  0  0  0  0
  125.3014  131.3482   65.0012 H   0  0  0  0  0  0  0  0  0  0  0  0
  125.6540  130.3304   63.5637 H   0  0  0  0  0  0  0  0  0  0  0  0
  124.2267  131.4210   63.5637 H   0  0  0  0  0  0  0  0  0  0  0  0
  125.5057  130.1136   67.3394 H   0  0  0  0  0  0  0  0  0  0  0  0
  124.6885  128.5157   67.6590 H   0  0  0  0  0  0  0  0  0  0  0  0
  125.7340  128.0660   65.2550 H   0  0  0  0  0  0  0  0  0  0  0  0
  127.6791  127.5487   64.4454 H   0  0  0  0  0  0  0  0  0  0  0  0
  129.1826  128.2105   65.2586 H   0  0  0  0  0  0  0  0  0  0  0  0
  128.2621  126.1370   66.9179 H   0  0  0  0  0  0  0  0  0  0  0  0
  128.1532  125.5261   65.1984 H   0  0  0  0  0  0  0  0  0  0  0  0
  127.7234  122.6394   63.0931 H   0  0  0  0  0  0  0  0  0  0  0  0
  128.0981  123.7114   61.7013 H   0  0  0  0  0  0  0  0  0  0  0  0
  128.6670  122.0075   61.7013 H   0  0  0  0  0  0  0  0  0  0  0  0
  131.0526  121.9922   61.8767 H   0  0  0  0  0  0  0  0  0  0  0  0
  134.0628  122.3358   63.7922 H   0  0  0  0  0  0  0  0  0  0  0  0
  133.3054  121.6939   62.2953 H   0  0  0  0  0  0  0  0  0  0  0  0
  134.0501  123.3285   62.2953 H   0  0  0  0  0  0  0  0  0  0  0  0
  1  2  1  0
  2  3  1  0
  3  4  2  0
  3  5  1  0
  5  6  1  0
  6  7  1  0
  7  8  2  0
  7  9  1  0
  9 10  1  0
 10 11  1  0
 11 12  1  0
 12 13  2  0
 13 14  1  0
 14 15  1  0
 14 16  2  0
 16 17  1  0
 17 18  1  0
 17 19  2  0
 19 20  1  0
 20 21  3  0
 19 12  1  0
  1 22  1  0
  1 23  1  0
  1 24  1  0
  5 25  1  0
  5 26  1  0
  6 27  1  0
  9 28  1  0
  9 29  1  0
 10 30  1  0
 10 31  1  0
 15 32  1  0
 15 33  1  0
 15 34  1  0
 16 35  1  0
 18 36  1  0
 18 37  1  0
 18 38  1  0
M  END
>  <Binding energies>  (1) 
[-6.26]

>  <Ligand effiencies>  (1) 
[-0.28454545454545455]

>  <Interactions>  (1) 
["V-B:ARG:545:CG:9894, H-B:HIS:456:NE2:9041, V-B:GLU:543:CD:9880, V-B:GLU:543:CB:9878, V-B:ARG:545:CZ:9898, V-B:ARG:545:CD:9895, V-B:HIS:456:CE1:9040, V-B:GLU:543:CG:9879, V-A:GLU:543:CD:4908, H-B:GLY:454:N:9021, H-B:ARG:545:NH1:9899, H-B:ILE:455:N:9026, H-B:TYR:484:OH:9319, H-B:ARG:545:NH2:9900, V-B:ALA:541:CB:9864, H-B:ARG:545:NE:9896, V-A:LEU:475:CD1:4258, H-A:GLY:454:N:4050, V-A:ARG:545:CZ:4926, H-A:TYR:484:OH:4348, V-A:GLY:454:CA:4049, H-A:ARG:545:NE:4924, V-B:TYR:484:CZ:9318, H-B:GLU:543:OE1:9881"]

$$$$
2a_Ghoteimi_2023
     RDKit          3D

 85 90  0  0  0  0  0  0  0  0999 V2000
  125.7780  134.1740   60.7960 C   0  0  0  0  0  0  0  0  0  0  0  0
  124.2920  133.8510   60.6160 C   0  0  0  0  0  0  0  0  0  0  0  0
  124.1290  132.9870   59.4990 O   0  0  0  0  0  0  0  0  0  0  0  0
  123.6900  131.7120   59.6560 C   0  0  0  0  0  0  0  0  0  0  0  0
  122.9570  131.1400   58.8420 O   0  0  0  0  0  0  0  0  0  0  0  0
  124.1890  131.0640   60.9150 C   0  0  0  0  0  0  0  0  0  0  0  0
  123.4060  130.9960   62.0770 C   0  0  0  0  0  0  0  0  0  0  0  0
  123.8990  130.3870   63.2270 C   0  0  0  0  0  0  0  0  0  0  0  0
  125.1790  129.8300   63.2410 C   0  0  0  0  0  0  0  0  0  0  0  0
  125.5770  129.2430   64.4570 N   0  0  0  0  0  0  0  0  0  0  0  0
  125.0130  129.3240   65.6820 C   0  0  0  0  0  0  0  0  0  0  0  0
  124.0240  130.0020   65.9640 O   0  0  0  0  0  0  0  0  0  0  0  0
  125.7220  128.5210   66.7800 C   0  0  0  0  0  0  0  0  0  0  0  0
  127.4790  128.9450   67.0100 S   0  0  0  0  0  0  0  0  0  0  0  0
  128.3370  127.3920   67.1230 C   0  0  0  0  0  0  0  0  0  0  0  0
  128.6250  127.0170   68.3910 N   0  0  0  0  0  0  0  0  0  0  0  0
  129.2870  125.8530   68.6070 C   0  0  0  0  0  0  0  0  0  0  0  0
  129.5800  125.5070   70.0310 C   0  0  0  0  0  0  0  0  0  0  0  0
  129.3400  126.4220   71.0640 C   0  0  0  0  0  0  0  0  0  0  0  0
  129.6250  126.0990   72.3880 C   0  0  0  0  0  0  0  0  0  0  0  0
  130.1540  124.8460   72.7300 C   0  0  0  0  0  0  0  0  0  0  0  0
  130.4640  124.5470   74.0610 N   0  0  0  0  0  0  0  0  0  0  0  0
  131.1510  125.5230   74.9300 C   0  0  0  0  0  0  0  0  0  0  0  0
  131.0860  125.1740   76.4320 C   0  0  0  0  0  0  0  0  0  0  0  0
  131.5830  123.8640   76.6490 O   0  0  0  0  0  0  0  0  0  0  0  0
  130.8180  122.8970   75.9470 C   0  0  0  0  0  0  0  0  0  0  0  0
  130.8740  123.1750   74.4300 C   0  0  0  0  0  0  0  0  0  0  0  0
  130.4050  123.9370   71.6900 C   0  0  0  0  0  0  0  0  0  0  0  0
  130.1170  124.2590   70.3670 C   0  0  0  0  0  0  0  0  0  0  0  0
  129.6650  125.0280   67.5440 C   0  0  0  0  0  0  0  0  0  0  0  0
  129.3770  125.3960   66.2220 C   0  0  0  0  0  0  0  0  0  0  0  0
  129.8150  124.4710   65.1340 C   0  0  0  0  0  0  0  0  0  0  0  0
  129.4410  123.1250   65.1620 C   0  0  0  0  0  0  0  0  0  0  0  0
  129.8600  122.2510   64.1640 C   0  0  0  0  0  0  0  0  0  0  0  0
  130.6650  122.6980   63.1040 C   0  0  0  0  0  0  0  0  0  0  0  0
  131.1120  121.8320   62.1020 N   0  0  0  0  0  0  0  0  0  0  0  0
  130.5030  120.4930   61.9780 C   0  0  0  0  0  0  0  0  0  0  0  0
  130.7990  119.8110   60.6250 C   0  0  0  0  0  0  0  0  0  0  0  0
  132.2000  119.7510   60.4070 O   0  0  0  0  0  0  0  0  0  0  0  0
  132.7840  121.0440   60.3830 C   0  0  0  0  0  0  0  0  0  0  0  0
  132.5380  121.7600   61.7270 C   0  0  0  0  0  0  0  0  0  0  0  0
  131.0460  124.0470   63.0900 C   0  0  0  0  0  0  0  0  0  0  0  0
  130.6280  124.9210   64.0890 C   0  0  0  0  0  0  0  0  0  0  0  0
  128.6870  126.6120   65.9980 C   0  0  0  0  0  0  0  0  0  0  0  0
  128.3080  127.0230   64.6430 C   0  0  0  0  0  0  0  0  0  0  0  0
  128.0120  127.3460   63.5710 N   0  0  0  0  0  0  0  0  0  0  0  0
  125.9710  129.9010   62.0850 C   0  0  0  0  0  0  0  0  0  0  0  0
  125.4760  130.5090   60.9350 C   0  0  0  0  0  0  0  0  0  0  0  0
  126.0147  134.2254   61.8690 H   0  0  0  0  0  0  0  0  0  0  0  0
  126.3841  133.3866   60.3241 H   0  0  0  0  0  0  0  0  0  0  0  0
  126.0026  135.1419   60.3241 H   0  0  0  0  0  0  0  0  0  0  0  0
  123.9116  133.3559   61.5216 H   0  0  0  0  0  0  0  0  0  0  0  0
  123.7315  134.7820   60.4455 H   0  0  0  0  0  0  0  0  0  0  0  0
  122.3942  131.4276   62.0791 H   0  0  0  0  0  0  0  0  0  0  0  0
  123.2753  130.3442   64.1321 H   0  0  0  0  0  0  0  0  0  0  0  0
  126.4270  128.7040   64.3950 H   0  0  0  0  0  0  0  0  0  0  0  0
  125.1978  128.7009   67.7302 H   0  0  0  0  0  0  0  0  0  0  0  0
  125.6927  127.4672   66.4658 H   0  0  0  0  0  0  0  0  0  0  0  0
  128.9201  127.4104   70.8257 H   0  0  0  0  0  0  0  0  0  0  0  0
  129.4321  126.8388   73.1788 H   0  0  0  0  0  0  0  0  0  0  0  0
  132.2084  125.5701   74.6304 H   0  0  0  0  0  0  0  0  0  0  0  0
  130.6338  126.4854   74.8021 H   0  0  0  0  0  0  0  0  0  0  0  0
  131.6951  125.8930   76.9994 H   0  0  0  0  0  0  0  0  0  0  0  0
  130.0398  125.2228   76.7684 H   0  0  0  0  0  0  0  0  0  0  0  0
  131.2250  121.8951   76.1484 H   0  0  0  0  0  0  0  0  0  0  0  0
  129.7724  122.9513   76.2844 H   0  0  0  0  0  0  0  0  0  0  0  0
  131.9068  123.0169   74.0860 H   0  0  0  0  0  0  0  0  0  0  0  0
  130.1618  122.4871   73.9509 H   0  0  0  0  0  0  0  0  0  0  0  0
  130.8369  122.9530   71.9249 H   0  0  0  0  0  0  0  0  0  0  0  0
  130.3142  123.5223   69.5743 H   0  0  0  0  0  0  0  0  0  0  0  0
  130.1919  124.0837   67.7458 H   0  0  0  0  0  0  0  0  0  0  0  0
  128.8088  122.7526   65.9815 H   0  0  0  0  0  0  0  0  0  0  0  0
  129.5563  121.1946   64.2059 H   0  0  0  0  0  0  0  0  0  0  0  0
  130.8950  119.8551   62.7838 H   0  0  0  0  0  0  0  0  0  0  0  0
  129.4128  120.6231   62.0459 H   0  0  0  0  0  0  0  0  0  0  0  0
  130.3879  118.7908   60.6339 H   0  0  0  0  0  0  0  0  0  0  0  0
  130.3329  120.3945   59.8173 H   0  0  0  0  0  0  0  0  0  0  0  0
  133.8668  120.9514   60.2126 H   0  0  0  0  0  0  0  0  0  0  0  0
  132.3273  121.6311   59.5726 H   0  0  0  0  0  0  0  0  0  0  0  0
  133.0786  121.2161   62.5156 H   0  0  0  0  0  0  0  0  0  0  0  0
  132.8960  122.7939   61.6137 H   0  0  0  0  0  0  0  0  0  0  0  0
  131.6854  124.4205   62.2766 H   0  0  0  0  0  0  0  0  0  0  0  0
  130.9399  125.9753   64.0563 H   0  0  0  0  0  0  0  0  0  0  0  0
  126.9853  129.4752   62.0876 H   0  0  0  0  0  0  0  0  0  0  0  0
  126.1019  130.5545   60.0316 H   0  0  0  0  0  0  0  0  0  0  0  0
  1  2  1  0
  2  3  1  0
  3  4  1  0
  4  5  2  0
  4  6  1  0
  6  7  2  0
  7  8  1  0
  8  9  2  0
  9 10  1  0
 10 11  1  0
 11 12  2  0
 11 13  1  0
 13 14  1  0
 14 15  1  0
 15 16  2  0
 16 17  1  0
 17 18  1  0
 18 19  2  0
 19 20  1  0
 20 21  2  0
 21 22  1  0
 22 23  1  0
 23 24  1  0
 24 25  1  0
 25 26  1  0
 26 27  1  0
 21 28  1  0
 28 29  2  0
 17 30  2  0
 30 31  1  0
 31 32  1  0
 32 33  2  0
 33 34  1  0
 34 35  2  0
 35 36  1  0
 36 37  1  0
 37 38  1  0
 38 39  1  0
 39 40  1  0
 40 41  1  0
 35 42  1  0
 42 43  2  0
 31 44  2  0
 44 45  1  0
 45 46  3  0
  9 47  1  0
 47 48  2  0
 48  6  1  0
 44 15  1  0
 29 18  1  0
 43 32  1  0
 27 22  1  0
 41 36  1  0
  1 49  1  0
  1 50  1  0
  1 51  1  0
  2 52  1  0
  2 53  1  0
  7 54  1  0
  8 55  1  0
 10 56  1  0
 13 57  1  0
 13 58  1  0
 19 59  1  0
 20 60  1  0
 23 61  1  0
 23 62  1  0
 24 63  1  0
 24 64  1  0
 26 65  1  0
 26 66  1  0
 27 67  1  0
 27 68  1  0
 28 69  1  0
 29 70  1  0
 30 71  1  0
 33 72  1  0
 34 73  1  0
 37 74  1  0
 37 75  1  0
 38 76  1  0
 38 77  1  0
 40 78  1  0
 40 79  1  0
 41 80  1  0
 41 81  1  0
 42 82  1  0
 43 83  1  0
 47 84  1  0
 48 85  1  0
M  END
>  <Binding energies>  (1) 
[-10.21]

>  <Ligand effiencies>  (1) 
[-0.20836734693877554]

>  <Interactions>  (1) 
["V-B:ARG:545:CG:9894, V-A:HIS:456:CD2:4068, V-B:GLU:543:CD:9880, V-B:GLU:543:C:9874, V-B:GLU:543:CB:9878, V-A:HIS:456:CE1:4069, V-B:ARG:545:CZ:9898, V-B:ARG:545:CD:9895, V-B:HIS:456:CE1:9040, V-B:GLU:543:CG:9879, H-B:GLY:454:N:9021, V-B:ILE:369:CB:8207, V-B:ASP:366:CG:8184, V-B:LEU:475:CD1:9229, V-B:ILE:369:CD1:8210, V-A:TYR:539:CE2:4876, H-B:TYR:484:OH:9319, V-B:ILE:369:CG2:8208, V-A:TYR:539:CD2:4874, V-B:ALA:541:CB:9864, V-B:GLU:543:CA:9876, H-B:ARG:545:NE:9896, V-A:TYR:484:CZ:4347, V-A:LEU:475:CD1:4258, V-A:TYR:484:CE1:4345, V-B:TYR:539:CE2:9848, V-A:ILE:369:CG2:3237, H-A:TYR:539:OH:4878, V-B:TYR:539:CD2:9846, V-A:TRP:381:CH2:3372, V-A:HIS:456:CG:4066, H-B:GLU:543:OE1:9881, V-A:TYR:484:CE2:4346, V-A:TYR:484:CD1:4343, V-A:ASP:473:CG:4240"]

$$$$
2a_Grossjean_2025
     RDKit          3D

 45 46  0  0  0  0  0  0  0  0999 V2000
  126.0810  127.3870   73.4260 C   0  0  0  0  0  0  0  0  0  0  0  0
  127.0840  127.0890   74.5450 C   0  0  0  0  0  0  0  0  0  0  0  0
  128.0100  126.1060   74.0970 O   0  0  0  0  0  0  0  0  0  0  0  0
  129.1840  126.4630   73.5150 C   0  0  0  0  0  0  0  0  0  0  0  0
  130.1150  126.9920   74.1290 O   0  0  0  0  0  0  0  0  0  0  0  0
  129.2430  126.1300   72.0520 C   0  0  0  0  0  0  0  0  0  0  0  0
  128.7990  127.0260   71.0680 C   0  0  0  0  0  0  0  0  0  0  0  0
  128.8660  126.6860   69.7210 C   0  0  0  0  0  0  0  0  0  0  0  0
  129.3700  125.4460   69.3270 C   0  0  0  0  0  0  0  0  0  0  0  0
  129.3780  125.2030   67.9410 N   0  0  0  0  0  0  0  0  0  0  0  0
  129.8160  125.9800   66.9270 C   0  0  0  0  0  0  0  0  0  0  0  0
  130.2890  127.1100   67.0450 O   0  0  0  0  0  0  0  0  0  0  0  0
  129.6940  125.3680   65.5270 C   0  0  0  0  0  0  0  0  0  0  0  0
  129.9530  123.5630   65.5030 S   0  0  0  0  0  0  0  0  0  0  0  0
  130.5710  123.0630   63.9000 C   0  0  0  0  0  0  0  0  0  0  0  0
  129.6620  122.4850   63.0730 N   0  0  0  0  0  0  0  0  0  0  0  0
  130.0620  122.0710   61.8500 C   0  0  0  0  0  0  0  0  0  0  0  0
  128.9970  121.4110   60.9940 C   0  0  0  0  0  0  0  0  0  0  0  0
  131.3700  122.2200   61.3970 C   0  0  0  0  0  0  0  0  0  0  0  0
  132.3240  122.8220   62.2320 C   0  0  0  0  0  0  0  0  0  0  0  0
  133.7670  122.9800   61.7150 C   0  0  0  0  0  0  0  0  0  0  0  0
  133.8050  122.7860   60.3970 F   0  0  0  0  0  0  0  0  0  0  0  0
  134.2160  124.2070   61.9870 F   0  0  0  0  0  0  0  0  0  0  0  0
  134.6130  122.1110   62.2740 F   0  0  0  0  0  0  0  0  0  0  0  0
  131.9190  123.2580   63.5190 C   0  0  0  0  0  0  0  0  0  0  0  0
  132.8750  123.8910   64.4330 C   0  0  0  0  0  0  0  0  0  0  0  0
  133.6300  124.3900   65.1540 N   0  0  0  0  0  0  0  0  0  0  0  0
  129.8240  124.5480   70.3040 C   0  0  0  0  0  0  0  0  0  0  0  0
  129.7590  124.8910   71.6520 C   0  0  0  0  0  0  0  0  0  0  0  0
  125.1148  127.6741   73.8665 H   0  0  0  0  0  0  0  0  0  0  0  0
  126.4598  128.2114   72.8040 H   0  0  0  0  0  0  0  0  0  0  0  0
  125.9482  126.4895   72.8040 H   0  0  0  0  0  0  0  0  0  0  0  0
  127.6246  128.0100   74.8087 H   0  0  0  0  0  0  0  0  0  0  0  0
  126.5484  126.7146   75.4298 H   0  0  0  0  0  0  0  0  0  0  0  0
  128.3947  128.0052   71.3641 H   0  0  0  0  0  0  0  0  0  0  0  0
  128.5188  127.4005   68.9601 H   0  0  0  0  0  0  0  0  0  0  0  0
  129.0430  124.2880   67.6820 H   0  0  0  0  0  0  0  0  0  0  0  0
  128.6869  125.5813   65.1394 H   0  0  0  0  0  0  0  0  0  0  0  0
  130.4817  125.8182   64.9051 H   0  0  0  0  0  0  0  0  0  0  0  0
  128.2424  120.9433   61.6435 H   0  0  0  0  0  0  0  0  0  0  0  0
  128.5152  122.1690   60.3590 H   0  0  0  0  0  0  0  0  0  0  0  0
  129.4614  120.6422   60.3590 H   0  0  0  0  0  0  0  0  0  0  0  0
  131.6532  121.8691   60.3937 H   0  0  0  0  0  0  0  0  0  0  0  0
  130.2320  123.5712   70.0049 H   0  0  0  0  0  0  0  0  0  0  0  0
  130.1171  124.1805   72.4116 H   0  0  0  0  0  0  0  0  0  0  0  0
  1  2  1  0
  2  3  1  0
  3  4  1  0
  4  5  2  0
  4  6  1  0
  6  7  2  0
  7  8  1  0
  8  9  2  0
  9 10  1  0
 10 11  1  0
 11 12  2  0
 11 13  1  0
 13 14  1  0
 14 15  1  0
 15 16  2  0
 16 17  1  0
 17 18  1  0
 17 19  2  0
 19 20  1  0
 20 21  1  0
 21 22  1  0
 21 23  1  0
 21 24  1  0
 20 25  2  0
 25 26  1  0
 26 27  3  0
  9 28  1  0
 28 29  2  0
 29  6  1  0
 25 15  1  0
  1 30  1  0
  1 31  1  0
  1 32  1  0
  2 33  1  0
  2 34  1  0
  7 35  1  0
  8 36  1  0
 10 37  1  0
 13 38  1  0
 13 39  1  0
 18 40  1  0
 18 41  1  0
 18 42  1  0
 19 43  1  0
 28 44  1  0
 29 45  1  0
M  END
>  <Binding energies>  (1) 
[-7.67]

>  <Ligand effiencies>  (1) 
[-0.25566666666666665]

>  <Interactions>  (1) 
["V-A:HIS:456:CD2:4068, H-B:LYS:547:NZ:9923, V-B:GLU:543:C:9874, H-A:LYS:547:NZ:4951, V-B:HIS:456:CD2:9039, V-B:GLU:543:CB:9878, V-A:HIS:456:CE1:4069, H-A:HIS:456:NE2:4070, V-B:HIS:456:CE1:9040, V-B:GLU:543:CG:9879, V-B:ALA:541:CB:9864, V-A:TYR:484:CZ:4347, V-A:LEU:475:CD1:4258, V-A:TYR:484:CE1:4345, H-A:GLY:454:N:4050, H-A:TYR:484:OH:4348, V-A:GLY:453:C:4042, V-A:GLY:454:CA:4049, V-A:ASP:366:CG:3213, V-A:ILE:369:CB:3236, V-A:ILE:369:CG2:3237, V-A:ILE:369:CD1:3239, V-B:TYR:539:CD2:9846, V-B:ALA:541:CA:9862, V-A:HIS:456:CG:4066, V-B:HIS:456:CB:9036, V-B:LYS:547:CD:9921, V-B:HIS:456:CG:9037, H-B:GLU:543:O:9875"]

$$$$
2aa_Ghoteimi_2023
     RDKit          3D

 85 90  0  0  0  0  0  0  0  0999 V2000
  135.3390  123.5790   75.9730 C   0  0  0  0  0  0  0  0  0  0  0  0
  134.1860  123.6360   74.9660 C   0  0  0  0  0  0  0  0  0  0  0  0
  133.1280  124.4190   75.5040 O   0  0  0  0  0  0  0  0  0  0  0  0
  131.8400  123.9920   75.4500 C   0  0  0  0  0  0  0  0  0  0  0  0
  131.3210  123.2830   76.3190 O   0  0  0  0  0  0  0  0  0  0  0  0
  131.1050  124.4800   74.2350 C   0  0  0  0  0  0  0  0  0  0  0  0
  130.9820  123.6950   73.0780 C   0  0  0  0  0  0  0  0  0  0  0  0
  130.2910  124.1730   71.9700 C   0  0  0  0  0  0  0  0  0  0  0  0
  129.7160  125.4450   71.9890 C   0  0  0  0  0  0  0  0  0  0  0  0
  129.0370  125.8270   70.8150 N   0  0  0  0  0  0  0  0  0  0  0  0
  127.8800  126.5080   70.6680 C   0  0  0  0  0  0  0  0  0  0  0  0
  127.2010  126.9590   71.5920 O   0  0  0  0  0  0  0  0  0  0  0  0
  127.4470  126.7230   69.2120 C   0  0  0  0  0  0  0  0  0  0  0  0
  128.3900  127.5710   68.5490 O   0  0  0  0  0  0  0  0  0  0  0  0
  128.5640  127.4790   67.1740 C   0  0  0  0  0  0  0  0  0  0  0  0
  128.1440  128.5220   66.4040 N   0  0  0  0  0  0  0  0  0  0  0  0
  128.3030  128.4660   65.0580 C   0  0  0  0  0  0  0  0  0  0  0  0
  127.8130  129.6440   64.2770 C   0  0  0  0  0  0  0  0  0  0  0  0
  128.2110  130.9410   64.6170 C   0  0  0  0  0  0  0  0  0  0  0  0
  127.7640  132.0420   63.8890 C   0  0  0  0  0  0  0  0  0  0  0  0
  126.9110  131.8830   62.7850 C   0  0  0  0  0  0  0  0  0  0  0  0
  126.4420  132.9790   62.0510 N   0  0  0  0  0  0  0  0  0  0  0  0
  124.9970  133.2140   61.8570 C   0  0  0  0  0  0  0  0  0  0  0  0
  124.6750  134.2370   60.7480 C   0  0  0  0  0  0  0  0  0  0  0  0
  125.3580  135.4550   60.9980 O   0  0  0  0  0  0  0  0  0  0  0  0
  126.7650  135.2660   61.0200 C   0  0  0  0  0  0  0  0  0  0  0  0
  127.1480  134.2740   62.1380 C   0  0  0  0  0  0  0  0  0  0  0  0
  126.4980  130.5830   62.4630 C   0  0  0  0  0  0  0  0  0  0  0  0
  126.9430  129.4840   63.1920 C   0  0  0  0  0  0  0  0  0  0  0  0
  128.8770  127.3490   64.4440 C   0  0  0  0  0  0  0  0  0  0  0  0
  129.3070  126.2590   65.2120 C   0  0  0  0  0  0  0  0  0  0  0  0
  129.8890  125.0830   64.4960 C   0  0  0  0  0  0  0  0  0  0  0  0
  130.9010  125.2620   63.5500 C   0  0  0  0  0  0  0  0  0  0  0  0
  131.4340  124.1730   62.8660 C   0  0  0  0  0  0  0  0  0  0  0  0
  130.9590  122.8730   63.0990 C   0  0  0  0  0  0  0  0  0  0  0  0
  131.4810  121.7640   62.4260 N   0  0  0  0  0  0  0  0  0  0  0  0
  132.7490  121.8470   61.6770 C   0  0  0  0  0  0  0  0  0  0  0  0
  133.3370  120.4680   61.3100 C   0  0  0  0  0  0  0  0  0  0  0  0
  132.3760  119.7050   60.5960 O   0  0  0  0  0  0  0  0  0  0  0  0
  131.2030  119.4920   61.3650 C   0  0  0  0  0  0  0  0  0  0  0  0
  130.5580  120.8440   61.7320 C   0  0  0  0  0  0  0  0  0  0  0  0
  129.9480  122.7020   64.0550 C   0  0  0  0  0  0  0  0  0  0  0  0
  129.4160  123.7900   64.7390 C   0  0  0  0  0  0  0  0  0  0  0  0
  129.1590  126.3340   66.6160 C   0  0  0  0  0  0  0  0  0  0  0  0
  129.6260  125.2640   67.5010 C   0  0  0  0  0  0  0  0  0  0  0  0
  129.9960  124.4190   68.2000 N   0  0  0  0  0  0  0  0  0  0  0  0
  129.8270  126.2330   73.1440 C   0  0  0  0  0  0  0  0  0  0  0  0
  130.5170  125.7510   74.2530 C   0  0  0  0  0  0  0  0  0  0  0  0
  134.9341  123.5990   76.9956 H   0  0  0  0  0  0  0  0  0  0  0  0
  135.9111  122.6515   75.8233 H   0  0  0  0  0  0  0  0  0  0  0  0
  135.9998  124.4456   75.8233 H   0  0  0  0  0  0  0  0  0  0  0  0
  134.5393  124.0907   74.0288 H   0  0  0  0  0  0  0  0  0  0  0  0
  133.8235  122.6173   74.7641 H   0  0  0  0  0  0  0  0  0  0  0  0
  131.4359  122.6935   73.0475 H   0  0  0  0  0  0  0  0  0  0  0  0
  130.1968  123.5444   71.0722 H   0  0  0  0  0  0  0  0  0  0  0  0
  129.5190  125.5810   69.9630 H   0  0  0  0  0  0  0  0  0  0  0  0
  127.4025  125.7523   68.6965 H   0  0  0  0  0  0  0  0  0  0  0  0
  126.4545  127.1969   69.1931 H   0  0  0  0  0  0  0  0  0  0  0  0
  128.8866  131.0942   65.4714 H   0  0  0  0  0  0  0  0  0  0  0  0
  128.0846  133.0520   64.1840 H   0  0  0  0  0  0  0  0  0  0  0  0
  124.5224  132.2571   61.5943 H   0  0  0  0  0  0  0  0  0  0  0  0
  124.6114  133.6312   62.7989 H   0  0  0  0  0  0  0  0  0  0  0  0
  124.9945  133.8331   59.7760 H   0  0  0  0  0  0  0  0  0  0  0  0
  123.5916  134.4267   60.7354 H   0  0  0  0  0  0  0  0  0  0  0  0
  127.0938  134.8656   60.0496 H   0  0  0  0  0  0  0  0  0  0  0  0
  127.2556  136.2318   61.2113 H   0  0  0  0  0  0  0  0  0  0  0  0
  128.2299  134.0843   62.0783 H   0  0  0  0  0  0  0  0  0  0  0  0
  126.8548  134.7363   63.0921 H   0  0  0  0  0  0  0  0  0  0  0  0
  125.8098  130.4284   61.6189 H   0  0  0  0  0  0  0  0  0  0  0  0
  126.6062  128.4751   62.9115 H   0  0  0  0  0  0  0  0  0  0  0  0
  128.9919  127.3257   63.3503 H   0  0  0  0  0  0  0  0  0  0  0  0
  131.2806  126.2736   63.3435 H   0  0  0  0  0  0  0  0  0  0  0  0
  132.2383  124.3335   62.1330 H   0  0  0  0  0  0  0  0  0  0  0  0
  132.5688  122.4074   60.7478 H   0  0  0  0  0  0  0  0  0  0  0  0
  133.4791  122.3473   62.3301 H   0  0  0  0  0  0  0  0  0  0  0  0
  134.2299  120.6079   60.6830 H   0  0  0  0  0  0  0  0  0  0  0  0
  133.6089  119.9342   62.2326 H   0  0  0  0  0  0  0  0  0  0  0  0
  130.4881  118.8944   60.7804 H   0  0  0  0  0  0  0  0  0  0  0  0
  131.4698  118.9575   62.2887 H   0  0  0  0  0  0  0  0  0  0  0  0
  130.2129  121.3284   60.8067 H   0  0  0  0  0  0  0  0  0  0  0  0
  129.7295  120.6318   62.4237 H   0  0  0  0  0  0  0  0  0  0  0  0
  129.5694  121.6913   64.2676 H   0  0  0  0  0  0  0  0  0  0  0  0
  128.6162  123.6318   65.4775 H   0  0  0  0  0  0  0  0  0  0  0  0
  129.3686  127.2325   73.1736 H   0  0  0  0  0  0  0  0  0  0  0  0
  130.6014  126.3760   75.1543 H   0  0  0  0  0  0  0  0  0  0  0  0
  1  2  1  0
  2  3  1  0
  3  4  1  0
  4  5  2  0
  4  6  1  0
  6  7  2  0
  7  8  1  0
  8  9  2  0
  9 10  1  0
 10 11  1  0
 11 12  2  0
 11 13  1  0
 13 14  1  0
 14 15  1  0
 15 16  2  0
 16 17  1  0
 17 18  1  0
 18 19  2  0
 19 20  1  0
 20 21  2  0
 21 22  1  0
 22 23  1  0
 23 24  1  0
 24 25  1  0
 25 26  1  0
 26 27  1  0
 21 28  1  0
 28 29  2  0
 17 30  2  0
 30 31  1  0
 31 32  1  0
 32 33  2  0
 33 34  1  0
 34 35  2  0
 35 36  1  0
 36 37  1  0
 37 38  1  0
 38 39  1  0
 39 40  1  0
 40 41  1  0
 35 42  1  0
 42 43  2  0
 31 44  2  0
 44 45  1  0
 45 46  3  0
  9 47  1  0
 47 48  2  0
 48  6  1  0
 44 15  1  0
 29 18  1  0
 43 32  1  0
 27 22  1  0
 41 36  1  0
  1 49  1  0
  1 50  1  0
  1 51  1  0
  2 52  1  0
  2 53  1  0
  7 54  1  0
  8 55  1  0
 10 56  1  0
 13 57  1  0
 13 58  1  0
 19 59  1  0
 20 60  1  0
 23 61  1  0
 23 62  1  0
 24 63  1  0
 24 64  1  0
 26 65  1  0
 26 66  1  0
 27 67  1  0
 27 68  1  0
 28 69  1  0
 29 70  1  0
 30 71  1  0
 33 72  1  0
 34 73  1  0
 37 74  1  0
 37 75  1  0
 38 76  1  0
 38 77  1  0
 40 78  1  0
 40 79  1  0
 41 80  1  0
 41 81  1  0
 42 82  1  0
 43 83  1  0
 47 84  1  0
 48 85  1  0
M  END
>  <Binding energies>  (1) 
[-9.69]

>  <Ligand effiencies>  (1) 
[-0.1977551020408163]

>  <Interactions>  (1) 
["H-B:HIS:456:NE2:9041, V-A:HIS:456:CD2:4068, V-B:GLU:543:CD:9880, V-B:GLU:543:CB:9878, V-A:HIS:456:CE1:4069, H-A:HIS:456:NE2:4070, V-B:HIS:456:CE1:9040, V-B:GLU:543:CG:9879, V-A:GLU:543:CD:4908, V-B:TRP:381:CH2:8343, V-B:PRO:482:CG:9298, V-B:LEU:475:CD1:9229, V-A:TYR:539:CE2:4876, V-A:ALA:541:CB:4892, V-B:ILE:369:CG2:8208, V-A:TYR:539:CD2:4874, V-B:ALA:541:CB:9864, V-B:GLU:543:CA:9876, V-A:TYR:484:CZ:4347, V-A:LEU:475:CD1:4258, V-A:GLU:543:CB:4906, V-A:TYR:484:CE1:4345, H-A:TYR:484:OH:4348, V-A:ILE:369:CG2:3237, V-A:ILE:369:CD1:3239, V-A:TRP:381:CZ2:3370, V-A:TRP:381:CH2:3372, V-A:PRO:482:CB:4326, V-B:GLY:544:C:9884, V-A:HIS:456:CG:4066, V-A:HIS:456:CB:4065, H-B:GLU:543:O:9875, V-A:VAL:458:CG2:4087, V-A:HIS:456:C:4061, V-A:LYS:471:CG:4218, V-A:LYS:471:CB:4217, V-A:LYS:471:CD:4219, V-A:ASP:473:CG:4240, V-A:LYS:471:C:4213, V-A:HIS:456:CA:4063, V-A:ASP:473:CB:4239"]

$$$$
2b_Ghoteimi_2023
     RDKit          3D

 72 77  0  0  0  0  0  0  0  0999 V2000
  130.1240  124.3690   67.9430 N   0  0  0  0  0  0  0  0  0  0  0  0
  129.7830  125.2850   67.3220 C   0  0  0  0  0  0  0  0  0  0  0  0
  129.3510  126.4400   66.5310 C   0  0  0  0  0  0  0  0  0  0  0  0
  129.2960  126.3640   65.1160 C   0  0  0  0  0  0  0  0  0  0  0  0
  129.6580  125.1440   64.3350 C   0  0  0  0  0  0  0  0  0  0  0  0
  128.9020  124.7710   63.2230 C   0  0  0  0  0  0  0  0  0  0  0  0
  129.2340  123.6330   62.4920 C   0  0  0  0  0  0  0  0  0  0  0  0
  130.3220  122.8290   62.8650 C   0  0  0  0  0  0  0  0  0  0  0  0
  130.6830  121.6910   62.1410 N   0  0  0  0  0  0  0  0  0  0  0  0
  129.6510  120.9760   61.3630 C   0  0  0  0  0  0  0  0  0  0  0  0
  130.0820  119.5580   60.9330 C   0  0  0  0  0  0  0  0  0  0  0  0
  131.3100  119.6150   60.2220 O   0  0  0  0  0  0  0  0  0  0  0  0
  132.3490  120.1700   61.0130 C   0  0  0  0  0  0  0  0  0  0  0  0
  131.9780  121.6060   61.4360 C   0  0  0  0  0  0  0  0  0  0  0  0
  131.0730  123.2100   63.9860 C   0  0  0  0  0  0  0  0  0  0  0  0
  130.7430  124.3490   64.7140 C   0  0  0  0  0  0  0  0  0  0  0  0
  128.8720  127.4930   64.4040 C   0  0  0  0  0  0  0  0  0  0  0  0
  128.4830  128.6520   65.0810 C   0  0  0  0  0  0  0  0  0  0  0  0
  127.9950  129.8740   64.3680 C   0  0  0  0  0  0  0  0  0  0  0  0
  128.2730  131.1510   64.8680 C   0  0  0  0  0  0  0  0  0  0  0  0
  127.8350  132.2920   64.2020 C   0  0  0  0  0  0  0  0  0  0  0  0
  127.0900  132.1990   63.0150 C   0  0  0  0  0  0  0  0  0  0  0  0
  126.6690  133.3370   62.3180 N   0  0  0  0  0  0  0  0  0  0  0  0
  127.6690  134.2460   61.7210 C   0  0  0  0  0  0  0  0  0  0  0  0
  127.0970  135.6280   61.3380 C   0  0  0  0  0  0  0  0  0  0  0  0
  125.9770  135.4690   60.4800 O   0  0  0  0  0  0  0  0  0  0  0  0
  124.9410  134.7340   61.1100 C   0  0  0  0  0  0  0  0  0  0  0  0
  125.4480  133.3260   61.4900 C   0  0  0  0  0  0  0  0  0  0  0  0
  126.8200  130.9180   62.5140 C   0  0  0  0  0  0  0  0  0  0  0  0
  127.2610  129.7770   63.1800 C   0  0  0  0  0  0  0  0  0  0  0  0
  128.5360  128.7230   66.4350 N   0  0  0  0  0  0  0  0  0  0  0  0
  128.9740  127.6560   67.1440 C   0  0  0  0  0  0  0  0  0  0  0  0
  128.9820  127.9250   68.9040 S   0  0  0  0  0  0  0  0  0  0  0  0
  127.7900  126.7670   69.6410 C   0  0  0  0  0  0  0  0  0  0  0  0
  128.4020  125.9670   70.7920 C   0  0  0  0  0  0  0  0  0  0  0  0
  128.3540  126.4220   71.9370 O   0  0  0  0  0  0  0  0  0  0  0  0
  128.9700  124.7910   70.4460 N   0  0  0  0  0  0  0  0  0  0  0  0
  129.5820  123.8720   71.2860 C   0  0  0  0  0  0  0  0  0  0  0  0
  130.7120  124.1720   72.0470 C   0  0  0  0  0  0  0  0  0  0  0  0
  131.0010  123.0140   72.7300 C   0  0  0  0  0  0  0  0  0  0  0  0
  130.0920  122.0660   72.3980 O   0  0  0  0  0  0  0  0  0  0  0  0
  129.1960  122.6230   71.4830 N   0  0  0  0  0  0  0  0  0  0  0  0
  128.0373  125.3804   62.9215 H   0  0  0  0  0  0  0  0  0  0  0  0
  128.6353  123.3607   61.6103 H   0  0  0  0  0  0  0  0  0  0  0  0
  128.7441  120.8929   61.9800 H   0  0  0  0  0  0  0  0  0  0  0  0
  129.4766  121.5555   60.4444 H   0  0  0  0  0  0  0  0  0  0  0  0
  130.2081  118.9295   61.8269 H   0  0  0  0  0  0  0  0  0  0  0  0
  129.3077  119.1293   60.2798 H   0  0  0  0  0  0  0  0  0  0  0  0
  132.4937  119.5513   61.9109 H   0  0  0  0  0  0  0  0  0  0  0  0
  133.2779  120.1948   60.4244 H   0  0  0  0  0  0  0  0  0  0  0  0
  132.7647  121.9876   62.1035 H   0  0  0  0  0  0  0  0  0  0  0  0
  131.8885  122.2036   60.5169 H   0  0  0  0  0  0  0  0  0  0  0  0
  131.9350  122.6001   64.2942 H   0  0  0  0  0  0  0  0  0  0  0  0
  131.3409  124.6258   65.5948 H   0  0  0  0  0  0  0  0  0  0  0  0
  128.8450  127.4673   63.3046 H   0  0  0  0  0  0  0  0  0  0  0  0
  128.8461  131.2547   65.8011 H   0  0  0  0  0  0  0  0  0  0  0  0
  128.0765  133.2836   64.6124 H   0  0  0  0  0  0  0  0  0  0  0  0
  128.4812  134.3950   62.4477 H   0  0  0  0  0  0  0  0  0  0  0  0
  128.0205  133.7735   60.7919 H   0  0  0  0  0  0  0  0  0  0  0  0
  126.7851  136.1585   62.2497 H   0  0  0  0  0  0  0  0  0  0  0  0
  127.8725  136.2077   60.8159 H   0  0  0  0  0  0  0  0  0  0  0  0
  124.6200  135.2632   62.0193 H   0  0  0  0  0  0  0  0  0  0  0  0
  124.0933  134.6372   60.4157 H   0  0  0  0  0  0  0  0  0  0  0  0
  124.6537  132.8106   62.0499 H   0  0  0  0  0  0  0  0  0  0  0  0
  125.7019  132.8123   60.5510 H   0  0  0  0  0  0  0  0  0  0  0  0
  126.2502  130.8121   61.5791 H   0  0  0  0  0  0  0  0  0  0  0  0
  127.0290  128.7846   62.7662 H   0  0  0  0  0  0  0  0  0  0  0  0
  126.9308  127.3377   70.0231 H   0  0  0  0  0  0  0  0  0  0  0  0
  127.4813  126.0559   68.8605 H   0  0  0  0  0  0  0  0  0  0  0  0
  128.9290  124.5270   69.4730 H   0  0  0  0  0  0  0  0  0  0  0  0
  131.2544  125.1279   72.0912 H   0  0  0  0  0  0  0  0  0  0  0  0
  131.8362  122.8791   73.4330 H   0  0  0  0  0  0  0  0  0  0  0  0
  1  2  3  0
  2  3  1  0
  3  4  2  0
  4  5  1  0
  5  6  2  0
  6  7  1  0
  7  8  2  0
  8  9  1  0
  9 10  1  0
 10 11  1  0
 11 12  1  0
 12 13  1  0
 13 14  1  0
  8 15  1  0
 15 16  2  0
  4 17  1  0
 17 18  2  0
 18 19  1  0
 19 20  2  0
 20 21  1  0
 21 22  2  0
 22 23  1  0
 23 24  1  0
 24 25  1  0
 25 26  1  0
 26 27  1  0
 27 28  1  0
 22 29  1  0
 29 30  2  0
 18 31  1  0
 31 32  2  0
 32 33  1  0
 33 34  1  0
 34 35  1  0
 35 36  2  0
 35 37  1  0
 37 38  1  0
 38 39  1  0
 39 40  2  0
 40 41  1  0
 41 42  1  0
 32  3  1  0
 42 38  2  0
 16  5  1  0
 30 19  1  0
 14  9  1  0
 28 23  1  0
  6 43  1  0
  7 44  1  0
 10 45  1  0
 10 46  1  0
 11 47  1  0
 11 48  1  0
 13 49  1  0
 13 50  1  0
 14 51  1  0
 14 52  1  0
 15 53  1  0
 16 54  1  0
 17 55  1  0
 20 56  1  0
 21 57  1  0
 24 58  1  0
 24 59  1  0
 25 60  1  0
 25 61  1  0
 27 62  1  0
 27 63  1  0
 28 64  1  0
 28 65  1  0
 29 66  1  0
 30 67  1  0
 34 68  1  0
 34 69  1  0
 37 70  1  0
 39 71  1  0
 40 72  1  0
M  END
>  <Binding energies>  (1) 
[-11.16]

>  <Ligand effiencies>  (1) 
[-0.25953488372093025]

>  <Interactions>  (1) 
["H-B:HIS:456:NE2:9041, V-A:HIS:456:CD2:4068, V-B:GLU:543:CD:9880, H-B:LYS:547:NZ:9923, V-B:GLU:543:C:9874, V-B:GLU:543:CB:9878, V-A:HIS:456:CE1:4069, H-A:HIS:456:NE2:4070, V-B:HIS:456:CE1:9040, V-B:GLU:543:CG:9879, V-A:GLU:543:CD:4908, V-B:TRP:381:CH2:8343, V-B:PRO:482:CG:9298, V-B:LEU:475:CD1:9229, V-B:PRO:482:CB:9297, V-A:TYR:539:CE2:4876, V-A:ALA:541:CB:4892, V-A:TYR:539:CD2:4874, V-B:ALA:541:CB:9864, V-A:TYR:484:CZ:4347, V-A:LEU:475:CD1:4258, V-A:GLU:543:CB:4906, V-A:TYR:484:CE1:4345, H-A:TYR:484:OH:4348, V-B:TRP:381:CZ2:8341, V-B:TYR:539:CD2:9846, V-A:PRO:482:CG:4327, V-A:TRP:381:CH2:3372, V-A:PRO:482:CB:4326, V-B:GLY:544:C:9884, V-A:HIS:456:CG:4066, V-A:TYR:484:CD2:4344, V-A:HIS:456:CB:4065, H-B:GLU:543:O:9875"]

$$$$
2b_Grossjean_2025
     RDKit          3D

 42 43  0  0  0  0  0  0  0  0999 V2000
  126.9670  126.6300   73.9330 C   0  0  0  0  0  0  0  0  0  0  0  0
  128.2020  125.9350   74.0360 O   0  0  0  0  0  0  0  0  0  0  0  0
  129.3050  126.3680   73.3740 C   0  0  0  0  0  0  0  0  0  0  0  0
  130.2360  126.9660   73.9230 O   0  0  0  0  0  0  0  0  0  0  0  0
  129.2790  126.0510   71.9070 C   0  0  0  0  0  0  0  0  0  0  0  0
  129.8110  124.8580   71.3960 C   0  0  0  0  0  0  0  0  0  0  0  0
  129.7720  124.5950   70.0300 C   0  0  0  0  0  0  0  0  0  0  0  0
  129.1980  125.5120   69.1490 C   0  0  0  0  0  0  0  0  0  0  0  0
  129.2170  125.1490   67.7880 N   0  0  0  0  0  0  0  0  0  0  0  0
  129.8240  125.7520   66.7440 C   0  0  0  0  0  0  0  0  0  0  0  0
  130.4800  126.7940   66.8050 O   0  0  0  0  0  0  0  0  0  0  0  0
  129.6400  125.0570   65.3920 C   0  0  0  0  0  0  0  0  0  0  0  0
  130.0290  123.2760   65.4420 S   0  0  0  0  0  0  0  0  0  0  0  0
  130.7170  122.7570   63.8760 C   0  0  0  0  0  0  0  0  0  0  0  0
  129.8740  122.0760   63.0590 N   0  0  0  0  0  0  0  0  0  0  0  0
  130.3290  121.6480   61.8600 C   0  0  0  0  0  0  0  0  0  0  0  0
  129.3300  120.8840   61.0130 C   0  0  0  0  0  0  0  0  0  0  0  0
  131.6290  121.8850   61.4220 C   0  0  0  0  0  0  0  0  0  0  0  0
  132.5160  122.5940   62.2470 C   0  0  0  0  0  0  0  0  0  0  0  0
  133.9490  122.8520   61.7450 C   0  0  0  0  0  0  0  0  0  0  0  0
  134.8020  122.0340   62.3630 F   0  0  0  0  0  0  0  0  0  0  0  0
  134.0200  122.6370   60.4300 F   0  0  0  0  0  0  0  0  0  0  0  0
  134.3580  124.1020   61.9690 F   0  0  0  0  0  0  0  0  0  0  0  0
  132.0540  123.0430   63.5100 C   0  0  0  0  0  0  0  0  0  0  0  0
  132.9390  123.7830   64.4150 C   0  0  0  0  0  0  0  0  0  0  0  0
  133.6380  124.3670   65.1280 N   0  0  0  0  0  0  0  0  0  0  0  0
  128.6710  126.7110   69.6510 C   0  0  0  0  0  0  0  0  0  0  0  0
  128.7110  126.9730   71.0170 C   0  0  0  0  0  0  0  0  0  0  0  0
  126.5828  126.8462   74.9408 H   0  0  0  0  0  0  0  0  0  0  0  0
  127.1215  127.5736   73.3892 H   0  0  0  0  0  0  0  0  0  0  0  0
  126.2406  126.0082   73.3892 H   0  0  0  0  0  0  0  0  0  0  0  0
  130.2625  124.1246   72.0803 H   0  0  0  0  0  0  0  0  0  0  0  0
  130.1968  123.6574   69.6421 H   0  0  0  0  0  0  0  0  0  0  0  0
  128.6510  124.3440   67.5670 H   0  0  0  0  0  0  0  0  0  0  0  0
  128.5932  125.1776   65.0763 H   0  0  0  0  0  0  0  0  0  0  0  0
  130.3409  125.5253   64.6853 H   0  0  0  0  0  0  0  0  0  0  0  0
  128.6282  120.3473   61.6684 H   0  0  0  0  0  0  0  0  0  0  0  0
  128.7729  121.5886   60.3781 H   0  0  0  0  0  0  0  0  0  0  0  0
  129.8641  120.1618   60.3781 H   0  0  0  0  0  0  0  0  0  0  0  0
  131.9582  121.5198   60.4380 H   0  0  0  0  0  0  0  0  0  0  0  0
  128.2254  127.4453   68.9638 H   0  0  0  0  0  0  0  0  0  0  0  0
  128.2922  127.9142   71.4027 H   0  0  0  0  0  0  0  0  0  0  0  0
  1  2  1  0
  2  3  1  0
  3  4  2  0
  3  5  1  0
  5  6  2  0
  6  7  1  0
  7  8  2  0
  8  9  1  0
  9 10  1  0
 10 11  2  0
 10 12  1  0
 12 13  1  0
 13 14  1  0
 14 15  2  0
 15 16  1  0
 16 17  1  0
 16 18  2  0
 18 19  1  0
 19 20  1  0
 20 21  1  0
 20 22  1  0
 20 23  1  0
 19 24  2  0
 24 25  1  0
 25 26  3  0
  8 27  1  0
 27 28  2  0
 28  5  1  0
 24 14  1  0
  1 29  1  0
  1 30  1  0
  1 31  1  0
  6 32  1  0
  7 33  1  0
  9 34  1  0
 12 35  1  0
 12 36  1  0
 17 37  1  0
 17 38  1  0
 17 39  1  0
 18 40  1  0
 27 41  1  0
 28 42  1  0
M  END
>  <Binding energies>  (1) 
[-7.51]

>  <Ligand effiencies>  (1) 
[-0.2589655172413793]

>  <Interactions>  (1) 
["V-A:HIS:456:CD2:4068, H-B:LYS:547:NZ:9923, V-B:GLU:543:C:9874, H-A:LYS:547:NZ:4951, V-B:GLU:543:CB:9878, V-A:HIS:456:CE1:4069, H-A:HIS:456:NE2:4070, V-B:HIS:456:CE1:9040, V-B:GLU:543:CG:9879, V-B:ALA:541:CB:9864, V-B:GLU:543:CA:9876, V-A:TYR:484:CZ:4347, V-A:LEU:475:CD1:4258, V-A:TYR:484:CE1:4345, H-A:GLY:454:N:4050, H-A:TYR:484:OH:4348, V-A:GLY:453:C:4042, V-A:GLY:454:CA:4049, V-A:ASP:366:CG:3213, V-A:ILE:369:CB:3236, V-A:ILE:369:CG2:3237, V-A:ILE:369:CD1:3239, V-B:TYR:539:CD2:9846, V-B:ALA:541:CA:9862, V-A:HIS:456:CG:4066, V-B:LYS:547:CD:9921, H-B:GLU:543:O:9875, V-B:LYS:547:CE:9922"]

$$$$
2c_Ghoteimi_2023
     RDKit          3D

 72 77  0  0  0  0  0  0  0  0999 V2000
  130.1290  124.3790   68.0610 N   0  0  0  0  0  0  0  0  0  0  0  0
  129.8060  125.2920   67.4280 C   0  0  0  0  0  0  0  0  0  0  0  0
  129.3970  126.4450   66.6200 C   0  0  0  0  0  0  0  0  0  0  0  0
  129.3660  126.3600   65.2060 C   0  0  0  0  0  0  0  0  0  0  0  0
  129.7370  125.1350   64.4370 C   0  0  0  0  0  0  0  0  0  0  0  0
  128.9960  124.7580   63.3150 C   0  0  0  0  0  0  0  0  0  0  0  0
  129.3390  123.6190   62.5910 C   0  0  0  0  0  0  0  0  0  0  0  0
  130.4240  122.8170   62.9770 C   0  0  0  0  0  0  0  0  0  0  0  0
  130.7980  121.6820   62.2530 N   0  0  0  0  0  0  0  0  0  0  0  0
  129.7800  120.9630   61.4610 C   0  0  0  0  0  0  0  0  0  0  0  0
  130.2240  119.5450   61.0410 C   0  0  0  0  0  0  0  0  0  0  0  0
  131.4580  119.6090   60.3430 O   0  0  0  0  0  0  0  0  0  0  0  0
  132.4870  120.1700   61.1440 C   0  0  0  0  0  0  0  0  0  0  0  0
  132.1020  121.6030   61.5670 C   0  0  0  0  0  0  0  0  0  0  0  0
  131.1590  123.2020   64.1070 C   0  0  0  0  0  0  0  0  0  0  0  0
  130.8180  124.3410   64.8290 C   0  0  0  0  0  0  0  0  0  0  0  0
  128.9640  127.4890   64.4800 C   0  0  0  0  0  0  0  0  0  0  0  0
  128.5780  128.6580   65.1430 C   0  0  0  0  0  0  0  0  0  0  0  0
  128.1250  129.8820   64.4140 C   0  0  0  0  0  0  0  0  0  0  0  0
  127.5220  129.7830   63.1560 C   0  0  0  0  0  0  0  0  0  0  0  0
  127.0930  130.9190   62.4750 C   0  0  0  0  0  0  0  0  0  0  0  0
  127.2620  132.2010   63.0230 C   0  0  0  0  0  0  0  0  0  0  0  0
  126.8150  133.3500   62.3630 N   0  0  0  0  0  0  0  0  0  0  0  0
  127.7830  134.2280   61.6760 C   0  0  0  0  0  0  0  0  0  0  0  0
  127.2200  135.6240   61.3360 C   0  0  0  0  0  0  0  0  0  0  0  0
  126.0290  135.4970   60.5780 O   0  0  0  0  0  0  0  0  0  0  0  0
  125.0290  134.7910   61.2950 C   0  0  0  0  0  0  0  0  0  0  0  0
  125.5260  133.3710   61.6400 C   0  0  0  0  0  0  0  0  0  0  0  0
  127.8560  132.2940   64.2900 C   0  0  0  0  0  0  0  0  0  0  0  0
  128.2830  131.1570   64.9710 C   0  0  0  0  0  0  0  0  0  0  0  0
  128.6070  128.7350   66.4980 N   0  0  0  0  0  0  0  0  0  0  0  0
  129.0220  127.6680   67.2210 C   0  0  0  0  0  0  0  0  0  0  0  0
  129.0060  127.9490   68.9770 S   0  0  0  0  0  0  0  0  0  0  0  0
  128.0980  126.5720   69.7420 C   0  0  0  0  0  0  0  0  0  0  0  0
  128.8540  125.9750   70.9300 C   0  0  0  0  0  0  0  0  0  0  0  0
  129.0570  126.6700   71.9270 O   0  0  0  0  0  0  0  0  0  0  0  0
  129.2550  124.6940   70.7820 N   0  0  0  0  0  0  0  0  0  0  0  0
  129.9380  123.9260   71.7140 C   0  0  0  0  0  0  0  0  0  0  0  0
  129.9700  122.6150   71.8110 N   0  0  0  0  0  0  0  0  0  0  0  0
  130.7280  122.2220   72.8150 C   0  0  0  0  0  0  0  0  0  0  0  0
  131.3320  123.2300   73.5610 C   0  0  0  0  0  0  0  0  0  0  0  0
  130.8760  124.7720   72.9020 S   0  0  0  0  0  0  0  0  0  0  0  0
  128.1346  125.3655   63.0006 H   0  0  0  0  0  0  0  0  0  0  0  0
  128.7507  123.3438   61.7032 H   0  0  0  0  0  0  0  0  0  0  0  0
  128.8640  120.8780   62.0642 H   0  0  0  0  0  0  0  0  0  0  0  0
  129.6163  121.5402   60.5390 H   0  0  0  0  0  0  0  0  0  0  0  0
  130.3452  118.9206   61.9384 H   0  0  0  0  0  0  0  0  0  0  0  0
  129.4592  119.1077   60.3824 H   0  0  0  0  0  0  0  0  0  0  0  0
  132.6288  119.5505   62.0418 H   0  0  0  0  0  0  0  0  0  0  0  0
  133.4205  120.2027   60.5631 H   0  0  0  0  0  0  0  0  0  0  0  0
  132.8773  121.9858   62.2470 H   0  0  0  0  0  0  0  0  0  0  0  0
  132.0218  122.2020   60.6479 H   0  0  0  0  0  0  0  0  0  0  0  0
  132.0181  122.5944   64.4274 H   0  0  0  0  0  0  0  0  0  0  0  0
  131.4048  124.6193   65.7168 H   0  0  0  0  0  0  0  0  0  0  0  0
  128.9520  127.4554   63.3806 H   0  0  0  0  0  0  0  0  0  0  0  0
  127.3846  128.7925   62.6976 H   0  0  0  0  0  0  0  0  0  0  0  0
  126.6135  130.8106   61.4910 H   0  0  0  0  0  0  0  0  0  0  0  0
  128.6595  134.3562   62.3281 H   0  0  0  0  0  0  0  0  0  0  0  0
  128.0375  133.7425   60.7223 H   0  0  0  0  0  0  0  0  0  0  0  0
  127.0020  136.1654   62.2684 H   0  0  0  0  0  0  0  0  0  0  0  0
  127.9647  136.1790   60.7466 H   0  0  0  0  0  0  0  0  0  0  0  0
  124.7980  135.3315   62.2248 H   0  0  0  0  0  0  0  0  0  0  0  0
  124.1256  134.7147   60.6720 H   0  0  0  0  0  0  0  0  0  0  0  0
  124.7677  132.8812   62.2685 H   0  0  0  0  0  0  0  0  0  0  0  0
  125.6847  132.8463   60.6863 H   0  0  0  0  0  0  0  0  0  0  0  0
  127.9869  133.2827   64.7540 H   0  0  0  0  0  0  0  0  0  0  0  0
  128.7512  131.2619   65.9608 H   0  0  0  0  0  0  0  0  0  0  0  0
  127.1224  126.9409   70.0914 H   0  0  0  0  0  0  0  0  0  0  0  0
  127.9781  125.7828   68.9851 H   0  0  0  0  0  0  0  0  0  0  0  0
  129.0180  124.2280   69.9180 H   0  0  0  0  0  0  0  0  0  0  0  0
  130.8750  121.1575   73.0501 H   0  0  0  0  0  0  0  0  0  0  0  0
  131.9915  123.0755   74.4277 H   0  0  0  0  0  0  0  0  0  0  0  0
  1  2  3  0
  2  3  1  0
  3  4  2  0
  4  5  1  0
  5  6  2  0
  6  7  1  0
  7  8  2  0
  8  9  1  0
  9 10  1  0
 10 11  1  0
 11 12  1  0
 12 13  1  0
 13 14  1  0
  8 15  1  0
 15 16  2  0
  4 17  1  0
 17 18  2  0
 18 19  1  0
 19 20  2  0
 20 21  1  0
 21 22  2  0
 22 23  1  0
 23 24  1  0
 24 25  1  0
 25 26  1  0
 26 27  1  0
 27 28  1  0
 22 29  1  0
 29 30  2  0
 18 31  1  0
 31 32  2  0
 32 33  1  0
 33 34  1  0
 34 35  1  0
 35 36  2  0
 35 37  1  0
 37 38  1  0
 38 39  2  0
 39 40  1  0
 40 41  2  0
 41 42  1  0
 32  3  1  0
 42 38  1  0
 16  5  1  0
 30 19  1  0
 14  9  1  0
 28 23  1  0
  6 43  1  0
  7 44  1  0
 10 45  1  0
 10 46  1  0
 11 47  1  0
 11 48  1  0
 13 49  1  0
 13 50  1  0
 14 51  1  0
 14 52  1  0
 15 53  1  0
 16 54  1  0
 17 55  1  0
 20 56  1  0
 21 57  1  0
 24 58  1  0
 24 59  1  0
 25 60  1  0
 25 61  1  0
 27 62  1  0
 27 63  1  0
 28 64  1  0
 28 65  1  0
 29 66  1  0
 30 67  1  0
 34 68  1  0
 34 69  1  0
 37 70  1  0
 40 71  1  0
 41 72  1  0
M  END
>  <Binding energies>  (1) 
[-10.63]

>  <Ligand effiencies>  (1) 
[-0.24720930232558141]

>  <Interactions>  (1) 
["H-B:HIS:456:NE2:9041, V-A:HIS:456:CD2:4068, V-B:GLU:543:CD:9880, H-B:LYS:547:NZ:9923, V-A:HIS:456:CE1:4069, H-A:HIS:456:NE2:4070, V-B:HIS:456:CE1:9040, V-B:GLU:543:CG:9879, V-A:GLU:543:CD:4908, V-B:TRP:381:CH2:8343, V-B:PRO:482:CG:9298, V-B:LEU:475:CD1:9229, V-B:PRO:482:CB:9297, V-A:TYR:539:CE2:4876, V-A:ALA:541:CB:4892, V-A:TYR:539:CD2:4874, V-B:ALA:541:CB:9864, V-A:TYR:484:CZ:4347, V-A:LEU:475:CD1:4258, V-A:GLU:543:CB:4906, V-A:TYR:484:CE1:4345, H-A:TYR:484:OH:4348, V-B:TRP:381:CZ2:8341, V-B:TYR:484:CE1:9316, V-B:TYR:539:CD2:9846, V-A:PRO:482:CG:4327, V-A:TRP:381:CH2:3372, V-A:PRO:482:CB:4326, V-A:HIS:456:CG:4066, V-A:TYR:484:CD2:4344, V-A:HIS:456:CB:4065, V-A:TYR:484:CG:4342, H-B:GLU:543:O:9875, V-A:ASP:473:CB:4239, V-A:TYR:484:CB:4341"]

$$$$
2c_Grossjean_2025
     RDKit          3D

 40 41  0  0  0  0  0  0  0  0999 V2000
  127.1640  126.9880   73.5020 C   0  0  0  0  0  0  0  0  0  0  0  0
  128.2210  126.0530   73.3170 O   0  0  0  0  0  0  0  0  0  0  0  0
  128.6370  125.7500   72.0350 C   0  0  0  0  0  0  0  0  0  0  0  0
  128.2230  126.6190   71.0250 C   0  0  0  0  0  0  0  0  0  0  0  0
  128.5900  126.3960   69.7010 C   0  0  0  0  0  0  0  0  0  0  0  0
  129.3750  125.2810   69.3700 C   0  0  0  0  0  0  0  0  0  0  0  0
  129.8100  124.9840   68.0660 N   0  0  0  0  0  0  0  0  0  0  0  0
  129.3430  125.4630   66.8920 C   0  0  0  0  0  0  0  0  0  0  0  0
  128.3850  126.2290   66.7790 O   0  0  0  0  0  0  0  0  0  0  0  0
  130.0790  124.9480   65.6460 C   0  0  0  0  0  0  0  0  0  0  0  0
  129.9440  123.1510   65.3400 S   0  0  0  0  0  0  0  0  0  0  0  0
  130.6550  122.7650   63.7450 C   0  0  0  0  0  0  0  0  0  0  0  0
  129.8340  122.1190   62.8770 N   0  0  0  0  0  0  0  0  0  0  0  0
  130.3070  121.7860   61.6560 C   0  0  0  0  0  0  0  0  0  0  0  0
  129.3360  121.0520   60.7520 C   0  0  0  0  0  0  0  0  0  0  0  0
  131.6030  122.0880   61.2450 C   0  0  0  0  0  0  0  0  0  0  0  0
  132.4650  122.7610   62.1210 C   0  0  0  0  0  0  0  0  0  0  0  0
  133.8960  123.0890   61.6510 C   0  0  0  0  0  0  0  0  0  0  0  0
  133.9850  122.9460   60.3280 F   0  0  0  0  0  0  0  0  0  0  0  0
  134.2070  124.3450   61.9730 F   0  0  0  0  0  0  0  0  0  0  0  0
  134.8150  122.2930   62.2030 F   0  0  0  0  0  0  0  0  0  0  0  0
  131.9840  123.1120   63.4080 C   0  0  0  0  0  0  0  0  0  0  0  0
  132.8430  123.8150   64.3670 C   0  0  0  0  0  0  0  0  0  0  0  0
  133.5210  124.3700   65.1230 N   0  0  0  0  0  0  0  0  0  0  0  0
  129.8050  124.4180   70.3790 C   0  0  0  0  0  0  0  0  0  0  0  0
  129.4360  124.6450   71.7020 C   0  0  0  0  0  0  0  0  0  0  0  0
  126.9927  127.1396   74.5780 H   0  0  0  0  0  0  0  0  0  0  0  0
  127.4363  127.9463   73.0355 H   0  0  0  0  0  0  0  0  0  0  0  0
  126.2461  126.6008   73.0355 H   0  0  0  0  0  0  0  0  0  0  0  0
  127.6000  127.4896   71.2777 H   0  0  0  0  0  0  0  0  0  0  0  0
  128.2649  127.0933   68.9148 H   0  0  0  0  0  0  0  0  0  0  0  0
  130.5240  124.2720   68.0110 H   0  0  0  0  0  0  0  0  0  0  0  0
  129.6704  125.4728   64.7698 H   0  0  0  0  0  0  0  0  0  0  0  0
  131.1467  125.1453   65.8224 H   0  0  0  0  0  0  0  0  0  0  0  0
  128.6079  120.5016   61.3660 H   0  0  0  0  0  0  0  0  0  0  0  0
  128.8062  121.7774   60.1171 H   0  0  0  0  0  0  0  0  0  0  0  0
  129.8894  120.3445   60.1171 H   0  0  0  0  0  0  0  0  0  0  0  0
  131.9472  121.8004   60.2406 H   0  0  0  0  0  0  0  0  0  0  0  0
  130.4384  123.5545   70.1277 H   0  0  0  0  0  0  0  0  0  0  0  0
  129.7722  123.9552   72.4901 H   0  0  0  0  0  0  0  0  0  0  0  0
  1  2  1  0
  2  3  1  0
  3  4  2  0
  4  5  1  0
  5  6  2  0
  6  7  1  0
  7  8  1  0
  8  9  2  0
  8 10  1  0
 10 11  1  0
 11 12  1  0
 12 13  2  0
 13 14  1  0
 14 15  1  0
 14 16  2  0
 16 17  1  0
 17 18  1  0
 18 19  1  0
 18 20  1  0
 18 21  1  0
 17 22  2  0
 22 23  1  0
 23 24  3  0
  6 25  1  0
 25 26  2  0
 26  3  1  0
 22 12  1  0
  1 27  1  0
  1 28  1  0
  1 29  1  0
  4 30  1  0
  5 31  1  0
  7 32  1  0
 10 33  1  0
 10 34  1  0
 15 35  1  0
 15 36  1  0
 15 37  1  0
 16 38  1  0
 25 39  1  0
 26 40  1  0
M  END
>  <Binding energies>  (1) 
[-7.08]

>  <Ligand effiencies>  (1) 
[-0.26222222222222225]

>  <Interactions>  (1) 
["V-A:HIS:456:CD2:4068, H-B:LYS:547:NZ:9923, V-B:GLU:543:C:9874, V-B:GLU:543:CB:9878, V-A:HIS:456:CE1:4069, V-B:HIS:456:CE1:9040, V-B:ALA:541:CB:9864, V-A:TYR:484:CZ:4347, V-A:LEU:475:CD1:4258, V-A:TYR:484:CE1:4345, H-A:GLY:454:N:4050, H-A:TYR:484:OH:4348, V-A:GLY:453:C:4042, V-A:GLY:454:CA:4049, V-A:ASP:366:CG:3213, V-B:TYR:539:CE2:9848, V-A:ILE:369:CB:3236, V-A:ILE:369:CG2:3237, V-A:ILE:369:CD1:3239, V-B:TYR:539:CD2:9846, V-A:HIS:456:CG:4066, H-B:GLU:543:O:9875, H-A:HIS:456:ND1:4067"]

$$$$
2d_Ghoteimi_2023
     RDKit          3D

 68 72  0  0  0  0  0  0  0  0999 V2000
  124.6420  130.3780   63.1940 C   0  0  0  0  0  0  0  0  0  0  0  0
  123.8090  130.5150   64.3350 O   0  0  0  0  0  0  0  0  0  0  0  0
  124.1850  129.9990   65.5240 C   0  0  0  0  0  0  0  0  0  0  0  0
  123.7280  130.3250   66.6230 O   0  0  0  0  0  0  0  0  0  0  0  0
  125.2700  128.9250   65.3480 C   0  0  0  0  0  0  0  0  0  0  0  0
  126.8810  129.5050   65.9800 S   0  0  0  0  0  0  0  0  0  0  0  0
  127.8670  128.0790   66.3920 C   0  0  0  0  0  0  0  0  0  0  0  0
  127.9880  127.8810   67.7280 N   0  0  0  0  0  0  0  0  0  0  0  0
  128.7180  126.8340   68.1870 C   0  0  0  0  0  0  0  0  0  0  0  0
  128.8210  126.6890   69.6710 C   0  0  0  0  0  0  0  0  0  0  0  0
  129.3050  127.7410   70.4570 C   0  0  0  0  0  0  0  0  0  0  0  0
  129.4040  127.6130   71.8400 C   0  0  0  0  0  0  0  0  0  0  0  0
  129.0120  126.4320   72.4880 C   0  0  0  0  0  0  0  0  0  0  0  0
  129.1220  126.2810   73.8750 N   0  0  0  0  0  0  0  0  0  0  0  0
  130.4340  126.1290   74.5340 C   0  0  0  0  0  0  0  0  0  0  0  0
  130.3420  125.6070   75.9830 C   0  0  0  0  0  0  0  0  0  0  0  0
  129.4880  126.4450   76.7460 O   0  0  0  0  0  0  0  0  0  0  0  0
  128.1750  126.4750   76.2110 C   0  0  0  0  0  0  0  0  0  0  0  0
  128.2020  127.0170   74.7660 C   0  0  0  0  0  0  0  0  0  0  0  0
  128.5410  125.3760   71.6950 C   0  0  0  0  0  0  0  0  0  0  0  0
  128.4440  125.5030   70.3120 C   0  0  0  0  0  0  0  0  0  0  0  0
  129.3460  125.9510   67.3040 C   0  0  0  0  0  0  0  0  0  0  0  0
  129.2090  126.1140   65.9200 C   0  0  0  0  0  0  0  0  0  0  0  0
  129.8850  125.1160   65.0370 C   0  0  0  0  0  0  0  0  0  0  0  0
  130.9560  125.5030   64.2310 C   0  0  0  0  0  0  0  0  0  0  0  0
  131.6010  124.5790   63.4140 C   0  0  0  0  0  0  0  0  0  0  0  0
  131.1880  123.2370   63.3790 C   0  0  0  0  0  0  0  0  0  0  0  0
  131.8280  122.2890   62.5760 N   0  0  0  0  0  0  0  0  0  0  0  0
  133.2290  122.4660   62.1450 C   0  0  0  0  0  0  0  0  0  0  0  0
  133.8670  121.1770   61.5830 C   0  0  0  0  0  0  0  0  0  0  0  0
  133.0720  120.6620   60.5260 O   0  0  0  0  0  0  0  0  0  0  0  0
  131.7580  120.3500   60.9630 C   0  0  0  0  0  0  0  0  0  0  0  0
  131.0650  121.6180   61.5060 C   0  0  0  0  0  0  0  0  0  0  0  0
  130.1230  122.8530   64.2050 C   0  0  0  0  0  0  0  0  0  0  0  0
  129.4800  123.7780   65.0230 C   0  0  0  0  0  0  0  0  0  0  0  0
  128.4430  127.2060   65.4420 C   0  0  0  0  0  0  0  0  0  0  0  0
  128.2540  127.4080   64.0020 C   0  0  0  0  0  0  0  0  0  0  0  0
  128.1080  127.5630   62.8640 N   0  0  0  0  0  0  0  0  0  0  0  0
  125.6798  130.2073   63.5161 H   0  0  0  0  0  0  0  0  0  0  0  0
  124.3001  129.5240   62.5908 H   0  0  0  0  0  0  0  0  0  0  0  0
  124.5916  131.2965   62.5908 H   0  0  0  0  0  0  0  0  0  0  0  0
  124.9727  128.0208   65.8994 H   0  0  0  0  0  0  0  0  0  0  0  0
  125.3745  128.7079   64.2747 H   0  0  0  0  0  0  0  0  0  0  0  0
  129.6113  128.6815   69.9758 H   0  0  0  0  0  0  0  0  0  0  0  0
  129.7960  128.4516   72.4342 H   0  0  0  0  0  0  0  0  0  0  0  0
  131.0377  125.4210   73.9472 H   0  0  0  0  0  0  0  0  0  0  0  0
  130.8889  127.1294   74.5804 H   0  0  0  0  0  0  0  0  0  0  0  0
  129.9383  124.5838   75.9769 H   0  0  0  0  0  0  0  0  0  0  0  0
  131.3460  125.6085   76.4324 H   0  0  0  0  0  0  0  0  0  0  0  0
  127.7596  125.4565   76.2096 H   0  0  0  0  0  0  0  0  0  0  0  0
  127.5493  127.1342   76.8306 H   0  0  0  0  0  0  0  0  0  0  0  0
  127.1860  126.9485   74.3499 H   0  0  0  0  0  0  0  0  0  0  0  0
  128.5642  128.0544   74.8175 H   0  0  0  0  0  0  0  0  0  0  0  0
  128.2431  124.4314   72.1736 H   0  0  0  0  0  0  0  0  0  0  0  0
  128.0660  124.6600   69.7149 H   0  0  0  0  0  0  0  0  0  0  0  0
  129.9520  125.1223   67.6990 H   0  0  0  0  0  0  0  0  0  0  0  0
  131.2943  126.5496   64.2413 H   0  0  0  0  0  0  0  0  0  0  0  0
  132.4449  124.9039   62.7878 H   0  0  0  0  0  0  0  0  0  0  0  0
  133.2578  123.2387   61.3626 H   0  0  0  0  0  0  0  0  0  0  0  0
  133.8081  122.7526   63.0352 H   0  0  0  0  0  0  0  0  0  0  0  0
  134.8741  121.4047   61.2036 H   0  0  0  0  0  0  0  0  0  0  0  0
  133.9308  120.4268   62.3849 H   0  0  0  0  0  0  0  0  0  0  0  0
  131.1780  119.9522   60.1172 H   0  0  0  0  0  0  0  0  0  0  0  0
  131.8138  119.5987   61.7645 H   0  0  0  0  0  0  0  0  0  0  0  0
  130.9328  122.3264   60.6749 H   0  0  0  0  0  0  0  0  0  0  0  0
  130.1045  121.3031   61.9399 H   0  0  0  0  0  0  0  0  0  0  0  0
  129.7900  121.8046   64.2071 H   0  0  0  0  0  0  0  0  0  0  0  0
  128.6466  123.4535   65.6634 H   0  0  0  0  0  0  0  0  0  0  0  0
  1  2  1  0
  2  3  1  0
  3  4  2  0
  3  5  1  0
  5  6  1  0
  6  7  1  0
  7  8  2  0
  8  9  1  0
  9 10  1  0
 10 11  2  0
 11 12  1  0
 12 13  2  0
 13 14  1  0
 14 15  1  0
 15 16  1  0
 16 17  1  0
 17 18  1  0
 18 19  1  0
 13 20  1  0
 20 21  2  0
  9 22  2  0
 22 23  1  0
 23 24  1  0
 24 25  2  0
 25 26  1  0
 26 27  2  0
 27 28  1  0
 28 29  1  0
 29 30  1  0
 30 31  1  0
 31 32  1  0
 32 33  1  0
 27 34  1  0
 34 35  2  0
 23 36  2  0
 36 37  1  0
 37 38  3  0
 36  7  1  0
 21 10  1  0
 35 24  1  0
 19 14  1  0
 33 28  1  0
  1 39  1  0
  1 40  1  0
  1 41  1  0
  5 42  1  0
  5 43  1  0
 11 44  1  0
 12 45  1  0
 15 46  1  0
 15 47  1  0
 16 48  1  0
 16 49  1  0
 18 50  1  0
 18 51  1  0
 19 52  1  0
 19 53  1  0
 20 54  1  0
 21 55  1  0
 22 56  1  0
 25 57  1  0
 26 58  1  0
 29 59  1  0
 29 60  1  0
 30 61  1  0
 30 62  1  0
 32 63  1  0
 32 64  1  0
 33 65  1  0
 33 66  1  0
 34 67  1  0
 35 68  1  0
M  END
>  <Binding energies>  (1) 
[-8.92]

>  <Ligand effiencies>  (1) 
[-0.23473684210526316]

>  <Interactions>  (1) 
["V-A:HIS:456:CD2:4068, V-B:GLU:543:CD:9880, V-B:GLU:543:C:9874, V-B:GLU:543:CB:9878, V-A:HIS:456:CE1:4069, V-B:ARG:545:CZ:9898, V-B:ARG:545:CD:9895, V-B:HIS:456:CE1:9040, V-B:GLU:543:CG:9879, H-B:GLY:454:N:9021, V-B:GLY:454:CA:9020, H-B:ILE:455:N:9026, H-B:TYR:484:OH:9319, H-B:ARG:545:NH2:9900, V-B:ALA:541:CB:9864, V-B:GLU:543:CA:9876, V-A:LEU:475:CD1:4258, V-A:TYR:484:CE1:4345, V-A:GLY:454:CA:4049, V-A:ILE:369:CG2:3237, V-A:ILE:369:CD1:3239, V-B:TYR:539:CD2:9846, V-A:TRP:381:CH2:3372, V-B:GLY:544:C:9884"]

$$$$
2d_Grossjean_2025
     RDKit          3D

 36 37  0  0  0  0  0  0  0  0999 V2000
  130.8210  125.4950   66.1500 C   0  0  0  0  0  0  0  0  0  0  0  0
  129.5380  126.2780   66.3550 C   0  0  0  0  0  0  0  0  0  0  0  0
  129.0920  127.2050   65.4150 C   0  0  0  0  0  0  0  0  0  0  0  0
  127.8970  127.9010   65.6470 C   0  0  0  0  0  0  0  0  0  0  0  0
  127.4140  128.9150   64.5920 C   0  0  0  0  0  0  0  0  0  0  0  0
  127.5950  130.1580   65.0370 F   0  0  0  0  0  0  0  0  0  0  0  0
  128.1010  128.7580   63.4590 F   0  0  0  0  0  0  0  0  0  0  0  0
  126.1190  128.7780   64.2980 F   0  0  0  0  0  0  0  0  0  0  0  0
  127.1810  127.6410   66.8440 C   0  0  0  0  0  0  0  0  0  0  0  0
  125.9040  128.3070   67.1110 C   0  0  0  0  0  0  0  0  0  0  0  0
  124.8950  128.8330   67.3210 N   0  0  0  0  0  0  0  0  0  0  0  0
  127.7240  126.7010   67.7520 C   0  0  0  0  0  0  0  0  0  0  0  0
  126.9740  126.2780   69.3130 S   0  0  0  0  0  0  0  0  0  0  0  0
  128.2950  125.9400   70.5240 C   0  0  0  0  0  0  0  0  0  0  0  0
  127.8910  126.2830   71.9610 C   0  0  0  0  0  0  0  0  0  0  0  0
  128.5850  125.8710   72.8920 O   0  0  0  0  0  0  0  0  0  0  0  0
  126.7580  127.0040   72.0930 N   0  0  0  0  0  0  0  0  0  0  0  0
  126.1350  127.4740   73.2650 C   0  0  0  0  0  0  0  0  0  0  0  0
  126.8910  128.3460   74.0530 C   0  0  0  0  0  0  0  0  0  0  0  0
  126.3630  128.8600   75.2340 C   0  0  0  0  0  0  0  0  0  0  0  0
  125.0790  128.4940   75.6330 C   0  0  0  0  0  0  0  0  0  0  0  0
  124.3220  127.6160   74.8630 C   0  0  0  0  0  0  0  0  0  0  0  0
  124.8460  127.1010   73.6810 C   0  0  0  0  0  0  0  0  0  0  0  0
  128.8700  126.0210   67.5020 N   0  0  0  0  0  0  0  0  0  0  0  0
  131.2507  125.2327   67.1280 H   0  0  0  0  0  0  0  0  0  0  0  0
  130.6034  124.5756   65.5867 H   0  0  0  0  0  0  0  0  0  0  0  0
  131.5392  126.1089   65.5867 H   0  0  0  0  0  0  0  0  0  0  0  0
  129.6724  127.3892   64.4989 H   0  0  0  0  0  0  0  0  0  0  0  0
  128.5486  124.8707   70.4769 H   0  0  0  0  0  0  0  0  0  0  0  0
  129.1526  126.5771   70.2621 H   0  0  0  0  0  0  0  0  0  0  0  0
  126.2460  127.1930   71.2440 H   0  0  0  0  0  0  0  0  0  0  0  0
  127.9070  128.6272   73.7389 H   0  0  0  0  0  0  0  0  0  0  0  0
  126.9566  129.5519   75.8495 H   0  0  0  0  0  0  0  0  0  0  0  0
  124.6602  128.9025   76.5645 H   0  0  0  0  0  0  0  0  0  0  0  0
  123.3110  127.3295   75.1882 H   0  0  0  0  0  0  0  0  0  0  0  0
  124.2517  126.4028   73.0733 H   0  0  0  0  0  0  0  0  0  0  0  0
  1  2  1  0
  2  3  2  0
  3  4  1  0
  4  5  1  0
  5  6  1  0
  5  7  1  0
  5  8  1  0
  4  9  2  0
  9 10  1  0
 10 11  3  0
  9 12  1  0
 12 13  1  0
 13 14  1  0
 14 15  1  0
 15 16  2  0
 15 17  1  0
 17 18  1  0
 18 19  2  0
 19 20  1  0
 20 21  2  0
 21 22  1  0
 22 23  2  0
 12 24  2  0
 24  2  1  0
 23 18  1  0
  1 25  1  0
  1 26  1  0
  1 27  1  0
  3 28  1  0
 14 29  1  0
 14 30  1  0
 17 31  1  0
 19 32  1  0
 20 33  1  0
 21 34  1  0
 22 35  1  0
 23 36  1  0
M  END
>  <Binding energies>  (1) 
[-6.57]

>  <Ligand effiencies>  (1) 
[-0.26280000000000003]

>  <Interactions>  (1) 
["V-B:ARG:545:CG:9894, V-B:GLU:543:CD:9880, H-B:LYS:547:NZ:9923, V-B:HIS:456:CD2:9039, V-B:GLU:543:CB:9878, V-A:HIS:456:CE1:4069, V-B:ARG:545:CZ:9898, V-B:HIS:456:CE1:9040, V-A:GLU:543:CD:4908, H-B:TYR:484:OH:9319, H-B:ARG:545:NE:9896, H-B:HIS:456:ND1:9038, V-A:GLU:543:CB:4906, V-B:GLY:544:C:9884, H-B:ARG:545:N:9892, V-B:HIS:456:CB:9036, V-B:HIS:456:C:9032, V-B:ARG:545:C:9889, V-B:VAL:458:CG2:9058, V-B:VAL:457:C:9044, V-B:HIS:456:CG:9037, H-B:GLY:544:O:9885"]

$$$$
2e_Grossjean_2025
     RDKit          3D

 38 39  0  0  0  0  0  0  0  0999 V2000
  123.1110  133.7580   62.4800 C   0  0  0  0  0  0  0  0  0  0  0  0
  123.6700  132.3660   62.2560 C   0  0  0  0  0  0  0  0  0  0  0  0
  123.7620  131.8120   60.9770 C   0  0  0  0  0  0  0  0  0  0  0  0
  124.2980  130.5300   60.8460 C   0  0  0  0  0  0  0  0  0  0  0  0
  124.7240  129.8400   61.9840 C   0  0  0  0  0  0  0  0  0  0  0  0
  124.5930  130.4500   63.2360 C   0  0  0  0  0  0  0  0  0  0  0  0
  125.0760  129.7300   64.3420 N   0  0  0  0  0  0  0  0  0  0  0  0
  124.6040  129.7300   65.6080 C   0  0  0  0  0  0  0  0  0  0  0  0
  123.5960  130.3290   65.9860 O   0  0  0  0  0  0  0  0  0  0  0  0
  125.4370  128.9510   66.6310 C   0  0  0  0  0  0  0  0  0  0  0  0
  127.1840  129.4680   66.6260 S   0  0  0  0  0  0  0  0  0  0  0  0
  128.0460  128.2220   65.6930 C   0  0  0  0  0  0  0  0  0  0  0  0
  127.7190  128.1730   64.3780 N   0  0  0  0  0  0  0  0  0  0  0  0
  128.2950  127.2250   63.6050 C   0  0  0  0  0  0  0  0  0  0  0  0
  127.8860  127.2270   62.1450 C   0  0  0  0  0  0  0  0  0  0  0  0
  129.2030  126.2940   64.1070 C   0  0  0  0  0  0  0  0  0  0  0  0
  129.5450  126.3260   65.4670 C   0  0  0  0  0  0  0  0  0  0  0  0
  130.5330  125.2770   66.0110 C   0  0  0  0  0  0  0  0  0  0  0  0
  130.6810  124.2870   65.1300 F   0  0  0  0  0  0  0  0  0  0  0  0
  131.7210  125.8420   66.2300 F   0  0  0  0  0  0  0  0  0  0  0  0
  130.1280  124.7340   67.1610 F   0  0  0  0  0  0  0  0  0  0  0  0
  128.9540  127.3170   66.2890 C   0  0  0  0  0  0  0  0  0  0  0  0
  129.2460  127.3840   67.7250 C   0  0  0  0  0  0  0  0  0  0  0  0
  129.4770  127.4360   68.8580 N   0  0  0  0  0  0  0  0  0  0  0  0
  124.0770  131.7070   63.3710 N   0  0  0  0  0  0  0  0  0  0  0  0
  123.0329  133.9524   63.5599 H   0  0  0  0  0  0  0  0  0  0  0  0
  123.7808  134.5003   62.0213 H   0  0  0  0  0  0  0  0  0  0  0  0
  122.1139  133.8309   62.0213 H   0  0  0  0  0  0  0  0  0  0  0  0
  123.4203  132.3726   60.0944 H   0  0  0  0  0  0  0  0  0  0  0  0
  124.3846  130.0655   59.8527 H   0  0  0  0  0  0  0  0  0  0  0  0
  125.1559  128.8321   61.8966 H   0  0  0  0  0  0  0  0  0  0  0  0
  125.8490  129.1110   64.1430 H   0  0  0  0  0  0  0  0  0  0  0  0
  125.0189  129.1227   67.6338 H   0  0  0  0  0  0  0  0  0  0  0  0
  125.3976  127.8856   66.3600 H   0  0  0  0  0  0  0  0  0  0  0  0
  126.7885  127.2324   62.0717 H   0  0  0  0  0  0  0  0  0  0  0  0
  128.2908  128.1232   61.6520 H   0  0  0  0  0  0  0  0  0  0  0  0
  128.2820  126.3269   61.6520 H   0  0  0  0  0  0  0  0  0  0  0  0
  129.6481  125.5397   63.4414 H   0  0  0  0  0  0  0  0  0  0  0  0
  1  2  1  0
  2  3  2  0
  3  4  1  0
  4  5  2  0
  5  6  1  0
  6  7  1  0
  7  8  1  0
  8  9  2  0
  8 10  1  0
 10 11  1  0
 11 12  1  0
 12 13  2  0
 13 14  1  0
 14 15  1  0
 14 16  2  0
 16 17  1  0
 17 18  1  0
 18 19  1  0
 18 20  1  0
 18 21  1  0
 17 22  2  0
 22 23  1  0
 23 24  3  0
  6 25  2  0
 25  2  1  0
 22 12  1  0
  1 26  1  0
  1 27  1  0
  1 28  1  0
  3 29  1  0
  4 30  1  0
  5 31  1  0
  7 32  1  0
 10 33  1  0
 10 34  1  0
 15 35  1  0
 15 36  1  0
 15 37  1  0
 16 38  1  0
M  END
>  <Binding energies>  (1) 
[-6.08]

>  <Ligand effiencies>  (1) 
[-0.23384615384615384]

>  <Interactions>  (1) 
["V-B:ARG:545:CG:9894, V-B:GLU:543:CD:9880, V-A:HIS:456:CE1:4069, V-B:ARG:545:CZ:9898, H-A:HIS:456:NE2:4070, V-B:ARG:545:CD:9895, V-B:HIS:456:CE1:9040, V-B:GLU:543:CG:9879, V-A:GLU:543:CD:4908, H-B:GLY:454:N:9021, V-B:GLY:454:CA:9020, V-B:ASP:366:CG:8184, V-B:LEU:475:CD1:9229, V-B:ILE:369:CD1:8210, H-B:ILE:455:N:9026, H-B:TYR:484:OH:9319, V-B:ILE:369:CG2:8208, V-A:TYR:484:CZ:4347, V-A:TYR:484:CE1:4345, H-B:GLU:543:OE1:9881"]

$$$$
2f_Grossjean_2025
     RDKit          3D

 35 36  0  0  0  0  0  0  0  0999 V2000
  127.9190  130.6860   65.0470 C   0  0  0  0  0  0  0  0  0  0  0  0
  128.3700  129.3180   65.5230 C   0  0  0  0  0  0  0  0  0  0  0  0
  128.6200  128.2800   64.6290 C   0  0  0  0  0  0  0  0  0  0  0  0
  129.0280  127.0290   65.1190 C   0  0  0  0  0  0  0  0  0  0  0  0
  129.2880  125.8910   64.1140 C   0  0  0  0  0  0  0  0  0  0  0  0
  128.7580  124.7520   64.5640 F   0  0  0  0  0  0  0  0  0  0  0  0
  128.7380  126.1880   62.9370 F   0  0  0  0  0  0  0  0  0  0  0  0
  130.5880  125.6710   63.9070 F   0  0  0  0  0  0  0  0  0  0  0  0
  129.1790  126.8670   66.5200 C   0  0  0  0  0  0  0  0  0  0  0  0
  129.5470  125.5650   67.0840 C   0  0  0  0  0  0  0  0  0  0  0  0
  129.8390  124.5370   67.5290 N   0  0  0  0  0  0  0  0  0  0  0  0
  128.9280  127.9850   67.3510 C   0  0  0  0  0  0  0  0  0  0  0  0
  129.0780  127.9640   69.1260 S   0  0  0  0  0  0  0  0  0  0  0  0
  127.9070  126.7270   69.7790 C   0  0  0  0  0  0  0  0  0  0  0  0
  128.4250  125.9010   70.9650 C   0  0  0  0  0  0  0  0  0  0  0  0
  128.2330  126.2760   72.1230 O   0  0  0  0  0  0  0  0  0  0  0  0
  129.1000  124.7840   70.6180 N   0  0  0  0  0  0  0  0  0  0  0  0
  129.6950  123.8060   71.4380 C   0  0  0  0  0  0  0  0  0  0  0  0
  130.8580  123.9850   72.2100 C   0  0  0  0  0  0  0  0  0  0  0  0
  131.3410  122.9300   72.9870 C   0  0  0  0  0  0  0  0  0  0  0  0
  130.6450  121.7210   72.9770 C   0  0  0  0  0  0  0  0  0  0  0  0
  129.5170  121.5260   72.2480 N   0  0  0  0  0  0  0  0  0  0  0  0
  129.0590  122.5610   71.4990 C   0  0  0  0  0  0  0  0  0  0  0  0
  128.5130  129.1780   66.8610 N   0  0  0  0  0  0  0  0  0  0  0  0
  127.7081  131.3257   65.9167 H   0  0  0  0  0  0  0  0  0  0  0  0
  128.7139  131.1433   64.4396 H   0  0  0  0  0  0  0  0  0  0  0  0
  127.0080  130.5809   64.4396 H   0  0  0  0  0  0  0  0  0  0  0  0
  128.4988  128.4389   63.5473 H   0  0  0  0  0  0  0  0  0  0  0  0
  126.9985  127.2558   70.1032 H   0  0  0  0  0  0  0  0  0  0  0  0
  127.7303  126.0119   68.9621 H   0  0  0  0  0  0  0  0  0  0  0  0
  129.2330  124.6330   69.6280 H   0  0  0  0  0  0  0  0  0  0  0  0
  131.3839  124.9511   72.2014 H   0  0  0  0  0  0  0  0  0  0  0  0
  132.2506  123.0497   73.5938 H   0  0  0  0  0  0  0  0  0  0  0  0
  131.0273  120.8892   73.5868 H   0  0  0  0  0  0  0  0  0  0  0  0
  128.1416  122.4138   70.9102 H   0  0  0  0  0  0  0  0  0  0  0  0
  1  2  1  0
  2  3  2  0
  3  4  1  0
  4  5  1  0
  5  6  1  0
  5  7  1  0
  5  8  1  0
  4  9  2  0
  9 10  1  0
 10 11  3  0
  9 12  1  0
 12 13  1  0
 13 14  1  0
 14 15  1  0
 15 16  2  0
 15 17  1  0
 17 18  1  0
 18 19  2  0
 19 20  1  0
 20 21  2  0
 21 22  1  0
 22 23  2  0
 12 24  2  0
 24  2  1  0
 23 18  1  0
  1 25  1  0
  1 26  1  0
  1 27  1  0
  3 28  1  0
 14 29  1  0
 14 30  1  0
 17 31  1  0
 19 32  1  0
 20 33  1  0
 21 34  1  0
 23 35  1  0
M  END
>  <Binding energies>  (1) 
[-6.01]

>  <Ligand effiencies>  (1) 
[-0.2404]

>  <Interactions>  (1) 
["H-B:HIS:456:NE2:9041, V-A:HIS:456:CD2:4068, V-B:GLU:543:CD:9880, H-B:LYS:547:NZ:9923, V-B:GLU:543:C:9874, V-B:GLU:543:CB:9878, V-A:HIS:456:CE1:4069, H-A:HIS:456:NE2:4070, V-B:HIS:456:CE1:9040, V-B:GLU:543:CG:9879, V-A:GLU:543:CG:4907, V-A:GLU:543:CD:4908, V-B:GLU:543:CA:9876, V-A:GLU:543:CB:4906, V-A:TYR:484:CE1:4345, H-A:TYR:484:OH:4348, V-B:GLY:544:C:9884, V-A:HIS:456:CG:4066, V-A:TYR:484:CD2:4344, V-A:TYR:484:CD1:4343, V-A:HIS:456:CB:4065, V-A:TYR:484:CG:4342, H-B:GLU:543:O:9875, V-B:LYS:547:CE:9922, V-B:GLY:544:CA:9886, V-A:ASP:473:CB:4239, V-A:TYR:484:CB:4341"]

$$$$
2g_Grossjean_2025
     RDKit          3D

 39 40  0  0  0  0  0  0  0  0999 V2000
  130.1160  126.1600   65.5380 C   0  0  0  0  0  0  0  0  0  0  0  0
  128.8280  126.8960   65.8540 C   0  0  0  0  0  0  0  0  0  0  0  0
  128.2950  127.8420   64.9820 C   0  0  0  0  0  0  0  0  0  0  0  0
  127.1050  128.5020   65.3230 C   0  0  0  0  0  0  0  0  0  0  0  0
  126.5350  129.5520   64.3490 C   0  0  0  0  0  0  0  0  0  0  0  0
  127.0980  129.4200   63.1470 F   0  0  0  0  0  0  0  0  0  0  0  0
  125.2170  129.3890   64.2300 F   0  0  0  0  0  0  0  0  0  0  0  0
  126.7520  130.8050   64.7560 F   0  0  0  0  0  0  0  0  0  0  0  0
  126.4760  128.1750   66.5520 C   0  0  0  0  0  0  0  0  0  0  0  0
  125.2630  128.8750   66.9820 C   0  0  0  0  0  0  0  0  0  0  0  0
  124.3050  129.4290   67.3220 N   0  0  0  0  0  0  0  0  0  0  0  0
  127.0740  127.1790   67.3610 C   0  0  0  0  0  0  0  0  0  0  0  0
  126.4060  126.6300   68.9170 S   0  0  0  0  0  0  0  0  0  0  0  0
  127.7990  126.0200   69.9270 C   0  0  0  0  0  0  0  0  0  0  0  0
  128.2430  126.9700   71.0480 C   0  0  0  0  0  0  0  0  0  0  0  0
  129.2090  127.7230   70.9080 O   0  0  0  0  0  0  0  0  0  0  0  0
  127.5130  126.9130   72.1770 N   0  0  0  0  0  0  0  0  0  0  0  0
  127.7350  127.7240   73.3750 C   0  0  0  0  0  0  0  0  0  0  0  0
  126.4580  128.1480   74.0930 C   0  0  0  0  0  0  0  0  0  0  0  0
  125.2910  127.3950   73.9390 C   0  0  0  0  0  0  0  0  0  0  0  0
  124.1330  127.7580   74.6240 C   0  0  0  0  0  0  0  0  0  0  0  0
  124.1500  128.8670   75.4670 C   0  0  0  0  0  0  0  0  0  0  0  0
  125.3150  129.6140   75.6350 C   0  0  0  0  0  0  0  0  0  0  0  0
  126.4720  129.2510   74.9510 C   0  0  0  0  0  0  0  0  0  0  0  0
  128.2370  126.5670   67.0250 N   0  0  0  0  0  0  0  0  0  0  0  0
  130.6150  125.8749   66.4759 H   0  0  0  0  0  0  0  0  0  0  0  0
  129.8880  125.2559   64.9544 H   0  0  0  0  0  0  0  0  0  0  0  0
  130.7792  126.8155   64.9544 H   0  0  0  0  0  0  0  0  0  0  0  0
  128.8031  128.0699   64.0334 H   0  0  0  0  0  0  0  0  0  0  0  0
  127.4981  125.0663   70.3852 H   0  0  0  0  0  0  0  0  0  0  0  0
  128.6569  125.9212   69.2456 H   0  0  0  0  0  0  0  0  0  0  0  0
  126.7210  126.2870   72.2050 H   0  0  0  0  0  0  0  0  0  0  0  0
  128.3472  127.1397   74.0777 H   0  0  0  0  0  0  0  0  0  0  0  0
  128.2300  128.6481   73.0418 H   0  0  0  0  0  0  0  0  0  0  0  0
  125.2864  126.5162   73.2774 H   0  0  0  0  0  0  0  0  0  0  0  0
  123.2104  127.1720   74.4997 H   0  0  0  0  0  0  0  0  0  0  0  0
  123.2353  129.1560   76.0053 H   0  0  0  0  0  0  0  0  0  0  0  0
  125.3201  130.4864   76.3050 H   0  0  0  0  0  0  0  0  0  0  0  0
  127.3963  129.8319   75.0858 H   0  0  0  0  0  0  0  0  0  0  0  0
  1  2  1  0
  2  3  2  0
  3  4  1  0
  4  5  1  0
  5  6  1  0
  5  7  1  0
  5  8  1  0
  4  9  2  0
  9 10  1  0
 10 11  3  0
  9 12  1  0
 12 13  1  0
 13 14  1  0
 14 15  1  0
 15 16  2  0
 15 17  1  0
 17 18  1  0
 18 19  1  0
 19 20  2  0
 20 21  1  0
 21 22  2  0
 22 23  1  0
 23 24  2  0
 12 25  2  0
 25  2  1  0
 24 19  1  0
  1 26  1  0
  1 27  1  0
  1 28  1  0
  3 29  1  0
 14 30  1  0
 14 31  1  0
 17 32  1  0
 18 33  1  0
 18 34  1  0
 20 35  1  0
 21 36  1  0
 22 37  1  0
 23 38  1  0
 24 39  1  0
M  END
>  <Binding energies>  (1) 
[-6.66]

>  <Ligand effiencies>  (1) 
[-0.2561538461538462]

>  <Interactions>  (1) 
["V-B:ARG:545:CG:9894, H-B:HIS:456:NE2:9041, V-B:GLU:543:CD:9880, V-B:GLU:543:C:9874, V-B:HIS:456:CD2:9039, V-B:GLU:543:CB:9878, V-B:ARG:545:CZ:9898, H-A:HIS:456:NE2:4070, V-B:ARG:545:CD:9895, V-B:HIS:456:CE1:9040, V-A:GLU:543:CD:4908, H-B:TYR:484:OH:9319, H-B:ARG:545:NE:9896, V-B:TYR:484:CZ:9318, V-B:GLY:544:C:9884, H-B:ARG:545:N:9892, V-B:HIS:456:CB:9036, V-B:HIS:456:C:9032, V-B:VAL:458:CG2:9058, V-B:VAL:457:C:9044, V-B:HIS:456:CG:9037, H-B:GLY:544:O:9885, V-B:HIS:456:CA:9034, V-B:VAL:457:CA:9046, V-B:LYS:471:CE:9191"]

$$$$
2h_Grossjean_2025
     RDKit          3D

 51 52  0  0  0  0  0  0  0  0999 V2000
  132.6660  126.6360   74.3450 C   0  0  0  0  0  0  0  0  0  0  0  0
  131.2910  126.9930   74.4150 O   0  0  0  0  0  0  0  0  0  0  0  0
  130.4940  126.8510   73.2930 C   0  0  0  0  0  0  0  0  0  0  0  0
  130.1200  127.9160   72.4580 C   0  0  0  0  0  0  0  0  0  0  0  0
  129.3210  127.6950   71.3390 C   0  0  0  0  0  0  0  0  0  0  0  0
  128.8790  126.4080   71.0280 C   0  0  0  0  0  0  0  0  0  0  0  0
  128.0210  126.1870   69.7830 C   0  0  0  0  0  0  0  0  0  0  0  0
  128.7970  125.8700   68.5840 N   0  0  0  0  0  0  0  0  0  0  0  0
  129.3560  126.7790   67.7660 C   0  0  0  0  0  0  0  0  0  0  0  0
  129.2020  127.9950   67.9010 O   0  0  0  0  0  0  0  0  0  0  0  0
  130.2250  126.2080   66.6360 C   0  0  0  0  0  0  0  0  0  0  0  0
  130.1130  124.4010   66.4160 S   0  0  0  0  0  0  0  0  0  0  0  0
  130.5080  124.0650   64.7140 C   0  0  0  0  0  0  0  0  0  0  0  0
  129.4250  123.7950   63.9450 N   0  0  0  0  0  0  0  0  0  0  0  0
  129.6130  123.5070   62.6390 C   0  0  0  0  0  0  0  0  0  0  0  0
  128.3570  123.2090   61.8420 C   0  0  0  0  0  0  0  0  0  0  0  0
  130.8750  123.4810   62.0480 C   0  0  0  0  0  0  0  0  0  0  0  0
  132.0060  123.7780   62.8230 C   0  0  0  0  0  0  0  0  0  0  0  0
  133.3920  123.7530   62.1500 C   0  0  0  0  0  0  0  0  0  0  0  0
  133.2540  123.7790   60.8240 F   0  0  0  0  0  0  0  0  0  0  0  0
  134.1520  124.7960   62.4930 F   0  0  0  0  0  0  0  0  0  0  0  0
  134.0500  122.6460   62.4950 F   0  0  0  0  0  0  0  0  0  0  0  0
  131.8250  124.0900   64.1940 C   0  0  0  0  0  0  0  0  0  0  0  0
  132.9670  124.4640   65.0320 C   0  0  0  0  0  0  0  0  0  0  0  0
  133.8700  124.7620   65.6910 N   0  0  0  0  0  0  0  0  0  0  0  0
  129.2260  125.3370   71.8660 C   0  0  0  0  0  0  0  0  0  0  0  0
  128.7910  124.0680   71.5670 O   0  0  0  0  0  0  0  0  0  0  0  0
  129.7400  123.2730   70.8660 C   0  0  0  0  0  0  0  0  0  0  0  0
  130.0480  125.5600   72.9840 C   0  0  0  0  0  0  0  0  0  0  0  0
  130.4040  124.5100   73.7960 O   0  0  0  0  0  0  0  0  0  0  0  0
  131.5690  123.8170   73.3710 C   0  0  0  0  0  0  0  0  0  0  0  0
  133.0699  126.5311   75.3628 H   0  0  0  0  0  0  0  0  0  0  0  0
  132.7701  125.6811   73.8090 H   0  0  0  0  0  0  0  0  0  0  0  0
  133.2215  127.4197   73.8090 H   0  0  0  0  0  0  0  0  0  0  0  0
  130.4616  128.9355   72.6901 H   0  0  0  0  0  0  0  0  0  0  0  0
  129.0362  128.5406   70.6957 H   0  0  0  0  0  0  0  0  0  0  0  0
  127.3304  125.3538   69.9803 H   0  0  0  0  0  0  0  0  0  0  0  0
  127.4927  127.1312   69.5843 H   0  0  0  0  0  0  0  0  0  0  0  0
  128.9960  124.8930   68.4280 H   0  0  0  0  0  0  0  0  0  0  0  0
  129.9177  126.6862   65.6942 H   0  0  0  0  0  0  0  0  0  0  0  0
  131.2682  126.4200   66.9132 H   0  0  0  0  0  0  0  0  0  0  0  0
  127.5233  123.0112   62.5318 H   0  0  0  0  0  0  0  0  0  0  0  0
  128.1112  124.0737   61.2081 H   0  0  0  0  0  0  0  0  0  0  0  0
  128.5258  122.3260   61.2081 H   0  0  0  0  0  0  0  0  0  0  0  0
  130.9833  123.2297   60.9826 H   0  0  0  0  0  0  0  0  0  0  0  0
  130.3763  122.7400   71.5878 H   0  0  0  0  0  0  0  0  0  0  0  0
  129.2120  122.5437   70.2341 H   0  0  0  0  0  0  0  0  0  0  0  0
  130.3655  123.9207   70.2341 H   0  0  0  0  0  0  0  0  0  0  0  0
  132.1363  123.4795   74.2509 H   0  0  0  0  0  0  0  0  0  0  0  0
  131.2772  122.9455   72.7665 H   0  0  0  0  0  0  0  0  0  0  0  0
  132.1955  124.4893   72.7665 H   0  0  0  0  0  0  0  0  0  0  0  0
  1  2  1  0
  2  3  1  0
  3  4  2  0
  4  5  1  0
  5  6  2  0
  6  7  1  0
  7  8  1  0
  8  9  1  0
  9 10  2  0
  9 11  1  0
 11 12  1  0
 12 13  1  0
 13 14  2  0
 14 15  1  0
 15 16  1  0
 15 17  2  0
 17 18  1  0
 18 19  1  0
 19 20  1  0
 19 21  1  0
 19 22  1  0
 18 23  2  0
 23 24  1  0
 24 25  3  0
  6 26  1  0
 26 27  1  0
 27 28  1  0
 26 29  2  0
 29 30  1  0
 30 31  1  0
 29  3  1  0
 23 13  1  0
  1 32  1  0
  1 33  1  0
  1 34  1  0
  4 35  1  0
  5 36  1  0
  7 37  1  0
  7 38  1  0
  8 39  1  0
 11 40  1  0
 11 41  1  0
 16 42  1  0
 16 43  1  0
 16 44  1  0
 17 45  1  0
 28 46  1  0
 28 47  1  0
 28 48  1  0
 31 49  1  0
 31 50  1  0
 31 51  1  0
M  END
>  <Binding energies>  (1) 
[-6.84]

>  <Ligand effiencies>  (1) 
[-0.21375]

>  <Interactions>  (1) 
["V-A:HIS:456:CD2:4068, V-B:GLU:543:CD:9880, H-B:LYS:547:NZ:9923, V-B:GLU:543:C:9874, H-A:LYS:547:NZ:4951, V-A:HIS:456:CE1:4069, V-B:HIS:456:CE1:9040, V-B:GLU:543:CG:9879, V-A:GLU:543:CD:4908, V-B:ALA:541:CB:9864, V-A:TYR:484:CZ:4347, V-A:LEU:475:CD1:4258, V-A:TYR:484:CE1:4345, H-A:GLY:454:N:4050, V-A:ARG:545:CZ:4926, V-A:GLY:453:CA:4044, H-A:TYR:484:OH:4348, V-A:GLY:453:C:4042, V-A:GLY:454:CA:4049, H-A:ARG:545:NE:4924, V-A:ASP:366:CG:3213, V-A:ILE:369:CD1:3239, V-B:GLY:544:C:9884, V-A:HIS:456:CG:4066, V-A:TYR:484:CD2:4344, V-A:TYR:484:CE2:4346, V-A:TYR:484:CD1:4343, V-A:HIS:456:CB:4065, V-A:TYR:484:CG:4342, V-A:LYS:547:CE:4950, H-B:GLU:543:O:9875, V-A:LYS:547:CD:4949"]

$$$$
2i_Grossjean_2025
     RDKit          3D

 32 33  0  0  0  0  0  0  0  0999 V2000
  130.8540  125.4610   66.1000 C   0  0  0  0  0  0  0  0  0  0  0  0
  129.5800  126.2640   66.2840 C   0  0  0  0  0  0  0  0  0  0  0  0
  129.1700  127.2080   65.3460 C   0  0  0  0  0  0  0  0  0  0  0  0
  127.9820  127.9230   65.5610 C   0  0  0  0  0  0  0  0  0  0  0  0
  127.5430  128.9640   64.5140 C   0  0  0  0  0  0  0  0  0  0  0  0
  127.6960  130.1950   65.0030 F   0  0  0  0  0  0  0  0  0  0  0  0
  128.2810  128.8420   63.4100 F   0  0  0  0  0  0  0  0  0  0  0  0
  126.2640  128.8300   64.1570 F   0  0  0  0  0  0  0  0  0  0  0  0
  127.2350  127.6570   66.7370 C   0  0  0  0  0  0  0  0  0  0  0  0
  125.9860  128.3740   67.0110 C   0  0  0  0  0  0  0  0  0  0  0  0
  124.9990  128.9390   67.2280 N   0  0  0  0  0  0  0  0  0  0  0  0
  127.7260  126.6830   67.6370 C   0  0  0  0  0  0  0  0  0  0  0  0
  126.8750  126.2710   69.1520 S   0  0  0  0  0  0  0  0  0  0  0  0
  127.8270  126.9580   70.5400 C   0  0  0  0  0  0  0  0  0  0  0  0
  128.3410  125.8710   71.4860 C   0  0  0  0  0  0  0  0  0  0  0  0
  128.2280  126.0330   72.7030 O   0  0  0  0  0  0  0  0  0  0  0  0
  128.9160  124.8010   70.8960 N   0  0  0  0  0  0  0  0  0  0  0  0
  129.4680  123.7020   71.5330 C   0  0  0  0  0  0  0  0  0  0  0  0
  130.6890  123.5700   72.2100 C   0  0  0  0  0  0  0  0  0  0  0  0
  130.7100  122.2640   72.6410 C   0  0  0  0  0  0  0  0  0  0  0  0
  129.5670  121.6500   72.2530 O   0  0  0  0  0  0  0  0  0  0  0  0
  128.7880  122.5770   71.5570 N   0  0  0  0  0  0  0  0  0  0  0  0
  128.8780  126.0010   67.4090 N   0  0  0  0  0  0  0  0  0  0  0  0
  131.2683  125.1999   67.0850 H   0  0  0  0  0  0  0  0  0  0  0  0
  130.6298  124.5407   65.5408 H   0  0  0  0  0  0  0  0  0  0  0  0
  131.5876  126.0603   65.5408 H   0  0  0  0  0  0  0  0  0  0  0  0
  129.7724  127.3916   64.4441 H   0  0  0  0  0  0  0  0  0  0  0  0
  128.6875  127.5132   70.1383 H   0  0  0  0  0  0  0  0  0  0  0  0
  127.1576  127.6151   71.1146 H   0  0  0  0  0  0  0  0  0  0  0  0
  128.9850  124.8020   69.8890 H   0  0  0  0  0  0  0  0  0  0  0  0
  131.4593  124.3403   72.3626 H   0  0  0  0  0  0  0  0  0  0  0  0
  131.5252  121.7933   73.2101 H   0  0  0  0  0  0  0  0  0  0  0  0
  1  2  1  0
  2  3  2  0
  3  4  1  0
  4  5  1  0
  5  6  1  0
  5  7  1  0
  5  8  1  0
  4  9  2  0
  9 10  1  0
 10 11  3  0
  9 12  1  0
 12 13  1  0
 13 14  1  0
 14 15  1  0
 15 16  2  0
 15 17  1  0
 17 18  1  0
 18 19  1  0
 19 20  2  0
 20 21  1  0
 21 22  1  0
 12 23  2  0
 23  2  1  0
 22 18  2  0
  1 24  1  0
  1 25  1  0
  1 26  1  0
  3 27  1  0
 14 28  1  0
 14 29  1  0
 17 30  1  0
 19 31  1  0
 20 32  1  0
M  END
>  <Binding energies>  (1) 
[-6.99]

>  <Ligand effiencies>  (1) 
[-0.29125]

>  <Interactions>  (1) 
["V-B:ARG:545:CG:9894, V-A:HIS:456:CD2:4068, V-B:GLU:543:CD:9880, H-B:LYS:547:NZ:9923, V-B:GLU:543:C:9874, V-B:GLU:543:CB:9878, V-A:HIS:456:CE1:4069, V-B:HIS:456:CE1:9040, V-A:GLU:543:CD:4908, H-B:TYR:484:OH:9319, H-B:ARG:545:NE:9896, V-A:GLU:543:CB:4906, V-B:GLY:544:C:9884, H-B:ARG:545:N:9892, V-A:HIS:456:CG:4066, V-A:TYR:484:CD2:4344, V-A:TYR:484:CE2:4346, V-A:HIS:456:CB:4065, V-A:TYR:484:CG:4342, H-B:GLU:543:O:9875, V-A:TYR:484:CB:4341"]

$$$$
2j_Grossjean_2025
     RDKit          3D

 32 33  0  0  0  0  0  0  0  0999 V2000
  129.8180  123.6030   65.8330 C   0  0  0  0  0  0  0  0  0  0  0  0
  129.3890  125.0470   66.0170 C   0  0  0  0  0  0  0  0  0  0  0  0
  129.0070  125.8380   64.9370 C   0  0  0  0  0  0  0  0  0  0  0  0
  128.6150  127.1670   65.1580 C   0  0  0  0  0  0  0  0  0  0  0  0
  128.1950  128.0280   63.9510 C   0  0  0  0  0  0  0  0  0  0  0  0
  126.9360  128.4410   64.1020 F   0  0  0  0  0  0  0  0  0  0  0  0
  128.9910  129.0930   63.8500 F   0  0  0  0  0  0  0  0  0  0  0  0
  128.2650  127.3640   62.7950 F   0  0  0  0  0  0  0  0  0  0  0  0
  128.6230  127.6620   66.4860 C   0  0  0  0  0  0  0  0  0  0  0  0
  128.2240  129.0430   66.7760 C   0  0  0  0  0  0  0  0  0  0  0  0
  127.9080  130.1330   67.0040 N   0  0  0  0  0  0  0  0  0  0  0  0
  129.0270  126.7890   67.5240 C   0  0  0  0  0  0  0  0  0  0  0  0
  129.0730  127.3050   69.2340 S   0  0  0  0  0  0  0  0  0  0  0  0
  127.8810  126.2910   70.1730 C   0  0  0  0  0  0  0  0  0  0  0  0
  128.4860  125.4960   71.3400 C   0  0  0  0  0  0  0  0  0  0  0  0
  128.2950  125.8460   72.5060 O   0  0  0  0  0  0  0  0  0  0  0  0
  129.2290  124.4280   70.9720 N   0  0  0  0  0  0  0  0  0  0  0  0
  129.8850  123.5430   71.8170 C   0  0  0  0  0  0  0  0  0  0  0  0
  129.7190  122.2410   71.9080 N   0  0  0  0  0  0  0  0  0  0  0  0
  130.5130  121.7130   72.8200 C   0  0  0  0  0  0  0  0  0  0  0  0
  131.3490  122.5980   73.4940 C   0  0  0  0  0  0  0  0  0  0  0  0
  131.0730  124.2060   72.8930 S   0  0  0  0  0  0  0  0  0  0  0  0
  129.4000  125.5050   67.2890 N   0  0  0  0  0  0  0  0  0  0  0  0
  129.9575  123.1336   66.8180 H   0  0  0  0  0  0  0  0  0  0  0  0
  129.0428  123.0586   65.2738 H   0  0  0  0  0  0  0  0  0  0  0  0
  130.7647  123.5702   65.2738 H   0  0  0  0  0  0  0  0  0  0  0  0
  129.0124  125.4242   63.9178 H   0  0  0  0  0  0  0  0  0  0  0  0
  127.1087  126.9605   70.5797 H   0  0  0  0  0  0  0  0  0  0  0  0
  127.4844  125.5474   69.4660 H   0  0  0  0  0  0  0  0  0  0  0  0
  129.3260  124.2450   69.9840 H   0  0  0  0  0  0  0  0  0  0  0  0
  130.5140  120.6343   73.0353 H   0  0  0  0  0  0  0  0  0  0  0  0
  132.0683  122.3245   74.2800 H   0  0  0  0  0  0  0  0  0  0  0  0
  1  2  1  0
  2  3  2  0
  3  4  1  0
  4  5  1  0
  5  6  1  0
  5  7  1  0
  5  8  1  0
  4  9  2  0
  9 10  1  0
 10 11  3  0
  9 12  1  0
 12 13  1  0
 13 14  1  0
 14 15  1  0
 15 16  2  0
 15 17  1  0
 17 18  1  0
 18 19  2  0
 19 20  1  0
 20 21  2  0
 21 22  1  0
 12 23  2  0
 23  2  1  0
 22 18  1  0
  1 24  1  0
  1 25  1  0
  1 26  1  0
  3 27  1  0
 14 28  1  0
 14 29  1  0
 17 30  1  0
 20 31  1  0
 21 32  1  0
M  END
>  <Binding energies>  (1) 
[-6.17]

>  <Ligand effiencies>  (1) 
[-0.25708333333333333]

>  <Interactions>  (1) 
["H-B:HIS:456:NE2:9041, V-A:HIS:456:CD2:4068, V-B:GLU:543:CD:9880, H-B:LYS:547:NZ:9923, V-B:GLU:543:C:9874, V-B:GLU:543:CB:9878, V-A:HIS:456:CE1:4069, H-A:HIS:456:NE2:4070, V-B:HIS:456:CE1:9040, V-B:GLU:543:CG:9879, V-A:GLU:543:CD:4908, H-B:TYR:484:OH:9319, V-B:GLU:543:CA:9876, V-A:TYR:484:CZ:4347, V-A:GLU:543:CB:4906, V-A:TYR:484:CE1:4345, V-B:GLY:544:C:9884, V-A:HIS:456:CG:4066, V-A:TYR:484:CD2:4344, V-A:TYR:484:CD1:4343, V-A:HIS:456:CB:4065, V-A:TYR:484:CG:4342, H-B:GLU:543:O:9875, V-A:ASP:473:CG:4240, V-A:ASP:473:CB:4239, V-A:TYR:484:CB:4341"]

$$$$
2k_Grossjean_2025
     RDKit          3D

 50 50  0  0  0  0  0  0  0  0999 V2000
  133.0390  126.5390   74.5010 C   0  0  0  0  0  0  0  0  0  0  0  0
  131.6290  126.6940   74.5410 O   0  0  0  0  0  0  0  0  0  0  0  0
  130.9380  125.5000   74.8850 C   0  0  0  0  0  0  0  0  0  0  0  0
  131.5780  124.3060   74.1660 C   0  0  0  0  0  0  0  0  0  0  0  0
  130.5640  123.5680   73.5000 O   0  0  0  0  0  0  0  0  0  0  0  0
  131.0000  122.9150   72.3140 C   0  0  0  0  0  0  0  0  0  0  0  0
  130.3890  123.6400   71.1080 C   0  0  0  0  0  0  0  0  0  0  0  0
  129.0660  124.0210   71.4550 O   0  0  0  0  0  0  0  0  0  0  0  0
  128.9190  125.3650   71.8890 C   0  0  0  0  0  0  0  0  0  0  0  0
  128.4960  126.2340   70.6900 C   0  0  0  0  0  0  0  0  0  0  0  0
  128.8310  125.6280   69.3990 N   0  0  0  0  0  0  0  0  0  0  0  0
  128.8940  126.2790   68.2210 C   0  0  0  0  0  0  0  0  0  0  0  0
  128.6990  127.4910   68.1050 O   0  0  0  0  0  0  0  0  0  0  0  0
  129.2070  125.4090   66.9950 C   0  0  0  0  0  0  0  0  0  0  0  0
  130.8430  125.6910   66.2330 S   0  0  0  0  0  0  0  0  0  0  0  0
  130.9820  124.7100   64.7450 C   0  0  0  0  0  0  0  0  0  0  0  0
  129.8080  124.3340   64.1760 N   0  0  0  0  0  0  0  0  0  0  0  0
  129.8380  123.5860   63.0510 C   0  0  0  0  0  0  0  0  0  0  0  0
  128.4870  123.1970   62.4830 C   0  0  0  0  0  0  0  0  0  0  0  0
  131.0260  123.1940   62.4410 C   0  0  0  0  0  0  0  0  0  0  0  0
  132.2510  123.5780   63.0070 C   0  0  0  0  0  0  0  0  0  0  0  0
  133.5570  123.1400   62.3160 C   0  0  0  0  0  0  0  0  0  0  0  0
  134.5250  124.0520   62.4140 F   0  0  0  0  0  0  0  0  0  0  0  0
  134.0100  122.0130   62.8680 F   0  0  0  0  0  0  0  0  0  0  0  0
  133.3370  122.9260   61.0180 F   0  0  0  0  0  0  0  0  0  0  0  0
  132.2350  124.3560   64.1920 C   0  0  0  0  0  0  0  0  0  0  0  0
  133.4860  124.7820   64.8290 C   0  0  0  0  0  0  0  0  0  0  0  0
  134.4730  125.1190   65.3300 N   0  0  0  0  0  0  0  0  0  0  0  0
  133.4324  126.4958   75.5273 H   0  0  0  0  0  0  0  0  0  0  0  0
  133.2907  125.6078   73.9723 H   0  0  0  0  0  0  0  0  0  0  0  0
  133.4869  127.3933   73.9723 H   0  0  0  0  0  0  0  0  0  0  0  0
  130.9950  125.3451   75.9726 H   0  0  0  0  0  0  0  0  0  0  0  0
  129.8852  125.5877   74.5786 H   0  0  0  0  0  0  0  0  0  0  0  0
  132.3125  124.6685   73.4318 H   0  0  0  0  0  0  0  0  0  0  0  0
  132.0862  123.6611   74.8979 H   0  0  0  0  0  0  0  0  0  0  0  0
  132.0977  122.9515   72.2521 H   0  0  0  0  0  0  0  0  0  0  0  0
  130.6804  121.8625   72.3233 H   0  0  0  0  0  0  0  0  0  0  0  0
  130.9845  124.5329   70.8671 H   0  0  0  0  0  0  0  0  0  0  0  0
  130.3805  122.9808   70.2274 H   0  0  0  0  0  0  0  0  0  0  0  0
  128.1490  125.4176   72.6728 H   0  0  0  0  0  0  0  0  0  0  0  0
  129.8731  125.7312   72.2960 H   0  0  0  0  0  0  0  0  0  0  0  0
  127.4075  126.3865   70.7340 H   0  0  0  0  0  0  0  0  0  0  0  0
  129.0462  127.1838   70.7609 H   0  0  0  0  0  0  0  0  0  0  0  0
  129.0200  124.6370   69.4080 H   0  0  0  0  0  0  0  0  0  0  0  0
  129.1536  124.3547   67.3042 H   0  0  0  0  0  0  0  0  0  0  0  0
  128.4648  125.6831   66.2308 H   0  0  0  0  0  0  0  0  0  0  0  0
  127.7870  122.9954   63.3072 H   0  0  0  0  0  0  0  0  0  0  0  0
  128.0985  124.0198   61.8649 H   0  0  0  0  0  0  0  0  0  0  0  0
  128.5955  122.2936   61.8649 H   0  0  0  0  0  0  0  0  0  0  0  0
  131.0047  122.5883   61.5230 H   0  0  0  0  0  0  0  0  0  0  0  0
  1  2  1  0
  2  3  1  0
  3  4  1  0
  4  5  1  0
  5  6  1  0
  6  7  1  0
  7  8  1  0
  8  9  1  0
  9 10  1  0
 10 11  1  0
 11 12  1  0
 12 13  2  0
 12 14  1  0
 14 15  1  0
 15 16  1  0
 16 17  2  0
 17 18  1  0
 18 19  1  0
 18 20  2  0
 20 21  1  0
 21 22  1  0
 22 23  1  0
 22 24  1  0
 22 25  1  0
 21 26  2  0
 26 27  1  0
 27 28  3  0
 26 16  1  0
  1 29  1  0
  1 30  1  0
  1 31  1  0
  3 32  1  0
  3 33  1  0
  4 34  1  0
  4 35  1  0
  6 36  1  0
  6 37  1  0
  7 38  1  0
  7 39  1  0
  9 40  1  0
  9 41  1  0
 10 42  1  0
 10 43  1  0
 11 44  1  0
 14 45  1  0
 14 46  1  0
 19 47  1  0
 19 48  1  0
 19 49  1  0
 20 50  1  0
M  END
>  <Binding energies>  (1) 
[-5.32]

>  <Ligand effiencies>  (1) 
[-0.18344827586206897]

>  <Interactions>  (1) 
["V-A:HIS:456:CD2:4068, V-B:GLU:543:CD:9880, H-B:LYS:547:NZ:9923, V-B:GLU:543:C:9874, H-A:LYS:547:NZ:4951, V-B:GLU:543:CB:9878, V-A:HIS:456:CE1:4069, V-B:GLU:543:CG:9879, V-B:ALA:541:CB:9864, V-B:GLU:543:CA:9876, V-A:TYR:484:CZ:4347, V-A:LEU:475:CD1:4258, V-A:TYR:484:CE1:4345, H-A:GLY:454:N:4050, V-A:ARG:545:CZ:4926, V-A:GLY:453:CA:4044, H-A:TYR:484:OH:4348, V-A:GLY:453:C:4042, V-A:GLY:454:CA:4049, H-A:ARG:545:NE:4924, V-A:ILE:369:CD1:3239, V-A:HIS:456:CG:4066, V-A:TYR:484:CD2:4344, V-A:TYR:484:CE2:4346, V-A:TYR:484:CD1:4343, V-A:HIS:456:CB:4065, V-A:TYR:484:CG:4342, V-A:LYS:547:CE:4950, H-B:GLU:543:O:9875, V-A:LYS:547:CD:4949"]

$$$$
3aa_Grossjean_2025
     RDKit          3D

 52 54  0  0  0  0  0  0  0  0999 V2000
  125.5830  126.6280   74.1260 C   0  0  0  0  0  0  0  0  0  0  0  0
  126.9560  127.0570   74.6530 C   0  0  0  0  0  0  0  0  0  0  0  0
  127.8970  126.0150   74.4270 O   0  0  0  0  0  0  0  0  0  0  0  0
  129.1030  126.2740   73.8590 C   0  0  0  0  0  0  0  0  0  0  0  0
  130.0950  126.6310   74.5010 O   0  0  0  0  0  0  0  0  0  0  0  0
  129.1060  126.0980   72.3670 C   0  0  0  0  0  0  0  0  0  0  0  0
  129.5530  124.9160   71.7590 C   0  0  0  0  0  0  0  0  0  0  0  0
  129.5380  124.7850   70.3720 C   0  0  0  0  0  0  0  0  0  0  0  0
  129.0710  125.8260   69.5680 C   0  0  0  0  0  0  0  0  0  0  0  0
  129.0950  125.5890   68.1790 N   0  0  0  0  0  0  0  0  0  0  0  0
  129.1320  126.4710   67.1560 C   0  0  0  0  0  0  0  0  0  0  0  0
  129.1290  127.6970   67.2700 O   0  0  0  0  0  0  0  0  0  0  0  0
  129.1680  125.8550   65.7570 C   0  0  0  0  0  0  0  0  0  0  0  0
  130.0360  124.2570   65.7440 S   0  0  0  0  0  0  0  0  0  0  0  0
  130.6440  124.0070   64.0910 C   0  0  0  0  0  0  0  0  0  0  0  0
  129.6660  123.7790   63.1820 N   0  0  0  0  0  0  0  0  0  0  0  0
  129.9930  123.5700   61.8810 C   0  0  0  0  0  0  0  0  0  0  0  0
  128.8540  123.3400   60.9330 C   0  0  0  0  0  0  0  0  0  0  0  0
  128.9610  122.3900   59.9050 C   0  0  0  0  0  0  0  0  0  0  0  0
  127.9060  122.1690   59.0220 C   0  0  0  0  0  0  0  0  0  0  0  0
  126.7300  122.8980   59.1560 C   0  0  0  0  0  0  0  0  0  0  0  0
  126.5980  123.8430   60.1680 C   0  0  0  0  0  0  0  0  0  0  0  0
  127.6520  124.0590   61.0510 C   0  0  0  0  0  0  0  0  0  0  0  0
  131.3270  123.5940   61.4620 C   0  0  0  0  0  0  0  0  0  0  0  0
  132.3580  123.8110   62.3890 C   0  0  0  0  0  0  0  0  0  0  0  0
  133.8150  123.8180   61.8900 C   0  0  0  0  0  0  0  0  0  0  0  0
  134.5600  124.7550   62.4800 F   0  0  0  0  0  0  0  0  0  0  0  0
  134.3910  122.6400   62.1340 F   0  0  0  0  0  0  0  0  0  0  0  0
  133.8450  124.0490   60.5770 F   0  0  0  0  0  0  0  0  0  0  0  0
  132.0130  124.0120   63.7470 C   0  0  0  0  0  0  0  0  0  0  0  0
  133.0510  124.1850   64.7680 C   0  0  0  0  0  0  0  0  0  0  0  0
  133.8710  124.3220   65.5740 N   0  0  0  0  0  0  0  0  0  0  0  0
  128.6340  127.0160   70.1690 C   0  0  0  0  0  0  0  0  0  0  0  0
  128.6520  127.1460   71.5540 C   0  0  0  0  0  0  0  0  0  0  0  0
  124.9139  126.4189   74.9737 H   0  0  0  0  0  0  0  0  0  0  0  0
  125.1568  127.4358   73.5130 H   0  0  0  0  0  0  0  0  0  0  0  0
  125.6925  125.7212   73.5130 H   0  0  0  0  0  0  0  0  0  0  0  0
  127.2827  127.9665   74.1275 H   0  0  0  0  0  0  0  0  0  0  0  0
  126.8873  127.2616   75.7316 H   0  0  0  0  0  0  0  0  0  0  0  0
  129.9182  124.0861   72.3818 H   0  0  0  0  0  0  0  0  0  0  0  0
  129.8967  123.8547   69.9073 H   0  0  0  0  0  0  0  0  0  0  0  0
  129.0270  124.6140   67.9240 H   0  0  0  0  0  0  0  0  0  0  0  0
  128.1358  125.7023   65.4087 H   0  0  0  0  0  0  0  0  0  0  0  0
  129.7114  126.5444   65.0941 H   0  0  0  0  0  0  0  0  0  0  0  0
  129.8905  121.8121   59.7950 H   0  0  0  0  0  0  0  0  0  0  0  0
  128.0034  121.4205   58.2219 H   0  0  0  0  0  0  0  0  0  0  0  0
  125.8982  122.7263   58.4570 H   0  0  0  0  0  0  0  0  0  0  0  0
  125.6651  124.4169   60.2700 H   0  0  0  0  0  0  0  0  0  0  0  0
  127.5427  124.8036   61.8533 H   0  0  0  0  0  0  0  0  0  0  0  0
  131.5695  123.4419   60.3999 H   0  0  0  0  0  0  0  0  0  0  0  0
  128.2765  127.8477   69.5441 H   0  0  0  0  0  0  0  0  0  0  0  0
  128.3059  128.0821   72.0166 H   0  0  0  0  0  0  0  0  0  0  0  0
  1  2  1  0
  2  3  1  0
  3  4  1  0
  4  5  2  0
  4  6  1  0
  6  7  2  0
  7  8  1  0
  8  9  2  0
  9 10  1  0
 10 11  1  0
 11 12  2  0
 11 13  1  0
 13 14  1  0
 14 15  1  0
 15 16  2  0
 16 17  1  0
 17 18  1  0
 18 19  2  0
 19 20  1  0
 20 21  2  0
 21 22  1  0
 22 23  2  0
 17 24  2  0
 24 25  1  0
 25 26  1  0
 26 27  1  0
 26 28  1  0
 26 29  1  0
 25 30  2  0
 30 31  1  0
 31 32  3  0
  9 33  1  0
 33 34  2  0
 34  6  1  0
 30 15  1  0
 23 18  1  0
  1 35  1  0
  1 36  1  0
  1 37  1  0
  2 38  1  0
  2 39  1  0
  7 40  1  0
  8 41  1  0
 10 42  1  0
 13 43  1  0
 13 44  1  0
 19 45  1  0
 20 46  1  0
 21 47  1  0
 22 48  1  0
 23 49  1  0
 24 50  1  0
 33 51  1  0
 34 52  1  0
M  END
>  <Binding energies>  (1) 
[-8.44]

>  <Ligand effiencies>  (1) 
[-0.24114285714285713]

>  <Interactions>  (1) 
["V-A:HIS:456:CD2:4068, V-B:GLU:543:CD:9880, H-B:LYS:547:NZ:9923, V-B:GLU:543:C:9874, H-A:LYS:547:NZ:4951, V-B:GLU:543:CB:9878, V-A:HIS:456:CE1:4069, V-B:HIS:456:CE1:9040, V-B:GLU:543:CG:9879, H-A:GLY:454:N:4050, V-A:ARG:545:CZ:4926, V-A:GLY:453:CA:4044, H-A:TYR:484:OH:4348, V-A:GLY:453:C:4042, V-A:GLY:454:CA:4049, V-A:ASP:366:CG:3213, V-B:TYR:539:CE2:9848, V-B:PRO:540:CA:9855, V-A:ILE:369:CD1:3239, V-B:TYR:539:CD2:9846, V-B:PRO:540:CB:9857, V-B:PRO:540:N:9856, V-B:TYR:539:C:9839, V-B:LYS:547:CD:9921, V-B:LYS:547:CG:9920, H-B:GLU:543:O:9875, V-B:LYS:547:CE:9922"]

$$$$
3ab_Grossjean_2025
     RDKit          3D

 49 51  0  0  0  0  0  0  0  0999 V2000
  126.8330  126.9240   73.7340 C   0  0  0  0  0  0  0  0  0  0  0  0
  127.9700  126.1100   73.9810 O   0  0  0  0  0  0  0  0  0  0  0  0
  129.1850  126.4310   73.4660 C   0  0  0  0  0  0  0  0  0  0  0  0
  130.0420  127.0640   74.0880 O   0  0  0  0  0  0  0  0  0  0  0  0
  129.3830  125.9360   72.0620 C   0  0  0  0  0  0  0  0  0  0  0  0
  129.9350  124.6740   71.7900 C   0  0  0  0  0  0  0  0  0  0  0  0
  130.1070  124.2400   70.4790 C   0  0  0  0  0  0  0  0  0  0  0  0
  129.7280  125.0670   69.4090 C   0  0  0  0  0  0  0  0  0  0  0  0
  129.8500  124.7300   68.0480 N   0  0  0  0  0  0  0  0  0  0  0  0
  129.1530  125.1720   66.9800 C   0  0  0  0  0  0  0  0  0  0  0  0
  128.2270  125.9830   67.0160 O   0  0  0  0  0  0  0  0  0  0  0  0
  129.5790  124.5880   65.6310 C   0  0  0  0  0  0  0  0  0  0  0  0
  130.4890  125.7940   64.6200 S   0  0  0  0  0  0  0  0  0  0  0  0
  131.2120  124.9100   63.2550 C   0  0  0  0  0  0  0  0  0  0  0  0
  130.3190  124.5740   62.2940 N   0  0  0  0  0  0  0  0  0  0  0  0
  130.7340  123.9000   61.1900 C   0  0  0  0  0  0  0  0  0  0  0  0
  129.6830  123.5680   60.1730 C   0  0  0  0  0  0  0  0  0  0  0  0
  128.8550  122.4460   60.3360 C   0  0  0  0  0  0  0  0  0  0  0  0
  127.8770  122.1330   59.3950 C   0  0  0  0  0  0  0  0  0  0  0  0
  127.7150  122.9410   58.2730 C   0  0  0  0  0  0  0  0  0  0  0  0
  128.5260  124.0550   58.0850 C   0  0  0  0  0  0  0  0  0  0  0  0
  129.5020  124.3640   59.0290 C   0  0  0  0  0  0  0  0  0  0  0  0
  132.0750  123.5280   61.0410 C   0  0  0  0  0  0  0  0  0  0  0  0
  133.0150  123.8470   62.0310 C   0  0  0  0  0  0  0  0  0  0  0  0
  134.4800  123.4140   61.8310 C   0  0  0  0  0  0  0  0  0  0  0  0
  134.7720  122.2710   62.4550 F   0  0  0  0  0  0  0  0  0  0  0  0
  134.7350  123.2370   60.5340 F   0  0  0  0  0  0  0  0  0  0  0  0
  135.3010  124.3520   62.3070 F   0  0  0  0  0  0  0  0  0  0  0  0
  132.5770  124.5530   63.1790 C   0  0  0  0  0  0  0  0  0  0  0  0
  133.5070  124.8620   64.2690 C   0  0  0  0  0  0  0  0  0  0  0  0
  134.2430  125.1040   65.1280 N   0  0  0  0  0  0  0  0  0  0  0  0
  129.1740  126.3200   69.6770 C   0  0  0  0  0  0  0  0  0  0  0  0
  129.0040  126.7510   70.9890 C   0  0  0  0  0  0  0  0  0  0  0  0
  126.3927  127.2392   74.6915 H   0  0  0  0  0  0  0  0  0  0  0  0
  127.1356  127.8120   73.1596 H   0  0  0  0  0  0  0  0  0  0  0  0
  126.0899  126.3514   73.1596 H   0  0  0  0  0  0  0  0  0  0  0  0
  130.2350  124.0208   72.6227 H   0  0  0  0  0  0  0  0  0  0  0  0
  130.5401  123.2485   70.2806 H   0  0  0  0  0  0  0  0  0  0  0  0
  130.5480  124.0240   67.8620 H   0  0  0  0  0  0  0  0  0  0  0  0
  130.2252  123.7161   65.8102 H   0  0  0  0  0  0  0  0  0  0  0  0
  128.6688  124.3044   65.0822 H   0  0  0  0  0  0  0  0  0  0  0  0
  128.9806  121.8042   61.2205 H   0  0  0  0  0  0  0  0  0  0  0  0
  127.2353  121.2510   59.5378 H   0  0  0  0  0  0  0  0  0  0  0  0
  126.9408  122.6968   57.5307 H   0  0  0  0  0  0  0  0  0  0  0  0
  128.3972  124.6888   57.1952 H   0  0  0  0  0  0  0  0  0  0  0  0
  130.1419  125.2457   58.8768 H   0  0  0  0  0  0  0  0  0  0  0  0
  132.3936  122.9816   60.1410 H   0  0  0  0  0  0  0  0  0  0  0  0
  128.8696  126.9715   68.8446 H   0  0  0  0  0  0  0  0  0  0  0  0
  128.5676  127.7416   71.1848 H   0  0  0  0  0  0  0  0  0  0  0  0
  1  2  1  0
  2  3  1  0
  3  4  2  0
  3  5  1  0
  5  6  2  0
  6  7  1  0
  7  8  2  0
  8  9  1  0
  9 10  1  0
 10 11  2  0
 10 12  1  0
 12 13  1  0
 13 14  1  0
 14 15  2  0
 15 16  1  0
 16 17  1  0
 17 18  2  0
 18 19  1  0
 19 20  2  0
 20 21  1  0
 21 22  2  0
 16 23  2  0
 23 24  1  0
 24 25  1  0
 25 26  1  0
 25 27  1  0
 25 28  1  0
 24 29  2  0
 29 30  1  0
 30 31  3  0
  8 32  1  0
 32 33  2  0
 33  5  1  0
 29 14  1  0
 22 17  1  0
  1 34  1  0
  1 35  1  0
  1 36  1  0
  6 37  1  0
  7 38  1  0
  9 39  1  0
 12 40  1  0
 12 41  1  0
 18 42  1  0
 19 43  1  0
 20 44  1  0
 21 45  1  0
 22 46  1  0
 23 47  1  0
 32 48  1  0
 33 49  1  0
M  END
>  <Binding energies>  (1) 
[-8.12]

>  <Ligand effiencies>  (1) 
[-0.23882352941176468]

>  <Interactions>  (1) 
["V-A:HIS:456:CD2:4068, H-B:LYS:547:NZ:9923, V-B:GLU:543:C:9874, H-A:LYS:547:NZ:4951, V-B:GLU:543:CB:9878, V-A:HIS:456:CE1:4069, V-B:GLU:543:CG:9879, V-B:GLU:543:CA:9876, V-A:TYR:484:CZ:4347, V-A:TYR:484:CE1:4345, H-A:GLY:454:N:4050, V-A:ARG:545:CZ:4926, V-A:GLY:453:CA:4044, H-A:TYR:484:OH:4348, V-A:GLY:453:C:4042, V-A:GLY:454:CA:4049, H-A:ARG:545:NE:4924, V-A:ASP:366:CG:3213, V-B:TYR:539:CE2:9848, V-A:ILE:369:CB:3236, V-A:ILE:369:CG2:3237, V-B:PRO:540:CA:9855, V-A:ILE:369:CG1:3238, V-A:ILE:369:CD1:3239, V-B:TYR:539:CD2:9846, V-B:PRO:540:N:9856, V-B:TYR:539:C:9839, V-A:HIS:456:CG:4066, V-A:TYR:484:CE2:4346, V-A:TYR:484:CD1:4343, V-B:PRO:540:C:9853, V-B:LYS:547:CD:9921, V-B:TYR:539:CZ:9849, H-B:GLU:543:O:9875, H-A:HIS:456:ND1:4067"]

$$$$
3ac_Grossjean_2025
     RDKit          3D

 47 49  0  0  0  0  0  0  0  0999 V2000
  127.1640  126.6220   74.3560 C   0  0  0  0  0  0  0  0  0  0  0  0
  128.2200  125.8800   73.7540 O   0  0  0  0  0  0  0  0  0  0  0  0
  128.3910  125.9380   72.3840 C   0  0  0  0  0  0  0  0  0  0  0  0
  129.1880  124.9460   71.8130 C   0  0  0  0  0  0  0  0  0  0  0  0
  129.4130  124.9220   70.4400 C   0  0  0  0  0  0  0  0  0  0  0  0
  128.8490  125.8970   69.6170 C   0  0  0  0  0  0  0  0  0  0  0  0
  129.1170  125.7770   68.2400 N   0  0  0  0  0  0  0  0  0  0  0  0
  129.6550  126.6830   67.3950 C   0  0  0  0  0  0  0  0  0  0  0  0
  130.0600  127.8010   67.7150 O   0  0  0  0  0  0  0  0  0  0  0  0
  129.7570  126.2430   65.9340 C   0  0  0  0  0  0  0  0  0  0  0  0
  130.0750  124.4590   65.7740 S   0  0  0  0  0  0  0  0  0  0  0  0
  130.6970  124.1340   64.1350 C   0  0  0  0  0  0  0  0  0  0  0  0
  129.7170  123.8910   63.2320 N   0  0  0  0  0  0  0  0  0  0  0  0
  130.0380  123.6330   61.9380 C   0  0  0  0  0  0  0  0  0  0  0  0
  128.8950  123.3680   61.0040 C   0  0  0  0  0  0  0  0  0  0  0  0
  127.5660  123.4860   61.4430 C   0  0  0  0  0  0  0  0  0  0  0  0
  126.5010  123.2460   60.5800 C   0  0  0  0  0  0  0  0  0  0  0  0
  126.7510  122.8820   59.2610 C   0  0  0  0  0  0  0  0  0  0  0  0
  128.0560  122.7530   58.8010 C   0  0  0  0  0  0  0  0  0  0  0  0
  129.1190  122.9930   59.6680 C   0  0  0  0  0  0  0  0  0  0  0  0
  131.3740  123.5960   61.5250 C   0  0  0  0  0  0  0  0  0  0  0  0
  132.4080  123.8220   62.4450 C   0  0  0  0  0  0  0  0  0  0  0  0
  133.8660  123.7670   61.9480 C   0  0  0  0  0  0  0  0  0  0  0  0
  134.4750  122.6200   62.2560 F   0  0  0  0  0  0  0  0  0  0  0  0
  133.9070  123.8930   60.6200 F   0  0  0  0  0  0  0  0  0  0  0  0
  134.5700  124.7570   62.4980 F   0  0  0  0  0  0  0  0  0  0  0  0
  132.0690  124.0850   63.7950 C   0  0  0  0  0  0  0  0  0  0  0  0
  133.1150  124.2510   64.8060 C   0  0  0  0  0  0  0  0  0  0  0  0
  133.9430  124.3810   65.6050 N   0  0  0  0  0  0  0  0  0  0  0  0
  128.0400  126.8950   70.1820 C   0  0  0  0  0  0  0  0  0  0  0  0
  127.8160  126.9160   71.5560 C   0  0  0  0  0  0  0  0  0  0  0  0
  127.2508  126.5610   75.4509 H   0  0  0  0  0  0  0  0  0  0  0  0
  127.2291  127.6739   74.0411 H   0  0  0  0  0  0  0  0  0  0  0  0
  126.1964  126.2042   74.0411 H   0  0  0  0  0  0  0  0  0  0  0  0
  129.6426  124.1759   72.4536 H   0  0  0  0  0  0  0  0  0  0  0  0
  130.0385  124.1305   70.0015 H   0  0  0  0  0  0  0  0  0  0  0  0
  128.9180  124.8660   67.8540 H   0  0  0  0  0  0  0  0  0  0  0  0
  128.8111  126.4812   65.4255 H   0  0  0  0  0  0  0  0  0  0  0  0
  130.6027  126.7789   65.4783 H   0  0  0  0  0  0  0  0  0  0  0  0
  127.3638  123.7727   62.4856 H   0  0  0  0  0  0  0  0  0  0  0  0
  125.4660  123.3437   60.9394 H   0  0  0  0  0  0  0  0  0  0  0  0
  125.9099  122.6949   58.5772 H   0  0  0  0  0  0  0  0  0  0  0  0
  128.2483  122.4628   57.7575 H   0  0  0  0  0  0  0  0  0  0  0  0
  130.1507  122.8874   59.3014 H   0  0  0  0  0  0  0  0  0  0  0  0
  131.6150  123.3883   60.4720 H   0  0  0  0  0  0  0  0  0  0  0  0
  127.5826  127.6612   69.5388 H   0  0  0  0  0  0  0  0  0  0  0  0
  127.1853  127.7028   71.9955 H   0  0  0  0  0  0  0  0  0  0  0  0
  1  2  1  0
  2  3  1  0
  3  4  2  0
  4  5  1  0
  5  6  2  0
  6  7  1  0
  7  8  1  0
  8  9  2  0
  8 10  1  0
 10 11  1  0
 11 12  1  0
 12 13  2  0
 13 14  1  0
 14 15  1  0
 15 16  2  0
 16 17  1  0
 17 18  2  0
 18 19  1  0
 19 20  2  0
 14 21  2  0
 21 22  1  0
 22 23  1  0
 23 24  1  0
 23 25  1  0
 23 26  1  0
 22 27  2  0
 27 28  1  0
 28 29  3  0
  6 30  1  0
 30 31  2  0
 31  3  1  0
 27 12  1  0
 20 15  1  0
  1 32  1  0
  1 33  1  0
  1 34  1  0
  4 35  1  0
  5 36  1  0
  7 37  1  0
 10 38  1  0
 10 39  1  0
 16 40  1  0
 17 41  1  0
 18 42  1  0
 19 43  1  0
 20 44  1  0
 21 45  1  0
 30 46  1  0
 31 47  1  0
M  END
>  <Binding energies>  (1) 
[-7.96]

>  <Ligand effiencies>  (1) 
[-0.24875]

>  <Interactions>  (1) 
["V-A:HIS:456:CD2:4068, V-B:GLU:543:CD:9880, H-B:LYS:547:NZ:9923, V-B:GLU:543:C:9874, V-A:HIS:456:CE1:4069, H-A:HIS:456:NE2:4070, V-B:HIS:456:CE1:9040, V-B:GLU:543:CG:9879, V-A:GLU:543:CD:4908, H-A:GLY:454:N:4050, V-A:ARG:545:CZ:4926, V-A:GLY:453:CA:4044, H-A:TYR:484:OH:4348, V-A:GLY:453:C:4042, V-A:GLY:454:CA:4049, V-A:ASP:366:CG:3213, V-B:TYR:539:CE2:9848, V-B:PRO:540:CA:9855, V-A:ILE:369:CD1:3239, V-B:TYR:539:CD2:9846, V-B:PRO:540:CB:9857, V-B:GLY:544:C:9884, V-B:PRO:540:N:9856, V-B:TYR:539:C:9839, V-B:PRO:540:C:9853, V-B:LYS:547:CD:9921, H-B:GLU:543:O:9875, V-B:LYS:547:CE:9922"]

$$$$
3ad_Grossjean_2025
     RDKit          3D

 43 45  0  0  0  0  0  0  0  0999 V2000
  123.3780  134.2900   61.0460 N   0  0  0  0  0  0  0  0  0  0  0  0
  124.4620  133.8940   60.9630 C   0  0  0  0  0  0  0  0  0  0  0  0
  125.8370  133.3960   60.8600 C   0  0  0  0  0  0  0  0  0  0  0  0
  126.9370  134.2490   61.1160 C   0  0  0  0  0  0  0  0  0  0  0  0
  126.7680  135.7160   61.5550 C   0  0  0  0  0  0  0  0  0  0  0  0
  127.2000  136.5850   60.6390 F   0  0  0  0  0  0  0  0  0  0  0  0
  125.4790  135.9770   61.7810 F   0  0  0  0  0  0  0  0  0  0  0  0
  127.4580  135.9420   62.6750 F   0  0  0  0  0  0  0  0  0  0  0  0
  128.2340  133.7360   60.9570 C   0  0  0  0  0  0  0  0  0  0  0  0
  128.4260  132.4110   60.5520 C   0  0  0  0  0  0  0  0  0  0  0  0
  129.7890  131.8170   60.3530 C   0  0  0  0  0  0  0  0  0  0  0  0
  130.5930  131.4810   61.4530 C   0  0  0  0  0  0  0  0  0  0  0  0
  131.8580  130.9290   61.2750 C   0  0  0  0  0  0  0  0  0  0  0  0
  132.3380  130.7030   59.9880 C   0  0  0  0  0  0  0  0  0  0  0  0
  131.5600  131.0240   58.8820 C   0  0  0  0  0  0  0  0  0  0  0  0
  130.2940  131.5760   59.0640 C   0  0  0  0  0  0  0  0  0  0  0  0
  127.3680  131.5990   60.3020 N   0  0  0  0  0  0  0  0  0  0  0  0
  126.1080  132.0650   60.4680 C   0  0  0  0  0  0  0  0  0  0  0  0
  124.8480  130.8620   60.1080 S   0  0  0  0  0  0  0  0  0  0  0  0
  123.6130  130.9600   61.4380 C   0  0  0  0  0  0  0  0  0  0  0  0
  124.1500  130.4250   62.7670 C   0  0  0  0  0  0  0  0  0  0  0  0
  123.3740  130.2800   63.7120 O   0  0  0  0  0  0  0  0  0  0  0  0
  125.4720  130.1500   62.7890 N   0  0  0  0  0  0  0  0  0  0  0  0
  126.2690  129.6400   63.8310 C   0  0  0  0  0  0  0  0  0  0  0  0
  127.5440  129.2030   63.4590 C   0  0  0  0  0  0  0  0  0  0  0  0
  128.4130  128.6770   64.4120 C   0  0  0  0  0  0  0  0  0  0  0  0
  128.0050  128.5830   65.7390 C   0  0  0  0  0  0  0  0  0  0  0  0
  126.7360  129.0070   66.1220 C   0  0  0  0  0  0  0  0  0  0  0  0
  125.8640  129.5340   65.1720 C   0  0  0  0  0  0  0  0  0  0  0  0
  129.1044  134.3798   61.1520 H   0  0  0  0  0  0  0  0  0  0  0  0
  130.2174  131.6567   62.4719 H   0  0  0  0  0  0  0  0  0  0  0  0
  132.4762  130.6723   62.1479 H   0  0  0  0  0  0  0  0  0  0  0  0
  133.3383  130.2681   59.8457 H   0  0  0  0  0  0  0  0  0  0  0  0
  131.9425  130.8429   57.8667 H   0  0  0  0  0  0  0  0  0  0  0  0
  129.6807  131.8269   58.1859 H   0  0  0  0  0  0  0  0  0  0  0  0
  123.3198  132.0117   61.5722 H   0  0  0  0  0  0  0  0  0  0  0  0
  122.7535  130.3384   61.1467 H   0  0  0  0  0  0  0  0  0  0  0  0
  125.9860  130.3720   61.9490 H   0  0  0  0  0  0  0  0  0  0  0  0
  127.8624  129.2750   62.4085 H   0  0  0  0  0  0  0  0  0  0  0  0
  129.4169  128.3376   64.1171 H   0  0  0  0  0  0  0  0  0  0  0  0
  128.6919  128.1697   66.4923 H   0  0  0  0  0  0  0  0  0  0  0  0
  126.4221  128.9261   67.1731 H   0  0  0  0  0  0  0  0  0  0  0  0
  124.8593  129.8668   65.4716 H   0  0  0  0  0  0  0  0  0  0  0  0
  1  2  3  0
  2  3  1  0
  3  4  2  0
  4  5  1  0
  5  6  1  0
  5  7  1  0
  5  8  1  0
  4  9  1  0
  9 10  2  0
 10 11  1  0
 11 12  2  0
 12 13  1  0
 13 14  2  0
 14 15  1  0
 15 16  2  0
 10 17  1  0
 17 18  2  0
 18 19  1  0
 19 20  1  0
 20 21  1  0
 21 22  2  0
 21 23  1  0
 23 24  1  0
 24 25  2  0
 25 26  1  0
 26 27  2  0
 27 28  1  0
 28 29  2  0
 18  3  1  0
 29 24  1  0
 16 11  1  0
  9 30  1  0
 12 31  1  0
 13 32  1  0
 14 33  1  0
 15 34  1  0
 16 35  1  0
 20 36  1  0
 20 37  1  0
 23 38  1  0
 25 39  1  0
 26 40  1  0
 27 41  1  0
 28 42  1  0
 29 43  1  0
M  END
>  <Binding energies>  (1) 
[-7.2]

>  <Ligand effiencies>  (1) 
[-0.24000000000000002]

>  <Interactions>  (1) 
["V-B:ARG:545:CZ:9898, V-B:HIS:456:CE1:9040, V-A:GLU:543:CD:4908, V-B:TRP:381:CH2:8343, H-B:GLY:454:N:9021, V-B:ASP:366:CG:8184, V-A:ALA:541:CA:4890, V-B:PRO:482:CG:9298, V-B:LEU:475:CD1:9229, V-B:PRO:482:CB:9297, V-A:PRO:540:CA:4883, V-B:ILE:369:CD1:8210, H-B:ARG:545:NH1:9899, V-A:TYR:539:CE2:4876, V-A:ALA:541:CB:4892, V-B:ILE:369:CG2:8208, H-B:ARG:545:NH2:9900, V-A:TYR:539:CD2:4874, V-A:PRO:540:C:4881, V-A:PRO:540:CB:4885, V-B:TRP:381:CZ2:8341, V-B:TRP:381:CZ3:8342, V-B:LEU:475:CD2:9230, V-B:TRP:381:CE2:8338, V-B:TRP:381:CE3:8339"]

$$$$
3af_Grossjean_2025
     RDKit          3D

 42 44  0  0  0  0  0  0  0  0999 V2000
  130.0320  124.5120   68.8620 N   0  0  0  0  0  0  0  0  0  0  0  0
  129.4100  125.2770   68.2560 C   0  0  0  0  0  0  0  0  0  0  0  0
  128.6240  126.2450   67.4870 C   0  0  0  0  0  0  0  0  0  0  0  0
  128.9820  126.5720   66.1570 C   0  0  0  0  0  0  0  0  0  0  0  0
  130.1670  125.9100   65.4270 C   0  0  0  0  0  0  0  0  0  0  0  0
  130.3640  126.4060   64.2030 F   0  0  0  0  0  0  0  0  0  0  0  0
  131.2900  126.0960   66.1210 F   0  0  0  0  0  0  0  0  0  0  0  0
  129.9500  124.6010   65.2950 F   0  0  0  0  0  0  0  0  0  0  0  0
  128.2310  127.5460   65.4800 C   0  0  0  0  0  0  0  0  0  0  0  0
  127.1550  128.1750   66.1140 C   0  0  0  0  0  0  0  0  0  0  0  0
  126.3310  129.2340   65.4450 C   0  0  0  0  0  0  0  0  0  0  0  0
  126.9320  130.1910   64.6100 C   0  0  0  0  0  0  0  0  0  0  0  0
  126.1720  131.1750   63.9840 C   0  0  0  0  0  0  0  0  0  0  0  0
  124.7970  131.2160   64.1840 C   0  0  0  0  0  0  0  0  0  0  0  0
  124.1760  130.2790   65.0030 C   0  0  0  0  0  0  0  0  0  0  0  0
  124.9390  129.2950   65.6270 C   0  0  0  0  0  0  0  0  0  0  0  0
  126.8170  127.8610   67.3900 N   0  0  0  0  0  0  0  0  0  0  0  0
  127.5130  126.9080   68.0570 C   0  0  0  0  0  0  0  0  0  0  0  0
  126.9140  126.6230   69.7100 S   0  0  0  0  0  0  0  0  0  0  0  0
  128.2020  127.1590   70.8750 C   0  0  0  0  0  0  0  0  0  0  0  0
  128.5740  126.0520   71.8610 C   0  0  0  0  0  0  0  0  0  0  0  0
  127.9430  125.9520   72.9140 O   0  0  0  0  0  0  0  0  0  0  0  0
  129.6000  125.2600   71.4820 N   0  0  0  0  0  0  0  0  0  0  0  0
  130.1880  124.1700   72.1530 C   0  0  0  0  0  0  0  0  0  0  0  0
  131.1980  124.2550   73.1300 C   0  0  0  0  0  0  0  0  0  0  0  0
  131.6940  123.0870   73.7140 C   0  0  0  0  0  0  0  0  0  0  0  0
  131.1680  121.8610   73.3070 C   0  0  0  0  0  0  0  0  0  0  0  0
  130.1950  121.7520   72.3680 N   0  0  0  0  0  0  0  0  0  0  0  0
  129.7230  122.8960   71.8100 C   0  0  0  0  0  0  0  0  0  0  0  0
  128.4903  127.8157   64.4456 H   0  0  0  0  0  0  0  0  0  0  0  0
  128.0197  130.1622   64.4485 H   0  0  0  0  0  0  0  0  0  0  0  0
  126.6577  131.9173   63.3335 H   0  0  0  0  0  0  0  0  0  0  0  0
  124.1962  131.9946   63.6913 H   0  0  0  0  0  0  0  0  0  0  0  0
  123.0875  130.3149   65.1572 H   0  0  0  0  0  0  0  0  0  0  0  0
  124.4443  128.5541   66.2723 H   0  0  0  0  0  0  0  0  0  0  0  0
  129.0991  127.4453   70.3065 H   0  0  0  0  0  0  0  0  0  0  0  0
  127.8090  128.0103   71.4501 H   0  0  0  0  0  0  0  0  0  0  0  0
  130.0110  125.4650   70.5840 H   0  0  0  0  0  0  0  0  0  0  0  0
  131.5944  125.2357   73.4318 H   0  0  0  0  0  0  0  0  0  0  0  0
  132.4831  123.1332   74.4790 H   0  0  0  0  0  0  0  0  0  0  0  0
  131.5594  120.9420   73.7677 H   0  0  0  0  0  0  0  0  0  0  0  0
  128.9335  122.8171   71.0482 H   0  0  0  0  0  0  0  0  0  0  0  0
  1  2  3  0
  2  3  1  0
  3  4  2  0
  4  5  1  0
  5  6  1  0
  5  7  1  0
  5  8  1  0
  4  9  1  0
  9 10  2  0
 10 11  1  0
 11 12  2  0
 12 13  1  0
 13 14  2  0
 14 15  1  0
 15 16  2  0
 10 17  1  0
 17 18  2  0
 18 19  1  0
 19 20  1  0
 20 21  1  0
 21 22  2  0
 21 23  1  0
 23 24  1  0
 24 25  2  0
 25 26  1  0
 26 27  2  0
 27 28  1  0
 28 29  2  0
 18  3  1  0
 29 24  1  0
 16 11  1  0
  9 30  1  0
 12 31  1  0
 13 32  1  0
 14 33  1  0
 15 34  1  0
 16 35  1  0
 20 36  1  0
 20 37  1  0
 23 38  1  0
 25 39  1  0
 26 40  1  0
 27 41  1  0
 29 42  1  0
M  END
>  <Binding energies>  (1) 
[-7.21]

>  <Ligand effiencies>  (1) 
[-0.24033333333333334]

>  <Interactions>  (1) 
["V-A:HIS:456:CD2:4068, V-B:GLU:543:CD:9880, H-B:LYS:547:NZ:9923, V-B:GLU:543:C:9874, V-B:GLU:543:CB:9878, V-A:HIS:456:CE1:4069, V-B:ARG:545:CZ:9898, H-A:HIS:456:NE2:4070, V-B:ARG:545:CD:9895, V-B:HIS:456:CE1:9040, V-B:GLU:543:CG:9879, V-A:GLU:543:CD:4908, V-B:GLY:454:CA:9020, V-A:TYR:484:CE1:4345, H-A:TYR:484:OH:4348, H-B:ARG:545:N:9892, V-A:HIS:456:CG:4066, V-A:TYR:484:CD2:4344, V-A:TYR:484:CD1:4343, V-A:HIS:456:CB:4065, V-A:TYR:484:CG:4342, H-B:GLU:543:O:9875, V-B:LYS:547:CE:9922, V-A:ASP:473:CG:4240, V-A:ASP:473:CB:4239, V-A:TYR:484:CB:4341"]

$$$$
3ag_Grossjean_2025
     RDKit          3D

 46 48  0  0  0  0  0  0  0  0999 V2000
  130.1030  124.4800   69.1620 N   0  0  0  0  0  0  0  0  0  0  0  0
  129.4680  125.2160   68.5320 C   0  0  0  0  0  0  0  0  0  0  0  0
  128.6670  126.1460   67.7330 C   0  0  0  0  0  0  0  0  0  0  0  0
  128.9880  126.3970   66.3760 C   0  0  0  0  0  0  0  0  0  0  0  0
  130.1410  125.6790   65.6480 C   0  0  0  0  0  0  0  0  0  0  0  0
  131.3260  125.8850   66.2250 F   0  0  0  0  0  0  0  0  0  0  0  0
  129.9210  124.3640   65.6380 F   0  0  0  0  0  0  0  0  0  0  0  0
  130.2300  126.1120   64.3890 F   0  0  0  0  0  0  0  0  0  0  0  0
  128.2230  127.3370   65.6680 C   0  0  0  0  0  0  0  0  0  0  0  0
  127.1760  128.0160   66.3000 C   0  0  0  0  0  0  0  0  0  0  0  0
  126.3300  129.0310   65.5930 C   0  0  0  0  0  0  0  0  0  0  0  0
  126.8860  129.8760   64.6200 C   0  0  0  0  0  0  0  0  0  0  0  0
  126.1050  130.8210   63.9600 C   0  0  0  0  0  0  0  0  0  0  0  0
  124.7530  130.9340   64.2650 C   0  0  0  0  0  0  0  0  0  0  0  0
  124.1770  130.1100   65.2280 C   0  0  0  0  0  0  0  0  0  0  0  0
  124.9610  129.1680   65.8860 C   0  0  0  0  0  0  0  0  0  0  0  0
  126.8630  127.7640   67.5970 N   0  0  0  0  0  0  0  0  0  0  0  0
  127.5750  126.8460   68.2940 C   0  0  0  0  0  0  0  0  0  0  0  0
  127.0240  126.6440   69.9740 S   0  0  0  0  0  0  0  0  0  0  0  0
  128.4530  126.9540   71.0540 C   0  0  0  0  0  0  0  0  0  0  0  0
  128.1320  126.6910   72.5260 C   0  0  0  0  0  0  0  0  0  0  0  0
  128.5680  125.6780   73.0780 O   0  0  0  0  0  0  0  0  0  0  0  0
  127.3760  127.6130   73.1470 N   0  0  0  0  0  0  0  0  0  0  0  0
  126.9820  127.5790   74.5550 C   0  0  0  0  0  0  0  0  0  0  0  0
  126.0990  128.7470   74.9820 C   0  0  0  0  0  0  0  0  0  0  0  0
  124.7440  128.5330   75.2440 C   0  0  0  0  0  0  0  0  0  0  0  0
  123.9410  129.5910   75.6640 C   0  0  0  0  0  0  0  0  0  0  0  0
  124.4990  130.8570   75.8280 C   0  0  0  0  0  0  0  0  0  0  0  0
  125.8530  131.0740   75.5830 C   0  0  0  0  0  0  0  0  0  0  0  0
  126.6560  130.0160   75.1640 C   0  0  0  0  0  0  0  0  0  0  0  0
  128.4480  127.5408   64.6107 H   0  0  0  0  0  0  0  0  0  0  0  0
  127.9550  129.7904   64.3751 H   0  0  0  0  0  0  0  0  0  0  0  0
  126.5559  131.4759   63.1999 H   0  0  0  0  0  0  0  0  0  0  0  0
  124.1350  131.6789   63.7423 H   0  0  0  0  0  0  0  0  0  0  0  0
  123.1074  130.2034   65.4673 H   0  0  0  0  0  0  0  0  0  0  0  0
  124.5031  128.5198   66.6477 H   0  0  0  0  0  0  0  0  0  0  0  0
  129.2782  126.2942   70.7479 H   0  0  0  0  0  0  0  0  0  0  0  0
  128.7295  128.0139   70.9526 H   0  0  0  0  0  0  0  0  0  0  0  0
  127.0700  128.4170   72.6200 H   0  0  0  0  0  0  0  0  0  0  0  0
  126.4310  126.6445   74.7372 H   0  0  0  0  0  0  0  0  0  0  0  0
  127.9075  127.6480   75.1455 H   0  0  0  0  0  0  0  0  0  0  0  0
  124.3111  127.5296   75.1188 H   0  0  0  0  0  0  0  0  0  0  0  0
  122.8719  129.4277   75.8651 H   0  0  0  0  0  0  0  0  0  0  0  0
  123.8639  131.6938   76.1543 H   0  0  0  0  0  0  0  0  0  0  0  0
  126.2858  132.0760   75.7198 H   0  0  0  0  0  0  0  0  0  0  0  0
  127.7276  130.1789   74.9765 H   0  0  0  0  0  0  0  0  0  0  0  0
  1  2  3  0
  2  3  1  0
  3  4  2  0
  4  5  1  0
  5  6  1  0
  5  7  1  0
  5  8  1  0
  4  9  1  0
  9 10  2  0
 10 11  1  0
 11 12  2  0
 12 13  1  0
 13 14  2  0
 14 15  1  0
 15 16  2  0
 10 17  1  0
 17 18  2  0
 18 19  1  0
 19 20  1  0
 20 21  1  0
 21 22  2  0
 21 23  1  0
 23 24  1  0
 24 25  1  0
 25 26  2  0
 26 27  1  0
 27 28  2  0
 28 29  1  0
 29 30  2  0
 18  3  1  0
 30 25  1  0
 16 11  1  0
  9 31  1  0
 12 32  1  0
 13 33  1  0
 14 34  1  0
 15 35  1  0
 16 36  1  0
 20 37  1  0
 20 38  1  0
 23 39  1  0
 24 40  1  0
 24 41  1  0
 26 42  1  0
 27 43  1  0
 28 44  1  0
 29 45  1  0
 30 46  1  0
M  END
>  <Binding energies>  (1) 
[-7.63]

>  <Ligand effiencies>  (1) 
[-0.2461290322580645]

>  <Interactions>  (1) 
["V-B:ARG:545:CG:9894, V-B:GLU:543:CD:9880, H-B:LYS:547:NZ:9923, V-B:GLU:543:C:9874, V-B:HIS:456:CD2:9039, V-B:GLU:543:CB:9878, V-A:HIS:456:CE1:4069, V-B:ARG:545:CZ:9898, H-A:HIS:456:NE2:4070, V-B:ARG:545:CD:9895, V-B:HIS:456:CE1:9040, V-B:GLU:543:CG:9879, V-A:GLU:543:CD:4908, V-B:GLY:454:CA:9020, V-A:TYR:484:CZ:4347, H-B:HIS:456:ND1:9038, V-A:TYR:484:CE1:4345, H-A:TYR:484:OH:4348, H-B:ARG:545:N:9892, V-B:HIS:456:CB:9036, V-B:HIS:456:C:9032, V-B:VAL:458:CG2:9058, V-B:VAL:457:C:9044, V-B:HIS:456:CG:9037, V-B:HIS:456:CA:9034, V-B:VAL:457:CA:9046, V-B:LYS:471:CE:9191, V-B:LYS:471:CG:9189, V-B:ASP:473:CG:9211"]

$$$$
3ai_Grossjean_2025
     RDKit          3D

 39 41  0  0  0  0  0  0  0  0999 V2000
  125.2610  129.1420   67.3290 N   0  0  0  0  0  0  0  0  0  0  0  0
  126.1580  128.4920   66.9940 C   0  0  0  0  0  0  0  0  0  0  0  0
  127.2950  127.6700   66.5690 C   0  0  0  0  0  0  0  0  0  0  0  0
  127.9340  127.9050   65.3270 C   0  0  0  0  0  0  0  0  0  0  0  0
  127.5160  129.0450   64.3790 C   0  0  0  0  0  0  0  0  0  0  0  0
  128.1870  129.0330   63.2260 F   0  0  0  0  0  0  0  0  0  0  0  0
  126.2170  128.9430   64.0900 F   0  0  0  0  0  0  0  0  0  0  0  0
  127.7390  130.2260   64.9570 F   0  0  0  0  0  0  0  0  0  0  0  0
  128.9870  127.0600   64.9440 C   0  0  0  0  0  0  0  0  0  0  0  0
  129.3890  126.0090   65.7750 C   0  0  0  0  0  0  0  0  0  0  0  0
  130.4990  125.0700   65.4110 C   0  0  0  0  0  0  0  0  0  0  0  0
  130.2230  123.7440   65.0410 C   0  0  0  0  0  0  0  0  0  0  0  0
  131.2490  122.8670   64.6980 C   0  0  0  0  0  0  0  0  0  0  0  0
  132.5680  123.3070   64.7190 C   0  0  0  0  0  0  0  0  0  0  0  0
  132.8680  124.6160   65.0790 C   0  0  0  0  0  0  0  0  0  0  0  0
  131.8400  125.4900   65.4210 C   0  0  0  0  0  0  0  0  0  0  0  0
  128.7680  125.7820   66.9600 N   0  0  0  0  0  0  0  0  0  0  0  0
  127.7650  126.5990   67.3630 C   0  0  0  0  0  0  0  0  0  0  0  0
  127.0880  126.1620   68.9510 S   0  0  0  0  0  0  0  0  0  0  0  0
  128.2490  126.7430   70.2340 C   0  0  0  0  0  0  0  0  0  0  0  0
  128.6380  125.6900   71.2820 C   0  0  0  0  0  0  0  0  0  0  0  0
  128.4570  125.9010   72.4840 O   0  0  0  0  0  0  0  0  0  0  0  0
  129.1760  124.5590   70.7730 N   0  0  0  0  0  0  0  0  0  0  0  0
  129.6100  123.4430   71.4770 C   0  0  0  0  0  0  0  0  0  0  0  0
  130.8360  123.3900   72.1390 C   0  0  0  0  0  0  0  0  0  0  0  0
  130.8870  122.1350   72.6990 C   0  0  0  0  0  0  0  0  0  0  0  0
  129.7500  121.4660   72.3920 O   0  0  0  0  0  0  0  0  0  0  0  0
  128.9480  122.3070   71.6180 N   0  0  0  0  0  0  0  0  0  0  0  0
  129.4993  127.2251   63.9847 H   0  0  0  0  0  0  0  0  0  0  0  0
  129.1808  123.3926   65.0218 H   0  0  0  0  0  0  0  0  0  0  0  0
  131.0170  121.8306   64.4117 H   0  0  0  0  0  0  0  0  0  0  0  0
  133.3793  122.6149   64.4490 H   0  0  0  0  0  0  0  0  0  0  0  0
  133.9129  124.9594   65.0935 H   0  0  0  0  0  0  0  0  0  0  0  0
  132.0811  126.5254   65.7035 H   0  0  0  0  0  0  0  0  0  0  0  0
  129.1681  127.0826   69.7340 H   0  0  0  0  0  0  0  0  0  0  0  0
  127.7281  127.5429   70.7806 H   0  0  0  0  0  0  0  0  0  0  0  0
  129.2750  124.5040   69.7700 H   0  0  0  0  0  0  0  0  0  0  0  0
  131.5978  124.1811   72.2001 H   0  0  0  0  0  0  0  0  0  0  0  0
  131.7183  121.7380   73.3001 H   0  0  0  0  0  0  0  0  0  0  0  0
  1  2  3  0
  2  3  1  0
  3  4  2  0
  4  5  1  0
  5  6  1  0
  5  7  1  0
  5  8  1  0
  4  9  1  0
  9 10  2  0
 10 11  1  0
 11 12  2  0
 12 13  1  0
 13 14  2  0
 14 15  1  0
 15 16  2  0
 10 17  1  0
 17 18  2  0
 18 19  1  0
 19 20  1  0
 20 21  1  0
 21 22  2  0
 21 23  1  0
 23 24  1  0
 24 25  1  0
 25 26  2  0
 26 27  1  0
 27 28  1  0
 18  3  1  0
 28 24  2  0
 16 11  1  0
  9 29  1  0
 12 30  1  0
 13 31  1  0
 14 32  1  0
 15 33  1  0
 16 34  1  0
 20 35  1  0
 20 36  1  0
 23 37  1  0
 25 38  1  0
 26 39  1  0
M  END
>  <Binding energies>  (1) 
[-8.26]

>  <Ligand effiencies>  (1) 
[-0.2848275862068965]

>  <Interactions>  (1) 
["V-B:ARG:545:CG:9894, V-A:HIS:456:CD2:4068, V-B:GLU:543:CD:9880, H-B:LYS:547:NZ:9923, V-B:GLU:543:C:9874, V-B:GLU:543:CB:9878, V-A:HIS:456:CE1:4069, V-B:HIS:456:CE1:9040, V-A:GLU:543:CD:4908, H-B:TYR:484:OH:9319, V-A:TYR:484:CZ:4347, V-A:LEU:475:CD1:4258, V-A:GLU:543:CB:4906, V-A:TYR:484:CE1:4345, V-A:GLY:454:CA:4049, H-B:ARG:545:N:9892, V-A:HIS:456:CG:4066, V-A:TYR:484:CD2:4344, V-A:TYR:484:CE2:4346, V-A:TYR:484:CD1:4343, V-A:HIS:456:CB:4065, V-A:TYR:484:CG:4342, H-B:GLU:543:O:9875, V-A:ASP:473:CB:4239, V-A:TYR:484:CB:4341"]

$$$$
3aj_Grossjean_2025
     RDKit          3D

 39 41  0  0  0  0  0  0  0  0999 V2000
  128.2050  127.6250   63.2440 N   0  0  0  0  0  0  0  0  0  0  0  0
  128.4100  127.3230   64.3420 C   0  0  0  0  0  0  0  0  0  0  0  0
  128.6730  126.9390   65.7320 C   0  0  0  0  0  0  0  0  0  0  0  0
  129.3680  125.7430   66.0330 C   0  0  0  0  0  0  0  0  0  0  0  0
  129.9220  124.8050   64.9430 C   0  0  0  0  0  0  0  0  0  0  0  0
  130.9500  125.3370   64.2770 F   0  0  0  0  0  0  0  0  0  0  0  0
  130.3440  123.6660   65.4920 F   0  0  0  0  0  0  0  0  0  0  0  0
  128.9700  124.5290   64.0510 F   0  0  0  0  0  0  0  0  0  0  0  0
  129.5520  125.3960   67.3810 C   0  0  0  0  0  0  0  0  0  0  0  0
  129.0540  126.2180   68.3970 C   0  0  0  0  0  0  0  0  0  0  0  0
  129.2140  125.8910   69.8500 C   0  0  0  0  0  0  0  0  0  0  0  0
  128.8200  126.8060   70.8380 C   0  0  0  0  0  0  0  0  0  0  0  0
  128.9630  126.5060   72.1910 C   0  0  0  0  0  0  0  0  0  0  0  0
  129.5040  125.2830   72.5740 C   0  0  0  0  0  0  0  0  0  0  0  0
  129.9010  124.3580   71.6140 C   0  0  0  0  0  0  0  0  0  0  0  0
  129.7550  124.6610   70.2630 C   0  0  0  0  0  0  0  0  0  0  0  0
  128.3820  127.3600   68.1030 N   0  0  0  0  0  0  0  0  0  0  0  0
  128.2120  127.7290   66.8110 C   0  0  0  0  0  0  0  0  0  0  0  0
  127.3300  129.2630   66.6200 S   0  0  0  0  0  0  0  0  0  0  0  0
  125.5450  128.8980   66.7270 C   0  0  0  0  0  0  0  0  0  0  0  0
  124.6690  129.6340   65.7020 C   0  0  0  0  0  0  0  0  0  0  0  0
  123.7060  130.3130   66.0670 O   0  0  0  0  0  0  0  0  0  0  0  0
  125.0470  129.4690   64.4150 N   0  0  0  0  0  0  0  0  0  0  0  0
  124.4410  130.0220   63.2950 C   0  0  0  0  0  0  0  0  0  0  0  0
  123.2350  130.5400   63.2030 N   0  0  0  0  0  0  0  0  0  0  0  0
  122.9870  130.9790   61.9850 C   0  0  0  0  0  0  0  0  0  0  0  0
  124.0100  130.8200   61.0530 C   0  0  0  0  0  0  0  0  0  0  0  0
  125.3630  130.0510   61.8260 S   0  0  0  0  0  0  0  0  0  0  0  0
  130.0908  124.4725   67.6394 H   0  0  0  0  0  0  0  0  0  0  0  0
  128.3919  127.7745   70.5400 H   0  0  0  0  0  0  0  0  0  0  0  0
  128.6492  127.2338   72.9538 H   0  0  0  0  0  0  0  0  0  0  0  0
  129.6185  125.0461   73.6421 H   0  0  0  0  0  0  0  0  0  0  0  0
  130.3282  123.3919   71.9207 H   0  0  0  0  0  0  0  0  0  0  0  0
  130.0680  123.9262   69.5067 H   0  0  0  0  0  0  0  0  0  0  0  0
  125.4084  127.8167   66.5786 H   0  0  0  0  0  0  0  0  0  0  0  0
  125.2187  129.2477   67.7176 H   0  0  0  0  0  0  0  0  0  0  0  0
  125.8580  128.8930   64.2380 H   0  0  0  0  0  0  0  0  0  0  0  0
  122.0264  131.4446   61.7196 H   0  0  0  0  0  0  0  0  0  0  0  0
  123.9681  131.1308   59.9987 H   0  0  0  0  0  0  0  0  0  0  0  0
  1  2  3  0
  2  3  1  0
  3  4  2  0
  4  5  1  0
  5  6  1  0
  5  7  1  0
  5  8  1  0
  4  9  1  0
  9 10  2  0
 10 11  1  0
 11 12  2  0
 12 13  1  0
 13 14  2  0
 14 15  1  0
 15 16  2  0
 10 17  1  0
 17 18  2  0
 18 19  1  0
 19 20  1  0
 20 21  1  0
 21 22  2  0
 21 23  1  0
 23 24  1  0
 24 25  2  0
 25 26  1  0
 26 27  2  0
 27 28  1  0
 18  3  1  0
 28 24  1  0
 16 11  1  0
  9 29  1  0
 12 30  1  0
 13 31  1  0
 14 32  1  0
 15 33  1  0
 16 34  1  0
 20 35  1  0
 20 36  1  0
 23 37  1  0
 26 38  1  0
 27 39  1  0
M  END
>  <Binding energies>  (1) 
[-7.4]

>  <Ligand effiencies>  (1) 
[-0.25517241379310346]

>  <Interactions>  (1) 
["V-B:ARG:545:CG:9894, V-A:HIS:456:CD2:4068, V-B:GLU:543:CD:9880, V-B:GLU:543:CB:9878, V-A:HIS:456:CE1:4069, V-B:ARG:545:CZ:9898, V-B:ARG:545:CD:9895, V-B:HIS:456:CE1:9040, V-B:GLU:543:CG:9879, H-B:GLY:454:N:9021, V-B:ASP:366:CG:8184, V-B:ILE:369:CD1:8210, H-B:ARG:545:NH1:9899, H-B:ILE:455:N:9026, H-B:TYR:484:OH:9319, H-B:ARG:545:NH2:9900, V-A:TYR:484:CZ:4347, V-A:TYR:484:CE1:4345, V-A:HIS:456:CG:4066, H-B:GLU:543:OE1:9881"]

$$$$
3ak_Grossjean_2025
     RDKit          3D

 57 58  0  0  0  0  0  0  0  0999 V2000
  129.7490  131.3500   61.7080 C   0  0  0  0  0  0  0  0  0  0  0  0
  129.4440  132.7070   61.4270 O   0  0  0  0  0  0  0  0  0  0  0  0
  128.0550  132.9490   61.2530 C   0  0  0  0  0  0  0  0  0  0  0  0
  127.7930  134.4560   61.3640 C   0  0  0  0  0  0  0  0  0  0  0  0
  126.3910  134.6750   61.4810 O   0  0  0  0  0  0  0  0  0  0  0  0
  125.5620  133.6440   60.9500 C   0  0  0  0  0  0  0  0  0  0  0  0
  124.1670  133.5750   61.5980 C   0  0  0  0  0  0  0  0  0  0  0  0
  124.0560  132.3700   62.3410 O   0  0  0  0  0  0  0  0  0  0  0  0
  125.2810  131.6590   62.4730 C   0  0  0  0  0  0  0  0  0  0  0  0
  125.0100  130.1460   62.5600 C   0  0  0  0  0  0  0  0  0  0  0  0
  125.4420  129.5460   63.8240 N   0  0  0  0  0  0  0  0  0  0  0  0
  124.8090  129.6540   65.0070 C   0  0  0  0  0  0  0  0  0  0  0  0
  123.7550  130.2770   65.1450 O   0  0  0  0  0  0  0  0  0  0  0  0
  125.4230  128.9720   66.2410 C   0  0  0  0  0  0  0  0  0  0  0  0
  127.1630  129.3920   66.6270 S   0  0  0  0  0  0  0  0  0  0  0  0
  128.0930  127.8770   66.8020 C   0  0  0  0  0  0  0  0  0  0  0  0
  128.2970  127.4580   68.0750 N   0  0  0  0  0  0  0  0  0  0  0  0
  128.9980  126.3200   68.3110 C   0  0  0  0  0  0  0  0  0  0  0  0
  129.1750  125.9310   69.7480 C   0  0  0  0  0  0  0  0  0  0  0  0
  129.7820  124.7140   70.0930 C   0  0  0  0  0  0  0  0  0  0  0  0
  129.9520  124.3490   71.4260 C   0  0  0  0  0  0  0  0  0  0  0  0
  129.5180  125.2010   72.4350 C   0  0  0  0  0  0  0  0  0  0  0  0
  128.9160  126.4140   72.1220 C   0  0  0  0  0  0  0  0  0  0  0  0
  128.7480  126.7760   70.7880 C   0  0  0  0  0  0  0  0  0  0  0  0
  129.5040  125.5580   67.2530 C   0  0  0  0  0  0  0  0  0  0  0  0
  129.3060  125.9670   65.9260 C   0  0  0  0  0  0  0  0  0  0  0  0
  129.8810  125.1020   64.7870 C   0  0  0  0  0  0  0  0  0  0  0  0
  128.9340  124.8490   63.8840 F   0  0  0  0  0  0  0  0  0  0  0  0
  130.8870  125.7420   64.1900 F   0  0  0  0  0  0  0  0  0  0  0  0
  130.3520  123.9290   65.2150 F   0  0  0  0  0  0  0  0  0  0  0  0
  128.5820  127.1600   65.6880 C   0  0  0  0  0  0  0  0  0  0  0  0
  128.3450  127.6370   64.3220 C   0  0  0  0  0  0  0  0  0  0  0  0
  128.1580  128.0150   63.2430 N   0  0  0  0  0  0  0  0  0  0  0  0
  129.7828  131.1997   62.7972 H   0  0  0  0  0  0  0  0  0  0  0  0
  128.9740  130.7022   61.2723 H   0  0  0  0  0  0  0  0  0  0  0  0
  130.7266  131.0961   61.2723 H   0  0  0  0  0  0  0  0  0  0  0  0
  127.7398  132.5919   60.2615 H   0  0  0  0  0  0  0  0  0  0  0  0
  127.4848  132.4146   62.0272 H   0  0  0  0  0  0  0  0  0  0  0  0
  128.3041  134.8548   62.2527 H   0  0  0  0  0  0  0  0  0  0  0  0
  128.1756  134.9669   60.4681 H   0  0  0  0  0  0  0  0  0  0  0  0
  125.4355  133.8211   59.8717 H   0  0  0  0  0  0  0  0  0  0  0  0
  126.0626  132.6879   61.1629 H   0  0  0  0  0  0  0  0  0  0  0  0
  124.0305  134.4353   62.2698 H   0  0  0  0  0  0  0  0  0  0  0  0
  123.3945  133.5988   60.8153 H   0  0  0  0  0  0  0  0  0  0  0  0
  125.9167  131.8648   61.5992 H   0  0  0  0  0  0  0  0  0  0  0  0
  125.7891  131.9864   63.3920 H   0  0  0  0  0  0  0  0  0  0  0  0
  123.9286  129.9791   62.4472 H   0  0  0  0  0  0  0  0  0  0  0  0
  125.5923  129.6669   61.7592 H   0  0  0  0  0  0  0  0  0  0  0  0
  126.2920  129.0000   63.7880 H   0  0  0  0  0  0  0  0  0  0  0  0
  124.8117  129.2467   67.1132 H   0  0  0  0  0  0  0  0  0  0  0  0
  125.4285  127.8973   66.0065 H   0  0  0  0  0  0  0  0  0  0  0  0
  130.1290  124.0376   69.2980 H   0  0  0  0  0  0  0  0  0  0  0  0
  130.4279  123.3902   71.6796 H   0  0  0  0  0  0  0  0  0  0  0  0
  129.6519  124.9133   73.4882 H   0  0  0  0  0  0  0  0  0  0  0  0
  128.5740  127.0846   72.9241 H   0  0  0  0  0  0  0  0  0  0  0  0
  128.2738  127.7380   70.5437 H   0  0  0  0  0  0  0  0  0  0  0  0
  130.0605  124.6326   67.4628 H   0  0  0  0  0  0  0  0  0  0  0  0
  1  2  1  0
  2  3  1  0
  3  4  1  0
  4  5  1  0
  5  6  1  0
  6  7  1  0
  7  8  1  0
  8  9  1  0
  9 10  1  0
 10 11  1  0
 11 12  1  0
 12 13  2  0
 12 14  1  0
 14 15  1  0
 15 16  1  0
 16 17  2  0
 17 18  1  0
 18 19  1  0
 19 20  2  0
 20 21  1  0
 21 22  2  0
 22 23  1  0
 23 24  2  0
 18 25  2  0
 25 26  1  0
 26 27  1  0
 27 28  1  0
 27 29  1  0
 27 30  1  0
 26 31  2  0
 31 32  1  0
 32 33  3  0
 31 16  1  0
 24 19  1  0
  1 34  1  0
  1 35  1  0
  1 36  1  0
  3 37  1  0
  3 38  1  0
  4 39  1  0
  4 40  1  0
  6 41  1  0
  6 42  1  0
  7 43  1  0
  7 44  1  0
  9 45  1  0
  9 46  1  0
 10 47  1  0
 10 48  1  0
 11 49  1  0
 14 50  1  0
 14 51  1  0
 20 52  1  0
 21 53  1  0
 22 54  1  0
 23 55  1  0
 24 56  1  0
 25 57  1  0
M  END
>  <Binding energies>  (1) 
[-5.95]

>  <Ligand effiencies>  (1) 
[-0.17500000000000002]

>  <Interactions>  (1) 
["V-B:ARG:545:CG:9894, V-A:HIS:456:CD2:4068, V-B:GLU:543:CD:9880, V-B:GLU:543:CB:9878, V-A:HIS:456:CE1:4069, V-B:ARG:545:CZ:9898, V-B:ARG:545:CD:9895, V-B:HIS:456:CE1:9040, V-B:GLU:543:CG:9879, V-A:GLU:543:CD:4908, H-B:GLY:454:N:9021, V-B:LEU:475:CD1:9229, V-B:ILE:369:CD1:8210, V-A:TYR:539:CE2:4876, V-A:ALA:541:CB:4892, H-B:TYR:484:OH:9319, V-B:ILE:369:CG2:8208, V-A:TYR:539:CD2:4874, H-B:ARG:545:NE:9896, V-A:TYR:484:CZ:4347, V-A:TYR:484:CE1:4345, H-A:ALA:541:N:4891, V-A:HIS:456:CG:4066, H-B:GLU:543:OE1:9881"]

$$$$
3bc_Grossjean_2025
     RDKit          3D

 47 49  0  0  0  0  0  0  0  0999 V2000
  127.1250  126.9400   74.1690 C   0  0  0  0  0  0  0  0  0  0  0  0
  128.2660  126.1530   73.8460 O   0  0  0  0  0  0  0  0  0  0  0  0
  128.5680  125.9180   72.5180 C   0  0  0  0  0  0  0  0  0  0  0  0
  127.9130  126.7180   71.5810 C   0  0  0  0  0  0  0  0  0  0  0  0
  128.1520  126.5560   70.2190 C   0  0  0  0  0  0  0  0  0  0  0  0
  129.0470  125.5810   69.7740 C   0  0  0  0  0  0  0  0  0  0  0  0
  129.2330  125.4990   68.3810 N   0  0  0  0  0  0  0  0  0  0  0  0
  129.7180  126.4290   67.5300 C   0  0  0  0  0  0  0  0  0  0  0  0
  130.1290  127.5410   67.8670 O   0  0  0  0  0  0  0  0  0  0  0  0
  129.7670  125.9890   66.0600 C   0  0  0  0  0  0  0  0  0  0  0  0
  130.1040  124.2160   65.7910 S   0  0  0  0  0  0  0  0  0  0  0  0
  130.6940  124.0210   64.1240 C   0  0  0  0  0  0  0  0  0  0  0  0
  129.7090  123.8000   63.2190 N   0  0  0  0  0  0  0  0  0  0  0  0
  130.0210  123.6360   61.9070 C   0  0  0  0  0  0  0  0  0  0  0  0
  128.8760  123.3740   60.9740 C   0  0  0  0  0  0  0  0  0  0  0  0
  129.1080  123.0090   59.6400 C   0  0  0  0  0  0  0  0  0  0  0  0
  128.0500  122.7640   58.7680 C   0  0  0  0  0  0  0  0  0  0  0  0
  126.7410  122.8850   59.2210 C   0  0  0  0  0  0  0  0  0  0  0  0
  126.4830  123.2490   60.5390 C   0  0  0  0  0  0  0  0  0  0  0  0
  127.5440  123.4930   61.4070 C   0  0  0  0  0  0  0  0  0  0  0  0
  131.3490  123.6900   61.4710 C   0  0  0  0  0  0  0  0  0  0  0  0
  132.3750  123.9410   62.3890 C   0  0  0  0  0  0  0  0  0  0  0  0
  133.8090  124.0090   61.8660 C   0  0  0  0  0  0  0  0  0  0  0  0
  132.0540  124.1230   63.7520 C   0  0  0  0  0  0  0  0  0  0  0  0
  133.1060  124.4350   64.7220 C   0  0  0  0  0  0  0  0  0  0  0  0
  133.9390  124.6800   65.4860 N   0  0  0  0  0  0  0  0  0  0  0  0
  129.7190  124.7810   70.7100 C   0  0  0  0  0  0  0  0  0  0  0  0
  129.4780  124.9470   72.0710 C   0  0  0  0  0  0  0  0  0  0  0  0
  127.0248  127.0091   75.2622 H   0  0  0  0  0  0  0  0  0  0  0  0
  127.2441  127.9489   73.7472 H   0  0  0  0  0  0  0  0  0  0  0  0
  126.2242  126.4702   73.7472 H   0  0  0  0  0  0  0  0  0  0  0  0
  127.2009  127.4841   71.9217 H   0  0  0  0  0  0  0  0  0  0  0  0
  127.6342  127.1981   69.4913 H   0  0  0  0  0  0  0  0  0  0  0  0
  129.0250  124.5940   67.9850 H   0  0  0  0  0  0  0  0  0  0  0  0
  128.7950  126.2241   65.6018 H   0  0  0  0  0  0  0  0  0  0  0  0
  130.6092  126.5322   65.6065 H   0  0  0  0  0  0  0  0  0  0  0  0
  130.1419  122.9147   59.2766 H   0  0  0  0  0  0  0  0  0  0  0  0
  128.2491  122.4760   57.7252 H   0  0  0  0  0  0  0  0  0  0  0  0
  125.9044  122.6918   58.5334 H   0  0  0  0  0  0  0  0  0  0  0  0
  125.4460  123.3435   60.8934 H   0  0  0  0  0  0  0  0  0  0  0  0
  127.3367  123.7833   62.4475 H   0  0  0  0  0  0  0  0  0  0  0  0
  131.5865  123.5354   60.4081 H   0  0  0  0  0  0  0  0  0  0  0  0
  134.5077  124.0421   62.7149 H   0  0  0  0  0  0  0  0  0  0  0  0
  134.0184  123.1198   61.2533 H   0  0  0  0  0  0  0  0  0  0  0  0
  133.9333  124.9140   61.2533 H   0  0  0  0  0  0  0  0  0  0  0  0
  130.4374  124.0214   70.3681 H   0  0  0  0  0  0  0  0  0  0  0  0
  130.0038  124.3135   72.8006 H   0  0  0  0  0  0  0  0  0  0  0  0
  1  2  1  0
  2  3  1  0
  3  4  2  0
  4  5  1  0
  5  6  2  0
  6  7  1  0
  7  8  1  0
  8  9  2  0
  8 10  1  0
 10 11  1  0
 11 12  1  0
 12 13  2  0
 13 14  1  0
 14 15  1  0
 15 16  2  0
 16 17  1  0
 17 18  2  0
 18 19  1  0
 19 20  2  0
 14 21  2  0
 21 22  1  0
 22 23  1  0
 22 24  2  0
 24 25  1  0
 25 26  3  0
  6 27  1  0
 27 28  2  0
 28  3  1  0
 24 12  1  0
 20 15  1  0
  1 29  1  0
  1 30  1  0
  1 31  1  0
  4 32  1  0
  5 33  1  0
  7 34  1  0
 10 35  1  0
 10 36  1  0
 16 37  1  0
 17 38  1  0
 18 39  1  0
 19 40  1  0
 20 41  1  0
 21 42  1  0
 23 43  1  0
 23 44  1  0
 23 45  1  0
 27 46  1  0
 28 47  1  0
M  END
>  <Binding energies>  (1) 
[-8.34]

>  <Ligand effiencies>  (1) 
[-0.28758620689655173]

>  <Interactions>  (1) 
["V-A:HIS:456:CD2:4068, V-B:GLU:543:CD:9880, H-B:LYS:547:NZ:9923, V-B:GLU:543:C:9874, V-A:HIS:456:CE1:4069, H-A:HIS:456:NE2:4070, V-B:HIS:456:CE1:9040, V-B:GLU:543:CG:9879, H-A:GLY:454:N:4050, H-A:TYR:484:OH:4348, H-A:ARG:545:NE:4924, V-A:ASP:366:CG:3213, V-B:TYR:539:CE2:9848, V-B:PRO:540:CA:9855, V-B:TYR:539:CD2:9846, V-B:PRO:540:CB:9857, V-B:GLY:544:C:9884, V-B:PRO:540:N:9856, V-B:TYR:539:C:9839, V-A:HIS:456:CG:4066, V-B:PRO:540:C:9853, V-B:LYS:547:CD:9921, H-B:GLU:543:O:9875"]

$$$$
3bd_Grossjean_2025
     RDKit          3D

 43 45  0  0  0  0  0  0  0  0999 V2000
  129.6700  124.8600   64.6540 C   0  0  0  0  0  0  0  0  0  0  0  0
  129.1530  125.7860   65.7530 C   0  0  0  0  0  0  0  0  0  0  0  0
  129.3110  125.3860   67.0850 C   0  0  0  0  0  0  0  0  0  0  0  0
  128.8470  126.2050   68.1210 C   0  0  0  0  0  0  0  0  0  0  0  0
  128.9890  125.8390   69.5690 C   0  0  0  0  0  0  0  0  0  0  0  0
  129.7510  124.7250   69.9560 C   0  0  0  0  0  0  0  0  0  0  0  0
  129.8850  124.3790   71.2980 C   0  0  0  0  0  0  0  0  0  0  0  0
  129.2560  125.1440   72.2750 C   0  0  0  0  0  0  0  0  0  0  0  0
  128.4930  126.2510   71.9170 C   0  0  0  0  0  0  0  0  0  0  0  0
  128.3610  126.5930   70.5750 C   0  0  0  0  0  0  0  0  0  0  0  0
  128.2530  127.3970   67.8520 N   0  0  0  0  0  0  0  0  0  0  0  0
  128.0910  127.8000   66.5660 C   0  0  0  0  0  0  0  0  0  0  0  0
  127.2860  129.3790   66.3470 S   0  0  0  0  0  0  0  0  0  0  0  0
  125.5010  129.1410   66.5970 C   0  0  0  0  0  0  0  0  0  0  0  0
  124.6850  129.6230   65.3970 C   0  0  0  0  0  0  0  0  0  0  0  0
  123.5170  129.9720   65.5690 O   0  0  0  0  0  0  0  0  0  0  0  0
  125.3280  129.6120   64.2090 N   0  0  0  0  0  0  0  0  0  0  0  0
  124.8600  130.0170   62.9450 C   0  0  0  0  0  0  0  0  0  0  0  0
  125.6040  129.5810   61.8460 C   0  0  0  0  0  0  0  0  0  0  0  0
  125.2230  129.9390   60.5550 C   0  0  0  0  0  0  0  0  0  0  0  0
  124.1020  130.7420   60.3640 C   0  0  0  0  0  0  0  0  0  0  0  0
  123.3600  131.1940   61.4520 C   0  0  0  0  0  0  0  0  0  0  0  0
  123.7380  130.8370   62.7440 C   0  0  0  0  0  0  0  0  0  0  0  0
  128.5270  127.0200   65.4740 C   0  0  0  0  0  0  0  0  0  0  0  0
  128.3470  127.4680   64.0900 C   0  0  0  0  0  0  0  0  0  0  0  0
  128.2070  127.8210   62.9970 N   0  0  0  0  0  0  0  0  0  0  0  0
  130.1579  123.9861   65.1103 H   0  0  0  0  0  0  0  0  0  0  0  0
  128.8280  124.5257   64.0301 H   0  0  0  0  0  0  0  0  0  0  0  0
  130.3964  125.4013   64.0301 H   0  0  0  0  0  0  0  0  0  0  0  0
  129.7997  124.4283   67.3176 H   0  0  0  0  0  0  0  0  0  0  0  0
  130.2497  124.1164   69.1873 H   0  0  0  0  0  0  0  0  0  0  0  0
  130.4862  123.5036   71.5848 H   0  0  0  0  0  0  0  0  0  0  0  0
  129.3624  124.8724   73.3356 H   0  0  0  0  0  0  0  0  0  0  0  0
  127.9962  126.8533   72.6919 H   0  0  0  0  0  0  0  0  0  0  0  0
  127.7551  127.4679   70.2968 H   0  0  0  0  0  0  0  0  0  0  0  0
  125.3040  128.0701   66.7533 H   0  0  0  0  0  0  0  0  0  0  0  0
  125.1988  129.7333   67.4732 H   0  0  0  0  0  0  0  0  0  0  0  0
  126.2550  129.2120   64.2050 H   0  0  0  0  0  0  0  0  0  0  0  0
  126.4937  128.9529   62.0007 H   0  0  0  0  0  0  0  0  0  0  0  0
  125.8054  129.5887   59.6901 H   0  0  0  0  0  0  0  0  0  0  0  0
  123.7996  131.0220   59.3441 H   0  0  0  0  0  0  0  0  0  0  0  0
  122.4778  131.8312   61.2916 H   0  0  0  0  0  0  0  0  0  0  0  0
  123.1580  131.1972   63.6065 H   0  0  0  0  0  0  0  0  0  0  0  0
  1  2  1  0
  2  3  2  0
  3  4  1  0
  4  5  1  0
  5  6  2  0
  6  7  1  0
  7  8  2  0
  8  9  1  0
  9 10  2  0
  4 11  2  0
 11 12  1  0
 12 13  1  0
 13 14  1  0
 14 15  1  0
 15 16  2  0
 15 17  1  0
 17 18  1  0
 18 19  2  0
 19 20  1  0
 20 21  2  0
 21 22  1  0
 22 23  2  0
 12 24  2  0
 24 25  1  0
 25 26  3  0
 24  2  1  0
 10  5  1  0
 23 18  1  0
  1 27  1  0
  1 28  1  0
  1 29  1  0
  3 30  1  0
  6 31  1  0
  7 32  1  0
  8 33  1  0
  9 34  1  0
 10 35  1  0
 14 36  1  0
 14 37  1  0
 17 38  1  0
 19 39  1  0
 20 40  1  0
 21 41  1  0
 22 42  1  0
 23 43  1  0
M  END
>  <Binding energies>  (1) 
[-7.43]

>  <Ligand effiencies>  (1) 
[-0.2751851851851852]

>  <Interactions>  (1) 
["V-B:ARG:545:CG:9894, V-A:HIS:456:CD2:4068, V-B:GLU:543:CD:9880, V-B:GLU:543:CB:9878, V-A:HIS:456:CE1:4069, V-B:ARG:545:CZ:9898, V-B:ARG:545:CD:9895, V-B:HIS:456:CE1:9040, V-B:GLU:543:CG:9879, H-B:GLY:454:N:9021, V-B:ASP:366:CG:8184, V-B:ASP:366:CB:8183, V-B:ILE:369:CD1:8210, H-B:ILE:455:N:9026, H-B:TYR:484:OH:9319, V-B:GLU:543:CA:9876, H-B:ARG:545:NE:9896, V-A:TYR:484:CZ:4347, V-A:TYR:484:CE1:4345, V-B:TYR:484:CZ:9318, V-A:HIS:456:CG:4066, H-B:GLU:543:OE1:9881"]

$$$$
3be_Grossjean_2025
     RDKit          3D

 45 47  0  0  0  0  0  0  0  0999 V2000
  127.6180  118.9790   74.7640 C   0  0  0  0  0  0  0  0  0  0  0  0
  127.4960  119.4480   73.3270 C   0  0  0  0  0  0  0  0  0  0  0  0
  126.6860  118.7790   72.4060 C   0  0  0  0  0  0  0  0  0  0  0  0
  126.6240  119.2650   71.0990 C   0  0  0  0  0  0  0  0  0  0  0  0
  127.3660  120.3970   70.7490 C   0  0  0  0  0  0  0  0  0  0  0  0
  128.1540  121.0210   71.7220 C   0  0  0  0  0  0  0  0  0  0  0  0
  128.8840  122.1490   71.3030 N   0  0  0  0  0  0  0  0  0  0  0  0
  130.0140  122.6680   71.8320 C   0  0  0  0  0  0  0  0  0  0  0  0
  130.6020  122.2120   72.8140 O   0  0  0  0  0  0  0  0  0  0  0  0
  130.5490  123.9130   71.1060 C   0  0  0  0  0  0  0  0  0  0  0  0
  129.4900  125.3950   71.2240 S   0  0  0  0  0  0  0  0  0  0  0  0
  128.9100  125.7910   69.5890 C   0  0  0  0  0  0  0  0  0  0  0  0
  129.6870  125.2860   68.6000 N   0  0  0  0  0  0  0  0  0  0  0  0
  129.3580  125.5080   67.2990 C   0  0  0  0  0  0  0  0  0  0  0  0
  130.2770  124.9270   66.2660 C   0  0  0  0  0  0  0  0  0  0  0  0
  129.9590  123.7230   65.6180 C   0  0  0  0  0  0  0  0  0  0  0  0
  130.8090  123.1770   64.6610 C   0  0  0  0  0  0  0  0  0  0  0  0
  131.9930  123.8300   64.3370 C   0  0  0  0  0  0  0  0  0  0  0  0
  132.3340  125.0220   64.9650 C   0  0  0  0  0  0  0  0  0  0  0  0
  131.4810  125.5650   65.9230 C   0  0  0  0  0  0  0  0  0  0  0  0
  128.2250  126.2580   66.9640 C   0  0  0  0  0  0  0  0  0  0  0  0
  127.3990  126.7650   67.9730 C   0  0  0  0  0  0  0  0  0  0  0  0
  126.1640  127.5620   67.5590 C   0  0  0  0  0  0  0  0  0  0  0  0
  127.7310  126.5240   69.3240 C   0  0  0  0  0  0  0  0  0  0  0  0
  126.8510  126.9990   70.3940 C   0  0  0  0  0  0  0  0  0  0  0  0
  126.1540  127.3750   71.2380 N   0  0  0  0  0  0  0  0  0  0  0  0
  128.2210  120.5480   73.0010 N   0  0  0  0  0  0  0  0  0  0  0  0
  127.4001  119.8167   75.4428 H   0  0  0  0  0  0  0  0  0  0  0  0
  126.9020  118.1640   74.9457 H   0  0  0  0  0  0  0  0  0  0  0  0
  128.6404  118.6162   74.9457 H   0  0  0  0  0  0  0  0  0  0  0  0
  126.1106  117.8901   72.7039 H   0  0  0  0  0  0  0  0  0  0  0  0
  125.9958  118.7609   70.3498 H   0  0  0  0  0  0  0  0  0  0  0  0
  127.3307  120.7915   69.7228 H   0  0  0  0  0  0  0  0  0  0  0  0
  128.4840  122.6420   70.5180 H   0  0  0  0  0  0  0  0  0  0  0  0
  131.5312  124.1613   71.5346 H   0  0  0  0  0  0  0  0  0  0  0  0
  130.5897  123.6505   70.0385 H   0  0  0  0  0  0  0  0  0  0  0  0
  129.0232  123.2030   65.8707 H   0  0  0  0  0  0  0  0  0  0  0  0
  130.5452  122.2324   64.1628 H   0  0  0  0  0  0  0  0  0  0  0  0
  132.6641  123.4004   63.5787 H   0  0  0  0  0  0  0  0  0  0  0  0
  133.2727  125.5340   64.7068 H   0  0  0  0  0  0  0  0  0  0  0  0
  131.7542  126.5081   66.4188 H   0  0  0  0  0  0  0  0  0  0  0  0
  127.9840  126.4488   65.9078 H   0  0  0  0  0  0  0  0  0  0  0  0
  125.6312  127.9058   68.4578 H   0  0  0  0  0  0  0  0  0  0  0  0
  126.4726  128.4318   66.9605 H   0  0  0  0  0  0  0  0  0  0  0  0
  125.4986  126.9225   66.9605 H   0  0  0  0  0  0  0  0  0  0  0  0
  1  2  1  0
  2  3  2  0
  3  4  1  0
  4  5  2  0
  5  6  1  0
  6  7  1  0
  7  8  1  0
  8  9  2  0
  8 10  1  0
 10 11  1  0
 11 12  1  0
 12 13  2  0
 13 14  1  0
 14 15  1  0
 15 16  2  0
 16 17  1  0
 17 18  2  0
 18 19  1  0
 19 20  2  0
 14 21  2  0
 21 22  1  0
 22 23  1  0
 22 24  2  0
 24 25  1  0
 25 26  3  0
  6 27  2  0
 27  2  1  0
 24 12  1  0
 20 15  1  0
  1 28  1  0
  1 29  1  0
  1 30  1  0
  3 31  1  0
  4 32  1  0
  5 33  1  0
  7 34  1  0
 10 35  1  0
 10 36  1  0
 16 37  1  0
 17 38  1  0
 18 39  1  0
 19 40  1  0
 20 41  1  0
 21 42  1  0
 23 43  1  0
 23 44  1  0
 23 45  1  0
M  END
>  <Binding energies>  (1) 
[-8.17]

>  <Ligand effiencies>  (1) 
[-0.29178571428571426]

>  <Interactions>  (1) 
["V-B:ARG:545:CG:9894, H-B:HIS:456:NE2:9041, V-A:HIS:456:CD2:4068, H-B:LYS:547:NZ:9923, V-B:GLU:543:C:9874, V-B:GLU:543:CB:9878, V-A:HIS:456:CE1:4069, H-A:HIS:456:NE2:4070, V-B:HIS:456:CE1:9040, V-B:GLU:543:CG:9879, V-B:GLU:543:CA:9876, V-A:TYR:484:CZ:4347, V-A:TYR:484:CE1:4345, H-A:TYR:484:OH:4348, V-B:GLY:544:C:9884, H-B:ARG:545:N:9892, V-B:ARG:545:CA:9891, V-A:HIS:456:CG:4066, V-A:TYR:484:CD2:4344, V-A:TYR:484:CE2:4346, V-A:TYR:484:CD1:4343, V-A:TYR:484:CG:4342, V-B:HIS:456:CG:9037, H-B:GLU:543:O:9875, V-B:LYS:547:CE:9922, V-B:GLY:544:CA:9886, V-A:TYR:484:CB:4341, V-B:VAL:542:CG1:9871"]

$$$$
3bf_Grossjean_2025
     RDKit          3D

 42 44  0  0  0  0  0  0  0  0999 V2000
  123.0140  129.6570   66.0690 C   0  0  0  0  0  0  0  0  0  0  0  0
  124.4790  129.5840   65.6430 C   0  0  0  0  0  0  0  0  0  0  0  0
  125.3800  128.9290   66.4890 C   0  0  0  0  0  0  0  0  0  0  0  0
  126.7280  128.8260   66.1290 C   0  0  0  0  0  0  0  0  0  0  0  0
  127.7390  128.1180   66.9800 C   0  0  0  0  0  0  0  0  0  0  0  0
  128.9390  128.7500   67.3430 C   0  0  0  0  0  0  0  0  0  0  0  0
  129.8820  128.0980   68.1320 C   0  0  0  0  0  0  0  0  0  0  0  0
  129.6380  126.8000   68.5690 C   0  0  0  0  0  0  0  0  0  0  0  0
  128.4580  126.1510   68.2220 C   0  0  0  0  0  0  0  0  0  0  0  0
  127.5180  126.8060   67.4310 C   0  0  0  0  0  0  0  0  0  0  0  0
  127.1810  129.3580   64.9630 N   0  0  0  0  0  0  0  0  0  0  0  0
  126.3250  130.0190   64.1450 C   0  0  0  0  0  0  0  0  0  0  0  0
  127.0940  130.6520   62.6690 S   0  0  0  0  0  0  0  0  0  0  0  0
  128.7260  131.3290   63.1280 C   0  0  0  0  0  0  0  0  0  0  0  0
  129.6300  131.7070   61.9460 C   0  0  0  0  0  0  0  0  0  0  0  0
  129.3950  132.7100   61.2690 O   0  0  0  0  0  0  0  0  0  0  0  0
  130.6810  130.8810   61.7540 N   0  0  0  0  0  0  0  0  0  0  0  0
  131.6810  130.9390   60.7650 C   0  0  0  0  0  0  0  0  0  0  0  0
  133.0030  131.0740   61.2010 C   0  0  0  0  0  0  0  0  0  0  0  0
  134.0420  131.1230   60.2680 C   0  0  0  0  0  0  0  0  0  0  0  0
  133.7250  131.0300   58.9130 C   0  0  0  0  0  0  0  0  0  0  0  0
  132.4540  130.8880   58.4620 N   0  0  0  0  0  0  0  0  0  0  0  0
  131.4540  130.8410   59.3800 C   0  0  0  0  0  0  0  0  0  0  0  0
  124.9480  130.1430   64.4350 C   0  0  0  0  0  0  0  0  0  0  0  0
  124.0130  130.7910   63.5110 C   0  0  0  0  0  0  0  0  0  0  0  0
  123.2730  131.3030   62.7840 N   0  0  0  0  0  0  0  0  0  0  0  0
  122.9512  129.6601   67.1672 H   0  0  0  0  0  0  0  0  0  0  0  0
  122.5626  130.5788   65.6733 H   0  0  0  0  0  0  0  0  0  0  0  0
  122.4732  128.7847   65.6733 H   0  0  0  0  0  0  0  0  0  0  0  0
  125.0289  128.4951   67.4369 H   0  0  0  0  0  0  0  0  0  0  0  0
  129.1368  129.7758   66.9986 H   0  0  0  0  0  0  0  0  0  0  0  0
  130.8169  128.6072   68.4091 H   0  0  0  0  0  0  0  0  0  0  0  0
  130.3828  126.2840   69.1927 H   0  0  0  0  0  0  0  0  0  0  0  0
  128.2683  125.1252   68.5708 H   0  0  0  0  0  0  0  0  0  0  0  0
  126.5877  126.2881   67.1548 H   0  0  0  0  0  0  0  0  0  0  0  0
  128.5621  132.2322   63.7341 H   0  0  0  0  0  0  0  0  0  0  0  0
  129.2491  130.5271   63.6696 H   0  0  0  0  0  0  0  0  0  0  0  0
  130.8040  130.1430   62.4310 H   0  0  0  0  0  0  0  0  0  0  0  0
  133.2244  131.1415   62.2764 H   0  0  0  0  0  0  0  0  0  0  0  0
  135.0866  131.2325   60.5949 H   0  0  0  0  0  0  0  0  0  0  0  0
  134.5420  131.0738   58.1777 H   0  0  0  0  0  0  0  0  0  0  0  0
  130.4200  130.7209   59.0245 H   0  0  0  0  0  0  0  0  0  0  0  0
  1  2  1  0
  2  3  2  0
  3  4  1  0
  4  5  1  0
  5  6  2  0
  6  7  1  0
  7  8  2  0
  8  9  1  0
  9 10  2  0
  4 11  2  0
 11 12  1  0
 12 13  1  0
 13 14  1  0
 14 15  1  0
 15 16  2  0
 15 17  1  0
 17 18  1  0
 18 19  2  0
 19 20  1  0
 20 21  2  0
 21 22  1  0
 22 23  2  0
 12 24  2  0
 24 25  1  0
 25 26  3  0
 24  2  1  0
 10  5  1  0
 23 18  1  0
  1 27  1  0
  1 28  1  0
  1 29  1  0
  3 30  1  0
  6 31  1  0
  7 32  1  0
  8 33  1  0
  9 34  1  0
 10 35  1  0
 14 36  1  0
 14 37  1  0
 17 38  1  0
 19 39  1  0
 20 40  1  0
 21 41  1  0
 23 42  1  0
M  END
>  <Binding energies>  (1) 
[-8.01]

>  <Ligand effiencies>  (1) 
[-0.29666666666666663]

>  <Interactions>  (1) 
["V-B:ARG:545:CG:9894, V-B:GLU:543:C:9874, V-B:GLU:543:CB:9878, V-A:HIS:456:CE1:4069, V-B:ARG:545:CZ:9898, H-A:GLU:543:OE1:4909, V-B:ARG:545:CD:9895, V-B:HIS:456:CE1:9040, H-A:GLU:543:OE2:4910, V-A:GLU:543:CG:4907, V-A:GLU:543:CD:4908, H-B:GLY:454:N:9021, V-B:GLY:454:CA:9020, V-A:PRO:540:CA:4883, V-A:ALA:541:CB:4892, H-B:TYR:484:OH:9319, V-B:GLY:453:CA:9015, V-B:GLY:453:C:9013, V-A:GLU:543:CB:4906, V-A:ASP:366:CG:3213, V-A:PRO:540:CB:4885, H-A:ALA:541:N:4891, V-A:ASN:362:CB:3176, V-A:LEU:363:CA:3185, V-A:LEU:363:CB:3187, V-A:ASN:362:C:3172, V-A:ASN:362:CA:3174"]

$$$$
3bg_Grossjean_2025
     RDKit          3D

 46 48  0  0  0  0  0  0  0  0999 V2000
  126.7450  136.0810   61.9550 C   0  0  0  0  0  0  0  0  0  0  0  0
  126.7340  134.7130   61.2760 C   0  0  0  0  0  0  0  0  0  0  0  0
  127.9600  134.0900   61.0230 C   0  0  0  0  0  0  0  0  0  0  0  0
  127.9940  132.8310   60.4090 C   0  0  0  0  0  0  0  0  0  0  0  0
  129.2770  132.1020   60.1190 C   0  0  0  0  0  0  0  0  0  0  0  0
  129.7430  131.9520   58.8020 C   0  0  0  0  0  0  0  0  0  0  0  0
  130.9390  131.2940   58.5310 C   0  0  0  0  0  0  0  0  0  0  0  0
  131.6910  130.7690   59.5770 C   0  0  0  0  0  0  0  0  0  0  0  0
  131.2490  130.8920   60.8890 C   0  0  0  0  0  0  0  0  0  0  0  0
  130.0520  131.5500   61.1550 C   0  0  0  0  0  0  0  0  0  0  0  0
  126.8410  132.1960   60.0710 N   0  0  0  0  0  0  0  0  0  0  0  0
  125.6420  132.7850   60.3130 C   0  0  0  0  0  0  0  0  0  0  0  0
  124.2040  131.8310   59.8530 S   0  0  0  0  0  0  0  0  0  0  0  0
  124.1220  130.3650   60.9320 C   0  0  0  0  0  0  0  0  0  0  0  0
  124.5690  130.6840   62.3620 C   0  0  0  0  0  0  0  0  0  0  0  0
  123.7370  130.7410   63.2670 O   0  0  0  0  0  0  0  0  0  0  0  0
  125.8820  130.9120   62.5410 N   0  0  0  0  0  0  0  0  0  0  0  0
  126.4980  131.4070   63.7720 C   0  0  0  0  0  0  0  0  0  0  0  0
  126.7240  130.2890   64.7820 C   0  0  0  0  0  0  0  0  0  0  0  0
  125.6300  129.6110   65.3330 C   0  0  0  0  0  0  0  0  0  0  0  0
  125.8360  128.5970   66.2630 C   0  0  0  0  0  0  0  0  0  0  0  0
  127.1350  128.2520   66.6310 C   0  0  0  0  0  0  0  0  0  0  0  0
  128.2300  128.9070   66.0720 C   0  0  0  0  0  0  0  0  0  0  0  0
  128.0230  129.9240   65.1420 C   0  0  0  0  0  0  0  0  0  0  0  0
  125.5390  134.0580   60.9110 C   0  0  0  0  0  0  0  0  0  0  0  0
  124.2390  134.6820   61.1710 C   0  0  0  0  0  0  0  0  0  0  0  0
  123.2130  135.1750   61.3770 N   0  0  0  0  0  0  0  0  0  0  0  0
  126.7439  135.9484   63.0470 H   0  0  0  0  0  0  0  0  0  0  0  0
  127.6476  136.6327   61.6535 H   0  0  0  0  0  0  0  0  0  0  0  0
  125.8514  136.6472   61.6535 H   0  0  0  0  0  0  0  0  0  0  0  0
  128.8986  134.5888   61.3063 H   0  0  0  0  0  0  0  0  0  0  0  0
  129.1518  132.3621   57.9700 H   0  0  0  0  0  0  0  0  0  0  0  0
  131.2885  131.1894   57.4933 H   0  0  0  0  0  0  0  0  0  0  0  0
  132.6397  130.2542   59.3648 H   0  0  0  0  0  0  0  0  0  0  0  0
  131.8429  130.4710   61.7136 H   0  0  0  0  0  0  0  0  0  0  0  0
  129.7053  131.6402   62.1950 H   0  0  0  0  0  0  0  0  0  0  0  0
  123.0850  129.9989   60.9566 H   0  0  0  0  0  0  0  0  0  0  0  0
  124.8016  129.6023   60.5240 H   0  0  0  0  0  0  0  0  0  0  0  0
  126.4900  130.8480   61.7380 H   0  0  0  0  0  0  0  0  0  0  0  0
  127.4672  131.8653   63.5256 H   0  0  0  0  0  0  0  0  0  0  0  0
  125.8157  132.1423   64.2235 H   0  0  0  0  0  0  0  0  0  0  0  0
  124.6072  129.8801   65.0305 H   0  0  0  0  0  0  0  0  0  0  0  0
  124.9778  128.0702   66.7056 H   0  0  0  0  0  0  0  0  0  0  0  0
  127.2974  127.4541   67.3706 H   0  0  0  0  0  0  0  0  0  0  0  0
  129.2521  128.6231   66.3630 H   0  0  0  0  0  0  0  0  0  0  0  0
  128.8836  130.4397   64.6911 H   0  0  0  0  0  0  0  0  0  0  0  0
  1  2  1  0
  2  3  2  0
  3  4  1  0
  4  5  1  0
  5  6  2  0
  6  7  1  0
  7  8  2  0
  8  9  1  0
  9 10  2  0
  4 11  2  0
 11 12  1  0
 12 13  1  0
 13 14  1  0
 14 15  1  0
 15 16  2  0
 15 17  1  0
 17 18  1  0
 18 19  1  0
 19 20  2  0
 20 21  1  0
 21 22  2  0
 22 23  1  0
 23 24  2  0
 12 25  2  0
 25 26  1  0
 26 27  3  0
 25  2  1  0
 10  5  1  0
 24 19  1  0
  1 28  1  0
  1 29  1  0
  1 30  1  0
  3 31  1  0
  6 32  1  0
  7 33  1  0
  8 34  1  0
  9 35  1  0
 10 36  1  0
 14 37  1  0
 14 38  1  0
 17 39  1  0
 18 40  1  0
 18 41  1  0
 20 42  1  0
 21 43  1  0
 22 44  1  0
 23 45  1  0
 24 46  1  0
M  END
>  <Binding energies>  (1) 
[-7.56]

>  <Ligand effiencies>  (1) 
[-0.26999999999999996]

>  <Interactions>  (1) 
["V-B:ARG:545:CG:9894, V-B:HIS:456:CE1:9040, V-A:GLU:543:CD:4908, V-B:TRP:381:CH2:8343, H-B:GLY:454:N:9021, V-A:PRO:540:N:4884, V-A:TYR:539:C:4867, V-B:ASP:366:CG:8184, V-B:PRO:482:CG:9298, V-B:LEU:475:CD1:9229, V-B:PRO:482:CB:9297, V-A:PRO:540:CA:4883, V-A:TYR:539:CE2:4876, V-A:ALA:541:CB:4892, V-B:ILE:369:CG2:8208, H-B:ARG:545:NH2:9900, V-A:TYR:539:CD2:4874, V-A:GLU:543:CB:4906, V-A:PRO:540:CB:4885, V-B:TRP:381:CZ2:8341"]

$$$$
3bk_Grossjean_2025
     RDKit          3D

 57 58  0  0  0  0  0  0  0  0999 V2000
  123.3960  130.7650   61.8890 C   0  0  0  0  0  0  0  0  0  0  0  0
  123.3600  130.5970   63.2980 O   0  0  0  0  0  0  0  0  0  0  0  0
  124.5240  131.0790   63.9560 C   0  0  0  0  0  0  0  0  0  0  0  0
  125.1780  129.9380   64.7470 C   0  0  0  0  0  0  0  0  0  0  0  0
  124.4020  129.6620   65.9040 O   0  0  0  0  0  0  0  0  0  0  0  0
  125.1090  128.9560   66.9160 C   0  0  0  0  0  0  0  0  0  0  0  0
  126.5150  128.6130   66.4050 C   0  0  0  0  0  0  0  0  0  0  0  0
  127.2040  127.8580   67.3930 O   0  0  0  0  0  0  0  0  0  0  0  0
  128.5760  127.6370   67.0940 C   0  0  0  0  0  0  0  0  0  0  0  0
  129.2880  127.0860   68.3380 C   0  0  0  0  0  0  0  0  0  0  0  0
  128.3800  126.9310   69.4760 N   0  0  0  0  0  0  0  0  0  0  0  0
  128.6560  127.2690   70.7470 C   0  0  0  0  0  0  0  0  0  0  0  0
  129.7210  127.7760   71.1030 O   0  0  0  0  0  0  0  0  0  0  0  0
  127.5510  127.0200   71.7750 C   0  0  0  0  0  0  0  0  0  0  0  0
  128.1550  127.2040   73.4830 S   0  0  0  0  0  0  0  0  0  0  0  0
  127.4800  128.7030   74.1800 C   0  0  0  0  0  0  0  0  0  0  0  0
  128.2490  129.8140   74.0530 N   0  0  0  0  0  0  0  0  0  0  0  0
  127.8170  131.0010   74.5560 C   0  0  0  0  0  0  0  0  0  0  0  0
  128.7170  132.1820   74.3550 C   0  0  0  0  0  0  0  0  0  0  0  0
  128.7950  133.1990   75.3200 C   0  0  0  0  0  0  0  0  0  0  0  0
  129.6250  134.3010   75.1350 C   0  0  0  0  0  0  0  0  0  0  0  0
  130.3930  134.4020   73.9800 C   0  0  0  0  0  0  0  0  0  0  0  0
  130.3380  133.4060   73.0100 C   0  0  0  0  0  0  0  0  0  0  0  0
  129.5070  132.3050   73.1990 C   0  0  0  0  0  0  0  0  0  0  0  0
  126.5790  131.0980   75.2030 C   0  0  0  0  0  0  0  0  0  0  0  0
  125.7740  129.9620   75.3430 C   0  0  0  0  0  0  0  0  0  0  0  0
  124.4310  130.1120   76.0560 C   0  0  0  0  0  0  0  0  0  0  0  0
  126.2240  128.7300   74.8240 C   0  0  0  0  0  0  0  0  0  0  0  0
  125.4010  127.5240   74.9540 C   0  0  0  0  0  0  0  0  0  0  0  0
  124.7520  126.5710   75.0580 N   0  0  0  0  0  0  0  0  0  0  0  0
  123.6210  131.8150   61.6506 H   0  0  0  0  0  0  0  0  0  0  0  0
  124.1757  130.1169   61.4623 H   0  0  0  0  0  0  0  0  0  0  0  0
  122.4192  130.4933   61.4623 H   0  0  0  0  0  0  0  0  0  0  0  0
  125.2352  131.4610   63.2088 H   0  0  0  0  0  0  0  0  0  0  0  0
  124.2446  131.8887   64.6462 H   0  0  0  0  0  0  0  0  0  0  0  0
  125.2309  129.0378   64.1171 H   0  0  0  0  0  0  0  0  0  0  0  0
  126.1939  130.2339   65.0475 H   0  0  0  0  0  0  0  0  0  0  0  0
  125.1878  129.5839   67.8158 H   0  0  0  0  0  0  0  0  0  0  0  0
  124.5705  128.0297   67.1648 H   0  0  0  0  0  0  0  0  0  0  0  0
  126.4357  128.0223   65.4805 H   0  0  0  0  0  0  0  0  0  0  0  0
  127.0682  129.5412   66.1990 H   0  0  0  0  0  0  0  0  0  0  0  0
  128.6599  126.9112   66.2717 H   0  0  0  0  0  0  0  0  0  0  0  0
  129.0437  128.5863   66.7938 H   0  0  0  0  0  0  0  0  0  0  0  0
  129.7187  126.1039   68.0930 H   0  0  0  0  0  0  0  0  0  0  0  0
  130.0677  127.8066   68.6258 H   0  0  0  0  0  0  0  0  0  0  0  0
  127.4590  126.5760   69.2610 H   0  0  0  0  0  0  0  0  0  0  0  0
  126.7389  127.7424   71.6056 H   0  0  0  0  0  0  0  0  0  0  0  0
  127.1964  125.9863   71.6493 H   0  0  0  0  0  0  0  0  0  0  0  0
  128.1909  133.1237   76.2362 H   0  0  0  0  0  0  0  0  0  0  0  0
  129.6733  135.0897   75.9002 H   0  0  0  0  0  0  0  0  0  0  0  0
  131.0473  135.2738   73.8325 H   0  0  0  0  0  0  0  0  0  0  0  0
  130.9480  133.4880   72.0983 H   0  0  0  0  0  0  0  0  0  0  0  0
  129.4681  131.5185   72.4310 H   0  0  0  0  0  0  0  0  0  0  0  0
  126.2397  132.0659   75.6007 H   0  0  0  0  0  0  0  0  0  0  0  0
  124.5897  130.0943   77.1444 H   0  0  0  0  0  0  0  0  0  0  0  0
  123.9679  131.0675   75.7685 H   0  0  0  0  0  0  0  0  0  0  0  0
  123.7685  129.2823   75.7685 H   0  0  0  0  0  0  0  0  0  0  0  0
  1  2  1  0
  2  3  1  0
  3  4  1  0
  4  5  1  0
  5  6  1  0
  6  7  1  0
  7  8  1  0
  8  9  1  0
  9 10  1  0
 10 11  1  0
 11 12  1  0
 12 13  2  0
 12 14  1  0
 14 15  1  0
 15 16  1  0
 16 17  2  0
 17 18  1  0
 18 19  1  0
 19 20  2  0
 20 21  1  0
 21 22  2  0
 22 23  1  0
 23 24  2  0
 18 25  2  0
 25 26  1  0
 26 27  1  0
 26 28  2  0
 28 29  1  0
 29 30  3  0
 28 16  1  0
 24 19  1  0
  1 31  1  0
  1 32  1  0
  1 33  1  0
  3 34  1  0
  3 35  1  0
  4 36  1  0
  4 37  1  0
  6 38  1  0
  6 39  1  0
  7 40  1  0
  7 41  1  0
  9 42  1  0
  9 43  1  0
 10 44  1  0
 10 45  1  0
 11 46  1  0
 14 47  1  0
 14 48  1  0
 20 49  1  0
 21 50  1  0
 22 51  1  0
 23 52  1  0
 24 53  1  0
 25 54  1  0
 27 55  1  0
 27 56  1  0
 27 57  1  0
M  END
>  <Binding energies>  (1) 
[-6.85]

>  <Ligand effiencies>  (1) 
[-0.22096774193548385]

>  <Interactions>  (1) 
["V-B:ARG:545:CG:9894, H-B:HIS:456:NE2:9041, H-A:LYS:547:NZ:4951, V-B:HIS:456:CD2:9039, V-A:HIS:456:CE1:4069, V-B:ARG:545:CZ:9898, H-A:HIS:456:NE2:4070, V-B:ARG:545:CD:9895, V-B:HIS:456:CE1:9040, H-B:GLY:454:N:9021, V-B:GLY:454:CA:9020, V-B:ASP:366:CG:8184, V-B:ILE:369:CD1:8210, H-B:TYR:484:OH:9319, H-B:ARG:545:NH2:9900, H-B:ARG:545:NE:9896, V-B:GLY:544:C:9884, V-B:HIS:456:CB:9036, V-B:HIS:456:C:9032, V-B:VAL:458:CG2:9058, V-B:HIS:456:CG:9037, V-A:LYS:547:CE:4950, H-B:GLY:544:O:9885, H-B:GLU:543:O:9875, V-B:LYS:471:CE:9191, V-B:LYS:471:CD:9190, V-B:LYS:471:CG:9189"]

$$$$
3ca_Grossjean_2025
     RDKit          3D

 52 54  0  0  0  0  0  0  0  0999 V2000
  133.2860  126.5380   74.4730 C   0  0  0  0  0  0  0  0  0  0  0  0
  131.9800  125.7580   74.6500 C   0  0  0  0  0  0  0  0  0  0  0  0
  130.8760  126.6230   74.4150 O   0  0  0  0  0  0  0  0  0  0  0  0
  129.6700  126.1330   74.0330 C   0  0  0  0  0  0  0  0  0  0  0  0
  128.7630  125.8620   74.8270 O   0  0  0  0  0  0  0  0  0  0  0  0
  129.5430  125.9580   72.5470 C   0  0  0  0  0  0  0  0  0  0  0  0
  129.0670  127.0220   71.7710 C   0  0  0  0  0  0  0  0  0  0  0  0
  128.9380  126.8900   70.3910 C   0  0  0  0  0  0  0  0  0  0  0  0
  129.2750  125.6910   69.7600 C   0  0  0  0  0  0  0  0  0  0  0  0
  129.1090  125.6660   68.3620 N   0  0  0  0  0  0  0  0  0  0  0  0
  129.0290  126.6900   67.4850 C   0  0  0  0  0  0  0  0  0  0  0  0
  129.1110  127.8830   67.7740 O   0  0  0  0  0  0  0  0  0  0  0  0
  128.8410  126.2830   66.0200 C   0  0  0  0  0  0  0  0  0  0  0  0
  129.4160  124.5890   65.6660 S   0  0  0  0  0  0  0  0  0  0  0  0
  130.9950  124.6460   64.8300 C   0  0  0  0  0  0  0  0  0  0  0  0
  132.0720  124.8760   65.6220 N   0  0  0  0  0  0  0  0  0  0  0  0
  133.3000  124.9120   65.0610 C   0  0  0  0  0  0  0  0  0  0  0  0
  134.4530  125.1560   66.0150 C   0  0  0  0  0  0  0  0  0  0  0  0
  133.5050  124.7370   63.6950 C   0  0  0  0  0  0  0  0  0  0  0  0
  132.4080  124.5160   62.8520 C   0  0  0  0  0  0  0  0  0  0  0  0
  132.6750  124.3470   61.3920 C   0  0  0  0  0  0  0  0  0  0  0  0
  133.6000  123.3920   60.9520 C   0  0  0  0  0  0  0  0  0  0  0  0
  133.8620  123.2340   59.5940 C   0  0  0  0  0  0  0  0  0  0  0  0
  133.2000  124.0360   58.6670 C   0  0  0  0  0  0  0  0  0  0  0  0
  132.2820  124.9940   59.0880 C   0  0  0  0  0  0  0  0  0  0  0  0
  132.0230  125.1500   60.4480 C   0  0  0  0  0  0  0  0  0  0  0  0
  131.1140  124.4590   63.4320 C   0  0  0  0  0  0  0  0  0  0  0  0
  129.9340  124.1790   62.6080 C   0  0  0  0  0  0  0  0  0  0  0  0
  129.0020  123.9580   61.9560 N   0  0  0  0  0  0  0  0  0  0  0  0
  129.7610  124.6230   70.5290 C   0  0  0  0  0  0  0  0  0  0  0  0
  129.8910  124.7570   71.9090 C   0  0  0  0  0  0  0  0  0  0  0  0
  133.7016  126.7862   75.4608 H   0  0  0  0  0  0  0  0  0  0  0  0
  134.0078  125.9229   73.9156 H   0  0  0  0  0  0  0  0  0  0  0  0
  133.0867  127.4651   73.9156 H   0  0  0  0  0  0  0  0  0  0  0  0
  131.9512  124.9237   73.9337 H   0  0  0  0  0  0  0  0  0  0  0  0
  131.9247  125.3630   75.6751 H   0  0  0  0  0  0  0  0  0  0  0  0
  128.7926  127.9704   72.2560 H   0  0  0  0  0  0  0  0  0  0  0  0
  128.5680  127.7363   69.7936 H   0  0  0  0  0  0  0  0  0  0  0  0
  129.0970  124.7390   67.9640 H   0  0  0  0  0  0  0  0  0  0  0  0
  127.7709  126.3477   65.7737 H   0  0  0  0  0  0  0  0  0  0  0  0
  129.4474  126.9684   65.4097 H   0  0  0  0  0  0  0  0  0  0  0  0
  134.0934  125.0799   67.0518 H   0  0  0  0  0  0  0  0  0  0  0  0
  135.2370  124.4039   65.8427 H   0  0  0  0  0  0  0  0  0  0  0  0
  134.8651  126.1612   65.8427 H   0  0  0  0  0  0  0  0  0  0  0  0
  134.5230  124.7721   63.2798 H   0  0  0  0  0  0  0  0  0  0  0  0
  134.1238  122.7615   61.6856 H   0  0  0  0  0  0  0  0  0  0  0  0
  134.5877  122.4801   59.2548 H   0  0  0  0  0  0  0  0  0  0  0  0
  133.4044  123.9112   57.5934 H   0  0  0  0  0  0  0  0  0  0  0  0
  131.7637  125.6246   58.3507 H   0  0  0  0  0  0  0  0  0  0  0  0
  131.3011  125.9095   60.7827 H   0  0  0  0  0  0  0  0  0  0  0  0
  130.0400  123.6776   70.0408 H   0  0  0  0  0  0  0  0  0  0  0  0
  130.2700  123.9136   72.5049 H   0  0  0  0  0  0  0  0  0  0  0  0
  1  2  1  0
  2  3  1  0
  3  4  1  0
  4  5  2  0
  4  6  1  0
  6  7  2  0
  7  8  1  0
  8  9  2  0
  9 10  1  0
 10 11  1  0
 11 12  2  0
 11 13  1  0
 13 14  1  0
 14 15  1  0
 15 16  2  0
 16 17  1  0
 17 18  1  0
 17 19  2  0
 19 20  1  0
 20 21  1  0
 21 22  2  0
 22 23  1  0
 23 24  2  0
 24 25  1  0
 25 26  2  0
 20 27  2  0
 27 28  1  0
 28 29  3  0
  9 30  1  0
 30 31  2  0
 31  6  1  0
 27 15  1  0
 26 21  1  0
  1 32  1  0
  1 33  1  0
  1 34  1  0
  2 35  1  0
  2 36  1  0
  7 37  1  0
  8 38  1  0
 10 39  1  0
 13 40  1  0
 13 41  1  0
 18 42  1  0
 18 43  1  0
 18 44  1  0
 19 45  1  0
 22 46  1  0
 23 47  1  0
 24 48  1  0
 25 49  1  0
 26 50  1  0
 30 51  1  0
 31 52  1  0
M  END
>  <Binding energies>  (1) 
[-8.18]

>  <Ligand effiencies>  (1) 
[-0.255625]

>  <Interactions>  (1) 
["V-A:HIS:456:CD2:4068, V-B:GLU:543:CD:9880, H-B:LYS:547:NZ:9923, V-B:GLU:543:C:9874, H-A:LYS:547:NZ:4951, V-B:GLU:543:CB:9878, V-A:HIS:456:CE1:4069, V-B:HIS:456:CE1:9040, V-B:GLU:543:CG:9879, V-A:TYR:484:CZ:4347, V-A:TYR:484:CE1:4345, V-A:ARG:545:CZ:4926, V-A:GLY:453:CA:4044, H-A:TYR:484:OH:4348, V-A:GLY:453:C:4042, V-A:ASP:366:CB:3212, V-A:ASP:366:CG:3213, V-B:TYR:539:CE2:9848, V-A:ARG:545:CD:4923, V-A:ILE:369:CB:3236, V-A:ILE:369:CG2:3237, V-A:ASP:366:CA:3210, V-A:ILE:369:CD1:3239, V-A:ARG:545:CG:4922, V-A:HIS:456:CG:4066, V-A:HIS:456:CB:4065, V-A:LYS:547:CE:4950, H-B:GLU:543:O:9875, V-A:LYS:547:CD:4949"]

$$$$
3cb_Grossjean_2025
     RDKit          3D

 49 51  0  0  0  0  0  0  0  0999 V2000
  127.1710  126.7400   74.6720 C   0  0  0  0  0  0  0  0  0  0  0  0
  128.3080  125.8900   74.6320 O   0  0  0  0  0  0  0  0  0  0  0  0
  129.4320  126.2560   73.9640 C   0  0  0  0  0  0  0  0  0  0  0  0
  130.4460  126.6870   74.5220 O   0  0  0  0  0  0  0  0  0  0  0  0
  129.3200  126.0850   72.4760 C   0  0  0  0  0  0  0  0  0  0  0  0
  128.7620  127.0760   71.6540 C   0  0  0  0  0  0  0  0  0  0  0  0
  128.6760  126.8870   70.2780 C   0  0  0  0  0  0  0  0  0  0  0  0
  129.1370  125.7070   69.6940 C   0  0  0  0  0  0  0  0  0  0  0  0
  129.0030  125.6230   68.2930 N   0  0  0  0  0  0  0  0  0  0  0  0
  129.3740  126.4970   67.3320 C   0  0  0  0  0  0  0  0  0  0  0  0
  129.9420  127.5710   67.5360 O   0  0  0  0  0  0  0  0  0  0  0  0
  129.0470  126.0450   65.9010 C   0  0  0  0  0  0  0  0  0  0  0  0
  129.5850  124.3510   65.4860 S   0  0  0  0  0  0  0  0  0  0  0  0
  131.1520  124.4660   64.6500 C   0  0  0  0  0  0  0  0  0  0  0  0
  132.1890  124.7330   65.4810 N   0  0  0  0  0  0  0  0  0  0  0  0
  133.4300  124.8430   64.9560 C   0  0  0  0  0  0  0  0  0  0  0  0
  134.5420  125.1300   65.9460 C   0  0  0  0  0  0  0  0  0  0  0  0
  133.6830  124.6990   63.5950 C   0  0  0  0  0  0  0  0  0  0  0  0
  132.6250  124.4390   62.7140 C   0  0  0  0  0  0  0  0  0  0  0  0
  132.9480  124.2980   61.2620 C   0  0  0  0  0  0  0  0  0  0  0  0
  133.9610  123.4250   60.8470 C   0  0  0  0  0  0  0  0  0  0  0  0
  134.2620  123.2780   59.4950 C   0  0  0  0  0  0  0  0  0  0  0  0
  133.5450  124.0060   58.5480 C   0  0  0  0  0  0  0  0  0  0  0  0
  132.5300  124.8730   58.9420 C   0  0  0  0  0  0  0  0  0  0  0  0
  132.2300  125.0150   60.2940 C   0  0  0  0  0  0  0  0  0  0  0  0
  131.3140  124.3340   63.2480 C   0  0  0  0  0  0  0  0  0  0  0  0
  130.1590  124.1560   62.3640 C   0  0  0  0  0  0  0  0  0  0  0  0
  129.2470  124.0160   61.6660 N   0  0  0  0  0  0  0  0  0  0  0  0
  129.7000  124.7130   70.5080 C   0  0  0  0  0  0  0  0  0  0  0  0
  129.7870  124.9030   71.8850 C   0  0  0  0  0  0  0  0  0  0  0  0
  126.9008  126.9420   75.7190 H   0  0  0  0  0  0  0  0  0  0  0  0
  127.4035  127.6876   74.1640 H   0  0  0  0  0  0  0  0  0  0  0  0
  126.3280  126.2489   74.1640 H   0  0  0  0  0  0  0  0  0  0  0  0
  128.3896  128.0096   72.1009 H   0  0  0  0  0  0  0  0  0  0  0  0
  128.2408  127.6747   69.6455 H   0  0  0  0  0  0  0  0  0  0  0  0
  128.5870  124.7610   67.9710 H   0  0  0  0  0  0  0  0  0  0  0  0
  127.9566  126.0994   65.7666 H   0  0  0  0  0  0  0  0  0  0  0  0
  129.6033  126.7173   65.2313 H   0  0  0  0  0  0  0  0  0  0  0  0
  134.1552  125.0302   66.9709 H   0  0  0  0  0  0  0  0  0  0  0  0
  135.3632  124.4144   65.7927 H   0  0  0  0  0  0  0  0  0  0  0  0
  134.9143  126.1537   65.7927 H   0  0  0  0  0  0  0  0  0  0  0  0
  134.7103  124.7890   63.2122 H   0  0  0  0  0  0  0  0  0  0  0  0
  134.5247  122.8496   61.5961 H   0  0  0  0  0  0  0  0  0  0  0  0
  135.0606  122.5916   59.1771 H   0  0  0  0  0  0  0  0  0  0  0  0
  133.7831  123.8946   57.4799 H   0  0  0  0  0  0  0  0  0  0  0  0
  131.9673  125.4435   58.1884 H   0  0  0  0  0  0  0  0  0  0  0  0
  131.4234  125.6950   60.6055 H   0  0  0  0  0  0  0  0  0  0  0  0
  130.0736  123.7815   70.0578 H   0  0  0  0  0  0  0  0  0  0  0  0
  130.2271  124.1166   72.5158 H   0  0  0  0  0  0  0  0  0  0  0  0
  1  2  1  0
  2  3  1  0
  3  4  2  0
  3  5  1  0
  5  6  2  0
  6  7  1  0
  7  8  2  0
  8  9  1  0
  9 10  1  0
 10 11  2  0
 10 12  1  0
 12 13  1  0
 13 14  1  0
 14 15  2  0
 15 16  1  0
 16 17  1  0
 16 18  2  0
 18 19  1  0
 19 20  1  0
 20 21  2  0
 21 22  1  0
 22 23  2  0
 23 24  1  0
 24 25  2  0
 19 26  2  0
 26 27  1  0
 27 28  3  0
  8 29  1  0
 29 30  2  0
 30  5  1  0
 26 14  1  0
 25 20  1  0
  1 31  1  0
  1 32  1  0
  1 33  1  0
  6 34  1  0
  7 35  1  0
  9 36  1  0
 12 37  1  0
 12 38  1  0
 17 39  1  0
 17 40  1  0
 17 41  1  0
 18 42  1  0
 21 43  1  0
 22 44  1  0
 23 45  1  0
 24 46  1  0
 25 47  1  0
 29 48  1  0
 30 49  1  0
M  END
>  <Binding energies>  (1) 
[-8.23]

>  <Ligand effiencies>  (1) 
[-0.26548387096774195]

>  <Interactions>  (1) 
["V-A:HIS:456:CD2:4068, V-B:GLU:543:CD:9880, H-B:LYS:547:NZ:9923, V-B:GLU:543:C:9874, H-A:LYS:547:NZ:4951, V-B:GLU:543:CB:9878, V-A:HIS:456:CE1:4069, H-A:HIS:456:NE2:4070, V-B:HIS:456:CE1:9040, V-B:GLU:543:CG:9879, V-A:ARG:545:CZ:4926, V-A:GLY:453:CA:4044, H-A:TYR:484:OH:4348, V-A:GLY:453:C:4042, V-A:ASP:366:CB:3212, V-A:ASP:366:CG:3213, V-B:TYR:539:CE2:9848, V-A:ARG:545:CD:4923, V-A:ILE:369:CB:3236, V-A:ILE:369:CG2:3237, V-A:ASP:366:CA:3210, V-A:ILE:369:CG1:3238, V-A:ILE:369:CD1:3239, V-A:ARG:545:CG:4922, V-A:HIS:456:CG:4066, V-B:LYS:547:CD:9921, H-B:GLU:543:O:9875"]

$$$$
3ce_Grossjean_2025
     RDKit          3D

 45 47  0  0  0  0  0  0  0  0999 V2000
  123.0800  133.6630   62.4950 C   0  0  0  0  0  0  0  0  0  0  0  0
  123.6720  132.2840   62.2760 C   0  0  0  0  0  0  0  0  0  0  0  0
  123.7370  131.7100   61.0030 C   0  0  0  0  0  0  0  0  0  0  0  0
  124.3040  130.4420   60.8750 C   0  0  0  0  0  0  0  0  0  0  0  0
  124.7880  129.7850   62.0090 C   0  0  0  0  0  0  0  0  0  0  0  0
  124.6820  130.4130   63.2550 C   0  0  0  0  0  0  0  0  0  0  0  0
  125.2020  129.7130   64.3570 N   0  0  0  0  0  0  0  0  0  0  0  0
  124.7030  129.6380   65.6110 C   0  0  0  0  0  0  0  0  0  0  0  0
  123.6700  130.1890   65.9940 O   0  0  0  0  0  0  0  0  0  0  0  0
  125.5070  128.7880   66.5950 C   0  0  0  0  0  0  0  0  0  0  0  0
  127.2780  129.1920   66.5520 S   0  0  0  0  0  0  0  0  0  0  0  0
  128.1240  127.7080   67.0440 C   0  0  0  0  0  0  0  0  0  0  0  0
  128.0350  127.4370   68.3690 N   0  0  0  0  0  0  0  0  0  0  0  0
  128.6320  126.3180   68.8420 C   0  0  0  0  0  0  0  0  0  0  0  0
  128.4820  126.0680   70.3300 C   0  0  0  0  0  0  0  0  0  0  0  0
  129.3440  125.4460   68.0230 C   0  0  0  0  0  0  0  0  0  0  0  0
  129.4700  125.7230   66.6560 C   0  0  0  0  0  0  0  0  0  0  0  0
  130.2650  124.7710   65.8230 C   0  0  0  0  0  0  0  0  0  0  0  0
  131.5460  125.1240   65.3810 C   0  0  0  0  0  0  0  0  0  0  0  0
  132.2910  124.2450   64.6000 C   0  0  0  0  0  0  0  0  0  0  0  0
  131.7540  123.0090   64.2500 C   0  0  0  0  0  0  0  0  0  0  0  0
  130.4770  122.6470   64.6730 C   0  0  0  0  0  0  0  0  0  0  0  0
  129.7360  123.5280   65.4550 C   0  0  0  0  0  0  0  0  0  0  0  0
  128.8400  126.8850   66.1430 C   0  0  0  0  0  0  0  0  0  0  0  0
  128.9240  127.2190   64.7170 C   0  0  0  0  0  0  0  0  0  0  0  0
  128.9910  127.4820   63.5930 N   0  0  0  0  0  0  0  0  0  0  0  0
  124.1350  131.6570   63.3870 N   0  0  0  0  0  0  0  0  0  0  0  0
  122.9960  133.8588   63.5742 H   0  0  0  0  0  0  0  0  0  0  0  0
  123.7326  134.4195   62.0348 H   0  0  0  0  0  0  0  0  0  0  0  0
  122.0820  133.7109   62.0348 H   0  0  0  0  0  0  0  0  0  0  0  0
  123.3503  132.2454   60.1234 H   0  0  0  0  0  0  0  0  0  0  0  0
  124.3697  129.9623   59.8873 H   0  0  0  0  0  0  0  0  0  0  0  0
  125.2458  128.7884   61.9236 H   0  0  0  0  0  0  0  0  0  0  0  0
  125.9990  129.1280   64.1520 H   0  0  0  0  0  0  0  0  0  0  0  0
  125.1265  128.9658   67.6117 H   0  0  0  0  0  0  0  0  0  0  0  0
  125.3915  127.7328   66.3066 H   0  0  0  0  0  0  0  0  0  0  0  0
  128.9694  126.8803   70.8892 H   0  0  0  0  0  0  0  0  0  0  0  0
  127.4138  126.0333   70.5901 H   0  0  0  0  0  0  0  0  0  0  0  0
  128.9541  125.1091   70.5901 H   0  0  0  0  0  0  0  0  0  0  0  0
  129.8059  124.5427   68.4480 H   0  0  0  0  0  0  0  0  0  0  0  0
  131.9667  126.1033   65.6530 H   0  0  0  0  0  0  0  0  0  0  0  0
  133.2991  124.5255   64.2610 H   0  0  0  0  0  0  0  0  0  0  0  0
  132.3427  122.3128   63.6346 H   0  0  0  0  0  0  0  0  0  0  0  0
  130.0568  121.6705   64.3905 H   0  0  0  0  0  0  0  0  0  0  0  0
  128.7260  123.2454   65.7868 H   0  0  0  0  0  0  0  0  0  0  0  0
  1  2  1  0
  2  3  2  0
  3  4  1  0
  4  5  2  0
  5  6  1  0
  6  7  1  0
  7  8  1  0
  8  9  2  0
  8 10  1  0
 10 11  1  0
 11 12  1  0
 12 13  2  0
 13 14  1  0
 14 15  1  0
 14 16  2  0
 16 17  1  0
 17 18  1  0
 18 19  2  0
 19 20  1  0
 20 21  2  0
 21 22  1  0
 22 23  2  0
 17 24  2  0
 24 25  1  0
 25 26  3  0
  6 27  2  0
 27  2  1  0
 24 12  1  0
 23 18  1  0
  1 28  1  0
  1 29  1  0
  1 30  1  0
  3 31  1  0
  4 32  1  0
  5 33  1  0
  7 34  1  0
 10 35  1  0
 10 36  1  0
 15 37  1  0
 15 38  1  0
 15 39  1  0
 16 40  1  0
 19 41  1  0
 20 42  1  0
 21 43  1  0
 22 44  1  0
 23 45  1  0
M  END
>  <Binding energies>  (1) 
[-8.17]

>  <Ligand effiencies>  (1) 
[-0.29178571428571426]

>  <Interactions>  (1) 
["V-B:ARG:545:CG:9894, V-B:GLU:543:CD:9880, V-B:GLU:543:C:9874, V-B:GLU:543:CB:9878, V-A:HIS:456:CE1:4069, V-B:ARG:545:CZ:9898, V-B:ARG:545:CD:9895, V-B:HIS:456:CE1:9040, V-B:GLU:543:CG:9879, V-A:GLU:543:CD:4908, H-B:GLY:454:N:9021, V-B:GLY:454:CA:9020, V-B:ASP:366:CG:8184, V-B:LEU:475:CD1:9229, V-B:ILE:369:CD1:8210, H-B:ILE:455:N:9026, H-B:TYR:484:OH:9319, V-B:ILE:369:CG2:8208, V-B:GLU:543:CA:9876, H-B:ARG:545:NE:9896, V-A:TYR:484:CZ:4347, V-A:LEU:475:CD1:4258, V-A:TYR:484:CE1:4345, H-B:GLU:543:OE1:9881"]

$$$$
3ch_Grossjean_2025
     RDKit          3D

 55 57  0  0  0  0  0  0  0  0999 V2000
  127.1830  127.9470   73.6410 C   0  0  0  0  0  0  0  0  0  0  0  0
  128.4490  127.9560   72.9910 O   0  0  0  0  0  0  0  0  0  0  0  0
  128.7450  126.9800   72.0560 C   0  0  0  0  0  0  0  0  0  0  0  0
  128.7200  127.1890   70.6680 C   0  0  0  0  0  0  0  0  0  0  0  0
  129.0410  126.1530   69.7790 C   0  0  0  0  0  0  0  0  0  0  0  0
  129.0480  126.2680   68.3760 N   0  0  0  0  0  0  0  0  0  0  0  0
  129.5500  127.2490   67.5930 C   0  0  0  0  0  0  0  0  0  0  0  0
  130.1270  128.2590   67.9960 O   0  0  0  0  0  0  0  0  0  0  0  0
  129.4030  127.0300   66.0880 C   0  0  0  0  0  0  0  0  0  0  0  0
  129.1200  125.2840   65.6720 S   0  0  0  0  0  0  0  0  0  0  0  0
  130.6400  124.6930   64.9610 C   0  0  0  0  0  0  0  0  0  0  0  0
  131.7520  125.1030   65.6210 N   0  0  0  0  0  0  0  0  0  0  0  0
  132.9600  124.7130   65.1550 C   0  0  0  0  0  0  0  0  0  0  0  0
  134.1610  125.2120   65.9370 C   0  0  0  0  0  0  0  0  0  0  0  0
  133.1070  123.9100   64.0270 C   0  0  0  0  0  0  0  0  0  0  0  0
  131.9690  123.4700   63.3360 C   0  0  0  0  0  0  0  0  0  0  0  0
  132.1760  122.6180   62.1240 C   0  0  0  0  0  0  0  0  0  0  0  0
  131.5940  121.3470   62.0510 C   0  0  0  0  0  0  0  0  0  0  0  0
  131.7880  120.5450   60.9290 C   0  0  0  0  0  0  0  0  0  0  0  0
  132.5710  121.0110   59.8760 C   0  0  0  0  0  0  0  0  0  0  0  0
  133.1630  122.2700   59.9370 C   0  0  0  0  0  0  0  0  0  0  0  0
  132.9670  123.0690   61.0610 C   0  0  0  0  0  0  0  0  0  0  0  0
  130.6940  123.8540   63.8230 C   0  0  0  0  0  0  0  0  0  0  0  0
  129.4700  123.3460   63.1970 C   0  0  0  0  0  0  0  0  0  0  0  0
  128.5030  122.9460   62.7020 N   0  0  0  0  0  0  0  0  0  0  0  0
  129.3680  124.8960   70.2900 C   0  0  0  0  0  0  0  0  0  0  0  0
  129.3980  124.6620   71.6740 C   0  0  0  0  0  0  0  0  0  0  0  0
  129.7220  123.4430   72.2440 O   0  0  0  0  0  0  0  0  0  0  0  0
  131.0850  123.0320   72.2930 C   0  0  0  0  0  0  0  0  0  0  0  0
  129.0820  125.7110   72.5460 C   0  0  0  0  0  0  0  0  0  0  0  0
  129.1250  125.5000   73.9030 O   0  0  0  0  0  0  0  0  0  0  0  0
  130.3910  125.7630   74.4910 C   0  0  0  0  0  0  0  0  0  0  0  0
  127.3305  127.9480   74.7311 H   0  0  0  0  0  0  0  0  0  0  0  0
  126.6136  128.8411   73.3472 H   0  0  0  0  0  0  0  0  0  0  0  0
  126.6264  127.0449   73.3472 H   0  0  0  0  0  0  0  0  0  0  0  0
  128.4451  128.1780   70.2727 H   0  0  0  0  0  0  0  0  0  0  0  0
  128.6530  125.4740   67.8930 H   0  0  0  0  0  0  0  0  0  0  0  0
  128.5505  127.6231   65.7255 H   0  0  0  0  0  0  0  0  0  0  0  0
  130.3420  127.3432   65.6082 H   0  0  0  0  0  0  0  0  0  0  0  0
  133.9577  125.1275   67.0147 H   0  0  0  0  0  0  0  0  0  0  0  0
  135.0426  124.6057   65.6816 H   0  0  0  0  0  0  0  0  0  0  0  0
  134.3533  126.2645   65.6816 H   0  0  0  0  0  0  0  0  0  0  0  0
  134.1104  123.6224   63.6799 H   0  0  0  0  0  0  0  0  0  0  0  0
  130.9791  120.9791   62.8856 H   0  0  0  0  0  0  0  0  0  0  0  0
  131.3251  119.5486   60.8749 H   0  0  0  0  0  0  0  0  0  0  0  0
  132.7232  120.3793   58.9885 H   0  0  0  0  0  0  0  0  0  0  0  0
  133.7818  122.6314   59.1024 H   0  0  0  0  0  0  0  0  0  0  0  0
  133.4374  124.0619   61.1136 H   0  0  0  0  0  0  0  0  0  0  0  0
  129.6061  124.0754   69.5972 H   0  0  0  0  0  0  0  0  0  0  0  0
  131.4017  122.9365   73.3421 H   0  0  0  0  0  0  0  0  0  0  0  0
  131.1936  122.0612   71.7874 H   0  0  0  0  0  0  0  0  0  0  0  0
  131.7122  123.7810   71.7874 H   0  0  0  0  0  0  0  0  0  0  0  0
  130.2975  125.7436   75.5868 H   0  0  0  0  0  0  0  0  0  0  0  0
  131.1106  124.9952   74.1708 H   0  0  0  0  0  0  0  0  0  0  0  0
  130.7453  126.7539   74.1708 H   0  0  0  0  0  0  0  0  0  0  0  0
  1  2  1  0
  2  3  1  0
  3  4  2  0
  4  5  1  0
  5  6  1  0
  6  7  1  0
  7  8  2  0
  7  9  1  0
  9 10  1  0
 10 11  1  0
 11 12  2  0
 12 13  1  0
 13 14  1  0
 13 15  2  0
 15 16  1  0
 16 17  1  0
 17 18  2  0
 18 19  1  0
 19 20  2  0
 20 21  1  0
 21 22  2  0
 16 23  2  0
 23 24  1  0
 24 25  3  0
  5 26  2  0
 26 27  1  0
 27 28  1  0
 28 29  1  0
 27 30  2  0
 30 31  1  0
 31 32  1  0
 30  3  1  0
 23 11  1  0
 22 17  1  0
  1 33  1  0
  1 34  1  0
  1 35  1  0
  4 36  1  0
  6 37  1  0
  9 38  1  0
  9 39  1  0
 14 40  1  0
 14 41  1  0
 14 42  1  0
 15 43  1  0
 18 44  1  0
 19 45  1  0
 20 46  1  0
 21 47  1  0
 22 48  1  0
 26 49  1  0
 29 50  1  0
 29 51  1  0
 29 52  1  0
 32 53  1  0
 32 54  1  0
 32 55  1  0
M  END
>  <Binding energies>  (1) 
[-7.79]

>  <Ligand effiencies>  (1) 
[-0.23606060606060605]

>  <Interactions>  (1) 
["V-A:HIS:456:CD2:4068, H-B:LYS:547:NZ:9923, V-B:GLU:543:C:9874, H-A:LYS:547:NZ:4951, V-B:HIS:456:CD2:9039, V-A:HIS:456:CE1:4069, H-A:HIS:456:NE2:4070, V-B:HIS:456:CE1:9040, V-B:GLU:543:CG:9879, V-A:GLU:543:CD:4908, V-B:ALA:541:CB:9864, V-A:LEU:475:CD1:4258, V-A:ARG:545:CZ:4926, V-A:GLY:453:CA:4044, H-A:TYR:484:OH:4348, V-A:GLY:454:CA:4049, V-B:TYR:539:CE2:9848, V-A:ARG:545:CD:4923, V-A:ILE:369:CG2:3237, V-A:ILE:369:CD1:3239, V-B:TYR:539:CD2:9846, V-A:ARG:545:CG:4922, V-A:HIS:456:CG:4066, V-A:TYR:484:CD2:4344, V-A:TYR:484:CE2:4346, V-A:HIS:456:CB:4065, V-A:TYR:484:CG:4342, V-B:HIS:456:CB:9036, V-B:HIS:456:CG:9037, H-B:GLU:543:O:9875"]

$$$$
3ci_Grossjean_2025
     RDKit          3D

 39 41  0  0  0  0  0  0  0  0999 V2000
  128.5430  125.9770   70.4130 C   0  0  0  0  0  0  0  0  0  0  0  0
  128.6740  126.2390   68.9250 C   0  0  0  0  0  0  0  0  0  0  0  0
  129.4320  125.4120   68.1010 C   0  0  0  0  0  0  0  0  0  0  0  0
  129.5090  125.6860   66.7280 C   0  0  0  0  0  0  0  0  0  0  0  0
  130.3220  124.7630   65.8800 C   0  0  0  0  0  0  0  0  0  0  0  0
  131.5950  125.1360   65.4300 C   0  0  0  0  0  0  0  0  0  0  0  0
  132.3440  124.2760   64.6330 C   0  0  0  0  0  0  0  0  0  0  0  0
  131.8200  123.0370   64.2750 C   0  0  0  0  0  0  0  0  0  0  0  0
  130.5530  122.6540   64.7060 C   0  0  0  0  0  0  0  0  0  0  0  0
  129.8060  123.5160   65.5040 C   0  0  0  0  0  0  0  0  0  0  0  0
  128.8140  126.8150   66.2260 C   0  0  0  0  0  0  0  0  0  0  0  0
  128.8930  127.1760   64.8060 C   0  0  0  0  0  0  0  0  0  0  0  0
  128.9550  127.4590   63.6850 N   0  0  0  0  0  0  0  0  0  0  0  0
  128.0620  127.6000   67.1330 C   0  0  0  0  0  0  0  0  0  0  0  0
  127.1290  129.0320   66.6050 S   0  0  0  0  0  0  0  0  0  0  0  0
  125.3680  128.7940   67.0110 C   0  0  0  0  0  0  0  0  0  0  0  0
  124.4230  129.6040   66.1160 C   0  0  0  0  0  0  0  0  0  0  0  0
  123.4120  130.1080   66.6080 O   0  0  0  0  0  0  0  0  0  0  0  0
  124.7780  129.6900   64.8140 N   0  0  0  0  0  0  0  0  0  0  0  0
  124.1180  130.3810   63.8070 C   0  0  0  0  0  0  0  0  0  0  0  0
  124.6210  131.5450   63.2280 C   0  0  0  0  0  0  0  0  0  0  0  0
  123.6830  131.9130   62.2900 C   0  0  0  0  0  0  0  0  0  0  0  0
  122.6690  131.0150   62.3040 O   0  0  0  0  0  0  0  0  0  0  0  0
  122.9550  130.0490   63.2700 N   0  0  0  0  0  0  0  0  0  0  0  0
  128.0030  127.3150   68.4590 N   0  0  0  0  0  0  0  0  0  0  0  0
  128.9664  126.8238   70.9731 H   0  0  0  0  0  0  0  0  0  0  0  0
  127.4805  125.8602   70.6726 H   0  0  0  0  0  0  0  0  0  0  0  0
  129.0871  125.0569   70.6726 H   0  0  0  0  0  0  0  0  0  0  0  0
  129.9671  124.5491   68.5242 H   0  0  0  0  0  0  0  0  0  0  0  0
  132.0061  126.1174   65.7092 H   0  0  0  0  0  0  0  0  0  0  0  0
  133.3451  124.5736   64.2876 H   0  0  0  0  0  0  0  0  0  0  0  0
  132.4118  122.3552   63.6466 H   0  0  0  0  0  0  0  0  0  0  0  0
  130.1439  121.6746   64.4173 H   0  0  0  0  0  0  0  0  0  0  0  0
  128.8031  123.2158   65.8418 H   0  0  0  0  0  0  0  0  0  0  0  0
  125.1253  127.7270   66.8991 H   0  0  0  0  0  0  0  0  0  0  0  0
  125.2215  129.1473   68.0424 H   0  0  0  0  0  0  0  0  0  0  0  0
  125.6280  129.2250   64.5360 H   0  0  0  0  0  0  0  0  0  0  0  0
  125.5636  132.0584   63.4686 H   0  0  0  0  0  0  0  0  0  0  0  0
  123.7467  132.7942   61.6347 H   0  0  0  0  0  0  0  0  0  0  0  0
  1  2  1  0
  2  3  2  0
  3  4  1  0
  4  5  1  0
  5  6  2  0
  6  7  1  0
  7  8  2  0
  8  9  1  0
  9 10  2  0
  4 11  2  0
 11 12  1  0
 12 13  3  0
 11 14  1  0
 14 15  1  0
 15 16  1  0
 16 17  1  0
 17 18  2  0
 17 19  1  0
 19 20  1  0
 20 21  1  0
 21 22  2  0
 22 23  1  0
 23 24  1  0
 14 25  2  0
 25  2  1  0
 10  5  1  0
 24 20  2  0
  1 26  1  0
  1 27  1  0
  1 28  1  0
  3 29  1  0
  6 30  1  0
  7 31  1  0
  8 32  1  0
  9 33  1  0
 10 34  1  0
 16 35  1  0
 16 36  1  0
 19 37  1  0
 21 38  1  0
 22 39  1  0
M  END
>  <Binding energies>  (1) 
[-8.12]

>  <Ligand effiencies>  (1) 
[-0.3123076923076923]

>  <Interactions>  (1) 
["V-B:ARG:545:CG:9894, V-B:GLU:543:CD:9880, V-B:GLU:543:C:9874, V-B:GLU:543:CB:9878, V-A:HIS:456:CE1:4069, V-B:ARG:545:CZ:9898, V-B:ARG:545:CD:9895, V-B:HIS:456:CE1:9040, V-B:GLU:543:CG:9879, V-A:GLU:543:CD:4908, H-B:GLY:454:N:9021, V-B:GLY:454:CA:9020, V-B:LEU:475:CD1:9229, V-B:ILE:369:CD1:8210, H-B:ARG:545:NH1:9899, H-B:ILE:455:N:9026, H-B:TYR:484:OH:9319, H-B:ARG:545:NH2:9900, V-B:GLU:543:CA:9876, H-B:ARG:545:NE:9896, V-A:TYR:484:CZ:4347, V-A:LEU:475:CD1:4258, V-A:TYR:484:CE1:4345, H-B:GLU:543:OE1:9881"]

$$$$
3cj_Grossjean_2025
     RDKit          3D

 39 41  0  0  0  0  0  0  0  0999 V2000
  128.5730  126.0120   70.3290 C   0  0  0  0  0  0  0  0  0  0  0  0
  128.6970  126.2960   68.8450 C   0  0  0  0  0  0  0  0  0  0  0  0
  129.3660  125.4240   67.9900 C   0  0  0  0  0  0  0  0  0  0  0  0
  129.4370  125.7150   66.6200 C   0  0  0  0  0  0  0  0  0  0  0  0
  130.1060  124.7200   65.7320 C   0  0  0  0  0  0  0  0  0  0  0  0
  129.5060  123.4820   65.4720 C   0  0  0  0  0  0  0  0  0  0  0  0
  130.1380  122.5500   64.6530 C   0  0  0  0  0  0  0  0  0  0  0  0
  131.3770  122.8510   64.0960 C   0  0  0  0  0  0  0  0  0  0  0  0
  131.9910  124.0730   64.3530 C   0  0  0  0  0  0  0  0  0  0  0  0
  131.3580  125.0050   65.1720 C   0  0  0  0  0  0  0  0  0  0  0  0
  128.8490  126.9170   66.1560 C   0  0  0  0  0  0  0  0  0  0  0  0
  128.9150  127.2910   64.7390 C   0  0  0  0  0  0  0  0  0  0  0  0
  128.9670  127.5860   63.6210 N   0  0  0  0  0  0  0  0  0  0  0  0
  128.1870  127.7410   67.0930 C   0  0  0  0  0  0  0  0  0  0  0  0
  127.2930  129.2070   66.6230 S   0  0  0  0  0  0  0  0  0  0  0  0
  125.5420  128.8020   66.9220 C   0  0  0  0  0  0  0  0  0  0  0  0
  124.6130  129.5390   65.9520 C   0  0  0  0  0  0  0  0  0  0  0  0
  123.7210  130.2630   66.3980 O   0  0  0  0  0  0  0  0  0  0  0  0
  124.8810  129.3550   64.6410 N   0  0  0  0  0  0  0  0  0  0  0  0
  124.2820  130.0050   63.5750 C   0  0  0  0  0  0  0  0  0  0  0  0
  123.0000  130.0780   63.2890 N   0  0  0  0  0  0  0  0  0  0  0  0
  122.7850  130.8080   62.2130 C   0  0  0  0  0  0  0  0  0  0  0  0
  123.9110  131.3480   61.5990 C   0  0  0  0  0  0  0  0  0  0  0  0
  125.3260  130.8640   62.4870 S   0  0  0  0  0  0  0  0  0  0  0  0
  128.1050  127.4310   68.4120 N   0  0  0  0  0  0  0  0  0  0  0  0
  128.9492  126.8737   70.8999 H   0  0  0  0  0  0  0  0  0  0  0  0
  127.5168  125.8375   70.5819 H   0  0  0  0  0  0  0  0  0  0  0  0
  129.1630  125.1187   70.5819 H   0  0  0  0  0  0  0  0  0  0  0  0
  129.8361  124.5121   68.3869 H   0  0  0  0  0  0  0  0  0  0  0  0
  128.5289  123.2441   65.9177 H   0  0  0  0  0  0  0  0  0  0  0  0
  129.6602  121.5807   64.4474 H   0  0  0  0  0  0  0  0  0  0  0  0
  131.8756  122.1164   63.4466 H   0  0  0  0  0  0  0  0  0  0  0  0
  132.9720  124.3020   63.9113 H   0  0  0  0  0  0  0  0  0  0  0  0
  131.8437  125.9698   65.3801 H   0  0  0  0  0  0  0  0  0  0  0  0
  125.4008  127.7184   66.7960 H   0  0  0  0  0  0  0  0  0  0  0  0
  125.2882  129.1180   67.9446 H   0  0  0  0  0  0  0  0  0  0  0  0
  125.6530  128.7470   64.4060 H   0  0  0  0  0  0  0  0  0  0  0  0
  121.7715  130.9809   61.8219 H   0  0  0  0  0  0  0  0  0  0  0  0
  123.9068  131.9789   60.6979 H   0  0  0  0  0  0  0  0  0  0  0  0
  1  2  1  0
  2  3  2  0
  3  4  1  0
  4  5  1  0
  5  6  2  0
  6  7  1  0
  7  8  2  0
  8  9  1  0
  9 10  2  0
  4 11  2  0
 11 12  1  0
 12 13  3  0
 11 14  1  0
 14 15  1  0
 15 16  1  0
 16 17  1  0
 17 18  2  0
 17 19  1  0
 19 20  1  0
 20 21  2  0
 21 22  1  0
 22 23  2  0
 23 24  1  0
 14 25  2  0
 25  2  1  0
 10  5  1  0
 24 20  1  0
  1 26  1  0
  1 27  1  0
  1 28  1  0
  3 29  1  0
  6 30  1  0
  7 31  1  0
  8 32  1  0
  9 33  1  0
 10 34  1  0
 16 35  1  0
 16 36  1  0
 19 37  1  0
 22 38  1  0
 23 39  1  0
M  END
>  <Binding energies>  (1) 
[-7.96]

>  <Ligand effiencies>  (1) 
[-0.30615384615384617]

>  <Interactions>  (1) 
["V-B:ARG:545:CG:9894, V-B:GLU:543:CD:9880, V-B:GLU:543:C:9874, V-B:GLU:543:CB:9878, V-A:HIS:456:CE1:4069, V-B:ARG:545:CZ:9898, V-B:ARG:545:CD:9895, V-B:HIS:456:CE1:9040, V-B:GLU:543:CG:9879, V-A:GLU:543:CD:4908, H-B:GLY:454:N:9021, V-B:ASP:366:CG:8184, V-B:ILE:369:CD1:8210, H-B:ARG:545:NH1:9899, H-B:ILE:455:N:9026, H-B:TYR:484:OH:9319, H-B:ARG:545:NH2:9900, V-B:GLY:453:CA:9015, V-B:GLY:453:C:9013, V-B:ALA:541:CB:9864, V-B:GLU:543:CA:9876, V-A:TYR:484:CZ:4347, V-A:LEU:475:CD1:4258, V-A:TYR:484:CE1:4345, H-B:GLU:543:OE1:9881"]

$$$$
3ck_Grossjean_2025
     RDKit          3D

 57 58  0  0  0  0  0  0  0  0999 V2000
  131.5810  131.1860   61.3650 C   0  0  0  0  0  0  0  0  0  0  0  0
  130.5390  132.1480   61.4030 O   0  0  0  0  0  0  0  0  0  0  0  0
  129.4120  131.7310   62.1620 C   0  0  0  0  0  0  0  0  0  0  0  0
  129.0660  130.2780   61.8120 C   0  0  0  0  0  0  0  0  0  0  0  0
  127.6710  130.1750   61.5570 O   0  0  0  0  0  0  0  0  0  0  0  0
  127.3340  129.2070   60.5720 C   0  0  0  0  0  0  0  0  0  0  0  0
  126.0380  128.5010   60.9860 C   0  0  0  0  0  0  0  0  0  0  0  0
  125.6200  129.0290   62.2360 O   0  0  0  0  0  0  0  0  0  0  0  0
  124.6520  130.0640   62.1520 C   0  0  0  0  0  0  0  0  0  0  0  0
  124.0180  130.2910   63.5370 C   0  0  0  0  0  0  0  0  0  0  0  0
  124.7290  129.6200   64.6290 N   0  0  0  0  0  0  0  0  0  0  0  0
  124.3830  129.6530   65.9290 C   0  0  0  0  0  0  0  0  0  0  0  0
  123.3870  130.2470   66.3470 O   0  0  0  0  0  0  0  0  0  0  0  0
  125.3150  128.8870   66.8820 C   0  0  0  0  0  0  0  0  0  0  0  0
  127.1010  129.1600   66.6180 S   0  0  0  0  0  0  0  0  0  0  0  0
  127.9980  127.7050   67.1360 C   0  0  0  0  0  0  0  0  0  0  0  0
  127.9110  127.4020   68.4560 N   0  0  0  0  0  0  0  0  0  0  0  0
  128.5690  126.3160   68.9190 C   0  0  0  0  0  0  0  0  0  0  0  0
  128.4280  126.0430   70.4040 C   0  0  0  0  0  0  0  0  0  0  0  0
  129.3340  125.4950   68.0950 C   0  0  0  0  0  0  0  0  0  0  0  0
  129.4440  125.7910   66.7300 C   0  0  0  0  0  0  0  0  0  0  0  0
  130.2940  124.8960   65.8890 C   0  0  0  0  0  0  0  0  0  0  0  0
  129.8170  123.6400   65.4950 C   0  0  0  0  0  0  0  0  0  0  0  0
  130.6090  122.7960   64.7190 C   0  0  0  0  0  0  0  0  0  0  0  0
  131.8840  123.2040   64.3390 C   0  0  0  0  0  0  0  0  0  0  0  0
  132.3760  124.4470   64.7300 C   0  0  0  0  0  0  0  0  0  0  0  0
  131.5820  125.2880   65.5050 C   0  0  0  0  0  0  0  0  0  0  0  0
  128.7480  126.9220   66.2280 C   0  0  0  0  0  0  0  0  0  0  0  0
  128.7920  127.2570   64.8000 C   0  0  0  0  0  0  0  0  0  0  0  0
  128.8260  127.5200   63.6740 N   0  0  0  0  0  0  0  0  0  0  0  0
  131.8707  130.9185   62.3919 H   0  0  0  0  0  0  0  0  0  0  0  0
  131.2309  130.2869   60.8368 H   0  0  0  0  0  0  0  0  0  0  0  0
  132.4494  131.6067   60.8368 H   0  0  0  0  0  0  0  0  0  0  0  0
  129.6455  131.8037   63.2345 H   0  0  0  0  0  0  0  0  0  0  0  0
  128.5537  132.3779   61.9277 H   0  0  0  0  0  0  0  0  0  0  0  0
  129.6267  129.9724   60.9164 H   0  0  0  0  0  0  0  0  0  0  0  0
  129.3361  129.6223   62.6529 H   0  0  0  0  0  0  0  0  0  0  0  0
  127.1890  129.7040   59.6015 H   0  0  0  0  0  0  0  0  0  0  0  0
  128.1457  128.4700   60.4835 H   0  0  0  0  0  0  0  0  0  0  0  0
  125.2600  128.6784   60.2288 H   0  0  0  0  0  0  0  0  0  0  0  0
  126.2082  127.4176   61.0711 H   0  0  0  0  0  0  0  0  0  0  0  0
  125.1365  130.9921   61.8145 H   0  0  0  0  0  0  0  0  0  0  0  0
  123.8696  129.7755   61.4346 H   0  0  0  0  0  0  0  0  0  0  0  0
  124.0086  131.3718   63.7414 H   0  0  0  0  0  0  0  0  0  0  0  0
  123.0061  129.8611   63.5010 H   0  0  0  0  0  0  0  0  0  0  0  0
  125.5520  129.0960   64.3670 H   0  0  0  0  0  0  0  0  0  0  0  0
  125.0735  129.1920   67.9109 H   0  0  0  0  0  0  0  0  0  0  0  0
  125.1391  127.8192   66.6847 H   0  0  0  0  0  0  0  0  0  0  0  0
  128.8599  126.8793   70.9732 H   0  0  0  0  0  0  0  0  0  0  0  0
  127.3629  125.9380   70.6580 H   0  0  0  0  0  0  0  0  0  0  0  0
  128.9589  125.1137   70.6580 H   0  0  0  0  0  0  0  0  0  0  0  0
  129.8496  124.6181   68.5136 H   0  0  0  0  0  0  0  0  0  0  0  0
  128.8106  123.3174   65.8000 H   0  0  0  0  0  0  0  0  0  0  0  0
  130.2282  121.8119   64.4083 H   0  0  0  0  0  0  0  0  0  0  0  0
  132.5087  122.5391   63.7245 H   0  0  0  0  0  0  0  0  0  0  0  0
  133.3857  124.7623   64.4283 H   0  0  0  0  0  0  0  0  0  0  0  0
  131.9699  126.2686   65.8182 H   0  0  0  0  0  0  0  0  0  0  0  0
  1  2  1  0
  2  3  1  0
  3  4  1  0
  4  5  1  0
  5  6  1  0
  6  7  1  0
  7  8  1  0
  8  9  1  0
  9 10  1  0
 10 11  1  0
 11 12  1  0
 12 13  2  0
 12 14  1  0
 14 15  1  0
 15 16  1  0
 16 17  2  0
 17 18  1  0
 18 19  1  0
 18 20  2  0
 20 21  1  0
 21 22  1  0
 22 23  2  0
 23 24  1  0
 24 25  2  0
 25 26  1  0
 26 27  2  0
 21 28  2  0
 28 29  1  0
 29 30  3  0
 28 16  1  0
 27 22  1  0
  1 31  1  0
  1 32  1  0
  1 33  1  0
  3 34  1  0
  3 35  1  0
  4 36  1  0
  4 37  1  0
  6 38  1  0
  6 39  1  0
  7 40  1  0
  7 41  1  0
  9 42  1  0
  9 43  1  0
 10 44  1  0
 10 45  1  0
 11 46  1  0
 14 47  1  0
 14 48  1  0
 19 49  1  0
 19 50  1  0
 19 51  1  0
 20 52  1  0
 23 53  1  0
 24 54  1  0
 25 55  1  0
 26 56  1  0
 27 57  1  0
M  END
>  <Binding energies>  (1) 
[-6.36]

>  <Ligand effiencies>  (1) 
[-0.20516129032258065]

>  <Interactions>  (1) 
["V-B:ARG:545:CG:9894, V-B:GLU:543:CD:9880, V-B:GLU:543:C:9874, V-B:GLU:543:CB:9878, V-A:HIS:456:CE1:4069, V-B:ARG:545:CZ:9898, V-B:ARG:545:CD:9895, V-B:HIS:456:CE1:9040, V-B:GLU:543:CG:9879, V-A:GLU:543:CD:4908, H-B:GLY:454:N:9021, V-B:ASP:366:CG:8184, V-A:PRO:540:CA:4883, H-B:ILE:455:N:9026, V-A:ALA:541:CB:4892, H-B:TYR:484:OH:9319, H-B:ARG:545:NH2:9900, V-B:GLU:543:CA:9876, V-A:TYR:484:CZ:4347, V-A:LEU:475:CD1:4258, V-A:TYR:484:CE1:4345, V-A:PRO:540:CB:4885, V-B:GLY:544:C:9884, H-A:ALA:541:N:4891, H-B:GLU:543:OE1:9881"]

$$$$
4aa_Grossjean_2025
     RDKit          3D

 45 47  0  0  0  0  0  0  0  0999 V2000
  125.3020  126.6460   74.1880 C   0  0  0  0  0  0  0  0  0  0  0  0
  126.5650  127.1090   73.4550 C   0  0  0  0  0  0  0  0  0  0  0  0
  127.6340  126.2180   73.7470 O   0  0  0  0  0  0  0  0  0  0  0  0
  128.8990  126.4780   73.3260 C   0  0  0  0  0  0  0  0  0  0  0  0
  129.7600  127.0020   74.0410 O   0  0  0  0  0  0  0  0  0  0  0  0
  129.1460  126.0700   71.9030 C   0  0  0  0  0  0  0  0  0  0  0  0
  129.7810  124.8490   71.6420 C   0  0  0  0  0  0  0  0  0  0  0  0
  130.0290  124.4450   70.3330 C   0  0  0  0  0  0  0  0  0  0  0  0
  129.6400  125.2470   69.2590 C   0  0  0  0  0  0  0  0  0  0  0  0
  129.9460  124.7460   67.9790 N   0  0  0  0  0  0  0  0  0  0  0  0
  129.4640  125.1010   66.7640 C   0  0  0  0  0  0  0  0  0  0  0  0
  128.5890  125.9490   66.5870 O   0  0  0  0  0  0  0  0  0  0  0  0
  130.0410  124.3790   65.6280 C   0  0  0  0  0  0  0  0  0  0  0  0
  129.3550  122.8350   65.1140 S   0  0  0  0  0  0  0  0  0  0  0  0
  130.5590  122.6670   63.8560 C   0  0  0  0  0  0  0  0  0  0  0  0
  130.5830  121.6130   63.0390 N   0  0  0  0  0  0  0  0  0  0  0  0
  131.5700  121.6030   62.1100 C   0  0  0  0  0  0  0  0  0  0  0  0
  131.5840  120.3920   61.1940 C   0  0  0  0  0  0  0  0  0  0  0  0
  132.5200  122.6130   61.9770 C   0  0  0  0  0  0  0  0  0  0  0  0
  132.4900  123.7190   62.8350 C   0  0  0  0  0  0  0  0  0  0  0  0
  133.5480  124.7970   62.6510 C   0  0  0  0  0  0  0  0  0  0  0  0
  131.4720  123.7630   63.8250 C   0  0  0  0  0  0  0  0  0  0  0  0
  131.1570  124.7230   64.8500 C   0  0  0  0  0  0  0  0  0  0  0  0
  131.8920  125.8670   65.0310 N   0  0  0  0  0  0  0  0  0  0  0  0
  129.0080  126.4730   69.5100 C   0  0  0  0  0  0  0  0  0  0  0  0
  128.7640  126.8780   70.8210 C   0  0  0  0  0  0  0  0  0  0  0  0
  125.4656  126.7060   75.2741 H   0  0  0  0  0  0  0  0  0  0  0  0
  124.4576  127.2931   73.9081 H   0  0  0  0  0  0  0  0  0  0  0  0
  125.0759  125.6065   73.9081 H   0  0  0  0  0  0  0  0  0  0  0  0
  126.3785  127.1157   72.3709 H   0  0  0  0  0  0  0  0  0  0  0  0
  126.8312  128.1235   73.7867 H   0  0  0  0  0  0  0  0  0  0  0  0
  130.0864  124.2036   72.4788 H   0  0  0  0  0  0  0  0  0  0  0  0
  130.5352  123.4869   70.1438 H   0  0  0  0  0  0  0  0  0  0  0  0
  130.6240  123.9960   67.9810 H   0  0  0  0  0  0  0  0  0  0  0  0
  131.5946  119.4740   61.8000 H   0  0  0  0  0  0  0  0  0  0  0  0
  130.6857  120.4020   60.5592 H   0  0  0  0  0  0  0  0  0  0  0  0
  132.4818  120.4227   60.5592 H   0  0  0  0  0  0  0  0  0  0  0  0
  133.2935  122.5417   61.1982 H   0  0  0  0  0  0  0  0  0  0  0  0
  133.8908  125.1463   63.6361 H   0  0  0  0  0  0  0  0  0  0  0  0
  134.4000  124.3829   62.0919 H   0  0  0  0  0  0  0  0  0  0  0  0
  133.1180  125.6411   62.0919 H   0  0  0  0  0  0  0  0  0  0  0  0
  131.9970  126.2950   65.9390 H   0  0  0  0  0  0  0  0  0  0  0  0
  132.3520  126.3240   64.2560 H   0  0  0  0  0  0  0  0  0  0  0  0
  128.7043  127.1162   68.6709 H   0  0  0  0  0  0  0  0  0  0  0  0
  128.2669  127.8409   71.0096 H   0  0  0  0  0  0  0  0  0  0  0  0
  1  2  1  0
  2  3  1  0
  3  4  1  0
  4  5  2  0
  4  6  1  0
  6  7  2  0
  7  8  1  0
  8  9  2  0
  9 10  1  0
 10 11  1  0
 11 12  2  0
 11 13  1  0
 13 14  1  0
 14 15  1  0
 15 16  2  0
 16 17  1  0
 17 18  1  0
 17 19  2  0
 19 20  1  0
 20 21  1  0
 20 22  2  0
 22 23  1  0
 23 24  1  0
  9 25  1  0
 25 26  2  0
 26  6  1  0
 23 13  2  0
 22 15  1  0
  1 27  1  0
  1 28  1  0
  1 29  1  0
  2 30  1  0
  2 31  1  0
  7 32  1  0
  8 33  1  0
 10 34  1  0
 18 35  1  0
 18 36  1  0
 18 37  1  0
 19 38  1  0
 21 39  1  0
 21 40  1  0
 21 41  1  0
 24 42  1  0
 24 43  1  0
 25 44  1  0
 26 45  1  0
M  END
>  <Binding energies>  (1) 
[-7.79]

>  <Ligand effiencies>  (1) 
[-0.26862068965517244]

>  <Interactions>  (1) 
["V-A:HIS:456:CD2:4068, H-B:LYS:547:NZ:9923, V-B:GLU:543:C:9874, H-A:LYS:547:NZ:4951, V-B:GLU:543:CB:9878, V-A:HIS:456:CE1:4069, V-B:HIS:456:CE1:9040, V-B:GLU:543:CG:9879, H-A:GLU:543:OE2:4910, V-A:GLU:543:CD:4908, V-B:ALA:541:CB:9864, V-B:GLU:543:CA:9876, V-A:TYR:484:CZ:4347, V-A:LEU:475:CD1:4258, V-A:TYR:484:CE1:4345, V-A:ARG:545:CZ:4926, H-A:TYR:484:OH:4348, V-A:ASP:366:CG:3213, V-A:HIS:456:CG:4066, V-B:LYS:547:CD:9921, V-B:LYS:547:CG:9920, V-B:HIS:456:CG:9037, H-B:GLU:543:O:9875, H-A:HIS:456:ND1:4067"]

$$$$
4ab_Grossjean_2025
     RDKit          3D

 42 44  0  0  0  0  0  0  0  0999 V2000
  126.6930  126.8080   73.7510 C   0  0  0  0  0  0  0  0  0  0  0  0
  127.8310  125.9650   73.8520 O   0  0  0  0  0  0  0  0  0  0  0  0
  129.0410  126.3640   73.3820 C   0  0  0  0  0  0  0  0  0  0  0  0
  129.8640  126.9860   74.0610 O   0  0  0  0  0  0  0  0  0  0  0  0
  129.2760  125.9790   71.9500 C   0  0  0  0  0  0  0  0  0  0  0  0
  129.8720  124.7440   71.6630 C   0  0  0  0  0  0  0  0  0  0  0  0
  130.1050  124.3600   70.3440 C   0  0  0  0  0  0  0  0  0  0  0  0
  129.7400  125.1960   69.2890 C   0  0  0  0  0  0  0  0  0  0  0  0
  130.0280  124.7110   67.9990 N   0  0  0  0  0  0  0  0  0  0  0  0
  129.4840  125.0380   66.8010 C   0  0  0  0  0  0  0  0  0  0  0  0
  128.5610  125.8390   66.6550 O   0  0  0  0  0  0  0  0  0  0  0  0
  130.0580  124.3450   65.6460 C   0  0  0  0  0  0  0  0  0  0  0  0
  129.3710  122.8140   65.0950 S   0  0  0  0  0  0  0  0  0  0  0  0
  130.5690  122.6780   63.8280 C   0  0  0  0  0  0  0  0  0  0  0  0
  130.5930  121.6440   62.9870 N   0  0  0  0  0  0  0  0  0  0  0  0
  131.5740  121.6580   62.0530 C   0  0  0  0  0  0  0  0  0  0  0  0
  131.5860  120.4700   61.1090 C   0  0  0  0  0  0  0  0  0  0  0  0
  132.5220  122.6730   61.9400 C   0  0  0  0  0  0  0  0  0  0  0  0
  132.4950  123.7570   62.8250 C   0  0  0  0  0  0  0  0  0  0  0  0
  133.5510  124.8390   62.6620 C   0  0  0  0  0  0  0  0  0  0  0  0
  131.4820  123.7760   63.8220 C   0  0  0  0  0  0  0  0  0  0  0  0
  131.1710  124.7070   64.8720 C   0  0  0  0  0  0  0  0  0  0  0  0
  131.9070  125.8470   65.0800 N   0  0  0  0  0  0  0  0  0  0  0  0
  129.1470  126.4370   69.5670 C   0  0  0  0  0  0  0  0  0  0  0  0
  128.9170  126.8200   70.8850 C   0  0  0  0  0  0  0  0  0  0  0  0
  126.3398  127.0696   74.7594 H   0  0  0  0  0  0  0  0  0  0  0  0
  126.9634  127.7254   73.2077 H   0  0  0  0  0  0  0  0  0  0  0  0
  125.8941  126.2820   73.2077 H   0  0  0  0  0  0  0  0  0  0  0  0
  130.1583  124.0721   72.4855 H   0  0  0  0  0  0  0  0  0  0  0  0
  130.5802  123.3906   70.1333 H   0  0  0  0  0  0  0  0  0  0  0  0
  130.7440  124.0000   67.9770 H   0  0  0  0  0  0  0  0  0  0  0  0
  131.5954  119.5378   61.6929 H   0  0  0  0  0  0  0  0  0  0  0  0
  130.6875  120.4964   60.4749 H   0  0  0  0  0  0  0  0  0  0  0  0
  132.4837  120.5146   60.4749 H   0  0  0  0  0  0  0  0  0  0  0  0
  133.2914  122.6223   61.1555 H   0  0  0  0  0  0  0  0  0  0  0  0
  133.8833  125.1794   63.6538 H   0  0  0  0  0  0  0  0  0  0  0  0
  134.4096  124.4328   62.1071 H   0  0  0  0  0  0  0  0  0  0  0  0
  133.1240  125.6874   62.1071 H   0  0  0  0  0  0  0  0  0  0  0  0
  131.9830  126.2730   65.9920 H   0  0  0  0  0  0  0  0  0  0  0  0
  132.3950  126.3020   64.3210 H   0  0  0  0  0  0  0  0  0  0  0  0
  128.8637  127.1077   68.7424 H   0  0  0  0  0  0  0  0  0  0  0  0
  128.4485  127.7929   71.0946 H   0  0  0  0  0  0  0  0  0  0  0  0
  1  2  1  0
  2  3  1  0
  3  4  2  0
  3  5  1  0
  5  6  2  0
  6  7  1  0
  7  8  2  0
  8  9  1  0
  9 10  1  0
 10 11  2  0
 10 12  1  0
 12 13  1  0
 13 14  1  0
 14 15  2  0
 15 16  1  0
 16 17  1  0
 16 18  2  0
 18 19  1  0
 19 20  1  0
 19 21  2  0
 21 22  1  0
 22 23  1  0
  8 24  1  0
 24 25  2  0
 25  5  1  0
 22 12  2  0
 21 14  1  0
  1 26  1  0
  1 27  1  0
  1 28  1  0
  6 29  1  0
  7 30  1  0
  9 31  1  0
 17 32  1  0
 17 33  1  0
 17 34  1  0
 18 35  1  0
 20 36  1  0
 20 37  1  0
 20 38  1  0
 23 39  1  0
 23 40  1  0
 24 41  1  0
 25 42  1  0
M  END
>  <Binding energies>  (1) 
[-7.54]

>  <Ligand effiencies>  (1) 
[-0.2692857142857143]

>  <Interactions>  (1) 
["V-A:HIS:456:CD2:4068, H-B:LYS:547:NZ:9923, V-B:GLU:543:C:9874, H-A:LYS:547:NZ:4951, V-B:GLU:543:CB:9878, V-A:HIS:456:CE1:4069, V-B:HIS:456:CE1:9040, V-B:GLU:543:CG:9879, H-A:GLU:543:OE2:4910, V-A:GLU:543:CD:4908, V-B:ALA:541:CB:9864, V-B:GLU:543:CA:9876, V-A:TYR:484:CZ:4347, V-A:LEU:475:CD1:4258, V-A:TYR:484:CE1:4345, V-A:ARG:545:CZ:4926, H-A:TYR:484:OH:4348, V-A:ASP:366:CG:3213, V-B:TYR:539:CD2:9846, V-A:HIS:456:CG:4066, V-A:TYR:484:CE2:4346, V-A:TYR:484:CD1:4343, V-B:LYS:547:CD:9921, H-B:GLU:543:O:9875, H-A:HIS:456:ND1:4067"]

$$$$
4ac_Grossjean_2025
     RDKit          3D

 40 42  0  0  0  0  0  0  0  0999 V2000
  127.0490  126.9940   73.3810 C   0  0  0  0  0  0  0  0  0  0  0  0
  127.9030  125.8860   73.1170 O   0  0  0  0  0  0  0  0  0  0  0  0
  128.3980  125.7050   71.8400 C   0  0  0  0  0  0  0  0  0  0  0  0
  129.3030  124.6590   71.6660 C   0  0  0  0  0  0  0  0  0  0  0  0
  129.8540  124.3990   70.4130 C   0  0  0  0  0  0  0  0  0  0  0  0
  129.4990  125.1810   69.3140 C   0  0  0  0  0  0  0  0  0  0  0  0
  130.1160  124.8540   68.0930 N   0  0  0  0  0  0  0  0  0  0  0  0
  129.7680  125.2110   66.8330 C   0  0  0  0  0  0  0  0  0  0  0  0
  128.7770  125.8910   66.5590 O   0  0  0  0  0  0  0  0  0  0  0  0
  130.6560  124.7250   65.7740 C   0  0  0  0  0  0  0  0  0  0  0  0
  132.2400  125.4620   65.5290 S   0  0  0  0  0  0  0  0  0  0  0  0
  132.5880  124.3840   64.1960 C   0  0  0  0  0  0  0  0  0  0  0  0
  133.7390  124.4400   63.5250 N   0  0  0  0  0  0  0  0  0  0  0  0
  133.8830  123.5490   62.5150 C   0  0  0  0  0  0  0  0  0  0  0  0
  135.1990  123.6290   61.7640 C   0  0  0  0  0  0  0  0  0  0  0  0
  132.9110  122.6140   62.1610 C   0  0  0  0  0  0  0  0  0  0  0  0
  131.7040  122.5580   62.8680 C   0  0  0  0  0  0  0  0  0  0  0  0
  130.6750  121.5210   62.4440 C   0  0  0  0  0  0  0  0  0  0  0  0
  131.5190  123.4760   63.9360 C   0  0  0  0  0  0  0  0  0  0  0  0
  130.4300  123.6910   64.8510 C   0  0  0  0  0  0  0  0  0  0  0  0
  129.2810  122.9420   64.8090 N   0  0  0  0  0  0  0  0  0  0  0  0
  128.5990  126.2440   69.4830 C   0  0  0  0  0  0  0  0  0  0  0  0
  128.0500  126.5010   70.7370 C   0  0  0  0  0  0  0  0  0  0  0  0
  126.9465  127.1270   74.4681 H   0  0  0  0  0  0  0  0  0  0  0  0
  127.4817  127.9038   72.9394 H   0  0  0  0  0  0  0  0  0  0  0  0
  126.0590  126.8073   72.9394 H   0  0  0  0  0  0  0  0  0  0  0  0
  129.5846  124.0333   72.5257 H   0  0  0  0  0  0  0  0  0  0  0  0
  130.5714  123.5742   70.2901 H   0  0  0  0  0  0  0  0  0  0  0  0
  130.9130  124.2380   68.1770 H   0  0  0  0  0  0  0  0  0  0  0  0
  136.0294  123.6795   62.4837 H   0  0  0  0  0  0  0  0  0  0  0  0
  135.3153  122.7363   61.1319 H   0  0  0  0  0  0  0  0  0  0  0  0
  135.2063  124.5292   61.1319 H   0  0  0  0  0  0  0  0  0  0  0  0
  133.0925  121.9207   61.3265 H   0  0  0  0  0  0  0  0  0  0  0  0
  130.2234  121.0659   63.3378 H   0  0  0  0  0  0  0  0  0  0  0  0
  129.8912  122.0063   61.8438 H   0  0  0  0  0  0  0  0  0  0  0  0
  131.1663  120.7410   61.8438 H   0  0  0  0  0  0  0  0  0  0  0  0
  129.0990  122.2060   65.4750 H   0  0  0  0  0  0  0  0  0  0  0  0
  128.5730  123.1070   64.1070 H   0  0  0  0  0  0  0  0  0  0  0  0
  128.3267  126.8751   68.6242 H   0  0  0  0  0  0  0  0  0  0  0  0
  127.3402  127.3317   70.8638 H   0  0  0  0  0  0  0  0  0  0  0  0
  1  2  1  0
  2  3  1  0
  3  4  2  0
  4  5  1  0
  5  6  2  0
  6  7  1  0
  7  8  1  0
  8  9  2  0
  8 10  1  0
 10 11  1  0
 11 12  1  0
 12 13  2  0
 13 14  1  0
 14 15  1  0
 14 16  2  0
 16 17  1  0
 17 18  1  0
 17 19  2  0
 19 20  1  0
 20 21  1  0
  6 22  1  0
 22 23  2  0
 23  3  1  0
 20 10  2  0
 19 12  1  0
  1 24  1  0
  1 25  1  0
  1 26  1  0
  4 27  1  0
  5 28  1  0
  7 29  1  0
 15 30  1  0
 15 31  1  0
 15 32  1  0
 16 33  1  0
 18 34  1  0
 18 35  1  0
 18 36  1  0
 21 37  1  0
 21 38  1  0
 22 39  1  0
 23 40  1  0
M  END
>  <Binding energies>  (1) 
[-6.9]

>  <Ligand effiencies>  (1) 
[-0.2653846153846154]

>  <Interactions>  (1) 
["V-A:HIS:456:CD2:4068, H-B:LYS:547:NZ:9923, V-B:GLU:543:C:9874, V-B:GLU:543:CB:9878, V-A:HIS:456:CE1:4069, V-B:HIS:456:CE1:9040, V-B:GLU:543:CG:9879, V-B:ALA:541:CB:9864, V-B:GLU:543:CA:9876, V-A:TYR:484:CZ:4347, V-A:LEU:475:CD1:4258, V-A:TYR:484:CE1:4345, H-A:GLY:454:N:4050, V-A:GLY:453:CA:4044, H-A:ARG:545:NH2:4928, H-A:TYR:484:OH:4348, V-A:GLY:453:C:4042, V-A:GLY:454:CA:4049, V-A:ILE:369:CD1:3239, V-B:GLY:544:C:9884, V-A:HIS:456:CG:4066, H-B:GLU:543:O:9875, H-A:HIS:456:ND1:4067"]

$$$$
4ad_Grossjean_2025
     RDKit          3D

 36 38  0  0  0  0  0  0  0  0999 V2000
  123.3460  134.8350   61.3160 C   0  0  0  0  0  0  0  0  0  0  0  0
  124.5580  134.0220   61.7310 C   0  0  0  0  0  0  0  0  0  0  0  0
  125.8270  134.3270   61.2460 C   0  0  0  0  0  0  0  0  0  0  0  0
  126.9310  133.5610   61.6400 C   0  0  0  0  0  0  0  0  0  0  0  0
  128.2970  133.9320   61.0820 C   0  0  0  0  0  0  0  0  0  0  0  0
  126.7030  132.4830   62.5380 C   0  0  0  0  0  0  0  0  0  0  0  0
  127.5830  131.5160   63.1360 C   0  0  0  0  0  0  0  0  0  0  0  0
  128.9330  131.5070   62.8920 N   0  0  0  0  0  0  0  0  0  0  0  0
  126.9350  130.5990   63.9790 C   0  0  0  0  0  0  0  0  0  0  0  0
  127.5150  129.4830   64.7290 C   0  0  0  0  0  0  0  0  0  0  0  0
  128.3940  128.7790   64.2270 O   0  0  0  0  0  0  0  0  0  0  0  0
  127.0270  129.3080   65.9810 N   0  0  0  0  0  0  0  0  0  0  0  0
  127.3360  128.3170   66.9330 C   0  0  0  0  0  0  0  0  0  0  0  0
  128.6560  128.3020   67.3920 C   0  0  0  0  0  0  0  0  0  0  0  0
  129.0580  127.3660   68.3410 C   0  0  0  0  0  0  0  0  0  0  0  0
  128.1360  126.4500   68.8400 C   0  0  0  0  0  0  0  0  0  0  0  0
  126.8150  126.4630   68.4010 C   0  0  0  0  0  0  0  0  0  0  0  0
  126.4100  127.3970   67.4510 C   0  0  0  0  0  0  0  0  0  0  0  0
  125.2020  130.9200   64.0560 S   0  0  0  0  0  0  0  0  0  0  0  0
  125.3550  132.2740   62.9600 C   0  0  0  0  0  0  0  0  0  0  0  0
  124.3020  133.0030   62.5860 N   0  0  0  0  0  0  0  0  0  0  0  0
  122.8175  135.1895   62.2133 H   0  0  0  0  0  0  0  0  0  0  0  0
  123.6712  135.6983   60.7169 H   0  0  0  0  0  0  0  0  0  0  0  0
  122.6706  134.2066   60.7169 H   0  0  0  0  0  0  0  0  0  0  0  0
  125.9624  135.1703   60.5528 H   0  0  0  0  0  0  0  0  0  0  0  0
  128.9932  134.1211   61.9124 H   0  0  0  0  0  0  0  0  0  0  0  0
  128.6781  133.1048   60.4651 H   0  0  0  0  0  0  0  0  0  0  0  0
  128.2073  134.8383   60.4651 H   0  0  0  0  0  0  0  0  0  0  0  0
  129.3880  132.2460   62.3740 H   0  0  0  0  0  0  0  0  0  0  0  0
  129.5230  130.7580   63.2300 H   0  0  0  0  0  0  0  0  0  0  0  0
  126.3530  129.9920   66.2940 H   0  0  0  0  0  0  0  0  0  0  0  0
  129.3800  129.0325   67.0020 H   0  0  0  0  0  0  0  0  0  0  0  0
  130.0994  127.3503   68.6949 H   0  0  0  0  0  0  0  0  0  0  0  0
  128.4543  125.7091   69.5881 H   0  0  0  0  0  0  0  0  0  0  0  0
  126.0930  125.7373   68.8036 H   0  0  0  0  0  0  0  0  0  0  0  0
  125.3655  127.4142   67.1065 H   0  0  0  0  0  0  0  0  0  0  0  0
  1  2  1  0
  2  3  2  0
  3  4  1  0
  4  5  1  0
  4  6  2  0
  6  7  1  0
  7  8  1  0
  7  9  2  0
  9 10  1  0
 10 11  2  0
 10 12  1  0
 12 13  1  0
 13 14  2  0
 14 15  1  0
 15 16  2  0
 16 17  1  0
 17 18  2  0
  9 19  1  0
 19 20  1  0
 20 21  2  0
 21  2  1  0
 20  6  1  0
 18 13  1  0
  1 22  1  0
  1 23  1  0
  1 24  1  0
  3 25  1  0
  5 26  1  0
  5 27  1  0
  5 28  1  0
  8 29  1  0
  8 30  1  0
 12 31  1  0
 14 32  1  0
 15 33  1  0
 16 34  1  0
 17 35  1  0
 18 36  1  0
M  END
>  <Binding energies>  (1) 
[-6.42]

>  <Ligand effiencies>  (1) 
[-0.2675]

>  <Interactions>  (1) 
["V-B:ARG:545:CG:9894, V-B:GLU:543:C:9874, V-B:GLU:543:CB:9878, V-A:HIS:456:CE1:4069, H-A:GLU:543:OE1:4909, V-B:HIS:456:CE1:9040, V-B:TRP:381:CH2:8343, V-A:ALA:541:CA:4890, V-B:LEU:475:CD1:9229, V-A:PRO:540:CA:4883, V-B:ILE:369:CD1:8210, V-A:TYR:539:CE2:4876, V-A:ALA:541:CB:4892, H-B:TYR:484:OH:9319, V-B:ILE:369:CG2:8208, V-A:TYR:539:CD2:4874, V-A:PRO:540:C:4881, V-A:GLU:543:CB:4906, V-B:GLY:544:C:9884"]

$$$$
4ae_Grossjean_2025
     RDKit          3D

 38 40  0  0  0  0  0  0  0  0999 V2000
  128.2060  119.9270   72.9420 C   0  0  0  0  0  0  0  0  0  0  0  0
  129.2580  121.0000   72.7360 C   0  0  0  0  0  0  0  0  0  0  0  0
  130.4320  121.0260   73.4920 C   0  0  0  0  0  0  0  0  0  0  0  0
  131.3510  122.0490   73.2540 C   0  0  0  0  0  0  0  0  0  0  0  0
  131.0770  123.0100   72.2780 C   0  0  0  0  0  0  0  0  0  0  0  0
  129.8850  122.9190   71.5510 C   0  0  0  0  0  0  0  0  0  0  0  0
  129.6550  123.9260   70.5980 N   0  0  0  0  0  0  0  0  0  0  0  0
  129.5930  125.2690   70.7810 C   0  0  0  0  0  0  0  0  0  0  0  0
  129.7300  125.8190   71.8740 O   0  0  0  0  0  0  0  0  0  0  0  0
  129.3400  126.0550   69.5710 C   0  0  0  0  0  0  0  0  0  0  0  0
  128.8590  127.7490   69.6940 S   0  0  0  0  0  0  0  0  0  0  0  0
  128.7360  127.8900   67.9560 C   0  0  0  0  0  0  0  0  0  0  0  0
  128.3760  129.0290   67.3640 N   0  0  0  0  0  0  0  0  0  0  0  0
  128.3140  129.0030   66.0110 C   0  0  0  0  0  0  0  0  0  0  0  0
  127.8950  130.3080   65.3580 C   0  0  0  0  0  0  0  0  0  0  0  0
  128.6030  127.8760   65.2430 C   0  0  0  0  0  0  0  0  0  0  0  0
  128.9810  126.6820   65.8670 C   0  0  0  0  0  0  0  0  0  0  0  0
  129.2830  125.4790   64.9870 C   0  0  0  0  0  0  0  0  0  0  0  0
  129.0560  126.6710   67.2860 C   0  0  0  0  0  0  0  0  0  0  0  0
  129.3990  125.6410   68.2310 C   0  0  0  0  0  0  0  0  0  0  0  0
  129.7480  124.3730   67.8390 N   0  0  0  0  0  0  0  0  0  0  0  0
  128.9770  121.9250   71.7840 N   0  0  0  0  0  0  0  0  0  0  0  0
  128.0503  119.7682   74.0193 H   0  0  0  0  0  0  0  0  0  0  0  0
  127.2610  120.2461   72.4781 H   0  0  0  0  0  0  0  0  0  0  0  0
  128.5437  118.9885   72.4781 H   0  0  0  0  0  0  0  0  0  0  0  0
  130.6275  120.2592   74.2561 H   0  0  0  0  0  0  0  0  0  0  0  0
  132.2858  122.0983   73.8317 H   0  0  0  0  0  0  0  0  0  0  0  0
  131.7881  123.8265   72.0838 H   0  0  0  0  0  0  0  0  0  0  0  0
  129.4640  123.5900   69.6660 H   0  0  0  0  0  0  0  0  0  0  0  0
  127.6574  131.0479   66.1366 H   0  0  0  0  0  0  0  0  0  0  0  0
  128.7171  130.6854   64.7322 H   0  0  0  0  0  0  0  0  0  0  0  0
  127.0068  130.1363   64.7322 H   0  0  0  0  0  0  0  0  0  0  0  0
  128.5339  127.9254   64.1463 H   0  0  0  0  0  0  0  0  0  0  0  0
  129.5019  124.6069   65.6207 H   0  0  0  0  0  0  0  0  0  0  0  0
  128.4116  125.2613   64.3519 H   0  0  0  0  0  0  0  0  0  0  0  0
  130.1539  125.6987   64.3519 H   0  0  0  0  0  0  0  0  0  0  0  0
  130.6770  124.1530   67.5090 H   0  0  0  0  0  0  0  0  0  0  0  0
  129.0830  123.6130   67.8680 H   0  0  0  0  0  0  0  0  0  0  0  0
  1  2  1  0
  2  3  2  0
  3  4  1  0
  4  5  2  0
  5  6  1  0
  6  7  1  0
  7  8  1  0
  8  9  2  0
  8 10  1  0
 10 11  1  0
 11 12  1  0
 12 13  2  0
 13 14  1  0
 14 15  1  0
 14 16  2  0
 16 17  1  0
 17 18  1  0
 17 19  2  0
 19 20  1  0
 20 21  1  0
  6 22  2  0
 22  2  1  0
 20 10  2  0
 19 12  1  0
  1 23  1  0
  1 24  1  0
  1 25  1  0
  3 26  1  0
  4 27  1  0
  5 28  1  0
  7 29  1  0
 15 30  1  0
 15 31  1  0
 15 32  1  0
 16 33  1  0
 18 34  1  0
 18 35  1  0
 18 36  1  0
 21 37  1  0
 21 38  1  0
M  END
>  <Binding energies>  (1) 
[-7.47]

>  <Ligand effiencies>  (1) 
[-0.2988]

>  <Interactions>  (1) 
["H-B:HIS:456:NE2:9041, V-A:HIS:456:CD2:4068, V-B:GLU:543:CD:9880, H-B:LYS:547:NZ:9923, V-B:GLU:543:C:9874, V-B:GLU:543:CB:9878, V-A:HIS:456:CE1:4069, H-A:HIS:456:NE2:4070, V-B:HIS:456:CE1:9040, V-B:GLU:543:CG:9879, V-A:GLU:543:CD:4908, V-B:GLU:543:CA:9876, V-A:TYR:484:CZ:4347, V-A:GLU:543:CB:4906, V-A:TYR:484:CE1:4345, H-A:TYR:484:OH:4348, V-A:HIS:456:CG:4066, V-A:TYR:484:CD2:4344, V-A:TYR:484:CE2:4346, V-A:TYR:484:CD1:4343, V-A:HIS:456:CB:4065, V-A:TYR:484:CG:4342, H-B:GLU:543:O:9875, V-B:LYS:547:CE:9922, V-A:ASP:473:CG:4240, H-A:HIS:456:ND1:4067, V-A:ASP:473:CB:4239, V-A:TYR:484:CB:4341"]

$$$$
4af_Grossjean_2025
     RDKit          3D

 35 37  0  0  0  0  0  0  0  0999 V2000
  127.9350  130.0340   64.3730 C   0  0  0  0  0  0  0  0  0  0  0  0
  128.3300  128.7970   65.1580 C   0  0  0  0  0  0  0  0  0  0  0  0
  128.6650  127.6110   64.5080 C   0  0  0  0  0  0  0  0  0  0  0  0
  129.0240  126.4820   65.2540 C   0  0  0  0  0  0  0  0  0  0  0  0
  129.3790  125.2100   64.5000 C   0  0  0  0  0  0  0  0  0  0  0  0
  129.0300  126.5970   66.6700 C   0  0  0  0  0  0  0  0  0  0  0  0
  129.3380  125.6600   67.7180 C   0  0  0  0  0  0  0  0  0  0  0  0
  129.7160  124.3670   67.4560 N   0  0  0  0  0  0  0  0  0  0  0  0
  129.2170  126.1900   69.0120 C   0  0  0  0  0  0  0  0  0  0  0  0
  129.4210  125.5170   70.2960 C   0  0  0  0  0  0  0  0  0  0  0  0
  129.2850  126.1320   71.3550 O   0  0  0  0  0  0  0  0  0  0  0  0
  129.7450  124.2040   70.2170 N   0  0  0  0  0  0  0  0  0  0  0  0
  130.0500  123.2930   71.2460 C   0  0  0  0  0  0  0  0  0  0  0  0
  131.2280  123.2950   72.0140 C   0  0  0  0  0  0  0  0  0  0  0  0
  131.4140  122.3200   72.9960 C   0  0  0  0  0  0  0  0  0  0  0  0
  130.4170  121.3620   73.1850 C   0  0  0  0  0  0  0  0  0  0  0  0
  129.2760  121.3330   72.4520 N   0  0  0  0  0  0  0  0  0  0  0  0
  129.1100  122.2870   71.5010 C   0  0  0  0  0  0  0  0  0  0  0  0
  128.7100  127.8810   68.9620 S   0  0  0  0  0  0  0  0  0  0  0  0
  128.6680  127.8660   67.2130 C   0  0  0  0  0  0  0  0  0  0  0  0
  128.3270  128.9440   66.5060 N   0  0  0  0  0  0  0  0  0  0  0  0
  127.6763  130.8440   65.0708 H   0  0  0  0  0  0  0  0  0  0  0  0
  128.7767  130.3506   63.7395 H   0  0  0  0  0  0  0  0  0  0  0  0
  127.0656  129.8042   63.7395 H   0  0  0  0  0  0  0  0  0  0  0  0
  128.6474  127.5618   63.4092 H   0  0  0  0  0  0  0  0  0  0  0  0
  129.6028  124.4080   65.2188 H   0  0  0  0  0  0  0  0  0  0  0  0
  128.5304  124.9095   63.8679 H   0  0  0  0  0  0  0  0  0  0  0  0
  130.2606  125.3924   63.8679 H   0  0  0  0  0  0  0  0  0  0  0  0
  130.6730  124.1230   67.2430 H   0  0  0  0  0  0  0  0  0  0  0  0
  129.0450  123.6110   67.4710 H   0  0  0  0  0  0  0  0  0  0  0  0
  129.7690  123.8070   69.2890 H   0  0  0  0  0  0  0  0  0  0  0  0
  131.9989  124.0606   71.8420 H   0  0  0  0  0  0  0  0  0  0  0  0
  132.3278  122.3073   73.6082 H   0  0  0  0  0  0  0  0  0  0  0  0
  130.5627  120.5972   73.9621 H   0  0  0  0  0  0  0  0  0  0  0  0
  128.1893  122.2690   70.8994 H   0  0  0  0  0  0  0  0  0  0  0  0
  1  2  1  0
  2  3  2  0
  3  4  1  0
  4  5  1  0
  4  6  2  0
  6  7  1  0
  7  8  1  0
  7  9  2  0
  9 10  1  0
 10 11  2  0
 10 12  1  0
 12 13  1  0
 13 14  2  0
 14 15  1  0
 15 16  2  0
 16 17  1  0
 17 18  2  0
  9 19  1  0
 19 20  1  0
 20 21  2  0
 21  2  1  0
 20  6  1  0
 18 13  1  0
  1 22  1  0
  1 23  1  0
  1 24  1  0
  3 25  1  0
  5 26  1  0
  5 27  1  0
  5 28  1  0
  8 29  1  0
  8 30  1  0
 12 31  1  0
 14 32  1  0
 15 33  1  0
 16 34  1  0
 18 35  1  0
M  END
>  <Binding energies>  (1) 
[-6.95]

>  <Ligand effiencies>  (1) 
[-0.28958333333333336]

>  <Interactions>  (1) 
["V-A:HIS:456:CD2:4068, V-B:GLU:543:CD:9880, H-B:LYS:547:NZ:9923, V-B:GLU:543:C:9874, V-B:GLU:543:CB:9878, V-A:HIS:456:CE1:4069, H-A:HIS:456:NE2:4070, V-B:HIS:456:CE1:9040, V-B:GLU:543:CG:9879, V-A:GLU:543:CD:4908, V-B:GLU:543:CA:9876, V-A:TYR:484:CZ:4347, V-A:GLU:543:CB:4906, V-A:TYR:484:CE1:4345, H-A:TYR:484:OH:4348, V-A:HIS:456:CG:4066, V-A:TYR:484:CD2:4344, V-A:TYR:484:CE2:4346, V-A:TYR:484:CD1:4343, V-A:HIS:456:CB:4065, V-A:TYR:484:CG:4342, H-B:GLU:543:O:9875, V-B:LYS:547:CE:9922, V-A:ASP:473:CG:4240, V-B:GLY:544:CA:9886, H-A:HIS:456:ND1:4067, V-A:ASP:473:CB:4239, V-A:TYR:484:CB:4341"]

$$$$
4ag_Grossjean_2025
     RDKit          3D

 39 41  0  0  0  0  0  0  0  0999 V2000
  133.3290  126.0160   75.6020 C   0  0  0  0  0  0  0  0  0  0  0  0
  132.2790  125.6210   74.5800 C   0  0  0  0  0  0  0  0  0  0  0  0
  132.1830  124.3090   74.1210 C   0  0  0  0  0  0  0  0  0  0  0  0
  131.2070  123.9660   73.1790 C   0  0  0  0  0  0  0  0  0  0  0  0
  131.1420  122.5200   72.7090 C   0  0  0  0  0  0  0  0  0  0  0  0
  130.3380  124.9920   72.7210 C   0  0  0  0  0  0  0  0  0  0  0  0
  129.2500  124.9930   71.7820 C   0  0  0  0  0  0  0  0  0  0  0  0
  128.8530  123.8590   71.1170 N   0  0  0  0  0  0  0  0  0  0  0  0
  128.6450  126.2470   71.6130 C   0  0  0  0  0  0  0  0  0  0  0  0
  127.5160  126.6030   70.7530 C   0  0  0  0  0  0  0  0  0  0  0  0
  126.6360  127.3770   71.1350 O   0  0  0  0  0  0  0  0  0  0  0  0
  127.4910  126.0210   69.5350 N   0  0  0  0  0  0  0  0  0  0  0  0
  126.4760  126.2510   68.5070 C   0  0  0  0  0  0  0  0  0  0  0  0
  126.8080  127.3940   67.5540 C   0  0  0  0  0  0  0  0  0  0  0  0
  128.1410  127.6710   67.2380 C   0  0  0  0  0  0  0  0  0  0  0  0
  128.4460  128.6980   66.3480 C   0  0  0  0  0  0  0  0  0  0  0  0
  127.4160  129.4370   65.7690 C   0  0  0  0  0  0  0  0  0  0  0  0
  126.0850  129.1560   66.0680 C   0  0  0  0  0  0  0  0  0  0  0  0
  125.7800  128.1290   66.9570 C   0  0  0  0  0  0  0  0  0  0  0  0
  129.4070  127.4680   72.6310 S   0  0  0  0  0  0  0  0  0  0  0  0
  130.5380  126.2950   73.2690 C   0  0  0  0  0  0  0  0  0  0  0  0
  131.4670  126.6250   74.1680 N   0  0  0  0  0  0  0  0  0  0  0  0
  132.9290  125.8655   76.6156 H   0  0  0  0  0  0  0  0  0  0  0  0
  134.2258  125.3938   75.4656 H   0  0  0  0  0  0  0  0  0  0  0  0
  133.5933  127.0750   75.4656 H   0  0  0  0  0  0  0  0  0  0  0  0
  132.8750  123.5423   74.4995 H   0  0  0  0  0  0  0  0  0  0  0  0
  131.1120  121.8516   73.5822 H   0  0  0  0  0  0  0  0  0  0  0  0
  130.2363  122.3719   72.1026 H   0  0  0  0  0  0  0  0  0  0  0  0
  132.0308  122.2913   72.1026 H   0  0  0  0  0  0  0  0  0  0  0  0
  129.5100  123.2770   70.6180 H   0  0  0  0  0  0  0  0  0  0  0  0
  127.8860  123.5670   71.1080 H   0  0  0  0  0  0  0  0  0  0  0  0
  128.2730  125.4430   69.2660 H   0  0  0  0  0  0  0  0  0  0  0  0
  126.3660  125.3292   67.9169 H   0  0  0  0  0  0  0  0  0  0  0  0
  125.5500  126.5312   69.0304 H   0  0  0  0  0  0  0  0  0  0  0  0
  128.9488  127.0782   67.6920 H   0  0  0  0  0  0  0  0  0  0  0  0
  129.4942  128.9246   66.1034 H   0  0  0  0  0  0  0  0  0  0  0  0
  127.6567  130.2505   65.0687 H   0  0  0  0  0  0  0  0  0  0  0  0
  125.2786  129.7428   65.6039 H   0  0  0  0  0  0  0  0  0  0  0  0
  124.7304  127.8961   67.1895 H   0  0  0  0  0  0  0  0  0  0  0  0
  1  2  1  0
  2  3  2  0
  3  4  1  0
  4  5  1  0
  4  6  2  0
  6  7  1  0
  7  8  1  0
  7  9  2  0
  9 10  1  0
 10 11  2  0
 10 12  1  0
 12 13  1  0
 13 14  1  0
 14 15  2  0
 15 16  1  0
 16 17  2  0
 17 18  1  0
 18 19  2  0
  9 20  1  0
 20 21  1  0
 21 22  2  0
 22  2  1  0
 21  6  1  0
 19 14  1  0
  1 23  1  0
  1 24  1  0
  1 25  1  0
  3 26  1  0
  5 27  1  0
  5 28  1  0
  5 29  1  0
  8 30  1  0
  8 31  1  0
 12 32  1  0
 13 33  1  0
 13 34  1  0
 15 35  1  0
 16 36  1  0
 17 37  1  0
 18 38  1  0
 19 39  1  0
M  END
>  <Binding energies>  (1) 
[-7.33]

>  <Ligand effiencies>  (1) 
[-0.2932]

>  <Interactions>  (1) 
["V-B:ARG:545:CG:9894, H-B:HIS:456:NE2:9041, V-A:HIS:456:CD2:4068, V-B:GLU:543:C:9874, H-A:LYS:547:NZ:4951, V-B:GLU:543:CB:9878, V-B:ARG:545:CD:9895, V-B:HIS:456:CE1:9040, V-A:GLU:543:CG:4907, V-A:GLU:543:CD:4908, V-A:GLU:543:CB:4906, V-B:GLY:544:C:9884, V-B:ARG:545:CA:9891, V-A:HIS:456:CG:4066, V-A:TYR:484:CD2:4344, V-A:TYR:484:CE2:4346, V-A:HIS:456:CB:4065, V-A:TYR:484:CG:4342, H-B:GLY:544:O:9885, H-B:GLU:543:O:9875, V-A:VAL:458:CG2:4087, V-A:LYS:547:CD:4949, V-B:GLY:544:CA:9886, V-A:ASP:473:CB:4239, V-A:TYR:484:CB:4341"]

$$$$
4ah_Grossjean_2025
     RDKit          3D

 51 53  0  0  0  0  0  0  0  0999 V2000
  133.0530  126.6830   74.4770 C   0  0  0  0  0  0  0  0  0  0  0  0
  131.6430  126.8620   74.5550 O   0  0  0  0  0  0  0  0  0  0  0  0
  130.8270  126.2340   73.6290 C   0  0  0  0  0  0  0  0  0  0  0  0
  129.9310  126.9120   72.7880 C   0  0  0  0  0  0  0  0  0  0  0  0
  129.1370  126.2130   71.8790 C   0  0  0  0  0  0  0  0  0  0  0  0
  128.2030  126.9700   70.9400 C   0  0  0  0  0  0  0  0  0  0  0  0
  128.3920  126.6330   69.5300 N   0  0  0  0  0  0  0  0  0  0  0  0
  129.1510  127.3260   68.6550 C   0  0  0  0  0  0  0  0  0  0  0  0
  129.7430  128.3620   68.9650 O   0  0  0  0  0  0  0  0  0  0  0  0
  129.2000  126.8010   67.2910 C   0  0  0  0  0  0  0  0  0  0  0  0
  128.8420  127.8550   65.9220 S   0  0  0  0  0  0  0  0  0  0  0  0
  129.0630  126.5370   64.7930 C   0  0  0  0  0  0  0  0  0  0  0  0
  128.9250  126.7030   63.4780 N   0  0  0  0  0  0  0  0  0  0  0  0
  129.1250  125.6030   62.7140 C   0  0  0  0  0  0  0  0  0  0  0  0
  128.9590  125.8130   61.2200 C   0  0  0  0  0  0  0  0  0  0  0  0
  129.4570  124.3520   63.2290 C   0  0  0  0  0  0  0  0  0  0  0  0
  129.6000  124.1780   64.6100 C   0  0  0  0  0  0  0  0  0  0  0  0
  129.9630  122.7940   65.1250 C   0  0  0  0  0  0  0  0  0  0  0  0
  129.3960  125.3110   65.4450 C   0  0  0  0  0  0  0  0  0  0  0  0
  129.4550  125.4880   66.8710 C   0  0  0  0  0  0  0  0  0  0  0  0
  129.7460  124.4560   67.7270 N   0  0  0  0  0  0  0  0  0  0  0  0
  129.2550  124.8260   71.7860 C   0  0  0  0  0  0  0  0  0  0  0  0
  130.1390  124.1210   72.6180 C   0  0  0  0  0  0  0  0  0  0  0  0
  130.2960  122.7470   72.5900 O   0  0  0  0  0  0  0  0  0  0  0  0
  131.6070  122.1940   72.6290 C   0  0  0  0  0  0  0  0  0  0  0  0
  130.9150  124.8370   73.5410 C   0  0  0  0  0  0  0  0  0  0  0  0
  131.7980  124.1620   74.3490 O   0  0  0  0  0  0  0  0  0  0  0  0
  131.3120  123.9230   75.6630 C   0  0  0  0  0  0  0  0  0  0  0  0
  133.4726  126.6297   75.4924 H   0  0  0  0  0  0  0  0  0  0  0  0
  133.2749  125.7495   73.9391 H   0  0  0  0  0  0  0  0  0  0  0  0
  133.5011  127.5315   73.9391 H   0  0  0  0  0  0  0  0  0  0  0  0
  129.8540  128.0077   72.8465 H   0  0  0  0  0  0  0  0  0  0  0  0
  127.1650  126.7347   71.2177 H   0  0  0  0  0  0  0  0  0  0  0  0
  128.4329  128.0401   71.0497 H   0  0  0  0  0  0  0  0  0  0  0  0
  128.0040  125.7510   69.2280 H   0  0  0  0  0  0  0  0  0  0  0  0
  128.2858  126.6646   61.0420 H   0  0  0  0  0  0  0  0  0  0  0  0
  129.9400  126.0203   60.7676 H   0  0  0  0  0  0  0  0  0  0  0  0
  128.5308  124.9063   60.7676 H   0  0  0  0  0  0  0  0  0  0  0  0
  129.6069  123.5001   62.5494 H   0  0  0  0  0  0  0  0  0  0  0  0
  129.9614  122.8000   66.2250 H   0  0  0  0  0  0  0  0  0  0  0  0
  129.2263  122.0626   64.7613 H   0  0  0  0  0  0  0  0  0  0  0  0
  130.9638  122.5183   64.7613 H   0  0  0  0  0  0  0  0  0  0  0  0
  129.0320  124.0010   68.2770 H   0  0  0  0  0  0  0  0  0  0  0  0
  130.6930  124.1200   67.8400 H   0  0  0  0  0  0  0  0  0  0  0  0
  128.6474  124.2776   71.0511 H   0  0  0  0  0  0  0  0  0  0  0  0
  131.9185  122.0626   73.6757 H   0  0  0  0  0  0  0  0  0  0  0  0
  131.6087  121.2185   72.1207 H   0  0  0  0  0  0  0  0  0  0  0  0
  132.3069  122.8736   72.1207 H   0  0  0  0  0  0  0  0  0  0  0  0
  132.0470  124.2845   76.3972 H   0  0  0  0  0  0  0  0  0  0  0  0
  130.3601  124.4557   75.8044 H   0  0  0  0  0  0  0  0  0  0  0  0
  131.1527  122.8438   75.8044 H   0  0  0  0  0  0  0  0  0  0  0  0
  1  2  1  0
  2  3  1  0
  3  4  2  0
  4  5  1  0
  5  6  1  0
  6  7  1  0
  7  8  1  0
  8  9  2  0
  8 10  1  0
 10 11  1  0
 11 12  1  0
 12 13  2  0
 13 14  1  0
 14 15  1  0
 14 16  2  0
 16 17  1  0
 17 18  1  0
 17 19  2  0
 19 20  1  0
 20 21  1  0
  5 22  2  0
 22 23  1  0
 23 24  1  0
 24 25  1  0
 23 26  2  0
 26 27  1  0
 27 28  1  0
 26  3  1  0
 20 10  2  0
 19 12  1  0
  1 29  1  0
  1 30  1  0
  1 31  1  0
  4 32  1  0
  6 33  1  0
  6 34  1  0
  7 35  1  0
 15 36  1  0
 15 37  1  0
 15 38  1  0
 16 39  1  0
 18 40  1  0
 18 41  1  0
 18 42  1  0
 21 43  1  0
 21 44  1  0
 22 45  1  0
 25 46  1  0
 25 47  1  0
 25 48  1  0
 28 49  1  0
 28 50  1  0
 28 51  1  0
M  END
>  <Binding energies>  (1) 
[-6.99]

>  <Ligand effiencies>  (1) 
[-0.22548387096774195]

>  <Interactions>  (1) 
["H-B:HIS:456:NE2:9041, V-A:HIS:456:CD2:4068, V-B:GLU:543:CD:9880, H-B:LYS:547:NZ:9923, V-B:GLU:543:C:9874, H-A:LYS:547:NZ:4951, V-B:GLU:543:CB:9878, V-A:HIS:456:CE1:4069, H-A:HIS:456:NE2:4070, V-B:HIS:456:CE1:9040, V-B:GLU:543:CG:9879, V-A:GLU:543:CD:4908, V-B:ALA:541:CB:9864, V-B:GLU:543:CA:9876, V-A:TYR:484:CZ:4347, V-A:TYR:484:CE1:4345, H-A:TYR:484:OH:4348, V-A:HIS:456:CG:4066, V-A:TYR:484:CD2:4344, V-A:TYR:484:CE2:4346, V-A:HIS:456:CB:4065, V-A:TYR:484:CG:4342, V-A:LYS:547:CE:4950, H-B:GLY:544:O:9885, H-B:GLU:543:O:9875, V-A:ASP:473:CG:4240, V-A:LYS:547:CD:4949, H-A:HIS:456:ND1:4067, V-A:ASP:473:CB:4239, V-A:TYR:484:CB:4341"]

$$$$
4ai_Grossjean_2025
     RDKit          3D

 32 34  0  0  0  0  0  0  0  0999 V2000
  127.9000  130.2720   65.2140 C   0  0  0  0  0  0  0  0  0  0  0  0
  128.3080  128.9720   65.8820 C   0  0  0  0  0  0  0  0  0  0  0  0
  128.6080  127.8410   65.1260 C   0  0  0  0  0  0  0  0  0  0  0  0
  128.9880  126.6540   65.7630 C   0  0  0  0  0  0  0  0  0  0  0  0
  129.3070  125.4470   64.8940 C   0  0  0  0  0  0  0  0  0  0  0  0
  129.0540  126.6550   67.1820 C   0  0  0  0  0  0  0  0  0  0  0  0
  129.3990  125.6360   68.1370 C   0  0  0  0  0  0  0  0  0  0  0  0
  129.7510  124.3650   67.7570 N   0  0  0  0  0  0  0  0  0  0  0  0
  129.3490  126.0650   69.4730 C   0  0  0  0  0  0  0  0  0  0  0  0
  129.6260  125.2970   70.6880 C   0  0  0  0  0  0  0  0  0  0  0  0
  129.7620  125.8630   71.7740 O   0  0  0  0  0  0  0  0  0  0  0  0
  129.7000  123.9520   70.5200 N   0  0  0  0  0  0  0  0  0  0  0  0
  129.9390  122.9920   71.4950 C   0  0  0  0  0  0  0  0  0  0  0  0
  131.1210  122.9340   72.2340 C   0  0  0  0  0  0  0  0  0  0  0  0
  130.9650  121.8560   73.0750 C   0  0  0  0  0  0  0  0  0  0  0  0
  129.7520  121.2950   72.8560 O   0  0  0  0  0  0  0  0  0  0  0  0
  129.1100  122.0240   71.8530 N   0  0  0  0  0  0  0  0  0  0  0  0
  128.8420  127.7530   69.5810 S   0  0  0  0  0  0  0  0  0  0  0  0
  128.7220  127.8780   67.8390 C   0  0  0  0  0  0  0  0  0  0  0  0
  128.3580  129.0100   67.2360 N   0  0  0  0  0  0  0  0  0  0  0  0
  127.6647  131.0217   65.9838 H   0  0  0  0  0  0  0  0  0  0  0  0
  128.7267  130.6373   64.5870 H   0  0  0  0  0  0  0  0  0  0  0  0
  127.0128  130.0994   64.5870 H   0  0  0  0  0  0  0  0  0  0  0  0
  128.5462  127.8808   64.0285 H   0  0  0  0  0  0  0  0  0  0  0  0
  129.5353  124.5832   65.5357 H   0  0  0  0  0  0  0  0  0  0  0  0
  128.4399  125.2130   64.2589 H   0  0  0  0  0  0  0  0  0  0  0  0
  130.1765  125.6719   64.2589 H   0  0  0  0  0  0  0  0  0  0  0  0
  129.0980  123.5970   67.8000 H   0  0  0  0  0  0  0  0  0  0  0  0
  130.6820  124.1560   67.4250 H   0  0  0  0  0  0  0  0  0  0  0  0
  129.5590  123.5970   69.5870 H   0  0  0  0  0  0  0  0  0  0  0  0
  131.9897  123.6048   72.1603 H   0  0  0  0  0  0  0  0  0  0  0  0
  131.7069  121.5060   73.8079 H   0  0  0  0  0  0  0  0  0  0  0  0
  1  2  1  0
  2  3  2  0
  3  4  1  0
  4  5  1  0
  4  6  2  0
  6  7  1  0
  7  8  1  0
  7  9  2  0
  9 10  1  0
 10 11  2  0
 10 12  1  0
 12 13  1  0
 13 14  1  0
 14 15  2  0
 15 16  1  0
 16 17  1  0
  9 18  1  0
 18 19  1  0
 19 20  2  0
 20  2  1  0
 19  6  1  0
 17 13  2  0
  1 21  1  0
  1 22  1  0
  1 23  1  0
  3 24  1  0
  5 25  1  0
  5 26  1  0
  5 27  1  0
  8 28  1  0
  8 29  1  0
 12 30  1  0
 14 31  1  0
 15 32  1  0
M  END
>  <Binding energies>  (1) 
[-7.66]

>  <Ligand effiencies>  (1) 
[-0.33304347826086955]

>  <Interactions>  (1) 
["V-A:HIS:456:CD2:4068, V-B:GLU:543:CD:9880, H-B:LYS:547:NZ:9923, V-B:GLU:543:C:9874, V-B:GLU:543:CB:9878, V-A:HIS:456:CE1:4069, H-A:HIS:456:NE2:4070, V-B:HIS:456:CE1:9040, V-B:GLU:543:CG:9879, V-A:GLU:543:CD:4908, V-B:GLU:543:CA:9876, V-A:TYR:484:CZ:4347, V-A:GLU:543:CB:4906, V-A:TYR:484:CE1:4345, H-A:TYR:484:OH:4348, V-A:HIS:456:CG:4066, V-A:TYR:484:CD2:4344, V-A:TYR:484:CE2:4346, V-A:TYR:484:CD1:4343, V-A:HIS:456:CB:4065, V-A:TYR:484:CG:4342, H-B:GLU:543:O:9875, V-A:ASP:473:CG:4240, H-A:HIS:456:ND1:4067, V-A:ASP:473:CB:4239, V-A:TYR:484:CB:4341"]

$$$$
4aj_Grossjean_2025
     RDKit          3D

 32 34  0  0  0  0  0  0  0  0999 V2000
  127.9010  130.2670   65.2270 C   0  0  0  0  0  0  0  0  0  0  0  0
  128.3180  128.9720   65.9000 C   0  0  0  0  0  0  0  0  0  0  0  0
  128.5990  127.8320   65.1510 C   0  0  0  0  0  0  0  0  0  0  0  0
  128.9770  126.6480   65.7930 C   0  0  0  0  0  0  0  0  0  0  0  0
  129.2730  125.4300   64.9300 C   0  0  0  0  0  0  0  0  0  0  0  0
  129.0600  126.6590   67.2110 C   0  0  0  0  0  0  0  0  0  0  0  0
  129.4070  125.6450   68.1700 C   0  0  0  0  0  0  0  0  0  0  0  0
  129.7430  124.3690   67.7970 N   0  0  0  0  0  0  0  0  0  0  0  0
  129.3720  126.0850   69.5020 C   0  0  0  0  0  0  0  0  0  0  0  0
  129.6540  125.3240   70.7210 C   0  0  0  0  0  0  0  0  0  0  0  0
  129.7140  125.8870   71.8160 O   0  0  0  0  0  0  0  0  0  0  0  0
  129.8240  123.9900   70.5480 N   0  0  0  0  0  0  0  0  0  0  0  0
  130.0880  123.0480   71.5330 C   0  0  0  0  0  0  0  0  0  0  0  0
  129.3470  122.0200   71.8860 N   0  0  0  0  0  0  0  0  0  0  0  0
  129.9090  121.3290   72.8590 C   0  0  0  0  0  0  0  0  0  0  0  0
  131.1370  121.7980   73.3180 C   0  0  0  0  0  0  0  0  0  0  0  0
  131.5690  123.2210   72.4170 S   0  0  0  0  0  0  0  0  0  0  0  0
  128.8890  127.7790   69.6020 S   0  0  0  0  0  0  0  0  0  0  0  0
  128.7490  127.8910   67.8620 C   0  0  0  0  0  0  0  0  0  0  0  0
  128.3880  129.0220   67.2530 N   0  0  0  0  0  0  0  0  0  0  0  0
  127.6593  131.0175   65.9940 H   0  0  0  0  0  0  0  0  0  0  0  0
  128.7257  130.6363   64.5996 H   0  0  0  0  0  0  0  0  0  0  0  0
  127.0158  130.0857   64.5996 H   0  0  0  0  0  0  0  0  0  0  0  0
  128.5237  127.8626   64.0540 H   0  0  0  0  0  0  0  0  0  0  0  0
  129.4832  124.5650   65.5763 H   0  0  0  0  0  0  0  0  0  0  0  0
  128.4021  125.2102   64.2950 H   0  0  0  0  0  0  0  0  0  0  0  0
  130.1476  125.6344   64.2950 H   0  0  0  0  0  0  0  0  0  0  0  0
  129.0880  123.6030   67.8620 H   0  0  0  0  0  0  0  0  0  0  0  0
  130.6640  124.1500   67.4440 H   0  0  0  0  0  0  0  0  0  0  0  0
  129.7480  123.6320   69.6070 H   0  0  0  0  0  0  0  0  0  0  0  0
  129.4341  120.4324   73.2840 H   0  0  0  0  0  0  0  0  0  0  0  0
  131.7363  121.3425   74.1201 H   0  0  0  0  0  0  0  0  0  0  0  0
  1  2  1  0
  2  3  2  0
  3  4  1  0
  4  5  1  0
  4  6  2  0
  6  7  1  0
  7  8  1  0
  7  9  2  0
  9 10  1  0
 10 11  2  0
 10 12  1  0
 12 13  1  0
 13 14  2  0
 14 15  1  0
 15 16  2  0
 16 17  1  0
  9 18  1  0
 18 19  1  0
 19 20  2  0
 20  2  1  0
 19  6  1  0
 17 13  1  0
  1 21  1  0
  1 22  1  0
  1 23  1  0
  3 24  1  0
  5 25  1  0
  5 26  1  0
  5 27  1  0
  8 28  1  0
  8 29  1  0
 12 30  1  0
 15 31  1  0
 16 32  1  0
M  END
>  <Binding energies>  (1) 
[-6.85]

>  <Ligand effiencies>  (1) 
[-0.29782608695652174]

>  <Interactions>  (1) 
["V-A:HIS:456:CD2:4068, V-B:GLU:543:CD:9880, H-B:LYS:547:NZ:9923, V-B:GLU:543:C:9874, V-B:GLU:543:CB:9878, V-A:HIS:456:CE1:4069, H-A:HIS:456:NE2:4070, V-B:HIS:456:CE1:9040, V-B:GLU:543:CG:9879, V-A:GLU:543:CD:4908, V-B:GLU:543:CA:9876, V-A:TYR:484:CZ:4347, V-A:GLU:543:CB:4906, V-A:TYR:484:CE1:4345, H-A:TYR:484:OH:4348, V-A:HIS:456:CG:4066, V-A:TYR:484:CD2:4344, V-A:TYR:484:CE2:4346, V-A:TYR:484:CD1:4343, V-A:HIS:456:CB:4065, V-A:TYR:484:CG:4342, H-B:GLU:543:O:9875, V-B:LYS:547:CE:9922, V-A:ASP:473:CG:4240, H-A:HIS:456:ND1:4067, V-A:ASP:473:CB:4239, V-A:TYR:484:CB:4341"]

$$$$
4ak_Grossjean_2025
     RDKit          3D

 50 51  0  0  0  0  0  0  0  0999 V2000
  133.9220  125.1320   65.8720 C   0  0  0  0  0  0  0  0  0  0  0  0
  134.2550  124.8610   64.5200 O   0  0  0  0  0  0  0  0  0  0  0  0
  133.1380  124.4720   63.7290 C   0  0  0  0  0  0  0  0  0  0  0  0
  131.9130  124.2830   64.6330 C   0  0  0  0  0  0  0  0  0  0  0  0
  130.7670  124.8300   63.9950 O   0  0  0  0  0  0  0  0  0  0  0  0
  129.9900  125.6730   64.8350 C   0  0  0  0  0  0  0  0  0  0  0  0
  130.3680  125.4180   66.2990 C   0  0  0  0  0  0  0  0  0  0  0  0
  129.1840  125.2840   67.0730 O   0  0  0  0  0  0  0  0  0  0  0  0
  128.1990  126.2690   66.7920 C   0  0  0  0  0  0  0  0  0  0  0  0
  127.5850  126.7660   68.1130 C   0  0  0  0  0  0  0  0  0  0  0  0
  128.3970  126.4570   69.2900 N   0  0  0  0  0  0  0  0  0  0  0  0
  128.0050  126.6100   70.5710 C   0  0  0  0  0  0  0  0  0  0  0  0
  126.8830  127.0180   70.8740 O   0  0  0  0  0  0  0  0  0  0  0  0
  128.9900  126.2550   71.5920 C   0  0  0  0  0  0  0  0  0  0  0  0
  129.5570  127.4670   72.7410 S   0  0  0  0  0  0  0  0  0  0  0  0
  130.5960  126.3010   73.5270 C   0  0  0  0  0  0  0  0  0  0  0  0
  131.3670  126.6290   74.5660 N   0  0  0  0  0  0  0  0  0  0  0  0
  132.1270  125.6320   75.0810 C   0  0  0  0  0  0  0  0  0  0  0  0
  132.9950  126.0260   76.2620 C   0  0  0  0  0  0  0  0  0  0  0  0
  132.1340  124.3290   74.5890 C   0  0  0  0  0  0  0  0  0  0  0  0
  131.3240  123.9870   73.4990 C   0  0  0  0  0  0  0  0  0  0  0  0
  131.3690  122.5530   72.9950 C   0  0  0  0  0  0  0  0  0  0  0  0
  130.5140  125.0060   72.9310 C   0  0  0  0  0  0  0  0  0  0  0  0
  129.5850  125.0070   71.8330 C   0  0  0  0  0  0  0  0  0  0  0  0
  129.3200  123.8810   71.0950 N   0  0  0  0  0  0  0  0  0  0  0  0
  134.6026  124.5781   66.5354 H   0  0  0  0  0  0  0  0  0  0  0  0
  134.0195  126.2106   66.0645 H   0  0  0  0  0  0  0  0  0  0  0  0
  132.8857  124.8174   66.0645 H   0  0  0  0  0  0  0  0  0  0  0  0
  132.9267  125.2528   62.9835 H   0  0  0  0  0  0  0  0  0  0  0  0
  133.3640  123.5262   63.2149 H   0  0  0  0  0  0  0  0  0  0  0  0
  131.7541  123.2101   64.8162 H   0  0  0  0  0  0  0  0  0  0  0  0
  132.0805  124.7967   65.5912 H   0  0  0  0  0  0  0  0  0  0  0  0
  130.1871  126.7254   64.5827 H   0  0  0  0  0  0  0  0  0  0  0  0
  128.9217  125.4563   64.6874 H   0  0  0  0  0  0  0  0  0  0  0  0
  130.9601  124.4936   66.3700 H   0  0  0  0  0  0  0  0  0  0  0  0
  130.9628  126.2619   66.6784 H   0  0  0  0  0  0  0  0  0  0  0  0
  128.6644  127.1134   66.2625 H   0  0  0  0  0  0  0  0  0  0  0  0
  127.4110  125.8324   66.1607 H   0  0  0  0  0  0  0  0  0  0  0  0
  127.4639  127.8576   68.0511 H   0  0  0  0  0  0  0  0  0  0  0  0
  126.6246  126.2445   68.2382 H   0  0  0  0  0  0  0  0  0  0  0  0
  129.3300  126.1120   69.1100 H   0  0  0  0  0  0  0  0  0  0  0  0
  132.4698  125.7876   77.1987 H   0  0  0  0  0  0  0  0  0  0  0  0
  133.9434  125.4701   76.2216 H   0  0  0  0  0  0  0  0  0  0  0  0
  133.2009  127.1058   76.2216 H   0  0  0  0  0  0  0  0  0  0  0  0
  132.7761  123.5682   75.0568 H   0  0  0  0  0  0  0  0  0  0  0  0
  131.3906  121.8637   73.8519 H   0  0  0  0  0  0  0  0  0  0  0  0
  130.4768  122.3508   72.3842 H   0  0  0  0  0  0  0  0  0  0  0  0
  132.2722  122.4072   72.3842 H   0  0  0  0  0  0  0  0  0  0  0  0
  129.9180  123.0670   71.1300 H   0  0  0  0  0  0  0  0  0  0  0  0
  128.5110  123.8270   70.4930 H   0  0  0  0  0  0  0  0  0  0  0  0
  1  2  1  0
  2  3  1  0
  3  4  1  0
  4  5  1  0
  5  6  1  0
  6  7  1  0
  7  8  1  0
  8  9  1  0
  9 10  1  0
 10 11  1  0
 11 12  1  0
 12 13  2  0
 12 14  1  0
 14 15  1  0
 15 16  1  0
 16 17  2  0
 17 18  1  0
 18 19  1  0
 18 20  2  0
 20 21  1  0
 21 22  1  0
 21 23  2  0
 23 24  1  0
 24 25  1  0
 24 14  2  0
 23 16  1  0
  1 26  1  0
  1 27  1  0
  1 28  1  0
  3 29  1  0
  3 30  1  0
  4 31  1  0
  4 32  1  0
  6 33  1  0
  6 34  1  0
  7 35  1  0
  7 36  1  0
  9 37  1  0
  9 38  1  0
 10 39  1  0
 10 40  1  0
 11 41  1  0
 19 42  1  0
 19 43  1  0
 19 44  1  0
 20 45  1  0
 22 46  1  0
 22 47  1  0
 22 48  1  0
 25 49  1  0
 25 50  1  0
M  END
>  <Binding energies>  (1) 
[-5.83]

>  <Ligand effiencies>  (1) 
[-0.2082142857142857]

>  <Interactions>  (1) 
["H-B:HIS:456:NE2:9041, V-A:HIS:456:CD2:4068, V-B:GLU:543:CD:9880, V-B:GLU:543:C:9874, H-A:LYS:547:NZ:4951, V-B:GLU:543:CB:9878, V-A:HIS:456:CE1:4069, V-B:HIS:456:CE1:9040, V-B:GLU:543:CG:9879, V-A:TYR:484:CE1:4345, H-A:GLY:454:N:4050, V-A:ARG:545:CZ:4926, H-A:ARG:545:NH2:4928, H-A:ARG:545:NE:4924, V-A:ARG:545:CD:4923, V-A:ARG:545:CG:4922, V-B:GLY:544:C:9884, V-A:HIS:456:CG:4066, V-A:TYR:484:CD2:4344, V-A:TYR:484:CD1:4343, V-A:HIS:456:CB:4065, V-A:TYR:484:CG:4342, H-B:GLY:544:O:9885, H-B:GLU:543:O:9875, V-A:VAL:458:CG2:4087, V-A:LYS:547:CD:4949, V-A:ASP:473:CB:4239"]

$$$$
4al_Grossjean_2025
     RDKit          3D

 28 29  0  0  0  0  0  0  0  0999 V2000
  124.5920  131.6010   63.6620 C   0  0  0  0  0  0  0  0  0  0  0  0
  124.0820  130.3750   64.1650 O   0  0  0  0  0  0  0  0  0  0  0  0
  124.1300  130.0930   65.4920 C   0  0  0  0  0  0  0  0  0  0  0  0
  123.3060  130.5020   66.3140 O   0  0  0  0  0  0  0  0  0  0  0  0
  125.2790  129.2370   65.8590 C   0  0  0  0  0  0  0  0  0  0  0  0
  126.6190  129.0290   64.7280 S   0  0  0  0  0  0  0  0  0  0  0  0
  127.4530  127.9750   65.8470 C   0  0  0  0  0  0  0  0  0  0  0  0
  128.6360  127.4330   65.5550 N   0  0  0  0  0  0  0  0  0  0  0  0
  129.1760  126.6340   66.5090 C   0  0  0  0  0  0  0  0  0  0  0  0
  130.5220  126.0280   66.1570 C   0  0  0  0  0  0  0  0  0  0  0  0
  128.5670  126.3690   67.7330 C   0  0  0  0  0  0  0  0  0  0  0  0
  127.3260  126.9390   68.0360 C   0  0  0  0  0  0  0  0  0  0  0  0
  126.7000  126.6200   69.3840 C   0  0  0  0  0  0  0  0  0  0  0  0
  126.7290  127.7820   67.0600 C   0  0  0  0  0  0  0  0  0  0  0  0
  125.4930  128.5140   67.0380 C   0  0  0  0  0  0  0  0  0  0  0  0
  124.6070  128.4990   68.0850 N   0  0  0  0  0  0  0  0  0  0  0  0
  124.8648  132.2568   64.5020 H   0  0  0  0  0  0  0  0  0  0  0  0
  125.4824  131.4030   63.0472 H   0  0  0  0  0  0  0  0  0  0  0  0
  123.8239  132.0929   63.0472 H   0  0  0  0  0  0  0  0  0  0  0  0
  131.0666  125.7828   67.0808 H   0  0  0  0  0  0  0  0  0  0  0  0
  130.3688  125.1120   65.5675 H   0  0  0  0  0  0  0  0  0  0  0  0
  131.1063  126.7499   65.5675 H   0  0  0  0  0  0  0  0  0  0  0  0
  129.0622  125.7109   68.4622 H   0  0  0  0  0  0  0  0  0  0  0  0
  127.3684  126.9606   70.1885 H   0  0  0  0  0  0  0  0  0  0  0  0
  125.7315  127.1345   69.4695 H   0  0  0  0  0  0  0  0  0  0  0  0
  126.5471  125.5340   69.4695 H   0  0  0  0  0  0  0  0  0  0  0  0
  124.7670  127.9440   68.9130 H   0  0  0  0  0  0  0  0  0  0  0  0
  123.7580  129.0480   68.0630 H   0  0  0  0  0  0  0  0  0  0  0  0
  1  2  1  0
  2  3  1  0
  3  4  2  0
  3  5  1  0
  5  6  1  0
  6  7  1  0
  7  8  2  0
  8  9  1  0
  9 10  1  0
  9 11  2  0
 11 12  1  0
 12 13  1  0
 12 14  2  0
 14 15  1  0
 15 16  1  0
 15  5  2  0
 14  7  1  0
  1 17  1  0
  1 18  1  0
  1 19  1  0
 10 20  1  0
 10 21  1  0
 10 22  1  0
 11 23  1  0
 13 24  1  0
 13 25  1  0
 13 26  1  0
 16 27  1  0
 16 28  1  0
M  END
>  <Binding energies>  (1) 
[-5.19]

>  <Ligand effiencies>  (1) 
[-0.28833333333333333]

>  <Interactions>  (1) 
["V-B:ARG:545:CG:9894, V-B:GLU:543:CD:9880, V-B:GLU:543:C:9874, V-B:GLU:543:CB:9878, V-A:HIS:456:CE1:4069, V-B:ARG:545:CZ:9898, V-B:ARG:545:CD:9895, V-B:HIS:456:CE1:9040, V-A:GLU:543:CD:4908, H-B:GLY:454:N:9021, V-B:GLY:454:CA:9020, V-B:LEU:475:CD1:9229, H-B:ILE:455:N:9026, H-B:TYR:484:OH:9319, H-B:ARG:545:NH2:9900, H-B:HIS:456:ND1:9038, V-B:GLY:544:C:9884, V-B:ARG:545:CA:9891, V-B:ARG:545:CB:9893, H-B:ILE:455:O:9024"]

$$$$
4ba_Grossjean_2025
     RDKit          3D

 44 46  0  0  0  0  0  0  0  0999 V2000
  125.3270  127.0530   73.7680 C   0  0  0  0  0  0  0  0  0  0  0  0
  126.4860  127.4400   72.8290 C   0  0  0  0  0  0  0  0  0  0  0  0
  127.6570  126.4370   72.7870 C   0  0  0  0  0  0  0  0  0  0  0  0
  128.0560  125.9250   73.8360 O   0  0  0  0  0  0  0  0  0  0  0  0
  128.2600  126.1240   71.4480 C   0  0  0  0  0  0  0  0  0  0  0  0
  129.1730  125.0690   71.3350 C   0  0  0  0  0  0  0  0  0  0  0  0
  129.7480  124.7580   70.1060 C   0  0  0  0  0  0  0  0  0  0  0  0
  129.4210  125.4920   68.9660 C   0  0  0  0  0  0  0  0  0  0  0  0
  130.0670  125.0980   67.7780 N   0  0  0  0  0  0  0  0  0  0  0  0
  129.6980  125.2730   66.4850 C   0  0  0  0  0  0  0  0  0  0  0  0
  128.6450  125.8060   66.1330 O   0  0  0  0  0  0  0  0  0  0  0  0
  130.6400  124.7550   65.4910 C   0  0  0  0  0  0  0  0  0  0  0  0
  132.2600  125.4370   65.3650 S   0  0  0  0  0  0  0  0  0  0  0  0
  132.6510  124.3820   64.0280 C   0  0  0  0  0  0  0  0  0  0  0  0
  133.8440  124.4230   63.4370 N   0  0  0  0  0  0  0  0  0  0  0  0
  134.0300  123.5600   62.4120 C   0  0  0  0  0  0  0  0  0  0  0  0
  135.3930  123.6300   61.7470 C   0  0  0  0  0  0  0  0  0  0  0  0
  133.0610  122.6620   61.9720 C   0  0  0  0  0  0  0  0  0  0  0  0
  131.8020  122.6130   62.5910 C   0  0  0  0  0  0  0  0  0  0  0  0
  130.7700  121.6060   62.0730 C   0  0  0  0  0  0  0  0  0  0  0  0
  129.6920  122.1890   61.5430 F   0  0  0  0  0  0  0  0  0  0  0  0
  131.3170  120.8430   61.1260 F   0  0  0  0  0  0  0  0  0  0  0  0
  130.3530  120.8320   63.0760 F   0  0  0  0  0  0  0  0  0  0  0  0
  131.5720  123.5160   63.6720 C   0  0  0  0  0  0  0  0  0  0  0  0
  130.4320  123.7600   64.5220 C   0  0  0  0  0  0  0  0  0  0  0  0
  129.2510  123.0740   64.3900 N   0  0  0  0  0  0  0  0  0  0  0  0
  128.5110  126.5550   69.0720 C   0  0  0  0  0  0  0  0  0  0  0  0
  127.9370  126.8650   70.3020 C   0  0  0  0  0  0  0  0  0  0  0  0
  125.6506  127.1611   74.8137 H   0  0  0  0  0  0  0  0  0  0  0  0
  124.4671  127.7128   73.5803 H   0  0  0  0  0  0  0  0  0  0  0  0
  125.0360  126.0089   73.5803 H   0  0  0  0  0  0  0  0  0  0  0  0
  126.0820  127.5350   71.8103 H   0  0  0  0  0  0  0  0  0  0  0  0
  126.9008  128.3786   73.2251 H   0  0  0  0  0  0  0  0  0  0  0  0
  129.4385  124.4803   72.2255 H   0  0  0  0  0  0  0  0  0  0  0  0
  130.4655  123.9273   70.0334 H   0  0  0  0  0  0  0  0  0  0  0  0
  130.9300  124.5970   67.9260 H   0  0  0  0  0  0  0  0  0  0  0  0
  136.1759  123.6702   62.5187 H   0  0  0  0  0  0  0  0  0  0  0  0
  135.5414  122.7383   61.1202 H   0  0  0  0  0  0  0  0  0  0  0  0
  135.4493  124.5322   61.1202 H   0  0  0  0  0  0  0  0  0  0  0  0
  133.2837  121.9861   61.1332 H   0  0  0  0  0  0  0  0  0  0  0  0
  129.1120  122.3820   63.6680 H   0  0  0  0  0  0  0  0  0  0  0  0
  128.4720  123.2450   65.0110 H   0  0  0  0  0  0  0  0  0  0  0  0
  128.2505  127.1449   68.1809 H   0  0  0  0  0  0  0  0  0  0  0  0
  127.2235  127.6989   70.3756 H   0  0  0  0  0  0  0  0  0  0  0  0
  1  2  1  0
  2  3  1  0
  3  4  2  0
  3  5  1  0
  5  6  2  0
  6  7  1  0
  7  8  2  0
  8  9  1  0
  9 10  1  0
 10 11  2  0
 10 12  1  0
 12 13  1  0
 13 14  1  0
 14 15  2  0
 15 16  1  0
 16 17  1  0
 16 18  2  0
 18 19  1  0
 19 20  1  0
 20 21  1  0
 20 22  1  0
 20 23  1  0
 19 24  2  0
 24 25  1  0
 25 26  1  0
  8 27  1  0
 27 28  2  0
 28  5  1  0
 25 12  2  0
 24 14  1  0
  1 29  1  0
  1 30  1  0
  1 31  1  0
  2 32  1  0
  2 33  1  0
  6 34  1  0
  7 35  1  0
  9 36  1  0
 17 37  1  0
 17 38  1  0
 17 39  1  0
 18 40  1  0
 26 41  1  0
 26 42  1  0
 27 43  1  0
 28 44  1  0
M  END
>  <Binding energies>  (1) 
[-7.46]

>  <Ligand effiencies>  (1) 
[-0.24064516129032257]

>  <Interactions>  (1) 
["V-A:HIS:456:CD2:4068, H-B:LYS:547:NZ:9923, V-B:GLU:543:C:9874, V-B:HIS:456:CD2:9039, V-B:GLU:543:CB:9878, V-A:HIS:456:CE1:4069, V-B:HIS:456:CE1:9040, V-B:GLU:543:CG:9879, V-B:ALA:541:CB:9864, V-B:GLU:543:CA:9876, V-A:TYR:484:CZ:4347, V-A:LEU:475:CD1:4258, V-A:TYR:484:CE1:4345, H-A:GLY:454:N:4050, V-A:GLY:453:CA:4044, H-A:ARG:545:NH2:4928, H-A:TYR:484:OH:4348, V-A:GLY:453:C:4042, V-A:GLY:454:CA:4049, V-A:ILE:369:CD1:3239, V-B:TYR:539:CD2:9846, V-B:GLY:544:C:9884, V-A:LEU:475:CD2:4259, V-A:HIS:456:CG:4066, V-B:HIS:456:CB:9036, V-B:LYS:547:CD:9921, V-B:HIS:456:CG:9037, H-A:HIS:456:ND1:4067"]

$$$$
4bb_Grossjean_2025
     RDKit          3D

 41 43  0  0  0  0  0  0  0  0999 V2000
  128.2020  128.1970   73.2570 C   0  0  0  0  0  0  0  0  0  0  0  0
  128.3520  126.6960   72.9960 C   0  0  0  0  0  0  0  0  0  0  0  0
  128.1830  125.9230   73.9410 O   0  0  0  0  0  0  0  0  0  0  0  0
  128.7060  126.2480   71.6100 C   0  0  0  0  0  0  0  0  0  0  0  0
  129.4190  125.0550   71.4350 C   0  0  0  0  0  0  0  0  0  0  0  0
  129.7620  124.6160   70.1590 C   0  0  0  0  0  0  0  0  0  0  0  0
  129.3920  125.3560   69.0340 C   0  0  0  0  0  0  0  0  0  0  0  0
  129.7920  124.8230   67.7930 N   0  0  0  0  0  0  0  0  0  0  0  0
  129.3540  125.1050   66.5420 C   0  0  0  0  0  0  0  0  0  0  0  0
  128.4570  125.9090   66.2880 O   0  0  0  0  0  0  0  0  0  0  0  0
  130.0080  124.3530   65.4670 C   0  0  0  0  0  0  0  0  0  0  0  0
  129.3620  122.7970   64.9530 S   0  0  0  0  0  0  0  0  0  0  0  0
  130.6450  122.5970   63.7830 C   0  0  0  0  0  0  0  0  0  0  0  0
  130.7130  121.5200   63.0030 N   0  0  0  0  0  0  0  0  0  0  0  0
  131.7520  121.4780   62.1370 C   0  0  0  0  0  0  0  0  0  0  0  0
  131.8110  120.2420   61.2570 C   0  0  0  0  0  0  0  0  0  0  0  0
  132.7150  122.4780   62.0350 C   0  0  0  0  0  0  0  0  0  0  0  0
  132.6480  123.6150   62.8530 C   0  0  0  0  0  0  0  0  0  0  0  0
  133.7310  124.6900   62.7040 C   0  0  0  0  0  0  0  0  0  0  0  0
  134.2570  125.0670   63.8720 F   0  0  0  0  0  0  0  0  0  0  0  0
  134.7270  124.2240   61.9490 F   0  0  0  0  0  0  0  0  0  0  0  0
  133.2140  125.7750   62.1290 F   0  0  0  0  0  0  0  0  0  0  0  0
  131.5640  123.6920   63.7790 C   0  0  0  0  0  0  0  0  0  0  0  0
  131.1760  124.6770   64.7560 C   0  0  0  0  0  0  0  0  0  0  0  0
  131.8840  125.8330   64.9640 N   0  0  0  0  0  0  0  0  0  0  0  0
  128.6840  126.5560   69.2030 C   0  0  0  0  0  0  0  0  0  0  0  0
  128.3440  126.9940   70.4800 C   0  0  0  0  0  0  0  0  0  0  0  0
  128.1837  128.3806   74.3414 H   0  0  0  0  0  0  0  0  0  0  0  0
  129.0510  128.7338   72.8086 H   0  0  0  0  0  0  0  0  0  0  0  0
  127.2636  128.5552   72.8086 H   0  0  0  0  0  0  0  0  0  0  0  0
  129.7104  124.4600   72.3131 H   0  0  0  0  0  0  0  0  0  0  0  0
  130.3278  123.6807   70.0363 H   0  0  0  0  0  0  0  0  0  0  0  0
  130.4990  124.1060   67.8620 H   0  0  0  0  0  0  0  0  0  0  0  0
  131.8539  119.3432   61.8897 H   0  0  0  0  0  0  0  0  0  0  0  0
  130.9138  120.2009   60.6219 H   0  0  0  0  0  0  0  0  0  0  0  0
  132.7080  120.2865   60.6219 H   0  0  0  0  0  0  0  0  0  0  0  0
  133.5340  122.3756   61.3079 H   0  0  0  0  0  0  0  0  0  0  0  0
  131.9580  126.2580   65.8780 H   0  0  0  0  0  0  0  0  0  0  0  0
  132.3600  126.3020   64.2060 H   0  0  0  0  0  0  0  0  0  0  0  0
  128.3970  127.1520   68.3241 H   0  0  0  0  0  0  0  0  0  0  0  0
  127.7862  127.9340   70.6033 H   0  0  0  0  0  0  0  0  0  0  0  0
  1  2  1  0
  2  3  2  0
  2  4  1  0
  4  5  2  0
  5  6  1  0
  6  7  2  0
  7  8  1  0
  8  9  1  0
  9 10  2  0
  9 11  1  0
 11 12  1  0
 12 13  1  0
 13 14  2  0
 14 15  1  0
 15 16  1  0
 15 17  2  0
 17 18  1  0
 18 19  1  0
 19 20  1  0
 19 21  1  0
 19 22  1  0
 18 23  2  0
 23 24  1  0
 24 25  1  0
  7 26  1  0
 26 27  2  0
 27  4  1  0
 24 11  2  0
 23 13  1  0
  1 28  1  0
  1 29  1  0
  1 30  1  0
  5 31  1  0
  6 32  1  0
  8 33  1  0
 16 34  1  0
 16 35  1  0
 16 36  1  0
 17 37  1  0
 25 38  1  0
 25 39  1  0
 26 40  1  0
 27 41  1  0
M  END
>  <Binding energies>  (1) 
[-7.31]

>  <Ligand effiencies>  (1) 
[-0.24366666666666664]

>  <Interactions>  (1) 
["V-A:HIS:456:CD2:4068, H-B:LYS:547:NZ:9923, V-B:GLU:543:C:9874, V-B:HIS:456:CD2:9039, V-B:GLU:543:CB:9878, V-A:HIS:456:CE1:4069, V-B:HIS:456:CE1:9040, V-B:GLU:543:CG:9879, H-A:GLU:543:OE2:4910, V-A:GLU:543:CD:4908, V-B:ALA:541:CB:9864, V-B:GLU:543:CA:9876, V-A:TYR:484:CZ:4347, V-A:LEU:475:CD1:4258, V-A:TYR:484:CE1:4345, V-A:ARG:545:CZ:4926, V-A:GLY:453:CA:4044, H-A:TYR:484:OH:4348, V-A:GLY:453:C:4042, V-A:ASP:366:CG:3213, V-A:ILE:369:CD1:3239, V-A:HIS:456:CG:4066, V-B:HIS:456:CG:9037, H-B:GLU:543:O:9875, H-A:HIS:456:ND1:4067"]

$$$$
4bc_Grossjean_2025
     RDKit          3D

 40 42  0  0  0  0  0  0  0  0999 V2000
  127.0520  126.9960   73.3490 C   0  0  0  0  0  0  0  0  0  0  0  0
  127.8930  125.8800   73.0800 O   0  0  0  0  0  0  0  0  0  0  0  0
  128.3850  125.7000   71.8010 C   0  0  0  0  0  0  0  0  0  0  0  0
  129.2900  124.6540   71.6240 C   0  0  0  0  0  0  0  0  0  0  0  0
  129.8390  124.3950   70.3710 C   0  0  0  0  0  0  0  0  0  0  0  0
  129.4810  125.1780   69.2720 C   0  0  0  0  0  0  0  0  0  0  0  0
  130.0980  124.8530   68.0500 N   0  0  0  0  0  0  0  0  0  0  0  0
  129.7630  125.2330   66.7930 C   0  0  0  0  0  0  0  0  0  0  0  0
  128.7860  125.9340   66.5240 O   0  0  0  0  0  0  0  0  0  0  0  0
  130.6470  124.7430   65.7310 C   0  0  0  0  0  0  0  0  0  0  0  0
  132.2480  125.4450   65.5160 S   0  0  0  0  0  0  0  0  0  0  0  0
  132.5830  124.3850   64.1670 C   0  0  0  0  0  0  0  0  0  0  0  0
  133.7450  124.4330   63.5170 N   0  0  0  0  0  0  0  0  0  0  0  0
  133.8870  123.5650   62.4890 C   0  0  0  0  0  0  0  0  0  0  0  0
  135.2190  123.6310   61.7660 C   0  0  0  0  0  0  0  0  0  0  0  0
  132.9030  122.6580   62.0990 C   0  0  0  0  0  0  0  0  0  0  0  0
  131.6770  122.6040   62.7810 C   0  0  0  0  0  0  0  0  0  0  0  0
  130.6250  121.5920   62.3130 C   0  0  0  0  0  0  0  0  0  0  0  0
  130.1250  120.8610   63.3110 F   0  0  0  0  0  0  0  0  0  0  0  0
  129.6080  122.2340   61.7380 F   0  0  0  0  0  0  0  0  0  0  0  0
  131.1680  120.7500   61.4340 F   0  0  0  0  0  0  0  0  0  0  0  0
  131.4960  123.5060   63.8710 C   0  0  0  0  0  0  0  0  0  0  0  0
  130.4030  123.7340   64.7860 C   0  0  0  0  0  0  0  0  0  0  0  0
  129.2320  123.0220   64.7310 N   0  0  0  0  0  0  0  0  0  0  0  0
  128.5810  126.2410   69.4450 C   0  0  0  0  0  0  0  0  0  0  0  0
  128.0350  126.4970   70.6990 C   0  0  0  0  0  0  0  0  0  0  0  0
  126.9533  127.1270   74.4367 H   0  0  0  0  0  0  0  0  0  0  0  0
  127.4936  127.9024   72.9091 H   0  0  0  0  0  0  0  0  0  0  0  0
  126.0590  126.8213   72.9091 H   0  0  0  0  0  0  0  0  0  0  0  0
  129.5729  124.0274   72.4827 H   0  0  0  0  0  0  0  0  0  0  0  0
  130.5570  123.5710   70.2466 H   0  0  0  0  0  0  0  0  0  0  0  0
  130.8820  124.2220   68.1320 H   0  0  0  0  0  0  0  0  0  0  0  0
  136.0346  123.6714   62.5030 H   0  0  0  0  0  0  0  0  0  0  0  0
  135.3386  122.7377   61.1354 H   0  0  0  0  0  0  0  0  0  0  0  0
  135.2497  124.5318   61.1354 H   0  0  0  0  0  0  0  0  0  0  0  0
  133.0881  121.9808   61.2522 H   0  0  0  0  0  0  0  0  0  0  0  0
  129.0080  122.3070   65.4080 H   0  0  0  0  0  0  0  0  0  0  0  0
  128.5480  123.1940   64.0070 H   0  0  0  0  0  0  0  0  0  0  0  0
  128.3067  126.8730   68.5875 H   0  0  0  0  0  0  0  0  0  0  0  0
  127.3257  127.3278   70.8278 H   0  0  0  0  0  0  0  0  0  0  0  0
  1  2  1  0
  2  3  1  0
  3  4  2  0
  4  5  1  0
  5  6  2  0
  6  7  1  0
  7  8  1  0
  8  9  2  0
  8 10  1  0
 10 11  1  0
 11 12  1  0
 12 13  2  0
 13 14  1  0
 14 15  1  0
 14 16  2  0
 16 17  1  0
 17 18  1  0
 18 19  1  0
 18 20  1  0
 18 21  1  0
 17 22  2  0
 22 23  1  0
 23 24  1  0
  6 25  1  0
 25 26  2  0
 26  3  1  0
 23 10  2  0
 22 12  1  0
  1 27  1  0
  1 28  1  0
  1 29  1  0
  4 30  1  0
  5 31  1  0
  7 32  1  0
 15 33  1  0
 15 34  1  0
 15 35  1  0
 16 36  1  0
 24 37  1  0
 24 38  1  0
 25 39  1  0
 26 40  1  0
M  END
>  <Binding energies>  (1) 
[-6.58]

>  <Ligand effiencies>  (1) 
[-0.22689655172413795]

>  <Interactions>  (1) 
["V-A:HIS:456:CD2:4068, H-B:LYS:547:NZ:9923, V-B:GLU:543:C:9874, V-B:GLU:543:CB:9878, V-A:HIS:456:CE1:4069, V-B:HIS:456:CE1:9040, V-B:GLU:543:CG:9879, V-B:ALA:541:CB:9864, V-B:GLU:543:CA:9876, V-A:TYR:484:CZ:4347, V-A:LEU:475:CD1:4258, V-A:TYR:484:CE1:4345, H-A:GLY:454:N:4050, V-A:GLY:453:CA:4044, H-A:ARG:545:NH2:4928, H-A:TYR:484:OH:4348, V-A:GLY:453:C:4042, V-A:GLY:454:CA:4049, V-A:ILE:369:CD1:3239, V-B:GLY:544:C:9884, V-A:LEU:475:CD2:4259, V-A:HIS:456:CG:4066, H-B:GLU:543:O:9875, H-A:HIS:456:ND1:4067"]

$$$$
4bd_Grossjean_2025
     RDKit          3D

 36 38  0  0  0  0  0  0  0  0999 V2000
  127.8190  130.4640   65.1170 C   0  0  0  0  0  0  0  0  0  0  0  0
  128.2420  129.0470   65.4560 C   0  0  0  0  0  0  0  0  0  0  0  0
  128.2930  128.6090   66.7760 C   0  0  0  0  0  0  0  0  0  0  0  0
  128.6890  127.2960   67.0760 C   0  0  0  0  0  0  0  0  0  0  0  0
  128.7330  126.8600   68.5440 C   0  0  0  0  0  0  0  0  0  0  0  0
  129.7180  125.9970   68.8030 F   0  0  0  0  0  0  0  0  0  0  0  0
  128.9190  127.9240   69.3250 F   0  0  0  0  0  0  0  0  0  0  0  0
  127.5860  126.2660   68.8730 F   0  0  0  0  0  0  0  0  0  0  0  0
  129.0260  126.4490   65.9780 C   0  0  0  0  0  0  0  0  0  0  0  0
  129.4640  125.0770   65.8940 C   0  0  0  0  0  0  0  0  0  0  0  0
  129.6340  124.2870   67.0010 N   0  0  0  0  0  0  0  0  0  0  0  0
  129.6990  124.6290   64.5830 C   0  0  0  0  0  0  0  0  0  0  0  0
  130.1630  123.3110   64.1390 C   0  0  0  0  0  0  0  0  0  0  0  0
  130.4980  122.4540   64.9570 O   0  0  0  0  0  0  0  0  0  0  0  0
  130.1780  123.1230   62.7960 N   0  0  0  0  0  0  0  0  0  0  0  0
  130.6010  122.0050   62.0540 C   0  0  0  0  0  0  0  0  0  0  0  0
  131.9730  121.9240   61.7960 C   0  0  0  0  0  0  0  0  0  0  0  0
  132.4910  120.8500   61.0780 C   0  0  0  0  0  0  0  0  0  0  0  0
  131.6380  119.8480   60.6230 C   0  0  0  0  0  0  0  0  0  0  0  0
  130.2720  119.9090   60.8850 C   0  0  0  0  0  0  0  0  0  0  0  0
  129.7490  120.9820   61.6020 C   0  0  0  0  0  0  0  0  0  0  0  0
  129.3760  125.9000   63.4070 S   0  0  0  0  0  0  0  0  0  0  0  0
  128.9330  127.0220   64.6720 C   0  0  0  0  0  0  0  0  0  0  0  0
  128.5560  128.2690   64.3940 N   0  0  0  0  0  0  0  0  0  0  0  0
  127.6505  131.0285   66.0459 H   0  0  0  0  0  0  0  0  0  0  0  0
  128.6105  130.9523   64.5296 H   0  0  0  0  0  0  0  0  0  0  0  0
  126.8893  130.4385   64.5296 H   0  0  0  0  0  0  0  0  0  0  0  0
  128.0210  129.2967   67.5903 H   0  0  0  0  0  0  0  0  0  0  0  0
  129.0000  124.3230   67.7870 H   0  0  0  0  0  0  0  0  0  0  0  0
  130.4010  123.6320   67.0670 H   0  0  0  0  0  0  0  0  0  0  0  0
  129.8190  123.8830   62.2360 H   0  0  0  0  0  0  0  0  0  0  0  0
  132.6462  122.7130   62.1623 H   0  0  0  0  0  0  0  0  0  0  0  0
  133.5698  120.7931   60.8709 H   0  0  0  0  0  0  0  0  0  0  0  0
  132.0467  119.0013   60.0519 H   0  0  0  0  0  0  0  0  0  0  0  0
  129.6064  119.1102   60.5259 H   0  0  0  0  0  0  0  0  0  0  0  0
  128.6707  121.0292   61.8145 H   0  0  0  0  0  0  0  0  0  0  0  0
  1  2  1  0
  2  3  2  0
  3  4  1  0
  4  5  1  0
  5  6  1  0
  5  7  1  0
  5  8  1  0
  4  9  2  0
  9 10  1  0
 10 11  1  0
 10 12  2  0
 12 13  1  0
 13 14  2  0
 13 15  1  0
 15 16  1  0
 16 17  2  0
 17 18  1  0
 18 19  2  0
 19 20  1  0
 20 21  2  0
 12 22  1  0
 22 23  1  0
 23 24  2  0
 24  2  1  0
 23  9  1  0
 21 16  1  0
  1 25  1  0
  1 26  1  0
  1 27  1  0
  3 28  1  0
 11 29  1  0
 11 30  1  0
 15 31  1  0
 17 32  1  0
 18 33  1  0
 19 34  1  0
 20 35  1  0
 21 36  1  0
M  END
>  <Binding energies>  (1) 
[-6.05]

>  <Ligand effiencies>  (1) 
[-0.22407407407407406]

>  <Interactions>  (1) 
["V-A:HIS:456:CD2:4068, V-B:GLU:543:CD:9880, V-B:GLU:543:C:9874, V-B:GLU:543:CB:9878, V-A:HIS:456:CE1:4069, V-B:HIS:456:CE1:9040, V-B:GLU:543:CG:9879, V-A:GLU:543:CD:4908, V-B:ALA:541:CB:9864, V-B:GLU:543:CA:9876, V-A:TYR:484:CZ:4347, V-A:LEU:475:CD1:4258, V-A:GLU:543:CB:4906, V-A:TYR:484:CE1:4345, H-A:TYR:484:OH:4348, V-B:TYR:539:CE2:9848, V-B:TYR:539:CD2:9846, V-A:PRO:482:CG:4327, V-A:TRP:381:CZ2:3370, V-A:TRP:381:CH2:3372, V-B:GLY:544:C:9884, H-B:GLU:543:O:9875"]

$$$$
4be_Grossjean_2025
     RDKit          3D

 38 40  0  0  0  0  0  0  0  0999 V2000
  128.1000  119.9160   72.8180 C   0  0  0  0  0  0  0  0  0  0  0  0
  129.1540  120.9940   72.6520 C   0  0  0  0  0  0  0  0  0  0  0  0
  130.3130  121.0080   73.4320 C   0  0  0  0  0  0  0  0  0  0  0  0
  131.2390  122.0320   73.2270 C   0  0  0  0  0  0  0  0  0  0  0  0
  130.9870  123.0060   72.2580 C   0  0  0  0  0  0  0  0  0  0  0  0
  129.8080  122.9290   71.5070 C   0  0  0  0  0  0  0  0  0  0  0  0
  129.6100  123.9430   70.5530 N   0  0  0  0  0  0  0  0  0  0  0  0
  129.4490  125.2760   70.7480 C   0  0  0  0  0  0  0  0  0  0  0  0
  129.4590  125.8130   71.8570 O   0  0  0  0  0  0  0  0  0  0  0  0
  129.2310  126.0670   69.5330 C   0  0  0  0  0  0  0  0  0  0  0  0
  128.6790  127.7370   69.6530 S   0  0  0  0  0  0  0  0  0  0  0  0
  128.6500  127.8990   67.9120 C   0  0  0  0  0  0  0  0  0  0  0  0
  128.2860  129.0380   67.3270 N   0  0  0  0  0  0  0  0  0  0  0  0
  128.3050  129.0430   65.9730 C   0  0  0  0  0  0  0  0  0  0  0  0
  127.8840  130.3500   65.3250 C   0  0  0  0  0  0  0  0  0  0  0  0
  128.6780  127.9470   65.2010 C   0  0  0  0  0  0  0  0  0  0  0  0
  129.0640  126.7440   65.8120 C   0  0  0  0  0  0  0  0  0  0  0  0
  129.4700  125.5660   64.9200 C   0  0  0  0  0  0  0  0  0  0  0  0
  128.9910  124.3960   65.3510 F   0  0  0  0  0  0  0  0  0  0  0  0
  129.0060  125.7540   63.6850 F   0  0  0  0  0  0  0  0  0  0  0  0
  130.7980  125.4650   64.8820 F   0  0  0  0  0  0  0  0  0  0  0  0
  129.0500  126.7030   67.2380 C   0  0  0  0  0  0  0  0  0  0  0  0
  129.3660  125.6700   68.1940 C   0  0  0  0  0  0  0  0  0  0  0  0
  129.7700  124.4140   67.8210 N   0  0  0  0  0  0  0  0  0  0  0  0
  128.8950  121.9330   71.7060 N   0  0  0  0  0  0  0  0  0  0  0  0
  127.9246  119.7366   73.8890 H   0  0  0  0  0  0  0  0  0  0  0  0
  127.1633  120.2427   72.3427 H   0  0  0  0  0  0  0  0  0  0  0  0
  128.4477  118.9869   72.3427 H   0  0  0  0  0  0  0  0  0  0  0  0
  130.4915  120.2306   74.1895 H   0  0  0  0  0  0  0  0  0  0  0  0
  132.1615  122.0718   73.8248 H   0  0  0  0  0  0  0  0  0  0  0  0
  131.7047  123.8219   72.0874 H   0  0  0  0  0  0  0  0  0  0  0  0
  129.5420  123.6170   69.6000 H   0  0  0  0  0  0  0  0  0  0  0  0
  127.6466  131.0869   66.1064 H   0  0  0  0  0  0  0  0  0  0  0  0
  128.7051  130.7304   64.6996 H   0  0  0  0  0  0  0  0  0  0  0  0
  126.9953  130.1796   64.6996 H   0  0  0  0  0  0  0  0  0  0  0  0
  128.6702  128.0241   64.1037 H   0  0  0  0  0  0  0  0  0  0  0  0
  130.7110  124.2250   67.5060 H   0  0  0  0  0  0  0  0  0  0  0  0
  129.1320  123.6300   67.8410 H   0  0  0  0  0  0  0  0  0  0  0  0
  1  2  1  0
  2  3  2  0
  3  4  1  0
  4  5  2  0
  5  6  1  0
  6  7  1  0
  7  8  1  0
  8  9  2  0
  8 10  1  0
 10 11  1  0
 11 12  1  0
 12 13  2  0
 13 14  1  0
 14 15  1  0
 14 16  2  0
 16 17  1  0
 17 18  1  0
 18 19  1  0
 18 20  1  0
 18 21  1  0
 17 22  2  0
 22 23  1  0
 23 24  1  0
  6 25  2  0
 25  2  1  0
 23 10  2  0
 22 12  1  0
  1 26  1  0
  1 27  1  0
  1 28  1  0
  3 29  1  0
  4 30  1  0
  5 31  1  0
  7 32  1  0
 15 33  1  0
 15 34  1  0
 15 35  1  0
 16 36  1  0
 24 37  1  0
 24 38  1  0
M  END
>  <Binding energies>  (1) 
[-7.11]

>  <Ligand effiencies>  (1) 
[-0.25392857142857145]

>  <Interactions>  (1) 
["H-B:HIS:456:NE2:9041, V-A:HIS:456:CD2:4068, V-B:GLU:543:CD:9880, H-B:LYS:547:NZ:9923, V-B:GLU:543:C:9874, V-B:GLU:543:CB:9878, V-A:HIS:456:CE1:4069, H-A:HIS:456:NE2:4070, V-B:HIS:456:CE1:9040, V-B:GLU:543:CG:9879, V-A:GLU:543:CD:4908, V-B:GLU:543:CA:9876, V-A:TYR:484:CZ:4347, V-A:GLU:543:CB:4906, V-A:TYR:484:CE1:4345, H-A:TYR:484:OH:4348, V-A:HIS:456:CG:4066, V-A:TYR:484:CD2:4344, V-A:TYR:484:CE2:4346, V-A:TYR:484:CD1:4343, V-A:HIS:456:CB:4065, V-A:TYR:484:CG:4342, H-B:GLU:543:O:9875, V-B:LYS:547:CE:9922, V-A:ASP:473:CG:4240, H-A:HIS:456:ND1:4067, V-A:ASP:473:CB:4239, V-A:TYR:484:CB:4341"]

$$$$
4bf_Grossjean_2025
     RDKit          3D

 35 37  0  0  0  0  0  0  0  0999 V2000
  128.0700  130.0810   64.3720 C   0  0  0  0  0  0  0  0  0  0  0  0
  128.4390  128.8320   65.1520 C   0  0  0  0  0  0  0  0  0  0  0  0
  128.7780  127.6510   64.4970 C   0  0  0  0  0  0  0  0  0  0  0  0
  129.1140  126.5030   65.2300 C   0  0  0  0  0  0  0  0  0  0  0  0
  129.4770  125.2250   64.4660 C   0  0  0  0  0  0  0  0  0  0  0  0
  128.9990  125.2090   63.2190 F   0  0  0  0  0  0  0  0  0  0  0  0
  130.8030  125.1070   64.3860 F   0  0  0  0  0  0  0  0  0  0  0  0
  128.9770  124.1630   65.0980 F   0  0  0  0  0  0  0  0  0  0  0  0
  129.0910  126.6070   66.6530 C   0  0  0  0  0  0  0  0  0  0  0  0
  129.3670  125.6660   67.7110 C   0  0  0  0  0  0  0  0  0  0  0  0
  129.7440  124.3700   67.4670 N   0  0  0  0  0  0  0  0  0  0  0  0
  129.2190  126.1950   69.0040 C   0  0  0  0  0  0  0  0  0  0  0  0
  129.3870  125.5170   70.2930 C   0  0  0  0  0  0  0  0  0  0  0  0
  129.1950  126.1210   71.3490 O   0  0  0  0  0  0  0  0  0  0  0  0
  129.7450  124.2110   70.2200 N   0  0  0  0  0  0  0  0  0  0  0  0
  130.0300  123.3010   71.2550 C   0  0  0  0  0  0  0  0  0  0  0  0
  131.1980  123.2980   72.0380 C   0  0  0  0  0  0  0  0  0  0  0  0
  131.3640  122.3250   73.0270 C   0  0  0  0  0  0  0  0  0  0  0  0
  130.3570  121.3760   73.2060 C   0  0  0  0  0  0  0  0  0  0  0  0
  129.2250  121.3530   72.4590 N   0  0  0  0  0  0  0  0  0  0  0  0
  129.0780  122.3040   71.5020 C   0  0  0  0  0  0  0  0  0  0  0  0
  128.7260  127.8850   68.9470 S   0  0  0  0  0  0  0  0  0  0  0  0
  128.7260  127.8760   67.1990 C   0  0  0  0  0  0  0  0  0  0  0  0
  128.4090  128.9640   66.4990 N   0  0  0  0  0  0  0  0  0  0  0  0
  127.8299  130.8937   65.0733 H   0  0  0  0  0  0  0  0  0  0  0  0
  128.9177  130.3816   63.7387 H   0  0  0  0  0  0  0  0  0  0  0  0
  127.1950  129.8727   63.7387 H   0  0  0  0  0  0  0  0  0  0  0  0
  128.7824  127.6179   63.3975 H   0  0  0  0  0  0  0  0  0  0  0  0
  129.0910  123.6020   67.5340 H   0  0  0  0  0  0  0  0  0  0  0  0
  130.6930  124.1390   67.2090 H   0  0  0  0  0  0  0  0  0  0  0  0
  129.8120  123.8200   69.2920 H   0  0  0  0  0  0  0  0  0  0  0  0
  131.9766  124.0573   71.8729 H   0  0  0  0  0  0  0  0  0  0  0  0
  132.2695  122.3076   73.6513 H   0  0  0  0  0  0  0  0  0  0  0  0
  130.4868  120.6128   73.9874 H   0  0  0  0  0  0  0  0  0  0  0  0
  128.1646  122.2911   70.8892 H   0  0  0  0  0  0  0  0  0  0  0  0
  1  2  1  0
  2  3  2  0
  3  4  1  0
  4  5  1  0
  5  6  1  0
  5  7  1  0
  5  8  1  0
  4  9  2  0
  9 10  1  0
 10 11  1  0
 10 12  2  0
 12 13  1  0
 13 14  2  0
 13 15  1  0
 15 16  1  0
 16 17  2  0
 17 18  1  0
 18 19  2  0
 19 20  1  0
 20 21  2  0
 12 22  1  0
 22 23  1  0
 23 24  2  0
 24  2  1  0
 23  9  1  0
 21 16  1  0
  1 25  1  0
  1 26  1  0
  1 27  1  0
  3 28  1  0
 11 29  1  0
 11 30  1  0
 15 31  1  0
 17 32  1  0
 18 33  1  0
 19 34  1  0
 21 35  1  0
M  END
>  <Binding energies>  (1) 
[-6.63]

>  <Ligand effiencies>  (1) 
[-0.24555555555555555]

>  <Interactions>  (1) 
["V-A:HIS:456:CD2:4068, V-B:GLU:543:CD:9880, H-B:LYS:547:NZ:9923, V-B:GLU:543:C:9874, V-B:GLU:543:CB:9878, V-A:HIS:456:CE1:4069, H-A:HIS:456:NE2:4070, V-B:HIS:456:CE1:9040, V-B:GLU:543:CG:9879, V-A:GLU:543:CD:4908, V-B:GLU:543:CA:9876, V-A:TYR:484:CZ:4347, V-A:GLU:543:CB:4906, V-A:TYR:484:CE1:4345, H-A:TYR:484:OH:4348, V-A:HIS:456:CG:4066, V-A:TYR:484:CD2:4344, V-A:TYR:484:CE2:4346, V-A:TYR:484:CD1:4343, V-A:HIS:456:CB:4065, V-A:TYR:484:CG:4342, H-B:GLU:543:O:9875, V-B:LYS:547:CE:9922, V-A:ASP:473:CG:4240, V-B:GLY:544:CA:9886, H-A:HIS:456:ND1:4067, V-A:ASP:473:CB:4239, V-A:TYR:484:CB:4341"]

$$$$
4bg_Grossjean_2025
     RDKit          3D

 39 41  0  0  0  0  0  0  0  0999 V2000
  128.3040  127.6830   61.8800 C   0  0  0  0  0  0  0  0  0  0  0  0
  128.6220  127.0740   63.2330 C   0  0  0  0  0  0  0  0  0  0  0  0
  129.0900  125.7670   63.3390 C   0  0  0  0  0  0  0  0  0  0  0  0
  129.3760  125.2140   64.5980 C   0  0  0  0  0  0  0  0  0  0  0  0
  129.8880  123.7710   64.6650 C   0  0  0  0  0  0  0  0  0  0  0  0
  129.1900  123.0080   65.5090 F   0  0  0  0  0  0  0  0  0  0  0  0
  129.8090  123.2090   63.4590 F   0  0  0  0  0  0  0  0  0  0  0  0
  131.1560  123.7600   65.0740 F   0  0  0  0  0  0  0  0  0  0  0  0
  129.1670  126.0460   65.7380 C   0  0  0  0  0  0  0  0  0  0  0  0
  129.3390  125.8310   67.1540 C   0  0  0  0  0  0  0  0  0  0  0  0
  129.7720  124.6400   67.6780 N   0  0  0  0  0  0  0  0  0  0  0  0
  129.0310  126.9500   67.9430 C   0  0  0  0  0  0  0  0  0  0  0  0
  129.0630  127.0750   69.4000 C   0  0  0  0  0  0  0  0  0  0  0  0
  129.4170  128.1200   69.9490 O   0  0  0  0  0  0  0  0  0  0  0  0
  128.6450  125.9960   70.0940 N   0  0  0  0  0  0  0  0  0  0  0  0
  128.6050  125.8880   71.5530 C   0  0  0  0  0  0  0  0  0  0  0  0
  129.6500  124.9390   72.1230 C   0  0  0  0  0  0  0  0  0  0  0  0
  129.9240  123.7280   71.4790 C   0  0  0  0  0  0  0  0  0  0  0  0
  130.9070  122.8800   71.9810 C   0  0  0  0  0  0  0  0  0  0  0  0
  131.6240  123.2500   73.1170 C   0  0  0  0  0  0  0  0  0  0  0  0
  131.3690  124.4630   73.7530 C   0  0  0  0  0  0  0  0  0  0  0  0
  130.3850  125.3110   73.2520 C   0  0  0  0  0  0  0  0  0  0  0  0
  128.4800  128.3000   66.9550 S   0  0  0  0  0  0  0  0  0  0  0  0
  128.6910  127.3700   65.4910 C   0  0  0  0  0  0  0  0  0  0  0  0
  128.4190  127.8890   64.2930 N   0  0  0  0  0  0  0  0  0  0  0  0
  127.7991  128.6498   62.0226 H   0  0  0  0  0  0  0  0  0  0  0  0
  129.2373  127.8360   61.3183 H   0  0  0  0  0  0  0  0  0  0  0  0
  127.6450  127.0046   61.3183 H   0  0  0  0  0  0  0  0  0  0  0  0
  129.2367  125.1637   62.4310 H   0  0  0  0  0  0  0  0  0  0  0  0
  129.1430  123.9960   68.1340 H   0  0  0  0  0  0  0  0  0  0  0  0
  130.7460  124.3690   67.6320 H   0  0  0  0  0  0  0  0  0  0  0  0
  128.4450  125.1490   69.5820 H   0  0  0  0  0  0  0  0  0  0  0  0
  128.7731  126.8875   71.9804 H   0  0  0  0  0  0  0  0  0  0  0  0
  127.6190  125.4794   71.8192 H   0  0  0  0  0  0  0  0  0  0  0  0
  129.3628  123.4458   70.5760 H   0  0  0  0  0  0  0  0  0  0  0  0
  131.1169  121.9219   71.4831 H   0  0  0  0  0  0  0  0  0  0  0  0
  132.3985  122.5781   73.5153 H   0  0  0  0  0  0  0  0  0  0  0  0
  131.9425  124.7494   74.6469 H   0  0  0  0  0  0  0  0  0  0  0  0
  130.1860  126.2740   73.7449 H   0  0  0  0  0  0  0  0  0  0  0  0
  1  2  1  0
  2  3  2  0
  3  4  1  0
  4  5  1  0
  5  6  1  0
  5  7  1  0
  5  8  1  0
  4  9  2  0
  9 10  1  0
 10 11  1  0
 10 12  2  0
 12 13  1  0
 13 14  2  0
 13 15  1  0
 15 16  1  0
 16 17  1  0
 17 18  2  0
 18 19  1  0
 19 20  2  0
 20 21  1  0
 21 22  2  0
 12 23  1  0
 23 24  1  0
 24 25  2  0
 25  2  1  0
 24  9  1  0
 22 17  1  0
  1 26  1  0
  1 27  1  0
  1 28  1  0
  3 29  1  0
 11 30  1  0
 11 31  1  0
 15 32  1  0
 16 33  1  0
 16 34  1  0
 18 35  1  0
 19 36  1  0
 20 37  1  0
 21 38  1  0
 22 39  1  0
M  END
>  <Binding energies>  (1) 
[-6.86]

>  <Ligand effiencies>  (1) 
[-0.24500000000000002]

>  <Interactions>  (1) 
["H-B:HIS:456:NE2:9041, V-A:HIS:456:CD2:4068, V-B:GLU:543:CD:9880, V-B:GLU:543:C:9874, V-B:GLU:543:CB:9878, V-A:HIS:456:CE1:4069, H-A:HIS:456:NE2:4070, V-B:HIS:456:CE1:9040, V-B:GLU:543:CG:9879, V-A:GLU:543:CD:4908, V-B:ALA:541:CB:9864, V-B:GLU:543:CA:9876, V-A:TYR:484:CZ:4347, V-A:GLU:543:CB:4906, V-A:TYR:484:CE1:4345, H-A:TYR:484:OH:4348, V-A:HIS:456:CG:4066, V-A:TYR:484:CD2:4344, V-A:TYR:484:CE2:4346, V-A:TYR:484:CD1:4343, V-A:HIS:456:CB:4065, V-A:TYR:484:CG:4342, H-B:GLU:543:O:9875, H-A:HIS:456:ND1:4067, V-A:ASP:473:CB:4239"]

$$$$
4bh_Grossjean_2025
     RDKit          3D

 51 53  0  0  0  0  0  0  0  0999 V2000
  133.0560  126.9280   74.3900 C   0  0  0  0  0  0  0  0  0  0  0  0
  131.6600  126.7530   74.6040 O   0  0  0  0  0  0  0  0  0  0  0  0
  130.9090  126.0740   73.6620 C   0  0  0  0  0  0  0  0  0  0  0  0
  129.8500  126.6480   72.9420 C   0  0  0  0  0  0  0  0  0  0  0  0
  129.1320  125.9010   72.0070 C   0  0  0  0  0  0  0  0  0  0  0  0
  128.0150  126.5540   71.2020 C   0  0  0  0  0  0  0  0  0  0  0  0
  128.2040  126.4560   69.7540 N   0  0  0  0  0  0  0  0  0  0  0  0
  129.0230  127.2360   69.0180 C   0  0  0  0  0  0  0  0  0  0  0  0
  129.6790  128.1570   69.5090 O   0  0  0  0  0  0  0  0  0  0  0  0
  129.0590  126.9560   67.5830 C   0  0  0  0  0  0  0  0  0  0  0  0
  128.5610  128.1910   66.4310 S   0  0  0  0  0  0  0  0  0  0  0  0
  128.8400  127.1100   65.0860 C   0  0  0  0  0  0  0  0  0  0  0  0
  128.6290  127.4970   63.8280 N   0  0  0  0  0  0  0  0  0  0  0  0
  128.8830  126.5730   62.8730 C   0  0  0  0  0  0  0  0  0  0  0  0
  128.6340  127.0340   61.4470 C   0  0  0  0  0  0  0  0  0  0  0  0
  129.3390  125.2850   63.1410 C   0  0  0  0  0  0  0  0  0  0  0  0
  129.5610  124.8710   64.4640 C   0  0  0  0  0  0  0  0  0  0  0  0
  130.0650  123.4460   64.7110 C   0  0  0  0  0  0  0  0  0  0  0  0
  129.9970  122.6710   63.6250 F   0  0  0  0  0  0  0  0  0  0  0  0
  131.3400  123.4790   65.0970 F   0  0  0  0  0  0  0  0  0  0  0  0
  129.3320  122.8660   65.6620 F   0  0  0  0  0  0  0  0  0  0  0  0
  129.3010  125.8210   65.4960 C   0  0  0  0  0  0  0  0  0  0  0  0
  129.4030  125.7600   66.9340 C   0  0  0  0  0  0  0  0  0  0  0  0
  129.8080  124.6340   67.6030 N   0  0  0  0  0  0  0  0  0  0  0  0
  129.4920  124.5740   71.7640 C   0  0  0  0  0  0  0  0  0  0  0  0
  130.5420  123.9720   72.4750 C   0  0  0  0  0  0  0  0  0  0  0  0
  130.9430  122.6600   72.2960 O   0  0  0  0  0  0  0  0  0  0  0  0
  130.8760  121.7550   73.3930 C   0  0  0  0  0  0  0  0  0  0  0  0
  131.2390  124.7320   73.4250 C   0  0  0  0  0  0  0  0  0  0  0  0
  132.2820  124.1590   74.1160 O   0  0  0  0  0  0  0  0  0  0  0  0
  132.0440  124.0200   75.5090 C   0  0  0  0  0  0  0  0  0  0  0  0
  133.5704  126.9925   75.3602 H   0  0  0  0  0  0  0  0  0  0  0  0
  133.4500  126.0722   73.8222 H   0  0  0  0  0  0  0  0  0  0  0  0
  133.2266  127.8546   73.8222 H   0  0  0  0  0  0  0  0  0  0  0  0
  129.5823  127.7005   73.1169 H   0  0  0  0  0  0  0  0  0  0  0  0
  127.0655  126.0638   71.4630 H   0  0  0  0  0  0  0  0  0  0  0  0
  128.0162  127.6242   71.4565 H   0  0  0  0  0  0  0  0  0  0  0  0
  127.7630  125.6690   69.3010 H   0  0  0  0  0  0  0  0  0  0  0  0
  128.1113  128.0018   61.4605 H   0  0  0  0  0  0  0  0  0  0  0  0
  129.5955  127.1438   60.9240 H   0  0  0  0  0  0  0  0  0  0  0  0
  128.0150  126.2902   60.9240 H   0  0  0  0  0  0  0  0  0  0  0  0
  129.5264  124.5877   62.3112 H   0  0  0  0  0  0  0  0  0  0  0  0
  130.7810  124.3610   67.6500 H   0  0  0  0  0  0  0  0  0  0  0  0
  129.1440  124.0300   68.0660 H   0  0  0  0  0  0  0  0  0  0  0  0
  128.9460  123.9931   71.0060 H   0  0  0  0  0  0  0  0  0  0  0  0
  130.9177  122.3189   74.3366 H   0  0  0  0  0  0  0  0  0  0  0  0
  129.9336  121.1898   73.3450 H   0  0  0  0  0  0  0  0  0  0  0  0
  131.7249  121.0571   73.3450 H   0  0  0  0  0  0  0  0  0  0  0  0
  132.8611  124.4972   76.0700 H   0  0  0  0  0  0  0  0  0  0  0  0
  131.0903  124.5031   75.7680 H   0  0  0  0  0  0  0  0  0  0  0  0
  131.9962  122.9520   75.7680 H   0  0  0  0  0  0  0  0  0  0  0  0
  1  2  1  0
  2  3  1  0
  3  4  2  0
  4  5  1  0
  5  6  1  0
  6  7  1  0
  7  8  1  0
  8  9  2  0
  8 10  1  0
 10 11  1  0
 11 12  1  0
 12 13  2  0
 13 14  1  0
 14 15  1  0
 14 16  2  0
 16 17  1  0
 17 18  1  0
 18 19  1  0
 18 20  1  0
 18 21  1  0
 17 22  2  0
 22 23  1  0
 23 24  1  0
  5 25  2  0
 25 26  1  0
 26 27  1  0
 27 28  1  0
 26 29  2  0
 29 30  1  0
 30 31  1  0
 29  3  1  0
 23 10  2  0
 22 12  1  0
  1 32  1  0
  1 33  1  0
  1 34  1  0
  4 35  1  0
  6 36  1  0
  6 37  1  0
  7 38  1  0
 15 39  1  0
 15 40  1  0
 15 41  1  0
 16 42  1  0
 24 43  1  0
 24 44  1  0
 25 45  1  0
 28 46  1  0
 28 47  1  0
 28 48  1  0
 31 49  1  0
 31 50  1  0
 31 51  1  0
M  END
>  <Binding energies>  (1) 
[-6.67]

>  <Ligand effiencies>  (1) 
[-0.19617647058823529]

>  <Interactions>  (1) 
["H-B:HIS:456:NE2:9041, V-A:HIS:456:CD2:4068, V-B:GLU:543:CD:9880, H-B:LYS:547:NZ:9923, V-B:GLU:543:C:9874, H-A:LYS:547:NZ:4951, V-B:GLU:543:CB:9878, V-A:HIS:456:CE1:4069, H-A:HIS:456:NE2:4070, V-B:HIS:456:CE1:9040, V-B:GLU:543:CG:9879, V-A:GLU:543:CD:4908, V-B:ALA:541:CB:9864, V-B:GLU:543:CA:9876, V-A:TYR:484:CZ:4347, V-A:GLU:543:CB:4906, V-A:TYR:484:CE1:4345, H-A:TYR:484:OH:4348, V-B:GLY:544:C:9884, V-A:HIS:456:CG:4066, V-A:TYR:484:CD2:4344, V-A:HIS:456:CB:4065, V-A:TYR:484:CG:4342, V-A:LYS:547:CE:4950, H-B:GLY:544:O:9885, H-B:GLU:543:O:9875, V-A:ASP:473:CG:4240, V-A:LYS:547:CD:4949, H-A:HIS:456:ND1:4067, V-A:ASP:473:CB:4239, V-A:TYR:484:CB:4341"]

$$$$
4bi_Grossjean_2025
     RDKit          3D

 32 34  0  0  0  0  0  0  0  0999 V2000
  127.8550  130.2130   65.0810 C   0  0  0  0  0  0  0  0  0  0  0  0
  128.2830  128.9290   65.7700 C   0  0  0  0  0  0  0  0  0  0  0  0
  128.6750  127.8160   65.0320 C   0  0  0  0  0  0  0  0  0  0  0  0
  129.0730  126.6360   65.6830 C   0  0  0  0  0  0  0  0  0  0  0  0
  129.5040  125.4390   64.8290 C   0  0  0  0  0  0  0  0  0  0  0  0
  130.8290  125.2910   64.7680 F   0  0  0  0  0  0  0  0  0  0  0  0
  129.0010  124.3150   65.3400 F   0  0  0  0  0  0  0  0  0  0  0  0
  129.0610  125.5920   63.5810 F   0  0  0  0  0  0  0  0  0  0  0  0
  129.0490  126.6380   67.1100 C   0  0  0  0  0  0  0  0  0  0  0  0
  129.3750  125.6400   68.0980 C   0  0  0  0  0  0  0  0  0  0  0  0
  129.8020  124.3790   67.7660 N   0  0  0  0  0  0  0  0  0  0  0  0
  129.2230  126.0740   69.4250 C   0  0  0  0  0  0  0  0  0  0  0  0
  129.4500  125.3240   70.6640 C   0  0  0  0  0  0  0  0  0  0  0  0
  129.3970  125.8870   71.7590 O   0  0  0  0  0  0  0  0  0  0  0  0
  129.6960  123.9990   70.5060 N   0  0  0  0  0  0  0  0  0  0  0  0
  129.9320  123.0580   71.4990 C   0  0  0  0  0  0  0  0  0  0  0  0
  131.1060  123.0210   72.2490 C   0  0  0  0  0  0  0  0  0  0  0  0
  130.9480  121.9590   73.1110 C   0  0  0  0  0  0  0  0  0  0  0  0
  129.7400  121.3880   72.8910 O   0  0  0  0  0  0  0  0  0  0  0  0
  129.1050  122.0930   71.8670 N   0  0  0  0  0  0  0  0  0  0  0  0
  128.6430  127.7370   69.4890 S   0  0  0  0  0  0  0  0  0  0  0  0
  128.6260  127.8460   67.7450 C   0  0  0  0  0  0  0  0  0  0  0  0
  128.2520  128.9640   67.1220 N   0  0  0  0  0  0  0  0  0  0  0  0
  127.6029  130.9693   65.8389 H   0  0  0  0  0  0  0  0  0  0  0  0
  128.6781  130.5838   64.4525 H   0  0  0  0  0  0  0  0  0  0  0  0
  126.9740  130.0158   64.4525 H   0  0  0  0  0  0  0  0  0  0  0  0
  128.6733  127.8603   63.9329 H   0  0  0  0  0  0  0  0  0  0  0  0
  129.1960  123.5740   67.8370 H   0  0  0  0  0  0  0  0  0  0  0  0
  130.7440  124.2120   67.4410 H   0  0  0  0  0  0  0  0  0  0  0  0
  129.7020  123.6430   69.5610 H   0  0  0  0  0  0  0  0  0  0  0  0
  131.9719  123.6947   72.1695 H   0  0  0  0  0  0  0  0  0  0  0  0
  131.6844  121.6278   73.8580 H   0  0  0  0  0  0  0  0  0  0  0  0
  1  2  1  0
  2  3  2  0
  3  4  1  0
  4  5  1  0
  5  6  1  0
  5  7  1  0
  5  8  1  0
  4  9  2  0
  9 10  1  0
 10 11  1  0
 10 12  2  0
 12 13  1  0
 13 14  2  0
 13 15  1  0
 15 16  1  0
 16 17  1  0
 17 18  2  0
 18 19  1  0
 19 20  1  0
 12 21  1  0
 21 22  1  0
 22 23  2  0
 23  2  1  0
 22  9  1  0
 20 16  2  0
  1 24  1  0
  1 25  1  0
  1 26  1  0
  3 27  1  0
 11 28  1  0
 11 29  1  0
 15 30  1  0
 17 31  1  0
 18 32  1  0
M  END
>  <Binding energies>  (1) 
[-7.4]

>  <Ligand effiencies>  (1) 
[-0.2846153846153846]

>  <Interactions>  (1) 
["V-A:HIS:456:CD2:4068, V-B:GLU:543:CD:9880, H-B:LYS:547:NZ:9923, V-B:GLU:543:C:9874, V-B:GLU:543:CB:9878, V-A:HIS:456:CE1:4069, H-A:HIS:456:NE2:4070, V-B:HIS:456:CE1:9040, V-B:GLU:543:CG:9879, V-A:GLU:543:CD:4908, V-B:GLU:543:CA:9876, V-A:TYR:484:CZ:4347, V-A:GLU:543:CB:4906, V-A:TYR:484:CE1:4345, H-A:TYR:484:OH:4348, V-A:HIS:456:CG:4066, V-A:TYR:484:CD2:4344, V-A:TYR:484:CE2:4346, V-A:TYR:484:CD1:4343, V-A:HIS:456:CB:4065, V-A:TYR:484:CG:4342, H-B:GLU:543:O:9875, V-A:ASP:473:CG:4240, H-A:HIS:456:ND1:4067, V-A:ASP:473:CB:4239, V-A:TYR:484:CB:4341"]

$$$$
4bj_Grossjean_2025
     RDKit          3D

 32 34  0  0  0  0  0  0  0  0999 V2000
  127.7800  130.2220   65.1930 C   0  0  0  0  0  0  0  0  0  0  0  0
  128.2330  128.9370   65.8620 C   0  0  0  0  0  0  0  0  0  0  0  0
  128.5950  127.8240   65.1060 C   0  0  0  0  0  0  0  0  0  0  0  0
  129.0060  126.6400   65.7370 C   0  0  0  0  0  0  0  0  0  0  0  0
  129.3920  125.4410   64.8640 C   0  0  0  0  0  0  0  0  0  0  0  0
  128.9740  124.2760   65.3620 F   0  0  0  0  0  0  0  0  0  0  0  0
  128.8540  125.5740   63.6520 F   0  0  0  0  0  0  0  0  0  0  0  0
  130.7190  125.3740   64.7520 F   0  0  0  0  0  0  0  0  0  0  0  0
  129.0360  126.6370   67.1640 C   0  0  0  0  0  0  0  0  0  0  0  0
  129.3890  125.6320   68.1370 C   0  0  0  0  0  0  0  0  0  0  0  0
  129.7960  124.3700   67.7840 N   0  0  0  0  0  0  0  0  0  0  0  0
  129.2860  126.0620   69.4690 C   0  0  0  0  0  0  0  0  0  0  0  0
  129.5540  125.3060   70.6950 C   0  0  0  0  0  0  0  0  0  0  0  0
  129.5660  125.8680   71.7930 O   0  0  0  0  0  0  0  0  0  0  0  0
  129.7660  123.9780   70.5270 N   0  0  0  0  0  0  0  0  0  0  0  0
  130.0280  123.0430   71.5180 C   0  0  0  0  0  0  0  0  0  0  0  0
  129.3000  122.0030   71.8620 N   0  0  0  0  0  0  0  0  0  0  0  0
  129.8560  121.3240   72.8450 C   0  0  0  0  0  0  0  0  0  0  0  0
  131.0670  121.8140   73.3230 C   0  0  0  0  0  0  0  0  0  0  0  0
  131.4900  123.2450   72.4310 S   0  0  0  0  0  0  0  0  0  0  0  0
  128.7230  127.7290   69.5600 S   0  0  0  0  0  0  0  0  0  0  0  0
  128.6440  127.8450   67.8180 C   0  0  0  0  0  0  0  0  0  0  0  0
  128.2520  128.9670   67.2140 N   0  0  0  0  0  0  0  0  0  0  0  0
  127.5186  130.9635   65.9623 H   0  0  0  0  0  0  0  0  0  0  0  0
  128.5936  130.6155   64.5659 H   0  0  0  0  0  0  0  0  0  0  0  0
  126.8995  130.0183   64.5659 H   0  0  0  0  0  0  0  0  0  0  0  0
  128.5584  127.8738   64.0077 H   0  0  0  0  0  0  0  0  0  0  0  0
  129.1710  123.5770   67.8160 H   0  0  0  0  0  0  0  0  0  0  0  0
  130.7440  124.1900   67.4830 H   0  0  0  0  0  0  0  0  0  0  0  0
  129.7250  123.6180   69.5850 H   0  0  0  0  0  0  0  0  0  0  0  0
  129.3888  120.4206   73.2640 H   0  0  0  0  0  0  0  0  0  0  0  0
  131.6610  121.3681   74.1343 H   0  0  0  0  0  0  0  0  0  0  0  0
  1  2  1  0
  2  3  2  0
  3  4  1  0
  4  5  1  0
  5  6  1  0
  5  7  1  0
  5  8  1  0
  4  9  2  0
  9 10  1  0
 10 11  1  0
 10 12  2  0
 12 13  1  0
 13 14  2  0
 13 15  1  0
 15 16  1  0
 16 17  2  0
 17 18  1  0
 18 19  2  0
 19 20  1  0
 12 21  1  0
 21 22  1  0
 22 23  2  0
 23  2  1  0
 22  9  1  0
 20 16  1  0
  1 24  1  0
  1 25  1  0
  1 26  1  0
  3 27  1  0
 11 28  1  0
 11 29  1  0
 15 30  1  0
 18 31  1  0
 19 32  1  0
M  END
>  <Binding energies>  (1) 
[-6.53]

>  <Ligand effiencies>  (1) 
[-0.25115384615384617]

>  <Interactions>  (1) 
["V-A:HIS:456:CD2:4068, V-B:GLU:543:CD:9880, H-B:LYS:547:NZ:9923, V-B:GLU:543:C:9874, V-B:GLU:543:CB:9878, V-A:HIS:456:CE1:4069, H-A:HIS:456:NE2:4070, V-B:HIS:456:CE1:9040, V-B:GLU:543:CG:9879, V-A:GLU:543:CD:4908, V-B:GLU:543:CA:9876, V-A:TYR:484:CZ:4347, V-A:GLU:543:CB:4906, V-A:TYR:484:CE1:4345, H-A:TYR:484:OH:4348, V-A:HIS:456:CG:4066, V-A:TYR:484:CD2:4344, V-A:TYR:484:CE2:4346, V-A:TYR:484:CD1:4343, V-A:HIS:456:CB:4065, V-A:TYR:484:CG:4342, H-B:GLU:543:O:9875, V-B:LYS:547:CE:9922, V-A:ASP:473:CG:4240, H-A:HIS:456:ND1:4067, V-A:ASP:473:CB:4239, V-A:TYR:484:CB:4341"]

$$$$
4bk_Grossjean_2025
     RDKit          3D

 50 51  0  0  0  0  0  0  0  0999 V2000
  126.4730  119.4940   70.3870 C   0  0  0  0  0  0  0  0  0  0  0  0
  127.6300  119.5160   71.2090 O   0  0  0  0  0  0  0  0  0  0  0  0
  127.3390  119.4300   72.5980 C   0  0  0  0  0  0  0  0  0  0  0  0
  128.5950  119.7780   73.4070 C   0  0  0  0  0  0  0  0  0  0  0  0
  129.1480  120.9930   72.9210 O   0  0  0  0  0  0  0  0  0  0  0  0
  130.4670  121.2490   73.3840 C   0  0  0  0  0  0  0  0  0  0  0  0
  131.0280  122.4840   72.6680 C   0  0  0  0  0  0  0  0  0  0  0  0
  129.9570  123.2230   72.0960 O   0  0  0  0  0  0  0  0  0  0  0  0
  130.1450  124.6320   72.1370 C   0  0  0  0  0  0  0  0  0  0  0  0
  128.8590  125.3310   71.6630 C   0  0  0  0  0  0  0  0  0  0  0  0
  128.8300  125.5960   70.2230 N   0  0  0  0  0  0  0  0  0  0  0  0
  129.0750  126.7900   69.6450 C   0  0  0  0  0  0  0  0  0  0  0  0
  129.3720  127.7920   70.2990 O   0  0  0  0  0  0  0  0  0  0  0  0
  128.9760  126.8320   68.1860 C   0  0  0  0  0  0  0  0  0  0  0  0
  128.3710  128.2780   67.3810 S   0  0  0  0  0  0  0  0  0  0  0  0
  128.5950  127.5500   65.8090 C   0  0  0  0  0  0  0  0  0  0  0  0
  128.2880  128.2040   64.6890 N   0  0  0  0  0  0  0  0  0  0  0  0
  128.5070  127.5380   63.5320 C   0  0  0  0  0  0  0  0  0  0  0  0
  128.1520  128.3030   62.2700 C   0  0  0  0  0  0  0  0  0  0  0  0
  129.0200  126.2450   63.4680 C   0  0  0  0  0  0  0  0  0  0  0  0
  129.3440  125.5490   64.6440 C   0  0  0  0  0  0  0  0  0  0  0  0
  129.9030  124.1280   64.5230 C   0  0  0  0  0  0  0  0  0  0  0  0
  129.8240  123.6390   63.2830 F   0  0  0  0  0  0  0  0  0  0  0  0
  131.1880  124.1160   64.8770 F   0  0  0  0  0  0  0  0  0  0  0  0
  129.2210  123.3060   65.3190 F   0  0  0  0  0  0  0  0  0  0  0  0
  129.1270  126.2240   65.8820 C   0  0  0  0  0  0  0  0  0  0  0  0
  129.3380  125.8450   67.2570 C   0  0  0  0  0  0  0  0  0  0  0  0
  129.8450  124.6230   67.6200 N   0  0  0  0  0  0  0  0  0  0  0  0
  125.5737  119.4769   71.0202 H   0  0  0  0  0  0  0  0  0  0  0  0
  126.4573  120.3920   69.7519 H   0  0  0  0  0  0  0  0  0  0  0  0
  126.4914  118.5960   69.7519 H   0  0  0  0  0  0  0  0  0  0  0  0
  126.5343  120.1369   72.8483 H   0  0  0  0  0  0  0  0  0  0  0  0
  127.0178  118.4067   72.8423 H   0  0  0  0  0  0  0  0  0  0  0  0
  128.3276  119.8949   74.4676 H   0  0  0  0  0  0  0  0  0  0  0  0
  129.3345  118.9703   73.3029 H   0  0  0  0  0  0  0  0  0  0  0  0
  130.4462  121.4315   74.4686 H   0  0  0  0  0  0  0  0  0  0  0  0
  131.1061  120.3793   73.1714 H   0  0  0  0  0  0  0  0  0  0  0  0
  131.5651  123.1155   73.3911 H   0  0  0  0  0  0  0  0  0  0  0  0
  131.7213  122.1667   71.8751 H   0  0  0  0  0  0  0  0  0  0  0  0
  130.3734  124.9423   73.1673 H   0  0  0  0  0  0  0  0  0  0  0  0
  130.9804  124.9114   71.4782 H   0  0  0  0  0  0  0  0  0  0  0  0
  128.0017  124.6896   71.9155 H   0  0  0  0  0  0  0  0  0  0  0  0
  128.8172  126.3061   72.1704 H   0  0  0  0  0  0  0  0  0  0  0  0
  128.5920  124.8140   69.6320 H   0  0  0  0  0  0  0  0  0  0  0  0
  127.7033  129.2700   62.5414 H   0  0  0  0  0  0  0  0  0  0  0  0
  129.0624  128.4748   61.6770 H   0  0  0  0  0  0  0  0  0  0  0  0
  127.4330  127.7187   61.6770 H   0  0  0  0  0  0  0  0  0  0  0  0
  129.1725  125.7655   62.4898 H   0  0  0  0  0  0  0  0  0  0  0  0
  129.2890  123.9380   68.1130 H   0  0  0  0  0  0  0  0  0  0  0  0
  130.7970  124.3640   67.4010 H   0  0  0  0  0  0  0  0  0  0  0  0
  1  2  1  0
  2  3  1  0
  3  4  1  0
  4  5  1  0
  5  6  1  0
  6  7  1  0
  7  8  1  0
  8  9  1  0
  9 10  1  0
 10 11  1  0
 11 12  1  0
 12 13  2  0
 12 14  1  0
 14 15  1  0
 15 16  1  0
 16 17  2  0
 17 18  1  0
 18 19  1  0
 18 20  2  0
 20 21  1  0
 21 22  1  0
 22 23  1  0
 22 24  1  0
 22 25  1  0
 21 26  2  0
 26 27  1  0
 27 28  1  0
 27 14  2  0
 26 16  1  0
  1 29  1  0
  1 30  1  0
  1 31  1  0
  3 32  1  0
  3 33  1  0
  4 34  1  0
  4 35  1  0
  6 36  1  0
  6 37  1  0
  7 38  1  0
  7 39  1  0
  9 40  1  0
  9 41  1  0
 10 42  1  0
 10 43  1  0
 11 44  1  0
 19 45  1  0
 19 46  1  0
 19 47  1  0
 20 48  1  0
 28 49  1  0
 28 50  1  0
M  END
>  <Binding energies>  (1) 
[-6.41]

>  <Ligand effiencies>  (1) 
[-0.2067741935483871]

>  <Interactions>  (1) 
["H-B:HIS:456:NE2:9041, V-A:HIS:456:CD2:4068, V-B:GLU:543:CD:9880, H-B:LYS:547:NZ:9923, V-B:GLU:543:C:9874, V-B:GLU:543:CB:9878, V-A:HIS:456:CE1:4069, H-A:HIS:456:NE2:4070, V-B:HIS:456:CE1:9040, V-B:GLU:543:CG:9879, V-A:GLU:543:CD:4908, V-B:ALA:541:CB:9864, V-B:GLU:543:CA:9876, V-A:TYR:484:CZ:4347, V-A:TYR:484:CE1:4345, H-A:TYR:484:OH:4348, V-A:HIS:456:CG:4066, V-A:TYR:484:CD2:4344, V-A:TYR:484:CE2:4346, V-A:TYR:484:CG:4342, H-B:GLU:543:O:9875, V-B:LYS:547:CE:9922, V-A:ASP:473:CG:4240, V-B:GLY:544:CA:9886, H-A:HIS:456:ND1:4067, V-A:ASP:473:CB:4239, V-A:TYR:484:CB:4341, V-B:VAL:542:CG1:9871, V-B:VAL:542:C:9866, H-A:TYR:484:N:4340, H-A:SER:483:OG:4334"]

$$$$
4ca_Grossjean_2025
     RDKit          3D

 52 55  0  0  0  0  0  0  0  0999 V2000
  133.7130  126.6200   74.4750 C   0  0  0  0  0  0  0  0  0  0  0  0
  132.4280  125.9210   74.9280 C   0  0  0  0  0  0  0  0  0  0  0  0
  131.3060  126.7240   74.5820 O   0  0  0  0  0  0  0  0  0  0  0  0
  130.1130  126.1610   74.2600 C   0  0  0  0  0  0  0  0  0  0  0  0
  129.4150  125.5380   75.0660 O   0  0  0  0  0  0  0  0  0  0  0  0
  129.7260  126.3750   72.8250 C   0  0  0  0  0  0  0  0  0  0  0  0
  129.7270  127.6750   72.3030 C   0  0  0  0  0  0  0  0  0  0  0  0
  129.3770  127.9040   70.9750 C   0  0  0  0  0  0  0  0  0  0  0  0
  129.0120  126.8440   70.1460 C   0  0  0  0  0  0  0  0  0  0  0  0
  128.6860  127.1880   68.8200 N   0  0  0  0  0  0  0  0  0  0  0  0
  129.3560  127.9590   67.9280 C   0  0  0  0  0  0  0  0  0  0  0  0
  130.4540  128.4720   68.1460 O   0  0  0  0  0  0  0  0  0  0  0  0
  128.6920  128.1410   66.6350 C   0  0  0  0  0  0  0  0  0  0  0  0
  127.3520  129.2750   66.4810 S   0  0  0  0  0  0  0  0  0  0  0  0
  127.2040  128.9360   64.7730 C   0  0  0  0  0  0  0  0  0  0  0  0
  126.2860  129.5400   64.0220 N   0  0  0  0  0  0  0  0  0  0  0  0
  126.2560  129.2240   62.7020 C   0  0  0  0  0  0  0  0  0  0  0  0
  125.2160  129.9300   61.8810 C   0  0  0  0  0  0  0  0  0  0  0  0
  124.0700  130.4730   62.4830 C   0  0  0  0  0  0  0  0  0  0  0  0
  123.0990  131.1240   61.7260 C   0  0  0  0  0  0  0  0  0  0  0  0
  123.2620  131.2420   60.3490 C   0  0  0  0  0  0  0  0  0  0  0  0
  124.3860  130.7110   59.7260 C   0  0  0  0  0  0  0  0  0  0  0  0
  125.3540  130.0610   60.4870 C   0  0  0  0  0  0  0  0  0  0  0  0
  127.1320  128.2850   62.1470 C   0  0  0  0  0  0  0  0  0  0  0  0
  128.1000  127.6390   62.9300 C   0  0  0  0  0  0  0  0  0  0  0  0
  129.0300  126.6230   62.2560 C   0  0  0  0  0  0  0  0  0  0  0  0
  130.3140  126.9850   62.2920 F   0  0  0  0  0  0  0  0  0  0  0  0
  128.9320  125.4440   62.8690 F   0  0  0  0  0  0  0  0  0  0  0  0
  128.6920  126.4830   60.9740 F   0  0  0  0  0  0  0  0  0  0  0  0
  128.1520  127.9760   64.3130 C   0  0  0  0  0  0  0  0  0  0  0  0
  128.9930  127.5400   65.4010 C   0  0  0  0  0  0  0  0  0  0  0  0
  129.9950  126.6180   65.2400 N   0  0  0  0  0  0  0  0  0  0  0  0
  129.0130  125.5380   70.6580 C   0  0  0  0  0  0  0  0  0  0  0  0
  129.3660  125.3100   71.9860 C   0  0  0  0  0  0  0  0  0  0  0  0
  134.2902  126.9340   75.3572 H   0  0  0  0  0  0  0  0  0  0  0  0
  134.3151  125.9251   73.8712 H   0  0  0  0  0  0  0  0  0  0  0  0
  133.4568  127.5030   73.8712 H   0  0  0  0  0  0  0  0  0  0  0  0
  132.3470  124.9434   74.4303 H   0  0  0  0  0  0  0  0  0  0  0  0
  132.4536  125.7756   76.0181 H   0  0  0  0  0  0  0  0  0  0  0  0
  130.0065  128.5215   72.9474 H   0  0  0  0  0  0  0  0  0  0  0  0
  129.3885  128.9293   70.5767 H   0  0  0  0  0  0  0  0  0  0  0  0
  127.8230  126.7830   68.4890 H   0  0  0  0  0  0  0  0  0  0  0  0
  123.9366  130.3828   63.5712 H   0  0  0  0  0  0  0  0  0  0  0  0
  122.2070  131.5431   62.2145 H   0  0  0  0  0  0  0  0  0  0  0  0
  122.4973  131.7583   59.7500 H   0  0  0  0  0  0  0  0  0  0  0  0
  124.5099  130.8040   58.6370 H   0  0  0  0  0  0  0  0  0  0  0  0
  126.2417  129.6428   59.9899 H   0  0  0  0  0  0  0  0  0  0  0  0
  127.0602  128.0486   61.0751 H   0  0  0  0  0  0  0  0  0  0  0  0
  129.9060  125.6680   65.5730 H   0  0  0  0  0  0  0  0  0  0  0  0
  130.8610  126.8570   64.7760 H   0  0  0  0  0  0  0  0  0  0  0  0
  128.7349  124.6935   70.0104 H   0  0  0  0  0  0  0  0  0  0  0  0
  129.3624  124.2835   72.3812 H   0  0  0  0  0  0  0  0  0  0  0  0
  1  2  1  0
  2  3  1  0
  3  4  1  0
  4  5  2  0
  4  6  1  0
  6  7  2  0
  7  8  1  0
  8  9  2  0
  9 10  1  0
 10 11  1  0
 11 12  2  0
 11 13  1  0
 13 14  1  0
 14 15  1  0
 15 16  2  0
 16 17  1  0
 17 18  1  0
 18 19  2  0
 19 20  1  0
 20 21  2  0
 21 22  1  0
 22 23  2  0
 17 24  2  0
 24 25  1  0
 25 26  1  0
 26 27  1  0
 26 28  1  0
 26 29  1  0
 25 30  2  0
 30 31  1  0
 31 32  1  0
  9 33  1  0
 33 34  2  0
 34  6  1  0
 31 13  2  0
 30 15  1  0
 23 18  1  0
  1 35  1  0
  1 36  1  0
  1 37  1  0
  2 38  1  0
  2 39  1  0
  7 40  1  0
  8 41  1  0
 10 42  1  0
 19 43  1  0
 20 44  1  0
 21 45  1  0
 22 46  1  0
 23 47  1  0
 24 48  1  0
 32 49  1  0
 32 50  1  0
 33 51  1  0
 34 52  1  0
M  END
>  <Binding energies>  (1) 
[-7.51]

>  <Ligand effiencies>  (1) 
[-0.20297297297297295]

>  <Interactions>  (1) 
["V-A:HIS:456:CD2:4068, V-B:GLU:543:CD:9880, H-B:LYS:547:NZ:9923, H-A:LYS:547:NZ:4951, V-B:HIS:456:CD2:9039, V-A:HIS:456:CE1:4069, V-B:ARG:545:CZ:9898, H-A:GLU:543:OE1:4909, H-A:HIS:456:NE2:4070, V-B:HIS:456:CE1:9040, V-B:GLU:543:CG:9879, H-A:GLU:543:OE2:4910, V-A:GLU:543:CG:4907, V-A:GLU:543:CD:4908, V-B:ILE:369:CB:8207, V-B:ASP:366:CG:8184, V-B:ASP:366:CA:8181, V-B:ASP:366:CB:8183, V-B:ILE:369:CD1:8210, V-B:ILE:369:CG2:8208, V-A:GLU:543:CB:4906, V-A:HIS:456:CG:4066, V-A:HIS:456:CB:4065, V-A:LYS:547:CE:4950, H-B:GLU:543:O:9875, V-A:VAL:458:CG2:4087, V-A:LYS:547:CD:4949"]

$$$$
4cb_Grossjean_2025
     RDKit          3D

 49 52  0  0  0  0  0  0  0  0999 V2000
  132.5190  126.2730   74.5100 C   0  0  0  0  0  0  0  0  0  0  0  0
  131.2490  126.9040   74.6000 O   0  0  0  0  0  0  0  0  0  0  0  0
  130.1150  126.2430   74.2550 C   0  0  0  0  0  0  0  0  0  0  0  0
  129.4680  125.5430   75.0410 O   0  0  0  0  0  0  0  0  0  0  0  0
  129.7210  126.4490   72.8200 C   0  0  0  0  0  0  0  0  0  0  0  0
  129.7220  127.7450   72.2890 C   0  0  0  0  0  0  0  0  0  0  0  0
  129.3700  127.9670   70.9610 C   0  0  0  0  0  0  0  0  0  0  0  0
  129.0040  126.9010   70.1390 C   0  0  0  0  0  0  0  0  0  0  0  0
  128.6810  127.2380   68.8100 N   0  0  0  0  0  0  0  0  0  0  0  0
  129.3620  127.9900   67.9100 C   0  0  0  0  0  0  0  0  0  0  0  0
  130.4670  128.4900   68.1220 O   0  0  0  0  0  0  0  0  0  0  0  0
  128.6980  128.1690   66.6160 C   0  0  0  0  0  0  0  0  0  0  0  0
  127.3840  129.3300   66.4460 S   0  0  0  0  0  0  0  0  0  0  0  0
  127.2230  128.9690   64.7430 C   0  0  0  0  0  0  0  0  0  0  0  0
  126.3180  129.5820   63.9850 N   0  0  0  0  0  0  0  0  0  0  0  0
  126.2750  129.2430   62.6700 C   0  0  0  0  0  0  0  0  0  0  0  0
  125.2470  129.9550   61.8400 C   0  0  0  0  0  0  0  0  0  0  0  0
  124.0840  130.4760   62.4290 C   0  0  0  0  0  0  0  0  0  0  0  0
  123.1240  131.1340   61.6640 C   0  0  0  0  0  0  0  0  0  0  0  0
  123.3150  131.2810   60.2940 C   0  0  0  0  0  0  0  0  0  0  0  0
  124.4570  130.7710   59.6840 C   0  0  0  0  0  0  0  0  0  0  0  0
  125.4130  130.1130   60.4530 C   0  0  0  0  0  0  0  0  0  0  0  0
  127.1280  128.2750   62.1290 C   0  0  0  0  0  0  0  0  0  0  0  0
  128.0850  127.6210   62.9210 C   0  0  0  0  0  0  0  0  0  0  0  0
  128.9890  126.5710   62.2630 C   0  0  0  0  0  0  0  0  0  0  0  0
  128.9200  125.3770   62.8550 F   0  0  0  0  0  0  0  0  0  0  0  0
  128.6340  126.4060   60.9890 F   0  0  0  0  0  0  0  0  0  0  0  0
  130.2590  126.9710   62.3180 F   0  0  0  0  0  0  0  0  0  0  0  0
  128.1490  127.9810   64.2980 C   0  0  0  0  0  0  0  0  0  0  0  0
  128.9840  127.5440   65.3900 C   0  0  0  0  0  0  0  0  0  0  0  0
  129.9680  126.6010   65.2400 N   0  0  0  0  0  0  0  0  0  0  0  0
  129.0030  125.5990   70.6610 C   0  0  0  0  0  0  0  0  0  0  0  0
  129.3570  125.3790   71.9890 C   0  0  0  0  0  0  0  0  0  0  0  0
  132.9055  126.0810   75.5218 H   0  0  0  0  0  0  0  0  0  0  0  0
  132.4177  125.3205   73.9693 H   0  0  0  0  0  0  0  0  0  0  0  0
  133.2169  126.9291   73.9693 H   0  0  0  0  0  0  0  0  0  0  0  0
  130.0036  128.5953   72.9275 H   0  0  0  0  0  0  0  0  0  0  0  0
  129.3805  128.9900   70.5568 H   0  0  0  0  0  0  0  0  0  0  0  0
  127.8100  126.8440   68.4850 H   0  0  0  0  0  0  0  0  0  0  0  0
  123.9285  130.3627   63.5120 H   0  0  0  0  0  0  0  0  0  0  0  0
  122.2182  131.5359   62.1414 H   0  0  0  0  0  0  0  0  0  0  0  0
  122.5590  131.8034   59.6894 H   0  0  0  0  0  0  0  0  0  0  0  0
  124.6036  130.8871   58.6000 H   0  0  0  0  0  0  0  0  0  0  0  0
  126.3137  129.7098   59.9670 H   0  0  0  0  0  0  0  0  0  0  0  0
  127.0472  128.0213   61.0617 H   0  0  0  0  0  0  0  0  0  0  0  0
  130.8520  126.8170   64.8010 H   0  0  0  0  0  0  0  0  0  0  0  0
  129.8430  125.6530   65.5670 H   0  0  0  0  0  0  0  0  0  0  0  0
  128.7220  124.7505   70.0198 H   0  0  0  0  0  0  0  0  0  0  0  0
  129.3513  124.3552   72.3912 H   0  0  0  0  0  0  0  0  0  0  0  0
  1  2  1  0
  2  3  1  0
  3  4  2  0
  3  5  1  0
  5  6  2  0
  6  7  1  0
  7  8  2  0
  8  9  1  0
  9 10  1  0
 10 11  2  0
 10 12  1  0
 12 13  1  0
 13 14  1  0
 14 15  2  0
 15 16  1  0
 16 17  1  0
 17 18  2  0
 18 19  1  0
 19 20  2  0
 20 21  1  0
 21 22  2  0
 16 23  2  0
 23 24  1  0
 24 25  1  0
 25 26  1  0
 25 27  1  0
 25 28  1  0
 24 29  2  0
 29 30  1  0
 30 31  1  0
  8 32  1  0
 32 33  2  0
 33  5  1  0
 30 12  2  0
 29 14  1  0
 22 17  1  0
  1 34  1  0
  1 35  1  0
  1 36  1  0
  6 37  1  0
  7 38  1  0
  9 39  1  0
 18 40  1  0
 19 41  1  0
 20 42  1  0
 21 43  1  0
 22 44  1  0
 23 45  1  0
 31 46  1  0
 31 47  1  0
 32 48  1  0
 33 49  1  0
M  END
>  <Binding energies>  (1) 
[-7.29]

>  <Ligand effiencies>  (1) 
[-0.2025]

>  <Interactions>  (1) 
["V-A:HIS:456:CD2:4068, V-B:GLU:543:CD:9880, H-B:LYS:547:NZ:9923, H-A:LYS:547:NZ:4951, V-B:HIS:456:CD2:9039, V-A:HIS:456:CE1:4069, V-B:ARG:545:CZ:9898, H-A:GLU:543:OE1:4909, H-A:HIS:456:NE2:4070, V-B:HIS:456:CE1:9040, V-B:GLU:543:CG:9879, H-A:GLU:543:OE2:4910, V-A:GLU:543:CG:4907, V-A:GLU:543:CD:4908, V-B:ILE:369:CB:8207, V-B:ASP:366:CG:8184, V-B:ASP:366:CA:8181, V-B:ASP:366:CB:8183, V-B:ILE:369:CD1:8210, V-B:ILE:369:CG2:8208, V-A:GLU:543:CB:4906, V-B:TYR:484:CZ:9318, V-A:HIS:456:CB:4065, V-A:LYS:547:CE:4950, H-B:GLU:543:O:9875, V-A:LYS:547:CD:4949"]

$$$$
4cc_Grossjean_2025
     RDKit          3D

 47 50  0  0  0  0  0  0  0  0999 V2000
  127.2300  126.9360   74.2410 C   0  0  0  0  0  0  0  0  0  0  0  0
  128.2420  126.0840   73.7150 O   0  0  0  0  0  0  0  0  0  0  0  0
  128.4450  126.0410   72.3500 C   0  0  0  0  0  0  0  0  0  0  0  0
  129.2550  125.0110   71.8730 C   0  0  0  0  0  0  0  0  0  0  0  0
  129.5150  124.8850   70.5110 C   0  0  0  0  0  0  0  0  0  0  0  0
  128.9740  125.7990   69.6050 C   0  0  0  0  0  0  0  0  0  0  0  0
  129.2790  125.5830   68.2480 N   0  0  0  0  0  0  0  0  0  0  0  0
  129.8970  126.4060   67.3670 C   0  0  0  0  0  0  0  0  0  0  0  0
  130.3420  127.5170   67.6580 O   0  0  0  0  0  0  0  0  0  0  0  0
  130.0160  125.8890   66.0000 C   0  0  0  0  0  0  0  0  0  0  0  0
  128.5830  125.7140   64.9890 S   0  0  0  0  0  0  0  0  0  0  0  0
  129.5410  125.1070   63.6590 C   0  0  0  0  0  0  0  0  0  0  0  0
  128.9820  124.7640   62.5010 N   0  0  0  0  0  0  0  0  0  0  0  0
  129.8080  124.3110   61.5220 C   0  0  0  0  0  0  0  0  0  0  0  0
  129.1500  123.9300   60.2280 C   0  0  0  0  0  0  0  0  0  0  0  0
  129.4390  124.6250   59.0430 C   0  0  0  0  0  0  0  0  0  0  0  0
  128.8310  124.2780   57.8390 C   0  0  0  0  0  0  0  0  0  0  0  0
  127.9210  123.2270   57.8040 C   0  0  0  0  0  0  0  0  0  0  0  0
  127.6140  122.5230   58.9640 C   0  0  0  0  0  0  0  0  0  0  0  0
  128.2240  122.8740   60.1660 C   0  0  0  0  0  0  0  0  0  0  0  0
  131.1880  124.1900   61.7180 C   0  0  0  0  0  0  0  0  0  0  0  0
  131.7870  124.5470   62.9360 C   0  0  0  0  0  0  0  0  0  0  0  0
  133.3050  124.3940   63.0790 C   0  0  0  0  0  0  0  0  0  0  0  0
  133.8860  125.4430   63.6670 F   0  0  0  0  0  0  0  0  0  0  0  0
  133.5830  123.3200   63.8180 F   0  0  0  0  0  0  0  0  0  0  0  0
  133.8600  124.2540   61.8750 F   0  0  0  0  0  0  0  0  0  0  0  0
  130.9310  125.0310   63.9660 C   0  0  0  0  0  0  0  0  0  0  0  0
  131.1720  125.4820   65.3150 C   0  0  0  0  0  0  0  0  0  0  0  0
  132.4250  125.5110   65.8740 N   0  0  0  0  0  0  0  0  0  0  0  0
  128.1480  126.8310   70.0750 C   0  0  0  0  0  0  0  0  0  0  0  0
  127.8900  126.9520   71.4380 C   0  0  0  0  0  0  0  0  0  0  0  0
  127.2625  126.9087   75.3402 H   0  0  0  0  0  0  0  0  0  0  0  0
  127.4012  127.9659   73.8946 H   0  0  0  0  0  0  0  0  0  0  0  0
  126.2443  126.5918   73.8946 H   0  0  0  0  0  0  0  0  0  0  0  0
  129.6929  124.2909   72.5798 H   0  0  0  0  0  0  0  0  0  0  0  0
  130.1487  124.0626   70.1476 H   0  0  0  0  0  0  0  0  0  0  0  0
  129.0200  124.6710   67.9010 H   0  0  0  0  0  0  0  0  0  0  0  0
  130.1576  125.4575   59.0658 H   0  0  0  0  0  0  0  0  0  0  0  0
  129.0696  124.8329   56.9197 H   0  0  0  0  0  0  0  0  0  0  0  0
  127.4411  122.9507   56.8535 H   0  0  0  0  0  0  0  0  0  0  0  0
  126.8928  121.6930   58.9321 H   0  0  0  0  0  0  0  0  0  0  0  0
  127.9773  122.3161   61.0813 H   0  0  0  0  0  0  0  0  0  0  0  0
  131.8166  123.8071   60.9005 H   0  0  0  0  0  0  0  0  0  0  0  0
  132.9820  126.3530   65.8940 H   0  0  0  0  0  0  0  0  0  0  0  0
  132.8360  124.6840   66.2840 H   0  0  0  0  0  0  0  0  0  0  0  0
  127.7037  127.5452   69.3661 H   0  0  0  0  0  0  0  0  0  0  0  0
  127.2471  127.7668   71.8022 H   0  0  0  0  0  0  0  0  0  0  0  0
  1  2  1  0
  2  3  1  0
  3  4  2  0
  4  5  1  0
  5  6  2  0
  6  7  1  0
  7  8  1  0
  8  9  2  0
  8 10  1  0
 10 11  1  0
 11 12  1  0
 12 13  2  0
 13 14  1  0
 14 15  1  0
 15 16  2  0
 16 17  1  0
 17 18  2  0
 18 19  1  0
 19 20  2  0
 14 21  2  0
 21 22  1  0
 22 23  1  0
 23 24  1  0
 23 25  1  0
 23 26  1  0
 22 27  2  0
 27 28  1  0
 28 29  1  0
  6 30  1  0
 30 31  2  0
 31  3  1  0
 28 10  2  0
 27 12  1  0
 20 15  1  0
  1 32  1  0
  1 33  1  0
  1 34  1  0
  4 35  1  0
  5 36  1  0
  7 37  1  0
 16 38  1  0
 17 39  1  0
 18 40  1  0
 19 41  1  0
 20 42  1  0
 21 43  1  0
 29 44  1  0
 29 45  1  0
 30 46  1  0
 31 47  1  0
M  END
>  <Binding energies>  (1) 
[-6.91]

>  <Ligand effiencies>  (1) 
[-0.20323529411764707]

>  <Interactions>  (1) 
["V-A:HIS:456:CD2:4068, V-B:GLU:543:CD:9880, H-B:LYS:547:NZ:9923, V-B:GLU:543:C:9874, V-B:GLU:543:CB:9878, V-A:HIS:456:CE1:4069, H-A:HIS:456:NE2:4070, V-B:HIS:456:CE1:9040, V-B:GLU:543:CG:9879, H-A:GLU:543:OE2:4910, V-A:ARG:545:CZ:4926, V-A:GLY:453:CA:4044, H-A:TYR:484:OH:4348, V-A:GLY:453:C:4042, V-A:GLY:454:CA:4049, V-A:ASP:366:CG:3213, V-B:TYR:539:CE2:9848, V-B:PRO:540:CA:9855, V-B:TYR:539:CD2:9846, V-B:PRO:540:N:9856, V-B:TYR:539:C:9839, V-B:LYS:547:CD:9921, V-B:TYR:539:CZ:9849, H-B:GLU:543:O:9875, H-A:HIS:456:ND1:4067"]

$$$$
4cd_Grossjean_2025
     RDKit          3D

 43 46  0  0  0  0  0  0  0  0999 V2000
  129.6820  124.2260   66.9710 N   0  0  0  0  0  0  0  0  0  0  0  0
  129.4580  124.9240   65.8110 C   0  0  0  0  0  0  0  0  0  0  0  0
  129.7380  124.4070   64.5360 C   0  0  0  0  0  0  0  0  0  0  0  0
  130.3110  123.1040   64.1830 C   0  0  0  0  0  0  0  0  0  0  0  0
  130.7020  122.3330   65.0600 O   0  0  0  0  0  0  0  0  0  0  0  0
  130.3610  122.8310   62.8570 N   0  0  0  0  0  0  0  0  0  0  0  0
  130.8890  121.7100   62.1910 C   0  0  0  0  0  0  0  0  0  0  0  0
  132.2680  121.7270   61.9630 C   0  0  0  0  0  0  0  0  0  0  0  0
  132.8880  120.6570   61.3240 C   0  0  0  0  0  0  0  0  0  0  0  0
  132.1290  119.5630   60.9180 C   0  0  0  0  0  0  0  0  0  0  0  0
  130.7560  119.5270   61.1500 C   0  0  0  0  0  0  0  0  0  0  0  0
  130.1330  120.5960   61.7890 C   0  0  0  0  0  0  0  0  0  0  0  0
  129.3200  125.5650   63.2750 S   0  0  0  0  0  0  0  0  0  0  0  0
  128.7840  126.7310   64.4600 C   0  0  0  0  0  0  0  0  0  0  0  0
  128.3150  127.9230   64.0990 N   0  0  0  0  0  0  0  0  0  0  0  0
  127.9350  128.7680   65.0930 C   0  0  0  0  0  0  0  0  0  0  0  0
  127.4120  130.1060   64.6560 C   0  0  0  0  0  0  0  0  0  0  0  0
  126.1070  130.2370   64.1520 C   0  0  0  0  0  0  0  0  0  0  0  0
  125.6160  131.4750   63.7450 C   0  0  0  0  0  0  0  0  0  0  0  0
  126.4250  132.6020   63.8370 C   0  0  0  0  0  0  0  0  0  0  0  0
  127.7190  132.5000   64.3350 C   0  0  0  0  0  0  0  0  0  0  0  0
  128.2060  131.2620   64.7420 C   0  0  0  0  0  0  0  0  0  0  0  0
  128.0100  128.4050   66.4410 C   0  0  0  0  0  0  0  0  0  0  0  0
  128.5000  127.1490   66.8320 C   0  0  0  0  0  0  0  0  0  0  0  0
  128.5590  126.8170   68.3280 C   0  0  0  0  0  0  0  0  0  0  0  0
  129.6100  126.0620   68.6570 F   0  0  0  0  0  0  0  0  0  0  0  0
  128.6390  127.9430   69.0370 F   0  0  0  0  0  0  0  0  0  0  0  0
  127.4620  126.1500   68.6850 F   0  0  0  0  0  0  0  0  0  0  0  0
  128.9130  126.2600   65.8000 C   0  0  0  0  0  0  0  0  0  0  0  0
  129.0510  124.2810   67.7570 H   0  0  0  0  0  0  0  0  0  0  0  0
  130.4880  123.6260   67.0760 H   0  0  0  0  0  0  0  0  0  0  0  0
  129.9480  123.5210   62.2450 H   0  0  0  0  0  0  0  0  0  0  0  0
  132.8662  122.5902   62.2902 H   0  0  0  0  0  0  0  0  0  0  0  0
  133.9725  120.6758   61.1408 H   0  0  0  0  0  0  0  0  0  0  0  0
  132.6180  118.7192   60.4093 H   0  0  0  0  0  0  0  0  0  0  0  0
  130.1653  118.6563   60.8292 H   0  0  0  0  0  0  0  0  0  0  0  0
  129.0499  120.5683   61.9789 H   0  0  0  0  0  0  0  0  0  0  0  0
  125.4633  129.3481   64.0778 H   0  0  0  0  0  0  0  0  0  0  0  0
  124.5921  131.5609   63.3523 H   0  0  0  0  0  0  0  0  0  0  0  0
  126.0390  133.5800   63.5139 H   0  0  0  0  0  0  0  0  0  0  0  0
  128.3552  133.3945   64.4069 H   0  0  0  0  0  0  0  0  0  0  0  0
  129.2296  131.1869   65.1377 H   0  0  0  0  0  0  0  0  0  0  0  0
  127.6785  129.1177   67.2105 H   0  0  0  0  0  0  0  0  0  0  0  0
  1  2  1  0
  2  3  2  0
  3  4  1  0
  4  5  2  0
  4  6  1  0
  6  7  1  0
  7  8  2  0
  8  9  1  0
  9 10  2  0
 10 11  1  0
 11 12  2  0
  3 13  1  0
 13 14  1  0
 14 15  2  0
 15 16  1  0
 16 17  1  0
 17 18  2  0
 18 19  1  0
 19 20  2  0
 20 21  1  0
 21 22  2  0
 16 23  2  0
 23 24  1  0
 24 25  1  0
 25 26  1  0
 25 27  1  0
 25 28  1  0
 24 29  2  0
 29  2  1  0
 12  7  1  0
 29 14  1  0
 22 17  1  0
  1 30  1  0
  1 31  1  0
  6 32  1  0
  8 33  1  0
  9 34  1  0
 10 35  1  0
 11 36  1  0
 12 37  1  0
 18 38  1  0
 19 39  1  0
 20 40  1  0
 21 41  1  0
 22 42  1  0
 23 43  1  0
M  END
>  <Binding energies>  (1) 
[-7.07]

>  <Ligand effiencies>  (1) 
[-0.2209375]

>  <Interactions>  (1) 
["V-A:HIS:456:CD2:4068, V-B:GLU:543:CD:9880, V-B:GLU:543:C:9874, V-B:GLU:543:CB:9878, V-A:HIS:456:CE1:4069, V-B:HIS:456:CE1:9040, V-B:GLU:543:CG:9879, V-A:GLU:543:CD:4908, V-B:LEU:475:CD1:9229, V-A:ALA:541:CB:4892, V-B:ALA:541:CB:9864, V-B:GLU:543:CA:9876, V-A:TYR:484:CZ:4347, V-A:LEU:475:CD1:4258, V-A:GLU:543:CB:4906, V-A:TYR:484:CE1:4345, H-A:TYR:484:OH:4348, V-B:TYR:539:CD2:9846, V-A:PRO:482:CG:4327, V-A:TRP:381:CZ2:3370, V-A:TRP:381:CH2:3372, V-A:PRO:482:CB:4326, V-B:GLY:544:C:9884, V-B:LEU:475:CG:9228, H-B:GLU:543:O:9875"]

$$$$
4ce_Grossjean_2025
     RDKit          3D

 45 48  0  0  0  0  0  0  0  0999 V2000
  128.5670  119.7290   73.3710 C   0  0  0  0  0  0  0  0  0  0  0  0
  129.4880  120.8880   73.0420 C   0  0  0  0  0  0  0  0  0  0  0  0
  130.7200  121.0460   73.6830 C   0  0  0  0  0  0  0  0  0  0  0  0
  131.5200  122.1320   73.3250 C   0  0  0  0  0  0  0  0  0  0  0  0
  131.0770  123.0220   72.3450 C   0  0  0  0  0  0  0  0  0  0  0  0
  129.8290  122.8080   71.7470 C   0  0  0  0  0  0  0  0  0  0  0  0
  129.4480  123.7250   70.7510 N   0  0  0  0  0  0  0  0  0  0  0  0
  129.1940  125.0520   70.8710 C   0  0  0  0  0  0  0  0  0  0  0  0
  129.2840  125.6730   71.9310 O   0  0  0  0  0  0  0  0  0  0  0  0
  128.7950  125.7310   69.6360 C   0  0  0  0  0  0  0  0  0  0  0  0
  127.5300  126.9570   69.6660 S   0  0  0  0  0  0  0  0  0  0  0  0
  127.7090  127.2480   67.9530 C   0  0  0  0  0  0  0  0  0  0  0  0
  126.9650  128.1530   67.3220 N   0  0  0  0  0  0  0  0  0  0  0  0
  127.1860  128.3200   65.9910 C   0  0  0  0  0  0  0  0  0  0  0  0
  126.3350  129.3510   65.3100 C   0  0  0  0  0  0  0  0  0  0  0  0
  124.9450  129.3760   65.5080 C   0  0  0  0  0  0  0  0  0  0  0  0
  124.1480  130.3260   64.8740 C   0  0  0  0  0  0  0  0  0  0  0  0
  124.7320  131.2670   64.0330 C   0  0  0  0  0  0  0  0  0  0  0  0
  126.1060  131.2630   63.8190 C   0  0  0  0  0  0  0  0  0  0  0  0
  126.9000  130.3100   64.4530 C   0  0  0  0  0  0  0  0  0  0  0  0
  128.1370  127.5630   65.2980 C   0  0  0  0  0  0  0  0  0  0  0  0
  128.9230  126.6020   65.9540 C   0  0  0  0  0  0  0  0  0  0  0  0
  129.9480  125.8100   65.1350 C   0  0  0  0  0  0  0  0  0  0  0  0
  131.1830  125.8780   65.6340 F   0  0  0  0  0  0  0  0  0  0  0  0
  129.6010  124.5220   65.1030 F   0  0  0  0  0  0  0  0  0  0  0  0
  129.9930  126.2840   63.8900 F   0  0  0  0  0  0  0  0  0  0  0  0
  128.7110  126.4300   67.3520 C   0  0  0  0  0  0  0  0  0  0  0  0
  129.3150  125.5690   68.3400 C   0  0  0  0  0  0  0  0  0  0  0  0
  130.3090  124.6760   68.0370 N   0  0  0  0  0  0  0  0  0  0  0  0
  129.0430  121.7460   72.0890 N   0  0  0  0  0  0  0  0  0  0  0  0
  128.4843  119.6249   74.4629 H   0  0  0  0  0  0  0  0  0  0  0  0
  127.5712  119.9195   72.9444 H   0  0  0  0  0  0  0  0  0  0  0  0
  128.9775  118.8019   72.9444 H   0  0  0  0  0  0  0  0  0  0  0  0
  131.0510  120.3316   74.4511 H   0  0  0  0  0  0  0  0  0  0  0  0
  132.4941  122.2858   73.8123 H   0  0  0  0  0  0  0  0  0  0  0  0
  131.6991  123.8788   72.0469 H   0  0  0  0  0  0  0  0  0  0  0  0
  129.3980  123.3390   69.8190 H   0  0  0  0  0  0  0  0  0  0  0  0
  124.4789  128.6345   66.1735 H   0  0  0  0  0  0  0  0  0  0  0  0
  123.0603  130.3320   65.0379 H   0  0  0  0  0  0  0  0  0  0  0  0
  124.1032  132.0191   63.5340 H   0  0  0  0  0  0  0  0  0  0  0  0
  126.5637  132.0087   63.1523 H   0  0  0  0  0  0  0  0  0  0  0  0
  127.9863  130.3084   64.2799 H   0  0  0  0  0  0  0  0  0  0  0  0
  128.2715  127.7238   64.2182 H   0  0  0  0  0  0  0  0  0  0  0  0
  130.9010  124.2710   68.7490 H   0  0  0  0  0  0  0  0  0  0  0  0
  130.4880  124.3910   67.0830 H   0  0  0  0  0  0  0  0  0  0  0  0
  1  2  1  0
  2  3  2  0
  3  4  1  0
  4  5  2  0
  5  6  1  0
  6  7  1  0
  7  8  1  0
  8  9  2  0
  8 10  1  0
 10 11  1  0
 11 12  1  0
 12 13  2  0
 13 14  1  0
 14 15  1  0
 15 16  2  0
 16 17  1  0
 17 18  2  0
 18 19  1  0
 19 20  2  0
 14 21  2  0
 21 22  1  0
 22 23  1  0
 23 24  1  0
 23 25  1  0
 23 26  1  0
 22 27  2  0
 27 28  1  0
 28 29  1  0
  6 30  2  0
 30  2  1  0
 28 10  2  0
 27 12  1  0
 20 15  1  0
  1 31  1  0
  1 32  1  0
  1 33  1  0
  3 34  1  0
  4 35  1  0
  5 36  1  0
  7 37  1  0
 16 38  1  0
 17 39  1  0
 18 40  1  0
 19 41  1  0
 20 42  1  0
 21 43  1  0
 29 44  1  0
 29 45  1  0
M  END
>  <Binding energies>  (1) 
[-8.14]

>  <Ligand effiencies>  (1) 
[-0.24666666666666667]

>  <Interactions>  (1) 
["V-A:HIS:456:CD2:4068, V-B:GLU:543:CD:9880, H-B:LYS:547:NZ:9923, V-B:GLU:543:C:9874, V-B:GLU:543:CB:9878, V-A:HIS:456:CE1:4069, V-B:ARG:545:CZ:9898, V-B:ARG:545:CD:9895, V-B:HIS:456:CE1:9040, V-B:GLU:543:CG:9879, V-A:GLU:543:CD:4908, V-B:GLY:454:CA:9020, V-A:TYR:484:CZ:4347, V-A:TYR:484:CE1:4345, H-A:TYR:484:OH:4348, V-B:GLY:544:C:9884, V-A:HIS:456:CG:4066, V-A:TYR:484:CD2:4344, V-A:TYR:484:CE2:4346, V-A:TYR:484:CD1:4343, V-A:HIS:456:CB:4065, V-A:TYR:484:CG:4342, H-B:GLU:543:O:9875, V-B:LYS:547:CE:9922, V-A:ASP:473:CG:4240, H-A:HIS:456:ND1:4067, V-A:ASP:473:CB:4239, V-A:TYR:484:CB:4341"]

$$$$
4cf_Grossjean_2025
     RDKit          3D

 42 45  0  0  0  0  0  0  0  0999 V2000
  129.7950  124.3930   67.5290 N   0  0  0  0  0  0  0  0  0  0  0  0
  129.3520  125.6660   67.7840 C   0  0  0  0  0  0  0  0  0  0  0  0
  129.2230  126.1900   69.0810 C   0  0  0  0  0  0  0  0  0  0  0  0
  129.4780  125.5280   70.3640 C   0  0  0  0  0  0  0  0  0  0  0  0
  129.4510  126.1690   71.4160 O   0  0  0  0  0  0  0  0  0  0  0  0
  129.7230  124.1980   70.2920 N   0  0  0  0  0  0  0  0  0  0  0  0
  130.0500  123.2880   71.3160 C   0  0  0  0  0  0  0  0  0  0  0  0
  131.1860  123.3640   72.1440 C   0  0  0  0  0  0  0  0  0  0  0  0
  131.3990  122.3840   73.1150 C   0  0  0  0  0  0  0  0  0  0  0  0
  130.4720  121.3480   73.2350 C   0  0  0  0  0  0  0  0  0  0  0  0
  129.3730  121.2480   72.4450 N   0  0  0  0  0  0  0  0  0  0  0  0
  129.1800  122.2080   71.5040 C   0  0  0  0  0  0  0  0  0  0  0  0
  128.6360  127.8510   69.0400 S   0  0  0  0  0  0  0  0  0  0  0  0
  128.5610  127.8290   67.2940 C   0  0  0  0  0  0  0  0  0  0  0  0
  128.1460  128.8890   66.6020 N   0  0  0  0  0  0  0  0  0  0  0  0
  128.1060  128.7700   65.2490 C   0  0  0  0  0  0  0  0  0  0  0  0
  127.6270  129.9770   64.4970 C   0  0  0  0  0  0  0  0  0  0  0  0
  126.5060  129.9010   63.6570 C   0  0  0  0  0  0  0  0  0  0  0  0
  126.0540  131.0170   62.9560 C   0  0  0  0  0  0  0  0  0  0  0  0
  126.7210  132.2300   63.0890 C   0  0  0  0  0  0  0  0  0  0  0  0
  127.8340  132.3350   63.9180 C   0  0  0  0  0  0  0  0  0  0  0  0
  128.2810  131.2170   64.6160 C   0  0  0  0  0  0  0  0  0  0  0  0
  128.5050  127.5990   64.5970 C   0  0  0  0  0  0  0  0  0  0  0  0
  128.9480  126.4780   65.3170 C   0  0  0  0  0  0  0  0  0  0  0  0
  129.3660  125.2250   64.5390 C   0  0  0  0  0  0  0  0  0  0  0  0
  129.0060  124.0900   65.1420 F   0  0  0  0  0  0  0  0  0  0  0  0
  128.7980  125.2330   63.3330 F   0  0  0  0  0  0  0  0  0  0  0  0
  130.6910  125.2000   64.4010 F   0  0  0  0  0  0  0  0  0  0  0  0
  128.9770  126.5840   66.7370 C   0  0  0  0  0  0  0  0  0  0  0  0
  129.2240  123.5810   67.7180 H   0  0  0  0  0  0  0  0  0  0  0  0
  130.7120  124.2230   67.1390 H   0  0  0  0  0  0  0  0  0  0  0  0
  129.6630  123.7840   69.3730 H   0  0  0  0  0  0  0  0  0  0  0  0
  131.9018  124.1910   72.0265 H   0  0  0  0  0  0  0  0  0  0  0  0
  132.2799  122.4276   73.7723 H   0  0  0  0  0  0  0  0  0  0  0  0
  130.6393  120.5788   74.0034 H   0  0  0  0  0  0  0  0  0  0  0  0
  128.2942  122.1328   70.8562 H   0  0  0  0  0  0  0  0  0  0  0  0
  125.9747  128.9438   63.5499 H   0  0  0  0  0  0  0  0  0  0  0  0
  125.1740  130.9390   62.3006 H   0  0  0  0  0  0  0  0  0  0  0  0
  126.3667  133.1121   62.5355 H   0  0  0  0  0  0  0  0  0  0  0  0
  128.3577  133.2968   64.0210 H   0  0  0  0  0  0  0  0  0  0  0  0
  129.1600  131.3043   65.2715 H   0  0  0  0  0  0  0  0  0  0  0  0
  128.4711  127.5553   63.4984 H   0  0  0  0  0  0  0  0  0  0  0  0
  1  2  1  0
  2  3  2  0
  3  4  1  0
  4  5  2  0
  4  6  1  0
  6  7  1  0
  7  8  2  0
  8  9  1  0
  9 10  2  0
 10 11  1  0
 11 12  2  0
  3 13  1  0
 13 14  1  0
 14 15  2  0
 15 16  1  0
 16 17  1  0
 17 18  2  0
 18 19  1  0
 19 20  2  0
 20 21  1  0
 21 22  2  0
 16 23  2  0
 23 24  1  0
 24 25  1  0
 25 26  1  0
 25 27  1  0
 25 28  1  0
 24 29  2  0
 29  2  1  0
 12  7  1  0
 29 14  1  0
 22 17  1  0
  1 30  1  0
  1 31  1  0
  6 32  1  0
  8 33  1  0
  9 34  1  0
 10 35  1  0
 12 36  1  0
 18 37  1  0
 19 38  1  0
 20 39  1  0
 21 40  1  0
 22 41  1  0
 23 42  1  0
M  END
>  <Binding energies>  (1) 
[-7.66]

>  <Ligand effiencies>  (1) 
[-0.239375]

>  <Interactions>  (1) 
["V-A:HIS:456:CD2:4068, V-B:GLU:543:CD:9880, H-B:LYS:547:NZ:9923, V-B:GLU:543:C:9874, V-B:GLU:543:CB:9878, V-A:HIS:456:CE1:4069, H-A:HIS:456:NE2:4070, V-B:HIS:456:CE1:9040, V-B:GLU:543:CG:9879, V-A:GLU:543:CD:4908, V-B:LEU:475:CD1:9229, V-A:ALA:541:CB:4892, V-B:GLU:543:CA:9876, V-A:TYR:484:CZ:4347, V-A:GLU:543:CB:4906, V-A:TYR:484:CE1:4345, H-A:TYR:484:OH:4348, V-A:HIS:456:CG:4066, V-A:TYR:484:CD2:4344, V-A:TYR:484:CE2:4346, V-A:TYR:484:CD1:4343, V-A:HIS:456:CB:4065, V-A:TYR:484:CG:4342, H-B:GLU:543:O:9875, V-B:LYS:547:CE:9922, V-A:ASP:473:CG:4240, V-B:GLY:544:CA:9886, H-A:HIS:456:ND1:4067, V-A:ASP:473:CB:4239, V-A:TYR:484:CB:4341"]

$$$$
4cg_Grossjean_2025
     RDKit          3D

 46 49  0  0  0  0  0  0  0  0999 V2000
  125.6360  126.1410   59.3380 N   0  0  0  0  0  0  0  0  0  0  0  0
  126.6990  125.8710   60.1610 C   0  0  0  0  0  0  0  0  0  0  0  0
  127.1830  126.7810   61.1120 C   0  0  0  0  0  0  0  0  0  0  0  0
  126.6690  128.1070   61.4510 C   0  0  0  0  0  0  0  0  0  0  0  0
  126.3520  128.9160   60.5760 O   0  0  0  0  0  0  0  0  0  0  0  0
  126.6030  128.3980   62.7670 N   0  0  0  0  0  0  0  0  0  0  0  0
  126.1030  129.6490   63.3340 C   0  0  0  0  0  0  0  0  0  0  0  0
  125.4470  129.4760   64.7000 C   0  0  0  0  0  0  0  0  0  0  0  0
  126.1470  128.8430   65.7310 C   0  0  0  0  0  0  0  0  0  0  0  0
  125.5640  128.7110   66.9880 C   0  0  0  0  0  0  0  0  0  0  0  0
  124.2870  129.2210   67.2130 C   0  0  0  0  0  0  0  0  0  0  0  0
  123.5910  129.8680   66.1950 C   0  0  0  0  0  0  0  0  0  0  0  0
  124.1740  130.0020   64.9380 C   0  0  0  0  0  0  0  0  0  0  0  0
  128.5400  126.1080   62.0110 S   0  0  0  0  0  0  0  0  0  0  0  0
  128.4650  124.6230   61.0930 C   0  0  0  0  0  0  0  0  0  0  0  0
  129.3120  123.6230   61.3200 N   0  0  0  0  0  0  0  0  0  0  0  0
  129.1750  122.5050   60.5600 C   0  0  0  0  0  0  0  0  0  0  0  0
  130.1480  121.3950   60.8390 C   0  0  0  0  0  0  0  0  0  0  0  0
  131.5330  121.6310   60.8290 C   0  0  0  0  0  0  0  0  0  0  0  0
  132.4390  120.6060   61.0860 C   0  0  0  0  0  0  0  0  0  0  0  0
  131.9710  119.3230   61.3560 C   0  0  0  0  0  0  0  0  0  0  0  0
  130.6060  119.0610   61.3700 C   0  0  0  0  0  0  0  0  0  0  0  0
  129.7040  120.0890   61.1120 C   0  0  0  0  0  0  0  0  0  0  0  0
  128.1980  122.4060   59.5620 C   0  0  0  0  0  0  0  0  0  0  0  0
  127.2990  123.4550   59.3140 C   0  0  0  0  0  0  0  0  0  0  0  0
  126.2540  123.2800   58.2060 C   0  0  0  0  0  0  0  0  0  0  0  0
  126.2660  124.2730   57.3140 F   0  0  0  0  0  0  0  0  0  0  0  0
  126.4840  122.1460   57.5450 F   0  0  0  0  0  0  0  0  0  0  0  0
  125.0350  123.2390   58.7400 F   0  0  0  0  0  0  0  0  0  0  0  0
  127.4260  124.6260   60.1160 C   0  0  0  0  0  0  0  0  0  0  0  0
  125.1080  125.4070   58.8880 H   0  0  0  0  0  0  0  0  0  0  0  0
  125.3380  127.0900   59.1590 H   0  0  0  0  0  0  0  0  0  0  0  0
  126.8090  127.6630   63.4270 H   0  0  0  0  0  0  0  0  0  0  0  0
  126.9473  130.3463   63.4386 H   0  0  0  0  0  0  0  0  0  0  0  0
  125.3310  130.0300   62.6492 H   0  0  0  0  0  0  0  0  0  0  0  0
  127.1579  128.4494   65.5491 H   0  0  0  0  0  0  0  0  0  0  0  0
  126.1087  128.2066   67.7997 H   0  0  0  0  0  0  0  0  0  0  0  0
  123.8239  129.1115   68.2048 H   0  0  0  0  0  0  0  0  0  0  0  0
  122.5851  130.2714   66.3833 H   0  0  0  0  0  0  0  0  0  0  0  0
  123.6335  130.5213   64.1329 H   0  0  0  0  0  0  0  0  0  0  0  0
  131.9076  122.6427   60.6145 H   0  0  0  0  0  0  0  0  0  0  0  0
  133.5201  120.8089   61.0758 H   0  0  0  0  0  0  0  0  0  0  0  0
  132.6856  118.5118   61.5594 H   0  0  0  0  0  0  0  0  0  0  0  0
  130.2404  118.0459   61.5840 H   0  0  0  0  0  0  0  0  0  0  0  0
  128.6248  119.8761   61.1218 H   0  0  0  0  0  0  0  0  0  0  0  0
  128.1337  121.4875   58.9601 H   0  0  0  0  0  0  0  0  0  0  0  0
  1  2  1  0
  2  3  2  0
  3  4  1  0
  4  5  2  0
  4  6  1  0
  6  7  1  0
  7  8  1  0
  8  9  2  0
  9 10  1  0
 10 11  2  0
 11 12  1  0
 12 13  2  0
  3 14  1  0
 14 15  1  0
 15 16  2  0
 16 17  1  0
 17 18  1  0
 18 19  2  0
 19 20  1  0
 20 21  2  0
 21 22  1  0
 22 23  2  0
 17 24  2  0
 24 25  1  0
 25 26  1  0
 26 27  1  0
 26 28  1  0
 26 29  1  0
 25 30  2  0
 30  2  1  0
 13  8  1  0
 30 15  1  0
 23 18  1  0
  1 31  1  0
  1 32  1  0
  6 33  1  0
  7 34  1  0
  7 35  1  0
  9 36  1  0
 10 37  1  0
 11 38  1  0
 12 39  1  0
 13 40  1  0
 19 41  1  0
 20 42  1  0
 21 43  1  0
 22 44  1  0
 23 45  1  0
 24 46  1  0
M  END
>  <Binding energies>  (1) 
[-7.21]

>  <Ligand effiencies>  (1) 
[-0.21848484848484848]

>  <Interactions>  (1) 
["V-B:ARG:545:CG:9894, V-B:GLU:543:CD:9880, V-B:ARG:545:CZ:9898, V-B:ARG:545:CD:9895, V-B:HIS:456:CE1:9040, V-B:ILE:455:C:9023, H-B:ASP:366:OD1:8185, V-B:GLY:454:CA:9020, V-B:ASP:366:CG:8184, V-B:ALA:541:CB:9864, V-A:LEU:475:CD1:4258, V-B:TYR:539:CE2:9848, V-B:PRO:540:CA:9855, V-B:TYR:539:CD2:9846, V-A:PRO:482:CG:4327, V-A:TRP:381:CZ2:3370, V-B:PRO:540:CB:9857, V-A:TRP:381:CH2:3372, V-A:PRO:482:CB:4326, V-B:PRO:540:N:9856, V-B:TYR:539:C:9839, H-B:GLU:543:OE1:9881, H-B:GLU:543:OE2:9882, V-B:ARG:545:CB:9893, V-B:LEU:363:CD1:8160, V-B:PRO:540:CD:9859, V-B:TYR:539:CA:9841"]

$$$$
4ch_Grossjean_2025
     RDKit          3D

 58 61  0  0  0  0  0  0  0  0999 V2000
  130.1340  130.1040   72.2470 C   0  0  0  0  0  0  0  0  0  0  0  0
  129.7130  128.9830   73.0160 O   0  0  0  0  0  0  0  0  0  0  0  0
  129.4210  127.7920   72.3760 C   0  0  0  0  0  0  0  0  0  0  0  0
  128.5750  127.6900   71.2600 C   0  0  0  0  0  0  0  0  0  0  0  0
  128.3260  126.4530   70.6620 C   0  0  0  0  0  0  0  0  0  0  0  0
  127.3830  126.3580   69.4680 C   0  0  0  0  0  0  0  0  0  0  0  0
  128.0180  125.8850   68.2370 N   0  0  0  0  0  0  0  0  0  0  0  0
  128.6580  126.6600   67.3370 C   0  0  0  0  0  0  0  0  0  0  0  0
  128.7940  127.8760   67.4870 O   0  0  0  0  0  0  0  0  0  0  0  0
  129.2200  125.9660   66.1770 C   0  0  0  0  0  0  0  0  0  0  0  0
  129.5350  124.2350   66.2520 S   0  0  0  0  0  0  0  0  0  0  0  0
  130.1100  124.2240   64.6030 C   0  0  0  0  0  0  0  0  0  0  0  0
  130.5390  123.1060   64.0240 N   0  0  0  0  0  0  0  0  0  0  0  0
  130.9620  123.1940   62.7360 C   0  0  0  0  0  0  0  0  0  0  0  0
  131.4470  121.9160   62.1140 C   0  0  0  0  0  0  0  0  0  0  0  0
  130.5520  120.8710   61.8300 C   0  0  0  0  0  0  0  0  0  0  0  0
  130.9950  119.6820   61.2540 C   0  0  0  0  0  0  0  0  0  0  0  0
  132.3430  119.5210   60.9550 C   0  0  0  0  0  0  0  0  0  0  0  0
  133.2510  120.5380   61.2290 C   0  0  0  0  0  0  0  0  0  0  0  0
  132.8040  121.7240   61.8070 C   0  0  0  0  0  0  0  0  0  0  0  0
  130.9680  124.4080   62.0420 C   0  0  0  0  0  0  0  0  0  0  0  0
  130.5180  125.5950   62.6430 C   0  0  0  0  0  0  0  0  0  0  0  0
  130.5500  126.8910   61.8250 C   0  0  0  0  0  0  0  0  0  0  0  0
  131.0880  126.7330   60.6130 F   0  0  0  0  0  0  0  0  0  0  0  0
  129.3110  127.3490   61.6540 F   0  0  0  0  0  0  0  0  0  0  0  0
  131.2740  127.8100   62.4640 F   0  0  0  0  0  0  0  0  0  0  0  0
  130.0600  125.5110   63.9890 C   0  0  0  0  0  0  0  0  0  0  0  0
  129.5350  126.4870   64.9130 C   0  0  0  0  0  0  0  0  0  0  0  0
  129.3680  127.8080   64.5830 N   0  0  0  0  0  0  0  0  0  0  0  0
  128.9110  125.3020   71.1910 C   0  0  0  0  0  0  0  0  0  0  0  0
  129.7600  125.3750   72.3080 C   0  0  0  0  0  0  0  0  0  0  0  0
  130.3740  124.2780   72.8830 O   0  0  0  0  0  0  0  0  0  0  0  0
  130.9130  123.2600   72.0460 C   0  0  0  0  0  0  0  0  0  0  0  0
  130.0110  126.6280   72.8870 C   0  0  0  0  0  0  0  0  0  0  0  0
  130.8270  126.7110   73.9890 O   0  0  0  0  0  0  0  0  0  0  0  0
  130.2600  126.1670   75.1720 C   0  0  0  0  0  0  0  0  0  0  0  0
  130.4395  130.9175   72.9215 H   0  0  0  0  0  0  0  0  0  0  0  0
  130.9848  129.8147   71.6125 H   0  0  0  0  0  0  0  0  0  0  0  0
  129.3032  130.4463   71.6125 H   0  0  0  0  0  0  0  0  0  0  0  0
  128.1026  128.5957   70.8518 H   0  0  0  0  0  0  0  0  0  0  0  0
  126.5698  125.6634   69.7253 H   0  0  0  0  0  0  0  0  0  0  0  0
  127.0249  127.3784   69.2666 H   0  0  0  0  0  0  0  0  0  0  0  0
  127.8980  124.9050   68.0240 H   0  0  0  0  0  0  0  0  0  0  0  0
  129.4846  120.9933   62.0661 H   0  0  0  0  0  0  0  0  0  0  0  0
  130.2809  118.8740   61.0368 H   0  0  0  0  0  0  0  0  0  0  0  0
  132.6936  118.5834   60.4989 H   0  0  0  0  0  0  0  0  0  0  0  0
  134.3168  120.4066   60.9905 H   0  0  0  0  0  0  0  0  0  0  0  0
  133.5263  122.5240   62.0268 H   0  0  0  0  0  0  0  0  0  0  0  0
  131.3325  124.4338   61.0045 H   0  0  0  0  0  0  0  0  0  0  0  0
  128.8510  128.4450   65.1740 H   0  0  0  0  0  0  0  0  0  0  0  0
  129.7640  128.1920   63.7370 H   0  0  0  0  0  0  0  0  0  0  0  0
  128.7050  124.3257   70.7279 H   0  0  0  0  0  0  0  0  0  0  0  0
  131.3371  122.4591   72.6695 H   0  0  0  0  0  0  0  0  0  0  0  0
  130.1154  122.8470   71.4110 H   0  0  0  0  0  0  0  0  0  0  0  0
  131.7029  123.6875   71.4110 H   0  0  0  0  0  0  0  0  0  0  0  0
  130.7370  126.6246   76.0512 H   0  0  0  0  0  0  0  0  0  0  0  0
  129.1801  126.3756   75.1905 H   0  0  0  0  0  0  0  0  0  0  0  0
  130.4237  125.0794   75.1905 H   0  0  0  0  0  0  0  0  0  0  0  0
  1  2  1  0
  2  3  1  0
  3  4  2  0
  4  5  1  0
  5  6  1  0
  6  7  1  0
  7  8  1  0
  8  9  2  0
  8 10  1  0
 10 11  1  0
 11 12  1  0
 12 13  2  0
 13 14  1  0
 14 15  1  0
 15 16  2  0
 16 17  1  0
 17 18  2  0
 18 19  1  0
 19 20  2  0
 14 21  2  0
 21 22  1  0
 22 23  1  0
 23 24  1  0
 23 25  1  0
 23 26  1  0
 22 27  2  0
 27 28  1  0
 28 29  1  0
  5 30  2  0
 30 31  1  0
 31 32  1  0
 32 33  1  0
 31 34  2  0
 34 35  1  0
 35 36  1  0
 34  3  1  0
 28 10  2  0
 27 12  1  0
 20 15  1  0
  1 37  1  0
  1 38  1  0
  1 39  1  0
  4 40  1  0
  6 41  1  0
  6 42  1  0
  7 43  1  0
 16 44  1  0
 17 45  1  0
 18 46  1  0
 19 47  1  0
 20 48  1  0
 21 49  1  0
 29 50  1  0
 29 51  1  0
 30 52  1  0
 33 53  1  0
 33 54  1  0
 33 55  1  0
 36 56  1  0
 36 57  1  0
 36 58  1  0
M  END
>  <Binding energies>  (1) 
[-6.99]

>  <Ligand effiencies>  (1) 
[-0.17923076923076925]

>  <Interactions>  (1) 
["H-B:HIS:456:NE2:9041, V-A:HIS:456:CD2:4068, H-B:LYS:547:NZ:9923, V-B:GLU:543:C:9874, H-A:LYS:547:NZ:4951, V-B:HIS:456:CD2:9039, V-B:GLU:543:CB:9878, H-A:GLU:543:OE1:4909, V-B:HIS:456:CE1:9040, V-B:GLU:543:CG:9879, H-A:GLU:543:OE2:4910, V-A:GLU:543:CD:4908, V-B:ALA:541:CB:9864, V-B:GLU:543:CA:9876, V-A:TYR:484:CZ:4347, V-A:LEU:475:CD1:4258, V-A:TYR:484:CE1:4345, V-A:GLU:543:C:4902, V-A:ARG:545:CZ:4926, V-A:ASP:366:CG:3213, V-A:ILE:369:CG2:3237, V-A:ILE:369:CD1:3239, V-B:TYR:539:CD2:9846, V-A:TRP:381:CZ2:3370, V-A:TRP:381:CH2:3372, V-A:PRO:482:CB:4326, V-B:GLY:544:C:9884, V-A:HIS:456:CG:4066, V-A:TYR:484:CD2:4344, V-A:TYR:484:CE2:4346, V-A:HIS:456:CB:4065, V-A:TYR:484:CG:4342, V-A:LYS:547:CE:4950, H-B:GLU:543:O:9875, V-A:GLY:544:CA:4914, V-A:GLY:544:C:4912"]

$$$$
4ci_Grossjean_2025
     RDKit          3D

 39 42  0  0  0  0  0  0  0  0999 V2000
  129.9120  124.3960   67.6810 N   0  0  0  0  0  0  0  0  0  0  0  0
  129.4160  125.6330   68.0010 C   0  0  0  0  0  0  0  0  0  0  0  0
  129.2760  126.0880   69.3220 C   0  0  0  0  0  0  0  0  0  0  0  0
  129.6190  125.3950   70.5670 C   0  0  0  0  0  0  0  0  0  0  0  0
  129.7760  126.0260   71.6160 O   0  0  0  0  0  0  0  0  0  0  0  0
  129.7550  124.0490   70.4680 N   0  0  0  0  0  0  0  0  0  0  0  0
  130.0750  123.1540   71.4810 C   0  0  0  0  0  0  0  0  0  0  0  0
  131.2520  123.2330   72.2240 C   0  0  0  0  0  0  0  0  0  0  0  0
  131.1890  122.1810   73.1080 C   0  0  0  0  0  0  0  0  0  0  0  0
  130.0330  121.5040   72.9080 O   0  0  0  0  0  0  0  0  0  0  0  0
  129.3360  122.1300   71.8740 N   0  0  0  0  0  0  0  0  0  0  0  0
  128.6190  127.7220   69.3670 S   0  0  0  0  0  0  0  0  0  0  0  0
  128.5260  127.7810   67.6230 C   0  0  0  0  0  0  0  0  0  0  0  0
  128.0670  128.8570   66.9870 N   0  0  0  0  0  0  0  0  0  0  0  0
  128.0360  128.8120   65.6300 C   0  0  0  0  0  0  0  0  0  0  0  0
  127.5080  130.0380   64.9410 C   0  0  0  0  0  0  0  0  0  0  0  0
  126.2240  130.0480   64.3720 C   0  0  0  0  0  0  0  0  0  0  0  0
  125.7290  131.1820   63.7330 C   0  0  0  0  0  0  0  0  0  0  0  0
  126.5150  132.3270   63.6530 C   0  0  0  0  0  0  0  0  0  0  0  0
  127.7910  132.3430   64.2040 C   0  0  0  0  0  0  0  0  0  0  0  0
  128.2830  131.2070   64.8400 C   0  0  0  0  0  0  0  0  0  0  0  0
  128.4500  127.6800   64.9200 C   0  0  0  0  0  0  0  0  0  0  0  0
  128.9360  126.5400   65.5800 C   0  0  0  0  0  0  0  0  0  0  0  0
  129.3740  125.3350   64.7390 C   0  0  0  0  0  0  0  0  0  0  0  0
  129.0030  124.1670   65.2650 F   0  0  0  0  0  0  0  0  0  0  0  0
  128.8310  125.4150   63.5240 F   0  0  0  0  0  0  0  0  0  0  0  0
  130.7020  125.3210   64.6280 F   0  0  0  0  0  0  0  0  0  0  0  0
  128.9850  126.5820   67.0030 C   0  0  0  0  0  0  0  0  0  0  0  0
  130.8590  124.2680   67.3520 H   0  0  0  0  0  0  0  0  0  0  0  0
  129.3450  123.5630   67.7700 H   0  0  0  0  0  0  0  0  0  0  0  0
  129.6120  123.6390   69.5570 H   0  0  0  0  0  0  0  0  0  0  0  0
  132.0570  123.9760   72.1248 H   0  0  0  0  0  0  0  0  0  0  0  0
  131.9545  121.9299   73.8570 H   0  0  0  0  0  0  0  0  0  0  0  0
  125.5988  129.1449   64.4321 H   0  0  0  0  0  0  0  0  0  0  0  0
  124.7207  131.1724   63.2934 H   0  0  0  0  0  0  0  0  0  0  0  0
  126.1246  133.2245   63.1510 H   0  0  0  0  0  0  0  0  0  0  0  0
  128.4096  133.2501   64.1376 H   0  0  0  0  0  0  0  0  0  0  0  0
  129.2950  131.2239   65.2708 H   0  0  0  0  0  0  0  0  0  0  0  0
  128.3936  127.6831   63.8215 H   0  0  0  0  0  0  0  0  0  0  0  0
  1  2  1  0
  2  3  2  0
  3  4  1  0
  4  5  2  0
  4  6  1  0
  6  7  1  0
  7  8  1  0
  8  9  2  0
  9 10  1  0
 10 11  1  0
  3 12  1  0
 12 13  1  0
 13 14  2  0
 14 15  1  0
 15 16  1  0
 16 17  2  0
 17 18  1  0
 18 19  2  0
 19 20  1  0
 20 21  2  0
 15 22  2  0
 22 23  1  0
 23 24  1  0
 24 25  1  0
 24 26  1  0
 24 27  1  0
 23 28  2  0
 28  2  1  0
 11  7  2  0
 28 13  1  0
 21 16  1  0
  1 29  1  0
  1 30  1  0
  6 31  1  0
  8 32  1  0
  9 33  1  0
 17 34  1  0
 18 35  1  0
 19 36  1  0
 20 37  1  0
 21 38  1  0
 22 39  1  0
M  END
>  <Binding energies>  (1) 
[-8.5]

>  <Ligand effiencies>  (1) 
[-0.27419354838709675]

>  <Interactions>  (1) 
["V-A:HIS:456:CD2:4068, V-B:GLU:543:CD:9880, H-B:LYS:547:NZ:9923, V-B:GLU:543:C:9874, V-B:GLU:543:CB:9878, V-A:HIS:456:CE1:4069, H-A:HIS:456:NE2:4070, V-B:HIS:456:CE1:9040, V-B:GLU:543:CG:9879, V-A:GLU:543:CD:4908, V-B:LEU:475:CD1:9229, V-A:ALA:541:CB:4892, V-B:GLU:543:CA:9876, V-A:TYR:484:CZ:4347, V-A:GLU:543:CB:4906, V-A:TYR:484:CE1:4345, H-A:TYR:484:OH:4348, V-A:HIS:456:CG:4066, V-A:TYR:484:CD2:4344, V-A:TYR:484:CE2:4346, V-A:TYR:484:CD1:4343, V-A:HIS:456:CB:4065, V-A:TYR:484:CG:4342, H-B:GLU:543:O:9875, V-A:ASP:473:CG:4240, H-A:HIS:456:ND1:4067, V-A:ASP:473:CB:4239, V-A:TYR:484:CB:4341"]

$$$$
4cj_Grossjean_2025
     RDKit          3D

 39 42  0  0  0  0  0  0  0  0999 V2000
  130.2860  124.7230   68.0850 N   0  0  0  0  0  0  0  0  0  0  0  0
  129.2760  125.6050   68.3730 C   0  0  0  0  0  0  0  0  0  0  0  0
  128.7410  125.7690   69.6610 C   0  0  0  0  0  0  0  0  0  0  0  0
  129.1210  125.0880   70.9010 C   0  0  0  0  0  0  0  0  0  0  0  0
  129.0310  125.6620   71.9890 O   0  0  0  0  0  0  0  0  0  0  0  0
  129.5750  123.8190   70.7530 N   0  0  0  0  0  0  0  0  0  0  0  0
  129.9960  122.9610   71.7600 C   0  0  0  0  0  0  0  0  0  0  0  0
  129.4610  121.8140   72.1200 N   0  0  0  0  0  0  0  0  0  0  0  0
  130.1230  121.2610   73.1160 C   0  0  0  0  0  0  0  0  0  0  0  0
  131.2280  121.9650   73.5870 C   0  0  0  0  0  0  0  0  0  0  0  0
  131.3990  123.4310   72.6670 S   0  0  0  0  0  0  0  0  0  0  0  0
  127.4710  126.9910   69.6730 S   0  0  0  0  0  0  0  0  0  0  0  0
  127.6630  127.2700   67.9580 C   0  0  0  0  0  0  0  0  0  0  0  0
  126.9220  128.1680   67.3140 N   0  0  0  0  0  0  0  0  0  0  0  0
  127.1470  128.3220   65.9840 C   0  0  0  0  0  0  0  0  0  0  0  0
  126.3020  129.3520   65.2900 C   0  0  0  0  0  0  0  0  0  0  0  0
  124.9140  129.3990   65.4960 C   0  0  0  0  0  0  0  0  0  0  0  0
  124.1240  130.3480   64.8510 C   0  0  0  0  0  0  0  0  0  0  0  0
  124.7140  131.2640   63.9860 C   0  0  0  0  0  0  0  0  0  0  0  0
  126.0860  131.2380   63.7640 C   0  0  0  0  0  0  0  0  0  0  0  0
  126.8720  130.2890   64.4110 C   0  0  0  0  0  0  0  0  0  0  0  0
  128.0990  127.5560   65.3030 C   0  0  0  0  0  0  0  0  0  0  0  0
  128.8850  126.6050   65.9720 C   0  0  0  0  0  0  0  0  0  0  0  0
  129.9130  125.8030   65.1650 C   0  0  0  0  0  0  0  0  0  0  0  0
  129.6070  124.5070   65.0680 F   0  0  0  0  0  0  0  0  0  0  0  0
  129.9890  126.2880   63.9260 F   0  0  0  0  0  0  0  0  0  0  0  0
  131.1100  125.8880   65.7450 F   0  0  0  0  0  0  0  0  0  0  0  0
  128.6700  126.4490   67.3710 C   0  0  0  0  0  0  0  0  0  0  0  0
  130.4540  124.3900   67.1460 H   0  0  0  0  0  0  0  0  0  0  0  0
  130.9030  124.3770   68.8080 H   0  0  0  0  0  0  0  0  0  0  0  0
  129.6260  123.4510   69.8140 H   0  0  0  0  0  0  0  0  0  0  0  0
  129.8197  120.2973   73.5510 H   0  0  0  0  0  0  0  0  0  0  0  0
  131.8864  121.6456   74.4083 H   0  0  0  0  0  0  0  0  0  0  0  0
  124.4430  128.6752   66.1773 H   0  0  0  0  0  0  0  0  0  0  0  0
  123.0381  130.3730   65.0249 H   0  0  0  0  0  0  0  0  0  0  0  0
  124.0913  132.0130   63.4749 H   0  0  0  0  0  0  0  0  0  0  0  0
  126.5486  131.9645   63.0798 H   0  0  0  0  0  0  0  0  0  0  0  0
  127.9571  130.2720   64.2315 H   0  0  0  0  0  0  0  0  0  0  0  0
  128.2343  127.7020   64.2212 H   0  0  0  0  0  0  0  0  0  0  0  0
  1  2  1  0
  2  3  2  0
  3  4  1  0
  4  5  2  0
  4  6  1  0
  6  7  1  0
  7  8  2  0
  8  9  1  0
  9 10  2  0
 10 11  1  0
  3 12  1  0
 12 13  1  0
 13 14  2  0
 14 15  1  0
 15 16  1  0
 16 17  2  0
 17 18  1  0
 18 19  2  0
 19 20  1  0
 20 21  2  0
 15 22  2  0
 22 23  1  0
 23 24  1  0
 24 25  1  0
 24 26  1  0
 24 27  1  0
 23 28  2  0
 28  2  1  0
 11  7  1  0
 28 13  1  0
 21 16  1  0
  1 29  1  0
  1 30  1  0
  6 31  1  0
  9 32  1  0
 10 33  1  0
 17 34  1  0
 18 35  1  0
 19 36  1  0
 20 37  1  0
 21 38  1  0
 22 39  1  0
M  END
>  <Binding energies>  (1) 
[-7.66]

>  <Ligand effiencies>  (1) 
[-0.2470967741935484]

>  <Interactions>  (1) 
["V-A:HIS:456:CD2:4068, V-B:GLU:543:CD:9880, H-B:LYS:547:NZ:9923, V-B:GLU:543:C:9874, V-B:GLU:543:CB:9878, V-A:HIS:456:CE1:4069, V-B:ARG:545:CZ:9898, V-B:ARG:545:CD:9895, V-B:HIS:456:CE1:9040, V-B:GLU:543:CG:9879, V-A:GLU:543:CD:4908, V-B:GLY:454:CA:9020, V-A:TYR:484:CZ:4347, V-A:TYR:484:CE1:4345, H-A:TYR:484:OH:4348, V-B:GLY:544:C:9884, V-A:HIS:456:CG:4066, V-A:TYR:484:CD2:4344, V-A:TYR:484:CE2:4346, V-A:TYR:484:CD1:4343, V-A:HIS:456:CB:4065, V-A:TYR:484:CG:4342, H-B:GLU:543:O:9875, V-A:ASP:473:CG:4240, H-A:HIS:456:ND1:4067, V-A:ASP:473:CB:4239, V-A:TYR:484:CB:4341"]

$$$$
4ck_Grossjean_2025
     RDKit          3D

 57 59  0  0  0  0  0  0  0  0999 V2000
  123.6920  130.6500   76.1150 C   0  0  0  0  0  0  0  0  0  0  0  0
  124.6440  130.0200   75.2720 O   0  0  0  0  0  0  0  0  0  0  0  0
  124.8950  128.6650   75.6180 C   0  0  0  0  0  0  0  0  0  0  0  0
  124.1350  127.7520   74.6480 C   0  0  0  0  0  0  0  0  0  0  0  0
  125.0630  127.1360   73.7670 O   0  0  0  0  0  0  0  0  0  0  0  0
  126.3360  127.7680   73.7510 C   0  0  0  0  0  0  0  0  0  0  0  0
  127.3500  126.8740   74.4780 C   0  0  0  0  0  0  0  0  0  0  0  0
  127.8160  125.8820   73.5730 O   0  0  0  0  0  0  0  0  0  0  0  0
  128.4580  126.4120   72.4200 C   0  0  0  0  0  0  0  0  0  0  0  0
  129.0130  125.2620   71.5660 C   0  0  0  0  0  0  0  0  0  0  0  0
  128.9270  125.5500   70.1330 N   0  0  0  0  0  0  0  0  0  0  0  0
  129.1770  126.7400   69.5500 C   0  0  0  0  0  0  0  0  0  0  0  0
  129.5410  127.7300   70.1870 O   0  0  0  0  0  0  0  0  0  0  0  0
  128.9990  126.7900   68.0980 C   0  0  0  0  0  0  0  0  0  0  0  0
  128.3350  128.2340   67.3380 S   0  0  0  0  0  0  0  0  0  0  0  0
  128.5110  127.5300   65.7480 C   0  0  0  0  0  0  0  0  0  0  0  0
  128.1510  128.1920   64.6510 N   0  0  0  0  0  0  0  0  0  0  0  0
  128.3240  127.5630   63.4600 C   0  0  0  0  0  0  0  0  0  0  0  0
  127.9260  128.3440   62.2400 C   0  0  0  0  0  0  0  0  0  0  0  0
  126.6880  128.1200   61.6160 C   0  0  0  0  0  0  0  0  0  0  0  0
  126.3130  128.8390   60.4830 C   0  0  0  0  0  0  0  0  0  0  0  0
  127.1740  129.7960   59.9580 C   0  0  0  0  0  0  0  0  0  0  0  0
  128.4040  130.0420   60.5600 C   0  0  0  0  0  0  0  0  0  0  0  0
  128.7740  129.3210   61.6930 C   0  0  0  0  0  0  0  0  0  0  0  0
  128.8660  126.2760   63.3750 C   0  0  0  0  0  0  0  0  0  0  0  0
  129.2480  125.5690   64.5260 C   0  0  0  0  0  0  0  0  0  0  0  0
  129.8320  124.1600   64.3610 C   0  0  0  0  0  0  0  0  0  0  0  0
  129.2510  123.2570   65.1520 F   0  0  0  0  0  0  0  0  0  0  0  0
  129.6720  123.7510   63.1030 F   0  0  0  0  0  0  0  0  0  0  0  0
  131.1320  124.1740   64.6570 F   0  0  0  0  0  0  0  0  0  0  0  0
  129.0690  126.2180   65.7810 C   0  0  0  0  0  0  0  0  0  0  0  0
  129.3450  125.8240   67.1410 C   0  0  0  0  0  0  0  0  0  0  0  0
  129.8940  124.6100   67.4660 N   0  0  0  0  0  0  0  0  0  0  0  0
  123.9598  130.4728   77.1671 H   0  0  0  0  0  0  0  0  0  0  0  0
  123.6848  131.7318   75.9157 H   0  0  0  0  0  0  0  0  0  0  0  0
  122.6935  130.2338   75.9157 H   0  0  0  0  0  0  0  0  0  0  0  0
  125.9736  128.4605   75.5483 H   0  0  0  0  0  0  0  0  0  0  0  0
  124.5571  128.4760   76.6476 H   0  0  0  0  0  0  0  0  0  0  0  0
  123.5964  126.9787   75.2153 H   0  0  0  0  0  0  0  0  0  0  0  0
  123.4121  128.3457   74.0693 H   0  0  0  0  0  0  0  0  0  0  0  0
  126.6586  127.9201   72.7104 H   0  0  0  0  0  0  0  0  0  0  0  0
  126.2721  128.7428   74.2567 H   0  0  0  0  0  0  0  0  0  0  0  0
  128.1967  127.4832   74.8272 H   0  0  0  0  0  0  0  0  0  0  0  0
  126.8721  126.3946   75.3451 H   0  0  0  0  0  0  0  0  0  0  0  0
  127.7316  126.9894   71.8292 H   0  0  0  0  0  0  0  0  0  0  0  0
  129.2841  127.0685   72.7307 H   0  0  0  0  0  0  0  0  0  0  0  0
  130.0677  125.0991   71.8325 H   0  0  0  0  0  0  0  0  0  0  0  0
  128.4076  124.3663   71.7688 H   0  0  0  0  0  0  0  0  0  0  0  0
  128.7200  124.7620   69.5360 H   0  0  0  0  0  0  0  0  0  0  0  0
  126.0031  127.3645   62.0285 H   0  0  0  0  0  0  0  0  0  0  0  0
  125.3399  128.6503   60.0060 H   0  0  0  0  0  0  0  0  0  0  0  0
  126.8811  130.3620   59.0614 H   0  0  0  0  0  0  0  0  0  0  0  0
  129.0810  130.8022   60.1432 H   0  0  0  0  0  0  0  0  0  0  0  0
  129.7464  129.5201   62.1672 H   0  0  0  0  0  0  0  0  0  0  0  0
  128.9953  125.8092   62.3874 H   0  0  0  0  0  0  0  0  0  0  0  0
  129.3490  123.8700   67.8870 H   0  0  0  0  0  0  0  0  0  0  0  0
  130.8700  124.4100   67.2890 H   0  0  0  0  0  0  0  0  0  0  0  0
  1  2  1  0
  2  3  1  0
  3  4  1  0
  4  5  1  0
  5  6  1  0
  6  7  1  0
  7  8  1  0
  8  9  1  0
  9 10  1  0
 10 11  1  0
 11 12  1  0
 12 13  2  0
 12 14  1  0
 14 15  1  0
 15 16  1  0
 16 17  2  0
 17 18  1  0
 18 19  1  0
 19 20  2  0
 20 21  1  0
 21 22  2  0
 22 23  1  0
 23 24  2  0
 18 25  2  0
 25 26  1  0
 26 27  1  0
 27 28  1  0
 27 29  1  0
 27 30  1  0
 26 31  2  0
 31 32  1  0
 32 33  1  0
 32 14  2  0
 31 16  1  0
 24 19  1  0
  1 34  1  0
  1 35  1  0
  1 36  1  0
  3 37  1  0
  3 38  1  0
  4 39  1  0
  4 40  1  0
  6 41  1  0
  6 42  1  0
  7 43  1  0
  7 44  1  0
  9 45  1  0
  9 46  1  0
 10 47  1  0
 10 48  1  0
 11 49  1  0
 20 50  1  0
 21 51  1  0
 22 52  1  0
 23 53  1  0
 24 54  1  0
 25 55  1  0
 33 56  1  0
 33 57  1  0
M  END
>  <Binding energies>  (1) 
[-6.42]

>  <Ligand effiencies>  (1) 
[-0.17833333333333334]

>  <Interactions>  (1) 
["H-B:HIS:456:NE2:9041, V-A:HIS:456:CD2:4068, V-B:GLU:543:CD:9880, H-B:LYS:547:NZ:9923, V-B:GLU:543:C:9874, V-B:HIS:456:CD2:9039, V-B:GLU:543:CB:9878, V-A:HIS:456:CE1:4069, H-A:HIS:456:NE2:4070, V-B:HIS:456:CE1:9040, V-B:GLU:543:CG:9879, V-A:GLU:543:CD:4908, V-B:ALA:541:CB:9864, V-B:GLU:543:CA:9876, V-A:TYR:484:CZ:4347, V-A:TYR:484:CE1:4345, H-A:TYR:484:OH:4348, V-B:HIS:456:CB:9036, V-B:LYS:547:CD:9921, V-B:HIS:456:C:9032, V-B:VAL:458:CG2:9058, V-B:VAL:457:C:9044, V-B:HIS:456:CG:9037, V-B:HIS:456:CA:9034, H-B:GLU:543:O:9875, V-B:VAL:457:CA:9046, V-B:LYS:471:CE:9191, H-B:VAL:457:N:9047, H-A:HIS:456:ND1:4067, V-B:LYS:471:CG:9189, V-B:LYS:471:C:9184"]

$$$$
4dd_Grossjean_2025
     RDKit          3D

 43 46  0  0  0  0  0  0  0  0999 V2000
  129.6620  126.9620   64.2700 C   0  0  0  0  0  0  0  0  0  0  0  0
  128.7970  127.1930   65.5010 C   0  0  0  0  0  0  0  0  0  0  0  0
  129.1500  126.5380   66.6880 C   0  0  0  0  0  0  0  0  0  0  0  0
  128.3950  126.7100   67.8550 C   0  0  0  0  0  0  0  0  0  0  0  0
  128.7460  126.0170   69.1380 C   0  0  0  0  0  0  0  0  0  0  0  0
  129.7490  125.0350   69.1760 C   0  0  0  0  0  0  0  0  0  0  0  0
  130.0810  124.3900   70.3640 C   0  0  0  0  0  0  0  0  0  0  0  0
  129.4110  124.7180   71.5370 C   0  0  0  0  0  0  0  0  0  0  0  0
  128.4140  125.6880   71.5300 C   0  0  0  0  0  0  0  0  0  0  0  0
  128.0860  126.3320   70.3390 C   0  0  0  0  0  0  0  0  0  0  0  0
  127.2890  127.5030   67.8860 N   0  0  0  0  0  0  0  0  0  0  0  0
  126.9570  128.1310   66.7590 C   0  0  0  0  0  0  0  0  0  0  0  0
  125.5720  129.1950   66.6640 S   0  0  0  0  0  0  0  0  0  0  0  0
  125.8930  129.5380   64.9630 C   0  0  0  0  0  0  0  0  0  0  0  0
  125.0310  130.4570   64.2160 C   0  0  0  0  0  0  0  0  0  0  0  0
  123.8070  130.3160   64.2250 O   0  0  0  0  0  0  0  0  0  0  0  0
  125.6760  131.4430   63.5460 N   0  0  0  0  0  0  0  0  0  0  0  0
  125.1560  132.4420   62.7030 C   0  0  0  0  0  0  0  0  0  0  0  0
  126.0980  133.1890   61.9890 C   0  0  0  0  0  0  0  0  0  0  0  0
  125.6830  134.1920   61.1170 C   0  0  0  0  0  0  0  0  0  0  0  0
  124.3230  134.4440   60.9520 C   0  0  0  0  0  0  0  0  0  0  0  0
  123.3750  133.6990   61.6480 C   0  0  0  0  0  0  0  0  0  0  0  0
  123.7860  132.6960   62.5210 C   0  0  0  0  0  0  0  0  0  0  0  0
  127.0260  128.8430   64.5120 C   0  0  0  0  0  0  0  0  0  0  0  0
  127.5080  128.9170   63.2290 N   0  0  0  0  0  0  0  0  0  0  0  0
  127.6550  128.0330   65.5220 C   0  0  0  0  0  0  0  0  0  0  0  0
  130.6807  126.6900   64.5835 H   0  0  0  0  0  0  0  0  0  0  0  0
  129.2335  126.1468   63.6685 H   0  0  0  0  0  0  0  0  0  0  0  0
  129.6969  127.8823   63.6685 H   0  0  0  0  0  0  0  0  0  0  0  0
  130.0315  125.8802   66.7036 H   0  0  0  0  0  0  0  0  0  0  0  0
  130.2818  124.7708   68.2506 H   0  0  0  0  0  0  0  0  0  0  0  0
  130.8703  123.6239   70.3746 H   0  0  0  0  0  0  0  0  0  0  0  0
  129.6707  124.2076   72.4761 H   0  0  0  0  0  0  0  0  0  0  0  0
  127.8870  125.9454   72.4606 H   0  0  0  0  0  0  0  0  0  0  0  0
  127.2979  127.0994   70.3381 H   0  0  0  0  0  0  0  0  0  0  0  0
  126.6760  131.4850   63.6730 H   0  0  0  0  0  0  0  0  0  0  0  0
  127.1711  132.9835   62.1167 H   0  0  0  0  0  0  0  0  0  0  0  0
  126.4258  134.7828   60.5609 H   0  0  0  0  0  0  0  0  0  0  0  0
  123.9952  135.2387   60.2657 H   0  0  0  0  0  0  0  0  0  0  0  0
  122.3031  133.9027   61.5082 H   0  0  0  0  0  0  0  0  0  0  0  0
  123.0388  132.1025   63.0682 H   0  0  0  0  0  0  0  0  0  0  0  0
  127.0270  128.4860   62.4520 H   0  0  0  0  0  0  0  0  0  0  0  0
  128.3620  129.4130   63.0180 H   0  0  0  0  0  0  0  0  0  0  0  0
  1  2  1  0
  2  3  2  0
  3  4  1  0
  4  5  1  0
  5  6  2  0
  6  7  1  0
  7  8  2  0
  8  9  1  0
  9 10  2  0
  4 11  2  0
 11 12  1  0
 12 13  1  0
 13 14  1  0
 14 15  1  0
 15 16  2  0
 15 17  1  0
 17 18  1  0
 18 19  2  0
 19 20  1  0
 20 21  2  0
 21 22  1  0
 22 23  2  0
 14 24  2  0
 24 25  1  0
 24 26  1  0
 26  2  1  0
 10  5  1  0
 26 12  2  0
 23 18  1  0
  1 27  1  0
  1 28  1  0
  1 29  1  0
  3 30  1  0
  6 31  1  0
  7 32  1  0
  8 33  1  0
  9 34  1  0
 10 35  1  0
 17 36  1  0
 19 37  1  0
 20 38  1  0
 21 39  1  0
 22 40  1  0
 23 41  1  0
 25 42  1  0
 25 43  1  0
M  END
>  <Binding energies>  (1) 
[-7.52]

>  <Ligand effiencies>  (1) 
[-0.2593103448275862]

>  <Interactions>  (1) 
["V-B:ARG:545:CG:9894, V-A:HIS:456:CD2:4068, V-B:GLU:543:CD:9880, V-B:GLU:543:C:9874, V-B:GLU:543:CB:9878, V-A:HIS:456:CE1:4069, H-A:GLU:543:OE1:4909, V-B:HIS:456:CE1:9040, V-A:GLU:543:CD:4908, V-B:TRP:381:CH2:8343, H-B:GLY:454:N:9021, V-B:GLY:454:CA:9020, V-B:LEU:475:CD1:9229, V-B:ILE:369:CD1:8210, V-A:TYR:539:CE2:4876, H-B:TYR:484:OH:9319, V-B:ILE:369:CG2:8208, H-B:ARG:545:NH2:9900, V-A:TYR:539:CD2:4874, V-A:TYR:484:CZ:4347, V-A:TYR:484:CE1:4345, V-B:TYR:484:CZ:9318, V-B:GLY:544:C:9884, V-A:HIS:456:CG:4066, H-B:GLU:543:OE1:9881, V-A:TYR:484:CE2:4346"]

$$$$
4dg_Grossjean_2025
     RDKit          3D

 46 49  0  0  0  0  0  0  0  0999 V2000
  126.3100  127.1100   67.5280 C   0  0  0  0  0  0  0  0  0  0  0  0
  127.6070  126.3990   67.8850 C   0  0  0  0  0  0  0  0  0  0  0  0
  128.4140  125.9360   66.8390 C   0  0  0  0  0  0  0  0  0  0  0  0
  129.6200  125.2740   67.1010 C   0  0  0  0  0  0  0  0  0  0  0  0
  130.5090  124.7670   66.0000 C   0  0  0  0  0  0  0  0  0  0  0  0
  130.1750  123.6090   65.2790 C   0  0  0  0  0  0  0  0  0  0  0  0
  130.9970  123.1330   64.2610 C   0  0  0  0  0  0  0  0  0  0  0  0
  132.1700  123.8100   63.9470 C   0  0  0  0  0  0  0  0  0  0  0  0
  132.5280  124.9580   64.6470 C   0  0  0  0  0  0  0  0  0  0  0  0
  131.7040  125.4300   65.6650 C   0  0  0  0  0  0  0  0  0  0  0  0
  130.0660  125.0690   68.3700 N   0  0  0  0  0  0  0  0  0  0  0  0
  129.2980  125.5090   69.3660 C   0  0  0  0  0  0  0  0  0  0  0  0
  129.7490  125.3050   71.0430 S   0  0  0  0  0  0  0  0  0  0  0  0
  128.2810  126.1180   71.5820 C   0  0  0  0  0  0  0  0  0  0  0  0
  128.0000  126.2560   73.0100 C   0  0  0  0  0  0  0  0  0  0  0  0
  128.8910  126.1380   73.8540 O   0  0  0  0  0  0  0  0  0  0  0  0
  126.7100  126.4800   73.3380 N   0  0  0  0  0  0  0  0  0  0  0  0
  126.2030  126.6730   74.6960 C   0  0  0  0  0  0  0  0  0  0  0  0
  125.8360  128.1200   75.0060 C   0  0  0  0  0  0  0  0  0  0  0  0
  124.5170  128.4460   75.3350 C   0  0  0  0  0  0  0  0  0  0  0  0
  124.1840  129.7610   75.6490 C   0  0  0  0  0  0  0  0  0  0  0  0
  125.1730  130.7420   75.6450 C   0  0  0  0  0  0  0  0  0  0  0  0
  126.4930  130.4210   75.3350 C   0  0  0  0  0  0  0  0  0  0  0  0
  126.8260  129.1060   75.0220 C   0  0  0  0  0  0  0  0  0  0  0  0
  127.4850  126.5070   70.4940 C   0  0  0  0  0  0  0  0  0  0  0  0
  126.2780  127.1480   70.6220 N   0  0  0  0  0  0  0  0  0  0  0  0
  128.0520  126.1800   69.2140 C   0  0  0  0  0  0  0  0  0  0  0  0
  125.7841  127.3983   68.4501 H   0  0  0  0  0  0  0  0  0  0  0  0
  126.5359  128.0104   66.9379 H   0  0  0  0  0  0  0  0  0  0  0  0
  125.6724  126.4353   66.9379 H   0  0  0  0  0  0  0  0  0  0  0  0
  128.0967  126.0942   65.7977 H   0  0  0  0  0  0  0  0  0  0  0  0
  129.2482  123.0689   65.5227 H   0  0  0  0  0  0  0  0  0  0  0  0
  130.7192  122.2242   63.7070 H   0  0  0  0  0  0  0  0  0  0  0  0
  132.8185  123.4361   63.1410 H   0  0  0  0  0  0  0  0  0  0  0  0
  133.4578  125.4901   64.3972 H   0  0  0  0  0  0  0  0  0  0  0  0
  131.9921  126.3368   66.2170 H   0  0  0  0  0  0  0  0  0  0  0  0
  126.0510  126.6430   72.5910 H   0  0  0  0  0  0  0  0  0  0  0  0
  125.3053  126.0505   74.8247 H   0  0  0  0  0  0  0  0  0  0  0  0
  127.0098  126.3877   75.3872 H   0  0  0  0  0  0  0  0  0  0  0  0
  123.7430  127.6645   75.3458 H   0  0  0  0  0  0  0  0  0  0  0  0
  123.1455  130.0238   75.8989 H   0  0  0  0  0  0  0  0  0  0  0  0
  124.9090  131.7815   75.8893 H   0  0  0  0  0  0  0  0  0  0  0  0
  127.2675  131.2021   75.3376 H   0  0  0  0  0  0  0  0  0  0  0  0
  127.8681  128.8432   74.7874 H   0  0  0  0  0  0  0  0  0  0  0  0
  125.9360  127.7860   69.9190 H   0  0  0  0  0  0  0  0  0  0  0  0
  125.6870  126.9950   71.4280 H   0  0  0  0  0  0  0  0  0  0  0  0
  1  2  1  0
  2  3  2  0
  3  4  1  0
  4  5  1  0
  5  6  2  0
  6  7  1  0
  7  8  2  0
  8  9  1  0
  9 10  2  0
  4 11  2  0
 11 12  1  0
 12 13  1  0
 13 14  1  0
 14 15  1  0
 15 16  2  0
 15 17  1  0
 17 18  1  0
 18 19  1  0
 19 20  2  0
 20 21  1  0
 21 22  2  0
 22 23  1  0
 23 24  2  0
 14 25  2  0
 25 26  1  0
 25 27  1  0
 27  2  1  0
 10  5  1  0
 27 12  2  0
 24 19  1  0
  1 28  1  0
  1 29  1  0
  1 30  1  0
  3 31  1  0
  6 32  1  0
  7 33  1  0
  8 34  1  0
  9 35  1  0
 10 36  1  0
 17 37  1  0
 18 38  1  0
 18 39  1  0
 20 40  1  0
 21 41  1  0
 22 42  1  0
 23 43  1  0
 24 44  1  0
 26 45  1  0
 26 46  1  0
M  END
>  <Binding energies>  (1) 
[-8.14]

>  <Ligand effiencies>  (1) 
[-0.27133333333333337]

>  <Interactions>  (1) 
["V-B:ARG:545:CG:9894, V-A:HIS:456:CD2:4068, V-B:GLU:543:CD:9880, H-B:LYS:547:NZ:9923, V-B:GLU:543:C:9874, V-B:HIS:456:CD2:9039, V-B:GLU:543:CB:9878, V-A:HIS:456:CE1:4069, H-A:HIS:456:NE2:4070, V-B:HIS:456:CE1:9040, V-B:GLU:543:CG:9879, V-B:GLU:543:CA:9876, V-A:TYR:484:CZ:4347, H-B:HIS:456:ND1:9038, V-A:LEU:475:CD1:4258, V-A:TYR:484:CE1:4345, H-A:TYR:484:OH:4348, V-B:GLY:544:C:9884, V-B:ARG:545:CA:9891, V-A:HIS:456:CG:4066, V-B:HIS:456:CB:9036, V-B:LYS:547:CD:9921, V-B:HIS:456:C:9032, V-B:VAL:458:CG2:9058, V-B:VAL:457:C:9044, V-B:HIS:456:CG:9037, H-B:GLY:544:O:9885, V-B:HIS:456:CA:9034, V-B:LYS:547:CE:9922, V-B:VAL:457:CA:9046, V-B:LYS:471:CE:9191, H-B:ARG:545:O:9890, V-B:LYS:471:CG:9189"]

$$$$
4dj_Grossjean_2025
     RDKit          3D

 39 42  0  0  0  0  0  0  0  0999 V2000
  129.2570  125.3230   64.8890 C   0  0  0  0  0  0  0  0  0  0  0  0
  128.8510  126.5300   65.7200 C   0  0  0  0  0  0  0  0  0  0  0  0
  128.3670  127.6590   65.0500 C   0  0  0  0  0  0  0  0  0  0  0  0
  127.9780  128.8040   65.7570 C   0  0  0  0  0  0  0  0  0  0  0  0
  127.4490  130.0280   65.0660 C   0  0  0  0  0  0  0  0  0  0  0  0
  126.1510  130.0490   64.5280 C   0  0  0  0  0  0  0  0  0  0  0  0
  125.6550  131.1800   63.8860 C   0  0  0  0  0  0  0  0  0  0  0  0
  126.4560  132.3120   63.7680 C   0  0  0  0  0  0  0  0  0  0  0  0
  127.7460  132.3180   64.2870 C   0  0  0  0  0  0  0  0  0  0  0  0
  128.2370  131.1860   64.9290 C   0  0  0  0  0  0  0  0  0  0  0  0
  128.0360  128.8630   67.1160 N   0  0  0  0  0  0  0  0  0  0  0  0
  128.4970  127.7890   67.7550 C   0  0  0  0  0  0  0  0  0  0  0  0
  128.6320  127.7330   69.4980 S   0  0  0  0  0  0  0  0  0  0  0  0
  129.2690  126.0880   69.4430 C   0  0  0  0  0  0  0  0  0  0  0  0
  129.6300  125.3930   70.6790 C   0  0  0  0  0  0  0  0  0  0  0  0
  129.7920  126.0180   71.7300 O   0  0  0  0  0  0  0  0  0  0  0  0
  129.7770  124.0490   70.5710 N   0  0  0  0  0  0  0  0  0  0  0  0
  130.1150  123.1630   71.5840 C   0  0  0  0  0  0  0  0  0  0  0  0
  129.5230  122.0300   71.8970 N   0  0  0  0  0  0  0  0  0  0  0  0
  130.1140  121.4410   72.9190 C   0  0  0  0  0  0  0  0  0  0  0  0
  131.2150  122.1000   73.4570 C   0  0  0  0  0  0  0  0  0  0  0  0
  131.4820  123.5710   72.5700 S   0  0  0  0  0  0  0  0  0  0  0  0
  129.3660  125.6280   68.1200 C   0  0  0  0  0  0  0  0  0  0  0  0
  129.8320  124.3830   67.7780 N   0  0  0  0  0  0  0  0  0  0  0  0
  128.9280  126.5810   67.1360 C   0  0  0  0  0  0  0  0  0  0  0  0
  129.5356  124.4948   65.5571 H   0  0  0  0  0  0  0  0  0  0  0  0
  128.4133  125.0142   64.2544 H   0  0  0  0  0  0  0  0  0  0  0  0
  130.1158  125.5869   64.2544 H   0  0  0  0  0  0  0  0  0  0  0  0
  128.2909  127.6473   63.9527 H   0  0  0  0  0  0  0  0  0  0  0  0
  125.5155  129.1555   64.6158 H   0  0  0  0  0  0  0  0  0  0  0  0
  124.6351  131.1791   63.4740 H   0  0  0  0  0  0  0  0  0  0  0  0
  126.0663  133.2072   63.2612 H   0  0  0  0  0  0  0  0  0  0  0  0
  128.3758  133.2146   64.1902 H   0  0  0  0  0  0  0  0  0  0  0  0
  129.2586  131.1960   65.3366 H   0  0  0  0  0  0  0  0  0  0  0  0
  129.6300  123.6390   69.6600 H   0  0  0  0  0  0  0  0  0  0  0  0
  129.7563  120.4825   73.3232 H   0  0  0  0  0  0  0  0  0  0  0  0
  131.8188  121.7473   74.3062 H   0  0  0  0  0  0  0  0  0  0  0  0
  130.7800  124.2360   67.4670 H   0  0  0  0  0  0  0  0  0  0  0  0
  129.2360  123.5690   67.8260 H   0  0  0  0  0  0  0  0  0  0  0  0
  1  2  1  0
  2  3  2  0
  3  4  1  0
  4  5  1  0
  5  6  2  0
  6  7  1  0
  7  8  2  0
  8  9  1  0
  9 10  2  0
  4 11  2  0
 11 12  1  0
 12 13  1  0
 13 14  1  0
 14 15  1  0
 15 16  2  0
 15 17  1  0
 17 18  1  0
 18 19  2  0
 19 20  1  0
 20 21  2  0
 21 22  1  0
 14 23  2  0
 23 24  1  0
 23 25  1  0
 25  2  1  0
 10  5  1  0
 25 12  2  0
 22 18  1  0
  1 26  1  0
  1 27  1  0
  1 28  1  0
  3 29  1  0
  6 30  1  0
  7 31  1  0
  8 32  1  0
  9 33  1  0
 10 34  1  0
 17 35  1  0
 20 36  1  0
 21 37  1  0
 24 38  1  0
 24 39  1  0
M  END
>  <Binding energies>  (1) 
[-8.0]

>  <Ligand effiencies>  (1) 
[-0.2857142857142857]

>  <Interactions>  (1) 
["V-A:HIS:456:CD2:4068, V-B:GLU:543:CD:9880, H-B:LYS:547:NZ:9923, V-B:GLU:543:C:9874, V-B:GLU:543:CB:9878, V-A:HIS:456:CE1:4069, H-A:HIS:456:NE2:4070, V-B:HIS:456:CE1:9040, V-B:GLU:543:CG:9879, V-A:GLU:543:CD:4908, V-B:LEU:475:CD1:9229, V-A:ALA:541:CB:4892, V-B:GLU:543:CA:9876, V-A:TYR:484:CZ:4347, V-A:GLU:543:CB:4906, V-A:TYR:484:CE1:4345, H-A:TYR:484:OH:4348, V-B:TYR:484:CE1:9316, V-A:HIS:456:CG:4066, V-A:TYR:484:CD2:4344, V-A:TYR:484:CE2:4346, V-A:TYR:484:CD1:4343, V-A:HIS:456:CB:4065, V-A:TYR:484:CG:4342, H-B:GLU:543:O:9875, V-A:ASP:473:CG:4240, H-A:HIS:456:ND1:4067, V-A:ASP:473:CB:4239, V-A:TYR:484:CB:4341"]

$$$$
4ea_Grossjean_2025
     RDKit          3D

 52 55  0  0  0  0  0  0  0  0999 V2000
  124.4280  126.9080   73.9840 C   0  0  0  0  0  0  0  0  0  0  0  0
  125.8470  127.4750   73.8900 C   0  0  0  0  0  0  0  0  0  0  0  0
  126.4580  127.0240   72.6880 O   0  0  0  0  0  0  0  0  0  0  0  0
  127.6150  126.3130   72.7120 C   0  0  0  0  0  0  0  0  0  0  0  0
  128.1230  125.8780   73.7500 O   0  0  0  0  0  0  0  0  0  0  0  0
  128.2140  126.1100   71.3500 C   0  0  0  0  0  0  0  0  0  0  0  0
  129.1690  125.1010   71.1680 C   0  0  0  0  0  0  0  0  0  0  0  0
  129.7430  124.8870   69.9180 C   0  0  0  0  0  0  0  0  0  0  0  0
  129.3760  125.6750   68.8260 C   0  0  0  0  0  0  0  0  0  0  0  0
  130.0220  125.3680   67.6130 N   0  0  0  0  0  0  0  0  0  0  0  0
  129.7150  125.7210   66.3400 C   0  0  0  0  0  0  0  0  0  0  0  0
  128.7480  126.4180   66.0280 O   0  0  0  0  0  0  0  0  0  0  0  0
  130.6270  125.2110   65.3140 C   0  0  0  0  0  0  0  0  0  0  0  0
  132.3650  125.4970   65.4410 S   0  0  0  0  0  0  0  0  0  0  0  0
  132.6650  124.6330   63.9500 C   0  0  0  0  0  0  0  0  0  0  0  0
  133.8960  124.4840   63.4580 N   0  0  0  0  0  0  0  0  0  0  0  0
  133.9930  123.7940   62.2950 C   0  0  0  0  0  0  0  0  0  0  0  0
  135.4010  123.6360   61.7530 C   0  0  0  0  0  0  0  0  0  0  0  0
  132.8990  123.2550   61.6200 C   0  0  0  0  0  0  0  0  0  0  0  0
  131.6100  123.4140   62.1400 C   0  0  0  0  0  0  0  0  0  0  0  0
  130.4590  122.8360   61.4120 C   0  0  0  0  0  0  0  0  0  0  0  0
  129.5910  123.6660   60.6950 C   0  0  0  0  0  0  0  0  0  0  0  0
  128.5090  123.1230   60.0070 C   0  0  0  0  0  0  0  0  0  0  0  0
  128.2920  121.7480   60.0400 C   0  0  0  0  0  0  0  0  0  0  0  0
  129.1470  120.9120   60.7550 C   0  0  0  0  0  0  0  0  0  0  0  0
  130.2280  121.4570   61.4420 C   0  0  0  0  0  0  0  0  0  0  0  0
  131.4660  124.1320   63.3590 C   0  0  0  0  0  0  0  0  0  0  0  0
  130.3180  124.4760   64.1580 C   0  0  0  0  0  0  0  0  0  0  0  0
  129.0450  124.1100   63.8040 N   0  0  0  0  0  0  0  0  0  0  0  0
  128.4200  126.6880   69.0000 C   0  0  0  0  0  0  0  0  0  0  0  0
  127.8470  126.9000   70.2500 C   0  0  0  0  0  0  0  0  0  0  0  0
  124.1473  126.7958   75.0416 H   0  0  0  0  0  0  0  0  0  0  0  0
  123.7253  127.5944   73.4889 H   0  0  0  0  0  0  0  0  0  0  0  0
  124.3918  125.9264   73.4889 H   0  0  0  0  0  0  0  0  0  0  0  0
  125.8035  128.5741   73.8894 H   0  0  0  0  0  0  0  0  0  0  0  0
  126.4371  127.1323   74.7527 H   0  0  0  0  0  0  0  0  0  0  0  0
  129.4677  124.4727   72.0201 H   0  0  0  0  0  0  0  0  0  0  0  0
  130.4913  124.0910   69.7899 H   0  0  0  0  0  0  0  0  0  0  0  0
  130.8440  124.7930   67.7210 H   0  0  0  0  0  0  0  0  0  0  0  0
  136.1096  123.5565   62.5906 H   0  0  0  0  0  0  0  0  0  0  0  0
  135.4571  122.7259   61.1377 H   0  0  0  0  0  0  0  0  0  0  0  0
  135.6574  124.5110   61.1377 H   0  0  0  0  0  0  0  0  0  0  0  0
  133.0491  122.7051   60.6792 H   0  0  0  0  0  0  0  0  0  0  0  0
  129.7638  124.7521   60.6745 H   0  0  0  0  0  0  0  0  0  0  0  0
  127.8294  123.7767   59.4405 H   0  0  0  0  0  0  0  0  0  0  0  0
  127.4378  121.3179   59.4966 H   0  0  0  0  0  0  0  0  0  0  0  0
  128.9687  119.8268   60.7765 H   0  0  0  0  0  0  0  0  0  0  0  0
  130.9031  120.8006   62.0106 H   0  0  0  0  0  0  0  0  0  0  0  0
  128.2410  124.6760   64.0420 H   0  0  0  0  0  0  0  0  0  0  0  0
  128.8650  123.2580   63.2910 H   0  0  0  0  0  0  0  0  0  0  0  0
  128.1233  127.3154   68.1465 H   0  0  0  0  0  0  0  0  0  0  0  0
  127.0981  127.6956   70.3773 H   0  0  0  0  0  0  0  0  0  0  0  0
  1  2  1  0
  2  3  1  0
  3  4  1  0
  4  5  2  0
  4  6  1  0
  6  7  2  0
  7  8  1  0
  8  9  2  0
  9 10  1  0
 10 11  1  0
 11 12  2  0
 11 13  1  0
 13 14  1  0
 14 15  1  0
 15 16  2  0
 16 17  1  0
 17 18  1  0
 17 19  2  0
 19 20  1  0
 20 21  1  0
 21 22  2  0
 22 23  1  0
 23 24  2  0
 24 25  1  0
 25 26  2  0
 20 27  2  0
 27 28  1  0
 28 29  1  0
  9 30  1  0
 30 31  2  0
 31  6  1  0
 28 13  2  0
 27 15  1  0
 26 21  1  0
  1 32  1  0
  1 33  1  0
  1 34  1  0
  2 35  1  0
  2 36  1  0
  7 37  1  0
  8 38  1  0
 10 39  1  0
 18 40  1  0
 18 41  1  0
 18 42  1  0
 19 43  1  0
 22 44  1  0
 23 45  1  0
 24 46  1  0
 25 47  1  0
 26 48  1  0
 29 49  1  0
 29 50  1  0
 30 51  1  0
 31 52  1  0
M  END
>  <Binding energies>  (1) 
[-8.46]

>  <Ligand effiencies>  (1) 
[-0.24882352941176472]

>  <Interactions>  (1) 
["V-A:HIS:456:CD2:4068, V-B:GLU:543:CD:9880, H-B:LYS:547:NZ:9923, V-B:GLU:543:CB:9878, V-A:HIS:456:CE1:4069, V-B:HIS:456:CE1:9040, V-B:GLU:543:CG:9879, V-B:ALA:541:CB:9864, V-A:TYR:484:CZ:4347, V-A:TYR:484:CE1:4345, H-A:GLY:454:N:4050, V-A:GLY:453:CA:4044, H-A:ARG:545:NH2:4928, H-A:TYR:484:OH:4348, V-A:GLY:453:C:4042, V-A:GLY:454:CA:4049, V-B:TYR:539:CE2:9848, V-B:PRO:540:CA:9855, V-A:ILE:369:CD1:3239, V-B:TYR:539:CD2:9846, V-B:ALA:541:CA:9862, V-B:GLY:544:C:9884, V-B:PRO:540:N:9856, V-B:TYR:539:C:9839, V-A:HIS:456:CG:4066, H-B:GLU:543:OE1:9881, V-B:PRO:540:C:9853, H-B:GLU:543:OE2:9882, V-B:HIS:456:CB:9036, V-B:LYS:547:CD:9921, V-B:ARG:545:C:9889, V-B:HIS:456:CG:9037, H-A:HIS:456:ND1:4067"]

$$$$
4eb_Grossjean_2025
     RDKit          3D

 49 52  0  0  0  0  0  0  0  0999 V2000
  125.3230  127.4310   73.1770 C   0  0  0  0  0  0  0  0  0  0  0  0
  126.4580  127.4060   72.3240 O   0  0  0  0  0  0  0  0  0  0  0  0
  127.4930  126.5590   72.5640 C   0  0  0  0  0  0  0  0  0  0  0  0
  127.8080  126.1740   73.6930 O   0  0  0  0  0  0  0  0  0  0  0  0
  128.2160  126.1380   71.3170 C   0  0  0  0  0  0  0  0  0  0  0  0
  128.0070  126.8540   70.1310 C   0  0  0  0  0  0  0  0  0  0  0  0
  128.6620  126.4890   68.9590 C   0  0  0  0  0  0  0  0  0  0  0  0
  129.5390  125.4030   68.9460 C   0  0  0  0  0  0  0  0  0  0  0  0
  130.1440  125.1250   67.7050 N   0  0  0  0  0  0  0  0  0  0  0  0
  129.7220  125.3880   66.4440 C   0  0  0  0  0  0  0  0  0  0  0  0
  128.6630  125.9540   66.1710 O   0  0  0  0  0  0  0  0  0  0  0  0
  130.6260  124.9490   65.3780 C   0  0  0  0  0  0  0  0  0  0  0  0
  132.3640  125.2310   65.5090 S   0  0  0  0  0  0  0  0  0  0  0  0
  132.6530  124.4670   63.9620 C   0  0  0  0  0  0  0  0  0  0  0  0
  133.8800  124.3530   63.4510 N   0  0  0  0  0  0  0  0  0  0  0  0
  133.9680  123.7410   62.2450 C   0  0  0  0  0  0  0  0  0  0  0  0
  135.3730  123.6230   61.6820 C   0  0  0  0  0  0  0  0  0  0  0  0
  132.8710  123.2440   61.5460 C   0  0  0  0  0  0  0  0  0  0  0  0
  131.5860  123.3650   62.0870 C   0  0  0  0  0  0  0  0  0  0  0  0
  130.4290  122.8310   61.3310 C   0  0  0  0  0  0  0  0  0  0  0  0
  130.1370  121.4650   61.3670 C   0  0  0  0  0  0  0  0  0  0  0  0
  129.0480  120.9620   60.6580 C   0  0  0  0  0  0  0  0  0  0  0  0
  128.2520  121.8280   59.9120 C   0  0  0  0  0  0  0  0  0  0  0  0
  128.5370  123.1920   59.8680 C   0  0  0  0  0  0  0  0  0  0  0  0
  129.6260  123.6920   60.5770 C   0  0  0  0  0  0  0  0  0  0  0  0
  131.4500  124.0020   63.3500 C   0  0  0  0  0  0  0  0  0  0  0  0
  130.3100  124.2900   64.1800 C   0  0  0  0  0  0  0  0  0  0  0  0
  129.0330  123.9430   63.8150 N   0  0  0  0  0  0  0  0  0  0  0  0
  129.7550  124.6800   70.1290 C   0  0  0  0  0  0  0  0  0  0  0  0
  129.0980  125.0460   71.3010 C   0  0  0  0  0  0  0  0  0  0  0  0
  125.6528  127.4237   74.2264 H   0  0  0  0  0  0  0  0  0  0  0  0
  124.7383  128.3422   72.9827 H   0  0  0  0  0  0  0  0  0  0  0  0
  124.6987  126.5464   72.9827 H   0  0  0  0  0  0  0  0  0  0  0  0
  127.3190  127.7123   70.1264 H   0  0  0  0  0  0  0  0  0  0  0  0
  128.4874  127.0606   68.0355 H   0  0  0  0  0  0  0  0  0  0  0  0
  131.0340  124.6560   67.7800 H   0  0  0  0  0  0  0  0  0  0  0  0
  136.0956  123.5623   62.5092 H   0  0  0  0  0  0  0  0  0  0  0  0
  135.4455  122.7156   61.0645 H   0  0  0  0  0  0  0  0  0  0  0  0
  135.5959  124.5056   61.0645 H   0  0  0  0  0  0  0  0  0  0  0  0
  133.0142  122.7570   60.5701 H   0  0  0  0  0  0  0  0  0  0  0  0
  130.7688  120.7846   61.9569 H   0  0  0  0  0  0  0  0  0  0  0  0
  128.8182  119.8867   60.6873 H   0  0  0  0  0  0  0  0  0  0  0  0
  127.3913  121.4324   59.3529 H   0  0  0  0  0  0  0  0  0  0  0  0
  127.9046  123.8699   59.2760 H   0  0  0  0  0  0  0  0  0  0  0  0
  129.8552  124.7673   60.5438 H   0  0  0  0  0  0  0  0  0  0  0  0
  128.8480  123.1410   63.2300 H   0  0  0  0  0  0  0  0  0  0  0  0
  128.2330  124.4820   64.1190 H   0  0  0  0  0  0  0  0  0  0  0  0
  130.4444  123.8228   70.1306 H   0  0  0  0  0  0  0  0  0  0  0  0
  129.2720  124.4734   72.2240 H   0  0  0  0  0  0  0  0  0  0  0  0
  1  2  1  0
  2  3  1  0
  3  4  2  0
  3  5  1  0
  5  6  2  0
  6  7  1  0
  7  8  2  0
  8  9  1  0
  9 10  1  0
 10 11  2  0
 10 12  1  0
 12 13  1  0
 13 14  1  0
 14 15  2  0
 15 16  1  0
 16 17  1  0
 16 18  2  0
 18 19  1  0
 19 20  1  0
 20 21  2  0
 21 22  1  0
 22 23  2  0
 23 24  1  0
 24 25  2  0
 19 26  2  0
 26 27  1  0
 27 28  1  0
  8 29  1  0
 29 30  2  0
 30  5  1  0
 27 12  2  0
 26 14  1  0
 25 20  1  0
  1 31  1  0
  1 32  1  0
  1 33  1  0
  6 34  1  0
  7 35  1  0
  9 36  1  0
 17 37  1  0
 17 38  1  0
 17 39  1  0
 18 40  1  0
 21 41  1  0
 22 42  1  0
 23 43  1  0
 24 44  1  0
 25 45  1  0
 28 46  1  0
 28 47  1  0
 29 48  1  0
 30 49  1  0
M  END
>  <Binding energies>  (1) 
[-8.03]

>  <Ligand effiencies>  (1) 
[-0.24333333333333332]

>  <Interactions>  (1) 
["V-A:HIS:456:CD2:4068, V-B:GLU:543:CD:9880, H-B:LYS:547:NZ:9923, V-B:GLU:543:C:9874, V-B:GLU:543:CB:9878, V-A:HIS:456:CE1:4069, V-B:HIS:456:CE1:9040, V-B:GLU:543:CG:9879, V-B:ALA:541:CB:9864, V-A:TYR:484:CZ:4347, V-A:TYR:484:CE1:4345, H-A:GLY:454:N:4050, V-A:GLY:453:CA:4044, H-A:TYR:484:OH:4348, V-A:GLY:453:C:4042, V-B:TYR:539:CE2:9848, V-B:PRO:540:CA:9855, V-A:ILE:369:CD1:3239, V-B:TYR:539:CD2:9846, V-B:ALA:541:CA:9862, V-B:GLY:544:C:9884, V-B:ARG:545:CA:9891, V-B:PRO:540:N:9856, V-B:TYR:539:C:9839, V-A:HIS:456:CG:4066, H-B:GLU:543:OE1:9881, V-B:PRO:540:C:9853, H-B:GLU:543:OE2:9882, V-B:HIS:456:CB:9036, V-B:ARG:545:C:9889, V-B:HIS:456:CG:9037, V-B:HIS:456:CA:9034, H-A:HIS:456:ND1:4067"]

$$$$
8a_Ghoteimi_2023
     RDKit          3D

 67 71  0  0  0  0  0  0  0  0999 V2000
  125.6410  134.1820   60.6950 C   0  0  0  0  0  0  0  0  0  0  0  0
  124.1500  133.8590   60.5580 C   0  0  0  0  0  0  0  0  0  0  0  0
  123.9560  132.9760   59.4610 O   0  0  0  0  0  0  0  0  0  0  0  0
  123.5210  131.7030   59.6540 C   0  0  0  0  0  0  0  0  0  0  0  0
  122.6330  131.1780   58.9750 O   0  0  0  0  0  0  0  0  0  0  0  0
  124.2220  131.0000   60.7810 C   0  0  0  0  0  0  0  0  0  0  0  0
  125.4540  130.3810   60.5380 C   0  0  0  0  0  0  0  0  0  0  0  0
  126.1280  129.7200   61.5610 C   0  0  0  0  0  0  0  0  0  0  0  0
  125.5870  129.6630   62.8460 C   0  0  0  0  0  0  0  0  0  0  0  0
  126.3550  128.9640   63.7990 N   0  0  0  0  0  0  0  0  0  0  0  0
  127.5890  129.2280   64.2940 C   0  0  0  0  0  0  0  0  0  0  0  0
  128.2800  130.1890   63.9590 O   0  0  0  0  0  0  0  0  0  0  0  0
  128.0770  128.2740   65.2940 C   0  0  0  0  0  0  0  0  0  0  0  0
  127.8730  128.6040   67.0140 S   0  0  0  0  0  0  0  0  0  0  0  0
  128.6730  127.1100   67.4440 C   0  0  0  0  0  0  0  0  0  0  0  0
  128.8700  126.7620   68.7150 N   0  0  0  0  0  0  0  0  0  0  0  0
  129.5080  125.5820   68.9400 C   0  0  0  0  0  0  0  0  0  0  0  0
  129.7360  125.2210   70.3730 C   0  0  0  0  0  0  0  0  0  0  0  0
  129.4050  126.1110   71.4050 C   0  0  0  0  0  0  0  0  0  0  0  0
  129.6300  125.7740   72.7360 C   0  0  0  0  0  0  0  0  0  0  0  0
  130.1880  124.5410   73.0700 C   0  0  0  0  0  0  0  0  0  0  0  0
  130.3780  124.2940   74.4170 O   0  0  0  0  0  0  0  0  0  0  0  0
  131.6810  123.9610   74.8830 C   0  0  0  0  0  0  0  0  0  0  0  0
  130.5170  123.6420   72.0460 C   0  0  0  0  0  0  0  0  0  0  0  0
  130.2930  123.9830   70.7150 C   0  0  0  0  0  0  0  0  0  0  0  0
  129.9370  124.7560   67.8990 C   0  0  0  0  0  0  0  0  0  0  0  0
  129.7180  125.1100   66.5630 C   0  0  0  0  0  0  0  0  0  0  0  0
  130.1670  124.1800   65.4960 C   0  0  0  0  0  0  0  0  0  0  0  0
  129.4210  123.0370   65.2010 C   0  0  0  0  0  0  0  0  0  0  0  0
  129.8260  122.1730   64.1870 C   0  0  0  0  0  0  0  0  0  0  0  0
  130.9800  122.4390   63.4480 C   0  0  0  0  0  0  0  0  0  0  0  0
  131.3050  121.5270   62.4630 O   0  0  0  0  0  0  0  0  0  0  0  0
  130.2650  120.9420   61.6880 C   0  0  0  0  0  0  0  0  0  0  0  0
  131.7270  123.5910   63.7380 C   0  0  0  0  0  0  0  0  0  0  0  0
  131.3170  124.4550   64.7520 C   0  0  0  0  0  0  0  0  0  0  0  0
  129.0720  126.3520   66.3040 C   0  0  0  0  0  0  0  0  0  0  0  0
  128.7350  127.0500   65.0880 C   0  0  0  0  0  0  0  0  0  0  0  0
  129.0500  126.5610   63.8450 N   0  0  0  0  0  0  0  0  0  0  0  0
  124.3550  130.2850   63.0990 C   0  0  0  0  0  0  0  0  0  0  0  0
  123.6810  130.9460   62.0750 C   0  0  0  0  0  0  0  0  0  0  0  0
  125.9073  134.2397   61.7607 H   0  0  0  0  0  0  0  0  0  0  0  0
  126.2334  133.3914   60.2113 H   0  0  0  0  0  0  0  0  0  0  0  0
  125.8531  135.1469   60.2113 H   0  0  0  0  0  0  0  0  0  0  0  0
  123.7919  133.3807   61.4816 H   0  0  0  0  0  0  0  0  0  0  0  0
  123.5876  134.7884   60.3849 H   0  0  0  0  0  0  0  0  0  0  0  0
  125.8931  130.4173   59.5301 H   0  0  0  0  0  0  0  0  0  0  0  0
  127.0953  129.2385   61.3547 H   0  0  0  0  0  0  0  0  0  0  0  0
  125.8990  128.1450   64.1720 H   0  0  0  0  0  0  0  0  0  0  0  0
  128.9621  127.0874   71.1592 H   0  0  0  0  0  0  0  0  0  0  0  0
  129.3654  126.4864   73.5313 H   0  0  0  0  0  0  0  0  0  0  0  0
  131.6877  123.9593   75.9830 H   0  0  0  0  0  0  0  0  0  0  0  0
  131.9588  122.9630   74.5131 H   0  0  0  0  0  0  0  0  0  0  0  0
  132.4035  124.7034   74.5131 H   0  0  0  0  0  0  0  0  0  0  0  0
  130.9537  122.6636   72.2950 H   0  0  0  0  0  0  0  0  0  0  0  0
  130.5574  123.2695   69.9207 H   0  0  0  0  0  0  0  0  0  0  0  0
  130.4544  123.8138   68.1325 H   0  0  0  0  0  0  0  0  0  0  0  0
  128.5076  122.8178   65.7734 H   0  0  0  0  0  0  0  0  0  0  0  0
  129.2320  121.2738   63.9665 H   0  0  0  0  0  0  0  0  0  0  0  0
  129.5046  120.5143   62.3580 H   0  0  0  0  0  0  0  0  0  0  0  0
  129.8028  121.7125   61.0534 H   0  0  0  0  0  0  0  0  0  0  0  0
  130.6835  120.1469   61.0534 H   0  0  0  0  0  0  0  0  0  0  0  0
  132.6385  123.8127   63.1636 H   0  0  0  0  0  0  0  0  0  0  0  0
  131.9034  125.3603   64.9681 H   0  0  0  0  0  0  0  0  0  0  0  0
  129.9660  126.6990   63.4420 H   0  0  0  0  0  0  0  0  0  0  0  0
  128.3820  126.0430   63.2930 H   0  0  0  0  0  0  0  0  0  0  0  0
  123.9203  130.2505   64.1089 H   0  0  0  0  0  0  0  0  0  0  0  0
  122.7154  131.4304   62.2824 H   0  0  0  0  0  0  0  0  0  0  0  0
  1  2  1  0
  2  3  1  0
  3  4  1  0
  4  5  2  0
  4  6  1  0
  6  7  2  0
  7  8  1  0
  8  9  2  0
  9 10  1  0
 10 11  1  0
 11 12  2  0
 11 13  1  0
 13 14  1  0
 14 15  1  0
 15 16  2  0
 16 17  1  0
 17 18  1  0
 18 19  2  0
 19 20  1  0
 20 21  2  0
 21 22  1  0
 22 23  1  0
 21 24  1  0
 24 25  2  0
 17 26  2  0
 26 27  1  0
 27 28  1  0
 28 29  2  0
 29 30  1  0
 30 31  2  0
 31 32  1  0
 32 33  1  0
 31 34  1  0
 34 35  2  0
 27 36  2  0
 36 37  1  0
 37 38  1  0
  9 39  1  0
 39 40  2  0
 40  6  1  0
 37 13  2  0
 36 15  1  0
 25 18  1  0
 35 28  1  0
  1 41  1  0
  1 42  1  0
  1 43  1  0
  2 44  1  0
  2 45  1  0
  7 46  1  0
  8 47  1  0
 10 48  1  0
 19 49  1  0
 20 50  1  0
 23 51  1  0
 23 52  1  0
 23 53  1  0
 24 54  1  0
 25 55  1  0
 26 56  1  0
 29 57  1  0
 30 58  1  0
 33 59  1  0
 33 60  1  0
 33 61  1  0
 34 62  1  0
 35 63  1  0
 38 64  1  0
 38 65  1  0
 39 66  1  0
 40 67  1  0
M  END
>  <Binding energies>  (1) 
[-8.01]

>  <Ligand effiencies>  (1) 
[-0.18627906976744185]

>  <Interactions>  (1) 
["V-A:HIS:456:CD2:4068, V-B:GLU:543:CD:9880, H-B:LYS:547:NZ:9923, V-B:GLU:543:C:9874, V-B:GLU:543:CB:9878, V-A:HIS:456:CE1:4069, V-B:ARG:545:CZ:9898, H-A:GLU:543:OE1:4909, H-A:HIS:456:NE2:4070, V-B:HIS:456:CE1:9040, V-B:GLU:543:CG:9879, H-A:GLU:543:OE2:4910, V-A:GLU:543:CD:4908, V-B:ILE:369:CB:8207, V-B:ASP:366:CG:8184, V-B:LEU:475:CD1:9229, V-B:ILE:369:CD1:8210, V-A:TYR:539:CE2:4876, V-B:ILE:369:CG2:8208, V-A:TYR:539:CD2:4874, V-B:ALA:541:CB:9864, V-B:GLU:543:CA:9876, V-A:TYR:484:CZ:4347, V-A:LEU:475:CD1:4258, V-A:TYR:484:CE1:4345, H-A:TYR:539:OH:4878, V-A:HIS:456:CG:4066, H-B:GLU:543:OE1:9881, V-A:TYR:484:CD2:4344, V-A:TYR:484:CE2:4346, V-A:TYR:484:CD1:4343, H-B:GLU:543:OE2:9882"]

$$$$
8b_Ghoteimi_2023
     RDKit          3D

 54 58  0  0  0  0  0  0  0  0999 V2000
  123.3850  131.6640   62.0340 C   0  0  0  0  0  0  0  0  0  0  0  0
  123.9060  131.9880   63.3190 O   0  0  0  0  0  0  0  0  0  0  0  0
  124.7520  131.0940   63.9480 C   0  0  0  0  0  0  0  0  0  0  0  0
  124.1720  130.2360   64.8790 C   0  0  0  0  0  0  0  0  0  0  0  0
  124.9460  129.3040   65.5620 C   0  0  0  0  0  0  0  0  0  0  0  0
  126.3260  129.2050   65.3300 C   0  0  0  0  0  0  0  0  0  0  0  0
  127.1640  128.2060   66.0620 C   0  0  0  0  0  0  0  0  0  0  0  0
  128.1820  127.4890   65.4240 C   0  0  0  0  0  0  0  0  0  0  0  0
  128.9510  126.5610   66.1320 C   0  0  0  0  0  0  0  0  0  0  0  0
  130.0150  125.8110   65.4240 C   0  0  0  0  0  0  0  0  0  0  0  0
  131.3370  125.8790   65.8670 C   0  0  0  0  0  0  0  0  0  0  0  0
  132.3340  125.1660   65.2060 C   0  0  0  0  0  0  0  0  0  0  0  0
  132.0260  124.3790   64.0950 C   0  0  0  0  0  0  0  0  0  0  0  0
  133.0780  123.7060   63.5050 O   0  0  0  0  0  0  0  0  0  0  0  0
  133.8660  124.3730   62.5240 C   0  0  0  0  0  0  0  0  0  0  0  0
  130.6970  124.3160   63.6500 C   0  0  0  0  0  0  0  0  0  0  0  0
  129.7000  125.0290   64.3120 C   0  0  0  0  0  0  0  0  0  0  0  0
  128.6740  126.3760   67.5130 C   0  0  0  0  0  0  0  0  0  0  0  0
  129.2580  125.5310   68.5210 C   0  0  0  0  0  0  0  0  0  0  0  0
  130.2970  124.6770   68.2520 N   0  0  0  0  0  0  0  0  0  0  0  0
  128.6680  125.6660   69.7880 C   0  0  0  0  0  0  0  0  0  0  0  0
  129.0090  124.9720   71.0310 C   0  0  0  0  0  0  0  0  0  0  0  0
  128.7740  125.4900   72.1260 O   0  0  0  0  0  0  0  0  0  0  0  0
  129.5880  123.7550   70.8780 N   0  0  0  0  0  0  0  0  0  0  0  0
  130.0070  122.8860   71.8760 C   0  0  0  0  0  0  0  0  0  0  0  0
  131.1600  123.0930   72.6310 C   0  0  0  0  0  0  0  0  0  0  0  0
  131.2200  122.0220   73.4940 C   0  0  0  0  0  0  0  0  0  0  0  0
  130.1560  121.2140   73.2730 O   0  0  0  0  0  0  0  0  0  0  0  0
  129.3930  121.7730   72.2460 N   0  0  0  0  0  0  0  0  0  0  0  0
  127.3660  126.8570   69.7600 S   0  0  0  0  0  0  0  0  0  0  0  0
  127.6190  127.1640   68.0570 C   0  0  0  0  0  0  0  0  0  0  0  0
  126.8830  128.0470   67.3830 N   0  0  0  0  0  0  0  0  0  0  0  0
  126.9030  130.0690   64.3900 C   0  0  0  0  0  0  0  0  0  0  0  0
  126.1310  131.0040   63.7050 C   0  0  0  0  0  0  0  0  0  0  0  0
  122.4561  131.0863   62.1500 H   0  0  0  0  0  0  0  0  0  0  0  0
  123.1739  132.5904   61.4797 H   0  0  0  0  0  0  0  0  0  0  0  0
  124.1225  131.0650   61.4797 H   0  0  0  0  0  0  0  0  0  0  0  0
  123.0915  130.2960   65.0760 H   0  0  0  0  0  0  0  0  0  0  0  0
  124.4696  128.6354   66.2941 H   0  0  0  0  0  0  0  0  0  0  0  0
  128.3791  127.6572   64.3550 H   0  0  0  0  0  0  0  0  0  0  0  0
  131.5919  126.4973   66.7404 H   0  0  0  0  0  0  0  0  0  0  0  0
  133.3731  125.2235   65.5624 H   0  0  0  0  0  0  0  0  0  0  0  0
  134.6142  125.0063   63.0232 H   0  0  0  0  0  0  0  0  0  0  0  0
  134.3765  123.6284   61.8955 H   0  0  0  0  0  0  0  0  0  0  0  0
  133.2160  124.9995   61.8955 H   0  0  0  0  0  0  0  0  0  0  0  0
  130.4411  123.7010   62.7746 H   0  0  0  0  0  0  0  0  0  0  0  0
  128.6603  124.9754   63.9568 H   0  0  0  0  0  0  0  0  0  0  0  0
  130.4780  124.3480   67.3140 H   0  0  0  0  0  0  0  0  0  0  0  0
  130.9150  124.3460   68.9800 H   0  0  0  0  0  0  0  0  0  0  0  0
  129.7330  123.4320   69.9330 H   0  0  0  0  0  0  0  0  0  0  0  0
  131.8687  123.9308   72.5540 H   0  0  0  0  0  0  0  0  0  0  0  0
  132.0066  121.8501   74.2434 H   0  0  0  0  0  0  0  0  0  0  0  0
  127.9829  130.0078   64.1899 H   0  0  0  0  0  0  0  0  0  0  0  0
  126.6036  131.6738   62.9715 H   0  0  0  0  0  0  0  0  0  0  0  0
  1  2  1  0
  2  3  1  0
  3  4  2  0
  4  5  1  0
  5  6  2  0
  6  7  1  0
  7  8  2  0
  8  9  1  0
  9 10  1  0
 10 11  2  0
 11 12  1  0
 12 13  2  0
 13 14  1  0
 14 15  1  0
 13 16  1  0
 16 17  2  0
  9 18  2  0
 18 19  1  0
 19 20  1  0
 19 21  2  0
 21 22  1  0
 22 23  2  0
 22 24  1  0
 24 25  1  0
 25 26  1  0
 26 27  2  0
 27 28  1  0
 28 29  1  0
 21 30  1  0
 30 31  1  0
 31 32  2  0
  6 33  1  0
 33 34  2  0
 34  3  1  0
 32  7  1  0
 17 10  1  0
 31 18  1  0
 29 25  2  0
  1 35  1  0
  1 36  1  0
  1 37  1  0
  4 38  1  0
  5 39  1  0
  8 40  1  0
 11 41  1  0
 12 42  1  0
 15 43  1  0
 15 44  1  0
 15 45  1  0
 16 46  1  0
 17 47  1  0
 20 48  1  0
 20 49  1  0
 24 50  1  0
 26 51  1  0
 27 52  1  0
 33 53  1  0
 34 54  1  0
M  END
>  <Binding energies>  (1) 
[-9.62]

>  <Ligand effiencies>  (1) 
[-0.25999999999999995]

>  <Interactions>  (1) 
["V-B:GLU:543:CD:9880, H-B:LYS:547:NZ:9923, V-B:GLU:543:C:9874, V-B:GLU:543:CB:9878, V-A:HIS:456:CE1:4069, V-B:ARG:545:CZ:9898, V-B:ARG:545:CD:9895, V-B:HIS:456:CE1:9040, V-B:GLU:543:CG:9879, V-A:GLU:543:CD:4908, H-B:GLY:454:N:9021, V-B:GLY:454:CA:9020, V-B:ILE:369:CD1:8210, V-A:TYR:484:CZ:4347, V-A:TYR:484:CE1:4345, H-A:GLY:454:N:4050, V-A:ARG:545:CZ:4926, H-A:TYR:484:OH:4348, V-B:GLY:544:C:9884, V-A:HIS:456:CG:4066, V-A:TYR:484:CD2:4344, V-A:TYR:484:CE2:4346, V-A:TYR:484:CD1:4343, V-A:HIS:456:CB:4065, V-A:TYR:484:CG:4342, H-B:GLU:543:O:9875, V-A:ASP:473:CG:4240, H-A:HIS:456:ND1:4067, V-A:ASP:473:CB:4239, V-A:TYR:484:CB:4341"]

$$$$
8c_Ghoteimi_2023
     RDKit          3D

 54 58  0  0  0  0  0  0  0  0999 V2000
  123.4050  131.3920   61.8930 C   0  0  0  0  0  0  0  0  0  0  0  0
  123.8590  131.7690   63.1880 O   0  0  0  0  0  0  0  0  0  0  0  0
  124.5950  130.8670   63.9340 C   0  0  0  0  0  0  0  0  0  0  0  0
  125.8620  130.5480   63.4510 C   0  0  0  0  0  0  0  0  0  0  0  0
  126.6720  129.6470   64.1350 C   0  0  0  0  0  0  0  0  0  0  0  0
  126.2350  129.0410   65.3220 C   0  0  0  0  0  0  0  0  0  0  0  0
  127.1000  128.0680   66.0600 C   0  0  0  0  0  0  0  0  0  0  0  0
  128.1690  127.4140   65.4400 C   0  0  0  0  0  0  0  0  0  0  0  0
  128.9640  126.5110   66.1540 C   0  0  0  0  0  0  0  0  0  0  0  0
  130.0830  125.8290   65.4650 C   0  0  0  0  0  0  0  0  0  0  0  0
  131.3740  125.8840   65.9950 C   0  0  0  0  0  0  0  0  0  0  0  0
  132.4230  125.2340   65.3520 C   0  0  0  0  0  0  0  0  0  0  0  0
  132.2000  124.5230   64.1720 C   0  0  0  0  0  0  0  0  0  0  0  0
  133.2990  123.9070   63.6050 O   0  0  0  0  0  0  0  0  0  0  0  0
  133.7690  124.3540   62.3380 C   0  0  0  0  0  0  0  0  0  0  0  0
  130.9020  124.4710   63.6390 C   0  0  0  0  0  0  0  0  0  0  0  0
  129.8540  125.1220   64.2830 C   0  0  0  0  0  0  0  0  0  0  0  0
  128.6560  126.2860   67.5220 C   0  0  0  0  0  0  0  0  0  0  0  0
  129.2490  125.4500   68.5310 C   0  0  0  0  0  0  0  0  0  0  0  0
  130.3360  124.6510   68.2780 N   0  0  0  0  0  0  0  0  0  0  0  0
  128.6160  125.5300   69.7820 C   0  0  0  0  0  0  0  0  0  0  0  0
  128.9540  124.8280   71.0220 C   0  0  0  0  0  0  0  0  0  0  0  0
  128.6750  125.3160   72.1190 O   0  0  0  0  0  0  0  0  0  0  0  0
  129.5810  123.6360   70.8630 N   0  0  0  0  0  0  0  0  0  0  0  0
  130.0040  122.7750   71.8650 C   0  0  0  0  0  0  0  0  0  0  0  0
  129.4510  121.6440   72.2460 N   0  0  0  0  0  0  0  0  0  0  0  0
  130.1230  121.0830   73.2300 C   0  0  0  0  0  0  0  0  0  0  0  0
  131.2520  121.7650   73.6720 C   0  0  0  0  0  0  0  0  0  0  0  0
  131.4330  123.2210   72.7400 S   0  0  0  0  0  0  0  0  0  0  0  0
  127.2610  126.6590   69.7380 S   0  0  0  0  0  0  0  0  0  0  0  0
  127.5480  127.0110   68.0500 C   0  0  0  0  0  0  0  0  0  0  0  0
  126.7890  127.8710   67.3700 N   0  0  0  0  0  0  0  0  0  0  0  0
  124.9600  129.3690   65.8020 C   0  0  0  0  0  0  0  0  0  0  0  0
  124.1470  130.2690   65.1200 C   0  0  0  0  0  0  0  0  0  0  0  0
  122.5620  130.6920   61.9894 H   0  0  0  0  0  0  0  0  0  0  0  0
  123.0773  132.2873   61.3443 H   0  0  0  0  0  0  0  0  0  0  0  0
  124.2248  130.9053   61.3443 H   0  0  0  0  0  0  0  0  0  0  0  0
  126.2248  131.0119   62.5219 H   0  0  0  0  0  0  0  0  0  0  0  0
  127.6697  129.4064   63.7391 H   0  0  0  0  0  0  0  0  0  0  0  0
  128.3872  127.6115   64.3801 H   0  0  0  0  0  0  0  0  0  0  0  0
  131.5621  126.4429   66.9236 H   0  0  0  0  0  0  0  0  0  0  0  0
  133.4364  125.2810   65.7773 H   0  0  0  0  0  0  0  0  0  0  0  0
  134.5590  125.1053   62.4842 H   0  0  0  0  0  0  0  0  0  0  0  0
  134.1746  123.5002   61.7753 H   0  0  0  0  0  0  0  0  0  0  0  0
  132.9366  124.8019   61.7753 H   0  0  0  0  0  0  0  0  0  0  0  0
  130.7129  123.9140   62.7095 H   0  0  0  0  0  0  0  0  0  0  0  0
  128.8401  125.0793   63.8586 H   0  0  0  0  0  0  0  0  0  0  0  0
  130.5410  124.3200   67.3450 H   0  0  0  0  0  0  0  0  0  0  0  0
  130.9660  124.3630   69.0120 H   0  0  0  0  0  0  0  0  0  0  0  0
  129.7600  123.3300   69.9170 H   0  0  0  0  0  0  0  0  0  0  0  0
  129.8090  120.1284   73.6774 H   0  0  0  0  0  0  0  0  0  0  0  0
  131.9217  121.4362   74.4803 H   0  0  0  0  0  0  0  0  0  0  0  0
  124.5963  128.9079   66.7321 H   0  0  0  0  0  0  0  0  0  0  0  0
  123.1488  130.5122   65.5131 H   0  0  0  0  0  0  0  0  0  0  0  0
  1  2  1  0
  2  3  1  0
  3  4  2  0
  4  5  1  0
  5  6  2  0
  6  7  1  0
  7  8  2  0
  8  9  1  0
  9 10  1  0
 10 11  2  0
 11 12  1  0
 12 13  2  0
 13 14  1  0
 14 15  1  0
 13 16  1  0
 16 17  2  0
  9 18  2  0
 18 19  1  0
 19 20  1  0
 19 21  2  0
 21 22  1  0
 22 23  2  0
 22 24  1  0
 24 25  1  0
 25 26  2  0
 26 27  1  0
 27 28  2  0
 28 29  1  0
 21 30  1  0
 30 31  1  0
 31 32  2  0
  6 33  1  0
 33 34  2  0
 34  3  1  0
 32  7  1  0
 17 10  1  0
 31 18  1  0
 29 25  1  0
  1 35  1  0
  1 36  1  0
  1 37  1  0
  4 38  1  0
  5 39  1  0
  8 40  1  0
 11 41  1  0
 12 42  1  0
 15 43  1  0
 15 44  1  0
 15 45  1  0
 16 46  1  0
 17 47  1  0
 20 48  1  0
 20 49  1  0
 24 50  1  0
 27 51  1  0
 28 52  1  0
 33 53  1  0
 34 54  1  0
M  END
>  <Binding energies>  (1) 
[-9.25]

>  <Ligand effiencies>  (1) 
[-0.25]

>  <Interactions>  (1) 
["V-A:HIS:456:CD2:4068, V-B:GLU:543:CD:9880, H-B:LYS:547:NZ:9923, V-B:GLU:543:C:9874, V-B:GLU:543:CB:9878, V-A:HIS:456:CE1:4069, V-B:ARG:545:CZ:9898, V-B:ARG:545:CD:9895, V-B:HIS:456:CE1:9040, V-B:GLU:543:CG:9879, V-A:GLU:543:CD:4908, H-B:GLY:454:N:9021, V-B:GLY:454:CA:9020, V-B:ILE:369:CD1:8210, V-A:TYR:484:CZ:4347, V-A:TYR:484:CE1:4345, H-A:GLY:454:N:4050, H-A:TYR:484:OH:4348, V-B:GLY:544:C:9884, V-A:HIS:456:CG:4066, V-A:TYR:484:CD2:4344, V-A:TYR:484:CE2:4346, V-A:TYR:484:CD1:4343, V-A:HIS:456:CB:4065, V-A:TYR:484:CG:4342, H-B:GLU:543:O:9875, V-A:ASP:473:CG:4240, H-A:HIS:456:ND1:4067, V-A:ASP:473:CB:4239, V-A:TYR:484:CB:4341"]

$$$$
8d_Ghoteimi_2023
     RDKit          3D

 50 53  0  0  0  0  0  0  0  0999 V2000
  131.0260  123.2490   72.0580 C   0  0  0  0  0  0  0  0  0  0  0  0
  129.7090  123.5810   71.6400 O   0  0  0  0  0  0  0  0  0  0  0  0
  129.2330  124.8460   71.7770 C   0  0  0  0  0  0  0  0  0  0  0  0
  129.1400  125.4350   72.8560 O   0  0  0  0  0  0  0  0  0  0  0  0
  128.8350  125.4540   70.4880 C   0  0  0  0  0  0  0  0  0  0  0  0
  127.5030  126.6120   70.4360 S   0  0  0  0  0  0  0  0  0  0  0  0
  127.6880  126.8040   68.7080 C   0  0  0  0  0  0  0  0  0  0  0  0
  126.9040  127.6210   68.0030 N   0  0  0  0  0  0  0  0  0  0  0  0
  127.1340  127.6980   66.6650 C   0  0  0  0  0  0  0  0  0  0  0  0
  126.2390  128.6180   65.8980 C   0  0  0  0  0  0  0  0  0  0  0  0
  126.6260  129.1370   64.6540 C   0  0  0  0  0  0  0  0  0  0  0  0
  125.7900  129.9940   63.9450 C   0  0  0  0  0  0  0  0  0  0  0  0
  124.5450  130.3550   64.4590 C   0  0  0  0  0  0  0  0  0  0  0  0
  123.7820  131.2080   63.6860 O   0  0  0  0  0  0  0  0  0  0  0  0
  123.3800  130.7950   62.3840 C   0  0  0  0  0  0  0  0  0  0  0  0
  124.1460  129.8410   65.7000 C   0  0  0  0  0  0  0  0  0  0  0  0
  124.9860  128.9830   66.4070 C   0  0  0  0  0  0  0  0  0  0  0  0
  128.1370  126.9540   66.0360 C   0  0  0  0  0  0  0  0  0  0  0  0
  128.9610  126.0990   66.7760 C   0  0  0  0  0  0  0  0  0  0  0  0
  130.0210  125.3320   66.0820 C   0  0  0  0  0  0  0  0  0  0  0  0
  131.3090  125.8570   65.9700 C   0  0  0  0  0  0  0  0  0  0  0  0
  132.3030  125.1400   65.3100 C   0  0  0  0  0  0  0  0  0  0  0  0
  132.0270  123.8880   64.7580 C   0  0  0  0  0  0  0  0  0  0  0  0
  133.0730  123.2500   64.1220 O   0  0  0  0  0  0  0  0  0  0  0  0
  133.5120  123.7290   62.8560 C   0  0  0  0  0  0  0  0  0  0  0  0
  130.7300  123.3600   64.8760 C   0  0  0  0  0  0  0  0  0  0  0  0
  129.7370  124.0790   65.5350 C   0  0  0  0  0  0  0  0  0  0  0  0
  128.7400  126.0060   68.1750 C   0  0  0  0  0  0  0  0  0  0  0  0
  129.3770  125.2460   69.2150 C   0  0  0  0  0  0  0  0  0  0  0  0
  130.4210  124.3890   68.9710 N   0  0  0  0  0  0  0  0  0  0  0  0
  131.0700  123.2379   73.1571 H   0  0  0  0  0  0  0  0  0  0  0  0
  131.2942  122.2552   71.6702 H   0  0  0  0  0  0  0  0  0  0  0  0
  131.7333  123.9970   71.6702 H   0  0  0  0  0  0  0  0  0  0  0  0
  127.6044  128.8627   64.2327 H   0  0  0  0  0  0  0  0  0  0  0  0
  126.1138  130.3899   62.9712 H   0  0  0  0  0  0  0  0  0  0  0  0
  122.6150  130.0091   62.4685 H   0  0  0  0  0  0  0  0  0  0  0  0
  122.9636  131.6549   61.8388 H   0  0  0  0  0  0  0  0  0  0  0  0
  124.2508  130.4020   61.8388 H   0  0  0  0  0  0  0  0  0  0  0  0
  123.1662  130.1158   66.1176 H   0  0  0  0  0  0  0  0  0  0  0  0
  124.6602  128.5862   67.3798 H   0  0  0  0  0  0  0  0  0  0  0  0
  128.2796  127.0418   64.9488 H   0  0  0  0  0  0  0  0  0  0  0  0
  131.5396  126.8408   66.4047 H   0  0  0  0  0  0  0  0  0  0  0  0
  133.3144  125.5636   65.2227 H   0  0  0  0  0  0  0  0  0  0  0  0
  134.2485  124.5326   63.0033 H   0  0  0  0  0  0  0  0  0  0  0  0
  133.9755  122.9055   62.2930 H   0  0  0  0  0  0  0  0  0  0  0  0
  132.6513  124.1192   62.2930 H   0  0  0  0  0  0  0  0  0  0  0  0
  130.4986  122.3744   64.4458 H   0  0  0  0  0  0  0  0  0  0  0  0
  128.7245  123.6585   65.6253 H   0  0  0  0  0  0  0  0  0  0  0  0
  130.7320  123.7250   69.6650 H   0  0  0  0  0  0  0  0  0  0  0  0
  130.9110  124.3890   68.0880 H   0  0  0  0  0  0  0  0  0  0  0  0
  1  2  1  0
  2  3  1  0
  3  4  2  0
  3  5  1  0
  5  6  1  0
  6  7  1  0
  7  8  2  0
  8  9  1  0
  9 10  1  0
 10 11  2  0
 11 12  1  0
 12 13  2  0
 13 14  1  0
 14 15  1  0
 13 16  1  0
 16 17  2  0
  9 18  2  0
 18 19  1  0
 19 20  1  0
 20 21  2  0
 21 22  1  0
 22 23  2  0
 23 24  1  0
 24 25  1  0
 23 26  1  0
 26 27  2  0
 19 28  2  0
 28 29  1  0
 29 30  1  0
 29  5  2  0
 28  7  1  0
 17 10  1  0
 27 20  1  0
  1 31  1  0
  1 32  1  0
  1 33  1  0
 11 34  1  0
 12 35  1  0
 15 36  1  0
 15 37  1  0
 15 38  1  0
 16 39  1  0
 17 40  1  0
 18 41  1  0
 21 42  1  0
 22 43  1  0
 25 44  1  0
 25 45  1  0
 25 46  1  0
 26 47  1  0
 27 48  1  0
 30 49  1  0
 30 50  1  0
M  END
>  <Binding energies>  (1) 
[-8.09]

>  <Ligand effiencies>  (1) 
[-0.2528125]

>  <Interactions>  (1) 
["V-B:ARG:545:CG:9894, V-A:HIS:456:CD2:4068, V-B:GLU:543:CD:9880, H-B:LYS:547:NZ:9923, V-B:GLU:543:C:9874, V-B:GLU:543:CB:9878, V-A:HIS:456:CE1:4069, V-B:ARG:545:CZ:9898, V-B:ARG:545:CD:9895, V-B:HIS:456:CE1:9040, V-B:GLU:543:CG:9879, V-A:GLU:543:CD:4908, H-B:GLY:454:N:9021, V-B:ASP:366:CG:8184, V-B:ILE:369:CD1:8210, V-B:GLU:543:CA:9876, V-A:TYR:484:CZ:4347, V-A:TYR:484:CE1:4345, H-A:GLY:454:N:4050, H-A:TYR:484:OH:4348, V-A:GLY:454:CA:4049, V-B:GLY:544:C:9884, V-A:HIS:456:CG:4066, V-A:TYR:484:CD2:4344, V-A:TYR:484:CE2:4346, V-A:TYR:484:CD1:4343, V-A:HIS:456:CB:4065, V-A:TYR:484:CG:4342, H-B:GLU:543:O:9875, H-A:HIS:456:ND1:4067"]

$$$$
9a_Ghoteimi_2023
     RDKit          3D

 85 91  0  0  0  0  0  0  0  0999 V2000
  127.9770  118.3700   74.5420 C   0  0  0  0  0  0  0  0  0  0  0  0
  128.3910  119.1560   75.7910 C   0  0  0  0  0  0  0  0  0  0  0  0
  129.4010  120.0960   75.4450 O   0  0  0  0  0  0  0  0  0  0  0  0
  130.1870  119.9110   74.3540 C   0  0  0  0  0  0  0  0  0  0  0  0
  130.9370  118.9400   74.2120 O   0  0  0  0  0  0  0  0  0  0  0  0
  130.0600  121.0100   73.3380 C   0  0  0  0  0  0  0  0  0  0  0  0
  128.9890  120.9870   72.4350 C   0  0  0  0  0  0  0  0  0  0  0  0
  128.8450  121.9890   71.4800 C   0  0  0  0  0  0  0  0  0  0  0  0
  129.7640  123.0360   71.4080 C   0  0  0  0  0  0  0  0  0  0  0  0
  129.5190  123.9920   70.4040 N   0  0  0  0  0  0  0  0  0  0  0  0
  129.2110  125.3090   70.5020 C   0  0  0  0  0  0  0  0  0  0  0  0
  129.0920  125.9150   71.5670 O   0  0  0  0  0  0  0  0  0  0  0  0
  129.0270  126.0050   69.2250 C   0  0  0  0  0  0  0  0  0  0  0  0
  128.2870  127.6060   69.1820 S   0  0  0  0  0  0  0  0  0  0  0  0
  128.4560  127.6870   67.4440 C   0  0  0  0  0  0  0  0  0  0  0  0
  128.0640  128.7570   66.7530 N   0  0  0  0  0  0  0  0  0  0  0  0
  128.2500  128.7240   65.4060 C   0  0  0  0  0  0  0  0  0  0  0  0
  127.8130  129.9390   64.6530 C   0  0  0  0  0  0  0  0  0  0  0  0
  126.9650  129.8220   63.5460 C   0  0  0  0  0  0  0  0  0  0  0  0
  126.5530  130.9480   62.8390 C   0  0  0  0  0  0  0  0  0  0  0  0
  126.9620  132.2360   63.2220 C   0  0  0  0  0  0  0  0  0  0  0  0
  126.5710  133.3750   62.5110 N   0  0  0  0  0  0  0  0  0  0  0  0
  127.5530  134.2090   61.7900 C   0  0  0  0  0  0  0  0  0  0  0  0
  127.0100  135.5940   61.3780 C   0  0  0  0  0  0  0  0  0  0  0  0
  125.8190  135.4450   60.6250 O   0  0  0  0  0  0  0  0  0  0  0  0
  124.8090  134.7870   61.3730 C   0  0  0  0  0  0  0  0  0  0  0  0
  125.2880  133.3770   61.7770 C   0  0  0  0  0  0  0  0  0  0  0  0
  127.8230  132.3450   64.3240 C   0  0  0  0  0  0  0  0  0  0  0  0
  128.2380  131.2190   65.0280 C   0  0  0  0  0  0  0  0  0  0  0  0
  128.7990  127.6160   64.7560 C   0  0  0  0  0  0  0  0  0  0  0  0
  129.1940  126.4830   65.4760 C   0  0  0  0  0  0  0  0  0  0  0  0
  129.7380  125.3190   64.7320 C   0  0  0  0  0  0  0  0  0  0  0  0
  130.9790  124.7740   65.0720 C   0  0  0  0  0  0  0  0  0  0  0  0
  131.4810  123.6750   64.3820 C   0  0  0  0  0  0  0  0  0  0  0  0
  130.7470  123.0780   63.3440 C   0  0  0  0  0  0  0  0  0  0  0  0
  131.2350  121.9810   62.6300 N   0  0  0  0  0  0  0  0  0  0  0  0
  132.4770  122.1280   61.8460 C   0  0  0  0  0  0  0  0  0  0  0  0
  133.1010  120.7790   61.4310 C   0  0  0  0  0  0  0  0  0  0  0  0
  132.1470  119.9980   60.7270 O   0  0  0  0  0  0  0  0  0  0  0  0
  131.0040  119.7250   61.5210 C   0  0  0  0  0  0  0  0  0  0  0  0
  130.3240  121.0470   61.9400 C   0  0  0  0  0  0  0  0  0  0  0  0
  129.5010  123.6310   63.0140 C   0  0  0  0  0  0  0  0  0  0  0  0
  129.0010  124.7330   63.7000 C   0  0  0  0  0  0  0  0  0  0  0  0
  129.0410  126.5100   66.8920 C   0  0  0  0  0  0  0  0  0  0  0  0
  129.3800  125.5750   67.9360 C   0  0  0  0  0  0  0  0  0  0  0  0
  130.0040  124.3810   67.6830 N   0  0  0  0  0  0  0  0  0  0  0  0
  130.8390  123.0690   72.3110 C   0  0  0  0  0  0  0  0  0  0  0  0
  130.9820  122.0650   73.2650 C   0  0  0  0  0  0  0  0  0  0  0  0
  127.4841  117.4342   74.8443 H   0  0  0  0  0  0  0  0  0  0  0  0
  127.2802  118.9744   73.9427 H   0  0  0  0  0  0  0  0  0  0  0  0
  128.8695  118.1373   73.9427 H   0  0  0  0  0  0  0  0  0  0  0  0
  127.5176  119.6882   76.1958 H   0  0  0  0  0  0  0  0  0  0  0  0
  128.7803  118.4613   76.5498 H   0  0  0  0  0  0  0  0  0  0  0  0
  128.2549  120.1691   72.4813 H   0  0  0  0  0  0  0  0  0  0  0  0
  128.0000  121.9551   70.7765 H   0  0  0  0  0  0  0  0  0  0  0  0
  129.5900  123.6280   69.4650 H   0  0  0  0  0  0  0  0  0  0  0  0
  126.6193  128.8266   63.2302 H   0  0  0  0  0  0  0  0  0  0  0  0
  125.8958  130.8271   61.9653 H   0  0  0  0  0  0  0  0  0  0  0  0
  128.4262  134.3586   62.4420 H   0  0  0  0  0  0  0  0  0  0  0  0
  127.8072  133.6753   60.8623 H   0  0  0  0  0  0  0  0  0  0  0  0
  126.7981  136.1852   62.2811 H   0  0  0  0  0  0  0  0  0  0  0  0
  127.7633  136.1080   60.7629 H   0  0  0  0  0  0  0  0  0  0  0  0
  124.5878  135.3704   62.2789 H   0  0  0  0  0  0  0  0  0  0  0  0
  123.9022  134.6983   60.7567 H   0  0  0  0  0  0  0  0  0  0  0  0
  124.5201  132.9193   62.4180 H   0  0  0  0  0  0  0  0  0  0  0  0
  125.4480  132.8121   60.8468 H   0  0  0  0  0  0  0  0  0  0  0  0
  128.1764  133.3385   64.6372 H   0  0  0  0  0  0  0  0  0  0  0  0
  128.9095  131.3362   65.8914 H   0  0  0  0  0  0  0  0  0  0  0  0
  128.9225  127.6344   63.6631 H   0  0  0  0  0  0  0  0  0  0  0  0
  131.5636  125.2173   65.8916 H   0  0  0  0  0  0  0  0  0  0  0  0
  132.4663  123.2681   64.6532 H   0  0  0  0  0  0  0  0  0  0  0  0
  132.2492  122.7019   60.9357 H   0  0  0  0  0  0  0  0  0  0  0  0
  133.2083  122.6411   62.4878 H   0  0  0  0  0  0  0  0  0  0  0  0
  133.9701  120.9639   60.7825 H   0  0  0  0  0  0  0  0  0  0  0  0
  133.4173  120.2351   62.3333 H   0  0  0  0  0  0  0  0  0  0  0  0
  130.2937  119.1180   60.9405 H   0  0  0  0  0  0  0  0  0  0  0  0
  131.3134  119.1764   62.4228 H   0  0  0  0  0  0  0  0  0  0  0  0
  129.9361  121.5412   61.0370 H   0  0  0  0  0  0  0  0  0  0  0  0
  129.5235  120.7901   62.6494 H   0  0  0  0  0  0  0  0  0  0  0  0
  128.9099  123.1863   62.1999 H   0  0  0  0  0  0  0  0  0  0  0  0
  128.0184  125.1459   63.4280 H   0  0  0  0  0  0  0  0  0  0  0  0
  130.9770  124.3350   67.4130 H   0  0  0  0  0  0  0  0  0  0  0  0
  129.5100  123.5020   67.7590 H   0  0  0  0  0  0  0  0  0  0  0  0
  131.5697  123.8899   72.2645 H   0  0  0  0  0  0  0  0  0  0  0  0
  131.8267  122.0993   73.9688 H   0  0  0  0  0  0  0  0  0  0  0  0
  1  2  1  0
  2  3  1  0
  3  4  1  0
  4  5  2  0
  4  6  1  0
  6  7  2  0
  7  8  1  0
  8  9  2  0
  9 10  1  0
 10 11  1  0
 11 12  2  0
 11 13  1  0
 13 14  1  0
 14 15  1  0
 15 16  2  0
 16 17  1  0
 17 18  1  0
 18 19  2  0
 19 20  1  0
 20 21  2  0
 21 22  1  0
 22 23  1  0
 23 24  1  0
 24 25  1  0
 25 26  1  0
 26 27  1  0
 21 28  1  0
 28 29  2  0
 17 30  2  0
 30 31  1  0
 31 32  1  0
 32 33  2  0
 33 34  1  0
 34 35  2  0
 35 36  1  0
 36 37  1  0
 37 38  1  0
 38 39  1  0
 39 40  1  0
 40 41  1  0
 35 42  1  0
 42 43  2  0
 31 44  2  0
 44 45  1  0
 45 46  1  0
  9 47  1  0
 47 48  2  0
 48  6  1  0
 45 13  2  0
 44 15  1  0
 29 18  1  0
 43 32  1  0
 27 22  1  0
 41 36  1  0
  1 49  1  0
  1 50  1  0
  1 51  1  0
  2 52  1  0
  2 53  1  0
  7 54  1  0
  8 55  1  0
 10 56  1  0
 19 57  1  0
 20 58  1  0
 23 59  1  0
 23 60  1  0
 24 61  1  0
 24 62  1  0
 26 63  1  0
 26 64  1  0
 27 65  1  0
 27 66  1  0
 28 67  1  0
 29 68  1  0
 30 69  1  0
 33 70  1  0
 34 71  1  0
 37 72  1  0
 37 73  1  0
 38 74  1  0
 38 75  1  0
 40 76  1  0
 40 77  1  0
 41 78  1  0
 41 79  1  0
 42 80  1  0
 43 81  1  0
 46 82  1  0
 46 83  1  0
 47 84  1  0
 48 85  1  0
M  END
>  <Binding energies>  (1) 
[-10.46]

>  <Ligand effiencies>  (1) 
[-0.20509803921568628]

>  <Interactions>  (1) 
["V-A:HIS:456:CD2:4068, V-B:GLU:543:CD:9880, H-B:LYS:547:NZ:9923, V-B:GLU:543:C:9874, V-B:GLU:543:CB:9878, V-A:HIS:456:CE1:4069, H-A:HIS:456:NE2:4070, V-B:HIS:456:CE1:9040, V-B:GLU:543:CG:9879, V-A:GLU:543:CD:4908, V-B:TRP:381:CH2:8343, V-B:PRO:482:CG:9298, V-B:LEU:475:CD1:9229, V-B:PRO:482:CB:9297, V-A:ALA:541:CB:4892, V-A:TYR:539:CD2:4874, V-B:ALA:541:CB:9864, V-A:TYR:484:CZ:4347, V-A:LEU:475:CD1:4258, V-A:GLU:543:CB:4906, V-A:TYR:484:CE1:4345, H-A:TYR:484:OH:4348, V-A:ILE:369:CD1:3239, V-B:TYR:484:CZ:9318, V-B:TRP:381:CZ2:8341, V-B:TYR:484:CE1:9316, V-A:TRP:381:CH2:3372, V-A:PRO:482:CB:4326, V-A:HIS:456:CG:4066, V-A:TYR:484:CD2:4344, V-A:TYR:484:CE2:4346, V-A:TYR:484:CD1:4343, V-A:HIS:456:CB:4065, V-A:TYR:484:CG:4342, H-B:GLU:543:O:9875, V-B:LYS:547:CE:9922, V-A:ASP:473:CG:4240, V-B:GLY:544:CA:9886, H-A:HIS:456:ND1:4067, V-A:ASP:473:CB:4239, V-A:TYR:484:CB:4341, H-A:ASP:485:N:4354"]

$$$$
9b_Ghoteimi_2023
     RDKit          3D

 72 78  0  0  0  0  0  0  0  0999 V2000
  129.8730  124.3160   67.5770 N   0  0  0  0  0  0  0  0  0  0  0  0
  129.4400  125.5920   67.8340 C   0  0  0  0  0  0  0  0  0  0  0  0
  129.2140  126.0870   69.1280 C   0  0  0  0  0  0  0  0  0  0  0  0
  129.4020  125.4060   70.4120 C   0  0  0  0  0  0  0  0  0  0  0  0
  129.2960  126.0250   71.4730 O   0  0  0  0  0  0  0  0  0  0  0  0
  129.6980  124.0850   70.3330 N   0  0  0  0  0  0  0  0  0  0  0  0
  129.9350  123.2060   71.3820 C   0  0  0  0  0  0  0  0  0  0  0  0
  131.0770  123.2650   72.1800 C   0  0  0  0  0  0  0  0  0  0  0  0
  130.9310  122.2420   73.0890 C   0  0  0  0  0  0  0  0  0  0  0  0
  129.7620  121.6010   72.8500 O   0  0  0  0  0  0  0  0  0  0  0  0
  129.1400  122.2210   71.7660 N   0  0  0  0  0  0  0  0  0  0  0  0
  128.6330  127.7510   69.0820 S   0  0  0  0  0  0  0  0  0  0  0  0
  128.6780  127.7670   67.3350 C   0  0  0  0  0  0  0  0  0  0  0  0
  128.2950  128.8340   66.6370 N   0  0  0  0  0  0  0  0  0  0  0  0
  128.3520  128.7380   65.2820 C   0  0  0  0  0  0  0  0  0  0  0  0
  127.8970  129.9410   64.5220 C   0  0  0  0  0  0  0  0  0  0  0  0
  127.1520  129.8140   63.3440 C   0  0  0  0  0  0  0  0  0  0  0  0
  126.7430  130.9380   62.6330 C   0  0  0  0  0  0  0  0  0  0  0  0
  127.0770  132.2310   63.0660 C   0  0  0  0  0  0  0  0  0  0  0  0
  126.6710  133.3710   62.3620 N   0  0  0  0  0  0  0  0  0  0  0  0
  125.4220  133.3840   61.5750 C   0  0  0  0  0  0  0  0  0  0  0  0
  124.9600  134.7960   61.1620 C   0  0  0  0  0  0  0  0  0  0  0  0
  126.0020  135.4650   60.4710 O   0  0  0  0  0  0  0  0  0  0  0  0
  127.1560  135.6090   61.2840 C   0  0  0  0  0  0  0  0  0  0  0  0
  127.6850  134.2210   61.7060 C   0  0  0  0  0  0  0  0  0  0  0  0
  127.8070  132.3520   64.2570 C   0  0  0  0  0  0  0  0  0  0  0  0
  128.2120  131.2280   64.9710 C   0  0  0  0  0  0  0  0  0  0  0  0
  128.8160  127.5900   64.6350 C   0  0  0  0  0  0  0  0  0  0  0  0
  129.2390  126.4730   65.3660 C   0  0  0  0  0  0  0  0  0  0  0  0
  129.7510  125.2890   64.6300 C   0  0  0  0  0  0  0  0  0  0  0  0
  129.0010  124.7210   63.6000 C   0  0  0  0  0  0  0  0  0  0  0  0
  129.4860  123.6230   62.8970 C   0  0  0  0  0  0  0  0  0  0  0  0
  130.7360  123.0630   63.2050 C   0  0  0  0  0  0  0  0  0  0  0  0
  131.2500  121.9700   62.5010 N   0  0  0  0  0  0  0  0  0  0  0  0
  130.3260  121.0880   61.7620 C   0  0  0  0  0  0  0  0  0  0  0  0
  130.9560  119.7320   61.3780 C   0  0  0  0  0  0  0  0  0  0  0  0
  132.1490  119.9430   60.6380 O   0  0  0  0  0  0  0  0  0  0  0  0
  133.1070  120.6780   61.3840 C   0  0  0  0  0  0  0  0  0  0  0  0
  132.5310  122.0560   61.7720 C   0  0  0  0  0  0  0  0  0  0  0  0
  131.4890  123.6540   64.2290 C   0  0  0  0  0  0  0  0  0  0  0  0
  131.0030  124.7520   64.9330 C   0  0  0  0  0  0  0  0  0  0  0  0
  129.1550  126.5400   66.7850 C   0  0  0  0  0  0  0  0  0  0  0  0
  129.2890  123.5100   67.7500 H   0  0  0  0  0  0  0  0  0  0  0  0
  130.7960  124.1390   67.2040 H   0  0  0  0  0  0  0  0  0  0  0  0
  129.7500  123.6810   69.4090 H   0  0  0  0  0  0  0  0  0  0  0  0
  131.9132  123.9752   72.1003 H   0  0  0  0  0  0  0  0  0  0  0  0
  131.6486  121.9860   73.8824 H   0  0  0  0  0  0  0  0  0  0  0  0
  126.8863  128.8123   62.9753 H   0  0  0  0  0  0  0  0  0  0  0  0
  126.1481  130.8113   61.7165 H   0  0  0  0  0  0  0  0  0  0  0  0
  125.5811  132.7907   60.6625 H   0  0  0  0  0  0  0  0  0  0  0  0
  124.6342  132.9651   62.2183 H   0  0  0  0  0  0  0  0  0  0  0  0
  124.0814  134.7141   60.5052 H   0  0  0  0  0  0  0  0  0  0  0  0
  124.6995  135.3688   62.0643 H   0  0  0  0  0  0  0  0  0  0  0  0
  127.9361  136.1388   60.7177 H   0  0  0  0  0  0  0  0  0  0  0  0
  126.8922  136.1826   62.1848 H   0  0  0  0  0  0  0  0  0  0  0  0
  128.0459  133.6994   60.8073 H   0  0  0  0  0  0  0  0  0  0  0  0
  128.4839  134.3929   62.4423 H   0  0  0  0  0  0  0  0  0  0  0  0
  128.0642  133.3530   64.6337 H   0  0  0  0  0  0  0  0  0  0  0  0
  128.7871  131.3532   65.9003 H   0  0  0  0  0  0  0  0  0  0  0  0
  128.8495  127.5632   63.5358 H   0  0  0  0  0  0  0  0  0  0  0  0
  128.0191  125.1444   63.3419 H   0  0  0  0  0  0  0  0  0  0  0  0
  128.8813  123.1872   62.0880 H   0  0  0  0  0  0  0  0  0  0  0  0
  129.4448  120.8980   62.3924 H   0  0  0  0  0  0  0  0  0  0  0  0
  130.0616  121.6022   60.8262 H   0  0  0  0  0  0  0  0  0  0  0  0
  131.1897  119.1669   62.2924 H   0  0  0  0  0  0  0  0  0  0  0  0
  130.2438  119.1649   60.7607 H   0  0  0  0  0  0  0  0  0  0  0  0
  133.3634  120.1204   62.2969 H   0  0  0  0  0  0  0  0  0  0  0  0
  134.0079  120.8236   60.7698 H   0  0  0  0  0  0  0  0  0  0  0  0
  133.2623  122.5725   62.4111 H   0  0  0  0  0  0  0  0  0  0  0  0
  132.3375  122.6028   60.8373 H   0  0  0  0  0  0  0  0  0  0  0  0
  132.4784  123.2441   64.4799 H   0  0  0  0  0  0  0  0  0  0  0  0
  131.6100  125.1996   65.7338 H   0  0  0  0  0  0  0  0  0  0  0  0
  1  2  1  0
  2  3  2  0
  3  4  1  0
  4  5  2  0
  4  6  1  0
  6  7  1  0
  7  8  1  0
  8  9  2  0
  9 10  1  0
 10 11  1  0
  3 12  1  0
 12 13  1  0
 13 14  2  0
 14 15  1  0
 15 16  1  0
 16 17  2  0
 17 18  1  0
 18 19  2  0
 19 20  1  0
 20 21  1  0
 21 22  1  0
 22 23  1  0
 23 24  1  0
 24 25  1  0
 19 26  1  0
 26 27  2  0
 15 28  2  0
 28 29  1  0
 29 30  1  0
 30 31  2  0
 31 32  1  0
 32 33  2  0
 33 34  1  0
 34 35  1  0
 35 36  1  0
 36 37  1  0
 37 38  1  0
 38 39  1  0
 33 40  1  0
 40 41  2  0
 29 42  2  0
 42  2  1  0
 11  7  2  0
 42 13  1  0
 27 16  1  0
 41 30  1  0
 25 20  1  0
 39 34  1  0
  1 43  1  0
  1 44  1  0
  6 45  1  0
  8 46  1  0
  9 47  1  0
 17 48  1  0
 18 49  1  0
 21 50  1  0
 21 51  1  0
 22 52  1  0
 22 53  1  0
 24 54  1  0
 24 55  1  0
 25 56  1  0
 25 57  1  0
 26 58  1  0
 27 59  1  0
 28 60  1  0
 31 61  1  0
 32 62  1  0
 35 63  1  0
 35 64  1  0
 36 65  1  0
 36 66  1  0
 38 67  1  0
 38 68  1  0
 39 69  1  0
 39 70  1  0
 40 71  1  0
 41 72  1  0
M  END
>  <Binding energies>  (1) 
[-12.25]

>  <Ligand effiencies>  (1) 
[-0.2722222222222222]

>  <Interactions>  (1) 
["V-A:HIS:456:CD2:4068, V-B:GLU:543:CD:9880, H-B:LYS:547:NZ:9923, V-B:GLU:543:C:9874, V-B:GLU:543:CB:9878, V-A:HIS:456:CE1:4069, H-A:HIS:456:NE2:4070, V-B:HIS:456:CE1:9040, V-B:GLU:543:CG:9879, V-A:GLU:543:CD:4908, V-B:TRP:381:CH2:8343, V-B:PRO:482:CG:9298, V-B:LEU:475:CD1:9229, V-B:PRO:482:CB:9297, V-A:TYR:539:CE2:4876, V-A:ALA:541:CB:4892, V-A:TYR:539:CD2:4874, V-B:ALA:541:CB:9864, V-B:GLU:543:CA:9876, V-A:TYR:484:CZ:4347, V-A:LEU:475:CD1:4258, V-A:GLU:543:CB:4906, V-A:TYR:484:CE1:4345, H-A:TYR:484:OH:4348, V-A:ILE:369:CD1:3239, V-B:TYR:484:CZ:9318, V-B:TRP:381:CZ2:8341, V-B:TYR:484:CE1:9316, V-A:TRP:381:CH2:3372, V-A:PRO:482:CB:4326, V-A:HIS:456:CG:4066, V-A:TYR:484:CD2:4344, V-A:TYR:484:CE2:4346, V-A:TYR:484:CD1:4343, V-A:HIS:456:CB:4065, V-A:TYR:484:CG:4342, H-B:GLU:543:O:9875, H-A:HIS:456:ND1:4067, V-A:ASP:473:CB:4239, V-A:TYR:484:CB:4341"]

$$$$
9c_Ghoteimi_2023
     RDKit          3D

 72 78  0  0  0  0  0  0  0  0999 V2000
  129.9320  124.3330   67.5710 N   0  0  0  0  0  0  0  0  0  0  0  0
  129.4940  125.6030   67.8450 C   0  0  0  0  0  0  0  0  0  0  0  0
  129.2910  126.0870   69.1470 C   0  0  0  0  0  0  0  0  0  0  0  0
  129.5080  125.3970   70.4220 C   0  0  0  0  0  0  0  0  0  0  0  0
  129.4760  126.0150   71.4870 O   0  0  0  0  0  0  0  0  0  0  0  0
  129.7450  124.0650   70.3290 N   0  0  0  0  0  0  0  0  0  0  0  0
  129.9950  123.1870   71.3750 C   0  0  0  0  0  0  0  0  0  0  0  0
  129.3850  122.0530   71.6410 N   0  0  0  0  0  0  0  0  0  0  0  0
  129.8800  121.4780   72.7210 C   0  0  0  0  0  0  0  0  0  0  0  0
  130.9180  122.1530   73.3560 C   0  0  0  0  0  0  0  0  0  0  0  0
  131.2570  123.6180   72.4850 S   0  0  0  0  0  0  0  0  0  0  0  0
  128.6970  127.7470   69.1250 S   0  0  0  0  0  0  0  0  0  0  0  0
  128.7070  127.7760   67.3780 C   0  0  0  0  0  0  0  0  0  0  0  0
  128.3030  128.8460   66.6950 N   0  0  0  0  0  0  0  0  0  0  0  0
  128.3330  128.7590   65.3400 C   0  0  0  0  0  0  0  0  0  0  0  0
  127.8540  129.9660   64.5990 C   0  0  0  0  0  0  0  0  0  0  0  0
  128.2450  131.2540   64.9820 C   0  0  0  0  0  0  0  0  0  0  0  0
  127.7900  132.3740   64.2940 C   0  0  0  0  0  0  0  0  0  0  0  0
  126.9140  132.2480   63.2040 C   0  0  0  0  0  0  0  0  0  0  0  0
  126.4520  133.3650   62.4970 N   0  0  0  0  0  0  0  0  0  0  0  0
  125.1760  133.3310   61.7540 C   0  0  0  0  0  0  0  0  0  0  0  0
  124.6590  134.7250   61.3390 C   0  0  0  0  0  0  0  0  0  0  0  0
  125.6580  135.4110   60.6000 O   0  0  0  0  0  0  0  0  0  0  0  0
  126.8340  135.5990   61.3700 C   0  0  0  0  0  0  0  0  0  0  0  0
  127.4170  134.2330   61.7910 C   0  0  0  0  0  0  0  0  0  0  0  0
  126.5410  130.9550   62.8120 C   0  0  0  0  0  0  0  0  0  0  0  0
  127.0000  129.8340   63.4980 C   0  0  0  0  0  0  0  0  0  0  0  0
  128.7910  127.6200   64.6740 C   0  0  0  0  0  0  0  0  0  0  0  0
  129.2370  126.5010   65.3880 C   0  0  0  0  0  0  0  0  0  0  0  0
  129.7430  125.3270   64.6350 C   0  0  0  0  0  0  0  0  0  0  0  0
  128.9880  124.7750   63.5980 C   0  0  0  0  0  0  0  0  0  0  0  0
  129.4670  123.6840   62.8790 C   0  0  0  0  0  0  0  0  0  0  0  0
  130.7140  123.1140   63.1790 C   0  0  0  0  0  0  0  0  0  0  0  0
  131.2210  122.0250   62.4620 N   0  0  0  0  0  0  0  0  0  0  0  0
  130.2890  121.1680   61.7020 C   0  0  0  0  0  0  0  0  0  0  0  0
  130.9050  119.8110   61.2950 C   0  0  0  0  0  0  0  0  0  0  0  0
  132.1030  120.0220   60.5640 O   0  0  0  0  0  0  0  0  0  0  0  0
  133.0670  120.7300   61.3290 C   0  0  0  0  0  0  0  0  0  0  0  0
  132.5060  122.1080   61.7430 C   0  0  0  0  0  0  0  0  0  0  0  0
  131.4730  123.6890   64.2090 C   0  0  0  0  0  0  0  0  0  0  0  0
  130.9940  124.7810   64.9280 C   0  0  0  0  0  0  0  0  0  0  0  0
  129.1810  126.5560   66.8100 C   0  0  0  0  0  0  0  0  0  0  0  0
  129.3570  123.5200   67.7460 H   0  0  0  0  0  0  0  0  0  0  0  0
  130.8500  124.1650   67.1830 H   0  0  0  0  0  0  0  0  0  0  0  0
  129.7410  123.6560   69.4060 H   0  0  0  0  0  0  0  0  0  0  0  0
  129.4938  120.5194   73.0978 H   0  0  0  0  0  0  0  0  0  0  0  0
  131.4398  121.8139   74.2630 H   0  0  0  0  0  0  0  0  0  0  0  0
  128.9219  131.3825   65.8395 H   0  0  0  0  0  0  0  0  0  0  0  0
  128.1218  133.3744   64.6089 H   0  0  0  0  0  0  0  0  0  0  0  0
  125.3204  132.7298   60.8442 H   0  0  0  0  0  0  0  0  0  0  0  0
  124.4234  132.8985   62.4297 H   0  0  0  0  0  0  0  0  0  0  0  0
  123.7595  134.6098   60.7164 H   0  0  0  0  0  0  0  0  0  0  0  0
  124.4150  135.3041   62.2419 H   0  0  0  0  0  0  0  0  0  0  0  0
  127.5785  136.1429   60.7701 H   0  0  0  0  0  0  0  0  0  0  0  0
  126.5849  136.1773   62.2719 H   0  0  0  0  0  0  0  0  0  0  0  0
  127.7586  133.7081   60.8867 H   0  0  0  0  0  0  0  0  0  0  0  0
  128.2378  134.4379   62.4941 H   0  0  0  0  0  0  0  0  0  0  0  0
  125.8740  130.8238   61.9472 H   0  0  0  0  0  0  0  0  0  0  0  0
  126.6875  128.8315   63.1705 H   0  0  0  0  0  0  0  0  0  0  0  0
  128.8015  127.6017   63.5742 H   0  0  0  0  0  0  0  0  0  0  0  0
  128.0073  125.2058   63.3476 H   0  0  0  0  0  0  0  0  0  0  0  0
  128.8599  123.2625   62.0643 H   0  0  0  0  0  0  0  0  0  0  0  0
  129.4027  120.9769   62.3249 H   0  0  0  0  0  0  0  0  0  0  0  0
  130.0348  121.7029   60.7751 H   0  0  0  0  0  0  0  0  0  0  0  0
  131.1283  119.2263   62.1996 H   0  0  0  0  0  0  0  0  0  0  0  0
  130.1888  119.2637   60.6646 H   0  0  0  0  0  0  0  0  0  0  0  0
  133.3125  120.1508   62.2314 H   0  0  0  0  0  0  0  0  0  0  0  0
  133.9722  120.8769   60.7216 H   0  0  0  0  0  0  0  0  0  0  0  0
  133.2402  122.6013   62.3969 H   0  0  0  0  0  0  0  0  0  0  0  0
  132.3249  122.6760   60.8186 H   0  0  0  0  0  0  0  0  0  0  0  0
  132.4610  123.2711   64.4523 H   0  0  0  0  0  0  0  0  0  0  0  0
  131.6054  125.2163   65.7322 H   0  0  0  0  0  0  0  0  0  0  0  0
  1  2  1  0
  2  3  2  0
  3  4  1  0
  4  5  2  0
  4  6  1  0
  6  7  1  0
  7  8  2  0
  8  9  1  0
  9 10  2  0
 10 11  1  0
  3 12  1  0
 12 13  1  0
 13 14  2  0
 14 15  1  0
 15 16  1  0
 16 17  2  0
 17 18  1  0
 18 19  2  0
 19 20  1  0
 20 21  1  0
 21 22  1  0
 22 23  1  0
 23 24  1  0
 24 25  1  0
 19 26  1  0
 26 27  2  0
 15 28  2  0
 28 29  1  0
 29 30  1  0
 30 31  2  0
 31 32  1  0
 32 33  2  0
 33 34  1  0
 34 35  1  0
 35 36  1  0
 36 37  1  0
 37 38  1  0
 38 39  1  0
 33 40  1  0
 40 41  2  0
 29 42  2  0
 42  2  1  0
 11  7  1  0
 42 13  1  0
 27 16  1  0
 41 30  1  0
 25 20  1  0
 39 34  1  0
  1 43  1  0
  1 44  1  0
  6 45  1  0
  9 46  1  0
 10 47  1  0
 17 48  1  0
 18 49  1  0
 21 50  1  0
 21 51  1  0
 22 52  1  0
 22 53  1  0
 24 54  1  0
 24 55  1  0
 25 56  1  0
 25 57  1  0
 26 58  1  0
 27 59  1  0
 28 60  1  0
 31 61  1  0
 32 62  1  0
 35 63  1  0
 35 64  1  0
 36 65  1  0
 36 66  1  0
 38 67  1  0
 38 68  1  0
 39 69  1  0
 39 70  1  0
 40 71  1  0
 41 72  1  0
M  END
>  <Binding energies>  (1) 
[-11.1]

>  <Ligand effiencies>  (1) 
[-0.24666666666666665]

>  <Interactions>  (1) 
["V-A:HIS:456:CD2:4068, V-B:GLU:543:CD:9880, H-B:LYS:547:NZ:9923, V-B:GLU:543:C:9874, V-B:GLU:543:CB:9878, V-A:HIS:456:CE1:4069, H-A:HIS:456:NE2:4070, V-B:HIS:456:CE1:9040, V-B:GLU:543:CG:9879, V-A:GLU:543:CD:4908, V-B:TRP:381:CH2:8343, V-B:PRO:482:CG:9298, V-B:LEU:475:CD1:9229, V-B:PRO:482:CB:9297, V-A:ALA:541:CB:4892, V-A:TYR:539:CD2:4874, V-B:ALA:541:CB:9864, V-B:GLU:543:CA:9876, V-A:TYR:484:CZ:4347, V-A:LEU:475:CD1:4258, V-A:GLU:543:CB:4906, V-A:TYR:484:CE1:4345, H-A:TYR:484:OH:4348, V-A:ILE:369:CD1:3239, V-B:TYR:484:CZ:9318, V-B:TRP:381:CZ2:8341, V-B:TYR:484:CE1:9316, V-B:TYR:539:CD2:9846, V-A:TRP:381:CH2:3372, V-A:HIS:456:CG:4066, V-A:TYR:484:CD2:4344, V-A:TYR:484:CE2:4346, V-A:TYR:484:CD1:4343, V-A:HIS:456:CB:4065, V-A:TYR:484:CG:4342, H-B:GLU:543:O:9875, V-B:LYS:547:CE:9922, V-A:ASP:473:CG:4240, H-A:HIS:456:ND1:4067, V-A:ASP:473:CB:4239, V-A:TYR:484:CB:4341"]

$$$$
9d_Ghoteimi_2023
     RDKit          3D

 68 73  0  0  0  0  0  0  0  0999 V2000
  132.8230  124.4960   64.7230 C   0  0  0  0  0  0  0  0  0  0  0  0
  132.1310  123.3050   64.3780 O   0  0  0  0  0  0  0  0  0  0  0  0
  130.8030  123.1720   64.6330 C   0  0  0  0  0  0  0  0  0  0  0  0
  130.2260  122.0860   64.7340 O   0  0  0  0  0  0  0  0  0  0  0  0
  130.1110  124.4710   64.7750 C   0  0  0  0  0  0  0  0  0  0  0  0
  129.7330  125.4260   63.3420 S   0  0  0  0  0  0  0  0  0  0  0  0
  128.9690  126.6600   64.3170 C   0  0  0  0  0  0  0  0  0  0  0  0
  128.4030  127.7320   63.7660 N   0  0  0  0  0  0  0  0  0  0  0  0
  127.8200  128.6240   64.6100 C   0  0  0  0  0  0  0  0  0  0  0  0
  127.1680  129.8070   63.9680 C   0  0  0  0  0  0  0  0  0  0  0  0
  127.9000  130.9730   63.7190 C   0  0  0  0  0  0  0  0  0  0  0  0
  127.3020  132.0800   63.1240 C   0  0  0  0  0  0  0  0  0  0  0  0
  125.9510  132.0580   62.7440 C   0  0  0  0  0  0  0  0  0  0  0  0
  125.3320  133.1690   62.1610 N   0  0  0  0  0  0  0  0  0  0  0  0
  125.9210  133.8510   60.9910 C   0  0  0  0  0  0  0  0  0  0  0  0
  125.3070  135.2370   60.7020 C   0  0  0  0  0  0  0  0  0  0  0  0
  123.9000  135.1270   60.5710 O   0  0  0  0  0  0  0  0  0  0  0  0
  123.3050  134.6310   61.7590 C   0  0  0  0  0  0  0  0  0  0  0  0
  123.8570  133.2260   62.0840 C   0  0  0  0  0  0  0  0  0  0  0  0
  125.2180  130.8920   63.0090 C   0  0  0  0  0  0  0  0  0  0  0  0
  125.8160  129.7860   63.6070 C   0  0  0  0  0  0  0  0  0  0  0  0
  127.8350  128.4580   65.9970 C   0  0  0  0  0  0  0  0  0  0  0  0
  128.4460  127.3430   66.5810 C   0  0  0  0  0  0  0  0  0  0  0  0
  128.4570  127.2290   68.0630 C   0  0  0  0  0  0  0  0  0  0  0  0
  129.3740  127.9550   68.8270 C   0  0  0  0  0  0  0  0  0  0  0  0
  129.3690  127.8600   70.2160 C   0  0  0  0  0  0  0  0  0  0  0  0
  128.4350  127.0480   70.8790 C   0  0  0  0  0  0  0  0  0  0  0  0
  128.4150  126.9280   72.2700 N   0  0  0  0  0  0  0  0  0  0  0  0
  129.3370  125.9770   72.9220 C   0  0  0  0  0  0  0  0  0  0  0  0
  129.4910  126.2210   74.4390 C   0  0  0  0  0  0  0  0  0  0  0  0
  128.2170  126.2030   75.0660 O   0  0  0  0  0  0  0  0  0  0  0  0
  127.3610  127.2090   74.5430 C   0  0  0  0  0  0  0  0  0  0  0  0
  127.1520  126.9850   73.0300 C   0  0  0  0  0  0  0  0  0  0  0  0
  127.5200  126.3230   70.1020 C   0  0  0  0  0  0  0  0  0  0  0  0
  127.5270  126.4170   68.7130 C   0  0  0  0  0  0  0  0  0  0  0  0
  129.0250  126.3750   65.7140 C   0  0  0  0  0  0  0  0  0  0  0  0
  129.6670  125.1070   65.9420 C   0  0  0  0  0  0  0  0  0  0  0  0
  129.8110  124.5590   67.1900 N   0  0  0  0  0  0  0  0  0  0  0  0
  132.8751  124.5857   65.8181 H   0  0  0  0  0  0  0  0  0  0  0  0
  133.8416  124.4613   64.3091 H   0  0  0  0  0  0  0  0  0  0  0  0
  132.2884  125.3637   64.3091 H   0  0  0  0  0  0  0  0  0  0  0  0
  128.9633  131.0154   63.9975 H   0  0  0  0  0  0  0  0  0  0  0  0
  127.8983  132.9876   62.9486 H   0  0  0  0  0  0  0  0  0  0  0  0
  126.9984  133.9800   61.1712 H   0  0  0  0  0  0  0  0  0  0  0  0
  125.7126  133.2198   60.1145 H   0  0  0  0  0  0  0  0  0  0  0  0
  125.5432  135.9200   61.5313 H   0  0  0  0  0  0  0  0  0  0  0  0
  125.7270  135.6291   59.7640 H   0  0  0  0  0  0  0  0  0  0  0  0
  123.5328  135.3127   62.5917 H   0  0  0  0  0  0  0  0  0  0  0  0
  122.2164  134.5651   61.6154 H   0  0  0  0  0  0  0  0  0  0  0  0
  123.4463  132.9075   63.0535 H   0  0  0  0  0  0  0  0  0  0  0  0
  123.5528  132.5633   61.2604 H   0  0  0  0  0  0  0  0  0  0  0  0
  124.1523  130.8506   62.7397 H   0  0  0  0  0  0  0  0  0  0  0  0
  125.2175  128.8831   63.7984 H   0  0  0  0  0  0  0  0  0  0  0  0
  127.3598  129.2144   66.6389 H   0  0  0  0  0  0  0  0  0  0  0  0
  130.1057  128.6068   68.3272 H   0  0  0  0  0  0  0  0  0  0  0  0
  130.1064  128.4285   70.8016 H   0  0  0  0  0  0  0  0  0  0  0  0
  128.9531  124.9575   72.7692 H   0  0  0  0  0  0  0  0  0  0  0  0
  130.3281  126.1183   72.4662 H   0  0  0  0  0  0  0  0  0  0  0  0
  130.1216  125.4310   74.8728 H   0  0  0  0  0  0  0  0  0  0  0  0
  129.9591  127.2032   74.6009 H   0  0  0  0  0  0  0  0  0  0  0  0
  126.3891  127.1642   75.0562 H   0  0  0  0  0  0  0  0  0  0  0  0
  127.8205  128.1955   74.7035 H   0  0  0  0  0  0  0  0  0  0  0  0
  126.6157  126.0351   72.8882 H   0  0  0  0  0  0  0  0  0  0  0  0
  126.5802  127.8439   72.6488 H   0  0  0  0  0  0  0  0  0  0  0  0
  126.7859  125.6704   70.5973 H   0  0  0  0  0  0  0  0  0  0  0  0
  126.7939  125.8468   68.1236 H   0  0  0  0  0  0  0  0  0  0  0  0
  130.7210  124.3660   67.5850 H   0  0  0  0  0  0  0  0  0  0  0  0
  129.0100  124.3330   67.7630 H   0  0  0  0  0  0  0  0  0  0  0  0
  1  2  1  0
  2  3  1  0
  3  4  2  0
  3  5  1  0
  5  6  1  0
  6  7  1  0
  7  8  2  0
  8  9  1  0
  9 10  1  0
 10 11  2  0
 11 12  1  0
 12 13  2  0
 13 14  1  0
 14 15  1  0
 15 16  1  0
 16 17  1  0
 17 18  1  0
 18 19  1  0
 13 20  1  0
 20 21  2  0
  9 22  2  0
 22 23  1  0
 23 24  1  0
 24 25  2  0
 25 26  1  0
 26 27  2  0
 27 28  1  0
 28 29  1  0
 29 30  1  0
 30 31  1  0
 31 32  1  0
 32 33  1  0
 27 34  1  0
 34 35  2  0
 23 36  2  0
 36 37  1  0
 37 38  1  0
 37  5  2  0
 36  7  1  0
 21 10  1  0
 35 24  1  0
 19 14  1  0
 33 28  1  0
  1 39  1  0
  1 40  1  0
  1 41  1  0
 11 42  1  0
 12 43  1  0
 15 44  1  0
 15 45  1  0
 16 46  1  0
 16 47  1  0
 18 48  1  0
 18 49  1  0
 19 50  1  0
 19 51  1  0
 20 52  1  0
 21 53  1  0
 22 54  1  0
 25 55  1  0
 26 56  1  0
 29 57  1  0
 29 58  1  0
 30 59  1  0
 30 60  1  0
 32 61  1  0
 32 62  1  0
 33 63  1  0
 33 64  1  0
 34 65  1  0
 35 66  1  0
 38 67  1  0
 38 68  1  0
M  END
>  <Binding energies>  (1) 
[-9.45]

>  <Ligand effiencies>  (1) 
[-0.23625]

>  <Interactions>  (1) 
["V-A:HIS:456:CD2:4068, V-B:GLU:543:CD:9880, H-B:LYS:547:NZ:9923, V-B:GLU:543:C:9874, V-B:GLU:543:CB:9878, V-A:HIS:456:CE1:4069, V-B:HIS:456:CE1:9040, V-B:GLU:543:CG:9879, V-B:TRP:381:CH2:8343, V-B:GLY:454:CA:9020, V-B:LEU:475:CD1:9229, V-B:ILE:369:CD1:8210, V-A:TYR:539:CE2:4876, V-A:ALA:541:CB:4892, V-B:ILE:369:CG2:8208, V-A:TYR:539:CD2:4874, V-B:GLU:543:CA:9876, V-A:TYR:484:CZ:4347, V-A:TYR:484:CE1:4345, H-A:TYR:484:OH:4348, V-B:TRP:381:CZ2:8341, V-B:TRP:381:CZ3:8342, V-B:SER:385:C:8376, V-B:GLY:544:C:9884, H-B:GLU:543:O:9875, H-A:HIS:456:ND1:4067"]

$$$$
RR10_Rahimova_2017
     RDKit          3D

 66 70  0  0  0  0  0  0  0  0999 V2000
  133.3720  119.6250   60.6300 C   0  0  0  0  0  0  0  0  0  0  0  0
  133.8480  121.0870   60.6730 C   0  0  1  0  0  0  0  0  0  0  0  0
  132.7960  122.0540   60.0810 C   0  0  0  0  0  0  0  0  0  0  0  0
  133.3100  123.5120   60.1030 C   0  0  0  0  0  0  0  0  0  0  0  0
  133.6810  123.9800   61.5330 C   0  0  1  0  0  0  0  0  0  0  0  0
  132.4810  124.0960   62.3710 N   0  0  0  0  0  0  0  0  0  0  0  0
  132.4740  124.3170   63.6990 C   0  0  0  0  0  0  0  0  0  0  0  0
  133.5050  124.4690   64.3590 O   0  0  0  0  0  0  0  0  0  0  0  0
  131.0950  124.3610   64.3890 C   0  0  1  0  0  0  0  0  0  0  0  0
  130.7100  122.9340   64.8600 C   0  0  0  0  0  0  0  0  0  0  0  0
  129.3700  122.9890   65.6330 C   0  0  0  0  0  0  0  0  0  0  0  0
  129.3820  124.0420   66.7650 C   0  0  0  0  0  0  0  0  0  0  0  0
  129.8230  125.3650   66.2450 N   0  0  0  0  0  0  0  0  0  0  0  0
  129.5910  126.7110   67.3740 S   0  0  0  0  0  0  0  0  0  0  0  0
  130.7080  127.6480   67.2030 O   0  0  0  0  0  0  0  0  0  0  0  0
  129.2980  126.1440   68.6970 O   0  0  0  0  0  0  0  0  0  0  0  0
  128.1180  127.5540   66.7980 C   0  0  0  0  0  0  0  0  0  0  0  0
  126.9480  127.4890   67.5620 C   0  0  0  0  0  0  0  0  0  0  0  0
  125.7660  128.1210   67.1670 C   0  0  0  0  0  0  0  0  0  0  0  0
  125.8090  128.8310   65.9640 C   0  0  0  0  0  0  0  0  0  0  0  0
  124.8850  129.5600   65.2550 N   0  0  0  0  0  0  0  0  0  0  0  0
  125.5030  130.0380   64.1180 C   0  0  0  0  0  0  0  0  0  0  0  0
  124.8070  130.8760   63.0840 C   0  0  0  0  0  0  0  0  0  0  0  0
  124.4850  132.2130   63.3530 C   0  0  0  0  0  0  0  0  0  0  0  0
  123.8430  132.9920   62.3940 C   0  0  0  0  0  0  0  0  0  0  0  0
  123.5190  132.4370   61.1590 C   0  0  0  0  0  0  0  0  0  0  0  0
  123.8330  131.1110   60.8750 C   0  0  0  0  0  0  0  0  0  0  0  0
  124.4750  130.3330   61.8350 C   0  0  0  0  0  0  0  0  0  0  0  0
  126.7640  129.6710   64.0510 N   0  0  0  0  0  0  0  0  0  0  0  0
  126.9820  128.9210   65.1770 C   0  0  0  0  0  0  0  0  0  0  0  0
  128.1540  128.2770   65.6000 C   0  0  0  0  0  0  0  0  0  0  0  0
  131.1570  125.3310   65.5940 C   0  0  0  0  0  0  0  0  0  0  0  0
  134.7240  122.9910   62.1210 C   0  0  0  0  0  0  0  0  0  0  0  0
  134.2120  121.5330   62.1090 C   0  0  0  0  0  0  0  0  0  0  0  0
  133.2496  119.2489   61.6564 H   0  0  0  0  0  0  0  0  0  0  0  0
  132.4090  119.5683   60.1014 H   0  0  0  0  0  0  0  0  0  0  0  0
  134.1170  119.0122   60.1014 H   0  0  0  0  0  0  0  0  0  0  0  0
  134.7543  121.1315   60.0513 H   0  0  0  0  0  0  0  0  0  0  0  0
  132.5842  121.7628   59.0416 H   0  0  0  0  0  0  0  0  0  0  0  0
  131.8827  121.9949   60.6912 H   0  0  0  0  0  0  0  0  0  0  0  0
  134.2028  123.5826   59.4643 H   0  0  0  0  0  0  0  0  0  0  0  0
  132.5018  124.1607   59.7342 H   0  0  0  0  0  0  0  0  0  0  0  0
  134.1304  124.9835   61.5019 H   0  0  0  0  0  0  0  0  0  0  0  0
  131.6050  123.8770   61.9200 H   0  0  0  0  0  0  0  0  0  0  0  0
  130.3317  124.7192   63.6826 H   0  0  0  0  0  0  0  0  0  0  0  0
  130.6018  122.2760   63.9852 H   0  0  0  0  0  0  0  0  0  0  0  0
  131.4976  122.5409   65.5197 H   0  0  0  0  0  0  0  0  0  0  0  0
  128.5652  123.2399   64.9264 H   0  0  0  0  0  0  0  0  0  0  0  0
  129.2101  122.0036   66.0950 H   0  0  0  0  0  0  0  0  0  0  0  0
  128.3682  124.1368   67.1813 H   0  0  0  0  0  0  0  0  0  0  0  0
  130.0849  123.7155   67.5456 H   0  0  0  0  0  0  0  0  0  0  0  0
  126.9588  126.9219   68.5045 H   0  0  0  0  0  0  0  0  0  0  0  0
  124.8490  128.0627   67.7717 H   0  0  0  0  0  0  0  0  0  0  0  0
  123.9160  129.7390   65.4770 H   0  0  0  0  0  0  0  0  0  0  0  0
  124.7414  132.6504   64.3292 H   0  0  0  0  0  0  0  0  0  0  0  0
  123.5930  134.0410   62.6111 H   0  0  0  0  0  0  0  0  0  0  0  0
  123.0106  133.0515   60.4014 H   0  0  0  0  0  0  0  0  0  0  0  0
  123.5751  130.6796   59.8965 H   0  0  0  0  0  0  0  0  0  0  0  0
  124.7234  129.2849   61.6117 H   0  0  0  0  0  0  0  0  0  0  0  0
  129.0776  128.3385   65.0056 H   0  0  0  0  0  0  0  0  0  0  0  0
  131.4245  126.3392   65.2446 H   0  0  0  0  0  0  0  0  0  0  0  0
  131.9167  124.9892   66.3124 H   0  0  0  0  0  0  0  0  0  0  0  0
  135.6448  123.0487   61.5221 H   0  0  0  0  0  0  0  0  0  0  0  0
  134.9103  123.2765   63.1668 H   0  0  0  0  0  0  0  0  0  0  0  0
  134.9981  120.8721   62.5029 H   0  0  0  0  0  0  0  0  0  0  0  0
  133.3095  121.4725   62.7350 H   0  0  0  0  0  0  0  0  0  0  0  0
  1  2  1  0
  2  3  1  0
  3  4  1  0
  4  5  1  0
  5  6  1  0
  6  7  1  0
  7  8  2  0
  7  9  1  0
  9 10  1  0
 10 11  1  0
 11 12  1  0
 12 13  1  0
 13 14  1  0
 14 15  2  0
 14 16  2  0
 14 17  1  0
 17 18  2  0
 18 19  1  0
 19 20  2  0
 20 21  1  0
 21 22  1  0
 22 23  1  0
 23 24  2  0
 24 25  1  0
 25 26  2  0
 26 27  1  0
 27 28  2  0
 22 29  2  0
 29 30  1  0
 30 31  2  0
 13 32  1  0
  5 33  1  0
 33 34  1  0
 34  2  1  0
 32  9  1  0
 31 17  1  0
 30 20  1  0
 28 23  1  0
  1 35  1  0
  1 36  1  0
  1 37  1  0
  2 38  1  6
  3 39  1  0
  3 40  1  0
  4 41  1  0
  4 42  1  0
  5 43  1  6
  6 44  1  0
  9 45  1  6
 10 46  1  0
 10 47  1  0
 11 48  1  0
 11 49  1  0
 12 50  1  0
 12 51  1  0
 18 52  1  0
 19 53  1  0
 21 54  1  0
 24 55  1  0
 25 56  1  0
 26 57  1  0
 27 58  1  0
 28 59  1  0
 31 60  1  0
 32 61  1  0
 32 62  1  0
 33 63  1  0
 33 64  1  0
 34 65  1  0
 34 66  1  0
M  END
>  <Binding energies>  (1) 
[-9.62]

>  <Ligand effiencies>  (1) 
[-0.2672222222222222]

>  <Interactions>  (1) 
["V-B:ARG:545:CG:9894, V-B:GLU:543:C:9874, V-B:GLU:543:CB:9878, V-A:HIS:456:CE1:4069, V-B:ARG:545:CZ:9898, H-A:HIS:456:NE2:4070, V-B:ARG:545:CD:9895, V-B:HIS:456:CE1:9040, V-B:GLU:543:CG:9879, V-A:GLU:543:CD:4908, V-B:GLY:454:CA:9020, V-B:ASP:366:CG:8184, V-B:LEU:475:CD1:9229, V-B:ILE:369:CD1:8210, H-B:TYR:484:OH:9319, V-B:ILE:369:CG2:8208, V-B:ALA:541:CB:9864, V-B:GLU:543:CA:9876, V-A:TYR:484:CZ:4347, V-A:LEU:475:CD1:4258, V-A:TYR:484:CE1:4345, H-A:GLY:454:N:4050, V-A:GLY:453:CA:4044, H-A:TYR:484:OH:4348, V-A:GLY:453:C:4042, V-A:GLY:454:CA:4049, V-A:ASP:366:CG:3213, V-B:TYR:539:CE2:9848, V-A:ILE:369:CB:3236, V-A:ILE:369:CG2:3237, V-A:ILE:369:CD1:3239, V-A:TRP:381:CH2:3372"]

$$$$
RR11_Rahimova_2017
     RDKit          3D

 55 60  0  0  0  0  0  0  0  0999 V2000
  134.9830  123.5540   60.0620 N   0  0  0  0  0  0  0  0  0  0  0  0
  134.1010  123.8880   61.0880 C   0  0  0  0  0  0  0  0  0  0  0  0
  134.5980  124.2900   62.3260 C   0  0  0  0  0  0  0  0  0  0  0  0
  133.7160  124.6250   63.3490 C   0  0  0  0  0  0  0  0  0  0  0  0
  132.3310  124.5620   63.1450 C   0  0  0  0  0  0  0  0  0  0  0  0
  131.3830  124.9300   64.2470 C   0  0  0  0  0  0  0  0  0  0  0  0
  130.8010  126.1030   64.3670 N   0  0  0  0  0  0  0  0  0  0  0  0
  130.0180  126.0070   65.4870 C   0  0  0  0  0  0  0  0  0  0  0  0
  129.1770  126.9680   66.0660 C   0  0  0  0  0  0  0  0  0  0  0  0
  128.4580  126.6180   67.2150 C   0  0  0  0  0  0  0  0  0  0  0  0
  127.5420  127.6430   67.8690 C   0  0  0  0  0  0  0  0  0  0  0  0
  126.5690  128.2820   66.8880 C   0  0  0  0  0  0  0  0  0  0  0  0
  125.3480  128.7820   67.3540 C   0  0  0  0  0  0  0  0  0  0  0  0
  124.4280  129.3850   66.4950 C   0  0  0  0  0  0  0  0  0  0  0  0
  124.7600  129.4870   65.1380 C   0  0  0  0  0  0  0  0  0  0  0  0
  124.0360  130.0210   64.1040 N   0  0  0  0  0  0  0  0  0  0  0  0
  124.7870  129.8650   63.0360 C   0  0  0  0  0  0  0  0  0  0  0  0
  124.3930  130.2910   61.6510 C   0  0  0  0  0  0  0  0  0  0  0  0
  125.0940  129.8160   60.5350 C   0  0  0  0  0  0  0  0  0  0  0  0
  124.7360  130.2190   59.2510 C   0  0  0  0  0  0  0  0  0  0  0  0
  123.6720  131.1010   59.0740 C   0  0  0  0  0  0  0  0  0  0  0  0
  123.3160  131.5090   57.7890 N   0  0  0  0  0  0  0  0  0  0  0  0
  122.9640  131.5780   60.1740 C   0  0  0  0  0  0  0  0  0  0  0  0
  123.3230  131.1750   61.4570 C   0  0  0  0  0  0  0  0  0  0  0  0
  125.9860  129.2520   63.3330 N   0  0  0  0  0  0  0  0  0  0  0  0
  126.0040  128.9880   64.6820 C   0  0  0  0  0  0  0  0  0  0  0  0
  126.9310  128.3890   65.5380 C   0  0  0  0  0  0  0  0  0  0  0  0
  128.5960  125.3470   67.7830 C   0  0  0  0  0  0  0  0  0  0  0  0
  129.4290  124.3690   67.2330 C   0  0  0  0  0  0  0  0  0  0  0  0
  130.1290  124.7260   66.0780 C   0  0  0  0  0  0  0  0  0  0  0  0
  131.0140  124.0660   65.2580 N   0  0  0  0  0  0  0  0  0  0  0  0
  131.8460  124.1550   61.8950 C   0  0  0  0  0  0  0  0  0  0  0  0
  132.7260  123.8190   60.8700 C   0  0  0  0  0  0  0  0  0  0  0  0
  135.2720  122.5930   59.9480 H   0  0  0  0  0  0  0  0  0  0  0  0
  135.2910  124.2690   59.4200 H   0  0  0  0  0  0  0  0  0  0  0  0
  135.6838  124.3424   62.4942 H   0  0  0  0  0  0  0  0  0  0  0  0
  134.1094  124.9420   64.3261 H   0  0  0  0  0  0  0  0  0  0  0  0
  129.0844  127.9727   65.6279 H   0  0  0  0  0  0  0  0  0  0  0  0
  126.9643  127.1427   68.6602 H   0  0  0  0  0  0  0  0  0  0  0  0
  128.1789  128.4449   68.2706 H   0  0  0  0  0  0  0  0  0  0  0  0
  125.1073  128.6977   68.4240 H   0  0  0  0  0  0  0  0  0  0  0  0
  123.4691  129.7693   66.8730 H   0  0  0  0  0  0  0  0  0  0  0  0
  125.9338  129.1193   60.6740 H   0  0  0  0  0  0  0  0  0  0  0  0
  125.2914  129.8423   58.3794 H   0  0  0  0  0  0  0  0  0  0  0  0
  122.6240  130.9830   57.2740 H   0  0  0  0  0  0  0  0  0  0  0  0
  123.7270  132.3470   57.4020 H   0  0  0  0  0  0  0  0  0  0  0  0
  122.1228  132.2718   60.0294 H   0  0  0  0  0  0  0  0  0  0  0  0
  122.7628  131.5531   62.3249 H   0  0  0  0  0  0  0  0  0  0  0  0
  126.6920  129.0470   62.6410 H   0  0  0  0  0  0  0  0  0  0  0  0
  127.8993  128.0187   65.1702 H   0  0  0  0  0  0  0  0  0  0  0  0
  128.0287  125.1090   68.6949 H   0  0  0  0  0  0  0  0  0  0  0  0
  129.5282  123.3713   67.6854 H   0  0  0  0  0  0  0  0  0  0  0  0
  131.3590  123.1210   65.3340 H   0  0  0  0  0  0  0  0  0  0  0  0
  130.7610  124.1005   61.7222 H   0  0  0  0  0  0  0  0  0  0  0  0
  132.3376  123.5002   59.8915 H   0  0  0  0  0  0  0  0  0  0  0  0
  1  2  1  0
  2  3  2  0
  3  4  1  0
  4  5  2  0
  5  6  1  0
  6  7  2  0
  7  8  1  0
  8  9  2  0
  9 10  1  0
 10 11  1  0
 11 12  1  0
 12 13  2  0
 13 14  1  0
 14 15  2  0
 15 16  1  0
 16 17  2  0
 17 18  1  0
 18 19  2  0
 19 20  1  0
 20 21  2  0
 21 22  1  0
 21 23  1  0
 23 24  2  0
 17 25  1  0
 25 26  1  0
 26 27  2  0
 10 28  2  0
 28 29  1  0
 29 30  2  0
 30 31  1  0
  5 32  1  0
 32 33  2  0
 33  2  1  0
 31  6  1  0
 30  8  1  0
 27 12  1  0
 26 15  1  0
 24 18  1  0
  1 34  1  0
  1 35  1  0
  3 36  1  0
  4 37  1  0
  9 38  1  0
 11 39  1  0
 11 40  1  0
 13 41  1  0
 14 42  1  0
 19 43  1  0
 20 44  1  0
 22 45  1  0
 22 46  1  0
 23 47  1  0
 24 48  1  0
 25 49  1  0
 27 50  1  0
 28 51  1  0
 29 52  1  0
 31 53  1  0
 32 54  1  0
 33 55  1  0
M  END
>  <Binding energies>  (1) 
[-7.84]

>  <Ligand effiencies>  (1) 
[-0.20102564102564102]

>  <Interactions>  (1) 
["V-B:ARG:545:CG:9894, V-B:GLU:543:CD:9880, V-B:GLU:543:C:9874, V-B:GLU:543:CB:9878, V-A:HIS:456:CE1:4069, V-B:ARG:545:CZ:9898, V-B:ARG:545:CD:9895, V-B:HIS:456:CE1:9040, V-A:GLU:543:CD:4908, H-B:GLY:454:N:9021, V-B:ILE:369:CB:8207, V-B:ASP:366:CG:8184, V-B:ASP:366:CA:8181, V-B:ASP:366:CB:8183, V-B:ASP:366:C:8179, V-B:ILE:369:CD1:8210, V-A:TYR:539:CE2:4876, V-B:ILE:369:CG2:8208, H-B:ARG:545:NH2:9900, V-B:GLU:543:CA:9876, H-B:ARG:545:NE:9896, V-A:TYR:484:CZ:4347, V-A:TYR:484:CE1:4345, V-A:ARG:545:CZ:4926, V-A:GLY:453:CA:4044, H-A:TYR:484:OH:4348, V-A:GLY:453:C:4042, V-A:ASP:366:CB:3212, V-A:ASP:366:CG:3213, V-A:ILE:369:CB:3236, H-A:ASP:366:O:3209, V-A:ILE:369:CG2:3237, V-A:ASP:366:CA:3210, V-A:ILE:369:CG1:3238, V-A:ILE:369:CD1:3239, H-A:TYR:539:OH:4878, V-A:TYR:539:CZ:4877, V-B:ILE:369:CG1:8209, H-B:GLU:543:OE1:9881, H-A:ASP:366:OD2:3215, H-B:ASP:366:O:8180, H-A:CYS:365:O:3206"]

$$$$
RR11_Rahimova_2017-again1
     RDKit          3D

 56 61  0  0  0  0  0  0  0  0999 V2000
  131.6990  122.7770   74.1100 N   0  0  0  0  0  0  0  0  0  0  0  0
  130.9860  123.5060   73.1590 C   0  0  0  0  0  0  0  0  0  0  0  0
  130.7150  122.9450   71.9130 C   0  0  0  0  0  0  0  0  0  0  0  0
  130.0060  123.6760   70.9630 C   0  0  0  0  0  0  0  0  0  0  0  0
  129.5630  124.9740   71.2510 C   0  0  0  0  0  0  0  0  0  0  0  0
  128.8060  125.7640   70.2240 C   0  0  0  0  0  0  0  0  0  0  0  0
  127.5000  125.7350   70.0800 N   0  0  0  0  0  0  0  0  0  0  0  0
  127.2320  126.5740   69.0290 C   0  0  0  0  0  0  0  0  0  0  0  0
  126.0010  126.9070   68.4500 C   0  0  0  0  0  0  0  0  0  0  0  0
  125.9990  127.7860   67.3660 C   0  0  0  0  0  0  0  0  0  0  0  0
  127.1860  128.3260   66.8580 C   0  0  0  0  0  0  0  0  0  0  0  0
  127.1270  129.2770   65.6700 C   0  0  0  0  0  0  0  0  0  0  0  0
  127.5330  128.6090   64.3640 C   0  0  0  0  0  0  0  0  0  0  0  0
  126.6020  128.5020   63.3240 C   0  0  0  0  0  0  0  0  0  0  0  0
  126.9160  127.8980   62.1040 C   0  0  0  0  0  0  0  0  0  0  0  0
  128.2170  127.4040   61.9660 C   0  0  0  0  0  0  0  0  0  0  0  0
  128.8530  126.7500   60.9190 N   0  0  0  0  0  0  0  0  0  0  0  0
  130.1510  126.4540   61.2660 C   0  0  0  0  0  0  0  0  0  0  0  0
  131.1640  125.7390   60.4310 C   0  0  0  0  0  0  0  0  0  0  0  0
  131.2490  125.9980   59.0570 C   0  0  0  0  0  0  0  0  0  0  0  0
  132.1960  125.3420   58.2750 C   0  0  0  0  0  0  0  0  0  0  0  0
  133.0630  124.4230   58.8640 C   0  0  0  0  0  0  0  0  0  0  0  0
  134.0130  123.7700   58.0810 N   0  0  0  0  0  0  0  0  0  0  0  0
  132.9850  124.1570   60.2300 C   0  0  0  0  0  0  0  0  0  0  0  0
  132.0380  124.8130   61.0110 C   0  0  0  0  0  0  0  0  0  0  0  0
  130.3310  126.9360   62.5420 N   0  0  0  0  0  0  0  0  0  0  0  0
  129.1600  127.5220   63.0010 C   0  0  0  0  0  0  0  0  0  0  0  0
  128.8420  128.1330   64.2170 C   0  0  0  0  0  0  0  0  0  0  0  0
  128.4270  128.0270   67.4350 C   0  0  0  0  0  0  0  0  0  0  0  0
  128.4230  127.1410   68.5150 C   0  0  0  0  0  0  0  0  0  0  0  0
  129.4080  126.6030   69.3100 N   0  0  0  0  0  0  0  0  0  0  0  0
  129.8420  125.5250   72.5090 C   0  0  0  0  0  0  0  0  0  0  0  0
  130.5500  124.7950   73.4600 C   0  0  0  0  0  0  0  0  0  0  0  0
  132.6250  122.4440   73.8870 H   0  0  0  0  0  0  0  0  0  0  0  0
  131.2640  122.5550   74.9940 H   0  0  0  0  0  0  0  0  0  0  0  0
  131.0603  121.9269   71.6800 H   0  0  0  0  0  0  0  0  0  0  0  0
  129.7922  123.2315   69.9798 H   0  0  0  0  0  0  0  0  0  0  0  0
  125.0616  126.4873   68.8389 H   0  0  0  0  0  0  0  0  0  0  0  0
  125.0414  128.0610   66.8997 H   0  0  0  0  0  0  0  0  0  0  0  0
  126.0975  129.6510   65.5691 H   0  0  0  0  0  0  0  0  0  0  0  0
  127.8387  130.0936   65.8616 H   0  0  0  0  0  0  0  0  0  0  0  0
  125.5900  128.9068   63.4723 H   0  0  0  0  0  0  0  0  0  0  0  0
  126.1774  127.8152   61.2931 H   0  0  0  0  0  0  0  0  0  0  0  0
  128.4610  126.5000   60.0230 H   0  0  0  0  0  0  0  0  0  0  0  0
  130.5641  126.7233   58.5935 H   0  0  0  0  0  0  0  0  0  0  0  0
  132.2598  125.5482   57.1964 H   0  0  0  0  0  0  0  0  0  0  0  0
  134.7410  124.3070   57.6300 H   0  0  0  0  0  0  0  0  0  0  0  0
  133.9480  122.7720   57.9490 H   0  0  0  0  0  0  0  0  0  0  0  0
  133.6706  123.4300   60.6899 H   0  0  0  0  0  0  0  0  0  0  0  0
  131.9764  124.6026   62.0889 H   0  0  0  0  0  0  0  0  0  0  0  0
  131.2080  126.8460   63.0330 H   0  0  0  0  0  0  0  0  0  0  0  0
  129.5853  128.2353   65.0214 H   0  0  0  0  0  0  0  0  0  0  0  0
  129.3602  128.4689   67.0557 H   0  0  0  0  0  0  0  0  0  0  0  0
  130.4050  126.7540   69.2670 H   0  0  0  0  0  0  0  0  0  0  0  0
  129.4988  126.5426   72.7471 H   0  0  0  0  0  0  0  0  0  0  0  0
  130.7645  125.2341   74.4455 H   0  0  0  0  0  0  0  0  0  0  0  0
  1  2  1  0
  2  3  2  0
  3  4  1  0
  4  5  2  0
  5  6  1  0
  6  7  2  0
  7  8  1  0
  8  9  2  0
  9 10  1  0
 10 11  2  0
 11 12  1  0
 12 13  1  0
 13 14  2  0
 14 15  1  0
 15 16  2  0
 16 17  1  0
 17 18  1  0
 18 19  1  0
 19 20  2  0
 20 21  1  0
 21 22  2  0
 22 23  1  0
 22 24  1  0
 24 25  2  0
 18 26  2  0
 26 27  1  0
 27 28  2  0
 11 29  1  0
 29 30  2  0
 30 31  1  0
  5 32  1  0
 32 33  2  0
 33  2  1  0
 31  6  1  0
 30  8  1  0
 28 13  1  0
 27 16  1  0
 25 19  1  0
  1 34  1  0
  1 35  1  0
  3 36  1  0
  4 37  1  0
  9 38  1  0
 10 39  1  0
 12 40  1  0
 12 41  1  0
 14 42  1  0
 15 43  1  0
 17 44  1  0
 20 45  1  0
 21 46  1  0
 23 47  1  0
 23 48  1  0
 24 49  1  0
 25 50  1  0
 26 51  1  0
 28 52  1  0
 29 53  1  0
 31 54  1  0
 32 55  1  0
 33 56  1  0
M  CHG  1  26   1
M  END
>  <Binding energies>  (1) 
[-8.21]

>  <Ligand effiencies>  (1) 
[-0.20525000000000002]

>  <Interactions>  (1) 
["V-B:ARG:545:CG:9894, V-A:HIS:456:CD2:4068, V-B:GLU:543:CD:9880, V-B:GLU:543:C:9874, V-B:GLU:543:CB:9878, V-A:HIS:456:CE1:4069, H-A:GLU:543:OE1:4909, V-B:HIS:456:CE1:9040, H-A:GLU:543:OE2:4910, V-A:GLU:543:CD:4908, V-A:TYR:484:CZ:4347, V-A:TYR:484:CE1:4345, V-A:ASP:366:CB:3212, V-A:ASP:366:CG:3213, H-B:TYR:539:OH:9850, V-A:ILE:369:CB:3236, H-A:ASP:366:O:3209, V-A:ILE:369:CG2:3237, V-A:ASP:366:CA:3210, V-B:GLY:544:C:9884, H-B:ARG:545:N:9892, V-B:ARG:545:CA:9891, V-A:HIS:456:CG:4066, V-A:TYR:484:CD2:4344, V-A:TYR:484:CE2:4346, V-A:TYR:484:CD1:4343, V-A:HIS:456:CB:4065, V-A:TYR:484:CG:4342, V-A:ASP:366:C:3208, V-B:ARG:545:CB:9893, V-A:ASP:473:CG:4240, H-A:HIS:456:ND1:4067, V-A:ASP:473:CB:4239, H-A:ASP:473:OD1:4241"]

$$$$
RR11_Rahimova_2017-again2
     RDKit          3D

 57 62  0  0  0  0  0  0  0  0999 V2000
  127.1990  135.1420   60.5410 N   0  0  0  0  0  0  0  0  0  0  0  0
  127.8360  133.9020   60.5590 C   0  0  0  0  0  0  0  0  0  0  0  0
  127.9650  133.1710   59.3800 C   0  0  0  0  0  0  0  0  0  0  0  0
  128.5970  131.9300   59.3990 C   0  0  0  0  0  0  0  0  0  0  0  0
  129.1030  131.4140   60.5990 C   0  0  0  0  0  0  0  0  0  0  0  0
  129.7710  130.0780   60.6220 C   0  0  0  0  0  0  0  0  0  0  0  0
  130.0950  129.3380   61.7370 N   0  0  0  0  0  0  0  0  0  0  0  0
  130.6870  128.1410   61.3590 C   0  0  0  0  0  0  0  0  0  0  0  0
  131.1750  127.0670   62.1090 C   0  0  0  0  0  0  0  0  0  0  0  0
  131.7030  125.9830   61.3970 C   0  0  0  0  0  0  0  0  0  0  0  0
  132.2440  124.7810   62.1590 C   0  0  0  0  0  0  0  0  0  0  0  0
  131.4610  124.4890   63.4320 C   0  0  0  0  0  0  0  0  0  0  0  0
  130.8420  123.2440   63.5910 C   0  0  0  0  0  0  0  0  0  0  0  0
  130.1100  122.9180   64.7360 C   0  0  0  0  0  0  0  0  0  0  0  0
  130.0280  123.9000   65.7270 C   0  0  0  0  0  0  0  0  0  0  0  0
  129.3880  123.9170   66.9590 N   0  0  0  0  0  0  0  0  0  0  0  0
  129.5950  125.1270   67.5820 C   0  0  0  0  0  0  0  0  0  0  0  0
  129.0640  125.5530   68.9120 C   0  0  0  0  0  0  0  0  0  0  0  0
  127.9860  126.4410   68.9900 C   0  0  0  0  0  0  0  0  0  0  0  0
  127.4840  126.8310   70.2290 C   0  0  0  0  0  0  0  0  0  0  0  0
  128.0590  126.3340   71.3970 C   0  0  0  0  0  0  0  0  0  0  0  0
  127.5530  126.7190   72.6380 N   0  0  0  0  0  0  0  0  0  0  0  0
  129.1360  125.4520   71.3310 C   0  0  0  0  0  0  0  0  0  0  0  0
  129.6370  125.0620   70.0920 C   0  0  0  0  0  0  0  0  0  0  0  0
  130.3800  125.8710   66.7320 N   0  0  0  0  0  0  0  0  0  0  0  0
  130.6590  125.1460   65.5810 C   0  0  0  0  0  0  0  0  0  0  0  0
  131.3950  125.4640   64.4360 C   0  0  0  0  0  0  0  0  0  0  0  0
  131.7640  125.9950   59.9980 C   0  0  0  0  0  0  0  0  0  0  0  0
  131.2850  127.0690   59.2430 C   0  0  0  0  0  0  0  0  0  0  0  0
  130.7400  128.1410   59.9550 C   0  0  0  0  0  0  0  0  0  0  0  0
  130.1740  129.3380   59.5350 N   0  0  0  0  0  0  0  0  0  0  0  0
  128.9710  132.1590   61.7770 C   0  0  0  0  0  0  0  0  0  0  0  0
  128.3400  133.4000   61.7570 C   0  0  0  0  0  0  0  0  0  0  0  0
  127.5670  135.8820   59.9610 H   0  0  0  0  0  0  0  0  0  0  0  0
  126.4160  135.3080   61.1570 H   0  0  0  0  0  0  0  0  0  0  0  0
  127.5685  133.5732   58.4360 H   0  0  0  0  0  0  0  0  0  0  0  0
  128.6992  131.3529   58.4682 H   0  0  0  0  0  0  0  0  0  0  0  0
  129.9030  129.6610   62.6730 H   0  0  0  0  0  0  0  0  0  0  0  0
  131.1456  127.0731   63.2086 H   0  0  0  0  0  0  0  0  0  0  0  0
  132.1934  123.8981   61.5048 H   0  0  0  0  0  0  0  0  0  0  0  0
  133.2787  125.0125   62.4520 H   0  0  0  0  0  0  0  0  0  0  0  0
  130.9346  122.4975   62.7884 H   0  0  0  0  0  0  0  0  0  0  0  0
  129.6232  121.9384   64.8513 H   0  0  0  0  0  0  0  0  0  0  0  0
  128.8380  123.1820   67.3770 H   0  0  0  0  0  0  0  0  0  0  0  0
  127.5325  126.8333   68.0678 H   0  0  0  0  0  0  0  0  0  0  0  0
  126.6360  127.5294   70.2855 H   0  0  0  0  0  0  0  0  0  0  0  0
  126.7160  126.2810   72.9920 H   0  0  0  0  0  0  0  0  0  0  0  0
  127.9930  127.4770   73.1390 H   0  0  0  0  0  0  0  0  0  0  0  0
  129.5891  125.0649   72.2556 H   0  0  0  0  0  0  0  0  0  0  0  0
  130.4866  124.3652   70.0395 H   0  0  0  0  0  0  0  0  0  0  0  0
  130.6790  126.8090   66.9550 H   0  0  0  0  0  0  0  0  0  0  0  0
  131.8994  126.4355   64.3281 H   0  0  0  0  0  0  0  0  0  0  0  0
  132.2030  125.1315   59.4767 H   0  0  0  0  0  0  0  0  0  0  0  0
  131.3344  127.0705   58.1441 H   0  0  0  0  0  0  0  0  0  0  0  0
  130.0500  129.6600   58.5860 H   0  0  0  0  0  0  0  0  0  0  0  0
  129.3678  131.7619   62.7230 H   0  0  0  0  0  0  0  0  0  0  0  0
  128.2397  133.9826   62.6846 H   0  0  0  0  0  0  0  0  0  0  0  0
  1  2  1  0
  2  3  2  0
  3  4  1  0
  4  5  2  0
  5  6  1  0
  6  7  1  0
  7  8  1  0
  8  9  2  0
  9 10  1  0
 10 11  1  0
 11 12  1  0
 12 13  2  0
 13 14  1  0
 14 15  2  0
 15 16  1  0
 16 17  1  0
 17 18  1  0
 18 19  2  0
 19 20  1  0
 20 21  2  0
 21 22  1  0
 21 23  1  0
 23 24  2  0
 17 25  2  0
 25 26  1  0
 26 27  2  0
 10 28  2  0
 28 29  1  0
 29 30  2  0
 30 31  1  0
  5 32  1  0
 32 33  2  0
 33  2  1  0
 31  6  2  0
 30  8  1  0
 27 12  1  0
 26 15  1  0
 24 18  1  0
  1 34  1  0
  1 35  1  0
  3 36  1  0
  4 37  1  0
  7 38  1  0
  9 39  1  0
 11 40  1  0
 11 41  1  0
 13 42  1  0
 14 43  1  0
 16 44  1  0
 19 45  1  0
 20 46  1  0
 22 47  1  0
 22 48  1  0
 23 49  1  0
 24 50  1  0
 25 51  1  0
 27 52  1  0
 28 53  1  0
 29 54  1  0
 31 55  1  0
 32 56  1  0
 33 57  1  0
M  CHG  2  25   1  31   1
M  END
>  <Binding energies>  (1) 
[-8.71]

>  <Ligand effiencies>  (1) 
[-0.21243902439024392]

>  <Interactions>  (1) 
["V-A:HIS:456:CD2:4068, V-B:GLU:543:C:9874, V-B:GLU:543:CB:9878, V-A:HIS:456:CE1:4069, H-A:GLU:543:OE1:4909, V-B:HIS:456:CE1:9040, V-B:GLU:543:CG:9879, H-A:GLU:543:OE2:4910, V-A:GLU:543:CD:4908, V-B:TRP:381:CH2:8343, V-A:TYR:539:C:4867, V-A:ALA:541:CA:4890, V-B:PRO:482:CG:9298, V-A:TYR:539:CE2:4876, V-A:ALA:541:CB:4892, V-A:TYR:539:CD2:4874, V-B:ALA:541:CB:9864, V-B:GLU:543:CA:9876, V-A:TYR:484:CZ:4347, V-A:TYR:484:CE1:4345, H-A:TYR:484:OH:4348, V-A:ASP:366:CB:3212, V-A:ASP:366:CG:3213, V-A:TYR:539:CZ:4877, V-B:GLY:544:C:9884, V-A:TYR:484:CD1:4343, H-A:TYR:539:O:4868, H-B:GLY:544:O:9885, H-B:GLU:543:O:9875, V-A:TYR:539:CG:4872"]

$$$$
RR12_Rahimova_2017
     RDKit          3D

 51 53  0  0  0  0  0  0  0  0999 V2000
  128.6160  125.6860   70.5720 C   0  0  0  0  0  0  0  0  0  0  0  0
  127.8300  126.8740   70.0010 C   0  0  0  0  0  0  0  0  0  0  0  0
  126.9400  126.4760   68.8100 C   0  0  0  0  0  0  0  0  0  0  0  0
  127.3280  127.2090   67.6070 N   0  0  0  0  0  0  0  0  0  0  0  0
  128.5280  127.1250   66.9170 C   0  0  0  0  0  0  0  0  0  0  0  0
  129.6940  126.2530   67.3500 C   0  0  0  0  0  0  0  0  0  0  0  0
  130.0840  125.2200   66.2780 C   0  0  0  0  0  0  0  0  0  0  0  0
  131.4650  125.4990   65.6550 C   0  0  0  0  0  0  0  0  0  0  0  0
  131.7830  124.6440   64.5130 N   0  0  0  0  0  0  0  0  0  0  0  0
  133.0260  124.3410   64.0960 C   0  0  0  0  0  0  0  0  0  0  0  0
  134.0440  124.7670   64.6460 O   0  0  0  0  0  0  0  0  0  0  0  0
  133.1100  123.4140   62.8770 C   0  0  0  0  0  0  0  0  0  0  0  0
  131.7970  123.1710   62.3710 O   0  0  0  0  0  0  0  0  0  0  0  0
  131.5160  121.9560   61.7740 C   0  0  0  0  0  0  0  0  0  0  0  0
  130.1690  121.5910   61.7160 C   0  0  0  0  0  0  0  0  0  0  0  0
  129.7870  120.3870   61.1300 C   0  0  0  0  0  0  0  0  0  0  0  0
  130.7570  119.5430   60.5970 C   0  0  0  0  0  0  0  0  0  0  0  0
  132.1050  119.8910   60.6480 C   0  0  0  0  0  0  0  0  0  0  0  0
  132.4860  121.0950   61.2350 C   0  0  0  0  0  0  0  0  0  0  0  0
  128.5710  127.8890   65.8540 N   0  0  0  0  0  0  0  0  0  0  0  0
  127.3460  128.4940   65.8060 C   0  0  0  0  0  0  0  0  0  0  0  0
  126.8470  129.4050   64.8630 C   0  0  0  0  0  0  0  0  0  0  0  0
  125.5460  129.8800   65.0320 C   0  0  0  0  0  0  0  0  0  0  0  0
  124.7570  129.4650   66.1050 C   0  0  0  0  0  0  0  0  0  0  0  0
  125.2250  128.5610   67.0610 C   0  0  0  0  0  0  0  0  0  0  0  0
  126.5310  128.0850   66.8920 C   0  0  0  0  0  0  0  0  0  0  0  0
  128.5909  125.7240   71.6711 H   0  0  0  0  0  0  0  0  0  0  0  0
  128.1612  124.7457   70.2271 H   0  0  0  0  0  0  0  0  0  0  0  0
  129.6593  125.7368   70.2271 H   0  0  0  0  0  0  0  0  0  0  0  0
  127.1916  127.2886   70.7951 H   0  0  0  0  0  0  0  0  0  0  0  0
  128.5594  127.6139   69.6398 H   0  0  0  0  0  0  0  0  0  0  0  0
  127.0458  125.3968   68.6250 H   0  0  0  0  0  0  0  0  0  0  0  0
  125.8954  126.7214   69.0519 H   0  0  0  0  0  0  0  0  0  0  0  0
  130.5619  126.8981   67.5512 H   0  0  0  0  0  0  0  0  0  0  0  0
  129.3843  125.7016   68.2500 H   0  0  0  0  0  0  0  0  0  0  0  0
  130.1024  124.2225   66.7413 H   0  0  0  0  0  0  0  0  0  0  0  0
  129.3383  125.2816   65.4717 H   0  0  0  0  0  0  0  0  0  0  0  0
  131.4889  126.5467   65.3206 H   0  0  0  0  0  0  0  0  0  0  0  0
  132.2145  125.2865   66.4316 H   0  0  0  0  0  0  0  0  0  0  0  0
  130.9960  124.2540   64.0130 H   0  0  0  0  0  0  0  0  0  0  0  0
  133.7214  123.8899   62.0962 H   0  0  0  0  0  0  0  0  0  0  0  0
  133.5705  122.4600   63.1735 H   0  0  0  0  0  0  0  0  0  0  0  0
  129.4038  122.2600   62.1366 H   0  0  0  0  0  0  0  0  0  0  0  0
  128.7247  120.1045   61.0885 H   0  0  0  0  0  0  0  0  0  0  0  0
  130.4566  118.5928   60.1314 H   0  0  0  0  0  0  0  0  0  0  0  0
  132.8655  119.2174   60.2262 H   0  0  0  0  0  0  0  0  0  0  0  0
  133.5496  121.3725   61.2767 H   0  0  0  0  0  0  0  0  0  0  0  0
  127.4640  129.7355   64.0144 H   0  0  0  0  0  0  0  0  0  0  0  0
  125.1345  130.5956   64.3050 H   0  0  0  0  0  0  0  0  0  0  0  0
  123.7355  129.8618   66.2009 H   0  0  0  0  0  0  0  0  0  0  0  0
  124.5983  128.2386   67.9056 H   0  0  0  0  0  0  0  0  0  0  0  0
  1  2  1  0
  2  3  1  0
  3  4  1  0
  4  5  1  0
  5  6  1  0
  6  7  1  0
  7  8  1  0
  8  9  1  0
  9 10  1  0
 10 11  2  0
 10 12  1  0
 12 13  1  0
 13 14  1  0
 14 15  2  0
 15 16  1  0
 16 17  2  0
 17 18  1  0
 18 19  2  0
  5 20  2  0
 20 21  1  0
 21 22  2  0
 22 23  1  0
 23 24  2  0
 24 25  1  0
 25 26  2  0
 26  4  1  0
 19 14  1  0
 26 21  1  0
  1 27  1  0
  1 28  1  0
  1 29  1  0
  2 30  1  0
  2 31  1  0
  3 32  1  0
  3 33  1  0
  6 34  1  0
  6 35  1  0
  7 36  1  0
  7 37  1  0
  8 38  1  0
  8 39  1  0
  9 40  1  0
 12 41  1  0
 12 42  1  0
 15 43  1  0
 16 44  1  0
 17 45  1  0
 18 46  1  0
 19 47  1  0
 22 48  1  0
 23 49  1  0
 24 50  1  0
 25 51  1  0
M  END
>  <Binding energies>  (1) 
[-6.51]

>  <Ligand effiencies>  (1) 
[-0.2411111111111111]

>  <Interactions>  (1) 
["V-B:ARG:545:CG:9894, V-B:GLU:543:C:9874, V-B:GLU:543:CB:9878, V-A:HIS:456:CE1:4069, V-B:ARG:545:CZ:9898, V-B:ARG:545:CD:9895, V-B:HIS:456:CE1:9040, V-B:ALA:541:CB:9864, V-A:LEU:475:CD1:4258, H-A:GLY:454:N:4050, H-A:TYR:484:OH:4348, V-A:GLY:454:CA:4049, H-A:ARG:545:NE:4924, V-B:TYR:539:CE2:9848, V-B:TYR:539:CD2:9846, V-A:PRO:482:CG:4327, V-A:TRP:381:CZ2:3370, V-A:TRP:381:CH2:3372, V-B:GLY:544:C:9884, V-B:ARG:545:CA:9891"]

$$$$
RR13_Rahimova_2017
     RDKit          3D

 84 90  0  0  0  0  0  0  0  0999 V2000
  127.9750  131.5460   58.5280 Cl  0  0  0  0  0  0  0  0  0  0  0  0
  127.0530  130.5580   59.6100 C   0  0  0  0  0  0  0  0  0  0  0  0
  125.6830  130.8070   59.7100 C   0  0  0  0  0  0  0  0  0  0  0  0
  124.8900  130.0610   60.5780 C   0  0  0  0  0  0  0  0  0  0  0  0
  125.4650  129.0600   61.3560 C   0  0  0  0  0  0  0  0  0  0  0  0
  126.8320  128.8050   61.2620 C   0  0  0  0  0  0  0  0  0  0  0  0
  127.6460  129.5390   60.3830 C   0  0  0  0  0  0  0  0  0  0  0  0
  129.1620  129.2540   60.3160 C   0  0  1  0  0  0  0  0  0  0  0  0
  129.9690  130.4080   60.9300 C   0  0  0  0  0  0  0  0  0  0  0  0
  131.1080  130.8930   60.4880 N   0  0  0  0  0  0  0  0  0  0  0  0
  131.4640  131.9010   61.3770 N   0  0  0  0  0  0  0  0  0  0  0  0
  130.5210  132.0030   62.3820 N   0  0  0  0  0  0  0  0  0  0  0  0
  129.6220  131.0540   62.0970 N   0  0  0  0  0  0  0  0  0  0  0  0
  128.4390  130.8850   62.9330 C   0  0  0  0  0  0  0  0  0  0  0  0
  127.9960  132.2410   63.5130 C   0  0  0  0  0  0  0  0  0  0  0  0
  127.2040  133.0640   62.5080 C   0  0  0  0  0  0  0  0  0  0  0  0
  127.8530  134.0250   61.7280 C   0  0  0  0  0  0  0  0  0  0  0  0
  127.1260  134.7830   60.8140 C   0  0  0  0  0  0  0  0  0  0  0  0
  125.7530  134.5780   60.6840 C   0  0  0  0  0  0  0  0  0  0  0  0
  125.1010  133.6220   61.4590 C   0  0  0  0  0  0  0  0  0  0  0  0
  125.8280  132.8630   62.3740 C   0  0  0  0  0  0  0  0  0  0  0  0
  129.5410  127.9360   60.8810 N   0  0  0  0  0  0  0  0  0  0  0  0
  129.8130  128.0530   62.3260 C   0  0  0  0  0  0  0  0  0  0  0  0
  130.0790  126.6620   62.9480 C   0  0  0  0  0  0  0  0  0  0  0  0
  131.2570  126.0330   62.3290 N   0  0  0  0  0  0  0  0  0  0  0  0
  131.5980  124.7320   62.9520 C   0  0  1  0  0  0  0  0  0  0  0  0
  132.0910  123.6370   61.9810 C   0  0  0  0  0  0  0  0  0  0  0  0
  133.3360  123.8380   61.3700 C   0  0  0  0  0  0  0  0  0  0  0  0
  133.8680  122.8940   60.4920 C   0  0  0  0  0  0  0  0  0  0  0  0
  133.1560  121.7330   60.2060 C   0  0  0  0  0  0  0  0  0  0  0  0
  131.9100  121.5220   60.7900 C   0  0  0  0  0  0  0  0  0  0  0  0
  131.3660  122.4640   61.6680 C   0  0  0  0  0  0  0  0  0  0  0  0
  129.7810  122.1430   62.2880 Cl  0  0  0  0  0  0  0  0  0  0  0  0
  132.5660  124.8650   64.1300 C   0  0  0  0  0  0  0  0  0  0  0  0
  133.8760  124.8370   64.0460 N   0  0  0  0  0  0  0  0  0  0  0  0
  134.3460  125.0090   65.3440 N   0  0  0  0  0  0  0  0  0  0  0  0
  133.2870  125.1590   66.2150 N   0  0  0  0  0  0  0  0  0  0  0  0
  132.1980  125.0880   65.4400 N   0  0  0  0  0  0  0  0  0  0  0  0
  130.8700  125.1860   66.0360 C   0  0  0  0  0  0  0  0  0  0  0  0
  130.6410  126.5970   66.6090 C   0  0  0  0  0  0  0  0  0  0  0  0
  129.1750  126.8610   66.9160 C   0  0  0  0  0  0  0  0  0  0  0  0
  128.5040  126.0680   67.8500 C   0  0  0  0  0  0  0  0  0  0  0  0
  127.1640  126.3150   68.1360 C   0  0  0  0  0  0  0  0  0  0  0  0
  126.4990  127.3530   67.4860 C   0  0  0  0  0  0  0  0  0  0  0  0
  127.1640  128.1480   66.5530 C   0  0  0  0  0  0  0  0  0  0  0  0
  128.5040  127.9020   66.2680 C   0  0  0  0  0  0  0  0  0  0  0  0
  130.9790  125.9130   60.8870 C   0  0  0  0  0  0  0  0  0  0  0  0
  130.7240  127.3080   60.2680 C   0  0  0  0  0  0  0  0  0  0  0  0
  125.2263  131.5989   59.0982 H   0  0  0  0  0  0  0  0  0  0  0  0
  123.8109  130.2623   60.6488 H   0  0  0  0  0  0  0  0  0  0  0  0
  124.8411  128.4709   62.0443 H   0  0  0  0  0  0  0  0  0  0  0  0
  127.2803  128.0173   61.8853 H   0  0  0  0  0  0  0  0  0  0  0  0
  129.4223  129.1929   59.2490 H   0  0  0  0  0  0  0  0  0  0  0  0
  127.6228  130.4658   62.3263 H   0  0  0  0  0  0  0  0  0  0  0  0
  128.6810  130.2034   63.7617 H   0  0  0  0  0  0  0  0  0  0  0  0
  127.3668  132.0598   64.3969 H   0  0  0  0  0  0  0  0  0  0  0  0
  128.9012  132.8081   63.7758 H   0  0  0  0  0  0  0  0  0  0  0  0
  128.9363  134.1823   61.8360 H   0  0  0  0  0  0  0  0  0  0  0  0
  127.6325  135.5401   60.1973 H   0  0  0  0  0  0  0  0  0  0  0  0
  125.1790  135.1774   59.9620 H   0  0  0  0  0  0  0  0  0  0  0  0
  124.0175  133.4668   61.3494 H   0  0  0  0  0  0  0  0  0  0  0  0
  125.3192  132.1068   62.9898 H   0  0  0  0  0  0  0  0  0  0  0  0
  130.6967  128.6905   62.4764 H   0  0  0  0  0  0  0  0  0  0  0  0
  128.9337  128.4966   62.8160 H   0  0  0  0  0  0  0  0  0  0  0  0
  130.2562  126.7769   64.0275 H   0  0  0  0  0  0  0  0  0  0  0  0
  129.2021  126.0217   62.7717 H   0  0  0  0  0  0  0  0  0  0  0  0
  130.6239  124.3870   63.3291 H   0  0  0  0  0  0  0  0  0  0  0  0
  133.9030  124.7554   61.5864 H   0  0  0  0  0  0  0  0  0  0  0  0
  134.8493  123.0669   60.0261 H   0  0  0  0  0  0  0  0  0  0  0  0
  133.5769  120.9834   59.5198 H   0  0  0  0  0  0  0  0  0  0  0  0
  131.3481  120.6052   60.5583 H   0  0  0  0  0  0  0  0  0  0  0  0
  130.1114  124.9798   65.2666 H   0  0  0  0  0  0  0  0  0  0  0  0
  130.7903  124.4525   66.8519 H   0  0  0  0  0  0  0  0  0  0  0  0
  131.2217  126.7009   67.5374 H   0  0  0  0  0  0  0  0  0  0  0  0
  130.9641  127.3259   65.8512 H   0  0  0  0  0  0  0  0  0  0  0  0
  129.0338  125.2493   68.3590 H   0  0  0  0  0  0  0  0  0  0  0  0
  126.6325  125.6936   68.8718 H   0  0  0  0  0  0  0  0  0  0  0  0
  125.4399  127.5470   67.7109 H   0  0  0  0  0  0  0  0  0  0  0  0
  126.6320  128.9657   66.0447 H   0  0  0  0  0  0  0  0  0  0  0  0
  129.0343  128.5261   65.5337 H   0  0  0  0  0  0  0  0  0  0  0  0
  131.8426  125.4481   60.3890 H   0  0  0  0  0  0  0  0  0  0  0  0
  130.0820  125.2917   60.7474 H   0  0  0  0  0  0  0  0  0  0  0  0
  131.6029  127.9466   60.4402 H   0  0  0  0  0  0  0  0  0  0  0  0
  130.5457  127.1911   59.1889 H   0  0  0  0  0  0  0  0  0  0  0  0
  1  2  1  0
  2  3  2  0
  3  4  1  0
  4  5  2  0
  5  6  1  0
  6  7  2  0
  7  8  1  0
  8  9  1  0
  9 10  2  0
 10 11  1  0
 11 12  2  0
 12 13  1  0
 13 14  1  0
 14 15  1  0
 15 16  1  0
 16 17  2  0
 17 18  1  0
 18 19  2  0
 19 20  1  0
 20 21  2  0
  8 22  1  0
 22 23  1  0
 23 24  1  0
 24 25  1  0
 25 26  1  0
 26 27  1  0
 27 28  2  0
 28 29  1  0
 29 30  2  0
 30 31  1  0
 31 32  2  0
 32 33  1  0
 26 34  1  0
 34 35  2  0
 35 36  1  0
 36 37  2  0
 37 38  1  0
 38 39  1  0
 39 40  1  0
 40 41  1  0
 41 42  2  0
 42 43  1  0
 43 44  2  0
 44 45  1  0
 45 46  2  0
 25 47  1  0
 47 48  1  0
  7  2  1  0
 13  9  1  0
 21 16  1  0
 48 22  1  0
 32 27  1  0
 38 34  1  0
 46 41  1  0
  3 49  1  0
  4 50  1  0
  5 51  1  0
  6 52  1  0
  8 53  1  6
 14 54  1  0
 14 55  1  0
 15 56  1  0
 15 57  1  0
 17 58  1  0
 18 59  1  0
 19 60  1  0
 20 61  1  0
 21 62  1  0
 23 63  1  0
 23 64  1  0
 24 65  1  0
 24 66  1  0
 26 67  1  1
 28 68  1  0
 29 69  1  0
 30 70  1  0
 31 71  1  0
 39 72  1  0
 39 73  1  0
 40 74  1  0
 40 75  1  0
 42 76  1  0
 43 77  1  0
 44 78  1  0
 45 79  1  0
 46 80  1  0
 47 81  1  0
 47 82  1  0
 48 83  1  0
 48 84  1  0
M  END
>  <Binding energies>  (1) 
[-11.72]

>  <Ligand effiencies>  (1) 
[-0.24416666666666667]

>  <Interactions>  (1) 
["V-B:ARG:545:CG:9894, V-B:GLU:543:C:9874, V-B:GLU:543:CB:9878, V-A:HIS:456:CE1:4069, V-B:HIS:456:CE1:9040, V-A:GLU:543:CD:4908, V-B:TRP:381:CH2:8343, V-B:ASP:366:CG:8184, V-B:LEU:475:CD1:9229, V-A:TYR:539:CE2:4876, V-A:ALA:541:CB:4892, V-A:TYR:539:CD2:4874, V-B:ALA:541:CB:9864, V-A:TYR:484:CZ:4347, H-A:GLY:454:N:4050, V-A:ARG:545:CZ:4926, H-A:ARG:545:NH2:4928, H-A:TYR:484:OH:4348, H-A:ARG:545:NE:4924, V-B:TYR:539:CE2:9848, V-A:ILE:369:CG2:3237, V-A:ILE:369:CD1:3239, V-A:TYR:539:CZ:4877, H-A:ALA:541:N:4891"]

$$$$
RR14_Rahimova_2017
     RDKit          3D

 76 80  0  0  0  0  0  0  0  0999 V2000
  127.3350  126.8400   75.6770 C   0  0  0  0  0  0  0  0  0  0  0  0
  128.3540  126.2310   74.8910 O   0  0  0  0  0  0  0  0  0  0  0  0
  128.2940  126.3330   73.5150 C   0  0  0  0  0  0  0  0  0  0  0  0
  127.2690  127.1230   72.9930 C   0  0  0  0  0  0  0  0  0  0  0  0
  127.1140  127.2660   71.6180 C   0  0  0  0  0  0  0  0  0  0  0  0
  127.9870  126.6110   70.7460 C   0  0  0  0  0  0  0  0  0  0  0  0
  127.7810  126.7110   69.2390 C   0  0  0  0  0  0  0  0  0  0  0  0
  128.9440  127.2460   68.5310 N   0  0  0  0  0  0  0  0  0  0  0  0
  129.6760  128.2250   69.0750 N   0  0  0  0  0  0  0  0  0  0  0  0
  130.6520  128.4960   68.1370 N   0  0  0  0  0  0  0  0  0  0  0  0
  130.4890  127.6750   67.0260 N   0  0  0  0  0  0  0  0  0  0  0  0
  129.4410  126.9290   67.2850 C   0  0  0  0  0  0  0  0  0  0  0  0
  128.8550  125.8830   66.3460 C   0  0  0  0  0  0  0  0  0  0  0  0
  129.4470  125.9410   65.0000 N   0  0  0  0  0  0  0  0  0  0  0  0
  129.3370  127.2810   64.4080 C   0  0  0  0  0  0  0  0  0  0  0  0
  127.9310  127.9030   64.5570 C   0  0  0  0  0  0  0  0  0  0  0  0
  127.9030  129.1670   65.4420 C   0  0  0  0  0  0  0  0  0  0  0  0
  126.5840  129.8050   65.5010 N   0  0  0  0  0  0  0  0  0  0  0  0
  125.6430  128.9640   66.2530 C   0  0  0  0  0  0  0  0  0  0  0  0
  124.2300  129.5830   66.2890 C   0  0  0  0  0  0  0  0  0  0  0  0
  123.7770  129.8480   64.9660 O   0  0  0  0  0  0  0  0  0  0  0  0
  124.6310  130.7540   64.2760 C   0  0  0  0  0  0  0  0  0  0  0  0
  126.0560  130.1700   64.1770 C   0  0  0  0  0  0  0  0  0  0  0  0
  130.8530  125.5130   65.0460 C   0  0  0  0  0  0  0  0  0  0  0  0
  131.2450  124.3920   64.0870 C   0  0  0  0  0  0  0  0  0  0  0  0
  130.3240  123.8050   63.2830 C   0  0  0  0  0  0  0  0  0  0  0  0
  130.6690  122.6920   62.3750 C   0  0  0  0  0  0  0  0  0  0  0  0
  129.7450  122.0740   61.5150 C   0  0  0  0  0  0  0  0  0  0  0  0
  128.2890  122.5180   61.4560 C   0  0  0  0  0  0  0  0  0  0  0  0
  130.1760  121.0300   60.6930 C   0  0  0  0  0  0  0  0  0  0  0  0
  131.5020  120.6020   60.7200 C   0  0  0  0  0  0  0  0  0  0  0  0
  132.4290  121.2120   61.5710 C   0  0  0  0  0  0  0  0  0  0  0  0
  133.8720  120.7240   61.5760 C   0  0  0  0  0  0  0  0  0  0  0  0
  132.0080  122.2620   62.4010 C   0  0  0  0  0  0  0  0  0  0  0  0
  132.9070  122.9050   63.2770 N   0  0  0  0  0  0  0  0  0  0  0  0
  132.6350  123.9280   64.1260 C   0  0  0  0  0  0  0  0  0  0  0  0
  133.5180  124.3880   64.8510 O   0  0  0  0  0  0  0  0  0  0  0  0
  129.0340  125.8420   71.2580 C   0  0  0  0  0  0  0  0  0  0  0  0
  129.1860  125.7000   72.6340 C   0  0  0  0  0  0  0  0  0  0  0  0
  127.5640  126.7031   76.7441 H   0  0  0  0  0  0  0  0  0  0  0  0
  127.2876  127.9147   75.4471 H   0  0  0  0  0  0  0  0  0  0  0  0
  126.3661  126.3727   75.4471 H   0  0  0  0  0  0  0  0  0  0  0  0
  126.5768  127.6377   73.6755 H   0  0  0  0  0  0  0  0  0  0  0  0
  126.3047  127.8943   71.2177 H   0  0  0  0  0  0  0  0  0  0  0  0
  127.5664  125.7054   68.8483 H   0  0  0  0  0  0  0  0  0  0  0  0
  126.9469  127.4078   69.0694 H   0  0  0  0  0  0  0  0  0  0  0  0
  129.0395  124.8850   66.7701 H   0  0  0  0  0  0  0  0  0  0  0  0
  127.7786  126.0871   66.2474 H   0  0  0  0  0  0  0  0  0  0  0  0
  130.0648  127.9415   64.9021 H   0  0  0  0  0  0  0  0  0  0  0  0
  129.5343  127.1777   63.3308 H   0  0  0  0  0  0  0  0  0  0  0  0
  127.5621  128.1715   63.5561 H   0  0  0  0  0  0  0  0  0  0  0  0
  127.2972  127.1511   65.0499 H   0  0  0  0  0  0  0  0  0  0  0  0
  128.2004  128.8851   66.4628 H   0  0  0  0  0  0  0  0  0  0  0  0
  128.5965  129.8938   64.9939 H   0  0  0  0  0  0  0  0  0  0  0  0
  125.5872  127.9752   65.7743 H   0  0  0  0  0  0  0  0  0  0  0  0
  126.0079  128.8804   67.2873 H   0  0  0  0  0  0  0  0  0  0  0  0
  123.5377  128.8808   66.7765 H   0  0  0  0  0  0  0  0  0  0  0  0
  124.2653  130.5269   66.8527 H   0  0  0  0  0  0  0  0  0  0  0  0
  124.2371  130.9255   63.2634 H   0  0  0  0  0  0  0  0  0  0  0  0
  124.6693  131.7041   64.8290 H   0  0  0  0  0  0  0  0  0  0  0  0
  126.0306  129.2717   63.5426 H   0  0  0  0  0  0  0  0  0  0  0  0
  126.7136  130.9379   63.7436 H   0  0  0  0  0  0  0  0  0  0  0  0
  131.4784  126.3877   64.8142 H   0  0  0  0  0  0  0  0  0  0  0  0
  131.0048  125.1046   66.0560 H   0  0  0  0  0  0  0  0  0  0  0  0
  129.2864  124.1695   63.3078 H   0  0  0  0  0  0  0  0  0  0  0  0
  127.9001  122.6366   62.4781 H   0  0  0  0  0  0  0  0  0  0  0  0
  128.2197  123.4781   60.9236 H   0  0  0  0  0  0  0  0  0  0  0  0
  127.6958  121.7599   60.9236 H   0  0  0  0  0  0  0  0  0  0  0  0
  129.4604  120.5400   60.0165 H   0  0  0  0  0  0  0  0  0  0  0  0
  131.8222  119.7773   60.0663 H   0  0  0  0  0  0  0  0  0  0  0  0
  134.2161  120.6076   62.6143 H   0  0  0  0  0  0  0  0  0  0  0  0
  133.9332  119.7552   61.0587 H   0  0  0  0  0  0  0  0  0  0  0  0
  134.5087  121.4568   61.0587 H   0  0  0  0  0  0  0  0  0  0  0  0
  133.8630  122.5850   63.2990 H   0  0  0  0  0  0  0  0  0  0  0  0
  129.7391  125.3481   70.5733 H   0  0  0  0  0  0  0  0  0  0  0  0
  130.0088  125.0890   73.0336 H   0  0  0  0  0  0  0  0  0  0  0  0
  1  2  1  0
  2  3  1  0
  3  4  2  0
  4  5  1  0
  5  6  2  0
  6  7  1  0
  7  8  1  0
  8  9  1  0
  9 10  2  0
 10 11  1  0
 11 12  2  0
 12 13  1  0
 13 14  1  0
 14 15  1  0
 15 16  1  0
 16 17  1  0
 17 18  1  0
 18 19  1  0
 19 20  1  0
 20 21  1  0
 21 22  1  0
 22 23  1  0
 14 24  1  0
 24 25  1  0
 25 26  2  0
 26 27  1  0
 27 28  2  0
 28 29  1  0
 28 30  1  0
 30 31  2  0
 31 32  1  0
 32 33  1  0
 32 34  2  0
 34 35  1  0
 35 36  1  0
 36 37  2  0
  6 38  1  0
 38 39  2  0
 39  3  1  0
 12  8  1  0
 23 18  1  0
 36 25  1  0
 34 27  1  0
  1 40  1  0
  1 41  1  0
  1 42  1  0
  4 43  1  0
  5 44  1  0
  7 45  1  0
  7 46  1  0
 13 47  1  0
 13 48  1  0
 15 49  1  0
 15 50  1  0
 16 51  1  0
 16 52  1  0
 17 53  1  0
 17 54  1  0
 19 55  1  0
 19 56  1  0
 20 57  1  0
 20 58  1  0
 22 59  1  0
 22 60  1  0
 23 61  1  0
 23 62  1  0
 24 63  1  0
 24 64  1  0
 26 65  1  0
 29 66  1  0
 29 67  1  0
 29 68  1  0
 30 69  1  0
 31 70  1  0
 33 71  1  0
 33 72  1  0
 33 73  1  0
 35 74  1  0
 38 75  1  0
 39 76  1  0
M  END
>  <Binding energies>  (1) 
[-10.0]

>  <Ligand effiencies>  (1) 
[-0.25]

>  <Interactions>  (1) 
["V-B:ARG:545:CG:9894, H-B:HIS:456:NE2:9041, V-A:HIS:456:CD2:4068, V-B:GLU:543:CD:9880, H-B:LYS:547:NZ:9923, V-B:HIS:456:CD2:9039, V-B:GLU:543:CB:9878, V-A:HIS:456:CE1:4069, V-B:ARG:545:CZ:9898, H-A:HIS:456:NE2:4070, V-B:ARG:545:CD:9895, V-B:HIS:456:CE1:9040, V-B:GLU:543:CG:9879, V-A:GLU:543:CD:4908, H-B:GLY:454:N:9021, V-B:GLY:454:CA:9020, H-B:ARG:545:NH1:9899, H-B:TYR:484:OH:9319, H-B:ARG:545:NH2:9900, V-B:ALA:541:CB:9864, H-B:ARG:545:NE:9896, V-A:LEU:475:CD1:4258, V-A:GLU:543:CB:4906, H-A:GLY:454:N:4050, H-A:TYR:484:OH:4348, V-A:GLY:454:CA:4049, V-B:TYR:539:CE2:9848, V-A:ILE:369:CG2:3237, V-A:ILE:369:CD1:3239, V-B:TYR:539:CD2:9846, V-B:GLY:544:C:9884, V-B:LYS:547:CD:9921, V-B:HIS:456:CG:9037"]

$$$$
RR15_Rahimova_2017
     RDKit          3D

 85 89  0  0  0  0  0  0  0  0999 V2000
  130.9240  125.5470   74.5120 C   0  0  0  0  0  0  0  0  0  0  0  0
  129.5700  125.4860   74.0760 O   0  0  0  0  0  0  0  0  0  0  0  0
  129.2550  125.8500   72.7780 C   0  0  0  0  0  0  0  0  0  0  0  0
  128.8870  127.1520   72.4030 C   0  0  0  0  0  0  0  0  0  0  0  0
  128.5790  127.4510   71.0780 C   0  0  0  0  0  0  0  0  0  0  0  0
  128.6280  126.4610   70.0910 C   0  0  0  0  0  0  0  0  0  0  0  0
  128.2890  126.7820   68.6620 C   0  0  0  0  0  0  0  0  0  0  0  0
  127.0740  126.6250   68.1560 N   0  0  0  0  0  0  0  0  0  0  0  0
  127.1570  127.0110   66.8340 N   0  0  0  0  0  0  0  0  0  0  0  0
  128.4250  127.4010   66.7000 N   0  0  0  0  0  0  0  0  0  0  0  0
  128.9980  127.7400   65.3980 C   0  0  0  0  0  0  0  0  0  0  0  0
  129.3040  126.5250   64.4870 C   0  0  0  0  0  0  0  0  0  0  0  0
  129.3480  125.4060   65.0030 O   0  0  0  0  0  0  0  0  0  0  0  0
  129.4840  126.7140   63.1440 N   0  0  0  0  0  0  0  0  0  0  0  0
  128.3350  126.8550   62.2270 C   0  0  0  0  0  0  0  0  0  0  0  0
  127.1850  127.7080   62.8050 C   0  0  0  0  0  0  0  0  0  0  0  0
  126.8530  128.9840   61.9950 C   0  0  0  0  0  0  0  0  0  0  0  0
  125.8840  129.8650   62.6540 N   0  0  0  0  0  0  0  0  0  0  0  0
  124.6270  130.0190   61.9060 C   0  0  0  0  0  0  0  0  0  0  0  0
  123.6110  130.8850   62.6810 C   0  0  0  0  0  0  0  0  0  0  0  0
  123.4010  130.3480   63.9830 O   0  0  0  0  0  0  0  0  0  0  0  0
  124.6000  130.2940   64.7470 C   0  0  0  0  0  0  0  0  0  0  0  0
  125.6430  129.4090   64.0300 C   0  0  0  0  0  0  0  0  0  0  0  0
  130.8170  126.9860   62.5240 C   0  0  2  0  0  0  0  0  0  0  0  0
  130.7440  127.7640   61.1730 C   0  0  0  0  0  0  0  0  0  0  0  0
  130.7590  127.1690   60.0950 O   0  0  0  0  0  0  0  0  0  0  0  0
  130.6240  129.1000   61.2760 N   0  0  0  0  0  0  0  0  0  0  0  0
  130.4370  130.0190   60.1590 C   0  0  0  0  0  0  0  0  0  0  0  0
  131.3110  131.2770   60.3210 C   0  0  2  0  0  0  0  0  0  0  0  0
  132.7990  131.0950   59.9740 C   0  0  0  0  0  0  0  0  0  0  0  0
  133.4860  130.9640   61.3110 C   0  0  0  0  0  0  0  0  0  0  0  0
  132.6320  131.8730   62.1770 C   0  0  0  0  0  0  0  0  0  0  0  0
  131.3150  131.5820   61.7220 O   0  0  0  0  0  0  0  0  0  0  0  0
  131.6960  125.7420   62.5700 C   0  0  0  0  0  0  0  0  0  0  0  0
  132.3430  125.4360   63.7740 C   0  0  0  0  0  0  0  0  0  0  0  0
  133.1590  124.3130   63.8740 C   0  0  0  0  0  0  0  0  0  0  0  0
  133.3330  123.4840   62.7700 C   0  0  0  0  0  0  0  0  0  0  0  0
  134.1240  122.3920   62.8680 F   0  0  0  0  0  0  0  0  0  0  0  0
  132.6960  123.7710   61.5650 C   0  0  0  0  0  0  0  0  0  0  0  0
  131.8820  124.8960   61.4650 C   0  0  0  0  0  0  0  0  0  0  0  0
  129.1750  127.2390   67.7960 N   0  0  0  0  0  0  0  0  0  0  0  0
  128.9980  125.1630   70.4680 C   0  0  0  0  0  0  0  0  0  0  0  0
  129.3140  124.8460   71.8000 C   0  0  0  0  0  0  0  0  0  0  0  0
  129.6880  123.5820   72.2200 O   0  0  0  0  0  0  0  0  0  0  0  0
  131.0400  123.1620   72.0710 C   0  0  0  0  0  0  0  0  0  0  0  0
  130.9554  125.5484   75.6116 H   0  0  0  0  0  0  0  0  0  0  0  0
  131.4718  124.6726   74.1307 H   0  0  0  0  0  0  0  0  0  0  0  0
  131.3909  126.4671   74.1307 H   0  0  0  0  0  0  0  0  0  0  0  0
  128.8414  127.9448   73.1642 H   0  0  0  0  0  0  0  0  0  0  0  0
  128.2939  128.4776   70.8045 H   0  0  0  0  0  0  0  0  0  0  0  0
  128.2868  128.3927   64.8706 H   0  0  0  0  0  0  0  0  0  0  0  0
  129.9638  128.2256   65.6015 H   0  0  0  0  0  0  0  0  0  0  0  0
  128.6869  127.3286   61.2986 H   0  0  0  0  0  0  0  0  0  0  0  0
  127.9334  125.8455   62.0549 H   0  0  0  0  0  0  0  0  0  0  0  0
  126.2810  127.0824   62.8438 H   0  0  0  0  0  0  0  0  0  0  0  0
  127.5199  128.0486   63.7958 H   0  0  0  0  0  0  0  0  0  0  0  0
  127.7844  129.5479   61.8381 H   0  0  0  0  0  0  0  0  0  0  0  0
  126.3972  128.6550   61.0495 H   0  0  0  0  0  0  0  0  0  0  0  0
  124.8423  130.4988   60.9398 H   0  0  0  0  0  0  0  0  0  0  0  0
  124.1885  129.0211   61.7581 H   0  0  0  0  0  0  0  0  0  0  0  0
  123.9996  131.9103   62.7689 H   0  0  0  0  0  0  0  0  0  0  0  0
  122.6552  130.8917   62.1365 H   0  0  0  0  0  0  0  0  0  0  0  0
  125.0035  131.3106   64.8641 H   0  0  0  0  0  0  0  0  0  0  0  0
  124.3797  129.8642   65.7353 H   0  0  0  0  0  0  0  0  0  0  0  0
  126.5891  129.4474   64.5898 H   0  0  0  0  0  0  0  0  0  0  0  0
  125.2527  128.3814   63.9888 H   0  0  0  0  0  0  0  0  0  0  0  0
  131.3496  127.7223   63.1439 H   0  0  0  0  0  0  0  0  0  0  0  0
  130.5910  129.5100   62.1980 H   0  0  0  0  0  0  0  0  0  0  0  0
  130.7124  129.5086   59.2243 H   0  0  0  0  0  0  0  0  0  0  0  0
  129.3817  130.3285   60.1352 H   0  0  0  0  0  0  0  0  0  0  0  0
  130.8892  132.0340   59.6435 H   0  0  0  0  0  0  0  0  0  0  0  0
  132.9491  130.1884   59.3694 H   0  0  0  0  0  0  0  0  0  0  0  0
  133.1953  131.9321   59.3806 H   0  0  0  0  0  0  0  0  0  0  0  0
  133.4648  129.9259   61.6743 H   0  0  0  0  0  0  0  0  0  0  0  0
  134.5533  131.2298   61.2961 H   0  0  0  0  0  0  0  0  0  0  0  0
  132.7472  131.6295   63.2435 H   0  0  0  0  0  0  0  0  0  0  0  0
  132.8999  132.9367   62.0944 H   0  0  0  0  0  0  0  0  0  0  0  0
  132.2049  126.0891   64.6483 H   0  0  0  0  0  0  0  0  0  0  0  0
  133.6649  124.0814   64.8229 H   0  0  0  0  0  0  0  0  0  0  0  0
  132.8355  123.1114   60.6958 H   0  0  0  0  0  0  0  0  0  0  0  0
  131.3806  125.1239   60.5128 H   0  0  0  0  0  0  0  0  0  0  0  0
  129.0421  124.3736   69.7032 H   0  0  0  0  0  0  0  0  0  0  0  0
  131.4919  123.0216   73.0640 H   0  0  0  0  0  0  0  0  0  0  0  0
  131.0700  122.2122   71.5169 H   0  0  0  0  0  0  0  0  0  0  0  0
  131.6029  123.9276   71.5169 H   0  0  0  0  0  0  0  0  0  0  0  0
  1  2  1  0
  2  3  1  0
  3  4  2  0
  4  5  1  0
  5  6  2  0
  6  7  1  0
  7  8  1  0
  8  9  2  0
  9 10  1  0
 10 11  1  0
 11 12  1  0
 12 13  2  0
 12 14  1  0
 14 15  1  0
 15 16  1  0
 16 17  1  0
 17 18  1  0
 18 19  1  0
 19 20  1  0
 20 21  1  0
 21 22  1  0
 22 23  1  0
 14 24  1  0
 24 25  1  0
 25 26  2  0
 25 27  1  0
 27 28  1  0
 28 29  1  0
 29 30  1  0
 30 31  1  0
 31 32  1  0
 32 33  1  0
 24 34  1  0
 34 35  2  0
 35 36  1  0
 36 37  2  0
 37 38  1  0
 37 39  1  0
 39 40  2  0
 10 41  1  0
  6 42  1  0
 42 43  2  0
 43 44  1  0
 44 45  1  0
 43  3  1  0
 41  7  2  0
 23 18  1  0
 33 29  1  0
 40 34  1  0
  1 46  1  0
  1 47  1  0
  1 48  1  0
  4 49  1  0
  5 50  1  0
 11 51  1  0
 11 52  1  0
 15 53  1  0
 15 54  1  0
 16 55  1  0
 16 56  1  0
 17 57  1  0
 17 58  1  0
 19 59  1  0
 19 60  1  0
 20 61  1  0
 20 62  1  0
 22 63  1  0
 22 64  1  0
 23 65  1  0
 23 66  1  0
 24 67  1  1
 27 68  1  0
 28 69  1  0
 28 70  1  0
 29 71  1  6
 30 72  1  0
 30 73  1  0
 31 74  1  0
 31 75  1  0
 32 76  1  0
 32 77  1  0
 35 78  1  0
 36 79  1  0
 39 80  1  0
 40 81  1  0
 42 82  1  0
 45 83  1  0
 45 84  1  0
 45 85  1  0
M  END
>  <Binding energies>  (1) 
[-9.67]

>  <Ligand effiencies>  (1) 
[-0.21021739130434783]

>  <Interactions>  (1) 
["V-A:HIS:456:CD2:4068, V-B:GLU:543:CD:9880, H-B:LYS:547:NZ:9923, V-B:GLU:543:C:9874, V-B:HIS:456:CD2:9039, V-B:ARG:545:CZ:9898, H-A:GLU:543:OE1:4909, H-A:HIS:456:NE2:4070, V-B:HIS:456:CE1:9040, H-A:GLU:543:OE2:4910, V-A:GLU:543:CD:4908, H-B:GLY:454:N:9021, V-B:ASP:366:CG:8184, V-A:ALA:541:CA:4890, V-A:PRO:540:CA:4883, V-B:ILE:369:CD1:8210, H-B:ARG:545:NH1:9899, H-B:ARG:545:NH2:9900, V-A:PRO:540:C:4881, V-A:LEU:475:CD1:4258, V-A:ARG:545:CZ:4926, V-A:GLY:453:C:4042, V-A:GLY:454:CA:4049, V-A:ILE:369:CD1:3239, V-A:PRO:540:CB:4885, H-A:ALA:541:N:4891, V-A:ASN:362:CB:3176, V-A:HIS:456:CG:4066, V-A:TYR:484:CD2:4344, V-A:TYR:484:CE2:4346, V-A:HIS:456:CB:4065, V-A:TYR:484:CG:4342, V-A:ALA:541:C:4888, V-A:ASN:362:C:3172"]

$$$$
RR16_Rahimova_2017
     RDKit          3D

 80 85  0  0  0  0  0  0  0  0999 V2000
  123.6170  130.0840   63.5840 O   0  0  0  0  0  0  0  0  0  0  0  0
  124.7000  130.9440   64.0740 S   0  0  0  0  0  0  0  0  0  0  0  0
  124.4060  132.2260   64.7260 O   0  0  0  0  0  0  0  0  0  0  0  0
  125.7870  131.2540   62.7200 N   0  0  0  0  0  0  0  0  0  0  0  0
  126.0300  132.6350   62.2390 C   0  0  0  0  0  0  0  0  0  0  0  0
  127.3250  132.6570   61.3860 C   0  0  0  0  0  0  0  0  0  0  0  0
  128.1630  133.9490   61.4060 C   0  0  0  0  0  0  0  0  0  0  0  0
  127.4330  135.1760   60.8320 C   0  0  0  0  0  0  0  0  0  0  0  0
  126.0160  135.4320   61.3810 C   0  0  0  0  0  0  0  0  0  0  0  0
  124.8870  134.5210   60.8610 C   0  0  0  0  0  0  0  0  0  0  0  0
  124.7520  133.1400   61.5300 C   0  0  0  0  0  0  0  0  0  0  0  0
  125.6710  129.9600   65.2090 C   0  0  0  0  0  0  0  0  0  0  0  0
  127.0650  130.0490   65.2050 C   0  0  0  0  0  0  0  0  0  0  0  0
  127.8130  129.1900   66.0050 C   0  0  0  0  0  0  0  0  0  0  0  0
  127.1650  128.2480   66.8060 C   0  0  0  0  0  0  0  0  0  0  0  0
  128.1250  127.0490   67.7280 S   0  0  0  0  0  0  0  0  0  0  0  0
  127.1900  126.0450   68.2510 O   0  0  0  0  0  0  0  0  0  0  0  0
  128.9990  127.7960   68.6420 O   0  0  0  0  0  0  0  0  0  0  0  0
  129.1440  126.2730   66.5000 N   0  0  0  0  0  0  0  0  0  0  0  0
  128.6870  126.4770   65.1010 C   0  0  0  0  0  0  0  0  0  0  0  0
  129.4330  125.5260   64.1440 C   0  0  0  0  0  0  0  0  0  0  0  0
  130.9690  125.6420   64.3010 C   0  0  0  0  0  0  0  0  0  0  0  0
  131.7290  124.6720   63.3920 C   0  0  0  0  0  0  0  0  0  0  0  0
  133.1020  124.8500   63.1770 C   0  0  0  0  0  0  0  0  0  0  0  0
  133.8350  123.9850   62.3630 C   0  0  0  0  0  0  0  0  0  0  0  0
  135.1790  124.1730   62.1670 O   0  0  0  0  0  0  0  0  0  0  0  0
  133.1600  122.9160   61.7560 C   0  0  0  0  0  0  0  0  0  0  0  0
  133.6100  121.9180   60.9400 N   0  0  0  0  0  0  0  0  0  0  0  0
  132.5370  121.1050   60.6490 N   0  0  0  0  0  0  0  0  0  0  0  0
  131.4410  121.6180   61.2400 N   0  0  0  0  0  0  0  0  0  0  0  0
  130.1690  120.9100   61.1690 C   0  0  0  0  0  0  0  0  0  0  0  0
  129.0130  121.8160   60.7710 C   0  0  0  0  0  0  0  0  0  0  0  0
  128.3570  122.5830   61.7390 C   0  0  0  0  0  0  0  0  0  0  0  0
  127.3110  123.4320   61.3730 C   0  0  0  0  0  0  0  0  0  0  0  0
  126.9170  123.5180   60.0380 C   0  0  0  0  0  0  0  0  0  0  0  0
  127.5680  122.7570   59.0670 C   0  0  0  0  0  0  0  0  0  0  0  0
  127.0890  122.8690   57.4130 Cl  0  0  0  0  0  0  0  0  0  0  0  0
  128.6120  121.9040   59.4330 C   0  0  0  0  0  0  0  0  0  0  0  0
  131.7720  122.7470   61.9720 C   0  0  0  0  0  0  0  0  0  0  0  0
  131.0350  123.6150   62.7850 C   0  0  0  0  0  0  0  0  0  0  0  0
  131.4180  125.5530   65.7830 C   0  0  0  0  0  0  0  0  0  0  0  0
  130.6010  126.4960   66.6890 C   0  0  0  0  0  0  0  0  0  0  0  0
  125.7690  128.1880   66.8410 C   0  0  0  0  0  0  0  0  0  0  0  0
  125.0220  129.0440   66.0380 C   0  0  0  0  0  0  0  0  0  0  0  0
  126.5370  130.5760   62.5600 H   0  0  0  0  0  0  0  0  0  0  0  0
  126.2164  133.3436   63.0595 H   0  0  0  0  0  0  0  0  0  0  0  0
  127.9693  131.8399   61.7426 H   0  0  0  0  0  0  0  0  0  0  0  0
  126.9794  132.5610   60.3461 H   0  0  0  0  0  0  0  0  0  0  0  0
  128.4387  134.1666   62.4484 H   0  0  0  0  0  0  0  0  0  0  0  0
  129.0391  133.7707   60.7652 H   0  0  0  0  0  0  0  0  0  0  0  0
  128.0444  136.0643   61.0490 H   0  0  0  0  0  0  0  0  0  0  0  0
  127.3048  134.9718   59.7588 H   0  0  0  0  0  0  0  0  0  0  0  0
  126.0582  135.3165   62.4741 H   0  0  0  0  0  0  0  0  0  0  0  0
  125.7525  136.4406   61.0300 H   0  0  0  0  0  0  0  0  0  0  0  0
  123.9356  135.0548   61.0023 H   0  0  0  0  0  0  0  0  0  0  0  0
  125.1433  134.3114   59.8120 H   0  0  0  0  0  0  0  0  0  0  0  0
  123.9468  133.1990   62.2771 H   0  0  0  0  0  0  0  0  0  0  0  0
  124.5427  132.4237   60.7219 H   0  0  0  0  0  0  0  0  0  0  0  0
  127.5693  130.7945   64.5726 H   0  0  0  0  0  0  0  0  0  0  0  0
  128.9112  129.2532   66.0061 H   0  0  0  0  0  0  0  0  0  0  0  0
  127.6070  126.2772   65.0404 H   0  0  0  0  0  0  0  0  0  0  0  0
  128.8983  127.5155   64.8061 H   0  0  0  0  0  0  0  0  0  0  0  0
  129.1298  124.4913   64.3620 H   0  0  0  0  0  0  0  0  0  0  0  0
  129.1724  125.8049   63.1124 H   0  0  0  0  0  0  0  0  0  0  0  0
  131.2408  126.6511   63.9578 H   0  0  0  0  0  0  0  0  0  0  0  0
  133.6155  125.6932   63.6622 H   0  0  0  0  0  0  0  0  0  0  0  0
  135.3930  125.0380   61.8090 H   0  0  0  0  0  0  0  0  0  0  0  0
  130.2562  120.1039   60.4256 H   0  0  0  0  0  0  0  0  0  0  0  0
  129.9518  120.5165   62.1730 H   0  0  0  0  0  0  0  0  0  0  0  0
  128.6663  122.5171   62.7926 H   0  0  0  0  0  0  0  0  0  0  0  0
  126.7975  124.0332   62.1377 H   0  0  0  0  0  0  0  0  0  0  0  0
  126.0921  124.1865   59.7505 H   0  0  0  0  0  0  0  0  0  0  0  0
  129.1204  121.2997   58.6673 H   0  0  0  0  0  0  0  0  0  0  0  0
  129.9554  123.4742   62.9417 H   0  0  0  0  0  0  0  0  0  0  0  0
  131.2844  124.5190   66.1336 H   0  0  0  0  0  0  0  0  0  0  0  0
  132.4737  125.8572   65.8382 H   0  0  0  0  0  0  0  0  0  0  0  0
  130.8625  126.3035   67.7400 H   0  0  0  0  0  0  0  0  0  0  0  0
  130.8374  127.5365   66.4216 H   0  0  0  0  0  0  0  0  0  0  0  0
  125.2633  127.4673   67.5004 H   0  0  0  0  0  0  0  0  0  0  0  0
  123.9231  128.9989   66.0565 H   0  0  0  0  0  0  0  0  0  0  0  0
  1  2  2  0
  2  3  2  0
  2  4  1  0
  4  5  1  0
  5  6  1  0
  6  7  1  0
  7  8  1  0
  8  9  1  0
  9 10  1  0
 10 11  1  0
  2 12  1  0
 12 13  2  0
 13 14  1  0
 14 15  2  0
 15 16  1  0
 16 17  2  0
 16 18  2  0
 16 19  1  0
 19 20  1  0
 20 21  1  0
 21 22  1  0
 22 23  1  0
 23 24  2  0
 24 25  1  0
 25 26  1  0
 25 27  2  0
 27 28  1  0
 28 29  2  0
 29 30  1  0
 30 31  1  0
 31 32  1  0
 32 33  2  0
 33 34  1  0
 34 35  2  0
 35 36  1  0
 36 37  1  0
 36 38  2  0
 30 39  1  0
 39 40  2  0
 22 41  1  0
 41 42  1  0
 15 43  1  0
 43 44  2  0
 11  5  1  0
 44 12  1  0
 42 19  1  0
 40 23  1  0
 39 27  1  0
 38 32  1  0
  4 45  1  0
  5 46  1  0
  6 47  1  0
  6 48  1  0
  7 49  1  0
  7 50  1  0
  8 51  1  0
  8 52  1  0
  9 53  1  0
  9 54  1  0
 10 55  1  0
 10 56  1  0
 11 57  1  0
 11 58  1  0
 13 59  1  0
 14 60  1  0
 20 61  1  0
 20 62  1  0
 21 63  1  0
 21 64  1  0
 22 65  1  0
 24 66  1  0
 26 67  1  0
 31 68  1  0
 31 69  1  0
 33 70  1  0
 34 71  1  0
 35 72  1  0
 38 73  1  0
 40 74  1  0
 41 75  1  0
 41 76  1  0
 42 77  1  0
 42 78  1  0
 43 79  1  0
 44 80  1  0
M  END
>  <Binding energies>  (1) 
[-10.88]

>  <Ligand effiencies>  (1) 
[-0.22666666666666668]

>  <Interactions>  (1) 
["V-B:ARG:545:CG:9894, H-B:HIS:456:NE2:9041, V-B:GLU:543:CD:9880, V-B:GLU:543:CB:9878, V-A:HIS:456:CE1:4069, V-B:ARG:545:CZ:9898, H-A:HIS:456:NE2:4070, V-B:ARG:545:CD:9895, V-B:HIS:456:CE1:9040, V-B:GLU:543:CG:9879, V-A:GLU:543:CD:4908, V-B:TRP:381:CH2:8343, H-B:GLY:454:N:9021, V-A:TYR:539:C:4867, V-B:GLY:454:CA:9020, V-A:ALA:541:CA:4890, V-B:PRO:482:CG:9298, V-B:LEU:475:CD1:9229, H-B:ARG:545:NH1:9899, V-A:TYR:539:CE2:4876, V-A:ALA:541:CB:4892, H-B:TYR:484:OH:9319, V-B:ILE:369:CG2:8208, H-B:ARG:545:NH2:9900, V-A:TYR:539:CD2:4874, V-A:PRO:540:C:4881, V-B:ALA:541:CB:9864, V-A:LEU:475:CD1:4258, V-A:GLU:543:CB:4906, H-A:GLY:454:N:4050, V-A:ARG:545:CZ:4926, V-B:TYR:539:CE2:9848, V-B:PRO:540:CA:9855, V-B:TRP:381:CZ2:8341, V-B:TYR:539:CD2:9846, V-B:ALA:541:CA:9862, V-B:PRO:540:N:9856, V-B:TYR:539:C:9839, H-A:ASP:366:OD2:3215"]

$$$$
RR17_Rahimova_2017
     RDKit          3D

 63 66  0  0  0  0  0  0  0  0999 V2000
  130.7350  132.1610   57.2780 C   0  0  0  0  0  0  0  0  0  0  0  0
  129.3290  132.6280   57.6670 C   0  0  0  0  0  0  0  0  0  0  0  0
  128.9940  132.0650   58.9320 O   0  0  0  0  0  0  0  0  0  0  0  0
  127.6730  131.7680   59.2140 C   0  0  0  0  0  0  0  0  0  0  0  0
  126.9470  132.7450   59.8950 C   0  0  0  0  0  0  0  0  0  0  0  0
  125.6120  132.5360   60.2230 C   0  0  0  0  0  0  0  0  0  0  0  0
  124.9710  131.3390   59.8750 C   0  0  0  0  0  0  0  0  0  0  0  0
  123.5280  131.1420   60.2410 C   0  0  0  0  0  0  0  0  0  0  0  0
  122.6120  131.2970   59.4280 O   0  0  0  0  0  0  0  0  0  0  0  0
  123.2230  130.7480   61.7040 C   0  0  0  0  0  0  0  0  0  0  0  0
  124.0060  131.8860   62.9020 S   0  0  0  0  0  0  0  0  0  0  0  0
  124.5210  130.7240   64.1350 C   0  0  0  0  0  0  0  0  0  0  0  0
  123.7260  130.1080   64.9780 N   0  0  0  0  0  0  0  0  0  0  0  0
  124.5080  129.2780   65.7710 N   0  0  0  0  0  0  0  0  0  0  0  0
  125.7480  129.4210   65.3750 C   0  0  0  0  0  0  0  0  0  0  0  0
  126.9360  128.6820   65.9710 C   0  0  0  0  0  0  0  0  0  0  0  0
  126.5750  127.4530   66.6740 N   0  0  0  0  0  0  0  0  0  0  0  0
  127.3490  126.8840   67.7010 C   0  0  0  0  0  0  0  0  0  0  0  0
  126.7630  126.7730   68.9610 C   0  0  0  0  0  0  0  0  0  0  0  0
  127.4750  126.2250   70.0230 C   0  0  0  0  0  0  0  0  0  0  0  0
  128.7850  125.7750   69.8360 C   0  0  0  0  0  0  0  0  0  0  0  0
  129.5560  125.1810   71.0140 C   0  0  0  0  0  0  0  0  0  0  0  0
  130.1050  126.1220   71.7850 F   0  0  0  0  0  0  0  0  0  0  0  0
  128.7460  124.4460   71.7770 F   0  0  0  0  0  0  0  0  0  0  0  0
  130.5310  124.4000   70.5490 F   0  0  0  0  0  0  0  0  0  0  0  0
  129.3720  125.8780   68.5700 C   0  0  0  0  0  0  0  0  0  0  0  0
  128.6590  126.4250   67.5080 C   0  0  0  0  0  0  0  0  0  0  0  0
  125.8290  130.3350   64.3440 N   0  0  0  0  0  0  0  0  0  0  0  0
  126.9750  130.7490   63.6490 C   0  0  0  0  0  0  0  0  0  0  0  0
  127.2990  132.1040   63.6010 C   0  0  0  0  0  0  0  0  0  0  0  0
  128.4340  132.5140   62.9090 C   0  0  0  0  0  0  0  0  0  0  0  0
  129.2490  131.5700   62.2620 C   0  0  0  0  0  0  0  0  0  0  0  0
  130.3920  131.8840   61.5530 O   0  0  0  0  0  0  0  0  0  0  0  0
  131.1860  130.8330   61.0140 C   0  0  0  0  0  0  0  0  0  0  0  0
  128.9070  130.2170   62.3190 C   0  0  0  0  0  0  0  0  0  0  0  0
  127.7740  129.8000   63.0110 C   0  0  0  0  0  0  0  0  0  0  0  0
  125.7010  130.3570   59.1890 C   0  0  0  0  0  0  0  0  0  0  0  0
  127.0380  130.5690   58.8610 C   0  0  0  0  0  0  0  0  0  0  0  0
  131.3215  131.9662   58.1880 H   0  0  0  0  0  0  0  0  0  0  0  0
  130.6635  131.2384   56.6833 H   0  0  0  0  0  0  0  0  0  0  0  0
  131.2297  132.9431   56.6833 H   0  0  0  0  0  0  0  0  0  0  0  0
  129.3089  133.7258   57.7335 H   0  0  0  0  0  0  0  0  0  0  0  0
  128.6027  132.3023   56.9078 H   0  0  0  0  0  0  0  0  0  0  0  0
  127.4352  133.6900   60.1753 H   0  0  0  0  0  0  0  0  0  0  0  0
  125.0540  133.3169   60.7603 H   0  0  0  0  0  0  0  0  0  0  0  0
  122.1338  130.7673   61.8566 H   0  0  0  0  0  0  0  0  0  0  0  0
  123.6330  129.7418   61.8757 H   0  0  0  0  0  0  0  0  0  0  0  0
  127.6284  128.4245   65.1560 H   0  0  0  0  0  0  0  0  0  0  0  0
  127.3906  129.3538   66.7140 H   0  0  0  0  0  0  0  0  0  0  0  0
  125.8490  126.8820   66.2660 H   0  0  0  0  0  0  0  0  0  0  0  0
  125.7311  127.1209   69.1164 H   0  0  0  0  0  0  0  0  0  0  0  0
  127.0050  126.1455   71.0143 H   0  0  0  0  0  0  0  0  0  0  0  0
  130.4020  125.5248   68.4137 H   0  0  0  0  0  0  0  0  0  0  0  0
  129.1247  126.4974   66.5141 H   0  0  0  0  0  0  0  0  0  0  0  0
  126.6615  132.8440   64.1069 H   0  0  0  0  0  0  0  0  0  0  0  0
  128.6945  133.5819   62.8682 H   0  0  0  0  0  0  0  0  0  0  0  0
  131.6273  130.2488   61.8350 H   0  0  0  0  0  0  0  0  0  0  0  0
  130.5556  130.1775   60.3952 H   0  0  0  0  0  0  0  0  0  0  0  0
  131.9888  131.2603   60.3952 H   0  0  0  0  0  0  0  0  0  0  0  0
  129.5396  129.4736   61.8118 H   0  0  0  0  0  0  0  0  0  0  0  0
  127.5111  128.7328   63.0545 H   0  0  0  0  0  0  0  0  0  0  0  0
  125.2136  129.4118   58.9078 H   0  0  0  0  0  0  0  0  0  0  0  0
  127.5988  129.7912   58.3219 H   0  0  0  0  0  0  0  0  0  0  0  0
  1  2  1  0
  2  3  1  0
  3  4  1  0
  4  5  2  0
  5  6  1  0
  6  7  2  0
  7  8  1  0
  8  9  2  0
  8 10  1  0
 10 11  1  0
 11 12  1  0
 12 13  2  0
 13 14  1  0
 14 15  2  0
 15 16  1  0
 16 17  1  0
 17 18  1  0
 18 19  2  0
 19 20  1  0
 20 21  2  0
 21 22  1  0
 22 23  1  0
 22 24  1  0
 22 25  1  0
 21 26  1  0
 26 27  2  0
 15 28  1  0
 28 29  1  0
 29 30  2  0
 30 31  1  0
 31 32  2  0
 32 33  1  0
 33 34  1  0
 32 35  1  0
 35 36  2  0
  7 37  1  0
 37 38  2  0
 38  4  1  0
 28 12  1  0
 36 29  1  0
 27 18  1  0
  1 39  1  0
  1 40  1  0
  1 41  1  0
  2 42  1  0
  2 43  1  0
  5 44  1  0
  6 45  1  0
 10 46  1  0
 10 47  1  0
 16 48  1  0
 16 49  1  0
 17 50  1  0
 19 51  1  0
 20 52  1  0
 26 53  1  0
 27 54  1  0
 30 55  1  0
 31 56  1  0
 34 57  1  0
 34 58  1  0
 34 59  1  0
 35 60  1  0
 36 61  1  0
 37 62  1  0
 38 63  1  0
M  END
>  <Binding energies>  (1) 
[-8.5]

>  <Ligand effiencies>  (1) 
[-0.21794871794871795]

>  <Interactions>  (1) 
["V-B:ARG:545:CG:9894, V-A:HIS:456:CD2:4068, V-B:GLU:543:CD:9880, V-B:GLU:543:C:9874, V-B:GLU:543:CB:9878, V-A:HIS:456:CE1:4069, V-B:HIS:456:CE1:9040, V-A:GLU:543:CD:4908, H-B:GLY:454:N:9021, V-A:PRO:540:N:4884, V-A:TYR:539:C:4867, V-B:GLY:454:CA:9020, V-B:ASP:366:CG:8184, V-B:ASP:366:CA:8181, V-B:ASP:366:CB:8183, V-B:LEU:475:CD1:9229, V-A:PRO:540:CA:4883, V-B:ILE:369:CD1:8210, V-A:TYR:539:CE2:4876, V-A:ALA:541:CB:4892, H-B:TYR:484:OH:9319, V-B:ILE:369:CG2:8208, H-B:ARG:545:NH2:9900, V-A:TYR:539:CD2:4874, H-B:ARG:545:NE:9896, V-A:TYR:484:CZ:4347, V-A:TYR:484:CE1:4345, V-A:TYR:539:CZ:4877, V-A:PRO:540:CB:4885, V-B:GLY:544:C:9884, V-B:ARG:545:CA:9891, H-A:ALA:541:N:4891, V-A:HIS:456:CG:4066, H-B:GLU:543:OE1:9881, V-A:TYR:484:CE2:4346, V-A:PRO:540:CD:4887, V-A:TYR:539:CE1:4875, V-A:TYR:539:CG:4872, V-B:LYS:547:CE:9922, V-B:GLY:544:CA:9886, V-A:TYR:539:CD1:4873"]

$$$$
RR18_Rahimova_2017
     RDKit          3D

 56 61  0  0  0  0  0  0  0  0999 V2000
  129.7240  131.9890   57.5990 C   0  0  0  0  0  0  0  0  0  0  0  0
  129.3130  130.9160   58.5770 C   0  0  0  0  0  0  0  0  0  0  0  0
  129.9760  130.2030   59.5620 C   0  0  0  0  0  0  0  0  0  0  0  0
  129.0400  129.3400   60.1330 C   0  0  0  0  0  0  0  0  0  0  0  0
  127.8400  129.5570   59.4760 C   0  0  0  0  0  0  0  0  0  0  0  0
  126.4400  128.9650   59.6070 C   0  0  1  0  0  0  0  0  0  0  0  0
  125.3840  129.8170   58.8400 C   0  0  0  0  0  0  0  0  0  0  0  0
  125.0900  131.1820   59.2620 C   0  0  0  0  0  0  0  0  0  0  0  0
  124.0240  131.7340   58.9820 O   0  0  0  0  0  0  0  0  0  0  0  0
  126.0730  131.7630   59.9890 N   0  0  0  0  0  0  0  0  0  0  0  0
  126.1550  133.0580   60.5440 C   0  0  0  0  0  0  0  0  0  0  0  0
  125.1210  134.0080   60.4520 C   0  0  0  0  0  0  0  0  0  0  0  0
  125.2680  135.2730   61.0160 C   0  0  0  0  0  0  0  0  0  0  0  0
  126.4470  135.6120   61.6740 C   0  0  0  0  0  0  0  0  0  0  0  0
  127.4830  134.6860   61.7630 C   0  0  0  0  0  0  0  0  0  0  0  0
  127.3500  133.4120   61.2020 C   0  0  0  0  0  0  0  0  0  0  0  0
  128.5170  132.4360   61.3240 C   0  0  0  0  0  0  0  0  0  0  0  0
  124.8260  129.2970   57.7160 C   0  0  0  0  0  0  0  0  0  0  0  0
  125.0290  128.0280   57.2630 N   0  0  0  0  0  0  0  0  0  0  0  0
  125.7280  127.2130   57.9620 C   0  0  0  0  0  0  0  0  0  0  0  0
  125.9490  125.5200   57.5870 S   0  0  0  0  0  0  0  0  0  0  0  0
  126.9530  125.2730   59.0510 C   0  0  0  0  0  0  0  0  0  0  0  0
  127.5370  124.0970   59.4700 C   0  0  0  0  0  0  0  0  0  0  0  0
  127.2990  122.8460   58.7360 C   0  0  0  0  0  0  0  0  0  0  0  0
  126.6400  122.6390   57.7170 O   0  0  0  0  0  0  0  0  0  0  0  0
  127.9380  121.8720   59.3910 N   0  0  0  0  0  0  0  0  0  0  0  0
  128.6200  122.3220   60.4800 C   0  0  0  0  0  0  0  0  0  0  0  0
  129.3960  121.5800   61.3690 C   0  0  0  0  0  0  0  0  0  0  0  0
  130.0420  122.2400   62.4110 C   0  0  0  0  0  0  0  0  0  0  0  0
  129.9100  123.6220   62.5390 C   0  0  0  0  0  0  0  0  0  0  0  0
  129.1250  124.3430   61.6350 C   0  0  0  0  0  0  0  0  0  0  0  0
  128.4450  123.6900   60.5900 C   0  0  0  0  0  0  0  0  0  0  0  0
  127.0440  126.5510   59.7570 C   0  0  0  0  0  0  0  0  0  0  0  0
  127.6070  126.7540   60.8280 O   0  0  0  0  0  0  0  0  0  0  0  0
  126.3940  127.5480   59.0980 N   0  0  0  0  0  0  0  0  0  0  0  0
  128.0150  130.5180   58.5290 O   0  0  0  0  0  0  0  0  0  0  0  0
  130.0643  132.8775   58.1511 H   0  0  0  0  0  0  0  0  0  0  0  0
  130.5424  131.6146   56.9665 H   0  0  0  0  0  0  0  0  0  0  0  0
  128.8649  132.2571   56.9665 H   0  0  0  0  0  0  0  0  0  0  0  0
  131.0359  130.2986   59.8404 H   0  0  0  0  0  0  0  0  0  0  0  0
  129.2205  128.6244   60.9487 H   0  0  0  0  0  0  0  0  0  0  0  0
  126.1946  128.9720   60.6793 H   0  0  0  0  0  0  0  0  0  0  0  0
  126.8560  131.1710   60.2190 H   0  0  0  0  0  0  0  0  0  0  0  0
  124.1881  133.7492   59.9299 H   0  0  0  0  0  0  0  0  0  0  0  0
  124.4509  136.0056   60.9413 H   0  0  0  0  0  0  0  0  0  0  0  0
  126.5600  136.6099   62.1229 H   0  0  0  0  0  0  0  0  0  0  0  0
  128.4150  134.9592   62.2795 H   0  0  0  0  0  0  0  0  0  0  0  0
  128.7338  132.2547   62.3871 H   0  0  0  0  0  0  0  0  0  0  0  0
  128.2530  131.4860   60.8364 H   0  0  0  0  0  0  0  0  0  0  0  0
  129.4054  132.8639   60.8364 H   0  0  0  0  0  0  0  0  0  0  0  0
  124.1617  129.9479   57.1285 H   0  0  0  0  0  0  0  0  0  0  0  0
  127.9290  120.9080   59.0910 H   0  0  0  0  0  0  0  0  0  0  0  0
  129.4963  120.4911   61.2493 H   0  0  0  0  0  0  0  0  0  0  0  0
  130.6532  121.6740   63.1294 H   0  0  0  0  0  0  0  0  0  0  0  0
  130.4264  124.1476   63.3557 H   0  0  0  0  0  0  0  0  0  0  0  0
  129.0375  125.4343   61.7416 H   0  0  0  0  0  0  0  0  0  0  0  0
  1  2  1  0
  2  3  2  0
  3  4  1  0
  4  5  2  0
  5  6  1  0
  6  7  1  0
  7  8  1  0
  8  9  2  0
  8 10  1  0
 10 11  1  0
 11 12  2  0
 12 13  1  0
 13 14  2  0
 14 15  1  0
 15 16  2  0
 16 17  1  0
  7 18  2  0
 18 19  1  0
 19 20  2  0
 20 21  1  0
 21 22  1  0
 22 23  2  0
 23 24  1  0
 24 25  2  0
 24 26  1  0
 26 27  1  0
 27 28  2  0
 28 29  1  0
 29 30  2  0
 30 31  1  0
 31 32  2  0
 22 33  1  0
 33 34  2  0
 33 35  1  0
  5 36  1  0
 36  2  1  0
 35  6  1  0
 16 11  1  0
 35 20  1  0
 32 23  1  0
 32 27  1  0
  1 37  1  0
  1 38  1  0
  1 39  1  0
  3 40  1  0
  4 41  1  0
  6 42  1  1
 10 43  1  0
 12 44  1  0
 13 45  1  0
 14 46  1  0
 15 47  1  0
 17 48  1  0
 17 49  1  0
 17 50  1  0
 18 51  1  0
 26 52  1  0
 28 53  1  0
 29 54  1  0
 30 55  1  0
 31 56  1  0
M  END
>  <Binding energies>  (1) 
[-7.87]

>  <Ligand effiencies>  (1) 
[-0.20710526315789474]

>  <Interactions>  (1) 
["V-B:TRP:381:CH2:8343, V-A:PRO:540:N:4884, V-A:TYR:539:C:4867, V-B:ASP:366:CG:8184, V-B:ASP:366:CB:8183, V-B:PRO:482:CG:9298, V-B:LEU:475:CD1:9229, V-B:PRO:482:CB:9297, V-A:PRO:540:CA:4883, V-A:TYR:539:CE2:4876, V-A:ALA:541:CB:4892, V-B:ILE:369:CG2:8208, V-A:TYR:539:CD2:4874, V-B:ALA:541:CB:9864, V-B:TYR:539:CE2:9848, V-B:PRO:540:CA:9855, H-A:TYR:539:OH:4878, V-A:TYR:539:CZ:4877, V-B:TRP:381:CZ2:8341, V-B:TYR:539:CD2:9846, V-B:PRO:540:N:9856, V-B:TYR:539:C:9839, V-B:PRO:540:C:9853, H-B:TYR:539:O:9840, H-B:TYR:531:OH:9767"]

$$$$
RR19_Rahimova_2017
     RDKit          3D

 72 77  0  0  0  0  0  0  0  0999 V2000
  128.8660  125.2180   59.5250 O   0  0  0  0  0  0  0  0  0  0  0  0
  128.4840  125.6590   60.6130 C   0  0  0  0  0  0  0  0  0  0  0  0
  127.6920  126.7460   60.7980 N   0  0  0  0  0  0  0  0  0  0  0  0
  126.9360  127.5100   59.9430 C   0  0  0  0  0  0  0  0  0  0  0  0
  126.5800  127.1260   58.3330 S   0  0  0  0  0  0  0  0  0  0  0  0
  126.5170  128.6330   60.6110 N   0  0  0  0  0  0  0  0  0  0  0  0
  125.6500  129.6280   60.2940 C   0  0  0  0  0  0  0  0  0  0  0  0
  124.8690  129.6410   59.3400 O   0  0  0  0  0  0  0  0  0  0  0  0
  125.7120  130.8450   61.2510 C   0  0  2  0  0  0  0  0  0  0  0  0
  126.9630  131.7530   61.0720 C   0  0  0  0  0  0  0  0  0  0  0  0
  126.6960  133.2470   61.1630 C   0  0  0  0  0  0  0  0  0  0  0  0
  125.3760  133.7480   61.1720 C   0  0  0  0  0  0  0  0  0  0  0  0
  125.1510  135.1080   61.3350 C   0  0  0  0  0  0  0  0  0  0  0  0
  126.2190  135.9800   61.5100 C   0  0  0  0  0  0  0  0  0  0  0  0
  127.5210  135.4980   61.5330 C   0  0  0  0  0  0  0  0  0  0  0  0
  127.7680  134.1410   61.3740 C   0  0  0  0  0  0  0  0  0  0  0  0
  125.5400  130.4260   62.6690 N   0  0  0  0  0  0  0  0  0  0  0  0
  124.3770  130.6610   63.3410 C   0  0  0  0  0  0  0  0  0  0  0  0
  123.3740  131.2390   62.9190 O   0  0  0  0  0  0  0  0  0  0  0  0
  124.5700  130.0680   64.6880 C   0  0  0  0  0  0  0  0  0  0  0  0
  123.7210  130.0120   65.7930 C   0  0  0  0  0  0  0  0  0  0  0  0
  124.1710  129.3720   66.9530 C   0  0  0  0  0  0  0  0  0  0  0  0
  125.4510  128.8000   66.9920 C   0  0  0  0  0  0  0  0  0  0  0  0
  126.2870  128.8660   65.8720 C   0  0  0  0  0  0  0  0  0  0  0  0
  125.8190  129.5110   64.7260 C   0  0  0  0  0  0  0  0  0  0  0  0
  126.4580  129.7300   63.4050 C   0  0  0  0  0  0  0  0  0  0  0  0
  127.5750  129.3540   63.0480 O   0  0  0  0  0  0  0  0  0  0  0  0
  128.9270  124.9560   61.9230 C   0  0  2  0  0  0  0  0  0  0  0  0
  129.8590  125.8220   62.8190 C   0  0  0  0  0  0  0  0  0  0  0  0
  129.5550  125.7220   64.3030 C   0  0  0  0  0  0  0  0  0  0  0  0
  129.8810  124.5470   65.0150 C   0  0  0  0  0  0  0  0  0  0  0  0
  129.6960  124.4950   66.3910 C   0  0  0  0  0  0  0  0  0  0  0  0
  129.2170  125.6040   67.0750 C   0  0  0  0  0  0  0  0  0  0  0  0
  128.9290  126.7800   66.3930 C   0  0  0  0  0  0  0  0  0  0  0  0
  129.1060  126.8520   65.0180 C   0  0  0  0  0  0  0  0  0  0  0  0
  129.4940  123.5950   61.7020 N   0  0  0  0  0  0  0  0  0  0  0  0
  128.6960  122.5180   61.4540 C   0  0  0  0  0  0  0  0  0  0  0  0
  127.4660  122.4980   61.3970 O   0  0  0  0  0  0  0  0  0  0  0  0
  129.6250  121.3760   61.2670 C   0  0  0  0  0  0  0  0  0  0  0  0
  129.3750  120.0290   60.9960 C   0  0  0  0  0  0  0  0  0  0  0  0
  130.4630  119.1590   60.8660 C   0  0  0  0  0  0  0  0  0  0  0  0
  131.7720  119.6400   61.0030 C   0  0  0  0  0  0  0  0  0  0  0  0
  132.0020  120.9940   61.2730 C   0  0  0  0  0  0  0  0  0  0  0  0
  130.9030  121.8450   61.4020 C   0  0  0  0  0  0  0  0  0  0  0  0
  130.8270  123.3000   61.6770 C   0  0  0  0  0  0  0  0  0  0  0  0
  131.7680  124.0770   61.8480 O   0  0  0  0  0  0  0  0  0  0  0  0
  127.5600  126.9820   61.7710 H   0  0  0  0  0  0  0  0  0  0  0  0
  127.0220  128.8040   61.4690 H   0  0  0  0  0  0  0  0  0  0  0  0
  124.8610  131.4795   60.9624 H   0  0  0  0  0  0  0  0  0  0  0  0
  127.6901  131.4889   61.8540 H   0  0  0  0  0  0  0  0  0  0  0  0
  127.3300  131.5698   60.0514 H   0  0  0  0  0  0  0  0  0  0  0  0
  124.5259  133.0606   61.0498 H   0  0  0  0  0  0  0  0  0  0  0  0
  124.1223  135.4975   61.3256 H   0  0  0  0  0  0  0  0  0  0  0  0
  126.0319  137.0572   61.6309 H   0  0  0  0  0  0  0  0  0  0  0  0
  128.3603  136.1942   61.6778 H   0  0  0  0  0  0  0  0  0  0  0  0
  128.8000  133.7621   61.4125 H   0  0  0  0  0  0  0  0  0  0  0  0
  122.7180  130.4618   65.7534 H   0  0  0  0  0  0  0  0  0  0  0  0
  123.5188  129.3173   67.8371 H   0  0  0  0  0  0  0  0  0  0  0  0
  125.7990  128.2976   67.9066 H   0  0  0  0  0  0  0  0  0  0  0  0
  127.2919  128.4190   65.8941 H   0  0  0  0  0  0  0  0  0  0  0  0
  127.9908  124.8254   62.4856 H   0  0  0  0  0  0  0  0  0  0  0  0
  130.8968  125.4959   62.6556 H   0  0  0  0  0  0  0  0  0  0  0  0
  129.6944  126.8705   62.5300 H   0  0  0  0  0  0  0  0  0  0  0  0
  130.2813  123.6730   64.4803 H   0  0  0  0  0  0  0  0  0  0  0  0
  129.9300  123.5714   66.9407 H   0  0  0  0  0  0  0  0  0  0  0  0
  129.0645  125.5515   68.1631 H   0  0  0  0  0  0  0  0  0  0  0  0
  128.5594  127.6570   66.9446 H   0  0  0  0  0  0  0  0  0  0  0  0
  128.8959  127.7913   64.4855 H   0  0  0  0  0  0  0  0  0  0  0  0
  128.3445  119.6599   60.8871 H   0  0  0  0  0  0  0  0  0  0  0  0
  130.2902  118.0933   60.6554 H   0  0  0  0  0  0  0  0  0  0  0  0
  132.6226  118.9504   60.8979 H   0  0  0  0  0  0  0  0  0  0  0  0
  133.0267  121.3792   61.3812 H   0  0  0  0  0  0  0  0  0  0  0  0
  1  2  2  0
  2  3  1  0
  3  4  1  0
  4  5  2  0
  4  6  1  0
  6  7  1  0
  7  8  2  0
  7  9  1  0
  9 10  1  0
 10 11  1  0
 11 12  2  0
 12 13  1  0
 13 14  2  0
 14 15  1  0
 15 16  2  0
  9 17  1  0
 17 18  1  0
 18 19  2  0
 18 20  1  0
 20 21  2  0
 21 22  1  0
 22 23  2  0
 23 24  1  0
 24 25  2  0
 25 26  1  0
 26 27  2  0
  2 28  1  0
 28 29  1  0
 29 30  1  0
 30 31  2  0
 31 32  1  0
 32 33  2  0
 33 34  1  0
 34 35  2  0
 28 36  1  0
 36 37  1  0
 37 38  2  0
 37 39  1  0
 39 40  2  0
 40 41  1  0
 41 42  2  0
 42 43  1  0
 43 44  2  0
 44 45  1  0
 45 46  2  0
 16 11  1  0
 26 17  1  0
 35 30  1  0
 45 36  1  0
 25 20  1  0
 44 39  1  0
  3 47  1  0
  6 48  1  0
  9 49  1  6
 10 50  1  0
 10 51  1  0
 12 52  1  0
 13 53  1  0
 14 54  1  0
 15 55  1  0
 16 56  1  0
 21 57  1  0
 22 58  1  0
 23 59  1  0
 24 60  1  0
 28 61  1  1
 29 62  1  0
 29 63  1  0
 31 64  1  0
 32 65  1  0
 33 66  1  0
 34 67  1  0
 35 68  1  0
 40 69  1  0
 41 70  1  0
 42 71  1  0
 43 72  1  0
M  END
>  <Binding energies>  (1) 
[-11.3]

>  <Ligand effiencies>  (1) 
[-0.2354166666666667]

>  <Interactions>  (1) 
["V-B:ARG:545:CG:9894, V-B:GLU:543:CD:9880, V-B:GLU:543:CB:9878, V-A:HIS:456:CE1:4069, V-B:ARG:545:CZ:9898, V-B:ARG:545:CD:9895, V-B:HIS:456:CE1:9040, V-B:GLU:543:CG:9879, V-B:ILE:455:C:9023, V-A:GLU:543:CD:4908, V-B:TRP:381:CH2:8343, H-B:GLY:454:N:9021, V-B:GLY:454:CA:9020, V-B:ASP:366:CG:8184, V-B:PRO:482:CG:9298, V-B:LEU:475:CD1:9229, V-B:PRO:482:CB:9297, V-A:TYR:539:CE2:4876, V-A:ALA:541:CB:4892, V-B:GLY:453:C:9013, V-B:ALA:541:CB:9864, V-B:GLU:543:CA:9876, V-A:TYR:484:CZ:4347, V-A:LEU:475:CD1:4258, V-A:TYR:484:CE1:4345, H-B:ALA:541:N:9863, V-B:TRP:381:CZ2:8341, V-B:TRP:381:CZ3:8342, V-B:TYR:539:CD2:9846, V-A:PRO:482:CG:4327, V-A:TRP:381:CZ2:3370, V-B:ALA:541:CA:9862, V-A:TRP:381:CH2:3372, V-A:PRO:482:CB:4326, V-B:TYR:539:C:9839, H-B:GLU:543:OE1:9881, V-B:PRO:540:C:9853, H-B:GLU:543:OE2:9882"]

$$$$
RR19_Rahimova_2017-again1
     RDKit          3D

 71 76  0  0  0  0  0  0  0  0999 V2000
  125.0990  129.3430   59.1890 O   0  0  0  0  0  0  0  0  0  0  0  0
  125.6760  129.2720   60.2770 C   0  0  0  0  0  0  0  0  0  0  0  0
  126.2640  128.1650   60.7910 N   0  0  0  0  0  0  0  0  0  0  0  0
  126.5260  126.9280   60.2730 C   0  0  0  0  0  0  0  0  0  0  0  0
  126.1010  126.2600   58.7900 S   0  0  0  0  0  0  0  0  0  0  0  0
  127.3270  126.2750   61.1930 N   0  0  0  0  0  0  0  0  0  0  0  0
  128.4680  125.6920   61.0160 C   0  0  0  0  0  0  0  0  0  0  0  0
  129.1940  125.6270   60.0040 O   0  0  0  0  0  0  0  0  0  0  0  0
  129.0310  124.9260   62.2600 C   0  0  2  0  0  0  0  0  0  0  0  0
  129.9800  125.8360   63.1090 C   0  0  0  0  0  0  0  0  0  0  0  0
  129.7010  125.8190   64.6100 C   0  0  0  0  0  0  0  0  0  0  0  0
  130.0070  124.6820   65.3620 C   0  0  0  0  0  0  0  0  0  0  0  0
  129.7670  124.6700   66.7340 C   0  0  0  0  0  0  0  0  0  0  0  0
  129.2190  125.7950   67.3480 C   0  0  0  0  0  0  0  0  0  0  0  0
  128.9070  126.9310   66.6020 C   0  0  0  0  0  0  0  0  0  0  0  0
  129.1460  126.9410   65.2310 C   0  0  0  0  0  0  0  0  0  0  0  0
  129.5920  123.5750   61.9300 N   0  0  0  0  0  0  0  0  0  0  0  0
  128.7820  122.5180   61.6360 C   0  0  0  0  0  0  0  0  0  0  0  0
  127.5510  122.5030   61.6110 O   0  0  0  0  0  0  0  0  0  0  0  0
  129.7010  121.3840   61.3560 C   0  0  0  0  0  0  0  0  0  0  0  0
  129.4370  120.0590   61.0060 C   0  0  0  0  0  0  0  0  0  0  0  0
  130.5170  119.1950   60.7990 C   0  0  0  0  0  0  0  0  0  0  0  0
  131.8320  119.6590   60.9380 C   0  0  0  0  0  0  0  0  0  0  0  0
  132.0750  120.9910   61.2890 C   0  0  0  0  0  0  0  0  0  0  0  0
  130.9840  121.8370   61.4930 C   0  0  0  0  0  0  0  0  0  0  0  0
  130.9240  123.2710   61.8640 C   0  0  0  0  0  0  0  0  0  0  0  0
  131.8750  124.0240   62.0680 O   0  0  0  0  0  0  0  0  0  0  0  0
  125.7650  130.5330   61.1860 C   0  0  2  0  0  0  0  0  0  0  0  0
  127.0090  131.4230   60.9020 C   0  0  0  0  0  0  0  0  0  0  0  0
  126.7770  132.9040   61.1450 C   0  0  0  0  0  0  0  0  0  0  0  0
  127.8750  133.7690   61.3350 C   0  0  0  0  0  0  0  0  0  0  0  0
  127.6680  135.1370   61.4590 C   0  0  0  0  0  0  0  0  0  0  0  0
  126.3850  135.6620   61.3680 C   0  0  0  0  0  0  0  0  0  0  0  0
  125.2990  134.8260   61.1430 C   0  0  0  0  0  0  0  0  0  0  0  0
  125.4850  133.4560   61.0170 C   0  0  0  0  0  0  0  0  0  0  0  0
  125.6020  130.2460   62.6440 N   0  0  0  0  0  0  0  0  0  0  0  0
  124.4270  130.4870   63.2920 C   0  0  0  0  0  0  0  0  0  0  0  0
  123.4150  131.0170   62.8330 O   0  0  0  0  0  0  0  0  0  0  0  0
  124.6200  129.9650   64.6670 C   0  0  0  0  0  0  0  0  0  0  0  0
  123.7540  129.9280   65.7610 C   0  0  0  0  0  0  0  0  0  0  0  0
  124.2040  129.3470   66.9520 C   0  0  0  0  0  0  0  0  0  0  0  0
  125.4990  128.8180   67.0340 C   0  0  0  0  0  0  0  0  0  0  0  0
  126.3540  128.8670   65.9270 C   0  0  0  0  0  0  0  0  0  0  0  0
  125.8850  129.4490   64.7490 C   0  0  0  0  0  0  0  0  0  0  0  0
  126.5320  129.6200   63.4240 C   0  0  0  0  0  0  0  0  0  0  0  0
  127.6630  129.2600   63.0970 O   0  0  0  0  0  0  0  0  0  0  0  0
  126.6630  128.3040   61.7070 H   0  0  0  0  0  0  0  0  0  0  0  0
  128.1755  124.6920   62.9106 H   0  0  0  0  0  0  0  0  0  0  0  0
  131.0142  125.4976   62.9483 H   0  0  0  0  0  0  0  0  0  0  0  0
  129.8067  126.8684   62.7712 H   0  0  0  0  0  0  0  0  0  0  0  0
  130.4372  123.7968   64.8708 H   0  0  0  0  0  0  0  0  0  0  0  0
  130.0086  123.7775   67.3298 H   0  0  0  0  0  0  0  0  0  0  0  0
  129.0308  125.7866   68.4317 H   0  0  0  0  0  0  0  0  0  0  0  0
  128.4744  127.8144   67.0944 H   0  0  0  0  0  0  0  0  0  0  0  0
  128.8979  127.8324   64.6361 H   0  0  0  0  0  0  0  0  0  0  0  0
  128.4024  119.7022   60.8954 H   0  0  0  0  0  0  0  0  0  0  0  0
  130.3333  118.1455   60.5256 H   0  0  0  0  0  0  0  0  0  0  0  0
  132.6758  118.9735   60.7705 H   0  0  0  0  0  0  0  0  0  0  0  0
  133.1038  121.3636   61.4018 H   0  0  0  0  0  0  0  0  0  0  0  0
  124.8869  131.1288   60.8963 H   0  0  0  0  0  0  0  0  0  0  0  0
  127.8292  131.0896   61.5548 H   0  0  0  0  0  0  0  0  0  0  0  0
  127.2450  131.3088   59.8337 H   0  0  0  0  0  0  0  0  0  0  0  0
  128.8950  133.3603   61.3850 H   0  0  0  0  0  0  0  0  0  0  0  0
  128.5233  135.8072   61.6299 H   0  0  0  0  0  0  0  0  0  0  0  0
  126.2284  136.7456   61.4747 H   0  0  0  0  0  0  0  0  0  0  0  0
  124.2875  135.2511   61.0643 H   0  0  0  0  0  0  0  0  0  0  0  0
  124.6245  132.8005   60.8172 H   0  0  0  0  0  0  0  0  0  0  0  0
  122.7394  130.3466   65.6886 H   0  0  0  0  0  0  0  0  0  0  0  0
  123.5387  129.3054   67.8270 H   0  0  0  0  0  0  0  0  0  0  0  0
  125.8453  128.3619   67.9732 H   0  0  0  0  0  0  0  0  0  0  0  0
  127.3727  128.4559   65.9845 H   0  0  0  0  0  0  0  0  0  0  0  0
  1  2  2  0
  2  3  1  0
  3  4  1  0
  4  5  2  0
  4  6  1  0
  6  7  2  0
  7  8  1  0
  7  9  1  0
  9 10  1  0
 10 11  1  0
 11 12  2  0
 12 13  1  0
 13 14  2  0
 14 15  1  0
 15 16  2  0
  9 17  1  0
 17 18  1  0
 18 19  2  0
 18 20  1  0
 20 21  2  0
 21 22  1  0
 22 23  2  0
 23 24  1  0
 24 25  2  0
 25 26  1  0
 26 27  2  0
  2 28  1  0
 28 29  1  0
 29 30  1  0
 30 31  2  0
 31 32  1  0
 32 33  2  0
 33 34  1  0
 34 35  2  0
 28 36  1  0
 36 37  1  0
 37 38  2  0
 37 39  1  0
 39 40  2  0
 40 41  1  0
 41 42  2  0
 42 43  1  0
 43 44  2  0
 44 45  1  0
 45 46  2  0
 16 11  1  0
 26 17  1  0
 35 30  1  0
 45 36  1  0
 25 20  1  0
 44 39  1  0
  3 47  1  0
  9 48  1  1
 10 49  1  0
 10 50  1  0
 12 51  1  0
 13 52  1  0
 14 53  1  0
 15 54  1  0
 16 55  1  0
 21 56  1  0
 22 57  1  0
 23 58  1  0
 24 59  1  0
 28 60  1  6
 29 61  1  0
 29 62  1  0
 31 63  1  0
 32 64  1  0
 33 65  1  0
 34 66  1  0
 35 67  1  0
 40 68  1  0
 41 69  1  0
 42 70  1  0
 43 71  1  0
M  CHG  1   8  -1
M  END
>  <Binding energies>  (1) 
[-10.26]

>  <Ligand effiencies>  (1) 
[-0.21829787234042553]

>  <Interactions>  (1) 
["V-B:ARG:545:CG:9894, V-B:GLU:543:CD:9880, V-B:GLU:543:CB:9878, V-A:HIS:456:CE1:4069, V-B:ARG:545:CZ:9898, V-B:ARG:545:CD:9895, V-B:HIS:456:CE1:9040, V-B:GLU:543:CG:9879, V-A:GLU:543:CD:4908, V-B:TRP:381:CH2:8343, H-B:GLY:454:N:9021, V-B:GLY:454:CA:9020, V-B:ASP:366:CG:8184, V-B:PRO:482:CG:9298, V-B:LEU:475:CD1:9229, V-B:PRO:482:CB:9297, V-A:TYR:539:CE2:4876, V-A:ALA:541:CB:4892, V-A:TYR:539:CD2:4874, V-B:ALA:541:CB:9864, V-B:GLU:543:CA:9876, V-A:TYR:484:CZ:4347, V-A:LEU:475:CD1:4258, V-A:TYR:484:CE1:4345, H-B:ALA:541:N:9863, V-B:TRP:381:CZ2:8341, V-B:TYR:539:CD2:9846, V-A:PRO:482:CG:4327, V-A:TRP:381:CZ2:3370, V-B:ALA:541:CA:9862, V-A:TRP:381:CH2:3372, V-A:PRO:482:CB:4326"]

$$$$
RR1_Rahimova_2017
     RDKit          3D

 68 71  0  0  0  0  0  0  0  0999 V2000
  134.1460  123.5930   59.7190 C   0  0  0  0  0  0  0  0  0  0  0  0
  134.2660  122.8550   60.9300 O   0  0  0  0  0  0  0  0  0  0  0  0
  133.5520  123.2610   62.0410 C   0  0  0  0  0  0  0  0  0  0  0  0
  133.0770  122.3940   63.0370 C   0  0  0  0  0  0  0  0  0  0  0  0
  132.3590  122.8940   64.1190 C   0  0  0  0  0  0  0  0  0  0  0  0
  132.1090  124.2630   64.2290 C   0  0  0  0  0  0  0  0  0  0  0  0
  131.3350  124.6650   65.3340 N   0  0  0  0  0  0  0  0  0  0  0  0
  130.2650  125.4870   65.3750 C   0  0  0  0  0  0  0  0  0  0  0  0
  129.8140  126.1000   64.4070 O   0  0  0  0  0  0  0  0  0  0  0  0
  129.6160  125.6240   66.7620 C   0  0  0  0  0  0  0  0  0  0  0  0
  129.9910  127.1750   67.6520 S   0  0  0  0  0  0  0  0  0  0  0  0
  128.7100  127.0750   68.8580 C   0  0  0  0  0  0  0  0  0  0  0  0
  128.9180  126.9960   70.1480 N   0  0  0  0  0  0  0  0  0  0  0  0
  127.6940  126.9540   70.6650 C   0  0  0  0  0  0  0  0  0  0  0  0
  127.4490  126.8750   72.1450 C   0  0  0  0  0  0  0  0  0  0  0  0
  126.2940  127.4200   72.7290 C   0  0  0  0  0  0  0  0  0  0  0  0
  126.0960  127.3330   74.1080 C   0  0  0  0  0  0  0  0  0  0  0  0
  127.0660  126.6970   74.8800 C   0  0  0  0  0  0  0  0  0  0  0  0
  128.1940  126.1600   74.3500 N   0  0  0  0  0  0  0  0  0  0  0  0
  128.3670  126.2540   73.0070 C   0  0  0  0  0  0  0  0  0  0  0  0
  126.7080  126.9920   69.7890 N   0  0  0  0  0  0  0  0  0  0  0  0
  127.3590  127.0680   68.6240 N   0  0  0  0  0  0  0  0  0  0  0  0
  126.6210  127.1560   67.3640 C   0  0  0  0  0  0  0  0  0  0  0  0
  126.8290  128.4630   66.5790 C   0  0  0  0  0  0  0  0  0  0  0  0
  127.8670  129.1220   66.7100 O   0  0  0  0  0  0  0  0  0  0  0  0
  125.8100  128.8070   65.7690 N   0  0  0  0  0  0  0  0  0  0  0  0
  125.9860  129.8910   64.9200 N   0  0  0  0  0  0  0  0  0  0  0  0
  124.8990  130.3780   64.2850 C   0  0  0  0  0  0  0  0  0  0  0  0
  123.7440  129.9880   64.4890 O   0  0  0  0  0  0  0  0  0  0  0  0
  125.1630  131.4900   63.2890 C   0  0  0  0  0  0  0  0  0  0  0  0
  124.0930  132.1940   62.7270 C   0  0  0  0  0  0  0  0  0  0  0  0
  124.3130  133.2090   61.8030 C   0  0  0  0  0  0  0  0  0  0  0  0
  125.6160  133.5480   61.4040 C   0  0  0  0  0  0  0  0  0  0  0  0
  125.9020  134.5370   60.4800 O   0  0  0  0  0  0  0  0  0  0  0  0
  126.6830  135.6600   60.8740 C   0  0  0  0  0  0  0  0  0  0  0  0
  126.7010  132.8500   61.9500 C   0  0  0  0  0  0  0  0  0  0  0  0
  127.9640  133.2090   61.5090 O   0  0  0  0  0  0  0  0  0  0  0  0
  128.4390  132.7190   60.2600 C   0  0  0  0  0  0  0  0  0  0  0  0
  126.4660  131.8300   62.8890 C   0  0  0  0  0  0  0  0  0  0  0  0
  132.5820  125.1330   63.2350 C   0  0  0  0  0  0  0  0  0  0  0  0
  133.3010  124.6290   62.1550 C   0  0  0  0  0  0  0  0  0  0  0  0
  133.9735  124.6541   59.9518 H   0  0  0  0  0  0  0  0  0  0  0  0
  135.0724  123.4918   59.1346 H   0  0  0  0  0  0  0  0  0  0  0  0
  133.2994  123.2035   59.1346 H   0  0  0  0  0  0  0  0  0  0  0  0
  133.2732  121.3142   62.9620 H   0  0  0  0  0  0  0  0  0  0  0  0
  131.9861  122.2063   64.8924 H   0  0  0  0  0  0  0  0  0  0  0  0
  131.6580  124.3070   66.2220 H   0  0  0  0  0  0  0  0  0  0  0  0
  128.5253  125.5611   66.6342 H   0  0  0  0  0  0  0  0  0  0  0  0
  130.0363  124.8132   67.3751 H   0  0  0  0  0  0  0  0  0  0  0  0
  125.5428  127.9171   72.0976 H   0  0  0  0  0  0  0  0  0  0  0  0
  125.1946  127.7569   74.5747 H   0  0  0  0  0  0  0  0  0  0  0  0
  126.9107  126.6271   75.9667 H   0  0  0  0  0  0  0  0  0  0  0  0
  129.2777  125.8192   72.5693 H   0  0  0  0  0  0  0  0  0  0  0  0
  126.9375  126.3193   66.7239 H   0  0  0  0  0  0  0  0  0  0  0  0
  125.5540  127.1231   67.6295 H   0  0  0  0  0  0  0  0  0  0  0  0
  125.0590  128.1900   65.4900 H   0  0  0  0  0  0  0  0  0  0  0  0
  126.8890  129.8630   64.4680 H   0  0  0  0  0  0  0  0  0  0  0  0
  123.0634  131.9410   63.0202 H   0  0  0  0  0  0  0  0  0  0  0  0
  123.4561  133.7532   61.3793 H   0  0  0  0  0  0  0  0  0  0  0  0
  126.7203  135.7136   61.9721 H   0  0  0  0  0  0  0  0  0  0  0  0
  127.7035  135.5543   60.4772 H   0  0  0  0  0  0  0  0  0  0  0  0
  126.2288  136.5799   60.4772 H   0  0  0  0  0  0  0  0  0  0  0  0
  129.1948  131.9393   60.4355 H   0  0  0  0  0  0  0  0  0  0  0  0
  127.5998  132.2944   59.6896 H   0  0  0  0  0  0  0  0  0  0  0  0
  128.8895  133.5446   59.6896 H   0  0  0  0  0  0  0  0  0  0  0  0
  127.3204  131.2870   63.3193 H   0  0  0  0  0  0  0  0  0  0  0  0
  132.3847  126.2126   63.3092 H   0  0  0  0  0  0  0  0  0  0  0  0
  133.6756  125.3168   61.3826 H   0  0  0  0  0  0  0  0  0  0  0  0
  1  2  1  0
  2  3  1  0
  3  4  2  0
  4  5  1  0
  5  6  2  0
  6  7  1  0
  7  8  1  0
  8  9  2  0
  8 10  1  0
 10 11  1  0
 11 12  1  0
 12 13  2  0
 13 14  1  0
 14 15  1  0
 15 16  2  0
 16 17  1  0
 17 18  2  0
 18 19  1  0
 19 20  2  0
 14 21  2  0
 21 22  1  0
 22 23  1  0
 23 24  1  0
 24 25  2  0
 24 26  1  0
 26 27  1  0
 27 28  1  0
 28 29  2  0
 28 30  1  0
 30 31  2  0
 31 32  1  0
 32 33  2  0
 33 34  1  0
 34 35  1  0
 33 36  1  0
 36 37  1  0
 37 38  1  0
 36 39  2  0
  6 40  1  0
 40 41  2  0
 41  3  1  0
 22 12  1  0
 39 30  1  0
 20 15  1  0
  1 42  1  0
  1 43  1  0
  1 44  1  0
  4 45  1  0
  5 46  1  0
  7 47  1  0
 10 48  1  0
 10 49  1  0
 16 50  1  0
 17 51  1  0
 18 52  1  0
 20 53  1  0
 23 54  1  0
 23 55  1  0
 26 56  1  0
 27 57  1  0
 31 58  1  0
 32 59  1  0
 35 60  1  0
 35 61  1  0
 35 62  1  0
 38 63  1  0
 38 64  1  0
 38 65  1  0
 39 66  1  0
 40 67  1  0
 41 68  1  0
M  END
>  <Binding energies>  (1) 
[-9.09]

>  <Ligand effiencies>  (1) 
[-0.20659090909090908]

>  <Interactions>  (1) 
["V-B:ARG:545:CG:9894, H-B:LYS:547:NZ:9923, V-B:HIS:456:CD2:9039, V-B:GLU:543:CB:9878, V-A:HIS:456:CE1:4069, H-A:HIS:456:NE2:4070, V-B:HIS:456:CE1:9040, V-B:TRP:381:CH2:8343, H-B:GLY:454:N:9021, V-B:GLY:454:CA:9020, V-B:PRO:482:CG:9298, V-B:LEU:475:CD1:9229, V-A:PRO:540:CA:4883, V-B:ILE:369:CD1:8210, H-B:ARG:545:NH1:9899, V-A:TYR:539:CE2:4876, H-B:TYR:484:OH:9319, H-B:ARG:545:NH2:9900, V-A:TYR:539:CD2:4874, H-B:ARG:545:NE:9896, V-A:TYR:484:CZ:4347, V-A:LEU:475:CD1:4258, V-A:ARG:545:CZ:4926, H-A:TYR:484:OH:4348, V-A:GLY:454:CA:4049, V-A:ASP:366:CB:3212, V-A:ASP:366:CG:3213, V-A:ILE:369:CB:3236, V-A:ILE:369:CG2:3237, V-A:ASP:366:CA:3210, V-A:ILE:369:CD1:3239, V-B:TRP:381:CZ2:8341, V-B:TRP:381:CZ3:8342, V-B:GLY:544:C:9884, H-B:ARG:545:N:9892, H-B:GLU:543:OE1:9881, V-B:HIS:456:CB:9036, V-B:LYS:547:CD:9921, V-B:HIS:456:CG:9037"]

$$$$
RR20_Rahimova_2017
     RDKit          3D

 68 73  0  0  0  0  0  0  0  0999 V2000
  127.6610  134.9620   61.2860 C   0  0  0  0  0  0  0  0  0  0  0  0
  126.7610  133.8990   61.8900 C   0  0  0  0  0  0  0  0  0  0  0  0
  125.5310  133.6110   61.2980 C   0  0  0  0  0  0  0  0  0  0  0  0
  124.7090  132.6300   61.8450 C   0  0  0  0  0  0  0  0  0  0  0  0
  125.1030  131.9380   62.9970 C   0  0  0  0  0  0  0  0  0  0  0  0
  124.2040  130.8620   63.5640 C   0  0  0  0  0  0  0  0  0  0  0  0
  123.2880  130.4490   62.8490 O   0  0  0  0  0  0  0  0  0  0  0  0
  124.4440  130.3830   64.8200 N   0  0  0  0  0  0  0  0  0  0  0  0
  123.3900  130.3520   65.8470 C   0  0  0  0  0  0  0  0  0  0  0  0
  123.9790  129.6230   67.0420 C   0  0  0  0  0  0  0  0  0  0  0  0
  125.1950  128.9640   66.4660 C   0  0  0  0  0  0  0  0  0  0  0  0
  126.0920  128.0860   67.0750 C   0  0  0  0  0  0  0  0  0  0  0  0
  127.2690  127.7000   66.4210 C   0  0  0  0  0  0  0  0  0  0  0  0
  128.2310  126.7470   67.0730 C   0  0  0  0  0  0  0  0  0  0  0  0
  128.1660  126.5880   68.3860 N   0  0  0  0  0  0  0  0  0  0  0  0
  129.0340  125.7220   68.8430 C   0  0  0  0  0  0  0  0  0  0  0  0
  129.2290  125.3180   70.1550 N   0  0  0  0  0  0  0  0  0  0  0  0
  129.6060  126.0960   71.1990 C   0  0  0  0  0  0  0  0  0  0  0  0
  129.8100  127.3090   71.1160 O   0  0  0  0  0  0  0  0  0  0  0  0
  129.7640  125.4270   72.5840 C   0  0  0  0  0  0  0  0  0  0  0  0
  128.7350  125.8530   73.5510 N   0  0  0  0  0  0  0  0  0  0  0  0
  129.2800  126.7200   74.6060 C   0  0  0  0  0  0  0  0  0  0  0  0
  128.2350  126.9160   75.7270 C   0  0  0  0  0  0  0  0  0  0  0  0
  126.8380  127.2350   75.1930 C   0  0  0  0  0  0  0  0  0  0  0  0
  125.8310  127.7050   76.0430 C   0  0  0  0  0  0  0  0  0  0  0  0
  124.5480  127.9580   75.5640 C   0  0  0  0  0  0  0  0  0  0  0  0
  124.2570  127.7460   74.2200 C   0  0  0  0  0  0  0  0  0  0  0  0
  125.2530  127.2870   73.3610 C   0  0  0  0  0  0  0  0  0  0  0  0
  126.5460  127.0270   73.8300 C   0  0  0  0  0  0  0  0  0  0  0  0
  127.6530  126.5790   72.8750 C   0  0  0  0  0  0  0  0  0  0  0  0
  130.0420  125.0220   67.6370 S   0  0  0  0  0  0  0  0  0  0  0  0
  129.2280  125.9850   66.4270 C   0  0  0  0  0  0  0  0  0  0  0  0
  129.6570  125.9190   64.9780 C   0  0  0  0  0  0  0  0  0  0  0  0
  127.5520  128.2610   65.1660 C   0  0  0  0  0  0  0  0  0  0  0  0
  126.6660  129.1540   64.5630 C   0  0  0  0  0  0  0  0  0  0  0  0
  125.4520  129.4650   65.1900 C   0  0  0  0  0  0  0  0  0  0  0  0
  126.3520  132.2120   63.5690 C   0  0  0  0  0  0  0  0  0  0  0  0
  127.1760  133.1930   63.0210 C   0  0  0  0  0  0  0  0  0  0  0  0
  128.1450  135.5336   62.0916 H   0  0  0  0  0  0  0  0  0  0  0  0
  128.4305  134.4809   60.6644 H   0  0  0  0  0  0  0  0  0  0  0  0
  127.0596  135.6416   60.6644 H   0  0  0  0  0  0  0  0  0  0  0  0
  125.2110  134.1589   60.3994 H   0  0  0  0  0  0  0  0  0  0  0  0
  123.7447  132.3970   61.3699 H   0  0  0  0  0  0  0  0  0  0  0  0
  123.1032  131.3758   66.1291 H   0  0  0  0  0  0  0  0  0  0  0  0
  122.4861  129.8463   65.4765 H   0  0  0  0  0  0  0  0  0  0  0  0
  124.2520  130.3284   67.8407 H   0  0  0  0  0  0  0  0  0  0  0  0
  123.2787  128.9129   67.5060 H   0  0  0  0  0  0  0  0  0  0  0  0
  125.8728  127.6930   68.0787 H   0  0  0  0  0  0  0  0  0  0  0  0
  129.0800  124.3370   70.3440 H   0  0  0  0  0  0  0  0  0  0  0  0
  129.6950  124.3366   72.4564 H   0  0  0  0  0  0  0  0  0  0  0  0
  130.7408  125.7325   72.9872 H   0  0  0  0  0  0  0  0  0  0  0  0
  130.1831  126.2551   75.0282 H   0  0  0  0  0  0  0  0  0  0  0  0
  129.5300  127.6996   74.1726 H   0  0  0  0  0  0  0  0  0  0  0  0
  128.1806  125.9917   76.3209 H   0  0  0  0  0  0  0  0  0  0  0  0
  128.5596  127.7749   76.3327 H   0  0  0  0  0  0  0  0  0  0  0  0
  126.0561  127.8773   77.1058 H   0  0  0  0  0  0  0  0  0  0  0  0
  123.7668  128.3244   76.2463 H   0  0  0  0  0  0  0  0  0  0  0  0
  123.2442  127.9401   73.8372 H   0  0  0  0  0  0  0  0  0  0  0  0
  125.0199  127.1264   72.2980 H   0  0  0  0  0  0  0  0  0  0  0  0
  127.2124  125.9205   72.1120 H   0  0  0  0  0  0  0  0  0  0  0  0
  128.0917  127.4852   72.4318 H   0  0  0  0  0  0  0  0  0  0  0  0
  130.7429  125.7519   64.9244 H   0  0  0  0  0  0  0  0  0  0  0  0
  129.1335  125.0908   64.4780 H   0  0  0  0  0  0  0  0  0  0  0  0
  129.4066  126.8662   64.4780 H   0  0  0  0  0  0  0  0  0  0  0  0
  128.4859  127.9927   64.6504 H   0  0  0  0  0  0  0  0  0  0  0  0
  126.9201  129.6135   63.5964 H   0  0  0  0  0  0  0  0  0  0  0  0
  126.6838  131.6503   64.4547 H   0  0  0  0  0  0  0  0  0  0  0  0
  128.1522  133.4110   63.4788 H   0  0  0  0  0  0  0  0  0  0  0  0
  1  2  1  0
  2  3  2  0
  3  4  1  0
  4  5  2  0
  5  6  1  0
  6  7  2  0
  6  8  1  0
  8  9  1  0
  9 10  1  0
 10 11  1  0
 11 12  2  0
 12 13  1  0
 13 14  1  0
 14 15  1  0
 15 16  2  0
 16 17  1  0
 17 18  1  0
 18 19  2  0
 18 20  1  0
 20 21  1  0
 21 22  1  0
 22 23  1  0
 23 24  1  0
 24 25  2  0
 25 26  1  0
 26 27  2  0
 27 28  1  0
 28 29  2  0
 29 30  1  0
 16 31  1  0
 31 32  1  0
 32 33  1  0
 13 34  2  0
 34 35  1  0
 35 36  2  0
  5 37  1  0
 37 38  2  0
 38  2  1  0
 36  8  1  0
 36 11  1  0
 32 14  2  0
 30 21  1  0
 29 24  1  0
  1 39  1  0
  1 40  1  0
  1 41  1  0
  3 42  1  0
  4 43  1  0
  9 44  1  0
  9 45  1  0
 10 46  1  0
 10 47  1  0
 12 48  1  0
 17 49  1  0
 20 50  1  0
 20 51  1  0
 22 52  1  0
 22 53  1  0
 23 54  1  0
 23 55  1  0
 25 56  1  0
 26 57  1  0
 27 58  1  0
 28 59  1  0
 30 60  1  0
 30 61  1  0
 33 62  1  0
 33 63  1  0
 33 64  1  0
 34 65  1  0
 35 66  1  0
 37 67  1  0
 38 68  1  0
M  END
>  <Binding energies>  (1) 
[-10.83]

>  <Ligand effiencies>  (1) 
[-0.2776923076923077]

>  <Interactions>  (1) 
["V-B:ARG:545:CG:9894, V-A:HIS:456:CD2:4068, V-B:GLU:543:CD:9880, H-B:LYS:547:NZ:9923, V-B:GLU:543:C:9874, V-B:GLU:543:CB:9878, V-A:HIS:456:CE1:4069, V-B:ARG:545:CZ:9898, H-A:HIS:456:NE2:4070, V-B:ARG:545:CD:9895, V-B:HIS:456:CE1:9040, V-B:ILE:455:C:9023, H-B:GLY:454:N:9021, V-B:GLY:454:CA:9020, V-B:PRO:482:CG:9298, V-B:LEU:475:CD1:9229, H-B:ARG:545:NH1:9899, V-A:TYR:539:CE2:4876, V-A:ALA:541:CB:4892, H-B:ARG:545:NH2:9900, V-A:TYR:539:CD2:4874, V-B:GLY:453:CA:9015, V-B:GLY:453:C:9013, V-A:TYR:484:CZ:4347, V-A:TYR:484:CE1:4345, V-B:TYR:484:CZ:9318, V-B:GLY:454:C:9018, V-B:GLY:544:C:9884, V-B:HIS:456:CB:9036, V-B:LYS:547:CD:9921, V-B:HIS:456:C:9032, V-B:ARG:545:C:9889, V-B:VAL:458:CG2:9058, V-B:VAL:457:C:9044, V-B:HIS:456:CG:9037, V-B:HIS:456:CA:9034, H-B:GLU:543:O:9875"]

$$$$
RR20_Rahimova_2017-again1
     RDKit          3D

 68 73  0  0  0  0  0  0  0  0999 V2000
  127.4910  135.1780   61.1180 C   0  0  0  0  0  0  0  0  0  0  0  0
  126.6310  134.0910   61.7390 C   0  0  0  0  0  0  0  0  0  0  0  0
  127.1440  133.3020   62.7700 C   0  0  0  0  0  0  0  0  0  0  0  0
  126.3540  132.3110   63.3450 C   0  0  0  0  0  0  0  0  0  0  0  0
  125.0490  132.0920   62.8870 C   0  0  0  0  0  0  0  0  0  0  0  0
  124.2000  131.0220   63.5360 C   0  0  0  0  0  0  0  0  0  0  0  0
  123.1680  130.6790   62.9560 O   0  0  0  0  0  0  0  0  0  0  0  0
  124.6150  130.4630   64.7110 N   0  0  0  0  0  0  0  0  0  0  0  0
  123.7210  130.3720   65.8770 C   0  0  0  0  0  0  0  0  0  0  0  0
  124.4670  129.5670   66.9280 C   0  0  0  0  0  0  0  0  0  0  0  0
  125.5800  128.9430   66.1400 C   0  0  0  0  0  0  0  0  0  0  0  0
  126.5470  128.0280   66.5590 C   0  0  0  0  0  0  0  0  0  0  0  0
  127.6150  127.6820   65.7180 C   0  0  0  0  0  0  0  0  0  0  0  0
  128.6600  126.7030   66.1710 C   0  0  0  0  0  0  0  0  0  0  0  0
  129.6100  126.3610   65.3140 N   0  0  0  0  0  0  0  0  0  0  0  0
  130.4730  125.4960   65.7900 C   0  0  0  0  0  0  0  0  0  0  0  0
  131.5390  124.9080   65.1630 N   0  0  0  0  0  0  0  0  0  0  0  0
  132.0340  125.2860   64.0320 C   0  0  0  0  0  0  0  0  0  0  0  0
  131.7620  126.2510   63.2930 O   0  0  0  0  0  0  0  0  0  0  0  0
  133.1720  124.3820   63.5140 C   0  0  0  0  0  0  0  0  0  0  0  0
  133.2030  124.4080   61.9580 N   0  0  2  0  0  0  0  0  0  0  0  0
  131.7940  124.5130   61.3400 C   0  0  0  0  0  0  0  0  0  0  0  0
  130.9870  123.2400   61.6520 C   0  0  0  0  0  0  0  0  0  0  0  0
  131.7480  121.9540   61.3440 C   0  0  0  0  0  0  0  0  0  0  0  0
  131.0460  120.7560   61.1710 C   0  0  0  0  0  0  0  0  0  0  0  0
  131.7110  119.5550   60.9370 C   0  0  0  0  0  0  0  0  0  0  0  0
  133.0990  119.5390   60.8700 C   0  0  0  0  0  0  0  0  0  0  0  0
  133.8110  120.7250   61.0270 C   0  0  0  0  0  0  0  0  0  0  0  0
  133.1600  121.9440   61.2550 C   0  0  0  0  0  0  0  0  0  0  0  0
  134.0010  123.2220   61.3650 C   0  0  0  0  0  0  0  0  0  0  0  0
  130.1260  125.0090   67.4070 S   0  0  0  0  0  0  0  0  0  0  0  0
  128.7520  126.0870   67.4350 C   0  0  0  0  0  0  0  0  0  0  0  0
  127.9180  126.2380   68.6900 C   0  0  0  0  0  0  0  0  0  0  0  0
  127.7120  128.3110   64.4700 C   0  0  0  0  0  0  0  0  0  0  0  0
  126.7570  129.2390   64.0550 C   0  0  0  0  0  0  0  0  0  0  0  0
  125.6520  129.5170   64.8710 C   0  0  0  0  0  0  0  0  0  0  0  0
  124.5320  132.9090   61.8730 C   0  0  0  0  0  0  0  0  0  0  0  0
  125.3210  133.9000   61.2980 C   0  0  0  0  0  0  0  0  0  0  0  0
  127.9617  135.7730   61.9145 H   0  0  0  0  0  0  0  0  0  0  0  0
  128.2714  134.7169   60.4949 H   0  0  0  0  0  0  0  0  0  0  0  0
  126.8627  135.8314   60.4949 H   0  0  0  0  0  0  0  0  0  0  0  0
  128.1717  133.4634   63.1276 H   0  0  0  0  0  0  0  0  0  0  0  0
  126.7569  131.6965   64.1636 H   0  0  0  0  0  0  0  0  0  0  0  0
  123.4916  131.3774   66.2599 H   0  0  0  0  0  0  0  0  0  0  0  0
  122.7668  129.8936   65.6114 H   0  0  0  0  0  0  0  0  0  0  0  0
  124.8605  130.2195   67.7214 H   0  0  0  0  0  0  0  0  0  0  0  0
  123.8330  128.8311   67.4442 H   0  0  0  0  0  0  0  0  0  0  0  0
  126.4709  127.5739   67.5580 H   0  0  0  0  0  0  0  0  0  0  0  0
  134.1337  124.7467   63.9041 H   0  0  0  0  0  0  0  0  0  0  0  0
  132.9991  123.3507   63.8555 H   0  0  0  0  0  0  0  0  0  0  0  0
  133.6910  125.2580   61.7040 H   0  0  0  0  0  0  0  0  0  0  0  0
  131.2750  125.3861   61.7623 H   0  0  0  0  0  0  0  0  0  0  0  0
  131.8851  124.6250   60.2495 H   0  0  0  0  0  0  0  0  0  0  0  0
  130.7267  123.2445   62.7207 H   0  0  0  0  0  0  0  0  0  0  0  0
  130.0948  123.2533   61.0087 H   0  0  0  0  0  0  0  0  0  0  0  0
  129.9472  120.7630   61.2208 H   0  0  0  0  0  0  0  0  0  0  0  0
  131.1405  118.6237   60.8059 H   0  0  0  0  0  0  0  0  0  0  0  0
  133.6327  118.5934   60.6937 H   0  0  0  0  0  0  0  0  0  0  0  0
  134.9094  120.7043   60.9707 H   0  0  0  0  0  0  0  0  0  0  0  0
  134.8664  123.0200   62.0133 H   0  0  0  0  0  0  0  0  0  0  0  0
  134.3137  123.5046   60.3489 H   0  0  0  0  0  0  0  0  0  0  0  0
  128.5618  126.1214   69.5743 H   0  0  0  0  0  0  0  0  0  0  0  0
  127.4532  127.2349   68.7036 H   0  0  0  0  0  0  0  0  0  0  0  0
  127.1332  125.4673   68.7036 H   0  0  0  0  0  0  0  0  0  0  0  0
  128.5553  128.0690   63.8064 H   0  0  0  0  0  0  0  0  0  0  0  0
  126.8710  129.7519   63.0886 H   0  0  0  0  0  0  0  0  0  0  0  0
  123.4967  132.7661   61.5297 H   0  0  0  0  0  0  0  0  0  0  0  0
  124.9125  134.5326   60.4962 H   0  0  0  0  0  0  0  0  0  0  0  0
  1  2  1  0
  2  3  2  0
  3  4  1  0
  4  5  2  0
  5  6  1  0
  6  7  2  0
  6  8  1  0
  8  9  1  0
  9 10  1  0
 10 11  1  0
 11 12  2  0
 12 13  1  0
 13 14  1  0
 14 15  1  0
 15 16  2  0
 16 17  1  0
 17 18  2  0
 18 19  1  0
 18 20  1  0
 20 21  1  0
 21 22  1  0
 22 23  1  0
 23 24  1  0
 24 25  2  0
 25 26  1  0
 26 27  2  0
 27 28  1  0
 28 29  2  0
 29 30  1  0
 16 31  1  0
 31 32  1  0
 32 33  1  0
 13 34  2  0
 34 35  1  0
 35 36  2  0
  5 37  1  0
 37 38  2  0
 38  2  1  0
 36  8  1  0
 36 11  1  0
 32 14  2  0
 30 21  1  0
 29 24  1  0
  1 39  1  0
  1 40  1  0
  1 41  1  0
  3 42  1  0
  4 43  1  0
  9 44  1  0
  9 45  1  0
 10 46  1  0
 10 47  1  0
 12 48  1  0
 20 49  1  0
 20 50  1  0
 21 51  1  1
 22 52  1  0
 22 53  1  0
 23 54  1  0
 23 55  1  0
 25 56  1  0
 26 57  1  0
 27 58  1  0
 28 59  1  0
 30 60  1  0
 30 61  1  0
 33 62  1  0
 33 63  1  0
 33 64  1  0
 34 65  1  0
 35 66  1  0
 37 67  1  0
 38 68  1  0
M  CHG  2  19  -1  21   1
M  END
>  <Binding energies>  (1) 
[-9.9]

>  <Ligand effiencies>  (1) 
[-0.25384615384615383]

>  <Interactions>  (1) 
["V-B:ARG:545:CG:9894, V-B:GLU:543:CD:9880, V-B:GLU:543:C:9874, V-B:GLU:543:CB:9878, V-A:HIS:456:CE1:4069, V-B:ARG:545:CZ:9898, V-B:ARG:545:CD:9895, V-B:HIS:456:CE1:9040, H-B:GLY:454:N:9021, V-B:GLY:454:CA:9020, V-B:PRO:482:CG:9298, V-B:LEU:475:CD1:9229, V-A:TYR:539:CE2:4876, V-A:ALA:541:CB:4892, H-B:ARG:545:NH2:9900, V-A:TYR:539:CD2:4874, V-B:GLY:453:C:9013, V-A:TYR:484:CZ:4347, V-A:LEU:475:CD1:4258, V-A:TYR:484:CE1:4345, H-A:ARG:545:NH2:4928, H-A:TYR:484:OH:4348, V-A:ASP:366:CG:3213, V-A:ILE:369:CG2:3237, V-A:ILE:369:CD1:3239, V-B:TYR:484:CZ:9318, V-B:TYR:539:CD2:9846, H-A:ASP:366:OD1:3214, V-A:TRP:381:CZ2:3370, V-A:TRP:381:CH2:3372, V-B:GLY:454:C:9018, H-A:ASP:366:OD2:3215"]

$$$$
RR21_Rahimova_2017
     RDKit          3D

 62 67  0  0  0  0  0  0  0  0999 V2000
  133.7880  124.2910   62.3280 C   0  0  0  0  0  0  0  0  0  0  0  0
  133.6450  124.3860   63.7420 O   0  0  0  0  0  0  0  0  0  0  0  0
  132.4860  124.9230   64.2690 C   0  0  0  0  0  0  0  0  0  0  0  0
  131.2890  125.0800   63.5500 C   0  0  0  0  0  0  0  0  0  0  0  0
  130.1620  125.6290   64.1590 C   0  0  0  0  0  0  0  0  0  0  0  0
  130.1980  126.0320   65.4990 C   0  0  0  0  0  0  0  0  0  0  0  0
  128.9840  126.6180   66.1520 C   0  0  0  0  0  0  0  0  0  0  0  0
  128.2140  127.4490   65.4780 N   0  0  0  0  0  0  0  0  0  0  0  0
  127.2170  127.8060   66.3020 N   0  0  0  0  0  0  0  0  0  0  0  0
  126.1870  128.6870   65.8830 C   0  0  0  0  0  0  0  0  0  0  0  0
  126.3020  129.4050   64.6820 C   0  0  0  0  0  0  0  0  0  0  0  0
  125.2830  130.2640   64.2790 C   0  0  0  0  0  0  0  0  0  0  0  0
  124.1470  130.4080   65.0720 C   0  0  0  0  0  0  0  0  0  0  0  0
  124.0220  129.7040   66.2670 C   0  0  0  0  0  0  0  0  0  0  0  0
  125.0400  128.8450   66.6730 C   0  0  0  0  0  0  0  0  0  0  0  0
  127.3540  127.1730   67.5120 C   0  0  0  0  0  0  0  0  0  0  0  0
  128.5030  126.3980   67.4630 C   0  0  0  0  0  0  0  0  0  0  0  0
  129.0350  125.5130   68.4880 C   0  0  0  0  0  0  0  0  0  0  0  0
  129.3060  125.7990   69.7830 C   0  0  0  0  0  0  0  0  0  0  0  0
  129.1010  127.3510   70.6240 S   0  0  0  0  0  0  0  0  0  0  0  0
  129.6760  126.6070   72.1090 C   0  0  0  0  0  0  0  0  0  0  0  0
  129.8030  127.1560   73.2770 N   0  0  0  0  0  0  0  0  0  0  0  0
  130.2720  126.4320   74.4080 C   0  0  0  0  0  0  0  0  0  0  0  0
  130.4010  126.8730   75.5500 O   0  0  0  0  0  0  0  0  0  0  0  0
  130.6170  124.9980   74.1120 C   0  0  0  0  0  0  0  0  0  0  0  0
  131.1530  124.1230   75.2520 C   0  0  0  0  0  0  0  0  0  0  0  0
  130.7040  122.6650   75.1900 C   0  0  0  0  0  0  0  0  0  0  0  0
  130.8850  121.9260   74.0170 C   0  0  0  0  0  0  0  0  0  0  0  0
  130.4910  120.5910   73.9670 C   0  0  0  0  0  0  0  0  0  0  0  0
  129.9180  119.9910   75.0890 C   0  0  0  0  0  0  0  0  0  0  0  0
  129.5010  118.5320   75.0330 C   0  0  0  0  0  0  0  0  0  0  0  0
  129.7470  120.7240   76.2660 C   0  0  0  0  0  0  0  0  0  0  0  0
  130.1400  122.0580   76.3160 C   0  0  0  0  0  0  0  0  0  0  0  0
  130.4900  124.4660   72.9400 N   0  0  0  0  0  0  0  0  0  0  0  0
  130.0050  125.2910   71.9170 N   0  0  0  0  0  0  0  0  0  0  0  0
  129.8360  124.7770   70.6740 C   0  0  0  0  0  0  0  0  0  0  0  0
  130.0910  123.6100   70.3530 O   0  0  0  0  0  0  0  0  0  0  0  0
  131.3910  125.8820   66.2140 C   0  0  0  0  0  0  0  0  0  0  0  0
  132.5210  125.3330   65.6070 C   0  0  0  0  0  0  0  0  0  0  0  0
  133.6590  125.2010   66.3270 F   0  0  0  0  0  0  0  0  0  0  0  0
  134.6824  123.6968   62.0890 H   0  0  0  0  0  0  0  0  0  0  0  0
  132.8990  123.8033   61.9015 H   0  0  0  0  0  0  0  0  0  0  0  0
  133.8930  125.2995   61.9015 H   0  0  0  0  0  0  0  0  0  0  0  0
  131.2410  124.7667   62.4967 H   0  0  0  0  0  0  0  0  0  0  0  0
  129.2340  125.7469   63.5803 H   0  0  0  0  0  0  0  0  0  0  0  0
  127.2000  129.2885   64.0574 H   0  0  0  0  0  0  0  0  0  0  0  0
  125.3747  130.8266   63.3382 H   0  0  0  0  0  0  0  0  0  0  0  0
  123.3409  131.0843   64.7513 H   0  0  0  0  0  0  0  0  0  0  0  0
  123.1223  129.8260   66.8880 H   0  0  0  0  0  0  0  0  0  0  0  0
  124.9437  128.2885   67.6170 H   0  0  0  0  0  0  0  0  0  0  0  0
  126.6720  127.2644   68.3702 H   0  0  0  0  0  0  0  0  0  0  0  0
  129.2434  124.4807   68.1703 H   0  0  0  0  0  0  0  0  0  0  0  0
  132.2522  124.1467   75.2167 H   0  0  0  0  0  0  0  0  0  0  0  0
  130.7459  124.5383   76.1857 H   0  0  0  0  0  0  0  0  0  0  0  0
  131.3386  122.3990   73.1335 H   0  0  0  0  0  0  0  0  0  0  0  0
  130.6314  120.0100   73.0436 H   0  0  0  0  0  0  0  0  0  0  0  0
  129.3898  118.1429   76.0559 H   0  0  0  0  0  0  0  0  0  0  0  0
  128.5420  118.4449   74.5013 H   0  0  0  0  0  0  0  0  0  0  0  0
  130.2691  117.9513   74.5013 H   0  0  0  0  0  0  0  0  0  0  0  0
  129.3023  120.2473   77.1520 H   0  0  0  0  0  0  0  0  0  0  0  0
  130.0067  122.6356   77.2426 H   0  0  0  0  0  0  0  0  0  0  0  0
  131.4387  126.2002   67.2659 H   0  0  0  0  0  0  0  0  0  0  0  0
  1  2  1  0
  2  3  1  0
  3  4  2  0
  4  5  1  0
  5  6  2  0
  6  7  1  0
  7  8  2  0
  8  9  1  0
  9 10  1  0
 10 11  2  0
 11 12  1  0
 12 13  2  0
 13 14  1  0
 14 15  2  0
  9 16  1  0
 16 17  2  0
 17 18  1  0
 18 19  2  0
 19 20  1  0
 20 21  1  0
 21 22  2  0
 22 23  1  0
 23 24  2  0
 23 25  1  0
 25 26  1  0
 26 27  1  0
 27 28  2  0
 28 29  1  0
 29 30  2  0
 30 31  1  0
 30 32  1  0
 32 33  2  0
 25 34  2  0
 34 35  1  0
 35 36  1  0
 36 37  2  0
  6 38  1  0
 38 39  2  0
 39 40  1  0
 39  3  1  0
 17  7  1  0
 36 19  1  0
 15 10  1  0
 35 21  1  0
 33 27  1  0
  1 41  1  0
  1 42  1  0
  1 43  1  0
  4 44  1  0
  5 45  1  0
 11 46  1  0
 12 47  1  0
 13 48  1  0
 14 49  1  0
 15 50  1  0
 16 51  1  0
 18 52  1  0
 26 53  1  0
 26 54  1  0
 28 55  1  0
 29 56  1  0
 31 57  1  0
 31 58  1  0
 31 59  1  0
 32 60  1  0
 33 61  1  0
 38 62  1  0
M  END
>  <Binding energies>  (1) 
[-9.7]

>  <Ligand effiencies>  (1) 
[-0.2425]

>  <Interactions>  (1) 
["V-B:ARG:545:CG:9894, V-A:HIS:456:CD2:4068, V-B:GLU:543:CD:9880, H-B:LYS:547:NZ:9923, V-B:GLU:543:C:9874, H-A:LYS:547:NZ:4951, V-B:GLU:543:CB:9878, V-A:HIS:456:CE1:4069, V-B:ARG:545:CZ:9898, V-B:ARG:545:CD:9895, V-B:HIS:456:CE1:9040, V-A:GLU:543:CD:4908, V-B:GLY:454:CA:9020, H-A:GLY:454:N:4050, H-A:TYR:484:OH:4348, V-A:ARG:545:CD:4923, V-A:ARG:545:CG:4922, V-A:HIS:456:CG:4066, V-A:ASP:473:CG:4240, V-A:ASP:473:CB:4239, V-A:TYR:484:CB:4341"]

$$$$
RR22_Rahimova_2017
     RDKit          3D

 49 54  0  0  0  0  0  0  0  0999 V2000
  134.4760  125.1100   64.8150 O   0  0  0  0  0  0  0  0  0  0  0  0
  133.2890  125.0630   64.5030 C   0  0  0  0  0  0  0  0  0  0  0  0
  132.2640  125.8760   64.9550 N   0  0  0  0  0  0  0  0  0  0  0  0
  130.9360  125.7280   64.4440 C   0  0  1  0  0  0  0  0  0  0  0  0
  130.1120  125.5200   65.5940 O   0  0  0  0  0  0  0  0  0  0  0  0
  129.0820  126.4270   65.8450 C   0  0  0  0  0  0  0  0  0  0  0  0
  128.5480  126.4200   67.1330 C   0  0  0  0  0  0  0  0  0  0  0  0
  127.4880  127.2710   67.4480 C   0  0  0  0  0  0  0  0  0  0  0  0
  126.9600  128.1200   66.4750 C   0  0  0  0  0  0  0  0  0  0  0  0
  127.4950  128.1260   65.1850 C   0  0  0  0  0  0  0  0  0  0  0  0
  128.5730  127.2960   64.8620 C   0  0  0  0  0  0  0  0  0  0  0  0
  129.1940  127.1970   63.4870 C   0  0  1  0  0  0  0  0  0  0  0  0
  129.2620  128.3760   62.5370 C   0  0  0  0  0  0  0  0  0  0  0  0
  130.5420  128.0240   61.7740 C   0  0  0  0  0  0  0  0  0  0  0  0
  130.8840  128.6230   60.4690 C   0  0  0  0  0  0  0  0  0  0  0  0
  130.8590  127.8490   59.2990 C   0  0  0  0  0  0  0  0  0  0  0  0
  131.1810  128.4200   58.0710 C   0  0  0  0  0  0  0  0  0  0  0  0
  131.5300  129.7660   58.0040 C   0  0  0  0  0  0  0  0  0  0  0  0
  131.5600  130.5480   59.1560 C   0  0  0  0  0  0  0  0  0  0  0  0
  131.2370  129.9790   60.3850 C   0  0  0  0  0  0  0  0  0  0  0  0
  131.2530  127.1840   62.4280 N   0  0  0  0  0  0  0  0  0  0  0  0
  130.5880  126.9050   63.6340 N   0  0  0  0  0  0  0  0  0  0  0  0
  130.9210  124.4340   63.6430 C   0  0  0  0  0  0  0  0  0  0  0  0
  129.7780  123.7930   63.3000 C   0  0  0  0  0  0  0  0  0  0  0  0
  129.6200  122.5530   62.5160 C   0  0  0  0  0  0  0  0  0  0  0  0
  130.4140  121.4150   62.7110 C   0  0  0  0  0  0  0  0  0  0  0  0
  130.2070  120.2770   61.9300 C   0  0  0  0  0  0  0  0  0  0  0  0
  129.2040  120.3090   60.9610 C   0  0  0  0  0  0  0  0  0  0  0  0
  128.4260  121.3980   60.7440 N   0  0  0  0  0  0  0  0  0  0  0  0
  128.6430  122.4950   61.5150 C   0  0  0  0  0  0  0  0  0  0  0  0
  132.5690  123.8690   63.3350 S   0  0  0  0  0  0  0  0  0  0  0  0
  132.4270  126.5560   65.6820 H   0  0  0  0  0  0  0  0  0  0  0  0
  128.9609  125.7460   67.8980 H   0  0  0  0  0  0  0  0  0  0  0  0
  127.0682  127.2725   68.4647 H   0  0  0  0  0  0  0  0  0  0  0  0
  126.1207  128.7859   66.7244 H   0  0  0  0  0  0  0  0  0  0  0  0
  127.0657  128.7877   64.4183 H   0  0  0  0  0  0  0  0  0  0  0  0
  128.4995  126.4663   63.0467 H   0  0  0  0  0  0  0  0  0  0  0  0
  128.3871  128.4158   61.8714 H   0  0  0  0  0  0  0  0  0  0  0  0
  129.2663  129.3636   63.0214 H   0  0  0  0  0  0  0  0  0  0  0  0
  130.5835  126.7854   59.3524 H   0  0  0  0  0  0  0  0  0  0  0  0
  131.1597  127.8095   57.1562 H   0  0  0  0  0  0  0  0  0  0  0  0
  131.7842  130.2157   57.0329 H   0  0  0  0  0  0  0  0  0  0  0  0
  131.8377  131.6106   59.0952 H   0  0  0  0  0  0  0  0  0  0  0  0
  131.2586  130.5958   61.2956 H   0  0  0  0  0  0  0  0  0  0  0  0
  128.8453  124.2579   63.6521 H   0  0  0  0  0  0  0  0  0  0  0  0
  131.2007  121.4186   63.4799 H   0  0  0  0  0  0  0  0  0  0  0  0
  130.8206  119.3757   62.0752 H   0  0  0  0  0  0  0  0  0  0  0  0
  129.0371  119.4121   60.3465 H   0  0  0  0  0  0  0  0  0  0  0  0
  128.0185  123.3842   61.3439 H   0  0  0  0  0  0  0  0  0  0  0  0
  1  2  2  0
  2  3  1  0
  3  4  1  0
  4  5  1  1
  5  6  1  0
  6  7  2  0
  7  8  1  0
  8  9  2  0
  9 10  1  0
 10 11  2  0
 11 12  1  0
 12 13  1  0
 13 14  1  0
 14 15  1  0
 15 16  2  0
 16 17  1  0
 17 18  2  0
 18 19  1  0
 19 20  2  0
 14 21  2  0
 21 22  1  0
  4 23  1  0
 23 24  2  0
 24 25  1  0
 25 26  2  0
 26 27  1  0
 27 28  2  0
 28 29  1  0
 29 30  2  0
 23 31  1  0
 31  2  1  0
 22  4  1  0
 30 25  1  0
 11  6  1  0
 22 12  1  0
 20 15  1  0
  3 32  1  0
  7 33  1  0
  8 34  1  0
  9 35  1  0
 10 36  1  0
 12 37  1  6
 13 38  1  0
 13 39  1  0
 16 40  1  0
 17 41  1  0
 18 42  1  0
 19 43  1  0
 20 44  1  0
 24 45  1  0
 26 46  1  0
 27 47  1  0
 28 48  1  0
 30 49  1  0
M  END
>  <Binding energies>  (1) 
[-8.44]

>  <Ligand effiencies>  (1) 
[-0.26375]

>  <Interactions>  (1) 
["V-B:GLU:543:CD:9880, V-B:GLU:543:CB:9878, V-A:HIS:456:CE1:4069, V-B:HIS:456:CE1:9040, V-B:GLU:543:CG:9879, H-A:GLU:543:OE2:4910, V-A:GLU:543:CD:4908, V-B:ALA:541:CB:9864, V-A:LEU:475:CD1:4258, H-A:GLY:454:N:4050, V-A:ARG:545:CZ:4926, H-A:ARG:545:NH2:4928, H-A:ARG:545:NE:4924, H-A:ARG:545:NH1:4927, H-B:ALA:541:N:9863, V-A:PRO:540:CB:4885, V-B:TYR:539:CD2:9846, V-A:PRO:482:CG:4327, V-B:ALA:541:CA:9862, V-A:PRO:482:CB:4326, V-B:TYR:539:C:9839, V-B:PRO:540:C:9853"]

$$$$
RR23_Rahimova_2017
     RDKit          3D

 65 70  0  0  0  0  0  0  0  0999 V2000
  133.7440  119.4270   60.8900 C   0  0  0  0  0  0  0  0  0  0  0  0
  132.4930  120.2700   61.0610 C   0  0  0  0  0  0  0  0  0  0  0  0
  132.5990  121.6490   61.2450 C   0  0  0  0  0  0  0  0  0  0  0  0
  131.4500  122.4220   61.3920 C   0  0  0  0  0  0  0  0  0  0  0  0
  130.1870  121.8200   61.3680 C   0  0  0  0  0  0  0  0  0  0  0  0
  128.9510  122.6800   61.5090 C   0  0  0  0  0  0  0  0  0  0  0  0
  127.8550  122.1290   61.3870 O   0  0  0  0  0  0  0  0  0  0  0  0
  129.0890  124.0130   61.7790 N   0  0  0  0  0  0  0  0  0  0  0  0
  128.5470  125.0410   60.8750 C   0  0  0  0  0  0  0  0  0  0  0  0
  128.7600  126.3760   61.5700 C   0  0  0  0  0  0  0  0  0  0  0  0
  129.0660  125.9730   62.9810 C   0  0  0  0  0  0  0  0  0  0  0  0
  129.2650  126.7790   64.1020 C   0  0  0  0  0  0  0  0  0  0  0  0
  129.7020  126.2170   65.3110 C   0  0  0  0  0  0  0  0  0  0  0  0
  129.9340  127.0690   66.5680 C   0  0  2  0  0  0  0  0  0  0  0  0
  129.8530  126.2840   67.7820 N   0  0  0  0  0  0  0  0  0  0  0  0
  129.3980  126.9630   68.7560 C   0  0  0  0  0  0  0  0  0  0  0  0
  129.1640  126.5490   70.0300 N   0  0  0  0  0  0  0  0  0  0  0  0
  129.2240  125.2910   70.5310 C   0  0  0  0  0  0  0  0  0  0  0  0
  129.5520  124.2840   69.9010 O   0  0  0  0  0  0  0  0  0  0  0  0
  128.8380  125.1490   72.0130 C   0  0  0  0  0  0  0  0  0  0  0  0
  130.0590  125.2500   72.8430 N   0  0  0  0  0  0  0  0  0  0  0  0
  130.3140  126.5050   73.3790 N   0  0  0  0  0  0  0  0  0  0  0  0
  131.3510  126.7250   74.1220 N   0  0  0  0  0  0  0  0  0  0  0  0
  132.2400  125.6840   74.4010 C   0  0  0  0  0  0  0  0  0  0  0  0
  133.3500  125.9550   75.2040 C   0  0  0  0  0  0  0  0  0  0  0  0
  134.2550  124.9350   75.5000 C   0  0  0  0  0  0  0  0  0  0  0  0
  134.0550  123.6490   74.9940 C   0  0  0  0  0  0  0  0  0  0  0  0
  132.9460  123.3760   74.1900 C   0  0  0  0  0  0  0  0  0  0  0  0
  132.0370  124.3980   73.8950 C   0  0  0  0  0  0  0  0  0  0  0  0
  130.8330  124.1250   73.0240 C   0  0  0  0  0  0  0  0  0  0  0  0
  130.5830  123.0230   72.5260 O   0  0  0  0  0  0  0  0  0  0  0  0
  128.9950  128.6740   68.4330 S   0  0  0  0  0  0  0  0  0  0  0  0
  129.0280  128.3180   66.6670 C   0  0  2  0  0  0  0  0  0  0  0  0
  127.5790  128.1650   66.1580 C   0  0  0  0  0  0  0  0  0  0  0  0
  129.9800  124.8470   65.3570 C   0  0  0  0  0  0  0  0  0  0  0  0
  129.8010  124.0430   64.2300 C   0  0  0  0  0  0  0  0  0  0  0  0
  129.2870  124.5960   63.0500 C   0  0  0  0  0  0  0  0  0  0  0  0
  130.0870  120.4390   61.1550 C   0  0  0  0  0  0  0  0  0  0  0  0
  131.2350  119.6670   61.0070 C   0  0  0  0  0  0  0  0  0  0  0  0
  134.1430  119.1581   61.8792 H   0  0  0  0  0  0  0  0  0  0  0  0
  133.4958  118.5112   60.3335 H   0  0  0  0  0  0  0  0  0  0  0  0
  134.4996  120.0009   60.3335 H   0  0  0  0  0  0  0  0  0  0  0  0
  133.5900  122.1255   61.2739 H   0  0  0  0  0  0  0  0  0  0  0  0
  131.5356  123.5103   61.5275 H   0  0  0  0  0  0  0  0  0  0  0  0
  129.0812  125.0227   59.9136 H   0  0  0  0  0  0  0  0  0  0  0  0
  127.4818  124.8659   60.6636 H   0  0  0  0  0  0  0  0  0  0  0  0
  129.6023  126.9248   61.1235 H   0  0  0  0  0  0  0  0  0  0  0  0
  127.8955  127.0513   61.4885 H   0  0  0  0  0  0  0  0  0  0  0  0
  129.0783  127.8611   64.0377 H   0  0  0  0  0  0  0  0  0  0  0  0
  130.9624  127.4438   66.4588 H   0  0  0  0  0  0  0  0  0  0  0  0
  128.8610  127.2610   70.6780 H   0  0  0  0  0  0  0  0  0  0  0  0
  128.1372  125.9505   72.2896 H   0  0  0  0  0  0  0  0  0  0  0  0
  128.3566  124.1739   72.1789 H   0  0  0  0  0  0  0  0  0  0  0  0
  133.5102  126.9681   75.6014 H   0  0  0  0  0  0  0  0  0  0  0  0
  135.1290  125.1447   76.1341 H   0  0  0  0  0  0  0  0  0  0  0  0
  134.7725  122.8491   75.2291 H   0  0  0  0  0  0  0  0  0  0  0  0
  132.7881  122.3632   73.7909 H   0  0  0  0  0  0  0  0  0  0  0  0
  129.4395  129.1043   66.0171 H   0  0  0  0  0  0  0  0  0  0  0  0
  126.8946  128.0927   67.0161 H   0  0  0  0  0  0  0  0  0  0  0  0
  127.3105  129.0398   65.5475 H   0  0  0  0  0  0  0  0  0  0  0  0
  127.4991  127.2534   65.5475 H   0  0  0  0  0  0  0  0  0  0  0  0
  130.3441  124.3976   66.2927 H   0  0  0  0  0  0  0  0  0  0  0  0
  130.0635  122.9755   64.2685 H   0  0  0  0  0  0  0  0  0  0  0  0
  129.0966  119.9629   61.1045 H   0  0  0  0  0  0  0  0  0  0  0  0
  131.1515  118.5818   60.8475 H   0  0  0  0  0  0  0  0  0  0  0  0
  1  2  1  0
  2  3  2  0
  3  4  1  0
  4  5  2  0
  5  6  1  0
  6  7  2  0
  6  8  1  0
  8  9  1  0
  9 10  1  0
 10 11  1  0
 11 12  2  0
 12 13  1  0
 13 14  1  0
 14 15  1  0
 15 16  2  0
 16 17  1  0
 17 18  1  0
 18 19  2  0
 18 20  1  0
 20 21  1  0
 21 22  1  0
 22 23  2  0
 23 24  1  0
 24 25  2  0
 25 26  1  0
 26 27  2  0
 27 28  1  0
 28 29  2  0
 29 30  1  0
 30 31  2  0
 16 32  1  0
 32 33  1  0
 33 34  1  0
 13 35  2  0
 35 36  1  0
 36 37  2  0
  5 38  1  0
 38 39  2  0
 39  2  1  0
 37  8  1  0
 37 11  1  0
 33 14  1  0
 30 21  1  0
 29 24  1  0
  1 40  1  0
  1 41  1  0
  1 42  1  0
  3 43  1  0
  4 44  1  0
  9 45  1  0
  9 46  1  0
 10 47  1  0
 10 48  1  0
 12 49  1  0
 14 50  1  6
 17 51  1  0
 20 52  1  0
 20 53  1  0
 25 54  1  0
 26 55  1  0
 27 56  1  0
 28 57  1  0
 33 58  1  6
 34 59  1  0
 34 60  1  0
 34 61  1  0
 35 62  1  0
 36 63  1  0
 38 64  1  0
 39 65  1  0
M  END
>  <Binding energies>  (1) 
[-10.74]

>  <Ligand effiencies>  (1) 
[-0.2685]

>  <Interactions>  (1) 
["H-B:HIS:456:NE2:9041, V-A:HIS:456:CD2:4068, V-B:GLU:543:CD:9880, H-B:LYS:547:NZ:9923, H-A:LYS:547:NZ:4951, V-B:GLU:543:CB:9878, V-A:HIS:456:CE1:4069, H-A:HIS:456:NE2:4070, V-B:GLU:543:CG:9879, V-A:GLU:543:CG:4907, V-A:GLU:543:CD:4908, V-B:ALA:541:CB:9864, V-A:LEU:475:CD1:4258, V-A:GLU:543:CB:4906, V-A:ILE:369:CG2:3237, H-B:ALA:541:N:9863, V-A:ILE:369:CD1:3239, V-B:TYR:539:CD2:9846, V-A:TRP:381:CZ2:3370, V-A:TRP:381:CH2:3372, V-A:HIS:456:CG:4066, V-A:HIS:456:CB:4065, V-A:SER:385:CA:3407, V-A:SER:385:C:3405, V-A:VAL:458:CG2:4087, V-A:HIS:456:C:4061, V-B:LYS:547:CE:9922, V-A:ASP:473:CG:4240, V-A:LYS:547:CD:4949, V-A:ASP:473:CB:4239"]

$$$$
RR24_Rahimova_2017
     RDKit          3D

 65 71  0  0  0  0  0  0  0  0999 V2000
  122.5430  130.7710   62.2260 C   0  0  0  0  0  0  0  0  0  0  0  0
  124.0070  130.6700   62.6760 C   0  0  2  0  0  0  0  0  0  0  0  0
  124.1630  130.3250   64.1870 C   0  0  0  0  0  0  0  0  0  0  0  0
  123.3100  129.6770   64.8020 O   0  0  0  0  0  0  0  0  0  0  0  0
  125.3080  130.8380   64.7250 O   0  0  0  0  0  0  0  0  0  0  0  0
  126.3150  129.9860   65.1180 C   0  0  0  0  0  0  0  0  0  0  0  0
  126.0180  128.9230   65.9730 C   0  0  0  0  0  0  0  0  0  0  0  0
  127.0260  128.0490   66.3690 C   0  0  0  0  0  0  0  0  0  0  0  0
  128.3330  128.2290   65.9060 C   0  0  0  0  0  0  0  0  0  0  0  0
  129.4430  127.2740   66.3620 C   0  0  1  0  0  0  0  0  0  0  0  0
  129.3850  127.0050   67.8840 C   0  0  0  0  0  0  0  0  0  0  0  0
  129.3920  125.7640   68.4040 C   0  0  0  0  0  0  0  0  0  0  0  0
  129.4510  124.6400   67.6170 N   0  0  0  0  0  0  0  0  0  0  0  0
  129.5040  124.7300   66.2460 C   0  0  0  0  0  0  0  0  0  0  0  0
  129.5670  123.5290   65.6160 N   0  0  0  0  0  0  0  0  0  0  0  0
  129.5470  123.4160   64.2600 C   0  0  0  0  0  0  0  0  0  0  0  0
  129.2870  122.3250   63.7500 O   0  0  0  0  0  0  0  0  0  0  0  0
  129.6660  124.6240   63.5910 N   0  0  0  0  0  0  0  0  0  0  0  0
  129.7410  124.5510   62.1170 C   0  0  0  0  0  0  0  0  0  0  0  0
  129.6110  125.8980   64.1300 C   0  0  0  0  0  0  0  0  0  0  0  0
  129.6730  126.9360   63.4640 O   0  0  0  0  0  0  0  0  0  0  0  0
  129.4960  125.9210   65.5920 C   0  0  0  0  0  0  0  0  0  0  0  0
  129.3290  125.8110   69.8550 C   0  0  0  0  0  0  0  0  0  0  0  0
  129.3060  124.8210   70.8390 C   0  0  0  0  0  0  0  0  0  0  0  0
  129.2400  125.1980   72.1830 C   0  0  0  0  0  0  0  0  0  0  0  0
  129.1990  126.5510   72.5340 C   0  0  0  0  0  0  0  0  0  0  0  0
  129.2230  127.5370   71.5440 C   0  0  0  0  0  0  0  0  0  0  0  0
  129.2870  127.1550   70.2030 C   0  0  0  0  0  0  0  0  0  0  0  0
  129.3270  127.9730   68.9730 C   0  0  0  0  0  0  0  0  0  0  0  0
  129.3160  129.1960   68.8410 O   0  0  0  0  0  0  0  0  0  0  0  0
  128.6240  129.2830   65.0350 C   0  0  0  0  0  0  0  0  0  0  0  0
  127.6150  130.1560   64.6360 C   0  0  0  0  0  0  0  0  0  0  0  0
  124.7990  131.8740   62.2840 N   0  0  0  0  0  0  0  0  0  0  0  0
  126.1330  131.7940   62.0190 C   0  0  0  0  0  0  0  0  0  0  0  0
  126.8470  130.7900   62.0670 O   0  0  0  0  0  0  0  0  0  0  0  0
  126.5480  133.1730   61.6610 C   0  0  0  0  0  0  0  0  0  0  0  0
  127.7940  133.6880   61.3000 C   0  0  0  0  0  0  0  0  0  0  0  0
  127.8950  135.0520   61.0060 C   0  0  0  0  0  0  0  0  0  0  0  0
  126.7640  135.8750   61.0750 C   0  0  0  0  0  0  0  0  0  0  0  0
  125.5230  135.3400   61.4380 C   0  0  0  0  0  0  0  0  0  0  0  0
  125.4430  133.9770   61.7280 C   0  0  0  0  0  0  0  0  0  0  0  0
  124.2900  133.1340   62.1320 C   0  0  0  0  0  0  0  0  0  0  0  0
  123.1230  133.4940   62.2910 O   0  0  0  0  0  0  0  0  0  0  0  0
  121.8900  130.8161   63.1100 H   0  0  0  0  0  0  0  0  0  0  0  0
  122.4068  131.6807   61.6227 H   0  0  0  0  0  0  0  0  0  0  0  0
  122.2831  129.8886   61.6227 H   0  0  0  0  0  0  0  0  0  0  0  0
  124.4323  129.8144   62.1310 H   0  0  0  0  0  0  0  0  0  0  0  0
  124.9890  128.7765   66.3330 H   0  0  0  0  0  0  0  0  0  0  0  0
  126.7940  127.2149   67.0476 H   0  0  0  0  0  0  0  0  0  0  0  0
  130.3716  127.8101   66.1164 H   0  0  0  0  0  0  0  0  0  0  0  0
  129.4580  123.7270   68.0500 H   0  0  0  0  0  0  0  0  0  0  0  0
  129.6050  122.6690   66.1430 H   0  0  0  0  0  0  0  0  0  0  0  0
  130.5009  123.8113   61.8247 H   0  0  0  0  0  0  0  0  0  0  0  0
  128.7625  124.2500   61.7145 H   0  0  0  0  0  0  0  0  0  0  0  0
  130.0154  125.5373   61.7145 H   0  0  0  0  0  0  0  0  0  0  0  0
  129.3394  123.7575   70.5599 H   0  0  0  0  0  0  0  0  0  0  0  0
  129.2202  124.4275   72.9678 H   0  0  0  0  0  0  0  0  0  0  0  0
  129.1476  126.8404   73.5940 H   0  0  0  0  0  0  0  0  0  0  0  0
  129.1918  128.6018   71.8183 H   0  0  0  0  0  0  0  0  0  0  0  0
  129.6503  129.4228   64.6647 H   0  0  0  0  0  0  0  0  0  0  0  0
  127.8415  130.9787   63.9419 H   0  0  0  0  0  0  0  0  0  0  0  0
  128.6778  133.0352   61.2478 H   0  0  0  0  0  0  0  0  0  0  0  0
  128.8670  135.4799   60.7194 H   0  0  0  0  0  0  0  0  0  0  0  0
  126.8516  136.9466   60.8428 H   0  0  0  0  0  0  0  0  0  0  0  0
  124.6299  135.9797   61.4936 H   0  0  0  0  0  0  0  0  0  0  0  0
  1  2  1  0
  2  3  1  0
  3  4  2  0
  3  5  1  0
  5  6  1  0
  6  7  2  0
  7  8  1  0
  8  9  2  0
  9 10  1  0
 10 11  1  0
 11 12  2  0
 12 13  1  0
 13 14  1  0
 14 15  1  0
 15 16  1  0
 16 17  2  0
 16 18  1  0
 18 19  1  0
 18 20  1  0
 20 21  2  0
 20 22  1  0
 12 23  1  0
 23 24  2  0
 24 25  1  0
 25 26  2  0
 26 27  1  0
 27 28  2  0
 28 29  1  0
 29 30  2  0
  9 31  1  0
 31 32  2  0
  2 33  1  0
 33 34  1  0
 34 35  2  0
 34 36  1  0
 36 37  2  0
 37 38  1  0
 38 39  2  0
 39 40  1  0
 40 41  2  0
 41 42  1  0
 42 43  2  0
 32  6  1  0
 42 33  1  0
 22 10  1  0
 28 23  1  0
 41 36  1  0
 29 11  1  0
 22 14  2  0
  1 44  1  0
  1 45  1  0
  1 46  1  0
  2 47  1  6
  7 48  1  0
  8 49  1  0
 10 50  1  1
 13 51  1  0
 15 52  1  0
 19 53  1  0
 19 54  1  0
 19 55  1  0
 24 56  1  0
 25 57  1  0
 26 58  1  0
 27 59  1  0
 31 60  1  0
 32 61  1  0
 37 62  1  0
 38 63  1  0
 39 64  1  0
 40 65  1  0
M  END
>  <Binding energies>  (1) 
[-10.56]

>  <Ligand effiencies>  (1) 
[-0.2346666666666667]

>  <Interactions>  (1) 
["H-B:HIS:456:NE2:9041, V-A:HIS:456:CD2:4068, V-B:GLU:543:CD:9880, V-B:GLU:543:C:9874, V-B:GLU:543:CB:9878, V-A:HIS:456:CE1:4069, V-B:ARG:545:CZ:9898, V-B:HIS:456:CE1:9040, V-B:GLU:543:CG:9879, V-A:GLU:543:CG:4907, V-A:GLU:543:CD:4908, V-B:TRP:381:CH2:8343, H-B:GLY:454:N:9021, V-A:TYR:539:C:4867, V-B:GLY:454:CA:9020, V-B:ASP:366:CG:8184, V-B:PRO:482:CG:9298, V-B:LEU:475:CD1:9229, V-B:PRO:482:CB:9297, V-B:ILE:369:CD1:8210, H-B:ARG:545:NH1:9899, V-A:ALA:541:CB:4892, H-B:TYR:484:OH:9319, H-B:ARG:545:NH2:9900, V-A:TYR:539:CD2:4874, V-A:PRO:540:C:4881, V-B:GLY:453:CA:9015, V-B:GLY:453:C:9013, V-B:ALA:541:CB:9864, V-B:GLU:543:CA:9876, H-B:ARG:545:NE:9896, V-A:TYR:484:CZ:4347, V-A:GLU:543:CB:4906, V-A:TYR:484:CE1:4345, H-A:TYR:484:OH:4348, V-B:TRP:381:CZ2:8341, V-B:TRP:381:CZ3:8342, H-B:GLU:543:O:9875"]

$$$$
RR24_Rahimova_2017-again1
     RDKit          3D

 63 69  0  0  0  0  0  0  0  0999 V2000
  129.3100  126.2810   64.3790 C   0  0  0  0  0  0  0  0  0  0  0  0
  129.3050  127.3900   65.4400 C   0  0  2  0  0  0  0  0  0  0  0  0
  129.8330  126.9190   66.8270 C   0  0  0  0  0  0  0  0  0  0  0  0
  130.4910  125.8800   66.9590 O   0  0  0  0  0  0  0  0  0  0  0  0
  129.4670  127.7560   67.8420 O   0  0  0  0  0  0  0  0  0  0  0  0
  129.3400  127.2620   69.1190 C   0  0  0  0  0  0  0  0  0  0  0  0
  129.4970  128.1200   70.2090 C   0  0  0  0  0  0  0  0  0  0  0  0
  129.3500  127.6320   71.5040 C   0  0  0  0  0  0  0  0  0  0  0  0
  129.0370  126.2860   71.7170 C   0  0  0  0  0  0  0  0  0  0  0  0
  128.8740  125.7430   73.1430 C   0  0  1  0  0  0  0  0  0  0  0  0
  130.2130  125.2000   73.6950 C   0  0  0  0  0  0  0  0  0  0  0  0
  131.0050  124.1740   73.3110 C   0  0  0  0  0  0  0  0  0  0  0  0
  130.7450  123.3620   72.3440 O   0  0  0  0  0  0  0  0  0  0  0  0
  132.2150  124.1330   74.1320 C   0  0  0  0  0  0  0  0  0  0  0  0
  133.3320  123.2880   74.1270 C   0  0  0  0  0  0  0  0  0  0  0  0
  134.3600  123.5000   75.0470 C   0  0  0  0  0  0  0  0  0  0  0  0
  134.2730  124.5470   75.9660 C   0  0  0  0  0  0  0  0  0  0  0  0
  133.1570  125.3860   75.9690 C   0  0  0  0  0  0  0  0  0  0  0  0
  132.1300  125.1750   75.0450 C   0  0  0  0  0  0  0  0  0  0  0  0
  130.8660  125.8530   74.8180 C   0  0  0  0  0  0  0  0  0  0  0  0
  130.3380  126.8380   75.4420 N   0  0  0  0  0  0  0  0  0  0  0  0
  129.0740  127.2670   75.1610 C   0  0  0  0  0  0  0  0  0  0  0  0
  128.6250  128.2140   76.0350 N   0  0  0  0  0  0  0  0  0  0  0  0
  127.4530  128.7160   75.8720 C   0  0  0  0  0  0  0  0  0  0  0  0
  127.1520  129.5720   76.7210 O   0  0  0  0  0  0  0  0  0  0  0  0
  126.6100  128.3220   74.8340 N   0  0  0  0  0  0  0  0  0  0  0  0
  125.2550  128.8830   74.6190 C   0  0  0  0  0  0  0  0  0  0  0  0
  126.9730  127.3580   73.9140 C   0  0  0  0  0  0  0  0  0  0  0  0
  126.2490  126.9630   72.9940 O   0  0  0  0  0  0  0  0  0  0  0  0
  128.3190  126.8110   74.1140 C   0  0  0  0  0  0  0  0  0  0  0  0
  128.8690  125.4310   70.6220 C   0  0  0  0  0  0  0  0  0  0  0  0
  129.0130  125.9190   69.3270 C   0  0  0  0  0  0  0  0  0  0  0  0
  127.9770  128.0640   65.5390 N   0  0  0  0  0  0  0  0  0  0  0  0
  127.5940  129.0190   64.6460 C   0  0  0  0  0  0  0  0  0  0  0  0
  128.2380  129.4500   63.6880 O   0  0  0  0  0  0  0  0  0  0  0  0
  126.2340  129.4350   65.0720 C   0  0  0  0  0  0  0  0  0  0  0  0
  125.3580  130.3810   64.5370 C   0  0  0  0  0  0  0  0  0  0  0  0
  124.1170  130.5690   65.1560 C   0  0  0  0  0  0  0  0  0  0  0  0
  123.7700  129.8190   66.2870 C   0  0  0  0  0  0  0  0  0  0  0  0
  124.6620  128.8750   66.8080 C   0  0  0  0  0  0  0  0  0  0  0  0
  125.8960  128.7040   66.1770 C   0  0  0  0  0  0  0  0  0  0  0  0
  127.0290  127.7960   66.4880 C   0  0  0  0  0  0  0  0  0  0  0  0
  127.0980  126.9760   67.4040 O   0  0  0  0  0  0  0  0  0  0  0  0
  129.3144  125.2991   64.8749 H   0  0  0  0  0  0  0  0  0  0  0  0
  128.4114  126.3705   63.7508 H   0  0  0  0  0  0  0  0  0  0  0  0
  130.2077  126.3786   63.7508 H   0  0  0  0  0  0  0  0  0  0  0  0
  130.0251  128.1444   65.0903 H   0  0  0  0  0  0  0  0  0  0  0  0
  129.7367  129.1809   70.0444 H   0  0  0  0  0  0  0  0  0  0  0  0
  129.4804  128.3072   72.3626 H   0  0  0  0  0  0  0  0  0  0  0  0
  128.1467  124.9204   73.0771 H   0  0  0  0  0  0  0  0  0  0  0  0
  133.3986  122.4627   73.4028 H   0  0  0  0  0  0  0  0  0  0  0  0
  135.2405  122.8407   75.0478 H   0  0  0  0  0  0  0  0  0  0  0  0
  135.0853  124.7114   76.6893 H   0  0  0  0  0  0  0  0  0  0  0  0
  133.0865  126.2092   76.6952 H   0  0  0  0  0  0  0  0  0  0  0  0
  124.7808  129.0793   75.5919 H   0  0  0  0  0  0  0  0  0  0  0  0
  125.3329  129.8228   74.0528 H   0  0  0  0  0  0  0  0  0  0  0  0
  124.6457  128.1632   74.0528 H   0  0  0  0  0  0  0  0  0  0  0  0
  128.6227  124.3714   70.7853 H   0  0  0  0  0  0  0  0  0  0  0  0
  128.8696  125.2481   68.4671 H   0  0  0  0  0  0  0  0  0  0  0  0
  125.6370  130.9660   63.6482 H   0  0  0  0  0  0  0  0  0  0  0  0
  123.4106  131.3094   64.7524 H   0  0  0  0  0  0  0  0  0  0  0  0
  122.7925  129.9727   66.7675 H   0  0  0  0  0  0  0  0  0  0  0  0
  124.3970  128.2808   67.6950 H   0  0  0  0  0  0  0  0  0  0  0  0
  1  2  1  0
  2  3  1  0
  3  4  2  0
  3  5  1  0
  5  6  1  0
  6  7  2  0
  7  8  1  0
  8  9  2  0
  9 10  1  0
 10 11  1  0
 11 12  2  0
 12 13  1  0
 12 14  1  0
 14 15  2  0
 15 16  1  0
 16 17  2  0
 17 18  1  0
 18 19  2  0
 19 20  1  0
 20 21  2  0
 21 22  1  0
 22 23  1  0
 23 24  2  0
 24 25  1  0
 24 26  1  0
 26 27  1  0
 26 28  1  0
 28 29  2  0
 28 30  1  0
  9 31  1  0
 31 32  2  0
  2 33  1  0
 33 34  1  0
 34 35  2  0
 34 36  1  0
 36 37  2  0
 37 38  1  0
 38 39  2  0
 39 40  1  0
 40 41  2  0
 41 42  1  0
 42 43  2  0
 32  6  1  0
 42 33  1  0
 30 10  1  0
 41 36  1  0
 20 11  1  0
 30 22  2  0
 19 14  1  0
  1 44  1  0
  1 45  1  0
  1 46  1  0
  2 47  1  6
  7 48  1  0
  8 49  1  0
 10 50  1  6
 15 51  1  0
 16 52  1  0
 17 53  1  0
 18 54  1  0
 27 55  1  0
 27 56  1  0
 27 57  1  0
 31 58  1  0
 32 59  1  0
 37 60  1  0
 38 61  1  0
 39 62  1  0
 40 63  1  0
M  CHG  2  13  -1  25  -1
M  END
>  <Binding energies>  (1) 
[-9.66]

>  <Ligand effiencies>  (1) 
[-0.2246511627906977]

>  <Interactions>  (1) 
["V-B:ARG:545:CG:9894, V-A:HIS:456:CD2:4068, V-B:GLU:543:CD:9880, H-B:LYS:547:NZ:9923, H-A:LYS:547:NZ:4951, V-B:HIS:456:CD2:9039, V-A:HIS:456:CE1:4069, V-B:ARG:545:CZ:9898, H-A:HIS:456:NE2:4070, V-B:ARG:545:CD:9895, V-B:HIS:456:CE1:9040, V-A:GLU:543:CD:4908, V-B:GLY:454:CA:9020, H-A:TYR:484:OH:4348, V-A:HIS:456:CG:4066, V-A:HIS:456:CB:4065, V-B:HIS:456:CB:9036, V-B:HIS:456:C:9032, V-B:HIS:456:CG:9037, V-B:HIS:456:CA:9034, V-A:VAL:458:CG2:4087, V-A:HIS:456:C:4061, V-B:LYS:547:CE:9922, V-B:LYS:471:CE:9191, V-A:LYS:471:CD:4219, V-A:ASP:473:CG:4240, V-A:HIS:456:CA:4063, V-A:ASP:473:CB:4239, H-B:LYS:471:NZ:9192"]

$$$$
RR25_Rahimova_2017
     RDKit          3D

 63 68  0  0  0  0  0  0  0  0999 V2000
  123.4300  130.3160   66.3620 O   0  0  0  0  0  0  0  0  0  0  0  0
  124.1170  130.1130   65.3600 C   0  0  0  0  0  0  0  0  0  0  0  0
  123.5120  130.3530   64.1510 O   0  0  0  0  0  0  0  0  0  0  0  0
  124.2410  130.4040   62.9760 C   0  0  0  0  0  0  0  0  0  0  0  0
  123.7060  131.1660   61.9390 C   0  0  0  0  0  0  0  0  0  0  0  0
  124.3830  131.2540   60.7250 C   0  0  0  0  0  0  0  0  0  0  0  0
  125.5990  130.5810   60.5290 C   0  0  0  0  0  0  0  0  0  0  0  0
  126.3220  130.6830   59.2370 N   0  0  0  0  0  0  0  0  0  0  0  0
  125.9970  129.9330   58.3210 O   0  0  0  0  0  0  0  0  0  0  0  0
  127.2200  131.5140   59.1310 O   0  0  0  0  0  0  0  0  0  0  0  0
  126.1140  129.8090   61.5830 C   0  0  0  0  0  0  0  0  0  0  0  0
  125.4430  129.7040   62.8040 C   0  0  0  0  0  0  0  0  0  0  0  0
  125.9640  128.8920   63.9760 C   0  0  0  0  0  0  0  0  0  0  0  0
  125.5840  129.5940   65.3100 C   0  0  2  0  0  0  0  0  0  0  0  0
  126.0160  128.7390   66.5370 C   0  0  0  0  0  0  0  0  0  0  0  0
  125.1590  128.5730   67.4100 O   0  0  0  0  0  0  0  0  0  0  0  0
  127.2240  128.1030   66.5910 N   0  0  0  0  0  0  0  0  0  0  0  0
  128.3780  128.5020   65.7570 C   0  0  0  0  0  0  0  0  0  0  0  0
  129.1540  127.2370   65.3340 C   0  0  0  0  0  0  0  0  0  0  0  0
  129.5430  126.4350   66.4970 N   0  0  0  0  0  0  0  0  0  0  0  0
  130.3950  125.3020   66.1090 C   0  0  0  0  0  0  0  0  0  0  0  0
  131.1810  125.5620   64.7960 C   0  0  0  0  0  0  0  0  0  0  0  0
  131.2610  124.4170   63.8420 N   0  0  0  0  0  0  0  0  0  0  0  0
  132.5220  123.8920   63.6570 C   0  0  0  0  0  0  0  0  0  0  0  0
  133.5320  124.3480   64.2060 O   0  0  0  0  0  0  0  0  0  0  0  0
  132.5760  122.6880   62.7360 C   0  0  0  0  0  0  0  0  0  0  0  0
  133.8050  122.0590   62.4980 C   0  0  0  0  0  0  0  0  0  0  0  0
  133.8890  120.9460   61.6630 C   0  0  0  0  0  0  0  0  0  0  0  0
  132.7540  120.4250   61.0450 C   0  0  0  0  0  0  0  0  0  0  0  0
  131.4910  121.0280   61.2560 C   0  0  0  0  0  0  0  0  0  0  0  0
  130.2980  120.5510   60.6620 C   0  0  0  0  0  0  0  0  0  0  0  0
  129.0860  121.1910   60.9140 C   0  0  0  0  0  0  0  0  0  0  0  0
  129.0250  122.3040   61.7500 C   0  0  0  0  0  0  0  0  0  0  0  0
  130.1790  122.8120   62.3600 C   0  0  0  0  0  0  0  0  0  0  0  0
  131.4160  122.1650   62.1080 C   0  0  0  0  0  0  0  0  0  0  0  0
  130.0690  124.0200   63.2700 C   0  0  0  0  0  0  0  0  0  0  0  0
  128.9910  124.5830   63.4850 O   0  0  0  0  0  0  0  0  0  0  0  0
  128.3490  125.9910   67.2180 C   0  0  0  0  0  0  0  0  0  0  0  0
  127.5070  127.1880   67.7210 C   0  0  0  0  0  0  0  0  0  0  0  0
  122.7524  131.6961   62.0788 H   0  0  0  0  0  0  0  0  0  0  0  0
  123.9593  131.8586   59.9095 H   0  0  0  0  0  0  0  0  0  0  0  0
  127.0660  129.2756   61.4443 H   0  0  0  0  0  0  0  0  0  0  0  0
  125.5176  127.8869   63.9517 H   0  0  0  0  0  0  0  0  0  0  0  0
  127.0588  128.8118   63.9056 H   0  0  0  0  0  0  0  0  0  0  0  0
  126.1695  130.5238   65.3626 H   0  0  0  0  0  0  0  0  0  0  0  0
  128.0203  129.0317   64.8618 H   0  0  0  0  0  0  0  0  0  0  0  0
  129.0385  129.1683   66.3312 H   0  0  0  0  0  0  0  0  0  0  0  0
  128.5155  126.6284   64.6769 H   0  0  0  0  0  0  0  0  0  0  0  0
  130.0679  127.5509   64.8084 H   0  0  0  0  0  0  0  0  0  0  0  0
  131.1155  125.1110   66.9179 H   0  0  0  0  0  0  0  0  0  0  0  0
  129.7374  124.4375   65.9355 H   0  0  0  0  0  0  0  0  0  0  0  0
  130.6967  126.4008   64.2747 H   0  0  0  0  0  0  0  0  0  0  0  0
  132.2173  125.7617   65.1061 H   0  0  0  0  0  0  0  0  0  0  0  0
  134.7157  122.4486   62.9764 H   0  0  0  0  0  0  0  0  0  0  0  0
  134.8662  120.4718   61.4893 H   0  0  0  0  0  0  0  0  0  0  0  0
  132.8397  119.5438   60.3922 H   0  0  0  0  0  0  0  0  0  0  0  0
  130.3276  119.6731   59.9999 H   0  0  0  0  0  0  0  0  0  0  0  0
  128.1650  120.8124   60.4466 H   0  0  0  0  0  0  0  0  0  0  0  0
  128.0560  122.7911   61.9337 H   0  0  0  0  0  0  0  0  0  0  0  0
  127.7319  125.3793   66.5434 H   0  0  0  0  0  0  0  0  0  0  0  0
  128.6731  125.4077   68.0925 H   0  0  0  0  0  0  0  0  0  0  0  0
  126.5592  126.8191   68.1401 H   0  0  0  0  0  0  0  0  0  0  0  0
  128.0665  127.7284   68.4987 H   0  0  0  0  0  0  0  0  0  0  0  0
  1  2  2  0
  2  3  1  0
  3  4  1  0
  4  5  2  0
  5  6  1  0
  6  7  2  0
  7  8  1  0
  8  9  2  0
  8 10  1  0
  7 11  1  0
 11 12  2  0
 12 13  1  0
 13 14  1  0
 14 15  1  0
 15 16  2  0
 15 17  1  0
 17 18  1  0
 18 19  1  0
 19 20  1  0
 20 21  1  0
 21 22  1  0
 22 23  1  0
 23 24  1  0
 24 25  2  0
 24 26  1  0
 26 27  2  0
 27 28  1  0
 28 29  2  0
 29 30  1  0
 30 31  2  0
 31 32  1  0
 32 33  2  0
 33 34  1  0
 34 35  2  0
 34 36  1  0
 36 37  2  0
 20 38  1  0
 38 39  1  0
 14  2  1  0
 39 17  1  0
 12  4  1  0
 36 23  1  0
 35 26  1  0
 35 30  1  0
  5 40  1  0
  6 41  1  0
 11 42  1  0
 13 43  1  0
 13 44  1  0
 14 45  1  1
 18 46  1  0
 18 47  1  0
 19 48  1  0
 19 49  1  0
 21 50  1  0
 21 51  1  0
 22 52  1  0
 22 53  1  0
 27 54  1  0
 28 55  1  0
 29 56  1  0
 31 57  1  0
 32 58  1  0
 33 59  1  0
 38 60  1  0
 38 61  1  0
 39 62  1  0
 39 63  1  0
M  CHG  2   8   1  10  -1
M  END
>  <Binding energies>  (1) 
[-11.21]

>  <Ligand effiencies>  (1) 
[-0.2874358974358975]

>  <Interactions>  (1) 
["V-B:ARG:545:CG:9894, V-B:GLU:543:CD:9880, V-B:GLU:543:C:9874, V-B:GLU:543:CB:9878, V-A:HIS:456:CE1:4069, V-B:ARG:545:CZ:9898, V-B:ARG:545:CD:9895, V-B:HIS:456:CE1:9040, V-B:GLU:543:CG:9879, V-A:GLU:543:CD:4908, H-B:GLY:454:N:9021, V-B:GLY:454:CA:9020, V-B:ILE:369:CD1:8210, H-B:ARG:545:NH1:9899, H-B:ILE:455:N:9026, H-B:TYR:484:OH:9319, H-B:ARG:545:NH2:9900, V-B:ALA:541:CB:9864, V-B:GLU:543:CA:9876, H-B:ARG:545:NE:9896, V-A:LEU:475:CD1:4258, V-A:GLU:543:CB:4906, H-A:GLY:454:N:4050, V-A:GLY:454:CA:4049, V-B:TYR:539:CE2:9848, V-A:ILE:369:CG2:3237, V-A:ILE:369:CD1:3239, H-A:TYR:539:OH:4878, V-B:TYR:539:CD2:9846, V-B:ALA:541:CA:9862"]

$$$$
RR26_Rahimova_2017
     RDKit          3D

 59 65  0  0  0  0  0  0  0  0999 V2000
  124.2300  132.3630   61.9290 C   0  0  0  0  0  0  0  0  0  0  0  0
  125.3410  133.3900   61.7530 C   0  0  0  0  0  0  0  0  0  0  0  0
  125.0280  134.6030   61.1300 C   0  0  0  0  0  0  0  0  0  0  0  0
  125.9950  135.5950   60.9780 C   0  0  0  0  0  0  0  0  0  0  0  0
  127.2850  135.3850   61.4570 C   0  0  0  0  0  0  0  0  0  0  0  0
  127.6080  134.1820   62.0800 C   0  0  0  0  0  0  0  0  0  0  0  0
  126.6500  133.1670   62.2330 C   0  0  0  0  0  0  0  0  0  0  0  0
  127.0860  131.8960   62.9020 C   0  0  0  0  0  0  0  0  0  0  0  0
  127.3600  131.8340   64.2020 N   0  0  0  0  0  0  0  0  0  0  0  0
  127.6750  130.5760   64.3520 C   0  0  0  0  0  0  0  0  0  0  0  0
  128.1730  129.5730   65.6650 S   0  0  0  0  0  0  0  0  0  0  0  0
  128.2500  128.1700   64.5340 C   0  0  0  0  0  0  0  0  0  0  0  0
  128.6010  126.8960   64.8180 C   0  0  0  0  0  0  0  0  0  0  0  0
  128.9950  126.3400   66.1020 C   0  0  0  0  0  0  0  0  0  0  0  0
  128.5470  126.6980   67.3650 C   0  0  0  0  0  0  0  0  0  0  0  0
  129.1610  125.8790   68.2780 N   0  0  0  0  0  0  0  0  0  0  0  0
  129.0090  125.8680   69.6890 C   0  0  0  0  0  0  0  0  0  0  0  0
  129.5990  124.8620   70.4670 C   0  0  0  0  0  0  0  0  0  0  0  0
  129.4400  124.8620   71.8500 C   0  0  0  0  0  0  0  0  0  0  0  0
  128.6940  125.8670   72.4600 C   0  0  0  0  0  0  0  0  0  0  0  0
  128.1050  126.8750   71.6980 C   0  0  0  0  0  0  0  0  0  0  0  0
  128.2600  126.8760   70.3150 C   0  0  0  0  0  0  0  0  0  0  0  0
  129.9560  124.9980   67.6520 N   0  0  0  0  0  0  0  0  0  0  0  0
  129.8720  125.2630   66.3640 C   0  0  0  0  0  0  0  0  0  0  0  0
  130.6610  124.4520   65.3820 C   0  0  0  0  0  0  0  0  0  0  0  0
  130.1510  123.2400   64.8910 C   0  0  0  0  0  0  0  0  0  0  0  0
  130.8800  122.4750   63.9790 C   0  0  0  0  0  0  0  0  0  0  0  0
  132.1300  122.9170   63.5510 C   0  0  0  0  0  0  0  0  0  0  0  0
  132.6420  124.1360   64.0200 C   0  0  0  0  0  0  0  0  0  0  0  0
  131.9150  124.8950   64.9360 C   0  0  0  0  0  0  0  0  0  0  0  0
  133.8940  124.5920   63.6580 O   0  0  0  0  0  0  0  0  0  0  0  0
  134.4170  123.9850   62.4720 C   0  0  0  0  0  0  0  0  0  0  0  0
  134.1910  122.4540   62.5000 C   0  0  0  0  0  0  0  0  0  0  0  0
  132.7950  122.1540   62.6120 O   0  0  0  0  0  0  0  0  0  0  0  0
  127.8890  128.5380   63.1680 C   0  0  0  0  0  0  0  0  0  0  0  0
  127.8430  127.8320   62.1590 O   0  0  0  0  0  0  0  0  0  0  0  0
  127.5850  129.9080   63.1880 N   0  0  0  0  0  0  0  0  0  0  0  0
  127.1960  130.7580   62.2330 N   0  0  0  0  0  0  0  0  0  0  0  0
  124.0506  132.1971   63.0015 H   0  0  0  0  0  0  0  0  0  0  0  0
  123.3089  132.7346   61.4563 H   0  0  0  0  0  0  0  0  0  0  0  0
  124.5282  131.4156   61.4563 H   0  0  0  0  0  0  0  0  0  0  0  0
  124.0079  134.7755   60.7562 H   0  0  0  0  0  0  0  0  0  0  0  0
  125.7393  136.5421   60.4804 H   0  0  0  0  0  0  0  0  0  0  0  0
  128.0487  136.1686   61.3436 H   0  0  0  0  0  0  0  0  0  0  0  0
  128.6290  134.0247   62.4579 H   0  0  0  0  0  0  0  0  0  0  0  0
  128.5867  126.1925   63.9725 H   0  0  0  0  0  0  0  0  0  0  0  0
  127.8268  127.4973   67.5939 H   0  0  0  0  0  0  0  0  0  0  0  0
  130.1895  124.0701   69.9831 H   0  0  0  0  0  0  0  0  0  0  0  0
  129.9021  124.0708   72.4587 H   0  0  0  0  0  0  0  0  0  0  0  0
  128.5683  125.8656   73.5528 H   0  0  0  0  0  0  0  0  0  0  0  0
  127.5197  127.6669   72.1883 H   0  0  0  0  0  0  0  0  0  0  0  0
  127.7943  127.6688   69.7112 H   0  0  0  0  0  0  0  0  0  0  0  0
  129.1649  122.8888   65.2290 H   0  0  0  0  0  0  0  0  0  0  0  0
  130.4694  121.5275   63.6000 H   0  0  0  0  0  0  0  0  0  0  0  0
  132.3260  125.8442   65.3102 H   0  0  0  0  0  0  0  0  0  0  0  0
  133.9086  124.4097   61.5939 H   0  0  0  0  0  0  0  0  0  0  0  0
  135.4976  124.1836   62.4183 H   0  0  0  0  0  0  0  0  0  0  0  0
  134.5823  122.0135   61.5711 H   0  0  0  0  0  0  0  0  0  0  0  0
  134.7158  122.0332   63.3704 H   0  0  0  0  0  0  0  0  0  0  0  0
  1  2  1  0
  2  3  2  0
  3  4  1  0
  4  5  2  0
  5  6  1  0
  6  7  2  0
  7  8  1  0
  8  9  1  0
  9 10  2  0
 10 11  1  0
 11 12  1  0
 12 13  2  0
 13 14  1  0
 14 15  2  0
 15 16  1  0
 16 17  1  0
 17 18  2  0
 18 19  1  0
 19 20  2  0
 20 21  1  0
 21 22  2  0
 16 23  1  0
 23 24  2  0
 24 25  1  0
 25 26  2  0
 26 27  1  0
 27 28  2  0
 28 29  1  0
 29 30  2  0
 29 31  1  0
 31 32  1  0
 32 33  1  0
 33 34  1  0
 12 35  1  0
 35 36  2  0
 35 37  1  0
 37 38  1  0
  7  2  1  0
 38  8  2  0
 37 10  1  0
 24 14  1  0
 30 25  1  0
 22 17  1  0
 34 28  1  0
  1 39  1  0
  1 40  1  0
  1 41  1  0
  3 42  1  0
  4 43  1  0
  5 44  1  0
  6 45  1  0
 13 46  1  0
 15 47  1  0
 18 48  1  0
 19 49  1  0
 20 50  1  0
 21 51  1  0
 22 52  1  0
 26 53  1  0
 27 54  1  0
 30 55  1  0
 32 56  1  0
 32 57  1  0
 33 58  1  0
 33 59  1  0
M  END
>  <Binding energies>  (1) 
[-10.14]

>  <Ligand effiencies>  (1) 
[-0.26684210526315794]

>  <Interactions>  (1) 
["V-A:HIS:456:CD2:4068, V-B:GLU:543:CD:9880, V-B:GLU:543:CB:9878, V-A:HIS:456:CE1:4069, H-A:HIS:456:NE2:4070, V-B:HIS:456:CE1:9040, V-B:GLU:543:CG:9879, V-A:GLU:543:CD:4908, V-B:TRP:381:CH2:8343, V-B:PRO:482:CG:9298, V-B:LEU:475:CD1:9229, V-B:PRO:482:CB:9297, V-B:ILE:369:CD1:8210, V-A:TYR:539:CE2:4876, V-A:ALA:541:CB:4892, H-B:TYR:484:OH:9319, V-A:TYR:539:CD2:4874, V-A:TYR:484:CZ:4347, V-A:LEU:475:CD1:4258, V-A:GLU:543:CB:4906, V-A:TYR:484:CE1:4345, H-A:GLY:454:N:4050, V-A:GLY:453:CA:4044, H-A:ARG:545:NH2:4928, H-A:TYR:484:OH:4348, V-A:GLY:453:C:4042, V-A:GLY:454:CA:4049, V-A:ILE:369:CD1:3239, V-B:TRP:381:CZ2:8341, V-B:TRP:381:CZ3:8342"]

$$$$
RR27_Rahimova_2017
     RDKit          3D

 66 71  0  0  0  0  0  0  0  0999 V2000
  128.7040  125.5130   61.0430 O   0  0  0  0  0  0  0  0  0  0  0  0
  129.2420  124.5520   61.6010 C   0  0  0  0  0  0  0  0  0  0  0  0
  128.7260  123.1210   61.2710 C   0  0  0  0  0  0  0  0  0  0  0  0
  129.8610  122.1100   61.0240 C   0  0  0  0  0  0  0  0  0  0  0  0
  129.7480  120.7630   61.4000 C   0  0  0  0  0  0  0  0  0  0  0  0
  130.7920  119.8760   61.1600 C   0  0  0  0  0  0  0  0  0  0  0  0
  131.9550  120.3300   60.5440 C   0  0  0  0  0  0  0  0  0  0  0  0
  132.0830  121.6640   60.1680 C   0  0  0  0  0  0  0  0  0  0  0  0
  131.0380  122.5510   60.4080 C   0  0  0  0  0  0  0  0  0  0  0  0
  127.6310  123.1450   60.1870 C   0  0  0  0  0  0  0  0  0  0  0  0
  127.8940  122.7630   58.8650 C   0  0  0  0  0  0  0  0  0  0  0  0
  126.8830  122.8070   57.9070 C   0  0  0  0  0  0  0  0  0  0  0  0
  125.6100  123.2380   58.2670 C   0  0  0  0  0  0  0  0  0  0  0  0
  125.3370  123.6320   59.5740 C   0  0  0  0  0  0  0  0  0  0  0  0
  126.3470  123.5880   60.5300 C   0  0  0  0  0  0  0  0  0  0  0  0
  130.3580  124.7060   62.3690 N   0  0  0  0  0  0  0  0  0  0  0  0
  130.8850  123.6540   63.2530 C   0  0  0  0  0  0  0  0  0  0  0  0
  130.1610  123.8050   64.6090 C   0  0  0  0  0  0  0  0  0  0  0  0
  130.2980  125.2400   65.2100 C   0  0  0  0  0  0  0  0  0  0  0  0
  129.5010  125.4750   66.5060 C   0  0  0  0  0  0  0  0  0  0  0  0
  130.0300  124.9470   67.6490 N   0  0  0  0  0  0  0  0  0  0  0  0
  129.3780  125.1500   68.8270 C   0  0  0  0  0  0  0  0  0  0  0  0
  129.8110  124.6750   70.0370 O   0  0  0  0  0  0  0  0  0  0  0  0
  128.1830  125.8950   68.8190 C   0  0  0  0  0  0  0  0  0  0  0  0
  127.3060  126.2790   69.7910 N   0  0  0  0  0  0  0  0  0  0  0  0
  126.2990  126.9980   69.1760 N   0  0  0  0  0  0  0  0  0  0  0  0
  126.5560  127.0630   67.8520 N   0  0  0  0  0  0  0  0  0  0  0  0
  125.6340  127.7490   66.9500 C   0  0  0  0  0  0  0  0  0  0  0  0
  126.2950  128.8280   66.1030 C   0  0  0  0  0  0  0  0  0  0  0  0
  127.5920  129.2590   66.3990 C   0  0  0  0  0  0  0  0  0  0  0  0
  128.2020  130.2400   65.6150 C   0  0  0  0  0  0  0  0  0  0  0  0
  127.5200  130.7910   64.5310 C   0  0  0  0  0  0  0  0  0  0  0  0
  126.2290  130.3580   64.2240 C   0  0  0  0  0  0  0  0  0  0  0  0
  125.3940  131.0200   62.8650 Cl  0  0  0  0  0  0  0  0  0  0  0  0
  125.6160  129.3830   65.0120 C   0  0  0  0  0  0  0  0  0  0  0  0
  127.7280  126.3800   67.5730 C   0  0  0  0  0  0  0  0  0  0  0  0
  128.3430  126.1890   66.4030 N   0  0  0  0  0  0  0  0  0  0  0  0
  130.0700  126.3460   64.1340 C   0  0  0  0  0  0  0  0  0  0  0  0
  130.7860  126.0480   62.7920 C   0  0  0  0  0  0  0  0  0  0  0  0
  128.2301  122.7354   62.1740 H   0  0  0  0  0  0  0  0  0  0  0  0
  128.8285  120.4065   61.8873 H   0  0  0  0  0  0  0  0  0  0  0  0
  130.6992  118.8205   61.4556 H   0  0  0  0  0  0  0  0  0  0  0  0
  132.7801  119.6282   60.3527 H   0  0  0  0  0  0  0  0  0  0  0  0
  133.0059  122.0154   59.6834 H   0  0  0  0  0  0  0  0  0  0  0  0
  131.1376  123.6056   60.1117 H   0  0  0  0  0  0  0  0  0  0  0  0
  128.9025  122.4270   58.5821 H   0  0  0  0  0  0  0  0  0  0  0  0
  127.0905  122.5023   56.8706 H   0  0  0  0  0  0  0  0  0  0  0  0
  124.8113  123.2677   57.5113 H   0  0  0  0  0  0  0  0  0  0  0  0
  124.3291  123.9760   59.8492 H   0  0  0  0  0  0  0  0  0  0  0  0
  126.1358  123.9033   61.5625 H   0  0  0  0  0  0  0  0  0  0  0  0
  130.6816  122.6619   62.8237 H   0  0  0  0  0  0  0  0  0  0  0  0
  131.9740  123.7502   63.3746 H   0  0  0  0  0  0  0  0  0  0  0  0
  129.0931  123.5849   64.4640 H   0  0  0  0  0  0  0  0  0  0  0  0
  130.6292  123.1034   65.3151 H   0  0  0  0  0  0  0  0  0  0  0  0
  131.3460  125.3196   65.5346 H   0  0  0  0  0  0  0  0  0  0  0  0
  129.2290  124.0050   70.4030 H   0  0  0  0  0  0  0  0  0  0  0  0
  125.1883  127.0028   66.2758 H   0  0  0  0  0  0  0  0  0  0  0  0
  124.8824  128.2493   67.5783 H   0  0  0  0  0  0  0  0  0  0  0  0
  128.1332  128.8238   67.2521 H   0  0  0  0  0  0  0  0  0  0  0  0
  129.2213  130.5784   65.8527 H   0  0  0  0  0  0  0  0  0  0  0  0
  127.9997  131.5676   63.9172 H   0  0  0  0  0  0  0  0  0  0  0  0
  124.5950  129.0492   64.7748 H   0  0  0  0  0  0  0  0  0  0  0  0
  128.9900  126.4308   63.9429 H   0  0  0  0  0  0  0  0  0  0  0  0
  130.4936  127.2805   64.5305 H   0  0  0  0  0  0  0  0  0  0  0  0
  130.4978  126.7930   62.0358 H   0  0  0  0  0  0  0  0  0  0  0  0
  131.8787  126.0942   62.9097 H   0  0  0  0  0  0  0  0  0  0  0  0
  1  2  2  0
  2  3  1  0
  3  4  1  0
  4  5  2  0
  5  6  1  0
  6  7  2  0
  7  8  1  0
  8  9  2  0
  3 10  1  0
 10 11  2  0
 11 12  1  0
 12 13  2  0
 13 14  1  0
 14 15  2  0
  2 16  1  0
 16 17  1  0
 17 18  1  0
 18 19  1  0
 19 20  1  0
 20 21  2  0
 21 22  1  0
 22 23  1  0
 22 24  2  0
 24 25  1  0
 25 26  2  0
 26 27  1  0
 27 28  1  0
 28 29  1  0
 29 30  2  0
 30 31  1  0
 31 32  2  0
 32 33  1  0
 33 34  1  0
 33 35  2  0
 27 36  1  0
 36 37  2  0
 19 38  1  0
 38 39  1  0
  9  4  1  0
 15 10  1  0
 39 16  1  0
 37 20  1  0
 36 24  1  0
 35 29  1  0
  3 40  1  0
  5 41  1  0
  6 42  1  0
  7 43  1  0
  8 44  1  0
  9 45  1  0
 11 46  1  0
 12 47  1  0
 13 48  1  0
 14 49  1  0
 15 50  1  0
 17 51  1  0
 17 52  1  0
 18 53  1  0
 18 54  1  0
 19 55  1  0
 23 56  1  0
 28 57  1  0
 28 58  1  0
 30 59  1  0
 31 60  1  0
 32 61  1  0
 35 62  1  0
 38 63  1  0
 38 64  1  0
 39 65  1  0
 39 66  1  0
M  END
>  <Binding energies>  (1) 
[-9.64]

>  <Ligand effiencies>  (1) 
[-0.24100000000000002]

>  <Interactions>  (1) 
["V-B:ARG:545:CG:9894, V-B:GLU:543:CD:9880, V-B:GLU:543:C:9874, V-B:GLU:543:CB:9878, V-A:HIS:456:CE1:4069, V-B:ARG:545:CZ:9898, H-A:HIS:456:NE2:4070, V-B:ARG:545:CD:9895, V-B:HIS:456:CE1:9040, V-B:GLU:543:CG:9879, V-A:GLU:543:CG:4907, V-A:GLU:543:CD:4908, V-B:ALA:541:CB:9864, V-A:TYR:484:CZ:4347, V-A:LEU:475:CD1:4258, V-A:GLU:543:CB:4906, V-A:TYR:484:CE1:4345, H-A:TYR:484:OH:4348, V-B:TYR:539:CE2:9848, V-B:PRO:540:CA:9855, V-B:TYR:539:CD2:9846, V-B:PRO:540:CB:9857, V-A:TRP:381:CH2:3372, H-B:ARG:545:N:9892, V-B:PRO:540:N:9856, V-B:TYR:539:C:9839, H-B:GLU:543:O:9875"]

$$$$
RR27_Rahimova_2017-again1
     RDKit          3D

 66 71  0  0  0  0  0  0  0  0999 V2000
  128.6150  126.2780   59.4590 O   0  0  0  0  0  0  0  0  0  0  0  0
  128.7740  125.6640   60.5190 C   0  0  0  0  0  0  0  0  0  0  0  0
  128.0840  124.2760   60.6770 C   0  0  0  0  0  0  0  0  0  0  0  0
  129.0970  123.1160   60.7270 C   0  0  0  0  0  0  0  0  0  0  0  0
  128.7150  121.8070   61.0590 C   0  0  0  0  0  0  0  0  0  0  0  0
  129.6590  120.7850   61.0920 C   0  0  0  0  0  0  0  0  0  0  0  0
  130.9900  121.0650   60.7950 C   0  0  0  0  0  0  0  0  0  0  0  0
  131.3840  122.3570   60.4630 C   0  0  0  0  0  0  0  0  0  0  0  0
  130.4400  123.3790   60.4290 C   0  0  0  0  0  0  0  0  0  0  0  0
  126.9570  124.0700   59.6470 C   0  0  0  0  0  0  0  0  0  0  0  0
  125.6710  124.5880   59.8560 C   0  0  0  0  0  0  0  0  0  0  0  0
  124.6620  124.3710   58.9200 C   0  0  0  0  0  0  0  0  0  0  0  0
  124.9360  123.6380   57.7690 C   0  0  0  0  0  0  0  0  0  0  0  0
  126.2080  123.1170   57.5480 C   0  0  0  0  0  0  0  0  0  0  0  0
  127.2140  123.3270   58.4870 C   0  0  0  0  0  0  0  0  0  0  0  0
  129.6580  126.1020   61.4630 N   0  0  0  0  0  0  0  0  0  0  0  0
  129.6970  125.5930   62.8410 C   0  0  0  0  0  0  0  0  0  0  0  0
  128.6620  126.3900   63.6670 C   0  0  0  0  0  0  0  0  0  0  0  0
  128.6490  127.9360   63.4290 C   0  0  0  0  0  0  0  0  0  0  0  0
  127.2990  128.5910   63.7410 C   0  0  0  0  0  0  0  0  0  0  0  0
  126.6430  129.2210   62.8180 N   0  0  0  0  0  0  0  0  0  0  0  0
  125.4590  129.7680   63.2100 C   0  0  0  0  0  0  0  0  0  0  0  0
  124.9100  129.7140   64.4810 C   0  0  0  0  0  0  0  0  0  0  0  0
  123.7570  130.3590   64.5130 N   0  0  0  0  0  0  0  0  0  0  0  0
  123.5230  130.8570   63.2350 N   0  0  0  0  0  0  0  0  0  0  0  0
  124.5530  130.4740   62.4620 N   0  0  0  0  0  0  0  0  0  0  0  0
  124.6190  130.8590   61.0580 C   0  0  0  0  0  0  0  0  0  0  0  0
  125.8120  131.7450   60.7300 C   0  0  0  0  0  0  0  0  0  0  0  0
  126.9000  131.2240   60.0220 C   0  0  0  0  0  0  0  0  0  0  0  0
  127.9990  132.0320   59.7280 C   0  0  0  0  0  0  0  0  0  0  0  0
  128.0150  133.3640   60.1380 C   0  0  0  0  0  0  0  0  0  0  0  0
  126.9310  133.8920   60.8400 C   0  0  0  0  0  0  0  0  0  0  0  0
  126.9530  135.5400   61.3490 Cl  0  0  0  0  0  0  0  0  0  0  0  0
  125.8300  133.0860   61.1330 C   0  0  0  0  0  0  0  0  0  0  0  0
  125.6270  129.0030   65.5400 C   0  0  0  0  0  0  0  0  0  0  0  0
  125.3020  128.8460   66.7140 O   0  0  0  0  0  0  0  0  0  0  0  0
  126.8030  128.4870   65.0370 N   0  0  0  0  0  0  0  0  0  0  0  0
  129.2420  128.4240   62.0690 C   0  0  0  0  0  0  0  0  0  0  0  0
  130.2240  127.4550   61.3660 C   0  0  0  0  0  0  0  0  0  0  0  0
  127.5921  124.2703   61.6609 H   0  0  0  0  0  0  0  0  0  0  0  0
  127.6632  121.5875   61.2945 H   0  0  0  0  0  0  0  0  0  0  0  0
  129.3548  119.7603   61.3517 H   0  0  0  0  0  0  0  0  0  0  0  0
  131.7365  120.2576   60.8231 H   0  0  0  0  0  0  0  0  0  0  0  0
  132.4373  122.5701   60.2283 H   0  0  0  0  0  0  0  0  0  0  0  0
  130.7509  124.4009   60.1661 H   0  0  0  0  0  0  0  0  0  0  0  0
  125.4573  125.1695   60.7649 H   0  0  0  0  0  0  0  0  0  0  0  0
  123.6539  124.7770   59.0899 H   0  0  0  0  0  0  0  0  0  0  0  0
  124.1410  123.4689   57.0278 H   0  0  0  0  0  0  0  0  0  0  0  0
  126.4174  122.5413   56.6344 H   0  0  0  0  0  0  0  0  0  0  0  0
  128.2165  122.9073   58.3174 H   0  0  0  0  0  0  0  0  0  0  0  0
  129.4414  124.5232   62.8524 H   0  0  0  0  0  0  0  0  0  0  0  0
  130.7040  125.7129   63.2671 H   0  0  0  0  0  0  0  0  0  0  0  0
  127.6625  126.0019   63.4213 H   0  0  0  0  0  0  0  0  0  0  0  0
  128.9482  126.2513   64.7200 H   0  0  0  0  0  0  0  0  0  0  0  0
  129.3671  128.2981   64.1794 H   0  0  0  0  0  0  0  0  0  0  0  0
  124.6850  129.9456   60.4487 H   0  0  0  0  0  0  0  0  0  0  0  0
  123.7119  131.4409   60.8377 H   0  0  0  0  0  0  0  0  0  0  0  0
  126.8892  130.1735   59.6958 H   0  0  0  0  0  0  0  0  0  0  0  0
  128.8531  131.6175   59.1724 H   0  0  0  0  0  0  0  0  0  0  0  0
  128.8829  133.9995   59.9080 H   0  0  0  0  0  0  0  0  0  0  0  0
  124.9740  133.5052   61.6820 H   0  0  0  0  0  0  0  0  0  0  0  0
  127.3630  127.9800   65.7070 H   0  0  0  0  0  0  0  0  0  0  0  0
  128.4020  128.6073   61.3828 H   0  0  0  0  0  0  0  0  0  0  0  0
  129.8331  129.3200   62.3095 H   0  0  0  0  0  0  0  0  0  0  0  0
  130.3392  127.7387   60.3095 H   0  0  0  0  0  0  0  0  0  0  0  0
  131.2144  127.4949   61.8430 H   0  0  0  0  0  0  0  0  0  0  0  0
  1  2  2  0
  2  3  1  0
  3  4  1  0
  4  5  2  0
  5  6  1  0
  6  7  2  0
  7  8  1  0
  8  9  2  0
  3 10  1  0
 10 11  2  0
 11 12  1  0
 12 13  2  0
 13 14  1  0
 14 15  2  0
  2 16  1  0
 16 17  1  0
 17 18  1  0
 18 19  1  0
 19 20  1  0
 20 21  2  0
 21 22  1  0
 22 23  2  0
 23 24  1  0
 24 25  2  0
 25 26  1  0
 26 27  1  0
 27 28  1  0
 28 29  2  0
 29 30  1  0
 30 31  2  0
 31 32  1  0
 32 33  1  0
 32 34  2  0
 23 35  1  0
 35 36  2  0
 35 37  1  0
 19 38  1  0
 38 39  1  0
  9  4  1  0
 15 10  1  0
 39 16  1  0
 37 20  1  0
 26 22  1  0
 34 28  1  0
  3 40  1  0
  5 41  1  0
  6 42  1  0
  7 43  1  0
  8 44  1  0
  9 45  1  0
 11 46  1  0
 12 47  1  0
 13 48  1  0
 14 49  1  0
 15 50  1  0
 17 51  1  0
 17 52  1  0
 18 53  1  0
 18 54  1  0
 19 55  1  0
 27 56  1  0
 27 57  1  0
 29 58  1  0
 30 59  1  0
 31 60  1  0
 34 61  1  0
 37 62  1  0
 38 63  1  0
 38 64  1  0
 39 65  1  0
 39 66  1  0
M  END
>  <Binding energies>  (1) 
[-9.94]

>  <Ligand effiencies>  (1) 
[-0.2485]

>  <Interactions>  (1) 
["V-B:GLU:543:CD:9880, V-B:ARG:545:CZ:9898, V-B:GLU:543:CG:9879, V-A:GLU:543:CD:4908, V-B:TRP:381:CH2:8343, H-B:GLY:454:N:9021, V-A:TYR:539:C:4867, V-B:ASP:366:CG:8184, V-B:PRO:482:CG:9298, V-B:LEU:475:CD1:9229, V-B:PRO:482:CB:9297, V-A:TYR:539:CE2:4876, H-B:TYR:484:OH:9319, H-B:ARG:545:NH2:9900, V-A:TYR:539:CD2:4874, V-B:ALA:541:CB:9864, H-B:ARG:545:NE:9896, V-B:TYR:539:CE2:9848, V-B:PRO:540:CA:9855, V-B:TRP:381:CZ2:8341, V-B:TYR:539:CD2:9846, V-B:ALA:541:CA:9862, V-B:PRO:540:CB:9857, V-B:PRO:540:N:9856, H-B:GLU:543:OE1:9881, V-B:LEU:363:CD1:8160"]

$$$$
RR28_Rahimova_2017
     RDKit          3D

 82 85  0  0  0  0  0  0  0  0999 V2000
  127.1800  136.3820   60.8020 C   0  0  0  0  0  0  0  0  0  0  0  0
  127.3390  134.9590   61.3240 C   0  0  0  0  0  0  0  0  0  0  0  0
  127.5600  134.7710   62.5190 O   0  0  0  0  0  0  0  0  0  0  0  0
  127.2250  133.9720   60.4120 N   0  0  0  0  0  0  0  0  0  0  0  0
  127.3400  132.5110   60.6240 C   0  0  0  0  0  0  0  0  0  0  0  0
  128.7260  132.0490   60.0910 C   0  0  0  0  0  0  0  0  0  0  0  0
  128.9980  132.1360   58.7170 C   0  0  0  0  0  0  0  0  0  0  0  0
  130.2260  131.7280   58.2040 C   0  0  0  0  0  0  0  0  0  0  0  0
  131.2110  131.2230   59.0540 C   0  0  0  0  0  0  0  0  0  0  0  0
  132.5510  130.7750   58.4720 C   0  0  0  0  0  0  0  0  0  0  0  0
  132.9460  131.5480   57.4570 F   0  0  0  0  0  0  0  0  0  0  0  0
  133.4980  130.8110   59.4090 F   0  0  0  0  0  0  0  0  0  0  0  0
  132.4380  129.5250   58.0230 F   0  0  0  0  0  0  0  0  0  0  0  0
  130.9520  131.1300   60.4240 C   0  0  0  0  0  0  0  0  0  0  0  0
  129.7230  131.5380   60.9360 C   0  0  0  0  0  0  0  0  0  0  0  0
  126.1270  131.7620   59.9640 C   0  0  0  0  0  0  0  0  0  0  0  0
  124.7670  132.0890   60.6310 C   0  0  0  0  0  0  0  0  0  0  0  0
  124.8940  131.7060   62.0470 N   0  0  0  0  0  0  0  0  0  0  0  0
  124.4990  130.4720   62.4630 C   0  0  0  0  0  0  0  0  0  0  0  0
  123.8750  129.7030   61.7290 O   0  0  0  0  0  0  0  0  0  0  0  0
  124.6930  130.0870   63.9500 C   0  0  0  0  0  0  0  0  0  0  0  0
  125.5980  128.8540   64.2200 C   0  0  0  0  0  0  0  0  0  0  0  0
  127.0080  129.1820   64.7640 C   0  0  0  0  0  0  0  0  0  0  0  0
  127.8600  129.5780   63.9640 O   0  0  0  0  0  0  0  0  0  0  0  0
  127.2350  129.1610   66.1080 N   0  0  0  0  0  0  0  0  0  0  0  0
  126.3970  128.4190   67.0570 C   0  0  0  0  0  0  0  0  0  0  0  0
  126.9370  126.9720   67.0860 C   0  0  0  0  0  0  0  0  0  0  0  0
  128.4570  126.8470   67.4550 C   0  0  0  0  0  0  0  0  0  0  0  0
  128.9420  125.5060   67.0640 N   0  0  0  0  0  0  0  0  0  0  0  0
  129.3960  125.1050   65.8600 C   0  0  0  0  0  0  0  0  0  0  0  0
  129.8150  123.6430   65.7480 C   0  0  0  0  0  0  0  0  0  0  0  0
  129.4840  125.8400   64.8770 O   0  0  0  0  0  0  0  0  0  0  0  0
  128.5700  126.9540   69.0110 C   0  0  0  0  0  0  0  0  0  0  0  0
  129.3240  127.9500   69.6520 C   0  0  0  0  0  0  0  0  0  0  0  0
  129.3990  128.0110   71.0410 C   0  0  0  0  0  0  0  0  0  0  0  0
  128.7230  127.0740   71.8260 C   0  0  0  0  0  0  0  0  0  0  0  0
  128.7920  127.1290   73.3510 C   0  0  0  0  0  0  0  0  0  0  0  0
  128.4310  128.3350   73.7950 F   0  0  0  0  0  0  0  0  0  0  0  0
  127.9590  126.2210   73.8590 F   0  0  0  0  0  0  0  0  0  0  0  0
  130.0190  126.8740   73.8090 F   0  0  0  0  0  0  0  0  0  0  0  0
  127.9770  126.0720   71.2030 C   0  0  0  0  0  0  0  0  0  0  0  0
  127.9040  126.0150   69.8150 C   0  0  0  0  0  0  0  0  0  0  0  0
  129.2650  127.9690   66.6950 C   0  0  0  0  0  0  0  0  0  0  0  0
  128.5930  129.3670   66.6290 C   0  0  0  0  0  0  0  0  0  0  0  0
  125.8780  132.5140   62.7830 C   0  0  0  0  0  0  0  0  0  0  0  0
  127.2660  132.2190   62.1590 C   0  0  0  0  0  0  0  0  0  0  0  0
  127.1023  137.0774   61.6508 H   0  0  0  0  0  0  0  0  0  0  0  0
  128.0541  136.6476   60.1892 H   0  0  0  0  0  0  0  0  0  0  0  0
  126.2689  136.4481   60.1892 H   0  0  0  0  0  0  0  0  0  0  0  0
  127.0640  134.2480   59.4550 H   0  0  0  0  0  0  0  0  0  0  0  0
  128.2302  132.5321   58.0361 H   0  0  0  0  0  0  0  0  0  0  0  0
  130.4209  131.8039   57.1241 H   0  0  0  0  0  0  0  0  0  0  0  0
  131.7225  130.7327   61.1011 H   0  0  0  0  0  0  0  0  0  0  0  0
  129.5313  131.4587   62.0163 H   0  0  0  0  0  0  0  0  0  0  0  0
  126.0739  132.0503   58.9038 H   0  0  0  0  0  0  0  0  0  0  0  0
  126.3015  130.6836   60.0926 H   0  0  0  0  0  0  0  0  0  0  0  0
  124.5506  133.1641   60.5459 H   0  0  0  0  0  0  0  0  0  0  0  0
  123.9438  131.5458   60.1439 H   0  0  0  0  0  0  0  0  0  0  0  0
  125.1375  130.9506   64.4663 H   0  0  0  0  0  0  0  0  0  0  0  0
  123.6943  129.8089   64.3178 H   0  0  0  0  0  0  0  0  0  0  0  0
  125.0898  128.2126   64.9551 H   0  0  0  0  0  0  0  0  0  0  0  0
  125.7511  128.3670   63.2456 H   0  0  0  0  0  0  0  0  0  0  0  0
  126.4666  128.8701   68.0578 H   0  0  0  0  0  0  0  0  0  0  0  0
  125.3398  128.4416   66.7541 H   0  0  0  0  0  0  0  0  0  0  0  0
  126.3564  126.4044   67.8281 H   0  0  0  0  0  0  0  0  0  0  0  0
  126.8322  126.5806   66.0633 H   0  0  0  0  0  0  0  0  0  0  0  0
  128.8850  124.8070   67.7890 H   0  0  0  0  0  0  0  0  0  0  0  0
  129.9367  123.2183   66.7554 H   0  0  0  0  0  0  0  0  0  0  0  0
  129.0419  123.0806   65.2039 H   0  0  0  0  0  0  0  0  0  0  0  0
  130.7686  123.5755   65.2039 H   0  0  0  0  0  0  0  0  0  0  0  0
  129.8639  128.6937   69.0474 H   0  0  0  0  0  0  0  0  0  0  0  0
  129.9937  128.8012   71.5227 H   0  0  0  0  0  0  0  0  0  0  0  0
  127.4454  125.3254   71.8113 H   0  0  0  0  0  0  0  0  0  0  0  0
  127.3132  125.2190   69.3381 H   0  0  0  0  0  0  0  0  0  0  0  0
  130.2350  128.0857   67.2004 H   0  0  0  0  0  0  0  0  0  0  0  0
  129.3382  127.6262   65.6523 H   0  0  0  0  0  0  0  0  0  0  0  0
  128.5496  129.8141   67.6331 H   0  0  0  0  0  0  0  0  0  0  0  0
  129.1644  130.0495   65.9827 H   0  0  0  0  0  0  0  0  0  0  0  0
  125.6388  133.5831   62.6836 H   0  0  0  0  0  0  0  0  0  0  0  0
  125.8684  132.2637   63.8541 H   0  0  0  0  0  0  0  0  0  0  0  0
  128.0153  132.8432   62.6678 H   0  0  0  0  0  0  0  0  0  0  0  0
  127.4560  131.1436   62.2913 H   0  0  0  0  0  0  0  0  0  0  0  0
  1  2  1  0
  2  3  2  0
  2  4  1  0
  4  5  1  0
  5  6  1  0
  6  7  2  0
  7  8  1  0
  8  9  2  0
  9 10  1  0
 10 11  1  0
 10 12  1  0
 10 13  1  0
  9 14  1  0
 14 15  2  0
  5 16  1  0
 16 17  1  0
 17 18  1  0
 18 19  1  0
 19 20  2  0
 19 21  1  0
 21 22  1  0
 22 23  1  0
 23 24  2  0
 23 25  1  0
 25 26  1  0
 26 27  1  0
 27 28  1  0
 28 29  1  0
 29 30  1  0
 30 31  1  0
 30 32  2  0
 28 33  1  0
 33 34  2  0
 34 35  1  0
 35 36  2  0
 36 37  1  0
 37 38  1  0
 37 39  1  0
 37 40  1  0
 36 41  1  0
 41 42  2  0
 28 43  1  0
 43 44  1  0
 18 45  1  0
 45 46  1  0
 46  5  1  0
 15  6  1  0
 44 25  1  0
 42 33  1  0
  1 47  1  0
  1 48  1  0
  1 49  1  0
  4 50  1  0
  7 51  1  0
  8 52  1  0
 14 53  1  0
 15 54  1  0
 16 55  1  0
 16 56  1  0
 17 57  1  0
 17 58  1  0
 21 59  1  0
 21 60  1  0
 22 61  1  0
 22 62  1  0
 26 63  1  0
 26 64  1  0
 27 65  1  0
 27 66  1  0
 29 67  1  0
 31 68  1  0
 31 69  1  0
 31 70  1  0
 34 71  1  0
 35 72  1  0
 41 73  1  0
 42 74  1  0
 43 75  1  0
 43 76  1  0
 44 77  1  0
 44 78  1  0
 45 79  1  0
 45 80  1  0
 46 81  1  0
 46 82  1  0
M  END
>  <Binding energies>  (1) 
[-9.02]

>  <Ligand effiencies>  (1) 
[-0.18791666666666665]

>  <Interactions>  (1) 
["V-B:ARG:545:CG:9894, V-A:HIS:456:CD2:4068, V-B:GLU:543:CD:9880, V-B:GLU:543:C:9874, V-B:HIS:456:CD2:9039, V-B:GLU:543:CB:9878, V-A:HIS:456:CE1:4069, V-B:ARG:545:CZ:9898, V-B:HIS:456:CE1:9040, V-B:GLU:543:CG:9879, V-A:GLU:543:CG:4907, V-A:GLU:543:CD:4908, V-B:TRP:381:CH2:8343, V-A:PRO:540:N:4884, V-A:TYR:539:C:4867, V-B:PRO:482:CG:9298, V-B:LEU:475:CD1:9229, V-B:PRO:482:CB:9297, V-A:PRO:540:CA:4883, V-A:TYR:539:CE2:4876, V-A:ALA:541:CB:4892, H-B:ARG:545:NH2:9900, V-A:TYR:539:CD2:4874, V-B:GLU:543:CA:9876, V-A:TYR:484:CZ:4347, V-A:GLU:543:CB:4906, V-A:TYR:484:CE1:4345, V-A:ASP:366:CB:3212, V-A:ASP:366:CG:3213, V-A:PRO:540:CB:4885, V-B:TRP:381:CZ2:8341, V-B:TRP:381:CZ3:8342, V-B:GLY:544:C:9884, V-A:PRO:540:CD:4887, V-A:LEU:363:CD1:3189, V-A:LEU:363:CA:3185, V-A:PRO:540:CG:4886, H-A:TYR:539:O:4868, V-B:LYS:547:CD:9921, H-B:GLU:543:O:9875, V-A:ASN:362:C:3172, V-B:LYS:547:CE:9922, V-B:TRP:381:CE2:8338"]

$$$$
RR29_Rahimova_2017
     RDKit          3D

 35 36  0  0  0  0  0  0  0  0999 V2000
  126.3330  127.3620   67.3660 C   0  0  0  0  0  0  0  0  0  0  0  0
  127.8170  127.0830   67.1730 C   0  0  0  0  0  0  0  0  0  0  0  0
  128.6390  127.2700   68.4670 C   0  0  0  0  0  0  0  0  0  0  0  0
  128.1620  126.3230   69.5880 C   0  0  0  0  0  0  0  0  0  0  0  0
  128.9020  126.5570   70.8960 C   0  0  0  0  0  0  0  0  0  0  0  0
  129.3750  127.8450   71.2150 C   0  0  0  0  0  0  0  0  0  0  0  0
  130.0590  128.0840   72.4160 C   0  0  0  0  0  0  0  0  0  0  0  0
  130.2600  127.0030   73.2660 C   0  0  0  0  0  0  0  0  0  0  0  0
  129.8050  125.7510   72.9610 C   0  0  0  0  0  0  0  0  0  0  0  0
  129.1150  125.4870   71.7830 C   0  0  0  0  0  0  0  0  0  0  0  0
  130.1080  124.9020   73.9780 O   0  0  0  0  0  0  0  0  0  0  0  0
  130.9570  125.6220   74.8320 C   0  0  0  0  0  0  0  0  0  0  0  0
  130.8620  126.9780   74.4850 O   0  0  0  0  0  0  0  0  0  0  0  0
  128.2310  126.7450   66.0080 N   0  0  0  0  0  0  0  0  0  0  0  0
  129.5840  126.5750   65.8100 N   0  0  0  0  0  0  0  0  0  0  0  0
  130.2850  125.5270   66.2710 C   0  0  0  0  0  0  0  0  0  0  0  0
  129.7690  124.5080   66.9590 N   0  0  0  0  0  0  0  0  0  0  0  0
  131.5860  125.4990   66.0240 N   0  0  0  0  0  0  0  0  0  0  0  0
  126.1048  127.4049   68.4412 H   0  0  0  0  0  0  0  0  0  0  0  0
  126.0769  128.3240   66.8981 H   0  0  0  0  0  0  0  0  0  0  0  0
  125.7450  126.5587   66.8981 H   0  0  0  0  0  0  0  0  0  0  0  0
  129.6971  127.0615   68.2504 H   0  0  0  0  0  0  0  0  0  0  0  0
  128.5039  128.3056   68.8124 H   0  0  0  0  0  0  0  0  0  0  0  0
  127.0872  126.4866   69.7556 H   0  0  0  0  0  0  0  0  0  0  0  0
  128.3663  125.2912   69.2661 H   0  0  0  0  0  0  0  0  0  0  0  0
  129.2056  128.6745   70.5127 H   0  0  0  0  0  0  0  0  0  0  0  0
  130.4227  129.0892   72.6753 H   0  0  0  0  0  0  0  0  0  0  0  0
  128.7484  124.4757   71.5529 H   0  0  0  0  0  0  0  0  0  0  0  0
  130.6449  125.4801   75.8772 H   0  0  0  0  0  0  0  0  0  0  0  0
  131.9942  125.2702   74.7299 H   0  0  0  0  0  0  0  0  0  0  0  0
  130.0640  127.3100   65.3100 H   0  0  0  0  0  0  0  0  0  0  0  0
  130.2570  123.6250   67.0030 H   0  0  0  0  0  0  0  0  0  0  0  0
  128.8810  124.6220   67.4260 H   0  0  0  0  0  0  0  0  0  0  0  0
  132.0780  126.3540   65.8060 H   0  0  0  0  0  0  0  0  0  0  0  0
  132.0870  124.6230   66.0610 H   0  0  0  0  0  0  0  0  0  0  0  0
  1  2  1  0
  2  3  1  0
  3  4  1  0
  4  5  1  0
  5  6  2  0
  6  7  1  0
  7  8  2  0
  8  9  1  0
  9 10  2  0
  9 11  1  0
 11 12  1  0
 12 13  1  0
  2 14  2  0
 14 15  1  0
 15 16  1  0
 16 17  1  0
 16 18  2  0
 10  5  1  0
 13  8  1  0
  1 19  1  0
  1 20  1  0
  1 21  1  0
  3 22  1  0
  3 23  1  0
  4 24  1  0
  4 25  1  0
  6 26  1  0
  7 27  1  0
 10 28  1  0
 12 29  1  0
 12 30  1  0
 15 31  1  0
 17 32  1  0
 17 33  1  0
 18 34  1  0
 18 35  1  0
M  CHG  1  18   1
M  END
>  <Binding energies>  (1) 
[-6.97]

>  <Ligand effiencies>  (1) 
[-0.3030434782608696]

>  <Interactions>  (1) 
["V-B:ARG:545:CG:9894, V-A:HIS:456:CD2:4068, H-B:LYS:547:NZ:9923, V-B:GLU:543:C:9874, H-A:LYS:547:NZ:4951, V-B:HIS:456:CD2:9039, V-B:GLU:543:CB:9878, V-A:HIS:456:CE1:4069, H-A:GLU:543:OE1:4909, V-B:HIS:456:CE1:9040, H-A:GLU:543:OE2:4910, V-A:GLU:543:CD:4908, V-B:GLU:543:CA:9876, V-A:TYR:484:CZ:4347, V-A:TYR:484:CE1:4345, H-A:TYR:484:OH:4348, V-A:LYS:547:CE:4950, H-B:GLU:543:O:9875, H-A:HIS:456:ND1:4067"]

$$$$
RR29_Rahimova_2017-again1
     RDKit          3D

 34 35  0  0  0  0  0  0  0  0999 V2000
  128.4430  131.6330   63.1270 C   0  0  0  0  0  0  0  0  0  0  0  0
  129.3540  131.6790   61.9090 C   0  0  0  0  0  0  0  0  0  0  0  0
  128.6110  131.4480   60.5790 C   0  0  0  0  0  0  0  0  0  0  0  0
  128.4090  132.7690   59.8070 C   0  0  0  0  0  0  0  0  0  0  0  0
  127.2510  133.5880   60.3590 C   0  0  0  0  0  0  0  0  0  0  0  0
  127.4810  134.8860   60.8540 C   0  0  0  0  0  0  0  0  0  0  0  0
  126.4290  135.6590   61.3650 C   0  0  0  0  0  0  0  0  0  0  0  0
  125.1590  135.0920   61.3720 C   0  0  0  0  0  0  0  0  0  0  0  0
  124.9310  133.8310   60.8950 C   0  0  0  0  0  0  0  0  0  0  0  0
  125.9540  133.0470   60.3740 C   0  0  0  0  0  0  0  0  0  0  0  0
  123.6060  133.5480   60.9930 O   0  0  0  0  0  0  0  0  0  0  0  0
  123.0500  134.5920   61.7470 C   0  0  0  0  0  0  0  0  0  0  0  0
  123.9850  135.6370   61.7830 O   0  0  0  0  0  0  0  0  0  0  0  0
  130.6140  131.8790   62.0740 N   0  0  0  0  0  0  0  0  0  0  0  0
  131.3570  131.8830   61.0150 N   0  0  0  0  0  0  0  0  0  0  0  0
  131.9810  130.7990   60.7290 C   0  0  0  0  0  0  0  0  0  0  0  0
  131.9670  129.5660   61.4380 N   0  0  0  0  0  0  0  0  0  0  0  0
  132.8100  130.7100   59.5900 N   0  0  0  0  0  0  0  0  0  0  0  0
  129.0525  131.6638   64.0422 H   0  0  0  0  0  0  0  0  0  0  0  0
  127.7637  132.4980   63.1097 H   0  0  0  0  0  0  0  0  0  0  0  0
  127.8543  130.7040   63.1097 H   0  0  0  0  0  0  0  0  0  0  0  0
  129.1984  130.7567   59.9569 H   0  0  0  0  0  0  0  0  0  0  0  0
  127.6208  131.0259   60.8057 H   0  0  0  0  0  0  0  0  0  0  0  0
  129.3304  133.3655   59.8790 H   0  0  0  0  0  0  0  0  0  0  0  0
  128.1753  132.5164   58.7622 H   0  0  0  0  0  0  0  0  0  0  0  0
  128.5003  135.2992   60.8395 H   0  0  0  0  0  0  0  0  0  0  0  0
  126.6016  136.6763   61.7463 H   0  0  0  0  0  0  0  0  0  0  0  0
  125.7549  132.0370   59.9864 H   0  0  0  0  0  0  0  0  0  0  0  0
  122.1183  134.9390   61.2764 H   0  0  0  0  0  0  0  0  0  0  0  0
  122.8159  134.2492   62.7657 H   0  0  0  0  0  0  0  0  0  0  0  0
  131.4320  129.4420   62.2860 H   0  0  0  0  0  0  0  0  0  0  0  0
  132.4960  128.7610   61.1380 H   0  0  0  0  0  0  0  0  0  0  0  0
  132.9470  131.4910   58.9650 H   0  0  0  0  0  0  0  0  0  0  0  0
  133.3120  129.8690   59.3490 H   0  0  0  0  0  0  0  0  0  0  0  0
  1  2  1  0
  2  3  1  0
  3  4  1  0
  4  5  1  0
  5  6  2  0
  6  7  1  0
  7  8  2  0
  8  9  1  0
  9 10  2  0
  9 11  1  0
 11 12  1  0
 12 13  1  0
  2 14  2  0
 14 15  1  0
 15 16  2  0
 16 17  1  0
 16 18  1  0
 10  5  1  0
 13  8  1  0
  1 19  1  0
  1 20  1  0
  1 21  1  0
  3 22  1  0
  3 23  1  0
  4 24  1  0
  4 25  1  0
  6 26  1  0
  7 27  1  0
 10 28  1  0
 12 29  1  0
 12 30  1  0
 17 31  1  0
 17 32  1  0
 18 33  1  0
 18 34  1  0
M  END
>  <Binding energies>  (1) 
[-6.34]

>  <Ligand effiencies>  (1) 
[-0.28818181818181815]

>  <Interactions>  (1) 
["H-A:GLU:543:OE1:4909, H-A:GLU:543:OE2:4910, V-A:GLU:543:CD:4908, V-B:TRP:381:CH2:8343, V-A:TYR:539:C:4867, V-B:PRO:482:CG:9298, V-B:LEU:475:CD1:9229, V-B:PRO:482:CB:9297, V-A:PRO:540:CA:4883, V-B:ILE:369:CD1:8210, V-A:TYR:539:CE2:4876, V-A:ALA:541:CB:4892, V-B:ILE:369:CG2:8208, V-A:TYR:539:CD2:4874, V-A:ASP:366:CG:3213, V-A:PRO:540:CB:4885, V-B:TRP:381:CZ2:8341, H-A:ASP:366:OD1:3214, V-B:SER:385:C:8376, H-A:ALA:541:N:4891, V-B:ILE:369:CG1:8209, H-A:ASP:366:OD2:3215"]

$$$$
RR2_Rahimova_2017
     RDKit          3D

 76 80  0  0  0  0  0  0  0  0999 V2000
  128.6870  132.8730   60.2050 C   0  0  0  0  0  0  0  0  0  0  0  0
  129.3260  132.3740   61.3740 O   0  0  0  0  0  0  0  0  0  0  0  0
  129.7730  131.0660   61.3930 C   0  0  0  0  0  0  0  0  0  0  0  0
  128.9870  129.9670   61.7650 C   0  0  0  0  0  0  0  0  0  0  0  0
  129.5250  128.6830   61.7560 C   0  0  0  0  0  0  0  0  0  0  0  0
  130.8580  128.4670   61.3800 C   0  0  0  0  0  0  0  0  0  0  0  0
  131.4220  127.0600   61.3850 C   0  0  0  0  0  0  0  0  0  0  0  0
  131.6630  126.4900   62.4550 O   0  0  0  0  0  0  0  0  0  0  0  0
  131.6430  126.5080   60.1700 N   0  0  0  0  0  0  0  0  0  0  0  0
  132.2450  125.2550   60.1170 N   0  0  0  0  0  0  0  0  0  0  0  0
  132.7990  124.8620   58.9520 C   0  0  0  0  0  0  0  0  0  0  0  0
  132.6610  125.4460   57.8730 O   0  0  0  0  0  0  0  0  0  0  0  0
  133.6740  123.6030   59.0280 C   0  0  0  0  0  0  0  0  0  0  0  0
  132.9520  122.2140   59.9760 S   0  0  0  0  0  0  0  0  0  0  0  0
  132.8670  122.9310   61.5890 C   0  0  0  0  0  0  0  0  0  0  0  0
  133.9280  123.1830   62.3150 N   0  0  0  0  0  0  0  0  0  0  0  0
  133.4900  123.6690   63.5390 N   0  0  0  0  0  0  0  0  0  0  0  0
  132.1790  123.7210   63.4960 C   0  0  0  0  0  0  0  0  0  0  0  0
  131.3390  124.2130   64.6300 C   0  0  0  0  0  0  0  0  0  0  0  0
  131.6230  125.4470   65.2210 C   0  0  0  0  0  0  0  0  0  0  0  0
  130.8520  125.9090   66.2830 C   0  0  0  0  0  0  0  0  0  0  0  0
  129.7750  125.1480   66.7530 C   0  0  0  0  0  0  0  0  0  0  0  0
  128.9700  125.5590   67.8260 N   0  0  0  0  0  0  0  0  0  0  0  0
  128.8160  127.2380   68.3900 S   0  0  0  0  0  0  0  0  0  0  0  0
  130.1480  127.8370   68.2430 O   0  0  0  0  0  0  0  0  0  0  0  0
  128.1390  127.2200   69.6920 O   0  0  0  0  0  0  0  0  0  0  0  0
  127.7540  128.0400   67.1910 C   0  0  0  0  0  0  0  0  0  0  0  0
  128.2990  128.8030   66.1560 C   0  0  0  0  0  0  0  0  0  0  0  0
  127.4550  129.4310   65.2440 C   0  0  0  0  0  0  0  0  0  0  0  0
  126.0710  129.2910   65.3630 C   0  0  0  0  0  0  0  0  0  0  0  0
  125.1520  129.9890   64.3760 C   0  0  0  0  0  0  0  0  0  0  0  0
  125.5290  128.5310   66.4010 C   0  0  0  0  0  0  0  0  0  0  0  0
  126.3710  127.9030   67.3150 C   0  0  0  0  0  0  0  0  0  0  0  0
  129.4910  123.9180   66.1600 C   0  0  0  0  0  0  0  0  0  0  0  0
  130.2660  123.4510   65.1020 C   0  0  0  0  0  0  0  0  0  0  0  0
  131.7130  123.2590   62.2760 N   0  0  0  0  0  0  0  0  0  0  0  0
  130.3780  123.1110   61.8470 C   0  0  0  0  0  0  0  0  0  0  0  0
  129.9380  121.8840   61.3490 C   0  0  0  0  0  0  0  0  0  0  0  0
  128.6180  121.7430   60.9320 C   0  0  0  0  0  0  0  0  0  0  0  0
  127.7310  122.8180   61.0050 C   0  0  0  0  0  0  0  0  0  0  0  0
  126.4420  122.5830   60.5670 O   0  0  0  0  0  0  0  0  0  0  0  0
  125.6190  123.6870   60.2020 C   0  0  0  0  0  0  0  0  0  0  0  0
  128.1820  124.0500   61.5080 C   0  0  0  0  0  0  0  0  0  0  0  0
  129.5010  124.1950   61.9290 C   0  0  0  0  0  0  0  0  0  0  0  0
  131.6370  129.5720   61.0030 C   0  0  0  0  0  0  0  0  0  0  0  0
  131.0960  130.8550   61.0110 C   0  0  0  0  0  0  0  0  0  0  0  0
  127.8506  133.5261   60.4947 H   0  0  0  0  0  0  0  0  0  0  0  0
  129.4109  133.4472   59.6082 H   0  0  0  0  0  0  0  0  0  0  0  0
  128.3053  132.0315   59.6082 H   0  0  0  0  0  0  0  0  0  0  0  0
  127.9399  130.1196   62.0655 H   0  0  0  0  0  0  0  0  0  0  0  0
  128.8969  127.8282   62.0473 H   0  0  0  0  0  0  0  0  0  0  0  0
  131.8870  127.0730   59.3690 H   0  0  0  0  0  0  0  0  0  0  0  0
  132.5530  124.9210   61.0210 H   0  0  0  0  0  0  0  0  0  0  0  0
  133.8604  123.2548   58.0014 H   0  0  0  0  0  0  0  0  0  0  0  0
  134.5891  123.8970   59.5630 H   0  0  0  0  0  0  0  0  0  0  0  0
  132.4590  126.0552   64.8453 H   0  0  0  0  0  0  0  0  0  0  0  0
  131.0891  126.8742   66.7543 H   0  0  0  0  0  0  0  0  0  0  0  0
  128.4190  124.8560   68.2960 H   0  0  0  0  0  0  0  0  0  0  0  0
  129.3900  128.9073   66.0618 H   0  0  0  0  0  0  0  0  0  0  0  0
  127.8786  130.0374   64.4298 H   0  0  0  0  0  0  0  0  0  0  0  0
  124.3933  130.5652   64.9258 H   0  0  0  0  0  0  0  0  0  0  0  0
  125.7417  130.6689   63.7436 H   0  0  0  0  0  0  0  0  0  0  0  0
  124.6553  129.2385   63.7436 H   0  0  0  0  0  0  0  0  0  0  0  0
  124.4380  128.4284   66.4967 H   0  0  0  0  0  0  0  0  0  0  0  0
  125.9472  127.3008   68.1322 H   0  0  0  0  0  0  0  0  0  0  0  0
  128.6499  123.3135   66.5304 H   0  0  0  0  0  0  0  0  0  0  0  0
  130.0339  122.4815   64.6369 H   0  0  0  0  0  0  0  0  0  0  0  0
  130.6313  121.0323   61.2864 H   0  0  0  0  0  0  0  0  0  0  0  0
  128.2704  120.7753   60.5412 H   0  0  0  0  0  0  0  0  0  0  0  0
  125.2484  124.1842   61.1105 H   0  0  0  0  0  0  0  0  0  0  0  0
  126.2067  124.4014   59.6068 H   0  0  0  0  0  0  0  0  0  0  0  0
  124.7665  123.3278   59.6068 H   0  0  0  0  0  0  0  0  0  0  0  0
  127.4903  124.9031   61.5694 H   0  0  0  0  0  0  0  0  0  0  0  0
  129.8513  125.1597   62.3248 H   0  0  0  0  0  0  0  0  0  0  0  0
  132.6836  129.4232   60.6987 H   0  0  0  0  0  0  0  0  0  0  0  0
  131.7196  131.7106   60.7127 H   0  0  0  0  0  0  0  0  0  0  0  0
  1  2  1  0
  2  3  1  0
  3  4  2  0
  4  5  1  0
  5  6  2  0
  6  7  1  0
  7  8  2  0
  7  9  1  0
  9 10  1  0
 10 11  1  0
 11 12  2  0
 11 13  1  0
 13 14  1  0
 14 15  1  0
 15 16  2  0
 16 17  1  0
 17 18  2  0
 18 19  1  0
 19 20  2  0
 20 21  1  0
 21 22  2  0
 22 23  1  0
 23 24  1  0
 24 25  2  0
 24 26  2  0
 24 27  1  0
 27 28  2  0
 28 29  1  0
 29 30  2  0
 30 31  1  0
 30 32  1  0
 32 33  2  0
 22 34  1  0
 34 35  2  0
 18 36  1  0
 36 37  1  0
 37 38  2  0
 38 39  1  0
 39 40  2  0
 40 41  1  0
 41 42  1  0
 40 43  1  0
 43 44  2  0
  6 45  1  0
 45 46  2  0
 46  3  1  0
 36 15  1  0
 44 37  1  0
 35 19  1  0
 33 27  1  0
  1 47  1  0
  1 48  1  0
  1 49  1  0
  4 50  1  0
  5 51  1  0
  9 52  1  0
 10 53  1  0
 13 54  1  0
 13 55  1  0
 20 56  1  0
 21 57  1  0
 23 58  1  0
 28 59  1  0
 29 60  1  0
 31 61  1  0
 31 62  1  0
 31 63  1  0
 32 64  1  0
 33 65  1  0
 34 66  1  0
 35 67  1  0
 38 68  1  0
 39 69  1  0
 42 70  1  0
 42 71  1  0
 42 72  1  0
 43 73  1  0
 44 74  1  0
 45 75  1  0
 46 76  1  0
M  END
>  <Binding energies>  (1) 
[-10.31]

>  <Ligand effiencies>  (1) 
[-0.21040816326530612]

>  <Interactions>  (1) 
["V-B:ARG:545:CG:9894, H-B:HIS:456:NE2:9041, V-B:GLU:543:CD:9880, V-B:GLU:543:C:9874, V-B:GLU:543:CB:9878, V-A:HIS:456:CE1:4069, V-B:ARG:545:CZ:9898, H-A:HIS:456:NE2:4070, V-B:ARG:545:CD:9895, V-B:HIS:456:CE1:9040, V-B:GLU:543:CG:9879, V-A:GLU:543:CD:4908, V-A:TYR:539:C:4867, V-A:PRO:540:CA:4883, V-B:ALA:541:CB:9864, V-B:GLU:543:CA:9876, V-A:TYR:484:CZ:4347, V-A:GLU:543:CB:4906, V-A:TYR:484:CE1:4345, H-A:GLY:454:N:4050, H-A:ARG:545:NH2:4928, V-A:ASP:366:CB:3212, V-A:ASP:366:CG:3213, V-B:TYR:539:CE2:9848, H-B:TYR:539:OH:9850, V-A:ILE:369:CB:3236, V-A:ILE:369:CG2:3237, H-B:ALA:541:N:9863, V-B:PRO:540:CA:9855, V-A:ASP:366:CA:3210, H-A:ASP:366:OD1:3214, V-B:ALA:541:CA:9862, V-B:PRO:540:CB:9857, H-A:ALA:541:N:4891, V-B:PRO:540:C:9853, H-A:ASP:366:OD2:3215, H-B:GLU:543:O:9875"]

$$$$
RR30_Rahimova_2017
     RDKit          3D

 29 30  0  0  0  0  0  0  0  0999 V2000
  132.3150  123.6730   74.1370 C   0  0  0  0  0  0  0  0  0  0  0  0
  131.9870  122.6830   73.0100 C   0  0  0  0  0  0  0  0  0  0  0  0
  130.6480  122.9700   72.3670 C   0  0  0  0  0  0  0  0  0  0  0  0
  129.7010  122.1210   72.0540 N   0  0  0  0  0  0  0  0  0  0  0  0
  128.6820  122.8790   71.4820 N   0  0  0  0  0  0  0  0  0  0  0  0
  129.1050  124.1170   71.4890 C   0  0  0  0  0  0  0  0  0  0  0  0
  128.2530  125.5480   70.9070 S   0  0  0  0  0  0  0  0  0  0  0  0
  129.1670  126.8420   71.8040 C   0  0  0  0  0  0  0  0  0  0  0  0
  128.2700  127.6180   72.7730 C   0  0  0  0  0  0  0  0  0  0  0  0
  128.7240  128.6060   73.3530 O   0  0  0  0  0  0  0  0  0  0  0  0
  127.0230  127.1250   72.9470 N   0  0  0  0  0  0  0  0  0  0  0  0
  126.0380  127.6500   73.7700 C   0  0  0  0  0  0  0  0  0  0  0  0
  124.8190  127.2010   73.9670 N   0  0  0  0  0  0  0  0  0  0  0  0
  124.1060  127.9870   74.8650 N   0  0  0  0  0  0  0  0  0  0  0  0
  124.7940  129.0060   75.3260 C   0  0  0  0  0  0  0  0  0  0  0  0
  124.2330  130.0050   76.3110 C   0  0  0  0  0  0  0  0  0  0  0  0
  126.4100  129.0810   74.6800 S   0  0  0  0  0  0  0  0  0  0  0  0
  130.3390  124.2500   72.0380 O   0  0  0  0  0  0  0  0  0  0  0  0
  132.1539  123.1868   75.1105 H   0  0  0  0  0  0  0  0  0  0  0  0
  133.3656  123.9882   74.0539 H   0  0  0  0  0  0  0  0  0  0  0  0
  131.6604  124.5531   74.0539 H   0  0  0  0  0  0  0  0  0  0  0  0
  132.7706  122.7499   72.2409 H   0  0  0  0  0  0  0  0  0  0  0  0
  131.9410  121.6755   73.4492 H   0  0  0  0  0  0  0  0  0  0  0  0
  129.9803  126.3702   72.3749 H   0  0  0  0  0  0  0  0  0  0  0  0
  129.5588  127.5541   71.0628 H   0  0  0  0  0  0  0  0  0  0  0  0
  126.7740  126.2900   72.4370 H   0  0  0  0  0  0  0  0  0  0  0  0
  124.4279  129.6579   77.3365 H   0  0  0  0  0  0  0  0  0  0  0  0
  124.7145  130.9820   76.1568 H   0  0  0  0  0  0  0  0  0  0  0  0
  123.1482  130.1024   76.1568 H   0  0  0  0  0  0  0  0  0  0  0  0
  1  2  1  0
  2  3  1  0
  3  4  2  0
  4  5  1  0
  5  6  2  0
  6  7  1  0
  7  8  1  0
  8  9  1  0
  9 10  2  0
  9 11  1  0
 11 12  1  0
 12 13  2  0
 13 14  1  0
 14 15  2  0
 15 16  1  0
 15 17  1  0
  6 18  1  0
 18  3  1  0
 17 12  1  0
  1 19  1  0
  1 20  1  0
  1 21  1  0
  2 22  1  0
  2 23  1  0
  8 24  1  0
  8 25  1  0
 11 26  1  0
 16 27  1  0
 16 28  1  0
 16 29  1  0
M  END
>  <Binding energies>  (1) 
[-6.46]

>  <Ligand effiencies>  (1) 
[-0.34]

>  <Interactions>  (1) 
["H-B:HIS:456:NE2:9041, V-A:HIS:456:CD2:4068, H-B:LYS:547:NZ:9923, H-A:LYS:547:NZ:4951, V-B:HIS:456:CD2:9039, V-A:HIS:456:CG:4066, V-A:TYR:484:CD2:4344, V-A:TYR:484:CE2:4346, V-A:HIS:456:CB:4065, V-A:TYR:484:CG:4342, V-B:HIS:456:CB:9036, V-B:HIS:456:C:9032, V-B:VAL:458:CG2:9058, V-B:VAL:457:C:9044, V-B:HIS:456:CG:9037, H-B:GLY:544:O:9885, V-B:HIS:456:CA:9034, V-B:LYS:547:CE:9922, V-B:LYS:471:CE:9191, H-B:VAL:457:N:9047, V-A:ASP:473:CG:4240, V-A:ASP:473:CB:4239, V-B:LYS:471:CD:9190, V-B:LYS:471:CG:9189"]

$$$$
RR31_Rahimova_2017
     RDKit          3D

 44 45  0  0  0  0  0  0  0  0999 V2000
  133.7930  119.3640   61.3500 C   0  0  0  0  0  0  0  0  0  0  0  0
  132.5270  120.1700   61.0860 C   0  0  0  0  0  0  0  0  0  0  0  0
  131.3030  119.5060   60.9990 C   0  0  0  0  0  0  0  0  0  0  0  0
  130.1270  120.2150   60.7630 C   0  0  0  0  0  0  0  0  0  0  0  0
  130.1390  121.6110   60.6140 C   0  0  0  0  0  0  0  0  0  0  0  0
  128.9700  122.3350   60.3660 N   0  0  0  0  0  0  0  0  0  0  0  0
  128.0040  121.9290   59.3270 C   0  0  0  0  0  0  0  0  0  0  0  0
  127.0110  123.0420   58.9180 C   0  0  0  0  0  0  0  0  0  0  0  0
  126.2890  123.5530   60.0860 N   0  0  0  0  0  0  0  0  0  0  0  0
  125.3130  124.5870   59.7250 C   0  0  0  0  0  0  0  0  0  0  0  0
  123.8710  124.0500   59.6380 C   0  0  0  0  0  0  0  0  0  0  0  0
  123.3670  123.5110   60.9860 C   0  0  0  0  0  0  0  0  0  0  0  0
  124.5210  122.8530   61.7520 N   0  0  0  0  0  0  0  0  0  0  0  0
  127.2810  124.1110   61.0050 C   0  0  0  0  0  0  0  0  0  0  0  0
  128.2710  123.0200   61.4720 C   0  0  0  0  0  0  0  0  0  0  0  0
  131.3770  122.2650   60.6950 C   0  0  0  0  0  0  0  0  0  0  0  0
  132.5660  121.5640   60.9310 C   0  0  0  0  0  0  0  0  0  0  0  0
  133.8790  122.3330   61.0040 C   0  0  0  0  0  0  0  0  0  0  0  0
  133.9461  119.2666   62.4349 H   0  0  0  0  0  0  0  0  0  0  0  0
  133.6911  118.3642   60.9028 H   0  0  0  0  0  0  0  0  0  0  0  0
  134.6558  119.8794   60.9028 H   0  0  0  0  0  0  0  0  0  0  0  0
  131.2661  118.4131   61.1178 H   0  0  0  0  0  0  0  0  0  0  0  0
  129.1731  119.6718   60.6922 H   0  0  0  0  0  0  0  0  0  0  0  0
  128.5668  121.6226   58.4329 H   0  0  0  0  0  0  0  0  0  0  0  0
  127.4051  121.1107   59.7533 H   0  0  0  0  0  0  0  0  0  0  0  0
  127.5676  123.8669   58.4493 H   0  0  0  0  0  0  0  0  0  0  0  0
  126.2818  122.6201   58.2107 H   0  0  0  0  0  0  0  0  0  0  0  0
  125.3460  125.3810   60.4856 H   0  0  0  0  0  0  0  0  0  0  0  0
  125.5851  124.9623   58.7274 H   0  0  0  0  0  0  0  0  0  0  0  0
  123.2086  124.8660   59.3134 H   0  0  0  0  0  0  0  0  0  0  0  0
  123.8648  123.2174   58.9191 H   0  0  0  0  0  0  0  0  0  0  0  0
  122.9612  124.3418   61.5818 H   0  0  0  0  0  0  0  0  0  0  0  0
  122.5809  122.7632   60.8048 H   0  0  0  0  0  0  0  0  0  0  0  0
  124.9840  122.1740   61.1650 H   0  0  0  0  0  0  0  0  0  0  0  0
  124.1700  122.3860   62.5760 H   0  0  0  0  0  0  0  0  0  0  0  0
  125.1940  123.5510   62.0350 H   0  0  0  0  0  0  0  0  0  0  0  0
  127.8388  124.9087   60.4927 H   0  0  0  0  0  0  0  0  0  0  0  0
  126.7589  124.5137   61.8855 H   0  0  0  0  0  0  0  0  0  0  0  0
  129.0251  123.4907   62.1199 H   0  0  0  0  0  0  0  0  0  0  0  0
  127.6801  122.2562   61.9988 H   0  0  0  0  0  0  0  0  0  0  0  0
  131.4150  123.3572   60.5699 H   0  0  0  0  0  0  0  0  0  0  0  0
  134.1521  122.4930   62.0575 H   0  0  0  0  0  0  0  0  0  0  0  0
  134.6704  121.7556   60.5036 H   0  0  0  0  0  0  0  0  0  0  0  0
  133.7626  123.3057   60.5036 H   0  0  0  0  0  0  0  0  0  0  0  0
  1  2  1  0
  2  3  2  0
  3  4  1  0
  4  5  2  0
  5  6  1  0
  6  7  1  0
  7  8  1  0
  8  9  1  0
  9 10  1  0
 10 11  1  0
 11 12  1  0
 12 13  1  0
  9 14  1  0
 14 15  1  0
  5 16  1  0
 16 17  2  0
 17 18  1  0
 17  2  1  0
 15  6  1  0
  1 19  1  0
  1 20  1  0
  1 21  1  0
  3 22  1  0
  4 23  1  0
  7 24  1  0
  7 25  1  0
  8 26  1  0
  8 27  1  0
 10 28  1  0
 10 29  1  0
 11 30  1  0
 11 31  1  0
 12 32  1  0
 12 33  1  0
 13 34  1  0
 13 35  1  0
 13 36  1  0
 14 37  1  0
 14 38  1  0
 15 39  1  0
 15 40  1  0
 16 41  1  0
 18 42  1  0
 18 43  1  0
 18 44  1  0
M  CHG  1  13   1
M  END
>  <Binding energies>  (1) 
[-6.29]

>  <Ligand effiencies>  (1) 
[-0.2995238095238095]

>  <Interactions>  (1) 
["V-B:GLU:543:CD:9880, V-B:GLU:543:CG:9879, V-B:ALA:541:CB:9864, V-A:LEU:475:CD1:4258, V-B:TYR:539:CE2:9848, V-A:ILE:369:CG2:3237, V-B:PRO:540:CA:9855, V-A:ILE:369:CD1:3239, V-B:TYR:539:CD2:9846, V-A:TRP:381:CZ2:3370, V-B:PRO:540:CB:9857, V-A:TRP:381:CH2:3372, V-B:PRO:540:N:9856, V-B:TYR:539:C:9839, V-B:PRO:540:C:9853, V-A:SER:385:CA:3407, V-A:SER:385:C:3405, H-B:GLU:543:OE2:9882, V-B:ASN:362:CB:8147, V-B:ASN:362:C:8143, V-B:LEU:363:CA:8156, H-B:ALA:541:O:9861, V-B:LEU:363:CD1:8160, V-B:ASN:362:CA:8145, V-B:ALA:541:C:9860"]

$$$$
RR32_Rahimova_2017
     RDKit          3D

 37 39  0  0  0  0  0  0  0  0999 V2000
  126.9460  124.8330   57.2970 C   0  0  0  0  0  0  0  0  0  0  0  0
  126.9060  124.0390   58.5980 C   0  0  0  0  0  0  0  0  0  0  0  0
  128.0940  123.4700   59.0610 C   0  0  0  0  0  0  0  0  0  0  0  0
  128.0960  122.7410   60.2470 C   0  0  0  0  0  0  0  0  0  0  0  0
  129.2760  122.1790   60.7020 N   0  0  0  0  0  0  0  0  0  0  0  0
  129.3820  120.7090   60.6650 C   0  0  0  0  0  0  0  0  0  0  0  0
  130.6560  120.1710   61.3590 C   0  0  0  0  0  0  0  0  0  0  0  0
  131.8500  120.7410   60.7350 N   0  0  0  0  0  0  0  0  0  0  0  0
  133.0520  120.2090   61.3680 C   0  0  0  0  0  0  0  0  0  0  0  0
  131.7930  122.1920   60.8950 C   0  0  0  0  0  0  0  0  0  0  0  0
  130.5350  122.7610   60.1980 C   0  0  0  0  0  0  0  0  0  0  0  0
  126.9760  122.5490   60.9900 N   0  0  0  0  0  0  0  0  0  0  0  0
  125.8020  123.0890   60.5640 C   0  0  0  0  0  0  0  0  0  0  0  0
  124.6500  122.8700   61.3580 C   0  0  0  0  0  0  0  0  0  0  0  0
  123.4230  123.3980   60.9710 C   0  0  0  0  0  0  0  0  0  0  0  0
  123.3130  124.1440   59.8040 C   0  0  0  0  0  0  0  0  0  0  0  0
  124.4260  124.3770   59.0010 C   0  0  0  0  0  0  0  0  0  0  0  0
  125.7030  123.8560   59.3570 C   0  0  0  0  0  0  0  0  0  0  0  0
  127.0001  125.9078   57.5249 H   0  0  0  0  0  0  0  0  0  0  0  0
  127.8304  124.5368   56.7137 H   0  0  0  0  0  0  0  0  0  0  0  0
  126.0363  124.6272   56.7137 H   0  0  0  0  0  0  0  0  0  0  0  0
  129.0257  123.5974   58.4903 H   0  0  0  0  0  0  0  0  0  0  0  0
  128.5026  120.2825   61.1697 H   0  0  0  0  0  0  0  0  0  0  0  0
  129.4364  120.4122   59.6072 H   0  0  0  0  0  0  0  0  0  0  0  0
  130.6347  120.4482   62.4233 H   0  0  0  0  0  0  0  0  0  0  0  0
  130.6854  119.0762   61.2567 H   0  0  0  0  0  0  0  0  0  0  0  0
  132.9426  120.2574   62.4615 H   0  0  0  0  0  0  0  0  0  0  0  0
  133.1963  119.1629   61.0599 H   0  0  0  0  0  0  0  0  0  0  0  0
  133.9233  120.8055   61.0599 H   0  0  0  0  0  0  0  0  0  0  0  0
  131.7562  122.4375   61.9666 H   0  0  0  0  0  0  0  0  0  0  0  0
  132.6880  122.6375   60.4363 H   0  0  0  0  0  0  0  0  0  0  0  0
  130.5070  123.8485   60.3611 H   0  0  0  0  0  0  0  0  0  0  0  0
  130.6090  122.5042   59.1310 H   0  0  0  0  0  0  0  0  0  0  0  0
  124.7259  122.2805   62.2836 H   0  0  0  0  0  0  0  0  0  0  0  0
  122.5329  123.2237   61.5934 H   0  0  0  0  0  0  0  0  0  0  0  0
  122.3356  124.5551   59.5114 H   0  0  0  0  0  0  0  0  0  0  0  0
  124.3181  124.9703   58.0810 H   0  0  0  0  0  0  0  0  0  0  0  0
  1  2  1  0
  2  3  2  0
  3  4  1  0
  4  5  1  0
  5  6  1  0
  6  7  1  0
  7  8  1  0
  8  9  1  0
  8 10  1  0
 10 11  1  0
  4 12  2  0
 12 13  1  0
 13 14  2  0
 14 15  1  0
 15 16  2  0
 16 17  1  0
 17 18  2  0
 18  2  1  0
 11  5  1  0
 18 13  1  0
  1 19  1  0
  1 20  1  0
  1 21  1  0
  3 22  1  0
  6 23  1  0
  6 24  1  0
  7 25  1  0
  7 26  1  0
  9 27  1  0
  9 28  1  0
  9 29  1  0
 10 30  1  0
 10 31  1  0
 11 32  1  0
 11 33  1  0
 14 34  1  0
 15 35  1  0
 16 36  1  0
 17 37  1  0
M  END
>  <Binding energies>  (1) 
[-6.14]

>  <Ligand effiencies>  (1) 
[-0.3411111111111111]

>  <Interactions>  (1) 
["V-B:GLU:543:CD:9880, V-B:GLU:543:CG:9879, V-B:ASP:366:CG:8184, V-B:ALA:541:CB:9864, V-A:LEU:475:CD1:4258, V-B:TYR:539:CE2:9848, H-B:ALA:541:N:9863, V-B:PRO:540:CA:9855, V-B:TYR:539:CD2:9846, V-B:PRO:540:CB:9857, V-B:TYR:539:C:9839, V-B:PRO:540:C:9853, V-B:ASN:362:CB:8147, V-B:ASN:362:C:8143, V-B:LEU:363:CA:8156, V-B:LEU:363:CD1:8160"]

$$$$
RR32_Rahimova_2017-again1
     RDKit          3D

 38 40  0  0  0  0  0  0  0  0999 V2000
  131.9440  124.0820   59.6560 C   0  0  0  0  0  0  0  0  0  0  0  0
  130.6720  123.3800   60.1100 C   0  0  0  0  0  0  0  0  0  0  0  0
  129.4840  124.0970   60.2480 C   0  0  0  0  0  0  0  0  0  0  0  0
  128.3150  123.4490   60.6610 C   0  0  0  0  0  0  0  0  0  0  0  0
  127.1150  124.1500   60.8170 N   0  0  0  0  0  0  0  0  0  0  0  0
  127.0980  125.6250   60.7540 C   0  0  0  0  0  0  0  0  0  0  0  0
  126.9650  126.1570   59.3070 C   0  0  0  0  0  0  0  0  0  0  0  0
  125.6340  125.6500   58.7180 N   0  0  0  0  0  0  0  0  0  0  0  0
  125.4570  126.1380   57.2670 C   0  0  0  0  0  0  0  0  0  0  0  0
  125.6200  124.1090   58.7810 C   0  0  0  0  0  0  0  0  0  0  0  0
  125.8340  123.6740   60.2500 C   0  0  0  0  0  0  0  0  0  0  0  0
  128.3110  122.1210   60.9630 N   0  0  0  0  0  0  0  0  0  0  0  0
  129.4540  121.3950   60.8350 C   0  0  0  0  0  0  0  0  0  0  0  0
  129.4090  120.0140   61.1420 C   0  0  0  0  0  0  0  0  0  0  0  0
  130.5540  119.2320   61.0220 C   0  0  0  0  0  0  0  0  0  0  0  0
  131.7540  119.7960   60.6020 C   0  0  0  0  0  0  0  0  0  0  0  0
  131.8310  121.1520   60.2940 C   0  0  0  0  0  0  0  0  0  0  0  0
  130.6810  121.9830   60.4030 C   0  0  0  0  0  0  0  0  0  0  0  0
  132.5212  124.4006   60.5365 H   0  0  0  0  0  0  0  0  0  0  0  0
  132.5490  123.3900   59.0517 H   0  0  0  0  0  0  0  0  0  0  0  0
  131.6810  124.9627   59.0517 H   0  0  0  0  0  0  0  0  0  0  0  0
  129.4660  125.1753   60.0315 H   0  0  0  0  0  0  0  0  0  0  0  0
  126.2460  125.9931   61.3445 H   0  0  0  0  0  0  0  0  0  0  0  0
  128.0561  125.9868   61.1554 H   0  0  0  0  0  0  0  0  0  0  0  0
  126.9721  127.2570   59.3143 H   0  0  0  0  0  0  0  0  0  0  0  0
  127.8070  125.7997   58.6960 H   0  0  0  0  0  0  0  0  0  0  0  0
  124.8780  126.0010   59.2880 H   0  0  0  0  0  0  0  0  0  0  0  0
  125.0819  127.1721   57.2711 H   0  0  0  0  0  0  0  0  0  0  0  0
  126.4257  126.1014   56.7471 H   0  0  0  0  0  0  0  0  0  0  0  0
  124.7370  125.4889   56.7471 H   0  0  0  0  0  0  0  0  0  0  0  0
  124.6517  123.7320   58.4200 H   0  0  0  0  0  0  0  0  0  0  0  0
  126.4202  123.6993   58.1470 H   0  0  0  0  0  0  0  0  0  0  0  0
  125.0109  124.0778   60.8578 H   0  0  0  0  0  0  0  0  0  0  0  0
  125.8576  122.5744   60.2657 H   0  0  0  0  0  0  0  0  0  0  0  0
  128.4659  119.5573   61.4766 H   0  0  0  0  0  0  0  0  0  0  0  0
  130.5096  118.1593   61.2612 H   0  0  0  0  0  0  0  0  0  0  0  0
  132.6506  119.1651   60.5123 H   0  0  0  0  0  0  0  0  0  0  0  0
  132.7875  121.5837   59.9642 H   0  0  0  0  0  0  0  0  0  0  0  0
  1  2  1  0
  2  3  2  0
  3  4  1  0
  4  5  1  0
  5  6  1  0
  6  7  1  0
  7  8  1  0
  8  9  1  0
  8 10  1  0
 10 11  1  0
  4 12  2  0
 12 13  1  0
 13 14  2  0
 14 15  1  0
 15 16  2  0
 16 17  1  0
 17 18  2  0
 18  2  1  0
 11  5  1  0
 18 13  1  0
  1 19  1  0
  1 20  1  0
  1 21  1  0
  3 22  1  0
  6 23  1  0
  6 24  1  0
  7 25  1  0
  7 26  1  0
  8 27  1  0
  9 28  1  0
  9 29  1  0
  9 30  1  0
 10 31  1  0
 10 32  1  0
 11 33  1  0
 11 34  1  0
 14 35  1  0
 15 36  1  0
 16 37  1  0
 17 38  1  0
M  CHG  1   8   1
M  END
>  <Binding energies>  (1) 
[-6.34]

>  <Ligand effiencies>  (1) 
[-0.3336842105263158]

>  <Interactions>  (1) 
["V-B:GLU:543:CD:9880, H-B:ASP:366:OD1:8185, V-B:ALA:541:CB:9864, V-A:LEU:475:CD1:4258, V-B:TYR:539:CE2:9848, H-B:ALA:541:N:9863, V-B:PRO:540:CA:9855, V-B:TYR:539:CD2:9846, V-A:PRO:482:CG:4327, V-A:TRP:381:CZ2:3370, V-B:ALA:541:CA:9862, V-B:PRO:540:CB:9857, V-A:TRP:381:CH2:3372, V-A:PRO:482:CB:4326"]

$$$$
RR32_Rahimova_2017-again2
     RDKit          3D

 39 41  0  0  0  0  0  0  0  0999 V2000
  128.5580  132.1700   58.2500 C   0  0  0  0  0  0  0  0  0  0  0  0
  129.1740  132.0080   59.6330 C   0  0  0  0  0  0  0  0  0  0  0  0
  128.4130  132.2680   60.7760 C   0  0  0  0  0  0  0  0  0  0  0  0
  128.9640  132.1300   62.0570 C   0  0  0  0  0  0  0  0  0  0  0  0
  128.2180  132.3710   63.2660 N   0  0  0  0  0  0  0  0  0  0  0  0
  126.7310  132.3740   63.2570 C   0  0  0  0  0  0  0  0  0  0  0  0
  126.1770  130.9330   63.4140 C   0  0  0  0  0  0  0  0  0  0  0  0
  126.6800  130.3300   64.7480 N   0  0  0  0  0  0  0  0  0  0  0  0
  126.1970  128.8760   64.9130 C   0  0  0  0  0  0  0  0  0  0  0  0
  128.2240  130.4120   64.8230 C   0  0  0  0  0  0  0  0  0  0  0  0
  128.6690  131.8810   64.5940 C   0  0  0  0  0  0  0  0  0  0  0  0
  130.2490  131.7320   62.1510 N   0  0  0  0  0  0  0  0  0  0  0  0
  131.0730  131.4530   61.0850 C   0  0  0  0  0  0  0  0  0  0  0  0
  132.4090  131.0430   61.2960 C   0  0  0  0  0  0  0  0  0  0  0  0
  133.2140  130.7650   60.1940 C   0  0  0  0  0  0  0  0  0  0  0  0
  132.7130  130.8910   58.9000 C   0  0  0  0  0  0  0  0  0  0  0  0
  131.3970  131.2950   58.6780 C   0  0  0  0  0  0  0  0  0  0  0  0
  130.5350  131.5900   59.7720 C   0  0  0  0  0  0  0  0  0  0  0  0
  127.4986  132.4486   58.3508 H   0  0  0  0  0  0  0  0  0  0  0  0
  129.0936  132.9578   57.7000 H   0  0  0  0  0  0  0  0  0  0  0  0
  128.6367  131.2206   57.7000 H   0  0  0  0  0  0  0  0  0  0  0  0
  127.3654  132.5858   60.6684 H   0  0  0  0  0  0  0  0  0  0  0  0
  126.3664  132.9934   64.0897 H   0  0  0  0  0  0  0  0  0  0  0  0
  126.3847  132.7826   62.2962 H   0  0  0  0  0  0  0  0  0  0  0  0
  125.0774  130.9610   63.4157 H   0  0  0  0  0  0  0  0  0  0  0  0
  126.5264  130.3122   62.5758 H   0  0  0  0  0  0  0  0  0  0  0  0
  126.3050  130.8910   65.5010 H   0  0  0  0  0  0  0  0  0  0  0  0
  126.1171  128.6354   65.9834 H   0  0  0  0  0  0  0  0  0  0  0  0
  125.2122  128.7605   64.4367 H   0  0  0  0  0  0  0  0  0  0  0  0
  126.9169  128.1942   64.4367 H   0  0  0  0  0  0  0  0  0  0  0  0
  128.5626  130.0753   65.8140 H   0  0  0  0  0  0  0  0  0  0  0  0
  128.6662  129.7671   64.0493 H   0  0  0  0  0  0  0  0  0  0  0  0
  128.2328  132.5159   65.3792 H   0  0  0  0  0  0  0  0  0  0  0  0
  129.7675  131.9250   64.6302 H   0  0  0  0  0  0  0  0  0  0  0  0
  130.6340  131.6240   63.0770 H   0  0  0  0  0  0  0  0  0  0  0  0
  132.8075  130.9448   62.3166 H   0  0  0  0  0  0  0  0  0  0  0  0
  134.2547  130.4431   60.3466 H   0  0  0  0  0  0  0  0  0  0  0  0
  133.3644  130.6688   58.0419 H   0  0  0  0  0  0  0  0  0  0  0  0
  131.0214  131.3866   57.6482 H   0  0  0  0  0  0  0  0  0  0  0  0
  1  2  1  0
  2  3  2  0
  3  4  1  0
  4  5  1  0
  5  6  1  0
  6  7  1  0
  7  8  1  0
  8  9  1  0
  8 10  1  0
 10 11  1  0
  4 12  2  0
 12 13  1  0
 13 14  2  0
 14 15  1  0
 15 16  2  0
 16 17  1  0
 17 18  2  0
 18  2  1  0
 11  5  1  0
 18 13  1  0
  1 19  1  0
  1 20  1  0
  1 21  1  0
  3 22  1  0
  6 23  1  0
  6 24  1  0
  7 25  1  0
  7 26  1  0
  8 27  1  0
  9 28  1  0
  9 29  1  0
  9 30  1  0
 10 31  1  0
 10 32  1  0
 11 33  1  0
 11 34  1  0
 12 35  1  0
 14 36  1  0
 15 37  1  0
 16 38  1  0
 17 39  1  0
M  CHG  2   8   1  12   1
M  END
>  <Binding energies>  (1) 
[-6.89]

>  <Ligand effiencies>  (1) 
[-0.3445]

>  <Interactions>  (1) 
["V-B:GLU:543:CD:9880, H-A:GLU:543:OE1:4909, V-A:GLU:543:CD:4908, V-A:ALA:541:CA:4890, V-B:LEU:475:CD1:9229, V-A:PRO:540:CA:4883, V-A:TYR:539:CE2:4876, V-A:ALA:541:CB:4892, H-B:TYR:484:OH:9319, V-A:TYR:539:CD2:4874, V-A:GLU:543:CB:4906, V-A:ASP:366:CG:3213, V-A:TYR:539:CZ:4877, V-A:PRO:540:CB:4885, V-A:ASN:362:CB:3176"]

$$$$
RR33_Rahimova_2017
     RDKit          3D

 36 37  0  0  0  0  0  0  0  0999 V2000
  125.7500  126.6300   74.2460 C   0  0  0  0  0  0  0  0  0  0  0  0
  127.2430  126.9660   74.3080 C   0  0  0  0  0  0  0  0  0  0  0  0
  127.9790  125.8920   73.7300 O   0  0  0  0  0  0  0  0  0  0  0  0
  128.2650  125.9160   72.3780 C   0  0  0  0  0  0  0  0  0  0  0  0
  127.6230  126.8980   71.6250 C   0  0  0  0  0  0  0  0  0  0  0  0
  127.8460  126.9980   70.2540 C   0  0  0  0  0  0  0  0  0  0  0  0
  128.7200  126.1130   69.6150 C   0  0  0  0  0  0  0  0  0  0  0  0
  128.9590  126.2210   68.1430 C   0  0  0  0  0  0  0  0  0  0  0  0
  129.5950  125.3700   67.3690 N   0  0  0  0  0  0  0  0  0  0  0  0
  129.5440  125.8960   66.1550 C   0  0  0  0  0  0  0  0  0  0  0  0
  130.1690  125.1870   64.9730 C   0  0  0  0  0  0  0  0  0  0  0  0
  130.7040  123.8940   65.3740 N   0  0  0  0  0  0  0  0  0  0  0  0
  129.7660  122.8300   65.0590 C   0  0  0  0  0  0  0  0  0  0  0  0
  128.8570  127.1030   66.1980 C   0  0  0  0  0  0  0  0  0  0  0  0
  128.4660  128.1520   65.1860 C   0  0  0  0  0  0  0  0  0  0  0  0
  128.4830  127.3080   67.4820 O   0  0  0  0  0  0  0  0  0  0  0  0
  129.3690  125.1300   70.3680 C   0  0  0  0  0  0  0  0  0  0  0  0
  129.1450  125.0290   71.7390 C   0  0  0  0  0  0  0  0  0  0  0  0
  125.3516  126.5403   75.2674 H   0  0  0  0  0  0  0  0  0  0  0  0
  125.2159  127.4304   73.7130 H   0  0  0  0  0  0  0  0  0  0  0  0
  125.6102  125.6779   73.7130 H   0  0  0  0  0  0  0  0  0  0  0  0
  127.4373  127.8918   73.7466 H   0  0  0  0  0  0  0  0  0  0  0  0
  127.5508  127.1100   75.3542 H   0  0  0  0  0  0  0  0  0  0  0  0
  126.9343  127.5999   72.1180 H   0  0  0  0  0  0  0  0  0  0  0  0
  127.3323  127.7767   69.6711 H   0  0  0  0  0  0  0  0  0  0  0  0
  129.4046  125.0366   64.1964 H   0  0  0  0  0  0  0  0  0  0  0  0
  130.9914  125.8052   64.5836 H   0  0  0  0  0  0  0  0  0  0  0  0
  130.8720  123.8990   66.3710 H   0  0  0  0  0  0  0  0  0  0  0  0
  129.3806  122.3928   65.9919 H   0  0  0  0  0  0  0  0  0  0  0  0
  128.9299  123.2398   64.4733 H   0  0  0  0  0  0  0  0  0  0  0  0
  130.2774  122.0519   64.4733 H   0  0  0  0  0  0  0  0  0  0  0  0
  128.1281  129.0585   65.7095 H   0  0  0  0  0  0  0  0  0  0  0  0
  129.3340  128.3947   64.5554 H   0  0  0  0  0  0  0  0  0  0  0  0
  127.6509  127.7674   64.5554 H   0  0  0  0  0  0  0  0  0  0  0  0
  130.0611  124.4318   69.8745 H   0  0  0  0  0  0  0  0  0  0  0  0
  129.6595  124.2515   72.3228 H   0  0  0  0  0  0  0  0  0  0  0  0
  1  2  1  0
  2  3  1  0
  3  4  1  0
  4  5  2  0
  5  6  1  0
  6  7  2  0
  7  8  1  0
  8  9  2  0
  9 10  1  0
 10 11  1  0
 11 12  1  0
 12 13  1  0
 10 14  2  0
 14 15  1  0
 14 16  1  0
  7 17  1  0
 17 18  2  0
 18  4  1  0
 16  8  1  0
  1 19  1  0
  1 20  1  0
  1 21  1  0
  2 22  1  0
  2 23  1  0
  5 24  1  0
  6 25  1  0
 11 26  1  0
 11 27  1  0
 12 28  1  0
 13 29  1  0
 13 30  1  0
 13 31  1  0
 15 32  1  0
 15 33  1  0
 15 34  1  0
 17 35  1  0
 18 36  1  0
M  END
>  <Binding energies>  (1) 
[-5.22]

>  <Ligand effiencies>  (1) 
[-0.27473684210526317]

>  <Interactions>  (1) 
["V-A:HIS:456:CD2:4068, H-B:LYS:547:NZ:9923, V-B:GLU:543:CB:9878, V-A:HIS:456:CE1:4069, V-B:HIS:456:CE1:9040, V-B:GLU:543:CG:9879, V-A:GLU:543:CD:4908, V-B:ALA:541:CB:9864, V-B:GLU:543:CA:9876, V-A:TYR:484:CZ:4347, V-A:TYR:484:CE1:4345, H-A:TYR:484:OH:4348, V-B:GLY:544:C:9884, V-B:LYS:547:CD:9921, V-B:LYS:547:CE:9922"]

$$$$
RR33_Rahimova_2017-again1
     RDKit          3D

 37 38  0  0  0  0  0  0  0  0999 V2000
  125.7440  126.6280   74.1700 C   0  0  0  0  0  0  0  0  0  0  0  0
  127.2360  126.9690   74.2120 C   0  0  0  0  0  0  0  0  0  0  0  0
  127.9690  125.8920   73.6360 O   0  0  0  0  0  0  0  0  0  0  0  0
  128.2670  125.9180   72.2870 C   0  0  0  0  0  0  0  0  0  0  0  0
  127.6500  126.9160   71.5330 C   0  0  0  0  0  0  0  0  0  0  0  0
  127.8890  127.0230   70.1650 C   0  0  0  0  0  0  0  0  0  0  0  0
  128.7530  126.1270   69.5290 C   0  0  0  0  0  0  0  0  0  0  0  0
  129.0140  126.2390   68.0610 C   0  0  0  0  0  0  0  0  0  0  0  0
  128.4390  127.0540   67.2040 N   0  0  0  0  0  0  0  0  0  0  0  0
  128.9970  126.7850   66.0330 C   0  0  0  0  0  0  0  0  0  0  0  0
  128.5790  127.5240   64.7770 C   0  0  0  0  0  0  0  0  0  0  0  0
  127.1840  128.1330   64.9920 N   0  0  0  0  0  0  0  0  0  0  0  0
  127.1910  129.6650   65.0910 C   0  0  0  0  0  0  0  0  0  0  0  0
  129.9330  125.7690   66.1880 C   0  0  0  0  0  0  0  0  0  0  0  0
  130.8730  125.0250   65.2730 C   0  0  0  0  0  0  0  0  0  0  0  0
  129.9400  125.4230   67.4970 O   0  0  0  0  0  0  0  0  0  0  0  0
  129.3750  125.1240   70.2820 C   0  0  0  0  0  0  0  0  0  0  0  0
  129.1350  125.0190   71.6490 C   0  0  0  0  0  0  0  0  0  0  0  0
  125.3590  126.5400   75.1966 H   0  0  0  0  0  0  0  0  0  0  0  0
  125.2004  127.4251   73.6416 H   0  0  0  0  0  0  0  0  0  0  0  0
  125.6007  125.6739   73.6416 H   0  0  0  0  0  0  0  0  0  0  0  0
  127.4211  127.8900   73.6398 H   0  0  0  0  0  0  0  0  0  0  0  0
  127.5550  127.1238   75.2533 H   0  0  0  0  0  0  0  0  0  0  0  0
  126.9677  127.6258   72.0237 H   0  0  0  0  0  0  0  0  0  0  0  0
  127.3960  127.8156   69.5830 H   0  0  0  0  0  0  0  0  0  0  0  0
  129.3017  128.3253   64.5634 H   0  0  0  0  0  0  0  0  0  0  0  0
  128.5513  126.8252   63.9279 H   0  0  0  0  0  0  0  0  0  0  0  0
  126.5860  127.8570   64.2270 H   0  0  0  0  0  0  0  0  0  0  0  0
  126.7940  127.7530   65.8440 H   0  0  0  0  0  0  0  0  0  0  0  0
  127.1924  129.9640   66.1496 H   0  0  0  0  0  0  0  0  0  0  0  0
  128.0910  130.0602   64.5972 H   0  0  0  0  0  0  0  0  0  0  0  0
  126.2947  130.0684   64.5972 H   0  0  0  0  0  0  0  0  0  0  0  0
  131.5949  124.4536   65.8749 H   0  0  0  0  0  0  0  0  0  0  0  0
  130.2974  124.3351   64.6383 H   0  0  0  0  0  0  0  0  0  0  0  0
  131.4123  125.7436   64.6383 H   0  0  0  0  0  0  0  0  0  0  0  0
  130.0573  124.4148   69.7905 H   0  0  0  0  0  0  0  0  0  0  0  0
  129.6283  124.2273   72.2320 H   0  0  0  0  0  0  0  0  0  0  0  0
  1  2  1  0
  2  3  1  0
  3  4  1  0
  4  5  2  0
  5  6  1  0
  6  7  2  0
  7  8  1  0
  8  9  2  0
  9 10  1  0
 10 11  1  0
 11 12  1  0
 12 13  1  0
 10 14  2  0
 14 15  1  0
 14 16  1  0
  7 17  1  0
 17 18  2  0
 18  4  1  0
 16  8  1  0
  1 19  1  0
  1 20  1  0
  1 21  1  0
  2 22  1  0
  2 23  1  0
  5 24  1  0
  6 25  1  0
 11 26  1  0
 11 27  1  0
 12 28  1  0
 12 29  1  0
 13 30  1  0
 13 31  1  0
 13 32  1  0
 15 33  1  0
 15 34  1  0
 15 35  1  0
 17 36  1  0
 18 37  1  0
M  CHG  1  12   1
M  END
>  <Binding energies>  (1) 
[-6.13]

>  <Ligand effiencies>  (1) 
[-0.3065]

>  <Interactions>  (1) 
["V-A:HIS:456:CD2:4068, V-B:GLU:543:CD:9880, H-B:LYS:547:NZ:9923, V-A:HIS:456:CE1:4069, H-A:HIS:456:NE2:4070, V-B:HIS:456:CE1:9040, V-A:GLU:543:CD:4908, H-A:TYR:484:OH:4348, V-B:GLY:544:C:9884, H-B:GLU:543:OE1:9881, H-B:GLU:543:OE2:9882, V-B:LYS:547:CD:9921, V-B:LYS:547:CE:9922"]

$$$$
RR3_Rahimova_2017
     RDKit          3D

 63 69  0  0  0  0  0  0  0  0999 V2000
  123.9410  132.1790   62.3160 C   0  0  0  0  0  0  0  0  0  0  0  0
  123.4120  130.9380   62.6570 C   0  0  0  0  0  0  0  0  0  0  0  0
  124.1060  130.1110   63.5350 C   0  0  0  0  0  0  0  0  0  0  0  0
  125.3340  130.5100   64.0830 C   0  0  0  0  0  0  0  0  0  0  0  0
  126.0790  129.6190   65.0270 C   0  0  0  0  0  0  0  0  0  0  0  0
  127.4660  129.4510   64.9160 C   0  0  0  0  0  0  0  0  0  0  0  0
  128.1570  128.6190   65.7930 C   0  0  0  0  0  0  0  0  0  0  0  0
  127.4740  127.9300   66.7980 C   0  0  0  0  0  0  0  0  0  0  0  0
  128.2110  127.0300   67.7410 C   0  0  0  0  0  0  0  0  0  0  0  0
  128.3140  127.3540   69.0250 N   0  0  0  0  0  0  0  0  0  0  0  0
  128.9620  126.3740   69.6080 C   0  0  0  0  0  0  0  0  0  0  0  0
  129.2980  126.3150   71.0280 C   0  0  0  0  0  0  0  0  0  0  0  0
  129.0560  127.3100   71.9600 C   0  0  0  0  0  0  0  0  0  0  0  0
  129.4930  126.9150   73.1970 N   0  0  0  0  0  0  0  0  0  0  0  0
  130.0380  125.6520   73.1210 C   0  0  0  0  0  0  0  0  0  0  0  0
  130.6070  124.8410   74.1090 C   0  0  0  0  0  0  0  0  0  0  0  0
  131.0790  123.5920   73.7090 C   0  0  0  0  0  0  0  0  0  0  0  0
  130.9910  123.1630   72.3890 C   0  0  0  0  0  0  0  0  0  0  0  0
  130.4240  123.9690   71.4040 C   0  0  0  0  0  0  0  0  0  0  0  0
  129.9330  125.2400   71.7550 C   0  0  0  0  0  0  0  0  0  0  0  0
  129.2950  125.4030   68.7050 N   0  0  0  0  0  0  0  0  0  0  0  0
  128.8440  125.8040   67.4730 C   0  0  0  0  0  0  0  0  0  0  0  0
  129.0820  125.0170   66.2270 C   0  0  0  0  0  0  0  0  0  0  0  0
  129.0200  125.6430   64.9810 C   0  0  0  0  0  0  0  0  0  0  0  0
  129.2280  124.9110   63.8170 C   0  0  0  0  0  0  0  0  0  0  0  0
  129.5080  123.5370   63.8690 C   0  0  0  0  0  0  0  0  0  0  0  0
  129.7120  122.7490   62.6140 C   0  0  0  0  0  0  0  0  0  0  0  0
  130.8530  121.9500   62.4440 C   0  0  0  0  0  0  0  0  0  0  0  0
  131.0410  121.2120   61.2770 C   0  0  0  0  0  0  0  0  0  0  0  0
  130.0860  121.2660   60.2660 C   0  0  0  0  0  0  0  0  0  0  0  0
  128.9480  122.0510   60.4140 C   0  0  0  0  0  0  0  0  0  0  0  0
  128.7640  122.7880   61.5810 C   0  0  0  0  0  0  0  0  0  0  0  0
  129.5850  122.9240   65.1270 C   0  0  0  0  0  0  0  0  0  0  0  0
  129.3770  123.6540   66.2940 C   0  0  0  0  0  0  0  0  0  0  0  0
  126.0950  128.1010   66.9250 C   0  0  0  0  0  0  0  0  0  0  0  0
  125.4060  128.9330   66.0470 C   0  0  0  0  0  0  0  0  0  0  0  0
  125.8480  131.7650   63.7240 C   0  0  0  0  0  0  0  0  0  0  0  0
  125.1570  132.5960   62.8470 C   0  0  0  0  0  0  0  0  0  0  0  0
  123.3941  132.8343   61.6222 H   0  0  0  0  0  0  0  0  0  0  0  0
  122.4500  130.6123   62.2346 H   0  0  0  0  0  0  0  0  0  0  0  0
  123.6856  129.1305   63.8031 H   0  0  0  0  0  0  0  0  0  0  0  0
  128.0158  129.9833   64.1258 H   0  0  0  0  0  0  0  0  0  0  0  0
  129.2464  128.5037   65.6939 H   0  0  0  0  0  0  0  0  0  0  0  0
  128.5816  128.2776   71.7392 H   0  0  0  0  0  0  0  0  0  0  0  0
  129.4060  127.4990   74.0150 H   0  0  0  0  0  0  0  0  0  0  0  0
  130.6787  125.1743   75.1549 H   0  0  0  0  0  0  0  0  0  0  0  0
  131.5337  122.9272   74.4582 H   0  0  0  0  0  0  0  0  0  0  0  0
  131.3761  122.1690   72.1176 H   0  0  0  0  0  0  0  0  0  0  0  0
  130.3610  123.6158   70.3642 H   0  0  0  0  0  0  0  0  0  0  0  0
  129.8080  124.5560   68.9030 H   0  0  0  0  0  0  0  0  0  0  0  0
  128.8057  126.7202   64.9195 H   0  0  0  0  0  0  0  0  0  0  0  0
  129.1722  125.4164   62.8415 H   0  0  0  0  0  0  0  0  0  0  0  0
  131.6087  121.9057   63.2421 H   0  0  0  0  0  0  0  0  0  0  0  0
  131.9399  120.5897   61.1554 H   0  0  0  0  0  0  0  0  0  0  0  0
  130.2324  120.6840   59.3441 H   0  0  0  0  0  0  0  0  0  0  0  0
  128.1959  122.0897   59.6122 H   0  0  0  0  0  0  0  0  0  0  0  0
  127.8632  123.4091   61.6943 H   0  0  0  0  0  0  0  0  0  0  0  0
  129.8132  121.8500   65.1932 H   0  0  0  0  0  0  0  0  0  0  0  0
  129.4453  123.1553   67.2721 H   0  0  0  0  0  0  0  0  0  0  0  0
  125.5496  127.5757   67.7229 H   0  0  0  0  0  0  0  0  0  0  0  0
  124.3180  129.0537   66.1554 H   0  0  0  0  0  0  0  0  0  0  0  0
  126.8102  132.0968   64.1413 H   0  0  0  0  0  0  0  0  0  0  0  0
  125.5708  133.5783   62.5750 H   0  0  0  0  0  0  0  0  0  0  0  0
  1  2  2  0
  2  3  1  0
  3  4  2  0
  4  5  1  0
  5  6  2  0
  6  7  1  0
  7  8  2  0
  8  9  1  0
  9 10  1  0
 10 11  2  0
 11 12  1  0
 12 13  2  0
 13 14  1  0
 14 15  1  0
 15 16  2  0
 16 17  1  0
 17 18  2  0
 18 19  1  0
 19 20  2  0
 11 21  1  0
 21 22  1  0
 22 23  1  0
 23 24  2  0
 24 25  1  0
 25 26  2  0
 26 27  1  0
 27 28  2  0
 28 29  1  0
 29 30  2  0
 30 31  1  0
 31 32  2  0
 26 33  1  0
 33 34  2  0
  8 35  1  0
 35 36  2  0
  4 37  1  0
 37 38  2  0
 38  1  1  0
 36  5  1  0
 22  9  2  0
 34 23  1  0
 20 12  1  0
 32 27  1  0
 20 15  1  0
  1 39  1  0
  2 40  1  0
  3 41  1  0
  6 42  1  0
  7 43  1  0
 13 44  1  0
 14 45  1  0
 16 46  1  0
 17 47  1  0
 18 48  1  0
 19 49  1  0
 21 50  1  0
 24 51  1  0
 25 52  1  0
 28 53  1  0
 29 54  1  0
 30 55  1  0
 31 56  1  0
 32 57  1  0
 33 58  1  0
 34 59  1  0
 35 60  1  0
 36 61  1  0
 37 62  1  0
 38 63  1  0
M  END
>  <Binding energies>  (1) 
[-10.36]

>  <Ligand effiencies>  (1) 
[-0.259]

>  <Interactions>  (1) 
["V-B:ARG:545:CG:9894, H-B:HIS:456:NE2:9041, V-A:HIS:456:CD2:4068, V-B:GLU:543:CD:9880, V-B:GLU:543:C:9874, V-B:GLU:543:CB:9878, V-A:HIS:456:CE1:4069, V-B:ARG:545:CZ:9898, V-B:ARG:545:CD:9895, V-B:HIS:456:CE1:9040, V-B:GLU:543:CG:9879, V-A:GLU:543:CD:4908, V-B:GLY:454:CA:9020, V-B:LEU:475:CD1:9229, V-B:ILE:369:CD1:8210, V-B:ALA:541:CB:9864, V-B:GLU:543:CA:9876, V-A:TYR:484:CZ:4347, V-A:LEU:475:CD1:4258, V-A:GLU:543:CB:4906, V-A:TYR:484:CE1:4345, H-A:TYR:484:OH:4348, V-B:TYR:539:CE2:9848, V-B:TYR:539:CD2:9846, V-A:HIS:456:CG:4066, V-A:TYR:484:CD2:4344, V-A:TYR:484:CE2:4346, V-A:HIS:456:CB:4065, V-A:TYR:484:CG:4342, H-B:GLU:543:O:9875"]

$$$$
RR4_Rahimova_2017
     RDKit          3D

 66 70  0  0  0  0  0  0  0  0999 V2000
  123.4370  131.6320   76.0170 C   0  0  0  0  0  0  0  0  0  0  0  0
  123.9590  130.3980   76.4970 O   0  0  0  0  0  0  0  0  0  0  0  0
  124.6860  129.5950   75.6390 C   0  0  0  0  0  0  0  0  0  0  0  0
  125.9880  130.0000   75.3560 C   0  0  0  0  0  0  0  0  0  0  0  0
  126.7950  129.2520   74.5030 C   0  0  0  0  0  0  0  0  0  0  0  0
  126.3200  128.0750   73.9050 C   0  0  0  0  0  0  0  0  0  0  0  0
  127.1930  127.2710   72.9850 C   0  0  0  0  0  0  0  0  0  0  0  0
  128.3510  126.6170   73.4180 C   0  0  0  0  0  0  0  0  0  0  0  0
  129.1300  125.8750   72.5200 C   0  0  0  0  0  0  0  0  0  0  0  0
  130.3370  125.1810   73.0610 C   0  0  0  0  0  0  0  0  0  0  0  0
  131.2210  125.8630   73.9030 C   0  0  0  0  0  0  0  0  0  0  0  0
  132.3430  125.2200   74.4200 C   0  0  0  0  0  0  0  0  0  0  0  0
  132.5980  123.8840   74.1130 C   0  0  0  0  0  0  0  0  0  0  0  0
  133.7340  123.3290   74.6730 O   0  0  0  0  0  0  0  0  0  0  0  0
  134.6560  124.1740   75.3540 C   0  0  0  0  0  0  0  0  0  0  0  0
  131.7110  123.1940   73.2730 C   0  0  0  0  0  0  0  0  0  0  0  0
  130.5900  123.8390   72.7570 C   0  0  0  0  0  0  0  0  0  0  0  0
  128.7330  125.8270   71.1620 C   0  0  0  0  0  0  0  0  0  0  0  0
  129.5110  125.0640   70.1810 C   0  0  0  0  0  0  0  0  0  0  0  0
  130.1250  124.4620   69.4070 N   0  0  0  0  0  0  0  0  0  0  0  0
  127.5680  126.5350   70.7870 C   0  0  0  0  0  0  0  0  0  0  0  0
  126.9290  126.5970   69.1270 S   0  0  0  0  0  0  0  0  0  0  0  0
  128.3190  126.9810   68.0100 C   0  0  0  0  0  0  0  0  0  0  0  0
  128.0950  128.2040   67.1100 C   0  0  0  0  0  0  0  0  0  0  0  0
  128.6880  129.2620   67.3320 O   0  0  0  0  0  0  0  0  0  0  0  0
  127.2080  128.0130   66.1060 N   0  0  0  0  0  0  0  0  0  0  0  0
  126.7950  128.9200   65.1270 C   0  0  0  0  0  0  0  0  0  0  0  0
  127.7590  129.3120   63.7290 S   0  0  0  0  0  0  0  0  0  0  0  0
  126.5590  130.4210   63.1420 C   0  0  0  0  0  0  0  0  0  0  0  0
  125.4530  130.4880   64.0030 C   0  0  0  0  0  0  0  0  0  0  0  0
  125.5810  129.6250   65.1190 C   0  0  0  0  0  0  0  0  0  0  0  0
  124.5610  129.4920   66.1540 C   0  0  0  0  0  0  0  0  0  0  0  0
  123.7510  129.3870   66.9750 N   0  0  0  0  0  0  0  0  0  0  0  0
  124.2400  131.3700   63.6850 C   0  0  0  0  0  0  0  0  0  0  0  0
  124.2490  131.7950   62.1990 C   0  0  0  0  0  0  0  0  0  0  0  0
  125.6370  132.2790   61.7430 C   0  0  0  0  0  0  0  0  0  0  0  0
  126.6950  131.1580   61.8160 C   0  0  0  0  0  0  0  0  0  0  0  0
  126.8160  127.2190   71.6820 N   0  0  0  0  0  0  0  0  0  0  0  0
  125.0080  127.6730   74.2000 C   0  0  0  0  0  0  0  0  0  0  0  0
  124.1990  128.4190   75.0520 C   0  0  0  0  0  0  0  0  0  0  0  0
  123.1663  132.2720   76.8697 H   0  0  0  0  0  0  0  0  0  0  0  0
  124.1978  132.1388   75.4052 H   0  0  0  0  0  0  0  0  0  0  0  0
  122.5435  131.4389   75.4052 H   0  0  0  0  0  0  0  0  0  0  0  0
  126.3829  130.9203   75.8111 H   0  0  0  0  0  0  0  0  0  0  0  0
  127.8211  129.5891   74.2946 H   0  0  0  0  0  0  0  0  0  0  0  0
  128.6531  126.6857   74.4735 H   0  0  0  0  0  0  0  0  0  0  0  0
  131.0287  126.9154   74.1589 H   0  0  0  0  0  0  0  0  0  0  0  0
  133.0336  125.7705   75.0758 H   0  0  0  0  0  0  0  0  0  0  0  0
  134.5278  124.0565   76.4402 H   0  0  0  0  0  0  0  0  0  0  0  0
  135.6831  123.8970   75.0739 H   0  0  0  0  0  0  0  0  0  0  0  0
  134.4694  125.2213   75.0739 H   0  0  0  0  0  0  0  0  0  0  0  0
  131.9017  122.1403   73.0213 H   0  0  0  0  0  0  0  0  0  0  0  0
  129.8968  123.2882   72.1042 H   0  0  0  0  0  0  0  0  0  0  0  0
  129.2123  127.1661   68.6246 H   0  0  0  0  0  0  0  0  0  0  0  0
  128.4289  126.1159   67.3395 H   0  0  0  0  0  0  0  0  0  0  0  0
  126.7930  127.0950   66.0370 H   0  0  0  0  0  0  0  0  0  0  0  0
  123.3188  130.8063   63.8939 H   0  0  0  0  0  0  0  0  0  0  0  0
  124.2849  132.2729   64.3117 H   0  0  0  0  0  0  0  0  0  0  0  0
  123.9535  130.9336   61.5820 H   0  0  0  0  0  0  0  0  0  0  0  0
  123.5437  132.6309   62.0818 H   0  0  0  0  0  0  0  0  0  0  0  0
  125.5657  132.6325   60.7038 H   0  0  0  0  0  0  0  0  0  0  0  0
  125.9528  133.0876   62.4186 H   0  0  0  0  0  0  0  0  0  0  0  0
  126.5404  130.4526   60.9863 H   0  0  0  0  0  0  0  0  0  0  0  0
  127.7011  131.5962   61.7402 H   0  0  0  0  0  0  0  0  0  0  0  0
  124.6118  126.7511   73.7494 H   0  0  0  0  0  0  0  0  0  0  0  0
  123.1731  128.0844   75.2656 H   0  0  0  0  0  0  0  0  0  0  0  0
  1  2  1  0
  2  3  1  0
  3  4  2  0
  4  5  1  0
  5  6  2  0
  6  7  1  0
  7  8  2  0
  8  9  1  0
  9 10  1  0
 10 11  2  0
 11 12  1  0
 12 13  2  0
 13 14  1  0
 14 15  1  0
 13 16  1  0
 16 17  2  0
  9 18  2  0
 18 19  1  0
 19 20  3  0
 18 21  1  0
 21 22  1  0
 22 23  1  0
 23 24  1  0
 24 25  2  0
 24 26  1  0
 26 27  1  0
 27 28  1  0
 28 29  1  0
 29 30  2  0
 30 31  1  0
 31 32  1  0
 32 33  3  0
 30 34  1  0
 34 35  1  0
 35 36  1  0
 36 37  1  0
 21 38  2  0
  6 39  1  0
 39 40  2  0
 40  3  1  0
 38  7  1  0
 17 10  1  0
 31 27  2  0
 37 29  1  0
  1 41  1  0
  1 42  1  0
  1 43  1  0
  4 44  1  0
  5 45  1  0
  8 46  1  0
 11 47  1  0
 12 48  1  0
 15 49  1  0
 15 50  1  0
 15 51  1  0
 16 52  1  0
 17 53  1  0
 23 54  1  0
 23 55  1  0
 26 56  1  0
 34 57  1  0
 34 58  1  0
 35 59  1  0
 35 60  1  0
 36 61  1  0
 36 62  1  0
 37 63  1  0
 37 64  1  0
 39 65  1  0
 40 66  1  0
M  END
>  <Binding energies>  (1) 
[-10.44]

>  <Ligand effiencies>  (1) 
[-0.2546341463414634]

>  <Interactions>  (1) 
["V-B:ARG:545:CG:9894, H-B:HIS:456:NE2:9041, V-A:HIS:456:CD2:4068, V-B:GLU:543:CD:9880, V-B:HIS:456:CD2:9039, V-A:HIS:456:CE1:4069, V-B:ARG:545:CZ:9898, H-A:HIS:456:NE2:4070, V-B:ARG:545:CD:9895, V-B:HIS:456:CE1:9040, V-B:GLY:454:CA:9020, H-B:ILE:455:N:9026, H-B:TYR:484:OH:9319, H-B:ARG:545:NE:9896, H-A:TYR:484:OH:4348, V-B:GLY:544:C:9884, H-B:ARG:545:N:9892, V-A:HIS:456:CG:4066, H-B:GLU:543:OE1:9881, V-A:HIS:456:CB:4065, V-B:HIS:456:CB:9036, V-B:HIS:456:C:9032, V-B:VAL:458:CG2:9058, V-B:VAL:457:C:9044, V-B:HIS:456:CG:9037, V-B:HIS:456:CA:9034, V-A:VAL:458:CG2:4087, V-A:HIS:456:C:4061, V-B:VAL:457:CA:9046, V-B:LYS:471:CE:9191, V-A:ASP:473:CB:4239, V-B:LYS:471:CG:9189, V-B:ASP:473:CG:9211, V-B:ASP:473:CB:9210, V-B:LYS:471:C:9184, V-B:LEU:472:CA:9199, V-B:LEU:472:C:9197"]

$$$$
RR5_Rahimova_2017
     RDKit          3D

 77 82  0  0  0  0  0  0  0  0999 V2000
  128.3930  122.4460   59.0600 O   0  0  0  0  0  0  0  0  0  0  0  0
  128.1070  123.0930   60.0670 C   0  0  0  0  0  0  0  0  0  0  0  0
  126.6360  123.4540   60.3490 C   0  0  0  0  0  0  0  0  0  0  0  0
  126.1160  124.6920   59.5350 C   0  0  2  0  0  0  0  0  0  0  0  0
  125.9590  125.9330   60.3210 N   0  0  0  0  0  0  0  0  0  0  0  0
  127.0260  126.5050   60.9980 C   0  0  0  0  0  0  0  0  0  0  0  0
  128.1950  126.1090   61.0000 O   0  0  0  0  0  0  0  0  0  0  0  0
  126.5740  127.5730   61.6790 O   0  0  0  0  0  0  0  0  0  0  0  0
  127.1970  128.0040   62.8850 C   0  0  0  0  0  0  0  0  0  0  0  0
  126.6810  129.3990   63.3010 C   0  0  0  0  0  0  0  0  0  0  0  0
  125.6510  129.9770   62.3470 C   0  0  0  0  0  0  0  0  0  0  0  0
  125.7560  130.2400   60.9780 C   0  0  0  0  0  0  0  0  0  0  0  0
  124.6610  130.7580   60.2830 C   0  0  0  0  0  0  0  0  0  0  0  0
  123.4640  131.0160   60.9530 C   0  0  0  0  0  0  0  0  0  0  0  0
  123.3580  130.7560   62.3210 C   0  0  0  0  0  0  0  0  0  0  0  0
  124.4540  130.2390   63.0130 C   0  0  0  0  0  0  0  0  0  0  0  0
  124.6240  129.8850   64.4320 C   0  0  0  0  0  0  0  0  0  0  0  0
  123.7420  129.9680   65.5120 C   0  0  0  0  0  0  0  0  0  0  0  0
  124.1690  129.5800   66.7820 C   0  0  0  0  0  0  0  0  0  0  0  0
  125.4700  129.1090   66.9710 C   0  0  0  0  0  0  0  0  0  0  0  0
  126.3460  129.0240   65.8890 C   0  0  0  0  0  0  0  0  0  0  0  0
  125.9220  129.4080   64.6140 C   0  0  0  0  0  0  0  0  0  0  0  0
  124.7850  124.3580   58.8170 C   0  0  0  0  0  0  0  0  0  0  0  0
  124.7000  123.8960   57.6970 O   0  0  0  0  0  0  0  0  0  0  0  0
  123.7340  124.6430   59.6420 O   0  0  0  0  0  0  0  0  0  0  0  0
  128.9970  123.5030   60.9980 N   0  0  0  0  0  0  0  0  0  0  0  0
  130.4790  123.3750   61.1300 C   0  0  0  0  0  0  0  0  0  0  0  0
  130.7480  124.0880   62.4980 C   0  0  0  0  0  0  0  0  0  0  0  0
  131.8880  124.8850   62.6970 C   0  0  0  0  0  0  0  0  0  0  0  0
  132.1160  125.5160   63.9170 C   0  0  0  0  0  0  0  0  0  0  0  0
  131.2140  125.3510   64.9630 C   0  0  0  0  0  0  0  0  0  0  0  0
  130.0770  124.5690   64.7930 C   0  0  0  0  0  0  0  0  0  0  0  0
  129.8440  123.9480   63.5700 C   0  0  0  0  0  0  0  0  0  0  0  0
  130.8130  121.8460   61.1730 C   0  0  0  0  0  0  0  0  0  0  0  0
  129.8050  120.8700   61.1760 C   0  0  0  0  0  0  0  0  0  0  0  0
  130.1250  119.5150   61.2340 C   0  0  0  0  0  0  0  0  0  0  0  0
  131.4570  119.1210   61.2910 C   0  0  0  0  0  0  0  0  0  0  0  0
  132.4750  120.0690   61.2850 C   0  0  0  0  0  0  0  0  0  0  0  0
  132.1530  121.4210   61.2190 C   0  0  0  0  0  0  0  0  0  0  0  0
  131.0920  124.1440   59.9120 C   0  0  0  0  0  0  0  0  0  0  0  0
  130.3570  125.1350   59.2360 C   0  0  0  0  0  0  0  0  0  0  0  0
  130.8940  125.8160   58.1480 C   0  0  0  0  0  0  0  0  0  0  0  0
  132.1820  125.5230   57.7180 C   0  0  0  0  0  0  0  0  0  0  0  0
  132.9390  124.5590   58.3730 C   0  0  0  0  0  0  0  0  0  0  0  0
  132.3990  123.8800   59.4620 C   0  0  0  0  0  0  0  0  0  0  0  0
  126.0114  122.5851   60.0942 H   0  0  0  0  0  0  0  0  0  0  0  0
  126.5723  123.7230   61.4137 H   0  0  0  0  0  0  0  0  0  0  0  0
  126.9094  124.8971   58.8012 H   0  0  0  0  0  0  0  0  0  0  0  0
  125.0240  126.2680   60.5030 H   0  0  0  0  0  0  0  0  0  0  0  0
  126.9719  127.2831   63.6847 H   0  0  0  0  0  0  0  0  0  0  0  0
  128.2826  128.0650   62.7186 H   0  0  0  0  0  0  0  0  0  0  0  0
  127.6189  129.9726   63.3365 H   0  0  0  0  0  0  0  0  0  0  0  0
  126.6994  130.0393   60.4492 H   0  0  0  0  0  0  0  0  0  0  0  0
  124.7420  130.9631   59.2053 H   0  0  0  0  0  0  0  0  0  0  0  0
  122.6034  131.4245   60.4030 H   0  0  0  0  0  0  0  0  0  0  0  0
  122.4152  130.9578   62.8505 H   0  0  0  0  0  0  0  0  0  0  0  0
  122.7167  130.3372   65.3619 H   0  0  0  0  0  0  0  0  0  0  0  0
  123.4794  129.6452   67.6365 H   0  0  0  0  0  0  0  0  0  0  0  0
  125.8041  128.8048   67.9739 H   0  0  0  0  0  0  0  0  0  0  0  0
  127.3711  128.6545   66.0393 H   0  0  0  0  0  0  0  0  0  0  0  0
  123.8540  125.4710   60.1110 H   0  0  0  0  0  0  0  0  0  0  0  0
  128.6030  124.1060   61.7060 H   0  0  0  0  0  0  0  0  0  0  0  0
  132.6105  125.0122   61.8774 H   0  0  0  0  0  0  0  0  0  0  0  0
  133.0085  126.1443   64.0536 H   0  0  0  0  0  0  0  0  0  0  0  0
  131.4012  125.8417   65.9295 H   0  0  0  0  0  0  0  0  0  0  0  0
  129.3649  124.4419   65.6217 H   0  0  0  0  0  0  0  0  0  0  0  0
  128.9387  123.3373   63.4375 H   0  0  0  0  0  0  0  0  0  0  0  0
  128.7499  121.1780   61.1321 H   0  0  0  0  0  0  0  0  0  0  0  0
  129.3258  118.7592   61.2347 H   0  0  0  0  0  0  0  0  0  0  0  0
  131.7079  118.0512   61.3412 H   0  0  0  0  0  0  0  0  0  0  0  0
  133.5273  119.7520   61.3321 H   0  0  0  0  0  0  0  0  0  0  0  0
  132.9591  122.1693   61.2025 H   0  0  0  0  0  0  0  0  0  0  0  0
  129.3384  125.3760   59.5741 H   0  0  0  0  0  0  0  0  0  0  0  0
  130.3006  126.5839   57.6301 H   0  0  0  0  0  0  0  0  0  0  0  0
  132.6051  126.0569   56.8543 H   0  0  0  0  0  0  0  0  0  0  0  0
  133.9604  124.3334   58.0326 H   0  0  0  0  0  0  0  0  0  0  0  0
  133.0055  123.1228   59.9805 H   0  0  0  0  0  0  0  0  0  0  0  0
  1  2  2  0
  2  3  1  0
  3  4  1  0
  4  5  1  0
  5  6  1  0
  6  7  2  0
  6  8  1  0
  8  9  1  0
  9 10  1  0
 10 11  1  0
 11 12  2  0
 12 13  1  0
 13 14  2  0
 14 15  1  0
 15 16  2  0
 16 17  1  0
 17 18  2  0
 18 19  1  0
 19 20  2  0
 20 21  1  0
 21 22  2  0
  4 23  1  0
 23 24  2  0
 23 25  1  0
  2 26  1  0
 26 27  1  0
 27 28  1  0
 28 29  2  0
 29 30  1  0
 30 31  2  0
 31 32  1  0
 32 33  2  0
 27 34  1  0
 34 35  2  0
 35 36  1  0
 36 37  2  0
 37 38  1  0
 38 39  2  0
 27 40  1  0
 40 41  2  0
 41 42  1  0
 42 43  2  0
 43 44  1  0
 44 45  2  0
 22 10  1  0
 33 28  1  0
 39 34  1  0
 45 40  1  0
 16 11  1  0
 22 17  1  0
  3 46  1  0
  3 47  1  0
  4 48  1  6
  5 49  1  0
  9 50  1  0
  9 51  1  0
 10 52  1  0
 12 53  1  0
 13 54  1  0
 14 55  1  0
 15 56  1  0
 18 57  1  0
 19 58  1  0
 20 59  1  0
 21 60  1  0
 25 61  1  0
 26 62  1  0
 29 63  1  0
 30 64  1  0
 31 65  1  0
 32 66  1  0
 33 67  1  0
 35 68  1  0
 36 69  1  0
 37 70  1  0
 38 71  1  0
 39 72  1  0
 41 73  1  0
 42 74  1  0
 43 75  1  0
 44 76  1  0
 45 77  1  0
M  END
>  <Binding energies>  (1) 
[-10.47]

>  <Ligand effiencies>  (1) 
[-0.218125]

>  <Interactions>  (1) 
["V-B:ARG:545:CG:9894, V-B:GLU:543:CD:9880, V-B:ARG:545:CZ:9898, V-B:ARG:545:CD:9895, V-B:HIS:456:CE1:9040, V-B:GLU:543:CG:9879, H-B:ASP:366:OD1:8185, V-B:GLY:454:CA:9020, V-B:ASP:366:CG:8184, H-B:ASP:366:OD2:8186, V-B:ILE:369:CD1:8210, H-B:ARG:545:NH2:9900, V-B:GLY:453:C:9013, V-B:ALA:541:CB:9864, V-A:LEU:475:CD1:4258, V-A:ARG:545:CZ:4926, V-A:ASP:366:CB:3212, V-A:ASP:366:CG:3213, V-B:TYR:539:CE2:9848, V-B:PRO:540:CA:9855, V-A:ASP:366:CA:3210, V-B:TYR:484:CZ:9318, V-B:TYR:539:CD2:9846, V-A:PRO:482:CG:4327, V-A:TRP:381:CZ2:3370, V-B:PRO:540:CB:9857, V-A:TRP:381:CH2:3372, V-A:PRO:482:CB:4326, H-B:GLU:543:OE2:9882"]

$$$$
RR5_Rahimova_2017-again1
     RDKit          3D

 76 81  0  0  0  0  0  0  0  0999 V2000
  124.1510  132.0860   63.2910 O   0  0  0  0  0  0  0  0  0  0  0  0
  124.7570  131.0250   63.4430 C   0  0  0  0  0  0  0  0  0  0  0  0
  124.3670  130.1070   64.6200 C   0  0  0  0  0  0  0  0  0  0  0  0
  125.5260  129.6370   65.5580 C   0  0  2  0  0  0  0  0  0  0  0  0
  126.5350  128.9130   64.7560 N   0  0  0  0  0  0  0  0  0  0  0  0
  127.6780  129.5440   64.2780 C   0  0  0  0  0  0  0  0  0  0  0  0
  127.9790  130.7320   64.4300 O   0  0  0  0  0  0  0  0  0  0  0  0
  128.4220  128.6420   63.6110 O   0  0  0  0  0  0  0  0  0  0  0  0
  128.2740  127.2470   63.8550 C   0  0  0  0  0  0  0  0  0  0  0  0
  129.5090  126.7050   64.6000 C   0  0  0  0  0  0  0  0  0  0  0  0
  129.3650  126.7310   66.1110 C   0  0  0  0  0  0  0  0  0  0  0  0
  129.1460  127.8130   66.9670 C   0  0  0  0  0  0  0  0  0  0  0  0
  129.0290  127.6010   68.3430 C   0  0  0  0  0  0  0  0  0  0  0  0
  129.1360  126.3110   68.8640 C   0  0  0  0  0  0  0  0  0  0  0  0
  129.3600  125.2280   68.0120 C   0  0  0  0  0  0  0  0  0  0  0  0
  129.4750  125.4430   66.6370 C   0  0  0  0  0  0  0  0  0  0  0  0
  129.7180  124.5060   65.5290 C   0  0  0  0  0  0  0  0  0  0  0  0
  129.9100  123.1230   65.5210 C   0  0  0  0  0  0  0  0  0  0  0  0
  130.1410  122.4660   64.3110 C   0  0  0  0  0  0  0  0  0  0  0  0
  130.1790  123.1880   63.1170 C   0  0  0  0  0  0  0  0  0  0  0  0
  129.9860  124.5710   63.1290 C   0  0  0  0  0  0  0  0  0  0  0  0
  129.7510  125.2320   64.3380 C   0  0  0  0  0  0  0  0  0  0  0  0
  124.9950  128.7630   66.7650 C   0  0  0  0  0  0  0  0  0  0  0  0
  125.6440  127.7090   66.9640 O   0  0  0  0  0  0  0  0  0  0  0  0
  124.0230  129.2210   67.4120 O   0  0  0  0  0  0  0  0  0  0  0  0
  125.6660  130.5660   62.5550 N   0  0  0  0  0  0  0  0  0  0  0  0
  126.2100  131.2180   61.3360 C   0  0  0  0  0  0  0  0  0  0  0  0
  125.2200  131.0340   60.1420 C   0  0  0  0  0  0  0  0  0  0  0  0
  123.8640  131.3830   60.2680 C   0  0  0  0  0  0  0  0  0  0  0  0
  122.9820  131.2320   59.2020 C   0  0  0  0  0  0  0  0  0  0  0  0
  123.4460  130.7330   57.9900 C   0  0  0  0  0  0  0  0  0  0  0  0
  124.7840  130.3840   57.8360 C   0  0  0  0  0  0  0  0  0  0  0  0
  125.6640  130.5350   58.9040 C   0  0  0  0  0  0  0  0  0  0  0  0
  126.3870  132.7670   61.4320 C   0  0  0  0  0  0  0  0  0  0  0  0
  127.2650  133.3370   62.3700 C   0  0  0  0  0  0  0  0  0  0  0  0
  127.4240  134.7170   62.4590 C   0  0  0  0  0  0  0  0  0  0  0  0
  126.7090  135.5490   61.6040 C   0  0  0  0  0  0  0  0  0  0  0  0
  125.8400  135.0100   60.6600 C   0  0  0  0  0  0  0  0  0  0  0  0
  125.6840  133.6300   60.5740 C   0  0  0  0  0  0  0  0  0  0  0  0
  127.5530  130.4570   61.0620 C   0  0  0  0  0  0  0  0  0  0  0  0
  128.7910  131.1240   61.0480 C   0  0  0  0  0  0  0  0  0  0  0  0
  129.9760  130.4320   60.8210 C   0  0  0  0  0  0  0  0  0  0  0  0
  129.9440  129.0570   60.6180 C   0  0  0  0  0  0  0  0  0  0  0  0
  128.7360  128.3680   60.6500 C   0  0  0  0  0  0  0  0  0  0  0  0
  127.5520  129.0640   60.8760 C   0  0  0  0  0  0  0  0  0  0  0  0
  123.6371  130.6499   65.2384 H   0  0  0  0  0  0  0  0  0  0  0  0
  123.9814  129.1881   64.1543 H   0  0  0  0  0  0  0  0  0  0  0  0
  125.9968  130.5220   66.0109 H   0  0  0  0  0  0  0  0  0  0  0  0
  126.4160  127.9200   64.6110 H   0  0  0  0  0  0  0  0  0  0  0  0
  127.3764  127.0783   64.4681 H   0  0  0  0  0  0  0  0  0  0  0  0
  128.1750  126.7222   62.8934 H   0  0  0  0  0  0  0  0  0  0  0  0
  130.3109  127.3614   64.2311 H   0  0  0  0  0  0  0  0  0  0  0  0
  129.0657  128.8310   66.5581 H   0  0  0  0  0  0  0  0  0  0  0  0
  128.8522  128.4524   69.0167 H   0  0  0  0  0  0  0  0  0  0  0  0
  129.0437  126.1471   69.9478 H   0  0  0  0  0  0  0  0  0  0  0  0
  129.4455  124.2107   68.4216 H   0  0  0  0  0  0  0  0  0  0  0  0
  129.8794  122.5546   66.4623 H   0  0  0  0  0  0  0  0  0  0  0  0
  130.2934  121.3767   64.2985 H   0  0  0  0  0  0  0  0  0  0  0  0
  130.3612  122.6670   62.1655 H   0  0  0  0  0  0  0  0  0  0  0  0
  130.0189  125.1397   62.1880 H   0  0  0  0  0  0  0  0  0  0  0  0
  126.1450  129.7160   62.8130 H   0  0  0  0  0  0  0  0  0  0  0  0
  123.4943  131.7817   61.2242 H   0  0  0  0  0  0  0  0  0  0  0  0
  121.9230  131.5061   59.3178 H   0  0  0  0  0  0  0  0  0  0  0  0
  122.7500  130.6133   57.1466 H   0  0  0  0  0  0  0  0  0  0  0  0
  125.1450  129.9904   56.8743 H   0  0  0  0  0  0  0  0  0  0  0  0
  126.7216  130.2602   58.7780 H   0  0  0  0  0  0  0  0  0  0  0  0
  127.8357  132.6819   63.0447 H   0  0  0  0  0  0  0  0  0  0  0  0
  128.1117  135.1474   63.2018 H   0  0  0  0  0  0  0  0  0  0  0  0
  126.8312  136.6399   61.6744 H   0  0  0  0  0  0  0  0  0  0  0  0
  125.2787  135.6723   59.9845 H   0  0  0  0  0  0  0  0  0  0  0  0
  125.0000  133.2081   59.8230 H   0  0  0  0  0  0  0  0  0  0  0  0
  128.8227  132.2101   61.2193 H   0  0  0  0  0  0  0  0  0  0  0  0
  130.9349  130.9706   60.8022 H   0  0  0  0  0  0  0  0  0  0  0  0
  130.8800  128.5104   60.4309 H   0  0  0  0  0  0  0  0  0  0  0  0
  128.7166  127.2788   60.4975 H   0  0  0  0  0  0  0  0  0  0  0  0
  126.5996  128.5146   60.9096 H   0  0  0  0  0  0  0  0  0  0  0  0
  1  2  2  0
  2  3  1  0
  3  4  1  0
  4  5  1  0
  5  6  1  0
  6  7  2  0
  6  8  1  0
  8  9  1  0
  9 10  1  0
 10 11  1  0
 11 12  2  0
 12 13  1  0
 13 14  2  0
 14 15  1  0
 15 16  2  0
 16 17  1  0
 17 18  2  0
 18 19  1  0
 19 20  2  0
 20 21  1  0
 21 22  2  0
  4 23  1  0
 23 24  2  0
 23 25  1  0
  2 26  1  0
 26 27  1  0
 27 28  1  0
 28 29  2  0
 29 30  1  0
 30 31  2  0
 31 32  1  0
 32 33  2  0
 27 34  1  0
 34 35  2  0
 35 36  1  0
 36 37  2  0
 37 38  1  0
 38 39  2  0
 27 40  1  0
 40 41  2  0
 41 42  1  0
 42 43  2  0
 43 44  1  0
 44 45  2  0
 22 10  1  0
 33 28  1  0
 39 34  1  0
 45 40  1  0
 16 11  1  0
 22 17  1  0
  3 46  1  0
  3 47  1  0
  4 48  1  1
  5 49  1  0
  9 50  1  0
  9 51  1  0
 10 52  1  0
 12 53  1  0
 13 54  1  0
 14 55  1  0
 15 56  1  0
 18 57  1  0
 19 58  1  0
 20 59  1  0
 21 60  1  0
 26 61  1  0
 29 62  1  0
 30 63  1  0
 31 64  1  0
 32 65  1  0
 33 66  1  0
 35 67  1  0
 36 68  1  0
 37 69  1  0
 38 70  1  0
 39 71  1  0
 41 72  1  0
 42 73  1  0
 43 74  1  0
 44 75  1  0
 45 76  1  0
M  CHG  1  25  -1
M  END
>  <Binding energies>  (1) 
[-8.74]

>  <Ligand effiencies>  (1) 
[-0.18595744680851065]

>  <Interactions>  (1) 
["V-B:ARG:545:CG:9894, V-B:GLU:543:CD:9880, V-B:GLU:543:C:9874, V-B:GLU:543:CB:9878, V-A:HIS:456:CE1:4069, V-B:ARG:545:CZ:9898, V-B:ARG:545:CD:9895, V-B:HIS:456:CE1:9040, V-B:GLU:543:CG:9879, V-A:GLU:543:CG:4907, V-A:GLU:543:CD:4908, V-B:TRP:381:CH2:8343, H-B:GLY:454:N:9021, V-B:ILE:369:CB:8207, V-B:ASP:366:CG:8184, V-B:ASP:366:CA:8181, V-B:ASP:366:CB:8183, V-B:PRO:482:CG:9298, V-B:LEU:475:CD1:9229, V-B:PRO:482:CB:9297, V-B:ASP:366:C:8179, V-B:ILE:369:CD1:8210, V-A:TYR:539:CE2:4876, V-A:ALA:541:CB:4892, H-B:TYR:484:OH:9319, V-B:ILE:369:CG2:8208, V-A:TYR:539:CD2:4874, V-B:ALA:541:CB:9864, V-B:GLU:543:CA:9876, H-B:ARG:545:NE:9896, V-A:TYR:484:CZ:4347, V-A:LEU:475:CD1:4258, V-A:GLU:543:CB:4906, V-A:TYR:484:CE1:4345, V-A:TYR:539:CZ:4877, V-B:TRP:381:CZ2:8341, H-B:GLU:543:OE1:9881, H-B:GLU:543:OE2:9882"]

$$$$
RR6_Rahimova_2017
     RDKit          3D

 63 66  0  0  0  0  0  0  0  0999 V2000
  124.3310  135.2540   61.3480 C   0  0  0  0  0  0  0  0  0  0  0  0
  125.3820  134.4170   60.8850 O   0  0  0  0  0  0  0  0  0  0  0  0
  126.6810  134.7350   61.1150 C   0  0  0  0  0  0  0  0  0  0  0  0
  127.0880  135.8960   61.2280 O   0  0  0  0  0  0  0  0  0  0  0  0
  127.5770  133.5340   61.2210 C   0  0  0  0  0  0  0  0  0  0  0  0
  128.1900  132.9630   60.0960 C   0  0  0  0  0  0  0  0  0  0  0  0
  129.0100  131.8440   60.2260 C   0  0  0  0  0  0  0  0  0  0  0  0
  129.2260  131.2730   61.4900 C   0  0  0  0  0  0  0  0  0  0  0  0
  130.0100  130.1300   61.7300 N   0  0  0  0  0  0  0  0  0  0  0  0
  129.9270  128.9020   61.1700 C   0  0  0  0  0  0  0  0  0  0  0  0
  129.1190  128.5650   60.3060 O   0  0  0  0  0  0  0  0  0  0  0  0
  130.8970  127.8550   61.7280 C   0  0  0  0  0  0  0  0  0  0  0  0
  130.0740  126.5010   62.6320 S   0  0  0  0  0  0  0  0  0  0  0  0
  129.0520  127.2620   63.8760 C   0  0  0  0  0  0  0  0  0  0  0  0
  128.1390  128.1370   63.3900 N   0  0  0  0  0  0  0  0  0  0  0  0
  127.2830  128.7590   64.2390 C   0  0  0  0  0  0  0  0  0  0  0  0
  126.2640  129.6650   63.6140 C   0  0  0  0  0  0  0  0  0  0  0  0
  125.9450  129.5630   62.2510 C   0  0  0  0  0  0  0  0  0  0  0  0
  125.0080  130.4120   61.6690 C   0  0  0  0  0  0  0  0  0  0  0  0
  124.3670  131.3800   62.4420 C   0  0  0  0  0  0  0  0  0  0  0  0
  123.3540  132.3100   61.8000 C   0  0  0  0  0  0  0  0  0  0  0  0
  124.6690  131.4970   63.7970 C   0  0  0  0  0  0  0  0  0  0  0  0
  125.6040  130.6450   64.3740 C   0  0  0  0  0  0  0  0  0  0  0  0
  127.3400  128.5170   65.6160 C   0  0  0  0  0  0  0  0  0  0  0  0
  128.2790  127.6190   66.1440 C   0  0  0  0  0  0  0  0  0  0  0  0
  128.2720  127.3940   67.6200 C   0  0  0  0  0  0  0  0  0  0  0  0
  127.2940  126.5820   68.2030 C   0  0  0  0  0  0  0  0  0  0  0  0
  127.2890  126.3540   69.5770 C   0  0  0  0  0  0  0  0  0  0  0  0
  128.2640  126.9260   70.3920 C   0  0  0  0  0  0  0  0  0  0  0  0
  128.1830  126.6430   71.7420 O   0  0  0  0  0  0  0  0  0  0  0  0
  127.2550  127.3630   72.5470 C   0  0  0  0  0  0  0  0  0  0  0  0
  129.2510  127.7380   69.8120 C   0  0  0  0  0  0  0  0  0  0  0  0
  129.2520  127.9630   68.4380 C   0  0  0  0  0  0  0  0  0  0  0  0
  129.1690  126.9740   65.2510 C   0  0  0  0  0  0  0  0  0  0  0  0
  130.1940  126.0450   65.7400 C   0  0  0  0  0  0  0  0  0  0  0  0
  131.0010  125.3110   66.1250 N   0  0  0  0  0  0  0  0  0  0  0  0
  128.6320  131.8490   62.6130 C   0  0  0  0  0  0  0  0  0  0  0  0
  127.8110  132.9660   62.4800 C   0  0  0  0  0  0  0  0  0  0  0  0
  124.3241  135.2595   62.4480 H   0  0  0  0  0  0  0  0  0  0  0  0
  124.4872  136.2778   60.9772 H   0  0  0  0  0  0  0  0  0  0  0  0
  123.3682  134.8726   60.9772 H   0  0  0  0  0  0  0  0  0  0  0  0
  128.0218  133.4027   59.1018 H   0  0  0  0  0  0  0  0  0  0  0  0
  129.4887  131.4075   59.3370 H   0  0  0  0  0  0  0  0  0  0  0  0
  130.6690  130.2290   62.4870 H   0  0  0  0  0  0  0  0  0  0  0  0
  131.4596  127.4205   60.8885 H   0  0  0  0  0  0  0  0  0  0  0  0
  131.5491  128.3720   62.4473 H   0  0  0  0  0  0  0  0  0  0  0  0
  126.4428  128.8008   61.6336 H   0  0  0  0  0  0  0  0  0  0  0  0
  124.7728  130.3194   60.5984 H   0  0  0  0  0  0  0  0  0  0  0  0
  122.7861  132.8314   62.5846 H   0  0  0  0  0  0  0  0  0  0  0  0
  123.8782  133.0480   61.1750 H   0  0  0  0  0  0  0  0  0  0  0  0
  122.6634  131.7247   61.1750 H   0  0  0  0  0  0  0  0  0  0  0  0
  124.1687  132.2619   64.4091 H   0  0  0  0  0  0  0  0  0  0  0  0
  125.8313  130.7401   65.4461 H   0  0  0  0  0  0  0  0  0  0  0  0
  126.6424  129.0355   66.2901 H   0  0  0  0  0  0  0  0  0  0  0  0
  126.5218  126.1193   67.5708 H   0  0  0  0  0  0  0  0  0  0  0  0
  126.5098  125.7178   70.0221 H   0  0  0  0  0  0  0  0  0  0  0  0
  127.4793  127.1890   73.6097 H   0  0  0  0  0  0  0  0  0  0  0  0
  127.3350  128.4377   72.3266 H   0  0  0  0  0  0  0  0  0  0  0  0
  126.2339  127.0185   72.3266 H   0  0  0  0  0  0  0  0  0  0  0  0
  130.0252  128.1975   70.4441 H   0  0  0  0  0  0  0  0  0  0  0  0
  130.0330  128.5958   67.9912 H   0  0  0  0  0  0  0  0  0  0  0  0
  128.8130  131.4186   63.6090 H   0  0  0  0  0  0  0  0  0  0  0  0
  127.3418  133.4065   63.3721 H   0  0  0  0  0  0  0  0  0  0  0  0
  1  2  1  0
  2  3  1  0
  3  4  2  0
  3  5  1  0
  5  6  2  0
  6  7  1  0
  7  8  2  0
  8  9  1  0
  9 10  1  0
 10 11  2  0
 10 12  1  0
 12 13  1  0
 13 14  1  0
 14 15  2  0
 15 16  1  0
 16 17  1  0
 17 18  2  0
 18 19  1  0
 19 20  2  0
 20 21  1  0
 20 22  1  0
 22 23  2  0
 16 24  2  0
 24 25  1  0
 25 26  1  0
 26 27  2  0
 27 28  1  0
 28 29  2  0
 29 30  1  0
 30 31  1  0
 29 32  1  0
 32 33  2  0
 25 34  2  0
 34 35  1  0
 35 36  3  0
  8 37  1  0
 37 38  2  0
 38  5  1  0
 34 14  1  0
 23 17  1  0
 33 26  1  0
  1 39  1  0
  1 40  1  0
  1 41  1  0
  6 42  1  0
  7 43  1  0
  9 44  1  0
 12 45  1  0
 12 46  1  0
 18 47  1  0
 19 48  1  0
 21 49  1  0
 21 50  1  0
 21 51  1  0
 22 52  1  0
 23 53  1  0
 24 54  1  0
 27 55  1  0
 28 56  1  0
 31 57  1  0
 31 58  1  0
 31 59  1  0
 32 60  1  0
 33 61  1  0
 37 62  1  0
 38 63  1  0
M  END
>  <Binding energies>  (1) 
[-8.32]

>  <Ligand effiencies>  (1) 
[-0.21333333333333335]

>  <Interactions>  (1) 
["V-A:HIS:456:CD2:4068, V-B:GLU:543:C:9874, V-B:HIS:456:CD2:9039, V-B:GLU:543:CB:9878, V-A:HIS:456:CE1:4069, H-A:GLU:543:OE1:4909, V-B:HIS:456:CE1:9040, H-A:GLU:543:OE2:4910, V-A:GLU:543:CD:4908, V-B:TRP:381:CH2:8343, V-B:GLY:454:CA:9020, V-B:LEU:475:CD1:9229, V-B:ILE:369:CD1:8210, V-A:TYR:539:CE2:4876, V-A:ALA:541:CB:4892, V-B:ILE:369:CG2:8208, V-A:TYR:539:CD2:4874, H-A:TYR:484:OH:4348, V-B:TRP:381:CZ2:8341, V-B:GLY:544:C:9884, V-B:HIS:456:CG:9037"]

$$$$
RR7_Rahimova_2017
     RDKit          3D

 80 86  0  0  0  0  0  0  0  0999 V2000
  123.5860  129.7190   66.5960 C   0  0  0  0  0  0  0  0  0  0  0  0
  124.9830  129.6310   66.8590 O   0  0  0  0  0  0  0  0  0  0  0  0
  125.8440  129.3130   65.8270 C   0  0  0  0  0  0  0  0  0  0  0  0
  125.2590  129.0130   64.5980 C   0  0  0  0  0  0  0  0  0  0  0  0
  126.0460  128.6870   63.4980 C   0  0  0  0  0  0  0  0  0  0  0  0
  127.4440  128.6400   63.6050 C   0  0  0  0  0  0  0  0  0  0  0  0
  128.3520  128.3090   62.3800 C   0  0  0  0  0  0  0  0  0  0  0  0
  129.1100  127.1320   62.7420 O   0  0  0  0  0  0  0  0  0  0  0  0
  128.7400  126.3680   63.8950 C   0  0  0  0  0  0  0  0  0  0  0  0
  130.0150  125.8640   64.5900 C   0  0  1  0  0  0  0  0  0  0  0  0
  129.9880  126.3730   65.9210 O   0  0  0  0  0  0  0  0  0  0  0  0
  130.0210  125.3490   66.8730 C   0  0  1  0  0  0  0  0  0  0  0  0
  129.2570  125.7320   68.0450 N   0  0  0  0  0  0  0  0  0  0  0  0
  128.3110  126.7360   68.1560 C   0  0  0  0  0  0  0  0  0  0  0  0
  127.8040  126.9000   69.3520 N   0  0  0  0  0  0  0  0  0  0  0  0
  128.4740  125.9860   70.1190 C   0  0  0  0  0  0  0  0  0  0  0  0
  128.4020  125.6720   71.4900 C   0  0  0  0  0  0  0  0  0  0  0  0
  127.4850  126.3740   72.2960 N   0  0  0  0  0  0  0  0  0  0  0  0
  127.5300  126.6110   73.6290 C   0  0  0  0  0  0  0  0  0  0  0  0
  128.4240  126.2080   74.3760 O   0  0  0  0  0  0  0  0  0  0  0  0
  126.3680  127.4010   74.1930 C   0  0  0  0  0  0  0  0  0  0  0  0
  125.0630  126.9020   74.0640 C   0  0  0  0  0  0  0  0  0  0  0  0
  123.9810  127.6090   74.5800 C   0  0  0  0  0  0  0  0  0  0  0  0
  124.1940  128.8180   75.2340 C   0  0  0  0  0  0  0  0  0  0  0  0
  125.4820  129.3280   75.3760 C   0  0  0  0  0  0  0  0  0  0  0  0
  126.5660  128.6230   74.8580 C   0  0  0  0  0  0  0  0  0  0  0  0
  129.2220  124.7030   71.9970 N   0  0  0  0  0  0  0  0  0  0  0  0
  130.0770  124.0840   71.1420 C   0  0  0  0  0  0  0  0  0  0  0  0
  130.2250  124.3050   69.8080 N   0  0  0  0  0  0  0  0  0  0  0  0
  129.4050  125.2540   69.3380 C   0  0  0  0  0  0  0  0  0  0  0  0
  129.5080  124.1100   66.1490 C   0  0  0  0  0  0  0  0  0  0  0  0
  130.0980  124.3410   64.7680 C   0  0  2  0  0  0  0  0  0  0  0  0
  131.4260  123.8560   64.6700 O   0  0  0  0  0  0  0  0  0  0  0  0
  127.5300  127.9470   61.1150 C   0  0  0  0  0  0  0  0  0  0  0  0
  127.1670  126.6140   60.8630 C   0  0  0  0  0  0  0  0  0  0  0  0
  126.4420  126.2760   59.7260 C   0  0  0  0  0  0  0  0  0  0  0  0
  126.0710  127.2700   58.8250 C   0  0  0  0  0  0  0  0  0  0  0  0
  126.4190  128.5970   59.0540 C   0  0  0  0  0  0  0  0  0  0  0  0
  127.1460  128.9350   60.1920 C   0  0  0  0  0  0  0  0  0  0  0  0
  129.3270  129.4370   61.9360 C   0  0  0  0  0  0  0  0  0  0  0  0
  128.9910  130.7850   62.1360 C   0  0  0  0  0  0  0  0  0  0  0  0
  129.8520  131.8010   61.7340 C   0  0  0  0  0  0  0  0  0  0  0  0
  131.0580  131.4790   61.1160 C   0  0  0  0  0  0  0  0  0  0  0  0
  131.4040  130.1500   60.8960 C   0  0  0  0  0  0  0  0  0  0  0  0
  130.5420  129.1350   61.2990 C   0  0  0  0  0  0  0  0  0  0  0  0
  128.0280  128.9560   64.8400 C   0  0  0  0  0  0  0  0  0  0  0  0
  127.2410  129.2840   65.9400 C   0  0  0  0  0  0  0  0  0  0  0  0
  123.0352  129.7537   67.5475 H   0  0  0  0  0  0  0  0  0  0  0  0
  123.3784  130.6320   66.0187 H   0  0  0  0  0  0  0  0  0  0  0  0
  123.2654  128.8393   66.0187 H   0  0  0  0  0  0  0  0  0  0  0  0
  124.1639  129.0342   64.4967 H   0  0  0  0  0  0  0  0  0  0  0  0
  125.5666  128.4636   62.5335 H   0  0  0  0  0  0  0  0  0  0  0  0
  128.1671  127.0009   64.5888 H   0  0  0  0  0  0  0  0  0  0  0  0
  128.1189  125.5126   63.5910 H   0  0  0  0  0  0  0  0  0  0  0  0
  130.8549  126.1884   63.9581 H   0  0  0  0  0  0  0  0  0  0  0  0
  131.0267  125.1413   67.2673 H   0  0  0  0  0  0  0  0  0  0  0  0
  128.0060  127.3537   67.2985 H   0  0  0  0  0  0  0  0  0  0  0  0
  126.6880  126.7420   71.7990 H   0  0  0  0  0  0  0  0  0  0  0  0
  124.8937  125.9439   73.5507 H   0  0  0  0  0  0  0  0  0  0  0  0
  122.9606  127.2130   74.4710 H   0  0  0  0  0  0  0  0  0  0  0  0
  123.3382  129.3757   75.6423 H   0  0  0  0  0  0  0  0  0  0  0  0
  125.6428  130.2842   75.8954 H   0  0  0  0  0  0  0  0  0  0  0  0
  127.5836  129.0254   74.9702 H   0  0  0  0  0  0  0  0  0  0  0  0
  130.7269  123.3124   71.5805 H   0  0  0  0  0  0  0  0  0  0  0  0
  129.8893  123.1846   66.6052 H   0  0  0  0  0  0  0  0  0  0  0  0
  128.4154  123.9838   66.1684 H   0  0  0  0  0  0  0  0  0  0  0  0
  129.5582  123.7981   63.9782 H   0  0  0  0  0  0  0  0  0  0  0  0
  131.7210  123.5930   65.5450 H   0  0  0  0  0  0  0  0  0  0  0  0
  127.4600  125.8276   61.5741 H   0  0  0  0  0  0  0  0  0  0  0  0
  126.1630  125.2285   59.5393 H   0  0  0  0  0  0  0  0  0  0  0  0
  125.4979  127.0039   57.9246 H   0  0  0  0  0  0  0  0  0  0  0  0
  126.1207  129.3770   58.3381 H   0  0  0  0  0  0  0  0  0  0  0  0
  127.4224  129.9846   60.3705 H   0  0  0  0  0  0  0  0  0  0  0  0
  128.0352  131.0412   62.6165 H   0  0  0  0  0  0  0  0  0  0  0  0
  129.5817  132.8537   61.9034 H   0  0  0  0  0  0  0  0  0  0  0  0
  131.7412  132.2810   60.7999 H   0  0  0  0  0  0  0  0  0  0  0  0
  132.3565  129.9021   60.4048 H   0  0  0  0  0  0  0  0  0  0  0  0
  130.8148  128.0850   61.1169 H   0  0  0  0  0  0  0  0  0  0  0  0
  129.1233  128.9445   64.9408 H   0  0  0  0  0  0  0  0  0  0  0  0
  127.7174  129.5216   66.9026 H   0  0  0  0  0  0  0  0  0  0  0  0
  1  2  1  0
  2  3  1  0
  3  4  2  0
  4  5  1  0
  5  6  2  0
  6  7  1  0
  7  8  1  0
  8  9  1  0
  9 10  1  0
 10 11  1  0
 11 12  1  0
 12 13  1  0
 13 14  1  0
 14 15  2  0
 15 16  1  0
 16 17  2  0
 17 18  1  0
 18 19  1  0
 19 20  2  0
 19 21  1  0
 21 22  2  0
 22 23  1  0
 23 24  2  0
 24 25  1  0
 25 26  2  0
 17 27  1  0
 27 28  2  0
 28 29  1  0
 29 30  2  0
 12 31  1  0
 31 32  1  0
 32 33  1  0
  7 34  1  0
 34 35  2  0
 35 36  1  0
 36 37  2  0
 37 38  1  0
 38 39  2  0
  7 40  1  0
 40 41  2  0
 41 42  1  0
 42 43  2  0
 43 44  1  0
 44 45  2  0
  6 46  1  0
 46 47  2  0
 47  3  1  0
 32 10  1  0
 39 34  1  0
 45 40  1  0
 30 13  1  0
 30 16  1  0
 26 21  1  0
  1 48  1  0
  1 49  1  0
  1 50  1  0
  4 51  1  0
  5 52  1  0
  9 53  1  0
  9 54  1  0
 10 55  1  6
 12 56  1  1
 14 57  1  0
 18 58  1  0
 22 59  1  0
 23 60  1  0
 24 61  1  0
 25 62  1  0
 26 63  1  0
 28 64  1  0
 31 65  1  0
 31 66  1  0
 32 67  1  6
 33 68  1  0
 35 69  1  0
 36 70  1  0
 37 71  1  0
 38 72  1  0
 39 73  1  0
 41 74  1  0
 42 75  1  0
 43 76  1  0
 44 77  1  0
 45 78  1  0
 46 79  1  0
 47 80  1  0
M  END
>  <Binding energies>  (1) 
[-9.5]

>  <Ligand effiencies>  (1) 
[-0.19387755102040816]

>  <Interactions>  (1) 
["V-B:ARG:545:CG:9894, V-A:HIS:456:CD2:4068, V-B:GLU:543:CD:9880, H-B:LYS:547:NZ:9923, V-B:GLU:543:C:9874, V-B:HIS:456:CD2:9039, V-B:GLU:543:CB:9878, V-A:HIS:456:CE1:4069, V-B:ARG:545:CZ:9898, H-A:HIS:456:NE2:4070, V-B:ARG:545:CD:9895, V-B:HIS:456:CE1:9040, V-B:GLU:543:CG:9879, V-B:ILE:455:C:9023, V-A:GLU:543:CD:4908, V-B:ASP:366:CG:8184, V-A:PRO:540:CA:4883, V-A:ALA:541:CB:4892, H-B:TYR:484:OH:9319, V-A:PRO:540:C:4881, V-B:GLU:543:CA:9876, V-A:TYR:484:CZ:4347, H-B:HIS:456:ND1:9038, V-A:TYR:484:CE1:4345, H-A:TYR:484:OH:4348, V-A:PRO:540:CB:4885, V-B:GLY:544:C:9884, V-A:HIS:456:CG:4066, V-B:HIS:456:CB:9036, V-B:LYS:547:CD:9921, V-B:HIS:456:C:9032, V-B:ARG:545:C:9889, V-B:VAL:458:CG2:9058, V-B:VAL:457:C:9044, V-B:HIS:456:CG:9037, H-B:GLY:544:O:9885, V-B:HIS:456:CA:9034, V-B:VAL:457:CA:9046"]

$$$$
RR8_A_Rahimova_2017
     RDKit          3D

 73 77  0  0  0  0  0  0  0  0999 V2000
  129.3530  124.2470   67.4220 O   0  0  0  0  0  0  0  0  0  0  0  0
  129.3470  125.3800   67.9160 C   0  0  0  0  0  0  0  0  0  0  0  0
  129.3460  126.5400   67.1900 O   0  0  0  0  0  0  0  0  0  0  0  0
  130.2010  126.6120   66.0820 C   0  0  1  0  0  0  0  0  0  0  0  0
  131.3100  125.7740   66.2310 O   0  0  0  0  0  0  0  0  0  0  0  0
  131.6740  125.1530   65.0010 C   0  0  2  0  0  0  0  0  0  0  0  0
  133.1490  125.4750   64.7060 C   0  0  0  0  0  0  0  0  0  0  0  0
  133.7500  124.3460   64.0880 O   0  0  0  0  0  0  0  0  0  0  0  0
  134.2320  124.5950   62.7740 C   0  0  0  0  0  0  0  0  0  0  0  0
  133.7950  123.4740   61.8420 C   0  0  0  0  0  0  0  0  0  0  0  0
  133.2310  123.7790   60.6010 C   0  0  0  0  0  0  0  0  0  0  0  0
  132.8360  122.7540   59.7440 C   0  0  0  0  0  0  0  0  0  0  0  0
  133.0090  121.4270   60.1300 C   0  0  0  0  0  0  0  0  0  0  0  0
  133.5760  121.1130   61.3630 C   0  0  0  0  0  0  0  0  0  0  0  0
  133.9720  122.1380   62.2190 C   0  0  0  0  0  0  0  0  0  0  0  0
  130.6610  125.7150   63.9940 C   0  0  1  0  0  0  0  0  0  0  0  0
  130.2200  124.7490   63.0430 O   0  0  0  0  0  0  0  0  0  0  0  0
  129.6340  123.5710   63.5860 C   0  0  0  0  0  0  0  0  0  0  0  0
  129.6880  122.4450   62.5630 C   0  0  0  0  0  0  0  0  0  0  0  0
  128.9750  122.5620   61.3660 C   0  0  0  0  0  0  0  0  0  0  0  0
  129.0120  121.5320   60.4300 C   0  0  0  0  0  0  0  0  0  0  0  0
  129.7590  120.3850   60.6940 C   0  0  0  0  0  0  0  0  0  0  0  0
  130.4650  120.2570   61.8870 C   0  0  0  0  0  0  0  0  0  0  0  0
  130.4270  121.2870   62.8250 C   0  0  0  0  0  0  0  0  0  0  0  0
  129.4680  126.0730   64.8610 C   0  0  2  0  0  0  0  0  0  0  0  0
  128.6470  127.0400   64.2120 O   0  0  0  0  0  0  0  0  0  0  0  0
  128.6190  128.3290   64.8150 C   0  0  0  0  0  0  0  0  0  0  0  0
  127.2120  128.6450   65.2980 C   0  0  0  0  0  0  0  0  0  0  0  0
  126.7930  128.2280   66.5670 C   0  0  0  0  0  0  0  0  0  0  0  0
  125.5080  128.5280   67.0090 C   0  0  0  0  0  0  0  0  0  0  0  0
  124.6440  129.2460   66.1840 C   0  0  0  0  0  0  0  0  0  0  0  0
  125.0540  129.6690   64.9220 C   0  0  0  0  0  0  0  0  0  0  0  0
  126.3410  129.3700   64.4790 C   0  0  0  0  0  0  0  0  0  0  0  0
  129.3270  125.6240   69.3970 C   0  0  0  0  0  0  0  0  0  0  0  0
  129.7390  124.6470   70.3160 C   0  0  0  0  0  0  0  0  0  0  0  0
  129.7080  124.9040   71.6840 C   0  0  0  0  0  0  0  0  0  0  0  0
  129.2630  126.1410   72.1690 C   0  0  0  0  0  0  0  0  0  0  0  0
  129.2320  126.4130   73.6260 N   0  0  0  0  0  0  0  0  0  0  0  0
  130.1810  127.0020   74.1350 O   0  0  0  0  0  0  0  0  0  0  0  0
  128.2570  126.0420   74.2730 O   0  0  0  0  0  0  0  0  0  0  0  0
  128.8490  127.1140   71.2510 C   0  0  0  0  0  0  0  0  0  0  0  0
  128.8800  126.8600   69.8840 C   0  0  0  0  0  0  0  0  0  0  0  0
  130.5127  127.6622   65.9823 H   0  0  0  0  0  0  0  0  0  0  0  0
  131.6267  124.0541   64.9844 H   0  0  0  0  0  0  0  0  0  0  0  0
  133.2103  126.3418   64.0315 H   0  0  0  0  0  0  0  0  0  0  0  0
  133.6743  125.7115   65.6431 H   0  0  0  0  0  0  0  0  0  0  0  0
  133.8255  125.5506   62.4112 H   0  0  0  0  0  0  0  0  0  0  0  0
  135.3308  124.6425   62.7938 H   0  0  0  0  0  0  0  0  0  0  0  0
  133.0987  124.8288   60.3003 H   0  0  0  0  0  0  0  0  0  0  0  0
  132.3896  122.9917   58.7671 H   0  0  0  0  0  0  0  0  0  0  0  0
  132.6945  120.6183   59.4539 H   0  0  0  0  0  0  0  0  0  0  0  0
  133.7102  120.0621   61.6588 H   0  0  0  0  0  0  0  0  0  0  0  0
  134.4243  121.8971   63.1923 H   0  0  0  0  0  0  0  0  0  0  0  0
  131.1065  126.5415   63.4209 H   0  0  0  0  0  0  0  0  0  0  0  0
  130.1876  123.2709   64.4879 H   0  0  0  0  0  0  0  0  0  0  0  0
  128.5843  123.7751   63.8440 H   0  0  0  0  0  0  0  0  0  0  0  0
  128.3848  123.4679   61.1638 H   0  0  0  0  0  0  0  0  0  0  0  0
  128.4542  121.6229   59.4863 H   0  0  0  0  0  0  0  0  0  0  0  0
  129.7909  119.5732   59.9525 H   0  0  0  0  0  0  0  0  0  0  0  0
  131.0499  119.3474   62.0883 H   0  0  0  0  0  0  0  0  0  0  0  0
  130.9785  121.1891   63.7717 H   0  0  0  0  0  0  0  0  0  0  0  0
  128.7629  125.2604   65.0904 H   0  0  0  0  0  0  0  0  0  0  0  0
  129.3106  128.3465   65.6702 H   0  0  0  0  0  0  0  0  0  0  0  0
  128.9246  129.0819   64.0736 H   0  0  0  0  0  0  0  0  0  0  0  0
  127.4795  127.6632   67.2148 H   0  0  0  0  0  0  0  0  0  0  0  0
  125.1757  128.2000   68.0050 H   0  0  0  0  0  0  0  0  0  0  0  0
  123.6277  129.4810   66.5333 H   0  0  0  0  0  0  0  0  0  0  0  0
  124.3655  130.2361   64.2783 H   0  0  0  0  0  0  0  0  0  0  0  0
  126.6718  129.7045   63.4847 H   0  0  0  0  0  0  0  0  0  0  0  0
  130.0895  123.6697   69.9525 H   0  0  0  0  0  0  0  0  0  0  0  0
  130.0362  124.1281   72.3913 H   0  0  0  0  0  0  0  0  0  0  0  0
  128.4954  128.0899   71.6151 H   0  0  0  0  0  0  0  0  0  0  0  0
  128.5505  127.6366   69.1781 H   0  0  0  0  0  0  0  0  0  0  0  0
  1  2  2  0
  2  3  1  0
  3  4  1  0
  4  5  1  0
  5  6  1  0
  6  7  1  0
  7  8  1  0
  8  9  1  0
  9 10  1  0
 10 11  2  0
 11 12  1  0
 12 13  2  0
 13 14  1  0
 14 15  2  0
  6 16  1  0
 16 17  1  0
 17 18  1  0
 18 19  1  0
 19 20  2  0
 20 21  1  0
 21 22  2  0
 22 23  1  0
 23 24  2  0
 16 25  1  0
 25 26  1  0
 26 27  1  0
 27 28  1  0
 28 29  2  0
 29 30  1  0
 30 31  2  0
 31 32  1  0
 32 33  2  0
  2 34  1  0
 34 35  2  0
 35 36  1  0
 36 37  2  0
 37 38  1  0
 38 39  2  0
 38 40  1  0
 37 41  1  0
 41 42  2  0
 25  4  1  0
 33 28  1  0
 42 34  1  0
 15 10  1  0
 24 19  1  0
  4 43  1  6
  6 44  1  1
  7 45  1  0
  7 46  1  0
  9 47  1  0
  9 48  1  0
 11 49  1  0
 12 50  1  0
 13 51  1  0
 14 52  1  0
 15 53  1  0
 16 54  1  6
 18 55  1  0
 18 56  1  0
 20 57  1  0
 21 58  1  0
 22 59  1  0
 23 60  1  0
 24 61  1  0
 25 62  1  1
 27 63  1  0
 27 64  1  0
 29 65  1  0
 30 66  1  0
 31 67  1  0
 32 68  1  0
 33 69  1  0
 35 70  1  0
 36 71  1  0
 41 72  1  0
 42 73  1  0
M  CHG  2  38   1  40  -1
M  END
>  <Binding energies>  (1) 
[-10.09]

>  <Ligand effiencies>  (1) 
[-0.24023809523809522]

>  <Interactions>  (1) 
["V-B:ARG:545:CG:9894, V-A:HIS:456:CD2:4068, V-B:GLU:543:CD:9880, H-B:LYS:547:NZ:9923, V-B:GLU:543:C:9874, H-A:LYS:547:NZ:4951, V-B:GLU:543:CB:9878, V-A:HIS:456:CE1:4069, V-B:ARG:545:CZ:9898, V-B:ARG:545:CD:9895, V-B:HIS:456:CE1:9040, V-B:GLU:543:CG:9879, V-A:GLU:543:CD:4908, V-B:ALA:541:CB:9864, V-A:TYR:484:CZ:4347, V-A:LEU:475:CD1:4258, V-A:TYR:484:CE1:4345, H-A:GLY:454:N:4050, V-A:ARG:545:CZ:4926, V-A:GLY:453:CA:4044, H-A:TYR:484:OH:4348, V-A:GLY:453:C:4042, V-A:GLY:454:CA:4049, V-A:ASP:366:CG:3213, V-B:TYR:539:CE2:9848, V-A:ILE:369:CG2:3237, V-A:ILE:369:CD1:3239, V-B:TYR:539:CD2:9846, V-A:HIS:456:CG:4066"]

$$$$
RR8_B_Rahimova_2017
     RDKit          3D

 73 77  0  0  0  0  0  0  0  0999 V2000
  129.0170  129.3580   68.1260 O   0  0  0  0  0  0  0  0  0  0  0  0
  128.5040  128.6790   67.2320 C   0  0  0  0  0  0  0  0  0  0  0  0
  128.9320  127.4320   66.8670 O   0  0  0  0  0  0  0  0  0  0  0  0
  128.1370  126.3270   67.2220 C   0  0  2  0  0  0  0  0  0  0  0  0
  127.3870  126.5740   68.3780 O   0  0  0  0  0  0  0  0  0  0  0  0
  128.0840  126.1590   69.5520 C   0  0  2  0  0  0  0  0  0  0  0  0
  128.2570  127.3610   70.4980 C   0  0  0  0  0  0  0  0  0  0  0  0
  127.1680  127.3960   71.4120 O   0  0  0  0  0  0  0  0  0  0  0  0
  127.4930  127.0270   72.7440 C   0  0  0  0  0  0  0  0  0  0  0  0
  126.4400  127.5840   73.6900 C   0  0  0  0  0  0  0  0  0  0  0  0
  125.1650  127.0120   73.7240 C   0  0  0  0  0  0  0  0  0  0  0  0
  124.1890  127.5330   74.5700 C   0  0  0  0  0  0  0  0  0  0  0  0
  124.4930  128.6240   75.3810 C   0  0  0  0  0  0  0  0  0  0  0  0
  125.7630  129.1950   75.3580 C   0  0  0  0  0  0  0  0  0  0  0  0
  126.7380  128.6770   74.5090 C   0  0  0  0  0  0  0  0  0  0  0  0
  129.3850  125.5450   69.0230 C   0  0  1  0  0  0  0  0  0  0  0  0
  129.7660  124.4350   69.8410 O   0  0  0  0  0  0  0  0  0  0  0  0
  129.1870  124.3610   71.1460 C   0  0  0  0  0  0  0  0  0  0  0  0
  130.2390  124.1770   72.2360 C   0  0  0  0  0  0  0  0  0  0  0  0
  131.0030  123.0070   72.2820 C   0  0  0  0  0  0  0  0  0  0  0  0
  131.9850  122.8560   73.2580 C   0  0  0  0  0  0  0  0  0  0  0  0
  132.1960  123.8730   74.1870 C   0  0  0  0  0  0  0  0  0  0  0  0
  131.4350  125.0390   74.1500 C   0  0  0  0  0  0  0  0  0  0  0  0
  130.4550  125.1920   73.1710 C   0  0  0  0  0  0  0  0  0  0  0  0
  129.0380  125.1500   67.5920 C   0  0  2  0  0  0  0  0  0  0  0  0
  130.2200  125.0590   66.8000 O   0  0  0  0  0  0  0  0  0  0  0  0
  130.0270  125.1480   65.3970 C   0  0  0  0  0  0  0  0  0  0  0  0
  131.3840  125.0330   64.7230 C   0  0  0  0  0  0  0  0  0  0  0  0
  131.4730  124.6950   63.3700 C   0  0  0  0  0  0  0  0  0  0  0  0
  132.7230  124.5740   62.7670 C   0  0  0  0  0  0  0  0  0  0  0  0
  133.8760  124.7910   63.5170 C   0  0  0  0  0  0  0  0  0  0  0  0
  133.7940  125.1300   64.8670 C   0  0  0  0  0  0  0  0  0  0  0  0
  132.5450  125.2520   65.4700 C   0  0  0  0  0  0  0  0  0  0  0  0
  127.3520  129.1570   66.3950 C   0  0  0  0  0  0  0  0  0  0  0  0
  126.0260  128.8140   66.6980 C   0  0  0  0  0  0  0  0  0  0  0  0
  124.9800  129.2640   65.9000 C   0  0  0  0  0  0  0  0  0  0  0  0
  125.2320  130.0590   64.7750 C   0  0  0  0  0  0  0  0  0  0  0  0
  124.1160  130.5160   63.9100 N   0  0  0  0  0  0  0  0  0  0  0  0
  124.3350  131.3990   63.0850 O   0  0  0  0  0  0  0  0  0  0  0  0
  123.0130  129.9920   64.0470 O   0  0  0  0  0  0  0  0  0  0  0  0
  126.5560  130.4060   64.4770 C   0  0  0  0  0  0  0  0  0  0  0  0
  127.6020  129.9630   65.2780 C   0  0  0  0  0  0  0  0  0  0  0  0
  127.4832  126.1248   66.3608 H   0  0  0  0  0  0  0  0  0  0  0  0
  127.5587  125.4133   70.1668 H   0  0  0  0  0  0  0  0  0  0  0  0
  129.2008  127.2592   71.0537 H   0  0  0  0  0  0  0  0  0  0  0  0
  128.2790  128.2922   69.9129 H   0  0  0  0  0  0  0  0  0  0  0  0
  127.5177  125.9303   72.8261 H   0  0  0  0  0  0  0  0  0  0  0  0
  128.4798  127.4343   73.0093 H   0  0  0  0  0  0  0  0  0  0  0  0
  124.9323  126.1496   73.0820 H   0  0  0  0  0  0  0  0  0  0  0  0
  123.1844  127.0858   74.5976 H   0  0  0  0  0  0  0  0  0  0  0  0
  123.7218  129.0389   76.0466 H   0  0  0  0  0  0  0  0  0  0  0  0
  125.9951  130.0517   76.0078 H   0  0  0  0  0  0  0  0  0  0  0  0
  127.7412  129.1274   74.4829 H   0  0  0  0  0  0  0  0  0  0  0  0
  130.2508  126.2231   69.0462 H   0  0  0  0  0  0  0  0  0  0  0  0
  128.6343  125.2918   71.3412 H   0  0  0  0  0  0  0  0  0  0  0  0
  128.5208  123.4860   71.1698 H   0  0  0  0  0  0  0  0  0  0  0  0
  130.8287  122.2065   71.5480 H   0  0  0  0  0  0  0  0  0  0  0  0
  132.5909  121.9387   73.2953 H   0  0  0  0  0  0  0  0  0  0  0  0
  132.9718  123.7537   74.9577 H   0  0  0  0  0  0  0  0  0  0  0  0
  131.6066  125.8349   74.8896 H   0  0  0  0  0  0  0  0  0  0  0  0
  129.8521  126.1113   73.1346 H   0  0  0  0  0  0  0  0  0  0  0  0
  128.5633  124.1681   67.4487 H   0  0  0  0  0  0  0  0  0  0  0  0
  129.3727  124.3311   65.0585 H   0  0  0  0  0  0  0  0  0  0  0  0
  129.5543  126.1070   65.1385 H   0  0  0  0  0  0  0  0  0  0  0  0
  130.5586  124.5249   62.7827 H   0  0  0  0  0  0  0  0  0  0  0  0
  132.7989  124.3080   61.7023 H   0  0  0  0  0  0  0  0  0  0  0  0
  134.8621  124.6939   63.0393 H   0  0  0  0  0  0  0  0  0  0  0  0
  134.7101  125.2999   65.4518 H   0  0  0  0  0  0  0  0  0  0  0  0
  132.4719  125.5207   66.5342 H   0  0  0  0  0  0  0  0  0  0  0  0
  125.8120  128.1840   67.5739 H   0  0  0  0  0  0  0  0  0  0  0  0
  123.9448  128.9930   66.1548 H   0  0  0  0  0  0  0  0  0  0  0  0
  126.7700  131.0352   63.6005 H   0  0  0  0  0  0  0  0  0  0  0  0
  128.6355  130.2483   65.0320 H   0  0  0  0  0  0  0  0  0  0  0  0
  1  2  2  0
  2  3  1  0
  3  4  1  0
  4  5  1  0
  5  6  1  0
  6  7  1  0
  7  8  1  0
  8  9  1  0
  9 10  1  0
 10 11  2  0
 11 12  1  0
 12 13  2  0
 13 14  1  0
 14 15  2  0
  6 16  1  0
 16 17  1  0
 17 18  1  0
 18 19  1  0
 19 20  2  0
 20 21  1  0
 21 22  2  0
 22 23  1  0
 23 24  2  0
 16 25  1  0
 25 26  1  0
 26 27  1  0
 27 28  1  0
 28 29  2  0
 29 30  1  0
 30 31  2  0
 31 32  1  0
 32 33  2  0
  2 34  1  0
 34 35  2  0
 35 36  1  0
 36 37  2  0
 37 38  1  0
 38 39  2  0
 38 40  1  0
 37 41  1  0
 41 42  2  0
 25  4  1  0
 33 28  1  0
 42 34  1  0
 15 10  1  0
 24 19  1  0
  4 43  1  6
  6 44  1  1
  7 45  1  0
  7 46  1  0
  9 47  1  0
  9 48  1  0
 11 49  1  0
 12 50  1  0
 13 51  1  0
 14 52  1  0
 15 53  1  0
 16 54  1  6
 18 55  1  0
 18 56  1  0
 20 57  1  0
 21 58  1  0
 22 59  1  0
 23 60  1  0
 24 61  1  0
 25 62  1  1
 27 63  1  0
 27 64  1  0
 29 65  1  0
 30 66  1  0
 31 67  1  0
 32 68  1  0
 33 69  1  0
 35 70  1  0
 36 71  1  0
 41 72  1  0
 42 73  1  0
M  CHG  2  38   1  40  -1
M  END
>  <Binding energies>  (1) 
[-10.2]

>  <Ligand effiencies>  (1) 
[-0.24285714285714283]

>  <Interactions>  (1) 
["V-B:ARG:545:CG:9894, H-B:HIS:456:NE2:9041, V-A:HIS:456:CD2:4068, V-B:GLU:543:C:9874, V-B:HIS:456:CD2:9039, V-B:GLU:543:CB:9878, V-A:HIS:456:CE1:4069, V-B:ARG:545:CZ:9898, H-A:HIS:456:NE2:4070, V-B:ARG:545:CD:9895, V-B:HIS:456:CE1:9040, V-A:GLU:543:CD:4908, H-B:GLY:454:N:9021, V-B:GLY:454:CA:9020, H-B:ARG:545:NH1:9899, H-B:ARG:545:NH2:9900, V-B:GLU:543:CA:9876, H-B:ARG:545:NE:9896, V-A:GLU:543:CB:4906, V-A:TYR:484:CE1:4345, V-A:ARG:545:CZ:4926, V-A:GLY:453:CA:4044, H-A:TYR:484:OH:4348, V-A:ARG:545:CD:4923, V-B:GLY:544:C:9884, V-A:HIS:456:CG:4066, V-A:TYR:484:CD2:4344, V-A:TYR:484:CE2:4346, V-A:HIS:456:CB:4065, V-A:TYR:484:CG:4342, V-B:HIS:456:CB:9036, V-B:LYS:547:CD:9921, V-B:HIS:456:C:9032, V-B:ARG:545:C:9889, V-B:VAL:458:CG2:9058, V-B:VAL:457:C:9044, V-B:HIS:456:CG:9037, V-B:HIS:456:CA:9034, V-B:VAL:457:CA:9046, V-A:ASP:473:CG:4240, V-A:ASP:473:CB:4239"]

$$$$
RR9_Rahimova_2017
     RDKit          3D

 64 68  0  0  0  0  0  0  0  0999 V2000
  131.2150  123.1840   72.2820 C   0  0  0  0  0  0  0  0  0  0  0  0
  130.4310  123.6100   71.0370 C   0  0  0  0  0  0  0  0  0  0  0  0
  129.6230  124.7360   71.3680 O   0  0  0  0  0  0  0  0  0  0  0  0
  129.0090  125.4500   70.3570 C   0  0  0  0  0  0  0  0  0  0  0  0
  127.8750  126.1800   70.7100 C   0  0  0  0  0  0  0  0  0  0  0  0
  127.1890  126.9270   69.7580 C   0  0  0  0  0  0  0  0  0  0  0  0
  127.6190  126.9670   68.4230 C   0  0  0  0  0  0  0  0  0  0  0  0
  126.8800  127.7680   67.3920 C   0  0  0  0  0  0  0  0  0  0  0  0
  127.4600  128.0880   66.1550 C   0  0  0  0  0  0  0  0  0  0  0  0
  126.7590  128.8280   65.1860 C   0  0  0  0  0  0  0  0  0  0  0  0
  127.3960  129.0510   63.8420 C   0  0  0  0  0  0  0  0  0  0  0  0
  128.2420  129.9330   63.6920 O   0  0  0  0  0  0  0  0  0  0  0  0
  126.9620  128.2510   62.8470 N   0  0  0  0  0  0  0  0  0  0  0  0
  127.3320  128.3610   61.4320 C   0  0  0  0  0  0  0  0  0  0  0  0
  126.5060  129.4230   60.6710 C   0  0  0  0  0  0  0  0  0  0  0  0
  127.3230  130.5760   60.0990 C   0  0  0  0  0  0  0  0  0  0  0  0
  127.9230  131.5040   60.9560 C   0  0  0  0  0  0  0  0  0  0  0  0
  128.6970  132.5350   60.4320 C   0  0  0  0  0  0  0  0  0  0  0  0
  128.8660  132.6390   59.0540 C   0  0  0  0  0  0  0  0  0  0  0  0
  128.2680  131.7210   58.1930 C   0  0  0  0  0  0  0  0  0  0  0  0
  127.4940  130.6880   58.7170 C   0  0  0  0  0  0  0  0  0  0  0  0
  125.4570  129.2560   65.5450 C   0  0  0  0  0  0  0  0  0  0  0  0
  124.3740  130.0290   64.9850 C   0  0  0  0  0  0  0  0  0  0  0  0
  124.3130  130.7820   63.6970 C   0  0  0  0  0  0  0  0  0  0  0  0
  123.4420  130.3730   62.6830 C   0  0  0  0  0  0  0  0  0  0  0  0
  123.3980  131.0670   61.4760 C   0  0  0  0  0  0  0  0  0  0  0  0
  124.2240  132.1750   61.2800 C   0  0  0  0  0  0  0  0  0  0  0  0
  124.1900  132.9200   59.9580 C   0  0  0  0  0  0  0  0  0  0  0  0
  125.0970  132.5850   62.2890 C   0  0  0  0  0  0  0  0  0  0  0  0
  125.1370  131.8920   63.4950 C   0  0  0  0  0  0  0  0  0  0  0  0
  123.3430  130.0370   65.8000 N   0  0  0  0  0  0  0  0  0  0  0  0
  123.6860  129.3610   66.9070 N   0  0  0  0  0  0  0  0  0  0  0  0
  124.9680  128.8710   66.8170 C   0  0  0  0  0  0  0  0  0  0  0  0
  125.6220  128.1610   67.7350 N   0  0  0  0  0  0  0  0  0  0  0  0
  128.7590  126.2290   68.0760 C   0  0  0  0  0  0  0  0  0  0  0  0
  129.4490  125.4800   69.0270 C   0  0  0  0  0  0  0  0  0  0  0  0
  130.6620  123.4845   73.1842 H   0  0  0  0  0  0  0  0  0  0  0  0
  131.3442  122.0916   72.2780 H   0  0  0  0  0  0  0  0  0  0  0  0
  132.2018  123.6700   72.2780 H   0  0  0  0  0  0  0  0  0  0  0  0
  131.1315  123.8808   70.2333 H   0  0  0  0  0  0  0  0  0  0  0  0
  129.7951  122.7809   70.6932 H   0  0  0  0  0  0  0  0  0  0  0  0
  127.5195  126.1651   71.7509 H   0  0  0  0  0  0  0  0  0  0  0  0
  126.2956  127.4951   70.0564 H   0  0  0  0  0  0  0  0  0  0  0  0
  128.4851  127.7528   65.9385 H   0  0  0  0  0  0  0  0  0  0  0  0
  126.3300  127.5000   63.0830 H   0  0  0  0  0  0  0  0  0  0  0  0
  128.3959  128.6331   61.3683 H   0  0  0  0  0  0  0  0  0  0  0  0
  127.1275  127.3875   60.9625 H   0  0  0  0  0  0  0  0  0  0  0  0
  125.9892  128.9232   59.8385 H   0  0  0  0  0  0  0  0  0  0  0  0
  125.8166  129.8651   61.4054 H   0  0  0  0  0  0  0  0  0  0  0  0
  127.7832  131.4190   62.0438 H   0  0  0  0  0  0  0  0  0  0  0  0
  129.1732  133.2645   61.1036 H   0  0  0  0  0  0  0  0  0  0  0  0
  129.4779  133.4543   58.6406 H   0  0  0  0  0  0  0  0  0  0  0  0
  128.4063  131.8115   57.1055 H   0  0  0  0  0  0  0  0  0  0  0  0
  127.0177  129.9609   58.0429 H   0  0  0  0  0  0  0  0  0  0  0  0
  122.7898  129.5010   62.8386 H   0  0  0  0  0  0  0  0  0  0  0  0
  122.7134  130.7424   60.6786 H   0  0  0  0  0  0  0  0  0  0  0  0
  124.1406  134.0023   60.1482 H   0  0  0  0  0  0  0  0  0  0  0  0
  125.0996  132.6897   59.3839 H   0  0  0  0  0  0  0  0  0  0  0  0
  123.3052  132.6079   59.3839 H   0  0  0  0  0  0  0  0  0  0  0  0
  125.7522  133.4544   62.1311 H   0  0  0  0  0  0  0  0  0  0  0  0
  125.8202  132.2195   64.2925 H   0  0  0  0  0  0  0  0  0  0  0  0
  123.0340  129.2600   67.6720 H   0  0  0  0  0  0  0  0  0  0  0  0
  129.1150  126.2413   67.0353 H   0  0  0  0  0  0  0  0  0  0  0  0
  130.3426  124.9101   68.7325 H   0  0  0  0  0  0  0  0  0  0  0  0
  1  2  1  0
  2  3  1  0
  3  4  1  0
  4  5  2  0
  5  6  1  0
  6  7  2  0
  7  8  1  0
  8  9  2  0
  9 10  1  0
 10 11  1  0
 11 12  2  0
 11 13  1  0
 13 14  1  0
 14 15  1  0
 15 16  1  0
 16 17  2  0
 17 18  1  0
 18 19  2  0
 19 20  1  0
 20 21  2  0
 10 22  2  0
 22 23  1  0
 23 24  1  0
 24 25  2  0
 25 26  1  0
 26 27  2  0
 27 28  1  0
 27 29  1  0
 29 30  2  0
 23 31  2  0
 31 32  1  0
 32 33  1  0
 33 34  2  0
  7 35  1  0
 35 36  2  0
 36  4  1  0
 34  8  1  0
 21 16  1  0
 33 22  1  0
 30 24  1  0
  1 37  1  0
  1 38  1  0
  1 39  1  0
  2 40  1  0
  2 41  1  0
  5 42  1  0
  6 43  1  0
  9 44  1  0
 13 45  1  0
 14 46  1  0
 14 47  1  0
 15 48  1  0
 15 49  1  0
 17 50  1  0
 18 51  1  0
 19 52  1  0
 20 53  1  0
 21 54  1  0
 25 55  1  0
 26 56  1  0
 28 57  1  0
 28 58  1  0
 28 59  1  0
 29 60  1  0
 30 61  1  0
 32 62  1  0
 35 63  1  0
 36 64  1  0
M  END
>  <Binding energies>  (1) 
[-9.67]

>  <Ligand effiencies>  (1) 
[-0.2544736842105263]

>  <Interactions>  (1) 
["V-B:ARG:545:CG:9894, V-A:HIS:456:CD2:4068, V-B:GLU:543:CD:9880, H-B:LYS:547:NZ:9923, V-B:GLU:543:C:9874, V-B:GLU:543:CB:9878, V-A:HIS:456:CE1:4069, V-B:ARG:545:CZ:9898, H-A:HIS:456:NE2:4070, V-B:ARG:545:CD:9895, V-B:HIS:456:CE1:9040, V-B:ILE:455:C:9023, H-B:GLY:454:N:9021, V-A:PRO:540:N:4884, V-A:TYR:539:C:4867, V-B:GLY:454:CA:9020, V-B:ASP:366:CG:8184, V-B:LEU:475:CD1:9229, V-A:PRO:540:CA:4883, V-B:ILE:369:CD1:8210, H-B:ILE:455:N:9026, V-A:TYR:539:CE2:4876, H-B:TYR:484:OH:9319, V-B:ILE:369:CG2:8208, V-A:TYR:539:CD2:4874, H-B:ARG:545:NE:9896, V-A:TYR:484:CZ:4347, H-B:HIS:456:ND1:9038, V-A:TYR:484:CE1:4345, V-A:TYR:539:CZ:4877, V-B:GLY:544:C:9884, V-A:HIS:456:CG:4066, H-B:GLU:543:OE1:9881, V-A:TYR:484:CD2:4344, V-A:TYR:484:CE2:4346, V-A:TYR:484:CD1:4343, V-A:HIS:456:CB:4065, V-A:TYR:484:CG:4342, H-B:GLU:543:OE2:9882, V-B:ARG:545:CB:9893, H-B:ILE:455:O:9024"]

$$$$
