1a_Ghoteimi_2023
     RDKit          3D

 40 43  0  0  0  0  0  0  0  0999 V2000
  123.7600  134.5200   61.3640 C   0  0  0  0  0  0  0  0  0  0  0  0
  124.7710  133.6390   60.6230 C   0  0  0  0  0  0  0  0  0  0  0  0
  124.1300  133.0110   59.5200 O   0  0  0  0  0  0  0  0  0  0  0  0
  123.7290  131.7160   59.5860 C   0  0  0  0  0  0  0  0  0  0  0  0
  123.0220  131.1770   58.7280 O   0  0  0  0  0  0  0  0  0  0  0  0
  124.2350  131.0010   60.8050 C   0  0  0  0  0  0  0  0  0  0  0  0
  125.4060  130.2280   60.7800 C   0  0  0  0  0  0  0  0  0  0  0  0
  125.8490  129.5730   61.9260 C   0  0  0  0  0  0  0  0  0  0  0  0
  125.1280  129.6850   63.1250 C   0  0  0  0  0  0  0  0  0  0  0  0
  125.4810  129.0640   64.3390 N   0  0  0  0  0  0  0  0  0  0  0  0
  124.9440  129.2040   65.5700 C   0  0  0  0  0  0  0  0  0  0  0  0
  123.9910  129.9280   65.8580 O   0  0  0  0  0  0  0  0  0  0  0  0
  125.6000  128.3710   66.6710 C   0  0  0  0  0  0  0  0  0  0  0  0
  127.3120  128.8940   66.9810 S   0  0  0  0  0  0  0  0  0  0  0  0
  128.2540  127.4020   67.1970 C   0  0  0  0  0  0  0  0  0  0  0  0
  128.5070  127.0940   68.4910 N   0  0  0  0  0  0  0  0  0  0  0  0
  129.2150  125.9740   68.7940 C   0  0  0  0  0  0  0  0  0  0  0  0
  129.4360  125.6910   70.2520 C   0  0  0  0  0  0  0  0  0  0  0  0
  129.9020  124.4410   70.6900 C   0  0  0  0  0  0  0  0  0  0  0  0
  130.1060  124.1820   72.0430 C   0  0  0  0  0  0  0  0  0  0  0  0
  129.8510  125.1620   72.9990 C   0  0  0  0  0  0  0  0  0  0  0  0
  130.0840  124.8190   74.3170 O   0  0  0  0  0  0  0  0  0  0  0  0
  131.3720  124.3420   74.6920 C   0  0  0  0  0  0  0  0  0  0  0  0
  129.3820  126.4140   72.5770 C   0  0  0  0  0  0  0  0  0  0  0  0
  129.1780  126.6690   71.2250 C   0  0  0  0  0  0  0  0  0  0  0  0
  129.6870  125.1340   67.7780 C   0  0  0  0  0  0  0  0  0  0  0  0
  129.4590  125.4440   66.4310 C   0  0  0  0  0  0  0  0  0  0  0  0
  130.0200  124.5190   65.4000 C   0  0  0  0  0  0  0  0  0  0  0  0
  131.2140  124.8220   64.7380 C   0  0  0  0  0  0  0  0  0  0  0  0
  131.7380  123.9470   63.7900 C   0  0  0  0  0  0  0  0  0  0  0  0
  131.0840  122.7520   63.4890 C   0  0  0  0  0  0  0  0  0  0  0  0
  131.6780  121.9480   62.5370 O   0  0  0  0  0  0  0  0  0  0  0  0
  130.8570  121.1400   61.7010 C   0  0  0  0  0  0  0  0  0  0  0  0
  129.8900  122.4410   64.1580 C   0  0  0  0  0  0  0  0  0  0  0  0
  129.3670  123.3180   65.1050 C   0  0  0  0  0  0  0  0  0  0  0  0
  128.7170  126.6100   66.1240 C   0  0  0  0  0  0  0  0  0  0  0  0
  128.4340  126.9790   64.7330 C   0  0  0  0  0  0  0  0  0  0  0  0
  128.2100  127.2690   63.6350 N   0  0  0  0  0  0  0  0  0  0  0  0
  123.9620  130.4490   63.1520 C   0  0  0  0  0  0  0  0  0  0  0  0
  123.5190  131.1040   62.0050 C   0  0  0  0  0  0  0  0  0  0  0  0
  1  2  1  0
  2  3  1  0
  3  4  1  0
  4  5  2  0
  4  6  1  0
  6  7  2  0
  7  8  1  0
  8  9  2  0
  9 10  1  0
 10 11  1  0
 11 12  2  0
 11 13  1  0
 13 14  1  0
 14 15  1  0
 15 16  2  0
 16 17  1  0
 17 18  1  0
 18 19  2  0
 19 20  1  0
 20 21  2  0
 21 22  1  0
 22 23  1  0
 21 24  1  0
 24 25  2  0
 17 26  2  0
 26 27  1  0
 27 28  1  0
 28 29  2  0
 29 30  1  0
 30 31  2  0
 31 32  1  0
 32 33  1  0
 31 34  1  0
 34 35  2  0
 27 36  2  0
 36 37  1  0
 37 38  3  0
  9 39  1  0
 39 40  2  0
 40  6  1  0
 36 15  1  0
 25 18  1  0
 35 28  1  0
M  END
>  <Binding energies>  (1) 
[-8.93]

>  <Ligand effiencies>  (1) 
[-0.2178048780487805]

>  <Interactions>  (1) 
["V-B:ARG:545:CG:9894, V-A:HIS:456:CD2:4068, V-B:GLU:543:CD:9880, H-B:LYS:547:NZ:9923, V-B:GLU:543:C:9874, V-B:GLU:543:CB:9878, V-A:HIS:456:CE1:4069, V-B:ARG:545:CZ:9898, V-B:ARG:545:CD:9895, V-B:HIS:456:CE1:9040, V-B:GLU:543:CG:9879, H-B:GLY:454:N:9021, V-B:ILE:369:CB:8207, V-B:ASP:366:CG:8184, V-B:LEU:475:CD1:9229, V-B:ILE:369:CD1:8210, V-A:TYR:539:CE2:4876, H-B:TYR:484:OH:9319, V-B:ILE:369:CG2:8208, V-B:ALA:541:CB:9864, V-B:GLU:543:CA:9876, H-B:ARG:545:NE:9896, V-A:TYR:484:CZ:4347, V-A:LEU:475:CD1:4258, V-A:TYR:484:CE1:4345, H-A:TYR:539:OH:4878, V-A:HIS:456:CG:4066, H-B:GLU:543:OE1:9881"]

$$$$
1b_Ghoteimi_2023
     RDKit          3D

 34 37  0  0  0  0  0  0  0  0999 V2000
  134.0900  124.3900   62.6320 C   0  0  0  0  0  0  0  0  0  0  0  0
  133.6780  124.3660   63.9940 O   0  0  0  0  0  0  0  0  0  0  0  0
  132.4970  124.9860   64.3510 C   0  0  0  0  0  0  0  0  0  0  0  0
  132.3210  125.2630   65.7060 C   0  0  0  0  0  0  0  0  0  0  0  0
  131.1610  125.8850   66.1590 C   0  0  0  0  0  0  0  0  0  0  0  0
  130.1410  126.2530   65.2690 C   0  0  0  0  0  0  0  0  0  0  0  0
  128.8890  126.9230   65.7630 C   0  0  0  0  0  0  0  0  0  0  0  0
  128.2470  127.9480   65.0600 C   0  0  0  0  0  0  0  0  0  0  0  0
  127.0790  128.5360   65.5620 C   0  0  0  0  0  0  0  0  0  0  0  0
  126.4500  129.6290   64.7620 C   0  0  0  0  0  0  0  0  0  0  0  0
  125.1390  129.4960   64.2950 C   0  0  0  0  0  0  0  0  0  0  0  0
  124.5510  130.5080   63.5410 C   0  0  0  0  0  0  0  0  0  0  0  0
  125.2620  131.6690   63.2350 C   0  0  0  0  0  0  0  0  0  0  0  0
  124.5990  132.6180   62.4820 O   0  0  0  0  0  0  0  0  0  0  0  0
  123.7450  132.1930   61.4250 C   0  0  0  0  0  0  0  0  0  0  0  0
  126.5810  131.8020   63.6940 C   0  0  0  0  0  0  0  0  0  0  0  0
  127.1660  130.7890   64.4470 C   0  0  0  0  0  0  0  0  0  0  0  0
  126.5590  128.0610   66.7910 C   0  0  0  0  0  0  0  0  0  0  0  0
  125.2890  128.5760   67.3110 C   0  0  0  0  0  0  0  0  0  0  0  0
  124.2860  128.9840   67.7210 N   0  0  0  0  0  0  0  0  0  0  0  0
  127.2680  127.0380   67.4600 C   0  0  0  0  0  0  0  0  0  0  0  0
  126.7690  126.3250   69.0140 S   0  0  0  0  0  0  0  0  0  0  0  0
  127.9390  126.8920   70.2930 C   0  0  0  0  0  0  0  0  0  0  0  0
  128.3720  125.8170   71.3000 C   0  0  0  0  0  0  0  0  0  0  0  0
  128.1900  125.9770   72.5090 O   0  0  0  0  0  0  0  0  0  0  0  0
  128.9500  124.7270   70.7470 N   0  0  0  0  0  0  0  0  0  0  0  0
  129.4340  123.6050   71.4090 C   0  0  0  0  0  0  0  0  0  0  0  0
  130.6640  123.5800   72.0640 C   0  0  0  0  0  0  0  0  0  0  0  0
  130.7680  122.3090   72.5810 C   0  0  0  0  0  0  0  0  0  0  0  0
  129.6570  121.6060   72.2550 O   0  0  0  0  0  0  0  0  0  0  0  0
  128.8190  122.4380   71.5130 N   0  0  0  0  0  0  0  0  0  0  0  0
  128.3880  126.4760   66.9440 N   0  0  0  0  0  0  0  0  0  0  0  0
  130.3280  125.9690   63.9070 C   0  0  0  0  0  0  0  0  0  0  0  0
  131.4850  125.3460   63.4500 C   0  0  0  0  0  0  0  0  0  0  0  0
  1  2  1  0
  2  3  1  0
  3  4  2  0
  4  5  1  0
  5  6  2  0
  6  7  1  0
  7  8  2  0
  8  9  1  0
  9 10  1  0
 10 11  2  0
 11 12  1  0
 12 13  2  0
 13 14  1  0
 14 15  1  0
 13 16  1  0
 16 17  2  0
  9 18  2  0
 18 19  1  0
 19 20  3  0
 18 21  1  0
 21 22  1  0
 22 23  1  0
 23 24  1  0
 24 25  2  0
 24 26  1  0
 26 27  1  0
 27 28  1  0
 28 29  2  0
 29 30  1  0
 30 31  1  0
 21 32  2  0
  6 33  1  0
 33 34  2  0
 34  3  1  0
 32  7  1  0
 17 10  1  0
 31 27  2  0
M  END
>  <Binding energies>  (2) 
[-9.97]

>  <Ligand effiencies>  (2) 
[-0.28485714285714286]

>  <Interactions>  (2) 
["V-B:ARG:545:CG:9894, V-A:HIS:456:CD2:4068, V-B:GLU:543:CD:9880, H-B:LYS:547:NZ:9923, V-B:GLU:543:C:9874, V-B:GLU:543:CB:9878, V-A:HIS:456:CE1:4069, V-B:ARG:545:CZ:9898, V-B:ARG:545:CD:9895, V-B:HIS:456:CE1:9040, V-A:GLU:543:CD:4908, V-B:LEU:475:CD1:9229, V-B:ILE:369:CD1:8210, H-B:TYR:484:OH:9319, V-B:ILE:369:CG2:8208, H-B:ARG:545:NE:9896, H-A:GLY:454:N:4050, V-A:ARG:545:CZ:4926, V-A:GLY:453:CA:4044, V-A:GLY:453:C:4042, V-B:GLY:544:C:9884, H-B:ARG:545:N:9892, V-A:HIS:456:CG:4066, V-A:TYR:484:CD2:4344, V-A:TYR:484:CE2:4346, V-A:TYR:484:CD1:4343, V-A:HIS:456:CB:4065, V-A:TYR:484:CG:4342, H-B:GLU:543:O:9875, V-A:TYR:484:CB:4341"]

$$$$
1c_Ghoteimi_2023
     RDKit          3D

 34 37  0  0  0  0  0  0  0  0999 V2000
  127.2280  126.6200   74.8260 C   0  0  0  0  0  0  0  0  0  0  0  0
  128.2720  125.8770   74.2060 O   0  0  0  0  0  0  0  0  0  0  0  0
  128.4670  125.9950   72.8430 C   0  0  0  0  0  0  0  0  0  0  0  0
  127.8650  127.0830   72.2170 C   0  0  0  0  0  0  0  0  0  0  0  0
  128.0070  127.2780   70.8460 C   0  0  0  0  0  0  0  0  0  0  0  0
  128.7550  126.3890   70.0590 C   0  0  0  0  0  0  0  0  0  0  0  0
  128.9060  126.5930   68.5790 C   0  0  0  0  0  0  0  0  0  0  0  0
  129.6180  125.7070   67.7620 C   0  0  0  0  0  0  0  0  0  0  0  0
  129.7090  125.9250   66.3820 C   0  0  0  0  0  0  0  0  0  0  0  0
  130.4260  124.9050   65.5630 C   0  0  0  0  0  0  0  0  0  0  0  0
  131.7430  125.1230   65.1470 C   0  0  0  0  0  0  0  0  0  0  0  0
  132.4020  124.1800   64.3650 C   0  0  0  0  0  0  0  0  0  0  0  0
  131.7580  123.0050   63.9800 C   0  0  0  0  0  0  0  0  0  0  0  0
  132.4900  122.1260   63.2040 O   0  0  0  0  0  0  0  0  0  0  0  0
  133.5000  122.6370   62.3400 C   0  0  0  0  0  0  0  0  0  0  0  0
  130.4340  122.7850   64.3890 C   0  0  0  0  0  0  0  0  0  0  0  0
  129.7760  123.7300   65.1710 C   0  0  0  0  0  0  0  0  0  0  0  0
  129.0900  127.0770   65.8400 C   0  0  0  0  0  0  0  0  0  0  0  0
  129.1770  127.3790   64.4070 C   0  0  0  0  0  0  0  0  0  0  0  0
  129.2470  127.6170   63.2770 N   0  0  0  0  0  0  0  0  0  0  0  0
  128.3750  127.9180   66.7180 C   0  0  0  0  0  0  0  0  0  0  0  0
  127.4100  129.3010   66.1510 S   0  0  0  0  0  0  0  0  0  0  0  0
  125.6940  128.8920   66.6100 C   0  0  0  0  0  0  0  0  0  0  0  0
  124.6730  129.5550   65.6790 C   0  0  0  0  0  0  0  0  0  0  0  0
  123.7520  130.2170   66.1600 O   0  0  0  0  0  0  0  0  0  0  0  0
  124.9030  129.3860   64.3580 N   0  0  0  0  0  0  0  0  0  0  0  0
  124.2290  130.0000   63.3150 C   0  0  0  0  0  0  0  0  0  0  0  0
  122.9590  130.3410   63.2630 N   0  0  0  0  0  0  0  0  0  0  0  0
  122.6670  130.9460   62.1270 C   0  0  0  0  0  0  0  0  0  0  0  0
  123.7170  131.1080   61.2290 C   0  0  0  0  0  0  0  0  0  0  0  0
  125.1610  130.4260   61.9160 S   0  0  0  0  0  0  0  0  0  0  0  0
  128.2800  127.6750   68.0470 N   0  0  0  0  0  0  0  0  0  0  0  0
  129.3620  125.3000   70.7010 C   0  0  0  0  0  0  0  0  0  0  0  0
  129.2220  125.1000   72.0710 C   0  0  0  0  0  0  0  0  0  0  0  0
  1  2  1  0
  2  3  1  0
  3  4  2  0
  4  5  1  0
  5  6  2  0
  6  7  1  0
  7  8  2  0
  8  9  1  0
  9 10  1  0
 10 11  2  0
 11 12  1  0
 12 13  2  0
 13 14  1  0
 14 15  1  0
 13 16  1  0
 16 17  2  0
  9 18  2  0
 18 19  1  0
 19 20  3  0
 18 21  1  0
 21 22  1  0
 22 23  1  0
 23 24  1  0
 24 25  2  0
 24 26  1  0
 26 27  1  0
 27 28  2  0
 28 29  1  0
 29 30  2  0
 30 31  1  0
 21 32  2  0
  6 33  1  0
 33 34  2  0
 34  3  1  0
 32  7  1  0
 17 10  1  0
 31 27  1  0
M  END
>  <Binding energies>  (3) 
[-9.45]

>  <Ligand effiencies>  (3) 
[-0.26999999999999996]

>  <Interactions>  (3) 
["V-B:ARG:545:CG:9894, V-A:HIS:456:CD2:4068, H-B:LYS:547:NZ:9923, V-B:HIS:456:CD2:9039, V-B:GLU:543:CB:9878, V-A:HIS:456:CE1:4069, V-B:ARG:545:CZ:9898, V-B:ARG:545:CD:9895, V-B:HIS:456:CE1:9040, V-B:GLU:543:CG:9879, V-A:GLU:543:CD:4908, H-B:GLY:454:N:9021, V-B:ASP:366:CG:8184, V-B:ILE:369:CD1:8210, H-B:ARG:545:NH1:9899, H-B:ILE:455:N:9026, H-B:TYR:484:OH:9319, H-B:ARG:545:NH2:9900, V-B:GLY:453:CA:9015, V-B:GLY:453:C:9013, V-B:GLU:543:CA:9876, H-B:ARG:545:NE:9896, V-A:LEU:475:CD1:4258, V-A:TYR:484:CE1:4345, V-A:GLY:454:CA:4049, H-B:GLU:543:OE1:9881, V-B:LYS:547:CD:9921, V-B:LYS:547:CE:9922"]

$$$$
1d_Ghoteimi_2023
     RDKit          3D

 30 32  0  0  0  0  0  0  0  0999 V2000
  133.4740  124.8890   63.1360 C   0  0  0  0  0  0  0  0  0  0  0  0
  133.5340  124.1950   64.3730 O   0  0  0  0  0  0  0  0  0  0  0  0
  133.7420  124.8650   65.5250 C   0  0  0  0  0  0  0  0  0  0  0  0
  134.7000  124.7260   66.2860 O   0  0  0  0  0  0  0  0  0  0  0  0
  132.6260  125.8630   65.8250 C   0  0  0  0  0  0  0  0  0  0  0  0
  131.0430  125.0130   65.5470 S   0  0  0  0  0  0  0  0  0  0  0  0
  129.7810  125.9970   66.3250 C   0  0  0  0  0  0  0  0  0  0  0  0
  129.7350  125.8600   67.6720 N   0  0  0  0  0  0  0  0  0  0  0  0
  128.8150  126.5520   68.3920 C   0  0  0  0  0  0  0  0  0  0  0  0
  128.8360  126.3490   69.8790 C   0  0  0  0  0  0  0  0  0  0  0  0
  128.3220  127.3190   70.7540 C   0  0  0  0  0  0  0  0  0  0  0  0
  128.3470  127.1310   72.1330 C   0  0  0  0  0  0  0  0  0  0  0  0
  128.8880  125.9710   72.6810 C   0  0  0  0  0  0  0  0  0  0  0  0
  128.8750  125.8720   74.0590 O   0  0  0  0  0  0  0  0  0  0  0  0
  128.0370  126.7450   74.8090 C   0  0  0  0  0  0  0  0  0  0  0  0
  129.4060  124.9930   71.8210 C   0  0  0  0  0  0  0  0  0  0  0  0
  129.3770  125.1830   70.4420 C   0  0  0  0  0  0  0  0  0  0  0  0
  127.9160  127.4160   67.7570 C   0  0  0  0  0  0  0  0  0  0  0  0
  127.9310  127.5650   66.3640 C   0  0  0  0  0  0  0  0  0  0  0  0
  126.9380  128.4990   65.7510 C   0  0  0  0  0  0  0  0  0  0  0  0
  125.6210  128.5340   66.2210 C   0  0  0  0  0  0  0  0  0  0  0  0
  124.6910  129.4010   65.6540 C   0  0  0  0  0  0  0  0  0  0  0  0
  125.0580  130.2530   64.6130 C   0  0  0  0  0  0  0  0  0  0  0  0
  124.0680  131.0740   64.1080 O   0  0  0  0  0  0  0  0  0  0  0  0
  123.7520  131.0100   62.7220 C   0  0  0  0  0  0  0  0  0  0  0  0
  126.3810  130.2310   64.1470 C   0  0  0  0  0  0  0  0  0  0  0  0
  127.3100  129.3630   64.7160 C   0  0  0  0  0  0  0  0  0  0  0  0
  128.8760  126.8200   65.6170 C   0  0  0  0  0  0  0  0  0  0  0  0
  128.8680  126.8570   64.1510 C   0  0  0  0  0  0  0  0  0  0  0  0
  128.8610  126.8880   62.9940 N   0  0  0  0  0  0  0  0  0  0  0  0
  1  2  1  0
  2  3  1  0
  3  4  2  0
  3  5  1  0
  5  6  1  0
  6  7  1  0
  7  8  2  0
  8  9  1  0
  9 10  1  0
 10 11  2  0
 11 12  1  0
 12 13  2  0
 13 14  1  0
 14 15  1  0
 13 16  1  0
 16 17  2  0
  9 18  2  0
 18 19  1  0
 19 20  1  0
 20 21  2  0
 21 22  1  0
 22 23  2  0
 23 24  1  0
 24 25  1  0
 23 26  1  0
 26 27  2  0
 19 28  2  0
 28 29  1  0
 29 30  3  0
 28  7  1  0
 17 10  1  0
 27 20  1  0
M  END
>  <Binding energies>  (4) 
[-8.63]

>  <Ligand effiencies>  (4) 
[-0.2876666666666667]

>  <Interactions>  (4) 
["V-B:ARG:545:CG:9894, V-A:HIS:456:CD2:4068, V-B:GLU:543:CD:9880, H-B:LYS:547:NZ:9923, V-B:HIS:456:CD2:9039, V-A:HIS:456:CE1:4069, V-B:ARG:545:CZ:9898, H-A:HIS:456:NE2:4070, V-B:ARG:545:CD:9895, V-B:HIS:456:CE1:9040, V-A:GLU:543:CD:4908, H-B:GLY:454:N:9021, V-B:GLY:454:CA:9020, H-B:TYR:484:OH:9319, H-A:ILE:455:N:4055, H-A:GLY:454:N:4050, V-A:ARG:545:CZ:4926, H-A:TYR:484:OH:4348, V-A:ARG:545:CD:4923, V-A:ARG:545:CG:4922"]

$$$$
1j_Grossjean_2025
     RDKit          3D

 20 21  0  0  0  0  0  0  0  0999 V2000
  129.7670  123.5700   65.8700 C   0  0  0  0  0  0  0  0  0  0  0  0
  129.4380  125.0380   66.0690 C   0  0  0  0  0  0  0  0  0  0  0  0
  129.2070  125.8860   64.9880 C   0  0  0  0  0  0  0  0  0  0  0  0
  128.8950  127.2270   65.2320 C   0  0  0  0  0  0  0  0  0  0  0  0
  128.6290  128.1340   64.0310 C   0  0  0  0  0  0  0  0  0  0  0  0
  128.8300  127.6900   66.5660 C   0  0  0  0  0  0  0  0  0  0  0  0
  128.4530  129.0780   66.8460 C   0  0  0  0  0  0  0  0  0  0  0  0
  128.1540  130.1740   67.0640 N   0  0  0  0  0  0  0  0  0  0  0  0
  129.1050  126.7640   67.6000 C   0  0  0  0  0  0  0  0  0  0  0  0
  129.0710  127.1740   69.3320 S   0  0  0  0  0  0  0  0  0  0  0  0
  127.8900  126.0540   70.1410 C   0  0  0  0  0  0  0  0  0  0  0  0
  128.5240  125.2990   71.3110 C   0  0  0  0  0  0  0  0  0  0  0  0
  128.3300  125.6940   72.4610 O   0  0  0  0  0  0  0  0  0  0  0  0
  129.2670  124.2220   70.9740 N   0  0  0  0  0  0  0  0  0  0  0  0
  129.9470  123.3810   71.8440 C   0  0  0  0  0  0  0  0  0  0  0  0
  129.7380  122.0980   72.0540 N   0  0  0  0  0  0  0  0  0  0  0  0
  130.5740  121.6140   72.9510 C   0  0  0  0  0  0  0  0  0  0  0  0
  131.4890  122.5130   73.4900 C   0  0  0  0  0  0  0  0  0  0  0  0
  131.2340  124.0760   72.7740 S   0  0  0  0  0  0  0  0  0  0  0  0
  129.3860  125.4600   67.3540 N   0  0  0  0  0  0  0  0  0  0  0  0
  1  2  1  0
  2  3  2  0
  3  4  1  0
  4  5  1  0
  4  6  2  0
  6  7  1  0
  7  8  3  0
  6  9  1  0
  9 10  1  0
 10 11  1  0
 11 12  1  0
 12 13  2  0
 12 14  1  0
 14 15  1  0
 15 16  2  0
 16 17  1  0
 17 18  2  0
 18 19  1  0
  9 20  2  0
 20  2  1  0
 19 15  1  0
M  END
>  <Binding energies>  (5) 
[-6.68]

>  <Ligand effiencies>  (5) 
[-0.3180952380952381]

>  <Interactions>  (5) 
["H-B:HIS:456:NE2:9041, V-A:HIS:456:CD2:4068, V-B:GLU:543:CD:9880, H-B:LYS:547:NZ:9923, V-B:GLU:543:C:9874, V-B:GLU:543:CB:9878, V-A:HIS:456:CE1:4069, H-A:HIS:456:NE2:4070, V-B:HIS:456:CE1:9040, V-B:GLU:543:CG:9879, V-A:GLU:543:CG:4907, V-A:GLU:543:CD:4908, H-B:TYR:484:OH:9319, V-B:GLU:543:CA:9876, V-A:TYR:484:CZ:4347, V-A:GLU:543:CB:4906, V-A:TYR:484:CE1:4345, V-B:GLY:544:C:9884, V-A:HIS:456:CG:4066, V-A:TYR:484:CD2:4344, V-A:TYR:484:CD1:4343, V-A:HIS:456:CB:4065, V-A:TYR:484:CG:4342, H-B:GLU:543:O:9875, V-A:ASP:473:CG:4240, V-A:ASP:473:CB:4239, V-A:TYR:484:CB:4341"]

$$$$
1o_Grossjean_2025
     RDKit          3D

 26 27  0  0  0  0  0  0  0  0999 V2000
  127.1260  126.6550   74.2980 C   0  0  0  0  0  0  0  0  0  0  0  0
  128.3100  125.8880   74.4690 O   0  0  0  0  0  0  0  0  0  0  0  0
  129.4570  126.2190   73.8220 C   0  0  0  0  0  0  0  0  0  0  0  0
  130.4570  126.6620   74.3940 O   0  0  0  0  0  0  0  0  0  0  0  0
  129.3900  125.9880   72.3400 C   0  0  0  0  0  0  0  0  0  0  0  0
  128.9350  126.9750   71.4540 C   0  0  0  0  0  0  0  0  0  0  0  0
  128.8880  126.7290   70.0840 C   0  0  0  0  0  0  0  0  0  0  0  0
  129.2880  125.4940   69.5720 C   0  0  0  0  0  0  0  0  0  0  0  0
  129.2090  125.3570   68.1730 N   0  0  0  0  0  0  0  0  0  0  0  0
  129.4250  126.2690   67.1990 C   0  0  0  0  0  0  0  0  0  0  0  0
  129.7930  127.4290   67.3830 O   0  0  0  0  0  0  0  0  0  0  0  0
  129.2140  125.7660   65.7640 C   0  0  0  0  0  0  0  0  0  0  0  0
  130.4000  124.9420   65.2240 C   0  0  0  0  0  0  0  0  0  0  0  0
  130.0730  123.1570   65.1220 S   0  0  0  0  0  0  0  0  0  0  0  0
  130.9270  122.5080   63.6990 C   0  0  0  0  0  0  0  0  0  0  0  0
  130.1790  121.6440   62.9680 N   0  0  0  0  0  0  0  0  0  0  0  0
  130.7200  121.0920   61.8570 C   0  0  0  0  0  0  0  0  0  0  0  0
  129.8190  120.1470   61.0840 C   0  0  0  0  0  0  0  0  0  0  0  0
  132.0210  121.3650   61.4400 C   0  0  0  0  0  0  0  0  0  0  0  0
  132.8100  122.2340   62.2000 C   0  0  0  0  0  0  0  0  0  0  0  0
  134.2380  122.5070   61.7300 C   0  0  0  0  0  0  0  0  0  0  0  0
  132.2670  122.8200   63.3670 C   0  0  0  0  0  0  0  0  0  0  0  0
  133.0980  123.6860   64.2070 C   0  0  0  0  0  0  0  0  0  0  0  0
  133.7550  124.3700   64.8690 N   0  0  0  0  0  0  0  0  0  0  0  0
  129.7500  124.5040   70.4520 C   0  0  0  0  0  0  0  0  0  0  0  0
  129.7970  124.7520   71.8210 C   0  0  0  0  0  0  0  0  0  0  0  0
  1  2  1  0
  2  3  1  0
  3  4  2  0
  3  5  1  0
  5  6  2  0
  6  7  1  0
  7  8  2  0
  8  9  1  0
  9 10  1  0
 10 11  2  0
 10 12  1  0
 12 13  1  0
 13 14  1  0
 14 15  1  0
 15 16  2  0
 16 17  1  0
 17 18  1  0
 17 19  2  0
 19 20  1  0
 20 21  1  0
 20 22  2  0
 22 23  1  0
 23 24  3  0
  8 25  1  0
 25 26  2  0
 26  5  1  0
 22 15  1  0
M  END
>  <Binding energies>  (6) 
[-8.21]

>  <Ligand effiencies>  (6) 
[-0.3040740740740741]

>  <Interactions>  (6) 
["V-A:HIS:456:CD2:4068, V-B:GLU:543:CD:9880, H-B:LYS:547:NZ:9923, V-B:GLU:543:C:9874, H-A:LYS:547:NZ:4951, V-B:GLU:543:CB:9878, V-A:HIS:456:CE1:4069, H-A:HIS:456:NE2:4070, V-B:HIS:456:CE1:9040, V-B:GLU:543:CG:9879, V-B:ALA:541:CB:9864, V-A:TYR:484:CZ:4347, V-A:LEU:475:CD1:4258, V-A:TYR:484:CE1:4345, H-A:GLY:454:N:4050, H-A:TYR:484:OH:4348, V-A:GLY:454:CA:4049, V-A:ILE:369:CD1:3239, V-B:TYR:539:CD2:9846, V-A:PRO:482:CG:4327, V-A:HIS:456:CG:4066, V-B:LYS:547:CD:9921, H-B:GLU:543:O:9875, V-B:LYS:547:CE:9922"]

$$$$
1p_Grossjean_2025
     RDKit          3D

 21 22  0  0  0  0  0  0  0  0999 V2000
  123.6550  129.9600   66.2550 C   0  0  0  0  0  0  0  0  0  0  0  0
  125.0040  129.2680   66.2370 C   0  0  0  0  0  0  0  0  0  0  0  0
  125.9790  129.5990   65.2970 C   0  0  0  0  0  0  0  0  0  0  0  0
  127.2020  128.9190   65.3180 C   0  0  0  0  0  0  0  0  0  0  0  0
  128.2500  129.2860   64.2690 C   0  0  0  0  0  0  0  0  0  0  0  0
  127.4210  127.9210   66.2940 C   0  0  0  0  0  0  0  0  0  0  0  0
  128.6720  127.1620   66.3070 C   0  0  0  0  0  0  0  0  0  0  0  0
  129.6630  126.5620   66.3170 N   0  0  0  0  0  0  0  0  0  0  0  0
  126.3830  127.6670   67.2230 C   0  0  0  0  0  0  0  0  0  0  0  0
  126.4980  126.4560   68.5200 S   0  0  0  0  0  0  0  0  0  0  0  0
  127.8930  126.9440   69.5750 C   0  0  0  0  0  0  0  0  0  0  0  0
  127.5630  126.9460   71.0800 C   0  0  0  0  0  0  0  0  0  0  0  0
  128.3440  125.8930   71.8810 C   0  0  0  0  0  0  0  0  0  0  0  0
  128.5570  126.0770   73.0810 O   0  0  0  0  0  0  0  0  0  0  0  0
  128.7370  124.8030   71.1850 N   0  0  0  0  0  0  0  0  0  0  0  0
  129.4510  123.7120   71.6640 C   0  0  0  0  0  0  0  0  0  0  0  0
  130.7480  123.8110   72.1670 C   0  0  0  0  0  0  0  0  0  0  0  0
  131.0900  122.5290   72.5330 C   0  0  0  0  0  0  0  0  0  0  0  0
  130.0540  121.7010   72.2620 O   0  0  0  0  0  0  0  0  0  0  0  0
  129.0210  122.4620   71.7110 N   0  0  0  0  0  0  0  0  0  0  0  0
  125.1930  128.3180   67.1810 N   0  0  0  0  0  0  0  0  0  0  0  0
  1  2  1  0
  2  3  2  0
  3  4  1  0
  4  5  1  0
  4  6  2  0
  6  7  1  0
  7  8  3  0
  6  9  1  0
  9 10  1  0
 10 11  1  0
 11 12  1  0
 12 13  1  0
 13 14  2  0
 13 15  1  0
 15 16  1  0
 16 17  1  0
 17 18  2  0
 18 19  1  0
 19 20  1  0
  9 21  2  0
 21  2  1  0
 20 16  2  0
M  END
>  <Binding energies>  (7) 
[-7.52]

>  <Ligand effiencies>  (7) 
[-0.3418181818181818]

>  <Interactions>  (7) 
["V-B:ARG:545:CG:9894, V-A:HIS:456:CD2:4068, H-B:LYS:547:NZ:9923, V-B:GLU:543:CB:9878, V-B:ARG:545:CZ:9898, V-B:ARG:545:CD:9895, V-B:HIS:456:CE1:9040, V-A:GLU:543:CD:4908, V-B:GLY:454:CA:9020, H-B:ARG:545:NE:9896, V-B:GLY:454:C:9018, V-B:GLY:544:C:9884, H-B:ARG:545:N:9892, V-A:HIS:456:CG:4066, V-A:TYR:484:CD2:4344, V-A:TYR:484:CE2:4346, V-A:HIS:456:CB:4065, V-A:TYR:484:CG:4342, H-B:GLY:544:O:9885, H-B:GLU:543:O:9875, V-B:LYS:547:CE:9922, V-B:GLY:544:CA:9886, V-A:ASP:473:CB:4239, V-A:TYR:484:CB:4341"]

$$$$
2a_Ghoteimi_2023
     RDKit          3D

 48 53  0  0  0  0  0  0  0  0999 V2000
  125.7780  134.1740   60.7960 C   0  0  0  0  0  0  0  0  0  0  0  0
  124.2920  133.8510   60.6160 C   0  0  0  0  0  0  0  0  0  0  0  0
  124.1290  132.9870   59.4990 O   0  0  0  0  0  0  0  0  0  0  0  0
  123.6900  131.7120   59.6560 C   0  0  0  0  0  0  0  0  0  0  0  0
  122.9570  131.1400   58.8420 O   0  0  0  0  0  0  0  0  0  0  0  0
  124.1890  131.0640   60.9150 C   0  0  0  0  0  0  0  0  0  0  0  0
  123.4060  130.9960   62.0770 C   0  0  0  0  0  0  0  0  0  0  0  0
  123.8990  130.3870   63.2270 C   0  0  0  0  0  0  0  0  0  0  0  0
  125.1790  129.8300   63.2410 C   0  0  0  0  0  0  0  0  0  0  0  0
  125.5770  129.2430   64.4570 N   0  0  0  0  0  0  0  0  0  0  0  0
  125.0130  129.3240   65.6820 C   0  0  0  0  0  0  0  0  0  0  0  0
  124.0240  130.0020   65.9640 O   0  0  0  0  0  0  0  0  0  0  0  0
  125.7220  128.5210   66.7800 C   0  0  0  0  0  0  0  0  0  0  0  0
  127.4790  128.9450   67.0100 S   0  0  0  0  0  0  0  0  0  0  0  0
  128.3370  127.3920   67.1230 C   0  0  0  0  0  0  0  0  0  0  0  0
  128.6250  127.0170   68.3910 N   0  0  0  0  0  0  0  0  0  0  0  0
  129.2870  125.8530   68.6070 C   0  0  0  0  0  0  0  0  0  0  0  0
  129.5800  125.5070   70.0310 C   0  0  0  0  0  0  0  0  0  0  0  0
  129.3400  126.4220   71.0640 C   0  0  0  0  0  0  0  0  0  0  0  0
  129.6250  126.0990   72.3880 C   0  0  0  0  0  0  0  0  0  0  0  0
  130.1540  124.8460   72.7300 C   0  0  0  0  0  0  0  0  0  0  0  0
  130.4640  124.5470   74.0610 N   0  0  0  0  0  0  0  0  0  0  0  0
  131.1510  125.5230   74.9300 C   0  0  0  0  0  0  0  0  0  0  0  0
  131.0860  125.1740   76.4320 C   0  0  0  0  0  0  0  0  0  0  0  0
  131.5830  123.8640   76.6490 O   0  0  0  0  0  0  0  0  0  0  0  0
  130.8180  122.8970   75.9470 C   0  0  0  0  0  0  0  0  0  0  0  0
  130.8740  123.1750   74.4300 C   0  0  0  0  0  0  0  0  0  0  0  0
  130.4050  123.9370   71.6900 C   0  0  0  0  0  0  0  0  0  0  0  0
  130.1170  124.2590   70.3670 C   0  0  0  0  0  0  0  0  0  0  0  0
  129.6650  125.0280   67.5440 C   0  0  0  0  0  0  0  0  0  0  0  0
  129.3770  125.3960   66.2220 C   0  0  0  0  0  0  0  0  0  0  0  0
  129.8150  124.4710   65.1340 C   0  0  0  0  0  0  0  0  0  0  0  0
  129.4410  123.1250   65.1620 C   0  0  0  0  0  0  0  0  0  0  0  0
  129.8600  122.2510   64.1640 C   0  0  0  0  0  0  0  0  0  0  0  0
  130.6650  122.6980   63.1040 C   0  0  0  0  0  0  0  0  0  0  0  0
  131.1120  121.8320   62.1020 N   0  0  0  0  0  0  0  0  0  0  0  0
  130.5030  120.4930   61.9780 C   0  0  0  0  0  0  0  0  0  0  0  0
  130.7990  119.8110   60.6250 C   0  0  0  0  0  0  0  0  0  0  0  0
  132.2000  119.7510   60.4070 O   0  0  0  0  0  0  0  0  0  0  0  0
  132.7840  121.0440   60.3830 C   0  0  0  0  0  0  0  0  0  0  0  0
  132.5380  121.7600   61.7270 C   0  0  0  0  0  0  0  0  0  0  0  0
  131.0460  124.0470   63.0900 C   0  0  0  0  0  0  0  0  0  0  0  0
  130.6280  124.9210   64.0890 C   0  0  0  0  0  0  0  0  0  0  0  0
  128.6870  126.6120   65.9980 C   0  0  0  0  0  0  0  0  0  0  0  0
  128.3080  127.0230   64.6430 C   0  0  0  0  0  0  0  0  0  0  0  0
  128.0120  127.3460   63.5710 N   0  0  0  0  0  0  0  0  0  0  0  0
  125.9710  129.9010   62.0850 C   0  0  0  0  0  0  0  0  0  0  0  0
  125.4760  130.5090   60.9350 C   0  0  0  0  0  0  0  0  0  0  0  0
  1  2  1  0
  2  3  1  0
  3  4  1  0
  4  5  2  0
  4  6  1  0
  6  7  2  0
  7  8  1  0
  8  9  2  0
  9 10  1  0
 10 11  1  0
 11 12  2  0
 11 13  1  0
 13 14  1  0
 14 15  1  0
 15 16  2  0
 16 17  1  0
 17 18  1  0
 18 19  2  0
 19 20  1  0
 20 21  2  0
 21 22  1  0
 22 23  1  0
 23 24  1  0
 24 25  1  0
 25 26  1  0
 26 27  1  0
 21 28  1  0
 28 29  2  0
 17 30  2  0
 30 31  1  0
 31 32  1  0
 32 33  2  0
 33 34  1  0
 34 35  2  0
 35 36  1  0
 36 37  1  0
 37 38  1  0
 38 39  1  0
 39 40  1  0
 40 41  1  0
 35 42  1  0
 42 43  2  0
 31 44  2  0
 44 45  1  0
 45 46  3  0
  9 47  1  0
 47 48  2  0
 48  6  1  0
 44 15  1  0
 29 18  1  0
 43 32  1  0
 27 22  1  0
 41 36  1  0
M  END
>  <Binding energies>  (8) 
[-10.21]

>  <Ligand effiencies>  (8) 
[-0.20836734693877554]

>  <Interactions>  (8) 
["V-B:ARG:545:CG:9894, V-A:HIS:456:CD2:4068, V-B:GLU:543:CD:9880, V-B:GLU:543:C:9874, V-B:GLU:543:CB:9878, V-A:HIS:456:CE1:4069, V-B:ARG:545:CZ:9898, V-B:ARG:545:CD:9895, V-B:HIS:456:CE1:9040, V-B:GLU:543:CG:9879, H-B:GLY:454:N:9021, V-B:ILE:369:CB:8207, V-B:ASP:366:CG:8184, V-B:LEU:475:CD1:9229, V-B:ILE:369:CD1:8210, V-A:TYR:539:CE2:4876, H-B:TYR:484:OH:9319, V-B:ILE:369:CG2:8208, V-A:TYR:539:CD2:4874, V-B:ALA:541:CB:9864, V-B:GLU:543:CA:9876, H-B:ARG:545:NE:9896, V-A:TYR:484:CZ:4347, V-A:LEU:475:CD1:4258, V-A:TYR:484:CE1:4345, V-B:TYR:539:CE2:9848, V-A:ILE:369:CG2:3237, H-A:TYR:539:OH:4878, V-B:TYR:539:CD2:9846, V-A:TRP:381:CH2:3372, V-A:HIS:456:CG:4066, H-B:GLU:543:OE1:9881, V-A:TYR:484:CE2:4346, V-A:TYR:484:CD1:4343, V-A:ASP:473:CG:4240"]

$$$$
2aa_Ghoteimi_2023
     RDKit          3D

 48 53  0  0  0  0  0  0  0  0999 V2000
  135.3390  123.5790   75.9730 C   0  0  0  0  0  0  0  0  0  0  0  0
  134.1860  123.6360   74.9660 C   0  0  0  0  0  0  0  0  0  0  0  0
  133.1280  124.4190   75.5040 O   0  0  0  0  0  0  0  0  0  0  0  0
  131.8400  123.9920   75.4500 C   0  0  0  0  0  0  0  0  0  0  0  0
  131.3210  123.2830   76.3190 O   0  0  0  0  0  0  0  0  0  0  0  0
  131.1050  124.4800   74.2350 C   0  0  0  0  0  0  0  0  0  0  0  0
  130.9820  123.6950   73.0780 C   0  0  0  0  0  0  0  0  0  0  0  0
  130.2910  124.1730   71.9700 C   0  0  0  0  0  0  0  0  0  0  0  0
  129.7160  125.4450   71.9890 C   0  0  0  0  0  0  0  0  0  0  0  0
  129.0370  125.8270   70.8150 N   0  0  0  0  0  0  0  0  0  0  0  0
  127.8800  126.5080   70.6680 C   0  0  0  0  0  0  0  0  0  0  0  0
  127.2010  126.9590   71.5920 O   0  0  0  0  0  0  0  0  0  0  0  0
  127.4470  126.7230   69.2120 C   0  0  0  0  0  0  0  0  0  0  0  0
  128.3900  127.5710   68.5490 O   0  0  0  0  0  0  0  0  0  0  0  0
  128.5640  127.4790   67.1740 C   0  0  0  0  0  0  0  0  0  0  0  0
  128.1440  128.5220   66.4040 N   0  0  0  0  0  0  0  0  0  0  0  0
  128.3030  128.4660   65.0580 C   0  0  0  0  0  0  0  0  0  0  0  0
  127.8130  129.6440   64.2770 C   0  0  0  0  0  0  0  0  0  0  0  0
  128.2110  130.9410   64.6170 C   0  0  0  0  0  0  0  0  0  0  0  0
  127.7640  132.0420   63.8890 C   0  0  0  0  0  0  0  0  0  0  0  0
  126.9110  131.8830   62.7850 C   0  0  0  0  0  0  0  0  0  0  0  0
  126.4420  132.9790   62.0510 N   0  0  0  0  0  0  0  0  0  0  0  0
  124.9970  133.2140   61.8570 C   0  0  0  0  0  0  0  0  0  0  0  0
  124.6750  134.2370   60.7480 C   0  0  0  0  0  0  0  0  0  0  0  0
  125.3580  135.4550   60.9980 O   0  0  0  0  0  0  0  0  0  0  0  0
  126.7650  135.2660   61.0200 C   0  0  0  0  0  0  0  0  0  0  0  0
  127.1480  134.2740   62.1380 C   0  0  0  0  0  0  0  0  0  0  0  0
  126.4980  130.5830   62.4630 C   0  0  0  0  0  0  0  0  0  0  0  0
  126.9430  129.4840   63.1920 C   0  0  0  0  0  0  0  0  0  0  0  0
  128.8770  127.3490   64.4440 C   0  0  0  0  0  0  0  0  0  0  0  0
  129.3070  126.2590   65.2120 C   0  0  0  0  0  0  0  0  0  0  0  0
  129.8890  125.0830   64.4960 C   0  0  0  0  0  0  0  0  0  0  0  0
  130.9010  125.2620   63.5500 C   0  0  0  0  0  0  0  0  0  0  0  0
  131.4340  124.1730   62.8660 C   0  0  0  0  0  0  0  0  0  0  0  0
  130.9590  122.8730   63.0990 C   0  0  0  0  0  0  0  0  0  0  0  0
  131.4810  121.7640   62.4260 N   0  0  0  0  0  0  0  0  0  0  0  0
  132.7490  121.8470   61.6770 C   0  0  0  0  0  0  0  0  0  0  0  0
  133.3370  120.4680   61.3100 C   0  0  0  0  0  0  0  0  0  0  0  0
  132.3760  119.7050   60.5960 O   0  0  0  0  0  0  0  0  0  0  0  0
  131.2030  119.4920   61.3650 C   0  0  0  0  0  0  0  0  0  0  0  0
  130.5580  120.8440   61.7320 C   0  0  0  0  0  0  0  0  0  0  0  0
  129.9480  122.7020   64.0550 C   0  0  0  0  0  0  0  0  0  0  0  0
  129.4160  123.7900   64.7390 C   0  0  0  0  0  0  0  0  0  0  0  0
  129.1590  126.3340   66.6160 C   0  0  0  0  0  0  0  0  0  0  0  0
  129.6260  125.2640   67.5010 C   0  0  0  0  0  0  0  0  0  0  0  0
  129.9960  124.4190   68.2000 N   0  0  0  0  0  0  0  0  0  0  0  0
  129.8270  126.2330   73.1440 C   0  0  0  0  0  0  0  0  0  0  0  0
  130.5170  125.7510   74.2530 C   0  0  0  0  0  0  0  0  0  0  0  0
  1  2  1  0
  2  3  1  0
  3  4  1  0
  4  5  2  0
  4  6  1  0
  6  7  2  0
  7  8  1  0
  8  9  2  0
  9 10  1  0
 10 11  1  0
 11 12  2  0
 11 13  1  0
 13 14  1  0
 14 15  1  0
 15 16  2  0
 16 17  1  0
 17 18  1  0
 18 19  2  0
 19 20  1  0
 20 21  2  0
 21 22  1  0
 22 23  1  0
 23 24  1  0
 24 25  1  0
 25 26  1  0
 26 27  1  0
 21 28  1  0
 28 29  2  0
 17 30  2  0
 30 31  1  0
 31 32  1  0
 32 33  2  0
 33 34  1  0
 34 35  2  0
 35 36  1  0
 36 37  1  0
 37 38  1  0
 38 39  1  0
 39 40  1  0
 40 41  1  0
 35 42  1  0
 42 43  2  0
 31 44  2  0
 44 45  1  0
 45 46  3  0
  9 47  1  0
 47 48  2  0
 48  6  1  0
 44 15  1  0
 29 18  1  0
 43 32  1  0
 27 22  1  0
 41 36  1  0
M  END
>  <Binding energies>  (9) 
[-9.69]

>  <Ligand effiencies>  (9) 
[-0.1977551020408163]

>  <Interactions>  (9) 
["H-B:HIS:456:NE2:9041, V-A:HIS:456:CD2:4068, V-B:GLU:543:CD:9880, V-B:GLU:543:CB:9878, V-A:HIS:456:CE1:4069, H-A:HIS:456:NE2:4070, V-B:HIS:456:CE1:9040, V-B:GLU:543:CG:9879, V-A:GLU:543:CD:4908, V-B:TRP:381:CH2:8343, V-B:PRO:482:CG:9298, V-B:LEU:475:CD1:9229, V-A:TYR:539:CE2:4876, V-A:ALA:541:CB:4892, V-B:ILE:369:CG2:8208, V-A:TYR:539:CD2:4874, V-B:ALA:541:CB:9864, V-B:GLU:543:CA:9876, V-A:TYR:484:CZ:4347, V-A:LEU:475:CD1:4258, V-A:GLU:543:CB:4906, V-A:TYR:484:CE1:4345, H-A:TYR:484:OH:4348, V-A:ILE:369:CG2:3237, V-A:ILE:369:CD1:3239, V-A:TRP:381:CZ2:3370, V-A:TRP:381:CH2:3372, V-A:PRO:482:CB:4326, V-B:GLY:544:C:9884, V-A:HIS:456:CG:4066, V-A:HIS:456:CB:4065, H-B:GLU:543:O:9875, V-A:VAL:458:CG2:4087, V-A:HIS:456:C:4061, V-A:LYS:471:CG:4218, V-A:LYS:471:CB:4217, V-A:LYS:471:CD:4219, V-A:ASP:473:CG:4240, V-A:LYS:471:C:4213, V-A:HIS:456:CA:4063, V-A:ASP:473:CB:4239"]

$$$$
2b_Ghoteimi_2023
     RDKit          3D

 42 47  0  0  0  0  0  0  0  0999 V2000
  130.1240  124.3690   67.9430 N   0  0  0  0  0  0  0  0  0  0  0  0
  129.7830  125.2850   67.3220 C   0  0  0  0  0  0  0  0  0  0  0  0
  129.3510  126.4400   66.5310 C   0  0  0  0  0  0  0  0  0  0  0  0
  129.2960  126.3640   65.1160 C   0  0  0  0  0  0  0  0  0  0  0  0
  129.6580  125.1440   64.3350 C   0  0  0  0  0  0  0  0  0  0  0  0
  128.9020  124.7710   63.2230 C   0  0  0  0  0  0  0  0  0  0  0  0
  129.2340  123.6330   62.4920 C   0  0  0  0  0  0  0  0  0  0  0  0
  130.3220  122.8290   62.8650 C   0  0  0  0  0  0  0  0  0  0  0  0
  130.6830  121.6910   62.1410 N   0  0  0  0  0  0  0  0  0  0  0  0
  129.6510  120.9760   61.3630 C   0  0  0  0  0  0  0  0  0  0  0  0
  130.0820  119.5580   60.9330 C   0  0  0  0  0  0  0  0  0  0  0  0
  131.3100  119.6150   60.2220 O   0  0  0  0  0  0  0  0  0  0  0  0
  132.3490  120.1700   61.0130 C   0  0  0  0  0  0  0  0  0  0  0  0
  131.9780  121.6060   61.4360 C   0  0  0  0  0  0  0  0  0  0  0  0
  131.0730  123.2100   63.9860 C   0  0  0  0  0  0  0  0  0  0  0  0
  130.7430  124.3490   64.7140 C   0  0  0  0  0  0  0  0  0  0  0  0
  128.8720  127.4930   64.4040 C   0  0  0  0  0  0  0  0  0  0  0  0
  128.4830  128.6520   65.0810 C   0  0  0  0  0  0  0  0  0  0  0  0
  127.9950  129.8740   64.3680 C   0  0  0  0  0  0  0  0  0  0  0  0
  128.2730  131.1510   64.8680 C   0  0  0  0  0  0  0  0  0  0  0  0
  127.8350  132.2920   64.2020 C   0  0  0  0  0  0  0  0  0  0  0  0
  127.0900  132.1990   63.0150 C   0  0  0  0  0  0  0  0  0  0  0  0
  126.6690  133.3370   62.3180 N   0  0  0  0  0  0  0  0  0  0  0  0
  127.6690  134.2460   61.7210 C   0  0  0  0  0  0  0  0  0  0  0  0
  127.0970  135.6280   61.3380 C   0  0  0  0  0  0  0  0  0  0  0  0
  125.9770  135.4690   60.4800 O   0  0  0  0  0  0  0  0  0  0  0  0
  124.9410  134.7340   61.1100 C   0  0  0  0  0  0  0  0  0  0  0  0
  125.4480  133.3260   61.4900 C   0  0  0  0  0  0  0  0  0  0  0  0
  126.8200  130.9180   62.5140 C   0  0  0  0  0  0  0  0  0  0  0  0
  127.2610  129.7770   63.1800 C   0  0  0  0  0  0  0  0  0  0  0  0
  128.5360  128.7230   66.4350 N   0  0  0  0  0  0  0  0  0  0  0  0
  128.9740  127.6560   67.1440 C   0  0  0  0  0  0  0  0  0  0  0  0
  128.9820  127.9250   68.9040 S   0  0  0  0  0  0  0  0  0  0  0  0
  127.7900  126.7670   69.6410 C   0  0  0  0  0  0  0  0  0  0  0  0
  128.4020  125.9670   70.7920 C   0  0  0  0  0  0  0  0  0  0  0  0
  128.3540  126.4220   71.9370 O   0  0  0  0  0  0  0  0  0  0  0  0
  128.9700  124.7910   70.4460 N   0  0  0  0  0  0  0  0  0  0  0  0
  129.5820  123.8720   71.2860 C   0  0  0  0  0  0  0  0  0  0  0  0
  130.7120  124.1720   72.0470 C   0  0  0  0  0  0  0  0  0  0  0  0
  131.0010  123.0140   72.7300 C   0  0  0  0  0  0  0  0  0  0  0  0
  130.0920  122.0660   72.3980 O   0  0  0  0  0  0  0  0  0  0  0  0
  129.1960  122.6230   71.4830 N   0  0  0  0  0  0  0  0  0  0  0  0
  1  2  3  0
  2  3  1  0
  3  4  2  0
  4  5  1  0
  5  6  2  0
  6  7  1  0
  7  8  2  0
  8  9  1  0
  9 10  1  0
 10 11  1  0
 11 12  1  0
 12 13  1  0
 13 14  1  0
  8 15  1  0
 15 16  2  0
  4 17  1  0
 17 18  2  0
 18 19  1  0
 19 20  2  0
 20 21  1  0
 21 22  2  0
 22 23  1  0
 23 24  1  0
 24 25  1  0
 25 26  1  0
 26 27  1  0
 27 28  1  0
 22 29  1  0
 29 30  2  0
 18 31  1  0
 31 32  2  0
 32 33  1  0
 33 34  1  0
 34 35  1  0
 35 36  2  0
 35 37  1  0
 37 38  1  0
 38 39  1  0
 39 40  2  0
 40 41  1  0
 41 42  1  0
 32  3  1  0
 42 38  2  0
 16  5  1  0
 30 19  1  0
 14  9  1  0
 28 23  1  0
M  END
>  <Binding energies>  (10) 
[-11.16]

>  <Ligand effiencies>  (10) 
[-0.25953488372093025]

>  <Interactions>  (10) 
["H-B:HIS:456:NE2:9041, V-A:HIS:456:CD2:4068, V-B:GLU:543:CD:9880, H-B:LYS:547:NZ:9923, V-B:GLU:543:C:9874, V-B:GLU:543:CB:9878, V-A:HIS:456:CE1:4069, H-A:HIS:456:NE2:4070, V-B:HIS:456:CE1:9040, V-B:GLU:543:CG:9879, V-A:GLU:543:CD:4908, V-B:TRP:381:CH2:8343, V-B:PRO:482:CG:9298, V-B:LEU:475:CD1:9229, V-B:PRO:482:CB:9297, V-A:TYR:539:CE2:4876, V-A:ALA:541:CB:4892, V-A:TYR:539:CD2:4874, V-B:ALA:541:CB:9864, V-A:TYR:484:CZ:4347, V-A:LEU:475:CD1:4258, V-A:GLU:543:CB:4906, V-A:TYR:484:CE1:4345, H-A:TYR:484:OH:4348, V-B:TRP:381:CZ2:8341, V-B:TYR:539:CD2:9846, V-A:PRO:482:CG:4327, V-A:TRP:381:CH2:3372, V-A:PRO:482:CB:4326, V-B:GLY:544:C:9884, V-A:HIS:456:CG:4066, V-A:TYR:484:CD2:4344, V-A:HIS:456:CB:4065, H-B:GLU:543:O:9875"]

$$$$
2c_Ghoteimi_2023
     RDKit          3D

 42 47  0  0  0  0  0  0  0  0999 V2000
  130.1290  124.3790   68.0610 N   0  0  0  0  0  0  0  0  0  0  0  0
  129.8060  125.2920   67.4280 C   0  0  0  0  0  0  0  0  0  0  0  0
  129.3970  126.4450   66.6200 C   0  0  0  0  0  0  0  0  0  0  0  0
  129.3660  126.3600   65.2060 C   0  0  0  0  0  0  0  0  0  0  0  0
  129.7370  125.1350   64.4370 C   0  0  0  0  0  0  0  0  0  0  0  0
  128.9960  124.7580   63.3150 C   0  0  0  0  0  0  0  0  0  0  0  0
  129.3390  123.6190   62.5910 C   0  0  0  0  0  0  0  0  0  0  0  0
  130.4240  122.8170   62.9770 C   0  0  0  0  0  0  0  0  0  0  0  0
  130.7980  121.6820   62.2530 N   0  0  0  0  0  0  0  0  0  0  0  0
  129.7800  120.9630   61.4610 C   0  0  0  0  0  0  0  0  0  0  0  0
  130.2240  119.5450   61.0410 C   0  0  0  0  0  0  0  0  0  0  0  0
  131.4580  119.6090   60.3430 O   0  0  0  0  0  0  0  0  0  0  0  0
  132.4870  120.1700   61.1440 C   0  0  0  0  0  0  0  0  0  0  0  0
  132.1020  121.6030   61.5670 C   0  0  0  0  0  0  0  0  0  0  0  0
  131.1590  123.2020   64.1070 C   0  0  0  0  0  0  0  0  0  0  0  0
  130.8180  124.3410   64.8290 C   0  0  0  0  0  0  0  0  0  0  0  0
  128.9640  127.4890   64.4800 C   0  0  0  0  0  0  0  0  0  0  0  0
  128.5780  128.6580   65.1430 C   0  0  0  0  0  0  0  0  0  0  0  0
  128.1250  129.8820   64.4140 C   0  0  0  0  0  0  0  0  0  0  0  0
  127.5220  129.7830   63.1560 C   0  0  0  0  0  0  0  0  0  0  0  0
  127.0930  130.9190   62.4750 C   0  0  0  0  0  0  0  0  0  0  0  0
  127.2620  132.2010   63.0230 C   0  0  0  0  0  0  0  0  0  0  0  0
  126.8150  133.3500   62.3630 N   0  0  0  0  0  0  0  0  0  0  0  0
  127.7830  134.2280   61.6760 C   0  0  0  0  0  0  0  0  0  0  0  0
  127.2200  135.6240   61.3360 C   0  0  0  0  0  0  0  0  0  0  0  0
  126.0290  135.4970   60.5780 O   0  0  0  0  0  0  0  0  0  0  0  0
  125.0290  134.7910   61.2950 C   0  0  0  0  0  0  0  0  0  0  0  0
  125.5260  133.3710   61.6400 C   0  0  0  0  0  0  0  0  0  0  0  0
  127.8560  132.2940   64.2900 C   0  0  0  0  0  0  0  0  0  0  0  0
  128.2830  131.1570   64.9710 C   0  0  0  0  0  0  0  0  0  0  0  0
  128.6070  128.7350   66.4980 N   0  0  0  0  0  0  0  0  0  0  0  0
  129.0220  127.6680   67.2210 C   0  0  0  0  0  0  0  0  0  0  0  0
  129.0060  127.9490   68.9770 S   0  0  0  0  0  0  0  0  0  0  0  0
  128.0980  126.5720   69.7420 C   0  0  0  0  0  0  0  0  0  0  0  0
  128.8540  125.9750   70.9300 C   0  0  0  0  0  0  0  0  0  0  0  0
  129.0570  126.6700   71.9270 O   0  0  0  0  0  0  0  0  0  0  0  0
  129.2550  124.6940   70.7820 N   0  0  0  0  0  0  0  0  0  0  0  0
  129.9380  123.9260   71.7140 C   0  0  0  0  0  0  0  0  0  0  0  0
  129.9700  122.6150   71.8110 N   0  0  0  0  0  0  0  0  0  0  0  0
  130.7280  122.2220   72.8150 C   0  0  0  0  0  0  0  0  0  0  0  0
  131.3320  123.2300   73.5610 C   0  0  0  0  0  0  0  0  0  0  0  0
  130.8760  124.7720   72.9020 S   0  0  0  0  0  0  0  0  0  0  0  0
  1  2  3  0
  2  3  1  0
  3  4  2  0
  4  5  1  0
  5  6  2  0
  6  7  1  0
  7  8  2  0
  8  9  1  0
  9 10  1  0
 10 11  1  0
 11 12  1  0
 12 13  1  0
 13 14  1  0
  8 15  1  0
 15 16  2  0
  4 17  1  0
 17 18  2  0
 18 19  1  0
 19 20  2  0
 20 21  1  0
 21 22  2  0
 22 23  1  0
 23 24  1  0
 24 25  1  0
 25 26  1  0
 26 27  1  0
 27 28  1  0
 22 29  1  0
 29 30  2  0
 18 31  1  0
 31 32  2  0
 32 33  1  0
 33 34  1  0
 34 35  1  0
 35 36  2  0
 35 37  1  0
 37 38  1  0
 38 39  2  0
 39 40  1  0
 40 41  2  0
 41 42  1  0
 32  3  1  0
 42 38  1  0
 16  5  1  0
 30 19  1  0
 14  9  1  0
 28 23  1  0
M  END
>  <Binding energies>  (11) 
[-10.63]

>  <Ligand effiencies>  (11) 
[-0.24720930232558141]

>  <Interactions>  (11) 
["H-B:HIS:456:NE2:9041, V-A:HIS:456:CD2:4068, V-B:GLU:543:CD:9880, H-B:LYS:547:NZ:9923, V-A:HIS:456:CE1:4069, H-A:HIS:456:NE2:4070, V-B:HIS:456:CE1:9040, V-B:GLU:543:CG:9879, V-A:GLU:543:CD:4908, V-B:TRP:381:CH2:8343, V-B:PRO:482:CG:9298, V-B:LEU:475:CD1:9229, V-B:PRO:482:CB:9297, V-A:TYR:539:CE2:4876, V-A:ALA:541:CB:4892, V-A:TYR:539:CD2:4874, V-B:ALA:541:CB:9864, V-A:TYR:484:CZ:4347, V-A:LEU:475:CD1:4258, V-A:GLU:543:CB:4906, V-A:TYR:484:CE1:4345, H-A:TYR:484:OH:4348, V-B:TRP:381:CZ2:8341, V-B:TYR:484:CE1:9316, V-B:TYR:539:CD2:9846, V-A:PRO:482:CG:4327, V-A:TRP:381:CH2:3372, V-A:PRO:482:CB:4326, V-A:HIS:456:CG:4066, V-A:TYR:484:CD2:4344, V-A:HIS:456:CB:4065, V-A:TYR:484:CG:4342, H-B:GLU:543:O:9875, V-A:ASP:473:CB:4239, V-A:TYR:484:CB:4341"]

$$$$
2j_Grossjean_2025
     RDKit          3D

 23 24  0  0  0  0  0  0  0  0999 V2000
  129.8180  123.6030   65.8330 C   0  0  0  0  0  0  0  0  0  0  0  0
  129.3890  125.0470   66.0170 C   0  0  0  0  0  0  0  0  0  0  0  0
  129.0070  125.8380   64.9370 C   0  0  0  0  0  0  0  0  0  0  0  0
  128.6150  127.1670   65.1580 C   0  0  0  0  0  0  0  0  0  0  0  0
  128.1950  128.0280   63.9510 C   0  0  0  0  0  0  0  0  0  0  0  0
  126.9360  128.4410   64.1020 F   0  0  0  0  0  0  0  0  0  0  0  0
  128.9910  129.0930   63.8500 F   0  0  0  0  0  0  0  0  0  0  0  0
  128.2650  127.3640   62.7950 F   0  0  0  0  0  0  0  0  0  0  0  0
  128.6230  127.6620   66.4860 C   0  0  0  0  0  0  0  0  0  0  0  0
  128.2240  129.0430   66.7760 C   0  0  0  0  0  0  0  0  0  0  0  0
  127.9080  130.1330   67.0040 N   0  0  0  0  0  0  0  0  0  0  0  0
  129.0270  126.7890   67.5240 C   0  0  0  0  0  0  0  0  0  0  0  0
  129.0730  127.3050   69.2340 S   0  0  0  0  0  0  0  0  0  0  0  0
  127.8810  126.2910   70.1730 C   0  0  0  0  0  0  0  0  0  0  0  0
  128.4860  125.4960   71.3400 C   0  0  0  0  0  0  0  0  0  0  0  0
  128.2950  125.8460   72.5060 O   0  0  0  0  0  0  0  0  0  0  0  0
  129.2290  124.4280   70.9720 N   0  0  0  0  0  0  0  0  0  0  0  0
  129.8850  123.5430   71.8170 C   0  0  0  0  0  0  0  0  0  0  0  0
  129.7190  122.2410   71.9080 N   0  0  0  0  0  0  0  0  0  0  0  0
  130.5130  121.7130   72.8200 C   0  0  0  0  0  0  0  0  0  0  0  0
  131.3490  122.5980   73.4940 C   0  0  0  0  0  0  0  0  0  0  0  0
  131.0730  124.2060   72.8930 S   0  0  0  0  0  0  0  0  0  0  0  0
  129.4000  125.5050   67.2890 N   0  0  0  0  0  0  0  0  0  0  0  0
  1  2  1  0
  2  3  2  0
  3  4  1  0
  4  5  1  0
  5  6  1  0
  5  7  1  0
  5  8  1  0
  4  9  2  0
  9 10  1  0
 10 11  3  0
  9 12  1  0
 12 13  1  0
 13 14  1  0
 14 15  1  0
 15 16  2  0
 15 17  1  0
 17 18  1  0
 18 19  2  0
 19 20  1  0
 20 21  2  0
 21 22  1  0
 12 23  2  0
 23  2  1  0
 22 18  1  0
M  END
>  <Binding energies>  (12) 
[-6.17]

>  <Ligand effiencies>  (12) 
[-0.25708333333333333]

>  <Interactions>  (12) 
["H-B:HIS:456:NE2:9041, V-A:HIS:456:CD2:4068, V-B:GLU:543:CD:9880, H-B:LYS:547:NZ:9923, V-B:GLU:543:C:9874, V-B:GLU:543:CB:9878, V-A:HIS:456:CE1:4069, H-A:HIS:456:NE2:4070, V-B:HIS:456:CE1:9040, V-B:GLU:543:CG:9879, V-A:GLU:543:CD:4908, H-B:TYR:484:OH:9319, V-B:GLU:543:CA:9876, V-A:TYR:484:CZ:4347, V-A:GLU:543:CB:4906, V-A:TYR:484:CE1:4345, V-B:GLY:544:C:9884, V-A:HIS:456:CG:4066, V-A:TYR:484:CD2:4344, V-A:TYR:484:CD1:4343, V-A:HIS:456:CB:4065, V-A:TYR:484:CG:4342, H-B:GLU:543:O:9875, V-A:ASP:473:CG:4240, V-A:ASP:473:CB:4239, V-A:TYR:484:CB:4341"]

$$$$
3ab_Grossjean_2025
     RDKit          3D

 33 35  0  0  0  0  0  0  0  0999 V2000
  126.8330  126.9240   73.7340 C   0  0  0  0  0  0  0  0  0  0  0  0
  127.9700  126.1100   73.9810 O   0  0  0  0  0  0  0  0  0  0  0  0
  129.1850  126.4310   73.4660 C   0  0  0  0  0  0  0  0  0  0  0  0
  130.0420  127.0640   74.0880 O   0  0  0  0  0  0  0  0  0  0  0  0
  129.3830  125.9360   72.0620 C   0  0  0  0  0  0  0  0  0  0  0  0
  129.9350  124.6740   71.7900 C   0  0  0  0  0  0  0  0  0  0  0  0
  130.1070  124.2400   70.4790 C   0  0  0  0  0  0  0  0  0  0  0  0
  129.7280  125.0670   69.4090 C   0  0  0  0  0  0  0  0  0  0  0  0
  129.8500  124.7300   68.0480 N   0  0  0  0  0  0  0  0  0  0  0  0
  129.1530  125.1720   66.9800 C   0  0  0  0  0  0  0  0  0  0  0  0
  128.2270  125.9830   67.0160 O   0  0  0  0  0  0  0  0  0  0  0  0
  129.5790  124.5880   65.6310 C   0  0  0  0  0  0  0  0  0  0  0  0
  130.4890  125.7940   64.6200 S   0  0  0  0  0  0  0  0  0  0  0  0
  131.2120  124.9100   63.2550 C   0  0  0  0  0  0  0  0  0  0  0  0
  130.3190  124.5740   62.2940 N   0  0  0  0  0  0  0  0  0  0  0  0
  130.7340  123.9000   61.1900 C   0  0  0  0  0  0  0  0  0  0  0  0
  129.6830  123.5680   60.1730 C   0  0  0  0  0  0  0  0  0  0  0  0
  128.8550  122.4460   60.3360 C   0  0  0  0  0  0  0  0  0  0  0  0
  127.8770  122.1330   59.3950 C   0  0  0  0  0  0  0  0  0  0  0  0
  127.7150  122.9410   58.2730 C   0  0  0  0  0  0  0  0  0  0  0  0
  128.5260  124.0550   58.0850 C   0  0  0  0  0  0  0  0  0  0  0  0
  129.5020  124.3640   59.0290 C   0  0  0  0  0  0  0  0  0  0  0  0
  132.0750  123.5280   61.0410 C   0  0  0  0  0  0  0  0  0  0  0  0
  133.0150  123.8470   62.0310 C   0  0  0  0  0  0  0  0  0  0  0  0
  134.4800  123.4140   61.8310 C   0  0  0  0  0  0  0  0  0  0  0  0
  134.7720  122.2710   62.4550 F   0  0  0  0  0  0  0  0  0  0  0  0
  134.7350  123.2370   60.5340 F   0  0  0  0  0  0  0  0  0  0  0  0
  135.3010  124.3520   62.3070 F   0  0  0  0  0  0  0  0  0  0  0  0
  132.5770  124.5530   63.1790 C   0  0  0  0  0  0  0  0  0  0  0  0
  133.5070  124.8620   64.2690 C   0  0  0  0  0  0  0  0  0  0  0  0
  134.2430  125.1040   65.1280 N   0  0  0  0  0  0  0  0  0  0  0  0
  129.1740  126.3200   69.6770 C   0  0  0  0  0  0  0  0  0  0  0  0
  129.0040  126.7510   70.9890 C   0  0  0  0  0  0  0  0  0  0  0  0
  1  2  1  0
  2  3  1  0
  3  4  2  0
  3  5  1  0
  5  6  2  0
  6  7  1  0
  7  8  2  0
  8  9  1  0
  9 10  1  0
 10 11  2  0
 10 12  1  0
 12 13  1  0
 13 14  1  0
 14 15  2  0
 15 16  1  0
 16 17  1  0
 17 18  2  0
 18 19  1  0
 19 20  2  0
 20 21  1  0
 21 22  2  0
 16 23  2  0
 23 24  1  0
 24 25  1  0
 25 26  1  0
 25 27  1  0
 25 28  1  0
 24 29  2  0
 29 30  1  0
 30 31  3  0
  8 32  1  0
 32 33  2  0
 33  5  1  0
 29 14  1  0
 22 17  1  0
M  END
>  <Binding energies>  (13) 
[-8.12]

>  <Ligand effiencies>  (13) 
[-0.23882352941176468]

>  <Interactions>  (13) 
["V-A:HIS:456:CD2:4068, H-B:LYS:547:NZ:9923, V-B:GLU:543:C:9874, H-A:LYS:547:NZ:4951, V-B:GLU:543:CB:9878, V-A:HIS:456:CE1:4069, V-B:GLU:543:CG:9879, V-B:GLU:543:CA:9876, V-A:TYR:484:CZ:4347, V-A:TYR:484:CE1:4345, H-A:GLY:454:N:4050, V-A:ARG:545:CZ:4926, V-A:GLY:453:CA:4044, H-A:TYR:484:OH:4348, V-A:GLY:453:C:4042, V-A:GLY:454:CA:4049, H-A:ARG:545:NE:4924, V-A:ASP:366:CG:3213, V-B:TYR:539:CE2:9848, V-A:ILE:369:CB:3236, V-A:ILE:369:CG2:3237, V-B:PRO:540:CA:9855, V-A:ILE:369:CG1:3238, V-A:ILE:369:CD1:3239, V-B:TYR:539:CD2:9846, V-B:PRO:540:N:9856, V-B:TYR:539:C:9839, V-A:HIS:456:CG:4066, V-A:TYR:484:CE2:4346, V-A:TYR:484:CD1:4343, V-B:PRO:540:C:9853, V-B:LYS:547:CD:9921, V-B:TYR:539:CZ:9849, H-B:GLU:543:O:9875, H-A:HIS:456:ND1:4067"]

$$$$
3ac_Grossjean_2025
     RDKit          3D

 31 33  0  0  0  0  0  0  0  0999 V2000
  127.1640  126.6220   74.3560 C   0  0  0  0  0  0  0  0  0  0  0  0
  128.2200  125.8800   73.7540 O   0  0  0  0  0  0  0  0  0  0  0  0
  128.3910  125.9380   72.3840 C   0  0  0  0  0  0  0  0  0  0  0  0
  129.1880  124.9460   71.8130 C   0  0  0  0  0  0  0  0  0  0  0  0
  129.4130  124.9220   70.4400 C   0  0  0  0  0  0  0  0  0  0  0  0
  128.8490  125.8970   69.6170 C   0  0  0  0  0  0  0  0  0  0  0  0
  129.1170  125.7770   68.2400 N   0  0  0  0  0  0  0  0  0  0  0  0
  129.6550  126.6830   67.3950 C   0  0  0  0  0  0  0  0  0  0  0  0
  130.0600  127.8010   67.7150 O   0  0  0  0  0  0  0  0  0  0  0  0
  129.7570  126.2430   65.9340 C   0  0  0  0  0  0  0  0  0  0  0  0
  130.0750  124.4590   65.7740 S   0  0  0  0  0  0  0  0  0  0  0  0
  130.6970  124.1340   64.1350 C   0  0  0  0  0  0  0  0  0  0  0  0
  129.7170  123.8910   63.2320 N   0  0  0  0  0  0  0  0  0  0  0  0
  130.0380  123.6330   61.9380 C   0  0  0  0  0  0  0  0  0  0  0  0
  128.8950  123.3680   61.0040 C   0  0  0  0  0  0  0  0  0  0  0  0
  127.5660  123.4860   61.4430 C   0  0  0  0  0  0  0  0  0  0  0  0
  126.5010  123.2460   60.5800 C   0  0  0  0  0  0  0  0  0  0  0  0
  126.7510  122.8820   59.2610 C   0  0  0  0  0  0  0  0  0  0  0  0
  128.0560  122.7530   58.8010 C   0  0  0  0  0  0  0  0  0  0  0  0
  129.1190  122.9930   59.6680 C   0  0  0  0  0  0  0  0  0  0  0  0
  131.3740  123.5960   61.5250 C   0  0  0  0  0  0  0  0  0  0  0  0
  132.4080  123.8220   62.4450 C   0  0  0  0  0  0  0  0  0  0  0  0
  133.8660  123.7670   61.9480 C   0  0  0  0  0  0  0  0  0  0  0  0
  134.4750  122.6200   62.2560 F   0  0  0  0  0  0  0  0  0  0  0  0
  133.9070  123.8930   60.6200 F   0  0  0  0  0  0  0  0  0  0  0  0
  134.5700  124.7570   62.4980 F   0  0  0  0  0  0  0  0  0  0  0  0
  132.0690  124.0850   63.7950 C   0  0  0  0  0  0  0  0  0  0  0  0
  133.1150  124.2510   64.8060 C   0  0  0  0  0  0  0  0  0  0  0  0
  133.9430  124.3810   65.6050 N   0  0  0  0  0  0  0  0  0  0  0  0
  128.0400  126.8950   70.1820 C   0  0  0  0  0  0  0  0  0  0  0  0
  127.8160  126.9160   71.5560 C   0  0  0  0  0  0  0  0  0  0  0  0
  1  2  1  0
  2  3  1  0
  3  4  2  0
  4  5  1  0
  5  6  2  0
  6  7  1  0
  7  8  1  0
  8  9  2  0
  8 10  1  0
 10 11  1  0
 11 12  1  0
 12 13  2  0
 13 14  1  0
 14 15  1  0
 15 16  2  0
 16 17  1  0
 17 18  2  0
 18 19  1  0
 19 20  2  0
 14 21  2  0
 21 22  1  0
 22 23  1  0
 23 24  1  0
 23 25  1  0
 23 26  1  0
 22 27  2  0
 27 28  1  0
 28 29  3  0
  6 30  1  0
 30 31  2  0
 31  3  1  0
 27 12  1  0
 20 15  1  0
M  END
>  <Binding energies>  (14) 
[-7.96]

>  <Ligand effiencies>  (14) 
[-0.24875]

>  <Interactions>  (14) 
["V-A:HIS:456:CD2:4068, V-B:GLU:543:CD:9880, H-B:LYS:547:NZ:9923, V-B:GLU:543:C:9874, V-A:HIS:456:CE1:4069, H-A:HIS:456:NE2:4070, V-B:HIS:456:CE1:9040, V-B:GLU:543:CG:9879, V-A:GLU:543:CD:4908, H-A:GLY:454:N:4050, V-A:ARG:545:CZ:4926, V-A:GLY:453:CA:4044, H-A:TYR:484:OH:4348, V-A:GLY:453:C:4042, V-A:GLY:454:CA:4049, V-A:ASP:366:CG:3213, V-B:TYR:539:CE2:9848, V-B:PRO:540:CA:9855, V-A:ILE:369:CD1:3239, V-B:TYR:539:CD2:9846, V-B:PRO:540:CB:9857, V-B:GLY:544:C:9884, V-B:PRO:540:N:9856, V-B:TYR:539:C:9839, V-B:PRO:540:C:9853, V-B:LYS:547:CD:9921, H-B:GLU:543:O:9875, V-B:LYS:547:CE:9922"]

$$$$
3af_Grossjean_2025
     RDKit          3D

 29 31  0  0  0  0  0  0  0  0999 V2000
  130.0320  124.5120   68.8620 N   0  0  0  0  0  0  0  0  0  0  0  0
  129.4100  125.2770   68.2560 C   0  0  0  0  0  0  0  0  0  0  0  0
  128.6240  126.2450   67.4870 C   0  0  0  0  0  0  0  0  0  0  0  0
  128.9820  126.5720   66.1570 C   0  0  0  0  0  0  0  0  0  0  0  0
  130.1670  125.9100   65.4270 C   0  0  0  0  0  0  0  0  0  0  0  0
  130.3640  126.4060   64.2030 F   0  0  0  0  0  0  0  0  0  0  0  0
  131.2900  126.0960   66.1210 F   0  0  0  0  0  0  0  0  0  0  0  0
  129.9500  124.6010   65.2950 F   0  0  0  0  0  0  0  0  0  0  0  0
  128.2310  127.5460   65.4800 C   0  0  0  0  0  0  0  0  0  0  0  0
  127.1550  128.1750   66.1140 C   0  0  0  0  0  0  0  0  0  0  0  0
  126.3310  129.2340   65.4450 C   0  0  0  0  0  0  0  0  0  0  0  0
  126.9320  130.1910   64.6100 C   0  0  0  0  0  0  0  0  0  0  0  0
  126.1720  131.1750   63.9840 C   0  0  0  0  0  0  0  0  0  0  0  0
  124.7970  131.2160   64.1840 C   0  0  0  0  0  0  0  0  0  0  0  0
  124.1760  130.2790   65.0030 C   0  0  0  0  0  0  0  0  0  0  0  0
  124.9390  129.2950   65.6270 C   0  0  0  0  0  0  0  0  0  0  0  0
  126.8170  127.8610   67.3900 N   0  0  0  0  0  0  0  0  0  0  0  0
  127.5130  126.9080   68.0570 C   0  0  0  0  0  0  0  0  0  0  0  0
  126.9140  126.6230   69.7100 S   0  0  0  0  0  0  0  0  0  0  0  0
  128.2020  127.1590   70.8750 C   0  0  0  0  0  0  0  0  0  0  0  0
  128.5740  126.0520   71.8610 C   0  0  0  0  0  0  0  0  0  0  0  0
  127.9430  125.9520   72.9140 O   0  0  0  0  0  0  0  0  0  0  0  0
  129.6000  125.2600   71.4820 N   0  0  0  0  0  0  0  0  0  0  0  0
  130.1880  124.1700   72.1530 C   0  0  0  0  0  0  0  0  0  0  0  0
  131.1980  124.2550   73.1300 C   0  0  0  0  0  0  0  0  0  0  0  0
  131.6940  123.0870   73.7140 C   0  0  0  0  0  0  0  0  0  0  0  0
  131.1680  121.8610   73.3070 C   0  0  0  0  0  0  0  0  0  0  0  0
  130.1950  121.7520   72.3680 N   0  0  0  0  0  0  0  0  0  0  0  0
  129.7230  122.8960   71.8100 C   0  0  0  0  0  0  0  0  0  0  0  0
  1  2  3  0
  2  3  1  0
  3  4  2  0
  4  5  1  0
  5  6  1  0
  5  7  1  0
  5  8  1  0
  4  9  1  0
  9 10  2  0
 10 11  1  0
 11 12  2  0
 12 13  1  0
 13 14  2  0
 14 15  1  0
 15 16  2  0
 10 17  1  0
 17 18  2  0
 18 19  1  0
 19 20  1  0
 20 21  1  0
 21 22  2  0
 21 23  1  0
 23 24  1  0
 24 25  2  0
 25 26  1  0
 26 27  2  0
 27 28  1  0
 28 29  2  0
 18  3  1  0
 29 24  1  0
 16 11  1  0
M  END
>  <Binding energies>  (15) 
[-7.21]

>  <Ligand effiencies>  (15) 
[-0.24033333333333334]

>  <Interactions>  (15) 
["V-A:HIS:456:CD2:4068, V-B:GLU:543:CD:9880, H-B:LYS:547:NZ:9923, V-B:GLU:543:C:9874, V-B:GLU:543:CB:9878, V-A:HIS:456:CE1:4069, V-B:ARG:545:CZ:9898, H-A:HIS:456:NE2:4070, V-B:ARG:545:CD:9895, V-B:HIS:456:CE1:9040, V-B:GLU:543:CG:9879, V-A:GLU:543:CD:4908, V-B:GLY:454:CA:9020, V-A:TYR:484:CE1:4345, H-A:TYR:484:OH:4348, H-B:ARG:545:N:9892, V-A:HIS:456:CG:4066, V-A:TYR:484:CD2:4344, V-A:TYR:484:CD1:4343, V-A:HIS:456:CB:4065, V-A:TYR:484:CG:4342, H-B:GLU:543:O:9875, V-B:LYS:547:CE:9922, V-A:ASP:473:CG:4240, V-A:ASP:473:CB:4239, V-A:TYR:484:CB:4341"]

$$$$
3ag_Grossjean_2025
     RDKit          3D

 30 32  0  0  0  0  0  0  0  0999 V2000
  130.1030  124.4800   69.1620 N   0  0  0  0  0  0  0  0  0  0  0  0
  129.4680  125.2160   68.5320 C   0  0  0  0  0  0  0  0  0  0  0  0
  128.6670  126.1460   67.7330 C   0  0  0  0  0  0  0  0  0  0  0  0
  128.9880  126.3970   66.3760 C   0  0  0  0  0  0  0  0  0  0  0  0
  130.1410  125.6790   65.6480 C   0  0  0  0  0  0  0  0  0  0  0  0
  131.3260  125.8850   66.2250 F   0  0  0  0  0  0  0  0  0  0  0  0
  129.9210  124.3640   65.6380 F   0  0  0  0  0  0  0  0  0  0  0  0
  130.2300  126.1120   64.3890 F   0  0  0  0  0  0  0  0  0  0  0  0
  128.2230  127.3370   65.6680 C   0  0  0  0  0  0  0  0  0  0  0  0
  127.1760  128.0160   66.3000 C   0  0  0  0  0  0  0  0  0  0  0  0
  126.3300  129.0310   65.5930 C   0  0  0  0  0  0  0  0  0  0  0  0
  126.8860  129.8760   64.6200 C   0  0  0  0  0  0  0  0  0  0  0  0
  126.1050  130.8210   63.9600 C   0  0  0  0  0  0  0  0  0  0  0  0
  124.7530  130.9340   64.2650 C   0  0  0  0  0  0  0  0  0  0  0  0
  124.1770  130.1100   65.2280 C   0  0  0  0  0  0  0  0  0  0  0  0
  124.9610  129.1680   65.8860 C   0  0  0  0  0  0  0  0  0  0  0  0
  126.8630  127.7640   67.5970 N   0  0  0  0  0  0  0  0  0  0  0  0
  127.5750  126.8460   68.2940 C   0  0  0  0  0  0  0  0  0  0  0  0
  127.0240  126.6440   69.9740 S   0  0  0  0  0  0  0  0  0  0  0  0
  128.4530  126.9540   71.0540 C   0  0  0  0  0  0  0  0  0  0  0  0
  128.1320  126.6910   72.5260 C   0  0  0  0  0  0  0  0  0  0  0  0
  128.5680  125.6780   73.0780 O   0  0  0  0  0  0  0  0  0  0  0  0
  127.3760  127.6130   73.1470 N   0  0  0  0  0  0  0  0  0  0  0  0
  126.9820  127.5790   74.5550 C   0  0  0  0  0  0  0  0  0  0  0  0
  126.0990  128.7470   74.9820 C   0  0  0  0  0  0  0  0  0  0  0  0
  124.7440  128.5330   75.2440 C   0  0  0  0  0  0  0  0  0  0  0  0
  123.9410  129.5910   75.6640 C   0  0  0  0  0  0  0  0  0  0  0  0
  124.4990  130.8570   75.8280 C   0  0  0  0  0  0  0  0  0  0  0  0
  125.8530  131.0740   75.5830 C   0  0  0  0  0  0  0  0  0  0  0  0
  126.6560  130.0160   75.1640 C   0  0  0  0  0  0  0  0  0  0  0  0
  1  2  3  0
  2  3  1  0
  3  4  2  0
  4  5  1  0
  5  6  1  0
  5  7  1  0
  5  8  1  0
  4  9  1  0
  9 10  2  0
 10 11  1  0
 11 12  2  0
 12 13  1  0
 13 14  2  0
 14 15  1  0
 15 16  2  0
 10 17  1  0
 17 18  2  0
 18 19  1  0
 19 20  1  0
 20 21  1  0
 21 22  2  0
 21 23  1  0
 23 24  1  0
 24 25  1  0
 25 26  2  0
 26 27  1  0
 27 28  2  0
 28 29  1  0
 29 30  2  0
 18  3  1  0
 30 25  1  0
 16 11  1  0
M  END
>  <Binding energies>  (16) 
[-7.63]

>  <Ligand effiencies>  (16) 
[-0.2461290322580645]

>  <Interactions>  (16) 
["V-B:ARG:545:CG:9894, V-B:GLU:543:CD:9880, H-B:LYS:547:NZ:9923, V-B:GLU:543:C:9874, V-B:HIS:456:CD2:9039, V-B:GLU:543:CB:9878, V-A:HIS:456:CE1:4069, V-B:ARG:545:CZ:9898, H-A:HIS:456:NE2:4070, V-B:ARG:545:CD:9895, V-B:HIS:456:CE1:9040, V-B:GLU:543:CG:9879, V-A:GLU:543:CD:4908, V-B:GLY:454:CA:9020, V-A:TYR:484:CZ:4347, H-B:HIS:456:ND1:9038, V-A:TYR:484:CE1:4345, H-A:TYR:484:OH:4348, H-B:ARG:545:N:9892, V-B:HIS:456:CB:9036, V-B:HIS:456:C:9032, V-B:VAL:458:CG2:9058, V-B:VAL:457:C:9044, V-B:HIS:456:CG:9037, V-B:HIS:456:CA:9034, V-B:VAL:457:CA:9046, V-B:LYS:471:CE:9191, V-B:LYS:471:CG:9189, V-B:ASP:473:CG:9211"]

$$$$
3bc_Grossjean_2025
     RDKit          3D

 28 30  0  0  0  0  0  0  0  0999 V2000
  127.1250  126.9400   74.1690 C   0  0  0  0  0  0  0  0  0  0  0  0
  128.2660  126.1530   73.8460 O   0  0  0  0  0  0  0  0  0  0  0  0
  128.5680  125.9180   72.5180 C   0  0  0  0  0  0  0  0  0  0  0  0
  127.9130  126.7180   71.5810 C   0  0  0  0  0  0  0  0  0  0  0  0
  128.1520  126.5560   70.2190 C   0  0  0  0  0  0  0  0  0  0  0  0
  129.0470  125.5810   69.7740 C   0  0  0  0  0  0  0  0  0  0  0  0
  129.2330  125.4990   68.3810 N   0  0  0  0  0  0  0  0  0  0  0  0
  129.7180  126.4290   67.5300 C   0  0  0  0  0  0  0  0  0  0  0  0
  130.1290  127.5410   67.8670 O   0  0  0  0  0  0  0  0  0  0  0  0
  129.7670  125.9890   66.0600 C   0  0  0  0  0  0  0  0  0  0  0  0
  130.1040  124.2160   65.7910 S   0  0  0  0  0  0  0  0  0  0  0  0
  130.6940  124.0210   64.1240 C   0  0  0  0  0  0  0  0  0  0  0  0
  129.7090  123.8000   63.2190 N   0  0  0  0  0  0  0  0  0  0  0  0
  130.0210  123.6360   61.9070 C   0  0  0  0  0  0  0  0  0  0  0  0
  128.8760  123.3740   60.9740 C   0  0  0  0  0  0  0  0  0  0  0  0
  129.1080  123.0090   59.6400 C   0  0  0  0  0  0  0  0  0  0  0  0
  128.0500  122.7640   58.7680 C   0  0  0  0  0  0  0  0  0  0  0  0
  126.7410  122.8850   59.2210 C   0  0  0  0  0  0  0  0  0  0  0  0
  126.4830  123.2490   60.5390 C   0  0  0  0  0  0  0  0  0  0  0  0
  127.5440  123.4930   61.4070 C   0  0  0  0  0  0  0  0  0  0  0  0
  131.3490  123.6900   61.4710 C   0  0  0  0  0  0  0  0  0  0  0  0
  132.3750  123.9410   62.3890 C   0  0  0  0  0  0  0  0  0  0  0  0
  133.8090  124.0090   61.8660 C   0  0  0  0  0  0  0  0  0  0  0  0
  132.0540  124.1230   63.7520 C   0  0  0  0  0  0  0  0  0  0  0  0
  133.1060  124.4350   64.7220 C   0  0  0  0  0  0  0  0  0  0  0  0
  133.9390  124.6800   65.4860 N   0  0  0  0  0  0  0  0  0  0  0  0
  129.7190  124.7810   70.7100 C   0  0  0  0  0  0  0  0  0  0  0  0
  129.4780  124.9470   72.0710 C   0  0  0  0  0  0  0  0  0  0  0  0
  1  2  1  0
  2  3  1  0
  3  4  2  0
  4  5  1  0
  5  6  2  0
  6  7  1  0
  7  8  1  0
  8  9  2  0
  8 10  1  0
 10 11  1  0
 11 12  1  0
 12 13  2  0
 13 14  1  0
 14 15  1  0
 15 16  2  0
 16 17  1  0
 17 18  2  0
 18 19  1  0
 19 20  2  0
 14 21  2  0
 21 22  1  0
 22 23  1  0
 22 24  2  0
 24 25  1  0
 25 26  3  0
  6 27  1  0
 27 28  2  0
 28  3  1  0
 24 12  1  0
 20 15  1  0
M  END
>  <Binding energies>  (17) 
[-8.34]

>  <Ligand effiencies>  (17) 
[-0.28758620689655173]

>  <Interactions>  (17) 
["V-A:HIS:456:CD2:4068, V-B:GLU:543:CD:9880, H-B:LYS:547:NZ:9923, V-B:GLU:543:C:9874, V-A:HIS:456:CE1:4069, H-A:HIS:456:NE2:4070, V-B:HIS:456:CE1:9040, V-B:GLU:543:CG:9879, H-A:GLY:454:N:4050, H-A:TYR:484:OH:4348, H-A:ARG:545:NE:4924, V-A:ASP:366:CG:3213, V-B:TYR:539:CE2:9848, V-B:PRO:540:CA:9855, V-B:TYR:539:CD2:9846, V-B:PRO:540:CB:9857, V-B:GLY:544:C:9884, V-B:PRO:540:N:9856, V-B:TYR:539:C:9839, V-A:HIS:456:CG:4066, V-B:PRO:540:C:9853, V-B:LYS:547:CD:9921, H-B:GLU:543:O:9875"]

$$$$
3bd_Grossjean_2025
     RDKit          3D

 26 28  0  0  0  0  0  0  0  0999 V2000
  129.6700  124.8600   64.6540 C   0  0  0  0  0  0  0  0  0  0  0  0
  129.1530  125.7860   65.7530 C   0  0  0  0  0  0  0  0  0  0  0  0
  129.3110  125.3860   67.0850 C   0  0  0  0  0  0  0  0  0  0  0  0
  128.8470  126.2050   68.1210 C   0  0  0  0  0  0  0  0  0  0  0  0
  128.9890  125.8390   69.5690 C   0  0  0  0  0  0  0  0  0  0  0  0
  129.7510  124.7250   69.9560 C   0  0  0  0  0  0  0  0  0  0  0  0
  129.8850  124.3790   71.2980 C   0  0  0  0  0  0  0  0  0  0  0  0
  129.2560  125.1440   72.2750 C   0  0  0  0  0  0  0  0  0  0  0  0
  128.4930  126.2510   71.9170 C   0  0  0  0  0  0  0  0  0  0  0  0
  128.3610  126.5930   70.5750 C   0  0  0  0  0  0  0  0  0  0  0  0
  128.2530  127.3970   67.8520 N   0  0  0  0  0  0  0  0  0  0  0  0
  128.0910  127.8000   66.5660 C   0  0  0  0  0  0  0  0  0  0  0  0
  127.2860  129.3790   66.3470 S   0  0  0  0  0  0  0  0  0  0  0  0
  125.5010  129.1410   66.5970 C   0  0  0  0  0  0  0  0  0  0  0  0
  124.6850  129.6230   65.3970 C   0  0  0  0  0  0  0  0  0  0  0  0
  123.5170  129.9720   65.5690 O   0  0  0  0  0  0  0  0  0  0  0  0
  125.3280  129.6120   64.2090 N   0  0  0  0  0  0  0  0  0  0  0  0
  124.8600  130.0170   62.9450 C   0  0  0  0  0  0  0  0  0  0  0  0
  125.6040  129.5810   61.8460 C   0  0  0  0  0  0  0  0  0  0  0  0
  125.2230  129.9390   60.5550 C   0  0  0  0  0  0  0  0  0  0  0  0
  124.1020  130.7420   60.3640 C   0  0  0  0  0  0  0  0  0  0  0  0
  123.3600  131.1940   61.4520 C   0  0  0  0  0  0  0  0  0  0  0  0
  123.7380  130.8370   62.7440 C   0  0  0  0  0  0  0  0  0  0  0  0
  128.5270  127.0200   65.4740 C   0  0  0  0  0  0  0  0  0  0  0  0
  128.3470  127.4680   64.0900 C   0  0  0  0  0  0  0  0  0  0  0  0
  128.2070  127.8210   62.9970 N   0  0  0  0  0  0  0  0  0  0  0  0
  1  2  1  0
  2  3  2  0
  3  4  1  0
  4  5  1  0
  5  6  2  0
  6  7  1  0
  7  8  2  0
  8  9  1  0
  9 10  2  0
  4 11  2  0
 11 12  1  0
 12 13  1  0
 13 14  1  0
 14 15  1  0
 15 16  2  0
 15 17  1  0
 17 18  1  0
 18 19  2  0
 19 20  1  0
 20 21  2  0
 21 22  1  0
 22 23  2  0
 12 24  2  0
 24 25  1  0
 25 26  3  0
 24  2  1  0
 10  5  1  0
 23 18  1  0
M  END
>  <Binding energies>  (18) 
[-7.43]

>  <Ligand effiencies>  (18) 
[-0.2751851851851852]

>  <Interactions>  (18) 
["V-B:ARG:545:CG:9894, V-A:HIS:456:CD2:4068, V-B:GLU:543:CD:9880, V-B:GLU:543:CB:9878, V-A:HIS:456:CE1:4069, V-B:ARG:545:CZ:9898, V-B:ARG:545:CD:9895, V-B:HIS:456:CE1:9040, V-B:GLU:543:CG:9879, H-B:GLY:454:N:9021, V-B:ASP:366:CG:8184, V-B:ASP:366:CB:8183, V-B:ILE:369:CD1:8210, H-B:ILE:455:N:9026, H-B:TYR:484:OH:9319, V-B:GLU:543:CA:9876, H-B:ARG:545:NE:9896, V-A:TYR:484:CZ:4347, V-A:TYR:484:CE1:4345, V-B:TYR:484:CZ:9318, V-A:HIS:456:CG:4066, H-B:GLU:543:OE1:9881"]

$$$$
3be_Grossjean_2025
     RDKit          3D

 27 29  0  0  0  0  0  0  0  0999 V2000
  127.6180  118.9790   74.7640 C   0  0  0  0  0  0  0  0  0  0  0  0
  127.4960  119.4480   73.3270 C   0  0  0  0  0  0  0  0  0  0  0  0
  126.6860  118.7790   72.4060 C   0  0  0  0  0  0  0  0  0  0  0  0
  126.6240  119.2650   71.0990 C   0  0  0  0  0  0  0  0  0  0  0  0
  127.3660  120.3970   70.7490 C   0  0  0  0  0  0  0  0  0  0  0  0
  128.1540  121.0210   71.7220 C   0  0  0  0  0  0  0  0  0  0  0  0
  128.8840  122.1490   71.3030 N   0  0  0  0  0  0  0  0  0  0  0  0
  130.0140  122.6680   71.8320 C   0  0  0  0  0  0  0  0  0  0  0  0
  130.6020  122.2120   72.8140 O   0  0  0  0  0  0  0  0  0  0  0  0
  130.5490  123.9130   71.1060 C   0  0  0  0  0  0  0  0  0  0  0  0
  129.4900  125.3950   71.2240 S   0  0  0  0  0  0  0  0  0  0  0  0
  128.9100  125.7910   69.5890 C   0  0  0  0  0  0  0  0  0  0  0  0
  129.6870  125.2860   68.6000 N   0  0  0  0  0  0  0  0  0  0  0  0
  129.3580  125.5080   67.2990 C   0  0  0  0  0  0  0  0  0  0  0  0
  130.2770  124.9270   66.2660 C   0  0  0  0  0  0  0  0  0  0  0  0
  129.9590  123.7230   65.6180 C   0  0  0  0  0  0  0  0  0  0  0  0
  130.8090  123.1770   64.6610 C   0  0  0  0  0  0  0  0  0  0  0  0
  131.9930  123.8300   64.3370 C   0  0  0  0  0  0  0  0  0  0  0  0
  132.3340  125.0220   64.9650 C   0  0  0  0  0  0  0  0  0  0  0  0
  131.4810  125.5650   65.9230 C   0  0  0  0  0  0  0  0  0  0  0  0
  128.2250  126.2580   66.9640 C   0  0  0  0  0  0  0  0  0  0  0  0
  127.3990  126.7650   67.9730 C   0  0  0  0  0  0  0  0  0  0  0  0
  126.1640  127.5620   67.5590 C   0  0  0  0  0  0  0  0  0  0  0  0
  127.7310  126.5240   69.3240 C   0  0  0  0  0  0  0  0  0  0  0  0
  126.8510  126.9990   70.3940 C   0  0  0  0  0  0  0  0  0  0  0  0
  126.1540  127.3750   71.2380 N   0  0  0  0  0  0  0  0  0  0  0  0
  128.2210  120.5480   73.0010 N   0  0  0  0  0  0  0  0  0  0  0  0
  1  2  1  0
  2  3  2  0
  3  4  1  0
  4  5  2  0
  5  6  1  0
  6  7  1  0
  7  8  1  0
  8  9  2  0
  8 10  1  0
 10 11  1  0
 11 12  1  0
 12 13  2  0
 13 14  1  0
 14 15  1  0
 15 16  2  0
 16 17  1  0
 17 18  2  0
 18 19  1  0
 19 20  2  0
 14 21  2  0
 21 22  1  0
 22 23  1  0
 22 24  2  0
 24 25  1  0
 25 26  3  0
  6 27  2  0
 27  2  1  0
 24 12  1  0
 20 15  1  0
M  END
>  <Binding energies>  (19) 
[-8.17]

>  <Ligand effiencies>  (19) 
[-0.29178571428571426]

>  <Interactions>  (19) 
["V-B:ARG:545:CG:9894, H-B:HIS:456:NE2:9041, V-A:HIS:456:CD2:4068, H-B:LYS:547:NZ:9923, V-B:GLU:543:C:9874, V-B:GLU:543:CB:9878, V-A:HIS:456:CE1:4069, H-A:HIS:456:NE2:4070, V-B:HIS:456:CE1:9040, V-B:GLU:543:CG:9879, V-B:GLU:543:CA:9876, V-A:TYR:484:CZ:4347, V-A:TYR:484:CE1:4345, H-A:TYR:484:OH:4348, V-B:GLY:544:C:9884, H-B:ARG:545:N:9892, V-B:ARG:545:CA:9891, V-A:HIS:456:CG:4066, V-A:TYR:484:CD2:4344, V-A:TYR:484:CE2:4346, V-A:TYR:484:CD1:4343, V-A:TYR:484:CG:4342, V-B:HIS:456:CG:9037, H-B:GLU:543:O:9875, V-B:LYS:547:CE:9922, V-B:GLY:544:CA:9886, V-A:TYR:484:CB:4341, V-B:VAL:542:CG1:9871"]

$$$$
3bf_Grossjean_2025
     RDKit          3D

 26 28  0  0  0  0  0  0  0  0999 V2000
  123.0140  129.6570   66.0690 C   0  0  0  0  0  0  0  0  0  0  0  0
  124.4790  129.5840   65.6430 C   0  0  0  0  0  0  0  0  0  0  0  0
  125.3800  128.9290   66.4890 C   0  0  0  0  0  0  0  0  0  0  0  0
  126.7280  128.8260   66.1290 C   0  0  0  0  0  0  0  0  0  0  0  0
  127.7390  128.1180   66.9800 C   0  0  0  0  0  0  0  0  0  0  0  0
  128.9390  128.7500   67.3430 C   0  0  0  0  0  0  0  0  0  0  0  0
  129.8820  128.0980   68.1320 C   0  0  0  0  0  0  0  0  0  0  0  0
  129.6380  126.8000   68.5690 C   0  0  0  0  0  0  0  0  0  0  0  0
  128.4580  126.1510   68.2220 C   0  0  0  0  0  0  0  0  0  0  0  0
  127.5180  126.8060   67.4310 C   0  0  0  0  0  0  0  0  0  0  0  0
  127.1810  129.3580   64.9630 N   0  0  0  0  0  0  0  0  0  0  0  0
  126.3250  130.0190   64.1450 C   0  0  0  0  0  0  0  0  0  0  0  0
  127.0940  130.6520   62.6690 S   0  0  0  0  0  0  0  0  0  0  0  0
  128.7260  131.3290   63.1280 C   0  0  0  0  0  0  0  0  0  0  0  0
  129.6300  131.7070   61.9460 C   0  0  0  0  0  0  0  0  0  0  0  0
  129.3950  132.7100   61.2690 O   0  0  0  0  0  0  0  0  0  0  0  0
  130.6810  130.8810   61.7540 N   0  0  0  0  0  0  0  0  0  0  0  0
  131.6810  130.9390   60.7650 C   0  0  0  0  0  0  0  0  0  0  0  0
  133.0030  131.0740   61.2010 C   0  0  0  0  0  0  0  0  0  0  0  0
  134.0420  131.1230   60.2680 C   0  0  0  0  0  0  0  0  0  0  0  0
  133.7250  131.0300   58.9130 C   0  0  0  0  0  0  0  0  0  0  0  0
  132.4540  130.8880   58.4620 N   0  0  0  0  0  0  0  0  0  0  0  0
  131.4540  130.8410   59.3800 C   0  0  0  0  0  0  0  0  0  0  0  0
  124.9480  130.1430   64.4350 C   0  0  0  0  0  0  0  0  0  0  0  0
  124.0130  130.7910   63.5110 C   0  0  0  0  0  0  0  0  0  0  0  0
  123.2730  131.3030   62.7840 N   0  0  0  0  0  0  0  0  0  0  0  0
  1  2  1  0
  2  3  2  0
  3  4  1  0
  4  5  1  0
  5  6  2  0
  6  7  1  0
  7  8  2  0
  8  9  1  0
  9 10  2  0
  4 11  2  0
 11 12  1  0
 12 13  1  0
 13 14  1  0
 14 15  1  0
 15 16  2  0
 15 17  1  0
 17 18  1  0
 18 19  2  0
 19 20  1  0
 20 21  2  0
 21 22  1  0
 22 23  2  0
 12 24  2  0
 24 25  1  0
 25 26  3  0
 24  2  1  0
 10  5  1  0
 23 18  1  0
M  END
>  <Binding energies>  (20) 
[-8.01]

>  <Ligand effiencies>  (20) 
[-0.29666666666666663]

>  <Interactions>  (20) 
["V-B:ARG:545:CG:9894, V-B:GLU:543:C:9874, V-B:GLU:543:CB:9878, V-A:HIS:456:CE1:4069, V-B:ARG:545:CZ:9898, H-A:GLU:543:OE1:4909, V-B:ARG:545:CD:9895, V-B:HIS:456:CE1:9040, H-A:GLU:543:OE2:4910, V-A:GLU:543:CG:4907, V-A:GLU:543:CD:4908, H-B:GLY:454:N:9021, V-B:GLY:454:CA:9020, V-A:PRO:540:CA:4883, V-A:ALA:541:CB:4892, H-B:TYR:484:OH:9319, V-B:GLY:453:CA:9015, V-B:GLY:453:C:9013, V-A:GLU:543:CB:4906, V-A:ASP:366:CG:3213, V-A:PRO:540:CB:4885, H-A:ALA:541:N:4891, V-A:ASN:362:CB:3176, V-A:LEU:363:CA:3185, V-A:LEU:363:CB:3187, V-A:ASN:362:C:3172, V-A:ASN:362:CA:3174"]

$$$$
3bg_Grossjean_2025
     RDKit          3D

 27 29  0  0  0  0  0  0  0  0999 V2000
  126.7450  136.0810   61.9550 C   0  0  0  0  0  0  0  0  0  0  0  0
  126.7340  134.7130   61.2760 C   0  0  0  0  0  0  0  0  0  0  0  0
  127.9600  134.0900   61.0230 C   0  0  0  0  0  0  0  0  0  0  0  0
  127.9940  132.8310   60.4090 C   0  0  0  0  0  0  0  0  0  0  0  0
  129.2770  132.1020   60.1190 C   0  0  0  0  0  0  0  0  0  0  0  0
  129.7430  131.9520   58.8020 C   0  0  0  0  0  0  0  0  0  0  0  0
  130.9390  131.2940   58.5310 C   0  0  0  0  0  0  0  0  0  0  0  0
  131.6910  130.7690   59.5770 C   0  0  0  0  0  0  0  0  0  0  0  0
  131.2490  130.8920   60.8890 C   0  0  0  0  0  0  0  0  0  0  0  0
  130.0520  131.5500   61.1550 C   0  0  0  0  0  0  0  0  0  0  0  0
  126.8410  132.1960   60.0710 N   0  0  0  0  0  0  0  0  0  0  0  0
  125.6420  132.7850   60.3130 C   0  0  0  0  0  0  0  0  0  0  0  0
  124.2040  131.8310   59.8530 S   0  0  0  0  0  0  0  0  0  0  0  0
  124.1220  130.3650   60.9320 C   0  0  0  0  0  0  0  0  0  0  0  0
  124.5690  130.6840   62.3620 C   0  0  0  0  0  0  0  0  0  0  0  0
  123.7370  130.7410   63.2670 O   0  0  0  0  0  0  0  0  0  0  0  0
  125.8820  130.9120   62.5410 N   0  0  0  0  0  0  0  0  0  0  0  0
  126.4980  131.4070   63.7720 C   0  0  0  0  0  0  0  0  0  0  0  0
  126.7240  130.2890   64.7820 C   0  0  0  0  0  0  0  0  0  0  0  0
  125.6300  129.6110   65.3330 C   0  0  0  0  0  0  0  0  0  0  0  0
  125.8360  128.5970   66.2630 C   0  0  0  0  0  0  0  0  0  0  0  0
  127.1350  128.2520   66.6310 C   0  0  0  0  0  0  0  0  0  0  0  0
  128.2300  128.9070   66.0720 C   0  0  0  0  0  0  0  0  0  0  0  0
  128.0230  129.9240   65.1420 C   0  0  0  0  0  0  0  0  0  0  0  0
  125.5390  134.0580   60.9110 C   0  0  0  0  0  0  0  0  0  0  0  0
  124.2390  134.6820   61.1710 C   0  0  0  0  0  0  0  0  0  0  0  0
  123.2130  135.1750   61.3770 N   0  0  0  0  0  0  0  0  0  0  0  0
  1  2  1  0
  2  3  2  0
  3  4  1  0
  4  5  1  0
  5  6  2  0
  6  7  1  0
  7  8  2  0
  8  9  1  0
  9 10  2  0
  4 11  2  0
 11 12  1  0
 12 13  1  0
 13 14  1  0
 14 15  1  0
 15 16  2  0
 15 17  1  0
 17 18  1  0
 18 19  1  0
 19 20  2  0
 20 21  1  0
 21 22  2  0
 22 23  1  0
 23 24  2  0
 12 25  2  0
 25 26  1  0
 26 27  3  0
 25  2  1  0
 10  5  1  0
 24 19  1  0
M  END
>  <Binding energies>  (21) 
[-7.56]

>  <Ligand effiencies>  (21) 
[-0.26999999999999996]

>  <Interactions>  (21) 
["V-B:ARG:545:CG:9894, V-B:HIS:456:CE1:9040, V-A:GLU:543:CD:4908, V-B:TRP:381:CH2:8343, H-B:GLY:454:N:9021, V-A:PRO:540:N:4884, V-A:TYR:539:C:4867, V-B:ASP:366:CG:8184, V-B:PRO:482:CG:9298, V-B:LEU:475:CD1:9229, V-B:PRO:482:CB:9297, V-A:PRO:540:CA:4883, V-A:TYR:539:CE2:4876, V-A:ALA:541:CB:4892, V-B:ILE:369:CG2:8208, H-B:ARG:545:NH2:9900, V-A:TYR:539:CD2:4874, V-A:GLU:543:CB:4906, V-A:PRO:540:CB:4885, V-B:TRP:381:CZ2:8341"]

$$$$
3ca_Grossjean_2025
     RDKit          3D

 31 33  0  0  0  0  0  0  0  0999 V2000
  133.2860  126.5380   74.4730 C   0  0  0  0  0  0  0  0  0  0  0  0
  131.9800  125.7580   74.6500 C   0  0  0  0  0  0  0  0  0  0  0  0
  130.8760  126.6230   74.4150 O   0  0  0  0  0  0  0  0  0  0  0  0
  129.6700  126.1330   74.0330 C   0  0  0  0  0  0  0  0  0  0  0  0
  128.7630  125.8620   74.8270 O   0  0  0  0  0  0  0  0  0  0  0  0
  129.5430  125.9580   72.5470 C   0  0  0  0  0  0  0  0  0  0  0  0
  129.0670  127.0220   71.7710 C   0  0  0  0  0  0  0  0  0  0  0  0
  128.9380  126.8900   70.3910 C   0  0  0  0  0  0  0  0  0  0  0  0
  129.2750  125.6910   69.7600 C   0  0  0  0  0  0  0  0  0  0  0  0
  129.1090  125.6660   68.3620 N   0  0  0  0  0  0  0  0  0  0  0  0
  129.0290  126.6900   67.4850 C   0  0  0  0  0  0  0  0  0  0  0  0
  129.1110  127.8830   67.7740 O   0  0  0  0  0  0  0  0  0  0  0  0
  128.8410  126.2830   66.0200 C   0  0  0  0  0  0  0  0  0  0  0  0
  129.4160  124.5890   65.6660 S   0  0  0  0  0  0  0  0  0  0  0  0
  130.9950  124.6460   64.8300 C   0  0  0  0  0  0  0  0  0  0  0  0
  132.0720  124.8760   65.6220 N   0  0  0  0  0  0  0  0  0  0  0  0
  133.3000  124.9120   65.0610 C   0  0  0  0  0  0  0  0  0  0  0  0
  134.4530  125.1560   66.0150 C   0  0  0  0  0  0  0  0  0  0  0  0
  133.5050  124.7370   63.6950 C   0  0  0  0  0  0  0  0  0  0  0  0
  132.4080  124.5160   62.8520 C   0  0  0  0  0  0  0  0  0  0  0  0
  132.6750  124.3470   61.3920 C   0  0  0  0  0  0  0  0  0  0  0  0
  133.6000  123.3920   60.9520 C   0  0  0  0  0  0  0  0  0  0  0  0
  133.8620  123.2340   59.5940 C   0  0  0  0  0  0  0  0  0  0  0  0
  133.2000  124.0360   58.6670 C   0  0  0  0  0  0  0  0  0  0  0  0
  132.2820  124.9940   59.0880 C   0  0  0  0  0  0  0  0  0  0  0  0
  132.0230  125.1500   60.4480 C   0  0  0  0  0  0  0  0  0  0  0  0
  131.1140  124.4590   63.4320 C   0  0  0  0  0  0  0  0  0  0  0  0
  129.9340  124.1790   62.6080 C   0  0  0  0  0  0  0  0  0  0  0  0
  129.0020  123.9580   61.9560 N   0  0  0  0  0  0  0  0  0  0  0  0
  129.7610  124.6230   70.5290 C   0  0  0  0  0  0  0  0  0  0  0  0
  129.8910  124.7570   71.9090 C   0  0  0  0  0  0  0  0  0  0  0  0
  1  2  1  0
  2  3  1  0
  3  4  1  0
  4  5  2  0
  4  6  1  0
  6  7  2  0
  7  8  1  0
  8  9  2  0
  9 10  1  0
 10 11  1  0
 11 12  2  0
 11 13  1  0
 13 14  1  0
 14 15  1  0
 15 16  2  0
 16 17  1  0
 17 18  1  0
 17 19  2  0
 19 20  1  0
 20 21  1  0
 21 22  2  0
 22 23  1  0
 23 24  2  0
 24 25  1  0
 25 26  2  0
 20 27  2  0
 27 28  1  0
 28 29  3  0
  9 30  1  0
 30 31  2  0
 31  6  1  0
 27 15  1  0
 26 21  1  0
M  END
>  <Binding energies>  (22) 
[-8.18]

>  <Ligand effiencies>  (22) 
[-0.255625]

>  <Interactions>  (22) 
["V-A:HIS:456:CD2:4068, V-B:GLU:543:CD:9880, H-B:LYS:547:NZ:9923, V-B:GLU:543:C:9874, H-A:LYS:547:NZ:4951, V-B:GLU:543:CB:9878, V-A:HIS:456:CE1:4069, V-B:HIS:456:CE1:9040, V-B:GLU:543:CG:9879, V-A:TYR:484:CZ:4347, V-A:TYR:484:CE1:4345, V-A:ARG:545:CZ:4926, V-A:GLY:453:CA:4044, H-A:TYR:484:OH:4348, V-A:GLY:453:C:4042, V-A:ASP:366:CB:3212, V-A:ASP:366:CG:3213, V-B:TYR:539:CE2:9848, V-A:ARG:545:CD:4923, V-A:ILE:369:CB:3236, V-A:ILE:369:CG2:3237, V-A:ASP:366:CA:3210, V-A:ILE:369:CD1:3239, V-A:ARG:545:CG:4922, V-A:HIS:456:CG:4066, V-A:HIS:456:CB:4065, V-A:LYS:547:CE:4950, H-B:GLU:543:O:9875, V-A:LYS:547:CD:4949"]

$$$$
3ce_Grossjean_2025
     RDKit          3D

 27 29  0  0  0  0  0  0  0  0999 V2000
  123.0800  133.6630   62.4950 C   0  0  0  0  0  0  0  0  0  0  0  0
  123.6720  132.2840   62.2760 C   0  0  0  0  0  0  0  0  0  0  0  0
  123.7370  131.7100   61.0030 C   0  0  0  0  0  0  0  0  0  0  0  0
  124.3040  130.4420   60.8750 C   0  0  0  0  0  0  0  0  0  0  0  0
  124.7880  129.7850   62.0090 C   0  0  0  0  0  0  0  0  0  0  0  0
  124.6820  130.4130   63.2550 C   0  0  0  0  0  0  0  0  0  0  0  0
  125.2020  129.7130   64.3570 N   0  0  0  0  0  0  0  0  0  0  0  0
  124.7030  129.6380   65.6110 C   0  0  0  0  0  0  0  0  0  0  0  0
  123.6700  130.1890   65.9940 O   0  0  0  0  0  0  0  0  0  0  0  0
  125.5070  128.7880   66.5950 C   0  0  0  0  0  0  0  0  0  0  0  0
  127.2780  129.1920   66.5520 S   0  0  0  0  0  0  0  0  0  0  0  0
  128.1240  127.7080   67.0440 C   0  0  0  0  0  0  0  0  0  0  0  0
  128.0350  127.4370   68.3690 N   0  0  0  0  0  0  0  0  0  0  0  0
  128.6320  126.3180   68.8420 C   0  0  0  0  0  0  0  0  0  0  0  0
  128.4820  126.0680   70.3300 C   0  0  0  0  0  0  0  0  0  0  0  0
  129.3440  125.4460   68.0230 C   0  0  0  0  0  0  0  0  0  0  0  0
  129.4700  125.7230   66.6560 C   0  0  0  0  0  0  0  0  0  0  0  0
  130.2650  124.7710   65.8230 C   0  0  0  0  0  0  0  0  0  0  0  0
  131.5460  125.1240   65.3810 C   0  0  0  0  0  0  0  0  0  0  0  0
  132.2910  124.2450   64.6000 C   0  0  0  0  0  0  0  0  0  0  0  0
  131.7540  123.0090   64.2500 C   0  0  0  0  0  0  0  0  0  0  0  0
  130.4770  122.6470   64.6730 C   0  0  0  0  0  0  0  0  0  0  0  0
  129.7360  123.5280   65.4550 C   0  0  0  0  0  0  0  0  0  0  0  0
  128.8400  126.8850   66.1430 C   0  0  0  0  0  0  0  0  0  0  0  0
  128.9240  127.2190   64.7170 C   0  0  0  0  0  0  0  0  0  0  0  0
  128.9910  127.4820   63.5930 N   0  0  0  0  0  0  0  0  0  0  0  0
  124.1350  131.6570   63.3870 N   0  0  0  0  0  0  0  0  0  0  0  0
  1  2  1  0
  2  3  2  0
  3  4  1  0
  4  5  2  0
  5  6  1  0
  6  7  1  0
  7  8  1  0
  8  9  2  0
  8 10  1  0
 10 11  1  0
 11 12  1  0
 12 13  2  0
 13 14  1  0
 14 15  1  0
 14 16  2  0
 16 17  1  0
 17 18  1  0
 18 19  2  0
 19 20  1  0
 20 21  2  0
 21 22  1  0
 22 23  2  0
 17 24  2  0
 24 25  1  0
 25 26  3  0
  6 27  2  0
 27  2  1  0
 24 12  1  0
 23 18  1  0
M  END
>  <Binding energies>  (23) 
[-8.17]

>  <Ligand effiencies>  (23) 
[-0.29178571428571426]

>  <Interactions>  (23) 
["V-B:ARG:545:CG:9894, V-B:GLU:543:CD:9880, V-B:GLU:543:C:9874, V-B:GLU:543:CB:9878, V-A:HIS:456:CE1:4069, V-B:ARG:545:CZ:9898, V-B:ARG:545:CD:9895, V-B:HIS:456:CE1:9040, V-B:GLU:543:CG:9879, V-A:GLU:543:CD:4908, H-B:GLY:454:N:9021, V-B:GLY:454:CA:9020, V-B:ASP:366:CG:8184, V-B:LEU:475:CD1:9229, V-B:ILE:369:CD1:8210, H-B:ILE:455:N:9026, H-B:TYR:484:OH:9319, V-B:ILE:369:CG2:8208, V-B:GLU:543:CA:9876, H-B:ARG:545:NE:9896, V-A:TYR:484:CZ:4347, V-A:LEU:475:CD1:4258, V-A:TYR:484:CE1:4345, H-B:GLU:543:OE1:9881"]

$$$$
3cj_Grossjean_2025
     RDKit          3D

 25 27  0  0  0  0  0  0  0  0999 V2000
  128.5730  126.0120   70.3290 C   0  0  0  0  0  0  0  0  0  0  0  0
  128.6970  126.2960   68.8450 C   0  0  0  0  0  0  0  0  0  0  0  0
  129.3660  125.4240   67.9900 C   0  0  0  0  0  0  0  0  0  0  0  0
  129.4370  125.7150   66.6200 C   0  0  0  0  0  0  0  0  0  0  0  0
  130.1060  124.7200   65.7320 C   0  0  0  0  0  0  0  0  0  0  0  0
  129.5060  123.4820   65.4720 C   0  0  0  0  0  0  0  0  0  0  0  0
  130.1380  122.5500   64.6530 C   0  0  0  0  0  0  0  0  0  0  0  0
  131.3770  122.8510   64.0960 C   0  0  0  0  0  0  0  0  0  0  0  0
  131.9910  124.0730   64.3530 C   0  0  0  0  0  0  0  0  0  0  0  0
  131.3580  125.0050   65.1720 C   0  0  0  0  0  0  0  0  0  0  0  0
  128.8490  126.9170   66.1560 C   0  0  0  0  0  0  0  0  0  0  0  0
  128.9150  127.2910   64.7390 C   0  0  0  0  0  0  0  0  0  0  0  0
  128.9670  127.5860   63.6210 N   0  0  0  0  0  0  0  0  0  0  0  0
  128.1870  127.7410   67.0930 C   0  0  0  0  0  0  0  0  0  0  0  0
  127.2930  129.2070   66.6230 S   0  0  0  0  0  0  0  0  0  0  0  0
  125.5420  128.8020   66.9220 C   0  0  0  0  0  0  0  0  0  0  0  0
  124.6130  129.5390   65.9520 C   0  0  0  0  0  0  0  0  0  0  0  0
  123.7210  130.2630   66.3980 O   0  0  0  0  0  0  0  0  0  0  0  0
  124.8810  129.3550   64.6410 N   0  0  0  0  0  0  0  0  0  0  0  0
  124.2820  130.0050   63.5750 C   0  0  0  0  0  0  0  0  0  0  0  0
  123.0000  130.0780   63.2890 N   0  0  0  0  0  0  0  0  0  0  0  0
  122.7850  130.8080   62.2130 C   0  0  0  0  0  0  0  0  0  0  0  0
  123.9110  131.3480   61.5990 C   0  0  0  0  0  0  0  0  0  0  0  0
  125.3260  130.8640   62.4870 S   0  0  0  0  0  0  0  0  0  0  0  0
  128.1050  127.4310   68.4120 N   0  0  0  0  0  0  0  0  0  0  0  0
  1  2  1  0
  2  3  2  0
  3  4  1  0
  4  5  1  0
  5  6  2  0
  6  7  1  0
  7  8  2  0
  8  9  1  0
  9 10  2  0
  4 11  2  0
 11 12  1  0
 12 13  3  0
 11 14  1  0
 14 15  1  0
 15 16  1  0
 16 17  1  0
 17 18  2  0
 17 19  1  0
 19 20  1  0
 20 21  2  0
 21 22  1  0
 22 23  2  0
 23 24  1  0
 14 25  2  0
 25  2  1  0
 10  5  1  0
 24 20  1  0
M  END
>  <Binding energies>  (24) 
[-7.96]

>  <Ligand effiencies>  (24) 
[-0.30615384615384617]

>  <Interactions>  (24) 
["V-B:ARG:545:CG:9894, V-B:GLU:543:CD:9880, V-B:GLU:543:C:9874, V-B:GLU:543:CB:9878, V-A:HIS:456:CE1:4069, V-B:ARG:545:CZ:9898, V-B:ARG:545:CD:9895, V-B:HIS:456:CE1:9040, V-B:GLU:543:CG:9879, V-A:GLU:543:CD:4908, H-B:GLY:454:N:9021, V-B:ASP:366:CG:8184, V-B:ILE:369:CD1:8210, H-B:ARG:545:NH1:9899, H-B:ILE:455:N:9026, H-B:TYR:484:OH:9319, H-B:ARG:545:NH2:9900, V-B:GLY:453:CA:9015, V-B:GLY:453:C:9013, V-B:ALA:541:CB:9864, V-B:GLU:543:CA:9876, V-A:TYR:484:CZ:4347, V-A:LEU:475:CD1:4258, V-A:TYR:484:CE1:4345, H-B:GLU:543:OE1:9881"]

$$$$
4ba_Grossjean_2025
     RDKit          3D

 28 30  0  0  0  0  0  0  0  0999 V2000
  125.3270  127.0530   73.7680 C   0  0  0  0  0  0  0  0  0  0  0  0
  126.4860  127.4400   72.8290 C   0  0  0  0  0  0  0  0  0  0  0  0
  127.6570  126.4370   72.7870 C   0  0  0  0  0  0  0  0  0  0  0  0
  128.0560  125.9250   73.8360 O   0  0  0  0  0  0  0  0  0  0  0  0
  128.2600  126.1240   71.4480 C   0  0  0  0  0  0  0  0  0  0  0  0
  129.1730  125.0690   71.3350 C   0  0  0  0  0  0  0  0  0  0  0  0
  129.7480  124.7580   70.1060 C   0  0  0  0  0  0  0  0  0  0  0  0
  129.4210  125.4920   68.9660 C   0  0  0  0  0  0  0  0  0  0  0  0
  130.0670  125.0980   67.7780 N   0  0  0  0  0  0  0  0  0  0  0  0
  129.6980  125.2730   66.4850 C   0  0  0  0  0  0  0  0  0  0  0  0
  128.6450  125.8060   66.1330 O   0  0  0  0  0  0  0  0  0  0  0  0
  130.6400  124.7550   65.4910 C   0  0  0  0  0  0  0  0  0  0  0  0
  132.2600  125.4370   65.3650 S   0  0  0  0  0  0  0  0  0  0  0  0
  132.6510  124.3820   64.0280 C   0  0  0  0  0  0  0  0  0  0  0  0
  133.8440  124.4230   63.4370 N   0  0  0  0  0  0  0  0  0  0  0  0
  134.0300  123.5600   62.4120 C   0  0  0  0  0  0  0  0  0  0  0  0
  135.3930  123.6300   61.7470 C   0  0  0  0  0  0  0  0  0  0  0  0
  133.0610  122.6620   61.9720 C   0  0  0  0  0  0  0  0  0  0  0  0
  131.8020  122.6130   62.5910 C   0  0  0  0  0  0  0  0  0  0  0  0
  130.7700  121.6060   62.0730 C   0  0  0  0  0  0  0  0  0  0  0  0
  129.6920  122.1890   61.5430 F   0  0  0  0  0  0  0  0  0  0  0  0
  131.3170  120.8430   61.1260 F   0  0  0  0  0  0  0  0  0  0  0  0
  130.3530  120.8320   63.0760 F   0  0  0  0  0  0  0  0  0  0  0  0
  131.5720  123.5160   63.6720 C   0  0  0  0  0  0  0  0  0  0  0  0
  130.4320  123.7600   64.5220 C   0  0  0  0  0  0  0  0  0  0  0  0
  129.2510  123.0740   64.3900 N   0  0  0  0  0  0  0  0  0  0  0  0
  128.5110  126.5550   69.0720 C   0  0  0  0  0  0  0  0  0  0  0  0
  127.9370  126.8650   70.3020 C   0  0  0  0  0  0  0  0  0  0  0  0
  1  2  1  0
  2  3  1  0
  3  4  2  0
  3  5  1  0
  5  6  2  0
  6  7  1  0
  7  8  2  0
  8  9  1  0
  9 10  1  0
 10 11  2  0
 10 12  1  0
 12 13  1  0
 13 14  1  0
 14 15  2  0
 15 16  1  0
 16 17  1  0
 16 18  2  0
 18 19  1  0
 19 20  1  0
 20 21  1  0
 20 22  1  0
 20 23  1  0
 19 24  2  0
 24 25  1  0
 25 26  1  0
  8 27  1  0
 27 28  2  0
 28  5  1  0
 25 12  2  0
 24 14  1  0
M  END
>  <Binding energies>  (25) 
[-7.46]

>  <Ligand effiencies>  (25) 
[-0.24064516129032257]

>  <Interactions>  (25) 
["V-A:HIS:456:CD2:4068, H-B:LYS:547:NZ:9923, V-B:GLU:543:C:9874, V-B:HIS:456:CD2:9039, V-B:GLU:543:CB:9878, V-A:HIS:456:CE1:4069, V-B:HIS:456:CE1:9040, V-B:GLU:543:CG:9879, V-B:ALA:541:CB:9864, V-B:GLU:543:CA:9876, V-A:TYR:484:CZ:4347, V-A:LEU:475:CD1:4258, V-A:TYR:484:CE1:4345, H-A:GLY:454:N:4050, V-A:GLY:453:CA:4044, H-A:ARG:545:NH2:4928, H-A:TYR:484:OH:4348, V-A:GLY:453:C:4042, V-A:GLY:454:CA:4049, V-A:ILE:369:CD1:3239, V-B:TYR:539:CD2:9846, V-B:GLY:544:C:9884, V-A:LEU:475:CD2:4259, V-A:HIS:456:CG:4066, V-B:HIS:456:CB:9036, V-B:LYS:547:CD:9921, V-B:HIS:456:CG:9037, H-A:HIS:456:ND1:4067"]

$$$$
4bb_Grossjean_2025
     RDKit          3D

 27 29  0  0  0  0  0  0  0  0999 V2000
  128.2020  128.1970   73.2570 C   0  0  0  0  0  0  0  0  0  0  0  0
  128.3520  126.6960   72.9960 C   0  0  0  0  0  0  0  0  0  0  0  0
  128.1830  125.9230   73.9410 O   0  0  0  0  0  0  0  0  0  0  0  0
  128.7060  126.2480   71.6100 C   0  0  0  0  0  0  0  0  0  0  0  0
  129.4190  125.0550   71.4350 C   0  0  0  0  0  0  0  0  0  0  0  0
  129.7620  124.6160   70.1590 C   0  0  0  0  0  0  0  0  0  0  0  0
  129.3920  125.3560   69.0340 C   0  0  0  0  0  0  0  0  0  0  0  0
  129.7920  124.8230   67.7930 N   0  0  0  0  0  0  0  0  0  0  0  0
  129.3540  125.1050   66.5420 C   0  0  0  0  0  0  0  0  0  0  0  0
  128.4570  125.9090   66.2880 O   0  0  0  0  0  0  0  0  0  0  0  0
  130.0080  124.3530   65.4670 C   0  0  0  0  0  0  0  0  0  0  0  0
  129.3620  122.7970   64.9530 S   0  0  0  0  0  0  0  0  0  0  0  0
  130.6450  122.5970   63.7830 C   0  0  0  0  0  0  0  0  0  0  0  0
  130.7130  121.5200   63.0030 N   0  0  0  0  0  0  0  0  0  0  0  0
  131.7520  121.4780   62.1370 C   0  0  0  0  0  0  0  0  0  0  0  0
  131.8110  120.2420   61.2570 C   0  0  0  0  0  0  0  0  0  0  0  0
  132.7150  122.4780   62.0350 C   0  0  0  0  0  0  0  0  0  0  0  0
  132.6480  123.6150   62.8530 C   0  0  0  0  0  0  0  0  0  0  0  0
  133.7310  124.6900   62.7040 C   0  0  0  0  0  0  0  0  0  0  0  0
  134.2570  125.0670   63.8720 F   0  0  0  0  0  0  0  0  0  0  0  0
  134.7270  124.2240   61.9490 F   0  0  0  0  0  0  0  0  0  0  0  0
  133.2140  125.7750   62.1290 F   0  0  0  0  0  0  0  0  0  0  0  0
  131.5640  123.6920   63.7790 C   0  0  0  0  0  0  0  0  0  0  0  0
  131.1760  124.6770   64.7560 C   0  0  0  0  0  0  0  0  0  0  0  0
  131.8840  125.8330   64.9640 N   0  0  0  0  0  0  0  0  0  0  0  0
  128.6840  126.5560   69.2030 C   0  0  0  0  0  0  0  0  0  0  0  0
  128.3440  126.9940   70.4800 C   0  0  0  0  0  0  0  0  0  0  0  0
  1  2  1  0
  2  3  2  0
  2  4  1  0
  4  5  2  0
  5  6  1  0
  6  7  2  0
  7  8  1  0
  8  9  1  0
  9 10  2  0
  9 11  1  0
 11 12  1  0
 12 13  1  0
 13 14  2  0
 14 15  1  0
 15 16  1  0
 15 17  2  0
 17 18  1  0
 18 19  1  0
 19 20  1  0
 19 21  1  0
 19 22  1  0
 18 23  2  0
 23 24  1  0
 24 25  1  0
  7 26  1  0
 26 27  2  0
 27  4  1  0
 24 11  2  0
 23 13  1  0
M  END
>  <Binding energies>  (26) 
[-7.31]

>  <Ligand effiencies>  (26) 
[-0.24366666666666664]

>  <Interactions>  (26) 
["V-A:HIS:456:CD2:4068, H-B:LYS:547:NZ:9923, V-B:GLU:543:C:9874, V-B:HIS:456:CD2:9039, V-B:GLU:543:CB:9878, V-A:HIS:456:CE1:4069, V-B:HIS:456:CE1:9040, V-B:GLU:543:CG:9879, H-A:GLU:543:OE2:4910, V-A:GLU:543:CD:4908, V-B:ALA:541:CB:9864, V-B:GLU:543:CA:9876, V-A:TYR:484:CZ:4347, V-A:LEU:475:CD1:4258, V-A:TYR:484:CE1:4345, V-A:ARG:545:CZ:4926, V-A:GLY:453:CA:4044, H-A:TYR:484:OH:4348, V-A:GLY:453:C:4042, V-A:ASP:366:CG:3213, V-A:ILE:369:CD1:3239, V-A:HIS:456:CG:4066, V-B:HIS:456:CG:9037, H-B:GLU:543:O:9875, H-A:HIS:456:ND1:4067"]

$$$$
4bd_Grossjean_2025
     RDKit          3D

 24 26  0  0  0  0  0  0  0  0999 V2000
  127.8190  130.4640   65.1170 C   0  0  0  0  0  0  0  0  0  0  0  0
  128.2420  129.0470   65.4560 C   0  0  0  0  0  0  0  0  0  0  0  0
  128.2930  128.6090   66.7760 C   0  0  0  0  0  0  0  0  0  0  0  0
  128.6890  127.2960   67.0760 C   0  0  0  0  0  0  0  0  0  0  0  0
  128.7330  126.8600   68.5440 C   0  0  0  0  0  0  0  0  0  0  0  0
  129.7180  125.9970   68.8030 F   0  0  0  0  0  0  0  0  0  0  0  0
  128.9190  127.9240   69.3250 F   0  0  0  0  0  0  0  0  0  0  0  0
  127.5860  126.2660   68.8730 F   0  0  0  0  0  0  0  0  0  0  0  0
  129.0260  126.4490   65.9780 C   0  0  0  0  0  0  0  0  0  0  0  0
  129.4640  125.0770   65.8940 C   0  0  0  0  0  0  0  0  0  0  0  0
  129.6340  124.2870   67.0010 N   0  0  0  0  0  0  0  0  0  0  0  0
  129.6990  124.6290   64.5830 C   0  0  0  0  0  0  0  0  0  0  0  0
  130.1630  123.3110   64.1390 C   0  0  0  0  0  0  0  0  0  0  0  0
  130.4980  122.4540   64.9570 O   0  0  0  0  0  0  0  0  0  0  0  0
  130.1780  123.1230   62.7960 N   0  0  0  0  0  0  0  0  0  0  0  0
  130.6010  122.0050   62.0540 C   0  0  0  0  0  0  0  0  0  0  0  0
  131.9730  121.9240   61.7960 C   0  0  0  0  0  0  0  0  0  0  0  0
  132.4910  120.8500   61.0780 C   0  0  0  0  0  0  0  0  0  0  0  0
  131.6380  119.8480   60.6230 C   0  0  0  0  0  0  0  0  0  0  0  0
  130.2720  119.9090   60.8850 C   0  0  0  0  0  0  0  0  0  0  0  0
  129.7490  120.9820   61.6020 C   0  0  0  0  0  0  0  0  0  0  0  0
  129.3760  125.9000   63.4070 S   0  0  0  0  0  0  0  0  0  0  0  0
  128.9330  127.0220   64.6720 C   0  0  0  0  0  0  0  0  0  0  0  0
  128.5560  128.2690   64.3940 N   0  0  0  0  0  0  0  0  0  0  0  0
  1  2  1  0
  2  3  2  0
  3  4  1  0
  4  5  1  0
  5  6  1  0
  5  7  1  0
  5  8  1  0
  4  9  2  0
  9 10  1  0
 10 11  1  0
 10 12  2  0
 12 13  1  0
 13 14  2  0
 13 15  1  0
 15 16  1  0
 16 17  2  0
 17 18  1  0
 18 19  2  0
 19 20  1  0
 20 21  2  0
 12 22  1  0
 22 23  1  0
 23 24  2  0
 24  2  1  0
 23  9  1  0
 21 16  1  0
M  END
>  <Binding energies>  (27) 
[-6.05]

>  <Ligand effiencies>  (27) 
[-0.22407407407407406]

>  <Interactions>  (27) 
["V-A:HIS:456:CD2:4068, V-B:GLU:543:CD:9880, V-B:GLU:543:C:9874, V-B:GLU:543:CB:9878, V-A:HIS:456:CE1:4069, V-B:HIS:456:CE1:9040, V-B:GLU:543:CG:9879, V-A:GLU:543:CD:4908, V-B:ALA:541:CB:9864, V-B:GLU:543:CA:9876, V-A:TYR:484:CZ:4347, V-A:LEU:475:CD1:4258, V-A:GLU:543:CB:4906, V-A:TYR:484:CE1:4345, H-A:TYR:484:OH:4348, V-B:TYR:539:CE2:9848, V-B:TYR:539:CD2:9846, V-A:PRO:482:CG:4327, V-A:TRP:381:CZ2:3370, V-A:TRP:381:CH2:3372, V-B:GLY:544:C:9884, H-B:GLU:543:O:9875"]

$$$$
4be_Grossjean_2025
     RDKit          3D

 25 27  0  0  0  0  0  0  0  0999 V2000
  128.1000  119.9160   72.8180 C   0  0  0  0  0  0  0  0  0  0  0  0
  129.1540  120.9940   72.6520 C   0  0  0  0  0  0  0  0  0  0  0  0
  130.3130  121.0080   73.4320 C   0  0  0  0  0  0  0  0  0  0  0  0
  131.2390  122.0320   73.2270 C   0  0  0  0  0  0  0  0  0  0  0  0
  130.9870  123.0060   72.2580 C   0  0  0  0  0  0  0  0  0  0  0  0
  129.8080  122.9290   71.5070 C   0  0  0  0  0  0  0  0  0  0  0  0
  129.6100  123.9430   70.5530 N   0  0  0  0  0  0  0  0  0  0  0  0
  129.4490  125.2760   70.7480 C   0  0  0  0  0  0  0  0  0  0  0  0
  129.4590  125.8130   71.8570 O   0  0  0  0  0  0  0  0  0  0  0  0
  129.2310  126.0670   69.5330 C   0  0  0  0  0  0  0  0  0  0  0  0
  128.6790  127.7370   69.6530 S   0  0  0  0  0  0  0  0  0  0  0  0
  128.6500  127.8990   67.9120 C   0  0  0  0  0  0  0  0  0  0  0  0
  128.2860  129.0380   67.3270 N   0  0  0  0  0  0  0  0  0  0  0  0
  128.3050  129.0430   65.9730 C   0  0  0  0  0  0  0  0  0  0  0  0
  127.8840  130.3500   65.3250 C   0  0  0  0  0  0  0  0  0  0  0  0
  128.6780  127.9470   65.2010 C   0  0  0  0  0  0  0  0  0  0  0  0
  129.0640  126.7440   65.8120 C   0  0  0  0  0  0  0  0  0  0  0  0
  129.4700  125.5660   64.9200 C   0  0  0  0  0  0  0  0  0  0  0  0
  128.9910  124.3960   65.3510 F   0  0  0  0  0  0  0  0  0  0  0  0
  129.0060  125.7540   63.6850 F   0  0  0  0  0  0  0  0  0  0  0  0
  130.7980  125.4650   64.8820 F   0  0  0  0  0  0  0  0  0  0  0  0
  129.0500  126.7030   67.2380 C   0  0  0  0  0  0  0  0  0  0  0  0
  129.3660  125.6700   68.1940 C   0  0  0  0  0  0  0  0  0  0  0  0
  129.7700  124.4140   67.8210 N   0  0  0  0  0  0  0  0  0  0  0  0
  128.8950  121.9330   71.7060 N   0  0  0  0  0  0  0  0  0  0  0  0
  1  2  1  0
  2  3  2  0
  3  4  1  0
  4  5  2  0
  5  6  1  0
  6  7  1  0
  7  8  1  0
  8  9  2  0
  8 10  1  0
 10 11  1  0
 11 12  1  0
 12 13  2  0
 13 14  1  0
 14 15  1  0
 14 16  2  0
 16 17  1  0
 17 18  1  0
 18 19  1  0
 18 20  1  0
 18 21  1  0
 17 22  2  0
 22 23  1  0
 23 24  1  0
  6 25  2  0
 25  2  1  0
 23 10  2  0
 22 12  1  0
M  END
>  <Binding energies>  (28) 
[-7.11]

>  <Ligand effiencies>  (28) 
[-0.25392857142857145]

>  <Interactions>  (28) 
["H-B:HIS:456:NE2:9041, V-A:HIS:456:CD2:4068, V-B:GLU:543:CD:9880, H-B:LYS:547:NZ:9923, V-B:GLU:543:C:9874, V-B:GLU:543:CB:9878, V-A:HIS:456:CE1:4069, H-A:HIS:456:NE2:4070, V-B:HIS:456:CE1:9040, V-B:GLU:543:CG:9879, V-A:GLU:543:CD:4908, V-B:GLU:543:CA:9876, V-A:TYR:484:CZ:4347, V-A:GLU:543:CB:4906, V-A:TYR:484:CE1:4345, H-A:TYR:484:OH:4348, V-A:HIS:456:CG:4066, V-A:TYR:484:CD2:4344, V-A:TYR:484:CE2:4346, V-A:TYR:484:CD1:4343, V-A:HIS:456:CB:4065, V-A:TYR:484:CG:4342, H-B:GLU:543:O:9875, V-B:LYS:547:CE:9922, V-A:ASP:473:CG:4240, H-A:HIS:456:ND1:4067, V-A:ASP:473:CB:4239, V-A:TYR:484:CB:4341"]

$$$$
4bg_Grossjean_2025
     RDKit          3D

 25 27  0  0  0  0  0  0  0  0999 V2000
  128.3040  127.6830   61.8800 C   0  0  0  0  0  0  0  0  0  0  0  0
  128.6220  127.0740   63.2330 C   0  0  0  0  0  0  0  0  0  0  0  0
  129.0900  125.7670   63.3390 C   0  0  0  0  0  0  0  0  0  0  0  0
  129.3760  125.2140   64.5980 C   0  0  0  0  0  0  0  0  0  0  0  0
  129.8880  123.7710   64.6650 C   0  0  0  0  0  0  0  0  0  0  0  0
  129.1900  123.0080   65.5090 F   0  0  0  0  0  0  0  0  0  0  0  0
  129.8090  123.2090   63.4590 F   0  0  0  0  0  0  0  0  0  0  0  0
  131.1560  123.7600   65.0740 F   0  0  0  0  0  0  0  0  0  0  0  0
  129.1670  126.0460   65.7380 C   0  0  0  0  0  0  0  0  0  0  0  0
  129.3390  125.8310   67.1540 C   0  0  0  0  0  0  0  0  0  0  0  0
  129.7720  124.6400   67.6780 N   0  0  0  0  0  0  0  0  0  0  0  0
  129.0310  126.9500   67.9430 C   0  0  0  0  0  0  0  0  0  0  0  0
  129.0630  127.0750   69.4000 C   0  0  0  0  0  0  0  0  0  0  0  0
  129.4170  128.1200   69.9490 O   0  0  0  0  0  0  0  0  0  0  0  0
  128.6450  125.9960   70.0940 N   0  0  0  0  0  0  0  0  0  0  0  0
  128.6050  125.8880   71.5530 C   0  0  0  0  0  0  0  0  0  0  0  0
  129.6500  124.9390   72.1230 C   0  0  0  0  0  0  0  0  0  0  0  0
  129.9240  123.7280   71.4790 C   0  0  0  0  0  0  0  0  0  0  0  0
  130.9070  122.8800   71.9810 C   0  0  0  0  0  0  0  0  0  0  0  0
  131.6240  123.2500   73.1170 C   0  0  0  0  0  0  0  0  0  0  0  0
  131.3690  124.4630   73.7530 C   0  0  0  0  0  0  0  0  0  0  0  0
  130.3850  125.3110   73.2520 C   0  0  0  0  0  0  0  0  0  0  0  0
  128.4800  128.3000   66.9550 S   0  0  0  0  0  0  0  0  0  0  0  0
  128.6910  127.3700   65.4910 C   0  0  0  0  0  0  0  0  0  0  0  0
  128.4190  127.8890   64.2930 N   0  0  0  0  0  0  0  0  0  0  0  0
  1  2  1  0
  2  3  2  0
  3  4  1  0
  4  5  1  0
  5  6  1  0
  5  7  1  0
  5  8  1  0
  4  9  2  0
  9 10  1  0
 10 11  1  0
 10 12  2  0
 12 13  1  0
 13 14  2  0
 13 15  1  0
 15 16  1  0
 16 17  1  0
 17 18  2  0
 18 19  1  0
 19 20  2  0
 20 21  1  0
 21 22  2  0
 12 23  1  0
 23 24  1  0
 24 25  2  0
 25  2  1  0
 24  9  1  0
 22 17  1  0
M  END
>  <Binding energies>  (29) 
[-6.86]

>  <Ligand effiencies>  (29) 
[-0.24500000000000002]

>  <Interactions>  (29) 
["H-B:HIS:456:NE2:9041, V-A:HIS:456:CD2:4068, V-B:GLU:543:CD:9880, V-B:GLU:543:C:9874, V-B:GLU:543:CB:9878, V-A:HIS:456:CE1:4069, H-A:HIS:456:NE2:4070, V-B:HIS:456:CE1:9040, V-B:GLU:543:CG:9879, V-A:GLU:543:CD:4908, V-B:ALA:541:CB:9864, V-B:GLU:543:CA:9876, V-A:TYR:484:CZ:4347, V-A:GLU:543:CB:4906, V-A:TYR:484:CE1:4345, H-A:TYR:484:OH:4348, V-A:HIS:456:CG:4066, V-A:TYR:484:CD2:4344, V-A:TYR:484:CE2:4346, V-A:TYR:484:CD1:4343, V-A:HIS:456:CB:4065, V-A:TYR:484:CG:4342, H-B:GLU:543:O:9875, H-A:HIS:456:ND1:4067, V-A:ASP:473:CB:4239"]

$$$$
4ca_Grossjean_2025
     RDKit          3D

 34 37  0  0  0  0  0  0  0  0999 V2000
  133.7130  126.6200   74.4750 C   0  0  0  0  0  0  0  0  0  0  0  0
  132.4280  125.9210   74.9280 C   0  0  0  0  0  0  0  0  0  0  0  0
  131.3060  126.7240   74.5820 O   0  0  0  0  0  0  0  0  0  0  0  0
  130.1130  126.1610   74.2600 C   0  0  0  0  0  0  0  0  0  0  0  0
  129.4150  125.5380   75.0660 O   0  0  0  0  0  0  0  0  0  0  0  0
  129.7260  126.3750   72.8250 C   0  0  0  0  0  0  0  0  0  0  0  0
  129.7270  127.6750   72.3030 C   0  0  0  0  0  0  0  0  0  0  0  0
  129.3770  127.9040   70.9750 C   0  0  0  0  0  0  0  0  0  0  0  0
  129.0120  126.8440   70.1460 C   0  0  0  0  0  0  0  0  0  0  0  0
  128.6860  127.1880   68.8200 N   0  0  0  0  0  0  0  0  0  0  0  0
  129.3560  127.9590   67.9280 C   0  0  0  0  0  0  0  0  0  0  0  0
  130.4540  128.4720   68.1460 O   0  0  0  0  0  0  0  0  0  0  0  0
  128.6920  128.1410   66.6350 C   0  0  0  0  0  0  0  0  0  0  0  0
  127.3520  129.2750   66.4810 S   0  0  0  0  0  0  0  0  0  0  0  0
  127.2040  128.9360   64.7730 C   0  0  0  0  0  0  0  0  0  0  0  0
  126.2860  129.5400   64.0220 N   0  0  0  0  0  0  0  0  0  0  0  0
  126.2560  129.2240   62.7020 C   0  0  0  0  0  0  0  0  0  0  0  0
  125.2160  129.9300   61.8810 C   0  0  0  0  0  0  0  0  0  0  0  0
  124.0700  130.4730   62.4830 C   0  0  0  0  0  0  0  0  0  0  0  0
  123.0990  131.1240   61.7260 C   0  0  0  0  0  0  0  0  0  0  0  0
  123.2620  131.2420   60.3490 C   0  0  0  0  0  0  0  0  0  0  0  0
  124.3860  130.7110   59.7260 C   0  0  0  0  0  0  0  0  0  0  0  0
  125.3540  130.0610   60.4870 C   0  0  0  0  0  0  0  0  0  0  0  0
  127.1320  128.2850   62.1470 C   0  0  0  0  0  0  0  0  0  0  0  0
  128.1000  127.6390   62.9300 C   0  0  0  0  0  0  0  0  0  0  0  0
  129.0300  126.6230   62.2560 C   0  0  0  0  0  0  0  0  0  0  0  0
  130.3140  126.9850   62.2920 F   0  0  0  0  0  0  0  0  0  0  0  0
  128.9320  125.4440   62.8690 F   0  0  0  0  0  0  0  0  0  0  0  0
  128.6920  126.4830   60.9740 F   0  0  0  0  0  0  0  0  0  0  0  0
  128.1520  127.9760   64.3130 C   0  0  0  0  0  0  0  0  0  0  0  0
  128.9930  127.5400   65.4010 C   0  0  0  0  0  0  0  0  0  0  0  0
  129.9950  126.6180   65.2400 N   0  0  0  0  0  0  0  0  0  0  0  0
  129.0130  125.5380   70.6580 C   0  0  0  0  0  0  0  0  0  0  0  0
  129.3660  125.3100   71.9860 C   0  0  0  0  0  0  0  0  0  0  0  0
  1  2  1  0
  2  3  1  0
  3  4  1  0
  4  5  2  0
  4  6  1  0
  6  7  2  0
  7  8  1  0
  8  9  2  0
  9 10  1  0
 10 11  1  0
 11 12  2  0
 11 13  1  0
 13 14  1  0
 14 15  1  0
 15 16  2  0
 16 17  1  0
 17 18  1  0
 18 19  2  0
 19 20  1  0
 20 21  2  0
 21 22  1  0
 22 23  2  0
 17 24  2  0
 24 25  1  0
 25 26  1  0
 26 27  1  0
 26 28  1  0
 26 29  1  0
 25 30  2  0
 30 31  1  0
 31 32  1  0
  9 33  1  0
 33 34  2  0
 34  6  1  0
 31 13  2  0
 30 15  1  0
 23 18  1  0
M  END
>  <Binding energies>  (30) 
[-7.51]

>  <Ligand effiencies>  (30) 
[-0.20297297297297295]

>  <Interactions>  (30) 
["V-A:HIS:456:CD2:4068, V-B:GLU:543:CD:9880, H-B:LYS:547:NZ:9923, H-A:LYS:547:NZ:4951, V-B:HIS:456:CD2:9039, V-A:HIS:456:CE1:4069, V-B:ARG:545:CZ:9898, H-A:GLU:543:OE1:4909, H-A:HIS:456:NE2:4070, V-B:HIS:456:CE1:9040, V-B:GLU:543:CG:9879, H-A:GLU:543:OE2:4910, V-A:GLU:543:CG:4907, V-A:GLU:543:CD:4908, V-B:ILE:369:CB:8207, V-B:ASP:366:CG:8184, V-B:ASP:366:CA:8181, V-B:ASP:366:CB:8183, V-B:ILE:369:CD1:8210, V-B:ILE:369:CG2:8208, V-A:GLU:543:CB:4906, V-A:HIS:456:CG:4066, V-A:HIS:456:CB:4065, V-A:LYS:547:CE:4950, H-B:GLU:543:O:9875, V-A:VAL:458:CG2:4087, V-A:LYS:547:CD:4949"]

$$$$
4cb_Grossjean_2025
     RDKit          3D

 33 36  0  0  0  0  0  0  0  0999 V2000
  132.5190  126.2730   74.5100 C   0  0  0  0  0  0  0  0  0  0  0  0
  131.2490  126.9040   74.6000 O   0  0  0  0  0  0  0  0  0  0  0  0
  130.1150  126.2430   74.2550 C   0  0  0  0  0  0  0  0  0  0  0  0
  129.4680  125.5430   75.0410 O   0  0  0  0  0  0  0  0  0  0  0  0
  129.7210  126.4490   72.8200 C   0  0  0  0  0  0  0  0  0  0  0  0
  129.7220  127.7450   72.2890 C   0  0  0  0  0  0  0  0  0  0  0  0
  129.3700  127.9670   70.9610 C   0  0  0  0  0  0  0  0  0  0  0  0
  129.0040  126.9010   70.1390 C   0  0  0  0  0  0  0  0  0  0  0  0
  128.6810  127.2380   68.8100 N   0  0  0  0  0  0  0  0  0  0  0  0
  129.3620  127.9900   67.9100 C   0  0  0  0  0  0  0  0  0  0  0  0
  130.4670  128.4900   68.1220 O   0  0  0  0  0  0  0  0  0  0  0  0
  128.6980  128.1690   66.6160 C   0  0  0  0  0  0  0  0  0  0  0  0
  127.3840  129.3300   66.4460 S   0  0  0  0  0  0  0  0  0  0  0  0
  127.2230  128.9690   64.7430 C   0  0  0  0  0  0  0  0  0  0  0  0
  126.3180  129.5820   63.9850 N   0  0  0  0  0  0  0  0  0  0  0  0
  126.2750  129.2430   62.6700 C   0  0  0  0  0  0  0  0  0  0  0  0
  125.2470  129.9550   61.8400 C   0  0  0  0  0  0  0  0  0  0  0  0
  124.0840  130.4760   62.4290 C   0  0  0  0  0  0  0  0  0  0  0  0
  123.1240  131.1340   61.6640 C   0  0  0  0  0  0  0  0  0  0  0  0
  123.3150  131.2810   60.2940 C   0  0  0  0  0  0  0  0  0  0  0  0
  124.4570  130.7710   59.6840 C   0  0  0  0  0  0  0  0  0  0  0  0
  125.4130  130.1130   60.4530 C   0  0  0  0  0  0  0  0  0  0  0  0
  127.1280  128.2750   62.1290 C   0  0  0  0  0  0  0  0  0  0  0  0
  128.0850  127.6210   62.9210 C   0  0  0  0  0  0  0  0  0  0  0  0
  128.9890  126.5710   62.2630 C   0  0  0  0  0  0  0  0  0  0  0  0
  128.9200  125.3770   62.8550 F   0  0  0  0  0  0  0  0  0  0  0  0
  128.6340  126.4060   60.9890 F   0  0  0  0  0  0  0  0  0  0  0  0
  130.2590  126.9710   62.3180 F   0  0  0  0  0  0  0  0  0  0  0  0
  128.1490  127.9810   64.2980 C   0  0  0  0  0  0  0  0  0  0  0  0
  128.9840  127.5440   65.3900 C   0  0  0  0  0  0  0  0  0  0  0  0
  129.9680  126.6010   65.2400 N   0  0  0  0  0  0  0  0  0  0  0  0
  129.0030  125.5990   70.6610 C   0  0  0  0  0  0  0  0  0  0  0  0
  129.3570  125.3790   71.9890 C   0  0  0  0  0  0  0  0  0  0  0  0
  1  2  1  0
  2  3  1  0
  3  4  2  0
  3  5  1  0
  5  6  2  0
  6  7  1  0
  7  8  2  0
  8  9  1  0
  9 10  1  0
 10 11  2  0
 10 12  1  0
 12 13  1  0
 13 14  1  0
 14 15  2  0
 15 16  1  0
 16 17  1  0
 17 18  2  0
 18 19  1  0
 19 20  2  0
 20 21  1  0
 21 22  2  0
 16 23  2  0
 23 24  1  0
 24 25  1  0
 25 26  1  0
 25 27  1  0
 25 28  1  0
 24 29  2  0
 29 30  1  0
 30 31  1  0
  8 32  1  0
 32 33  2  0
 33  5  1  0
 30 12  2  0
 29 14  1  0
 22 17  1  0
M  END
>  <Binding energies>  (31) 
[-7.29]

>  <Ligand effiencies>  (31) 
[-0.2025]

>  <Interactions>  (31) 
["V-A:HIS:456:CD2:4068, V-B:GLU:543:CD:9880, H-B:LYS:547:NZ:9923, H-A:LYS:547:NZ:4951, V-B:HIS:456:CD2:9039, V-A:HIS:456:CE1:4069, V-B:ARG:545:CZ:9898, H-A:GLU:543:OE1:4909, H-A:HIS:456:NE2:4070, V-B:HIS:456:CE1:9040, V-B:GLU:543:CG:9879, H-A:GLU:543:OE2:4910, V-A:GLU:543:CG:4907, V-A:GLU:543:CD:4908, V-B:ILE:369:CB:8207, V-B:ASP:366:CG:8184, V-B:ASP:366:CA:8181, V-B:ASP:366:CB:8183, V-B:ILE:369:CD1:8210, V-B:ILE:369:CG2:8208, V-A:GLU:543:CB:4906, V-B:TYR:484:CZ:9318, V-A:HIS:456:CB:4065, V-A:LYS:547:CE:4950, H-B:GLU:543:O:9875, V-A:LYS:547:CD:4949"]

$$$$
4cc_Grossjean_2025
     RDKit          3D

 31 34  0  0  0  0  0  0  0  0999 V2000
  127.2300  126.9360   74.2410 C   0  0  0  0  0  0  0  0  0  0  0  0
  128.2420  126.0840   73.7150 O   0  0  0  0  0  0  0  0  0  0  0  0
  128.4450  126.0410   72.3500 C   0  0  0  0  0  0  0  0  0  0  0  0
  129.2550  125.0110   71.8730 C   0  0  0  0  0  0  0  0  0  0  0  0
  129.5150  124.8850   70.5110 C   0  0  0  0  0  0  0  0  0  0  0  0
  128.9740  125.7990   69.6050 C   0  0  0  0  0  0  0  0  0  0  0  0
  129.2790  125.5830   68.2480 N   0  0  0  0  0  0  0  0  0  0  0  0
  129.8970  126.4060   67.3670 C   0  0  0  0  0  0  0  0  0  0  0  0
  130.3420  127.5170   67.6580 O   0  0  0  0  0  0  0  0  0  0  0  0
  130.0160  125.8890   66.0000 C   0  0  0  0  0  0  0  0  0  0  0  0
  128.5830  125.7140   64.9890 S   0  0  0  0  0  0  0  0  0  0  0  0
  129.5410  125.1070   63.6590 C   0  0  0  0  0  0  0  0  0  0  0  0
  128.9820  124.7640   62.5010 N   0  0  0  0  0  0  0  0  0  0  0  0
  129.8080  124.3110   61.5220 C   0  0  0  0  0  0  0  0  0  0  0  0
  129.1500  123.9300   60.2280 C   0  0  0  0  0  0  0  0  0  0  0  0
  129.4390  124.6250   59.0430 C   0  0  0  0  0  0  0  0  0  0  0  0
  128.8310  124.2780   57.8390 C   0  0  0  0  0  0  0  0  0  0  0  0
  127.9210  123.2270   57.8040 C   0  0  0  0  0  0  0  0  0  0  0  0
  127.6140  122.5230   58.9640 C   0  0  0  0  0  0  0  0  0  0  0  0
  128.2240  122.8740   60.1660 C   0  0  0  0  0  0  0  0  0  0  0  0
  131.1880  124.1900   61.7180 C   0  0  0  0  0  0  0  0  0  0  0  0
  131.7870  124.5470   62.9360 C   0  0  0  0  0  0  0  0  0  0  0  0
  133.3050  124.3940   63.0790 C   0  0  0  0  0  0  0  0  0  0  0  0
  133.8860  125.4430   63.6670 F   0  0  0  0  0  0  0  0  0  0  0  0
  133.5830  123.3200   63.8180 F   0  0  0  0  0  0  0  0  0  0  0  0
  133.8600  124.2540   61.8750 F   0  0  0  0  0  0  0  0  0  0  0  0
  130.9310  125.0310   63.9660 C   0  0  0  0  0  0  0  0  0  0  0  0
  131.1720  125.4820   65.3150 C   0  0  0  0  0  0  0  0  0  0  0  0
  132.4250  125.5110   65.8740 N   0  0  0  0  0  0  0  0  0  0  0  0
  128.1480  126.8310   70.0750 C   0  0  0  0  0  0  0  0  0  0  0  0
  127.8900  126.9520   71.4380 C   0  0  0  0  0  0  0  0  0  0  0  0
  1  2  1  0
  2  3  1  0
  3  4  2  0
  4  5  1  0
  5  6  2  0
  6  7  1  0
  7  8  1  0
  8  9  2  0
  8 10  1  0
 10 11  1  0
 11 12  1  0
 12 13  2  0
 13 14  1  0
 14 15  1  0
 15 16  2  0
 16 17  1  0
 17 18  2  0
 18 19  1  0
 19 20  2  0
 14 21  2  0
 21 22  1  0
 22 23  1  0
 23 24  1  0
 23 25  1  0
 23 26  1  0
 22 27  2  0
 27 28  1  0
 28 29  1  0
  6 30  1  0
 30 31  2  0
 31  3  1  0
 28 10  2  0
 27 12  1  0
 20 15  1  0
M  END
>  <Binding energies>  (32) 
[-6.91]

>  <Ligand effiencies>  (32) 
[-0.20323529411764707]

>  <Interactions>  (32) 
["V-A:HIS:456:CD2:4068, V-B:GLU:543:CD:9880, H-B:LYS:547:NZ:9923, V-B:GLU:543:C:9874, V-B:GLU:543:CB:9878, V-A:HIS:456:CE1:4069, H-A:HIS:456:NE2:4070, V-B:HIS:456:CE1:9040, V-B:GLU:543:CG:9879, H-A:GLU:543:OE2:4910, V-A:ARG:545:CZ:4926, V-A:GLY:453:CA:4044, H-A:TYR:484:OH:4348, V-A:GLY:453:C:4042, V-A:GLY:454:CA:4049, V-A:ASP:366:CG:3213, V-B:TYR:539:CE2:9848, V-B:PRO:540:CA:9855, V-B:TYR:539:CD2:9846, V-B:PRO:540:N:9856, V-B:TYR:539:C:9839, V-B:LYS:547:CD:9921, V-B:TYR:539:CZ:9849, H-B:GLU:543:O:9875, H-A:HIS:456:ND1:4067"]

$$$$
4ce_Grossjean_2025
     RDKit          3D

 30 33  0  0  0  0  0  0  0  0999 V2000
  128.5670  119.7290   73.3710 C   0  0  0  0  0  0  0  0  0  0  0  0
  129.4880  120.8880   73.0420 C   0  0  0  0  0  0  0  0  0  0  0  0
  130.7200  121.0460   73.6830 C   0  0  0  0  0  0  0  0  0  0  0  0
  131.5200  122.1320   73.3250 C   0  0  0  0  0  0  0  0  0  0  0  0
  131.0770  123.0220   72.3450 C   0  0  0  0  0  0  0  0  0  0  0  0
  129.8290  122.8080   71.7470 C   0  0  0  0  0  0  0  0  0  0  0  0
  129.4480  123.7250   70.7510 N   0  0  0  0  0  0  0  0  0  0  0  0
  129.1940  125.0520   70.8710 C   0  0  0  0  0  0  0  0  0  0  0  0
  129.2840  125.6730   71.9310 O   0  0  0  0  0  0  0  0  0  0  0  0
  128.7950  125.7310   69.6360 C   0  0  0  0  0  0  0  0  0  0  0  0
  127.5300  126.9570   69.6660 S   0  0  0  0  0  0  0  0  0  0  0  0
  127.7090  127.2480   67.9530 C   0  0  0  0  0  0  0  0  0  0  0  0
  126.9650  128.1530   67.3220 N   0  0  0  0  0  0  0  0  0  0  0  0
  127.1860  128.3200   65.9910 C   0  0  0  0  0  0  0  0  0  0  0  0
  126.3350  129.3510   65.3100 C   0  0  0  0  0  0  0  0  0  0  0  0
  124.9450  129.3760   65.5080 C   0  0  0  0  0  0  0  0  0  0  0  0
  124.1480  130.3260   64.8740 C   0  0  0  0  0  0  0  0  0  0  0  0
  124.7320  131.2670   64.0330 C   0  0  0  0  0  0  0  0  0  0  0  0
  126.1060  131.2630   63.8190 C   0  0  0  0  0  0  0  0  0  0  0  0
  126.9000  130.3100   64.4530 C   0  0  0  0  0  0  0  0  0  0  0  0
  128.1370  127.5630   65.2980 C   0  0  0  0  0  0  0  0  0  0  0  0
  128.9230  126.6020   65.9540 C   0  0  0  0  0  0  0  0  0  0  0  0
  129.9480  125.8100   65.1350 C   0  0  0  0  0  0  0  0  0  0  0  0
  131.1830  125.8780   65.6340 F   0  0  0  0  0  0  0  0  0  0  0  0
  129.6010  124.5220   65.1030 F   0  0  0  0  0  0  0  0  0  0  0  0
  129.9930  126.2840   63.8900 F   0  0  0  0  0  0  0  0  0  0  0  0
  128.7110  126.4300   67.3520 C   0  0  0  0  0  0  0  0  0  0  0  0
  129.3150  125.5690   68.3400 C   0  0  0  0  0  0  0  0  0  0  0  0
  130.3090  124.6760   68.0370 N   0  0  0  0  0  0  0  0  0  0  0  0
  129.0430  121.7460   72.0890 N   0  0  0  0  0  0  0  0  0  0  0  0
  1  2  1  0
  2  3  2  0
  3  4  1  0
  4  5  2  0
  5  6  1  0
  6  7  1  0
  7  8  1  0
  8  9  2  0
  8 10  1  0
 10 11  1  0
 11 12  1  0
 12 13  2  0
 13 14  1  0
 14 15  1  0
 15 16  2  0
 16 17  1  0
 17 18  2  0
 18 19  1  0
 19 20  2  0
 14 21  2  0
 21 22  1  0
 22 23  1  0
 23 24  1  0
 23 25  1  0
 23 26  1  0
 22 27  2  0
 27 28  1  0
 28 29  1  0
  6 30  2  0
 30  2  1  0
 28 10  2  0
 27 12  1  0
 20 15  1  0
M  END
>  <Binding energies>  (33) 
[-8.14]

>  <Ligand effiencies>  (33) 
[-0.24666666666666667]

>  <Interactions>  (33) 
["V-A:HIS:456:CD2:4068, V-B:GLU:543:CD:9880, H-B:LYS:547:NZ:9923, V-B:GLU:543:C:9874, V-B:GLU:543:CB:9878, V-A:HIS:456:CE1:4069, V-B:ARG:545:CZ:9898, V-B:ARG:545:CD:9895, V-B:HIS:456:CE1:9040, V-B:GLU:543:CG:9879, V-A:GLU:543:CD:4908, V-B:GLY:454:CA:9020, V-A:TYR:484:CZ:4347, V-A:TYR:484:CE1:4345, H-A:TYR:484:OH:4348, V-B:GLY:544:C:9884, V-A:HIS:456:CG:4066, V-A:TYR:484:CD2:4344, V-A:TYR:484:CE2:4346, V-A:TYR:484:CD1:4343, V-A:HIS:456:CB:4065, V-A:TYR:484:CG:4342, H-B:GLU:543:O:9875, V-B:LYS:547:CE:9922, V-A:ASP:473:CG:4240, H-A:HIS:456:ND1:4067, V-A:ASP:473:CB:4239, V-A:TYR:484:CB:4341"]

$$$$
4cf_Grossjean_2025
     RDKit          3D

 29 32  0  0  0  0  0  0  0  0999 V2000
  129.7950  124.3930   67.5290 N   0  0  0  0  0  0  0  0  0  0  0  0
  129.3520  125.6660   67.7840 C   0  0  0  0  0  0  0  0  0  0  0  0
  129.2230  126.1900   69.0810 C   0  0  0  0  0  0  0  0  0  0  0  0
  129.4780  125.5280   70.3640 C   0  0  0  0  0  0  0  0  0  0  0  0
  129.4510  126.1690   71.4160 O   0  0  0  0  0  0  0  0  0  0  0  0
  129.7230  124.1980   70.2920 N   0  0  0  0  0  0  0  0  0  0  0  0
  130.0500  123.2880   71.3160 C   0  0  0  0  0  0  0  0  0  0  0  0
  131.1860  123.3640   72.1440 C   0  0  0  0  0  0  0  0  0  0  0  0
  131.3990  122.3840   73.1150 C   0  0  0  0  0  0  0  0  0  0  0  0
  130.4720  121.3480   73.2350 C   0  0  0  0  0  0  0  0  0  0  0  0
  129.3730  121.2480   72.4450 N   0  0  0  0  0  0  0  0  0  0  0  0
  129.1800  122.2080   71.5040 C   0  0  0  0  0  0  0  0  0  0  0  0
  128.6360  127.8510   69.0400 S   0  0  0  0  0  0  0  0  0  0  0  0
  128.5610  127.8290   67.2940 C   0  0  0  0  0  0  0  0  0  0  0  0
  128.1460  128.8890   66.6020 N   0  0  0  0  0  0  0  0  0  0  0  0
  128.1060  128.7700   65.2490 C   0  0  0  0  0  0  0  0  0  0  0  0
  127.6270  129.9770   64.4970 C   0  0  0  0  0  0  0  0  0  0  0  0
  126.5060  129.9010   63.6570 C   0  0  0  0  0  0  0  0  0  0  0  0
  126.0540  131.0170   62.9560 C   0  0  0  0  0  0  0  0  0  0  0  0
  126.7210  132.2300   63.0890 C   0  0  0  0  0  0  0  0  0  0  0  0
  127.8340  132.3350   63.9180 C   0  0  0  0  0  0  0  0  0  0  0  0
  128.2810  131.2170   64.6160 C   0  0  0  0  0  0  0  0  0  0  0  0
  128.5050  127.5990   64.5970 C   0  0  0  0  0  0  0  0  0  0  0  0
  128.9480  126.4780   65.3170 C   0  0  0  0  0  0  0  0  0  0  0  0
  129.3660  125.2250   64.5390 C   0  0  0  0  0  0  0  0  0  0  0  0
  129.0060  124.0900   65.1420 F   0  0  0  0  0  0  0  0  0  0  0  0
  128.7980  125.2330   63.3330 F   0  0  0  0  0  0  0  0  0  0  0  0
  130.6910  125.2000   64.4010 F   0  0  0  0  0  0  0  0  0  0  0  0
  128.9770  126.5840   66.7370 C   0  0  0  0  0  0  0  0  0  0  0  0
  1  2  1  0
  2  3  2  0
  3  4  1  0
  4  5  2  0
  4  6  1  0
  6  7  1  0
  7  8  2  0
  8  9  1  0
  9 10  2  0
 10 11  1  0
 11 12  2  0
  3 13  1  0
 13 14  1  0
 14 15  2  0
 15 16  1  0
 16 17  1  0
 17 18  2  0
 18 19  1  0
 19 20  2  0
 20 21  1  0
 21 22  2  0
 16 23  2  0
 23 24  1  0
 24 25  1  0
 25 26  1  0
 25 27  1  0
 25 28  1  0
 24 29  2  0
 29  2  1  0
 12  7  1  0
 29 14  1  0
 22 17  1  0
M  END
>  <Binding energies>  (34) 
[-7.66]

>  <Ligand effiencies>  (34) 
[-0.239375]

>  <Interactions>  (34) 
["V-A:HIS:456:CD2:4068, V-B:GLU:543:CD:9880, H-B:LYS:547:NZ:9923, V-B:GLU:543:C:9874, V-B:GLU:543:CB:9878, V-A:HIS:456:CE1:4069, H-A:HIS:456:NE2:4070, V-B:HIS:456:CE1:9040, V-B:GLU:543:CG:9879, V-A:GLU:543:CD:4908, V-B:LEU:475:CD1:9229, V-A:ALA:541:CB:4892, V-B:GLU:543:CA:9876, V-A:TYR:484:CZ:4347, V-A:GLU:543:CB:4906, V-A:TYR:484:CE1:4345, H-A:TYR:484:OH:4348, V-A:HIS:456:CG:4066, V-A:TYR:484:CD2:4344, V-A:TYR:484:CE2:4346, V-A:TYR:484:CD1:4343, V-A:HIS:456:CB:4065, V-A:TYR:484:CG:4342, H-B:GLU:543:O:9875, V-B:LYS:547:CE:9922, V-A:ASP:473:CG:4240, V-B:GLY:544:CA:9886, H-A:HIS:456:ND1:4067, V-A:ASP:473:CB:4239, V-A:TYR:484:CB:4341"]

$$$$
4ci_Grossjean_2025
     RDKit          3D

 28 31  0  0  0  0  0  0  0  0999 V2000
  129.9120  124.3960   67.6810 N   0  0  0  0  0  0  0  0  0  0  0  0
  129.4160  125.6330   68.0010 C   0  0  0  0  0  0  0  0  0  0  0  0
  129.2760  126.0880   69.3220 C   0  0  0  0  0  0  0  0  0  0  0  0
  129.6190  125.3950   70.5670 C   0  0  0  0  0  0  0  0  0  0  0  0
  129.7760  126.0260   71.6160 O   0  0  0  0  0  0  0  0  0  0  0  0
  129.7550  124.0490   70.4680 N   0  0  0  0  0  0  0  0  0  0  0  0
  130.0750  123.1540   71.4810 C   0  0  0  0  0  0  0  0  0  0  0  0
  131.2520  123.2330   72.2240 C   0  0  0  0  0  0  0  0  0  0  0  0
  131.1890  122.1810   73.1080 C   0  0  0  0  0  0  0  0  0  0  0  0
  130.0330  121.5040   72.9080 O   0  0  0  0  0  0  0  0  0  0  0  0
  129.3360  122.1300   71.8740 N   0  0  0  0  0  0  0  0  0  0  0  0
  128.6190  127.7220   69.3670 S   0  0  0  0  0  0  0  0  0  0  0  0
  128.5260  127.7810   67.6230 C   0  0  0  0  0  0  0  0  0  0  0  0
  128.0670  128.8570   66.9870 N   0  0  0  0  0  0  0  0  0  0  0  0
  128.0360  128.8120   65.6300 C   0  0  0  0  0  0  0  0  0  0  0  0
  127.5080  130.0380   64.9410 C   0  0  0  0  0  0  0  0  0  0  0  0
  126.2240  130.0480   64.3720 C   0  0  0  0  0  0  0  0  0  0  0  0
  125.7290  131.1820   63.7330 C   0  0  0  0  0  0  0  0  0  0  0  0
  126.5150  132.3270   63.6530 C   0  0  0  0  0  0  0  0  0  0  0  0
  127.7910  132.3430   64.2040 C   0  0  0  0  0  0  0  0  0  0  0  0
  128.2830  131.2070   64.8400 C   0  0  0  0  0  0  0  0  0  0  0  0
  128.4500  127.6800   64.9200 C   0  0  0  0  0  0  0  0  0  0  0  0
  128.9360  126.5400   65.5800 C   0  0  0  0  0  0  0  0  0  0  0  0
  129.3740  125.3350   64.7390 C   0  0  0  0  0  0  0  0  0  0  0  0
  129.0030  124.1670   65.2650 F   0  0  0  0  0  0  0  0  0  0  0  0
  128.8310  125.4150   63.5240 F   0  0  0  0  0  0  0  0  0  0  0  0
  130.7020  125.3210   64.6280 F   0  0  0  0  0  0  0  0  0  0  0  0
  128.9850  126.5820   67.0030 C   0  0  0  0  0  0  0  0  0  0  0  0
  1  2  1  0
  2  3  2  0
  3  4  1  0
  4  5  2  0
  4  6  1  0
  6  7  1  0
  7  8  1  0
  8  9  2  0
  9 10  1  0
 10 11  1  0
  3 12  1  0
 12 13  1  0
 13 14  2  0
 14 15  1  0
 15 16  1  0
 16 17  2  0
 17 18  1  0
 18 19  2  0
 19 20  1  0
 20 21  2  0
 15 22  2  0
 22 23  1  0
 23 24  1  0
 24 25  1  0
 24 26  1  0
 24 27  1  0
 23 28  2  0
 28  2  1  0
 11  7  2  0
 28 13  1  0
 21 16  1  0
M  END
>  <Binding energies>  (35) 
[-8.5]

>  <Ligand effiencies>  (35) 
[-0.27419354838709675]

>  <Interactions>  (35) 
["V-A:HIS:456:CD2:4068, V-B:GLU:543:CD:9880, H-B:LYS:547:NZ:9923, V-B:GLU:543:C:9874, V-B:GLU:543:CB:9878, V-A:HIS:456:CE1:4069, H-A:HIS:456:NE2:4070, V-B:HIS:456:CE1:9040, V-B:GLU:543:CG:9879, V-A:GLU:543:CD:4908, V-B:LEU:475:CD1:9229, V-A:ALA:541:CB:4892, V-B:GLU:543:CA:9876, V-A:TYR:484:CZ:4347, V-A:GLU:543:CB:4906, V-A:TYR:484:CE1:4345, H-A:TYR:484:OH:4348, V-A:HIS:456:CG:4066, V-A:TYR:484:CD2:4344, V-A:TYR:484:CE2:4346, V-A:TYR:484:CD1:4343, V-A:HIS:456:CB:4065, V-A:TYR:484:CG:4342, H-B:GLU:543:O:9875, V-A:ASP:473:CG:4240, H-A:HIS:456:ND1:4067, V-A:ASP:473:CB:4239, V-A:TYR:484:CB:4341"]

$$$$
8a_Ghoteimi_2023
     RDKit          3D

 40 44  0  0  0  0  0  0  0  0999 V2000
  125.6410  134.1820   60.6950 C   0  0  0  0  0  0  0  0  0  0  0  0
  124.1500  133.8590   60.5580 C   0  0  0  0  0  0  0  0  0  0  0  0
  123.9560  132.9760   59.4610 O   0  0  0  0  0  0  0  0  0  0  0  0
  123.5210  131.7030   59.6540 C   0  0  0  0  0  0  0  0  0  0  0  0
  122.6330  131.1780   58.9750 O   0  0  0  0  0  0  0  0  0  0  0  0
  124.2220  131.0000   60.7810 C   0  0  0  0  0  0  0  0  0  0  0  0
  125.4540  130.3810   60.5380 C   0  0  0  0  0  0  0  0  0  0  0  0
  126.1280  129.7200   61.5610 C   0  0  0  0  0  0  0  0  0  0  0  0
  125.5870  129.6630   62.8460 C   0  0  0  0  0  0  0  0  0  0  0  0
  126.3550  128.9640   63.7990 N   0  0  0  0  0  0  0  0  0  0  0  0
  127.5890  129.2280   64.2940 C   0  0  0  0  0  0  0  0  0  0  0  0
  128.2800  130.1890   63.9590 O   0  0  0  0  0  0  0  0  0  0  0  0
  128.0770  128.2740   65.2940 C   0  0  0  0  0  0  0  0  0  0  0  0
  127.8730  128.6040   67.0140 S   0  0  0  0  0  0  0  0  0  0  0  0
  128.6730  127.1100   67.4440 C   0  0  0  0  0  0  0  0  0  0  0  0
  128.8700  126.7620   68.7150 N   0  0  0  0  0  0  0  0  0  0  0  0
  129.5080  125.5820   68.9400 C   0  0  0  0  0  0  0  0  0  0  0  0
  129.7360  125.2210   70.3730 C   0  0  0  0  0  0  0  0  0  0  0  0
  129.4050  126.1110   71.4050 C   0  0  0  0  0  0  0  0  0  0  0  0
  129.6300  125.7740   72.7360 C   0  0  0  0  0  0  0  0  0  0  0  0
  130.1880  124.5410   73.0700 C   0  0  0  0  0  0  0  0  0  0  0  0
  130.3780  124.2940   74.4170 O   0  0  0  0  0  0  0  0  0  0  0  0
  131.6810  123.9610   74.8830 C   0  0  0  0  0  0  0  0  0  0  0  0
  130.5170  123.6420   72.0460 C   0  0  0  0  0  0  0  0  0  0  0  0
  130.2930  123.9830   70.7150 C   0  0  0  0  0  0  0  0  0  0  0  0
  129.9370  124.7560   67.8990 C   0  0  0  0  0  0  0  0  0  0  0  0
  129.7180  125.1100   66.5630 C   0  0  0  0  0  0  0  0  0  0  0  0
  130.1670  124.1800   65.4960 C   0  0  0  0  0  0  0  0  0  0  0  0
  129.4210  123.0370   65.2010 C   0  0  0  0  0  0  0  0  0  0  0  0
  129.8260  122.1730   64.1870 C   0  0  0  0  0  0  0  0  0  0  0  0
  130.9800  122.4390   63.4480 C   0  0  0  0  0  0  0  0  0  0  0  0
  131.3050  121.5270   62.4630 O   0  0  0  0  0  0  0  0  0  0  0  0
  130.2650  120.9420   61.6880 C   0  0  0  0  0  0  0  0  0  0  0  0
  131.7270  123.5910   63.7380 C   0  0  0  0  0  0  0  0  0  0  0  0
  131.3170  124.4550   64.7520 C   0  0  0  0  0  0  0  0  0  0  0  0
  129.0720  126.3520   66.3040 C   0  0  0  0  0  0  0  0  0  0  0  0
  128.7350  127.0500   65.0880 C   0  0  0  0  0  0  0  0  0  0  0  0
  129.0500  126.5610   63.8450 N   0  0  0  0  0  0  0  0  0  0  0  0
  124.3550  130.2850   63.0990 C   0  0  0  0  0  0  0  0  0  0  0  0
  123.6810  130.9460   62.0750 C   0  0  0  0  0  0  0  0  0  0  0  0
  1  2  1  0
  2  3  1  0
  3  4  1  0
  4  5  2  0
  4  6  1  0
  6  7  2  0
  7  8  1  0
  8  9  2  0
  9 10  1  0
 10 11  1  0
 11 12  2  0
 11 13  1  0
 13 14  1  0
 14 15  1  0
 15 16  2  0
 16 17  1  0
 17 18  1  0
 18 19  2  0
 19 20  1  0
 20 21  2  0
 21 22  1  0
 22 23  1  0
 21 24  1  0
 24 25  2  0
 17 26  2  0
 26 27  1  0
 27 28  1  0
 28 29  2  0
 29 30  1  0
 30 31  2  0
 31 32  1  0
 32 33  1  0
 31 34  1  0
 34 35  2  0
 27 36  2  0
 36 37  1  0
 37 38  1  0
  9 39  1  0
 39 40  2  0
 40  6  1  0
 37 13  2  0
 36 15  1  0
 25 18  1  0
 35 28  1  0
M  END
>  <Binding energies>  (36) 
[-8.01]

>  <Ligand effiencies>  (36) 
[-0.18627906976744185]

>  <Interactions>  (36) 
["V-A:HIS:456:CD2:4068, V-B:GLU:543:CD:9880, H-B:LYS:547:NZ:9923, V-B:GLU:543:C:9874, V-B:GLU:543:CB:9878, V-A:HIS:456:CE1:4069, V-B:ARG:545:CZ:9898, H-A:GLU:543:OE1:4909, H-A:HIS:456:NE2:4070, V-B:HIS:456:CE1:9040, V-B:GLU:543:CG:9879, H-A:GLU:543:OE2:4910, V-A:GLU:543:CD:4908, V-B:ILE:369:CB:8207, V-B:ASP:366:CG:8184, V-B:LEU:475:CD1:9229, V-B:ILE:369:CD1:8210, V-A:TYR:539:CE2:4876, V-B:ILE:369:CG2:8208, V-A:TYR:539:CD2:4874, V-B:ALA:541:CB:9864, V-B:GLU:543:CA:9876, V-A:TYR:484:CZ:4347, V-A:LEU:475:CD1:4258, V-A:TYR:484:CE1:4345, H-A:TYR:539:OH:4878, V-A:HIS:456:CG:4066, H-B:GLU:543:OE1:9881, V-A:TYR:484:CD2:4344, V-A:TYR:484:CE2:4346, V-A:TYR:484:CD1:4343, H-B:GLU:543:OE2:9882"]

$$$$
8c_Ghoteimi_2023
     RDKit          3D

 34 38  0  0  0  0  0  0  0  0999 V2000
  123.4050  131.3920   61.8930 C   0  0  0  0  0  0  0  0  0  0  0  0
  123.8590  131.7690   63.1880 O   0  0  0  0  0  0  0  0  0  0  0  0
  124.5950  130.8670   63.9340 C   0  0  0  0  0  0  0  0  0  0  0  0
  125.8620  130.5480   63.4510 C   0  0  0  0  0  0  0  0  0  0  0  0
  126.6720  129.6470   64.1350 C   0  0  0  0  0  0  0  0  0  0  0  0
  126.2350  129.0410   65.3220 C   0  0  0  0  0  0  0  0  0  0  0  0
  127.1000  128.0680   66.0600 C   0  0  0  0  0  0  0  0  0  0  0  0
  128.1690  127.4140   65.4400 C   0  0  0  0  0  0  0  0  0  0  0  0
  128.9640  126.5110   66.1540 C   0  0  0  0  0  0  0  0  0  0  0  0
  130.0830  125.8290   65.4650 C   0  0  0  0  0  0  0  0  0  0  0  0
  131.3740  125.8840   65.9950 C   0  0  0  0  0  0  0  0  0  0  0  0
  132.4230  125.2340   65.3520 C   0  0  0  0  0  0  0  0  0  0  0  0
  132.2000  124.5230   64.1720 C   0  0  0  0  0  0  0  0  0  0  0  0
  133.2990  123.9070   63.6050 O   0  0  0  0  0  0  0  0  0  0  0  0
  133.7690  124.3540   62.3380 C   0  0  0  0  0  0  0  0  0  0  0  0
  130.9020  124.4710   63.6390 C   0  0  0  0  0  0  0  0  0  0  0  0
  129.8540  125.1220   64.2830 C   0  0  0  0  0  0  0  0  0  0  0  0
  128.6560  126.2860   67.5220 C   0  0  0  0  0  0  0  0  0  0  0  0
  129.2490  125.4500   68.5310 C   0  0  0  0  0  0  0  0  0  0  0  0
  130.3360  124.6510   68.2780 N   0  0  0  0  0  0  0  0  0  0  0  0
  128.6160  125.5300   69.7820 C   0  0  0  0  0  0  0  0  0  0  0  0
  128.9540  124.8280   71.0220 C   0  0  0  0  0  0  0  0  0  0  0  0
  128.6750  125.3160   72.1190 O   0  0  0  0  0  0  0  0  0  0  0  0
  129.5810  123.6360   70.8630 N   0  0  0  0  0  0  0  0  0  0  0  0
  130.0040  122.7750   71.8650 C   0  0  0  0  0  0  0  0  0  0  0  0
  129.4510  121.6440   72.2460 N   0  0  0  0  0  0  0  0  0  0  0  0
  130.1230  121.0830   73.2300 C   0  0  0  0  0  0  0  0  0  0  0  0
  131.2520  121.7650   73.6720 C   0  0  0  0  0  0  0  0  0  0  0  0
  131.4330  123.2210   72.7400 S   0  0  0  0  0  0  0  0  0  0  0  0
  127.2610  126.6590   69.7380 S   0  0  0  0  0  0  0  0  0  0  0  0
  127.5480  127.0110   68.0500 C   0  0  0  0  0  0  0  0  0  0  0  0
  126.7890  127.8710   67.3700 N   0  0  0  0  0  0  0  0  0  0  0  0
  124.9600  129.3690   65.8020 C   0  0  0  0  0  0  0  0  0  0  0  0
  124.1470  130.2690   65.1200 C   0  0  0  0  0  0  0  0  0  0  0  0
  1  2  1  0
  2  3  1  0
  3  4  2  0
  4  5  1  0
  5  6  2  0
  6  7  1  0
  7  8  2  0
  8  9  1  0
  9 10  1  0
 10 11  2  0
 11 12  1  0
 12 13  2  0
 13 14  1  0
 14 15  1  0
 13 16  1  0
 16 17  2  0
  9 18  2  0
 18 19  1  0
 19 20  1  0
 19 21  2  0
 21 22  1  0
 22 23  2  0
 22 24  1  0
 24 25  1  0
 25 26  2  0
 26 27  1  0
 27 28  2  0
 28 29  1  0
 21 30  1  0
 30 31  1  0
 31 32  2  0
  6 33  1  0
 33 34  2  0
 34  3  1  0
 32  7  1  0
 17 10  1  0
 31 18  1  0
 29 25  1  0
M  END
>  <Binding energies>  (37) 
[-9.25]

>  <Ligand effiencies>  (37) 
[-0.25]

>  <Interactions>  (37) 
["V-A:HIS:456:CD2:4068, V-B:GLU:543:CD:9880, H-B:LYS:547:NZ:9923, V-B:GLU:543:C:9874, V-B:GLU:543:CB:9878, V-A:HIS:456:CE1:4069, V-B:ARG:545:CZ:9898, V-B:ARG:545:CD:9895, V-B:HIS:456:CE1:9040, V-B:GLU:543:CG:9879, V-A:GLU:543:CD:4908, H-B:GLY:454:N:9021, V-B:GLY:454:CA:9020, V-B:ILE:369:CD1:8210, V-A:TYR:484:CZ:4347, V-A:TYR:484:CE1:4345, H-A:GLY:454:N:4050, H-A:TYR:484:OH:4348, V-B:GLY:544:C:9884, V-A:HIS:456:CG:4066, V-A:TYR:484:CD2:4344, V-A:TYR:484:CE2:4346, V-A:TYR:484:CD1:4343, V-A:HIS:456:CB:4065, V-A:TYR:484:CG:4342, H-B:GLU:543:O:9875, V-A:ASP:473:CG:4240, H-A:HIS:456:ND1:4067, V-A:ASP:473:CB:4239, V-A:TYR:484:CB:4341"]

$$$$
8d_Ghoteimi_2023
     RDKit          3D

 30 33  0  0  0  0  0  0  0  0999 V2000
  131.0260  123.2490   72.0580 C   0  0  0  0  0  0  0  0  0  0  0  0
  129.7090  123.5810   71.6400 O   0  0  0  0  0  0  0  0  0  0  0  0
  129.2330  124.8460   71.7770 C   0  0  0  0  0  0  0  0  0  0  0  0
  129.1400  125.4350   72.8560 O   0  0  0  0  0  0  0  0  0  0  0  0
  128.8350  125.4540   70.4880 C   0  0  0  0  0  0  0  0  0  0  0  0
  127.5030  126.6120   70.4360 S   0  0  0  0  0  0  0  0  0  0  0  0
  127.6880  126.8040   68.7080 C   0  0  0  0  0  0  0  0  0  0  0  0
  126.9040  127.6210   68.0030 N   0  0  0  0  0  0  0  0  0  0  0  0
  127.1340  127.6980   66.6650 C   0  0  0  0  0  0  0  0  0  0  0  0
  126.2390  128.6180   65.8980 C   0  0  0  0  0  0  0  0  0  0  0  0
  126.6260  129.1370   64.6540 C   0  0  0  0  0  0  0  0  0  0  0  0
  125.7900  129.9940   63.9450 C   0  0  0  0  0  0  0  0  0  0  0  0
  124.5450  130.3550   64.4590 C   0  0  0  0  0  0  0  0  0  0  0  0
  123.7820  131.2080   63.6860 O   0  0  0  0  0  0  0  0  0  0  0  0
  123.3800  130.7950   62.3840 C   0  0  0  0  0  0  0  0  0  0  0  0
  124.1460  129.8410   65.7000 C   0  0  0  0  0  0  0  0  0  0  0  0
  124.9860  128.9830   66.4070 C   0  0  0  0  0  0  0  0  0  0  0  0
  128.1370  126.9540   66.0360 C   0  0  0  0  0  0  0  0  0  0  0  0
  128.9610  126.0990   66.7760 C   0  0  0  0  0  0  0  0  0  0  0  0
  130.0210  125.3320   66.0820 C   0  0  0  0  0  0  0  0  0  0  0  0
  131.3090  125.8570   65.9700 C   0  0  0  0  0  0  0  0  0  0  0  0
  132.3030  125.1400   65.3100 C   0  0  0  0  0  0  0  0  0  0  0  0
  132.0270  123.8880   64.7580 C   0  0  0  0  0  0  0  0  0  0  0  0
  133.0730  123.2500   64.1220 O   0  0  0  0  0  0  0  0  0  0  0  0
  133.5120  123.7290   62.8560 C   0  0  0  0  0  0  0  0  0  0  0  0
  130.7300  123.3600   64.8760 C   0  0  0  0  0  0  0  0  0  0  0  0
  129.7370  124.0790   65.5350 C   0  0  0  0  0  0  0  0  0  0  0  0
  128.7400  126.0060   68.1750 C   0  0  0  0  0  0  0  0  0  0  0  0
  129.3770  125.2460   69.2150 C   0  0  0  0  0  0  0  0  0  0  0  0
  130.4210  124.3890   68.9710 N   0  0  0  0  0  0  0  0  0  0  0  0
  1  2  1  0
  2  3  1  0
  3  4  2  0
  3  5  1  0
  5  6  1  0
  6  7  1  0
  7  8  2  0
  8  9  1  0
  9 10  1  0
 10 11  2  0
 11 12  1  0
 12 13  2  0
 13 14  1  0
 14 15  1  0
 13 16  1  0
 16 17  2  0
  9 18  2  0
 18 19  1  0
 19 20  1  0
 20 21  2  0
 21 22  1  0
 22 23  2  0
 23 24  1  0
 24 25  1  0
 23 26  1  0
 26 27  2  0
 19 28  2  0
 28 29  1  0
 29 30  1  0
 29  5  2  0
 28  7  1  0
 17 10  1  0
 27 20  1  0
M  END
>  <Binding energies>  (38) 
[-8.09]

>  <Ligand effiencies>  (38) 
[-0.2528125]

>  <Interactions>  (38) 
["V-B:ARG:545:CG:9894, V-A:HIS:456:CD2:4068, V-B:GLU:543:CD:9880, H-B:LYS:547:NZ:9923, V-B:GLU:543:C:9874, V-B:GLU:543:CB:9878, V-A:HIS:456:CE1:4069, V-B:ARG:545:CZ:9898, V-B:ARG:545:CD:9895, V-B:HIS:456:CE1:9040, V-B:GLU:543:CG:9879, V-A:GLU:543:CD:4908, H-B:GLY:454:N:9021, V-B:ASP:366:CG:8184, V-B:ILE:369:CD1:8210, V-B:GLU:543:CA:9876, V-A:TYR:484:CZ:4347, V-A:TYR:484:CE1:4345, H-A:GLY:454:N:4050, H-A:TYR:484:OH:4348, V-A:GLY:454:CA:4049, V-B:GLY:544:C:9884, V-A:HIS:456:CG:4066, V-A:TYR:484:CD2:4344, V-A:TYR:484:CE2:4346, V-A:TYR:484:CD1:4343, V-A:HIS:456:CB:4065, V-A:TYR:484:CG:4342, H-B:GLU:543:O:9875, H-A:HIS:456:ND1:4067"]

$$$$
9a_Ghoteimi_2023
     RDKit          3D

 48 54  0  0  0  0  0  0  0  0999 V2000
  127.9770  118.3700   74.5420 C   0  0  0  0  0  0  0  0  0  0  0  0
  128.3910  119.1560   75.7910 C   0  0  0  0  0  0  0  0  0  0  0  0
  129.4010  120.0960   75.4450 O   0  0  0  0  0  0  0  0  0  0  0  0
  130.1870  119.9110   74.3540 C   0  0  0  0  0  0  0  0  0  0  0  0
  130.9370  118.9400   74.2120 O   0  0  0  0  0  0  0  0  0  0  0  0
  130.0600  121.0100   73.3380 C   0  0  0  0  0  0  0  0  0  0  0  0
  128.9890  120.9870   72.4350 C   0  0  0  0  0  0  0  0  0  0  0  0
  128.8450  121.9890   71.4800 C   0  0  0  0  0  0  0  0  0  0  0  0
  129.7640  123.0360   71.4080 C   0  0  0  0  0  0  0  0  0  0  0  0
  129.5190  123.9920   70.4040 N   0  0  0  0  0  0  0  0  0  0  0  0
  129.2110  125.3090   70.5020 C   0  0  0  0  0  0  0  0  0  0  0  0
  129.0920  125.9150   71.5670 O   0  0  0  0  0  0  0  0  0  0  0  0
  129.0270  126.0050   69.2250 C   0  0  0  0  0  0  0  0  0  0  0  0
  128.2870  127.6060   69.1820 S   0  0  0  0  0  0  0  0  0  0  0  0
  128.4560  127.6870   67.4440 C   0  0  0  0  0  0  0  0  0  0  0  0
  128.0640  128.7570   66.7530 N   0  0  0  0  0  0  0  0  0  0  0  0
  128.2500  128.7240   65.4060 C   0  0  0  0  0  0  0  0  0  0  0  0
  127.8130  129.9390   64.6530 C   0  0  0  0  0  0  0  0  0  0  0  0
  126.9650  129.8220   63.5460 C   0  0  0  0  0  0  0  0  0  0  0  0
  126.5530  130.9480   62.8390 C   0  0  0  0  0  0  0  0  0  0  0  0
  126.9620  132.2360   63.2220 C   0  0  0  0  0  0  0  0  0  0  0  0
  126.5710  133.3750   62.5110 N   0  0  0  0  0  0  0  0  0  0  0  0
  127.5530  134.2090   61.7900 C   0  0  0  0  0  0  0  0  0  0  0  0
  127.0100  135.5940   61.3780 C   0  0  0  0  0  0  0  0  0  0  0  0
  125.8190  135.4450   60.6250 O   0  0  0  0  0  0  0  0  0  0  0  0
  124.8090  134.7870   61.3730 C   0  0  0  0  0  0  0  0  0  0  0  0
  125.2880  133.3770   61.7770 C   0  0  0  0  0  0  0  0  0  0  0  0
  127.8230  132.3450   64.3240 C   0  0  0  0  0  0  0  0  0  0  0  0
  128.2380  131.2190   65.0280 C   0  0  0  0  0  0  0  0  0  0  0  0
  128.7990  127.6160   64.7560 C   0  0  0  0  0  0  0  0  0  0  0  0
  129.1940  126.4830   65.4760 C   0  0  0  0  0  0  0  0  0  0  0  0
  129.7380  125.3190   64.7320 C   0  0  0  0  0  0  0  0  0  0  0  0
  130.9790  124.7740   65.0720 C   0  0  0  0  0  0  0  0  0  0  0  0
  131.4810  123.6750   64.3820 C   0  0  0  0  0  0  0  0  0  0  0  0
  130.7470  123.0780   63.3440 C   0  0  0  0  0  0  0  0  0  0  0  0
  131.2350  121.9810   62.6300 N   0  0  0  0  0  0  0  0  0  0  0  0
  132.4770  122.1280   61.8460 C   0  0  0  0  0  0  0  0  0  0  0  0
  133.1010  120.7790   61.4310 C   0  0  0  0  0  0  0  0  0  0  0  0
  132.1470  119.9980   60.7270 O   0  0  0  0  0  0  0  0  0  0  0  0
  131.0040  119.7250   61.5210 C   0  0  0  0  0  0  0  0  0  0  0  0
  130.3240  121.0470   61.9400 C   0  0  0  0  0  0  0  0  0  0  0  0
  129.5010  123.6310   63.0140 C   0  0  0  0  0  0  0  0  0  0  0  0
  129.0010  124.7330   63.7000 C   0  0  0  0  0  0  0  0  0  0  0  0
  129.0410  126.5100   66.8920 C   0  0  0  0  0  0  0  0  0  0  0  0
  129.3800  125.5750   67.9360 C   0  0  0  0  0  0  0  0  0  0  0  0
  130.0040  124.3810   67.6830 N   0  0  0  0  0  0  0  0  0  0  0  0
  130.8390  123.0690   72.3110 C   0  0  0  0  0  0  0  0  0  0  0  0
  130.9820  122.0650   73.2650 C   0  0  0  0  0  0  0  0  0  0  0  0
  1  2  1  0
  2  3  1  0
  3  4  1  0
  4  5  2  0
  4  6  1  0
  6  7  2  0
  7  8  1  0
  8  9  2  0
  9 10  1  0
 10 11  1  0
 11 12  2  0
 11 13  1  0
 13 14  1  0
 14 15  1  0
 15 16  2  0
 16 17  1  0
 17 18  1  0
 18 19  2  0
 19 20  1  0
 20 21  2  0
 21 22  1  0
 22 23  1  0
 23 24  1  0
 24 25  1  0
 25 26  1  0
 26 27  1  0
 21 28  1  0
 28 29  2  0
 17 30  2  0
 30 31  1  0
 31 32  1  0
 32 33  2  0
 33 34  1  0
 34 35  2  0
 35 36  1  0
 36 37  1  0
 37 38  1  0
 38 39  1  0
 39 40  1  0
 40 41  1  0
 35 42  1  0
 42 43  2  0
 31 44  2  0
 44 45  1  0
 45 46  1  0
  9 47  1  0
 47 48  2  0
 48  6  1  0
 45 13  2  0
 44 15  1  0
 29 18  1  0
 43 32  1  0
 27 22  1  0
 41 36  1  0
M  END
>  <Binding energies>  (39) 
[-10.46]

>  <Ligand effiencies>  (39) 
[-0.20509803921568628]

>  <Interactions>  (39) 
["V-A:HIS:456:CD2:4068, V-B:GLU:543:CD:9880, H-B:LYS:547:NZ:9923, V-B:GLU:543:C:9874, V-B:GLU:543:CB:9878, V-A:HIS:456:CE1:4069, H-A:HIS:456:NE2:4070, V-B:HIS:456:CE1:9040, V-B:GLU:543:CG:9879, V-A:GLU:543:CD:4908, V-B:TRP:381:CH2:8343, V-B:PRO:482:CG:9298, V-B:LEU:475:CD1:9229, V-B:PRO:482:CB:9297, V-A:ALA:541:CB:4892, V-A:TYR:539:CD2:4874, V-B:ALA:541:CB:9864, V-A:TYR:484:CZ:4347, V-A:LEU:475:CD1:4258, V-A:GLU:543:CB:4906, V-A:TYR:484:CE1:4345, H-A:TYR:484:OH:4348, V-A:ILE:369:CD1:3239, V-B:TYR:484:CZ:9318, V-B:TRP:381:CZ2:8341, V-B:TYR:484:CE1:9316, V-A:TRP:381:CH2:3372, V-A:PRO:482:CB:4326, V-A:HIS:456:CG:4066, V-A:TYR:484:CD2:4344, V-A:TYR:484:CE2:4346, V-A:TYR:484:CD1:4343, V-A:HIS:456:CB:4065, V-A:TYR:484:CG:4342, H-B:GLU:543:O:9875, V-B:LYS:547:CE:9922, V-A:ASP:473:CG:4240, V-B:GLY:544:CA:9886, H-A:HIS:456:ND1:4067, V-A:ASP:473:CB:4239, V-A:TYR:484:CB:4341, H-A:ASP:485:N:4354"]

$$$$
9b_Ghoteimi_2023
     RDKit          3D

 42 48  0  0  0  0  0  0  0  0999 V2000
  129.8730  124.3160   67.5770 N   0  0  0  0  0  0  0  0  0  0  0  0
  129.4400  125.5920   67.8340 C   0  0  0  0  0  0  0  0  0  0  0  0
  129.2140  126.0870   69.1280 C   0  0  0  0  0  0  0  0  0  0  0  0
  129.4020  125.4060   70.4120 C   0  0  0  0  0  0  0  0  0  0  0  0
  129.2960  126.0250   71.4730 O   0  0  0  0  0  0  0  0  0  0  0  0
  129.6980  124.0850   70.3330 N   0  0  0  0  0  0  0  0  0  0  0  0
  129.9350  123.2060   71.3820 C   0  0  0  0  0  0  0  0  0  0  0  0
  131.0770  123.2650   72.1800 C   0  0  0  0  0  0  0  0  0  0  0  0
  130.9310  122.2420   73.0890 C   0  0  0  0  0  0  0  0  0  0  0  0
  129.7620  121.6010   72.8500 O   0  0  0  0  0  0  0  0  0  0  0  0
  129.1400  122.2210   71.7660 N   0  0  0  0  0  0  0  0  0  0  0  0
  128.6330  127.7510   69.0820 S   0  0  0  0  0  0  0  0  0  0  0  0
  128.6780  127.7670   67.3350 C   0  0  0  0  0  0  0  0  0  0  0  0
  128.2950  128.8340   66.6370 N   0  0  0  0  0  0  0  0  0  0  0  0
  128.3520  128.7380   65.2820 C   0  0  0  0  0  0  0  0  0  0  0  0
  127.8970  129.9410   64.5220 C   0  0  0  0  0  0  0  0  0  0  0  0
  127.1520  129.8140   63.3440 C   0  0  0  0  0  0  0  0  0  0  0  0
  126.7430  130.9380   62.6330 C   0  0  0  0  0  0  0  0  0  0  0  0
  127.0770  132.2310   63.0660 C   0  0  0  0  0  0  0  0  0  0  0  0
  126.6710  133.3710   62.3620 N   0  0  0  0  0  0  0  0  0  0  0  0
  125.4220  133.3840   61.5750 C   0  0  0  0  0  0  0  0  0  0  0  0
  124.9600  134.7960   61.1620 C   0  0  0  0  0  0  0  0  0  0  0  0
  126.0020  135.4650   60.4710 O   0  0  0  0  0  0  0  0  0  0  0  0
  127.1560  135.6090   61.2840 C   0  0  0  0  0  0  0  0  0  0  0  0
  127.6850  134.2210   61.7060 C   0  0  0  0  0  0  0  0  0  0  0  0
  127.8070  132.3520   64.2570 C   0  0  0  0  0  0  0  0  0  0  0  0
  128.2120  131.2280   64.9710 C   0  0  0  0  0  0  0  0  0  0  0  0
  128.8160  127.5900   64.6350 C   0  0  0  0  0  0  0  0  0  0  0  0
  129.2390  126.4730   65.3660 C   0  0  0  0  0  0  0  0  0  0  0  0
  129.7510  125.2890   64.6300 C   0  0  0  0  0  0  0  0  0  0  0  0
  129.0010  124.7210   63.6000 C   0  0  0  0  0  0  0  0  0  0  0  0
  129.4860  123.6230   62.8970 C   0  0  0  0  0  0  0  0  0  0  0  0
  130.7360  123.0630   63.2050 C   0  0  0  0  0  0  0  0  0  0  0  0
  131.2500  121.9700   62.5010 N   0  0  0  0  0  0  0  0  0  0  0  0
  130.3260  121.0880   61.7620 C   0  0  0  0  0  0  0  0  0  0  0  0
  130.9560  119.7320   61.3780 C   0  0  0  0  0  0  0  0  0  0  0  0
  132.1490  119.9430   60.6380 O   0  0  0  0  0  0  0  0  0  0  0  0
  133.1070  120.6780   61.3840 C   0  0  0  0  0  0  0  0  0  0  0  0
  132.5310  122.0560   61.7720 C   0  0  0  0  0  0  0  0  0  0  0  0
  131.4890  123.6540   64.2290 C   0  0  0  0  0  0  0  0  0  0  0  0
  131.0030  124.7520   64.9330 C   0  0  0  0  0  0  0  0  0  0  0  0
  129.1550  126.5400   66.7850 C   0  0  0  0  0  0  0  0  0  0  0  0
  1  2  1  0
  2  3  2  0
  3  4  1  0
  4  5  2  0
  4  6  1  0
  6  7  1  0
  7  8  1  0
  8  9  2  0
  9 10  1  0
 10 11  1  0
  3 12  1  0
 12 13  1  0
 13 14  2  0
 14 15  1  0
 15 16  1  0
 16 17  2  0
 17 18  1  0
 18 19  2  0
 19 20  1  0
 20 21  1  0
 21 22  1  0
 22 23  1  0
 23 24  1  0
 24 25  1  0
 19 26  1  0
 26 27  2  0
 15 28  2  0
 28 29  1  0
 29 30  1  0
 30 31  2  0
 31 32  1  0
 32 33  2  0
 33 34  1  0
 34 35  1  0
 35 36  1  0
 36 37  1  0
 37 38  1  0
 38 39  1  0
 33 40  1  0
 40 41  2  0
 29 42  2  0
 42  2  1  0
 11  7  2  0
 42 13  1  0
 27 16  1  0
 41 30  1  0
 25 20  1  0
 39 34  1  0
M  END
>  <Binding energies>  (40) 
[-12.25]

>  <Ligand effiencies>  (40) 
[-0.2722222222222222]

>  <Interactions>  (40) 
["V-A:HIS:456:CD2:4068, V-B:GLU:543:CD:9880, H-B:LYS:547:NZ:9923, V-B:GLU:543:C:9874, V-B:GLU:543:CB:9878, V-A:HIS:456:CE1:4069, H-A:HIS:456:NE2:4070, V-B:HIS:456:CE1:9040, V-B:GLU:543:CG:9879, V-A:GLU:543:CD:4908, V-B:TRP:381:CH2:8343, V-B:PRO:482:CG:9298, V-B:LEU:475:CD1:9229, V-B:PRO:482:CB:9297, V-A:TYR:539:CE2:4876, V-A:ALA:541:CB:4892, V-A:TYR:539:CD2:4874, V-B:ALA:541:CB:9864, V-B:GLU:543:CA:9876, V-A:TYR:484:CZ:4347, V-A:LEU:475:CD1:4258, V-A:GLU:543:CB:4906, V-A:TYR:484:CE1:4345, H-A:TYR:484:OH:4348, V-A:ILE:369:CD1:3239, V-B:TYR:484:CZ:9318, V-B:TRP:381:CZ2:8341, V-B:TYR:484:CE1:9316, V-A:TRP:381:CH2:3372, V-A:PRO:482:CB:4326, V-A:HIS:456:CG:4066, V-A:TYR:484:CD2:4344, V-A:TYR:484:CE2:4346, V-A:TYR:484:CD1:4343, V-A:HIS:456:CB:4065, V-A:TYR:484:CG:4342, H-B:GLU:543:O:9875, H-A:HIS:456:ND1:4067, V-A:ASP:473:CB:4239, V-A:TYR:484:CB:4341"]

$$$$
9c_Ghoteimi_2023
     RDKit          3D

 42 48  0  0  0  0  0  0  0  0999 V2000
  129.9320  124.3330   67.5710 N   0  0  0  0  0  0  0  0  0  0  0  0
  129.4940  125.6030   67.8450 C   0  0  0  0  0  0  0  0  0  0  0  0
  129.2910  126.0870   69.1470 C   0  0  0  0  0  0  0  0  0  0  0  0
  129.5080  125.3970   70.4220 C   0  0  0  0  0  0  0  0  0  0  0  0
  129.4760  126.0150   71.4870 O   0  0  0  0  0  0  0  0  0  0  0  0
  129.7450  124.0650   70.3290 N   0  0  0  0  0  0  0  0  0  0  0  0
  129.9950  123.1870   71.3750 C   0  0  0  0  0  0  0  0  0  0  0  0
  129.3850  122.0530   71.6410 N   0  0  0  0  0  0  0  0  0  0  0  0
  129.8800  121.4780   72.7210 C   0  0  0  0  0  0  0  0  0  0  0  0
  130.9180  122.1530   73.3560 C   0  0  0  0  0  0  0  0  0  0  0  0
  131.2570  123.6180   72.4850 S   0  0  0  0  0  0  0  0  0  0  0  0
  128.6970  127.7470   69.1250 S   0  0  0  0  0  0  0  0  0  0  0  0
  128.7070  127.7760   67.3780 C   0  0  0  0  0  0  0  0  0  0  0  0
  128.3030  128.8460   66.6950 N   0  0  0  0  0  0  0  0  0  0  0  0
  128.3330  128.7590   65.3400 C   0  0  0  0  0  0  0  0  0  0  0  0
  127.8540  129.9660   64.5990 C   0  0  0  0  0  0  0  0  0  0  0  0
  128.2450  131.2540   64.9820 C   0  0  0  0  0  0  0  0  0  0  0  0
  127.7900  132.3740   64.2940 C   0  0  0  0  0  0  0  0  0  0  0  0
  126.9140  132.2480   63.2040 C   0  0  0  0  0  0  0  0  0  0  0  0
  126.4520  133.3650   62.4970 N   0  0  0  0  0  0  0  0  0  0  0  0
  125.1760  133.3310   61.7540 C   0  0  0  0  0  0  0  0  0  0  0  0
  124.6590  134.7250   61.3390 C   0  0  0  0  0  0  0  0  0  0  0  0
  125.6580  135.4110   60.6000 O   0  0  0  0  0  0  0  0  0  0  0  0
  126.8340  135.5990   61.3700 C   0  0  0  0  0  0  0  0  0  0  0  0
  127.4170  134.2330   61.7910 C   0  0  0  0  0  0  0  0  0  0  0  0
  126.5410  130.9550   62.8120 C   0  0  0  0  0  0  0  0  0  0  0  0
  127.0000  129.8340   63.4980 C   0  0  0  0  0  0  0  0  0  0  0  0
  128.7910  127.6200   64.6740 C   0  0  0  0  0  0  0  0  0  0  0  0
  129.2370  126.5010   65.3880 C   0  0  0  0  0  0  0  0  0  0  0  0
  129.7430  125.3270   64.6350 C   0  0  0  0  0  0  0  0  0  0  0  0
  128.9880  124.7750   63.5980 C   0  0  0  0  0  0  0  0  0  0  0  0
  129.4670  123.6840   62.8790 C   0  0  0  0  0  0  0  0  0  0  0  0
  130.7140  123.1140   63.1790 C   0  0  0  0  0  0  0  0  0  0  0  0
  131.2210  122.0250   62.4620 N   0  0  0  0  0  0  0  0  0  0  0  0
  130.2890  121.1680   61.7020 C   0  0  0  0  0  0  0  0  0  0  0  0
  130.9050  119.8110   61.2950 C   0  0  0  0  0  0  0  0  0  0  0  0
  132.1030  120.0220   60.5640 O   0  0  0  0  0  0  0  0  0  0  0  0
  133.0670  120.7300   61.3290 C   0  0  0  0  0  0  0  0  0  0  0  0
  132.5060  122.1080   61.7430 C   0  0  0  0  0  0  0  0  0  0  0  0
  131.4730  123.6890   64.2090 C   0  0  0  0  0  0  0  0  0  0  0  0
  130.9940  124.7810   64.9280 C   0  0  0  0  0  0  0  0  0  0  0  0
  129.1810  126.5560   66.8100 C   0  0  0  0  0  0  0  0  0  0  0  0
  1  2  1  0
  2  3  2  0
  3  4  1  0
  4  5  2  0
  4  6  1  0
  6  7  1  0
  7  8  2  0
  8  9  1  0
  9 10  2  0
 10 11  1  0
  3 12  1  0
 12 13  1  0
 13 14  2  0
 14 15  1  0
 15 16  1  0
 16 17  2  0
 17 18  1  0
 18 19  2  0
 19 20  1  0
 20 21  1  0
 21 22  1  0
 22 23  1  0
 23 24  1  0
 24 25  1  0
 19 26  1  0
 26 27  2  0
 15 28  2  0
 28 29  1  0
 29 30  1  0
 30 31  2  0
 31 32  1  0
 32 33  2  0
 33 34  1  0
 34 35  1  0
 35 36  1  0
 36 37  1  0
 37 38  1  0
 38 39  1  0
 33 40  1  0
 40 41  2  0
 29 42  2  0
 42  2  1  0
 11  7  1  0
 42 13  1  0
 27 16  1  0
 41 30  1  0
 25 20  1  0
 39 34  1  0
M  END
>  <Binding energies>  (41) 
[-11.1]

>  <Ligand effiencies>  (41) 
[-0.24666666666666665]

>  <Interactions>  (41) 
["V-A:HIS:456:CD2:4068, V-B:GLU:543:CD:9880, H-B:LYS:547:NZ:9923, V-B:GLU:543:C:9874, V-B:GLU:543:CB:9878, V-A:HIS:456:CE1:4069, H-A:HIS:456:NE2:4070, V-B:HIS:456:CE1:9040, V-B:GLU:543:CG:9879, V-A:GLU:543:CD:4908, V-B:TRP:381:CH2:8343, V-B:PRO:482:CG:9298, V-B:LEU:475:CD1:9229, V-B:PRO:482:CB:9297, V-A:ALA:541:CB:4892, V-A:TYR:539:CD2:4874, V-B:ALA:541:CB:9864, V-B:GLU:543:CA:9876, V-A:TYR:484:CZ:4347, V-A:LEU:475:CD1:4258, V-A:GLU:543:CB:4906, V-A:TYR:484:CE1:4345, H-A:TYR:484:OH:4348, V-A:ILE:369:CD1:3239, V-B:TYR:484:CZ:9318, V-B:TRP:381:CZ2:8341, V-B:TYR:484:CE1:9316, V-B:TYR:539:CD2:9846, V-A:TRP:381:CH2:3372, V-A:HIS:456:CG:4066, V-A:TYR:484:CD2:4344, V-A:TYR:484:CE2:4346, V-A:TYR:484:CD1:4343, V-A:HIS:456:CB:4065, V-A:TYR:484:CG:4342, H-B:GLU:543:O:9875, V-B:LYS:547:CE:9922, V-A:ASP:473:CG:4240, H-A:HIS:456:ND1:4067, V-A:ASP:473:CB:4239, V-A:TYR:484:CB:4341"]

$$$$
RR11_Rahimova_2017
     RDKit          3D

 33 38  0  0  0  0  0  0  0  0999 V2000
  134.9830  123.5540   60.0620 N   0  0  0  0  0  0  0  0  0  0  0  0
  134.1010  123.8880   61.0880 C   0  0  0  0  0  0  0  0  0  0  0  0
  134.5980  124.2900   62.3260 C   0  0  0  0  0  0  0  0  0  0  0  0
  133.7160  124.6250   63.3490 C   0  0  0  0  0  0  0  0  0  0  0  0
  132.3310  124.5620   63.1450 C   0  0  0  0  0  0  0  0  0  0  0  0
  131.3830  124.9300   64.2470 C   0  0  0  0  0  0  0  0  0  0  0  0
  130.8010  126.1030   64.3670 N   0  0  0  0  0  0  0  0  0  0  0  0
  130.0180  126.0070   65.4870 C   0  0  0  0  0  0  0  0  0  0  0  0
  129.1770  126.9680   66.0660 C   0  0  0  0  0  0  0  0  0  0  0  0
  128.4580  126.6180   67.2150 C   0  0  0  0  0  0  0  0  0  0  0  0
  127.5420  127.6430   67.8690 C   0  0  0  0  0  0  0  0  0  0  0  0
  126.5690  128.2820   66.8880 C   0  0  0  0  0  0  0  0  0  0  0  0
  125.3480  128.7820   67.3540 C   0  0  0  0  0  0  0  0  0  0  0  0
  124.4280  129.3850   66.4950 C   0  0  0  0  0  0  0  0  0  0  0  0
  124.7600  129.4870   65.1380 C   0  0  0  0  0  0  0  0  0  0  0  0
  124.0360  130.0210   64.1040 N   0  0  0  0  0  0  0  0  0  0  0  0
  124.7870  129.8650   63.0360 C   0  0  0  0  0  0  0  0  0  0  0  0
  124.3930  130.2910   61.6510 C   0  0  0  0  0  0  0  0  0  0  0  0
  125.0940  129.8160   60.5350 C   0  0  0  0  0  0  0  0  0  0  0  0
  124.7360  130.2190   59.2510 C   0  0  0  0  0  0  0  0  0  0  0  0
  123.6720  131.1010   59.0740 C   0  0  0  0  0  0  0  0  0  0  0  0
  123.3160  131.5090   57.7890 N   0  0  0  0  0  0  0  0  0  0  0  0
  122.9640  131.5780   60.1740 C   0  0  0  0  0  0  0  0  0  0  0  0
  123.3230  131.1750   61.4570 C   0  0  0  0  0  0  0  0  0  0  0  0
  125.9860  129.2520   63.3330 N   0  0  0  0  0  0  0  0  0  0  0  0
  126.0040  128.9880   64.6820 C   0  0  0  0  0  0  0  0  0  0  0  0
  126.9310  128.3890   65.5380 C   0  0  0  0  0  0  0  0  0  0  0  0
  128.5960  125.3470   67.7830 C   0  0  0  0  0  0  0  0  0  0  0  0
  129.4290  124.3690   67.2330 C   0  0  0  0  0  0  0  0  0  0  0  0
  130.1290  124.7260   66.0780 C   0  0  0  0  0  0  0  0  0  0  0  0
  131.0140  124.0660   65.2580 N   0  0  0  0  0  0  0  0  0  0  0  0
  131.8460  124.1550   61.8950 C   0  0  0  0  0  0  0  0  0  0  0  0
  132.7260  123.8190   60.8700 C   0  0  0  0  0  0  0  0  0  0  0  0
  1  2  1  0
  2  3  2  0
  3  4  1  0
  4  5  2  0
  5  6  1  0
  6  7  2  0
  7  8  1  0
  8  9  2  0
  9 10  1  0
 10 11  1  0
 11 12  1  0
 12 13  2  0
 13 14  1  0
 14 15  2  0
 15 16  1  0
 16 17  2  0
 17 18  1  0
 18 19  2  0
 19 20  1  0
 20 21  2  0
 21 22  1  0
 21 23  1  0
 23 24  2  0
 17 25  1  0
 25 26  1  0
 26 27  2  0
 10 28  2  0
 28 29  1  0
 29 30  2  0
 30 31  1  0
  5 32  1  0
 32 33  2  0
 33  2  1  0
 31  6  1  0
 30  8  1  0
 27 12  1  0
 26 15  1  0
 24 18  1  0
M  END
>  <Binding energies>  (42) 
[-7.84]

>  <Ligand effiencies>  (42) 
[-0.20102564102564102]

>  <Interactions>  (42) 
["V-B:ARG:545:CG:9894, V-B:GLU:543:CD:9880, V-B:GLU:543:C:9874, V-B:GLU:543:CB:9878, V-A:HIS:456:CE1:4069, V-B:ARG:545:CZ:9898, V-B:ARG:545:CD:9895, V-B:HIS:456:CE1:9040, V-A:GLU:543:CD:4908, H-B:GLY:454:N:9021, V-B:ILE:369:CB:8207, V-B:ASP:366:CG:8184, V-B:ASP:366:CA:8181, V-B:ASP:366:CB:8183, V-B:ASP:366:C:8179, V-B:ILE:369:CD1:8210, V-A:TYR:539:CE2:4876, V-B:ILE:369:CG2:8208, H-B:ARG:545:NH2:9900, V-B:GLU:543:CA:9876, H-B:ARG:545:NE:9896, V-A:TYR:484:CZ:4347, V-A:TYR:484:CE1:4345, V-A:ARG:545:CZ:4926, V-A:GLY:453:CA:4044, H-A:TYR:484:OH:4348, V-A:GLY:453:C:4042, V-A:ASP:366:CB:3212, V-A:ASP:366:CG:3213, V-A:ILE:369:CB:3236, H-A:ASP:366:O:3209, V-A:ILE:369:CG2:3237, V-A:ASP:366:CA:3210, V-A:ILE:369:CG1:3238, V-A:ILE:369:CD1:3239, H-A:TYR:539:OH:4878, V-A:TYR:539:CZ:4877, V-B:ILE:369:CG1:8209, H-B:GLU:543:OE1:9881, H-A:ASP:366:OD2:3215, H-B:ASP:366:O:8180, H-A:CYS:365:O:3206"]

$$$$
RR16_Rahimova_2017
     RDKit          3D

 44 49  0  0  0  0  0  0  0  0999 V2000
  123.6170  130.0840   63.5840 O   0  0  0  0  0  0  0  0  0  0  0  0
  124.7000  130.9440   64.0740 S   0  0  0  0  0  0  0  0  0  0  0  0
  124.4060  132.2260   64.7260 O   0  0  0  0  0  0  0  0  0  0  0  0
  125.7870  131.2540   62.7200 N   0  0  0  0  0  0  0  0  0  0  0  0
  126.0300  132.6350   62.2390 C   0  0  0  0  0  0  0  0  0  0  0  0
  127.3250  132.6570   61.3860 C   0  0  0  0  0  0  0  0  0  0  0  0
  128.1630  133.9490   61.4060 C   0  0  0  0  0  0  0  0  0  0  0  0
  127.4330  135.1760   60.8320 C   0  0  0  0  0  0  0  0  0  0  0  0
  126.0160  135.4320   61.3810 C   0  0  0  0  0  0  0  0  0  0  0  0
  124.8870  134.5210   60.8610 C   0  0  0  0  0  0  0  0  0  0  0  0
  124.7520  133.1400   61.5300 C   0  0  0  0  0  0  0  0  0  0  0  0
  125.6710  129.9600   65.2090 C   0  0  0  0  0  0  0  0  0  0  0  0
  127.0650  130.0490   65.2050 C   0  0  0  0  0  0  0  0  0  0  0  0
  127.8130  129.1900   66.0050 C   0  0  0  0  0  0  0  0  0  0  0  0
  127.1650  128.2480   66.8060 C   0  0  0  0  0  0  0  0  0  0  0  0
  128.1250  127.0490   67.7280 S   0  0  0  0  0  0  0  0  0  0  0  0
  127.1900  126.0450   68.2510 O   0  0  0  0  0  0  0  0  0  0  0  0
  128.9990  127.7960   68.6420 O   0  0  0  0  0  0  0  0  0  0  0  0
  129.1440  126.2730   66.5000 N   0  0  0  0  0  0  0  0  0  0  0  0
  128.6870  126.4770   65.1010 C   0  0  0  0  0  0  0  0  0  0  0  0
  129.4330  125.5260   64.1440 C   0  0  0  0  0  0  0  0  0  0  0  0
  130.9690  125.6420   64.3010 C   0  0  0  0  0  0  0  0  0  0  0  0
  131.7290  124.6720   63.3920 C   0  0  0  0  0  0  0  0  0  0  0  0
  133.1020  124.8500   63.1770 C   0  0  0  0  0  0  0  0  0  0  0  0
  133.8350  123.9850   62.3630 C   0  0  0  0  0  0  0  0  0  0  0  0
  135.1790  124.1730   62.1670 O   0  0  0  0  0  0  0  0  0  0  0  0
  133.1600  122.9160   61.7560 C   0  0  0  0  0  0  0  0  0  0  0  0
  133.6100  121.9180   60.9400 N   0  0  0  0  0  0  0  0  0  0  0  0
  132.5370  121.1050   60.6490 N   0  0  0  0  0  0  0  0  0  0  0  0
  131.4410  121.6180   61.2400 N   0  0  0  0  0  0  0  0  0  0  0  0
  130.1690  120.9100   61.1690 C   0  0  0  0  0  0  0  0  0  0  0  0
  129.0130  121.8160   60.7710 C   0  0  0  0  0  0  0  0  0  0  0  0
  128.3570  122.5830   61.7390 C   0  0  0  0  0  0  0  0  0  0  0  0
  127.3110  123.4320   61.3730 C   0  0  0  0  0  0  0  0  0  0  0  0
  126.9170  123.5180   60.0380 C   0  0  0  0  0  0  0  0  0  0  0  0
  127.5680  122.7570   59.0670 C   0  0  0  0  0  0  0  0  0  0  0  0
  127.0890  122.8690   57.4130 Cl  0  0  0  0  0  0  0  0  0  0  0  0
  128.6120  121.9040   59.4330 C   0  0  0  0  0  0  0  0  0  0  0  0
  131.7720  122.7470   61.9720 C   0  0  0  0  0  0  0  0  0  0  0  0
  131.0350  123.6150   62.7850 C   0  0  0  0  0  0  0  0  0  0  0  0
  131.4180  125.5530   65.7830 C   0  0  0  0  0  0  0  0  0  0  0  0
  130.6010  126.4960   66.6890 C   0  0  0  0  0  0  0  0  0  0  0  0
  125.7690  128.1880   66.8410 C   0  0  0  0  0  0  0  0  0  0  0  0
  125.0220  129.0440   66.0380 C   0  0  0  0  0  0  0  0  0  0  0  0
  1  2  2  0
  2  3  2  0
  2  4  1  0
  4  5  1  0
  5  6  1  0
  6  7  1  0
  7  8  1  0
  8  9  1  0
  9 10  1  0
 10 11  1  0
  2 12  1  0
 12 13  2  0
 13 14  1  0
 14 15  2  0
 15 16  1  0
 16 17  2  0
 16 18  2  0
 16 19  1  0
 19 20  1  0
 20 21  1  0
 21 22  1  0
 22 23  1  0
 23 24  2  0
 24 25  1  0
 25 26  1  0
 25 27  2  0
 27 28  1  0
 28 29  2  0
 29 30  1  0
 30 31  1  0
 31 32  1  0
 32 33  2  0
 33 34  1  0
 34 35  2  0
 35 36  1  0
 36 37  1  0
 36 38  2  0
 30 39  1  0
 39 40  2  0
 22 41  1  0
 41 42  1  0
 15 43  1  0
 43 44  2  0
 11  5  1  0
 44 12  1  0
 42 19  1  0
 40 23  1  0
 39 27  1  0
 38 32  1  0
M  END
>  <Binding energies>  (43) 
[-10.88]

>  <Ligand effiencies>  (43) 
[-0.22666666666666668]

>  <Interactions>  (43) 
["V-B:ARG:545:CG:9894, H-B:HIS:456:NE2:9041, V-B:GLU:543:CD:9880, V-B:GLU:543:CB:9878, V-A:HIS:456:CE1:4069, V-B:ARG:545:CZ:9898, H-A:HIS:456:NE2:4070, V-B:ARG:545:CD:9895, V-B:HIS:456:CE1:9040, V-B:GLU:543:CG:9879, V-A:GLU:543:CD:4908, V-B:TRP:381:CH2:8343, H-B:GLY:454:N:9021, V-A:TYR:539:C:4867, V-B:GLY:454:CA:9020, V-A:ALA:541:CA:4890, V-B:PRO:482:CG:9298, V-B:LEU:475:CD1:9229, H-B:ARG:545:NH1:9899, V-A:TYR:539:CE2:4876, V-A:ALA:541:CB:4892, H-B:TYR:484:OH:9319, V-B:ILE:369:CG2:8208, H-B:ARG:545:NH2:9900, V-A:TYR:539:CD2:4874, V-A:PRO:540:C:4881, V-B:ALA:541:CB:9864, V-A:LEU:475:CD1:4258, V-A:GLU:543:CB:4906, H-A:GLY:454:N:4050, V-A:ARG:545:CZ:4926, V-B:TYR:539:CE2:9848, V-B:PRO:540:CA:9855, V-B:TRP:381:CZ2:8341, V-B:TYR:539:CD2:9846, V-B:ALA:541:CA:9862, V-B:PRO:540:N:9856, V-B:TYR:539:C:9839, H-A:ASP:366:OD2:3215"]

$$$$
RR18_Rahimova_2017
     RDKit          3D

 36 41  0  0  0  0  0  0  0  0999 V2000
  129.7240  131.9890   57.5990 C   0  0  0  0  0  0  0  0  0  0  0  0
  129.3130  130.9160   58.5770 C   0  0  0  0  0  0  0  0  0  0  0  0
  129.9760  130.2030   59.5620 C   0  0  0  0  0  0  0  0  0  0  0  0
  129.0400  129.3400   60.1330 C   0  0  0  0  0  0  0  0  0  0  0  0
  127.8400  129.5570   59.4760 C   0  0  0  0  0  0  0  0  0  0  0  0
  126.4400  128.9650   59.6070 C   0  0  1  0  0  0  0  0  0  0  0  0
  125.3840  129.8170   58.8400 C   0  0  0  0  0  0  0  0  0  0  0  0
  125.0900  131.1820   59.2620 C   0  0  0  0  0  0  0  0  0  0  0  0
  124.0240  131.7340   58.9820 O   0  0  0  0  0  0  0  0  0  0  0  0
  126.0730  131.7630   59.9890 N   0  0  0  0  0  0  0  0  0  0  0  0
  126.1550  133.0580   60.5440 C   0  0  0  0  0  0  0  0  0  0  0  0
  125.1210  134.0080   60.4520 C   0  0  0  0  0  0  0  0  0  0  0  0
  125.2680  135.2730   61.0160 C   0  0  0  0  0  0  0  0  0  0  0  0
  126.4470  135.6120   61.6740 C   0  0  0  0  0  0  0  0  0  0  0  0
  127.4830  134.6860   61.7630 C   0  0  0  0  0  0  0  0  0  0  0  0
  127.3500  133.4120   61.2020 C   0  0  0  0  0  0  0  0  0  0  0  0
  128.5170  132.4360   61.3240 C   0  0  0  0  0  0  0  0  0  0  0  0
  124.8260  129.2970   57.7160 C   0  0  0  0  0  0  0  0  0  0  0  0
  125.0290  128.0280   57.2630 N   0  0  0  0  0  0  0  0  0  0  0  0
  125.7280  127.2130   57.9620 C   0  0  0  0  0  0  0  0  0  0  0  0
  125.9490  125.5200   57.5870 S   0  0  0  0  0  0  0  0  0  0  0  0
  126.9530  125.2730   59.0510 C   0  0  0  0  0  0  0  0  0  0  0  0
  127.5370  124.0970   59.4700 C   0  0  0  0  0  0  0  0  0  0  0  0
  127.2990  122.8460   58.7360 C   0  0  0  0  0  0  0  0  0  0  0  0
  126.6400  122.6390   57.7170 O   0  0  0  0  0  0  0  0  0  0  0  0
  127.9380  121.8720   59.3910 N   0  0  0  0  0  0  0  0  0  0  0  0
  128.6200  122.3220   60.4800 C   0  0  0  0  0  0  0  0  0  0  0  0
  129.3960  121.5800   61.3690 C   0  0  0  0  0  0  0  0  0  0  0  0
  130.0420  122.2400   62.4110 C   0  0  0  0  0  0  0  0  0  0  0  0
  129.9100  123.6220   62.5390 C   0  0  0  0  0  0  0  0  0  0  0  0
  129.1250  124.3430   61.6350 C   0  0  0  0  0  0  0  0  0  0  0  0
  128.4450  123.6900   60.5900 C   0  0  0  0  0  0  0  0  0  0  0  0
  127.0440  126.5510   59.7570 C   0  0  0  0  0  0  0  0  0  0  0  0
  127.6070  126.7540   60.8280 O   0  0  0  0  0  0  0  0  0  0  0  0
  126.3940  127.5480   59.0980 N   0  0  0  0  0  0  0  0  0  0  0  0
  128.0150  130.5180   58.5290 O   0  0  0  0  0  0  0  0  0  0  0  0
  1  2  1  0
  2  3  2  0
  3  4  1  0
  4  5  2  0
  6  5  1  6
  6  7  1  0
  7  8  1  0
  8  9  2  0
  8 10  1  0
 10 11  1  0
 11 12  2  0
 12 13  1  0
 13 14  2  0
 14 15  1  0
 15 16  2  0
 16 17  1  0
  7 18  2  0
 18 19  1  0
 19 20  2  0
 20 21  1  0
 21 22  1  0
 22 23  2  0
 23 24  1  0
 24 25  2  0
 24 26  1  0
 26 27  1  0
 27 28  2  0
 28 29  1  0
 29 30  2  0
 30 31  1  0
 31 32  2  0
 22 33  1  0
 33 34  2  0
 33 35  1  0
  5 36  1  0
 36  2  1  0
 35  6  1  0
 16 11  1  0
 35 20  1  0
 32 23  1  0
 32 27  1  0
M  END
>  <Binding energies>  (44) 
[-7.87]

>  <Ligand effiencies>  (44) 
[-0.20710526315789474]

>  <Interactions>  (44) 
["V-B:TRP:381:CH2:8343, V-A:PRO:540:N:4884, V-A:TYR:539:C:4867, V-B:ASP:366:CG:8184, V-B:ASP:366:CB:8183, V-B:PRO:482:CG:9298, V-B:LEU:475:CD1:9229, V-B:PRO:482:CB:9297, V-A:PRO:540:CA:4883, V-A:TYR:539:CE2:4876, V-A:ALA:541:CB:4892, V-B:ILE:369:CG2:8208, V-A:TYR:539:CD2:4874, V-B:ALA:541:CB:9864, V-B:TYR:539:CE2:9848, V-B:PRO:540:CA:9855, H-A:TYR:539:OH:4878, V-A:TYR:539:CZ:4877, V-B:TRP:381:CZ2:8341, V-B:TYR:539:CD2:9846, V-B:PRO:540:N:9856, V-B:TYR:539:C:9839, V-B:PRO:540:C:9853, H-B:TYR:539:O:9840, H-B:TYR:531:OH:9767"]

$$$$
RR20_Rahimova_2017
     RDKit          3D

 38 43  0  0  0  0  0  0  0  0999 V2000
  127.6610  134.9620   61.2860 C   0  0  0  0  0  0  0  0  0  0  0  0
  126.7610  133.8990   61.8900 C   0  0  0  0  0  0  0  0  0  0  0  0
  125.5310  133.6110   61.2980 C   0  0  0  0  0  0  0  0  0  0  0  0
  124.7090  132.6300   61.8450 C   0  0  0  0  0  0  0  0  0  0  0  0
  125.1030  131.9380   62.9970 C   0  0  0  0  0  0  0  0  0  0  0  0
  124.2040  130.8620   63.5640 C   0  0  0  0  0  0  0  0  0  0  0  0
  123.2880  130.4490   62.8490 O   0  0  0  0  0  0  0  0  0  0  0  0
  124.4440  130.3830   64.8200 N   0  0  0  0  0  0  0  0  0  0  0  0
  123.3900  130.3520   65.8470 C   0  0  0  0  0  0  0  0  0  0  0  0
  123.9790  129.6230   67.0420 C   0  0  0  0  0  0  0  0  0  0  0  0
  125.1950  128.9640   66.4660 C   0  0  0  0  0  0  0  0  0  0  0  0
  126.0920  128.0860   67.0750 C   0  0  0  0  0  0  0  0  0  0  0  0
  127.2690  127.7000   66.4210 C   0  0  0  0  0  0  0  0  0  0  0  0
  128.2310  126.7470   67.0730 C   0  0  0  0  0  0  0  0  0  0  0  0
  128.1660  126.5880   68.3860 N   0  0  0  0  0  0  0  0  0  0  0  0
  129.0340  125.7220   68.8430 C   0  0  0  0  0  0  0  0  0  0  0  0
  129.2290  125.3180   70.1550 N   0  0  0  0  0  0  0  0  0  0  0  0
  129.6060  126.0960   71.1990 C   0  0  0  0  0  0  0  0  0  0  0  0
  129.8100  127.3090   71.1160 O   0  0  0  0  0  0  0  0  0  0  0  0
  129.7640  125.4270   72.5840 C   0  0  0  0  0  0  0  0  0  0  0  0
  128.7350  125.8530   73.5510 N   0  0  0  0  0  0  0  0  0  0  0  0
  129.2800  126.7200   74.6060 C   0  0  0  0  0  0  0  0  0  0  0  0
  128.2350  126.9160   75.7270 C   0  0  0  0  0  0  0  0  0  0  0  0
  126.8380  127.2350   75.1930 C   0  0  0  0  0  0  0  0  0  0  0  0
  125.8310  127.7050   76.0430 C   0  0  0  0  0  0  0  0  0  0  0  0
  124.5480  127.9580   75.5640 C   0  0  0  0  0  0  0  0  0  0  0  0
  124.2570  127.7460   74.2200 C   0  0  0  0  0  0  0  0  0  0  0  0
  125.2530  127.2870   73.3610 C   0  0  0  0  0  0  0  0  0  0  0  0
  126.5460  127.0270   73.8300 C   0  0  0  0  0  0  0  0  0  0  0  0
  127.6530  126.5790   72.8750 C   0  0  0  0  0  0  0  0  0  0  0  0
  130.0420  125.0220   67.6370 S   0  0  0  0  0  0  0  0  0  0  0  0
  129.2280  125.9850   66.4270 C   0  0  0  0  0  0  0  0  0  0  0  0
  129.6570  125.9190   64.9780 C   0  0  0  0  0  0  0  0  0  0  0  0
  127.5520  128.2610   65.1660 C   0  0  0  0  0  0  0  0  0  0  0  0
  126.6660  129.1540   64.5630 C   0  0  0  0  0  0  0  0  0  0  0  0
  125.4520  129.4650   65.1900 C   0  0  0  0  0  0  0  0  0  0  0  0
  126.3520  132.2120   63.5690 C   0  0  0  0  0  0  0  0  0  0  0  0
  127.1760  133.1930   63.0210 C   0  0  0  0  0  0  0  0  0  0  0  0
  1  2  1  0
  2  3  2  0
  3  4  1  0
  4  5  2  0
  5  6  1  0
  6  7  2  0
  6  8  1  0
  8  9  1  0
  9 10  1  0
 10 11  1  0
 11 12  2  0
 12 13  1  0
 13 14  1  0
 14 15  1  0
 15 16  2  0
 16 17  1  0
 17 18  1  0
 18 19  2  0
 18 20  1  0
 20 21  1  0
 21 22  1  0
 22 23  1  0
 23 24  1  0
 24 25  2  0
 25 26  1  0
 26 27  2  0
 27 28  1  0
 28 29  2  0
 29 30  1  0
 16 31  1  0
 31 32  1  0
 32 33  1  0
 13 34  2  0
 34 35  1  0
 35 36  2  0
  5 37  1  0
 37 38  2  0
 38  2  1  0
 36  8  1  0
 36 11  1  0
 32 14  2  0
 30 21  1  0
 29 24  1  0
M  END
>  <Binding energies>  (45) 
[-10.83]

>  <Ligand effiencies>  (45) 
[-0.2776923076923077]

>  <Interactions>  (45) 
["V-B:ARG:545:CG:9894, V-A:HIS:456:CD2:4068, V-B:GLU:543:CD:9880, H-B:LYS:547:NZ:9923, V-B:GLU:543:C:9874, V-B:GLU:543:CB:9878, V-A:HIS:456:CE1:4069, V-B:ARG:545:CZ:9898, H-A:HIS:456:NE2:4070, V-B:ARG:545:CD:9895, V-B:HIS:456:CE1:9040, V-B:ILE:455:C:9023, H-B:GLY:454:N:9021, V-B:GLY:454:CA:9020, V-B:PRO:482:CG:9298, V-B:LEU:475:CD1:9229, H-B:ARG:545:NH1:9899, V-A:TYR:539:CE2:4876, V-A:ALA:541:CB:4892, H-B:ARG:545:NH2:9900, V-A:TYR:539:CD2:4874, V-B:GLY:453:CA:9015, V-B:GLY:453:C:9013, V-A:TYR:484:CZ:4347, V-A:TYR:484:CE1:4345, V-B:TYR:484:CZ:9318, V-B:GLY:454:C:9018, V-B:GLY:544:C:9884, V-B:HIS:456:CB:9036, V-B:LYS:547:CD:9921, V-B:HIS:456:C:9032, V-B:ARG:545:C:9889, V-B:VAL:458:CG2:9058, V-B:VAL:457:C:9044, V-B:HIS:456:CG:9037, V-B:HIS:456:CA:9034, H-B:GLU:543:O:9875"]

$$$$
RR21_Rahimova_2017
     RDKit          3D

 40 45  0  0  0  0  0  0  0  0999 V2000
  133.7880  124.2910   62.3280 C   0  0  0  0  0  0  0  0  0  0  0  0
  133.6450  124.3860   63.7420 O   0  0  0  0  0  0  0  0  0  0  0  0
  132.4860  124.9230   64.2690 C   0  0  0  0  0  0  0  0  0  0  0  0
  131.2890  125.0800   63.5500 C   0  0  0  0  0  0  0  0  0  0  0  0
  130.1620  125.6290   64.1590 C   0  0  0  0  0  0  0  0  0  0  0  0
  130.1980  126.0320   65.4990 C   0  0  0  0  0  0  0  0  0  0  0  0
  128.9840  126.6180   66.1520 C   0  0  0  0  0  0  0  0  0  0  0  0
  128.2140  127.4490   65.4780 N   0  0  0  0  0  0  0  0  0  0  0  0
  127.2170  127.8060   66.3020 N   0  0  0  0  0  0  0  0  0  0  0  0
  126.1870  128.6870   65.8830 C   0  0  0  0  0  0  0  0  0  0  0  0
  126.3020  129.4050   64.6820 C   0  0  0  0  0  0  0  0  0  0  0  0
  125.2830  130.2640   64.2790 C   0  0  0  0  0  0  0  0  0  0  0  0
  124.1470  130.4080   65.0720 C   0  0  0  0  0  0  0  0  0  0  0  0
  124.0220  129.7040   66.2670 C   0  0  0  0  0  0  0  0  0  0  0  0
  125.0400  128.8450   66.6730 C   0  0  0  0  0  0  0  0  0  0  0  0
  127.3540  127.1730   67.5120 C   0  0  0  0  0  0  0  0  0  0  0  0
  128.5030  126.3980   67.4630 C   0  0  0  0  0  0  0  0  0  0  0  0
  129.0350  125.5130   68.4880 C   0  0  0  0  0  0  0  0  0  0  0  0
  129.3060  125.7990   69.7830 C   0  0  0  0  0  0  0  0  0  0  0  0
  129.1010  127.3510   70.6240 S   0  0  0  0  0  0  0  0  0  0  0  0
  129.6760  126.6070   72.1090 C   0  0  0  0  0  0  0  0  0  0  0  0
  129.8030  127.1560   73.2770 N   0  0  0  0  0  0  0  0  0  0  0  0
  130.2720  126.4320   74.4080 C   0  0  0  0  0  0  0  0  0  0  0  0
  130.4010  126.8730   75.5500 O   0  0  0  0  0  0  0  0  0  0  0  0
  130.6170  124.9980   74.1120 C   0  0  0  0  0  0  0  0  0  0  0  0
  131.1530  124.1230   75.2520 C   0  0  0  0  0  0  0  0  0  0  0  0
  130.7040  122.6650   75.1900 C   0  0  0  0  0  0  0  0  0  0  0  0
  130.8850  121.9260   74.0170 C   0  0  0  0  0  0  0  0  0  0  0  0
  130.4910  120.5910   73.9670 C   0  0  0  0  0  0  0  0  0  0  0  0
  129.9180  119.9910   75.0890 C   0  0  0  0  0  0  0  0  0  0  0  0
  129.5010  118.5320   75.0330 C   0  0  0  0  0  0  0  0  0  0  0  0
  129.7470  120.7240   76.2660 C   0  0  0  0  0  0  0  0  0  0  0  0
  130.1400  122.0580   76.3160 C   0  0  0  0  0  0  0  0  0  0  0  0
  130.4900  124.4660   72.9400 N   0  0  0  0  0  0  0  0  0  0  0  0
  130.0050  125.2910   71.9170 N   0  0  0  0  0  0  0  0  0  0  0  0
  129.8360  124.7770   70.6740 C   0  0  0  0  0  0  0  0  0  0  0  0
  130.0910  123.6100   70.3530 O   0  0  0  0  0  0  0  0  0  0  0  0
  131.3910  125.8820   66.2140 C   0  0  0  0  0  0  0  0  0  0  0  0
  132.5210  125.3330   65.6070 C   0  0  0  0  0  0  0  0  0  0  0  0
  133.6590  125.2010   66.3270 F   0  0  0  0  0  0  0  0  0  0  0  0
  1  2  1  0
  2  3  1  0
  3  4  2  0
  4  5  1  0
  5  6  2  0
  6  7  1  0
  7  8  2  0
  8  9  1  0
  9 10  1  0
 10 11  2  0
 11 12  1  0
 12 13  2  0
 13 14  1  0
 14 15  2  0
  9 16  1  0
 16 17  2  0
 17 18  1  0
 18 19  2  0
 19 20  1  0
 20 21  1  0
 21 22  2  0
 22 23  1  0
 23 24  2  0
 23 25  1  0
 25 26  1  0
 26 27  1  0
 27 28  2  0
 28 29  1  0
 29 30  2  0
 30 31  1  0
 30 32  1  0
 32 33  2  0
 25 34  2  0
 34 35  1  0
 35 36  1  0
 36 37  2  0
  6 38  1  0
 38 39  2  0
 39 40  1  0
 39  3  1  0
 17  7  1  0
 36 19  1  0
 15 10  1  0
 35 21  1  0
 33 27  1  0
M  END
>  <Binding energies>  (46) 
[-9.7]

>  <Ligand effiencies>  (46) 
[-0.2425]

>  <Interactions>  (46) 
["V-B:ARG:545:CG:9894, V-A:HIS:456:CD2:4068, V-B:GLU:543:CD:9880, H-B:LYS:547:NZ:9923, V-B:GLU:543:C:9874, H-A:LYS:547:NZ:4951, V-B:GLU:543:CB:9878, V-A:HIS:456:CE1:4069, V-B:ARG:545:CZ:9898, V-B:ARG:545:CD:9895, V-B:HIS:456:CE1:9040, V-A:GLU:543:CD:4908, V-B:GLY:454:CA:9020, H-A:GLY:454:N:4050, H-A:TYR:484:OH:4348, V-A:ARG:545:CD:4923, V-A:ARG:545:CG:4922, V-A:HIS:456:CG:4066, V-A:ASP:473:CG:4240, V-A:ASP:473:CB:4239, V-A:TYR:484:CB:4341"]

$$$$
RR23_Rahimova_2017
     RDKit          3D

 39 44  0  0  0  0  0  0  0  0999 V2000
  133.7440  119.4270   60.8900 C   0  0  0  0  0  0  0  0  0  0  0  0
  132.4930  120.2700   61.0610 C   0  0  0  0  0  0  0  0  0  0  0  0
  132.5990  121.6490   61.2450 C   0  0  0  0  0  0  0  0  0  0  0  0
  131.4500  122.4220   61.3920 C   0  0  0  0  0  0  0  0  0  0  0  0
  130.1870  121.8200   61.3680 C   0  0  0  0  0  0  0  0  0  0  0  0
  128.9510  122.6800   61.5090 C   0  0  0  0  0  0  0  0  0  0  0  0
  127.8550  122.1290   61.3870 O   0  0  0  0  0  0  0  0  0  0  0  0
  129.0890  124.0130   61.7790 N   0  0  0  0  0  0  0  0  0  0  0  0
  128.5470  125.0410   60.8750 C   0  0  0  0  0  0  0  0  0  0  0  0
  128.7600  126.3760   61.5700 C   0  0  0  0  0  0  0  0  0  0  0  0
  129.0660  125.9730   62.9810 C   0  0  0  0  0  0  0  0  0  0  0  0
  129.2650  126.7790   64.1020 C   0  0  0  0  0  0  0  0  0  0  0  0
  129.7020  126.2170   65.3110 C   0  0  0  0  0  0  0  0  0  0  0  0
  129.9340  127.0690   66.5680 C   0  0  2  0  0  0  0  0  0  0  0  0
  129.8530  126.2840   67.7820 N   0  0  0  0  0  0  0  0  0  0  0  0
  129.3980  126.9630   68.7560 C   0  0  0  0  0  0  0  0  0  0  0  0
  129.1640  126.5490   70.0300 N   0  0  0  0  0  0  0  0  0  0  0  0
  129.2240  125.2910   70.5310 C   0  0  0  0  0  0  0  0  0  0  0  0
  129.5520  124.2840   69.9010 O   0  0  0  0  0  0  0  0  0  0  0  0
  128.8380  125.1490   72.0130 C   0  0  0  0  0  0  0  0  0  0  0  0
  130.0590  125.2500   72.8430 N   0  0  0  0  0  0  0  0  0  0  0  0
  130.3140  126.5050   73.3790 N   0  0  0  0  0  0  0  0  0  0  0  0
  131.3510  126.7250   74.1220 N   0  0  0  0  0  0  0  0  0  0  0  0
  132.2400  125.6840   74.4010 C   0  0  0  0  0  0  0  0  0  0  0  0
  133.3500  125.9550   75.2040 C   0  0  0  0  0  0  0  0  0  0  0  0
  134.2550  124.9350   75.5000 C   0  0  0  0  0  0  0  0  0  0  0  0
  134.0550  123.6490   74.9940 C   0  0  0  0  0  0  0  0  0  0  0  0
  132.9460  123.3760   74.1900 C   0  0  0  0  0  0  0  0  0  0  0  0
  132.0370  124.3980   73.8950 C   0  0  0  0  0  0  0  0  0  0  0  0
  130.8330  124.1250   73.0240 C   0  0  0  0  0  0  0  0  0  0  0  0
  130.5830  123.0230   72.5260 O   0  0  0  0  0  0  0  0  0  0  0  0
  128.9950  128.6740   68.4330 S   0  0  0  0  0  0  0  0  0  0  0  0
  129.0280  128.3180   66.6670 C   0  0  2  0  0  0  0  0  0  0  0  0
  127.5790  128.1650   66.1580 C   0  0  0  0  0  0  0  0  0  0  0  0
  129.9800  124.8470   65.3570 C   0  0  0  0  0  0  0  0  0  0  0  0
  129.8010  124.0430   64.2300 C   0  0  0  0  0  0  0  0  0  0  0  0
  129.2870  124.5960   63.0500 C   0  0  0  0  0  0  0  0  0  0  0  0
  130.0870  120.4390   61.1550 C   0  0  0  0  0  0  0  0  0  0  0  0
  131.2350  119.6670   61.0070 C   0  0  0  0  0  0  0  0  0  0  0  0
  1  2  1  0
  2  3  2  0
  3  4  1  0
  4  5  2  0
  5  6  1  0
  6  7  2  0
  6  8  1  0
  8  9  1  0
  9 10  1  0
 10 11  1  0
 11 12  2  0
 12 13  1  0
 14 13  1  6
 14 15  1  0
 15 16  2  0
 16 17  1  0
 17 18  1  0
 18 19  2  0
 18 20  1  0
 20 21  1  0
 21 22  1  0
 22 23  2  0
 23 24  1  0
 24 25  2  0
 25 26  1  0
 26 27  2  0
 27 28  1  0
 28 29  2  0
 29 30  1  0
 30 31  2  0
 16 32  1  0
 32 33  1  0
 33 34  1  1
 13 35  2  0
 35 36  1  0
 36 37  2  0
  5 38  1  0
 38 39  2  0
 39  2  1  0
 37  8  1  0
 37 11  1  0
 33 14  1  0
 30 21  1  0
 29 24  1  0
M  END
>  <Binding energies>  (47) 
[-10.74]

>  <Ligand effiencies>  (47) 
[-0.2685]

>  <Interactions>  (47) 
["H-B:HIS:456:NE2:9041, V-A:HIS:456:CD2:4068, V-B:GLU:543:CD:9880, H-B:LYS:547:NZ:9923, H-A:LYS:547:NZ:4951, V-B:GLU:543:CB:9878, V-A:HIS:456:CE1:4069, H-A:HIS:456:NE2:4070, V-B:GLU:543:CG:9879, V-A:GLU:543:CG:4907, V-A:GLU:543:CD:4908, V-B:ALA:541:CB:9864, V-A:LEU:475:CD1:4258, V-A:GLU:543:CB:4906, V-A:ILE:369:CG2:3237, H-B:ALA:541:N:9863, V-A:ILE:369:CD1:3239, V-B:TYR:539:CD2:9846, V-A:TRP:381:CZ2:3370, V-A:TRP:381:CH2:3372, V-A:HIS:456:CG:4066, V-A:HIS:456:CB:4065, V-A:SER:385:CA:3407, V-A:SER:385:C:3405, V-A:VAL:458:CG2:4087, V-A:HIS:456:C:4061, V-B:LYS:547:CE:9922, V-A:ASP:473:CG:4240, V-A:LYS:547:CD:4949, V-A:ASP:473:CB:4239"]

$$$$
RR26_Rahimova_2017
     RDKit          3D

 38 44  0  0  0  0  0  0  0  0999 V2000
  124.2300  132.3630   61.9290 C   0  0  0  0  0  0  0  0  0  0  0  0
  125.3410  133.3900   61.7530 C   0  0  0  0  0  0  0  0  0  0  0  0
  125.0280  134.6030   61.1300 C   0  0  0  0  0  0  0  0  0  0  0  0
  125.9950  135.5950   60.9780 C   0  0  0  0  0  0  0  0  0  0  0  0
  127.2850  135.3850   61.4570 C   0  0  0  0  0  0  0  0  0  0  0  0
  127.6080  134.1820   62.0800 C   0  0  0  0  0  0  0  0  0  0  0  0
  126.6500  133.1670   62.2330 C   0  0  0  0  0  0  0  0  0  0  0  0
  127.0860  131.8960   62.9020 C   0  0  0  0  0  0  0  0  0  0  0  0
  127.3600  131.8340   64.2020 N   0  0  0  0  0  0  0  0  0  0  0  0
  127.6750  130.5760   64.3520 C   0  0  0  0  0  0  0  0  0  0  0  0
  128.1730  129.5730   65.6650 S   0  0  0  0  0  0  0  0  0  0  0  0
  128.2500  128.1700   64.5340 C   0  0  0  0  0  0  0  0  0  0  0  0
  128.6010  126.8960   64.8180 C   0  0  0  0  0  0  0  0  0  0  0  0
  128.9950  126.3400   66.1020 C   0  0  0  0  0  0  0  0  0  0  0  0
  128.5470  126.6980   67.3650 C   0  0  0  0  0  0  0  0  0  0  0  0
  129.1610  125.8790   68.2780 N   0  0  0  0  0  0  0  0  0  0  0  0
  129.0090  125.8680   69.6890 C   0  0  0  0  0  0  0  0  0  0  0  0
  129.5990  124.8620   70.4670 C   0  0  0  0  0  0  0  0  0  0  0  0
  129.4400  124.8620   71.8500 C   0  0  0  0  0  0  0  0  0  0  0  0
  128.6940  125.8670   72.4600 C   0  0  0  0  0  0  0  0  0  0  0  0
  128.1050  126.8750   71.6980 C   0  0  0  0  0  0  0  0  0  0  0  0
  128.2600  126.8760   70.3150 C   0  0  0  0  0  0  0  0  0  0  0  0
  129.9560  124.9980   67.6520 N   0  0  0  0  0  0  0  0  0  0  0  0
  129.8720  125.2630   66.3640 C   0  0  0  0  0  0  0  0  0  0  0  0
  130.6610  124.4520   65.3820 C   0  0  0  0  0  0  0  0  0  0  0  0
  130.1510  123.2400   64.8910 C   0  0  0  0  0  0  0  0  0  0  0  0
  130.8800  122.4750   63.9790 C   0  0  0  0  0  0  0  0  0  0  0  0
  132.1300  122.9170   63.5510 C   0  0  0  0  0  0  0  0  0  0  0  0
  132.6420  124.1360   64.0200 C   0  0  0  0  0  0  0  0  0  0  0  0
  131.9150  124.8950   64.9360 C   0  0  0  0  0  0  0  0  0  0  0  0
  133.8940  124.5920   63.6580 O   0  0  0  0  0  0  0  0  0  0  0  0
  134.4170  123.9850   62.4720 C   0  0  0  0  0  0  0  0  0  0  0  0
  134.1910  122.4540   62.5000 C   0  0  0  0  0  0  0  0  0  0  0  0
  132.7950  122.1540   62.6120 O   0  0  0  0  0  0  0  0  0  0  0  0
  127.8890  128.5380   63.1680 C   0  0  0  0  0  0  0  0  0  0  0  0
  127.8430  127.8320   62.1590 O   0  0  0  0  0  0  0  0  0  0  0  0
  127.5850  129.9080   63.1880 N   0  0  0  0  0  0  0  0  0  0  0  0
  127.1960  130.7580   62.2330 N   0  0  0  0  0  0  0  0  0  0  0  0
  1  2  1  0
  2  3  2  0
  3  4  1  0
  4  5  2  0
  5  6  1  0
  6  7  2  0
  7  8  1  0
  8  9  1  0
  9 10  2  0
 10 11  1  0
 11 12  1  0
 12 13  2  0
 13 14  1  0
 14 15  2  0
 15 16  1  0
 16 17  1  0
 17 18  2  0
 18 19  1  0
 19 20  2  0
 20 21  1  0
 21 22  2  0
 16 23  1  0
 23 24  2  0
 24 25  1  0
 25 26  2  0
 26 27  1  0
 27 28  2  0
 28 29  1  0
 29 30  2  0
 29 31  1  0
 31 32  1  0
 32 33  1  0
 33 34  1  0
 12 35  1  0
 35 36  2  0
 35 37  1  0
 37 38  1  0
  7  2  1  0
 38  8  2  0
 37 10  1  0
 24 14  1  0
 30 25  1  0
 22 17  1  0
 34 28  1  0
M  END
>  <Binding energies>  (48) 
[-10.14]

>  <Ligand effiencies>  (48) 
[-0.26684210526315794]

>  <Interactions>  (48) 
["V-A:HIS:456:CD2:4068, V-B:GLU:543:CD:9880, V-B:GLU:543:CB:9878, V-A:HIS:456:CE1:4069, H-A:HIS:456:NE2:4070, V-B:HIS:456:CE1:9040, V-B:GLU:543:CG:9879, V-A:GLU:543:CD:4908, V-B:TRP:381:CH2:8343, V-B:PRO:482:CG:9298, V-B:LEU:475:CD1:9229, V-B:PRO:482:CB:9297, V-B:ILE:369:CD1:8210, V-A:TYR:539:CE2:4876, V-A:ALA:541:CB:4892, H-B:TYR:484:OH:9319, V-A:TYR:539:CD2:4874, V-A:TYR:484:CZ:4347, V-A:LEU:475:CD1:4258, V-A:GLU:543:CB:4906, V-A:TYR:484:CE1:4345, H-A:GLY:454:N:4050, V-A:GLY:453:CA:4044, H-A:ARG:545:NH2:4928, H-A:TYR:484:OH:4348, V-A:GLY:453:C:4042, V-A:GLY:454:CA:4049, V-A:ILE:369:CD1:3239, V-B:TRP:381:CZ2:8341, V-B:TRP:381:CZ3:8342"]

$$$$
RR2_Rahimova_2017
     RDKit          3D

 46 50  0  0  0  0  0  0  0  0999 V2000
  128.6870  132.8730   60.2050 C   0  0  0  0  0  0  0  0  0  0  0  0
  129.3260  132.3740   61.3740 O   0  0  0  0  0  0  0  0  0  0  0  0
  129.7730  131.0660   61.3930 C   0  0  0  0  0  0  0  0  0  0  0  0
  128.9870  129.9670   61.7650 C   0  0  0  0  0  0  0  0  0  0  0  0
  129.5250  128.6830   61.7560 C   0  0  0  0  0  0  0  0  0  0  0  0
  130.8580  128.4670   61.3800 C   0  0  0  0  0  0  0  0  0  0  0  0
  131.4220  127.0600   61.3850 C   0  0  0  0  0  0  0  0  0  0  0  0
  131.6630  126.4900   62.4550 O   0  0  0  0  0  0  0  0  0  0  0  0
  131.6430  126.5080   60.1700 N   0  0  0  0  0  0  0  0  0  0  0  0
  132.2450  125.2550   60.1170 N   0  0  0  0  0  0  0  0  0  0  0  0
  132.7990  124.8620   58.9520 C   0  0  0  0  0  0  0  0  0  0  0  0
  132.6610  125.4460   57.8730 O   0  0  0  0  0  0  0  0  0  0  0  0
  133.6740  123.6030   59.0280 C   0  0  0  0  0  0  0  0  0  0  0  0
  132.9520  122.2140   59.9760 S   0  0  0  0  0  0  0  0  0  0  0  0
  132.8670  122.9310   61.5890 C   0  0  0  0  0  0  0  0  0  0  0  0
  133.9280  123.1830   62.3150 N   0  0  0  0  0  0  0  0  0  0  0  0
  133.4900  123.6690   63.5390 N   0  0  0  0  0  0  0  0  0  0  0  0
  132.1790  123.7210   63.4960 C   0  0  0  0  0  0  0  0  0  0  0  0
  131.3390  124.2130   64.6300 C   0  0  0  0  0  0  0  0  0  0  0  0
  131.6230  125.4470   65.2210 C   0  0  0  0  0  0  0  0  0  0  0  0
  130.8520  125.9090   66.2830 C   0  0  0  0  0  0  0  0  0  0  0  0
  129.7750  125.1480   66.7530 C   0  0  0  0  0  0  0  0  0  0  0  0
  128.9700  125.5590   67.8260 N   0  0  0  0  0  0  0  0  0  0  0  0
  128.8160  127.2380   68.3900 S   0  0  0  0  0  0  0  0  0  0  0  0
  130.1480  127.8370   68.2430 O   0  0  0  0  0  0  0  0  0  0  0  0
  128.1390  127.2200   69.6920 O   0  0  0  0  0  0  0  0  0  0  0  0
  127.7540  128.0400   67.1910 C   0  0  0  0  0  0  0  0  0  0  0  0
  128.2990  128.8030   66.1560 C   0  0  0  0  0  0  0  0  0  0  0  0
  127.4550  129.4310   65.2440 C   0  0  0  0  0  0  0  0  0  0  0  0
  126.0710  129.2910   65.3630 C   0  0  0  0  0  0  0  0  0  0  0  0
  125.1520  129.9890   64.3760 C   0  0  0  0  0  0  0  0  0  0  0  0
  125.5290  128.5310   66.4010 C   0  0  0  0  0  0  0  0  0  0  0  0
  126.3710  127.9030   67.3150 C   0  0  0  0  0  0  0  0  0  0  0  0
  129.4910  123.9180   66.1600 C   0  0  0  0  0  0  0  0  0  0  0  0
  130.2660  123.4510   65.1020 C   0  0  0  0  0  0  0  0  0  0  0  0
  131.7130  123.2590   62.2760 N   0  0  0  0  0  0  0  0  0  0  0  0
  130.3780  123.1110   61.8470 C   0  0  0  0  0  0  0  0  0  0  0  0
  129.9380  121.8840   61.3490 C   0  0  0  0  0  0  0  0  0  0  0  0
  128.6180  121.7430   60.9320 C   0  0  0  0  0  0  0  0  0  0  0  0
  127.7310  122.8180   61.0050 C   0  0  0  0  0  0  0  0  0  0  0  0
  126.4420  122.5830   60.5670 O   0  0  0  0  0  0  0  0  0  0  0  0
  125.6190  123.6870   60.2020 C   0  0  0  0  0  0  0  0  0  0  0  0
  128.1820  124.0500   61.5080 C   0  0  0  0  0  0  0  0  0  0  0  0
  129.5010  124.1950   61.9290 C   0  0  0  0  0  0  0  0  0  0  0  0
  131.6370  129.5720   61.0030 C   0  0  0  0  0  0  0  0  0  0  0  0
  131.0960  130.8550   61.0110 C   0  0  0  0  0  0  0  0  0  0  0  0
  1  2  1  0
  2  3  1  0
  3  4  2  0
  4  5  1  0
  5  6  2  0
  6  7  1  0
  7  8  2  0
  7  9  1  0
  9 10  1  0
 10 11  1  0
 11 12  2  0
 11 13  1  0
 13 14  1  0
 14 15  1  0
 15 16  2  0
 16 17  1  0
 17 18  2  0
 18 19  1  0
 19 20  2  0
 20 21  1  0
 21 22  2  0
 22 23  1  0
 23 24  1  0
 24 25  2  0
 24 26  2  0
 24 27  1  0
 27 28  2  0
 28 29  1  0
 29 30  2  0
 30 31  1  0
 30 32  1  0
 32 33  2  0
 22 34  1  0
 34 35  2  0
 18 36  1  0
 36 37  1  0
 37 38  2  0
 38 39  1  0
 39 40  2  0
 40 41  1  0
 41 42  1  0
 40 43  1  0
 43 44  2  0
  6 45  1  0
 45 46  2  0
 46  3  1  0
 36 15  1  0
 44 37  1  0
 35 19  1  0
 33 27  1  0
M  END
>  <Binding energies>  (49) 
[-10.31]

>  <Ligand effiencies>  (49) 
[-0.21040816326530612]

>  <Interactions>  (49) 
["V-B:ARG:545:CG:9894, H-B:HIS:456:NE2:9041, V-B:GLU:543:CD:9880, V-B:GLU:543:C:9874, V-B:GLU:543:CB:9878, V-A:HIS:456:CE1:4069, V-B:ARG:545:CZ:9898, H-A:HIS:456:NE2:4070, V-B:ARG:545:CD:9895, V-B:HIS:456:CE1:9040, V-B:GLU:543:CG:9879, V-A:GLU:543:CD:4908, V-A:TYR:539:C:4867, V-A:PRO:540:CA:4883, V-B:ALA:541:CB:9864, V-B:GLU:543:CA:9876, V-A:TYR:484:CZ:4347, V-A:GLU:543:CB:4906, V-A:TYR:484:CE1:4345, H-A:GLY:454:N:4050, H-A:ARG:545:NH2:4928, V-A:ASP:366:CB:3212, V-A:ASP:366:CG:3213, V-B:TYR:539:CE2:9848, H-B:TYR:539:OH:9850, V-A:ILE:369:CB:3236, V-A:ILE:369:CG2:3237, H-B:ALA:541:N:9863, V-B:PRO:540:CA:9855, V-A:ASP:366:CA:3210, H-A:ASP:366:OD1:3214, V-B:ALA:541:CA:9862, V-B:PRO:540:CB:9857, H-A:ALA:541:N:4891, V-B:PRO:540:C:9853, H-A:ASP:366:OD2:3215, H-B:GLU:543:O:9875"]

$$$$
RR33_Rahimova_2017
     RDKit          3D

 18 19  0  0  0  0  0  0  0  0999 V2000
  125.7500  126.6300   74.2460 C   0  0  0  0  0  0  0  0  0  0  0  0
  127.2430  126.9660   74.3080 C   0  0  0  0  0  0  0  0  0  0  0  0
  127.9790  125.8920   73.7300 O   0  0  0  0  0  0  0  0  0  0  0  0
  128.2650  125.9160   72.3780 C   0  0  0  0  0  0  0  0  0  0  0  0
  127.6230  126.8980   71.6250 C   0  0  0  0  0  0  0  0  0  0  0  0
  127.8460  126.9980   70.2540 C   0  0  0  0  0  0  0  0  0  0  0  0
  128.7200  126.1130   69.6150 C   0  0  0  0  0  0  0  0  0  0  0  0
  128.9590  126.2210   68.1430 C   0  0  0  0  0  0  0  0  0  0  0  0
  129.5950  125.3700   67.3690 N   0  0  0  0  0  0  0  0  0  0  0  0
  129.5440  125.8960   66.1550 C   0  0  0  0  0  0  0  0  0  0  0  0
  130.1690  125.1870   64.9730 C   0  0  0  0  0  0  0  0  0  0  0  0
  130.7040  123.8940   65.3740 N   0  0  0  0  0  0  0  0  0  0  0  0
  129.7660  122.8300   65.0590 C   0  0  0  0  0  0  0  0  0  0  0  0
  128.8570  127.1030   66.1980 C   0  0  0  0  0  0  0  0  0  0  0  0
  128.4660  128.1520   65.1860 C   0  0  0  0  0  0  0  0  0  0  0  0
  128.4830  127.3080   67.4820 O   0  0  0  0  0  0  0  0  0  0  0  0
  129.3690  125.1300   70.3680 C   0  0  0  0  0  0  0  0  0  0  0  0
  129.1450  125.0290   71.7390 C   0  0  0  0  0  0  0  0  0  0  0  0
  1  2  1  0
  2  3  1  0
  3  4  1  0
  4  5  2  0
  5  6  1  0
  6  7  2  0
  7  8  1  0
  8  9  2  0
  9 10  1  0
 10 11  1  0
 11 12  1  0
 12 13  1  0
 10 14  2  0
 14 15  1  0
 14 16  1  0
  7 17  1  0
 17 18  2  0
 18  4  1  0
 16  8  1  0
M  END
>  <Binding energies>  (50) 
[-5.22]

>  <Ligand effiencies>  (50) 
[-0.27473684210526317]

>  <Interactions>  (50) 
["V-A:HIS:456:CD2:4068, H-B:LYS:547:NZ:9923, V-B:GLU:543:CB:9878, V-A:HIS:456:CE1:4069, V-B:HIS:456:CE1:9040, V-B:GLU:543:CG:9879, V-A:GLU:543:CD:4908, V-B:ALA:541:CB:9864, V-B:GLU:543:CA:9876, V-A:TYR:484:CZ:4347, V-A:TYR:484:CE1:4345, H-A:TYR:484:OH:4348, V-B:GLY:544:C:9884, V-B:LYS:547:CD:9921, V-B:LYS:547:CE:9922"]

$$$$
RR3_Rahimova_2017
     RDKit          3D

 38 44  0  0  0  0  0  0  0  0999 V2000
  123.9410  132.1790   62.3160 C   0  0  0  0  0  0  0  0  0  0  0  0
  123.4120  130.9380   62.6570 C   0  0  0  0  0  0  0  0  0  0  0  0
  124.1060  130.1110   63.5350 C   0  0  0  0  0  0  0  0  0  0  0  0
  125.3340  130.5100   64.0830 C   0  0  0  0  0  0  0  0  0  0  0  0
  126.0790  129.6190   65.0270 C   0  0  0  0  0  0  0  0  0  0  0  0
  127.4660  129.4510   64.9160 C   0  0  0  0  0  0  0  0  0  0  0  0
  128.1570  128.6190   65.7930 C   0  0  0  0  0  0  0  0  0  0  0  0
  127.4740  127.9300   66.7980 C   0  0  0  0  0  0  0  0  0  0  0  0
  128.2110  127.0300   67.7410 C   0  0  0  0  0  0  0  0  0  0  0  0
  128.3140  127.3540   69.0250 N   0  0  0  0  0  0  0  0  0  0  0  0
  128.9620  126.3740   69.6080 C   0  0  0  0  0  0  0  0  0  0  0  0
  129.2980  126.3150   71.0280 C   0  0  0  0  0  0  0  0  0  0  0  0
  129.0560  127.3100   71.9600 C   0  0  0  0  0  0  0  0  0  0  0  0
  129.4930  126.9150   73.1970 N   0  0  0  0  0  0  0  0  0  0  0  0
  130.0380  125.6520   73.1210 C   0  0  0  0  0  0  0  0  0  0  0  0
  130.6070  124.8410   74.1090 C   0  0  0  0  0  0  0  0  0  0  0  0
  131.0790  123.5920   73.7090 C   0  0  0  0  0  0  0  0  0  0  0  0
  130.9910  123.1630   72.3890 C   0  0  0  0  0  0  0  0  0  0  0  0
  130.4240  123.9690   71.4040 C   0  0  0  0  0  0  0  0  0  0  0  0
  129.9330  125.2400   71.7550 C   0  0  0  0  0  0  0  0  0  0  0  0
  129.2950  125.4030   68.7050 N   0  0  0  0  0  0  0  0  0  0  0  0
  128.8440  125.8040   67.4730 C   0  0  0  0  0  0  0  0  0  0  0  0
  129.0820  125.0170   66.2270 C   0  0  0  0  0  0  0  0  0  0  0  0
  129.0200  125.6430   64.9810 C   0  0  0  0  0  0  0  0  0  0  0  0
  129.2280  124.9110   63.8170 C   0  0  0  0  0  0  0  0  0  0  0  0
  129.5080  123.5370   63.8690 C   0  0  0  0  0  0  0  0  0  0  0  0
  129.7120  122.7490   62.6140 C   0  0  0  0  0  0  0  0  0  0  0  0
  130.8530  121.9500   62.4440 C   0  0  0  0  0  0  0  0  0  0  0  0
  131.0410  121.2120   61.2770 C   0  0  0  0  0  0  0  0  0  0  0  0
  130.0860  121.2660   60.2660 C   0  0  0  0  0  0  0  0  0  0  0  0
  128.9480  122.0510   60.4140 C   0  0  0  0  0  0  0  0  0  0  0  0
  128.7640  122.7880   61.5810 C   0  0  0  0  0  0  0  0  0  0  0  0
  129.5850  122.9240   65.1270 C   0  0  0  0  0  0  0  0  0  0  0  0
  129.3770  123.6540   66.2940 C   0  0  0  0  0  0  0  0  0  0  0  0
  126.0950  128.1010   66.9250 C   0  0  0  0  0  0  0  0  0  0  0  0
  125.4060  128.9330   66.0470 C   0  0  0  0  0  0  0  0  0  0  0  0
  125.8480  131.7650   63.7240 C   0  0  0  0  0  0  0  0  0  0  0  0
  125.1570  132.5960   62.8470 C   0  0  0  0  0  0  0  0  0  0  0  0
  1  2  2  0
  2  3  1  0
  3  4  2  0
  4  5  1  0
  5  6  2  0
  6  7  1  0
  7  8  2  0
  8  9  1  0
  9 10  1  0
 10 11  2  0
 11 12  1  0
 12 13  2  0
 13 14  1  0
 14 15  1  0
 15 16  2  0
 16 17  1  0
 17 18  2  0
 18 19  1  0
 19 20  2  0
 11 21  1  0
 21 22  1  0
 22 23  1  0
 23 24  2  0
 24 25  1  0
 25 26  2  0
 26 27  1  0
 27 28  2  0
 28 29  1  0
 29 30  2  0
 30 31  1  0
 31 32  2  0
 26 33  1  0
 33 34  2  0
  8 35  1  0
 35 36  2  0
  4 37  1  0
 37 38  2  0
 38  1  1  0
 36  5  1  0
 22  9  2  0
 34 23  1  0
 20 12  1  0
 32 27  1  0
 20 15  1  0
M  END
>  <Binding energies>  (51) 
[-10.36]

>  <Ligand effiencies>  (51) 
[-0.259]

>  <Interactions>  (51) 
["V-B:ARG:545:CG:9894, H-B:HIS:456:NE2:9041, V-A:HIS:456:CD2:4068, V-B:GLU:543:CD:9880, V-B:GLU:543:C:9874, V-B:GLU:543:CB:9878, V-A:HIS:456:CE1:4069, V-B:ARG:545:CZ:9898, V-B:ARG:545:CD:9895, V-B:HIS:456:CE1:9040, V-B:GLU:543:CG:9879, V-A:GLU:543:CD:4908, V-B:GLY:454:CA:9020, V-B:LEU:475:CD1:9229, V-B:ILE:369:CD1:8210, V-B:ALA:541:CB:9864, V-B:GLU:543:CA:9876, V-A:TYR:484:CZ:4347, V-A:LEU:475:CD1:4258, V-A:GLU:543:CB:4906, V-A:TYR:484:CE1:4345, H-A:TYR:484:OH:4348, V-B:TYR:539:CE2:9848, V-B:TYR:539:CD2:9846, V-A:HIS:456:CG:4066, V-A:TYR:484:CD2:4344, V-A:TYR:484:CE2:4346, V-A:HIS:456:CB:4065, V-A:TYR:484:CG:4342, H-B:GLU:543:O:9875"]

$$$$
RR4_Rahimova_2017
     RDKit          3D

 40 44  0  0  0  0  0  0  0  0999 V2000
  123.4370  131.6320   76.0170 C   0  0  0  0  0  0  0  0  0  0  0  0
  123.9590  130.3980   76.4970 O   0  0  0  0  0  0  0  0  0  0  0  0
  124.6860  129.5950   75.6390 C   0  0  0  0  0  0  0  0  0  0  0  0
  125.9880  130.0000   75.3560 C   0  0  0  0  0  0  0  0  0  0  0  0
  126.7950  129.2520   74.5030 C   0  0  0  0  0  0  0  0  0  0  0  0
  126.3200  128.0750   73.9050 C   0  0  0  0  0  0  0  0  0  0  0  0
  127.1930  127.2710   72.9850 C   0  0  0  0  0  0  0  0  0  0  0  0
  128.3510  126.6170   73.4180 C   0  0  0  0  0  0  0  0  0  0  0  0
  129.1300  125.8750   72.5200 C   0  0  0  0  0  0  0  0  0  0  0  0
  130.3370  125.1810   73.0610 C   0  0  0  0  0  0  0  0  0  0  0  0
  131.2210  125.8630   73.9030 C   0  0  0  0  0  0  0  0  0  0  0  0
  132.3430  125.2200   74.4200 C   0  0  0  0  0  0  0  0  0  0  0  0
  132.5980  123.8840   74.1130 C   0  0  0  0  0  0  0  0  0  0  0  0
  133.7340  123.3290   74.6730 O   0  0  0  0  0  0  0  0  0  0  0  0
  134.6560  124.1740   75.3540 C   0  0  0  0  0  0  0  0  0  0  0  0
  131.7110  123.1940   73.2730 C   0  0  0  0  0  0  0  0  0  0  0  0
  130.5900  123.8390   72.7570 C   0  0  0  0  0  0  0  0  0  0  0  0
  128.7330  125.8270   71.1620 C   0  0  0  0  0  0  0  0  0  0  0  0
  129.5110  125.0640   70.1810 C   0  0  0  0  0  0  0  0  0  0  0  0
  130.1250  124.4620   69.4070 N   0  0  0  0  0  0  0  0  0  0  0  0
  127.5680  126.5350   70.7870 C   0  0  0  0  0  0  0  0  0  0  0  0
  126.9290  126.5970   69.1270 S   0  0  0  0  0  0  0  0  0  0  0  0
  128.3190  126.9810   68.0100 C   0  0  0  0  0  0  0  0  0  0  0  0
  128.0950  128.2040   67.1100 C   0  0  0  0  0  0  0  0  0  0  0  0
  128.6880  129.2620   67.3320 O   0  0  0  0  0  0  0  0  0  0  0  0
  127.2080  128.0130   66.1060 N   0  0  0  0  0  0  0  0  0  0  0  0
  126.7950  128.9200   65.1270 C   0  0  0  0  0  0  0  0  0  0  0  0
  127.7590  129.3120   63.7290 S   0  0  0  0  0  0  0  0  0  0  0  0
  126.5590  130.4210   63.1420 C   0  0  0  0  0  0  0  0  0  0  0  0
  125.4530  130.4880   64.0030 C   0  0  0  0  0  0  0  0  0  0  0  0
  125.5810  129.6250   65.1190 C   0  0  0  0  0  0  0  0  0  0  0  0
  124.5610  129.4920   66.1540 C   0  0  0  0  0  0  0  0  0  0  0  0
  123.7510  129.3870   66.9750 N   0  0  0  0  0  0  0  0  0  0  0  0
  124.2400  131.3700   63.6850 C   0  0  0  0  0  0  0  0  0  0  0  0
  124.2490  131.7950   62.1990 C   0  0  0  0  0  0  0  0  0  0  0  0
  125.6370  132.2790   61.7430 C   0  0  0  0  0  0  0  0  0  0  0  0
  126.6950  131.1580   61.8160 C   0  0  0  0  0  0  0  0  0  0  0  0
  126.8160  127.2190   71.6820 N   0  0  0  0  0  0  0  0  0  0  0  0
  125.0080  127.6730   74.2000 C   0  0  0  0  0  0  0  0  0  0  0  0
  124.1990  128.4190   75.0520 C   0  0  0  0  0  0  0  0  0  0  0  0
  1  2  1  0
  2  3  1  0
  3  4  2  0
  4  5  1  0
  5  6  2  0
  6  7  1  0
  7  8  2  0
  8  9  1  0
  9 10  1  0
 10 11  2  0
 11 12  1  0
 12 13  2  0
 13 14  1  0
 14 15  1  0
 13 16  1  0
 16 17  2  0
  9 18  2  0
 18 19  1  0
 19 20  3  0
 18 21  1  0
 21 22  1  0
 22 23  1  0
 23 24  1  0
 24 25  2  0
 24 26  1  0
 26 27  1  0
 27 28  1  0
 28 29  1  0
 29 30  2  0
 30 31  1  0
 31 32  1  0
 32 33  3  0
 30 34  1  0
 34 35  1  0
 35 36  1  0
 36 37  1  0
 21 38  2  0
  6 39  1  0
 39 40  2  0
 40  3  1  0
 38  7  1  0
 17 10  1  0
 31 27  2  0
 37 29  1  0
M  END
>  <Binding energies>  (52) 
[-10.44]

>  <Ligand effiencies>  (52) 
[-0.2546341463414634]

>  <Interactions>  (52) 
["V-B:ARG:545:CG:9894, H-B:HIS:456:NE2:9041, V-A:HIS:456:CD2:4068, V-B:GLU:543:CD:9880, V-B:HIS:456:CD2:9039, V-A:HIS:456:CE1:4069, V-B:ARG:545:CZ:9898, H-A:HIS:456:NE2:4070, V-B:ARG:545:CD:9895, V-B:HIS:456:CE1:9040, V-B:GLY:454:CA:9020, H-B:ILE:455:N:9026, H-B:TYR:484:OH:9319, H-B:ARG:545:NE:9896, H-A:TYR:484:OH:4348, V-B:GLY:544:C:9884, H-B:ARG:545:N:9892, V-A:HIS:456:CG:4066, H-B:GLU:543:OE1:9881, V-A:HIS:456:CB:4065, V-B:HIS:456:CB:9036, V-B:HIS:456:C:9032, V-B:VAL:458:CG2:9058, V-B:VAL:457:C:9044, V-B:HIS:456:CG:9037, V-B:HIS:456:CA:9034, V-A:VAL:458:CG2:4087, V-A:HIS:456:C:4061, V-B:VAL:457:CA:9046, V-B:LYS:471:CE:9191, V-A:ASP:473:CB:4239, V-B:LYS:471:CG:9189, V-B:ASP:473:CG:9211, V-B:ASP:473:CB:9210, V-B:LYS:471:C:9184, V-B:LEU:472:CA:9199, V-B:LEU:472:C:9197"]

$$$$
RR6_Rahimova_2017
     RDKit          3D

 38 41  0  0  0  0  0  0  0  0999 V2000
  124.3310  135.2540   61.3480 C   0  0  0  0  0  0  0  0  0  0  0  0
  125.3820  134.4170   60.8850 O   0  0  0  0  0  0  0  0  0  0  0  0
  126.6810  134.7350   61.1150 C   0  0  0  0  0  0  0  0  0  0  0  0
  127.0880  135.8960   61.2280 O   0  0  0  0  0  0  0  0  0  0  0  0
  127.5770  133.5340   61.2210 C   0  0  0  0  0  0  0  0  0  0  0  0
  128.1900  132.9630   60.0960 C   0  0  0  0  0  0  0  0  0  0  0  0
  129.0100  131.8440   60.2260 C   0  0  0  0  0  0  0  0  0  0  0  0
  129.2260  131.2730   61.4900 C   0  0  0  0  0  0  0  0  0  0  0  0
  130.0100  130.1300   61.7300 N   0  0  0  0  0  0  0  0  0  0  0  0
  129.9270  128.9020   61.1700 C   0  0  0  0  0  0  0  0  0  0  0  0
  129.1190  128.5650   60.3060 O   0  0  0  0  0  0  0  0  0  0  0  0
  130.8970  127.8550   61.7280 C   0  0  0  0  0  0  0  0  0  0  0  0
  130.0740  126.5010   62.6320 S   0  0  0  0  0  0  0  0  0  0  0  0
  129.0520  127.2620   63.8760 C   0  0  0  0  0  0  0  0  0  0  0  0
  128.1390  128.1370   63.3900 N   0  0  0  0  0  0  0  0  0  0  0  0
  127.2830  128.7590   64.2390 C   0  0  0  0  0  0  0  0  0  0  0  0
  126.2640  129.6650   63.6140 C   0  0  0  0  0  0  0  0  0  0  0  0
  125.9450  129.5630   62.2510 C   0  0  0  0  0  0  0  0  0  0  0  0
  125.0080  130.4120   61.6690 C   0  0  0  0  0  0  0  0  0  0  0  0
  124.3670  131.3800   62.4420 C   0  0  0  0  0  0  0  0  0  0  0  0
  123.3540  132.3100   61.8000 C   0  0  0  0  0  0  0  0  0  0  0  0
  124.6690  131.4970   63.7970 C   0  0  0  0  0  0  0  0  0  0  0  0
  125.6040  130.6450   64.3740 C   0  0  0  0  0  0  0  0  0  0  0  0
  127.3400  128.5170   65.6160 C   0  0  0  0  0  0  0  0  0  0  0  0
  128.2790  127.6190   66.1440 C   0  0  0  0  0  0  0  0  0  0  0  0
  128.2720  127.3940   67.6200 C   0  0  0  0  0  0  0  0  0  0  0  0
  127.2940  126.5820   68.2030 C   0  0  0  0  0  0  0  0  0  0  0  0
  127.2890  126.3540   69.5770 C   0  0  0  0  0  0  0  0  0  0  0  0
  128.2640  126.9260   70.3920 C   0  0  0  0  0  0  0  0  0  0  0  0
  128.1830  126.6430   71.7420 O   0  0  0  0  0  0  0  0  0  0  0  0
  127.2550  127.3630   72.5470 C   0  0  0  0  0  0  0  0  0  0  0  0
  129.2510  127.7380   69.8120 C   0  0  0  0  0  0  0  0  0  0  0  0
  129.2520  127.9630   68.4380 C   0  0  0  0  0  0  0  0  0  0  0  0
  129.1690  126.9740   65.2510 C   0  0  0  0  0  0  0  0  0  0  0  0
  130.1940  126.0450   65.7400 C   0  0  0  0  0  0  0  0  0  0  0  0
  131.0010  125.3110   66.1250 N   0  0  0  0  0  0  0  0  0  0  0  0
  128.6320  131.8490   62.6130 C   0  0  0  0  0  0  0  0  0  0  0  0
  127.8110  132.9660   62.4800 C   0  0  0  0  0  0  0  0  0  0  0  0
  1  2  1  0
  2  3  1  0
  3  4  2  0
  3  5  1  0
  5  6  2  0
  6  7  1  0
  7  8  2  0
  8  9  1  0
  9 10  1  0
 10 11  2  0
 10 12  1  0
 12 13  1  0
 13 14  1  0
 14 15  2  0
 15 16  1  0
 16 17  1  0
 17 18  2  0
 18 19  1  0
 19 20  2  0
 20 21  1  0
 20 22  1  0
 22 23  2  0
 16 24  2  0
 24 25  1  0
 25 26  1  0
 26 27  2  0
 27 28  1  0
 28 29  2  0
 29 30  1  0
 30 31  1  0
 29 32  1  0
 32 33  2  0
 25 34  2  0
 34 35  1  0
 35 36  3  0
  8 37  1  0
 37 38  2  0
 38  5  1  0
 34 14  1  0
 23 17  1  0
 33 26  1  0
M  END
>  <Binding energies>  (53) 
[-8.32]

>  <Ligand effiencies>  (53) 
[-0.21333333333333335]

>  <Interactions>  (53) 
["V-A:HIS:456:CD2:4068, V-B:GLU:543:C:9874, V-B:HIS:456:CD2:9039, V-B:GLU:543:CB:9878, V-A:HIS:456:CE1:4069, H-A:GLU:543:OE1:4909, V-B:HIS:456:CE1:9040, H-A:GLU:543:OE2:4910, V-A:GLU:543:CD:4908, V-B:TRP:381:CH2:8343, V-B:GLY:454:CA:9020, V-B:LEU:475:CD1:9229, V-B:ILE:369:CD1:8210, V-A:TYR:539:CE2:4876, V-A:ALA:541:CB:4892, V-B:ILE:369:CG2:8208, V-A:TYR:539:CD2:4874, H-A:TYR:484:OH:4348, V-B:TRP:381:CZ2:8341, V-B:GLY:544:C:9884, V-B:HIS:456:CG:9037"]

$$$$
RR7_Rahimova_2017
     RDKit          3D

 47 53  0  0  0  0  0  0  0  0999 V2000
  123.5860  129.7190   66.5960 C   0  0  0  0  0  0  0  0  0  0  0  0
  124.9830  129.6310   66.8590 O   0  0  0  0  0  0  0  0  0  0  0  0
  125.8440  129.3130   65.8270 C   0  0  0  0  0  0  0  0  0  0  0  0
  125.2590  129.0130   64.5980 C   0  0  0  0  0  0  0  0  0  0  0  0
  126.0460  128.6870   63.4980 C   0  0  0  0  0  0  0  0  0  0  0  0
  127.4440  128.6400   63.6050 C   0  0  0  0  0  0  0  0  0  0  0  0
  128.3520  128.3090   62.3800 C   0  0  0  0  0  0  0  0  0  0  0  0
  129.1100  127.1320   62.7420 O   0  0  0  0  0  0  0  0  0  0  0  0
  128.7400  126.3680   63.8950 C   0  0  0  0  0  0  0  0  0  0  0  0
  130.0150  125.8640   64.5900 C   0  0  1  0  0  0  0  0  0  0  0  0
  129.9880  126.3730   65.9210 O   0  0  0  0  0  0  0  0  0  0  0  0
  130.0210  125.3490   66.8730 C   0  0  1  0  0  0  0  0  0  0  0  0
  129.2570  125.7320   68.0450 N   0  0  0  0  0  0  0  0  0  0  0  0
  128.3110  126.7360   68.1560 C   0  0  0  0  0  0  0  0  0  0  0  0
  127.8040  126.9000   69.3520 N   0  0  0  0  0  0  0  0  0  0  0  0
  128.4740  125.9860   70.1190 C   0  0  0  0  0  0  0  0  0  0  0  0
  128.4020  125.6720   71.4900 C   0  0  0  0  0  0  0  0  0  0  0  0
  127.4850  126.3740   72.2960 N   0  0  0  0  0  0  0  0  0  0  0  0
  127.5300  126.6110   73.6290 C   0  0  0  0  0  0  0  0  0  0  0  0
  128.4240  126.2080   74.3760 O   0  0  0  0  0  0  0  0  0  0  0  0
  126.3680  127.4010   74.1930 C   0  0  0  0  0  0  0  0  0  0  0  0
  125.0630  126.9020   74.0640 C   0  0  0  0  0  0  0  0  0  0  0  0
  123.9810  127.6090   74.5800 C   0  0  0  0  0  0  0  0  0  0  0  0
  124.1940  128.8180   75.2340 C   0  0  0  0  0  0  0  0  0  0  0  0
  125.4820  129.3280   75.3760 C   0  0  0  0  0  0  0  0  0  0  0  0
  126.5660  128.6230   74.8580 C   0  0  0  0  0  0  0  0  0  0  0  0
  129.2220  124.7030   71.9970 N   0  0  0  0  0  0  0  0  0  0  0  0
  130.0770  124.0840   71.1420 C   0  0  0  0  0  0  0  0  0  0  0  0
  130.2250  124.3050   69.8080 N   0  0  0  0  0  0  0  0  0  0  0  0
  129.4050  125.2540   69.3380 C   0  0  0  0  0  0  0  0  0  0  0  0
  129.5080  124.1100   66.1490 C   0  0  0  0  0  0  0  0  0  0  0  0
  130.0980  124.3410   64.7680 C   0  0  2  0  0  0  0  0  0  0  0  0
  131.4260  123.8560   64.6700 O   0  0  0  0  0  0  0  0  0  0  0  0
  127.5300  127.9470   61.1150 C   0  0  0  0  0  0  0  0  0  0  0  0
  127.1670  126.6140   60.8630 C   0  0  0  0  0  0  0  0  0  0  0  0
  126.4420  126.2760   59.7260 C   0  0  0  0  0  0  0  0  0  0  0  0
  126.0710  127.2700   58.8250 C   0  0  0  0  0  0  0  0  0  0  0  0
  126.4190  128.5970   59.0540 C   0  0  0  0  0  0  0  0  0  0  0  0
  127.1460  128.9350   60.1920 C   0  0  0  0  0  0  0  0  0  0  0  0
  129.3270  129.4370   61.9360 C   0  0  0  0  0  0  0  0  0  0  0  0
  128.9910  130.7850   62.1360 C   0  0  0  0  0  0  0  0  0  0  0  0
  129.8520  131.8010   61.7340 C   0  0  0  0  0  0  0  0  0  0  0  0
  131.0580  131.4790   61.1160 C   0  0  0  0  0  0  0  0  0  0  0  0
  131.4040  130.1500   60.8960 C   0  0  0  0  0  0  0  0  0  0  0  0
  130.5420  129.1350   61.2990 C   0  0  0  0  0  0  0  0  0  0  0  0
  128.0280  128.9560   64.8400 C   0  0  0  0  0  0  0  0  0  0  0  0
  127.2410  129.2840   65.9400 C   0  0  0  0  0  0  0  0  0  0  0  0
  1  2  1  0
  2  3  1  0
  3  4  2  0
  4  5  1  0
  5  6  2  0
  6  7  1  0
  7  8  1  0
  8  9  1  0
 10  9  1  6
 10 11  1  0
 11 12  1  0
 12 13  1  1
 13 14  1  0
 14 15  2  0
 15 16  1  0
 16 17  2  0
 17 18  1  0
 18 19  1  0
 19 20  2  0
 19 21  1  0
 21 22  2  0
 22 23  1  0
 23 24  2  0
 24 25  1  0
 25 26  2  0
 17 27  1  0
 27 28  2  0
 28 29  1  0
 29 30  2  0
 12 31  1  0
 31 32  1  0
 32 33  1  1
  7 34  1  0
 34 35  2  0
 35 36  1  0
 36 37  2  0
 37 38  1  0
 38 39  2  0
  7 40  1  0
 40 41  2  0
 41 42  1  0
 42 43  2  0
 43 44  1  0
 44 45  2  0
  6 46  1  0
 46 47  2  0
 47  3  1  0
 32 10  1  0
 39 34  1  0
 45 40  1  0
 30 13  1  0
 30 16  1  0
 26 21  1  0
M  END
>  <Binding energies>  (54) 
[-9.5]

>  <Ligand effiencies>  (54) 
[-0.19387755102040816]

>  <Interactions>  (54) 
["V-B:ARG:545:CG:9894, V-A:HIS:456:CD2:4068, V-B:GLU:543:CD:9880, H-B:LYS:547:NZ:9923, V-B:GLU:543:C:9874, V-B:HIS:456:CD2:9039, V-B:GLU:543:CB:9878, V-A:HIS:456:CE1:4069, V-B:ARG:545:CZ:9898, H-A:HIS:456:NE2:4070, V-B:ARG:545:CD:9895, V-B:HIS:456:CE1:9040, V-B:GLU:543:CG:9879, V-B:ILE:455:C:9023, V-A:GLU:543:CD:4908, V-B:ASP:366:CG:8184, V-A:PRO:540:CA:4883, V-A:ALA:541:CB:4892, H-B:TYR:484:OH:9319, V-A:PRO:540:C:4881, V-B:GLU:543:CA:9876, V-A:TYR:484:CZ:4347, H-B:HIS:456:ND1:9038, V-A:TYR:484:CE1:4345, H-A:TYR:484:OH:4348, V-A:PRO:540:CB:4885, V-B:GLY:544:C:9884, V-A:HIS:456:CG:4066, V-B:HIS:456:CB:9036, V-B:LYS:547:CD:9921, V-B:HIS:456:C:9032, V-B:ARG:545:C:9889, V-B:VAL:458:CG2:9058, V-B:VAL:457:C:9044, V-B:HIS:456:CG:9037, H-B:GLY:544:O:9885, V-B:HIS:456:CA:9034, V-B:VAL:457:CA:9046"]

$$$$
RR8_A_Rahimova_2017
     RDKit          3D

 42 46  0  0  0  0  0  0  0  0999 V2000
  129.3530  124.2470   67.4220 O   0  0  0  0  0  0  0  0  0  0  0  0
  129.3470  125.3800   67.9160 C   0  0  0  0  0  0  0  0  0  0  0  0
  129.3460  126.5400   67.1900 O   0  0  0  0  0  0  0  0  0  0  0  0
  130.2010  126.6120   66.0820 C   0  0  1  0  0  0  0  0  0  0  0  0
  131.3100  125.7740   66.2310 O   0  0  0  0  0  0  0  0  0  0  0  0
  131.6740  125.1530   65.0010 C   0  0  2  0  0  0  0  0  0  0  0  0
  133.1490  125.4750   64.7060 C   0  0  0  0  0  0  0  0  0  0  0  0
  133.7500  124.3460   64.0880 O   0  0  0  0  0  0  0  0  0  0  0  0
  134.2320  124.5950   62.7740 C   0  0  0  0  0  0  0  0  0  0  0  0
  133.7950  123.4740   61.8420 C   0  0  0  0  0  0  0  0  0  0  0  0
  133.2310  123.7790   60.6010 C   0  0  0  0  0  0  0  0  0  0  0  0
  132.8360  122.7540   59.7440 C   0  0  0  0  0  0  0  0  0  0  0  0
  133.0090  121.4270   60.1300 C   0  0  0  0  0  0  0  0  0  0  0  0
  133.5760  121.1130   61.3630 C   0  0  0  0  0  0  0  0  0  0  0  0
  133.9720  122.1380   62.2190 C   0  0  0  0  0  0  0  0  0  0  0  0
  130.6610  125.7150   63.9940 C   0  0  1  0  0  0  0  0  0  0  0  0
  130.2200  124.7490   63.0430 O   0  0  0  0  0  0  0  0  0  0  0  0
  129.6340  123.5710   63.5860 C   0  0  0  0  0  0  0  0  0  0  0  0
  129.6880  122.4450   62.5630 C   0  0  0  0  0  0  0  0  0  0  0  0
  128.9750  122.5620   61.3660 C   0  0  0  0  0  0  0  0  0  0  0  0
  129.0120  121.5320   60.4300 C   0  0  0  0  0  0  0  0  0  0  0  0
  129.7590  120.3850   60.6940 C   0  0  0  0  0  0  0  0  0  0  0  0
  130.4650  120.2570   61.8870 C   0  0  0  0  0  0  0  0  0  0  0  0
  130.4270  121.2870   62.8250 C   0  0  0  0  0  0  0  0  0  0  0  0
  129.4680  126.0730   64.8610 C   0  0  2  0  0  0  0  0  0  0  0  0
  128.6470  127.0400   64.2120 O   0  0  0  0  0  0  0  0  0  0  0  0
  128.6190  128.3290   64.8150 C   0  0  0  0  0  0  0  0  0  0  0  0
  127.2120  128.6450   65.2980 C   0  0  0  0  0  0  0  0  0  0  0  0
  126.7930  128.2280   66.5670 C   0  0  0  0  0  0  0  0  0  0  0  0
  125.5080  128.5280   67.0090 C   0  0  0  0  0  0  0  0  0  0  0  0
  124.6440  129.2460   66.1840 C   0  0  0  0  0  0  0  0  0  0  0  0
  125.0540  129.6690   64.9220 C   0  0  0  0  0  0  0  0  0  0  0  0
  126.3410  129.3700   64.4790 C   0  0  0  0  0  0  0  0  0  0  0  0
  129.3270  125.6240   69.3970 C   0  0  0  0  0  0  0  0  0  0  0  0
  129.7390  124.6470   70.3160 C   0  0  0  0  0  0  0  0  0  0  0  0
  129.7080  124.9040   71.6840 C   0  0  0  0  0  0  0  0  0  0  0  0
  129.2630  126.1410   72.1690 C   0  0  0  0  0  0  0  0  0  0  0  0
  129.2320  126.4130   73.6260 N   0  0  0  0  0  0  0  0  0  0  0  0
  130.1810  127.0020   74.1350 O   0  0  0  0  0  0  0  0  0  0  0  0
  128.2570  126.0420   74.2730 O   0  0  0  0  0  0  0  0  0  0  0  0
  128.8490  127.1140   71.2510 C   0  0  0  0  0  0  0  0  0  0  0  0
  128.8800  126.8600   69.8840 C   0  0  0  0  0  0  0  0  0  0  0  0
  1  2  2  0
  2  3  1  0
  4  3  1  1
  4  5  1  0
  5  6  1  0
  6  7  1  6
  7  8  1  0
  8  9  1  0
  9 10  1  0
 10 11  2  0
 11 12  1  0
 12 13  2  0
 13 14  1  0
 14 15  2  0
  6 16  1  0
 16 17  1  6
 17 18  1  0
 18 19  1  0
 19 20  2  0
 20 21  1  0
 21 22  2  0
 22 23  1  0
 23 24  2  0
 16 25  1  0
 25 26  1  6
 26 27  1  0
 27 28  1  0
 28 29  2  0
 29 30  1  0
 30 31  2  0
 31 32  1  0
 32 33  2  0
  2 34  1  0
 34 35  2  0
 35 36  1  0
 36 37  2  0
 37 38  1  0
 38 39  2  0
 38 40  1  0
 37 41  1  0
 41 42  2  0
 25  4  1  0
 33 28  1  0
 42 34  1  0
 15 10  1  0
 24 19  1  0
M  CHG  2  38   1  40  -1
M  END
>  <Binding energies>  (55) 
[-10.09]

>  <Ligand effiencies>  (55) 
[-0.24023809523809522]

>  <Interactions>  (55) 
["V-B:ARG:545:CG:9894, V-A:HIS:456:CD2:4068, V-B:GLU:543:CD:9880, H-B:LYS:547:NZ:9923, V-B:GLU:543:C:9874, H-A:LYS:547:NZ:4951, V-B:GLU:543:CB:9878, V-A:HIS:456:CE1:4069, V-B:ARG:545:CZ:9898, V-B:ARG:545:CD:9895, V-B:HIS:456:CE1:9040, V-B:GLU:543:CG:9879, V-A:GLU:543:CD:4908, V-B:ALA:541:CB:9864, V-A:TYR:484:CZ:4347, V-A:LEU:475:CD1:4258, V-A:TYR:484:CE1:4345, H-A:GLY:454:N:4050, V-A:ARG:545:CZ:4926, V-A:GLY:453:CA:4044, H-A:TYR:484:OH:4348, V-A:GLY:453:C:4042, V-A:GLY:454:CA:4049, V-A:ASP:366:CG:3213, V-B:TYR:539:CE2:9848, V-A:ILE:369:CG2:3237, V-A:ILE:369:CD1:3239, V-B:TYR:539:CD2:9846, V-A:HIS:456:CG:4066"]

$$$$
RR8_B_Rahimova_2017
     RDKit          3D

 42 46  0  0  0  0  0  0  0  0999 V2000
  129.0170  129.3580   68.1260 O   0  0  0  0  0  0  0  0  0  0  0  0
  128.5040  128.6790   67.2320 C   0  0  0  0  0  0  0  0  0  0  0  0
  128.9320  127.4320   66.8670 O   0  0  0  0  0  0  0  0  0  0  0  0
  128.1370  126.3270   67.2220 C   0  0  2  0  0  0  0  0  0  0  0  0
  127.3870  126.5740   68.3780 O   0  0  0  0  0  0  0  0  0  0  0  0
  128.0840  126.1590   69.5520 C   0  0  2  0  0  0  0  0  0  0  0  0
  128.2570  127.3610   70.4980 C   0  0  0  0  0  0  0  0  0  0  0  0
  127.1680  127.3960   71.4120 O   0  0  0  0  0  0  0  0  0  0  0  0
  127.4930  127.0270   72.7440 C   0  0  0  0  0  0  0  0  0  0  0  0
  126.4400  127.5840   73.6900 C   0  0  0  0  0  0  0  0  0  0  0  0
  125.1650  127.0120   73.7240 C   0  0  0  0  0  0  0  0  0  0  0  0
  124.1890  127.5330   74.5700 C   0  0  0  0  0  0  0  0  0  0  0  0
  124.4930  128.6240   75.3810 C   0  0  0  0  0  0  0  0  0  0  0  0
  125.7630  129.1950   75.3580 C   0  0  0  0  0  0  0  0  0  0  0  0
  126.7380  128.6770   74.5090 C   0  0  0  0  0  0  0  0  0  0  0  0
  129.3850  125.5450   69.0230 C   0  0  1  0  0  0  0  0  0  0  0  0
  129.7660  124.4350   69.8410 O   0  0  0  0  0  0  0  0  0  0  0  0
  129.1870  124.3610   71.1460 C   0  0  0  0  0  0  0  0  0  0  0  0
  130.2390  124.1770   72.2360 C   0  0  0  0  0  0  0  0  0  0  0  0
  131.0030  123.0070   72.2820 C   0  0  0  0  0  0  0  0  0  0  0  0
  131.9850  122.8560   73.2580 C   0  0  0  0  0  0  0  0  0  0  0  0
  132.1960  123.8730   74.1870 C   0  0  0  0  0  0  0  0  0  0  0  0
  131.4350  125.0390   74.1500 C   0  0  0  0  0  0  0  0  0  0  0  0
  130.4550  125.1920   73.1710 C   0  0  0  0  0  0  0  0  0  0  0  0
  129.0380  125.1500   67.5920 C   0  0  2  0  0  0  0  0  0  0  0  0
  130.2200  125.0590   66.8000 O   0  0  0  0  0  0  0  0  0  0  0  0
  130.0270  125.1480   65.3970 C   0  0  0  0  0  0  0  0  0  0  0  0
  131.3840  125.0330   64.7230 C   0  0  0  0  0  0  0  0  0  0  0  0
  131.4730  124.6950   63.3700 C   0  0  0  0  0  0  0  0  0  0  0  0
  132.7230  124.5740   62.7670 C   0  0  0  0  0  0  0  0  0  0  0  0
  133.8760  124.7910   63.5170 C   0  0  0  0  0  0  0  0  0  0  0  0
  133.7940  125.1300   64.8670 C   0  0  0  0  0  0  0  0  0  0  0  0
  132.5450  125.2520   65.4700 C   0  0  0  0  0  0  0  0  0  0  0  0
  127.3520  129.1570   66.3950 C   0  0  0  0  0  0  0  0  0  0  0  0
  126.0260  128.8140   66.6980 C   0  0  0  0  0  0  0  0  0  0  0  0
  124.9800  129.2640   65.9000 C   0  0  0  0  0  0  0  0  0  0  0  0
  125.2320  130.0590   64.7750 C   0  0  0  0  0  0  0  0  0  0  0  0
  124.1160  130.5160   63.9100 N   0  0  0  0  0  0  0  0  0  0  0  0
  124.3350  131.3990   63.0850 O   0  0  0  0  0  0  0  0  0  0  0  0
  123.0130  129.9920   64.0470 O   0  0  0  0  0  0  0  0  0  0  0  0
  126.5560  130.4060   64.4770 C   0  0  0  0  0  0  0  0  0  0  0  0
  127.6020  129.9630   65.2780 C   0  0  0  0  0  0  0  0  0  0  0  0
  1  2  2  0
  2  3  1  0
  4  3  1  1
  4  5  1  0
  5  6  1  0
  6  7  1  1
  7  8  1  0
  8  9  1  0
  9 10  1  0
 10 11  2  0
 11 12  1  0
 12 13  2  0
 13 14  1  0
 14 15  2  0
  6 16  1  0
 16 17  1  1
 17 18  1  0
 18 19  1  0
 19 20  2  0
 20 21  1  0
 21 22  2  0
 22 23  1  0
 23 24  2  0
 16 25  1  0
 25 26  1  6
 26 27  1  0
 27 28  1  0
 28 29  2  0
 29 30  1  0
 30 31  2  0
 31 32  1  0
 32 33  2  0
  2 34  1  0
 34 35  2  0
 35 36  1  0
 36 37  2  0
 37 38  1  0
 38 39  2  0
 38 40  1  0
 37 41  1  0
 41 42  2  0
 25  4  1  0
 33 28  1  0
 42 34  1  0
 15 10  1  0
 24 19  1  0
M  CHG  2  38   1  40  -1
M  END
>  <Binding energies>  (56) 
[-10.2]

>  <Ligand effiencies>  (56) 
[-0.24285714285714283]

>  <Interactions>  (56) 
["V-B:ARG:545:CG:9894, H-B:HIS:456:NE2:9041, V-A:HIS:456:CD2:4068, V-B:GLU:543:C:9874, V-B:HIS:456:CD2:9039, V-B:GLU:543:CB:9878, V-A:HIS:456:CE1:4069, V-B:ARG:545:CZ:9898, H-A:HIS:456:NE2:4070, V-B:ARG:545:CD:9895, V-B:HIS:456:CE1:9040, V-A:GLU:543:CD:4908, H-B:GLY:454:N:9021, V-B:GLY:454:CA:9020, H-B:ARG:545:NH1:9899, H-B:ARG:545:NH2:9900, V-B:GLU:543:CA:9876, H-B:ARG:545:NE:9896, V-A:GLU:543:CB:4906, V-A:TYR:484:CE1:4345, V-A:ARG:545:CZ:4926, V-A:GLY:453:CA:4044, H-A:TYR:484:OH:4348, V-A:ARG:545:CD:4923, V-B:GLY:544:C:9884, V-A:HIS:456:CG:4066, V-A:TYR:484:CD2:4344, V-A:TYR:484:CE2:4346, V-A:HIS:456:CB:4065, V-A:TYR:484:CG:4342, V-B:HIS:456:CB:9036, V-B:LYS:547:CD:9921, V-B:HIS:456:C:9032, V-B:ARG:545:C:9889, V-B:VAL:458:CG2:9058, V-B:VAL:457:C:9044, V-B:HIS:456:CG:9037, V-B:HIS:456:CA:9034, V-B:VAL:457:CA:9046, V-A:ASP:473:CG:4240, V-A:ASP:473:CB:4239"]

$$$$
RR9_Rahimova_2017
     RDKit          3D

 36 40  0  0  0  0  0  0  0  0999 V2000
  131.2150  123.1840   72.2820 C   0  0  0  0  0  0  0  0  0  0  0  0
  130.4310  123.6100   71.0370 C   0  0  0  0  0  0  0  0  0  0  0  0
  129.6230  124.7360   71.3680 O   0  0  0  0  0  0  0  0  0  0  0  0
  129.0090  125.4500   70.3570 C   0  0  0  0  0  0  0  0  0  0  0  0
  127.8750  126.1800   70.7100 C   0  0  0  0  0  0  0  0  0  0  0  0
  127.1890  126.9270   69.7580 C   0  0  0  0  0  0  0  0  0  0  0  0
  127.6190  126.9670   68.4230 C   0  0  0  0  0  0  0  0  0  0  0  0
  126.8800  127.7680   67.3920 C   0  0  0  0  0  0  0  0  0  0  0  0
  127.4600  128.0880   66.1550 C   0  0  0  0  0  0  0  0  0  0  0  0
  126.7590  128.8280   65.1860 C   0  0  0  0  0  0  0  0  0  0  0  0
  127.3960  129.0510   63.8420 C   0  0  0  0  0  0  0  0  0  0  0  0
  128.2420  129.9330   63.6920 O   0  0  0  0  0  0  0  0  0  0  0  0
  126.9620  128.2510   62.8470 N   0  0  0  0  0  0  0  0  0  0  0  0
  127.3320  128.3610   61.4320 C   0  0  0  0  0  0  0  0  0  0  0  0
  126.5060  129.4230   60.6710 C   0  0  0  0  0  0  0  0  0  0  0  0
  127.3230  130.5760   60.0990 C   0  0  0  0  0  0  0  0  0  0  0  0
  127.9230  131.5040   60.9560 C   0  0  0  0  0  0  0  0  0  0  0  0
  128.6970  132.5350   60.4320 C   0  0  0  0  0  0  0  0  0  0  0  0
  128.8660  132.6390   59.0540 C   0  0  0  0  0  0  0  0  0  0  0  0
  128.2680  131.7210   58.1930 C   0  0  0  0  0  0  0  0  0  0  0  0
  127.4940  130.6880   58.7170 C   0  0  0  0  0  0  0  0  0  0  0  0
  125.4570  129.2560   65.5450 C   0  0  0  0  0  0  0  0  0  0  0  0
  124.3740  130.0290   64.9850 C   0  0  0  0  0  0  0  0  0  0  0  0
  124.3130  130.7820   63.6970 C   0  0  0  0  0  0  0  0  0  0  0  0
  123.4420  130.3730   62.6830 C   0  0  0  0  0  0  0  0  0  0  0  0
  123.3980  131.0670   61.4760 C   0  0  0  0  0  0  0  0  0  0  0  0
  124.2240  132.1750   61.2800 C   0  0  0  0  0  0  0  0  0  0  0  0
  124.1900  132.9200   59.9580 C   0  0  0  0  0  0  0  0  0  0  0  0
  125.0970  132.5850   62.2890 C   0  0  0  0  0  0  0  0  0  0  0  0
  125.1370  131.8920   63.4950 C   0  0  0  0  0  0  0  0  0  0  0  0
  123.3430  130.0370   65.8000 N   0  0  0  0  0  0  0  0  0  0  0  0
  123.6860  129.3610   66.9070 N   0  0  0  0  0  0  0  0  0  0  0  0
  124.9680  128.8710   66.8170 C   0  0  0  0  0  0  0  0  0  0  0  0
  125.6220  128.1610   67.7350 N   0  0  0  0  0  0  0  0  0  0  0  0
  128.7590  126.2290   68.0760 C   0  0  0  0  0  0  0  0  0  0  0  0
  129.4490  125.4800   69.0270 C   0  0  0  0  0  0  0  0  0  0  0  0
  1  2  1  0
  2  3  1  0
  3  4  1  0
  4  5  2  0
  5  6  1  0
  6  7  2  0
  7  8  1  0
  8  9  2  0
  9 10  1  0
 10 11  1  0
 11 12  2  0
 11 13  1  0
 13 14  1  0
 14 15  1  0
 15 16  1  0
 16 17  2  0
 17 18  1  0
 18 19  2  0
 19 20  1  0
 20 21  2  0
 10 22  2  0
 22 23  1  0
 23 24  1  0
 24 25  2  0
 25 26  1  0
 26 27  2  0
 27 28  1  0
 27 29  1  0
 29 30  2  0
 23 31  2  0
 31 32  1  0
 32 33  1  0
 33 34  2  0
  7 35  1  0
 35 36  2  0
 36  4  1  0
 34  8  1  0
 21 16  1  0
 33 22  1  0
 30 24  1  0
M  END
>  <Binding energies>  (57) 
[-9.67]

>  <Ligand effiencies>  (57) 
[-0.2544736842105263]

>  <Interactions>  (57) 
["V-B:ARG:545:CG:9894, V-A:HIS:456:CD2:4068, V-B:GLU:543:CD:9880, H-B:LYS:547:NZ:9923, V-B:GLU:543:C:9874, V-B:GLU:543:CB:9878, V-A:HIS:456:CE1:4069, V-B:ARG:545:CZ:9898, H-A:HIS:456:NE2:4070, V-B:ARG:545:CD:9895, V-B:HIS:456:CE1:9040, V-B:ILE:455:C:9023, H-B:GLY:454:N:9021, V-A:PRO:540:N:4884, V-A:TYR:539:C:4867, V-B:GLY:454:CA:9020, V-B:ASP:366:CG:8184, V-B:LEU:475:CD1:9229, V-A:PRO:540:CA:4883, V-B:ILE:369:CD1:8210, H-B:ILE:455:N:9026, V-A:TYR:539:CE2:4876, H-B:TYR:484:OH:9319, V-B:ILE:369:CG2:8208, V-A:TYR:539:CD2:4874, H-B:ARG:545:NE:9896, V-A:TYR:484:CZ:4347, H-B:HIS:456:ND1:9038, V-A:TYR:484:CE1:4345, V-A:TYR:539:CZ:4877, V-B:GLY:544:C:9884, V-A:HIS:456:CG:4066, H-B:GLU:543:OE1:9881, V-A:TYR:484:CD2:4344, V-A:TYR:484:CE2:4346, V-A:TYR:484:CD1:4343, V-A:HIS:456:CB:4065, V-A:TYR:484:CG:4342, H-B:GLU:543:OE2:9882, V-B:ARG:545:CB:9893, H-B:ILE:455:O:9024"]

$$$$
