lig2.pdb
 OpenBabel06022617083D

 40 42  0  0  1  0  0  0  0  0999 V2000
   99.3800  120.0580   63.1270 C   0  0  0  0  0  0  0  0  0  0  0  0
  104.1380  125.5200   59.7670 N   0  0  0  0  0  0  0  0  0  0  0  0
   99.5040  118.7360   62.5920 O   0  0  0  0  0  0  0  0  0  0  0  0
  100.6910  120.5380   63.7890 C   0  0  1  0  0  0  0  0  0  0  0  0
  104.1110  124.1210   61.7280 N   0  0  0  0  0  0  0  0  0  0  0  0
  101.7980  120.4290   62.8590 O   0  0  0  0  0  0  0  0  0  0  0  0
  100.6610  122.0410   64.1840 C   0  0  1  0  0  0  0  0  0  0  0  0
  102.5810  125.2840   58.1730 N   0  0  0  0  0  0  0  0  0  0  0  0
   99.9400  122.2940   65.3890 O   0  0  0  0  0  0  0  0  0  0  0  0
  102.1880  122.3430   64.2470 C   0  0  1  0  0  0  0  0  0  0  0  0
  101.3700  123.0640   59.7150 N   0  0  0  0  0  0  0  0  0  0  0  0
  102.8510  121.7740   65.3880 O   0  0  0  0  0  0  0  0  0  0  0  0
  102.5940  121.6440   62.9150 C   0  0  2  0  0  0  0  0  0  0  0  0
  102.3360  122.4300   61.7110 N   0  0  1  0  0  0  0  0  0  0  0  0
  104.6030  125.1170   60.9650 C   0  0  0  0  0  0  0  0  0  0  0  0
  103.0400  123.4960   61.2290 C   0  0  2  0  0  0  0  0  0  0  0  0
  102.4710  123.8450   60.0490 C   0  0  1  0  0  0  0  0  0  0  0  0
  103.0570  124.8890   59.3540 C   0  0  1  0  0  0  0  0  0  0  0  0
  101.3220  122.2290   60.7580 C   0  0  0  0  0  0  0  0  0  0  0  0
  103.9040  126.5020   59.8090 H   0  0  0  0  0  0  0  0  0  0  0  0
  104.8210  123.4140   61.8580 H   0  0  0  0  0  0  0  0  0  0  0  0
  100.5530  123.6520   59.6320 H   0  0  0  0  0  0  0  0  0  0  0  0
  100.8960  119.9330   64.6720 H   0  0  0  0  0  0  0  0  0  0  0  0
  100.2150  122.6160   63.3720 H   0  0  0  0  0  0  0  0  0  0  0  0
  102.3710  123.4160   64.1900 H   0  0  0  0  0  0  0  0  0  0  0  0
  103.6510  121.3810   62.9540 H   0  0  0  0  0  0  0  0  0  0  0  0
  102.3810  124.1830   61.7600 H   0  0  0  0  0  0  0  0  0  0  0  0
  101.8200  124.5490   60.5660 H   0  0  0  0  0  0  0  0  0  0  0  0
  102.4210  125.6090   59.8690 H   0  0  0  0  0  0  0  0  0  0  0  0
  100.1980  118.7230   61.9280 H   0  0  0  0  0  0  0  0  0  0  0  0
  100.3470  121.8130   66.1130 H   0  0  0  0  0  0  0  0  0  0  0  0
  103.1060  122.4750   65.9930 H   0  0  0  0  0  0  0  0  0  0  0  0
  101.3620  121.2010   60.3990 H   0  0  0  0  0  0  0  0  0  0  0  0
  100.3490  122.3120   61.2430 H   0  0  0  0  0  0  0  0  0  0  0  0
   98.5750  120.0780   63.8610 H   0  0  0  0  0  0  0  0  0  0  0  0
   99.1030  120.7470   62.3290 H   0  0  0  0  0  0  0  0  0  0  0  0
  101.7580  124.7460   57.9440 H   0  0  0  0  0  0  0  0  0  0  0  0
  102.3400  126.2640   58.2170 H   0  0  0  0  0  0  0  0  0  0  0  0
  104.7240  125.9980   61.5950 H   0  0  0  0  0  0  0  0  0  0  0  0
  105.6810  124.9780   60.8800 H   0  0  0  0  0  0  0  0  0  0  0  0
  1  4  1  0  0  0  0
  1 35  1  0  0  0  0
  2 20  1  0  0  0  0
  2 15  1  0  0  0  0
  3  1  1  0  0  0  0
  4  7  1  1  0  0  0
  4 23  1  0  0  0  0
  5 21  1  0  0  0  0
  6 13  1  0  0  0  0
  6  4  1  0  0  0  0
  7 10  1  1  0  0  0
  7  9  1  0  0  0  0
  8 38  1  0  0  0  0
  8 18  1  0  0  0  0
  9 31  1  0  0  0  0
 10 13  1  6  0  0  0
 10 12  1  0  0  0  0
 11 17  1  0  0  0  0
 11 19  1  0  0  0  0
 12 32  1  0  0  0  0
 13 26  1  1  0  0  0
 14 16  1  6  0  0  0
 14 13  1  0  0  0  0
 15 39  1  0  0  0  0
 15  5  1  0  0  0  0
 16 17  1  6  0  0  0
 16  5  1  0  0  0  0
 16 27  1  0  0  0  0
 17 18  1  6  0  0  0
 17 28  1  0  0  0  0
 18  2  1  0  0  0  0
 18 29  1  1  0  0  0
 19 34  1  0  0  0  0
 19 14  1  0  0  0  0
 22 11  1  0  0  0  0
 24  7  1  0  0  0  0
 25 10  1  0  0  0  0
 30  3  1  0  0  0  0
 33 19  1  0  0  0  0
 36  1  1  0  0  0  0
 37  8  1  0  0  0  0
 40 15  1  0  0  0  0
M  END
$$$$
