1a_Ghoteimi_2023
     RDKit          3D

 40 43  0  0  0  0  0  0  0  0999 V2000
  132.4680  130.9350   58.6920 C   0  0  0  0  0  0  0  0  0  0  0  0
  133.1870  130.9170   57.3400 C   0  0  0  0  0  0  0  0  0  0  0  0
  132.9490  132.1460   56.6640 O   0  0  0  0  0  0  0  0  0  0  0  0
  132.2860  132.1780   55.4790 C   0  0  0  0  0  0  0  0  0  0  0  0
  132.8200  132.4850   54.4090 O   0  0  0  0  0  0  0  0  0  0  0  0
  130.8390  131.7970   55.6000 C   0  0  0  0  0  0  0  0  0  0  0  0
  130.2290  130.9060   54.7050 C   0  0  0  0  0  0  0  0  0  0  0  0
  128.8830  130.5740   54.8400 C   0  0  0  0  0  0  0  0  0  0  0  0
  128.1220  131.1270   55.8810 C   0  0  0  0  0  0  0  0  0  0  0  0
  126.7570  130.8660   56.1080 N   0  0  0  0  0  0  0  0  0  0  0  0
  126.0080  129.8010   55.7490 C   0  0  0  0  0  0  0  0  0  0  0  0
  126.4150  128.8120   55.1390 O   0  0  0  0  0  0  0  0  0  0  0  0
  124.5370  129.8640   56.1580 C   0  0  0  0  0  0  0  0  0  0  0  0
  124.3350  130.5150   57.8420 S   0  0  0  0  0  0  0  0  0  0  0  0
  125.1210  129.3430   58.9240 C   0  0  0  0  0  0  0  0  0  0  0  0
  125.4080  128.1580   58.3350 N   0  0  0  0  0  0  0  0  0  0  0  0
  126.0150  127.1770   59.0530 C   0  0  0  0  0  0  0  0  0  0  0  0
  126.3190  125.9000   58.3230 C   0  0  0  0  0  0  0  0  0  0  0  0
  127.3810  125.8180   57.4070 C   0  0  0  0  0  0  0  0  0  0  0  0
  127.6610  124.6330   56.7330 C   0  0  0  0  0  0  0  0  0  0  0  0
  126.8890  123.4950   56.9500 C   0  0  0  0  0  0  0  0  0  0  0  0
  127.2400  122.3630   56.2390 O   0  0  0  0  0  0  0  0  0  0  0  0
  127.1320  122.3730   54.8200 C   0  0  0  0  0  0  0  0  0  0  0  0
  125.8230  123.5620   57.8570 C   0  0  0  0  0  0  0  0  0  0  0  0
  125.5460  124.7480   58.5290 C   0  0  0  0  0  0  0  0  0  0  0  0
  126.3460  127.3790   60.3980 C   0  0  0  0  0  0  0  0  0  0  0  0
  126.0360  128.5870   61.0360 C   0  0  0  0  0  0  0  0  0  0  0  0
  126.3890  128.7200   62.4820 C   0  0  0  0  0  0  0  0  0  0  0  0
  127.7230  128.6790   62.9010 C   0  0  0  0  0  0  0  0  0  0  0  0
  128.0450  128.8190   64.2480 C   0  0  0  0  0  0  0  0  0  0  0  0
  127.0440  129.0100   65.2010 C   0  0  0  0  0  0  0  0  0  0  0  0
  127.4580  129.1390   66.5120 O   0  0  0  0  0  0  0  0  0  0  0  0
  128.5780  128.3850   66.9640 C   0  0  0  0  0  0  0  0  0  0  0  0
  125.7050  129.0600   64.7830 C   0  0  0  0  0  0  0  0  0  0  0  0
  125.3850  128.9190   63.4350 C   0  0  0  0  0  0  0  0  0  0  0  0
  125.4080  129.6070   60.2810 C   0  0  0  0  0  0  0  0  0  0  0  0
  125.0730  130.8980   60.8900 C   0  0  0  0  0  0  0  0  0  0  0  0
  124.8090  131.9170   61.3710 N   0  0  0  0  0  0  0  0  0  0  0  0
  128.7250  132.0170   56.7700 C   0  0  0  0  0  0  0  0  0  0  0  0
  130.0710  132.3480   56.6340 C   0  0  0  0  0  0  0  0  0  0  0  0
  1  2  1  0
  2  3  1  0
  3  4  1  0
  4  5  2  0
  4  6  1  0
  6  7  2  0
  7  8  1  0
  8  9  2  0
  9 10  1  0
 10 11  1  0
 11 12  2  0
 11 13  1  0
 13 14  1  0
 14 15  1  0
 15 16  2  0
 16 17  1  0
 17 18  1  0
 18 19  2  0
 19 20  1  0
 20 21  2  0
 21 22  1  0
 22 23  1  0
 21 24  1  0
 24 25  2  0
 17 26  2  0
 26 27  1  0
 27 28  1  0
 28 29  2  0
 29 30  1  0
 30 31  2  0
 31 32  1  0
 32 33  1  0
 31 34  1  0
 34 35  2  0
 27 36  2  0
 36 37  1  0
 37 38  3  0
  9 39  1  0
 39 40  2  0
 40  6  1  0
 36 15  1  0
 25 18  1  0
 35 28  1  0
M  END
>  <Binding energies>  (1) 
[-10.08]

>  <Ligand effiencies>  (1) 
[-0.24585365853658536]

>  <Interactions>  (1) 
["V-B:TYR:539:CD1:9845, V-B:ILE:538:CD1:9837, V-B:PRO:540:CB:9857, V-B:PRO:540:CA:9855, H-B:TYR:539:N:9842, V-B:ILE:538:CA:9832, V-B:MET:535:CE:9807, V-B:TYR:539:CE1:9847, V-B:TYR:531:CZ:9766, V-A:ASP:366:CB:3212, V-A:TYR:539:CE1:4875, V-A:TYR:531:CZ:4794, V-B:TYR:531:CE1:9764, V-B:ASP:366:CG:8185, V-A:TYR:539:CZ:4877, V-A:TYR:531:CE2:4793, V-A:PRO:540:CA:4883, V-A:TYR:539:C:4867, V-A:PRO:540:N:4884, V-A:PRO:540:CB:4885, V-B:ASP:366:CB:8184, V-A:TYR:539:CE2:4876, H-B:LYS:534:NZ:9795, V-A:LEU:363:CD1:3189, V-B:ILE:538:C:9830, V-A:GLU:543:CD:4908, V-A:LEU:363:CA:3185, V-A:GLU:543:CG:4907, H-B:TYR:531:OH:9767, V-A:ILE:538:CB:4862, V-A:ILE:538:CG2:4863, H-A:TYR:531:OH:4795, H-A:TYR:539:OH:4878, V-A:GLU:543:CB:4906, V-B:ARG:545:CZ:9898, V-B:HIS:456:CE1:9042, V-A:TYR:539:CD1:4873, V-B:TYR:531:CD1:9762, H-B:TYR:484:OH:9320, V-B:VAL:537:C:9822"]

$$$$
1b_Ghoteimi_2023
     RDKit          3D

 34 37  0  0  0  0  0  0  0  0999 V2000
  127.2260  122.3650   54.8390 C   0  0  0  0  0  0  0  0  0  0  0  0
  127.2680  122.3460   56.2610 O   0  0  0  0  0  0  0  0  0  0  0  0
  126.9340  123.4900   56.9600 C   0  0  0  0  0  0  0  0  0  0  0  0
  127.7470  124.6040   56.7610 C   0  0  0  0  0  0  0  0  0  0  0  0
  127.4880  125.8000   57.4230 C   0  0  0  0  0  0  0  0  0  0  0  0
  126.4030  125.9200   58.3040 C   0  0  0  0  0  0  0  0  0  0  0  0
  126.1280  127.2130   59.0190 C   0  0  0  0  0  0  0  0  0  0  0  0
  126.4000  127.4050   60.3780 C   0  0  0  0  0  0  0  0  0  0  0  0
  126.1280  128.6310   60.9960 C   0  0  0  0  0  0  0  0  0  0  0  0
  126.4390  128.7620   62.4510 C   0  0  0  0  0  0  0  0  0  0  0  0
  127.7560  128.6510   62.9040 C   0  0  0  0  0  0  0  0  0  0  0  0
  128.0500  128.7640   64.2600 C   0  0  0  0  0  0  0  0  0  0  0  0
  127.0340  128.9850   65.1890 C   0  0  0  0  0  0  0  0  0  0  0  0
  127.4190  129.0830   66.5130 O   0  0  0  0  0  0  0  0  0  0  0  0
  128.5620  128.3600   66.9580 C   0  0  0  0  0  0  0  0  0  0  0  0
  125.7090  129.0890   64.7410 C   0  0  0  0  0  0  0  0  0  0  0  0
  125.4190  128.9750   63.3840 C   0  0  0  0  0  0  0  0  0  0  0  0
  125.5830  129.6770   60.2100 C   0  0  0  0  0  0  0  0  0  0  0  0
  125.3700  131.0080   60.7860 C   0  0  0  0  0  0  0  0  0  0  0  0
  125.2020  132.0580   61.2420 N   0  0  0  0  0  0  0  0  0  0  0  0
  125.3130  129.4110   58.8490 C   0  0  0  0  0  0  0  0  0  0  0  0
  124.6220  130.5980   57.7160 S   0  0  0  0  0  0  0  0  0  0  0  0
  124.9510  130.0130   56.0200 C   0  0  0  0  0  0  0  0  0  0  0  0
  126.4010  130.1820   55.5440 C   0  0  0  0  0  0  0  0  0  0  0  0
  126.9880  129.2610   54.9710 O   0  0  0  0  0  0  0  0  0  0  0  0
  126.9440  131.3920   55.8090 N   0  0  0  0  0  0  0  0  0  0  0  0
  128.2270  131.8250   55.4950 C   0  0  0  0  0  0  0  0  0  0  0  0
  129.0220  131.2130   54.5270 C   0  0  0  0  0  0  0  0  0  0  0  0
  130.1960  131.9310   54.5220 C   0  0  0  0  0  0  0  0  0  0  0  0
  130.1110  132.9250   55.4380 O   0  0  0  0  0  0  0  0  0  0  0  0
  128.8580  132.8470   56.0480 N   0  0  0  0  0  0  0  0  0  0  0  0
  125.5990  128.2180   58.2730 N   0  0  0  0  0  0  0  0  0  0  0  0
  125.5910  124.7920   58.4980 C   0  0  0  0  0  0  0  0  0  0  0  0
  125.8470  123.5940   57.8390 C   0  0  0  0  0  0  0  0  0  0  0  0
  1  2  1  0
  2  3  1  0
  3  4  2  0
  4  5  1  0
  5  6  2  0
  6  7  1  0
  7  8  2  0
  8  9  1  0
  9 10  1  0
 10 11  2  0
 11 12  1  0
 12 13  2  0
 13 14  1  0
 14 15  1  0
 13 16  1  0
 16 17  2  0
  9 18  2  0
 18 19  1  0
 19 20  3  0
 18 21  1  0
 21 22  1  0
 22 23  1  0
 23 24  1  0
 24 25  2  0
 24 26  1  0
 26 27  1  0
 27 28  1  0
 28 29  2  0
 29 30  1  0
 30 31  1  0
 21 32  2  0
  6 33  1  0
 33 34  2  0
 34  3  1  0
 32  7  1  0
 17 10  1  0
 31 27  2  0
M  END
>  <Binding energies>  (2) 
[-9.12]

>  <Ligand effiencies>  (2) 
[-0.26057142857142856]

>  <Interactions>  (2) 
["V-B:TYR:539:CD1:9845, V-B:ILE:538:CD1:9837, V-B:PRO:540:CB:9857, V-B:PRO:540:CA:9855, H-B:TYR:539:N:9842, V-B:ILE:538:CA:9832, V-B:MET:535:CE:9807, V-B:TYR:539:CE1:9847, V-A:TYR:539:CE1:4875, V-B:TYR:531:CE1:9764, H-A:TYR:539:N:4870, V-B:ASP:366:CG:8185, V-A:TYR:539:CZ:4877, V-B:ASP:366:CB:8184, V-A:TYR:539:CE2:4876, H-B:LYS:534:NZ:9795, V-B:ILE:538:C:9830, V-A:GLU:543:CD:4908, V-A:GLU:543:CG:4907, H-B:TYR:531:OH:9767, V-A:ILE:538:CG2:4863, H-A:TYR:539:OH:4878, V-A:GLU:543:CB:4906, V-B:ARG:545:CZ:9898, V-B:HIS:456:CE1:9042, V-A:TYR:539:CD2:4874, V-A:TYR:539:CD1:4873, H-B:TYR:484:OH:9320, V-B:VAL:537:C:9822"]

$$$$
1c_Ghoteimi_2023
     RDKit          3D

 34 37  0  0  0  0  0  0  0  0999 V2000
  127.2200  122.3470   54.9280 C   0  0  0  0  0  0  0  0  0  0  0  0
  127.3120  122.4010   56.3470 O   0  0  0  0  0  0  0  0  0  0  0  0
  127.0740  123.5980   56.9950 C   0  0  0  0  0  0  0  0  0  0  0  0
  125.9260  123.6660   57.7800 C   0  0  0  0  0  0  0  0  0  0  0  0
  125.6060  124.8350   58.4660 C   0  0  0  0  0  0  0  0  0  0  0  0
  126.4260  125.9710   58.3860 C   0  0  0  0  0  0  0  0  0  0  0  0
  126.0820  127.2350   59.1200 C   0  0  0  0  0  0  0  0  0  0  0  0
  126.3540  127.4180   60.4810 C   0  0  0  0  0  0  0  0  0  0  0  0
  126.0400  128.6240   61.1160 C   0  0  0  0  0  0  0  0  0  0  0  0
  126.4190  128.7740   62.5520 C   0  0  0  0  0  0  0  0  0  0  0  0
  127.7580  128.6890   62.9470 C   0  0  0  0  0  0  0  0  0  0  0  0
  128.1070  128.8070   64.2880 C   0  0  0  0  0  0  0  0  0  0  0  0
  127.1280  129.0080   65.2600 C   0  0  0  0  0  0  0  0  0  0  0  0
  127.5670  129.1140   66.5670 O   0  0  0  0  0  0  0  0  0  0  0  0
  128.7200  128.3830   66.9730 C   0  0  0  0  0  0  0  0  0  0  0  0
  125.7820  129.0870   64.8690 C   0  0  0  0  0  0  0  0  0  0  0  0
  125.4350  128.9690   63.5260 C   0  0  0  0  0  0  0  0  0  0  0  0
  125.4140  129.6420   60.3580 C   0  0  0  0  0  0  0  0  0  0  0  0
  125.0280  130.9160   60.9730 C   0  0  0  0  0  0  0  0  0  0  0  0
  124.7250  131.9220   61.4600 N   0  0  0  0  0  0  0  0  0  0  0  0
  125.1840  129.3980   58.9880 C   0  0  0  0  0  0  0  0  0  0  0  0
  124.5630  130.6450   57.8800 S   0  0  0  0  0  0  0  0  0  0  0  0
  124.6450  129.8820   56.2270 C   0  0  0  0  0  0  0  0  0  0  0  0
  126.0660  129.8940   55.6540 C   0  0  0  0  0  0  0  0  0  0  0  0
  126.5120  128.8810   55.1120 O   0  0  0  0  0  0  0  0  0  0  0  0
  126.7200  131.0720   55.7590 N   0  0  0  0  0  0  0  0  0  0  0  0
  127.9430  131.3940   55.1930 C   0  0  0  0  0  0  0  0  0  0  0  0
  128.3080  131.2700   53.9350 N   0  0  0  0  0  0  0  0  0  0  0  0
  129.5350  131.7140   53.7430 C   0  0  0  0  0  0  0  0  0  0  0  0
  130.1910  132.2160   54.8620 C   0  0  0  0  0  0  0  0  0  0  0  0
  129.1370  132.0920   56.2390 S   0  0  0  0  0  0  0  0  0  0  0  0
  125.5180  128.2310   58.3870 N   0  0  0  0  0  0  0  0  0  0  0  0
  127.5830  125.8890   57.5970 C   0  0  0  0  0  0  0  0  0  0  0  0
  127.9060  124.7230   56.9090 C   0  0  0  0  0  0  0  0  0  0  0  0
  1  2  1  0
  2  3  1  0
  3  4  2  0
  4  5  1  0
  5  6  2  0
  6  7  1  0
  7  8  2  0
  8  9  1  0
  9 10  1  0
 10 11  2  0
 11 12  1  0
 12 13  2  0
 13 14  1  0
 14 15  1  0
 13 16  1  0
 16 17  2  0
  9 18  2  0
 18 19  1  0
 19 20  3  0
 18 21  1  0
 21 22  1  0
 22 23  1  0
 23 24  1  0
 24 25  2  0
 24 26  1  0
 26 27  1  0
 27 28  2  0
 28 29  1  0
 29 30  2  0
 30 31  1  0
 21 32  2  0
  6 33  1  0
 33 34  2  0
 34  3  1  0
 32  7  1  0
 17 10  1  0
 31 27  1  0
M  END
>  <Binding energies>  (3) 
[-9.1]

>  <Ligand effiencies>  (3) 
[-0.26]

>  <Interactions>  (3) 
["V-B:TYR:539:CD1:9845, V-B:ILE:538:CD1:9837, V-B:PRO:540:CB:9857, H-B:TYR:539:N:9842, V-B:ILE:538:CA:9832, V-B:MET:535:CE:9807, V-B:TYR:539:CE1:9847, V-B:TYR:539:CG:9844, V-B:TYR:531:CZ:9766, V-A:TYR:539:CE1:4875, V-B:TYR:531:CE1:9764, V-B:ASP:366:CG:8185, V-A:TYR:539:CZ:4877, V-B:ASP:366:CB:8184, V-A:TYR:539:CE2:4876, H-B:LYS:534:NZ:9795, V-B:ILE:538:C:9830, V-A:GLU:543:CD:4908, V-A:GLU:543:CG:4907, H-B:TYR:531:OH:9767, V-A:ILE:538:CA:4860, V-A:ILE:538:CB:4862, V-A:ILE:538:CG2:4863, H-A:TYR:539:OH:4878, V-A:GLU:543:CB:4906, V-B:ARG:545:CZ:9898, V-B:HIS:456:CE1:9042, H-B:TYR:484:OH:9320, V-B:VAL:537:C:9822"]

$$$$
1d_Ghoteimi_2023
     RDKit          3D

 30 32  0  0  0  0  0  0  0  0999 V2000
  124.7280  122.7050   56.1920 C   0  0  0  0  0  0  0  0  0  0  0  0
  126.0590  122.3280   55.8760 O   0  0  0  0  0  0  0  0  0  0  0  0
  127.0870  122.7310   56.6510 C   0  0  0  0  0  0  0  0  0  0  0  0
  127.8150  122.0050   57.3310 O   0  0  0  0  0  0  0  0  0  0  0  0
  127.2820  124.2440   56.6170 C   0  0  0  0  0  0  0  0  0  0  0  0
  127.1020  124.8580   58.3180 S   0  0  0  0  0  0  0  0  0  0  0  0
  128.4300  126.0080   58.6000 C   0  0  0  0  0  0  0  0  0  0  0  0
  129.2490  125.6570   59.6200 N   0  0  0  0  0  0  0  0  0  0  0  0
  130.3030  126.4480   59.9460 C   0  0  0  0  0  0  0  0  0  0  0  0
  131.1650  125.9850   61.0840 C   0  0  0  0  0  0  0  0  0  0  0  0
  132.4040  125.3660   60.8540 C   0  0  0  0  0  0  0  0  0  0  0  0
  133.1990  124.9310   61.9110 C   0  0  0  0  0  0  0  0  0  0  0  0
  132.7810  125.0980   63.2290 C   0  0  0  0  0  0  0  0  0  0  0  0
  133.6320  124.6320   64.2120 O   0  0  0  0  0  0  0  0  0  0  0  0
  133.4900  125.1230   65.5410 C   0  0  0  0  0  0  0  0  0  0  0  0
  131.5450  125.7130   63.4740 C   0  0  0  0  0  0  0  0  0  0  0  0
  130.7540  126.1480   62.4150 C   0  0  0  0  0  0  0  0  0  0  0  0
  130.5590  127.6240   59.2300 C   0  0  0  0  0  0  0  0  0  0  0  0
  129.7200  128.0190   58.1820 C   0  0  0  0  0  0  0  0  0  0  0  0
  130.0480  129.2900   57.4650 C   0  0  0  0  0  0  0  0  0  0  0  0
  130.4570  130.4170   58.1830 C   0  0  0  0  0  0  0  0  0  0  0  0
  130.7640  131.6040   57.5220 C   0  0  0  0  0  0  0  0  0  0  0  0
  130.6740  131.6860   56.1330 C   0  0  0  0  0  0  0  0  0  0  0  0
  130.9910  132.9040   55.5640 O   0  0  0  0  0  0  0  0  0  0  0  0
  132.3560  133.3000   55.4850 C   0  0  0  0  0  0  0  0  0  0  0  0
  130.2760  130.5520   55.4070 C   0  0  0  0  0  0  0  0  0  0  0  0
  129.9710  129.3670   56.0700 C   0  0  0  0  0  0  0  0  0  0  0  0
  128.6070  127.2020   57.8640 C   0  0  0  0  0  0  0  0  0  0  0  0
  127.6380  127.6200   56.8460 C   0  0  0  0  0  0  0  0  0  0  0  0
  126.8730  127.9500   56.0430 N   0  0  0  0  0  0  0  0  0  0  0  0
  1  2  1  0
  2  3  1  0
  3  4  2  0
  3  5  1  0
  5  6  1  0
  6  7  1  0
  7  8  2  0
  8  9  1  0
  9 10  1  0
 10 11  2  0
 11 12  1  0
 12 13  2  0
 13 14  1  0
 14 15  1  0
 13 16  1  0
 16 17  2  0
  9 18  2  0
 18 19  1  0
 19 20  1  0
 20 21  2  0
 21 22  1  0
 22 23  2  0
 23 24  1  0
 24 25  1  0
 23 26  1  0
 26 27  2  0
 19 28  2  0
 28 29  1  0
 29 30  3  0
 28  7  1  0
 17 10  1  0
 27 20  1  0
M  END
>  <Binding energies>  (4) 
[-7.88]

>  <Ligand effiencies>  (4) 
[-0.26266666666666666]

>  <Interactions>  (4) 
["V-B:TYR:539:CD1:9845, V-B:ILE:538:CD1:9837, V-B:PRO:540:CD:9859, V-B:LEU:363:CD1:8161, V-B:TYR:539:C:9839, H-B:TYR:539:N:9842, V-B:ILE:538:CG2:9835, V-B:MET:535:CE:9807, V-B:PRO:540:N:9856, V-B:TYR:531:CE2:9765, H-A:TYR:484:OH:4348, V-A:ASP:366:CG:3213, V-B:TYR:531:CZ:9766, H-A:TYR:539:N:4870, V-A:PRO:540:CA:4883, V-A:PRO:540:N:4884, V-A:PRO:540:CB:4885, V-A:LEU:363:CD1:3189, V-A:GLU:543:CD:4908, H-A:GLY:454:N:4050, V-A:ARG:545:CZ:4926, V-A:PRO:540:CD:4887, H-B:TYR:531:OH:9767, V-A:ILE:538:CA:4860, V-A:ILE:538:CB:4862, V-A:TYR:484:CE2:4346, H-A:ARG:545:NE:4924, V-A:TYR:484:CZ:4347, V-A:ARG:545:CG:4922, V-A:ILE:538:CG2:4863, V-A:ARG:545:CD:4923, V-A:PRO:540:CG:4886, V-A:ILE:538:CD1:4865"]

$$$$
1j_Grossjean_2025
     RDKit          3D

 20 21  0  0  0  0  0  0  0  0999 V2000
  131.4180  118.0230   59.9450 C   0  0  0  0  0  0  0  0  0  0  0  0
  131.3950  119.4790   60.3720 C   0  0  0  0  0  0  0  0  0  0  0  0
  132.5160  120.2950   60.2430 C   0  0  0  0  0  0  0  0  0  0  0  0
  132.4320  121.6330   60.6410 C   0  0  0  0  0  0  0  0  0  0  0  0
  133.6700  122.5130   60.4730 C   0  0  0  0  0  0  0  0  0  0  0  0
  131.2170  122.1210   61.1710 C   0  0  0  0  0  0  0  0  0  0  0  0
  131.0900  123.5320   61.5450 C   0  0  0  0  0  0  0  0  0  0  0  0
  130.9940  124.6470   61.8390 N   0  0  0  0  0  0  0  0  0  0  0  0
  130.1370  121.2140   61.2910 C   0  0  0  0  0  0  0  0  0  0  0  0
  128.5390  121.6550   61.9380 S   0  0  0  0  0  0  0  0  0  0  0  0
  127.9430  123.0960   61.0040 C   0  0  0  0  0  0  0  0  0  0  0  0
  127.8100  122.7960   59.5100 C   0  0  0  0  0  0  0  0  0  0  0  0
  128.7810  122.3550   58.8930 O   0  0  0  0  0  0  0  0  0  0  0  0
  126.5970  123.0470   58.9710 N   0  0  0  0  0  0  0  0  0  0  0  0
  126.2250  122.8670   57.6460 C   0  0  0  0  0  0  0  0  0  0  0  0
  126.9610  122.4040   56.6580 N   0  0  0  0  0  0  0  0  0  0  0  0
  126.2830  122.3660   55.5280 C   0  0  0  0  0  0  0  0  0  0  0  0
  124.9630  122.8040   55.5860 C   0  0  0  0  0  0  0  0  0  0  0  0
  124.6000  123.2890   57.2150 S   0  0  0  0  0  0  0  0  0  0  0  0
  130.2220  119.9240   60.8820 N   0  0  0  0  0  0  0  0  0  0  0  0
  1  2  1  0
  2  3  2  0
  3  4  1  0
  4  5  1  0
  4  6  2  0
  6  7  1  0
  7  8  3  0
  6  9  1  0
  9 10  1  0
 10 11  1  0
 11 12  1  0
 12 13  2  0
 12 14  1  0
 14 15  1  0
 15 16  2  0
 16 17  1  0
 17 18  2  0
 18 19  1  0
  9 20  2  0
 20  2  1  0
 19 15  1  0
M  END
>  <Binding energies>  (5) 
[-6.89]

>  <Ligand effiencies>  (5) 
[-0.3280952380952381]

>  <Interactions>  (5) 
["V-B:ILE:538:CD1:9837, V-B:PRO:540:CB:9857, V-B:PRO:540:CD:9859, V-B:LEU:363:CD1:8161, V-B:TYR:539:C:9839, V-B:PRO:540:CA:9855, H-B:TYR:539:N:9842, V-B:ILE:538:CG2:9835, V-B:TYR:539:CE2:9848, V-B:TYR:539:CD2:9846, V-B:ILE:538:CA:9832, H-B:ASP:366:OD2:8187, V-B:PRO:540:N:9856, V-B:TYR:531:CE2:9765, V-A:SER:385:CB:3409, H-A:TYR:484:OH:4348, V-A:LEU:475:CD2:4259, V-B:TYR:531:CZ:9766, V-A:ILE:369:CD1:3239, V-A:ILE:369:CB:3236, V-A:ILE:369:CG2:3237, V-B:ILE:538:C:9830, H-B:ALA:541:N:9863, V-B:TYR:539:CB:9843"]

$$$$
1o_Grossjean_2025
     RDKit          3D

 26 27  0  0  0  0  0  0  0  0999 V2000
  126.4300  122.7020   55.4770 C   0  0  0  0  0  0  0  0  0  0  0  0
  126.9140  122.0130   56.6210 O   0  0  0  0  0  0  0  0  0  0  0  0
  127.5790  122.6710   57.6050 C   0  0  0  0  0  0  0  0  0  0  0  0
  128.2950  122.1070   58.4380 O   0  0  0  0  0  0  0  0  0  0  0  0
  127.3620  124.1570   57.5770 C   0  0  0  0  0  0  0  0  0  0  0  0
  128.2760  125.0300   56.9690 C   0  0  0  0  0  0  0  0  0  0  0  0
  128.0430  126.4030   56.9580 C   0  0  0  0  0  0  0  0  0  0  0  0
  126.8990  126.9310   57.5580 C   0  0  0  0  0  0  0  0  0  0  0  0
  126.7590  128.3310   57.4810 N   0  0  0  0  0  0  0  0  0  0  0  0
  126.6510  129.1320   56.3990 C   0  0  0  0  0  0  0  0  0  0  0  0
  126.6120  128.7450   55.2310 O   0  0  0  0  0  0  0  0  0  0  0  0
  126.5420  130.6350   56.6970 C   0  0  0  0  0  0  0  0  0  0  0  0
  126.9680  131.0050   58.1310 C   0  0  0  0  0  0  0  0  0  0  0  0
  128.0100  132.4910   58.2310 S   0  0  0  0  0  0  0  0  0  0  0  0
  129.5120  132.1890   57.3210 C   0  0  0  0  0  0  0  0  0  0  0  0
  129.3470  132.2390   55.9750 N   0  0  0  0  0  0  0  0  0  0  0  0
  130.4230  132.0330   55.1790 C   0  0  0  0  0  0  0  0  0  0  0  0
  130.1640  132.1190   53.6860 C   0  0  0  0  0  0  0  0  0  0  0  0
  131.6910  131.7590   55.6860 C   0  0  0  0  0  0  0  0  0  0  0  0
  131.8670  131.6790   57.0710 C   0  0  0  0  0  0  0  0  0  0  0  0
  133.2640  131.3630   57.6010 C   0  0  0  0  0  0  0  0  0  0  0  0
  130.7570  131.8860   57.9220 C   0  0  0  0  0  0  0  0  0  0  0  0
  130.9100  131.7480   59.3720 C   0  0  0  0  0  0  0  0  0  0  0  0
  131.0330  131.6400   60.5180 N   0  0  0  0  0  0  0  0  0  0  0  0
  125.9780  126.0640   58.1630 C   0  0  0  0  0  0  0  0  0  0  0  0
  126.2120  124.6910   58.1720 C   0  0  0  0  0  0  0  0  0  0  0  0
  1  2  1  0
  2  3  1  0
  3  4  2  0
  3  5  1  0
  5  6  2  0
  6  7  1  0
  7  8  2  0
  8  9  1  0
  9 10  1  0
 10 11  2  0
 10 12  1  0
 12 13  1  0
 13 14  1  0
 14 15  1  0
 15 16  2  0
 16 17  1  0
 17 18  1  0
 17 19  2  0
 19 20  1  0
 20 21  1  0
 20 22  2  0
 22 23  1  0
 23 24  3  0
  8 25  1  0
 25 26  2  0
 26  5  1  0
 22 15  1  0
M  END
>  <Binding energies>  (6) 
[-8.04]

>  <Ligand effiencies>  (6) 
[-0.29777777777777775]

>  <Interactions>  (6) 
["V-B:ILE:538:CD1:9837, V-B:TYR:539:C:9839, V-B:PRO:540:CA:9855, H-B:TYR:539:N:9842, V-B:TYR:539:CE2:9848, V-B:TYR:539:CD2:9846, V-B:ILE:538:CA:9832, V-B:MET:535:CE:9807, V-B:PRO:540:N:9856, V-B:TYR:539:CG:9844, V-B:TYR:531:CZ:9766, V-A:TYR:539:CE1:4875, V-B:TYR:531:CE1:9764, V-B:ASP:366:CG:8185, V-A:TYR:539:CZ:4877, V-A:PRO:540:CA:4883, V-A:TYR:539:C:4867, V-A:PRO:540:N:4884, V-A:PRO:540:CB:4885, V-B:ASP:366:CB:8184, H-B:LYS:534:NZ:9795, V-A:LEU:363:CD1:3189, H-A:ALA:541:N:4891, V-A:LEU:363:CA:3185, H-B:TYR:531:OH:9767, V-A:ILE:538:CA:4860, V-A:ILE:538:CB:4862, V-A:ILE:538:CG2:4863, V-A:PRO:540:C:4881"]

$$$$
1p_Grossjean_2025
     RDKit          3D

 21 22  0  0  0  0  0  0  0  0999 V2000
  132.5030  124.7640   60.7160 C   0  0  0  0  0  0  0  0  0  0  0  0
  131.8650  123.4000   60.9060 C   0  0  0  0  0  0  0  0  0  0  0  0
  132.4340  122.2490   60.3640 C   0  0  0  0  0  0  0  0  0  0  0  0
  131.7960  121.0190   60.5590 C   0  0  0  0  0  0  0  0  0  0  0  0
  132.4290  119.7730   59.9440 C   0  0  0  0  0  0  0  0  0  0  0  0
  130.5970  120.9740   61.3060 C   0  0  0  0  0  0  0  0  0  0  0  0
  129.8850  119.7070   61.4840 C   0  0  0  0  0  0  0  0  0  0  0  0
  129.3230  118.7050   61.6240 N   0  0  0  0  0  0  0  0  0  0  0  0
  130.1040  122.1890   61.8380 C   0  0  0  0  0  0  0  0  0  0  0  0
  128.6180  122.3080   62.8080 S   0  0  0  0  0  0  0  0  0  0  0  0
  127.4490  123.3210   61.8560 C   0  0  0  0  0  0  0  0  0  0  0  0
  128.0680  123.9770   60.6070 C   0  0  0  0  0  0  0  0  0  0  0  0
  127.7590  123.2260   59.3030 C   0  0  0  0  0  0  0  0  0  0  0  0
  128.5530  122.3820   58.8840 O   0  0  0  0  0  0  0  0  0  0  0  0
  126.5910  123.5520   58.7040 N   0  0  0  0  0  0  0  0  0  0  0  0
  126.0760  123.0270   57.5250 C   0  0  0  0  0  0  0  0  0  0  0  0
  124.7440  123.1820   57.1410 C   0  0  0  0  0  0  0  0  0  0  0  0
  124.6410  122.5270   55.9350 C   0  0  0  0  0  0  0  0  0  0  0  0
  125.8460  122.0030   55.6110 O   0  0  0  0  0  0  0  0  0  0  0  0
  126.7480  122.3260   56.6270 N   0  0  0  0  0  0  0  0  0  0  0  0
  130.7200  123.3800   61.6260 N   0  0  0  0  0  0  0  0  0  0  0  0
  1  2  1  0
  2  3  2  0
  3  4  1  0
  4  5  1  0
  4  6  2  0
  6  7  1  0
  7  8  3  0
  6  9  1  0
  9 10  1  0
 10 11  1  0
 11 12  1  0
 12 13  1  0
 13 14  2  0
 13 15  1  0
 15 16  1  0
 16 17  1  0
 17 18  2  0
 18 19  1  0
 19 20  1  0
  9 21  2  0
 21  2  1  0
 20 16  2  0
M  END
>  <Binding energies>  (7) 
[-7.52]

>  <Ligand effiencies>  (7) 
[-0.3418181818181818]

>  <Interactions>  (7) 
["V-B:ILE:538:CD1:9837, V-B:PRO:540:CB:9857, V-B:PRO:540:CD:9859, V-B:LEU:363:CD1:8161, V-B:GLU:543:CD:9880, V-B:PRO:540:CA:9855, H-B:TYR:539:N:9842, V-B:ILE:538:CG2:9835, V-B:TYR:539:CE2:9848, V-B:TYR:539:CD2:9846, V-B:ILE:538:CA:9832, V-B:ALA:541:CB:9864, H-B:ASP:366:OD2:8187, V-B:PRO:540:N:9856, V-B:TYR:531:CE2:9765, V-A:SER:385:CB:3409, V-A:LEU:475:CD1:4258, H-A:TYR:484:OH:4348, V-A:ASP:366:CG:3213, V-A:LEU:475:CD2:4259, V-A:ILE:369:CG2:3237"]

$$$$
2a_Ghoteimi_2023
     RDKit          3D

 48 53  0  0  0  0  0  0  0  0999 V2000
  133.5850  122.6700   61.5550 C   0  0  0  0  0  0  0  0  0  0  0  0
  133.1060  124.1110   61.7540 C   0  0  0  0  0  0  0  0  0  0  0  0
  131.9320  124.3290   60.9820 O   0  0  0  0  0  0  0  0  0  0  0  0
  131.9850  124.9840   59.7940 C   0  0  0  0  0  0  0  0  0  0  0  0
  132.4900  124.5030   58.7740 O   0  0  0  0  0  0  0  0  0  0  0  0
  131.3600  126.3490   59.8410 C   0  0  0  0  0  0  0  0  0  0  0  0
  130.8270  126.8810   61.0240 C   0  0  0  0  0  0  0  0  0  0  0  0
  130.2570  128.1500   61.0340 C   0  0  0  0  0  0  0  0  0  0  0  0
  130.2110  128.9150   59.8670 C   0  0  0  0  0  0  0  0  0  0  0  0
  129.6080  130.1820   59.9910 N   0  0  0  0  0  0  0  0  0  0  0  0
  130.0980  131.3260   60.5150 C   0  0  0  0  0  0  0  0  0  0  0  0
  131.2030  131.4460   61.0460 O   0  0  0  0  0  0  0  0  0  0  0  0
  129.1490  132.5300   60.4550 C   0  0  0  0  0  0  0  0  0  0  0  0
  127.3860  132.1110   60.6430 S   0  0  0  0  0  0  0  0  0  0  0  0
  127.3540  130.5190   61.4350 C   0  0  0  0  0  0  0  0  0  0  0  0
  127.1440  129.4880   60.5840 N   0  0  0  0  0  0  0  0  0  0  0  0
  127.0890  128.2230   61.0700 C   0  0  0  0  0  0  0  0  0  0  0  0
  126.8450  127.1360   60.0730 C   0  0  0  0  0  0  0  0  0  0  0  0
  126.9270  127.3820   58.6970 C   0  0  0  0  0  0  0  0  0  0  0  0
  126.6870  126.3680   57.7730 C   0  0  0  0  0  0  0  0  0  0  0  0
  126.3650  125.0690   58.1900 C   0  0  0  0  0  0  0  0  0  0  0  0
  126.0970  124.0680   57.2500 N   0  0  0  0  0  0  0  0  0  0  0  0
  124.9430  123.1600   57.3990 C   0  0  0  0  0  0  0  0  0  0  0  0
  124.5950  122.3770   56.1150 C   0  0  0  0  0  0  0  0  0  0  0  0
  125.7360  121.6760   55.6490 O   0  0  0  0  0  0  0  0  0  0  0  0
  126.7990  122.5630   55.3400 C   0  0  0  0  0  0  0  0  0  0  0  0
  127.2150  123.3520   56.6000 C   0  0  0  0  0  0  0  0  0  0  0  0
  126.2730  124.8310   59.5710 C   0  0  0  0  0  0  0  0  0  0  0  0
  126.5150  125.8430   60.4940 C   0  0  0  0  0  0  0  0  0  0  0  0
  127.2580  127.9640   62.4330 C   0  0  0  0  0  0  0  0  0  0  0  0
  127.4770  129.0160   63.3330 C   0  0  0  0  0  0  0  0  0  0  0  0
  127.6430  128.6690   64.7770 C   0  0  0  0  0  0  0  0  0  0  0  0
  128.9060  128.3460   65.2810 C   0  0  0  0  0  0  0  0  0  0  0  0
  129.0680  128.0020   66.6200 C   0  0  0  0  0  0  0  0  0  0  0  0
  127.9720  127.9740   67.4960 C   0  0  0  0  0  0  0  0  0  0  0  0
  128.1110  127.6140   68.8400 N   0  0  0  0  0  0  0  0  0  0  0  0
  129.4420  127.6860   69.4750 C   0  0  0  0  0  0  0  0  0  0  0  0
  129.3850  127.6450   71.0170 C   0  0  0  0  0  0  0  0  0  0  0  0
  128.6840  126.4890   71.4470 O   0  0  0  0  0  0  0  0  0  0  0  0
  127.3510  126.4720   70.9590 C   0  0  0  0  0  0  0  0  0  0  0  0
  127.3530  126.4860   69.4160 C   0  0  0  0  0  0  0  0  0  0  0  0
  126.7070  128.2880   66.9800 C   0  0  0  0  0  0  0  0  0  0  0  0
  126.5440  128.6300   65.6400 C   0  0  0  0  0  0  0  0  0  0  0  0
  127.5330  130.3360   62.8240 C   0  0  0  0  0  0  0  0  0  0  0  0
  127.8140  131.4720   63.7090 C   0  0  0  0  0  0  0  0  0  0  0  0
  128.0340  132.3670   64.4090 N   0  0  0  0  0  0  0  0  0  0  0  0
  130.7350  128.3870   58.6780 C   0  0  0  0  0  0  0  0  0  0  0  0
  131.3060  127.1170   58.6700 C   0  0  0  0  0  0  0  0  0  0  0  0
  1  2  1  0
  2  3  1  0
  3  4  1  0
  4  5  2  0
  4  6  1  0
  6  7  2  0
  7  8  1  0
  8  9  2  0
  9 10  1  0
 10 11  1  0
 11 12  2  0
 11 13  1  0
 13 14  1  0
 14 15  1  0
 15 16  2  0
 16 17  1  0
 17 18  1  0
 18 19  2  0
 19 20  1  0
 20 21  2  0
 21 22  1  0
 22 23  1  0
 23 24  1  0
 24 25  1  0
 25 26  1  0
 26 27  1  0
 21 28  1  0
 28 29  2  0
 17 30  2  0
 30 31  1  0
 31 32  1  0
 32 33  2  0
 33 34  1  0
 34 35  2  0
 35 36  1  0
 36 37  1  0
 37 38  1  0
 38 39  1  0
 39 40  1  0
 40 41  1  0
 35 42  1  0
 42 43  2  0
 31 44  2  0
 44 45  1  0
 45 46  3  0
  9 47  1  0
 47 48  2  0
 48  6  1  0
 44 15  1  0
 29 18  1  0
 43 32  1  0
 27 22  1  0
 41 36  1  0
M  END
>  <Binding energies>  (8) 
[-6.94]

>  <Ligand effiencies>  (8) 
[-0.1416326530612245]

>  <Interactions>  (8) 
["V-B:TYR:539:CD1:9845, V-B:ILE:538:CD1:9837, V-B:PRO:540:CB:9857, V-B:PRO:540:CD:9859, V-B:LEU:363:CD1:8161, V-B:GLU:543:CD:9880, V-B:PRO:540:CA:9855, H-B:TYR:539:N:9842, V-B:ILE:538:CG2:9835, V-B:ILE:538:CA:9832, V-B:MET:535:CE:9807, V-B:TYR:539:CE1:9847, V-B:PRO:540:N:9856, V-B:TYR:531:CE2:9765, V-A:ASP:366:CG:3213, V-A:LEU:475:CD2:4259, V-A:ILE:369:CD1:3239, V-A:GLY:454:CA:4049, V-A:ASP:366:CB:3212, V-B:ASP:366:CG:8185, V-A:PRO:540:CA:4883, V-B:ILE:538:C:9830, V-A:GLU:543:CD:4908, H-A:ALA:541:N:4891, V-A:ALA:541:CB:4892, V-A:GLU:543:CG:4907, H-B:TYR:539:OH:9850, V-A:HIS:456:CE1:4070, V-B:GLU:543:CB:9878, V-A:GLU:543:CB:4906, V-A:HIS:456:CD2:4068, V-B:HIS:456:CD2:9040, V-B:TYR:484:CZ:9319, V-B:HIS:456:CE1:9042, V-A:PRO:540:C:4881, H-B:LYS:547:NZ:9923, V-B:TYR:484:CE2:9318, H-B:TYR:484:OH:9320, V-B:GLU:543:C:9874, V-B:GLY:544:C:9884"]

$$$$
2aa_Ghoteimi_2023
     RDKit          3D

 48 53  0  0  0  0  0  0  0  0999 V2000
  131.7830  131.2280   56.9800 C   0  0  0  0  0  0  0  0  0  0  0  0
  131.7740  132.5860   56.2710 C   0  0  0  0  0  0  0  0  0  0  0  0
  130.5160  133.2150   56.4740 O   0  0  0  0  0  0  0  0  0  0  0  0
  129.4040  132.7890   55.8200 C   0  0  0  0  0  0  0  0  0  0  0  0
  129.2790  132.8340   54.5920 O   0  0  0  0  0  0  0  0  0  0  0  0
  128.3480  132.2440   56.7380 C   0  0  0  0  0  0  0  0  0  0  0  0
  127.2920  131.4510   56.2630 C   0  0  0  0  0  0  0  0  0  0  0  0
  126.3310  130.9570   57.1390 C   0  0  0  0  0  0  0  0  0  0  0  0
  126.3990  131.2490   58.5030 C   0  0  0  0  0  0  0  0  0  0  0  0
  125.3770  130.6940   59.2980 N   0  0  0  0  0  0  0  0  0  0  0  0
  124.4490  131.3070   60.0640 C   0  0  0  0  0  0  0  0  0  0  0  0
  124.3170  132.5270   60.1780 O   0  0  0  0  0  0  0  0  0  0  0  0
  123.5020  130.3540   60.8050 C   0  0  0  0  0  0  0  0  0  0  0  0
  123.9210  130.2200   62.1670 O   0  0  0  0  0  0  0  0  0  0  0  0
  125.1320  129.6100   62.4670 C   0  0  0  0  0  0  0  0  0  0  0  0
  125.9460  129.2590   61.4320 N   0  0  0  0  0  0  0  0  0  0  0  0
  127.1370  128.6640   61.6900 C   0  0  0  0  0  0  0  0  0  0  0  0
  127.9760  128.3040   60.5040 C   0  0  0  0  0  0  0  0  0  0  0  0
  128.5190  129.2990   59.6850 C   0  0  0  0  0  0  0  0  0  0  0  0
  129.3060  128.9690   58.5840 C   0  0  0  0  0  0  0  0  0  0  0  0
  129.5900  127.6310   58.2700 C   0  0  0  0  0  0  0  0  0  0  0  0
  130.3680  127.2820   57.1600 N   0  0  0  0  0  0  0  0  0  0  0  0
  131.5970  126.4750   57.3050 C   0  0  0  0  0  0  0  0  0  0  0  0
  132.5020  126.4890   56.0550 C   0  0  0  0  0  0  0  0  0  0  0  0
  131.7620  126.0870   54.9140 O   0  0  0  0  0  0  0  0  0  0  0  0
  130.6700  126.9590   54.6690 C   0  0  0  0  0  0  0  0  0  0  0  0
  129.7100  126.9580   55.8780 C   0  0  0  0  0  0  0  0  0  0  0  0
  129.0260  126.6370   59.0820 C   0  0  0  0  0  0  0  0  0  0  0  0
  128.2370  126.9670   60.1810 C   0  0  0  0  0  0  0  0  0  0  0  0
  127.5380  128.3880   63.0010 C   0  0  0  0  0  0  0  0  0  0  0  0
  126.7150  128.7280   64.0810 C   0  0  0  0  0  0  0  0  0  0  0  0
  127.1860  128.3840   65.4580 C   0  0  0  0  0  0  0  0  0  0  0  0
  128.5050  128.6460   65.8380 C   0  0  0  0  0  0  0  0  0  0  0  0
  128.9550  128.3100   67.1120 C   0  0  0  0  0  0  0  0  0  0  0  0
  128.1030  127.6890   68.0380 C   0  0  0  0  0  0  0  0  0  0  0  0
  128.5330  127.3470   69.3240 N   0  0  0  0  0  0  0  0  0  0  0  0
  127.6030  126.7810   70.3190 C   0  0  0  0  0  0  0  0  0  0  0  0
  128.3150  126.1440   71.5330 C   0  0  0  0  0  0  0  0  0  0  0  0
  129.1860  127.0900   72.1340 O   0  0  0  0  0  0  0  0  0  0  0  0
  130.1810  127.5360   71.2250 C   0  0  0  0  0  0  0  0  0  0  0  0
  129.5190  128.2090   70.0060 C   0  0  0  0  0  0  0  0  0  0  0  0
  126.7800  127.4380   67.6500 C   0  0  0  0  0  0  0  0  0  0  0  0
  126.3290  127.7730   66.3770 C   0  0  0  0  0  0  0  0  0  0  0  0
  125.4850  129.3690   63.8060 C   0  0  0  0  0  0  0  0  0  0  0  0
  124.5830  129.8040   64.8760 C   0  0  0  0  0  0  0  0  0  0  0  0
  123.8720  130.1490   65.7210 N   0  0  0  0  0  0  0  0  0  0  0  0
  127.4550  132.0340   58.9860 C   0  0  0  0  0  0  0  0  0  0  0  0
  128.4180  132.5250   58.1080 C   0  0  0  0  0  0  0  0  0  0  0  0
  1  2  1  0
  2  3  1  0
  3  4  1  0
  4  5  2  0
  4  6  1  0
  6  7  2  0
  7  8  1  0
  8  9  2  0
  9 10  1  0
 10 11  1  0
 11 12  2  0
 11 13  1  0
 13 14  1  0
 14 15  1  0
 15 16  2  0
 16 17  1  0
 17 18  1  0
 18 19  2  0
 19 20  1  0
 20 21  2  0
 21 22  1  0
 22 23  1  0
 23 24  1  0
 24 25  1  0
 25 26  1  0
 26 27  1  0
 21 28  1  0
 28 29  2  0
 17 30  2  0
 30 31  1  0
 31 32  1  0
 32 33  2  0
 33 34  1  0
 34 35  2  0
 35 36  1  0
 36 37  1  0
 37 38  1  0
 38 39  1  0
 39 40  1  0
 40 41  1  0
 35 42  1  0
 42 43  2  0
 31 44  2  0
 44 45  1  0
 45 46  3  0
  9 47  1  0
 47 48  2  0
 48  6  1  0
 44 15  1  0
 29 18  1  0
 43 32  1  0
 27 22  1  0
 41 36  1  0
M  END
>  <Binding energies>  (9) 
[-7.28]

>  <Ligand effiencies>  (9) 
[-0.14857142857142858]

>  <Interactions>  (9) 
["V-B:GLU:543:CD:9880, V-B:MET:535:CE:9807, V-A:ASP:366:C:3208, V-A:ASP:366:CB:3212, V-A:TYR:539:CE1:4875, V-A:TYR:531:CZ:4794, H-A:TYR:539:N:4870, V-B:ASP:366:CG:8185, V-A:TYR:539:CZ:4877, V-A:PRO:540:CA:4883, V-A:TYR:539:C:4867, V-A:PRO:540:N:4884, V-A:PRO:540:CB:4885, V-B:ASP:366:CB:8184, V-A:MET:535:CE:4835, V-A:TYR:539:CE2:4876, V-A:LEU:363:CD1:3189, V-A:TYR:531:CE1:4792, V-A:GLU:543:CD:4908, V-A:PRO:540:CD:4887, V-A:GLU:543:CG:4907, H-B:TYR:539:OH:9850, V-A:HIS:456:CE1:4070, H-A:TYR:531:OH:4795, V-B:GLU:543:CB:9878, V-A:GLU:543:CB:4906, V-A:HIS:456:CD2:4068, V-A:HIS:456:CG:4066, V-B:ARG:545:CZ:9898, V-B:HIS:456:CD2:9040, V-B:TYR:484:CZ:9319, V-B:HIS:456:CE1:9042, V-A:TYR:539:CD2:4874, V-B:ILE:369:CD1:8211, V-B:ARG:545:CD:9895, V-A:TYR:539:CA:4869, V-B:ARG:545:CG:9894, V-A:PRO:540:CG:4886, V-A:TYR:539:CG:4872, V-A:TYR:539:CD1:4873, H-B:LYS:547:NZ:9923, V-B:ASP:366:CA:8182, H-B:TYR:484:OH:9320, H-B:GLY:454:N:9022, V-B:GLY:544:C:9884"]

$$$$
2b_Ghoteimi_2023
     RDKit          3D

 42 47  0  0  0  0  0  0  0  0999 V2000
  125.0500  130.3690   58.5690 N   0  0  0  0  0  0  0  0  0  0  0  0
  125.3870  130.0380   59.6250 C   0  0  0  0  0  0  0  0  0  0  0  0
  125.8160  129.6130   60.9610 C   0  0  0  0  0  0  0  0  0  0  0  0
  126.2410  128.2810   61.1910 C   0  0  0  0  0  0  0  0  0  0  0  0
  126.2900  127.2300   60.1310 C   0  0  0  0  0  0  0  0  0  0  0  0
  126.1900  125.8800   60.4720 C   0  0  0  0  0  0  0  0  0  0  0  0
  126.2360  124.8970   59.4880 C   0  0  0  0  0  0  0  0  0  0  0  0
  126.4020  125.2370   58.1360 C   0  0  0  0  0  0  0  0  0  0  0  0
  126.4380  124.2700   57.1300 N   0  0  0  0  0  0  0  0  0  0  0  0
  127.7460  123.7850   56.6440 C   0  0  0  0  0  0  0  0  0  0  0  0
  127.6570  123.0250   55.3040 C   0  0  0  0  0  0  0  0  0  0  0  0
  126.7240  121.9610   55.4060 O   0  0  0  0  0  0  0  0  0  0  0  0
  125.4250  122.4310   55.7310 C   0  0  0  0  0  0  0  0  0  0  0  0
  125.4570  123.1670   57.0870 C   0  0  0  0  0  0  0  0  0  0  0  0
  126.5040  126.5940   57.8040 C   0  0  0  0  0  0  0  0  0  0  0  0
  126.4540  127.5780   58.7870 C   0  0  0  0  0  0  0  0  0  0  0  0
  126.6460  127.9230   62.4820 C   0  0  0  0  0  0  0  0  0  0  0  0
  126.6580  128.8720   63.5080 C   0  0  0  0  0  0  0  0  0  0  0  0
  127.1100  128.5490   64.8970 C   0  0  0  0  0  0  0  0  0  0  0  0
  128.4340  128.7770   65.2880 C   0  0  0  0  0  0  0  0  0  0  0  0
  128.8580  128.4940   66.5840 C   0  0  0  0  0  0  0  0  0  0  0  0
  127.9760  127.9590   67.5350 C   0  0  0  0  0  0  0  0  0  0  0  0
  128.3790  127.6980   68.8500 N   0  0  0  0  0  0  0  0  0  0  0  0
  127.8850  126.4920   69.5450 C   0  0  0  0  0  0  0  0  0  0  0  0
  128.0860  126.5350   71.0750 C   0  0  0  0  0  0  0  0  0  0  0  0
  129.4510  126.7750   71.3800 O   0  0  0  0  0  0  0  0  0  0  0  0
  129.8910  128.0160   70.8520 C   0  0  0  0  0  0  0  0  0  0  0  0
  129.7420  128.0200   69.3160 C   0  0  0  0  0  0  0  0  0  0  0  0
  126.6480  127.7390   67.1410 C   0  0  0  0  0  0  0  0  0  0  0  0
  126.2250  128.0250   65.8460 C   0  0  0  0  0  0  0  0  0  0  0  0
  126.2520  130.1480   63.2860 N   0  0  0  0  0  0  0  0  0  0  0  0
  125.8240  130.5090   62.0530 C   0  0  0  0  0  0  0  0  0  0  0  0
  125.3250  132.2140   61.9430 S   0  0  0  0  0  0  0  0  0  0  0  0
  125.8390  132.8320   60.3130 C   0  0  0  0  0  0  0  0  0  0  0  0
  127.2920  132.4780   59.9950 C   0  0  0  0  0  0  0  0  0  0  0  0
  127.6890  132.5410   58.8300 O   0  0  0  0  0  0  0  0  0  0  0  0
  128.0450  132.1080   61.0540 N   0  0  0  0  0  0  0  0  0  0  0  0
  129.3850  131.7490   61.0500 C   0  0  0  0  0  0  0  0  0  0  0  0
  129.9460  130.9160   60.0830 C   0  0  0  0  0  0  0  0  0  0  0  0
  131.2730  130.8080   60.4290 C   0  0  0  0  0  0  0  0  0  0  0  0
  131.4990  131.5390   61.5460 O   0  0  0  0  0  0  0  0  0  0  0  0
  130.2950  132.1330   61.9300 N   0  0  0  0  0  0  0  0  0  0  0  0
  1  2  3  0
  2  3  1  0
  3  4  2  0
  4  5  1  0
  5  6  2  0
  6  7  1  0
  7  8  2  0
  8  9  1  0
  9 10  1  0
 10 11  1  0
 11 12  1  0
 12 13  1  0
 13 14  1  0
  8 15  1  0
 15 16  2  0
  4 17  1  0
 17 18  2  0
 18 19  1  0
 19 20  2  0
 20 21  1  0
 21 22  2  0
 22 23  1  0
 23 24  1  0
 24 25  1  0
 25 26  1  0
 26 27  1  0
 27 28  1  0
 22 29  1  0
 29 30  2  0
 18 31  1  0
 31 32  2  0
 32 33  1  0
 33 34  1  0
 34 35  1  0
 35 36  2  0
 35 37  1  0
 37 38  1  0
 38 39  1  0
 39 40  2  0
 40 41  1  0
 41 42  1  0
 32  3  1  0
 42 38  2  0
 16  5  1  0
 30 19  1  0
 14  9  1  0
 28 23  1  0
M  END
>  <Binding energies>  (10) 
[-8.66]

>  <Ligand effiencies>  (10) 
[-0.2013953488372093]

>  <Interactions>  (10) 
["V-B:TYR:539:CD1:9845, V-B:ILE:538:CD1:9837, V-B:PRO:540:CB:9857, V-B:PRO:540:CD:9859, V-B:GLU:543:CD:9880, H-B:TYR:539:N:9842, V-B:ILE:538:CG2:9835, V-B:ILE:538:CA:9832, V-B:MET:535:CE:9807, V-B:TYR:539:CZ:9849, V-B:TYR:539:CE1:9847, V-B:PRO:540:N:9856, V-A:TYR:539:CE1:4875, V-B:ASP:366:CG:8185, V-B:ILE:538:CB:9834, V-A:GLU:543:CD:4908, H-A:ALA:541:N:4891, V-A:ALA:541:CB:4892, V-A:GLU:543:CG:4907, V-A:HIS:456:CE1:4070, V-B:GLU:543:CB:9878, V-A:GLU:543:CB:4906, V-A:HIS:456:CD2:4068, V-B:ARG:545:CZ:9898, V-B:HIS:456:CD2:9040, V-B:HIS:456:CE1:9042, V-B:ARG:545:CG:9894, V-A:TYR:539:CD1:4873, H-B:TYR:484:OH:9320, V-B:GLU:543:C:9874, V-B:GLY:544:C:9884"]

$$$$
2c_Ghoteimi_2023
     RDKit          3D

 42 47  0  0  0  0  0  0  0  0999 V2000
  128.3590  132.7130   64.3310 N   0  0  0  0  0  0  0  0  0  0  0  0
  128.1570  131.8010   63.6490 C   0  0  0  0  0  0  0  0  0  0  0  0
  127.8990  130.6420   62.7890 C   0  0  0  0  0  0  0  0  0  0  0  0
  127.9170  129.3290   63.3230 C   0  0  0  0  0  0  0  0  0  0  0  0
  128.1910  129.0180   64.7580 C   0  0  0  0  0  0  0  0  0  0  0  0
  127.6000  129.7810   65.7680 C   0  0  0  0  0  0  0  0  0  0  0  0
  127.8480  129.4950   67.1080 C   0  0  0  0  0  0  0  0  0  0  0  0
  128.7050  128.4470   67.4760 C   0  0  0  0  0  0  0  0  0  0  0  0
  128.9520  128.1290   68.8140 N   0  0  0  0  0  0  0  0  0  0  0  0
  128.3790  126.8920   69.3800 C   0  0  0  0  0  0  0  0  0  0  0  0
  128.3970  126.8630   70.9240 C   0  0  0  0  0  0  0  0  0  0  0  0
  129.7180  127.0730   71.3990 O   0  0  0  0  0  0  0  0  0  0  0  0
  130.2330  128.3270   70.9790 C   0  0  0  0  0  0  0  0  0  0  0  0
  130.2620  128.3950   69.4380 C   0  0  0  0  0  0  0  0  0  0  0  0
  129.2970  127.6890   66.4550 C   0  0  0  0  0  0  0  0  0  0  0  0
  129.0480  127.9740   65.1160 C   0  0  0  0  0  0  0  0  0  0  0  0
  127.6610  128.2550   62.4610 C   0  0  0  0  0  0  0  0  0  0  0  0
  127.3710  128.4830   61.1120 C   0  0  0  0  0  0  0  0  0  0  0  0
  127.0750  127.3720   60.1560 C   0  0  0  0  0  0  0  0  0  0  0  0
  126.9670  126.0530   60.6050 C   0  0  0  0  0  0  0  0  0  0  0  0
  126.6860  125.0140   59.7200 C   0  0  0  0  0  0  0  0  0  0  0  0
  126.5140  125.2580   58.3480 C   0  0  0  0  0  0  0  0  0  0  0  0
  126.2060  124.2310   57.4500 N   0  0  0  0  0  0  0  0  0  0  0  0
  127.2850  123.3800   56.9070 C   0  0  0  0  0  0  0  0  0  0  0  0
  126.8670  122.5660   55.6640 C   0  0  0  0  0  0  0  0  0  0  0  0
  125.7140  121.7940   55.9550 O   0  0  0  0  0  0  0  0  0  0  0  0
  124.6170  122.6150   56.3230 C   0  0  0  0  0  0  0  0  0  0  0  0
  124.9680  123.4350   57.5830 C   0  0  0  0  0  0  0  0  0  0  0  0
  126.6100  126.5840   57.9050 C   0  0  0  0  0  0  0  0  0  0  0  0
  126.8890  127.6220   58.7910 C   0  0  0  0  0  0  0  0  0  0  0  0
  127.3530  129.7410   60.6040 N   0  0  0  0  0  0  0  0  0  0  0  0
  127.6270  130.7940   61.4100 C   0  0  0  0  0  0  0  0  0  0  0  0
  127.5700  132.3640   60.5770 S   0  0  0  0  0  0  0  0  0  0  0  0
  126.8330  132.0850   58.9380 C   0  0  0  0  0  0  0  0  0  0  0  0
  127.8910  131.7630   57.8810 C   0  0  0  0  0  0  0  0  0  0  0  0
  127.6810  130.8550   57.0740 O   0  0  0  0  0  0  0  0  0  0  0  0
  129.0060  132.5220   57.9220 N   0  0  0  0  0  0  0  0  0  0  0  0
  130.0970  132.4410   57.0690 C   0  0  0  0  0  0  0  0  0  0  0  0
  130.2200  132.9540   55.8640 N   0  0  0  0  0  0  0  0  0  0  0  0
  131.4000  132.6860   55.3410 C   0  0  0  0  0  0  0  0  0  0  0  0
  132.2670  131.9360   56.1300 C   0  0  0  0  0  0  0  0  0  0  0  0
  131.4840  131.5680   57.6380 S   0  0  0  0  0  0  0  0  0  0  0  0
  1  2  3  0
  2  3  1  0
  3  4  2  0
  4  5  1  0
  5  6  2  0
  6  7  1  0
  7  8  2  0
  8  9  1  0
  9 10  1  0
 10 11  1  0
 11 12  1  0
 12 13  1  0
 13 14  1  0
  8 15  1  0
 15 16  2  0
  4 17  1  0
 17 18  2  0
 18 19  1  0
 19 20  2  0
 20 21  1  0
 21 22  2  0
 22 23  1  0
 23 24  1  0
 24 25  1  0
 25 26  1  0
 26 27  1  0
 27 28  1  0
 22 29  1  0
 29 30  2  0
 18 31  1  0
 31 32  2  0
 32 33  1  0
 33 34  1  0
 34 35  1  0
 35 36  2  0
 35 37  1  0
 37 38  1  0
 38 39  2  0
 39 40  1  0
 40 41  2  0
 41 42  1  0
 32  3  1  0
 42 38  1  0
 16  5  1  0
 30 19  1  0
 14  9  1  0
 28 23  1  0
M  END
>  <Binding energies>  (11) 
[-8.15]

>  <Ligand effiencies>  (11) 
[-0.18953488372093025]

>  <Interactions>  (11) 
["V-B:TYR:539:CD1:9845, V-B:ILE:538:CD1:9837, V-B:PRO:540:CB:9857, V-B:PRO:540:CD:9859, V-B:LEU:363:CD1:8161, V-B:GLU:543:CD:9880, V-B:PRO:540:CA:9855, H-B:TYR:539:N:9842, V-B:ILE:538:CG2:9835, V-B:ILE:538:CA:9832, V-B:MET:535:CE:9807, V-B:TYR:539:CE1:9847, V-B:TYR:531:CE2:9765, V-A:TYR:539:CE1:4875, H-A:TYR:539:N:4870, V-A:PRO:540:CA:4883, V-A:TYR:539:C:4867, V-A:PRO:540:N:4884, V-A:PRO:540:CB:4885, V-A:LEU:363:CD1:3189, V-B:ILE:538:C:9830, V-A:GLU:543:CD:4908, V-A:ALA:541:CB:4892, V-A:PRO:540:CD:4887, V-A:GLU:543:CG:4907, V-A:HIS:456:CE1:4070, V-A:ILE:538:CA:4860, V-A:ILE:538:CB:4862, V-A:ILE:538:CG2:4863, V-A:GLU:543:C:4902, V-A:GLU:543:CB:4906, V-A:GLY:544:C:4912, V-A:HIS:456:CD2:4068, V-A:GLY:544:CA:4914, V-B:HIS:456:CD2:9040, V-B:TYR:484:CZ:9319, V-B:HIS:456:CE1:9042, V-A:TYR:539:CD1:4873, V-B:TYR:484:CE2:9318, H-B:TYR:484:OH:9320, H-A:TYR:539:O:4868"]

$$$$
2j_Grossjean_2025
     RDKit          3D

 23 24  0  0  0  0  0  0  0  0999 V2000
  132.9630  130.6230   58.0910 C   0  0  0  0  0  0  0  0  0  0  0  0
  131.6770  130.2830   57.3610 C   0  0  0  0  0  0  0  0  0  0  0  0
  130.7060  131.2480   57.1050 C   0  0  0  0  0  0  0  0  0  0  0  0
  129.5350  130.8850   56.4230 C   0  0  0  0  0  0  0  0  0  0  0  0
  128.4720  131.9660   56.1490 C   0  0  0  0  0  0  0  0  0  0  0  0
  128.2090  132.0250   54.8430 F   0  0  0  0  0  0  0  0  0  0  0  0
  127.3470  131.6770   56.8040 F   0  0  0  0  0  0  0  0  0  0  0  0
  128.8610  133.1830   56.5360 F   0  0  0  0  0  0  0  0  0  0  0  0
  129.3800  129.5370   56.0160 C   0  0  0  0  0  0  0  0  0  0  0  0
  128.1760  129.1010   55.3010 C   0  0  0  0  0  0  0  0  0  0  0  0
  127.2260  128.7590   54.7350 N   0  0  0  0  0  0  0  0  0  0  0  0
  130.4170  128.6220   56.3180 C   0  0  0  0  0  0  0  0  0  0  0  0
  130.3290  126.8990   55.8520 S   0  0  0  0  0  0  0  0  0  0  0  0
  129.6060  125.9630   57.2420 C   0  0  0  0  0  0  0  0  0  0  0  0
  128.1670  125.4770   57.0140 C   0  0  0  0  0  0  0  0  0  0  0  0
  127.2450  126.2840   56.8760 O   0  0  0  0  0  0  0  0  0  0  0  0
  128.0200  124.1340   56.9930 N   0  0  0  0  0  0  0  0  0  0  0  0
  126.8370  123.4320   56.8040 C   0  0  0  0  0  0  0  0  0  0  0  0
  126.6020  122.4620   55.9470 N   0  0  0  0  0  0  0  0  0  0  0  0
  125.3630  122.0190   56.0410 C   0  0  0  0  0  0  0  0  0  0  0  0
  124.5600  122.6370   56.9950 C   0  0  0  0  0  0  0  0  0  0  0  0
  125.4890  123.8630   57.8070 S   0  0  0  0  0  0  0  0  0  0  0  0
  131.5440  128.9930   56.9770 N   0  0  0  0  0  0  0  0  0  0  0  0
  1  2  1  0
  2  3  2  0
  3  4  1  0
  4  5  1  0
  5  6  1  0
  5  7  1  0
  5  8  1  0
  4  9  2  0
  9 10  1  0
 10 11  3  0
  9 12  1  0
 12 13  1  0
 13 14  1  0
 14 15  1  0
 15 16  2  0
 15 17  1  0
 17 18  1  0
 18 19  2  0
 19 20  1  0
 20 21  2  0
 21 22  1  0
 12 23  2  0
 23  2  1  0
 22 18  1  0
M  END
>  <Binding energies>  (12) 
[-6.06]

>  <Ligand effiencies>  (12) 
[-0.2525]

>  <Interactions>  (12) 
["V-B:ILE:538:CD1:9837, V-B:PRO:540:CB:9857, V-B:PRO:540:CD:9859, V-B:LEU:363:CD1:8161, V-B:PRO:540:CA:9855, H-B:TYR:539:N:9842, V-B:ILE:538:CG2:9835, V-B:ILE:538:CA:9832, V-B:MET:535:CE:9807, V-B:TYR:539:CZ:9849, V-B:PRO:540:N:9856, V-A:ASP:366:CG:3213, V-A:ASP:366:CB:3212, V-A:TYR:539:CE1:4875, V-A:TYR:539:CZ:4877, V-A:TYR:539:C:4867, V-A:PRO:540:N:4884, V-A:PRO:540:CB:4885, V-A:TYR:539:CE2:4876, H-B:LYS:534:NZ:9795, V-B:ILE:538:C:9830, V-B:ILE:538:CB:9834, H-B:TYR:539:OH:9850, H-B:TYR:531:OH:9767, H-A:TYR:531:OH:4795, V-B:PRO:540:CG:9858, V-A:TYR:539:CD2:4874, V-A:TYR:539:CA:4869, V-A:TYR:539:CG:4872, V-A:TYR:539:CD1:4873, V-A:TYR:539:CB:4871"]

$$$$
3ab_Grossjean_2025
     RDKit          3D

 33 35  0  0  0  0  0  0  0  0999 V2000
  129.6500  132.4220   54.4470 C   0  0  0  0  0  0  0  0  0  0  0  0
  130.2480  133.1810   55.4880 O   0  0  0  0  0  0  0  0  0  0  0  0
  131.3660  132.7400   56.1200 C   0  0  0  0  0  0  0  0  0  0  0  0
  132.5060  133.1130   55.8260 O   0  0  0  0  0  0  0  0  0  0  0  0
  131.0790  131.7550   57.2160 C   0  0  0  0  0  0  0  0  0  0  0  0
  131.8430  130.5910   57.3880 C   0  0  0  0  0  0  0  0  0  0  0  0
  131.5540  129.6950   58.4140 C   0  0  0  0  0  0  0  0  0  0  0  0
  130.4890  129.9510   59.2910 C   0  0  0  0  0  0  0  0  0  0  0  0
  130.1110  129.1210   60.3650 N   0  0  0  0  0  0  0  0  0  0  0  0
  129.0590  128.2850   60.4850 C   0  0  0  0  0  0  0  0  0  0  0  0
  128.1890  128.1030   59.6330 O   0  0  0  0  0  0  0  0  0  0  0  0
  128.9760  127.5210   61.8080 C   0  0  0  0  0  0  0  0  0  0  0  0
  130.5420  126.6940   62.2200 S   0  0  0  0  0  0  0  0  0  0  0  0
  130.5530  125.1230   61.3840 C   0  0  0  0  0  0  0  0  0  0  0  0
  129.4270  124.8800   60.6720 N   0  0  0  0  0  0  0  0  0  0  0  0
  129.3020  123.7190   59.9780 C   0  0  0  0  0  0  0  0  0  0  0  0
  128.0260  123.5290   59.2140 C   0  0  0  0  0  0  0  0  0  0  0  0
  128.0250  122.8900   57.9630 C   0  0  0  0  0  0  0  0  0  0  0  0
  126.8440  122.7100   57.2490 C   0  0  0  0  0  0  0  0  0  0  0  0
  125.6410  123.1700   57.7780 C   0  0  0  0  0  0  0  0  0  0  0  0
  125.6140  123.8100   59.0120 C   0  0  0  0  0  0  0  0  0  0  0  0
  126.7980  123.9880   59.7220 C   0  0  0  0  0  0  0  0  0  0  0  0
  130.3160  122.7560   60.0070 C   0  0  0  0  0  0  0  0  0  0  0  0
  131.4840  122.9750   60.7520 C   0  0  0  0  0  0  0  0  0  0  0  0
  132.5740  121.8860   60.7610 C   0  0  0  0  0  0  0  0  0  0  0  0
  133.0300  121.6220   61.9880 F   0  0  0  0  0  0  0  0  0  0  0  0
  132.0920  120.7480   60.2610 F   0  0  0  0  0  0  0  0  0  0  0  0
  133.6130  122.2770   60.0210 F   0  0  0  0  0  0  0  0  0  0  0  0
  131.6100  124.1890   61.4720 C   0  0  0  0  0  0  0  0  0  0  0  0
  132.7830  124.4440   62.3120 C   0  0  0  0  0  0  0  0  0  0  0  0
  133.7110  124.6420   62.9740 N   0  0  0  0  0  0  0  0  0  0  0  0
  129.7310  131.1120   59.1270 C   0  0  0  0  0  0  0  0  0  0  0  0
  130.0210  132.0040   58.1000 C   0  0  0  0  0  0  0  0  0  0  0  0
  1  2  1  0
  2  3  1  0
  3  4  2  0
  3  5  1  0
  5  6  2  0
  6  7  1  0
  7  8  2  0
  8  9  1  0
  9 10  1  0
 10 11  2  0
 10 12  1  0
 12 13  1  0
 13 14  1  0
 14 15  2  0
 15 16  1  0
 16 17  1  0
 17 18  2  0
 18 19  1  0
 19 20  2  0
 20 21  1  0
 21 22  2  0
 16 23  2  0
 23 24  1  0
 24 25  1  0
 25 26  1  0
 25 27  1  0
 25 28  1  0
 24 29  2  0
 29 30  1  0
 30 31  3  0
  8 32  1  0
 32 33  2  0
 33  5  1  0
 29 14  1  0
 22 17  1  0
M  END
>  <Binding energies>  (13) 
[-8.04]

>  <Ligand effiencies>  (13) 
[-0.2364705882352941]

>  <Interactions>  (13) 
["V-B:PRO:540:CB:9857, V-B:PRO:540:CD:9859, V-B:TYR:539:C:9839, V-B:PRO:540:CA:9855, V-B:TYR:539:CE2:9848, V-B:TYR:539:CD2:9846, V-B:TYR:539:CZ:9849, V-B:PRO:540:N:9856, H-A:TYR:484:OH:4348, V-A:ASP:366:CG:3213, V-B:TYR:539:CG:9844, V-A:LEU:475:CD2:4259, V-A:ILE:369:CD1:3239, V-A:GLY:454:CA:4049, V-A:ILE:369:CB:3236, V-A:ILE:369:CG2:3237, H-A:TYR:539:N:4870, V-A:PRO:540:CA:4883, V-A:TYR:539:C:4867, V-A:PRO:540:N:4884, V-A:PRO:540:CB:4885, H-A:GLY:454:N:4050, H-A:GLU:543:OE1:4909, H-A:ARG:545:NH2:4928, H-A:ASP:366:OD1:3214, V-A:PRO:540:CD:4887, V-A:ILE:538:CA:4860, V-A:ILE:538:CB:4862, V-A:ILE:538:CG2:4863, V-A:ILE:369:CG1:3238"]

$$$$
3ac_Grossjean_2025
     RDKit          3D

 31 33  0  0  0  0  0  0  0  0999 V2000
  125.0020  130.1150   56.1330 C   0  0  0  0  0  0  0  0  0  0  0  0
  125.8230  129.5410   55.1210 O   0  0  0  0  0  0  0  0  0  0  0  0
  126.9720  128.8650   55.4850 C   0  0  0  0  0  0  0  0  0  0  0  0
  126.8770  128.0330   56.6000 C   0  0  0  0  0  0  0  0  0  0  0  0
  127.9810  127.3090   57.0400 C   0  0  0  0  0  0  0  0  0  0  0  0
  129.2030  127.4150   56.3730 C   0  0  0  0  0  0  0  0  0  0  0  0
  130.2560  126.6300   56.8790 N   0  0  0  0  0  0  0  0  0  0  0  0
  131.4100  126.2660   56.2800 C   0  0  0  0  0  0  0  0  0  0  0  0
  131.7680  126.6130   55.1540 O   0  0  0  0  0  0  0  0  0  0  0  0
  132.3200  125.3520   57.1020 C   0  0  0  0  0  0  0  0  0  0  0  0
  131.9810  125.4680   58.8860 S   0  0  0  0  0  0  0  0  0  0  0  0
  130.7770  124.2270   59.3210 C   0  0  0  0  0  0  0  0  0  0  0  0
  129.7530  124.1450   58.4380 N   0  0  0  0  0  0  0  0  0  0  0  0
  128.7610  123.2390   58.6350 C   0  0  0  0  0  0  0  0  0  0  0  0
  127.6610  123.2170   57.6150 C   0  0  0  0  0  0  0  0  0  0  0  0
  126.3180  123.3460   58.0050 C   0  0  0  0  0  0  0  0  0  0  0  0
  125.2930  123.3330   57.0630 C   0  0  0  0  0  0  0  0  0  0  0  0
  125.5980  123.1880   55.7130 C   0  0  0  0  0  0  0  0  0  0  0  0
  126.9190  123.0530   55.3010 C   0  0  0  0  0  0  0  0  0  0  0  0
  127.9420  123.0670   56.2460 C   0  0  0  0  0  0  0  0  0  0  0  0
  128.7720  122.3960   59.7510 C   0  0  0  0  0  0  0  0  0  0  0  0
  129.8080  122.4770   60.6920 C   0  0  0  0  0  0  0  0  0  0  0  0
  129.7770  121.5330   61.9100 C   0  0  0  0  0  0  0  0  0  0  0  0
  129.2030  122.0870   62.9800 F   0  0  0  0  0  0  0  0  0  0  0  0
  129.0900  120.4270   61.6200 F   0  0  0  0  0  0  0  0  0  0  0  0
  131.0210  121.1920   62.2510 F   0  0  0  0  0  0  0  0  0  0  0  0
  130.8390  123.4280   60.4860 C   0  0  0  0  0  0  0  0  0  0  0  0
  131.9000  123.6010   61.4790 C   0  0  0  0  0  0  0  0  0  0  0  0
  132.7380  123.7380   62.2660 N   0  0  0  0  0  0  0  0  0  0  0  0
  129.3050  128.2450   55.2460 C   0  0  0  0  0  0  0  0  0  0  0  0
  128.1970  128.9670   54.8080 C   0  0  0  0  0  0  0  0  0  0  0  0
  1  2  1  0
  2  3  1  0
  3  4  2  0
  4  5  1  0
  5  6  2  0
  6  7  1  0
  7  8  1  0
  8  9  2  0
  8 10  1  0
 10 11  1  0
 11 12  1  0
 12 13  2  0
 13 14  1  0
 14 15  1  0
 15 16  2  0
 16 17  1  0
 17 18  2  0
 18 19  1  0
 19 20  2  0
 14 21  2  0
 21 22  1  0
 22 23  1  0
 23 24  1  0
 23 25  1  0
 23 26  1  0
 22 27  2  0
 27 28  1  0
 28 29  3  0
  6 30  1  0
 30 31  2  0
 31  3  1  0
 27 12  1  0
 20 15  1  0
M  END
>  <Binding energies>  (14) 
[-7.97]

>  <Ligand effiencies>  (14) 
[-0.2490625]

>  <Interactions>  (14) 
["V-B:TYR:539:CD1:9845, V-B:ILE:538:CD1:9837, V-B:PRO:540:CB:9857, V-B:TYR:539:C:9839, V-B:PRO:540:CA:9855, V-B:TYR:539:CE2:9848, V-B:TYR:539:CD2:9846, V-B:ILE:538:CA:9832, V-B:MET:535:CE:9807, V-B:ALA:541:CB:9864, V-B:TYR:539:CZ:9849, V-B:PRO:540:C:9853, V-B:TYR:539:CE1:9847, V-B:PRO:540:N:9856, V-B:TYR:531:CE2:9765, H-A:TYR:484:OH:4348, V-B:TYR:539:CG:9844, V-A:LEU:475:CD2:4259, V-B:TYR:531:CZ:9766, V-A:ASP:366:CB:3212, V-B:TYR:531:CE1:9764, V-A:TYR:539:CZ:4877, V-A:MET:535:CE:4835, H-B:LYS:534:NZ:9795, H-A:GLY:454:N:4050, H-B:TYR:539:OH:9850, H-B:TYR:531:OH:9767, V-A:TYR:484:CZ:4347, H-A:TYR:531:OH:4795, V-B:ALA:541:CA:9862, V-B:GLU:543:CG:9879, V-A:TYR:484:CE1:4345"]

$$$$
3af_Grossjean_2025
     RDKit          3D

 29 31  0  0  0  0  0  0  0  0999 V2000
  130.9990  125.7840   62.2520 N   0  0  0  0  0  0  0  0  0  0  0  0
  131.0700  124.6710   61.9440 C   0  0  0  0  0  0  0  0  0  0  0  0
  131.1620  123.2620   61.5530 C   0  0  0  0  0  0  0  0  0  0  0  0
  132.2610  122.7930   60.7920 C   0  0  0  0  0  0  0  0  0  0  0  0
  133.4340  123.7030   60.3760 C   0  0  0  0  0  0  0  0  0  0  0  0
  134.3680  123.8100   61.3240 F   0  0  0  0  0  0  0  0  0  0  0  0
  134.0230  123.2150   59.2840 F   0  0  0  0  0  0  0  0  0  0  0  0
  132.9900  124.9330   60.1160 F   0  0  0  0  0  0  0  0  0  0  0  0
  132.2770  121.4470   60.3950 C   0  0  0  0  0  0  0  0  0  0  0  0
  131.2250  120.5950   60.7450 C   0  0  0  0  0  0  0  0  0  0  0  0
  131.1830  119.1540   60.3320 C   0  0  0  0  0  0  0  0  0  0  0  0
  130.2720  118.2640   60.9240 C   0  0  0  0  0  0  0  0  0  0  0  0
  130.2260  116.9260   60.5420 C   0  0  0  0  0  0  0  0  0  0  0  0
  131.0920  116.4590   59.5600 C   0  0  0  0  0  0  0  0  0  0  0  0
  132.0020  117.3190   58.9550 C   0  0  0  0  0  0  0  0  0  0  0  0
  132.0440  118.6570   59.3390 C   0  0  0  0  0  0  0  0  0  0  0  0
  130.1720  121.0480   61.4710 N   0  0  0  0  0  0  0  0  0  0  0  0
  130.1450  122.3380   61.8860 C   0  0  0  0  0  0  0  0  0  0  0  0
  128.6940  122.7430   62.8370 S   0  0  0  0  0  0  0  0  0  0  0  0
  127.4510  123.4310   61.7010 C   0  0  0  0  0  0  0  0  0  0  0  0
  127.5210  122.7800   60.3200 C   0  0  0  0  0  0  0  0  0  0  0  0
  127.9590  121.6340   60.2190 O   0  0  0  0  0  0  0  0  0  0  0  0
  127.0890  123.5480   59.2960 N   0  0  0  0  0  0  0  0  0  0  0  0
  127.0280  123.2580   57.9190 C   0  0  0  0  0  0  0  0  0  0  0  0
  127.9830  123.6360   56.9570 C   0  0  0  0  0  0  0  0  0  0  0  0
  127.7940  123.2810   55.6200 C   0  0  0  0  0  0  0  0  0  0  0  0
  126.6530  122.5550   55.2760 C   0  0  0  0  0  0  0  0  0  0  0  0
  125.7190  122.1780   56.1830 N   0  0  0  0  0  0  0  0  0  0  0  0
  125.9170  122.5300   57.4790 C   0  0  0  0  0  0  0  0  0  0  0  0
  1  2  3  0
  2  3  1  0
  3  4  2  0
  4  5  1  0
  5  6  1  0
  5  7  1  0
  5  8  1  0
  4  9  1  0
  9 10  2  0
 10 11  1  0
 11 12  2  0
 12 13  1  0
 13 14  2  0
 14 15  1  0
 15 16  2  0
 10 17  1  0
 17 18  2  0
 18 19  1  0
 19 20  1  0
 20 21  1  0
 21 22  2  0
 21 23  1  0
 23 24  1  0
 24 25  2  0
 25 26  1  0
 26 27  2  0
 27 28  1  0
 28 29  2  0
 18  3  1  0
 29 24  1  0
 16 11  1  0
M  END
>  <Binding energies>  (15) 
[-8.16]

>  <Ligand effiencies>  (15) 
[-0.272]

>  <Interactions>  (15) 
["V-B:TYR:539:CD1:9845, V-B:ILE:538:CD1:9837, V-B:PRO:540:CB:9857, V-B:PRO:540:CD:9859, V-B:GLU:543:CD:9880, V-B:TYR:539:C:9839, V-B:PRO:540:CA:9855, H-B:TYR:539:N:9842, V-B:TYR:539:CE2:9848, V-B:TYR:539:CD2:9846, V-B:ILE:538:CA:9832, V-B:MET:535:CE:9807, V-B:TYR:539:CZ:9849, H-B:ASP:366:OD2:8187, V-B:TYR:539:CE1:9847, V-B:PRO:540:N:9856, V-A:GLY:453:C:4042, V-A:SER:385:CB:3409, V-A:PRO:482:CB:4326, V-A:LEU:475:CD1:4258, H-A:TYR:484:OH:4348, V-A:ASP:366:CG:3213, V-B:TYR:539:CG:9844, V-A:LEU:475:CD2:4259, V-A:ILE:369:CD1:3239, V-A:LEU:475:CG:4257, V-A:ASP:366:CB:3212, V-A:ILE:369:CB:3236, V-A:ILE:369:CG2:3237, V-A:PRO:482:CG:4327, V-B:ILE:538:C:9830, H-B:ALA:541:N:9863, H-A:ARG:545:NH2:4928, V-B:TYR:539:CB:9843, V-A:LEU:373:CD1:3280, V-A:HIS:383:CE1:3394, V-A:ILE:369:CG1:3238"]

$$$$
3ag_Grossjean_2025
     RDKit          3D

 30 32  0  0  0  0  0  0  0  0999 V2000
  131.3240  126.7350   61.6860 N   0  0  0  0  0  0  0  0  0  0  0  0
  131.3010  125.5870   61.5390 C   0  0  0  0  0  0  0  0  0  0  0  0
  131.2760  124.1340   61.3510 C   0  0  0  0  0  0  0  0  0  0  0  0
  132.3460  123.4690   60.7050 C   0  0  0  0  0  0  0  0  0  0  0  0
  133.6110  124.2040   60.2190 C   0  0  0  0  0  0  0  0  0  0  0  0
  134.3200  123.4900   59.3430 F   0  0  0  0  0  0  0  0  0  0  0  0
  133.2700  125.3470   59.6230 F   0  0  0  0  0  0  0  0  0  0  0  0
  134.4090  124.4760   61.2520 F   0  0  0  0  0  0  0  0  0  0  0  0
  132.2500  122.0840   60.5010 C   0  0  0  0  0  0  0  0  0  0  0  0
  131.1120  121.3850   60.9180 C   0  0  0  0  0  0  0  0  0  0  0  0
  130.9560  119.9080   60.7240 C   0  0  0  0  0  0  0  0  0  0  0  0
  129.9340  119.2020   61.3790 C   0  0  0  0  0  0  0  0  0  0  0  0
  129.7820  117.8300   61.2030 C   0  0  0  0  0  0  0  0  0  0  0  0
  130.6550  117.1410   60.3660 C   0  0  0  0  0  0  0  0  0  0  0  0
  131.6770  117.8160   59.7070 C   0  0  0  0  0  0  0  0  0  0  0  0
  131.8260  119.1870   59.8870 C   0  0  0  0  0  0  0  0  0  0  0  0
  130.0930  122.0240   61.5490 N   0  0  0  0  0  0  0  0  0  0  0  0
  130.1740  123.3580   61.7740 C   0  0  0  0  0  0  0  0  0  0  0  0
  128.7530  124.0240   62.6130 S   0  0  0  0  0  0  0  0  0  0  0  0
  127.4780  122.7280   62.6320 C   0  0  0  0  0  0  0  0  0  0  0  0
  126.2750  123.0880   61.7600 C   0  0  0  0  0  0  0  0  0  0  0  0
  125.1360  123.0310   62.2290 O   0  0  0  0  0  0  0  0  0  0  0  0
  126.5430  123.4630   60.4970 N   0  0  0  0  0  0  0  0  0  0  0  0
  125.5510  123.8810   59.5070 C   0  0  0  0  0  0  0  0  0  0  0  0
  125.8310  123.3780   58.0950 C   0  0  0  0  0  0  0  0  0  0  0  0
  124.7680  123.1310   57.2220 C   0  0  0  0  0  0  0  0  0  0  0  0
  125.0200  122.7000   55.9230 C   0  0  0  0  0  0  0  0  0  0  0  0
  126.3360  122.5270   55.4960 C   0  0  0  0  0  0  0  0  0  0  0  0
  127.4010  122.7860   56.3560 C   0  0  0  0  0  0  0  0  0  0  0  0
  127.1490  123.2180   57.6550 C   0  0  0  0  0  0  0  0  0  0  0  0
  1  2  3  0
  2  3  1  0
  3  4  2  0
  4  5  1  0
  5  6  1  0
  5  7  1  0
  5  8  1  0
  4  9  1  0
  9 10  2  0
 10 11  1  0
 11 12  2  0
 12 13  1  0
 13 14  2  0
 14 15  1  0
 15 16  2  0
 10 17  1  0
 17 18  2  0
 18 19  1  0
 19 20  1  0
 20 21  1  0
 21 22  2  0
 21 23  1  0
 23 24  1  0
 24 25  1  0
 25 26  2  0
 26 27  1  0
 27 28  2  0
 28 29  1  0
 29 30  2  0
 18  3  1  0
 30 25  1  0
 16 11  1  0
M  END
>  <Binding energies>  (16) 
[-9.1]

>  <Ligand effiencies>  (16) 
[-0.29354838709677417]

>  <Interactions>  (16) 
["V-B:TYR:539:CD1:9845, V-B:ILE:538:CD1:9837, V-B:PRO:540:CB:9857, V-B:PRO:540:CD:9859, V-B:LEU:363:CD1:8161, V-B:GLU:543:CD:9880, V-B:TYR:539:C:9839, V-B:PRO:540:CA:9855, V-B:ILE:538:CG2:9835, V-B:TYR:539:CE2:9848, V-B:TYR:539:CD2:9846, V-B:ILE:538:CA:9832, V-B:MET:535:CE:9807, V-B:ALA:541:CB:9864, V-B:TYR:539:CZ:9849, V-B:PRO:540:C:9853, V-B:TYR:539:CE1:9847, V-B:PRO:540:N:9856, V-B:TYR:531:CE2:9765, V-A:SER:385:CB:3409, V-A:PRO:482:CB:4326, V-A:LEU:475:CD1:4258, H-A:TYR:484:OH:4348, V-A:ASP:366:CA:3210, V-A:ASP:366:CG:3213, V-B:TYR:539:CG:9844, V-A:LEU:475:CD2:4259, V-B:TYR:531:CZ:9766, V-A:ILE:369:CD1:3239, V-A:ASP:366:CB:3212, V-A:ILE:369:CB:3236, V-A:ILE:369:CG2:3237, V-A:PRO:482:CG:4327, V-B:ILE:538:C:9830, H-B:ARG:545:NH2:9900, H-B:ALA:541:N:9863, H-A:ARG:545:NH2:4928, V-B:TYR:539:CB:9843, V-A:ILE:369:CG1:3238, V-B:ALA:541:CA:9862, V-B:GLU:543:CG:9879, V-A:GLY:453:CA:4044"]

$$$$
3bc_Grossjean_2025
     RDKit          3D

 28 30  0  0  0  0  0  0  0  0999 V2000
  132.4910  126.1370   56.1580 C   0  0  0  0  0  0  0  0  0  0  0  0
  131.6130  126.7820   55.2410 O   0  0  0  0  0  0  0  0  0  0  0  0
  130.3660  127.1900   55.6780 C   0  0  0  0  0  0  0  0  0  0  0  0
  129.8670  128.3670   55.1190 C   0  0  0  0  0  0  0  0  0  0  0  0
  128.6200  128.8580   55.4960 C   0  0  0  0  0  0  0  0  0  0  0  0
  127.8560  128.1800   56.4470 C   0  0  0  0  0  0  0  0  0  0  0  0
  126.6050  128.7450   56.7560 N   0  0  0  0  0  0  0  0  0  0  0  0
  125.7550  129.4230   55.9540 C   0  0  0  0  0  0  0  0  0  0  0  0
  125.9380  129.6300   54.7530 O   0  0  0  0  0  0  0  0  0  0  0  0
  124.4720  129.9080   56.6440 C   0  0  0  0  0  0  0  0  0  0  0  0
  124.5740  130.0510   58.4600 S   0  0  0  0  0  0  0  0  0  0  0  0
  125.8940  131.1800   58.8440 C   0  0  0  0  0  0  0  0  0  0  0  0
  126.8140  131.3000   57.8550 N   0  0  0  0  0  0  0  0  0  0  0  0
  127.8750  132.1330   58.0150 C   0  0  0  0  0  0  0  0  0  0  0  0
  128.8580  132.1920   56.8840 C   0  0  0  0  0  0  0  0  0  0  0  0
  130.2390  132.2020   57.1330 C   0  0  0  0  0  0  0  0  0  0  0  0
  131.1570  132.2570   56.0880 C   0  0  0  0  0  0  0  0  0  0  0  0
  130.7040  132.3030   54.7740 C   0  0  0  0  0  0  0  0  0  0  0  0
  129.3410  132.2970   54.4990 C   0  0  0  0  0  0  0  0  0  0  0  0
  128.4260  132.2430   55.5480 C   0  0  0  0  0  0  0  0  0  0  0  0
  128.0370  132.8730   59.1910 C   0  0  0  0  0  0  0  0  0  0  0  0
  127.0840  132.7790   60.2110 C   0  0  0  0  0  0  0  0  0  0  0  0
  127.2920  133.6190   61.4710 C   0  0  0  0  0  0  0  0  0  0  0  0
  125.9740  131.9230   60.0440 C   0  0  0  0  0  0  0  0  0  0  0  0
  124.9400  131.8450   61.0770 C   0  0  0  0  0  0  0  0  0  0  0  0
  124.1240  131.7850   61.8960 N   0  0  0  0  0  0  0  0  0  0  0  0
  128.3450  126.9890   57.0050 C   0  0  0  0  0  0  0  0  0  0  0  0
  129.5930  126.5010   56.6240 C   0  0  0  0  0  0  0  0  0  0  0  0
  1  2  1  0
  2  3  1  0
  3  4  2  0
  4  5  1  0
  5  6  2  0
  6  7  1  0
  7  8  1  0
  8  9  2  0
  8 10  1  0
 10 11  1  0
 11 12  1  0
 12 13  2  0
 13 14  1  0
 14 15  1  0
 15 16  2  0
 16 17  1  0
 17 18  2  0
 18 19  1  0
 19 20  2  0
 14 21  2  0
 21 22  1  0
 22 23  1  0
 22 24  2  0
 24 25  1  0
 25 26  3  0
  6 27  1  0
 27 28  2  0
 28  3  1  0
 24 12  1  0
 20 15  1  0
M  END
>  <Binding energies>  (17) 
[-7.81]

>  <Ligand effiencies>  (17) 
[-0.2693103448275862]

>  <Interactions>  (17) 
["V-B:MET:535:CE:9807, V-B:TYR:531:CZ:9766, V-A:ASP:366:C:3208, V-A:ASP:366:CB:3212, V-A:TYR:539:CE1:4875, V-B:TYR:531:CE1:9764, V-A:TYR:539:CZ:4877, V-A:PRO:540:CA:4883, V-A:TYR:539:C:4867, V-A:PRO:540:N:4884, V-B:ASP:366:CB:8184, V-A:MET:535:CE:4835, V-A:TYR:539:CE2:4876, H-B:LYS:534:NZ:9795, V-A:TYR:531:CE1:4792, V-A:ALA:541:CB:4892, H-B:TYR:539:OH:9850, H-B:TYR:531:OH:9767, V-A:ILE:538:CA:4860, V-A:ILE:538:CB:4862, V-A:ILE:538:CG2:4863, V-B:LEU:475:CD2:9231, H-A:TYR:531:OH:4795, V-A:TYR:539:CD2:4874, V-A:TYR:539:CG:4872, V-A:TYR:539:CD1:4873, V-B:ASP:366:C:8180"]

$$$$
3bd_Grossjean_2025
     RDKit          3D

 26 28  0  0  0  0  0  0  0  0999 V2000
  133.8790  123.4160   60.2290 C   0  0  0  0  0  0  0  0  0  0  0  0
  132.6210  122.6610   60.6530 C   0  0  0  0  0  0  0  0  0  0  0  0
  132.5080  121.3120   60.2980 C   0  0  0  0  0  0  0  0  0  0  0  0
  131.3680  120.5860   60.6640 C   0  0  0  0  0  0  0  0  0  0  0  0
  131.1850  119.1370   60.3200 C   0  0  0  0  0  0  0  0  0  0  0  0
  131.9430  118.5410   59.2990 C   0  0  0  0  0  0  0  0  0  0  0  0
  131.7760  117.1970   58.9730 C   0  0  0  0  0  0  0  0  0  0  0  0
  130.8460  116.4290   59.6660 C   0  0  0  0  0  0  0  0  0  0  0  0
  130.0800  116.9960   60.6790 C   0  0  0  0  0  0  0  0  0  0  0  0
  130.2490  118.3400   61.0010 C   0  0  0  0  0  0  0  0  0  0  0  0
  130.3700  121.1710   61.3750 N   0  0  0  0  0  0  0  0  0  0  0  0
  130.4620  122.4780   61.7280 C   0  0  0  0  0  0  0  0  0  0  0  0
  129.0800  123.1310   62.6500 S   0  0  0  0  0  0  0  0  0  0  0  0
  128.0270  124.0670   61.5000 C   0  0  0  0  0  0  0  0  0  0  0  0
  127.6090  123.2260   60.2930 C   0  0  0  0  0  0  0  0  0  0  0  0
  127.5720  122.0000   60.4010 O   0  0  0  0  0  0  0  0  0  0  0  0
  127.3200  123.9190   59.1700 N   0  0  0  0  0  0  0  0  0  0  0  0
  126.8850  123.4380   57.9200 C   0  0  0  0  0  0  0  0  0  0  0  0
  125.5300  123.1100   57.8250 C   0  0  0  0  0  0  0  0  0  0  0  0
  125.0100  122.6180   56.6310 C   0  0  0  0  0  0  0  0  0  0  0  0
  125.8480  122.4440   55.5330 C   0  0  0  0  0  0  0  0  0  0  0  0
  127.2030  122.7540   55.6190 C   0  0  0  0  0  0  0  0  0  0  0  0
  127.7260  123.2470   56.8120 C   0  0  0  0  0  0  0  0  0  0  0  0
  131.5790  123.2710   61.3840 C   0  0  0  0  0  0  0  0  0  0  0  0
  131.6680  124.6820   61.7720 C   0  0  0  0  0  0  0  0  0  0  0  0
  131.7400  125.7950   62.0790 N   0  0  0  0  0  0  0  0  0  0  0  0
  1  2  1  0
  2  3  2  0
  3  4  1  0
  4  5  1  0
  5  6  2  0
  6  7  1  0
  7  8  2  0
  8  9  1  0
  9 10  2  0
  4 11  2  0
 11 12  1  0
 12 13  1  0
 13 14  1  0
 14 15  1  0
 15 16  2  0
 15 17  1  0
 17 18  1  0
 18 19  2  0
 19 20  1  0
 20 21  2  0
 21 22  1  0
 22 23  2  0
 12 24  2  0
 24 25  1  0
 25 26  3  0
 24  2  1  0
 10  5  1  0
 23 18  1  0
M  END
>  <Binding energies>  (18) 
[-8.84]

>  <Ligand effiencies>  (18) 
[-0.3274074074074074]

>  <Interactions>  (18) 
["V-B:TYR:539:CD1:9845, V-B:ILE:538:CD1:9837, V-B:PRO:540:CB:9857, V-B:PRO:540:CD:9859, V-B:LEU:363:CD1:8161, V-B:GLU:543:CD:9880, V-B:PRO:540:CA:9855, V-B:ILE:538:CG2:9835, V-B:TYR:539:CE2:9848, V-B:TYR:539:CD2:9846, V-B:ILE:538:CA:9832, V-B:MET:535:CE:9807, V-B:TYR:539:CZ:9849, V-B:TYR:539:CE1:9847, V-B:PRO:540:N:9856, V-A:SER:385:CB:3409, V-A:PRO:482:CB:4326, V-A:LEU:475:CD1:4258, H-A:TYR:484:OH:4348, V-B:TYR:539:CG:9844, V-A:LEU:475:CD2:4259, V-A:ILE:369:CD1:3239, V-A:LEU:475:CG:4257, V-A:ILE:369:CB:3236, V-A:ILE:369:CG2:3237, V-A:PRO:482:CG:4327, V-B:ILE:538:C:9830, V-B:ILE:538:CB:9834, H-B:ALA:541:N:9863, H-A:ARG:545:NH2:4928, V-B:TYR:539:CB:9843, V-A:LEU:373:CD1:3280, V-A:HIS:383:CE1:3394, V-A:ILE:369:CG1:3238"]

$$$$
3be_Grossjean_2025
     RDKit          3D

 27 29  0  0  0  0  0  0  0  0999 V2000
  127.2060  122.4070   54.9960 C   0  0  0  0  0  0  0  0  0  0  0  0
  126.4290  122.8220   56.2300 C   0  0  0  0  0  0  0  0  0  0  0  0
  125.0320  122.8350   56.2450 C   0  0  0  0  0  0  0  0  0  0  0  0
  124.3840  123.2320   57.4150 C   0  0  0  0  0  0  0  0  0  0  0  0
  125.1390  123.6010   58.5310 C   0  0  0  0  0  0  0  0  0  0  0  0
  126.5360  123.5620   58.4500 C   0  0  0  0  0  0  0  0  0  0  0  0
  127.2390  123.9550   59.6040 N   0  0  0  0  0  0  0  0  0  0  0  0
  127.0650  123.5480   60.8800 C   0  0  0  0  0  0  0  0  0  0  0  0
  126.2160  122.7340   61.2450 O   0  0  0  0  0  0  0  0  0  0  0  0
  128.0290  124.1850   61.8940 C   0  0  0  0  0  0  0  0  0  0  0  0
  129.0180  123.0030   62.8720 S   0  0  0  0  0  0  0  0  0  0  0  0
  130.3880  122.4670   61.8710 C   0  0  0  0  0  0  0  0  0  0  0  0
  130.3140  121.1650   61.5000 N   0  0  0  0  0  0  0  0  0  0  0  0
  131.2940  120.6240   60.7290 C   0  0  0  0  0  0  0  0  0  0  0  0
  131.1440  119.1740   60.3750 C   0  0  0  0  0  0  0  0  0  0  0  0
  131.9240  118.5990   59.3590 C   0  0  0  0  0  0  0  0  0  0  0  0
  131.7880  117.2550   59.0240 C   0  0  0  0  0  0  0  0  0  0  0  0
  130.8660  116.4640   59.7010 C   0  0  0  0  0  0  0  0  0  0  0  0
  130.0790  117.0090   60.7100 C   0  0  0  0  0  0  0  0  0  0  0  0
  130.2180  118.3540   61.0420 C   0  0  0  0  0  0  0  0  0  0  0  0
  132.3860  121.3920   60.3120 C   0  0  0  0  0  0  0  0  0  0  0  0
  132.4650  122.7430   60.6660 C   0  0  0  0  0  0  0  0  0  0  0  0
  133.6670  123.5480   60.1730 C   0  0  0  0  0  0  0  0  0  0  0  0
  131.4420  123.3120   61.4550 C   0  0  0  0  0  0  0  0  0  0  0  0
  131.4770  124.7370   61.7900 C   0  0  0  0  0  0  0  0  0  0  0  0
  131.5070  125.8640   62.0540 N   0  0  0  0  0  0  0  0  0  0  0  0
  127.1760  123.1780   57.3070 N   0  0  0  0  0  0  0  0  0  0  0  0
  1  2  1  0
  2  3  2  0
  3  4  1  0
  4  5  2  0
  5  6  1  0
  6  7  1  0
  7  8  1  0
  8  9  2  0
  8 10  1  0
 10 11  1  0
 11 12  1  0
 12 13  2  0
 13 14  1  0
 14 15  1  0
 15 16  2  0
 16 17  1  0
 17 18  2  0
 18 19  1  0
 19 20  2  0
 14 21  2  0
 21 22  1  0
 22 23  1  0
 22 24  2  0
 24 25  1  0
 25 26  3  0
  6 27  2  0
 27  2  1  0
 24 12  1  0
 20 15  1  0
M  END
>  <Binding energies>  (19) 
[-9.39]

>  <Ligand effiencies>  (19) 
[-0.33535714285714285]

>  <Interactions>  (19) 
["V-B:TYR:539:CD1:9845, V-B:ILE:538:CD1:9837, V-B:PRO:540:CB:9857, V-B:PRO:540:CD:9859, V-B:LEU:363:CD1:8161, V-B:GLU:543:CD:9880, V-B:PRO:540:CA:9855, V-B:ILE:538:CG2:9835, V-B:TYR:539:CE2:9848, V-B:TYR:539:CD2:9846, V-B:ILE:538:CA:9832, V-B:MET:535:CE:9807, V-B:TYR:539:CE1:9847, V-B:PRO:540:N:9856, V-B:TYR:531:CE2:9765, V-A:SER:385:CB:3409, V-A:PRO:482:CB:4326, V-A:LEU:475:CD1:4258, H-A:TYR:484:OH:4348, V-B:TYR:539:CG:9844, V-A:LEU:475:CD2:4259, V-B:TYR:531:CZ:9766, V-A:ILE:369:CD1:3239, V-A:LEU:475:CG:4257, V-A:ILE:369:CB:3236, V-A:ILE:369:CG2:3237, V-A:PRO:482:CG:4327, V-B:ILE:538:C:9830, H-B:ALA:541:N:9863, H-A:ARG:545:NH2:4928, V-B:TYR:539:CB:9843, V-B:PRO:540:CG:9858, V-A:LEU:373:CD1:3280, V-A:HIS:383:CE1:3394"]

$$$$
3bf_Grossjean_2025
     RDKit          3D

 26 28  0  0  0  0  0  0  0  0999 V2000
  133.9570  123.3300   60.6410 C   0  0  0  0  0  0  0  0  0  0  0  0
  132.6390  122.6030   60.9020 C   0  0  0  0  0  0  0  0  0  0  0  0
  132.5340  121.2660   60.5040 C   0  0  0  0  0  0  0  0  0  0  0  0
  131.3500  120.5580   60.7370 C   0  0  0  0  0  0  0  0  0  0  0  0
  131.1810  119.1180   60.3550 C   0  0  0  0  0  0  0  0  0  0  0  0
  130.2280  118.3140   60.9990 C   0  0  0  0  0  0  0  0  0  0  0  0
  130.0660  116.9760   60.6500 C   0  0  0  0  0  0  0  0  0  0  0  0
  130.8580  116.4230   59.6490 C   0  0  0  0  0  0  0  0  0  0  0  0
  131.8100  117.1980   58.9970 C   0  0  0  0  0  0  0  0  0  0  0  0
  131.9700  118.5360   59.3500 C   0  0  0  0  0  0  0  0  0  0  0  0
  130.2910  121.1530   61.3490 N   0  0  0  0  0  0  0  0  0  0  0  0
  130.3690  122.4550   61.7180 C   0  0  0  0  0  0  0  0  0  0  0  0
  128.8890  123.0650   62.4970 S   0  0  0  0  0  0  0  0  0  0  0  0
  128.1470  124.3190   61.3980 C   0  0  0  0  0  0  0  0  0  0  0  0
  128.0700  123.9240   59.9160 C   0  0  0  0  0  0  0  0  0  0  0  0
  129.0720  123.9690   59.2010 O   0  0  0  0  0  0  0  0  0  0  0  0
  126.8510  123.5110   59.5060 N   0  0  0  0  0  0  0  0  0  0  0  0
  126.4450  123.0950   58.2240 C   0  0  0  0  0  0  0  0  0  0  0  0
  125.1390  123.4130   57.8340 C   0  0  0  0  0  0  0  0  0  0  0  0
  124.6810  123.0400   56.5680 C   0  0  0  0  0  0  0  0  0  0  0  0
  125.5520  122.3580   55.7190 C   0  0  0  0  0  0  0  0  0  0  0  0
  126.8260  122.0460   56.0670 N   0  0  0  0  0  0  0  0  0  0  0  0
  127.2580  122.4150   57.3000 C   0  0  0  0  0  0  0  0  0  0  0  0
  131.5390  123.2240   61.5310 C   0  0  0  0  0  0  0  0  0  0  0  0
  131.6450  124.6080   62.0010 C   0  0  0  0  0  0  0  0  0  0  0  0
  131.7300  125.7020   62.3700 N   0  0  0  0  0  0  0  0  0  0  0  0
  1  2  1  0
  2  3  2  0
  3  4  1  0
  4  5  1  0
  5  6  2  0
  6  7  1  0
  7  8  2  0
  8  9  1  0
  9 10  2  0
  4 11  2  0
 11 12  1  0
 12 13  1  0
 13 14  1  0
 14 15  1  0
 15 16  2  0
 15 17  1  0
 17 18  1  0
 18 19  2  0
 19 20  1  0
 20 21  2  0
 21 22  1  0
 22 23  2  0
 12 24  2  0
 24 25  1  0
 25 26  3  0
 24  2  1  0
 10  5  1  0
 23 18  1  0
M  END
>  <Binding energies>  (20) 
[-8.9]

>  <Ligand effiencies>  (20) 
[-0.32962962962962966]

>  <Interactions>  (20) 
["V-B:TYR:539:CD1:9845, V-B:ILE:538:CD1:9837, V-B:PRO:540:CB:9857, V-B:PRO:540:CD:9859, V-B:LEU:363:CD1:8161, V-B:GLU:543:CD:9880, V-B:TYR:539:C:9839, V-B:PRO:540:CA:9855, H-B:TYR:539:N:9842, V-B:ILE:538:CG2:9835, V-B:TYR:539:CE2:9848, V-B:TYR:539:CD2:9846, V-B:ILE:538:CA:9832, H-B:ASP:366:OD2:8187, V-B:PRO:540:N:9856, V-B:TYR:531:CE2:9765, V-A:SER:385:CB:3409, V-A:PRO:482:CB:4326, V-A:LEU:475:CD1:4258, H-A:TYR:484:OH:4348, V-B:TYR:539:CG:9844, V-A:LEU:475:CD2:4259, V-B:TYR:531:CZ:9766, V-A:ILE:369:CD1:3239, V-A:LEU:475:CG:4257, V-A:ILE:369:CB:3236, V-A:ILE:369:CG2:3237, V-A:PRO:482:CG:4327, V-B:ILE:538:C:9830, V-B:ILE:538:CB:9834, V-B:TYR:539:CA:9841, H-A:ARG:545:NH2:4928, V-B:TYR:539:CB:9843, V-A:LEU:373:CD1:3280, V-A:HIS:383:CE1:3394"]

$$$$
3bg_Grossjean_2025
     RDKit          3D

 27 29  0  0  0  0  0  0  0  0999 V2000
  133.8410  123.3460   60.5780 C   0  0  0  0  0  0  0  0  0  0  0  0
  132.5290  122.6100   60.8380 C   0  0  0  0  0  0  0  0  0  0  0  0
  132.4330  121.2710   60.4450 C   0  0  0  0  0  0  0  0  0  0  0  0
  131.2490  120.5550   60.6720 C   0  0  0  0  0  0  0  0  0  0  0  0
  131.0840  119.1120   60.2840 C   0  0  0  0  0  0  0  0  0  0  0  0
  131.8820  118.5350   59.2820 C   0  0  0  0  0  0  0  0  0  0  0  0
  131.7450  117.1950   58.9330 C   0  0  0  0  0  0  0  0  0  0  0  0
  130.8010  116.4060   59.5820 C   0  0  0  0  0  0  0  0  0  0  0  0
  129.9900  116.9520   60.5690 C   0  0  0  0  0  0  0  0  0  0  0  0
  130.1290  118.2930   60.9130 C   0  0  0  0  0  0  0  0  0  0  0  0
  130.1930  121.1470   61.2900 N   0  0  0  0  0  0  0  0  0  0  0  0
  130.2700  122.4450   61.6810 C   0  0  0  0  0  0  0  0  0  0  0  0
  128.8270  123.0910   62.5110 S   0  0  0  0  0  0  0  0  0  0  0  0
  128.4720  124.7460   61.8360 C   0  0  0  0  0  0  0  0  0  0  0  0
  127.1260  124.7880   61.1060 C   0  0  0  0  0  0  0  0  0  0  0  0
  126.2770  125.6180   61.4300 O   0  0  0  0  0  0  0  0  0  0  0  0
  126.9410  123.8700   60.1410 N   0  0  0  0  0  0  0  0  0  0  0  0
  125.6790  123.6110   59.4460 C   0  0  0  0  0  0  0  0  0  0  0  0
  125.9060  123.1780   58.0030 C   0  0  0  0  0  0  0  0  0  0  0  0
  127.2030  123.1360   57.4800 C   0  0  0  0  0  0  0  0  0  0  0  0
  127.4100  122.7500   56.1590 C   0  0  0  0  0  0  0  0  0  0  0  0
  126.3200  122.3960   55.3660 C   0  0  0  0  0  0  0  0  0  0  0  0
  125.0280  122.4160   55.8850 C   0  0  0  0  0  0  0  0  0  0  0  0
  124.8210  122.8030   57.2070 C   0  0  0  0  0  0  0  0  0  0  0  0
  131.4250  123.2250   61.4660 C   0  0  0  0  0  0  0  0  0  0  0  0
  131.4980  124.6240   61.8960 C   0  0  0  0  0  0  0  0  0  0  0  0
  131.5580  125.7280   62.2350 N   0  0  0  0  0  0  0  0  0  0  0  0
  1  2  1  0
  2  3  2  0
  3  4  1  0
  4  5  1  0
  5  6  2  0
  6  7  1  0
  7  8  2  0
  8  9  1  0
  9 10  2  0
  4 11  2  0
 11 12  1  0
 12 13  1  0
 13 14  1  0
 14 15  1  0
 15 16  2  0
 15 17  1  0
 17 18  1  0
 18 19  1  0
 19 20  2  0
 20 21  1  0
 21 22  2  0
 22 23  1  0
 23 24  2  0
 12 25  2  0
 25 26  1  0
 26 27  3  0
 25  2  1  0
 10  5  1  0
 24 19  1  0
M  END
>  <Binding energies>  (21) 
[-8.84]

>  <Ligand effiencies>  (21) 
[-0.3157142857142857]

>  <Interactions>  (21) 
["V-B:TYR:539:CD1:9845, V-B:ILE:538:CD1:9837, V-B:PRO:540:CB:9857, V-B:PRO:540:CD:9859, V-B:LEU:363:CD1:8161, V-B:GLU:543:CD:9880, V-B:TYR:539:C:9839, V-B:PRO:540:CA:9855, V-B:ILE:538:CG2:9835, V-B:TYR:539:CE2:9848, V-B:TYR:539:CD2:9846, V-B:ILE:538:CA:9832, V-B:MET:535:CE:9807, V-B:TYR:539:CZ:9849, V-B:TYR:539:CE1:9847, V-B:PRO:540:N:9856, V-B:TYR:531:CE2:9765, V-A:SER:385:CB:3409, V-A:PRO:482:CB:4326, V-A:LEU:475:CD1:4258, H-A:TYR:484:OH:4348, V-B:TYR:539:CG:9844, V-A:LEU:475:CD2:4259, V-A:ILE:369:CD1:3239, V-A:ILE:369:CG2:3237, V-A:PRO:482:CG:4327, V-B:ILE:538:C:9830, V-B:ILE:538:CB:9834, H-B:ARG:545:NH2:9900, H-A:ARG:545:NH2:4928, V-B:TYR:539:CB:9843, V-B:PRO:540:CG:9858, V-A:LEU:373:CD1:3280, V-A:HIS:383:CE1:3394"]

$$$$
3ca_Grossjean_2025
     RDKit          3D

 31 33  0  0  0  0  0  0  0  0999 V2000
  128.4140  131.8320   54.5410 C   0  0  0  0  0  0  0  0  0  0  0  0
  129.7400  132.4960   54.1610 C   0  0  0  0  0  0  0  0  0  0  0  0
  130.2390  133.2280   55.2750 O   0  0  0  0  0  0  0  0  0  0  0  0
  131.3810  132.8540   55.9050 C   0  0  0  0  0  0  0  0  0  0  0  0
  132.5030  133.2490   55.5730 O   0  0  0  0  0  0  0  0  0  0  0  0
  131.1440  131.9150   57.0540 C   0  0  0  0  0  0  0  0  0  0  0  0
  131.9800  130.8020   57.2110 C   0  0  0  0  0  0  0  0  0  0  0  0
  131.7860  129.9140   58.2660 C   0  0  0  0  0  0  0  0  0  0  0  0
  130.7490  130.1150   59.1790 C   0  0  0  0  0  0  0  0  0  0  0  0
  130.6430  129.1590   60.2060 N   0  0  0  0  0  0  0  0  0  0  0  0
  130.2460  127.8690   60.1460 C   0  0  0  0  0  0  0  0  0  0  0  0
  129.9090  127.2750   59.1220 O   0  0  0  0  0  0  0  0  0  0  0  0
  130.2510  127.1190   61.4820 C   0  0  0  0  0  0  0  0  0  0  0  0
  128.6320  126.3960   61.9070 S   0  0  0  0  0  0  0  0  0  0  0  0
  128.4250  124.8340   61.0610 C   0  0  0  0  0  0  0  0  0  0  0  0
  128.9860  123.7580   61.6680 N   0  0  0  0  0  0  0  0  0  0  0  0
  128.8510  122.5420   61.0960 C   0  0  0  0  0  0  0  0  0  0  0  0
  129.4910  121.3890   61.8430 C   0  0  0  0  0  0  0  0  0  0  0  0
  128.1700  122.3500   59.8970 C   0  0  0  0  0  0  0  0  0  0  0  0
  127.5970  123.4470   59.2410 C   0  0  0  0  0  0  0  0  0  0  0  0
  126.8880  123.1940   57.9510 C   0  0  0  0  0  0  0  0  0  0  0  0
  127.6200  122.9730   56.7780 C   0  0  0  0  0  0  0  0  0  0  0  0
  126.9680  122.7460   55.5690 C   0  0  0  0  0  0  0  0  0  0  0  0
  125.5760  122.7440   55.5270 C   0  0  0  0  0  0  0  0  0  0  0  0
  124.8320  122.9690   56.6830 C   0  0  0  0  0  0  0  0  0  0  0  0
  125.4890  123.1970   57.8900 C   0  0  0  0  0  0  0  0  0  0  0  0
  127.7170  124.7270   59.8400 C   0  0  0  0  0  0  0  0  0  0  0  0
  127.0940  125.9050   59.2270 C   0  0  0  0  0  0  0  0  0  0  0  0
  126.6010  126.8340   58.7420 N   0  0  0  0  0  0  0  0  0  0  0  0
  129.9120  131.2320   59.0330 C   0  0  0  0  0  0  0  0  0  0  0  0
  130.1090  132.1200   57.9790 C   0  0  0  0  0  0  0  0  0  0  0  0
  1  2  1  0
  2  3  1  0
  3  4  1  0
  4  5  2  0
  4  6  1  0
  6  7  2  0
  7  8  1  0
  8  9  2  0
  9 10  1  0
 10 11  1  0
 11 12  2  0
 11 13  1  0
 13 14  1  0
 14 15  1  0
 15 16  2  0
 16 17  1  0
 17 18  1  0
 17 19  2  0
 19 20  1  0
 20 21  1  0
 21 22  2  0
 22 23  1  0
 23 24  2  0
 24 25  1  0
 25 26  2  0
 20 27  2  0
 27 28  1  0
 28 29  3  0
  9 30  1  0
 30 31  2  0
 31  6  1  0
 27 15  1  0
 26 21  1  0
M  END
>  <Binding energies>  (22) 
[-9.1]

>  <Ligand effiencies>  (22) 
[-0.284375]

>  <Interactions>  (22) 
["V-B:TYR:539:CD1:9845, V-B:ILE:538:CD1:9837, V-B:PRO:540:CB:9857, V-B:PRO:540:CD:9859, V-B:LEU:363:CD1:8161, V-B:TYR:539:C:9839, V-B:PRO:540:CA:9855, V-B:ILE:538:CG2:9835, V-B:TYR:539:CE2:9848, V-B:TYR:539:CD2:9846, V-B:ILE:538:CA:9832, V-B:MET:535:CE:9807, V-B:ALA:541:CB:9864, V-B:TYR:539:CZ:9849, V-B:TYR:539:CE1:9847, V-B:PRO:540:N:9856, V-B:TYR:531:CE2:9765, V-A:ASP:366:CG:3213, V-B:TYR:539:CG:9844, V-B:TYR:531:CZ:9766, V-A:ASP:366:CB:3212, H-A:TYR:539:N:4870, V-A:TYR:539:CZ:4877, V-A:PRO:540:CA:4883, V-A:TYR:539:C:4867, V-A:PRO:540:N:4884, V-A:PRO:540:CB:4885, V-A:TYR:539:CE2:4876, V-A:GLU:543:CD:4908, H-A:GLU:543:OE1:4909, H-A:ASP:366:OD1:3214, V-A:PRO:540:CD:4887, H-B:TYR:531:OH:9767, V-A:ILE:538:CA:4860, V-A:ILE:538:CB:4862, V-A:ILE:538:CG2:4863, V-A:TYR:539:CD2:4874"]

$$$$
3ce_Grossjean_2025
     RDKit          3D

 27 29  0  0  0  0  0  0  0  0999 V2000
  129.3740  131.3780   55.1720 C   0  0  0  0  0  0  0  0  0  0  0  0
  130.6460  131.0720   55.9390 C   0  0  0  0  0  0  0  0  0  0  0  0
  131.6100  132.0550   56.1770 C   0  0  0  0  0  0  0  0  0  0  0  0
  132.7520  131.7050   56.8980 C   0  0  0  0  0  0  0  0  0  0  0  0
  132.9020  130.3940   57.3580 C   0  0  0  0  0  0  0  0  0  0  0  0
  131.9030  129.4560   57.0760 C   0  0  0  0  0  0  0  0  0  0  0  0
  132.0990  128.1590   57.5800 N   0  0  0  0  0  0  0  0  0  0  0  0
  131.9880  126.9820   56.9250 C   0  0  0  0  0  0  0  0  0  0  0  0
  131.6920  126.8610   55.7350 O   0  0  0  0  0  0  0  0  0  0  0  0
  132.2670  125.7320   57.7570 C   0  0  0  0  0  0  0  0  0  0  0  0
  131.4290  125.7880   59.3690 S   0  0  0  0  0  0  0  0  0  0  0  0
  130.2290  124.4760   59.3360 C   0  0  0  0  0  0  0  0  0  0  0  0
  130.4420  123.5120   60.2650 N   0  0  0  0  0  0  0  0  0  0  0  0
  129.5730  122.4770   60.3330 C   0  0  0  0  0  0  0  0  0  0  0  0
  129.8620  121.4410   61.4020 C   0  0  0  0  0  0  0  0  0  0  0  0
  128.4800  122.3580   59.4780 C   0  0  0  0  0  0  0  0  0  0  0  0
  128.2590  123.3300   58.4940 C   0  0  0  0  0  0  0  0  0  0  0  0
  127.0890  123.1460   57.5840 C   0  0  0  0  0  0  0  0  0  0  0  0
  127.2900  122.8330   56.2340 C   0  0  0  0  0  0  0  0  0  0  0  0
  126.2040  122.6660   55.3790 C   0  0  0  0  0  0  0  0  0  0  0  0
  124.9100  122.8180   55.8680 C   0  0  0  0  0  0  0  0  0  0  0  0
  124.6930  123.1390   57.2060 C   0  0  0  0  0  0  0  0  0  0  0  0
  125.7810  123.3050   58.0590 C   0  0  0  0  0  0  0  0  0  0  0  0
  129.1540  124.4270   58.4170 C   0  0  0  0  0  0  0  0  0  0  0  0
  128.9650  125.4840   57.4180 C   0  0  0  0  0  0  0  0  0  0  0  0
  128.8140  126.3170   56.6300 N   0  0  0  0  0  0  0  0  0  0  0  0
  130.7790  129.7940   56.3770 N   0  0  0  0  0  0  0  0  0  0  0  0
  1  2  1  0
  2  3  2  0
  3  4  1  0
  4  5  2  0
  5  6  1  0
  6  7  1  0
  7  8  1  0
  8  9  2  0
  8 10  1  0
 10 11  1  0
 11 12  1  0
 12 13  2  0
 13 14  1  0
 14 15  1  0
 14 16  2  0
 16 17  1  0
 17 18  1  0
 18 19  2  0
 19 20  1  0
 20 21  2  0
 21 22  1  0
 22 23  2  0
 17 24  2  0
 24 25  1  0
 25 26  3  0
  6 27  2  0
 27  2  1  0
 24 12  1  0
 23 18  1  0
M  END
>  <Binding energies>  (23) 
[-8.71]

>  <Ligand effiencies>  (23) 
[-0.3110714285714286]

>  <Interactions>  (23) 
["V-B:TYR:539:CD1:9845, V-B:ILE:538:CD1:9837, V-B:PRO:540:CB:9857, V-B:PRO:540:CD:9859, V-B:LEU:363:CD1:8161, V-B:TYR:539:C:9839, V-B:PRO:540:CA:9855, V-B:ILE:538:CG2:9835, V-B:TYR:539:CE2:9848, V-B:TYR:539:CD2:9846, V-B:ILE:538:CA:9832, V-B:MET:535:CE:9807, V-B:TYR:539:CZ:9849, V-B:TYR:539:CE1:9847, V-B:PRO:540:N:9856, V-B:TYR:531:CE2:9765, V-A:ASP:366:CA:3210, V-A:ASP:366:CG:3213, V-B:TYR:539:CG:9844, V-A:LEU:475:CD2:4259, V-B:TYR:531:CZ:9766, V-A:ASP:366:CB:3212, V-A:PRO:540:CA:4883, V-A:PRO:540:N:4884, V-A:PRO:540:CB:4885, V-A:LEU:363:CD1:3189, H-A:ASP:366:OD1:3214, H-B:TYR:539:OH:9850, H-A:TYR:531:OH:4795, H-A:ASP:366:OD2:3215"]

$$$$
3cj_Grossjean_2025
     RDKit          3D

 25 27  0  0  0  0  0  0  0  0999 V2000
  131.5240  124.9860   58.2270 C   0  0  0  0  0  0  0  0  0  0  0  0
  130.2110  124.5450   58.8430 C   0  0  0  0  0  0  0  0  0  0  0  0
  129.0990  124.2530   58.0570 C   0  0  0  0  0  0  0  0  0  0  0  0
  127.9110  123.8270   58.6670 C   0  0  0  0  0  0  0  0  0  0  0  0
  126.7670  123.4620   57.7820 C   0  0  0  0  0  0  0  0  0  0  0  0
  125.4580  123.8140   58.1320 C   0  0  0  0  0  0  0  0  0  0  0  0
  124.3890  123.4610   57.3120 C   0  0  0  0  0  0  0  0  0  0  0  0
  124.6260  122.7490   56.1400 C   0  0  0  0  0  0  0  0  0  0  0  0
  125.9220  122.3830   55.7840 C   0  0  0  0  0  0  0  0  0  0  0  0
  126.9890  122.7370   56.6050 C   0  0  0  0  0  0  0  0  0  0  0  0
  127.8740  123.7400   60.0810 C   0  0  0  0  0  0  0  0  0  0  0  0
  126.6520  123.3280   60.7800 C   0  0  0  0  0  0  0  0  0  0  0  0
  125.6880  123.0020   61.3310 N   0  0  0  0  0  0  0  0  0  0  0  0
  129.0500  124.0520   60.7990 C   0  0  0  0  0  0  0  0  0  0  0  0
  129.1800  123.8560   62.5640 S   0  0  0  0  0  0  0  0  0  0  0  0
  128.7550  122.1120   62.8730 C   0  0  0  0  0  0  0  0  0  0  0  0
  129.8020  121.1580   62.2890 C   0  0  0  0  0  0  0  0  0  0  0  0
  130.9990  121.3740   62.4890 O   0  0  0  0  0  0  0  0  0  0  0  0
  129.3060  120.1010   61.6090 N   0  0  0  0  0  0  0  0  0  0  0  0
  130.0270  119.0320   61.1030 C   0  0  0  0  0  0  0  0  0  0  0  0
  129.7300  117.7520   61.1730 N   0  0  0  0  0  0  0  0  0  0  0  0
  130.6290  117.0130   60.5530 C   0  0  0  0  0  0  0  0  0  0  0  0
  131.6870  117.6970   59.9610 C   0  0  0  0  0  0  0  0  0  0  0  0
  131.4860  119.4010   60.2390 S   0  0  0  0  0  0  0  0  0  0  0  0
  130.2000  124.4380   60.1900 N   0  0  0  0  0  0  0  0  0  0  0  0
  1  2  1  0
  2  3  2  0
  3  4  1  0
  4  5  1  0
  5  6  2  0
  6  7  1  0
  7  8  2  0
  8  9  1  0
  9 10  2  0
  4 11  2  0
 11 12  1  0
 12 13  3  0
 11 14  1  0
 14 15  1  0
 15 16  1  0
 16 17  1  0
 17 18  2  0
 17 19  1  0
 19 20  1  0
 20 21  2  0
 21 22  1  0
 22 23  2  0
 23 24  1  0
 14 25  2  0
 25  2  1  0
 10  5  1  0
 24 20  1  0
M  END
>  <Binding energies>  (24) 
[-8.3]

>  <Ligand effiencies>  (24) 
[-0.31923076923076926]

>  <Interactions>  (24) 
["V-B:ILE:538:CD1:9837, V-B:PRO:540:CB:9857, V-B:PRO:540:CD:9859, V-B:LEU:363:CD1:8161, V-B:GLU:543:CD:9880, V-B:TYR:539:C:9839, V-B:PRO:540:CA:9855, V-B:ILE:538:CG2:9835, V-B:TYR:539:CE2:9848, V-B:TYR:539:CD2:9846, V-B:ILE:538:CA:9832, V-B:ALA:541:CB:9864, V-B:TYR:539:CZ:9849, V-B:PRO:540:C:9853, V-B:PRO:540:N:9856, V-B:TYR:531:CE2:9765, V-A:SER:385:CB:3409, V-A:PRO:482:CB:4326, V-A:LEU:475:CD1:4258, H-A:TYR:484:OH:4348, V-A:LEU:475:CD2:4259, V-B:TYR:531:CZ:9766, V-A:PRO:482:CG:4327, V-B:ILE:538:C:9830, H-B:ALA:541:N:9863, V-A:TYR:484:CZ:4347, H-B:TYR:539:O:9840, V-B:ALA:541:CA:9862, V-B:GLU:543:CG:9879, V-A:TYR:484:CE1:4345, H-B:PRO:540:O:9854"]

$$$$
4ba_Grossjean_2025
     RDKit          3D

 28 30  0  0  0  0  0  0  0  0999 V2000
  127.9960  127.6580   67.7500 C   0  0  0  0  0  0  0  0  0  0  0  0
  126.5420  127.2500   67.4470 C   0  0  0  0  0  0  0  0  0  0  0  0
  125.7090  128.3080   66.6950 C   0  0  0  0  0  0  0  0  0  0  0  0
  124.6500  128.7080   67.1860 O   0  0  0  0  0  0  0  0  0  0  0  0
  126.2390  128.8130   65.3850 C   0  0  0  0  0  0  0  0  0  0  0  0
  127.6060  129.0930   65.2580 C   0  0  0  0  0  0  0  0  0  0  0  0
  128.1240  129.5630   64.0550 C   0  0  0  0  0  0  0  0  0  0  0  0
  127.2900  129.7590   62.9540 C   0  0  0  0  0  0  0  0  0  0  0  0
  127.9170  130.2450   61.7900 N   0  0  0  0  0  0  0  0  0  0  0  0
  128.7060  131.3340   61.6150 C   0  0  0  0  0  0  0  0  0  0  0  0
  128.9790  132.1410   62.5050 O   0  0  0  0  0  0  0  0  0  0  0  0
  129.2190  131.5220   60.2560 C   0  0  0  0  0  0  0  0  0  0  0  0
  128.2460  132.3610   59.0510 S   0  0  0  0  0  0  0  0  0  0  0  0
  129.4660  132.1130   57.8250 C   0  0  0  0  0  0  0  0  0  0  0  0
  129.3000  132.5580   56.5800 N   0  0  0  0  0  0  0  0  0  0  0  0
  130.3130  132.3060   55.7190 C   0  0  0  0  0  0  0  0  0  0  0  0
  130.0990  132.8140   54.3040 C   0  0  0  0  0  0  0  0  0  0  0  0
  131.4780  131.6300   56.0710 C   0  0  0  0  0  0  0  0  0  0  0  0
  131.6590  131.1580   57.3810 C   0  0  0  0  0  0  0  0  0  0  0  0
  132.9580  130.4220   57.7220 C   0  0  0  0  0  0  0  0  0  0  0  0
  132.7770  129.1190   57.9460 F   0  0  0  0  0  0  0  0  0  0  0  0
  133.8220  130.5360   56.7120 F   0  0  0  0  0  0  0  0  0  0  0  0
  133.4970  130.9450   58.8240 F   0  0  0  0  0  0  0  0  0  0  0  0
  130.6050  131.4030   58.3130 C   0  0  0  0  0  0  0  0  0  0  0  0
  130.4300  131.0700   59.7060 C   0  0  0  0  0  0  0  0  0  0  0  0
  131.3690  130.3750   60.4250 N   0  0  0  0  0  0  0  0  0  0  0  0
  125.9190  129.4870   63.0740 C   0  0  0  0  0  0  0  0  0  0  0  0
  125.4020  129.0170   64.2780 C   0  0  0  0  0  0  0  0  0  0  0  0
  1  2  1  0
  2  3  1  0
  3  4  2  0
  3  5  1  0
  5  6  2  0
  6  7  1  0
  7  8  2  0
  8  9  1  0
  9 10  1  0
 10 11  2  0
 10 12  1  0
 12 13  1  0
 13 14  1  0
 14 15  2  0
 15 16  1  0
 16 17  1  0
 16 18  2  0
 18 19  1  0
 19 20  1  0
 20 21  1  0
 20 22  1  0
 20 23  1  0
 19 24  2  0
 24 25  1  0
 25 26  1  0
  8 27  1  0
 27 28  2  0
 28  5  1  0
 25 12  2  0
 24 14  1  0
M  END
>  <Binding energies>  (25) 
[-6.85]

>  <Ligand effiencies>  (25) 
[-0.22096774193548385]

>  <Interactions>  (25) 
["V-B:GLU:543:CD:9880, V-A:ASP:366:CG:3213, V-A:ASP:366:CB:3212, V-A:TYR:531:CZ:4794, H-A:TYR:539:N:4870, V-A:TYR:531:CE2:4793, V-A:PRO:540:CA:4883, V-A:TYR:539:C:4867, V-A:PRO:540:N:4884, V-A:PRO:540:CB:4885, V-A:LEU:363:CD1:3189, V-A:GLU:543:CD:4908, H-A:GLU:543:OE1:4909, H-A:ASP:366:OD1:3214, V-A:LEU:363:CA:3185, V-A:GLU:543:CG:4907, V-A:ILE:538:CA:4860, V-A:ILE:538:CB:4862, V-A:ILE:538:CG2:4863, V-B:GLU:543:CB:9878, V-B:ARG:545:CZ:9898, V-B:HIS:456:CE1:9042, V-A:ILE:538:C:4858, V-B:ARG:545:CD:9895, V-B:ARG:545:CG:9894, V-A:TYR:539:CD1:4873, H-B:TYR:484:OH:9320, H-B:ARG:545:NE:9896, H-B:HIS:456:ND1:9039"]

$$$$
4bb_Grossjean_2025
     RDKit          3D

 27 29  0  0  0  0  0  0  0  0999 V2000
  123.8820  129.4900   66.7710 C   0  0  0  0  0  0  0  0  0  0  0  0
  125.1410  128.6990   66.4080 C   0  0  0  0  0  0  0  0  0  0  0  0
  125.4460  127.7360   67.1140 O   0  0  0  0  0  0  0  0  0  0  0  0
  125.9410  129.1430   65.2210 C   0  0  0  0  0  0  0  0  0  0  0  0
  125.2790  129.4980   64.0390 C   0  0  0  0  0  0  0  0  0  0  0  0
  125.9980  129.9130   62.9220 C   0  0  0  0  0  0  0  0  0  0  0  0
  127.3910  129.9890   62.9670 C   0  0  0  0  0  0  0  0  0  0  0  0
  128.0190  130.4190   61.7800 N   0  0  0  0  0  0  0  0  0  0  0  0
  129.0500  131.2800   61.6020 C   0  0  0  0  0  0  0  0  0  0  0  0
  129.6150  131.8810   62.5160 O   0  0  0  0  0  0  0  0  0  0  0  0
  129.4530  131.4920   60.2090 C   0  0  0  0  0  0  0  0  0  0  0  0
  128.3580  132.2830   59.0790 S   0  0  0  0  0  0  0  0  0  0  0  0
  129.5020  132.1010   57.7690 C   0  0  0  0  0  0  0  0  0  0  0  0
  129.2320  132.5460   56.5430 N   0  0  0  0  0  0  0  0  0  0  0  0
  130.1940  132.3460   55.6140 C   0  0  0  0  0  0  0  0  0  0  0  0
  129.8670  132.8620   54.2240 C   0  0  0  0  0  0  0  0  0  0  0  0
  131.4080  131.7170   55.8780 C   0  0  0  0  0  0  0  0  0  0  0  0
  131.6980  131.2460   57.1680 C   0  0  0  0  0  0  0  0  0  0  0  0
  133.0470  130.5600   57.4110 C   0  0  0  0  0  0  0  0  0  0  0  0
  133.7490  131.1250   58.3960 F   0  0  0  0  0  0  0  0  0  0  0  0
  132.8500  129.2830   57.7410 F   0  0  0  0  0  0  0  0  0  0  0  0
  133.7900  130.6200   56.3060 F   0  0  0  0  0  0  0  0  0  0  0  0
  130.7030  131.4410   58.1730 C   0  0  0  0  0  0  0  0  0  0  0  0
  130.6430  131.1010   59.5730 C   0  0  0  0  0  0  0  0  0  0  0  0
  131.6650  130.4580   60.2230 N   0  0  0  0  0  0  0  0  0  0  0  0
  128.0620  129.6290   64.1450 C   0  0  0  0  0  0  0  0  0  0  0  0
  127.3410  129.2120   65.2600 C   0  0  0  0  0  0  0  0  0  0  0  0
  1  2  1  0
  2  3  2  0
  2  4  1  0
  4  5  2  0
  5  6  1  0
  6  7  2  0
  7  8  1  0
  8  9  1  0
  9 10  2  0
  9 11  1  0
 11 12  1  0
 12 13  1  0
 13 14  2  0
 14 15  1  0
 15 16  1  0
 15 17  2  0
 17 18  1  0
 18 19  1  0
 19 20  1  0
 19 21  1  0
 19 22  1  0
 18 23  2  0
 23 24  1  0
 24 25  1  0
  7 26  1  0
 26 27  2  0
 27  4  1  0
 24 11  2  0
 23 13  1  0
M  END
>  <Binding energies>  (26) 
[-7.17]

>  <Ligand effiencies>  (26) 
[-0.239]

>  <Interactions>  (26) 
["V-A:ASP:366:CG:3213, V-A:ASP:366:CB:3212, V-A:TYR:531:CZ:4794, H-A:TYR:539:N:4870, V-A:TYR:531:CE2:4793, V-A:PRO:540:CA:4883, V-A:TYR:539:C:4867, V-A:PRO:540:N:4884, V-A:PRO:540:CB:4885, V-A:LEU:363:CD1:3189, V-A:GLU:543:CD:4908, H-A:GLU:543:OE1:4909, H-A:ALA:541:N:4891, H-A:ASP:366:OD1:3214, V-A:LEU:363:CA:3185, V-A:GLU:543:CG:4907, V-A:ILE:538:CA:4860, V-A:ILE:538:CB:4862, V-A:ILE:538:CG2:4863, V-B:ARG:545:CZ:9898, V-B:TYR:484:CZ:9319, V-B:HIS:456:CE1:9042, V-A:ILE:538:C:4858, V-A:TYR:539:CD2:4874, V-B:ARG:545:CD:9895, V-B:ARG:545:CG:9894, V-A:TYR:539:CD1:4873, H-B:ARG:545:NE:9896, H-B:HIS:456:ND1:9039, V-A:LEU:363:CB:3187, V-B:TYR:484:CE1:9317"]

$$$$
4bd_Grossjean_2025
     RDKit          3D

 24 26  0  0  0  0  0  0  0  0999 V2000
  129.8390  132.8530   54.5260 C   0  0  0  0  0  0  0  0  0  0  0  0
  130.1650  132.3400   55.9170 C   0  0  0  0  0  0  0  0  0  0  0  0
  131.3930  131.7450   56.1940 C   0  0  0  0  0  0  0  0  0  0  0  0
  131.6800  131.2730   57.4840 C   0  0  0  0  0  0  0  0  0  0  0  0
  133.0430  130.6230   57.7400 C   0  0  0  0  0  0  0  0  0  0  0  0
  133.8360  130.6330   56.6660 F   0  0  0  0  0  0  0  0  0  0  0  0
  133.6800  131.2750   58.7120 F   0  0  0  0  0  0  0  0  0  0  0  0
  132.8760  129.3500   58.0990 F   0  0  0  0  0  0  0  0  0  0  0  0
  130.6680  131.4320   58.4780 C   0  0  0  0  0  0  0  0  0  0  0  0
  130.6010  131.0820   59.8750 C   0  0  0  0  0  0  0  0  0  0  0  0
  131.6360  130.4720   60.5350 N   0  0  0  0  0  0  0  0  0  0  0  0
  129.3850  131.4200   60.4940 C   0  0  0  0  0  0  0  0  0  0  0  0
  128.9740  131.1960   61.8830 C   0  0  0  0  0  0  0  0  0  0  0  0
  129.5800  131.7330   62.8120 O   0  0  0  0  0  0  0  0  0  0  0  0
  127.8990  130.3860   62.0480 N   0  0  0  0  0  0  0  0  0  0  0  0
  127.2870  129.9420   63.2350 C   0  0  0  0  0  0  0  0  0  0  0  0
  125.8910  129.8690   63.2130 C   0  0  0  0  0  0  0  0  0  0  0  0
  125.1930  129.4320   64.3350 C   0  0  0  0  0  0  0  0  0  0  0  0
  125.8910  129.0590   65.4810 C   0  0  0  0  0  0  0  0  0  0  0  0
  127.2820  129.1140   65.5110 C   0  0  0  0  0  0  0  0  0  0  0  0
  127.9840  129.5510   64.3900 C   0  0  0  0  0  0  0  0  0  0  0  0
  128.2840  132.1940   59.3570 S   0  0  0  0  0  0  0  0  0  0  0  0
  129.4520  132.0580   58.0630 C   0  0  0  0  0  0  0  0  0  0  0  0
  129.1860  132.5050   56.8370 N   0  0  0  0  0  0  0  0  0  0  0  0
  1  2  1  0
  2  3  2  0
  3  4  1  0
  4  5  1  0
  5  6  1  0
  5  7  1  0
  5  8  1  0
  4  9  2  0
  9 10  1  0
 10 11  1  0
 10 12  2  0
 12 13  1  0
 13 14  2  0
 13 15  1  0
 15 16  1  0
 16 17  2  0
 17 18  1  0
 18 19  2  0
 19 20  1  0
 20 21  2  0
 12 22  1  0
 22 23  1  0
 23 24  2  0
 24  2  1  0
 23  9  1  0
 21 16  1  0
M  END
>  <Binding energies>  (27) 
[-6.43]

>  <Ligand effiencies>  (27) 
[-0.23814814814814814]

>  <Interactions>  (27) 
["V-A:ASP:366:CG:3213, V-A:ASP:366:CB:3212, V-A:TYR:531:CZ:4794, V-A:TYR:531:CE2:4793, V-A:PRO:540:CA:4883, V-A:TYR:539:C:4867, V-A:PRO:540:N:4884, V-A:PRO:540:CB:4885, V-A:LEU:363:CD1:3189, V-A:GLU:543:CD:4908, H-A:GLU:543:OE1:4909, H-A:ASP:366:OD1:3214, V-A:LEU:363:CA:3185, V-A:GLU:543:CG:4907, V-A:ILE:538:CA:4860, V-A:ILE:538:CB:4862, V-A:ILE:538:CG2:4863, V-B:ARG:545:CZ:9898, V-B:TYR:484:CZ:9319, V-A:ILE:538:C:4858, V-A:TYR:539:CD2:4874, V-A:ASN:362:C:3172, V-A:LEU:363:CB:3187"]

$$$$
4be_Grossjean_2025
     RDKit          3D

 25 27  0  0  0  0  0  0  0  0999 V2000
  128.3550  128.7980   66.7610 C   0  0  0  0  0  0  0  0  0  0  0  0
  127.4790  129.0710   65.5540 C   0  0  0  0  0  0  0  0  0  0  0  0
  126.0940  128.8880   65.6000 C   0  0  0  0  0  0  0  0  0  0  0  0
  125.3500  129.1560   64.4500 C   0  0  0  0  0  0  0  0  0  0  0  0
  126.0010  129.5950   63.2950 C   0  0  0  0  0  0  0  0  0  0  0  0
  127.3900  129.7630   63.3190 C   0  0  0  0  0  0  0  0  0  0  0  0
  127.9850  130.2000   62.1220 N   0  0  0  0  0  0  0  0  0  0  0  0
  128.9530  131.1340   61.9430 C   0  0  0  0  0  0  0  0  0  0  0  0
  129.4800  131.7610   62.8640 O   0  0  0  0  0  0  0  0  0  0  0  0
  129.3370  131.3830   60.5500 C   0  0  0  0  0  0  0  0  0  0  0  0
  128.1980  132.1420   59.4400 S   0  0  0  0  0  0  0  0  0  0  0  0
  129.3420  132.0360   58.1230 C   0  0  0  0  0  0  0  0  0  0  0  0
  129.0440  132.4890   56.9060 N   0  0  0  0  0  0  0  0  0  0  0  0
  130.0110  132.3540   55.9690 C   0  0  0  0  0  0  0  0  0  0  0  0
  129.6520  132.8730   54.5890 C   0  0  0  0  0  0  0  0  0  0  0  0
  131.2570  131.7850   56.2190 C   0  0  0  0  0  0  0  0  0  0  0  0
  131.5770  131.3070   57.4990 C   0  0  0  0  0  0  0  0  0  0  0  0
  132.9620  130.6920   57.7270 C   0  0  0  0  0  0  0  0  0  0  0  0
  133.7420  130.7460   56.6440 F   0  0  0  0  0  0  0  0  0  0  0  0
  133.5920  131.3450   58.7030 F   0  0  0  0  0  0  0  0  0  0  0  0
  132.8360  129.4090   58.0650 F   0  0  0  0  0  0  0  0  0  0  0  0
  130.5780  131.4300   58.5100 C   0  0  0  0  0  0  0  0  0  0  0  0
  130.5390  131.0570   59.9030 C   0  0  0  0  0  0  0  0  0  0  0  0
  131.5910  130.4450   60.5350 N   0  0  0  0  0  0  0  0  0  0  0  0
  128.1250  129.4970   64.4380 N   0  0  0  0  0  0  0  0  0  0  0  0
  1  2  1  0
  2  3  2  0
  3  4  1  0
  4  5  2  0
  5  6  1  0
  6  7  1  0
  7  8  1  0
  8  9  2  0
  8 10  1  0
 10 11  1  0
 11 12  1  0
 12 13  2  0
 13 14  1  0
 14 15  1  0
 14 16  2  0
 16 17  1  0
 17 18  1  0
 18 19  1  0
 18 20  1  0
 18 21  1  0
 17 22  2  0
 22 23  1  0
 23 24  1  0
  6 25  2  0
 25  2  1  0
 23 10  2  0
 22 12  1  0
M  END
>  <Binding energies>  (28) 
[-6.63]

>  <Ligand effiencies>  (28) 
[-0.2367857142857143]

>  <Interactions>  (28) 
["V-A:ASP:366:CG:3213, V-A:ASP:366:CB:3212, V-A:TYR:531:CZ:4794, V-A:TYR:531:CE2:4793, V-A:PRO:540:CA:4883, V-A:TYR:539:C:4867, V-A:PRO:540:N:4884, V-A:PRO:540:CB:4885, V-A:LEU:363:CD1:3189, V-A:GLU:543:CD:4908, H-A:GLU:543:OE1:4909, H-A:ASP:366:OD1:3214, V-A:LEU:363:CA:3185, V-A:GLU:543:CG:4907, V-A:ILE:538:CA:4860, V-A:ILE:538:CB:4862, V-A:ILE:538:CG2:4863, V-A:GLU:543:CB:4906, V-B:ARG:545:CZ:9898, V-B:HIS:456:CE1:9042, V-A:ILE:538:C:4858, V-A:TYR:539:CD2:4874, H-B:TYR:484:OH:9320, V-A:LEU:363:CB:3187"]

$$$$
4bg_Grossjean_2025
     RDKit          3D

 25 27  0  0  0  0  0  0  0  0999 V2000
  129.1250  132.7750   53.9600 C   0  0  0  0  0  0  0  0  0  0  0  0
  129.7010  131.7200   54.8880 C   0  0  0  0  0  0  0  0  0  0  0  0
  130.8440  131.9730   55.6400 C   0  0  0  0  0  0  0  0  0  0  0  0
  131.3690  130.9860   56.4900 C   0  0  0  0  0  0  0  0  0  0  0  0
  132.6300  131.3110   57.2980 C   0  0  0  0  0  0  0  0  0  0  0  0
  133.5890  130.3920   57.1610 F   0  0  0  0  0  0  0  0  0  0  0  0
  133.1350  132.4770   56.8960 F   0  0  0  0  0  0  0  0  0  0  0  0
  132.3300  131.3840   58.5940 F   0  0  0  0  0  0  0  0  0  0  0  0
  130.6820  129.7370   56.5410 C   0  0  0  0  0  0  0  0  0  0  0  0
  130.9180  128.5160   57.2710 C   0  0  0  0  0  0  0  0  0  0  0  0
  131.9820  128.3540   58.1230 N   0  0  0  0  0  0  0  0  0  0  0  0
  129.9610  127.5160   57.0390 C   0  0  0  0  0  0  0  0  0  0  0  0
  129.9100  126.1590   57.5830 C   0  0  0  0  0  0  0  0  0  0  0  0
  130.8830  125.6530   58.1420 O   0  0  0  0  0  0  0  0  0  0  0  0
  128.7260  125.5220   57.4670 N   0  0  0  0  0  0  0  0  0  0  0  0
  128.4470  124.1600   57.9220 C   0  0  0  0  0  0  0  0  0  0  0  0
  127.2680  123.5090   57.2120 C   0  0  0  0  0  0  0  0  0  0  0  0
  126.0400  123.3760   57.8670 C   0  0  0  0  0  0  0  0  0  0  0  0
  124.9530  122.8160   57.2020 C   0  0  0  0  0  0  0  0  0  0  0  0
  125.0920  122.4020   55.8790 C   0  0  0  0  0  0  0  0  0  0  0  0
  126.3070  122.5470   55.2140 C   0  0  0  0  0  0  0  0  0  0  0  0
  127.3950  123.1060   55.8790 C   0  0  0  0  0  0  0  0  0  0  0  0
  128.7520  128.0450   55.8730 S   0  0  0  0  0  0  0  0  0  0  0  0
  129.5160  129.6100   55.7250 C   0  0  0  0  0  0  0  0  0  0  0  0
  129.0240  130.5490   54.9180 N   0  0  0  0  0  0  0  0  0  0  0  0
  1  2  1  0
  2  3  2  0
  3  4  1  0
  4  5  1  0
  5  6  1  0
  5  7  1  0
  5  8  1  0
  4  9  2  0
  9 10  1  0
 10 11  1  0
 10 12  2  0
 12 13  1  0
 13 14  2  0
 13 15  1  0
 15 16  1  0
 16 17  1  0
 17 18  2  0
 18 19  1  0
 19 20  2  0
 20 21  1  0
 21 22  2  0
 12 23  1  0
 23 24  1  0
 24 25  2  0
 25  2  1  0
 24  9  1  0
 22 17  1  0
M  END
>  <Binding energies>  (29) 
[-6.43]

>  <Ligand effiencies>  (29) 
[-0.22964285714285712]

>  <Interactions>  (29) 
["V-B:TYR:539:CD1:9845, V-B:ILE:538:CD1:9837, V-B:PRO:540:CB:9857, V-B:PRO:540:CD:9859, V-B:LEU:363:CD1:8161, V-B:PRO:540:CA:9855, V-B:ILE:538:CG2:9835, V-B:TYR:539:CE2:9848, V-B:ILE:538:CA:9832, V-B:MET:535:CE:9807, V-B:TYR:539:CZ:9849, V-B:TYR:539:CE1:9847, V-B:PRO:540:N:9856, V-B:TYR:531:CE2:9765, V-A:ASP:366:CG:3213, V-A:ASP:366:CB:3212, V-A:TYR:531:CZ:4794, V-A:PRO:540:CA:4883, V-A:PRO:540:N:4884, V-A:PRO:540:CB:4885, V-A:TYR:539:CE2:4876, V-A:LEU:363:CD1:3189, V-B:ILE:538:C:9830, V-B:ILE:538:CB:9834, H-A:ASP:366:OD1:3214, V-A:PRO:540:CD:4887, V-A:LEU:363:CA:3185, H-B:TYR:531:OH:9767, V-A:ILE:538:CA:4860, V-A:ILE:538:CB:4862, V-A:ILE:538:CG2:4863, V-B:PRO:540:CG:9858, V-A:ILE:538:C:4858, V-A:TYR:539:CD2:4874, V-A:PRO:540:CG:4886, H-A:ASP:366:OD2:3215, V-A:LEU:363:CB:3187, V-A:LEU:363:CG:3188"]

$$$$
4ca_Grossjean_2025
     RDKit          3D

 34 37  0  0  0  0  0  0  0  0999 V2000
  131.1280  126.8820   74.5860 C   0  0  0  0  0  0  0  0  0  0  0  0
  131.2030  127.8380   73.3910 C   0  0  0  0  0  0  0  0  0  0  0  0
  129.9200  127.9400   72.7860 O   0  0  0  0  0  0  0  0  0  0  0  0
  129.3890  126.9030   72.0870 C   0  0  0  0  0  0  0  0  0  0  0  0
  129.1390  125.8030   72.5890 O   0  0  0  0  0  0  0  0  0  0  0  0
  129.1340  127.2300   70.6450 C   0  0  0  0  0  0  0  0  0  0  0  0
  128.0820  126.5920   69.9740 C   0  0  0  0  0  0  0  0  0  0  0  0
  127.8180  126.8780   68.6380 C   0  0  0  0  0  0  0  0  0  0  0  0
  128.6020  127.7990   67.9430 C   0  0  0  0  0  0  0  0  0  0  0  0
  128.2410  128.0180   66.5990 N   0  0  0  0  0  0  0  0  0  0  0  0
  127.2090  128.7260   66.0770 C   0  0  0  0  0  0  0  0  0  0  0  0
  126.4020  129.3690   66.7490 O   0  0  0  0  0  0  0  0  0  0  0  0
  127.1110  128.7030   64.6160 C   0  0  0  0  0  0  0  0  0  0  0  0
  125.7730  129.5130   63.8040 S   0  0  0  0  0  0  0  0  0  0  0  0
  126.4010  129.0740   62.2340 C   0  0  0  0  0  0  0  0  0  0  0  0
  125.7790  129.4320   61.1130 N   0  0  0  0  0  0  0  0  0  0  0  0
  126.3490  129.0580   59.9390 C   0  0  0  0  0  0  0  0  0  0  0  0
  125.6290  129.4860   58.6930 C   0  0  0  0  0  0  0  0  0  0  0  0
  124.5130  130.3360   58.7630 C   0  0  0  0  0  0  0  0  0  0  0  0
  123.8380  130.7320   57.6110 C   0  0  0  0  0  0  0  0  0  0  0  0
  124.2700  130.2810   56.3680 C   0  0  0  0  0  0  0  0  0  0  0  0
  125.3700  129.4360   56.2700 C   0  0  0  0  0  0  0  0  0  0  0  0
  126.0420  129.0420   57.4240 C   0  0  0  0  0  0  0  0  0  0  0  0
  127.5280  128.3060   59.8960 C   0  0  0  0  0  0  0  0  0  0  0  0
  128.1890  127.9190   61.0720 C   0  0  0  0  0  0  0  0  0  0  0  0
  129.4790  127.0990   60.9520 C   0  0  0  0  0  0  0  0  0  0  0  0
  130.5480  127.7310   61.4400 F   0  0  0  0  0  0  0  0  0  0  0  0
  129.3510  125.9550   61.6240 F   0  0  0  0  0  0  0  0  0  0  0  0
  129.7260  126.8310   59.6700 F   0  0  0  0  0  0  0  0  0  0  0  0
  127.6090  128.3220   62.3090 C   0  0  0  0  0  0  0  0  0  0  0  0
  127.9930  128.1270   63.6860 C   0  0  0  0  0  0  0  0  0  0  0  0
  129.1210  127.4360   64.0490 N   0  0  0  0  0  0  0  0  0  0  0  0
  129.6530  128.4470   68.6070 C   0  0  0  0  0  0  0  0  0  0  0  0
  129.9150  128.1620   69.9450 C   0  0  0  0  0  0  0  0  0  0  0  0
  1  2  1  0
  2  3  1  0
  3  4  1  0
  4  5  2  0
  4  6  1  0
  6  7  2  0
  7  8  1  0
  8  9  2  0
  9 10  1  0
 10 11  1  0
 11 12  2  0
 11 13  1  0
 13 14  1  0
 14 15  1  0
 15 16  2  0
 16 17  1  0
 17 18  1  0
 18 19  2  0
 19 20  1  0
 20 21  2  0
 21 22  1  0
 22 23  2  0
 17 24  2  0
 24 25  1  0
 25 26  1  0
 26 27  1  0
 26 28  1  0
 26 29  1  0
 25 30  2  0
 30 31  1  0
 31 32  1  0
  9 33  1  0
 33 34  2  0
 34  6  1  0
 31 13  2  0
 30 15  1  0
 23 18  1  0
M  END
>  <Binding energies>  (30) 
[-6.7]

>  <Ligand effiencies>  (30) 
[-0.1810810810810811]

>  <Interactions>  (30) 
["V-B:GLU:543:CD:9880, H-B:GLU:543:OE2:9882, H-B:GLU:543:OE1:9881, V-B:TYR:531:CZ:9766, V-A:TYR:539:CE1:4875, V-B:TYR:531:CE1:9764, V-B:ASP:366:CG:8185, V-A:TYR:539:CZ:4877, V-B:ASP:366:CB:8184, V-A:GLU:543:CD:4908, H-A:GLU:543:OE1:4909, H-A:GLU:543:OE2:4910, V-A:GLU:543:CG:4907, V-A:HIS:456:CE1:4070, V-A:GLU:543:C:4902, V-B:GLU:543:CB:9878, V-A:LYS:547:CE:4950, V-A:GLU:543:CB:4906, V-A:GLY:544:C:4912, V-A:HIS:456:CD2:4068, H-A:LYS:547:NZ:4951, V-B:HIS:456:CD2:9040, V-B:HIS:456:CE1:9042, H-B:LYS:547:NZ:9923, V-B:ASP:366:C:8180, V-B:ASP:366:CA:8182, H-B:TYR:484:OH:9320, V-A:GLU:543:CA:4904, H-B:HIS:456:ND1:9039"]

$$$$
4cb_Grossjean_2025
     RDKit          3D

 33 36  0  0  0  0  0  0  0  0999 V2000
  131.3210  127.6610   73.4730 C   0  0  0  0  0  0  0  0  0  0  0  0
  130.1460  127.9370   72.7230 O   0  0  0  0  0  0  0  0  0  0  0  0
  129.5060  126.9530   72.0410 C   0  0  0  0  0  0  0  0  0  0  0  0
  129.1570  125.8850   72.5520 O   0  0  0  0  0  0  0  0  0  0  0  0
  129.2630  127.2940   70.5980 C   0  0  0  0  0  0  0  0  0  0  0  0
  128.3550  126.5250   69.8570 C   0  0  0  0  0  0  0  0  0  0  0  0
  128.1030  126.8200   68.5210 C   0  0  0  0  0  0  0  0  0  0  0  0
  128.7550  127.8830   67.8950 C   0  0  0  0  0  0  0  0  0  0  0  0
  128.4130  128.1010   66.5470 N   0  0  0  0  0  0  0  0  0  0  0  0
  128.1900  129.2600   65.8790 C   0  0  0  0  0  0  0  0  0  0  0  0
  128.3050  130.3800   66.3790 O   0  0  0  0  0  0  0  0  0  0  0  0
  127.8070  129.1070   64.4730 C   0  0  0  0  0  0  0  0  0  0  0  0
  126.6080  130.1830   63.7580 S   0  0  0  0  0  0  0  0  0  0  0  0
  126.7740  129.4090   62.2000 C   0  0  0  0  0  0  0  0  0  0  0  0
  126.0680  129.8090   61.1460 N   0  0  0  0  0  0  0  0  0  0  0  0
  126.2730  129.1520   59.9740 C   0  0  0  0  0  0  0  0  0  0  0  0
  125.4650  129.6300   58.8020 C   0  0  0  0  0  0  0  0  0  0  0  0
  125.7350  129.1620   57.5070 C   0  0  0  0  0  0  0  0  0  0  0  0
  124.9920  129.6030   56.4140 C   0  0  0  0  0  0  0  0  0  0  0  0
  123.9660  130.5230   56.6040 C   0  0  0  0  0  0  0  0  0  0  0  0
  123.6790  131.0050   57.8770 C   0  0  0  0  0  0  0  0  0  0  0  0
  124.4260  130.5620   58.9650 C   0  0  0  0  0  0  0  0  0  0  0  0
  127.1710  128.0840   59.8740 C   0  0  0  0  0  0  0  0  0  0  0  0
  127.9180  127.6530   60.9790 C   0  0  0  0  0  0  0  0  0  0  0  0
  128.8870  126.4770   60.7980 C   0  0  0  0  0  0  0  0  0  0  0  0
  130.1500  126.7900   61.0950 F   0  0  0  0  0  0  0  0  0  0  0  0
  128.5270  125.4710   61.5960 F   0  0  0  0  0  0  0  0  0  0  0  0
  128.8650  126.0650   59.5310 F   0  0  0  0  0  0  0  0  0  0  0  0
  127.7230  128.3450   62.2100 C   0  0  0  0  0  0  0  0  0  0  0  0
  128.3020  128.1980   63.5230 C   0  0  0  0  0  0  0  0  0  0  0  0
  129.2520  127.2520   63.8130 N   0  0  0  0  0  0  0  0  0  0  0  0
  129.6630  128.6610   68.6300 C   0  0  0  0  0  0  0  0  0  0  0  0
  129.9130  128.3650   69.9670 C   0  0  0  0  0  0  0  0  0  0  0  0
  1  2  1  0
  2  3  1  0
  3  4  2  0
  3  5  1  0
  5  6  2  0
  6  7  1  0
  7  8  2  0
  8  9  1  0
  9 10  1  0
 10 11  2  0
 10 12  1  0
 12 13  1  0
 13 14  1  0
 14 15  2  0
 15 16  1  0
 16 17  1  0
 17 18  2  0
 18 19  1  0
 19 20  2  0
 20 21  1  0
 21 22  2  0
 16 23  2  0
 23 24  1  0
 24 25  1  0
 25 26  1  0
 25 27  1  0
 25 28  1  0
 24 29  2  0
 29 30  1  0
 30 31  1  0
  8 32  1  0
 32 33  2  0
 33  5  1  0
 30 12  2  0
 29 14  1  0
 22 17  1  0
M  END
>  <Binding energies>  (31) 
[-6.62]

>  <Ligand effiencies>  (31) 
[-0.18388888888888888]

>  <Interactions>  (31) 
["V-B:GLU:543:CD:9880, H-B:GLU:543:OE2:9882, H-B:GLU:543:OE1:9881, V-B:TYR:531:CZ:9766, V-A:TYR:539:CE1:4875, V-B:TYR:531:CE1:9764, V-B:ASP:366:CG:8185, V-A:TYR:539:CZ:4877, V-B:ASP:366:CB:8184, V-A:GLU:543:CD:4908, H-A:GLU:543:OE1:4909, H-A:GLU:543:OE2:4910, V-A:GLU:543:CG:4907, V-A:HIS:456:CE1:4070, V-A:GLU:543:C:4902, V-B:GLU:543:CB:9878, V-A:LYS:547:CE:4950, V-A:GLU:543:CB:4906, V-A:HIS:456:CD2:4068, H-A:LYS:547:NZ:4951, V-B:HIS:456:CD2:9040, V-B:HIS:456:CE1:9042, H-B:LYS:547:NZ:9923, V-B:ASP:366:C:8180, V-B:ASP:366:CA:8182, V-B:ILE:369:CG2:8209, V-B:ILE:369:CB:8208, H-B:TYR:484:OH:9320, V-A:GLU:543:CA:4904"]

$$$$
4cc_Grossjean_2025
     RDKit          3D

 31 34  0  0  0  0  0  0  0  0999 V2000
  124.0950  132.2440   62.5540 C   0  0  0  0  0  0  0  0  0  0  0  0
  123.8720  131.0620   63.3150 O   0  0  0  0  0  0  0  0  0  0  0  0
  124.7730  130.0190   63.2210 C   0  0  0  0  0  0  0  0  0  0  0  0
  125.0630  129.5610   61.9370 C   0  0  0  0  0  0  0  0  0  0  0  0
  125.9610  128.5150   61.7420 C   0  0  0  0  0  0  0  0  0  0  0  0
  126.5750  127.9040   62.8370 C   0  0  0  0  0  0  0  0  0  0  0  0
  127.4790  126.8660   62.5420 N   0  0  0  0  0  0  0  0  0  0  0  0
  128.6620  126.9210   61.8830 C   0  0  0  0  0  0  0  0  0  0  0  0
  129.1630  127.9620   61.4550 O   0  0  0  0  0  0  0  0  0  0  0  0
  129.3420  125.6350   61.7010 C   0  0  0  0  0  0  0  0  0  0  0  0
  128.4080  124.1750   61.3810 S   0  0  0  0  0  0  0  0  0  0  0  0
  129.8630  123.2100   61.2970 C   0  0  0  0  0  0  0  0  0  0  0  0
  129.8150  121.9010   61.0570 N   0  0  0  0  0  0  0  0  0  0  0  0
  130.9980  121.2370   61.0010 C   0  0  0  0  0  0  0  0  0  0  0  0
  130.9130  119.7620   60.7320 C   0  0  0  0  0  0  0  0  0  0  0  0
  129.9270  118.9750   61.3500 C   0  0  0  0  0  0  0  0  0  0  0  0
  129.8430  117.6070   61.1070 C   0  0  0  0  0  0  0  0  0  0  0  0
  130.7470  117.0030   60.2400 C   0  0  0  0  0  0  0  0  0  0  0  0
  131.7360  117.7580   59.6180 C   0  0  0  0  0  0  0  0  0  0  0  0
  131.8170  119.1260   59.8640 C   0  0  0  0  0  0  0  0  0  0  0  0
  132.2200  121.8850   61.2010 C   0  0  0  0  0  0  0  0  0  0  0  0
  132.2820  123.2650   61.4560 C   0  0  0  0  0  0  0  0  0  0  0  0
  133.6560  123.9120   61.6600 C   0  0  0  0  0  0  0  0  0  0  0  0
  133.6950  124.7440   62.7040 F   0  0  0  0  0  0  0  0  0  0  0  0
  134.5730  122.9670   61.8710 F   0  0  0  0  0  0  0  0  0  0  0  0
  133.9890  124.6140   60.5780 F   0  0  0  0  0  0  0  0  0  0  0  0
  131.0480  123.9740   61.5090 C   0  0  0  0  0  0  0  0  0  0  0  0
  130.7180  125.3580   61.7420 C   0  0  0  0  0  0  0  0  0  0  0  0
  131.6700  126.3170   61.9790 N   0  0  0  0  0  0  0  0  0  0  0  0
  126.2980  128.3670   64.1320 C   0  0  0  0  0  0  0  0  0  0  0  0
  125.4000  129.4140   64.3210 C   0  0  0  0  0  0  0  0  0  0  0  0
  1  2  1  0
  2  3  1  0
  3  4  2  0
  4  5  1  0
  5  6  2  0
  6  7  1  0
  7  8  1  0
  8  9  2  0
  8 10  1  0
 10 11  1  0
 11 12  1  0
 12 13  2  0
 13 14  1  0
 14 15  1  0
 15 16  2  0
 16 17  1  0
 17 18  2  0
 18 19  1  0
 19 20  2  0
 14 21  2  0
 21 22  1  0
 22 23  1  0
 23 24  1  0
 23 25  1  0
 23 26  1  0
 22 27  2  0
 27 28  1  0
 28 29  1  0
  6 30  1  0
 30 31  2  0
 31  3  1  0
 28 10  2  0
 27 12  1  0
 20 15  1  0
M  END
>  <Binding energies>  (32) 
[-7.5]

>  <Ligand effiencies>  (32) 
[-0.22058823529411764]

>  <Interactions>  (32) 
["V-B:GLU:543:CD:9880, H-B:GLU:543:OE2:9882, V-B:TYR:539:C:9839, H-B:GLU:543:OE1:9881, V-B:TYR:539:CE2:9848, V-B:TYR:539:CD2:9846, V-B:ALA:541:CB:9864, V-A:GLY:453:C:4042, V-A:SER:385:CB:3409, V-A:PRO:482:CB:4326, V-A:LEU:475:CD1:4258, V-A:ASP:366:CA:3210, V-A:ASP:366:CG:3213, V-B:TYR:539:CG:9844, V-A:LEU:475:CD2:4259, V-A:ILE:369:CD1:3239, V-A:GLY:454:CA:4049, V-A:LEU:475:CG:4257, V-A:ASP:366:CB:3212, V-A:PRO:482:CG:4327, V-B:ASP:366:CG:8185, V-A:GLU:543:CD:4908, H-A:GLU:543:OE1:4909, H-A:GLU:543:OE2:4910, V-A:ARG:545:CZ:4926, H-A:ASP:366:OD1:3214, V-B:LEU:475:CD2:9231, V-B:TYR:539:CB:9843, V-B:ARG:545:CZ:9898, V-B:ILE:369:CD1:8211, V-B:GLY:454:CA:9021, H-B:TYR:484:OH:9320, H-A:ASP:366:OD2:3215, V-A:GLY:453:CA:4044, H-B:GLY:454:N:9022"]

$$$$
4ce_Grossjean_2025
     RDKit          3D

 30 33  0  0  0  0  0  0  0  0999 V2000
  124.3480  129.4930   65.8330 C   0  0  0  0  0  0  0  0  0  0  0  0
  124.9280  129.3920   64.4340 C   0  0  0  0  0  0  0  0  0  0  0  0
  124.6220  130.3330   63.4470 C   0  0  0  0  0  0  0  0  0  0  0  0
  125.1980  130.1810   62.1850 C   0  0  0  0  0  0  0  0  0  0  0  0
  126.0570  129.1080   61.9430 C   0  0  0  0  0  0  0  0  0  0  0  0
  126.3170  128.1990   62.9760 C   0  0  0  0  0  0  0  0  0  0  0  0
  127.2090  127.1530   62.6780 N   0  0  0  0  0  0  0  0  0  0  0  0
  128.4610  127.2260   62.1620 C   0  0  0  0  0  0  0  0  0  0  0  0
  129.0260  128.2860   61.8840 O   0  0  0  0  0  0  0  0  0  0  0  0
  129.1300  125.9410   61.9480 C   0  0  0  0  0  0  0  0  0  0  0  0
  128.1820  124.4660   61.7750 S   0  0  0  0  0  0  0  0  0  0  0  0
  129.6260  123.5130   61.5320 C   0  0  0  0  0  0  0  0  0  0  0  0
  129.5640  122.2010   61.3230 N   0  0  0  0  0  0  0  0  0  0  0  0
  130.7390  121.5460   61.1280 C   0  0  0  0  0  0  0  0  0  0  0  0
  130.6350  120.0690   60.8900 C   0  0  0  0  0  0  0  0  0  0  0  0
  131.5300  119.4180   60.0260 C   0  0  0  0  0  0  0  0  0  0  0  0
  131.4340  118.0480   59.7940 C   0  0  0  0  0  0  0  0  0  0  0  0
  130.4400  117.3090   60.4270 C   0  0  0  0  0  0  0  0  0  0  0  0
  129.5410  117.9290   61.2860 C   0  0  0  0  0  0  0  0  0  0  0  0
  129.6380  119.3000   61.5130 C   0  0  0  0  0  0  0  0  0  0  0  0
  131.9710  122.2100   61.1660 C   0  0  0  0  0  0  0  0  0  0  0  0
  132.0470  123.5930   61.3910 C   0  0  0  0  0  0  0  0  0  0  0  0
  133.4280  124.2570   61.4180 C   0  0  0  0  0  0  0  0  0  0  0  0
  133.5970  125.0730   62.4600 F   0  0  0  0  0  0  0  0  0  0  0  0
  134.3760  123.3210   61.4870 F   0  0  0  0  0  0  0  0  0  0  0  0
  133.6030  124.9790   60.3120 F   0  0  0  0  0  0  0  0  0  0  0  0
  130.8200  124.2920   61.5810 C   0  0  0  0  0  0  0  0  0  0  0  0
  130.5050  125.6790   61.8230 C   0  0  0  0  0  0  0  0  0  0  0  0
  131.4660  126.6520   61.9190 N   0  0  0  0  0  0  0  0  0  0  0  0
  125.7610  128.3430   64.2140 N   0  0  0  0  0  0  0  0  0  0  0  0
  1  2  1  0
  2  3  2  0
  3  4  1  0
  4  5  2  0
  5  6  1  0
  6  7  1  0
  7  8  1  0
  8  9  2  0
  8 10  1  0
 10 11  1  0
 11 12  1  0
 12 13  2  0
 13 14  1  0
 14 15  1  0
 15 16  2  0
 16 17  1  0
 17 18  2  0
 18 19  1  0
 19 20  2  0
 14 21  2  0
 21 22  1  0
 22 23  1  0
 23 24  1  0
 23 25  1  0
 23 26  1  0
 22 27  2  0
 27 28  1  0
 28 29  1  0
  6 30  2  0
 30  2  1  0
 28 10  2  0
 27 12  1  0
 20 15  1  0
M  END
>  <Binding energies>  (33) 
[-7.43]

>  <Ligand effiencies>  (33) 
[-0.22515151515151513]

>  <Interactions>  (33) 
["V-B:GLU:543:CD:9880, H-B:GLU:543:OE2:9882, V-B:TYR:539:C:9839, H-B:GLU:543:OE1:9881, V-B:TYR:539:CE2:9848, V-B:TYR:539:CD2:9846, V-B:ALA:541:CB:9864, V-A:GLY:453:C:4042, V-A:SER:385:CB:3409, V-A:PRO:482:CB:4326, V-A:LEU:475:CD1:4258, V-A:ASP:366:CA:3210, V-A:ASP:366:CG:3213, V-B:TYR:539:CG:9844, V-A:LEU:475:CD2:4259, V-A:ILE:369:CD1:3239, V-A:GLY:454:CA:4049, V-A:ASP:366:CB:3212, V-A:PRO:482:CG:4327, H-B:ARG:545:NH2:9900, V-A:GLU:543:CD:4908, H-A:GLU:543:OE1:4909, H-A:GLU:543:OE2:4910, V-A:ARG:545:CZ:4926, H-A:ASP:366:OD1:3214, V-B:TYR:539:CB:9843, V-B:ARG:545:CZ:9898, V-B:TYR:484:CZ:9319, V-B:ARG:545:CD:9895, H-A:ASP:366:OD2:3215, H-B:ARG:545:NE:9896"]

$$$$
4cf_Grossjean_2025
     RDKit          3D

 29 32  0  0  0  0  0  0  0  0999 V2000
  131.5710  126.6350   61.8260 N   0  0  0  0  0  0  0  0  0  0  0  0
  130.6160  125.6560   61.7280 C   0  0  0  0  0  0  0  0  0  0  0  0
  129.2400  125.9060   61.8520 C   0  0  0  0  0  0  0  0  0  0  0  0
  128.5650  127.1760   62.1330 C   0  0  0  0  0  0  0  0  0  0  0  0
  129.1270  128.2490   61.9080 O   0  0  0  0  0  0  0  0  0  0  0  0
  127.3090  127.0680   62.6320 N   0  0  0  0  0  0  0  0  0  0  0  0
  126.4190  128.0760   63.0500 C   0  0  0  0  0  0  0  0  0  0  0  0
  126.1130  128.3930   64.3870 C   0  0  0  0  0  0  0  0  0  0  0  0
  125.1970  129.4100   64.6640 C   0  0  0  0  0  0  0  0  0  0  0  0
  124.6070  130.0860   63.5960 C   0  0  0  0  0  0  0  0  0  0  0  0
  124.8780  129.7960   62.2990 N   0  0  0  0  0  0  0  0  0  0  0  0
  125.7700  128.8030   62.0460 C   0  0  0  0  0  0  0  0  0  0  0  0
  128.3040  124.4250   61.6660 S   0  0  0  0  0  0  0  0  0  0  0  0
  129.7580  123.4830   61.4320 C   0  0  0  0  0  0  0  0  0  0  0  0
  129.7080  122.1670   61.2310 N   0  0  0  0  0  0  0  0  0  0  0  0
  130.8930  121.5190   61.0760 C   0  0  0  0  0  0  0  0  0  0  0  0
  130.8060  120.0360   60.8590 C   0  0  0  0  0  0  0  0  0  0  0  0
  131.7070  119.3830   60.0030 C   0  0  0  0  0  0  0  0  0  0  0  0
  131.6340  118.0080   59.7960 C   0  0  0  0  0  0  0  0  0  0  0  0
  130.6570  117.2640   60.4480 C   0  0  0  0  0  0  0  0  0  0  0  0
  129.7530  117.8850   61.3050 C   0  0  0  0  0  0  0  0  0  0  0  0
  129.8300  119.2590   61.5080 C   0  0  0  0  0  0  0  0  0  0  0  0
  132.1150  122.1960   61.0990 C   0  0  0  0  0  0  0  0  0  0  0  0
  132.1780  123.5830   61.3060 C   0  0  0  0  0  0  0  0  0  0  0  0
  133.5530  124.2610   61.3240 C   0  0  0  0  0  0  0  0  0  0  0  0
  133.6920  125.1360   62.3220 F   0  0  0  0  0  0  0  0  0  0  0  0
  134.5070  123.3410   61.4650 F   0  0  0  0  0  0  0  0  0  0  0  0
  133.7450  124.9240   60.1840 F   0  0  0  0  0  0  0  0  0  0  0  0
  130.9440  124.2710   61.4880 C   0  0  0  0  0  0  0  0  0  0  0  0
  1  2  1  0
  2  3  2  0
  3  4  1  0
  4  5  2  0
  4  6  1  0
  6  7  1  0
  7  8  2  0
  8  9  1  0
  9 10  2  0
 10 11  1  0
 11 12  2  0
  3 13  1  0
 13 14  1  0
 14 15  2  0
 15 16  1  0
 16 17  1  0
 17 18  2  0
 18 19  1  0
 19 20  2  0
 20 21  1  0
 21 22  2  0
 16 23  2  0
 23 24  1  0
 24 25  1  0
 25 26  1  0
 25 27  1  0
 25 28  1  0
 24 29  2  0
 29  2  1  0
 12  7  1  0
 29 14  1  0
 22 17  1  0
M  END
>  <Binding energies>  (34) 
[-6.89]

>  <Ligand effiencies>  (34) 
[-0.2153125]

>  <Interactions>  (34) 
["V-B:GLU:543:CD:9880, H-B:GLU:543:OE2:9882, H-B:GLU:543:OE1:9881, V-B:TYR:539:CE2:9848, V-B:TYR:539:CD2:9846, V-B:ALA:541:CB:9864, V-A:GLY:453:C:4042, V-A:SER:385:CB:3409, V-A:PRO:482:CB:4326, V-A:LEU:475:CD1:4258, V-A:ASP:366:CA:3210, V-A:ASP:366:CG:3213, V-A:LEU:475:CD2:4259, V-A:ILE:369:CD1:3239, V-A:GLY:454:CA:4049, V-A:LEU:475:CG:4257, V-A:ASP:366:CB:3212, V-A:PRO:482:CG:4327, V-B:ASP:366:CG:8185, V-A:GLU:543:CD:4908, H-A:GLU:543:OE1:4909, H-A:GLU:543:OE2:4910, V-A:ARG:545:CZ:4926, H-A:ASP:366:OD1:3214, V-B:TYR:539:CB:9843, V-B:ARG:545:CZ:9898, V-A:ILE:369:CG1:3238, H-A:ASP:366:OD2:3215, V-A:GLY:453:CA:4044"]

$$$$
4ci_Grossjean_2025
     RDKit          3D

 28 31  0  0  0  0  0  0  0  0999 V2000
  131.3340  127.3230   60.9880 N   0  0  0  0  0  0  0  0  0  0  0  0
  130.9820  126.0350   60.6750 C   0  0  0  0  0  0  0  0  0  0  0  0
  131.5930  124.9090   61.2520 C   0  0  0  0  0  0  0  0  0  0  0  0
  132.6600  124.8630   62.2550 C   0  0  0  0  0  0  0  0  0  0  0  0
  133.8110  124.5590   61.9350 O   0  0  0  0  0  0  0  0  0  0  0  0
  132.2810  125.1590   63.5240 N   0  0  0  0  0  0  0  0  0  0  0  0
  133.0800  125.1870   64.6600 C   0  0  0  0  0  0  0  0  0  0  0  0
  132.5780  125.4200   65.9390 C   0  0  0  0  0  0  0  0  0  0  0  0
  133.6730  125.3680   66.7700 C   0  0  0  0  0  0  0  0  0  0  0  0
  134.7790  125.1160   66.0280 O   0  0  0  0  0  0  0  0  0  0  0  0
  134.3900  125.0040   64.6920 N   0  0  0  0  0  0  0  0  0  0  0  0
  130.8900  123.4170   60.6320 S   0  0  0  0  0  0  0  0  0  0  0  0
  129.7940  124.3080   59.6020 C   0  0  0  0  0  0  0  0  0  0  0  0
  128.9230  123.6860   58.8100 N   0  0  0  0  0  0  0  0  0  0  0  0
  128.1090  124.4620   58.0480 C   0  0  0  0  0  0  0  0  0  0  0  0
  127.1420  123.7310   57.1620 C   0  0  0  0  0  0  0  0  0  0  0  0
  127.5340  123.2680   55.8950 C   0  0  0  0  0  0  0  0  0  0  0  0
  126.6420  122.5890   55.0690 C   0  0  0  0  0  0  0  0  0  0  0  0
  125.3390  122.3640   55.4990 C   0  0  0  0  0  0  0  0  0  0  0  0
  124.9220  122.8150   56.7460 C   0  0  0  0  0  0  0  0  0  0  0  0
  125.8170  123.4950   57.5690 C   0  0  0  0  0  0  0  0  0  0  0  0
  128.1870  125.8580   58.0740 C   0  0  0  0  0  0  0  0  0  0  0  0
  129.1010  126.5250   58.9060 C   0  0  0  0  0  0  0  0  0  0  0  0
  129.1310  128.0580   58.8830 C   0  0  0  0  0  0  0  0  0  0  0  0
  130.3280  128.5540   58.5650 F   0  0  0  0  0  0  0  0  0  0  0  0
  128.2590  128.5100   57.9820 F   0  0  0  0  0  0  0  0  0  0  0  0
  128.8070  128.5330   60.0860 F   0  0  0  0  0  0  0  0  0  0  0  0
  129.9500  125.7200   59.7180 C   0  0  0  0  0  0  0  0  0  0  0  0
  1  2  1  0
  2  3  2  0
  3  4  1  0
  4  5  2  0
  4  6  1  0
  6  7  1  0
  7  8  1  0
  8  9  2  0
  9 10  1  0
 10 11  1  0
  3 12  1  0
 12 13  1  0
 13 14  2  0
 14 15  1  0
 15 16  1  0
 16 17  2  0
 17 18  1  0
 18 19  2  0
 19 20  1  0
 20 21  2  0
 15 22  2  0
 22 23  1  0
 23 24  1  0
 24 25  1  0
 24 26  1  0
 24 27  1  0
 23 28  2  0
 28  2  1  0
 11  7  2  0
 28 13  1  0
 21 16  1  0
M  END
>  <Binding energies>  (35) 
[-7.84]

>  <Ligand effiencies>  (35) 
[-0.2529032258064516]

>  <Interactions>  (35) 
["V-B:TYR:539:CD1:9845, V-B:ILE:538:CD1:9837, V-B:PRO:540:CB:9857, V-B:PRO:540:CD:9859, V-B:LEU:363:CD1:8161, V-B:ILE:538:CG2:9835, V-B:TYR:539:CE2:9848, V-B:ILE:538:CA:9832, V-B:MET:535:CE:9807, V-B:TYR:539:CZ:9849, V-B:TYR:539:CE1:9847, V-B:PRO:540:N:9856, V-B:TYR:531:CE2:9765, H-A:TYR:484:OH:4348, V-A:ASP:366:CG:3213, V-B:ILE:538:C:9830, V-B:ILE:538:CB:9834, H-A:GLY:454:N:4050, H-A:GLU:543:OE1:4909, H-A:ARG:545:NH1:4927, H-A:GLU:543:OE2:4910, V-A:ARG:545:CZ:4926, H-A:ASP:366:OD1:3214, V-A:HIS:456:CE1:4070, V-A:ILE:455:C:4052, V-A:TYR:484:CE2:4346, H-A:ARG:545:NE:4924, V-A:TYR:484:CZ:4347, V-A:ARG:545:CG:4922, V-A:ARG:545:CD:4923, V-B:ILE:538:CG1:9836, H-A:ASP:366:OD2:3215, H-A:ILE:455:N:4055"]

$$$$
8a_Ghoteimi_2023
     RDKit          3D

 40 44  0  0  0  0  0  0  0  0999 V2000
  131.1100  124.6690   74.7060 C   0  0  0  0  0  0  0  0  0  0  0  0
  130.7070  126.0510   74.1850 C   0  0  0  0  0  0  0  0  0  0  0  0
  129.8240  125.9010   73.0800 O   0  0  0  0  0  0  0  0  0  0  0  0
  128.9990  126.9120   72.7000 C   0  0  0  0  0  0  0  0  0  0  0  0
  128.3230  127.5730   73.4940 O   0  0  0  0  0  0  0  0  0  0  0  0
  128.9850  127.1400   71.2160 C   0  0  0  0  0  0  0  0  0  0  0  0
  128.0100  126.5080   70.4360 C   0  0  0  0  0  0  0  0  0  0  0  0
  127.9720  126.6990   69.0570 C   0  0  0  0  0  0  0  0  0  0  0  0
  128.9070  127.5230   68.4300 C   0  0  0  0  0  0  0  0  0  0  0  0
  128.7740  127.6380   67.0310 N   0  0  0  0  0  0  0  0  0  0  0  0
  128.4060  128.6970   66.2690 C   0  0  0  0  0  0  0  0  0  0  0  0
  128.1070  129.8030   66.7180 O   0  0  0  0  0  0  0  0  0  0  0  0
  128.3890  128.4500   64.8240 C   0  0  0  0  0  0  0  0  0  0  0  0
  127.4060  129.4560   63.7610 S   0  0  0  0  0  0  0  0  0  0  0  0
  127.9140  128.5490   62.3550 C   0  0  0  0  0  0  0  0  0  0  0  0
  127.4580  128.8330   61.1360 N   0  0  0  0  0  0  0  0  0  0  0  0
  127.9130  128.0620   60.1120 C   0  0  0  0  0  0  0  0  0  0  0  0
  127.3720  128.3850   58.7560 C   0  0  0  0  0  0  0  0  0  0  0  0
  126.0540  128.8340   58.5900 C   0  0  0  0  0  0  0  0  0  0  0  0
  125.5530  129.1220   57.3240 C   0  0  0  0  0  0  0  0  0  0  0  0
  126.3550  128.9730   56.1940 C   0  0  0  0  0  0  0  0  0  0  0  0
  125.7730  129.2800   54.9790 O   0  0  0  0  0  0  0  0  0  0  0  0
  124.7180  130.2350   54.9370 C   0  0  0  0  0  0  0  0  0  0  0  0
  127.6770  128.5310   56.3500 C   0  0  0  0  0  0  0  0  0  0  0  0
  128.1740  128.2400   57.6170 C   0  0  0  0  0  0  0  0  0  0  0  0
  128.8220  127.0210   60.3090 C   0  0  0  0  0  0  0  0  0  0  0  0
  129.3170  126.7300   61.5850 C   0  0  0  0  0  0  0  0  0  0  0  0
  130.3070  125.6330   61.7340 C   0  0  0  0  0  0  0  0  0  0  0  0
  129.9420  124.3140   61.4540 C   0  0  0  0  0  0  0  0  0  0  0  0
  130.8720  123.2860   61.5720 C   0  0  0  0  0  0  0  0  0  0  0  0
  132.1830  123.5570   61.9670 C   0  0  0  0  0  0  0  0  0  0  0  0
  133.0370  122.4740   62.0560 O   0  0  0  0  0  0  0  0  0  0  0  0
  133.5750  121.9140   60.8650 C   0  0  0  0  0  0  0  0  0  0  0  0
  132.5540  124.8820   62.2420 C   0  0  0  0  0  0  0  0  0  0  0  0
  131.6210  125.9100   62.1210 C   0  0  0  0  0  0  0  0  0  0  0  0
  128.8370  127.5100   62.6760 C   0  0  0  0  0  0  0  0  0  0  0  0
  129.0760  127.4650   64.0970 C   0  0  0  0  0  0  0  0  0  0  0  0
  129.8910  126.5260   64.6790 N   0  0  0  0  0  0  0  0  0  0  0  0
  129.8850  128.1650   69.2040 C   0  0  0  0  0  0  0  0  0  0  0  0
  129.9220  127.9730   70.5830 C   0  0  0  0  0  0  0  0  0  0  0  0
  1  2  1  0
  2  3  1  0
  3  4  1  0
  4  5  2  0
  4  6  1  0
  6  7  2  0
  7  8  1  0
  8  9  2  0
  9 10  1  0
 10 11  1  0
 11 12  2  0
 11 13  1  0
 13 14  1  0
 14 15  1  0
 15 16  2  0
 16 17  1  0
 17 18  1  0
 18 19  2  0
 19 20  1  0
 20 21  2  0
 21 22  1  0
 22 23  1  0
 21 24  1  0
 24 25  2  0
 17 26  2  0
 26 27  1  0
 27 28  1  0
 28 29  2  0
 29 30  1  0
 30 31  2  0
 31 32  1  0
 32 33  1  0
 31 34  1  0
 34 35  2  0
 27 36  2  0
 36 37  1  0
 37 38  1  0
  9 39  1  0
 39 40  2  0
 40  6  1  0
 37 13  2  0
 36 15  1  0
 25 18  1  0
 35 28  1  0
M  END
>  <Binding energies>  (36) 
[-6.88]

>  <Ligand effiencies>  (36) 
[-0.16]

>  <Interactions>  (36) 
["V-B:GLU:543:CD:9880, H-B:GLU:543:OE2:9882, H-B:GLU:543:OE1:9881, V-B:MET:535:CE:9807, H-A:TYR:484:OH:4348, V-A:LEU:475:CD2:4259, V-B:TYR:531:CZ:9766, V-A:ILE:369:CD1:3239, V-A:ILE:369:CG2:3237, V-B:TYR:531:CE1:9764, V-B:ASP:366:CG:8185, V-A:TYR:539:CZ:4877, V-B:ASP:366:CB:8184, H-B:LYS:534:NZ:9795, V-A:GLU:543:CD:4908, H-A:GLY:454:N:4050, H-A:GLU:543:OE1:4909, H-A:GLU:543:OE2:4910, V-A:GLU:543:CG:4907, V-A:HIS:456:CE1:4070, H-B:TYR:531:OH:9767, V-A:GLU:543:C:4902, V-B:GLU:543:CB:9878, V-A:GLU:543:CB:4906, V-A:HIS:456:CD2:4068, V-A:HIS:456:CB:4065, V-B:HIS:456:CD2:9040, V-B:HIS:456:CE1:9042, H-B:LYS:547:NZ:9923, V-B:TYR:531:CD1:9762, V-B:ASN:370:CB:8217, H-B:TYR:484:OH:9320, V-B:GLU:543:C:9874, V-B:LYS:547:CE:9922, V-B:GLY:544:C:9884, V-B:ASN:370:CG:8218"]

$$$$
8c_Ghoteimi_2023
     RDKit          3D

 34 38  0  0  0  0  0  0  0  0999 V2000
  123.8960  132.4460   62.0890 C   0  0  0  0  0  0  0  0  0  0  0  0
  123.8630  131.1790   62.7360 O   0  0  0  0  0  0  0  0  0  0  0  0
  124.6900  130.1690   62.2820 C   0  0  0  0  0  0  0  0  0  0  0  0
  125.3490  129.4200   63.2550 C   0  0  0  0  0  0  0  0  0  0  0  0
  126.2050  128.3840   62.8910 C   0  0  0  0  0  0  0  0  0  0  0  0
  126.4240  128.0710   61.5420 C   0  0  0  0  0  0  0  0  0  0  0  0
  127.3450  126.9620   61.1440 C   0  0  0  0  0  0  0  0  0  0  0  0
  128.1460  127.0430   60.0000 C   0  0  0  0  0  0  0  0  0  0  0  0
  129.0010  125.9920   59.6520 C   0  0  0  0  0  0  0  0  0  0  0  0
  129.8290  126.1060   58.4300 C   0  0  0  0  0  0  0  0  0  0  0  0
  129.2250  126.1340   57.1700 C   0  0  0  0  0  0  0  0  0  0  0  0
  130.0050  126.2510   56.0240 C   0  0  0  0  0  0  0  0  0  0  0  0
  131.3950  126.3370   56.1160 C   0  0  0  0  0  0  0  0  0  0  0  0
  132.0860  126.4530   54.9250 O   0  0  0  0  0  0  0  0  0  0  0  0
  131.6200  125.7500   53.7790 C   0  0  0  0  0  0  0  0  0  0  0  0
  132.0000  126.3040   57.3820 C   0  0  0  0  0  0  0  0  0  0  0  0
  131.2190  126.1880   58.5290 C   0  0  0  0  0  0  0  0  0  0  0  0
  129.0340  124.8490   60.4950 C   0  0  0  0  0  0  0  0  0  0  0  0
  129.7780  123.6190   60.4430 C   0  0  0  0  0  0  0  0  0  0  0  0
  130.6750  123.3450   59.4410 N   0  0  0  0  0  0  0  0  0  0  0  0
  129.5000  122.7400   61.5020 C   0  0  0  0  0  0  0  0  0  0  0  0
  130.0710  121.4170   61.7630 C   0  0  0  0  0  0  0  0  0  0  0  0
  130.6310  121.1730   62.8340 O   0  0  0  0  0  0  0  0  0  0  0  0
  129.9370  120.5170   60.7570 N   0  0  0  0  0  0  0  0  0  0  0  0
  130.3830  119.2030   60.7490 C   0  0  0  0  0  0  0  0  0  0  0  0
  129.8560  118.1670   61.3650 N   0  0  0  0  0  0  0  0  0  0  0  0
  130.5410  117.0650   61.1330 C   0  0  0  0  0  0  0  0  0  0  0  0
  131.6560  117.1950   60.3110 C   0  0  0  0  0  0  0  0  0  0  0  0
  131.8060  118.8560   59.8210 S   0  0  0  0  0  0  0  0  0  0  0  0
  128.3020  123.4250   62.6000 S   0  0  0  0  0  0  0  0  0  0  0  0
  128.1800  124.8780   61.6350 C   0  0  0  0  0  0  0  0  0  0  0  0
  127.3630  125.8780   61.9670 N   0  0  0  0  0  0  0  0  0  0  0  0
  125.7560  128.8280   60.5690 C   0  0  0  0  0  0  0  0  0  0  0  0
  124.9000  129.8640   60.9300 C   0  0  0  0  0  0  0  0  0  0  0  0
  1  2  1  0
  2  3  1  0
  3  4  2  0
  4  5  1  0
  5  6  2  0
  6  7  1  0
  7  8  2  0
  8  9  1  0
  9 10  1  0
 10 11  2  0
 11 12  1  0
 12 13  2  0
 13 14  1  0
 14 15  1  0
 13 16  1  0
 16 17  2  0
  9 18  2  0
 18 19  1  0
 19 20  1  0
 19 21  2  0
 21 22  1  0
 22 23  2  0
 22 24  1  0
 24 25  1  0
 25 26  2  0
 26 27  1  0
 27 28  2  0
 28 29  1  0
 21 30  1  0
 30 31  1  0
 31 32  2  0
  6 33  1  0
 33 34  2  0
 34  3  1  0
 32  7  1  0
 17 10  1  0
 31 18  1  0
 29 25  1  0
M  END
>  <Binding energies>  (37) 
[-6.73]

>  <Ligand effiencies>  (37) 
[-0.1818918918918919]

>  <Interactions>  (37) 
["V-B:GLU:543:CD:9880, V-B:TYR:539:C:9839, V-B:TYR:539:CE2:9848, V-B:TYR:539:CD2:9846, V-B:MET:535:CE:9807, V-B:ALA:541:CB:9864, V-B:TYR:539:CZ:9849, V-A:SER:385:CB:3409, V-A:PRO:482:CB:4326, V-A:LEU:475:CD1:4258, H-A:TYR:484:OH:4348, V-A:ASP:366:CG:3213, V-A:LEU:475:CD2:4259, V-A:LEU:475:CG:4257, V-A:ASP:366:CB:3212, V-A:PRO:482:CG:4327, V-A:TYR:531:CZ:4794, V-B:ASP:366:CG:8185, V-A:MET:535:CE:4835, V-A:TYR:531:CE1:4792, V-A:ASN:370:CB:3245, H-B:ARG:545:NH2:9900, H-B:TYR:539:OH:9850, V-B:LEU:475:CD2:9231, H-A:TYR:531:OH:4795, V-B:ARG:545:CZ:9898, H-B:TYR:539:O:9840, V-B:ILE:369:CD1:8211, V-B:GLU:543:CG:9879, V-B:GLY:454:CA:9021, H-B:GLY:454:N:9022, V-A:ASN:370:CG:3246"]

$$$$
8d_Ghoteimi_2023
     RDKit          3D

 30 33  0  0  0  0  0  0  0  0999 V2000
  126.5880  122.7660   54.7570 C   0  0  0  0  0  0  0  0  0  0  0  0
  126.4960  122.0290   55.9680 O   0  0  0  0  0  0  0  0  0  0  0  0
  125.7970  122.5160   57.0270 C   0  0  0  0  0  0  0  0  0  0  0  0
  124.5780  122.3890   57.1660 O   0  0  0  0  0  0  0  0  0  0  0  0
  126.6530  123.2200   58.0070 C   0  0  0  0  0  0  0  0  0  0  0  0
  128.0980  122.4300   58.6410 S   0  0  0  0  0  0  0  0  0  0  0  0
  128.4700  123.8220   59.6320 C   0  0  0  0  0  0  0  0  0  0  0  0
  129.5430  123.8550   60.4240 N   0  0  0  0  0  0  0  0  0  0  0  0
  129.7400  124.9870   61.1510 C   0  0  0  0  0  0  0  0  0  0  0  0
  130.9470  124.9960   62.0350 C   0  0  0  0  0  0  0  0  0  0  0  0
  130.9620  125.7220   63.2340 C   0  0  0  0  0  0  0  0  0  0  0  0
  132.0880  125.7280   64.0520 C   0  0  0  0  0  0  0  0  0  0  0  0
  133.2290  125.0100   63.6940 C   0  0  0  0  0  0  0  0  0  0  0  0
  134.2980  125.0730   64.5650 O   0  0  0  0  0  0  0  0  0  0  0  0
  134.0570  124.9960   65.9670 C   0  0  0  0  0  0  0  0  0  0  0  0
  133.2240  124.2790   62.4970 C   0  0  0  0  0  0  0  0  0  0  0  0
  132.0950  124.2750   61.6820 C   0  0  0  0  0  0  0  0  0  0  0  0
  128.8650  126.0750   61.0910 C   0  0  0  0  0  0  0  0  0  0  0  0
  127.7420  126.0410   60.2580 C   0  0  0  0  0  0  0  0  0  0  0  0
  126.8380  127.2140   60.2090 C   0  0  0  0  0  0  0  0  0  0  0  0
  126.5860  127.8570   58.9950 C   0  0  0  0  0  0  0  0  0  0  0  0
  125.7440  128.9640   58.9510 C   0  0  0  0  0  0  0  0  0  0  0  0
  125.1380  129.4410   60.1140 C   0  0  0  0  0  0  0  0  0  0  0  0
  124.3190  130.5450   59.9750 O   0  0  0  0  0  0  0  0  0  0  0  0
  124.0340  131.0380   58.6710 C   0  0  0  0  0  0  0  0  0  0  0  0
  125.3900  128.7900   61.3330 C   0  0  0  0  0  0  0  0  0  0  0  0
  126.2330  127.6840   61.3760 C   0  0  0  0  0  0  0  0  0  0  0  0
  127.5180  124.8700   59.4870 C   0  0  0  0  0  0  0  0  0  0  0  0
  126.4910  124.4980   58.5530 C   0  0  0  0  0  0  0  0  0  0  0  0
  125.4450  125.3280   58.2350 N   0  0  0  0  0  0  0  0  0  0  0  0
  1  2  1  0
  2  3  1  0
  3  4  2  0
  3  5  1  0
  5  6  1  0
  6  7  1  0
  7  8  2  0
  8  9  1  0
  9 10  1  0
 10 11  2  0
 11 12  1  0
 12 13  2  0
 13 14  1  0
 14 15  1  0
 13 16  1  0
 16 17  2  0
  9 18  2  0
 18 19  1  0
 19 20  1  0
 20 21  2  0
 21 22  1  0
 22 23  2  0
 23 24  1  0
 24 25  1  0
 23 26  1  0
 26 27  2  0
 19 28  2  0
 28 29  1  0
 29 30  1  0
 29  5  2  0
 28  7  1  0
 17 10  1  0
 27 20  1  0
M  END
>  <Binding energies>  (38) 
[-7.75]

>  <Ligand effiencies>  (38) 
[-0.2421875]

>  <Interactions>  (38) 
["V-B:ILE:538:CD1:9837, V-B:PRO:540:CB:9857, V-B:PRO:540:CD:9859, V-B:TYR:539:C:9839, V-B:PRO:540:CA:9855, H-B:TYR:539:N:9842, V-B:TYR:539:CE2:9848, V-B:TYR:539:CD2:9846, V-B:ILE:538:CA:9832, V-B:MET:535:CE:9807, H-B:ASP:366:OD2:8187, V-B:PRO:540:N:9856, V-A:GLY:453:C:4042, H-A:TYR:484:OH:4348, V-B:TYR:539:CG:9844, V-B:TYR:531:CZ:9766, V-A:GLY:454:CA:4049, V-A:TYR:539:CE1:4875, V-B:ASP:366:CG:8185, V-B:ASP:366:CB:8184, V-A:GLU:543:CD:4908, H-A:GLY:454:N:4050, H-A:ARG:545:NH1:4927, H-A:ARG:545:NH2:4928, V-A:ARG:545:CZ:4926, H-B:TYR:531:OH:9767, V-A:ILE:455:C:4052, V-A:TYR:484:CE2:4346, H-A:ARG:545:NE:4924, V-A:TYR:484:CZ:4347, V-A:ARG:545:CG:4922, V-A:ARG:545:CD:4923, V-B:ASP:366:CA:8182"]

$$$$
9a_Ghoteimi_2023
     RDKit          3D

 48 54  0  0  0  0  0  0  0  0999 V2000
  131.7480  132.7990   55.3250 C   0  0  0  0  0  0  0  0  0  0  0  0
  130.8200  132.3600   54.1870 C   0  0  0  0  0  0  0  0  0  0  0  0
  129.5630  133.0130   54.3230 O   0  0  0  0  0  0  0  0  0  0  0  0
  128.4320  132.3080   54.5800 C   0  0  0  0  0  0  0  0  0  0  0  0
  127.4790  132.2410   53.7960 O   0  0  0  0  0  0  0  0  0  0  0  0
  128.4490  131.6240   55.9160 C   0  0  0  0  0  0  0  0  0  0  0  0
  129.1360  132.2180   56.9820 C   0  0  0  0  0  0  0  0  0  0  0  0
  129.1720  131.6080   58.2320 C   0  0  0  0  0  0  0  0  0  0  0  0
  128.5210  130.3930   58.4440 C   0  0  0  0  0  0  0  0  0  0  0  0
  128.6250  129.8680   59.7470 N   0  0  0  0  0  0  0  0  0  0  0  0
  127.7150  129.8260   60.7530 C   0  0  0  0  0  0  0  0  0  0  0  0
  126.5720  130.2750   60.6700 O   0  0  0  0  0  0  0  0  0  0  0  0
  128.1780  129.1890   61.9890 C   0  0  0  0  0  0  0  0  0  0  0  0
  127.9830  130.0060   63.5400 S   0  0  0  0  0  0  0  0  0  0  0  0
  128.7170  128.6670   64.3900 C   0  0  0  0  0  0  0  0  0  0  0  0
  128.8520  128.6710   65.7150 N   0  0  0  0  0  0  0  0  0  0  0  0
  129.4260  127.5750   66.2800 C   0  0  0  0  0  0  0  0  0  0  0  0
  129.5580  127.5960   67.7680 C   0  0  0  0  0  0  0  0  0  0  0  0
  128.6320  126.9240   68.5750 C   0  0  0  0  0  0  0  0  0  0  0  0
  128.7490  126.9380   69.9620 C   0  0  0  0  0  0  0  0  0  0  0  0
  129.8040  127.6140   70.5950 C   0  0  0  0  0  0  0  0  0  0  0  0
  129.9230  127.6530   71.9880 N   0  0  0  0  0  0  0  0  0  0  0  0
  131.2020  127.3540   72.6620 C   0  0  0  0  0  0  0  0  0  0  0  0
  131.0620  127.0910   74.1760 C   0  0  0  0  0  0  0  0  0  0  0  0
  130.4000  128.1780   74.8000 O   0  0  0  0  0  0  0  0  0  0  0  0
  129.0980  128.3680   74.2680 C   0  0  0  0  0  0  0  0  0  0  0  0
  129.1850  128.6750   72.7590 C   0  0  0  0  0  0  0  0  0  0  0  0
  130.7200  128.2980   69.7830 C   0  0  0  0  0  0  0  0  0  0  0  0
  130.6010  128.2860   68.3960 C   0  0  0  0  0  0  0  0  0  0  0  0
  129.8840  126.4970   65.5190 C   0  0  0  0  0  0  0  0  0  0  0  0
  129.7610  126.4980   64.1250 C   0  0  0  0  0  0  0  0  0  0  0  0
  130.2980  125.3430   63.3610 C   0  0  0  0  0  0  0  0  0  0  0  0
  131.6600  125.2590   63.0610 C   0  0  0  0  0  0  0  0  0  0  0  0
  132.1630  124.1690   62.3570 C   0  0  0  0  0  0  0  0  0  0  0  0
  131.3190  123.1230   61.9490 C   0  0  0  0  0  0  0  0  0  0  0  0
  131.8000  122.0250   61.2320 N   0  0  0  0  0  0  0  0  0  0  0  0
  133.0670  122.1520   60.4840 C   0  0  0  0  0  0  0  0  0  0  0  0
  133.6670  120.7930   60.0650 C   0  0  0  0  0  0  0  0  0  0  0  0
  132.7140  120.0480   59.3230 O   0  0  0  0  0  0  0  0  0  0  0  0
  131.5420  119.7930   60.0810 C   0  0  0  0  0  0  0  0  0  0  0  0
  130.8850  121.1250   60.5010 C   0  0  0  0  0  0  0  0  0  0  0  0
  129.9550  123.2160   62.2580 C   0  0  0  0  0  0  0  0  0  0  0  0
  129.4510  124.3080   62.9580 C   0  0  0  0  0  0  0  0  0  0  0  0
  129.1310  127.6200   63.5150 C   0  0  0  0  0  0  0  0  0  0  0  0
  128.7880  127.9350   62.1500 C   0  0  0  0  0  0  0  0  0  0  0  0
  129.0290  127.0730   61.1110 N   0  0  0  0  0  0  0  0  0  0  0  0
  127.8270  129.7900   57.3840 C   0  0  0  0  0  0  0  0  0  0  0  0
  127.7930  130.4020   56.1330 C   0  0  0  0  0  0  0  0  0  0  0  0
  1  2  1  0
  2  3  1  0
  3  4  1  0
  4  5  2  0
  4  6  1  0
  6  7  2  0
  7  8  1  0
  8  9  2  0
  9 10  1  0
 10 11  1  0
 11 12  2  0
 11 13  1  0
 13 14  1  0
 14 15  1  0
 15 16  2  0
 16 17  1  0
 17 18  1  0
 18 19  2  0
 19 20  1  0
 20 21  2  0
 21 22  1  0
 22 23  1  0
 23 24  1  0
 24 25  1  0
 25 26  1  0
 26 27  1  0
 21 28  1  0
 28 29  2  0
 17 30  2  0
 30 31  1  0
 31 32  1  0
 32 33  2  0
 33 34  1  0
 34 35  2  0
 35 36  1  0
 36 37  1  0
 37 38  1  0
 38 39  1  0
 39 40  1  0
 40 41  1  0
 35 42  1  0
 42 43  2  0
 31 44  2  0
 44 45  1  0
 45 46  1  0
  9 47  1  0
 47 48  2  0
 48  6  1  0
 45 13  2  0
 44 15  1  0
 29 18  1  0
 43 32  1  0
 27 22  1  0
 41 36  1  0
M  END
>  <Binding energies>  (39) 
[-2.53]

>  <Ligand effiencies>  (39) 
[-0.0496078431372549]

>  <Interactions>  (39) 
["V-B:GLU:543:CD:9880, V-B:TYR:539:CE2:9848, V-B:TYR:539:CD2:9846, V-A:SER:385:CB:3409, V-A:LEU:475:CD2:4259, V-A:ILE:369:CD1:3239, V-A:ILE:369:CG2:3237, H-A:TYR:539:N:4870, V-A:TYR:539:CZ:4877, V-A:TYR:539:C:4867, V-A:PRO:540:N:4884, V-A:TYR:539:CE2:4876, H-B:LYS:534:NZ:9795, V-A:LEU:363:CD1:3189, V-A:GLU:543:CD:4908, H-A:GLU:543:OE1:4909, V-A:PRO:540:CD:4887, V-A:GLU:543:CG:4907, V-A:SER:385:C:3405, V-A:HIS:456:CE1:4070, V-A:ILE:538:CA:4860, V-A:ILE:538:CB:4862, V-A:TYR:484:CZ:4347, V-A:ILE:538:CG2:4863, H-A:TYR:539:OH:4878, V-A:GLU:543:C:4902, V-B:GLU:543:CB:9878, V-A:GLU:543:CB:4906, V-A:GLY:544:C:4912, V-A:HIS:456:CD2:4068, V-A:HIS:456:CG:4066, H-A:LYS:547:NZ:4951, V-A:HIS:456:CB:4065, V-A:GLY:544:CA:4914, V-B:HIS:456:CD2:9040, V-B:HIS:456:CE1:9042, V-A:TYR:539:CD2:4874, V-A:TYR:539:CG:4872, V-B:GLU:543:CG:9879, V-A:SER:385:CA:3407, V-A:GLU:543:CA:4904"]

$$$$
9b_Ghoteimi_2023
     RDKit          3D

 42 48  0  0  0  0  0  0  0  0999 V2000
  127.6850  129.1380   58.1290 N   0  0  0  0  0  0  0  0  0  0  0  0
  127.9220  129.8250   59.2930 C   0  0  0  0  0  0  0  0  0  0  0  0
  128.3170  131.1710   59.3290 C   0  0  0  0  0  0  0  0  0  0  0  0
  128.5280  132.0920   58.2090 C   0  0  0  0  0  0  0  0  0  0  0  0
  128.1220  133.2550   58.2670 O   0  0  0  0  0  0  0  0  0  0  0  0
  129.1790  131.5710   57.1400 N   0  0  0  0  0  0  0  0  0  0  0  0
  129.5000  132.2090   55.9490 C   0  0  0  0  0  0  0  0  0  0  0  0
  128.6640  132.2040   54.8340 C   0  0  0  0  0  0  0  0  0  0  0  0
  129.3330  132.9380   53.8810 C   0  0  0  0  0  0  0  0  0  0  0  0
  130.5110  133.3630   54.3980 O   0  0  0  0  0  0  0  0  0  0  0  0
  130.6050  132.8950   55.7080 N   0  0  0  0  0  0  0  0  0  0  0  0
  128.5620  131.7190   60.9870 S   0  0  0  0  0  0  0  0  0  0  0  0
  128.1520  130.1420   61.6170 C   0  0  0  0  0  0  0  0  0  0  0  0
  128.1800  129.8830   62.9230 N   0  0  0  0  0  0  0  0  0  0  0  0
  127.8620  128.6190   63.3090 C   0  0  0  0  0  0  0  0  0  0  0  0
  127.9210  128.3500   64.7770 C   0  0  0  0  0  0  0  0  0  0  0  0
  129.1250  128.0010   65.4010 C   0  0  0  0  0  0  0  0  0  0  0  0
  129.1710  127.7370   66.7670 C   0  0  0  0  0  0  0  0  0  0  0  0
  128.0130  127.7980   67.5560 C   0  0  0  0  0  0  0  0  0  0  0  0
  128.0450  127.5380   68.9310 N   0  0  0  0  0  0  0  0  0  0  0  0
  129.3020  127.6240   69.7010 C   0  0  0  0  0  0  0  0  0  0  0  0
  129.0960  127.6500   71.2300 C   0  0  0  0  0  0  0  0  0  0  0  0
  128.3280  126.5290   71.6350 O   0  0  0  0  0  0  0  0  0  0  0  0
  127.0470  126.5290   71.0280 C   0  0  0  0  0  0  0  0  0  0  0  0
  127.1870  126.4720   69.4910 C   0  0  0  0  0  0  0  0  0  0  0  0
  126.8140  128.1670   66.9300 C   0  0  0  0  0  0  0  0  0  0  0  0
  126.7680  128.4350   65.5650 C   0  0  0  0  0  0  0  0  0  0  0  0
  127.4920  127.6300   62.3930 C   0  0  0  0  0  0  0  0  0  0  0  0
  127.4410  127.9040   61.0210 C   0  0  0  0  0  0  0  0  0  0  0  0
  127.0130  126.8270   60.0920 C   0  0  0  0  0  0  0  0  0  0  0  0
  126.1250  127.1060   59.0520 C   0  0  0  0  0  0  0  0  0  0  0  0
  125.7370  126.1040   58.1690 C   0  0  0  0  0  0  0  0  0  0  0  0
  126.2250  124.7940   58.3020 C   0  0  0  0  0  0  0  0  0  0  0  0
  125.8610  123.7770   57.4160 N   0  0  0  0  0  0  0  0  0  0  0  0
  126.9070  123.0940   56.6300 C   0  0  0  0  0  0  0  0  0  0  0  0
  126.3450  122.2990   55.4320 C   0  0  0  0  0  0  0  0  0  0  0  0
  125.3690  121.3710   55.8810 O   0  0  0  0  0  0  0  0  0  0  0  0
  124.2830  122.0200   56.5250 C   0  0  0  0  0  0  0  0  0  0  0  0
  124.7920  122.8130   57.7480 C   0  0  0  0  0  0  0  0  0  0  0  0
  127.1310  124.5310   59.3390 C   0  0  0  0  0  0  0  0  0  0  0  0
  127.5200  125.5340   60.2240 C   0  0  0  0  0  0  0  0  0  0  0  0
  127.8050  129.2120   60.5920 C   0  0  0  0  0  0  0  0  0  0  0  0
  1  2  1  0
  2  3  2  0
  3  4  1  0
  4  5  2  0
  4  6  1  0
  6  7  1  0
  7  8  1  0
  8  9  2  0
  9 10  1  0
 10 11  1  0
  3 12  1  0
 12 13  1  0
 13 14  2  0
 14 15  1  0
 15 16  1  0
 16 17  2  0
 17 18  1  0
 18 19  2  0
 19 20  1  0
 20 21  1  0
 21 22  1  0
 22 23  1  0
 23 24  1  0
 24 25  1  0
 19 26  1  0
 26 27  2  0
 15 28  2  0
 28 29  1  0
 29 30  1  0
 30 31  2  0
 31 32  1  0
 32 33  2  0
 33 34  1  0
 34 35  1  0
 35 36  1  0
 36 37  1  0
 37 38  1  0
 38 39  1  0
 33 40  1  0
 40 41  2  0
 29 42  2  0
 42  2  1  0
 11  7  2  0
 42 13  1  0
 27 16  1  0
 41 30  1  0
 25 20  1  0
 39 34  1  0
M  END
>  <Binding energies>  (40) 
[-5.29]

>  <Ligand effiencies>  (40) 
[-0.11755555555555555]

>  <Interactions>  (40) 
["V-B:ILE:538:CD1:9837, V-B:PRO:540:CB:9857, V-B:PRO:540:CD:9859, V-B:LEU:363:CD1:8161, V-B:GLU:543:CD:9880, V-B:PRO:540:CA:9855, H-B:TYR:539:N:9842, V-B:ILE:538:CG2:9835, V-B:ILE:538:CA:9832, V-B:PRO:540:N:9856, V-B:TYR:531:CZ:9766, H-A:TYR:539:N:4870, V-B:ASP:366:CG:8185, V-A:TYR:539:CZ:4877, V-A:TYR:539:C:4867, V-B:ASP:366:CB:8184, V-A:TYR:539:CE2:4876, V-B:ILE:538:C:9830, V-B:ILE:538:CB:9834, V-A:GLU:543:CD:4908, V-A:GLU:543:CG:4907, V-A:HIS:456:CE1:4070, V-A:ILE:538:CA:4860, V-A:ILE:538:CB:4862, V-A:ILE:538:CG2:4863, V-B:GLU:543:CB:9878, V-A:GLU:543:CB:4906, V-A:HIS:456:CD2:4068, V-B:HIS:456:CD2:9040, V-B:HIS:456:CE1:9042, V-B:PRO:540:CG:9858, V-A:ILE:538:C:4858, V-A:TYR:539:CD2:4874, V-A:TYR:539:CD1:4873, H-B:LYS:547:NZ:9923, V-B:GLU:543:C:9874, V-B:GLY:544:C:9884, V-B:ARG:545:CA:9891"]

$$$$
9c_Ghoteimi_2023
     RDKit          3D

 42 48  0  0  0  0  0  0  0  0999 V2000
  128.9710  127.3060   61.6670 N   0  0  0  0  0  0  0  0  0  0  0  0
  129.6740  126.7980   62.7290 C   0  0  0  0  0  0  0  0  0  0  0  0
  130.6910  125.8400   62.5960 C   0  0  0  0  0  0  0  0  0  0  0  0
  131.2100  125.2240   61.3710 C   0  0  0  0  0  0  0  0  0  0  0  0
  131.3550  124.0020   61.2920 O   0  0  0  0  0  0  0  0  0  0  0  0
  131.5140  126.0860   60.3700 N   0  0  0  0  0  0  0  0  0  0  0  0
  132.0310  125.7660   59.1220 C   0  0  0  0  0  0  0  0  0  0  0  0
  131.7290  126.3040   57.9600 N   0  0  0  0  0  0  0  0  0  0  0  0
  132.4130  125.7500   56.9770 C   0  0  0  0  0  0  0  0  0  0  0  0
  133.2950  124.7350   57.3370 C   0  0  0  0  0  0  0  0  0  0  0  0
  133.2170  124.5030   59.0580 S   0  0  0  0  0  0  0  0  0  0  0  0
  131.3570  125.3940   64.1660 S   0  0  0  0  0  0  0  0  0  0  0  0
  130.2600  126.4760   64.9900 C   0  0  0  0  0  0  0  0  0  0  0  0
  130.2500  126.5830   66.3180 N   0  0  0  0  0  0  0  0  0  0  0  0
  129.3460  127.4390   66.8610 C   0  0  0  0  0  0  0  0  0  0  0  0
  129.3420  127.5240   68.3530 C   0  0  0  0  0  0  0  0  0  0  0  0
  130.2440  128.3490   69.0340 C   0  0  0  0  0  0  0  0  0  0  0  0
  130.2430  128.4170   70.4240 C   0  0  0  0  0  0  0  0  0  0  0  0
  129.3460  127.6510   71.1860 C   0  0  0  0  0  0  0  0  0  0  0  0
  129.3270  127.7130   72.5840 N   0  0  0  0  0  0  0  0  0  0  0  0
  130.1620  126.8130   73.4050 C   0  0  0  0  0  0  0  0  0  0  0  0
  130.2830  127.2480   74.8810 C   0  0  0  0  0  0  0  0  0  0  0  0
  128.9910  127.3990   75.4480 O   0  0  0  0  0  0  0  0  0  0  0  0
  128.2380  128.3890   74.7660 C   0  0  0  0  0  0  0  0  0  0  0  0
  128.0570  127.9930   73.2850 C   0  0  0  0  0  0  0  0  0  0  0  0
  128.4320  126.8410   70.4970 C   0  0  0  0  0  0  0  0  0  0  0  0
  128.4310  126.7760   69.1060 C   0  0  0  0  0  0  0  0  0  0  0  0
  128.4780  128.2040   66.0770 C   0  0  0  0  0  0  0  0  0  0  0  0
  128.5000  128.1110   64.6810 C   0  0  0  0  0  0  0  0  0  0  0  0
  127.5800  128.9680   63.8920 C   0  0  0  0  0  0  0  0  0  0  0  0
  126.2430  129.1010   64.2700 C   0  0  0  0  0  0  0  0  0  0  0  0
  125.3810  129.9170   63.5420 C   0  0  0  0  0  0  0  0  0  0  0  0
  125.8340  130.6190   62.4150 C   0  0  0  0  0  0  0  0  0  0  0  0
  124.9890  131.4530   61.6760 N   0  0  0  0  0  0  0  0  0  0  0  0
  124.7340  132.8260   62.1540 C   0  0  0  0  0  0  0  0  0  0  0  0
  123.5090  133.4870   61.4850 C   0  0  0  0  0  0  0  0  0  0  0  0
  123.6570  133.4660   60.0730 O   0  0  0  0  0  0  0  0  0  0  0  0
  123.7680  132.1410   59.5770 C   0  0  0  0  0  0  0  0  0  0  0  0
  124.9970  131.4430   60.2000 C   0  0  0  0  0  0  0  0  0  0  0  0
  127.1840  130.4940   62.0560 C   0  0  0  0  0  0  0  0  0  0  0  0
  128.0460  129.6780   62.7840 C   0  0  0  0  0  0  0  0  0  0  0  0
  129.4150  127.1930   64.0910 C   0  0  0  0  0  0  0  0  0  0  0  0
  1  2  1  0
  2  3  2  0
  3  4  1  0
  4  5  2  0
  4  6  1  0
  6  7  1  0
  7  8  2  0
  8  9  1  0
  9 10  2  0
 10 11  1  0
  3 12  1  0
 12 13  1  0
 13 14  2  0
 14 15  1  0
 15 16  1  0
 16 17  2  0
 17 18  1  0
 18 19  2  0
 19 20  1  0
 20 21  1  0
 21 22  1  0
 22 23  1  0
 23 24  1  0
 24 25  1  0
 19 26  1  0
 26 27  2  0
 15 28  2  0
 28 29  1  0
 29 30  1  0
 30 31  2  0
 31 32  1  0
 32 33  2  0
 33 34  1  0
 34 35  1  0
 35 36  1  0
 36 37  1  0
 37 38  1  0
 38 39  1  0
 33 40  1  0
 40 41  2  0
 29 42  2  0
 42  2  1  0
 11  7  1  0
 42 13  1  0
 27 16  1  0
 41 30  1  0
 25 20  1  0
 39 34  1  0
M  END
>  <Binding energies>  (41) 
[-3.26]

>  <Ligand effiencies>  (41) 
[-0.07244444444444444]

>  <Interactions>  (41) 
["V-B:GLU:543:CD:9880, V-B:TYR:539:CE2:9848, V-B:TYR:539:CZ:9849, H-A:TYR:484:OH:4348, V-A:ASP:366:CA:3210, V-A:ASP:366:CG:3213, V-A:ASP:366:C:3208, V-A:ASP:366:CB:3212, V-A:ILE:369:CG2:3237, V-A:TYR:539:CE1:4875, V-A:GLU:543:CD:4908, H-A:GLU:543:OE1:4909, H-A:ASP:366:OD1:3214, V-A:GLU:543:CG:4907, V-A:HIS:456:CE1:4070, V-A:TYR:484:CE2:4346, V-A:TYR:484:CZ:4347, V-B:LEU:475:CD2:9231, V-A:GLU:543:C:4902, V-B:GLU:543:CB:9878, V-A:GLU:543:CB:4906, V-A:GLY:544:C:4912, V-A:HIS:456:CD2:4068, V-A:GLY:544:CA:4914, V-B:HIS:456:CD2:9040, V-B:HIS:456:CE1:9042, V-B:ILE:369:CD1:8211, H-B:LYS:547:NZ:9923, V-B:ILE:369:CG2:8209, V-B:ILE:369:CB:8208, V-B:HIS:456:CG:9038, V-B:SER:385:C:8377"]

$$$$
RR11_Rahimova_2017
     RDKit          3D

 33 38  0  0  0  0  0  0  0  0999 V2000
  133.9780  123.8460   56.8160 N   0  0  0  0  0  0  0  0  0  0  0  0
  133.2210  124.9830   57.0960 C   0  0  0  0  0  0  0  0  0  0  0  0
  132.7710  125.2130   58.3950 C   0  0  0  0  0  0  0  0  0  0  0  0
  132.0180  126.3500   58.6740 C   0  0  0  0  0  0  0  0  0  0  0  0
  131.7080  127.2660   57.6600 C   0  0  0  0  0  0  0  0  0  0  0  0
  130.9010  128.4930   57.9640 C   0  0  0  0  0  0  0  0  0  0  0  0
  130.0640  128.6010   58.9730 N   0  0  0  0  0  0  0  0  0  0  0  0
  129.5580  129.8720   58.8890 C   0  0  0  0  0  0  0  0  0  0  0  0
  128.6300  130.5120   59.7210 C   0  0  0  0  0  0  0  0  0  0  0  0
  128.2810  131.8370   59.4330 C   0  0  0  0  0  0  0  0  0  0  0  0
  127.2710  132.5570   60.3160 C   0  0  0  0  0  0  0  0  0  0  0  0
  126.8150  131.7190   61.5020 C   0  0  0  0  0  0  0  0  0  0  0  0
  125.4510  131.4670   61.6840 C   0  0  0  0  0  0  0  0  0  0  0  0
  124.9850  130.6970   62.7510 C   0  0  0  0  0  0  0  0  0  0  0  0
  125.9260  130.1680   63.6450 C   0  0  0  0  0  0  0  0  0  0  0  0
  125.7270  129.3970   64.7600 N   0  0  0  0  0  0  0  0  0  0  0  0
  126.9290  129.1730   65.2460 C   0  0  0  0  0  0  0  0  0  0  0  0
  127.2070  128.3770   66.4890 C   0  0  0  0  0  0  0  0  0  0  0  0
  128.4800  128.3910   67.0720 C   0  0  0  0  0  0  0  0  0  0  0  0
  128.7410  127.6440   68.2180 C   0  0  0  0  0  0  0  0  0  0  0  0
  127.7290  126.8770   68.7900 C   0  0  0  0  0  0  0  0  0  0  0  0
  127.9900  126.1260   69.9350 N   0  0  0  0  0  0  0  0  0  0  0  0
  126.4570  126.8570   68.2240 C   0  0  0  0  0  0  0  0  0  0  0  0
  126.1970  127.6040   67.0780 C   0  0  0  0  0  0  0  0  0  0  0  0
  127.9130  129.7650   64.4840 N   0  0  0  0  0  0  0  0  0  0  0  0
  127.3030  130.4210   63.4410 C   0  0  0  0  0  0  0  0  0  0  0  0
  127.7760  131.1860   62.3720 C   0  0  0  0  0  0  0  0  0  0  0  0
  128.8280  132.4940   58.3250 C   0  0  0  0  0  0  0  0  0  0  0  0
  129.7510  131.8820   57.4740 C   0  0  0  0  0  0  0  0  0  0  0  0
  130.1030  130.5650   57.7820 C   0  0  0  0  0  0  0  0  0  0  0  0
  130.9560  129.6490   57.2130 N   0  0  0  0  0  0  0  0  0  0  0  0
  132.1660  127.0200   56.3580 C   0  0  0  0  0  0  0  0  0  0  0  0
  132.9200  125.8840   56.0760 C   0  0  0  0  0  0  0  0  0  0  0  0
  1  2  1  0
  2  3  2  0
  3  4  1  0
  4  5  2  0
  5  6  1  0
  6  7  2  0
  7  8  1  0
  8  9  2  0
  9 10  1  0
 10 11  1  0
 11 12  1  0
 12 13  2  0
 13 14  1  0
 14 15  2  0
 15 16  1  0
 16 17  2  0
 17 18  1  0
 18 19  2  0
 19 20  1  0
 20 21  2  0
 21 22  1  0
 21 23  1  0
 23 24  2  0
 17 25  1  0
 25 26  1  0
 26 27  2  0
 10 28  2  0
 28 29  1  0
 29 30  2  0
 30 31  1  0
  5 32  1  0
 32 33  2  0
 33  2  1  0
 31  6  1  0
 30  8  1  0
 27 12  1  0
 26 15  1  0
 24 18  1  0
M  END
>  <Binding energies>  (42) 
[-7.02]

>  <Ligand effiencies>  (42) 
[-0.18]

>  <Interactions>  (42) 
["V-B:GLU:543:CD:9880, V-B:TYR:539:CE2:9848, V-B:TYR:539:CZ:9849, V-A:ASP:366:CA:3210, V-A:ASP:366:CG:3213, V-A:ASP:366:C:3208, V-A:ASP:366:CB:3212, V-A:ILE:369:CB:3236, V-A:ILE:369:CG2:3237, V-A:TYR:531:CZ:4794, V-A:PRO:540:CA:4883, V-A:TYR:539:C:4867, V-A:PRO:540:N:4884, V-A:TYR:531:CE1:4792, V-A:ASN:370:CB:3245, V-A:GLU:543:CD:4908, H-A:GLU:543:OE1:4909, H-A:GLU:543:OE2:4910, V-A:GLU:543:CG:4907, H-B:TYR:539:OH:9850, V-A:HIS:456:CE1:4070, H-A:TYR:531:OH:4795, V-B:GLU:543:CB:9878, V-A:GLU:543:CB:4906, V-A:HIS:456:CD2:4068, V-B:TYR:484:CZ:9319, V-B:HIS:456:CE1:9042, V-B:ARG:545:CD:9895, V-B:ARG:545:CG:9894, V-A:TYR:539:CD1:4873, H-A:HIS:456:NE2:4071, H-B:TYR:484:OH:9320, V-B:GLU:543:C:9874, H-B:HIS:456:NE2:9043, H-A:ASP:366:O:3209, H-B:GLU:543:O:9875, V-B:GLY:544:C:9884, V-B:ARG:545:CA:9891, V-A:ASN:370:CA:3243, H-B:GLY:544:O:9885, V-A:ILE:369:CA:3234, V-A:ILE:369:C:3232"]

$$$$
RR16_Rahimova_2017
     RDKit          3D

 44 49  0  0  0  0  0  0  0  0999 V2000
  131.9490  131.6090   53.8620 O   0  0  0  0  0  0  0  0  0  0  0  0
  131.6280  132.1400   55.1920 S   0  0  0  0  0  0  0  0  0  0  0  0
  131.7070  133.5800   55.4660 O   0  0  0  0  0  0  0  0  0  0  0  0
  132.6500  131.3020   56.3610 N   0  0  0  0  0  0  0  0  0  0  0  0
  132.6420  131.6860   57.7920 C   0  0  0  0  0  0  0  0  0  0  0  0
  131.2480  131.3740   58.3950 C   0  0  0  0  0  0  0  0  0  0  0  0
  131.0260  131.7220   59.8800 C   0  0  0  0  0  0  0  0  0  0  0  0
  132.0670  131.1020   60.8290 C   0  0  0  0  0  0  0  0  0  0  0  0
  133.4080  131.8510   60.9330 C   0  0  0  0  0  0  0  0  0  0  0  0
  134.3710  131.7410   59.7340 C   0  0  0  0  0  0  0  0  0  0  0  0
  133.8420  131.0030   58.4890 C   0  0  0  0  0  0  0  0  0  0  0  0
  129.9690  131.5960   55.5800 C   0  0  0  0  0  0  0  0  0  0  0  0
  129.2430  132.2180   56.5990 C   0  0  0  0  0  0  0  0  0  0  0  0
  128.0040  131.7070   56.9730 C   0  0  0  0  0  0  0  0  0  0  0  0
  127.4950  130.5780   56.3270 C   0  0  0  0  0  0  0  0  0  0  0  0
  125.9690  129.8350   56.9000 S   0  0  0  0  0  0  0  0  0  0  0  0
  125.2410  129.3580   55.7160 O   0  0  0  0  0  0  0  0  0  0  0  0
  125.3370  130.7850   57.8250 O   0  0  0  0  0  0  0  0  0  0  0  0
  126.4980  128.4230   57.8350 N   0  0  0  0  0  0  0  0  0  0  0  0
  125.5080  127.9390   58.8320 C   0  0  0  0  0  0  0  0  0  0  0  0
  126.1630  126.9290   59.7960 C   0  0  0  0  0  0  0  0  0  0  0  0
  126.8650  125.7790   59.0330 C   0  0  0  0  0  0  0  0  0  0  0  0
  127.5610  124.7900   59.9720 C   0  0  0  0  0  0  0  0  0  0  0  0
  126.8250  124.1510   60.9800 C   0  0  0  0  0  0  0  0  0  0  0  0
  127.4180  123.2370   61.8520 C   0  0  0  0  0  0  0  0  0  0  0  0
  126.6810  122.6190   62.8300 O   0  0  0  0  0  0  0  0  0  0  0  0
  128.7850  122.9630   61.6970 C   0  0  0  0  0  0  0  0  0  0  0  0
  129.6130  122.1180   62.3770 N   0  0  0  0  0  0  0  0  0  0  0  0
  130.8610  122.2070   61.8000 N   0  0  0  0  0  0  0  0  0  0  0  0
  130.8090  123.1220   60.8130 N   0  0  0  0  0  0  0  0  0  0  0  0
  131.9750  123.3590   59.9710 C   0  0  0  0  0  0  0  0  0  0  0  0
  131.9100  124.6920   59.2390 C   0  0  0  0  0  0  0  0  0  0  0  0
  132.3260  124.7810   57.9070 C   0  0  0  0  0  0  0  0  0  0  0  0
  132.2460  125.9970   57.2260 C   0  0  0  0  0  0  0  0  0  0  0  0
  131.7490  127.1290   57.8740 C   0  0  0  0  0  0  0  0  0  0  0  0
  131.3300  127.0450   59.2020 C   0  0  0  0  0  0  0  0  0  0  0  0
  130.7040  128.4400   60.0020 Cl  0  0  0  0  0  0  0  0  0  0  0  0
  131.4130  125.8290   59.8840 C   0  0  0  0  0  0  0  0  0  0  0  0
  129.5230  123.6180   60.6820 C   0  0  0  0  0  0  0  0  0  0  0  0
  128.9310  124.5370   59.8100 C   0  0  0  0  0  0  0  0  0  0  0  0
  127.7990  126.3010   57.9110 C   0  0  0  0  0  0  0  0  0  0  0  0
  127.0960  127.3390   57.0130 C   0  0  0  0  0  0  0  0  0  0  0  0
  128.2030  129.9830   55.2800 C   0  0  0  0  0  0  0  0  0  0  0  0
  129.4430  130.4910   54.9090 C   0  0  0  0  0  0  0  0  0  0  0  0
  1  2  2  0
  2  3  2  0
  2  4  1  0
  4  5  1  0
  5  6  1  0
  6  7  1  0
  7  8  1  0
  8  9  1  0
  9 10  1  0
 10 11  1  0
  2 12  1  0
 12 13  2  0
 13 14  1  0
 14 15  2  0
 15 16  1  0
 16 17  2  0
 16 18  2  0
 16 19  1  0
 19 20  1  0
 20 21  1  0
 21 22  1  0
 22 23  1  0
 23 24  2  0
 24 25  1  0
 25 26  1  0
 25 27  2  0
 27 28  1  0
 28 29  2  0
 29 30  1  0
 30 31  1  0
 31 32  1  0
 32 33  2  0
 33 34  1  0
 34 35  2  0
 35 36  1  0
 36 37  1  0
 36 38  2  0
 30 39  1  0
 39 40  2  0
 22 41  1  0
 41 42  1  0
 15 43  1  0
 43 44  2  0
 11  5  1  0
 44 12  1  0
 42 19  1  0
 40 23  1  0
 39 27  1  0
 38 32  1  0
M  END
>  <Binding energies>  (43) 
[-10.33]

>  <Ligand effiencies>  (43) 
[-0.21520833333333333]

>  <Interactions>  (43) 
["V-B:GLU:543:CD:9880, V-B:PRO:540:CA:9855, H-B:GLU:543:OE1:9881, V-B:TYR:539:CE2:9848, V-B:MET:535:CE:9807, V-B:TYR:539:CZ:9849, H-A:TYR:484:OH:4348, V-A:ASP:366:CG:3213, V-A:ASP:366:CB:3212, V-A:TYR:539:CE1:4875, H-A:TYR:539:N:4870, V-B:ASP:366:CG:8185, V-A:TYR:539:CZ:4877, V-A:TYR:531:CE2:4793, V-A:PRO:540:CA:4883, V-A:TYR:539:C:4867, V-A:PRO:540:CB:4885, V-B:ASP:366:CB:8184, H-B:LYS:534:NZ:9795, V-A:LEU:363:CD1:3189, H-B:ALA:541:N:9863, V-A:LEU:363:CA:3185, H-B:TYR:531:OH:9767, V-A:ILE:538:CB:4862, V-A:ILE:538:CG2:4863, H-A:TYR:531:OH:4795, H-A:TYR:539:OH:4878, V-A:PRO:540:C:4881, V-A:PRO:540:CG:4886, V-A:TYR:539:CD1:4873, V-A:ASN:362:CB:3176, V-A:ASN:362:C:3172, V-A:ASN:362:CA:3174, H-B:ALA:541:O:9861, V-A:LEU:363:CB:3187"]

$$$$
RR18_Rahimova_2017
     RDKit          3D

 36 41  0  0  0  0  0  0  0  0999 V2000
  126.1220  124.0080   60.9280 C   0  0  0  0  0  0  0  0  0  0  0  0
  127.2380  123.9600   59.9150 C   0  0  0  0  0  0  0  0  0  0  0  0
  127.7780  122.9620   59.1200 C   0  0  0  0  0  0  0  0  0  0  0  0
  128.8080  123.5470   58.3830 C   0  0  0  0  0  0  0  0  0  0  0  0
  128.8590  124.8810   58.7550 C   0  0  0  0  0  0  0  0  0  0  0  0
  129.7300  126.0630   58.3360 C   0  0  1  0  0  0  0  0  0  0  0  0
  130.9650  125.5980   57.5070 C   0  0  0  0  0  0  0  0  0  0  0  0
  131.9960  124.7660   58.1200 C   0  0  0  0  0  0  0  0  0  0  0  0
  133.0990  124.6050   57.5940 O   0  0  0  0  0  0  0  0  0  0  0  0
  131.6340  124.2170   59.3030 N   0  0  0  0  0  0  0  0  0  0  0  0
  132.3460  123.3540   60.1640 C   0  0  0  0  0  0  0  0  0  0  0  0
  132.6790  122.0280   59.8320 C   0  0  0  0  0  0  0  0  0  0  0  0
  133.3780  121.2250   60.7310 C   0  0  0  0  0  0  0  0  0  0  0  0
  133.7490  121.7280   61.9740 C   0  0  0  0  0  0  0  0  0  0  0  0
  133.4160  123.0360   62.3220 C   0  0  0  0  0  0  0  0  0  0  0  0
  132.7160  123.8540   61.4290 C   0  0  0  0  0  0  0  0  0  0  0  0
  132.3720  125.2760   61.8600 C   0  0  0  0  0  0  0  0  0  0  0  0
  131.0040  125.8970   56.1820 C   0  0  0  0  0  0  0  0  0  0  0  0
  130.0980  126.6810   55.5350 N   0  0  0  0  0  0  0  0  0  0  0  0
  129.1720  127.2600   56.2070 C   0  0  0  0  0  0  0  0  0  0  0  0
  128.0340  128.4080   55.5430 S   0  0  0  0  0  0  0  0  0  0  0  0
  127.2580  128.6430   57.1400 C   0  0  0  0  0  0  0  0  0  0  0  0
  126.1980  129.4730   57.4370 C   0  0  0  0  0  0  0  0  0  0  0  0
  125.6320  130.3520   56.4040 C   0  0  0  0  0  0  0  0  0  0  0  0
  125.9370  130.4800   55.2190 O   0  0  0  0  0  0  0  0  0  0  0  0
  124.6660  131.0740   56.9810 N   0  0  0  0  0  0  0  0  0  0  0  0
  124.4810  130.7620   58.2930 C   0  0  0  0  0  0  0  0  0  0  0  0
  123.5540  131.3090   59.1800 C   0  0  0  0  0  0  0  0  0  0  0  0
  123.5050  130.8260   60.4840 C   0  0  0  0  0  0  0  0  0  0  0  0
  124.3700  129.8050   60.8750 C   0  0  0  0  0  0  0  0  0  0  0  0
  125.2910  129.2740   59.9680 C   0  0  0  0  0  0  0  0  0  0  0  0
  125.3720  129.7650   58.6510 C   0  0  0  0  0  0  0  0  0  0  0  0
  127.9580  127.8010   58.1110 C   0  0  0  0  0  0  0  0  0  0  0  0
  127.7380  127.7390   59.3160 O   0  0  0  0  0  0  0  0  0  0  0  0
  128.9450  127.0650   57.5310 N   0  0  0  0  0  0  0  0  0  0  0  0
  127.9010  125.1240   59.6880 O   0  0  0  0  0  0  0  0  0  0  0  0
  1  2  1  0
  2  3  2  0
  3  4  1  0
  4  5  2  0
  6  5  1  6
  6  7  1  0
  7  8  1  0
  8  9  2  0
  8 10  1  0
 10 11  1  0
 11 12  2  0
 12 13  1  0
 13 14  2  0
 14 15  1  0
 15 16  2  0
 16 17  1  0
  7 18  2  0
 18 19  1  0
 19 20  2  0
 20 21  1  0
 21 22  1  0
 22 23  2  0
 23 24  1  0
 24 25  2  0
 24 26  1  0
 26 27  1  0
 27 28  2  0
 28 29  1  0
 29 30  2  0
 30 31  1  0
 31 32  2  0
 22 33  1  0
 33 34  2  0
 33 35  1  0
  5 36  1  0
 36  2  1  0
 35  6  1  0
 16 11  1  0
 35 20  1  0
 32 23  1  0
 32 27  1  0
M  END
>  <Binding energies>  (44) 
[-8.29]

>  <Ligand effiencies>  (44) 
[-0.21815789473684208]

>  <Interactions>  (44) 
["V-B:TYR:539:C:9839, V-B:PRO:540:CA:9855, V-B:TYR:539:CE2:9848, V-B:TYR:539:CD2:9846, V-B:MET:535:CE:9807, V-B:TYR:539:CZ:9849, V-B:PRO:540:N:9856, V-A:ASP:366:CG:3213, V-A:LEU:475:CD2:4259, V-A:ILE:369:CD1:3239, V-A:GLY:454:CA:4049, V-A:ILE:369:CG2:3237, V-A:TYR:539:CE1:4875, V-B:TYR:531:CE1:9764, V-B:ASP:366:CG:8185, V-A:TYR:539:CZ:4877, V-B:ASP:366:CB:8184, H-B:LYS:534:NZ:9795, H-B:TYR:539:OH:9850, H-A:TYR:539:OH:4878, V-B:ILE:369:CD1:8211, H-B:ASP:366:O:8181, V-B:ASP:366:CA:8182, V-B:ILE:369:CG2:8209, V-B:ILE:369:CB:8208"]

$$$$
RR20_Rahimova_2017
     RDKit          3D

 38 43  0  0  0  0  0  0  0  0999 V2000
  132.8820  131.2760   57.3140 C   0  0  0  0  0  0  0  0  0  0  0  0
  131.4240  131.2880   56.8930 C   0  0  0  0  0  0  0  0  0  0  0  0
  130.7710  132.5030   56.6840 C   0  0  0  0  0  0  0  0  0  0  0  0
  129.4360  132.5160   56.2890 C   0  0  0  0  0  0  0  0  0  0  0  0
  128.7390  131.3150   56.1130 C   0  0  0  0  0  0  0  0  0  0  0  0
  127.2950  131.3500   55.6640 C   0  0  0  0  0  0  0  0  0  0  0  0
  127.0670  131.6810   54.4980 O   0  0  0  0  0  0  0  0  0  0  0  0
  126.3110  131.0070   56.5470 N   0  0  0  0  0  0  0  0  0  0  0  0
  125.0300  130.4410   56.0920 C   0  0  0  0  0  0  0  0  0  0  0  0
  124.2670  130.0480   57.3460 C   0  0  0  0  0  0  0  0  0  0  0  0
  125.3280  130.0730   58.4040 C   0  0  0  0  0  0  0  0  0  0  0  0
  125.2360  129.7140   59.7490 C   0  0  0  0  0  0  0  0  0  0  0  0
  126.2990  129.9620   60.6280 C   0  0  0  0  0  0  0  0  0  0  0  0
  126.2040  129.5680   62.0750 C   0  0  0  0  0  0  0  0  0  0  0  0
  127.2800  129.0680   62.6620 N   0  0  0  0  0  0  0  0  0  0  0  0
  127.0900  128.7790   63.9250 C   0  0  0  0  0  0  0  0  0  0  0  0
  128.0000  128.2490   64.8260 N   0  0  0  0  0  0  0  0  0  0  0  0
  128.3770  128.7840   66.0130 C   0  0  0  0  0  0  0  0  0  0  0  0
  127.9270  129.8380   66.4680 O   0  0  0  0  0  0  0  0  0  0  0  0
  129.4160  128.0130   66.8610 C   0  0  0  0  0  0  0  0  0  0  0  0
  129.0100  127.8590   68.2700 N   0  0  0  0  0  0  0  0  0  0  0  0
  128.4280  126.5370   68.5460 C   0  0  0  0  0  0  0  0  0  0  0  0
  127.7820  126.5220   69.9490 C   0  0  0  0  0  0  0  0  0  0  0  0
  128.6720  127.1470   71.0240 C   0  0  0  0  0  0  0  0  0  0  0  0
  128.3810  126.9870   72.3830 C   0  0  0  0  0  0  0  0  0  0  0  0
  129.1700  127.5890   73.3610 C   0  0  0  0  0  0  0  0  0  0  0  0
  130.2660  128.3600   72.9880 C   0  0  0  0  0  0  0  0  0  0  0  0
  130.5720  128.5210   71.6380 C   0  0  0  0  0  0  0  0  0  0  0  0
  129.7870  127.9230   70.6450 C   0  0  0  0  0  0  0  0  0  0  0  0
  130.1560  128.0510   69.1670 C   0  0  0  0  0  0  0  0  0  0  0  0
  125.5010  129.1070   64.4980 S   0  0  0  0  0  0  0  0  0  0  0  0
  125.0640  129.6700   62.9010 C   0  0  0  0  0  0  0  0  0  0  0  0
  123.6520  130.1280   62.6100 C   0  0  0  0  0  0  0  0  0  0  0  0
  127.4320  130.6280   60.1360 C   0  0  0  0  0  0  0  0  0  0  0  0
  127.5190  131.0050   58.7960 C   0  0  0  0  0  0  0  0  0  0  0  0
  126.4850  130.6750   57.9090 C   0  0  0  0  0  0  0  0  0  0  0  0
  129.4090  130.0990   56.2970 C   0  0  0  0  0  0  0  0  0  0  0  0
  130.7450  130.0850   56.6910 C   0  0  0  0  0  0  0  0  0  0  0  0
  1  2  1  0
  2  3  2  0
  3  4  1  0
  4  5  2  0
  5  6  1  0
  6  7  2  0
  6  8  1  0
  8  9  1  0
  9 10  1  0
 10 11  1  0
 11 12  2  0
 12 13  1  0
 13 14  1  0
 14 15  1  0
 15 16  2  0
 16 17  1  0
 17 18  1  0
 18 19  2  0
 18 20  1  0
 20 21  1  0
 21 22  1  0
 22 23  1  0
 23 24  1  0
 24 25  2  0
 25 26  1  0
 26 27  2  0
 27 28  1  0
 28 29  2  0
 29 30  1  0
 16 31  1  0
 31 32  1  0
 32 33  1  0
 13 34  2  0
 34 35  1  0
 35 36  2  0
  5 37  1  0
 37 38  2  0
 38  2  1  0
 36  8  1  0
 36 11  1  0
 32 14  2  0
 30 21  1  0
 29 24  1  0
M  END
>  <Binding energies>  (45) 
[-9.99]

>  <Ligand effiencies>  (45) 
[-0.2561538461538462]

>  <Interactions>  (45) 
["V-B:GLU:543:CD:9880, H-B:GLU:543:OE2:9882, H-B:GLU:543:OE1:9881, V-A:TYR:539:CE1:4875, V-B:TYR:531:CE1:9764, V-B:ASP:366:CG:8185, V-A:TYR:539:CZ:4877, V-A:PRO:540:CA:4883, V-A:TYR:539:C:4867, V-A:PRO:540:N:4884, V-A:PRO:540:CB:4885, V-B:ASP:366:CB:8184, V-A:TYR:539:CE2:4876, H-B:LYS:534:NZ:9795, V-A:LEU:363:CD1:3189, V-A:GLU:543:CD:4908, H-A:GLU:543:OE1:4909, H-A:GLU:543:OE2:4910, V-A:PRO:540:CD:4887, V-A:GLU:543:CG:4907, V-A:HIS:456:CE1:4070, H-A:TYR:539:OH:4878, V-A:GLU:543:C:4902, V-B:GLU:543:CB:9878, V-A:LYS:547:CE:4950, V-A:GLU:543:CB:4906, V-A:GLY:544:C:4912, V-A:HIS:456:CD2:4068, V-B:ARG:545:CZ:9898, V-A:GLY:544:CA:4914, V-B:HIS:456:CD2:9040, V-B:HIS:456:CE1:9042, V-A:TYR:539:CG:4872, V-B:ASP:366:C:8180, V-B:ASP:366:CA:8182, H-B:TYR:484:OH:9320, V-B:GLU:543:C:9874, V-B:GLY:453:C:9014, V-B:GLY:453:CA:9016, V-B:GLY:544:C:9884"]

$$$$
RR21_Rahimova_2017
     RDKit          3D

 40 45  0  0  0  0  0  0  0  0999 V2000
  128.0950  126.9210   68.8050 C   0  0  0  0  0  0  0  0  0  0  0  0
  128.1220  128.1880   68.1540 O   0  0  0  0  0  0  0  0  0  0  0  0
  127.8090  128.2640   66.8100 C   0  0  0  0  0  0  0  0  0  0  0  0
  128.7520  128.4820   65.7910 C   0  0  0  0  0  0  0  0  0  0  0  0
  128.3530  128.5420   64.4560 C   0  0  0  0  0  0  0  0  0  0  0  0
  127.0080  128.3830   64.1050 C   0  0  0  0  0  0  0  0  0  0  0  0
  126.5830  128.4440   62.6690 C   0  0  0  0  0  0  0  0  0  0  0  0
  125.9060  129.4860   62.2290 N   0  0  0  0  0  0  0  0  0  0  0  0
  125.6680  129.2690   60.9270 N   0  0  0  0  0  0  0  0  0  0  0  0
  124.9700  130.2160   60.1330 C   0  0  0  0  0  0  0  0  0  0  0  0
  124.6240  131.4730   60.6530 C   0  0  0  0  0  0  0  0  0  0  0  0
  123.9440  132.3950   59.8630 C   0  0  0  0  0  0  0  0  0  0  0  0
  123.6050  132.0650   58.5530 C   0  0  0  0  0  0  0  0  0  0  0  0
  123.9400  130.8200   58.0260 C   0  0  0  0  0  0  0  0  0  0  0  0
  124.6200  129.8960   58.8130 C   0  0  0  0  0  0  0  0  0  0  0  0
  126.2190  128.0740   60.5370 C   0  0  0  0  0  0  0  0  0  0  0  0
  126.8140  127.4950   61.6480 C   0  0  0  0  0  0  0  0  0  0  0  0
  127.5640  126.2490   61.7180 C   0  0  0  0  0  0  0  0  0  0  0  0
  128.7290  125.9370   61.1070 C   0  0  0  0  0  0  0  0  0  0  0  0
  129.6980  126.9560   60.0190 S   0  0  0  0  0  0  0  0  0  0  0  0
  130.8800  125.6620   59.8830 C   0  0  0  0  0  0  0  0  0  0  0  0
  131.9880  125.6650   59.2080 N   0  0  0  0  0  0  0  0  0  0  0  0
  132.8680  124.5470   59.1920 C   0  0  0  0  0  0  0  0  0  0  0  0
  133.9430  124.4780   58.5970 O   0  0  0  0  0  0  0  0  0  0  0  0
  132.3820  123.3790   60.0050 C   0  0  0  0  0  0  0  0  0  0  0  0
  133.2390  122.1080   60.0470 C   0  0  0  0  0  0  0  0  0  0  0  0
  132.4370  120.8080   60.0630 C   0  0  0  0  0  0  0  0  0  0  0  0
  131.2590  120.7230   60.8090 C   0  0  0  0  0  0  0  0  0  0  0  0
  130.5190  119.5430   60.8110 C   0  0  0  0  0  0  0  0  0  0  0  0
  130.9540  118.4460   60.0640 C   0  0  0  0  0  0  0  0  0  0  0  0
  130.1380  117.1670   60.0600 C   0  0  0  0  0  0  0  0  0  0  0  0
  132.1260  118.5330   59.3090 C   0  0  0  0  0  0  0  0  0  0  0  0
  132.8660  119.7120   59.3080 C   0  0  0  0  0  0  0  0  0  0  0  0
  131.2720  123.3890   60.6680 N   0  0  0  0  0  0  0  0  0  0  0  0
  130.5070  124.5610   60.6060 N   0  0  0  0  0  0  0  0  0  0  0  0
  129.3420  124.6300   61.2970 C   0  0  0  0  0  0  0  0  0  0  0  0
  128.8790  123.7170   61.9910 O   0  0  0  0  0  0  0  0  0  0  0  0
  126.0680  128.1730   65.1190 C   0  0  0  0  0  0  0  0  0  0  0  0
  126.4640  128.1130   66.4550 C   0  0  0  0  0  0  0  0  0  0  0  0
  125.5300  127.9070   67.4130 F   0  0  0  0  0  0  0  0  0  0  0  0
  1  2  1  0
  2  3  1  0
  3  4  2  0
  4  5  1  0
  5  6  2  0
  6  7  1  0
  7  8  2  0
  8  9  1  0
  9 10  1  0
 10 11  2  0
 11 12  1  0
 12 13  2  0
 13 14  1  0
 14 15  2  0
  9 16  1  0
 16 17  2  0
 17 18  1  0
 18 19  2  0
 19 20  1  0
 20 21  1  0
 21 22  2  0
 22 23  1  0
 23 24  2  0
 23 25  1  0
 25 26  1  0
 26 27  1  0
 27 28  2  0
 28 29  1  0
 29 30  2  0
 30 31  1  0
 30 32  1  0
 32 33  2  0
 25 34  2  0
 34 35  1  0
 35 36  1  0
 36 37  2  0
  6 38  1  0
 38 39  2  0
 39 40  1  0
 39  3  1  0
 17  7  1  0
 36 19  1  0
 15 10  1  0
 35 21  1  0
 33 27  1  0
M  END
>  <Binding energies>  (46) 
[-7.3]

>  <Ligand effiencies>  (46) 
[-0.1825]

>  <Interactions>  (46) 
["V-B:GLU:543:CD:9880, V-B:TYR:539:C:9839, V-B:TYR:539:CE2:9848, V-B:TYR:539:CD2:9846, V-A:SER:385:CB:3409, V-A:PRO:482:CB:4326, V-A:ASP:366:CG:3213, V-B:TYR:539:CG:9844, V-A:LEU:475:CD2:4259, V-A:ILE:369:CD1:3239, V-A:ASP:366:CB:3212, V-A:ILE:369:CG2:3237, V-A:PRO:482:CG:4327, V-A:TYR:539:CE1:4875, V-B:ASP:366:CG:8185, V-A:TYR:539:CZ:4877, V-B:ASP:366:CB:8184, V-A:GLU:543:CD:4908, V-A:GLU:543:CG:4907, V-A:HIS:456:CE1:4070, V-B:TYR:539:CB:9843, V-B:GLU:543:CB:9878, V-A:GLU:543:CB:4906, V-B:ARG:545:CZ:9898, V-B:HIS:456:CE1:9042, V-A:LEU:373:CD1:3280, V-B:ILE:369:CD1:8211, V-B:ARG:545:CD:9895, V-B:ARG:545:CG:9894, V-B:ASP:366:C:8180, V-B:ASP:366:CA:8182, V-B:ILE:369:CG2:8209, V-B:ILE:369:CB:8208, V-A:SER:385:CA:3407, V-B:ARG:545:CB:9893"]

$$$$
RR23_Rahimova_2017
     RDKit          3D

 39 44  0  0  0  0  0  0  0  0999 V2000
  131.9360  132.7290   55.1400 C   0  0  0  0  0  0  0  0  0  0  0  0
  130.5790  132.0720   55.3160 C   0  0  0  0  0  0  0  0  0  0  0  0
  129.7790  132.4050   56.4090 C   0  0  0  0  0  0  0  0  0  0  0  0
  128.5300  131.8080   56.5650 C   0  0  0  0  0  0  0  0  0  0  0  0
  128.0770  130.8660   55.6350 C   0  0  0  0  0  0  0  0  0  0  0  0
  126.7090  130.2450   55.8100 C   0  0  0  0  0  0  0  0  0  0  0  0
  126.0720  129.9680   54.7910 O   0  0  0  0  0  0  0  0  0  0  0  0
  126.2400  130.0030   57.0710 N   0  0  0  0  0  0  0  0  0  0  0  0
  124.9910  130.6110   57.5570 C   0  0  0  0  0  0  0  0  0  0  0  0
  124.7230  130.0010   58.9230 C   0  0  0  0  0  0  0  0  0  0  0  0
  125.6380  128.8150   58.9450 C   0  0  0  0  0  0  0  0  0  0  0  0
  125.7660  127.8200   59.9150 C   0  0  0  0  0  0  0  0  0  0  0  0
  126.7990  126.8750   59.8300 C   0  0  0  0  0  0  0  0  0  0  0  0
  126.9760  125.7640   60.8770 C   0  0  2  0  0  0  0  0  0  0  0  0
  128.3650  125.4030   61.0610 N   0  0  0  0  0  0  0  0  0  0  0  0
  128.5000  124.1730   61.3550 C   0  0  0  0  0  0  0  0  0  0  0  0
  129.6530  123.4840   61.5720 N   0  0  0  0  0  0  0  0  0  0  0  0
  130.9290  123.9010   61.3910 C   0  0  0  0  0  0  0  0  0  0  0  0
  131.2700  125.0280   61.0250 O   0  0  0  0  0  0  0  0  0  0  0  0
  132.0150  122.8490   61.6710 C   0  0  0  0  0  0  0  0  0  0  0  0
  131.4520  121.4980   61.4440 N   0  0  0  0  0  0  0  0  0  0  0  0
  130.3770  121.1570   62.2550 N   0  0  0  0  0  0  0  0  0  0  0  0
  129.7960  120.0040   62.1570 N   0  0  0  0  0  0  0  0  0  0  0  0
  130.2500  119.0750   61.2180 C   0  0  0  0  0  0  0  0  0  0  0  0
  129.6020  117.8400   61.1390 C   0  0  0  0  0  0  0  0  0  0  0  0
  130.0320  116.8910   60.2100 C   0  0  0  0  0  0  0  0  0  0  0  0
  131.1060  117.1740   59.3630 C   0  0  0  0  0  0  0  0  0  0  0  0
  131.7560  118.4070   59.4410 C   0  0  0  0  0  0  0  0  0  0  0  0
  131.3230  119.3600   60.3710 C   0  0  0  0  0  0  0  0  0  0  0  0
  132.0140  120.6990   60.4740 C   0  0  0  0  0  0  0  0  0  0  0  0
  132.9770  121.0300   59.7750 O   0  0  0  0  0  0  0  0  0  0  0  0
  127.0040  123.2040   61.4930 S   0  0  0  0  0  0  0  0  0  0  0  0
  126.1160  124.5050   60.6190 C   0  0  2  0  0  0  0  0  0  0  0  0
  125.9270  124.0840   59.1470 C   0  0  0  0  0  0  0  0  0  0  0  0
  127.7250  126.9780   58.7850 C   0  0  0  0  0  0  0  0  0  0  0  0
  127.6100  127.9850   57.8260 C   0  0  0  0  0  0  0  0  0  0  0  0
  126.5290  128.8760   57.8720 C   0  0  0  0  0  0  0  0  0  0  0  0
  128.8740  130.5580   54.5240 C   0  0  0  0  0  0  0  0  0  0  0  0
  130.1220  131.1550   54.3680 C   0  0  0  0  0  0  0  0  0  0  0  0
  1  2  1  0
  2  3  2  0
  3  4  1  0
  4  5  2  0
  5  6  1  0
  6  7  2  0
  6  8  1  0
  8  9  1  0
  9 10  1  0
 10 11  1  0
 11 12  2  0
 12 13  1  0
 14 13  1  6
 14 15  1  0
 15 16  2  0
 16 17  1  0
 17 18  1  0
 18 19  2  0
 18 20  1  0
 20 21  1  0
 21 22  1  0
 22 23  2  0
 23 24  1  0
 24 25  2  0
 25 26  1  0
 26 27  2  0
 27 28  1  0
 28 29  2  0
 29 30  1  0
 30 31  2  0
 16 32  1  0
 32 33  1  0
 33 34  1  6
 13 35  2  0
 35 36  1  0
 36 37  2  0
  5 38  1  0
 38 39  2  0
 39  2  1  0
 37  8  1  0
 37 11  1  0
 33 14  1  0
 30 21  1  0
 29 24  1  0
M  END
>  <Binding energies>  (47) 
[-10.91]

>  <Ligand effiencies>  (47) 
[-0.27275]

>  <Interactions>  (47) 
["V-B:PRO:540:CB:9857, V-B:TYR:539:C:9839, V-B:PRO:540:CA:9855, V-B:TYR:539:CE2:9848, V-B:TYR:539:CD2:9846, V-A:SER:385:CB:3409, V-A:PRO:482:CB:4326, V-A:LEU:475:CD1:4258, H-A:TYR:484:OH:4348, V-B:TYR:539:CG:9844, V-A:LEU:475:CD2:4259, V-A:LEU:475:CG:4257, V-A:PRO:482:CG:4327, V-A:TYR:539:CE1:4875, V-B:ASP:366:CG:8185, V-A:TYR:539:CZ:4877, V-A:TYR:539:C:4867, V-A:PRO:540:N:4884, V-B:ASP:366:CB:8184, H-B:LYS:534:NZ:9795, V-A:LEU:363:CD1:3189, H-B:ALA:541:N:9863, V-A:PRO:540:CD:4887, V-A:ILE:538:CA:4860, V-A:ILE:538:CB:4862, V-A:ILE:538:CG2:4863, H-A:TYR:539:OH:4878, V-B:TYR:539:CB:9843, V-A:TYR:539:CD1:4873, V-B:ASP:366:CA:8182"]

$$$$
RR26_Rahimova_2017
     RDKit          3D

 38 44  0  0  0  0  0  0  0  0999 V2000
  132.7850  120.5710   59.7890 C   0  0  0  0  0  0  0  0  0  0  0  0
  131.6460  119.7480   60.3760 C   0  0  0  0  0  0  0  0  0  0  0  0
  131.7440  118.3530   60.3300 C   0  0  0  0  0  0  0  0  0  0  0  0
  130.7510  117.5510   60.8880 C   0  0  0  0  0  0  0  0  0  0  0  0
  129.6500  118.1380   61.5040 C   0  0  0  0  0  0  0  0  0  0  0  0
  129.5410  119.5260   61.5560 C   0  0  0  0  0  0  0  0  0  0  0  0
  130.5270  120.3500   60.9930 C   0  0  0  0  0  0  0  0  0  0  0  0
  130.3250  121.8360   61.0790 C   0  0  0  0  0  0  0  0  0  0  0  0
  130.1720  122.5970   59.9990 N   0  0  0  0  0  0  0  0  0  0  0  0
  130.0180  123.7830   60.5240 C   0  0  0  0  0  0  0  0  0  0  0  0
  129.7680  125.3790   59.9210 S   0  0  0  0  0  0  0  0  0  0  0  0
  129.7270  125.9890   61.6170 C   0  0  0  0  0  0  0  0  0  0  0  0
  129.5600  127.2640   62.0350 C   0  0  0  0  0  0  0  0  0  0  0  0
  129.3660  128.4540   61.2240 C   0  0  0  0  0  0  0  0  0  0  0  0
  130.1340  128.9010   60.1600 C   0  0  0  0  0  0  0  0  0  0  0  0
  129.5530  130.0430   59.6690 N   0  0  0  0  0  0  0  0  0  0  0  0
  129.9810  130.8480   58.5820 C   0  0  0  0  0  0  0  0  0  0  0  0
  129.0610  131.6140   57.8510 C   0  0  0  0  0  0  0  0  0  0  0  0
  129.4930  132.3970   56.7830 C   0  0  0  0  0  0  0  0  0  0  0  0
  130.8440  132.4190   56.4460 C   0  0  0  0  0  0  0  0  0  0  0  0
  131.7680  131.6650   57.1660 C   0  0  0  0  0  0  0  0  0  0  0  0
  131.3390  130.8800   58.2310 C   0  0  0  0  0  0  0  0  0  0  0  0
  128.4350  130.3270   60.3540 N   0  0  0  0  0  0  0  0  0  0  0  0
  128.3150  129.3970   61.2810 C   0  0  0  0  0  0  0  0  0  0  0  0
  127.1570  129.4370   62.2310 C   0  0  0  0  0  0  0  0  0  0  0  0
  125.8870  129.8360   61.7870 C   0  0  0  0  0  0  0  0  0  0  0  0
  124.8030  129.8800   62.6660 C   0  0  0  0  0  0  0  0  0  0  0  0
  124.9830  129.5250   64.0010 C   0  0  0  0  0  0  0  0  0  0  0  0
  126.2430  129.1070   64.4530 C   0  0  0  0  0  0  0  0  0  0  0  0
  127.3250  129.0700   63.5750 C   0  0  0  0  0  0  0  0  0  0  0  0
  126.4780  128.7880   65.7760 O   0  0  0  0  0  0  0  0  0  0  0  0
  125.2950  128.4910   66.5250 C   0  0  0  0  0  0  0  0  0  0  0  0
  124.1850  129.5280   66.2210 C   0  0  0  0  0  0  0  0  0  0  0  0
  123.8750  129.5360   64.8240 O   0  0  0  0  0  0  0  0  0  0  0  0
  129.9170  124.9220   62.5950 C   0  0  0  0  0  0  0  0  0  0  0  0
  129.9490  124.9910   63.8250 O   0  0  0  0  0  0  0  0  0  0  0  0
  130.0680  123.7320   61.8670 N   0  0  0  0  0  0  0  0  0  0  0  0
  130.2630  122.4650   62.2430 N   0  0  0  0  0  0  0  0  0  0  0  0
  1  2  1  0
  2  3  2  0
  3  4  1  0
  4  5  2  0
  5  6  1  0
  6  7  2  0
  7  8  1  0
  8  9  1  0
  9 10  2  0
 10 11  1  0
 11 12  1  0
 12 13  2  0
 13 14  1  0
 14 15  2  0
 15 16  1  0
 16 17  1  0
 17 18  2  0
 18 19  1  0
 19 20  2  0
 20 21  1  0
 21 22  2  0
 16 23  1  0
 23 24  2  0
 24 25  1  0
 25 26  2  0
 26 27  1  0
 27 28  2  0
 28 29  1  0
 29 30  2  0
 29 31  1  0
 31 32  1  0
 32 33  1  0
 33 34  1  0
 12 35  1  0
 35 36  2  0
 35 37  1  0
 37 38  1  0
  7  2  1  0
 38  8  2  0
 37 10  1  0
 24 14  1  0
 30 25  1  0
 22 17  1  0
 34 28  1  0
M  END
>  <Binding energies>  (48) 
[-9.33]

>  <Ligand effiencies>  (48) 
[-0.24552631578947368]

>  <Interactions>  (48) 
["V-B:GLU:543:CD:9880, V-B:TYR:539:C:9839, V-B:TYR:539:CE2:9848, V-B:TYR:539:CD2:9846, V-B:ALA:541:CB:9864, V-B:PRO:540:C:9853, V-A:SER:385:CB:3409, V-A:PRO:482:CB:4326, V-A:LEU:475:CD1:4258, H-A:TYR:484:OH:4348, V-A:LEU:475:CD2:4259, V-A:LEU:475:CG:4257, V-A:ILE:369:CG2:3237, V-A:PRO:482:CG:4327, V-A:PRO:540:CA:4883, V-A:TYR:539:C:4867, V-A:PRO:540:N:4884, V-A:PRO:540:CB:4885, H-B:ARG:545:NH2:9900, V-A:GLU:543:CD:4908, V-A:PRO:540:CD:4887, V-B:ARG:545:CZ:9898, V-B:TYR:484:CZ:9319, V-B:HIS:456:CE1:9042, V-B:ARG:545:CD:9895, V-B:ARG:545:CG:9894, H-B:TYR:484:OH:9320, H-B:GLY:454:N:9022, H-B:ARG:545:NE:9896, H-B:ARG:545:NH1:9899, V-B:TYR:484:CE1:9317"]

$$$$
RR2_Rahimova_2017
     RDKit          3D

 46 50  0  0  0  0  0  0  0  0999 V2000
  133.4260  122.7710   61.1180 C   0  0  0  0  0  0  0  0  0  0  0  0
  133.9560  123.1430   59.8510 O   0  0  0  0  0  0  0  0  0  0  0  0
  133.3290  124.1370   59.1230 C   0  0  0  0  0  0  0  0  0  0  0  0
  132.3590  125.0060   59.6420 C   0  0  0  0  0  0  0  0  0  0  0  0
  131.7780  125.9760   58.8310 C   0  0  0  0  0  0  0  0  0  0  0  0
  132.1500  126.1010   57.4850 C   0  0  0  0  0  0  0  0  0  0  0  0
  131.4970  127.1620   56.6210 C   0  0  0  0  0  0  0  0  0  0  0  0
  131.0330  126.8660   55.5140 O   0  0  0  0  0  0  0  0  0  0  0  0
  131.4800  128.4140   57.1350 N   0  0  0  0  0  0  0  0  0  0  0  0
  130.9770  129.4420   56.3450 N   0  0  0  0  0  0  0  0  0  0  0  0
  131.4450  130.6900   56.5480 C   0  0  0  0  0  0  0  0  0  0  0  0
  132.1550  131.0310   57.4980 O   0  0  0  0  0  0  0  0  0  0  0  0
  131.0590  131.7230   55.4810 C   0  0  0  0  0  0  0  0  0  0  0  0
  129.3090  132.2580   55.5180 S   0  0  0  0  0  0  0  0  0  0  0  0
  128.5190  130.7540   56.0060 C   0  0  0  0  0  0  0  0  0  0  0  0
  127.7980  130.0290   55.1890 N   0  0  0  0  0  0  0  0  0  0  0  0
  127.2760  128.9710   55.9190 N   0  0  0  0  0  0  0  0  0  0  0  0
  127.7270  129.0790   57.1460 C   0  0  0  0  0  0  0  0  0  0  0  0
  127.3960  128.1070   58.2320 C   0  0  0  0  0  0  0  0  0  0  0  0
  128.0720  126.8860   58.3010 C   0  0  0  0  0  0  0  0  0  0  0  0
  127.7650  125.9710   59.3040 C   0  0  0  0  0  0  0  0  0  0  0  0
  126.7900  126.2770   60.2600 C   0  0  0  0  0  0  0  0  0  0  0  0
  126.4320  125.3900   61.2860 N   0  0  0  0  0  0  0  0  0  0  0  0
  125.7610  123.7640   61.0300 S   0  0  0  0  0  0  0  0  0  0  0  0
  124.3180  123.8800   61.2710 O   0  0  0  0  0  0  0  0  0  0  0  0
  126.5760  122.8100   61.7910 O   0  0  0  0  0  0  0  0  0  0  0  0
  125.9670  123.4420   59.2800 C   0  0  0  0  0  0  0  0  0  0  0  0
  127.1680  122.9260   58.7880 C   0  0  0  0  0  0  0  0  0  0  0  0
  127.3140  122.6980   57.4230 C   0  0  0  0  0  0  0  0  0  0  0  0
  126.2590  122.9780   56.5520 C   0  0  0  0  0  0  0  0  0  0  0  0
  126.4240  122.7420   55.0610 C   0  0  0  0  0  0  0  0  0  0  0  0
  125.0600  123.4980   57.0460 C   0  0  0  0  0  0  0  0  0  0  0  0
  124.9140  123.7280   58.4110 C   0  0  0  0  0  0  0  0  0  0  0  0
  126.1180  127.4980   60.1920 C   0  0  0  0  0  0  0  0  0  0  0  0
  126.4200  128.4110   59.1850 C   0  0  0  0  0  0  0  0  0  0  0  0
  128.5270  130.2030   57.2740 N   0  0  0  0  0  0  0  0  0  0  0  0
  129.1650  130.6990   58.4300 C   0  0  0  0  0  0  0  0  0  0  0  0
  129.9750  129.8580   59.1940 C   0  0  0  0  0  0  0  0  0  0  0  0
  130.6050  130.3550   60.3310 C   0  0  0  0  0  0  0  0  0  0  0  0
  130.4320  131.6860   60.7150 C   0  0  0  0  0  0  0  0  0  0  0  0
  131.0960  132.0870   61.8580 O   0  0  0  0  0  0  0  0  0  0  0  0
  132.3540  131.4990   62.1740 C   0  0  0  0  0  0  0  0  0  0  0  0
  129.6140  132.5250   59.9400 C   0  0  0  0  0  0  0  0  0  0  0  0
  128.9840  132.0330   58.8010 C   0  0  0  0  0  0  0  0  0  0  0  0
  133.1260  125.2320   56.9740 C   0  0  0  0  0  0  0  0  0  0  0  0
  133.7060  124.2630   57.7870 C   0  0  0  0  0  0  0  0  0  0  0  0
  1  2  1  0
  2  3  1  0
  3  4  2  0
  4  5  1  0
  5  6  2  0
  6  7  1  0
  7  8  2  0
  7  9  1  0
  9 10  1  0
 10 11  1  0
 11 12  2  0
 11 13  1  0
 13 14  1  0
 14 15  1  0
 15 16  2  0
 16 17  1  0
 17 18  2  0
 18 19  1  0
 19 20  2  0
 20 21  1  0
 21 22  2  0
 22 23  1  0
 23 24  1  0
 24 25  2  0
 24 26  2  0
 24 27  1  0
 27 28  2  0
 28 29  1  0
 29 30  2  0
 30 31  1  0
 30 32  1  0
 32 33  2  0
 22 34  1  0
 34 35  2  0
 18 36  1  0
 36 37  1  0
 37 38  2  0
 38 39  1  0
 39 40  2  0
 40 41  1  0
 41 42  1  0
 40 43  1  0
 43 44  2  0
  6 45  1  0
 45 46  2  0
 46  3  1  0
 36 15  1  0
 44 37  1  0
 35 19  1  0
 33 27  1  0
M  END
>  <Binding energies>  (49) 
[-11.42]

>  <Ligand effiencies>  (49) 
[-0.2330612244897959]

>  <Interactions>  (49) 
["V-B:ILE:538:CD1:9837, V-B:PRO:540:CB:9857, V-B:LEU:363:CD1:8161, V-B:GLU:543:CD:9880, H-B:GLU:543:OE2:9882, V-B:TYR:539:C:9839, V-B:PRO:540:CA:9855, H-B:GLU:543:OE1:9881, V-B:TYR:539:CE2:9848, V-B:TYR:539:CD2:9846, V-B:ILE:538:CA:9832, V-B:MET:535:CE:9807, V-B:TYR:539:CZ:9849, H-B:ASP:366:OD2:8187, V-B:PRO:540:N:9856, V-B:TYR:531:CE2:9765, V-A:ASP:366:CA:3210, V-A:ASP:366:CG:3213, V-B:TYR:539:CG:9844, V-B:TYR:531:CZ:9766, V-A:ILE:369:CD1:3239, V-A:ASP:366:C:3208, V-A:ASP:366:CB:3212, V-A:ILE:369:CB:3236, V-A:ILE:369:CG2:3237, V-A:TYR:531:CZ:4794, H-A:TYR:539:N:4870, V-B:ASP:366:CG:8185, V-A:PRO:540:CA:4883, V-A:TYR:539:C:4867, V-A:PRO:540:N:4884, H-B:LYS:534:NZ:9795, H-B:ARG:545:NH2:9900, H-B:ALA:541:N:9863, V-A:GLU:543:CD:4908, H-A:ALA:541:N:4891, H-A:ASP:366:OD1:3214, V-A:GLU:543:CG:4907, H-A:TYR:531:OH:4795, V-A:PRO:540:C:4881, V-A:ASN:362:CB:3176, V-A:ALA:541:CA:4890, V-A:ALA:541:C:4888"]

$$$$
RR33_Rahimova_2017
     RDKit          3D

 18 19  0  0  0  0  0  0  0  0999 V2000
  124.6390  122.9200   56.7630 C   0  0  0  0  0  0  0  0  0  0  0  0
  125.7050  123.0570   55.6720 C   0  0  0  0  0  0  0  0  0  0  0  0
  126.8750  122.3570   56.0840 O   0  0  0  0  0  0  0  0  0  0  0  0
  127.5930  122.8170   57.1710 C   0  0  0  0  0  0  0  0  0  0  0  0
  128.5650  123.7820   56.9100 C   0  0  0  0  0  0  0  0  0  0  0  0
  129.3410  124.3030   57.9420 C   0  0  0  0  0  0  0  0  0  0  0  0
  129.1540  123.8640   59.2560 C   0  0  0  0  0  0  0  0  0  0  0  0
  129.9890  124.4230   60.3640 C   0  0  0  0  0  0  0  0  0  0  0  0
  131.3000  124.4530   60.4440 N   0  0  0  0  0  0  0  0  0  0  0  0
  131.5670  125.0430   61.5990 C   0  0  0  0  0  0  0  0  0  0  0  0
  132.9950  125.2720   62.0440 C   0  0  0  0  0  0  0  0  0  0  0  0
  133.5030  124.1100   62.7580 N   0  0  0  0  0  0  0  0  0  0  0  0
  133.6470  122.9780   61.8580 C   0  0  0  0  0  0  0  0  0  0  0  0
  130.3790  125.3790   62.2360 C   0  0  0  0  0  0  0  0  0  0  0  0
  130.0110  126.0540   63.5350 C   0  0  0  0  0  0  0  0  0  0  0  0
  129.3650  124.9770   61.4360 O   0  0  0  0  0  0  0  0  0  0  0  0
  128.1780  122.8990   59.5230 C   0  0  0  0  0  0  0  0  0  0  0  0
  127.4020  122.3770   58.4900 C   0  0  0  0  0  0  0  0  0  0  0  0
  1  2  1  0
  2  3  1  0
  3  4  1  0
  4  5  2  0
  5  6  1  0
  6  7  2  0
  7  8  1  0
  8  9  2  0
  9 10  1  0
 10 11  1  0
 11 12  1  0
 12 13  1  0
 10 14  2  0
 14 15  1  0
 14 16  1  0
  7 17  1  0
 17 18  2  0
 18  4  1  0
 16  8  1  0
M  END
>  <Binding energies>  (50) 
[-5.45]

>  <Ligand effiencies>  (50) 
[-0.2868421052631579]

>  <Interactions>  (50) 
["V-B:TYR:539:CD1:9845, V-B:ILE:538:CD1:9837, V-B:PRO:540:CB:9857, V-B:PRO:540:CD:9859, V-B:LEU:363:CD1:8161, V-B:GLU:543:CD:9880, V-B:TYR:539:C:9839, V-B:PRO:540:CA:9855, H-B:TYR:539:N:9842, V-B:TYR:539:CE2:9848, V-B:TYR:539:CD2:9846, V-B:MET:535:CE:9807, V-B:TYR:539:CZ:9849, V-B:TYR:539:CE1:9847, V-B:PRO:540:N:9856, V-B:TYR:531:CE2:9765, H-A:TYR:484:OH:4348, V-A:ASP:366:CG:3213, V-B:TYR:539:CG:9844, V-B:TYR:531:CZ:9766, V-A:ILE:369:CD1:3239, V-A:GLY:454:CA:4049, V-A:GLU:543:CD:4908, H-A:GLY:454:N:4050, V-A:ARG:545:CZ:4926"]

$$$$
RR3_Rahimova_2017
     RDKit          3D

 38 44  0  0  0  0  0  0  0  0999 V2000
  124.2360  128.9930   67.0070 C   0  0  0  0  0  0  0  0  0  0  0  0
  123.8440  129.5840   65.8100 C   0  0  0  0  0  0  0  0  0  0  0  0
  124.7040  129.5600   64.7160 C   0  0  0  0  0  0  0  0  0  0  0  0
  125.9620  128.9450   64.8020 C   0  0  0  0  0  0  0  0  0  0  0  0
  126.8850  128.9180   63.6230 C   0  0  0  0  0  0  0  0  0  0  0  0
  127.4680  130.0970   63.1380 C   0  0  0  0  0  0  0  0  0  0  0  0
  128.3230  130.0720   62.0400 C   0  0  0  0  0  0  0  0  0  0  0  0
  128.6100  128.8660   61.3960 C   0  0  0  0  0  0  0  0  0  0  0  0
  129.5240  128.8330   60.2120 C   0  0  0  0  0  0  0  0  0  0  0  0
  129.7830  129.9500   59.5410 N   0  0  0  0  0  0  0  0  0  0  0  0
  130.6360  129.6320   58.5980 C   0  0  0  0  0  0  0  0  0  0  0  0
  131.1950  130.5610   57.6190 C   0  0  0  0  0  0  0  0  0  0  0  0
  132.5230  130.9450   57.5340 C   0  0  0  0  0  0  0  0  0  0  0  0
  132.6950  131.8220   56.4940 N   0  0  0  0  0  0  0  0  0  0  0  0
  131.4910  132.0450   55.8640 C   0  0  0  0  0  0  0  0  0  0  0  0
  131.1690  132.8510   54.7670 C   0  0  0  0  0  0  0  0  0  0  0  0
  129.8350  132.8650   54.3610 C   0  0  0  0  0  0  0  0  0  0  0  0
  128.8620  132.1150   55.0120 C   0  0  0  0  0  0  0  0  0  0  0  0
  129.1820  131.3100   56.1050 C   0  0  0  0  0  0  0  0  0  0  0  0
  130.5140  131.2600   56.5550 C   0  0  0  0  0  0  0  0  0  0  0  0
  130.9370  128.2980   58.6400 N   0  0  0  0  0  0  0  0  0  0  0  0
  130.2150  127.7390   59.6630 C   0  0  0  0  0  0  0  0  0  0  0  0
  130.2430  126.2780   59.9710 C   0  0  0  0  0  0  0  0  0  0  0  0
  130.0010  125.3450   58.9630 C   0  0  0  0  0  0  0  0  0  0  0  0
  130.0140  123.9830   59.2490 C   0  0  0  0  0  0  0  0  0  0  0  0
  130.2730  123.5220   60.5470 C   0  0  0  0  0  0  0  0  0  0  0  0
  130.2670  122.0580   60.8560 C   0  0  0  0  0  0  0  0  0  0  0  0
  129.2220  121.4830   61.5940 C   0  0  0  0  0  0  0  0  0  0  0  0
  129.2140  120.1190   61.8770 C   0  0  0  0  0  0  0  0  0  0  0  0
  130.2540  119.3140   61.4230 C   0  0  0  0  0  0  0  0  0  0  0  0
  131.3000  119.8630   60.6880 C   0  0  0  0  0  0  0  0  0  0  0  0
  131.3050  121.2270   60.4080 C   0  0  0  0  0  0  0  0  0  0  0  0
  130.5330  124.4700   61.5480 C   0  0  0  0  0  0  0  0  0  0  0  0
  130.5200  125.8320   61.2650 C   0  0  0  0  0  0  0  0  0  0  0  0
  128.0440  127.6850   61.8800 C   0  0  0  0  0  0  0  0  0  0  0  0
  127.1890  127.7120   62.9780 C   0  0  0  0  0  0  0  0  0  0  0  0
  126.3350  128.3560   66.0190 C   0  0  0  0  0  0  0  0  0  0  0  0
  125.4780  128.3780   67.1160 C   0  0  0  0  0  0  0  0  0  0  0  0
  1  2  2  0
  2  3  1  0
  3  4  2  0
  4  5  1  0
  5  6  2  0
  6  7  1  0
  7  8  2  0
  8  9  1  0
  9 10  1  0
 10 11  2  0
 11 12  1  0
 12 13  2  0
 13 14  1  0
 14 15  1  0
 15 16  2  0
 16 17  1  0
 17 18  2  0
 18 19  1  0
 19 20  2  0
 11 21  1  0
 21 22  1  0
 22 23  1  0
 23 24  2  0
 24 25  1  0
 25 26  2  0
 26 27  1  0
 27 28  2  0
 28 29  1  0
 29 30  2  0
 30 31  1  0
 31 32  2  0
 26 33  1  0
 33 34  2  0
  8 35  1  0
 35 36  2  0
  4 37  1  0
 37 38  2  0
 38  1  1  0
 36  5  1  0
 22  9  2  0
 34 23  1  0
 20 12  1  0
 32 27  1  0
 20 15  1  0
M  END
>  <Binding energies>  (51) 
[-8.02]

>  <Ligand effiencies>  (51) 
[-0.20049999999999998]

>  <Interactions>  (51) 
["V-B:GLU:543:CD:9880, V-B:TYR:539:CE2:9848, V-B:TYR:539:CD2:9846, V-B:ALA:541:CB:9864, V-B:PRO:540:C:9853, V-A:LEU:475:CD1:4258, V-A:ASP:366:CG:3213, V-A:LEU:475:CD2:4259, V-A:LEU:475:CG:4257, V-A:PRO:540:CB:4885, V-A:TYR:539:CE2:4876, V-A:LEU:363:CD1:3189, H-A:ASP:366:OD1:3214, V-A:ILE:538:CA:4860, V-A:ILE:538:CB:4862, V-A:ILE:538:CG2:4863, H-A:TYR:531:OH:4795, V-B:ARG:545:CZ:9898, V-B:HIS:456:CE1:9042, V-A:ILE:538:C:4858, V-A:TYR:539:CD2:4874, V-B:ARG:545:CD:9895, V-B:ARG:545:CG:9894, V-B:ALA:541:CA:9862, V-B:GLY:454:CA:9021, V-B:GLY:453:C:9014, V-B:GLY:453:CA:9016, V-B:ARG:545:CB:9893"]

$$$$
RR4_Rahimova_2017
     RDKit          3D

 40 44  0  0  0  0  0  0  0  0999 V2000
  126.5240  122.6900   54.3770 C   0  0  0  0  0  0  0  0  0  0  0  0
  125.9660  122.3230   55.6340 O   0  0  0  0  0  0  0  0  0  0  0  0
  126.2460  123.0930   56.7460 C   0  0  0  0  0  0  0  0  0  0  0  0
  127.4900  123.7190   56.7770 C   0  0  0  0  0  0  0  0  0  0  0  0
  127.8580  124.5150   57.8570 C   0  0  0  0  0  0  0  0  0  0  0  0
  126.9920  124.7070   58.9430 C   0  0  0  0  0  0  0  0  0  0  0  0
  127.3920  125.5670   60.1080 C   0  0  0  0  0  0  0  0  0  0  0  0
  128.5720  125.3610   60.8310 C   0  0  0  0  0  0  0  0  0  0  0  0
  128.9040  126.1930   61.9080 C   0  0  0  0  0  0  0  0  0  0  0  0
  130.1940  125.9300   62.6140 C   0  0  0  0  0  0  0  0  0  0  0  0
  130.2480  125.9620   64.0110 C   0  0  0  0  0  0  0  0  0  0  0  0
  131.4430  125.7070   64.6780 C   0  0  0  0  0  0  0  0  0  0  0  0
  132.6040  125.4090   63.9640 C   0  0  0  0  0  0  0  0  0  0  0  0
  133.7420  125.1690   64.7100 O   0  0  0  0  0  0  0  0  0  0  0  0
  133.6330  125.0530   66.1250 C   0  0  0  0  0  0  0  0  0  0  0  0
  132.5530  125.3710   62.5630 C   0  0  0  0  0  0  0  0  0  0  0  0
  131.3560  125.6270   61.8980 C   0  0  0  0  0  0  0  0  0  0  0  0
  128.0040  127.2270   62.2640 C   0  0  0  0  0  0  0  0  0  0  0  0
  128.3030  128.1270   63.3820 C   0  0  0  0  0  0  0  0  0  0  0  0
  128.5390  128.8370   64.2640 N   0  0  0  0  0  0  0  0  0  0  0  0
  126.8160  127.3590   61.5090 C   0  0  0  0  0  0  0  0  0  0  0  0
  125.5690  128.5910   61.8220 S   0  0  0  0  0  0  0  0  0  0  0  0
  125.0320  129.2600   60.2120 C   0  0  0  0  0  0  0  0  0  0  0  0
  126.0170  130.2480   59.5730 C   0  0  0  0  0  0  0  0  0  0  0  0
  126.0540  131.4240   59.9430 O   0  0  0  0  0  0  0  0  0  0  0  0
  126.7930  129.7220   58.5960 N   0  0  0  0  0  0  0  0  0  0  0  0
  127.7770  130.3550   57.8330 C   0  0  0  0  0  0  0  0  0  0  0  0
  129.0890  131.2610   58.5400 S   0  0  0  0  0  0  0  0  0  0  0  0
  129.7370  131.6490   56.9760 C   0  0  0  0  0  0  0  0  0  0  0  0
  128.9600  131.0990   55.9440 C   0  0  0  0  0  0  0  0  0  0  0  0
  127.8600  130.3540   56.4320 C   0  0  0  0  0  0  0  0  0  0  0  0
  126.9080  129.6650   55.5660 C   0  0  0  0  0  0  0  0  0  0  0  0
  126.1540  129.1190   54.8790 N   0  0  0  0  0  0  0  0  0  0  0  0
  129.3470  131.2700   54.4700 C   0  0  0  0  0  0  0  0  0  0  0  0
  130.8170  131.7290   54.3420 C   0  0  0  0  0  0  0  0  0  0  0  0
  131.1560  132.8710   55.3160 C   0  0  0  0  0  0  0  0  0  0  0  0
  131.0310  132.4320   56.7900 C   0  0  0  0  0  0  0  0  0  0  0  0
  126.5350  126.5610   60.4520 N   0  0  0  0  0  0  0  0  0  0  0  0
  125.7390  124.0760   58.9020 C   0  0  0  0  0  0  0  0  0  0  0  0
  125.3670  123.2780   57.8230 C   0  0  0  0  0  0  0  0  0  0  0  0
  1  2  1  0
  2  3  1  0
  3  4  2  0
  4  5  1  0
  5  6  2  0
  6  7  1  0
  7  8  2  0
  8  9  1  0
  9 10  1  0
 10 11  2  0
 11 12  1  0
 12 13  2  0
 13 14  1  0
 14 15  1  0
 13 16  1  0
 16 17  2  0
  9 18  2  0
 18 19  1  0
 19 20  3  0
 18 21  1  0
 21 22  1  0
 22 23  1  0
 23 24  1  0
 24 25  2  0
 24 26  1  0
 26 27  1  0
 27 28  1  0
 28 29  1  0
 29 30  2  0
 30 31  1  0
 31 32  1  0
 32 33  3  0
 30 34  1  0
 34 35  1  0
 35 36  1  0
 36 37  1  0
 21 38  2  0
  6 39  1  0
 39 40  2  0
 40  3  1  0
 38  7  1  0
 17 10  1  0
 31 27  2  0
 37 29  1  0
M  END
>  <Binding energies>  (52) 
[-9.94]

>  <Ligand effiencies>  (52) 
[-0.2424390243902439]

>  <Interactions>  (52) 
["V-B:ILE:538:CD1:9837, V-B:PRO:540:CB:9857, V-B:PRO:540:CD:9859, V-B:GLU:543:CD:9880, V-B:PRO:540:CA:9855, H-B:TYR:539:N:9842, V-B:ILE:538:CA:9832, V-B:MET:535:CE:9807, V-B:PRO:540:N:9856, H-A:TYR:484:OH:4348, V-B:ASP:366:CG:8185, V-A:PRO:540:CA:4883, V-A:TYR:539:C:4867, V-A:PRO:540:N:4884, V-A:PRO:540:CB:4885, V-B:ASP:366:CB:8184, H-B:LYS:534:NZ:9795, V-B:ILE:538:C:9830, V-B:ILE:538:CB:9834, H-B:ARG:545:NH2:9900, V-A:GLU:543:CD:4908, H-A:GLY:454:N:4050, H-A:ARG:545:NH2:4928, V-A:ARG:545:CZ:4926, V-A:PRO:540:CD:4887, V-A:HIS:456:CE1:4070, H-B:TYR:531:OH:9767, V-A:ILE:538:CA:4860, V-A:ILE:538:CB:4862, V-A:TYR:484:CE2:4346, H-A:ARG:545:NE:4924, V-A:TYR:484:CZ:4347, V-A:ARG:545:CG:4922, V-A:ILE:538:CG2:4863, V-A:ARG:545:CD:4923, V-B:ILE:538:CG1:9836, V-A:ILE:538:C:4858, V-B:MET:535:CG:9805, V-B:MET:535:CB:9804, V-B:VAL:537:C:9822"]

$$$$
RR6_Rahimova_2017
     RDKit          3D

 38 41  0  0  0  0  0  0  0  0999 V2000
  124.6610  122.6690   56.3940 C   0  0  0  0  0  0  0  0  0  0  0  0
  125.9050  122.0270   56.6330 O   0  0  0  0  0  0  0  0  0  0  0  0
  127.0380  122.7500   56.8300 C   0  0  0  0  0  0  0  0  0  0  0  0
  128.0070  122.7160   56.0650 O   0  0  0  0  0  0  0  0  0  0  0  0
  126.9950  123.5950   58.0700 C   0  0  0  0  0  0  0  0  0  0  0  0
  127.2130  123.0550   59.3460 C   0  0  0  0  0  0  0  0  0  0  0  0
  127.1590  123.8650   60.4780 C   0  0  0  0  0  0  0  0  0  0  0  0
  126.8800  125.2340   60.3520 C   0  0  0  0  0  0  0  0  0  0  0  0
  126.7750  126.1340   61.4280 N   0  0  0  0  0  0  0  0  0  0  0  0
  126.4750  127.4510   61.4160 C   0  0  0  0  0  0  0  0  0  0  0  0
  126.2220  128.1160   60.4120 O   0  0  0  0  0  0  0  0  0  0  0  0
  126.5250  128.1540   62.7770 C   0  0  0  0  0  0  0  0  0  0  0  0
  127.9910  129.2160   63.0010 S   0  0  0  0  0  0  0  0  0  0  0  0
  128.9890  129.0290   61.5380 C   0  0  0  0  0  0  0  0  0  0  0  0
  129.6890  127.8710   61.4850 N   0  0  0  0  0  0  0  0  0  0  0  0
  130.4640  127.6010   60.4040 C   0  0  0  0  0  0  0  0  0  0  0  0
  131.1580  126.2710   60.3960 C   0  0  0  0  0  0  0  0  0  0  0  0
  131.2510  125.5120   59.2190 C   0  0  0  0  0  0  0  0  0  0  0  0
  131.8830  124.2720   59.2140 C   0  0  0  0  0  0  0  0  0  0  0  0
  132.4420  123.7680   60.3890 C   0  0  0  0  0  0  0  0  0  0  0  0
  133.1220  122.4120   60.3810 C   0  0  0  0  0  0  0  0  0  0  0  0
  132.3620  124.5070   61.5670 C   0  0  0  0  0  0  0  0  0  0  0  0
  131.7300  125.7460   61.5660 C   0  0  0  0  0  0  0  0  0  0  0  0
  130.5590  128.5130   59.3480 C   0  0  0  0  0  0  0  0  0  0  0  0
  129.8470  129.7200   59.3810 C   0  0  0  0  0  0  0  0  0  0  0  0
  129.9800  130.6390   58.2110 C   0  0  0  0  0  0  0  0  0  0  0  0
  128.8570  130.9700   57.4470 C   0  0  0  0  0  0  0  0  0  0  0  0
  128.9680  131.8380   56.3640 C   0  0  0  0  0  0  0  0  0  0  0  0
  130.2010  132.3960   56.0280 C   0  0  0  0  0  0  0  0  0  0  0  0
  130.2160  133.2480   54.9400 O   0  0  0  0  0  0  0  0  0  0  0  0
  129.5100  132.8790   53.7600 C   0  0  0  0  0  0  0  0  0  0  0  0
  131.3300  132.0710   56.7950 C   0  0  0  0  0  0  0  0  0  0  0  0
  131.2150  131.2030   57.8770 C   0  0  0  0  0  0  0  0  0  0  0  0
  129.0400  129.9940   60.5130 C   0  0  0  0  0  0  0  0  0  0  0  0
  128.2920  131.2510   60.6250 C   0  0  0  0  0  0  0  0  0  0  0  0
  127.7010  132.2420   60.7120 N   0  0  0  0  0  0  0  0  0  0  0  0
  126.6800  125.7780   59.0830 C   0  0  0  0  0  0  0  0  0  0  0  0
  126.7320  124.9660   57.9520 C   0  0  0  0  0  0  0  0  0  0  0  0
  1  2  1  0
  2  3  1  0
  3  4  2  0
  3  5  1  0
  5  6  2  0
  6  7  1  0
  7  8  2  0
  8  9  1  0
  9 10  1  0
 10 11  2  0
 10 12  1  0
 12 13  1  0
 13 14  1  0
 14 15  2  0
 15 16  1  0
 16 17  1  0
 17 18  2  0
 18 19  1  0
 19 20  2  0
 20 21  1  0
 20 22  1  0
 22 23  2  0
 16 24  2  0
 24 25  1  0
 25 26  1  0
 26 27  2  0
 27 28  1  0
 28 29  2  0
 29 30  1  0
 30 31  1  0
 29 32  1  0
 32 33  2  0
 25 34  2  0
 34 35  1  0
 35 36  3  0
  8 37  1  0
 37 38  2  0
 38  5  1  0
 34 14  1  0
 23 17  1  0
 33 26  1  0
M  END
>  <Binding energies>  (53) 
[-8.9]

>  <Ligand effiencies>  (53) 
[-0.22820512820512823]

>  <Interactions>  (53) 
["V-B:ILE:538:CD1:9837, V-B:PRO:540:CB:9857, V-B:PRO:540:CD:9859, V-B:LEU:363:CD1:8161, V-B:GLU:543:CD:9880, H-B:GLU:543:OE2:9882, V-B:TYR:539:C:9839, V-B:PRO:540:CA:9855, H-B:TYR:539:N:9842, V-B:ILE:538:CG2:9835, H-B:GLU:543:OE1:9881, V-B:TYR:539:CE2:9848, V-B:PRO:540:N:9856, V-B:TYR:531:CE2:9765, V-A:ASP:366:CG:3213, V-A:ILE:369:CD1:3239, V-A:ILE:369:CG2:3237, H-A:TYR:539:N:4870, V-B:ASP:366:CG:8185, V-A:PRO:540:CA:4883, V-A:TYR:539:C:4867, V-A:PRO:540:N:4884, V-A:PRO:540:CB:4885, V-A:TYR:539:CE2:4876, V-A:GLU:543:CD:4908, V-A:PRO:540:CD:4887, V-A:ILE:538:CA:4860, V-A:ILE:538:CB:4862, V-A:ILE:538:CG2:4863, V-A:ILE:538:C:4858, V-A:TYR:539:CD2:4874"]

$$$$
RR7_Rahimova_2017
     RDKit          3D

 47 53  0  0  0  0  0  0  0  0999 V2000
  133.2440  124.0980   59.1140 C   0  0  0  0  0  0  0  0  0  0  0  0
  132.2760  124.5010   58.1500 O   0  0  0  0  0  0  0  0  0  0  0  0
  131.7580  125.7800   58.2110 C   0  0  0  0  0  0  0  0  0  0  0  0
  131.9330  126.5780   57.0820 C   0  0  0  0  0  0  0  0  0  0  0  0
  131.4410  127.8790   57.0490 C   0  0  0  0  0  0  0  0  0  0  0  0
  130.7690  128.4200   58.1550 C   0  0  0  0  0  0  0  0  0  0  0  0
  130.1780  129.8640   58.1340 C   0  0  0  0  0  0  0  0  0  0  0  0
  128.7790  129.7260   57.7980 O   0  0  0  0  0  0  0  0  0  0  0  0
  128.3830  128.8940   56.7020 C   0  0  0  0  0  0  0  0  0  0  0  0
  126.9380  128.4220   56.9280 C   0  0  1  0  0  0  0  0  0  0  0  0
  126.9660  126.9980   56.9460 O   0  0  0  0  0  0  0  0  0  0  0  0
  126.4790  126.4790   58.1500 C   0  0  1  0  0  0  0  0  0  0  0  0
  127.1750  125.2510   58.4830 N   0  0  0  0  0  0  0  0  0  0  0  0
  127.3590  124.1330   57.6880 C   0  0  0  0  0  0  0  0  0  0  0  0
  127.9900  123.1370   58.2580 N   0  0  0  0  0  0  0  0  0  0  0  0
  128.2130  123.5790   59.5340 C   0  0  0  0  0  0  0  0  0  0  0  0
  128.8320  122.9750   60.6460 C   0  0  0  0  0  0  0  0  0  0  0  0
  129.3610  121.6790   60.5030 N   0  0  0  0  0  0  0  0  0  0  0  0
  130.0020  120.9140   61.4190 C   0  0  0  0  0  0  0  0  0  0  0  0
  130.2450  121.2720   62.5740 O   0  0  0  0  0  0  0  0  0  0  0  0
  130.4550  119.5540   60.9340 C   0  0  0  0  0  0  0  0  0  0  0  0
  131.4920  119.4620   59.9930 C   0  0  0  0  0  0  0  0  0  0  0  0
  131.9280  118.2220   59.5380 C   0  0  0  0  0  0  0  0  0  0  0  0
  131.3350  117.0610   60.0240 C   0  0  0  0  0  0  0  0  0  0  0  0
  130.3080  117.1290   60.9620 C   0  0  0  0  0  0  0  0  0  0  0  0
  129.8700  118.3710   61.4170 C   0  0  0  0  0  0  0  0  0  0  0  0
  128.8980  123.6610   61.8270 N   0  0  0  0  0  0  0  0  0  0  0  0
  128.3550  124.9060   61.8680 C   0  0  0  0  0  0  0  0  0  0  0  0
  127.7410  125.5810   60.8600 N   0  0  0  0  0  0  0  0  0  0  0  0
  127.6970  124.8880   59.7140 C   0  0  0  0  0  0  0  0  0  0  0  0
  126.6390  127.6050   59.1650 C   0  0  0  0  0  0  0  0  0  0  0  0
  126.3350  128.8060   58.2870 C   0  0  2  0  0  0  0  0  0  0  0  0
  124.9440  129.0670   58.2080 O   0  0  0  0  0  0  0  0  0  0  0  0
  130.2440  130.5490   59.5250 C   0  0  0  0  0  0  0  0  0  0  0  0
  131.4840  130.7670   60.1480 C   0  0  0  0  0  0  0  0  0  0  0  0
  131.5540  131.3680   61.4010 C   0  0  0  0  0  0  0  0  0  0  0  0
  130.3840  131.7580   62.0450 C   0  0  0  0  0  0  0  0  0  0  0  0
  129.1450  131.5510   61.4460 C   0  0  0  0  0  0  0  0  0  0  0  0
  129.0750  130.9490   60.1930 C   0  0  0  0  0  0  0  0  0  0  0  0
  130.8530  130.8570   57.1460 C   0  0  0  0  0  0  0  0  0  0  0  0
  130.0720  131.6380   56.2790 C   0  0  0  0  0  0  0  0  0  0  0  0
  130.6670  132.5220   55.3850 C   0  0  0  0  0  0  0  0  0  0  0  0
  132.0540  132.6290   55.3420 C   0  0  0  0  0  0  0  0  0  0  0  0
  132.8480  131.8550   56.1820 C   0  0  0  0  0  0  0  0  0  0  0  0
  132.2510  130.9710   57.0760 C   0  0  0  0  0  0  0  0  0  0  0  0
  130.5840  127.6080   59.2840 C   0  0  0  0  0  0  0  0  0  0  0  0
  131.0750  126.3060   59.3170 C   0  0  0  0  0  0  0  0  0  0  0  0
  1  2  1  0
  2  3  1  0
  3  4  2  0
  4  5  1  0
  5  6  2  0
  6  7  1  0
  7  8  1  0
  8  9  1  0
 10  9  1  1
 10 11  1  0
 11 12  1  0
 12 13  1  1
 13 14  1  0
 14 15  2  0
 15 16  1  0
 16 17  2  0
 17 18  1  0
 18 19  1  0
 19 20  2  0
 19 21  1  0
 21 22  2  0
 22 23  1  0
 23 24  2  0
 24 25  1  0
 25 26  2  0
 17 27  1  0
 27 28  2  0
 28 29  1  0
 29 30  2  0
 12 31  1  0
 31 32  1  0
 32 33  1  6
  7 34  1  0
 34 35  2  0
 35 36  1  0
 36 37  2  0
 37 38  1  0
 38 39  2  0
  7 40  1  0
 40 41  2  0
 41 42  1  0
 42 43  2  0
 43 44  1  0
 44 45  2  0
  6 46  1  0
 46 47  2  0
 47  3  1  0
 32 10  1  0
 39 34  1  0
 45 40  1  0
 30 13  1  0
 30 16  1  0
 26 21  1  0
M  END
>  <Binding energies>  (54) 
[-9.87]

>  <Ligand effiencies>  (54) 
[-0.2014285714285714]

>  <Interactions>  (54) 
["V-B:GLU:543:CD:9880, V-B:TYR:539:C:9839, V-B:TYR:539:CE2:9848, V-B:TYR:539:CD2:9846, V-B:ALA:541:CB:9864, H-B:ASP:366:OD2:8187, V-A:SER:385:CB:3409, V-A:PRO:482:CB:4326, V-A:LEU:475:CD1:4258, H-A:TYR:484:OH:4348, V-A:ASP:366:CA:3210, V-A:ASP:366:CG:3213, V-B:TYR:539:CG:9844, V-A:LEU:475:CD2:4259, V-A:LEU:475:CG:4257, V-A:ASP:366:CB:3212, V-A:ILE:369:CG2:3237, V-A:PRO:482:CG:4327, V-B:ASP:366:CG:8185, V-A:TYR:531:CE2:4793, V-A:PRO:540:CA:4883, V-A:PRO:540:CB:4885, V-A:LEU:363:CD1:3189, V-A:GLU:543:CD:4908, V-A:ALA:541:CB:4892, V-A:PRO:540:CD:4887, V-A:GLU:543:CG:4907, H-B:TYR:539:OH:9850, H-B:TYR:531:OH:9767, V-A:ILE:538:CA:4860, V-A:ILE:538:CB:4862, V-A:ILE:538:CG2:4863, V-B:TYR:539:CB:9843, H-B:TYR:539:O:9840, V-A:ALA:541:CA:4890"]

$$$$
RR8_A_Rahimova_2017
     RDKit          3D

 42 46  0  0  0  0  0  0  0  0999 V2000
  131.5030  126.9940   56.4390 O   0  0  0  0  0  0  0  0  0  0  0  0
  130.9330  128.0810   56.5760 C   0  0  0  0  0  0  0  0  0  0  0  0
  129.9880  128.5730   55.7150 O   0  0  0  0  0  0  0  0  0  0  0  0
  128.6510  128.2300   55.9560 C   0  0  1  0  0  0  0  0  0  0  0  0
  128.5020  127.5600   57.1750 O   0  0  0  0  0  0  0  0  0  0  0  0
  127.3060  127.9450   57.8470 C   0  0  2  0  0  0  0  0  0  0  0  0
  126.4780  126.6820   58.1370 C   0  0  0  0  0  0  0  0  0  0  0  0
  127.3080  125.7280   58.7850 O   0  0  0  0  0  0  0  0  0  0  0  0
  126.6480  124.5100   59.1050 C   0  0  0  0  0  0  0  0  0  0  0  0
  126.3180  123.7510   57.8290 C   0  0  0  0  0  0  0  0  0  0  0  0
  124.9980  123.3760   57.5630 C   0  0  0  0  0  0  0  0  0  0  0  0
  124.6920  122.6860   56.3920 C   0  0  0  0  0  0  0  0  0  0  0  0
  125.7070  122.3760   55.4880 C   0  0  0  0  0  0  0  0  0  0  0  0
  127.0240  122.7500   55.7430 C   0  0  0  0  0  0  0  0  0  0  0  0
  127.3300  123.4410   56.9130 C   0  0  0  0  0  0  0  0  0  0  0  0
  126.6580  128.9550   56.8910 C   0  0  1  0  0  0  0  0  0  0  0  0
  126.0440  130.0510   57.5650 O   0  0  0  0  0  0  0  0  0  0  0  0
  126.0820  130.0010   58.9870 C   0  0  0  0  0  0  0  0  0  0  0  0
  126.9800  131.1070   59.5220 C   0  0  0  0  0  0  0  0  0  0  0  0
  128.1180  131.4860   58.8030 C   0  0  0  0  0  0  0  0  0  0  0  0
  128.9490  132.4900   59.2900 C   0  0  0  0  0  0  0  0  0  0  0  0
  128.6420  133.1130   60.4990 C   0  0  0  0  0  0  0  0  0  0  0  0
  127.5150  132.7370   61.2260 C   0  0  0  0  0  0  0  0  0  0  0  0
  126.6850  131.7310   60.7390 C   0  0  0  0  0  0  0  0  0  0  0  0
  127.8380  129.5070   56.1130 C   0  0  2  0  0  0  0  0  0  0  0  0
  127.4060  130.0670   54.8760 O   0  0  0  0  0  0  0  0  0  0  0  0
  127.5880  131.4720   54.7380 C   0  0  0  0  0  0  0  0  0  0  0  0
  129.0600  131.8220   54.8890 C   0  0  0  0  0  0  0  0  0  0  0  0
  129.5090  132.5060   56.0240 C   0  0  0  0  0  0  0  0  0  0  0  0
  130.8590  132.8140   56.1620 C   0  0  0  0  0  0  0  0  0  0  0  0
  131.7590  132.4360   55.1680 C   0  0  0  0  0  0  0  0  0  0  0  0
  131.3220  131.7500   54.0380 C   0  0  0  0  0  0  0  0  0  0  0  0
  129.9710  131.4400   53.8980 C   0  0  0  0  0  0  0  0  0  0  0  0
  131.2030  129.0050   57.7280 C   0  0  0  0  0  0  0  0  0  0  0  0
  132.0720  130.1020   57.6110 C   0  0  0  0  0  0  0  0  0  0  0  0
  132.3020  130.9400   58.6990 C   0  0  0  0  0  0  0  0  0  0  0  0
  131.6750  130.7040   59.9290 C   0  0  0  0  0  0  0  0  0  0  0  0
  131.9200  131.5990   61.0860 N   0  0  0  0  0  0  0  0  0  0  0  0
  131.0090  131.7910   61.8850 O   0  0  0  0  0  0  0  0  0  0  0  0
  133.0280  132.1150   61.2050 O   0  0  0  0  0  0  0  0  0  0  0  0
  130.8110  129.6080   60.0440 C   0  0  0  0  0  0  0  0  0  0  0  0
  130.5780  128.7690   58.9590 C   0  0  0  0  0  0  0  0  0  0  0  0
  1  2  2  0
  2  3  1  0
  4  3  1  1
  4  5  1  0
  5  6  1  0
  6  7  1  6
  7  8  1  0
  8  9  1  0
  9 10  1  0
 10 11  2  0
 11 12  1  0
 12 13  2  0
 13 14  1  0
 14 15  2  0
  6 16  1  0
 16 17  1  1
 17 18  1  0
 18 19  1  0
 19 20  2  0
 20 21  1  0
 21 22  2  0
 22 23  1  0
 23 24  2  0
 16 25  1  0
 25 26  1  6
 26 27  1  0
 27 28  1  0
 28 29  2  0
 29 30  1  0
 30 31  2  0
 31 32  1  0
 32 33  2  0
  2 34  1  0
 34 35  2  0
 35 36  1  0
 36 37  2  0
 37 38  1  0
 38 39  2  0
 38 40  1  0
 37 41  1  0
 41 42  2  0
 25  4  1  0
 33 28  1  0
 42 34  1  0
 15 10  1  0
 24 19  1  0
M  CHG  2  38   1  40  -1
M  END
>  <Binding energies>  (55) 
[-10.18]

>  <Ligand effiencies>  (55) 
[-0.24238095238095236]

>  <Interactions>  (55) 
["V-B:TYR:539:CD1:9845, V-B:ILE:538:CD1:9837, V-B:PRO:540:CB:9857, V-B:PRO:540:CD:9859, V-B:LEU:363:CD1:8161, V-B:PRO:540:CA:9855, V-B:ILE:538:CG2:9835, V-B:ILE:538:CA:9832, V-B:MET:535:CE:9807, V-B:TYR:539:CE1:9847, V-B:TYR:531:CE2:9765, V-A:ASP:366:CB:3212, V-A:TYR:531:CZ:4794, V-A:TYR:539:CZ:4877, V-A:TYR:531:CE2:4793, V-A:PRO:540:CA:4883, V-A:TYR:539:C:4867, V-A:PRO:540:N:4884, V-A:PRO:540:CB:4885, V-A:TYR:539:CE2:4876, H-B:LYS:534:NZ:9795, V-A:LEU:363:CD1:3189, V-B:ILE:538:C:9830, V-B:ILE:538:CB:9834, H-A:ALA:541:N:4891, V-A:ALA:541:CB:4892, V-A:PRO:540:CD:4887, V-A:ILE:538:CB:4862, V-A:ILE:538:CG2:4863, H-A:TYR:531:OH:4795, V-A:TYR:539:CD2:4874, V-A:PRO:540:C:4881, V-A:TYR:539:CA:4869"]

$$$$
RR8_B_Rahimova_2017
     RDKit          3D

 42 46  0  0  0  0  0  0  0  0999 V2000
  132.2210  126.5630   55.9120 O   0  0  0  0  0  0  0  0  0  0  0  0
  131.5290  126.2960   56.8990 C   0  0  0  0  0  0  0  0  0  0  0  0
  130.1790  126.5040   56.9750 O   0  0  0  0  0  0  0  0  0  0  0  0
  129.7250  127.7420   57.4650 C   0  0  2  0  0  0  0  0  0  0  0  0
  129.1090  127.6140   58.7160 O   0  0  0  0  0  0  0  0  0  0  0  0
  127.7030  127.4090   58.5860 C   0  0  2  0  0  0  0  0  0  0  0  0
  127.3120  126.0850   59.2660 C   0  0  0  0  0  0  0  0  0  0  0  0
  126.0450  125.6640   58.7760 O   0  0  0  0  0  0  0  0  0  0  0  0
  125.8030  124.2680   58.8660 C   0  0  0  0  0  0  0  0  0  0  0  0
  126.1140  123.6190   57.5260 C   0  0  0  0  0  0  0  0  0  0  0  0
  127.4180  123.6540   57.0230 C   0  0  0  0  0  0  0  0  0  0  0  0
  127.7050  123.0830   55.7860 C   0  0  0  0  0  0  0  0  0  0  0  0
  126.6850  122.4760   55.0550 C   0  0  0  0  0  0  0  0  0  0  0  0
  125.3850  122.4310   55.5520 C   0  0  0  0  0  0  0  0  0  0  0  0
  125.0970  123.0050   56.7880 C   0  0  0  0  0  0  0  0  0  0  0  0
  127.4480  127.4750   57.0750 C   0  0  1  0  0  0  0  0  0  0  0  0
  126.1820  128.0920   56.8230 O   0  0  0  0  0  0  0  0  0  0  0  0
  126.1970  129.4520   56.3830 C   0  0  0  0  0  0  0  0  0  0  0  0
  125.5520  130.3950   57.3940 C   0  0  0  0  0  0  0  0  0  0  0  0
  124.1650  130.5700   57.4030 C   0  0  0  0  0  0  0  0  0  0  0  0
  123.5760  131.4060   58.3480 C   0  0  0  0  0  0  0  0  0  0  0  0
  124.3760  132.0670   59.2780 C   0  0  0  0  0  0  0  0  0  0  0  0
  125.7590  131.9010   59.2720 C   0  0  0  0  0  0  0  0  0  0  0  0
  126.3480  131.0620   58.3290 C   0  0  0  0  0  0  0  0  0  0  0  0
  128.6290  128.2820   56.5480 C   0  0  2  0  0  0  0  0  0  0  0  0
  128.8450  128.0030   55.1670 O   0  0  0  0  0  0  0  0  0  0  0  0
  129.8970  128.7300   54.5510 C   0  0  0  0  0  0  0  0  0  0  0  0
  129.7460  130.1940   54.9250 C   0  0  0  0  0  0  0  0  0  0  0  0
  130.6280  130.7860   55.8340 C   0  0  0  0  0  0  0  0  0  0  0  0
  130.4680  132.1240   56.1840 C   0  0  0  0  0  0  0  0  0  0  0  0
  129.4280  132.8650   55.6270 C   0  0  0  0  0  0  0  0  0  0  0  0
  128.5450  132.2810   54.7190 C   0  0  0  0  0  0  0  0  0  0  0  0
  128.7050  130.9440   54.3680 C   0  0  0  0  0  0  0  0  0  0  0  0
  132.0940  125.7330   58.1710 C   0  0  0  0  0  0  0  0  0  0  0  0
  131.6340  126.1440   59.4300 C   0  0  0  0  0  0  0  0  0  0  0  0
  132.1830  125.6120   60.5920 C   0  0  0  0  0  0  0  0  0  0  0  0
  133.2120  124.6650   60.5260 C   0  0  0  0  0  0  0  0  0  0  0  0
  133.8140  124.1180   61.7670 N   0  0  0  0  0  0  0  0  0  0  0  0
  134.0080  124.8790   62.7110 O   0  0  0  0  0  0  0  0  0  0  0  0
  134.0930  122.9220   61.8080 O   0  0  0  0  0  0  0  0  0  0  0  0
  133.6670  124.2500   59.2680 C   0  0  0  0  0  0  0  0  0  0  0  0
  133.1140  124.7760   58.1050 C   0  0  0  0  0  0  0  0  0  0  0  0
  1  2  2  0
  2  3  1  0
  4  3  1  6
  4  5  1  0
  5  6  1  0
  6  7  1  6
  7  8  1  0
  8  9  1  0
  9 10  1  0
 10 11  2  0
 11 12  1  0
 12 13  2  0
 13 14  1  0
 14 15  2  0
  6 16  1  0
 16 17  1  1
 17 18  1  0
 18 19  1  0
 19 20  2  0
 20 21  1  0
 21 22  2  0
 22 23  1  0
 23 24  2  0
 16 25  1  0
 25 26  1  6
 26 27  1  0
 27 28  1  0
 28 29  2  0
 29 30  1  0
 30 31  2  0
 31 32  1  0
 32 33  2  0
  2 34  1  0
 34 35  2  0
 35 36  1  0
 36 37  2  0
 37 38  1  0
 38 39  2  0
 38 40  1  0
 37 41  1  0
 41 42  2  0
 25  4  1  0
 33 28  1  0
 42 34  1  0
 15 10  1  0
 24 19  1  0
M  CHG  2  38   1  40  -1
M  END
>  <Binding energies>  (56) 
[-9.95]

>  <Ligand effiencies>  (56) 
[-0.2369047619047619]

>  <Interactions>  (56) 
["V-B:TYR:539:CD1:9845, V-B:ILE:538:CD1:9837, V-B:PRO:540:CB:9857, V-B:PRO:540:CD:9859, V-B:LEU:363:CD1:8161, V-B:ILE:538:CG2:9835, V-B:TYR:539:CE2:9848, V-B:ILE:538:CA:9832, V-B:MET:535:CE:9807, V-B:TYR:539:CZ:9849, V-B:TYR:539:CE1:9847, V-B:TYR:531:CE2:9765, V-A:ASP:366:CA:3210, V-A:ASP:366:CG:3213, V-B:TYR:539:CG:9844, V-A:ILE:369:CD1:3239, V-A:ASP:366:C:3208, V-A:ASP:366:CB:3212, V-A:ILE:369:CB:3236, V-A:ILE:369:CG2:3237, V-A:TYR:539:CE1:4875, V-A:TYR:531:CZ:4794, V-B:TYR:531:CE1:9764, V-A:TYR:539:CZ:4877, V-A:TYR:539:C:4867, V-A:PRO:540:N:4884, V-B:ASP:366:CB:8184, V-A:MET:535:CE:4835, V-A:TYR:539:CE2:4876, V-B:ILE:538:C:9830, V-B:ILE:538:CB:9834, H-A:GLY:454:N:4050, H-A:ARG:545:NH1:4927, H-A:ARG:545:NH2:4928, H-B:TYR:539:OH:9850, H-B:TYR:531:OH:9767, H-A:TYR:531:OH:4795, V-A:TYR:539:CD2:4874, V-A:TYR:539:CA:4869, V-A:TYR:539:CG:4872, V-A:TYR:539:CD1:4873, V-B:ASP:366:C:8180, V-B:ASP:366:CA:8182, V-B:ILE:369:CG2:8209, V-B:ILE:369:CB:8208"]

$$$$
RR9_Rahimova_2017
     RDKit          3D

 36 40  0  0  0  0  0  0  0  0999 V2000
  124.2770  133.5390   60.9000 C   0  0  0  0  0  0  0  0  0  0  0  0
  123.6290  132.9660   62.1650 C   0  0  0  0  0  0  0  0  0  0  0  0
  124.6570  132.6040   63.0820 O   0  0  0  0  0  0  0  0  0  0  0  0
  125.3120  131.3980   62.9240 C   0  0  0  0  0  0  0  0  0  0  0  0
  126.5930  131.4520   62.3780 C   0  0  0  0  0  0  0  0  0  0  0  0
  127.3290  130.2880   62.1800 C   0  0  0  0  0  0  0  0  0  0  0  0
  126.8020  129.0340   62.5240 C   0  0  0  0  0  0  0  0  0  0  0  0
  127.5890  127.7750   62.3080 C   0  0  0  0  0  0  0  0  0  0  0  0
  127.0040  126.6280   61.7490 C   0  0  0  0  0  0  0  0  0  0  0  0
  127.7490  125.4540   61.5370 C   0  0  0  0  0  0  0  0  0  0  0  0
  127.0910  124.2930   60.8410 C   0  0  0  0  0  0  0  0  0  0  0  0
  127.7540  123.3100   60.5110 O   0  0  0  0  0  0  0  0  0  0  0  0
  125.7720  124.4270   60.5980 N   0  0  0  0  0  0  0  0  0  0  0  0
  124.9430  123.4980   59.8240 C   0  0  0  0  0  0  0  0  0  0  0  0
  124.6680  123.9880   58.3840 C   0  0  0  0  0  0  0  0  0  0  0  0
  125.6200  123.4340   57.3300 C   0  0  0  0  0  0  0  0  0  0  0  0
  125.1240  122.9830   56.1030 C   0  0  0  0  0  0  0  0  0  0  0  0
  126.0000  122.5100   55.1290 C   0  0  0  0  0  0  0  0  0  0  0  0
  127.3680  122.4840   55.3880 C   0  0  0  0  0  0  0  0  0  0  0  0
  127.8700  122.9280   56.6100 C   0  0  0  0  0  0  0  0  0  0  0  0
  126.9940  123.4020   57.5830 C   0  0  0  0  0  0  0  0  0  0  0  0
  129.1040  125.4880   61.9500 C   0  0  0  0  0  0  0  0  0  0  0  0
  130.2470  124.6070   62.0010 C   0  0  0  0  0  0  0  0  0  0  0  0
  130.3450  123.1600   61.6480 C   0  0  0  0  0  0  0  0  0  0  0  0
  129.4950  122.2280   62.2530 C   0  0  0  0  0  0  0  0  0  0  0  0
  129.6000  120.8770   61.9340 C   0  0  0  0  0  0  0  0  0  0  0  0
  130.5520  120.4520   61.0060 C   0  0  0  0  0  0  0  0  0  0  0  0
  130.6790  118.9760   60.6720 C   0  0  0  0  0  0  0  0  0  0  0  0
  131.4030  121.3780   60.4010 C   0  0  0  0  0  0  0  0  0  0  0  0
  131.2960  122.7290   60.7190 C   0  0  0  0  0  0  0  0  0  0  0  0
  131.3010  125.2460   62.4560 N   0  0  0  0  0  0  0  0  0  0  0  0
  130.9240  126.4950   62.7700 N   0  0  0  0  0  0  0  0  0  0  0  0
  129.5920  126.6990   62.4950 C   0  0  0  0  0  0  0  0  0  0  0  0
  128.8960  127.8190   62.6900 N   0  0  0  0  0  0  0  0  0  0  0  0
  125.5120  128.9880   63.0710 C   0  0  0  0  0  0  0  0  0  0  0  0
  124.7740  130.1520   63.2720 C   0  0  0  0  0  0  0  0  0  0  0  0
  1  2  1  0
  2  3  1  0
  3  4  1  0
  4  5  2  0
  5  6  1  0
  6  7  2  0
  7  8  1  0
  8  9  2  0
  9 10  1  0
 10 11  1  0
 11 12  2  0
 11 13  1  0
 13 14  1  0
 14 15  1  0
 15 16  1  0
 16 17  2  0
 17 18  1  0
 18 19  2  0
 19 20  1  0
 20 21  2  0
 10 22  2  0
 22 23  1  0
 23 24  1  0
 24 25  2  0
 25 26  1  0
 26 27  2  0
 27 28  1  0
 27 29  1  0
 29 30  2  0
 23 31  2  0
 31 32  1  0
 32 33  1  0
 33 34  2  0
  7 35  1  0
 35 36  2  0
 36  4  1  0
 34  8  1  0
 21 16  1  0
 33 22  1  0
 30 24  1  0
M  END
>  <Binding energies>  (57) 
[-9.56]

>  <Ligand effiencies>  (57) 
[-0.25157894736842107]

>  <Interactions>  (57) 
["V-B:TYR:539:CD1:9845, V-B:ILE:538:CD1:9837, V-B:PRO:540:CB:9857, V-B:LEU:363:CD1:8161, V-B:GLU:543:CD:9880, V-B:PRO:540:CA:9855, V-B:ILE:538:CG2:9835, H-B:ASP:366:OD1:8186, H-B:GLU:543:OE1:9881, V-B:TYR:539:CE2:9848, V-B:TYR:539:CD2:9846, V-B:ILE:538:CA:9832, V-B:MET:535:CE:9807, V-B:ALA:541:CB:9864, V-B:TYR:539:CZ:9849, H-B:ASP:366:OD2:8187, V-B:TYR:539:CE1:9847, V-B:TYR:531:CE2:9765, H-A:TYR:484:OH:4348, V-B:TYR:539:CG:9844, V-A:LEU:475:CD2:4259, V-B:TYR:531:CZ:9766, V-B:ASP:366:CG:8185, V-B:ILE:538:C:9830, V-B:ILE:538:CB:9834, V-A:GLU:543:CD:4908, H-A:GLU:543:OE1:4909, H-A:GLU:543:OE2:4910, V-A:TYR:484:CZ:4347, V-B:LEU:475:CD2:9231, V-B:ARG:545:CZ:9898, V-B:ILE:369:CD1:8211, V-B:GLY:454:CA:9021, V-B:ILE:369:CG2:8209, H-B:TYR:484:OH:9320, V-A:TYR:484:CE1:4345, H-B:GLY:454:N:9022"]

$$$$
