1a_Ghoteimi_2023
     RDKit          3D

 67 70  0  0  0  0  0  0  0  0999 V2000
  132.4680  130.9350   58.6920 C   0  0  0  0  0  0  0  0  0  0  0  0
  133.1870  130.9170   57.3400 C   0  0  0  0  0  0  0  0  0  0  0  0
  132.9490  132.1460   56.6640 O   0  0  0  0  0  0  0  0  0  0  0  0
  132.2860  132.1780   55.4790 C   0  0  0  0  0  0  0  0  0  0  0  0
  132.8200  132.4850   54.4090 O   0  0  0  0  0  0  0  0  0  0  0  0
  130.8390  131.7970   55.6000 C   0  0  0  0  0  0  0  0  0  0  0  0
  130.2290  130.9060   54.7050 C   0  0  0  0  0  0  0  0  0  0  0  0
  128.8830  130.5740   54.8400 C   0  0  0  0  0  0  0  0  0  0  0  0
  128.1220  131.1270   55.8810 C   0  0  0  0  0  0  0  0  0  0  0  0
  126.7570  130.8660   56.1080 N   0  0  0  0  0  0  0  0  0  0  0  0
  126.0080  129.8010   55.7490 C   0  0  0  0  0  0  0  0  0  0  0  0
  126.4150  128.8120   55.1390 O   0  0  0  0  0  0  0  0  0  0  0  0
  124.5370  129.8640   56.1580 C   0  0  0  0  0  0  0  0  0  0  0  0
  124.3350  130.5150   57.8420 S   0  0  0  0  0  0  0  0  0  0  0  0
  125.1210  129.3430   58.9240 C   0  0  0  0  0  0  0  0  0  0  0  0
  125.4080  128.1580   58.3350 N   0  0  0  0  0  0  0  0  0  0  0  0
  126.0150  127.1770   59.0530 C   0  0  0  0  0  0  0  0  0  0  0  0
  126.3190  125.9000   58.3230 C   0  0  0  0  0  0  0  0  0  0  0  0
  127.3810  125.8180   57.4070 C   0  0  0  0  0  0  0  0  0  0  0  0
  127.6610  124.6330   56.7330 C   0  0  0  0  0  0  0  0  0  0  0  0
  126.8890  123.4950   56.9500 C   0  0  0  0  0  0  0  0  0  0  0  0
  127.2400  122.3630   56.2390 O   0  0  0  0  0  0  0  0  0  0  0  0
  127.1320  122.3730   54.8200 C   0  0  0  0  0  0  0  0  0  0  0  0
  125.8230  123.5620   57.8570 C   0  0  0  0  0  0  0  0  0  0  0  0
  125.5460  124.7480   58.5290 C   0  0  0  0  0  0  0  0  0  0  0  0
  126.3460  127.3790   60.3980 C   0  0  0  0  0  0  0  0  0  0  0  0
  126.0360  128.5870   61.0360 C   0  0  0  0  0  0  0  0  0  0  0  0
  126.3890  128.7200   62.4820 C   0  0  0  0  0  0  0  0  0  0  0  0
  127.7230  128.6790   62.9010 C   0  0  0  0  0  0  0  0  0  0  0  0
  128.0450  128.8190   64.2480 C   0  0  0  0  0  0  0  0  0  0  0  0
  127.0440  129.0100   65.2010 C   0  0  0  0  0  0  0  0  0  0  0  0
  127.4580  129.1390   66.5120 O   0  0  0  0  0  0  0  0  0  0  0  0
  128.5780  128.3850   66.9640 C   0  0  0  0  0  0  0  0  0  0  0  0
  125.7050  129.0600   64.7830 C   0  0  0  0  0  0  0  0  0  0  0  0
  125.3850  128.9190   63.4350 C   0  0  0  0  0  0  0  0  0  0  0  0
  125.4080  129.6070   60.2810 C   0  0  0  0  0  0  0  0  0  0  0  0
  125.0730  130.8980   60.8900 C   0  0  0  0  0  0  0  0  0  0  0  0
  124.8090  131.9170   61.3710 N   0  0  0  0  0  0  0  0  0  0  0  0
  128.7250  132.0170   56.7700 C   0  0  0  0  0  0  0  0  0  0  0  0
  130.0710  132.3480   56.6340 C   0  0  0  0  0  0  0  0  0  0  0  0
  133.2112  130.9164   59.5028 H   0  0  0  0  0  0  0  0  0  0  0  0
  131.8607  131.8486   58.7722 H   0  0  0  0  0  0  0  0  0  0  0  0
  131.8157  130.0529   58.7722 H   0  0  0  0  0  0  0  0  0  0  0  0
  134.2677  130.7892   57.5003 H   0  0  0  0  0  0  0  0  0  0  0  0
  132.8072  130.0827   56.7320 H   0  0  0  0  0  0  0  0  0  0  0  0
  130.8194  130.4650   53.8883 H   0  0  0  0  0  0  0  0  0  0  0  0
  128.4157  129.8768   54.1290 H   0  0  0  0  0  0  0  0  0  0  0  0
  126.2870  131.5760   56.6510 H   0  0  0  0  0  0  0  0  0  0  0  0
  123.9995  130.5184   55.4560 H   0  0  0  0  0  0  0  0  0  0  0  0
  124.1305  128.8421   56.1344 H   0  0  0  0  0  0  0  0  0  0  0  0
  128.0022  126.7061   57.2192 H   0  0  0  0  0  0  0  0  0  0  0  0
  128.4998  124.5952   56.0224 H   0  0  0  0  0  0  0  0  0  0  0  0
  126.0745  122.4709   54.5334 H   0  0  0  0  0  0  0  0  0  0  0  0
  127.7018  123.2222   54.4149 H   0  0  0  0  0  0  0  0  0  0  0  0
  127.5362  121.4336   54.4149 H   0  0  0  0  0  0  0  0  0  0  0  0
  125.2021  122.6723   58.0385 H   0  0  0  0  0  0  0  0  0  0  0  0
  124.7040  124.7831   59.2360 H   0  0  0  0  0  0  0  0  0  0  0  0
  126.8545  126.5814   60.9595 H   0  0  0  0  0  0  0  0  0  0  0  0
  128.5236  128.5350   62.1605 H   0  0  0  0  0  0  0  0  0  0  0  0
  129.0979  128.7787   64.5639 H   0  0  0  0  0  0  0  0  0  0  0  0
  128.5933  128.3747   68.0638 H   0  0  0  0  0  0  0  0  0  0  0  0
  128.5014  127.3539   66.5887 H   0  0  0  0  0  0  0  0  0  0  0  0
  129.5046  128.8439   66.5887 H   0  0  0  0  0  0  0  0  0  0  0  0
  124.9053  129.2111   65.5230 H   0  0  0  0  0  0  0  0  0  0  0  0
  124.3330  128.9646   63.1169 H   0  0  0  0  0  0  0  0  0  0  0  0
  128.1332  132.4605   57.5843 H   0  0  0  0  0  0  0  0  0  0  0  0
  130.5350  133.0480   57.3445 H   0  0  0  0  0  0  0  0  0  0  0  0
  1  2  1  0
  2  3  1  0
  3  4  1  0
  4  5  2  0
  4  6  1  0
  6  7  2  0
  7  8  1  0
  8  9  2  0
  9 10  1  0
 10 11  1  0
 11 12  2  0
 11 13  1  0
 13 14  1  0
 14 15  1  0
 15 16  2  0
 16 17  1  0
 17 18  1  0
 18 19  2  0
 19 20  1  0
 20 21  2  0
 21 22  1  0
 22 23  1  0
 21 24  1  0
 24 25  2  0
 17 26  2  0
 26 27  1  0
 27 28  1  0
 28 29  2  0
 29 30  1  0
 30 31  2  0
 31 32  1  0
 32 33  1  0
 31 34  1  0
 34 35  2  0
 27 36  2  0
 36 37  1  0
 37 38  3  0
  9 39  1  0
 39 40  2  0
 40  6  1  0
 36 15  1  0
 25 18  1  0
 35 28  1  0
  1 41  1  0
  1 42  1  0
  1 43  1  0
  2 44  1  0
  2 45  1  0
  7 46  1  0
  8 47  1  0
 10 48  1  0
 13 49  1  0
 13 50  1  0
 19 51  1  0
 20 52  1  0
 23 53  1  0
 23 54  1  0
 23 55  1  0
 24 56  1  0
 25 57  1  0
 26 58  1  0
 29 59  1  0
 30 60  1  0
 33 61  1  0
 33 62  1  0
 33 63  1  0
 34 64  1  0
 35 65  1  0
 39 66  1  0
 40 67  1  0
M  END
>  <Binding energies>  (1) 
[-10.08]

>  <Ligand effiencies>  (1) 
[-0.24585365853658536]

>  <Interactions>  (1) 
["V-B:TYR:539:CD1:9845, V-B:ILE:538:CD1:9837, V-B:PRO:540:CB:9857, V-B:PRO:540:CA:9855, H-B:TYR:539:N:9842, V-B:ILE:538:CA:9832, V-B:MET:535:CE:9807, V-B:TYR:539:CE1:9847, V-B:TYR:531:CZ:9766, V-A:ASP:366:CB:3212, V-A:TYR:539:CE1:4875, V-A:TYR:531:CZ:4794, V-B:TYR:531:CE1:9764, V-B:ASP:366:CG:8185, V-A:TYR:539:CZ:4877, V-A:TYR:531:CE2:4793, V-A:PRO:540:CA:4883, V-A:TYR:539:C:4867, V-A:PRO:540:N:4884, V-A:PRO:540:CB:4885, V-B:ASP:366:CB:8184, V-A:TYR:539:CE2:4876, H-B:LYS:534:NZ:9795, V-A:LEU:363:CD1:3189, V-B:ILE:538:C:9830, V-A:GLU:543:CD:4908, V-A:LEU:363:CA:3185, V-A:GLU:543:CG:4907, H-B:TYR:531:OH:9767, V-A:ILE:538:CB:4862, V-A:ILE:538:CG2:4863, H-A:TYR:531:OH:4795, H-A:TYR:539:OH:4878, V-A:GLU:543:CB:4906, V-B:ARG:545:CZ:9898, V-B:HIS:456:CE1:9042, V-A:TYR:539:CD1:4873, V-B:TYR:531:CD1:9762, H-B:TYR:484:OH:9320, V-B:VAL:537:C:9822"]

$$$$
1a_Grossjean_2025
     RDKit          3D

 45 46  0  0  0  0  0  0  0  0999 V2000
  126.1110  122.7720   55.0830 C   0  0  0  0  0  0  0  0  0  0  0  0
  125.6070  122.4810   56.4990 C   0  0  0  0  0  0  0  0  0  0  0  0
  126.6820  122.0020   57.2960 O   0  0  0  0  0  0  0  0  0  0  0  0
  127.2260  122.7720   58.2740 C   0  0  0  0  0  0  0  0  0  0  0  0
  127.6230  122.3210   59.3530 O   0  0  0  0  0  0  0  0  0  0  0  0
  127.2820  124.2300   57.9190 C   0  0  0  0  0  0  0  0  0  0  0  0
  128.2240  124.6690   56.9790 C   0  0  0  0  0  0  0  0  0  0  0  0
  128.3030  126.0150   56.6320 C   0  0  0  0  0  0  0  0  0  0  0  0
  127.4470  126.9490   57.2170 C   0  0  0  0  0  0  0  0  0  0  0  0
  127.6170  128.2820   56.7940 N   0  0  0  0  0  0  0  0  0  0  0  0
  127.1670  128.9040   55.6850 C   0  0  0  0  0  0  0  0  0  0  0  0
  126.4870  128.3850   54.7980 O   0  0  0  0  0  0  0  0  0  0  0  0
  127.5560  130.3790   55.5570 C   0  0  0  0  0  0  0  0  0  0  0  0
  129.1240  130.5990   54.6640 S   0  0  0  0  0  0  0  0  0  0  0  0
  130.4370  130.1290   55.7680 C   0  0  0  0  0  0  0  0  0  0  0  0
  130.4440  128.8090   56.0810 N   0  0  0  0  0  0  0  0  0  0  0  0
  131.4000  128.3440   56.9190 C   0  0  0  0  0  0  0  0  0  0  0  0
  131.3360  126.8600   57.2330 C   0  0  0  0  0  0  0  0  0  0  0  0
  132.3840  129.1630   57.4670 C   0  0  0  0  0  0  0  0  0  0  0  0
  132.3990  130.5220   57.1350 C   0  0  0  0  0  0  0  0  0  0  0  0
  133.4960  131.3990   57.7350 C   0  0  0  0  0  0  0  0  0  0  0  0
  131.4130  131.0300   56.2580 C   0  0  0  0  0  0  0  0  0  0  0  0
  131.4370  132.4400   55.8570 C   0  0  0  0  0  0  0  0  0  0  0  0
  131.4590  133.5530   55.5420 N   0  0  0  0  0  0  0  0  0  0  0  0
  126.4950  126.5170   58.1530 C   0  0  0  0  0  0  0  0  0  0  0  0
  126.4170  125.1710   58.4990 C   0  0  0  0  0  0  0  0  0  0  0  0
  127.0624  123.3213   55.1381 H   0  0  0  0  0  0  0  0  0  0  0  0
  126.2654  121.8241   54.5467 H   0  0  0  0  0  0  0  0  0  0  0  0
  125.3673  123.3797   54.5467 H   0  0  0  0  0  0  0  0  0  0  0  0
  125.2052  123.4042   56.9420 H   0  0  0  0  0  0  0  0  0  0  0  0
  124.8146  121.7193   56.4566 H   0  0  0  0  0  0  0  0  0  0  0  0
  128.9067  123.9442   56.5114 H   0  0  0  0  0  0  0  0  0  0  0  0
  129.0460  126.3448   55.8909 H   0  0  0  0  0  0  0  0  0  0  0  0
  128.1320  128.8550   57.4460 H   0  0  0  0  0  0  0  0  0  0  0  0
  126.7607  130.9094   55.0128 H   0  0  0  0  0  0  0  0  0  0  0  0
  127.6848  130.7841   56.5715 H   0  0  0  0  0  0  0  0  0  0  0  0
  131.3298  126.7159   58.3235 H   0  0  0  0  0  0  0  0  0  0  0  0
  130.4186  126.4331   56.8015 H   0  0  0  0  0  0  0  0  0  0  0  0
  132.2132  126.3557   56.8015 H   0  0  0  0  0  0  0  0  0  0  0  0
  133.1386  128.7474   58.1510 H   0  0  0  0  0  0  0  0  0  0  0  0
  133.4411  131.3551   58.8328 H   0  0  0  0  0  0  0  0  0  0  0  0
  134.4793  131.0352   57.4022 H   0  0  0  0  0  0  0  0  0  0  0  0
  133.3577  132.4383   57.4022 H   0  0  0  0  0  0  0  0  0  0  0  0
  125.8093  127.2431   58.6140 H   0  0  0  0  0  0  0  0  0  0  0  0
  125.6692  124.8411   59.2351 H   0  0  0  0  0  0  0  0  0  0  0  0
  1  2  1  0
  2  3  1  0
  3  4  1  0
  4  5  2  0
  4  6  1  0
  6  7  2  0
  7  8  1  0
  8  9  2  0
  9 10  1  0
 10 11  1  0
 11 12  2  0
 11 13  1  0
 13 14  1  0
 14 15  1  0
 15 16  2  0
 16 17  1  0
 17 18  1  0
 17 19  2  0
 19 20  1  0
 20 21  1  0
 20 22  2  0
 22 23  1  0
 23 24  3  0
  9 25  1  0
 25 26  2  0
 26  6  1  0
 22 15  1  0
  1 27  1  0
  1 28  1  0
  1 29  1  0
  2 30  1  0
  2 31  1  0
  7 32  1  0
  8 33  1  0
 10 34  1  0
 13 35  1  0
 13 36  1  0
 18 37  1  0
 18 38  1  0
 18 39  1  0
 19 40  1  0
 21 41  1  0
 21 42  1  0
 21 43  1  0
 25 44  1  0
 26 45  1  0
M  END
>  <Binding energies>  (1) 
[-7.61]

>  <Ligand effiencies>  (1) 
[-0.28185185185185185]

>  <Interactions>  (1) 
["V-B:ILE:538:CD1:9837, V-B:PRO:540:CD:9859, V-B:TYR:539:C:9839, V-B:PRO:540:CA:9855, H-B:TYR:539:N:9842, V-B:ILE:538:CA:9832, V-B:MET:535:CE:9807, V-B:PRO:540:N:9856, V-A:ASP:366:CG:3213, V-A:ASP:366:CB:3212, H-A:TYR:539:N:4870, V-A:PRO:540:CA:4883, V-A:PRO:540:N:4884, V-A:PRO:540:CB:4885, H-B:LYS:534:NZ:9795, V-A:LEU:363:CD1:3189, V-A:PRO:540:CD:4887, V-A:LEU:363:CA:3185, H-B:TYR:531:OH:9767, V-A:ILE:538:CB:4862, H-A:TYR:531:OH:4795, V-A:LEU:363:CB:3187"]

$$$$
1aa_Ghoteimi_2023
     RDKit          3D

 67 70  0  0  0  0  0  0  0  0999 V2000
  133.7240  126.9310   73.8810 C   0  0  0  0  0  0  0  0  0  0  0  0
  132.2080  126.8660   74.0910 C   0  0  0  0  0  0  0  0  0  0  0  0
  131.5510  126.9880   72.8360 O   0  0  0  0  0  0  0  0  0  0  0  0
  130.3340  127.5810   72.7370 C   0  0  0  0  0  0  0  0  0  0  0  0
  129.7000  128.0000   73.7110 O   0  0  0  0  0  0  0  0  0  0  0  0
  129.8320  127.6770   71.3250 C   0  0  0  0  0  0  0  0  0  0  0  0
  130.4060  128.5550   70.3920 C   0  0  0  0  0  0  0  0  0  0  0  0
  129.9200  128.6220   69.0880 C   0  0  0  0  0  0  0  0  0  0  0  0
  128.8490  127.8080   68.6930 C   0  0  0  0  0  0  0  0  0  0  0  0
  128.2760  127.7910   67.4080 N   0  0  0  0  0  0  0  0  0  0  0  0
  128.0590  128.7980   66.5310 C   0  0  0  0  0  0  0  0  0  0  0  0
  128.3540  129.9770   66.7270 O   0  0  0  0  0  0  0  0  0  0  0  0
  127.3970  128.4360   65.1920 C   0  0  0  0  0  0  0  0  0  0  0  0
  127.7480  129.3930   64.1840 O   0  0  0  0  0  0  0  0  0  0  0  0
  128.3830  128.9850   63.0200 C   0  0  0  0  0  0  0  0  0  0  0  0
  128.7670  127.6820   62.9220 N   0  0  0  0  0  0  0  0  0  0  0  0
  129.4040  127.2470   61.8030 C   0  0  0  0  0  0  0  0  0  0  0  0
  129.7920  125.7960   61.7730 C   0  0  0  0  0  0  0  0  0  0  0  0
  131.1220  125.4090   61.5540 C   0  0  0  0  0  0  0  0  0  0  0  0
  131.4840  124.0660   61.5240 C   0  0  0  0  0  0  0  0  0  0  0  0
  130.5300  123.0680   61.7130 C   0  0  0  0  0  0  0  0  0  0  0  0
  130.9810  121.7630   61.6650 O   0  0  0  0  0  0  0  0  0  0  0  0
  132.2220  121.4800   61.0280 C   0  0  0  0  0  0  0  0  0  0  0  0
  129.1980  123.4390   61.9380 C   0  0  0  0  0  0  0  0  0  0  0  0
  128.8390  124.7830   61.9680 C   0  0  0  0  0  0  0  0  0  0  0  0
  129.6530  128.1210   60.7380 C   0  0  0  0  0  0  0  0  0  0  0  0
  129.2580  129.4640   60.8090 C   0  0  0  0  0  0  0  0  0  0  0  0
  129.5430  130.3430   59.6360 C   0  0  0  0  0  0  0  0  0  0  0  0
  128.4930  130.8280   58.8490 C   0  0  0  0  0  0  0  0  0  0  0  0
  128.7500  131.6560   57.7590 C   0  0  0  0  0  0  0  0  0  0  0  0
  130.0570  132.0210   57.4380 C   0  0  0  0  0  0  0  0  0  0  0  0
  130.2160  132.8450   56.3400 O   0  0  0  0  0  0  0  0  0  0  0  0
  131.1780  132.5030   55.3490 C   0  0  0  0  0  0  0  0  0  0  0  0
  131.1120  131.5430   58.2290 C   0  0  0  0  0  0  0  0  0  0  0  0
  130.8540  130.7150   59.3180 C   0  0  0  0  0  0  0  0  0  0  0  0
  128.6130  129.9090   61.9860 C   0  0  0  0  0  0  0  0  0  0  0  0
  128.2050  131.3030   62.1680 C   0  0  0  0  0  0  0  0  0  0  0  0
  127.8810  132.4040   62.3140 N   0  0  0  0  0  0  0  0  0  0  0  0
  128.2750  126.9360   69.6190 C   0  0  0  0  0  0  0  0  0  0  0  0
  128.7610  126.8700   70.9210 C   0  0  0  0  0  0  0  0  0  0  0  0
  134.2289  126.9526   74.8580 H   0  0  0  0  0  0  0  0  0  0  0  0
  134.0543  126.0462   73.3171 H   0  0  0  0  0  0  0  0  0  0  0  0
  133.9774  127.8408   73.3171 H   0  0  0  0  0  0  0  0  0  0  0  0
  131.9425  125.9032   74.5520 H   0  0  0  0  0  0  0  0  0  0  0  0
  131.8933  127.6874   74.7515 H   0  0  0  0  0  0  0  0  0  0  0  0
  131.2475  129.1962   70.6934 H   0  0  0  0  0  0  0  0  0  0  0  0
  130.3776  129.3151   68.3667 H   0  0  0  0  0  0  0  0  0  0  0  0
  127.9900  126.8730   67.0980 H   0  0  0  0  0  0  0  0  0  0  0  0
  127.7371  127.4381   64.8780 H   0  0  0  0  0  0  0  0  0  0  0  0
  126.3047  128.4405   65.3222 H   0  0  0  0  0  0  0  0  0  0  0  0
  131.8919  126.1801   61.4034 H   0  0  0  0  0  0  0  0  0  0  0  0
  132.5341  123.7891   61.3493 H   0  0  0  0  0  0  0  0  0  0  0  0
  132.9942  121.3039   61.7913 H   0  0  0  0  0  0  0  0  0  0  0  0
  132.1157  120.5830   60.4002 H   0  0  0  0  0  0  0  0  0  0  0  0
  132.5151  122.3344   60.4002 H   0  0  0  0  0  0  0  0  0  0  0  0
  128.4324  122.6643   62.0917 H   0  0  0  0  0  0  0  0  0  0  0  0
  127.7890  125.0572   62.1478 H   0  0  0  0  0  0  0  0  0  0  0  0
  130.1635  127.7502   59.8369 H   0  0  0  0  0  0  0  0  0  0  0  0
  127.4562  130.5532   59.0930 H   0  0  0  0  0  0  0  0  0  0  0  0
  127.9146  132.0253   57.1460 H   0  0  0  0  0  0  0  0  0  0  0  0
  132.1065  132.1729   55.8378 H   0  0  0  0  0  0  0  0  0  0  0  0
  130.7848  131.6896   54.7215 H   0  0  0  0  0  0  0  0  0  0  0  0
  131.3865  133.3821   54.7215 H   0  0  0  0  0  0  0  0  0  0  0  0
  132.1479  131.8236   57.9878 H   0  0  0  0  0  0  0  0  0  0  0  0
  131.6886  130.3497   59.9344 H   0  0  0  0  0  0  0  0  0  0  0  0
  127.4324  126.2964   69.3174 H   0  0  0  0  0  0  0  0  0  0  0  0
  128.2996  126.1772   71.6401 H   0  0  0  0  0  0  0  0  0  0  0  0
  1  2  1  0
  2  3  1  0
  3  4  1  0
  4  5  2  0
  4  6  1  0
  6  7  2  0
  7  8  1  0
  8  9  2  0
  9 10  1  0
 10 11  1  0
 11 12  2  0
 11 13  1  0
 13 14  1  0
 14 15  1  0
 15 16  2  0
 16 17  1  0
 17 18  1  0
 18 19  2  0
 19 20  1  0
 20 21  2  0
 21 22  1  0
 22 23  1  0
 21 24  1  0
 24 25  2  0
 17 26  2  0
 26 27  1  0
 27 28  1  0
 28 29  2  0
 29 30  1  0
 30 31  2  0
 31 32  1  0
 32 33  1  0
 31 34  1  0
 34 35  2  0
 27 36  2  0
 36 37  1  0
 37 38  3  0
  9 39  1  0
 39 40  2  0
 40  6  1  0
 36 15  1  0
 25 18  1  0
 35 28  1  0
  1 41  1  0
  1 42  1  0
  1 43  1  0
  2 44  1  0
  2 45  1  0
  7 46  1  0
  8 47  1  0
 10 48  1  0
 13 49  1  0
 13 50  1  0
 19 51  1  0
 20 52  1  0
 23 53  1  0
 23 54  1  0
 23 55  1  0
 24 56  1  0
 25 57  1  0
 26 58  1  0
 29 59  1  0
 30 60  1  0
 33 61  1  0
 33 62  1  0
 33 63  1  0
 34 64  1  0
 35 65  1  0
 39 66  1  0
 40 67  1  0
M  END
>  <Binding energies>  (1) 
[-7.94]

>  <Ligand effiencies>  (1) 
[-0.19365853658536586]

>  <Interactions>  (1) 
["V-B:GLU:543:CD:9880, H-B:GLU:543:OE2:9882, H-A:TYR:484:OH:4348, V-A:LEU:475:CD2:4259, H-A:TYR:539:N:4870, V-A:PRO:540:CA:4883, V-A:TYR:539:C:4867, V-A:PRO:540:N:4884, V-A:PRO:540:CB:4885, V-A:GLU:543:CD:4908, V-A:GLU:543:CG:4907, V-A:HIS:456:CE1:4070, V-A:ILE:538:CB:4862, V-A:ILE:538:CG2:4863, V-A:GLU:543:C:4902, V-A:GLU:543:CB:4906, V-A:GLY:544:C:4912, V-A:HIS:456:CD2:4068, V-A:HIS:456:CG:4066, H-A:LYS:547:NZ:4951, V-A:HIS:456:CA:4063, V-A:HIS:456:C:4061, V-A:HIS:456:CB:4065, V-A:GLY:544:CA:4914, V-B:HIS:456:CD2:9040, V-B:HIS:456:CE1:9042, H-B:TYR:484:OH:9320, V-A:GLU:543:CA:4904"]

$$$$
1b_Ghoteimi_2023
     RDKit          3D

 54 57  0  0  0  0  0  0  0  0999 V2000
  127.2260  122.3650   54.8390 C   0  0  0  0  0  0  0  0  0  0  0  0
  127.2680  122.3460   56.2610 O   0  0  0  0  0  0  0  0  0  0  0  0
  126.9340  123.4900   56.9600 C   0  0  0  0  0  0  0  0  0  0  0  0
  127.7470  124.6040   56.7610 C   0  0  0  0  0  0  0  0  0  0  0  0
  127.4880  125.8000   57.4230 C   0  0  0  0  0  0  0  0  0  0  0  0
  126.4030  125.9200   58.3040 C   0  0  0  0  0  0  0  0  0  0  0  0
  126.1280  127.2130   59.0190 C   0  0  0  0  0  0  0  0  0  0  0  0
  126.4000  127.4050   60.3780 C   0  0  0  0  0  0  0  0  0  0  0  0
  126.1280  128.6310   60.9960 C   0  0  0  0  0  0  0  0  0  0  0  0
  126.4390  128.7620   62.4510 C   0  0  0  0  0  0  0  0  0  0  0  0
  127.7560  128.6510   62.9040 C   0  0  0  0  0  0  0  0  0  0  0  0
  128.0500  128.7640   64.2600 C   0  0  0  0  0  0  0  0  0  0  0  0
  127.0340  128.9850   65.1890 C   0  0  0  0  0  0  0  0  0  0  0  0
  127.4190  129.0830   66.5130 O   0  0  0  0  0  0  0  0  0  0  0  0
  128.5620  128.3600   66.9580 C   0  0  0  0  0  0  0  0  0  0  0  0
  125.7090  129.0890   64.7410 C   0  0  0  0  0  0  0  0  0  0  0  0
  125.4190  128.9750   63.3840 C   0  0  0  0  0  0  0  0  0  0  0  0
  125.5830  129.6770   60.2100 C   0  0  0  0  0  0  0  0  0  0  0  0
  125.3700  131.0080   60.7860 C   0  0  0  0  0  0  0  0  0  0  0  0
  125.2020  132.0580   61.2420 N   0  0  0  0  0  0  0  0  0  0  0  0
  125.3130  129.4110   58.8490 C   0  0  0  0  0  0  0  0  0  0  0  0
  124.6220  130.5980   57.7160 S   0  0  0  0  0  0  0  0  0  0  0  0
  124.9510  130.0130   56.0200 C   0  0  0  0  0  0  0  0  0  0  0  0
  126.4010  130.1820   55.5440 C   0  0  0  0  0  0  0  0  0  0  0  0
  126.9880  129.2610   54.9710 O   0  0  0  0  0  0  0  0  0  0  0  0
  126.9440  131.3920   55.8090 N   0  0  0  0  0  0  0  0  0  0  0  0
  128.2270  131.8250   55.4950 C   0  0  0  0  0  0  0  0  0  0  0  0
  129.0220  131.2130   54.5270 C   0  0  0  0  0  0  0  0  0  0  0  0
  130.1960  131.9310   54.5220 C   0  0  0  0  0  0  0  0  0  0  0  0
  130.1110  132.9250   55.4380 O   0  0  0  0  0  0  0  0  0  0  0  0
  128.8580  132.8470   56.0480 N   0  0  0  0  0  0  0  0  0  0  0  0
  125.5990  128.2180   58.2730 N   0  0  0  0  0  0  0  0  0  0  0  0
  125.5910  124.7920   58.4980 C   0  0  0  0  0  0  0  0  0  0  0  0
  125.8470  123.5940   57.8390 C   0  0  0  0  0  0  0  0  0  0  0  0
  126.2708  122.7971   54.5061 H   0  0  0  0  0  0  0  0  0  0  0  0
  128.0576  122.9746   54.4557 H   0  0  0  0  0  0  0  0  0  0  0  0
  127.3172  121.3380   54.4557 H   0  0  0  0  0  0  0  0  0  0  0  0
  128.6028  124.5371   56.0731 H   0  0  0  0  0  0  0  0  0  0  0  0
  128.1449  126.6658   57.2527 H   0  0  0  0  0  0  0  0  0  0  0  0
  126.8325  126.5831   60.9674 H   0  0  0  0  0  0  0  0  0  0  0  0
  128.5675  128.4728   62.1831 H   0  0  0  0  0  0  0  0  0  0  0  0
  129.0922  128.6783   64.6013 H   0  0  0  0  0  0  0  0  0  0  0  0
  128.5824  128.3471   68.0577 H   0  0  0  0  0  0  0  0  0  0  0  0
  128.5132  127.3281   66.5800 H   0  0  0  0  0  0  0  0  0  0  0  0
  129.4734  128.8462   66.5800 H   0  0  0  0  0  0  0  0  0  0  0  0
  124.8973  129.2610   65.4632 H   0  0  0  0  0  0  0  0  0  0  0  0
  124.3765  129.0533   63.0420 H   0  0  0  0  0  0  0  0  0  0  0  0
  124.6993  128.9432   55.9734 H   0  0  0  0  0  0  0  0  0  0  0  0
  124.3351  130.6366   55.3553 H   0  0  0  0  0  0  0  0  0  0  0  0
  126.3590  132.0690   56.2750 H   0  0  0  0  0  0  0  0  0  0  0  0
  128.7663  130.3443   53.9025 H   0  0  0  0  0  0  0  0  0  0  0  0
  131.0643  131.7298   53.8773 H   0  0  0  0  0  0  0  0  0  0  0  0
  124.7345  124.8565   59.1853 H   0  0  0  0  0  0  0  0  0  0  0  0
  125.1941  122.7251   58.0083 H   0  0  0  0  0  0  0  0  0  0  0  0
  1  2  1  0
  2  3  1  0
  3  4  2  0
  4  5  1  0
  5  6  2  0
  6  7  1  0
  7  8  2  0
  8  9  1  0
  9 10  1  0
 10 11  2  0
 11 12  1  0
 12 13  2  0
 13 14  1  0
 14 15  1  0
 13 16  1  0
 16 17  2  0
  9 18  2  0
 18 19  1  0
 19 20  3  0
 18 21  1  0
 21 22  1  0
 22 23  1  0
 23 24  1  0
 24 25  2  0
 24 26  1  0
 26 27  1  0
 27 28  1  0
 28 29  2  0
 29 30  1  0
 30 31  1  0
 21 32  2  0
  6 33  1  0
 33 34  2  0
 34  3  1  0
 32  7  1  0
 17 10  1  0
 31 27  2  0
  1 35  1  0
  1 36  1  0
  1 37  1  0
  4 38  1  0
  5 39  1  0
  8 40  1  0
 11 41  1  0
 12 42  1  0
 15 43  1  0
 15 44  1  0
 15 45  1  0
 16 46  1  0
 17 47  1  0
 23 48  1  0
 23 49  1  0
 26 50  1  0
 28 51  1  0
 29 52  1  0
 33 53  1  0
 34 54  1  0
M  END
>  <Binding energies>  (1) 
[-9.12]

>  <Ligand effiencies>  (1) 
[-0.26057142857142856]

>  <Interactions>  (1) 
["V-B:TYR:539:CD1:9845, V-B:ILE:538:CD1:9837, V-B:PRO:540:CB:9857, V-B:PRO:540:CA:9855, H-B:TYR:539:N:9842, V-B:ILE:538:CA:9832, V-B:MET:535:CE:9807, V-B:TYR:539:CE1:9847, V-A:TYR:539:CE1:4875, V-B:TYR:531:CE1:9764, H-A:TYR:539:N:4870, V-B:ASP:366:CG:8185, V-A:TYR:539:CZ:4877, V-B:ASP:366:CB:8184, V-A:TYR:539:CE2:4876, H-B:LYS:534:NZ:9795, V-B:ILE:538:C:9830, V-A:GLU:543:CD:4908, V-A:GLU:543:CG:4907, H-B:TYR:531:OH:9767, V-A:ILE:538:CG2:4863, H-A:TYR:539:OH:4878, V-A:GLU:543:CB:4906, V-B:ARG:545:CZ:9898, V-B:HIS:456:CE1:9042, V-A:TYR:539:CD2:4874, V-A:TYR:539:CD1:4873, H-B:TYR:484:OH:9320, V-B:VAL:537:C:9822"]

$$$$
1b_Grossjean_2025
     RDKit          3D

 42 43  0  0  0  0  0  0  0  0999 V2000
  126.6240  122.9360   54.6290 C   0  0  0  0  0  0  0  0  0  0  0  0
  126.3170  122.0140   55.6660 O   0  0  0  0  0  0  0  0  0  0  0  0
  125.5090  122.3670   56.6980 C   0  0  0  0  0  0  0  0  0  0  0  0
  124.2780  122.2700   56.6630 O   0  0  0  0  0  0  0  0  0  0  0  0
  126.2610  122.8810   57.8930 C   0  0  0  0  0  0  0  0  0  0  0  0
  125.6650  123.7330   58.8340 C   0  0  0  0  0  0  0  0  0  0  0  0
  126.3910  124.1920   59.9300 C   0  0  0  0  0  0  0  0  0  0  0  0
  127.7200  123.8110   60.1090 C   0  0  0  0  0  0  0  0  0  0  0  0
  128.3560  124.3370   61.2500 N   0  0  0  0  0  0  0  0  0  0  0  0
  128.9290  123.7030   62.2970 C   0  0  0  0  0  0  0  0  0  0  0  0
  129.0050  122.4830   62.4400 O   0  0  0  0  0  0  0  0  0  0  0  0
  129.5320  124.6170   63.3650 C   0  0  0  0  0  0  0  0  0  0  0  0
  130.2400  126.1320   62.6520 S   0  0  0  0  0  0  0  0  0  0  0  0
  130.9410  125.6990   61.0750 C   0  0  0  0  0  0  0  0  0  0  0  0
  130.1080  125.9190   60.0270 N   0  0  0  0  0  0  0  0  0  0  0  0
  130.5420  125.6250   58.7790 C   0  0  0  0  0  0  0  0  0  0  0  0
  129.5620  125.9110   57.6560 C   0  0  0  0  0  0  0  0  0  0  0  0
  131.8060  125.0950   58.5280 C   0  0  0  0  0  0  0  0  0  0  0  0
  132.6630  124.8440   59.6030 C   0  0  0  0  0  0  0  0  0  0  0  0
  134.0380  124.2480   59.3050 C   0  0  0  0  0  0  0  0  0  0  0  0
  132.2330  125.1430   60.9160 C   0  0  0  0  0  0  0  0  0  0  0  0
  133.0960  124.8480   62.0610 C   0  0  0  0  0  0  0  0  0  0  0  0
  133.7810  124.6140   62.9640 N   0  0  0  0  0  0  0  0  0  0  0  0
  128.3230  122.9590   59.1720 C   0  0  0  0  0  0  0  0  0  0  0  0
  127.5970  122.5000   58.0770 C   0  0  0  0  0  0  0  0  0  0  0  0
  126.9423  123.8919   55.0706 H   0  0  0  0  0  0  0  0  0  0  0  0
  127.4358  122.5311   54.0069 H   0  0  0  0  0  0  0  0  0  0  0  0
  125.7315  123.0986   54.0069 H   0  0  0  0  0  0  0  0  0  0  0  0
  124.6168  124.0408   58.7054 H   0  0  0  0  0  0  0  0  0  0  0  0
  125.9120  124.8606   60.6604 H   0  0  0  0  0  0  0  0  0  0  0  0
  128.3670  125.3460   61.2840 H   0  0  0  0  0  0  0  0  0  0  0  0
  128.7430  124.8965   64.0787 H   0  0  0  0  0  0  0  0  0  0  0  0
  130.3442  124.0660   63.8617 H   0  0  0  0  0  0  0  0  0  0  0  0
  128.5886  126.1951   58.0823 H   0  0  0  0  0  0  0  0  0  0  0  0
  129.9452  126.7348   57.0359 H   0  0  0  0  0  0  0  0  0  0  0  0
  129.4419  125.0104   57.0359 H   0  0  0  0  0  0  0  0  0  0  0  0
  132.1249  124.8772   57.4980 H   0  0  0  0  0  0  0  0  0  0  0  0
  134.5535  124.0245   60.2507 H   0  0  0  0  0  0  0  0  0  0  0  0
  133.9180  123.3211   58.7249 H   0  0  0  0  0  0  0  0  0  0  0  0
  134.6324  124.9693   58.7249 H   0  0  0  0  0  0  0  0  0  0  0  0
  129.3715  122.6531   59.3029 H   0  0  0  0  0  0  0  0  0  0  0  0
  128.0771  121.8308   57.3479 H   0  0  0  0  0  0  0  0  0  0  0  0
  1  2  1  0
  2  3  1  0
  3  4  2  0
  3  5  1  0
  5  6  2  0
  6  7  1  0
  7  8  2  0
  8  9  1  0
  9 10  1  0
 10 11  2  0
 10 12  1  0
 12 13  1  0
 13 14  1  0
 14 15  2  0
 15 16  1  0
 16 17  1  0
 16 18  2  0
 18 19  1  0
 19 20  1  0
 19 21  2  0
 21 22  1  0
 22 23  3  0
  8 24  1  0
 24 25  2  0
 25  5  1  0
 21 14  1  0
  1 26  1  0
  1 27  1  0
  1 28  1  0
  6 29  1  0
  7 30  1  0
  9 31  1  0
 12 32  1  0
 12 33  1  0
 17 34  1  0
 17 35  1  0
 17 36  1  0
 18 37  1  0
 20 38  1  0
 20 39  1  0
 20 40  1  0
 24 41  1  0
 25 42  1  0
M  END
>  <Binding energies>  (1) 
[-7.29]

>  <Ligand effiencies>  (1) 
[-0.2803846153846154]

>  <Interactions>  (1) 
["V-B:ILE:538:CD1:9837, V-B:PRO:540:CB:9857, V-B:PRO:540:CD:9859, V-B:GLU:543:CD:9880, V-B:TYR:539:C:9839, V-B:PRO:540:CA:9855, H-B:TYR:539:N:9842, H-B:GLU:543:OE1:9881, V-B:TYR:539:CE2:9848, V-B:TYR:539:CD2:9846, V-B:ILE:538:CA:9832, V-B:MET:535:CE:9807, V-B:PRO:540:N:9856, H-A:TYR:484:OH:4348, V-A:ASP:366:CA:3210, V-A:ASP:366:CG:3213, V-B:TYR:539:CG:9844, V-A:ILE:369:CD1:3239, V-A:ASP:366:CB:3212, V-A:ILE:369:CB:3236, V-A:ILE:369:CG2:3237, H-A:GLY:454:N:4050, H-A:ARG:545:NH2:4928, V-A:ARG:545:CZ:4926, V-A:TYR:484:CZ:4347, V-B:MET:535:CG:9805, V-B:GLU:543:CG:9879, V-B:MET:535:CB:9804"]

$$$$
1c_Ghoteimi_2023
     RDKit          3D

 54 57  0  0  0  0  0  0  0  0999 V2000
  127.2200  122.3470   54.9280 C   0  0  0  0  0  0  0  0  0  0  0  0
  127.3120  122.4010   56.3470 O   0  0  0  0  0  0  0  0  0  0  0  0
  127.0740  123.5980   56.9950 C   0  0  0  0  0  0  0  0  0  0  0  0
  125.9260  123.6660   57.7800 C   0  0  0  0  0  0  0  0  0  0  0  0
  125.6060  124.8350   58.4660 C   0  0  0  0  0  0  0  0  0  0  0  0
  126.4260  125.9710   58.3860 C   0  0  0  0  0  0  0  0  0  0  0  0
  126.0820  127.2350   59.1200 C   0  0  0  0  0  0  0  0  0  0  0  0
  126.3540  127.4180   60.4810 C   0  0  0  0  0  0  0  0  0  0  0  0
  126.0400  128.6240   61.1160 C   0  0  0  0  0  0  0  0  0  0  0  0
  126.4190  128.7740   62.5520 C   0  0  0  0  0  0  0  0  0  0  0  0
  127.7580  128.6890   62.9470 C   0  0  0  0  0  0  0  0  0  0  0  0
  128.1070  128.8070   64.2880 C   0  0  0  0  0  0  0  0  0  0  0  0
  127.1280  129.0080   65.2600 C   0  0  0  0  0  0  0  0  0  0  0  0
  127.5670  129.1140   66.5670 O   0  0  0  0  0  0  0  0  0  0  0  0
  128.7200  128.3830   66.9730 C   0  0  0  0  0  0  0  0  0  0  0  0
  125.7820  129.0870   64.8690 C   0  0  0  0  0  0  0  0  0  0  0  0
  125.4350  128.9690   63.5260 C   0  0  0  0  0  0  0  0  0  0  0  0
  125.4140  129.6420   60.3580 C   0  0  0  0  0  0  0  0  0  0  0  0
  125.0280  130.9160   60.9730 C   0  0  0  0  0  0  0  0  0  0  0  0
  124.7250  131.9220   61.4600 N   0  0  0  0  0  0  0  0  0  0  0  0
  125.1840  129.3980   58.9880 C   0  0  0  0  0  0  0  0  0  0  0  0
  124.5630  130.6450   57.8800 S   0  0  0  0  0  0  0  0  0  0  0  0
  124.6450  129.8820   56.2270 C   0  0  0  0  0  0  0  0  0  0  0  0
  126.0660  129.8940   55.6540 C   0  0  0  0  0  0  0  0  0  0  0  0
  126.5120  128.8810   55.1120 O   0  0  0  0  0  0  0  0  0  0  0  0
  126.7200  131.0720   55.7590 N   0  0  0  0  0  0  0  0  0  0  0  0
  127.9430  131.3940   55.1930 C   0  0  0  0  0  0  0  0  0  0  0  0
  128.3080  131.2700   53.9350 N   0  0  0  0  0  0  0  0  0  0  0  0
  129.5350  131.7140   53.7430 C   0  0  0  0  0  0  0  0  0  0  0  0
  130.1910  132.2160   54.8620 C   0  0  0  0  0  0  0  0  0  0  0  0
  129.1370  132.0920   56.2390 S   0  0  0  0  0  0  0  0  0  0  0  0
  125.5180  128.2310   58.3870 N   0  0  0  0  0  0  0  0  0  0  0  0
  127.5830  125.8890   57.5970 C   0  0  0  0  0  0  0  0  0  0  0  0
  127.9060  124.7230   56.9090 C   0  0  0  0  0  0  0  0  0  0  0  0
  126.3044  121.8096   54.6401 H   0  0  0  0  0  0  0  0  0  0  0  0
  127.1876  123.3694   54.5235 H   0  0  0  0  0  0  0  0  0  0  0  0
  128.0969  121.8203   54.5235 H   0  0  0  0  0  0  0  0  0  0  0  0
  125.2664  122.7892   57.8590 H   0  0  0  0  0  0  0  0  0  0  0  0
  124.6947  124.8684   59.0812 H   0  0  0  0  0  0  0  0  0  0  0  0
  126.8196  126.6048   61.0571 H   0  0  0  0  0  0  0  0  0  0  0  0
  128.5409  128.5276   62.1913 H   0  0  0  0  0  0  0  0  0  0  0  0
  129.1643  128.7412   64.5842 H   0  0  0  0  0  0  0  0  0  0  0  0
  128.7671  128.3531   68.0716 H   0  0  0  0  0  0  0  0  0  0  0  0
  128.6608  127.3571   66.5805 H   0  0  0  0  0  0  0  0  0  0  0  0
  129.6226  128.8742   66.5805 H   0  0  0  0  0  0  0  0  0  0  0  0
  124.9992  129.2426   65.6260 H   0  0  0  0  0  0  0  0  0  0  0  0
  124.3777  129.0297   63.2286 H   0  0  0  0  0  0  0  0  0  0  0  0
  124.3014  128.8396   56.3005 H   0  0  0  0  0  0  0  0  0  0  0  0
  124.0038  130.4681   55.5523 H   0  0  0  0  0  0  0  0  0  0  0  0
  126.2450  131.8250   56.2340 H   0  0  0  0  0  0  0  0  0  0  0  0
  130.0131  131.6887   52.7527 H   0  0  0  0  0  0  0  0  0  0  0  0
  131.2119  132.6254   54.8738 H   0  0  0  0  0  0  0  0  0  0  0  0
  128.2473  126.7624   57.5206 H   0  0  0  0  0  0  0  0  0  0  0  0
  128.8180  124.6841   56.2952 H   0  0  0  0  0  0  0  0  0  0  0  0
  1  2  1  0
  2  3  1  0
  3  4  2  0
  4  5  1  0
  5  6  2  0
  6  7  1  0
  7  8  2  0
  8  9  1  0
  9 10  1  0
 10 11  2  0
 11 12  1  0
 12 13  2  0
 13 14  1  0
 14 15  1  0
 13 16  1  0
 16 17  2  0
  9 18  2  0
 18 19  1  0
 19 20  3  0
 18 21  1  0
 21 22  1  0
 22 23  1  0
 23 24  1  0
 24 25  2  0
 24 26  1  0
 26 27  1  0
 27 28  2  0
 28 29  1  0
 29 30  2  0
 30 31  1  0
 21 32  2  0
  6 33  1  0
 33 34  2  0
 34  3  1  0
 32  7  1  0
 17 10  1  0
 31 27  1  0
  1 35  1  0
  1 36  1  0
  1 37  1  0
  4 38  1  0
  5 39  1  0
  8 40  1  0
 11 41  1  0
 12 42  1  0
 15 43  1  0
 15 44  1  0
 15 45  1  0
 16 46  1  0
 17 47  1  0
 23 48  1  0
 23 49  1  0
 26 50  1  0
 29 51  1  0
 30 52  1  0
 33 53  1  0
 34 54  1  0
M  END
>  <Binding energies>  (1) 
[-9.1]

>  <Ligand effiencies>  (1) 
[-0.26]

>  <Interactions>  (1) 
["V-B:TYR:539:CD1:9845, V-B:ILE:538:CD1:9837, V-B:PRO:540:CB:9857, H-B:TYR:539:N:9842, V-B:ILE:538:CA:9832, V-B:MET:535:CE:9807, V-B:TYR:539:CE1:9847, V-B:TYR:539:CG:9844, V-B:TYR:531:CZ:9766, V-A:TYR:539:CE1:4875, V-B:TYR:531:CE1:9764, V-B:ASP:366:CG:8185, V-A:TYR:539:CZ:4877, V-B:ASP:366:CB:8184, V-A:TYR:539:CE2:4876, H-B:LYS:534:NZ:9795, V-B:ILE:538:C:9830, V-A:GLU:543:CD:4908, V-A:GLU:543:CG:4907, H-B:TYR:531:OH:9767, V-A:ILE:538:CA:4860, V-A:ILE:538:CB:4862, V-A:ILE:538:CG2:4863, H-A:TYR:539:OH:4878, V-A:GLU:543:CB:4906, V-B:ARG:545:CZ:9898, V-B:HIS:456:CE1:9042, H-B:TYR:484:OH:9320, V-B:VAL:537:C:9822"]

$$$$
1c_Grossjean_2025
     RDKit          3D

 40 41  0  0  0  0  0  0  0  0999 V2000
  132.8620  131.1530   61.7980 C   0  0  0  0  0  0  0  0  0  0  0  0
  131.5880  131.7410   61.5590 O   0  0  0  0  0  0  0  0  0  0  0  0
  131.0690  131.7270   60.2790 C   0  0  0  0  0  0  0  0  0  0  0  0
  129.7270  132.0830   60.1470 C   0  0  0  0  0  0  0  0  0  0  0  0
  129.1140  132.1000   58.8980 C   0  0  0  0  0  0  0  0  0  0  0  0
  129.8500  131.7640   57.7520 C   0  0  0  0  0  0  0  0  0  0  0  0
  129.3280  131.7390   56.4440 N   0  0  0  0  0  0  0  0  0  0  0  0
  129.7420  132.4000   55.3420 C   0  0  0  0  0  0  0  0  0  0  0  0
  130.7070  133.1630   55.2880 O   0  0  0  0  0  0  0  0  0  0  0  0
  128.9210  132.1460   54.0760 C   0  0  0  0  0  0  0  0  0  0  0  0
  128.8650  130.3810   53.6490 S   0  0  0  0  0  0  0  0  0  0  0  0
  128.0180  129.5130   54.9550 C   0  0  0  0  0  0  0  0  0  0  0  0
  126.8070  130.0450   55.2590 N   0  0  0  0  0  0  0  0  0  0  0  0
  126.0700  129.4700   56.2380 C   0  0  0  0  0  0  0  0  0  0  0  0
  124.7250  130.1140   56.5150 C   0  0  0  0  0  0  0  0  0  0  0  0
  126.5090  128.3590   56.9540 C   0  0  0  0  0  0  0  0  0  0  0  0
  127.7650  127.8170   56.6660 C   0  0  0  0  0  0  0  0  0  0  0  0
  128.2310  126.6090   57.4760 C   0  0  0  0  0  0  0  0  0  0  0  0
  128.5540  128.4030   55.6480 C   0  0  0  0  0  0  0  0  0  0  0  0
  129.8950  127.8830   55.3690 C   0  0  0  0  0  0  0  0  0  0  0  0
  130.9540  127.4720   55.1490 N   0  0  0  0  0  0  0  0  0  0  0  0
  131.1900  131.3960   57.8800 C   0  0  0  0  0  0  0  0  0  0  0  0
  131.7990  131.3800   59.1320 C   0  0  0  0  0  0  0  0  0  0  0  0
  133.0321  131.0745   62.8819 H   0  0  0  0  0  0  0  0  0  0  0  0
  132.8929  130.1496   61.3484 H   0  0  0  0  0  0  0  0  0  0  0  0
  133.6456  131.7805   61.3484 H   0  0  0  0  0  0  0  0  0  0  0  0
  129.1462  132.3536   61.0411 H   0  0  0  0  0  0  0  0  0  0  0  0
  128.0531  132.3767   58.8093 H   0  0  0  0  0  0  0  0  0  0  0  0
  128.5630  131.0930   56.3140 H   0  0  0  0  0  0  0  0  0  0  0  0
  127.8943  132.5052   54.2397 H   0  0  0  0  0  0  0  0  0  0  0  0
  129.4007  132.6832   53.2446 H   0  0  0  0  0  0  0  0  0  0  0  0
  124.5707  130.1879   57.6016 H   0  0  0  0  0  0  0  0  0  0  0  0
  124.7023  131.1207   56.0721 H   0  0  0  0  0  0  0  0  0  0  0  0
  123.9266  129.5005   56.0721 H   0  0  0  0  0  0  0  0  0  0  0  0
  125.8759  127.9139   57.7357 H   0  0  0  0  0  0  0  0  0  0  0  0
  128.1449  126.8322   58.5497 H   0  0  0  0  0  0  0  0  0  0  0  0
  127.6039  125.7391   57.2309 H   0  0  0  0  0  0  0  0  0  0  0  0
  129.2798  126.3856   57.2309 H   0  0  0  0  0  0  0  0  0  0  0  0
  131.7683  131.1170   56.9868 H   0  0  0  0  0  0  0  0  0  0  0  0
  132.8573  131.0940   59.2224 H   0  0  0  0  0  0  0  0  0  0  0  0
  1  2  1  0
  2  3  1  0
  3  4  2  0
  4  5  1  0
  5  6  2  0
  6  7  1  0
  7  8  1  0
  8  9  2  0
  8 10  1  0
 10 11  1  0
 11 12  1  0
 12 13  2  0
 13 14  1  0
 14 15  1  0
 14 16  2  0
 16 17  1  0
 17 18  1  0
 17 19  2  0
 19 20  1  0
 20 21  3  0
  6 22  1  0
 22 23  2  0
 23  3  1  0
 19 12  1  0
  1 24  1  0
  1 25  1  0
  1 26  1  0
  4 27  1  0
  5 28  1  0
  7 29  1  0
 10 30  1  0
 10 31  1  0
 15 32  1  0
 15 33  1  0
 15 34  1  0
 16 35  1  0
 18 36  1  0
 18 37  1  0
 18 38  1  0
 22 39  1  0
 23 40  1  0
M  END
>  <Binding energies>  (1) 
[-7.09]

>  <Ligand effiencies>  (1) 
[-0.29541666666666666]

>  <Interactions>  (1) 
["V-B:MET:535:CE:9807, V-B:TYR:531:CZ:9766, V-B:TYR:531:CE1:9764, H-A:TYR:539:N:4870, V-A:TYR:539:CZ:4877, V-A:PRO:540:CA:4883, V-A:TYR:539:C:4867, V-A:PRO:540:N:4884, V-A:PRO:540:CB:4885, V-A:MET:535:CE:4835, V-A:TYR:539:CE2:4876, H-B:LYS:534:NZ:9795, V-A:GLU:543:CD:4908, H-A:ALA:541:N:4891, V-A:GLU:543:CG:4907, H-A:TYR:531:OH:4795, V-A:TYR:539:CD2:4874, V-A:PRO:540:C:4881, V-A:ASN:362:CB:3176"]

$$$$
1d_Ghoteimi_2023
     RDKit          3D

 50 52  0  0  0  0  0  0  0  0999 V2000
  124.7280  122.7050   56.1920 C   0  0  0  0  0  0  0  0  0  0  0  0
  126.0590  122.3280   55.8760 O   0  0  0  0  0  0  0  0  0  0  0  0
  127.0870  122.7310   56.6510 C   0  0  0  0  0  0  0  0  0  0  0  0
  127.8150  122.0050   57.3310 O   0  0  0  0  0  0  0  0  0  0  0  0
  127.2820  124.2440   56.6170 C   0  0  0  0  0  0  0  0  0  0  0  0
  127.1020  124.8580   58.3180 S   0  0  0  0  0  0  0  0  0  0  0  0
  128.4300  126.0080   58.6000 C   0  0  0  0  0  0  0  0  0  0  0  0
  129.2490  125.6570   59.6200 N   0  0  0  0  0  0  0  0  0  0  0  0
  130.3030  126.4480   59.9460 C   0  0  0  0  0  0  0  0  0  0  0  0
  131.1650  125.9850   61.0840 C   0  0  0  0  0  0  0  0  0  0  0  0
  132.4040  125.3660   60.8540 C   0  0  0  0  0  0  0  0  0  0  0  0
  133.1990  124.9310   61.9110 C   0  0  0  0  0  0  0  0  0  0  0  0
  132.7810  125.0980   63.2290 C   0  0  0  0  0  0  0  0  0  0  0  0
  133.6320  124.6320   64.2120 O   0  0  0  0  0  0  0  0  0  0  0  0
  133.4900  125.1230   65.5410 C   0  0  0  0  0  0  0  0  0  0  0  0
  131.5450  125.7130   63.4740 C   0  0  0  0  0  0  0  0  0  0  0  0
  130.7540  126.1480   62.4150 C   0  0  0  0  0  0  0  0  0  0  0  0
  130.5590  127.6240   59.2300 C   0  0  0  0  0  0  0  0  0  0  0  0
  129.7200  128.0190   58.1820 C   0  0  0  0  0  0  0  0  0  0  0  0
  130.0480  129.2900   57.4650 C   0  0  0  0  0  0  0  0  0  0  0  0
  130.4570  130.4170   58.1830 C   0  0  0  0  0  0  0  0  0  0  0  0
  130.7640  131.6040   57.5220 C   0  0  0  0  0  0  0  0  0  0  0  0
  130.6740  131.6860   56.1330 C   0  0  0  0  0  0  0  0  0  0  0  0
  130.9910  132.9040   55.5640 O   0  0  0  0  0  0  0  0  0  0  0  0
  132.3560  133.3000   55.4850 C   0  0  0  0  0  0  0  0  0  0  0  0
  130.2760  130.5520   55.4070 C   0  0  0  0  0  0  0  0  0  0  0  0
  129.9710  129.3670   56.0700 C   0  0  0  0  0  0  0  0  0  0  0  0
  128.6070  127.2020   57.8640 C   0  0  0  0  0  0  0  0  0  0  0  0
  127.6380  127.6200   56.8460 C   0  0  0  0  0  0  0  0  0  0  0  0
  126.8730  127.9500   56.0430 N   0  0  0  0  0  0  0  0  0  0  0  0
  124.6063  122.7395   57.2847 H   0  0  0  0  0  0  0  0  0  0  0  0
  124.5177  123.6980   55.7681 H   0  0  0  0  0  0  0  0  0  0  0  0
  124.0282  121.9697   55.7681 H   0  0  0  0  0  0  0  0  0  0  0  0
  128.2852  124.4847   56.2353 H   0  0  0  0  0  0  0  0  0  0  0  0
  126.5402  124.7149   55.9552 H   0  0  0  0  0  0  0  0  0  0  0  0
  132.7527  125.2222   59.8207 H   0  0  0  0  0  0  0  0  0  0  0  0
  134.1666  124.4508   61.7031 H   0  0  0  0  0  0  0  0  0  0  0  0
  133.7224  124.3196   66.2555 H   0  0  0  0  0  0  0  0  0  0  0  0
  134.1818  125.9639   65.6971 H   0  0  0  0  0  0  0  0  0  0  0  0
  132.4562  125.4648   65.6971 H   0  0  0  0  0  0  0  0  0  0  0  0
  131.1988  125.8523   64.5088 H   0  0  0  0  0  0  0  0  0  0  0  0
  129.7875  126.6291   62.6259 H   0  0  0  0  0  0  0  0  0  0  0  0
  131.4286  128.2437   59.4941 H   0  0  0  0  0  0  0  0  0  0  0  0
  130.5371  130.3663   59.2789 H   0  0  0  0  0  0  0  0  0  0  0  0
  131.0802  132.4843   58.1008 H   0  0  0  0  0  0  0  0  0  0  0  0
  132.7629  133.4180   56.5001 H   0  0  0  0  0  0  0  0  0  0  0  0
  132.9302  132.5314   54.9469 H   0  0  0  0  0  0  0  0  0  0  0  0
  132.4297  134.2566   54.9469 H   0  0  0  0  0  0  0  0  0  0  0  0
  130.2050  130.6004   54.3104 H   0  0  0  0  0  0  0  0  0  0  0  0
  129.6664  128.4822   55.4917 H   0  0  0  0  0  0  0  0  0  0  0  0
  1  2  1  0
  2  3  1  0
  3  4  2  0
  3  5  1  0
  5  6  1  0
  6  7  1  0
  7  8  2  0
  8  9  1  0
  9 10  1  0
 10 11  2  0
 11 12  1  0
 12 13  2  0
 13 14  1  0
 14 15  1  0
 13 16  1  0
 16 17  2  0
  9 18  2  0
 18 19  1  0
 19 20  1  0
 20 21  2  0
 21 22  1  0
 22 23  2  0
 23 24  1  0
 24 25  1  0
 23 26  1  0
 26 27  2  0
 19 28  2  0
 28 29  1  0
 29 30  3  0
 28  7  1  0
 17 10  1  0
 27 20  1  0
  1 31  1  0
  1 32  1  0
  1 33  1  0
  5 34  1  0
  5 35  1  0
 11 36  1  0
 12 37  1  0
 15 38  1  0
 15 39  1  0
 15 40  1  0
 16 41  1  0
 17 42  1  0
 18 43  1  0
 21 44  1  0
 22 45  1  0
 25 46  1  0
 25 47  1  0
 25 48  1  0
 26 49  1  0
 27 50  1  0
M  END
>  <Binding energies>  (1) 
[-7.88]

>  <Ligand effiencies>  (1) 
[-0.26266666666666666]

>  <Interactions>  (1) 
["V-B:TYR:539:CD1:9845, V-B:ILE:538:CD1:9837, V-B:PRO:540:CD:9859, V-B:LEU:363:CD1:8161, V-B:TYR:539:C:9839, H-B:TYR:539:N:9842, V-B:ILE:538:CG2:9835, V-B:MET:535:CE:9807, V-B:PRO:540:N:9856, V-B:TYR:531:CE2:9765, H-A:TYR:484:OH:4348, V-A:ASP:366:CG:3213, V-B:TYR:531:CZ:9766, H-A:TYR:539:N:4870, V-A:PRO:540:CA:4883, V-A:PRO:540:N:4884, V-A:PRO:540:CB:4885, V-A:LEU:363:CD1:3189, V-A:GLU:543:CD:4908, H-A:GLY:454:N:4050, V-A:ARG:545:CZ:4926, V-A:PRO:540:CD:4887, H-B:TYR:531:OH:9767, V-A:ILE:538:CA:4860, V-A:ILE:538:CB:4862, V-A:TYR:484:CE2:4346, H-A:ARG:545:NE:4924, V-A:TYR:484:CZ:4347, V-A:ARG:545:CG:4922, V-A:ILE:538:CG2:4863, V-A:ARG:545:CD:4923, V-A:PRO:540:CG:4886, V-A:ILE:538:CD1:4865"]

$$$$
1d_Grossjean_2025
     RDKit          3D

 36 37  0  0  0  0  0  0  0  0999 V2000
  132.8540  124.7030   61.1370 C   0  0  0  0  0  0  0  0  0  0  0  0
  132.2100  123.3320   61.0740 C   0  0  0  0  0  0  0  0  0  0  0  0
  132.8080  122.2750   60.3910 C   0  0  0  0  0  0  0  0  0  0  0  0
  132.1730  121.0290   60.3750 C   0  0  0  0  0  0  0  0  0  0  0  0
  132.8560  119.8820   59.6330 C   0  0  0  0  0  0  0  0  0  0  0  0
  130.9370  120.8740   61.0440 C   0  0  0  0  0  0  0  0  0  0  0  0
  130.2780  119.5670   61.0810 C   0  0  0  0  0  0  0  0  0  0  0  0
  129.7600  118.5320   61.1090 N   0  0  0  0  0  0  0  0  0  0  0  0
  130.3910  122.0070   61.6910 C   0  0  0  0  0  0  0  0  0  0  0  0
  128.8490  121.9930   62.5780 S   0  0  0  0  0  0  0  0  0  0  0  0
  127.9380  123.4960   62.1070 C   0  0  0  0  0  0  0  0  0  0  0  0
  126.9350  123.2330   60.9830 C   0  0  0  0  0  0  0  0  0  0  0  0
  125.7760  122.9340   61.2700 O   0  0  0  0  0  0  0  0  0  0  0  0
  127.4190  123.3810   59.7310 N   0  0  0  0  0  0  0  0  0  0  0  0
  126.7790  123.2010   58.4900 C   0  0  0  0  0  0  0  0  0  0  0  0
  127.6190  122.9020   57.4140 C   0  0  0  0  0  0  0  0  0  0  0  0
  127.0880  122.6990   56.1430 C   0  0  0  0  0  0  0  0  0  0  0  0
  125.7120  122.7890   55.9480 C   0  0  0  0  0  0  0  0  0  0  0  0
  124.8630  123.0780   57.0130 C   0  0  0  0  0  0  0  0  0  0  0  0
  125.3910  123.2830   58.2850 C   0  0  0  0  0  0  0  0  0  0  0  0
  131.0260  123.2070   61.7190 N   0  0  0  0  0  0  0  0  0  0  0  0
  132.9914  124.9956   62.1884 H   0  0  0  0  0  0  0  0  0  0  0  0
  133.8318  124.6722   60.6341 H   0  0  0  0  0  0  0  0  0  0  0  0
  132.2060  125.4360   60.6341 H   0  0  0  0  0  0  0  0  0  0  0  0
  133.7668  122.4186   59.8713 H   0  0  0  0  0  0  0  0  0  0  0  0
  133.2777  119.1737   60.3613 H   0  0  0  0  0  0  0  0  0  0  0  0
  132.1194  119.3636   59.0016 H   0  0  0  0  0  0  0  0  0  0  0  0
  133.6628  120.2826   59.0016 H   0  0  0  0  0  0  0  0  0  0  0  0
  127.3945  123.8714   62.9866 H   0  0  0  0  0  0  0  0  0  0  0  0
  128.6679  124.2342   61.7434 H   0  0  0  0  0  0  0  0  0  0  0  0
  128.3810  123.6780   59.6580 H   0  0  0  0  0  0  0  0  0  0  0  0
  128.7050  122.8266   57.5719 H   0  0  0  0  0  0  0  0  0  0  0  0
  127.7522  122.4686   55.2969 H   0  0  0  0  0  0  0  0  0  0  0  0
  125.2922  122.6304   54.9437 H   0  0  0  0  0  0  0  0  0  0  0  0
  123.7772  123.1442   56.8498 H   0  0  0  0  0  0  0  0  0  0  0  0
  124.7223  123.5089   59.1287 H   0  0  0  0  0  0  0  0  0  0  0  0
  1  2  1  0
  2  3  2  0
  3  4  1  0
  4  5  1  0
  4  6  2  0
  6  7  1  0
  7  8  3  0
  6  9  1  0
  9 10  1  0
 10 11  1  0
 11 12  1  0
 12 13  2  0
 12 14  1  0
 14 15  1  0
 15 16  2  0
 16 17  1  0
 17 18  2  0
 18 19  1  0
 19 20  2  0
  9 21  2  0
 21  2  1  0
 20 15  1  0
  1 22  1  0
  1 23  1  0
  1 24  1  0
  3 25  1  0
  5 26  1  0
  5 27  1  0
  5 28  1  0
 11 29  1  0
 11 30  1  0
 14 31  1  0
 16 32  1  0
 17 33  1  0
 18 34  1  0
 19 35  1  0
 20 36  1  0
M  END
>  <Binding energies>  (1) 
[-7.44]

>  <Ligand effiencies>  (1) 
[-0.3381818181818182]

>  <Interactions>  (1) 
["V-B:TYR:539:CD1:9845, V-B:ILE:538:CD1:9837, V-B:PRO:540:CB:9857, V-B:PRO:540:CD:9859, V-B:LEU:363:CD1:8161, V-B:GLU:543:CD:9880, V-B:TYR:539:C:9839, V-B:PRO:540:CA:9855, V-B:TYR:539:CE2:9848, V-B:TYR:539:CD2:9846, V-B:ILE:538:CA:9832, V-B:MET:535:CE:9807, V-B:TYR:539:CZ:9849, V-B:TYR:539:CE1:9847, V-B:PRO:540:N:9856, V-B:TYR:531:CE2:9765, V-A:SER:385:CB:3409, H-A:TYR:484:OH:4348, V-A:ASP:366:CG:3213, V-B:TYR:539:CG:9844, V-A:LEU:475:CD2:4259, V-A:ILE:369:CG2:3237, H-B:ALA:541:N:9863, V-B:GLU:543:CG:9879, V-A:SER:385:CA:3407"]

$$$$
1e_Grossjean_2025
     RDKit          3D

 38 39  0  0  0  0  0  0  0  0999 V2000
  127.1460  122.3720   55.1010 C   0  0  0  0  0  0  0  0  0  0  0  0
  126.4790  122.7790   56.4010 C   0  0  0  0  0  0  0  0  0  0  0  0
  125.1240  123.1160   56.4540 C   0  0  0  0  0  0  0  0  0  0  0  0
  124.5790  123.4820   57.6850 C   0  0  0  0  0  0  0  0  0  0  0  0
  125.3910  123.5060   58.8210 C   0  0  0  0  0  0  0  0  0  0  0  0
  126.7410  123.1520   58.6990 C   0  0  0  0  0  0  0  0  0  0  0  0
  127.5110  123.2060   59.8740 N   0  0  0  0  0  0  0  0  0  0  0  0
  127.1110  123.0170   61.1510 C   0  0  0  0  0  0  0  0  0  0  0  0
  125.9560  122.7680   61.5000 O   0  0  0  0  0  0  0  0  0  0  0  0
  128.1990  123.1600   62.2170 C   0  0  0  0  0  0  0  0  0  0  0  0
  129.1340  121.6180   62.4460 S   0  0  0  0  0  0  0  0  0  0  0  0
  130.6350  121.7130   61.4900 C   0  0  0  0  0  0  0  0  0  0  0  0
  131.1720  122.9590   61.4510 N   0  0  0  0  0  0  0  0  0  0  0  0
  132.3140  123.1560   60.7510 C   0  0  0  0  0  0  0  0  0  0  0  0
  132.8570  124.5710   60.7590 C   0  0  0  0  0  0  0  0  0  0  0  0
  132.9560  122.1320   60.0580 C   0  0  0  0  0  0  0  0  0  0  0  0
  132.3980  120.8500   60.0710 C   0  0  0  0  0  0  0  0  0  0  0  0
  133.1120  119.7490   59.2870 C   0  0  0  0  0  0  0  0  0  0  0  0
  131.2040  120.6210   60.7920 C   0  0  0  0  0  0  0  0  0  0  0  0
  130.5770  119.2980   60.7670 C   0  0  0  0  0  0  0  0  0  0  0  0
  130.0830  118.2510   60.7460 N   0  0  0  0  0  0  0  0  0  0  0  0
  127.2810  122.7960   57.4960 N   0  0  0  0  0  0  0  0  0  0  0  0
  128.0660  121.8106   55.3210 H   0  0  0  0  0  0  0  0  0  0  0  0
  126.4600  121.7384   54.5196 H   0  0  0  0  0  0  0  0  0  0  0  0
  127.3957  123.2718   54.5196 H   0  0  0  0  0  0  0  0  0  0  0  0
  124.5020  123.0933   55.5470 H   0  0  0  0  0  0  0  0  0  0  0  0
  123.5149  123.7504   57.7605 H   0  0  0  0  0  0  0  0  0  0  0  0
  124.9767  123.7985   59.7971 H   0  0  0  0  0  0  0  0  0  0  0  0
  128.4750  123.4720   59.7350 H   0  0  0  0  0  0  0  0  0  0  0  0
  128.8946  123.9550   61.9102 H   0  0  0  0  0  0  0  0  0  0  0  0
  127.7099  123.4059   63.1711 H   0  0  0  0  0  0  0  0  0  0  0  0
  132.9864  124.9082   61.7980 H   0  0  0  0  0  0  0  0  0  0  0  0
  133.8279  124.5941   60.2424 H   0  0  0  0  0  0  0  0  0  0  0  0
  132.1508  125.2377   60.2424 H   0  0  0  0  0  0  0  0  0  0  0  0
  133.8883  122.3292   59.5086 H   0  0  0  0  0  0  0  0  0  0  0  0
  133.5727  119.0386   59.9892 H   0  0  0  0  0  0  0  0  0  0  0  0
  132.3850  119.2194   58.6538 H   0  0  0  0  0  0  0  0  0  0  0  0
  133.8921  120.1967   58.6538 H   0  0  0  0  0  0  0  0  0  0  0  0
  1  2  1  0
  2  3  2  0
  3  4  1  0
  4  5  2  0
  5  6  1  0
  6  7  1  0
  7  8  1  0
  8  9  2  0
  8 10  1  0
 10 11  1  0
 11 12  1  0
 12 13  2  0
 13 14  1  0
 14 15  1  0
 14 16  2  0
 16 17  1  0
 17 18  1  0
 17 19  2  0
 19 20  1  0
 20 21  3  0
  6 22  2  0
 22  2  1  0
 19 12  1  0
  1 23  1  0
  1 24  1  0
  1 25  1  0
  3 26  1  0
  4 27  1  0
  5 28  1  0
  7 29  1  0
 10 30  1  0
 10 31  1  0
 15 32  1  0
 15 33  1  0
 15 34  1  0
 16 35  1  0
 18 36  1  0
 18 37  1  0
 18 38  1  0
M  END
>  <Binding energies>  (1) 
[-7.89]

>  <Ligand effiencies>  (1) 
[-0.34304347826086956]

>  <Interactions>  (1) 
["V-B:TYR:539:CD1:9845, V-B:ILE:538:CD1:9837, V-B:PRO:540:CB:9857, V-B:LEU:363:CD1:8161, V-B:GLU:543:CD:9880, V-B:TYR:539:C:9839, V-B:PRO:540:CA:9855, V-B:TYR:539:CE2:9848, V-B:TYR:539:CD2:9846, V-B:ILE:538:CA:9832, V-B:MET:535:CE:9807, V-B:PRO:540:C:9853, V-B:TYR:539:CE1:9847, V-B:PRO:540:N:9856, V-B:TYR:531:CE2:9765, V-A:SER:385:CB:3409, H-A:TYR:484:OH:4348, V-A:ASP:366:CG:3213, V-B:TYR:539:CG:9844, V-A:LEU:475:CD2:4259, V-B:TYR:531:CZ:9766, V-A:ILE:369:CG2:3237, V-B:ILE:538:C:9830, H-B:ALA:541:N:9863, V-A:LEU:373:CD1:3280, V-B:GLU:543:CG:9879, V-A:SER:385:CA:3407"]

$$$$
1f_Grossjean_2025
     RDKit          3D

 35 36  0  0  0  0  0  0  0  0999 V2000
  129.4860  125.2310   57.4820 C   0  0  0  0  0  0  0  0  0  0  0  0
  130.4110  124.5720   58.4880 C   0  0  0  0  0  0  0  0  0  0  0  0
  131.7930  124.7260   58.4190 C   0  0  0  0  0  0  0  0  0  0  0  0
  132.5960  124.0840   59.3680 C   0  0  0  0  0  0  0  0  0  0  0  0
  134.1100  124.2520   59.2610 C   0  0  0  0  0  0  0  0  0  0  0  0
  131.9850  123.3040   60.3770 C   0  0  0  0  0  0  0  0  0  0  0  0
  132.8120  122.5790   61.3450 C   0  0  0  0  0  0  0  0  0  0  0  0
  133.4660  122.0070   62.1100 N   0  0  0  0  0  0  0  0  0  0  0  0
  130.5730  123.2260   60.3870 C   0  0  0  0  0  0  0  0  0  0  0  0
  129.6300  122.2940   61.5780 S   0  0  0  0  0  0  0  0  0  0  0  0
  128.1370  123.2520   62.0080 C   0  0  0  0  0  0  0  0  0  0  0  0
  126.9490  123.0600   61.0550 C   0  0  0  0  0  0  0  0  0  0  0  0
  125.8370  122.7640   61.4950 O   0  0  0  0  0  0  0  0  0  0  0  0
  127.2470  123.2170   59.7480 N   0  0  0  0  0  0  0  0  0  0  0  0
  126.4120  123.1230   58.6180 C   0  0  0  0  0  0  0  0  0  0  0  0
  125.0970  123.6170   58.5270 C   0  0  0  0  0  0  0  0  0  0  0  0
  124.3800  123.4580   57.3380 C   0  0  0  0  0  0  0  0  0  0  0  0
  124.9960  122.8100   56.2670 C   0  0  0  0  0  0  0  0  0  0  0  0
  126.2630  122.3290   56.3280 N   0  0  0  0  0  0  0  0  0  0  0  0
  126.9470  122.4920   57.4890 C   0  0  0  0  0  0  0  0  0  0  0  0
  129.8050  123.8330   59.4480 N   0  0  0  0  0  0  0  0  0  0  0  0
  128.7024  125.7893   58.0152 H   0  0  0  0  0  0  0  0  0  0  0  0
  130.0636  125.9223   56.8507 H   0  0  0  0  0  0  0  0  0  0  0  0
  129.0213  124.4593   56.8507 H   0  0  0  0  0  0  0  0  0  0  0  0
  132.2470  125.3434   57.6299 H   0  0  0  0  0  0  0  0  0  0  0  0
  134.5458  124.3004   60.2699 H   0  0  0  0  0  0  0  0  0  0  0  0
  134.5365  123.3957   58.7180 H   0  0  0  0  0  0  0  0  0  0  0  0
  134.3384  125.1810   58.7180 H   0  0  0  0  0  0  0  0  0  0  0  0
  127.8175  122.9522   63.0170 H   0  0  0  0  0  0  0  0  0  0  0  0
  128.4203  124.3126   61.9380 H   0  0  0  0  0  0  0  0  0  0  0  0
  128.2130  123.4180   59.5330 H   0  0  0  0  0  0  0  0  0  0  0  0
  124.6364  124.1253   59.3869 H   0  0  0  0  0  0  0  0  0  0  0  0
  123.3509  123.8361   57.2484 H   0  0  0  0  0  0  0  0  0  0  0  0
  124.4297  122.6836   55.3325 H   0  0  0  0  0  0  0  0  0  0  0  0
  127.9762  122.1079   57.5456 H   0  0  0  0  0  0  0  0  0  0  0  0
  1  2  1  0
  2  3  2  0
  3  4  1  0
  4  5  1  0
  4  6  2  0
  6  7  1  0
  7  8  3  0
  6  9  1  0
  9 10  1  0
 10 11  1  0
 11 12  1  0
 12 13  2  0
 12 14  1  0
 14 15  1  0
 15 16  2  0
 16 17  1  0
 17 18  2  0
 18 19  1  0
 19 20  2  0
  9 21  2  0
 21  2  1  0
 20 15  1  0
  1 22  1  0
  1 23  1  0
  1 24  1  0
  3 25  1  0
  5 26  1  0
  5 27  1  0
  5 28  1  0
 11 29  1  0
 11 30  1  0
 14 31  1  0
 16 32  1  0
 17 33  1  0
 18 34  1  0
 20 35  1  0
M  END
>  <Binding energies>  (1) 
[-7.16]

>  <Ligand effiencies>  (1) 
[-0.32545454545454544]

>  <Interactions>  (1) 
["V-B:ILE:538:CD1:9837, V-B:PRO:540:CB:9857, V-B:PRO:540:CD:9859, V-B:LEU:363:CD1:8161, V-B:GLU:543:CD:9880, V-B:TYR:539:C:9839, V-B:PRO:540:CA:9855, H-B:TYR:539:N:9842, V-B:ILE:538:CG2:9835, V-B:TYR:539:CE2:9848, V-B:TYR:539:CZ:9849, V-B:PRO:540:C:9853, V-B:PRO:540:N:9856, V-B:TYR:531:CE2:9765, H-A:TYR:484:OH:4348, V-A:ASP:366:CA:3210, V-A:ASP:366:CG:3213, V-A:LEU:475:CD2:4259, V-B:TYR:531:CZ:9766, V-A:ILE:369:CD1:3239, V-A:ASP:366:CB:3212, V-A:ILE:369:CB:3236, V-A:ILE:369:CG2:3237, V-B:TYR:539:CA:9841, H-B:ALA:541:N:9863, H-A:GLY:454:N:4050, V-A:ILE:369:CG1:3238"]

$$$$
1g_Grossjean_2025
     RDKit          3D

 39 40  0  0  0  0  0  0  0  0999 V2000
  128.3500  123.3550   56.1960 C   0  0  0  0  0  0  0  0  0  0  0  0
  127.3930  123.3870   57.3720 C   0  0  0  0  0  0  0  0  0  0  0  0
  126.0450  123.7000   57.2080 C   0  0  0  0  0  0  0  0  0  0  0  0
  125.2130  123.7300   58.3330 C   0  0  0  0  0  0  0  0  0  0  0  0
  123.7410  124.0900   58.1300 C   0  0  0  0  0  0  0  0  0  0  0  0
  125.7560  123.4350   59.6030 C   0  0  0  0  0  0  0  0  0  0  0  0
  124.9160  123.5110   60.8010 C   0  0  0  0  0  0  0  0  0  0  0  0
  124.2500  123.5740   61.7460 N   0  0  0  0  0  0  0  0  0  0  0  0
  127.1300  123.1030   59.6720 C   0  0  0  0  0  0  0  0  0  0  0  0
  127.9730  122.6960   61.1850 S   0  0  0  0  0  0  0  0  0  0  0  0
  129.7380  123.0490   60.9310 C   0  0  0  0  0  0  0  0  0  0  0  0
  130.6150  121.8340   61.2370 C   0  0  0  0  0  0  0  0  0  0  0  0
  130.5250  121.2670   62.3270 O   0  0  0  0  0  0  0  0  0  0  0  0
  131.4620  121.4510   60.2660 N   0  0  0  0  0  0  0  0  0  0  0  0
  132.3460  120.2870   60.3210 C   0  0  0  0  0  0  0  0  0  0  0  0
  131.6610  118.9630   59.9980 C   0  0  0  0  0  0  0  0  0  0  0  0
  130.5690  118.5370   60.7610 C   0  0  0  0  0  0  0  0  0  0  0  0
  129.9430  117.3290   60.4660 C   0  0  0  0  0  0  0  0  0  0  0  0
  130.4090  116.5520   59.4060 C   0  0  0  0  0  0  0  0  0  0  0  0
  131.4930  116.9720   58.6400 C   0  0  0  0  0  0  0  0  0  0  0  0
  132.1200  118.1800   58.9350 C   0  0  0  0  0  0  0  0  0  0  0  0
  127.9340  123.0990   58.5790 N   0  0  0  0  0  0  0  0  0  0  0  0
  129.3852  123.3204   56.5665 H   0  0  0  0  0  0  0  0  0  0  0  0
  128.1495  122.4631   55.5843 H   0  0  0  0  0  0  0  0  0  0  0  0
  128.2095  124.2583   55.5843 H   0  0  0  0  0  0  0  0  0  0  0  0
  125.6408  123.9203   56.2090 H   0  0  0  0  0  0  0  0  0  0  0  0
  123.2542  124.2090   59.1092 H   0  0  0  0  0  0  0  0  0  0  0  0
  123.6682  125.0324   57.5674 H   0  0  0  0  0  0  0  0  0  0  0  0
  123.2415  123.2875   57.5674 H   0  0  0  0  0  0  0  0  0  0  0  0
  129.8938  123.3446   59.8830 H   0  0  0  0  0  0  0  0  0  0  0  0
  130.0253  123.8575   61.6193 H   0  0  0  0  0  0  0  0  0  0  0  0
  131.4550  121.9620   59.3940 H   0  0  0  0  0  0  0  0  0  0  0  0
  133.1609  120.4387   59.5978 H   0  0  0  0  0  0  0  0  0  0  0  0
  132.7038  120.2118   61.3585 H   0  0  0  0  0  0  0  0  0  0  0  0
  130.2048  119.1563   61.5940 H   0  0  0  0  0  0  0  0  0  0  0  0
  129.0857  116.9894   61.0657 H   0  0  0  0  0  0  0  0  0  0  0  0
  129.9150  115.5973   59.1726 H   0  0  0  0  0  0  0  0  0  0  0  0
  131.8527  116.3523   57.8053 H   0  0  0  0  0  0  0  0  0  0  0  0
  132.9758  118.5177   58.3320 H   0  0  0  0  0  0  0  0  0  0  0  0
  1  2  1  0
  2  3  2  0
  3  4  1  0
  4  5  1  0
  4  6  2  0
  6  7  1  0
  7  8  3  0
  6  9  1  0
  9 10  1  0
 10 11  1  0
 11 12  1  0
 12 13  2  0
 12 14  1  0
 14 15  1  0
 15 16  1  0
 16 17  2  0
 17 18  1  0
 18 19  2  0
 19 20  1  0
 20 21  2  0
  9 22  2  0
 22  2  1  0
 21 16  1  0
  1 23  1  0
  1 24  1  0
  1 25  1  0
  3 26  1  0
  5 27  1  0
  5 28  1  0
  5 29  1  0
 11 30  1  0
 11 31  1  0
 14 32  1  0
 15 33  1  0
 15 34  1  0
 17 35  1  0
 18 36  1  0
 19 37  1  0
 20 38  1  0
 21 39  1  0
M  END
>  <Binding energies>  (1) 
[-7.76]

>  <Ligand effiencies>  (1) 
[-0.3373913043478261]

>  <Interactions>  (1) 
["V-B:TYR:539:CD1:9845, V-B:PRO:540:CB:9857, V-B:LEU:363:CD1:8161, V-B:TYR:539:C:9839, V-B:PRO:540:CA:9855, V-B:TYR:539:CE2:9848, V-B:TYR:539:CD2:9846, V-B:MET:535:CE:9807, V-B:TYR:539:CZ:9849, V-B:TYR:539:CE1:9847, V-B:PRO:540:N:9856, V-B:TYR:531:CE2:9765, V-A:SER:385:CB:3409, V-A:PRO:482:CB:4326, V-A:LEU:475:CD1:4258, H-A:TYR:484:OH:4348, V-B:TYR:539:CG:9844, V-A:LEU:475:CD2:4259, V-B:TYR:531:CZ:9766, V-A:LEU:475:CG:4257, V-A:PRO:482:CG:4327, V-B:ASP:366:CG:8185, V-B:ASP:366:CB:8184, H-B:ARG:545:NH2:9900, V-B:VAL:344:CG1:7973, V-B:TYR:539:CB:9843, V-A:LEU:373:CD1:3280, V-A:HIS:383:CE1:3394, V-B:LEU:363:CA:8157, V-B:LEU:363:CB:8159"]

$$$$
1h_Grossjean_2025
     RDKit          3D

 51 52  0  0  0  0  0  0  0  0999 V2000
  130.2620  118.3170   60.8970 C   0  0  0  0  0  0  0  0  0  0  0  0
  131.0400  119.4710   60.6010 O   0  0  0  0  0  0  0  0  0  0  0  0
  130.5520  120.7220   60.9330 C   0  0  0  0  0  0  0  0  0  0  0  0
  129.3330  120.9360   61.5970 C   0  0  0  0  0  0  0  0  0  0  0  0
  128.8960  122.2290   61.8880 C   0  0  0  0  0  0  0  0  0  0  0  0
  127.5810  122.4480   62.6300 C   0  0  0  0  0  0  0  0  0  0  0  0
  126.5440  123.0920   61.8240 N   0  0  0  0  0  0  0  0  0  0  0  0
  125.2340  123.1300   62.1300 C   0  0  0  0  0  0  0  0  0  0  0  0
  124.7570  122.6410   63.1540 O   0  0  0  0  0  0  0  0  0  0  0  0
  124.3190  123.8230   61.1210 C   0  0  0  0  0  0  0  0  0  0  0  0
  124.8290  123.5000   59.4060 S   0  0  0  0  0  0  0  0  0  0  0  0
  126.3540  124.3800   59.1070 C   0  0  0  0  0  0  0  0  0  0  0  0
  126.6780  125.3270   60.0260 N   0  0  0  0  0  0  0  0  0  0  0  0
  127.8240  126.0290   59.8620 C   0  0  0  0  0  0  0  0  0  0  0  0
  128.1200  127.0650   60.9310 C   0  0  0  0  0  0  0  0  0  0  0  0
  128.6860  125.8220   58.7880 C   0  0  0  0  0  0  0  0  0  0  0  0
  128.3620  124.8520   57.8330 C   0  0  0  0  0  0  0  0  0  0  0  0
  129.3210  124.6400   56.6640 C   0  0  0  0  0  0  0  0  0  0  0  0
  127.1700  124.1070   57.9850 C   0  0  0  0  0  0  0  0  0  0  0  0
  126.8040  123.0860   57.0000 C   0  0  0  0  0  0  0  0  0  0  0  0
  126.5150  122.2790   56.2210 N   0  0  0  0  0  0  0  0  0  0  0  0
  129.6970  123.3200   61.5480 C   0  0  0  0  0  0  0  0  0  0  0  0
  130.9230  123.1350   60.8890 C   0  0  0  0  0  0  0  0  0  0  0  0
  131.7660  124.1680   60.5200 O   0  0  0  0  0  0  0  0  0  0  0  0
  131.9550  125.2660   61.4070 C   0  0  0  0  0  0  0  0  0  0  0  0
  131.3340  121.8300   60.5770 C   0  0  0  0  0  0  0  0  0  0  0  0
  132.5340  121.6330   59.9380 O   0  0  0  0  0  0  0  0  0  0  0  0
  133.6630  121.6900   60.7980 C   0  0  0  0  0  0  0  0  0  0  0  0
  130.1821  118.1985   61.9877 H   0  0  0  0  0  0  0  0  0  0  0  0
  129.2565  118.4322   60.4661 H   0  0  0  0  0  0  0  0  0  0  0  0
  130.7459  117.4281   60.4661 H   0  0  0  0  0  0  0  0  0  0  0  0
  128.7156  120.0744   61.8911 H   0  0  0  0  0  0  0  0  0  0  0  0
  127.2037  121.4694   62.9616 H   0  0  0  0  0  0  0  0  0  0  0  0
  127.7979  123.1246   63.4697 H   0  0  0  0  0  0  0  0  0  0  0  0
  126.8480  123.5070   60.9560 H   0  0  0  0  0  0  0  0  0  0  0  0
  123.2920  123.4549   61.2615 H   0  0  0  0  0  0  0  0  0  0  0  0
  124.3801  124.9074   61.2954 H   0  0  0  0  0  0  0  0  0  0  0  0
  127.9908  126.6129   61.9255 H   0  0  0  0  0  0  0  0  0  0  0  0
  129.1554  127.4197   60.8211 H   0  0  0  0  0  0  0  0  0  0  0  0
  127.4283  127.9132   60.8211 H   0  0  0  0  0  0  0  0  0  0  0  0
  129.6088  126.4129   58.6918 H   0  0  0  0  0  0  0  0  0  0  0  0
  130.3266  124.4177   57.0504 H   0  0  0  0  0  0  0  0  0  0  0  0
  128.9698  123.7978   56.0497 H   0  0  0  0  0  0  0  0  0  0  0  0
  129.3575  125.5518   56.0497 H   0  0  0  0  0  0  0  0  0  0  0  0
  129.3637  124.3377   61.7994 H   0  0  0  0  0  0  0  0  0  0  0  0
  131.8941  124.9121   62.4467 H   0  0  0  0  0  0  0  0  0  0  0  0
  132.9436  125.7146   61.2297 H   0  0  0  0  0  0  0  0  0  0  0  0
  131.1733  126.0194   61.2297 H   0  0  0  0  0  0  0  0  0  0  0  0
  133.3273  121.6731   61.8454 H   0  0  0  0  0  0  0  0  0  0  0  0
  134.3133  120.8235   60.6073 H   0  0  0  0  0  0  0  0  0  0  0  0
  134.2227  122.6175   60.6073 H   0  0  0  0  0  0  0  0  0  0  0  0
  1  2  1  0
  2  3  1  0
  3  4  2  0
  4  5  1  0
  5  6  1  0
  6  7  1  0
  7  8  1  0
  8  9  2  0
  8 10  1  0
 10 11  1  0
 11 12  1  0
 12 13  2  0
 13 14  1  0
 14 15  1  0
 14 16  2  0
 16 17  1  0
 17 18  1  0
 17 19  2  0
 19 20  1  0
 20 21  3  0
  5 22  2  0
 22 23  1  0
 23 24  1  0
 24 25  1  0
 23 26  2  0
 26 27  1  0
 27 28  1  0
 26  3  1  0
 19 12  1  0
  1 29  1  0
  1 30  1  0
  1 31  1  0
  4 32  1  0
  6 33  1  0
  6 34  1  0
  7 35  1  0
 10 36  1  0
 10 37  1  0
 15 38  1  0
 15 39  1  0
 15 40  1  0
 16 41  1  0
 18 42  1  0
 18 43  1  0
 18 44  1  0
 22 45  1  0
 25 46  1  0
 25 47  1  0
 25 48  1  0
 28 49  1  0
 28 50  1  0
 28 51  1  0
M  END
>  <Binding energies>  (1) 
[-6.32]

>  <Ligand effiencies>  (1) 
[-0.21793103448275863]

>  <Interactions>  (1) 
["V-B:PRO:540:CB:9857, V-B:GLU:543:CD:9880, V-B:PRO:540:CA:9855, H-B:TYR:539:N:9842, H-B:GLU:543:OE1:9881, V-B:TYR:539:CE2:9848, V-B:TYR:539:CD2:9846, V-B:MET:535:CE:9807, V-B:ALA:541:CB:9864, V-B:TYR:539:CZ:9849, V-B:PRO:540:C:9853, V-B:TYR:539:CE1:9847, V-B:PRO:540:N:9856, V-A:PRO:482:CB:4326, V-A:LEU:475:CD1:4258, V-A:LEU:475:CD2:4259, V-A:ILE:369:CD1:3239, V-A:ILE:369:CG2:3237, V-B:ASP:366:CG:8185, H-B:ALA:541:N:9863, H-B:ASN:362:ND2:8151, V-B:ASN:362:CB:8148, V-B:ALA:541:CA:9862, V-B:GLU:543:CG:9879"]

$$$$
1i_Grossjean_2025
     RDKit          3D

 32 33  0  0  0  0  0  0  0  0999 V2000
  129.8590  125.2670   58.4230 C   0  0  0  0  0  0  0  0  0  0  0  0
  128.6470  124.5540   57.8540 C   0  0  0  0  0  0  0  0  0  0  0  0
  128.6560  124.0080   56.5730 C   0  0  0  0  0  0  0  0  0  0  0  0
  127.5120  123.3520   56.1040 C   0  0  0  0  0  0  0  0  0  0  0  0
  127.5520  122.7470   54.7030 C   0  0  0  0  0  0  0  0  0  0  0  0
  126.3740  123.2670   56.9390 C   0  0  0  0  0  0  0  0  0  0  0  0
  125.1830  122.5420   56.4880 C   0  0  0  0  0  0  0  0  0  0  0  0
  124.2440  121.9670   56.1310 N   0  0  0  0  0  0  0  0  0  0  0  0
  126.4460  123.8720   58.2160 C   0  0  0  0  0  0  0  0  0  0  0  0
  125.1110  123.8610   59.3930 S   0  0  0  0  0  0  0  0  0  0  0  0
  125.7760  124.4310   60.9850 C   0  0  0  0  0  0  0  0  0  0  0  0
  126.6820  123.3850   61.6390 C   0  0  0  0  0  0  0  0  0  0  0  0
  126.2760  122.7670   62.6240 O   0  0  0  0  0  0  0  0  0  0  0  0
  127.8910  123.2170   61.0590 N   0  0  0  0  0  0  0  0  0  0  0  0
  128.8970  122.3450   61.4500 C   0  0  0  0  0  0  0  0  0  0  0  0
  129.6830  121.6360   60.5440 C   0  0  0  0  0  0  0  0  0  0  0  0
  130.5460  120.8970   61.3200 C   0  0  0  0  0  0  0  0  0  0  0  0
  130.2910  121.1470   62.6260 O   0  0  0  0  0  0  0  0  0  0  0  0
  129.2420  122.0650   62.6960 N   0  0  0  0  0  0  0  0  0  0  0  0
  127.5670  124.4880   58.6690 N   0  0  0  0  0  0  0  0  0  0  0  0
  129.8167  125.2421   59.5219 H   0  0  0  0  0  0  0  0  0  0  0  0
  130.7750  124.7638   58.0799 H   0  0  0  0  0  0  0  0  0  0  0  0
  129.8642  126.3121   58.0799 H   0  0  0  0  0  0  0  0  0  0  0  0
  129.5504  124.0912   55.9381 H   0  0  0  0  0  0  0  0  0  0  0  0
  127.6244  121.6520   54.7784 H   0  0  0  0  0  0  0  0  0  0  0  0
  126.6340  123.0173   54.1605 H   0  0  0  0  0  0  0  0  0  0  0  0
  128.4264  123.1358   54.1605 H   0  0  0  0  0  0  0  0  0  0  0  0
  126.3580  125.3493   60.8178 H   0  0  0  0  0  0  0  0  0  0  0  0
  124.9272  124.6134   61.6605 H   0  0  0  0  0  0  0  0  0  0  0  0
  128.1130  123.8100   60.2720 H   0  0  0  0  0  0  0  0  0  0  0  0
  129.6259  121.6615   59.4458 H   0  0  0  0  0  0  0  0  0  0  0  0
  131.3191  120.2128   60.9403 H   0  0  0  0  0  0  0  0  0  0  0  0
  1  2  1  0
  2  3  2  0
  3  4  1  0
  4  5  1  0
  4  6  2  0
  6  7  1  0
  7  8  3  0
  6  9  1  0
  9 10  1  0
 10 11  1  0
 11 12  1  0
 12 13  2  0
 12 14  1  0
 14 15  1  0
 15 16  1  0
 16 17  2  0
 17 18  1  0
 18 19  1  0
  9 20  2  0
 20  2  1  0
 19 15  2  0
  1 21  1  0
  1 22  1  0
  1 23  1  0
  3 24  1  0
  5 25  1  0
  5 26  1  0
  5 27  1  0
 11 28  1  0
 11 29  1  0
 14 30  1  0
 16 31  1  0
 17 32  1  0
M  END
>  <Binding energies>  (1) 
[-7.01]

>  <Ligand effiencies>  (1) 
[-0.3338095238095238]

>  <Interactions>  (1) 
["V-B:TYR:539:CD1:9845, V-B:ILE:538:CD1:9837, V-B:PRO:540:CB:9857, V-B:PRO:540:CD:9859, V-B:LEU:363:CD1:8161, V-B:GLU:543:CD:9880, V-B:PRO:540:CA:9855, V-B:ILE:538:CG2:9835, V-B:TYR:539:CE2:9848, V-B:TYR:539:CD2:9846, V-B:ILE:538:CA:9832, V-B:MET:535:CE:9807, V-B:TYR:539:CZ:9849, V-B:TYR:539:CE1:9847, V-B:PRO:540:N:9856, H-A:TYR:484:OH:4348, V-A:LEU:475:CD2:4259, H-B:ALA:541:N:9863, V-B:VAL:537:C:9822"]

$$$$
1j_Grossjean_2025
     RDKit          3D

 32 33  0  0  0  0  0  0  0  0999 V2000
  131.4180  118.0230   59.9450 C   0  0  0  0  0  0  0  0  0  0  0  0
  131.3950  119.4790   60.3720 C   0  0  0  0  0  0  0  0  0  0  0  0
  132.5160  120.2950   60.2430 C   0  0  0  0  0  0  0  0  0  0  0  0
  132.4320  121.6330   60.6410 C   0  0  0  0  0  0  0  0  0  0  0  0
  133.6700  122.5130   60.4730 C   0  0  0  0  0  0  0  0  0  0  0  0
  131.2170  122.1210   61.1710 C   0  0  0  0  0  0  0  0  0  0  0  0
  131.0900  123.5320   61.5450 C   0  0  0  0  0  0  0  0  0  0  0  0
  130.9940  124.6470   61.8390 N   0  0  0  0  0  0  0  0  0  0  0  0
  130.1370  121.2140   61.2910 C   0  0  0  0  0  0  0  0  0  0  0  0
  128.5390  121.6550   61.9380 S   0  0  0  0  0  0  0  0  0  0  0  0
  127.9430  123.0960   61.0040 C   0  0  0  0  0  0  0  0  0  0  0  0
  127.8100  122.7960   59.5100 C   0  0  0  0  0  0  0  0  0  0  0  0
  128.7810  122.3550   58.8930 O   0  0  0  0  0  0  0  0  0  0  0  0
  126.5970  123.0470   58.9710 N   0  0  0  0  0  0  0  0  0  0  0  0
  126.2250  122.8670   57.6460 C   0  0  0  0  0  0  0  0  0  0  0  0
  126.9610  122.4040   56.6580 N   0  0  0  0  0  0  0  0  0  0  0  0
  126.2830  122.3660   55.5280 C   0  0  0  0  0  0  0  0  0  0  0  0
  124.9630  122.8040   55.5860 C   0  0  0  0  0  0  0  0  0  0  0  0
  124.6000  123.2890   57.2150 S   0  0  0  0  0  0  0  0  0  0  0  0
  130.2220  119.9240   60.8820 N   0  0  0  0  0  0  0  0  0  0  0  0
  131.4282  117.3794   60.8370 H   0  0  0  0  0  0  0  0  0  0  0  0
  130.5232  117.8029   59.3442 H   0  0  0  0  0  0  0  0  0  0  0  0
  132.3193  117.8313   59.3442 H   0  0  0  0  0  0  0  0  0  0  0  0
  133.4545  119.8928   59.8338 H   0  0  0  0  0  0  0  0  0  0  0  0
  134.0600  122.7902   61.4635 H   0  0  0  0  0  0  0  0  0  0  0  0
  134.4409  121.9591   59.9173 H   0  0  0  0  0  0  0  0  0  0  0  0
  133.4002  123.4232   59.9173 H   0  0  0  0  0  0  0  0  0  0  0  0
  126.9584  123.3907   61.3960 H   0  0  0  0  0  0  0  0  0  0  0  0
  128.6778  123.9058   61.1236 H   0  0  0  0  0  0  0  0  0  0  0  0
  125.8870  123.4330   59.5770 H   0  0  0  0  0  0  0  0  0  0  0  0
  126.7353  122.0081   54.5913 H   0  0  0  0  0  0  0  0  0  0  0  0
  124.2630  122.8377   54.7381 H   0  0  0  0  0  0  0  0  0  0  0  0
  1  2  1  0
  2  3  2  0
  3  4  1  0
  4  5  1  0
  4  6  2  0
  6  7  1  0
  7  8  3  0
  6  9  1  0
  9 10  1  0
 10 11  1  0
 11 12  1  0
 12 13  2  0
 12 14  1  0
 14 15  1  0
 15 16  2  0
 16 17  1  0
 17 18  2  0
 18 19  1  0
  9 20  2  0
 20  2  1  0
 19 15  1  0
  1 21  1  0
  1 22  1  0
  1 23  1  0
  3 24  1  0
  5 25  1  0
  5 26  1  0
  5 27  1  0
 11 28  1  0
 11 29  1  0
 14 30  1  0
 17 31  1  0
 18 32  1  0
M  END
>  <Binding energies>  (1) 
[-6.89]

>  <Ligand effiencies>  (1) 
[-0.3280952380952381]

>  <Interactions>  (1) 
["V-B:ILE:538:CD1:9837, V-B:PRO:540:CB:9857, V-B:PRO:540:CD:9859, V-B:LEU:363:CD1:8161, V-B:TYR:539:C:9839, V-B:PRO:540:CA:9855, H-B:TYR:539:N:9842, V-B:ILE:538:CG2:9835, V-B:TYR:539:CE2:9848, V-B:TYR:539:CD2:9846, V-B:ILE:538:CA:9832, H-B:ASP:366:OD2:8187, V-B:PRO:540:N:9856, V-B:TYR:531:CE2:9765, V-A:SER:385:CB:3409, H-A:TYR:484:OH:4348, V-A:LEU:475:CD2:4259, V-B:TYR:531:CZ:9766, V-A:ILE:369:CD1:3239, V-A:ILE:369:CB:3236, V-A:ILE:369:CG2:3237, V-B:ILE:538:C:9830, H-B:ALA:541:N:9863, V-B:TYR:539:CB:9843"]

$$$$
1k_Grossjean_2025
     RDKit          3D

 50 50  0  0  0  0  0  0  0  0999 V2000
  127.2270  122.8290   55.3740 C   0  0  0  0  0  0  0  0  0  0  0  0
  126.5050  122.1750   56.4050 O   0  0  0  0  0  0  0  0  0  0  0  0
  125.5200  122.9970   57.0170 C   0  0  0  0  0  0  0  0  0  0  0  0
  126.0790  123.5810   58.3210 C   0  0  0  0  0  0  0  0  0  0  0  0
  127.0350  122.6840   58.8700 O   0  0  0  0  0  0  0  0  0  0  0  0
  128.1690  123.3310   59.4330 C   0  0  0  0  0  0  0  0  0  0  0  0
  127.9090  123.6140   60.9180 C   0  0  0  0  0  0  0  0  0  0  0  0
  129.0380  123.2100   61.6820 O   0  0  0  0  0  0  0  0  0  0  0  0
  129.1700  121.8000   61.8070 C   0  0  0  0  0  0  0  0  0  0  0  0
  130.2140  121.2880   60.7970 C   0  0  0  0  0  0  0  0  0  0  0  0
  131.5590  121.8260   61.0080 N   0  0  0  0  0  0  0  0  0  0  0  0
  132.6970  121.2600   60.5690 C   0  0  0  0  0  0  0  0  0  0  0  0
  132.7220  120.2100   59.9250 O   0  0  0  0  0  0  0  0  0  0  0  0
  133.9910  122.0090   60.9280 C   0  0  0  0  0  0  0  0  0  0  0  0
  133.9610  123.8150   60.6520 S   0  0  0  0  0  0  0  0  0  0  0  0
  133.0280  124.5930   61.9640 C   0  0  0  0  0  0  0  0  0  0  0  0
  133.6130  124.5900   63.1890 N   0  0  0  0  0  0  0  0  0  0  0  0
  132.9570  125.1550   64.2290 C   0  0  0  0  0  0  0  0  0  0  0  0
  133.6710  125.1040   65.5650 C   0  0  0  0  0  0  0  0  0  0  0  0
  131.7040  125.7480   64.0930 C   0  0  0  0  0  0  0  0  0  0  0  0
  131.0930  125.7640   62.8340 C   0  0  0  0  0  0  0  0  0  0  0  0
  129.7200  126.4190   62.7070 C   0  0  0  0  0  0  0  0  0  0  0  0
  131.7600  125.1760   61.7370 C   0  0  0  0  0  0  0  0  0  0  0  0
  131.1430  125.1750   60.4070 C   0  0  0  0  0  0  0  0  0  0  0  0
  130.6540  125.1740   59.3580 N   0  0  0  0  0  0  0  0  0  0  0  0
  127.9723  123.5041   55.8198 H   0  0  0  0  0  0  0  0  0  0  0  0
  127.7373  122.0794   54.7514 H   0  0  0  0  0  0  0  0  0  0  0  0
  126.5313  123.4107   54.7514 H   0  0  0  0  0  0  0  0  0  0  0  0
  125.2505  123.8163   56.3343 H   0  0  0  0  0  0  0  0  0  0  0  0
  124.6264  122.3950   57.2385 H   0  0  0  0  0  0  0  0  0  0  0  0
  126.5605  124.5479   58.1130 H   0  0  0  0  0  0  0  0  0  0  0  0
  125.2585  123.7270   59.0389 H   0  0  0  0  0  0  0  0  0  0  0  0
  129.0503  122.6805   59.3322 H   0  0  0  0  0  0  0  0  0  0  0  0
  128.3513  124.2785   58.9048 H   0  0  0  0  0  0  0  0  0  0  0  0
  127.7356  124.6908   61.0612 H   0  0  0  0  0  0  0  0  0  0  0  0
  127.0226  123.0528   61.2486 H   0  0  0  0  0  0  0  0  0  0  0  0
  129.4957  121.5517   62.8279 H   0  0  0  0  0  0  0  0  0  0  0  0
  128.2000  121.3226   61.6040 H   0  0  0  0  0  0  0  0  0  0  0  0
  130.2634  120.1919   60.8759 H   0  0  0  0  0  0  0  0  0  0  0  0
  129.8879  121.6263   59.8024 H   0  0  0  0  0  0  0  0  0  0  0  0
  131.6190  122.6870   61.5310 H   0  0  0  0  0  0  0  0  0  0  0  0
  134.1993  121.8330   61.9937 H   0  0  0  0  0  0  0  0  0  0  0  0
  134.7642  121.6144   60.2524 H   0  0  0  0  0  0  0  0  0  0  0  0
  132.9319  125.1568   66.3780 H   0  0  0  0  0  0  0  0  0  0  0  0
  134.2356  124.1632   65.6433 H   0  0  0  0  0  0  0  0  0  0  0  0
  134.3636  125.9550   65.6433 H   0  0  0  0  0  0  0  0  0  0  0  0
  131.2020  126.1972   64.9626 H   0  0  0  0  0  0  0  0  0  0  0  0
  129.3123  126.6135   63.7100 H   0  0  0  0  0  0  0  0  0  0  0  0
  129.8159  127.3684   62.1597 H   0  0  0  0  0  0  0  0  0  0  0  0
  129.0424  125.7471   62.1597 H   0  0  0  0  0  0  0  0  0  0  0  0
  1  2  1  0
  2  3  1  0
  3  4  1  0
  4  5  1  0
  5  6  1  0
  6  7  1  0
  7  8  1  0
  8  9  1  0
  9 10  1  0
 10 11  1  0
 11 12  1  0
 12 13  2  0
 12 14  1  0
 14 15  1  0
 15 16  1  0
 16 17  2  0
 17 18  1  0
 18 19  1  0
 18 20  2  0
 20 21  1  0
 21 22  1  0
 21 23  2  0
 23 24  1  0
 24 25  3  0
 23 16  1  0
  1 26  1  0
  1 27  1  0
  1 28  1  0
  3 29  1  0
  3 30  1  0
  4 31  1  0
  4 32  1  0
  6 33  1  0
  6 34  1  0
  7 35  1  0
  7 36  1  0
  9 37  1  0
  9 38  1  0
 10 39  1  0
 10 40  1  0
 11 41  1  0
 14 42  1  0
 14 43  1  0
 19 44  1  0
 19 45  1  0
 19 46  1  0
 20 47  1  0
 22 48  1  0
 22 49  1  0
 22 50  1  0
M  END
>  <Binding energies>  (1) 
[-6.03]

>  <Ligand effiencies>  (1) 
[-0.23192307692307693]

>  <Interactions>  (1) 
["V-B:TYR:539:CD1:9845, V-B:PRO:540:CB:9857, V-B:PRO:540:CD:9859, V-B:GLU:543:CD:9880, V-B:PRO:540:CA:9855, H-B:TYR:539:N:9842, V-B:TYR:539:CE2:9848, V-B:TYR:539:CD2:9846, V-B:ILE:538:CA:9832, V-B:MET:535:CE:9807, V-B:ALA:541:CB:9864, V-B:TYR:539:CE1:9847, V-B:PRO:540:N:9856, H-A:TYR:484:OH:4348, V-A:LEU:475:CD2:4259, V-A:ILE:369:CD1:3239, V-A:GLY:454:CA:4049, V-A:ILE:369:CG2:3237, V-A:GLU:543:CD:4908, H-A:GLY:454:N:4050, H-A:ARG:545:NH2:4928, V-A:ARG:545:CZ:4926, V-A:TYR:484:CE2:4346, V-A:TYR:484:CZ:4347, V-A:ARG:545:CG:4922, V-A:ARG:545:CD:4923, V-A:ILE:369:CG1:3238"]

$$$$
1l_Grossjean_2025
     RDKit          3D

 30 30  0  0  0  0  0  0  0  0999 V2000
  130.7230  118.1310   60.3450 C   0  0  0  0  0  0  0  0  0  0  0  0
  131.1890  119.4130   60.7410 O   0  0  0  0  0  0  0  0  0  0  0  0
  130.2460  120.3850   60.4090 N   0  0  0  0  0  0  0  0  0  0  0  0
  129.7410  121.1660   61.3830 C   0  0  0  0  0  0  0  0  0  0  0  0
  130.2190  121.2370   62.5190 O   0  0  0  0  0  0  0  0  0  0  0  0
  128.5130  121.9960   60.9830 C   0  0  0  0  0  0  0  0  0  0  0  0
  128.8140  123.2400   59.6810 S   0  0  0  0  0  0  0  0  0  0  0  0
  127.4490  123.1810   58.5320 C   0  0  0  0  0  0  0  0  0  0  0  0
  127.7670  122.8410   57.2560 N   0  0  0  0  0  0  0  0  0  0  0  0
  126.7800  122.7790   56.3310 C   0  0  0  0  0  0  0  0  0  0  0  0
  127.2130  122.3930   54.9300 C   0  0  0  0  0  0  0  0  0  0  0  0
  125.4470  123.0490   56.6350 C   0  0  0  0  0  0  0  0  0  0  0  0
  125.1070  123.3980   57.9460 C   0  0  0  0  0  0  0  0  0  0  0  0
  123.6400  123.6890   58.2570 C   0  0  0  0  0  0  0  0  0  0  0  0
  126.1220  123.4700   58.9260 C   0  0  0  0  0  0  0  0  0  0  0  0
  125.7940  123.8340   60.3090 C   0  0  0  0  0  0  0  0  0  0  0  0
  125.5340  124.1220   61.3980 N   0  0  0  0  0  0  0  0  0  0  0  0
  130.5039  117.5283   61.2387 H   0  0  0  0  0  0  0  0  0  0  0  0
  129.8080  118.2428   59.7448 H   0  0  0  0  0  0  0  0  0  0  0  0
  131.4962  117.6291   59.7448 H   0  0  0  0  0  0  0  0  0  0  0  0
  129.7530  120.1630   59.5550 H   0  0  0  0  0  0  0  0  0  0  0  0
  127.7369  121.3051   60.6221 H   0  0  0  0  0  0  0  0  0  0  0  0
  128.2148  122.5567   61.8812 H   0  0  0  0  0  0  0  0  0  0  0  0
  128.0330  121.6620   54.9880 H   0  0  0  0  0  0  0  0  0  0  0  0
  126.3624  121.9480   54.3929 H   0  0  0  0  0  0  0  0  0  0  0  0
  127.5577  123.2889   54.3929 H   0  0  0  0  0  0  0  0  0  0  0  0
  124.6735  122.9885   55.8552 H   0  0  0  0  0  0  0  0  0  0  0  0
  123.4950  123.7178   59.3470 H   0  0  0  0  0  0  0  0  0  0  0  0
  123.3591  124.6604   57.8240 H   0  0  0  0  0  0  0  0  0  0  0  0
  123.0096  122.8984   57.8240 H   0  0  0  0  0  0  0  0  0  0  0  0
  1  2  1  0
  2  3  1  0
  3  4  1  0
  4  5  2  0
  4  6  1  0
  6  7  1  0
  7  8  1  0
  8  9  2  0
  9 10  1  0
 10 11  1  0
 10 12  2  0
 12 13  1  0
 13 14  1  0
 13 15  2  0
 15 16  1  0
 16 17  3  0
 15  8  1  0
  1 18  1  0
  1 19  1  0
  1 20  1  0
  3 21  1  0
  6 22  1  0
  6 23  1  0
 11 24  1  0
 11 25  1  0
 11 26  1  0
 12 27  1  0
 14 28  1  0
 14 29  1  0
 14 30  1  0
M  END
>  <Binding energies>  (1) 
[-6.85]

>  <Ligand effiencies>  (1) 
[-0.38055555555555554]

>  <Interactions>  (1) 
["V-B:TYR:539:CD1:9845, V-B:ILE:538:CD1:9837, V-B:PRO:540:CB:9857, V-B:LEU:363:CD1:8161, V-B:TYR:539:C:9839, V-B:PRO:540:CA:9855, V-B:TYR:539:CE2:9848, V-B:TYR:539:CD2:9846, V-B:ILE:538:CA:9832, V-B:MET:535:CE:9807, V-B:ALA:541:CB:9864, V-B:PRO:540:C:9853, V-B:TYR:539:CE1:9847, V-B:PRO:540:N:9856, V-A:SER:385:CB:3409, H-A:TYR:484:OH:4348, V-A:LEU:475:CD2:4259, V-B:ASP:366:CG:8185, V-B:ILE:538:C:9830, H-B:ARG:545:NH2:9900, V-B:TYR:539:CB:9843, H-B:TYR:539:O:9840, V-B:LEU:363:CA:8157, V-B:VAL:537:C:9822, V-B:LEU:363:CB:8159"]

$$$$
1m_Grossjean_2025
     RDKit          3D

 35 35  0  0  0  0  0  0  0  0999 V2000
  126.4590  129.4710   55.8450 C   0  0  0  0  0  0  0  0  0  0  0  0
  127.2790  129.1090   54.7440 O   0  0  0  0  0  0  0  0  0  0  0  0
  128.6150  129.2900   54.7950 C   0  0  0  0  0  0  0  0  0  0  0  0
  129.4650  128.4600   54.4600 O   0  0  0  0  0  0  0  0  0  0  0  0
  128.9760  130.6940   55.3230 C   0  0  0  0  0  0  0  0  0  0  0  0
  130.4240  130.8810   55.5030 N   0  0  0  0  0  0  0  0  0  0  0  0
  131.0400  132.0520   55.7530 C   0  0  0  0  0  0  0  0  0  0  0  0
  130.4360  133.1230   55.8440 O   0  0  0  0  0  0  0  0  0  0  0  0
  132.5640  131.9760   55.9130 C   0  0  0  0  0  0  0  0  0  0  0  0
  133.1310  131.3550   57.5330 S   0  0  0  0  0  0  0  0  0  0  0  0
  132.1110  129.9640   57.9760 C   0  0  0  0  0  0  0  0  0  0  0  0
  132.0520  129.0070   57.0160 N   0  0  0  0  0  0  0  0  0  0  0  0
  131.3100  127.8990   57.2460 C   0  0  0  0  0  0  0  0  0  0  0  0
  131.3070  126.8650   56.1360 C   0  0  0  0  0  0  0  0  0  0  0  0
  130.5930  127.7050   58.4250 C   0  0  0  0  0  0  0  0  0  0  0  0
  130.6250  128.6970   59.4110 C   0  0  0  0  0  0  0  0  0  0  0  0
  129.8190  128.4700   60.6880 C   0  0  0  0  0  0  0  0  0  0  0  0
  131.3930  129.8640   59.1930 C   0  0  0  0  0  0  0  0  0  0  0  0
  131.4010  130.9370   60.1900 C   0  0  0  0  0  0  0  0  0  0  0  0
  131.4070  131.7840   60.9780 N   0  0  0  0  0  0  0  0  0  0  0  0
  126.9830  129.2397   56.7841 H   0  0  0  0  0  0  0  0  0  0  0  0
  126.2421  130.5485   55.8020 H   0  0  0  0  0  0  0  0  0  0  0  0
  125.5166  128.9053   55.8020 H   0  0  0  0  0  0  0  0  0  0  0  0
  128.6114  131.4437   54.6053 H   0  0  0  0  0  0  0  0  0  0  0  0
  128.5024  130.8086   56.3092 H   0  0  0  0  0  0  0  0  0  0  0  0
  130.9910  130.0500   55.4160 H   0  0  0  0  0  0  0  0  0  0  0  0
  132.9575  131.3075   55.1330 H   0  0  0  0  0  0  0  0  0  0  0  0
  132.9371  133.0073   55.8278 H   0  0  0  0  0  0  0  0  0  0  0  0
  131.3041  125.8562   56.5746 H   0  0  0  0  0  0  0  0  0  0  0  0
  130.4092  126.9971   55.5143 H   0  0  0  0  0  0  0  0  0  0  0  0
  132.2055  126.9919   55.5143 H   0  0  0  0  0  0  0  0  0  0  0  0
  130.0101  126.7848   58.5783 H   0  0  0  0  0  0  0  0  0  0  0  0
  130.4603  128.6506   61.5633 H   0  0  0  0  0  0  0  0  0  0  0  0
  128.9646  129.1625   60.7103 H   0  0  0  0  0  0  0  0  0  0  0  0
  129.4516  127.4334   60.7103 H   0  0  0  0  0  0  0  0  0  0  0  0
  1  2  1  0
  2  3  1  0
  3  4  2  0
  3  5  1  0
  5  6  1  0
  6  7  1  0
  7  8  2  0
  7  9  1  0
  9 10  1  0
 10 11  1  0
 11 12  2  0
 12 13  1  0
 13 14  1  0
 13 15  2  0
 15 16  1  0
 16 17  1  0
 16 18  2  0
 18 19  1  0
 19 20  3  0
 18 11  1  0
  1 21  1  0
  1 22  1  0
  1 23  1  0
  5 24  1  0
  5 25  1  0
  6 26  1  0
  9 27  1  0
  9 28  1  0
 14 29  1  0
 14 30  1  0
 14 31  1  0
 15 32  1  0
 17 33  1  0
 17 34  1  0
 17 35  1  0
M  END
>  <Binding energies>  (1) 
[-5.73]

>  <Ligand effiencies>  (1) 
[-0.27285714285714285]

>  <Interactions>  (1) 
["V-B:MET:535:CE:9807, V-A:ASP:366:CG:3213, V-A:ASP:366:CB:3212, V-A:TYR:531:CZ:4794, V-B:TYR:531:CE1:9764, H-A:TYR:539:N:4870, V-A:TYR:531:CE2:4793, V-A:PRO:540:CA:4883, V-A:PRO:540:CB:4885, V-A:MET:535:CE:4835, H-B:LYS:534:NZ:9795, V-A:LEU:363:CD1:3189, H-A:ALA:541:N:4891, H-A:TYR:531:OH:4795"]

$$$$
1n_Grossjean_2025
     RDKit          3D

 48 49  0  0  0  0  0  0  0  0999 V2000
  126.1560  123.1290   54.8130 C   0  0  0  0  0  0  0  0  0  0  0  0
  125.8030  122.6020   56.2080 C   0  0  0  0  0  0  0  0  0  0  0  0
  126.9820  122.1210   56.8430 O   0  0  0  0  0  0  0  0  0  0  0  0
  127.5470  122.7960   57.8770 C   0  0  0  0  0  0  0  0  0  0  0  0
  127.9780  122.2450   58.8940 O   0  0  0  0  0  0  0  0  0  0  0  0
  127.6070  124.2800   57.6540 C   0  0  0  0  0  0  0  0  0  0  0  0
  126.6240  125.1470   58.1560 C   0  0  0  0  0  0  0  0  0  0  0  0
  126.7080  126.5170   57.9290 C   0  0  0  0  0  0  0  0  0  0  0  0
  127.7670  127.0490   57.1920 C   0  0  0  0  0  0  0  0  0  0  0  0
  127.7500  128.4470   57.0180 N   0  0  0  0  0  0  0  0  0  0  0  0
  127.1640  129.1900   56.0560 C   0  0  0  0  0  0  0  0  0  0  0  0
  126.5000  128.7490   55.1180 O   0  0  0  0  0  0  0  0  0  0  0  0
  127.3600  130.7070   56.1780 C   0  0  0  0  0  0  0  0  0  0  0  0
  127.1480  131.2310   57.6140 C   0  0  0  0  0  0  0  0  0  0  0  0
  128.3470  132.4930   58.1410 S   0  0  0  0  0  0  0  0  0  0  0  0
  129.9240  132.0670   57.4350 C   0  0  0  0  0  0  0  0  0  0  0  0
  129.9230  132.0440   56.0780 N   0  0  0  0  0  0  0  0  0  0  0  0
  131.0750  131.7480   55.4320 C   0  0  0  0  0  0  0  0  0  0  0  0
  131.0010  131.7520   53.9170 C   0  0  0  0  0  0  0  0  0  0  0  0
  132.2610  131.4590   56.1030 C   0  0  0  0  0  0  0  0  0  0  0  0
  132.2670  131.4600   57.5020 C   0  0  0  0  0  0  0  0  0  0  0  0
  133.5760  131.1270   58.2160 C   0  0  0  0  0  0  0  0  0  0  0  0
  131.0750  131.7620   58.1990 C   0  0  0  0  0  0  0  0  0  0  0  0
  131.0460  131.7180   59.6620 C   0  0  0  0  0  0  0  0  0  0  0  0
  131.0250  131.6820   60.8180 N   0  0  0  0  0  0  0  0  0  0  0  0
  128.7580  126.1900   56.6950 C   0  0  0  0  0  0  0  0  0  0  0  0
  128.6750  124.8200   56.9270 C   0  0  0  0  0  0  0  0  0  0  0  0
  126.7659  124.0395   54.9085 H   0  0  0  0  0  0  0  0  0  0  0  0
  126.7240  122.3631   54.2646 H   0  0  0  0  0  0  0  0  0  0  0  0
  125.2316  123.3627   54.2646 H   0  0  0  0  0  0  0  0  0  0  0  0
  125.3682  123.4147   56.8083 H   0  0  0  0  0  0  0  0  0  0  0  0
  125.0736  121.7835   56.1182 H   0  0  0  0  0  0  0  0  0  0  0  0
  125.7807  124.7401   58.7333 H   0  0  0  0  0  0  0  0  0  0  0  0
  125.9340  127.1859   58.3334 H   0  0  0  0  0  0  0  0  0  0  0  0
  128.2200  128.9580   57.7510 H   0  0  0  0  0  0  0  0  0  0  0  0
  128.3845  130.9541   55.8628 H   0  0  0  0  0  0  0  0  0  0  0  0
  126.6051  131.1878   55.5385 H   0  0  0  0  0  0  0  0  0  0  0  0
  126.1403  131.6678   57.6751 H   0  0  0  0  0  0  0  0  0  0  0  0
  127.2850  130.3699   58.2847 H   0  0  0  0  0  0  0  0  0  0  0  0
  129.9488  131.8089   53.6014 H   0  0  0  0  0  0  0  0  0  0  0  0
  131.5488  132.6218   53.5254 H   0  0  0  0  0  0  0  0  0  0  0  0
  131.4518  130.8282   53.5254 H   0  0  0  0  0  0  0  0  0  0  0  0
  133.1794  131.2333   55.5411 H   0  0  0  0  0  0  0  0  0  0  0  0
  133.4204  131.1666   59.3042 H   0  0  0  0  0  0  0  0  0  0  0  0
  133.9036  130.1169   57.9289 H   0  0  0  0  0  0  0  0  0  0  0  0
  134.3464  131.8578   57.9289 H   0  0  0  0  0  0  0  0  0  0  0  0
  129.6022  126.5996   56.1209 H   0  0  0  0  0  0  0  0  0  0  0  0
  129.4575  124.1538   56.5347 H   0  0  0  0  0  0  0  0  0  0  0  0
  1  2  1  0
  2  3  1  0
  3  4  1  0
  4  5  2  0
  4  6  1  0
  6  7  2  0
  7  8  1  0
  8  9  2  0
  9 10  1  0
 10 11  1  0
 11 12  2  0
 11 13  1  0
 13 14  1  0
 14 15  1  0
 15 16  1  0
 16 17  2  0
 17 18  1  0
 18 19  1  0
 18 20  2  0
 20 21  1  0
 21 22  1  0
 21 23  2  0
 23 24  1  0
 24 25  3  0
  9 26  1  0
 26 27  2  0
 27  6  1  0
 23 16  1  0
  1 28  1  0
  1 29  1  0
  1 30  1  0
  2 31  1  0
  2 32  1  0
  7 33  1  0
  8 34  1  0
 10 35  1  0
 13 36  1  0
 13 37  1  0
 14 38  1  0
 14 39  1  0
 19 40  1  0
 19 41  1  0
 19 42  1  0
 20 43  1  0
 22 44  1  0
 22 45  1  0
 22 46  1  0
 26 47  1  0
 27 48  1  0
M  END
>  <Binding energies>  (1) 
[-8.47]

>  <Ligand effiencies>  (1) 
[-0.30250000000000005]

>  <Interactions>  (1) 
["V-B:ILE:538:CD1:9837, V-B:PRO:540:CD:9859, V-B:TYR:539:C:9839, V-B:PRO:540:CA:9855, H-B:TYR:539:N:9842, V-B:TYR:539:CE2:9848, V-B:TYR:539:CD2:9846, V-B:ILE:538:CA:9832, V-B:MET:535:CE:9807, V-B:TYR:539:CZ:9849, V-B:PRO:540:N:9856, V-B:TYR:531:CE2:9765, V-A:ASP:366:CG:3213, V-B:TYR:531:CZ:9766, V-A:ASP:366:CB:3212, V-A:TYR:539:CE1:4875, V-A:TYR:531:CZ:4794, V-A:TYR:539:CZ:4877, V-A:TYR:531:CE2:4793, V-A:PRO:540:CA:4883, V-A:TYR:539:C:4867, V-A:PRO:540:N:4884, V-A:PRO:540:CB:4885, H-B:LYS:534:NZ:9795, V-A:LEU:363:CD1:3189, H-A:ALA:541:N:4891, V-A:LEU:363:CA:3185, H-B:TYR:531:OH:9767, V-A:ILE:538:CB:4862, V-A:ILE:538:CG2:4863, V-A:PRO:540:C:4881, V-A:TYR:539:CD1:4873, V-B:MET:535:CG:9805, V-A:MET:535:CG:4833, V-A:LEU:363:CB:3187"]

$$$$
1o_Grossjean_2025
     RDKit          3D

 45 46  0  0  0  0  0  0  0  0999 V2000
  126.4300  122.7020   55.4770 C   0  0  0  0  0  0  0  0  0  0  0  0
  126.9140  122.0130   56.6210 O   0  0  0  0  0  0  0  0  0  0  0  0
  127.5790  122.6710   57.6050 C   0  0  0  0  0  0  0  0  0  0  0  0
  128.2950  122.1070   58.4380 O   0  0  0  0  0  0  0  0  0  0  0  0
  127.3620  124.1570   57.5770 C   0  0  0  0  0  0  0  0  0  0  0  0
  128.2760  125.0300   56.9690 C   0  0  0  0  0  0  0  0  0  0  0  0
  128.0430  126.4030   56.9580 C   0  0  0  0  0  0  0  0  0  0  0  0
  126.8990  126.9310   57.5580 C   0  0  0  0  0  0  0  0  0  0  0  0
  126.7590  128.3310   57.4810 N   0  0  0  0  0  0  0  0  0  0  0  0
  126.6510  129.1320   56.3990 C   0  0  0  0  0  0  0  0  0  0  0  0
  126.6120  128.7450   55.2310 O   0  0  0  0  0  0  0  0  0  0  0  0
  126.5420  130.6350   56.6970 C   0  0  0  0  0  0  0  0  0  0  0  0
  126.9680  131.0050   58.1310 C   0  0  0  0  0  0  0  0  0  0  0  0
  128.0100  132.4910   58.2310 S   0  0  0  0  0  0  0  0  0  0  0  0
  129.5120  132.1890   57.3210 C   0  0  0  0  0  0  0  0  0  0  0  0
  129.3470  132.2390   55.9750 N   0  0  0  0  0  0  0  0  0  0  0  0
  130.4230  132.0330   55.1790 C   0  0  0  0  0  0  0  0  0  0  0  0
  130.1640  132.1190   53.6860 C   0  0  0  0  0  0  0  0  0  0  0  0
  131.6910  131.7590   55.6860 C   0  0  0  0  0  0  0  0  0  0  0  0
  131.8670  131.6790   57.0710 C   0  0  0  0  0  0  0  0  0  0  0  0
  133.2640  131.3630   57.6010 C   0  0  0  0  0  0  0  0  0  0  0  0
  130.7570  131.8860   57.9220 C   0  0  0  0  0  0  0  0  0  0  0  0
  130.9100  131.7480   59.3720 C   0  0  0  0  0  0  0  0  0  0  0  0
  131.0330  131.6400   60.5180 N   0  0  0  0  0  0  0  0  0  0  0  0
  125.9780  126.0640   58.1630 C   0  0  0  0  0  0  0  0  0  0  0  0
  126.2120  124.6910   58.1720 C   0  0  0  0  0  0  0  0  0  0  0  0
  125.8250  123.5633   55.7965 H   0  0  0  0  0  0  0  0  0  0  0  0
  127.2801  123.0544   54.8743 H   0  0  0  0  0  0  0  0  0  0  0  0
  125.8102  122.0219   54.8743 H   0  0  0  0  0  0  0  0  0  0  0  0
  129.1842  124.6270   56.4970 H   0  0  0  0  0  0  0  0  0  0  0  0
  128.7656  127.0758   56.4731 H   0  0  0  0  0  0  0  0  0  0  0  0
  126.7110  128.7900   58.3790 H   0  0  0  0  0  0  0  0  0  0  0  0
  127.1862  131.1786   55.9903 H   0  0  0  0  0  0  0  0  0  0  0  0
  125.4829  130.9121   56.5902 H   0  0  0  0  0  0  0  0  0  0  0  0
  126.0604  131.1779   58.7280 H   0  0  0  0  0  0  0  0  0  0  0  0
  127.5707  130.1669   58.5108 H   0  0  0  0  0  0  0  0  0  0  0  0
  129.1332  132.4613   53.5118 H   0  0  0  0  0  0  0  0  0  0  0  0
  130.8686  132.8314   53.2321 H   0  0  0  0  0  0  0  0  0  0  0  0
  130.3025  131.1266   53.2321 H   0  0  0  0  0  0  0  0  0  0  0  0
  132.5424  131.6076   55.0062 H   0  0  0  0  0  0  0  0  0  0  0  0
  133.2484  131.3665   58.7009 H   0  0  0  0  0  0  0  0  0  0  0  0
  133.5768  130.3714   57.2419 H   0  0  0  0  0  0  0  0  0  0  0  0
  133.9731  132.1234   57.2419 H   0  0  0  0  0  0  0  0  0  0  0  0
  125.0688  126.4690   58.6315 H   0  0  0  0  0  0  0  0  0  0  0  0
  125.4856  124.0186   58.6517 H   0  0  0  0  0  0  0  0  0  0  0  0
  1  2  1  0
  2  3  1  0
  3  4  2  0
  3  5  1  0
  5  6  2  0
  6  7  1  0
  7  8  2  0
  8  9  1  0
  9 10  1  0
 10 11  2  0
 10 12  1  0
 12 13  1  0
 13 14  1  0
 14 15  1  0
 15 16  2  0
 16 17  1  0
 17 18  1  0
 17 19  2  0
 19 20  1  0
 20 21  1  0
 20 22  2  0
 22 23  1  0
 23 24  3  0
  8 25  1  0
 25 26  2  0
 26  5  1  0
 22 15  1  0
  1 27  1  0
  1 28  1  0
  1 29  1  0
  6 30  1  0
  7 31  1  0
  9 32  1  0
 12 33  1  0
 12 34  1  0
 13 35  1  0
 13 36  1  0
 18 37  1  0
 18 38  1  0
 18 39  1  0
 19 40  1  0
 21 41  1  0
 21 42  1  0
 21 43  1  0
 25 44  1  0
 26 45  1  0
M  END
>  <Binding energies>  (1) 
[-8.04]

>  <Ligand effiencies>  (1) 
[-0.29777777777777775]

>  <Interactions>  (1) 
["V-B:ILE:538:CD1:9837, V-B:TYR:539:C:9839, V-B:PRO:540:CA:9855, H-B:TYR:539:N:9842, V-B:TYR:539:CE2:9848, V-B:TYR:539:CD2:9846, V-B:ILE:538:CA:9832, V-B:MET:535:CE:9807, V-B:PRO:540:N:9856, V-B:TYR:539:CG:9844, V-B:TYR:531:CZ:9766, V-A:TYR:539:CE1:4875, V-B:TYR:531:CE1:9764, V-B:ASP:366:CG:8185, V-A:TYR:539:CZ:4877, V-A:PRO:540:CA:4883, V-A:TYR:539:C:4867, V-A:PRO:540:N:4884, V-A:PRO:540:CB:4885, V-B:ASP:366:CB:8184, H-B:LYS:534:NZ:9795, V-A:LEU:363:CD1:3189, H-A:ALA:541:N:4891, V-A:LEU:363:CA:3185, H-B:TYR:531:OH:9767, V-A:ILE:538:CA:4860, V-A:ILE:538:CB:4862, V-A:ILE:538:CG2:4863, V-A:PRO:540:C:4881"]

$$$$
1p_Grossjean_2025
     RDKit          3D

 35 36  0  0  0  0  0  0  0  0999 V2000
  132.5030  124.7640   60.7160 C   0  0  0  0  0  0  0  0  0  0  0  0
  131.8650  123.4000   60.9060 C   0  0  0  0  0  0  0  0  0  0  0  0
  132.4340  122.2490   60.3640 C   0  0  0  0  0  0  0  0  0  0  0  0
  131.7960  121.0190   60.5590 C   0  0  0  0  0  0  0  0  0  0  0  0
  132.4290  119.7730   59.9440 C   0  0  0  0  0  0  0  0  0  0  0  0
  130.5970  120.9740   61.3060 C   0  0  0  0  0  0  0  0  0  0  0  0
  129.8850  119.7070   61.4840 C   0  0  0  0  0  0  0  0  0  0  0  0
  129.3230  118.7050   61.6240 N   0  0  0  0  0  0  0  0  0  0  0  0
  130.1040  122.1890   61.8380 C   0  0  0  0  0  0  0  0  0  0  0  0
  128.6180  122.3080   62.8080 S   0  0  0  0  0  0  0  0  0  0  0  0
  127.4490  123.3210   61.8560 C   0  0  0  0  0  0  0  0  0  0  0  0
  128.0680  123.9770   60.6070 C   0  0  0  0  0  0  0  0  0  0  0  0
  127.7590  123.2260   59.3030 C   0  0  0  0  0  0  0  0  0  0  0  0
  128.5530  122.3820   58.8840 O   0  0  0  0  0  0  0  0  0  0  0  0
  126.5910  123.5520   58.7040 N   0  0  0  0  0  0  0  0  0  0  0  0
  126.0760  123.0270   57.5250 C   0  0  0  0  0  0  0  0  0  0  0  0
  124.7440  123.1820   57.1410 C   0  0  0  0  0  0  0  0  0  0  0  0
  124.6410  122.5270   55.9350 C   0  0  0  0  0  0  0  0  0  0  0  0
  125.8460  122.0030   55.6110 O   0  0  0  0  0  0  0  0  0  0  0  0
  126.7480  122.3260   56.6270 N   0  0  0  0  0  0  0  0  0  0  0  0
  130.7200  123.3800   61.6260 N   0  0  0  0  0  0  0  0  0  0  0  0
  132.7121  125.2111   61.6990 H   0  0  0  0  0  0  0  0  0  0  0  0
  133.4432  124.6542   60.1556 H   0  0  0  0  0  0  0  0  0  0  0  0
  131.8161  125.4153   60.1556 H   0  0  0  0  0  0  0  0  0  0  0  0
  133.3713  122.3066   59.7911 H   0  0  0  0  0  0  0  0  0  0  0  0
  132.7702  119.1014   60.7456 H   0  0  0  0  0  0  0  0  0  0  0  0
  131.6857  119.2532   59.3217 H   0  0  0  0  0  0  0  0  0  0  0  0
  133.2871  120.0668   59.3217 H   0  0  0  0  0  0  0  0  0  0  0  0
  126.6162  122.6787   61.5336 H   0  0  0  0  0  0  0  0  0  0  0  0
  127.1204  124.1368   62.5166 H   0  0  0  0  0  0  0  0  0  0  0  0
  127.6750  125.0008   60.5206 H   0  0  0  0  0  0  0  0  0  0  0  0
  129.1598  123.9588   60.7397 H   0  0  0  0  0  0  0  0  0  0  0  0
  126.0260  124.2620   59.1460 H   0  0  0  0  0  0  0  0  0  0  0  0
  123.9483  123.7127   57.6844 H   0  0  0  0  0  0  0  0  0  0  0  0
  123.7256  122.4428   55.3310 H   0  0  0  0  0  0  0  0  0  0  0  0
  1  2  1  0
  2  3  2  0
  3  4  1  0
  4  5  1  0
  4  6  2  0
  6  7  1  0
  7  8  3  0
  6  9  1  0
  9 10  1  0
 10 11  1  0
 11 12  1  0
 12 13  1  0
 13 14  2  0
 13 15  1  0
 15 16  1  0
 16 17  1  0
 17 18  2  0
 18 19  1  0
 19 20  1  0
  9 21  2  0
 21  2  1  0
 20 16  2  0
  1 22  1  0
  1 23  1  0
  1 24  1  0
  3 25  1  0
  5 26  1  0
  5 27  1  0
  5 28  1  0
 11 29  1  0
 11 30  1  0
 12 31  1  0
 12 32  1  0
 15 33  1  0
 17 34  1  0
 18 35  1  0
M  END
>  <Binding energies>  (1) 
[-7.52]

>  <Ligand effiencies>  (1) 
[-0.3418181818181818]

>  <Interactions>  (1) 
["V-B:ILE:538:CD1:9837, V-B:PRO:540:CB:9857, V-B:PRO:540:CD:9859, V-B:LEU:363:CD1:8161, V-B:GLU:543:CD:9880, V-B:PRO:540:CA:9855, H-B:TYR:539:N:9842, V-B:ILE:538:CG2:9835, V-B:TYR:539:CE2:9848, V-B:TYR:539:CD2:9846, V-B:ILE:538:CA:9832, V-B:ALA:541:CB:9864, H-B:ASP:366:OD2:8187, V-B:PRO:540:N:9856, V-B:TYR:531:CE2:9765, V-A:SER:385:CB:3409, V-A:LEU:475:CD1:4258, H-A:TYR:484:OH:4348, V-A:ASP:366:CG:3213, V-A:LEU:475:CD2:4259, V-A:ILE:369:CG2:3237"]

$$$$
1q_Grossjean_2025
     RDKit          3D

 38 38  0  0  0  0  0  0  0  0999 V2000
  124.6320  122.7460   56.6900 C   0  0  0  0  0  0  0  0  0  0  0  0
  125.6770  122.0270   56.0510 O   0  0  0  0  0  0  0  0  0  0  0  0
  126.6970  122.6870   55.4470 C   0  0  0  0  0  0  0  0  0  0  0  0
  126.7900  122.9080   54.2390 O   0  0  0  0  0  0  0  0  0  0  0  0
  127.8100  123.1430   56.4140 C   0  0  0  0  0  0  0  0  0  0  0  0
  127.6160  122.6510   57.7870 N   0  0  0  0  0  0  0  0  0  0  0  0
  128.3750  122.9690   58.8530 C   0  0  0  0  0  0  0  0  0  0  0  0
  129.3410  123.7310   58.7900 O   0  0  0  0  0  0  0  0  0  0  0  0
  127.9580  122.3330   60.1880 C   0  0  0  0  0  0  0  0  0  0  0  0
  127.9130  123.3190   61.3720 C   0  0  0  0  0  0  0  0  0  0  0  0
  129.3710  123.2250   62.4530 S   0  0  0  0  0  0  0  0  0  0  0  0
  130.7370  122.5810   61.5080 C   0  0  0  0  0  0  0  0  0  0  0  0
  131.6740  123.5170   61.2090 N   0  0  0  0  0  0  0  0  0  0  0  0
  132.7600  123.1470   60.4910 C   0  0  0  0  0  0  0  0  0  0  0  0
  133.7530  124.2520   60.1820 C   0  0  0  0  0  0  0  0  0  0  0  0
  132.9620  121.8400   60.0540 C   0  0  0  0  0  0  0  0  0  0  0  0
  132.0170  120.8620   60.3780 C   0  0  0  0  0  0  0  0  0  0  0  0
  132.2710  119.4320   59.9020 C   0  0  0  0  0  0  0  0  0  0  0  0
  130.8760  121.2240   61.1290 C   0  0  0  0  0  0  0  0  0  0  0  0
  129.9050  120.2020   61.5250 C   0  0  0  0  0  0  0  0  0  0  0  0
  129.1400  119.3910   61.8370 N   0  0  0  0  0  0  0  0  0  0  0  0
  124.7466  122.6671   57.7812 H   0  0  0  0  0  0  0  0  0  0  0  0
  124.6791  123.8038   56.3919 H   0  0  0  0  0  0  0  0  0  0  0  0
  123.6609  122.3239   56.3919 H   0  0  0  0  0  0  0  0  0  0  0  0
  128.7743  122.7681   56.0403 H   0  0  0  0  0  0  0  0  0  0  0  0
  127.7833  124.2420   56.4515 H   0  0  0  0  0  0  0  0  0  0  0  0
  126.8570  121.9980   57.9190 H   0  0  0  0  0  0  0  0  0  0  0  0
  126.9557  121.8971   60.0641 H   0  0  0  0  0  0  0  0  0  0  0  0
  128.7231  121.5813   60.4321 H   0  0  0  0  0  0  0  0  0  0  0  0
  127.8427  124.3409   60.9710 H   0  0  0  0  0  0  0  0  0  0  0  0
  127.0398  123.0486   61.9839 H   0  0  0  0  0  0  0  0  0  0  0  0
  134.1341  124.6761   61.1227 H   0  0  0  0  0  0  0  0  0  0  0  0
  134.5904  123.8401   59.5997 H   0  0  0  0  0  0  0  0  0  0  0  0
  133.2543  125.0408   59.5997 H   0  0  0  0  0  0  0  0  0  0  0  0
  133.8524  121.5810   59.4624 H   0  0  0  0  0  0  0  0  0  0  0  0
  132.3884  118.7709   60.7733 H   0  0  0  0  0  0  0  0  0  0  0  0
  131.4194  119.0909   59.2950 H   0  0  0  0  0  0  0  0  0  0  0  0
  133.1880  119.4050   59.2950 H   0  0  0  0  0  0  0  0  0  0  0  0
  1  2  1  0
  2  3  1  0
  3  4  2  0
  3  5  1  0
  5  6  1  0
  6  7  1  0
  7  8  2  0
  7  9  1  0
  9 10  1  0
 10 11  1  0
 11 12  1  0
 12 13  2  0
 13 14  1  0
 14 15  1  0
 14 16  2  0
 16 17  1  0
 17 18  1  0
 17 19  2  0
 19 20  1  0
 20 21  3  0
 19 12  1  0
  1 22  1  0
  1 23  1  0
  1 24  1  0
  5 25  1  0
  5 26  1  0
  6 27  1  0
  9 28  1  0
  9 29  1  0
 10 30  1  0
 10 31  1  0
 15 32  1  0
 15 33  1  0
 15 34  1  0
 16 35  1  0
 18 36  1  0
 18 37  1  0
 18 38  1  0
M  END
>  <Binding energies>  (1) 
[-5.98]

>  <Ligand effiencies>  (1) 
[-0.27181818181818185]

>  <Interactions>  (1) 
["V-B:TYR:539:CD1:9845, V-B:ILE:538:CD1:9837, V-B:PRO:540:CB:9857, V-B:PRO:540:CD:9859, V-B:LEU:363:CD1:8161, V-B:TYR:539:C:9839, V-B:PRO:540:CA:9855, H-B:TYR:539:N:9842, V-B:TYR:539:CE2:9848, V-B:TYR:539:CD2:9846, V-B:ILE:538:CA:9832, V-B:MET:535:CE:9807, V-B:ALA:541:CB:9864, V-B:TYR:539:CZ:9849, V-B:PRO:540:C:9853, V-B:TYR:539:CE1:9847, V-B:PRO:540:N:9856, V-B:TYR:531:CE2:9765, V-A:SER:385:CB:3409, H-A:TYR:484:OH:4348, V-A:ASP:366:CA:3210, V-A:ASP:366:CG:3213, V-B:TYR:539:CG:9844, V-A:LEU:475:CD2:4259, V-A:ILE:369:CD1:3239, V-A:ILE:369:CG2:3237, H-B:ALA:541:N:9863, H-B:TYR:539:O:9840, V-B:PRO:540:CG:9858"]

$$$$
2a_Ghoteimi_2023
     RDKit          3D

 85 90  0  0  0  0  0  0  0  0999 V2000
  133.5850  122.6700   61.5550 C   0  0  0  0  0  0  0  0  0  0  0  0
  133.1060  124.1110   61.7540 C   0  0  0  0  0  0  0  0  0  0  0  0
  131.9320  124.3290   60.9820 O   0  0  0  0  0  0  0  0  0  0  0  0
  131.9850  124.9840   59.7940 C   0  0  0  0  0  0  0  0  0  0  0  0
  132.4900  124.5030   58.7740 O   0  0  0  0  0  0  0  0  0  0  0  0
  131.3600  126.3490   59.8410 C   0  0  0  0  0  0  0  0  0  0  0  0
  130.8270  126.8810   61.0240 C   0  0  0  0  0  0  0  0  0  0  0  0
  130.2570  128.1500   61.0340 C   0  0  0  0  0  0  0  0  0  0  0  0
  130.2110  128.9150   59.8670 C   0  0  0  0  0  0  0  0  0  0  0  0
  129.6080  130.1820   59.9910 N   0  0  0  0  0  0  0  0  0  0  0  0
  130.0980  131.3260   60.5150 C   0  0  0  0  0  0  0  0  0  0  0  0
  131.2030  131.4460   61.0460 O   0  0  0  0  0  0  0  0  0  0  0  0
  129.1490  132.5300   60.4550 C   0  0  0  0  0  0  0  0  0  0  0  0
  127.3860  132.1110   60.6430 S   0  0  0  0  0  0  0  0  0  0  0  0
  127.3540  130.5190   61.4350 C   0  0  0  0  0  0  0  0  0  0  0  0
  127.1440  129.4880   60.5840 N   0  0  0  0  0  0  0  0  0  0  0  0
  127.0890  128.2230   61.0700 C   0  0  0  0  0  0  0  0  0  0  0  0
  126.8450  127.1360   60.0730 C   0  0  0  0  0  0  0  0  0  0  0  0
  126.9270  127.3820   58.6970 C   0  0  0  0  0  0  0  0  0  0  0  0
  126.6870  126.3680   57.7730 C   0  0  0  0  0  0  0  0  0  0  0  0
  126.3650  125.0690   58.1900 C   0  0  0  0  0  0  0  0  0  0  0  0
  126.0970  124.0680   57.2500 N   0  0  0  0  0  0  0  0  0  0  0  0
  124.9430  123.1600   57.3990 C   0  0  0  0  0  0  0  0  0  0  0  0
  124.5950  122.3770   56.1150 C   0  0  0  0  0  0  0  0  0  0  0  0
  125.7360  121.6760   55.6490 O   0  0  0  0  0  0  0  0  0  0  0  0
  126.7990  122.5630   55.3400 C   0  0  0  0  0  0  0  0  0  0  0  0
  127.2150  123.3520   56.6000 C   0  0  0  0  0  0  0  0  0  0  0  0
  126.2730  124.8310   59.5710 C   0  0  0  0  0  0  0  0  0  0  0  0
  126.5150  125.8430   60.4940 C   0  0  0  0  0  0  0  0  0  0  0  0
  127.2580  127.9640   62.4330 C   0  0  0  0  0  0  0  0  0  0  0  0
  127.4770  129.0160   63.3330 C   0  0  0  0  0  0  0  0  0  0  0  0
  127.6430  128.6690   64.7770 C   0  0  0  0  0  0  0  0  0  0  0  0
  128.9060  128.3460   65.2810 C   0  0  0  0  0  0  0  0  0  0  0  0
  129.0680  128.0020   66.6200 C   0  0  0  0  0  0  0  0  0  0  0  0
  127.9720  127.9740   67.4960 C   0  0  0  0  0  0  0  0  0  0  0  0
  128.1110  127.6140   68.8400 N   0  0  0  0  0  0  0  0  0  0  0  0
  129.4420  127.6860   69.4750 C   0  0  0  0  0  0  0  0  0  0  0  0
  129.3850  127.6450   71.0170 C   0  0  0  0  0  0  0  0  0  0  0  0
  128.6840  126.4890   71.4470 O   0  0  0  0  0  0  0  0  0  0  0  0
  127.3510  126.4720   70.9590 C   0  0  0  0  0  0  0  0  0  0  0  0
  127.3530  126.4860   69.4160 C   0  0  0  0  0  0  0  0  0  0  0  0
  126.7070  128.2880   66.9800 C   0  0  0  0  0  0  0  0  0  0  0  0
  126.5440  128.6300   65.6400 C   0  0  0  0  0  0  0  0  0  0  0  0
  127.5330  130.3360   62.8240 C   0  0  0  0  0  0  0  0  0  0  0  0
  127.8140  131.4720   63.7090 C   0  0  0  0  0  0  0  0  0  0  0  0
  128.0340  132.3670   64.4090 N   0  0  0  0  0  0  0  0  0  0  0  0
  130.7350  128.3870   58.6780 C   0  0  0  0  0  0  0  0  0  0  0  0
  131.3060  127.1170   58.6700 C   0  0  0  0  0  0  0  0  0  0  0  0
  133.7422  122.1971   62.5357 H   0  0  0  0  0  0  0  0  0  0  0  0
  132.8261  122.1056   60.9932 H   0  0  0  0  0  0  0  0  0  0  0  0
  134.5307  122.6722   60.9932 H   0  0  0  0  0  0  0  0  0  0  0  0
  132.8824  124.2799   62.8177 H   0  0  0  0  0  0  0  0  0  0  0  0
  133.8932  124.8080   61.4307 H   0  0  0  0  0  0  0  0  0  0  0  0
  130.8599  126.2903   61.9513 H   0  0  0  0  0  0  0  0  0  0  0  0
  129.8395  128.5536   61.9682 H   0  0  0  0  0  0  0  0  0  0  0  0
  128.6570  130.2200   59.6540 H   0  0  0  0  0  0  0  0  0  0  0  0
  129.4249  133.2256   61.2612 H   0  0  0  0  0  0  0  0  0  0  0  0
  129.2617  132.9680   59.4523 H   0  0  0  0  0  0  0  0  0  0  0  0
  127.1846  128.3904   58.3408 H   0  0  0  0  0  0  0  0  0  0  0  0
  126.7512  126.5902   56.6976 H   0  0  0  0  0  0  0  0  0  0  0  0
  125.1720  122.4362   58.1950 H   0  0  0  0  0  0  0  0  0  0  0  0
  124.0713  123.7871   57.6374 H   0  0  0  0  0  0  0  0  0  0  0  0
  123.7906  121.6591   56.3331 H   0  0  0  0  0  0  0  0  0  0  0  0
  124.2647  123.0841   55.3398 H   0  0  0  0  0  0  0  0  0  0  0  0
  127.6596  121.9852   54.9719 H   0  0  0  0  0  0  0  0  0  0  0  0
  126.4645  123.2701   54.5666 H   0  0  0  0  0  0  0  0  0  0  0  0
  127.6436  122.6456   57.3261 H   0  0  0  0  0  0  0  0  0  0  0  0
  127.9396  124.1140   56.2769 H   0  0  0  0  0  0  0  0  0  0  0  0
  126.0047  123.8261   59.9292 H   0  0  0  0  0  0  0  0  0  0  0  0
  126.4460  125.6239   61.5697 H   0  0  0  0  0  0  0  0  0  0  0  0
  127.2189  126.9283   62.8016 H   0  0  0  0  0  0  0  0  0  0  0  0
  129.7800  128.3638   64.6133 H   0  0  0  0  0  0  0  0  0  0  0  0
  130.0698  127.7484   66.9970 H   0  0  0  0  0  0  0  0  0  0  0  0
  130.0426  126.8335   69.1249 H   0  0  0  0  0  0  0  0  0  0  0  0
  129.8873  128.6508   69.1906 H   0  0  0  0  0  0  0  0  0  0  0  0
  130.4088  127.6204   71.4187 H   0  0  0  0  0  0  0  0  0  0  0  0
  128.8617  128.5409   71.3825 H   0  0  0  0  0  0  0  0  0  0  0  0
  126.8447  125.5624   71.3143 H   0  0  0  0  0  0  0  0  0  0  0  0
  126.8206  127.3625   71.3272 H   0  0  0  0  0  0  0  0  0  0  0  0
  127.8012  125.5468   69.0596 H   0  0  0  0  0  0  0  0  0  0  0  0
  126.3080  126.5981   69.0914 H   0  0  0  0  0  0  0  0  0  0  0  0
  125.8300  128.2639   67.6435 H   0  0  0  0  0  0  0  0  0  0  0  0
  125.5415  128.8716   65.2572 H   0  0  0  0  0  0  0  0  0  0  0  0
  130.6949  128.9770   57.7505 H   0  0  0  0  0  0  0  0  0  0  0  0
  131.7192  126.7122   57.7344 H   0  0  0  0  0  0  0  0  0  0  0  0
  1  2  1  0
  2  3  1  0
  3  4  1  0
  4  5  2  0
  4  6  1  0
  6  7  2  0
  7  8  1  0
  8  9  2  0
  9 10  1  0
 10 11  1  0
 11 12  2  0
 11 13  1  0
 13 14  1  0
 14 15  1  0
 15 16  2  0
 16 17  1  0
 17 18  1  0
 18 19  2  0
 19 20  1  0
 20 21  2  0
 21 22  1  0
 22 23  1  0
 23 24  1  0
 24 25  1  0
 25 26  1  0
 26 27  1  0
 21 28  1  0
 28 29  2  0
 17 30  2  0
 30 31  1  0
 31 32  1  0
 32 33  2  0
 33 34  1  0
 34 35  2  0
 35 36  1  0
 36 37  1  0
 37 38  1  0
 38 39  1  0
 39 40  1  0
 40 41  1  0
 35 42  1  0
 42 43  2  0
 31 44  2  0
 44 45  1  0
 45 46  3  0
  9 47  1  0
 47 48  2  0
 48  6  1  0
 44 15  1  0
 29 18  1  0
 43 32  1  0
 27 22  1  0
 41 36  1  0
  1 49  1  0
  1 50  1  0
  1 51  1  0
  2 52  1  0
  2 53  1  0
  7 54  1  0
  8 55  1  0
 10 56  1  0
 13 57  1  0
 13 58  1  0
 19 59  1  0
 20 60  1  0
 23 61  1  0
 23 62  1  0
 24 63  1  0
 24 64  1  0
 26 65  1  0
 26 66  1  0
 27 67  1  0
 27 68  1  0
 28 69  1  0
 29 70  1  0
 30 71  1  0
 33 72  1  0
 34 73  1  0
 37 74  1  0
 37 75  1  0
 38 76  1  0
 38 77  1  0
 40 78  1  0
 40 79  1  0
 41 80  1  0
 41 81  1  0
 42 82  1  0
 43 83  1  0
 47 84  1  0
 48 85  1  0
M  END
>  <Binding energies>  (1) 
[-6.94]

>  <Ligand effiencies>  (1) 
[-0.1416326530612245]

>  <Interactions>  (1) 
["V-B:TYR:539:CD1:9845, V-B:ILE:538:CD1:9837, V-B:PRO:540:CB:9857, V-B:PRO:540:CD:9859, V-B:LEU:363:CD1:8161, V-B:GLU:543:CD:9880, V-B:PRO:540:CA:9855, H-B:TYR:539:N:9842, V-B:ILE:538:CG2:9835, V-B:ILE:538:CA:9832, V-B:MET:535:CE:9807, V-B:TYR:539:CE1:9847, V-B:PRO:540:N:9856, V-B:TYR:531:CE2:9765, V-A:ASP:366:CG:3213, V-A:LEU:475:CD2:4259, V-A:ILE:369:CD1:3239, V-A:GLY:454:CA:4049, V-A:ASP:366:CB:3212, V-B:ASP:366:CG:8185, V-A:PRO:540:CA:4883, V-B:ILE:538:C:9830, V-A:GLU:543:CD:4908, H-A:ALA:541:N:4891, V-A:ALA:541:CB:4892, V-A:GLU:543:CG:4907, H-B:TYR:539:OH:9850, V-A:HIS:456:CE1:4070, V-B:GLU:543:CB:9878, V-A:GLU:543:CB:4906, V-A:HIS:456:CD2:4068, V-B:HIS:456:CD2:9040, V-B:TYR:484:CZ:9319, V-B:HIS:456:CE1:9042, V-A:PRO:540:C:4881, H-B:LYS:547:NZ:9923, V-B:TYR:484:CE2:9318, H-B:TYR:484:OH:9320, V-B:GLU:543:C:9874, V-B:GLY:544:C:9884"]

$$$$
2a_Grossjean_2025
     RDKit          3D

 45 46  0  0  0  0  0  0  0  0999 V2000
  124.7390  122.5290   56.2820 C   0  0  0  0  0  0  0  0  0  0  0  0
  126.1980  122.7610   55.8760 C   0  0  0  0  0  0  0  0  0  0  0  0
  127.0540  122.1360   56.8250 O   0  0  0  0  0  0  0  0  0  0  0  0
  127.5870  122.8390   57.8580 C   0  0  0  0  0  0  0  0  0  0  0  0
  128.1170  122.3110   58.8390 O   0  0  0  0  0  0  0  0  0  0  0  0
  127.4840  124.3270   57.6750 C   0  0  0  0  0  0  0  0  0  0  0  0
  128.4070  125.0430   56.8980 C   0  0  0  0  0  0  0  0  0  0  0  0
  128.2840  126.4220   56.7500 C   0  0  0  0  0  0  0  0  0  0  0  0
  127.2470  127.1120   57.3780 C   0  0  0  0  0  0  0  0  0  0  0  0
  127.2290  128.5040   57.1700 N   0  0  0  0  0  0  0  0  0  0  0  0
  126.8630  129.2150   56.0820 C   0  0  0  0  0  0  0  0  0  0  0  0
  126.4840  128.7390   55.0110 O   0  0  0  0  0  0  0  0  0  0  0  0
  126.9450  130.7380   56.2300 C   0  0  0  0  0  0  0  0  0  0  0  0
  127.7090  131.2710   57.7980 S   0  0  0  0  0  0  0  0  0  0  0  0
  129.3220  130.5160   57.9710 C   0  0  0  0  0  0  0  0  0  0  0  0
  129.3690  129.3960   58.7360 N   0  0  0  0  0  0  0  0  0  0  0  0
  130.5580  128.7800   58.9210 C   0  0  0  0  0  0  0  0  0  0  0  0
  130.5340  127.5510   59.8110 C   0  0  0  0  0  0  0  0  0  0  0  0
  131.7400  129.2420   58.3500 C   0  0  0  0  0  0  0  0  0  0  0  0
  131.7140  130.3930   57.5470 C   0  0  0  0  0  0  0  0  0  0  0  0
  133.0300  130.8910   56.9210 C   0  0  0  0  0  0  0  0  0  0  0  0
  133.6300  131.7530   57.7420 F   0  0  0  0  0  0  0  0  0  0  0  0
  133.8480  129.8610   56.7010 F   0  0  0  0  0  0  0  0  0  0  0  0
  132.8430  131.5110   55.7530 F   0  0  0  0  0  0  0  0  0  0  0  0
  130.4730  131.0510   57.3480 C   0  0  0  0  0  0  0  0  0  0  0  0
  130.3890  132.2600   56.5210 C   0  0  0  0  0  0  0  0  0  0  0  0
  130.3220  133.2140   55.8690 N   0  0  0  0  0  0  0  0  0  0  0  0
  126.3160  126.4010   58.1490 C   0  0  0  0  0  0  0  0  0  0  0  0
  126.4370  125.0220   58.2920 C   0  0  0  0  0  0  0  0  0  0  0  0
  124.6612  122.5166   57.3792 H   0  0  0  0  0  0  0  0  0  0  0  0
  124.1131  123.3389   55.8792 H   0  0  0  0  0  0  0  0  0  0  0  0
  124.3952  121.5649   55.8792 H   0  0  0  0  0  0  0  0  0  0  0  0
  126.3756  122.3290   54.8801 H   0  0  0  0  0  0  0  0  0  0  0  0
  126.4056  123.8408   55.8467 H   0  0  0  0  0  0  0  0  0  0  0  0
  129.2330  124.5116   56.4026 H   0  0  0  0  0  0  0  0  0  0  0  0
  129.0102  126.9716   56.1331 H   0  0  0  0  0  0  0  0  0  0  0  0
  127.4900  129.0440   57.9810 H   0  0  0  0  0  0  0  0  0  0  0  0
  127.5420  131.1380   55.3972 H   0  0  0  0  0  0  0  0  0  0  0  0
  125.9141  131.1217   56.2232 H   0  0  0  0  0  0  0  0  0  0  0  0
  130.5401  127.8622   60.8661 H   0  0  0  0  0  0  0  0  0  0  0  0
  129.6243  126.9676   59.6060 H   0  0  0  0  0  0  0  0  0  0  0  0
  131.4202  126.9325   59.6060 H   0  0  0  0  0  0  0  0  0  0  0  0
  132.6864  128.7098   58.5264 H   0  0  0  0  0  0  0  0  0  0  0  0
  125.4892  126.9339   58.6413 H   0  0  0  0  0  0  0  0  0  0  0  0
  125.7014  124.4716   58.8969 H   0  0  0  0  0  0  0  0  0  0  0  0
  1  2  1  0
  2  3  1  0
  3  4  1  0
  4  5  2  0
  4  6  1  0
  6  7  2  0
  7  8  1  0
  8  9  2  0
  9 10  1  0
 10 11  1  0
 11 12  2  0
 11 13  1  0
 13 14  1  0
 14 15  1  0
 15 16  2  0
 16 17  1  0
 17 18  1  0
 17 19  2  0
 19 20  1  0
 20 21  1  0
 21 22  1  0
 21 23  1  0
 21 24  1  0
 20 25  2  0
 25 26  1  0
 26 27  3  0
  9 28  1  0
 28 29  2  0
 29  6  1  0
 25 15  1  0
  1 30  1  0
  1 31  1  0
  1 32  1  0
  2 33  1  0
  2 34  1  0
  7 35  1  0
  8 36  1  0
 10 37  1  0
 13 38  1  0
 13 39  1  0
 18 40  1  0
 18 41  1  0
 18 42  1  0
 19 43  1  0
 28 44  1  0
 29 45  1  0
M  END
>  <Binding energies>  (1) 
[-7.22]

>  <Ligand effiencies>  (1) 
[-0.24066666666666667]

>  <Interactions>  (1) 
["V-B:ILE:538:CD1:9837, V-B:PRO:540:CB:9857, V-B:PRO:540:CD:9859, V-B:LEU:363:CD1:8161, V-B:TYR:539:C:9839, V-B:PRO:540:CA:9855, H-B:TYR:539:N:9842, V-B:ILE:538:CG2:9835, V-B:TYR:539:CE2:9848, V-B:TYR:539:CD2:9846, V-B:ILE:538:CA:9832, V-B:MET:535:CE:9807, V-B:PRO:540:N:9856, V-B:TYR:531:CE2:9765, V-A:ASP:366:CG:3213, V-A:ASP:366:CB:3212, V-A:TYR:539:CE1:4875, V-A:TYR:531:CZ:4794, H-A:TYR:539:N:4870, V-A:TYR:539:CZ:4877, V-A:TYR:531:CE2:4793, V-A:PRO:540:CA:4883, V-A:TYR:539:C:4867, V-A:PRO:540:N:4884, V-A:PRO:540:CB:4885, H-B:LYS:534:NZ:9795, V-A:LEU:363:CD1:3189, V-A:LEU:363:CA:3185, H-B:TYR:531:OH:9767, V-A:PRO:540:CG:4886, V-A:LEU:363:CB:3187, V-A:LEU:363:CG:3188"]

$$$$
2aa_Ghoteimi_2023
     RDKit          3D

 85 90  0  0  0  0  0  0  0  0999 V2000
  131.7830  131.2280   56.9800 C   0  0  0  0  0  0  0  0  0  0  0  0
  131.7740  132.5860   56.2710 C   0  0  0  0  0  0  0  0  0  0  0  0
  130.5160  133.2150   56.4740 O   0  0  0  0  0  0  0  0  0  0  0  0
  129.4040  132.7890   55.8200 C   0  0  0  0  0  0  0  0  0  0  0  0
  129.2790  132.8340   54.5920 O   0  0  0  0  0  0  0  0  0  0  0  0
  128.3480  132.2440   56.7380 C   0  0  0  0  0  0  0  0  0  0  0  0
  127.2920  131.4510   56.2630 C   0  0  0  0  0  0  0  0  0  0  0  0
  126.3310  130.9570   57.1390 C   0  0  0  0  0  0  0  0  0  0  0  0
  126.3990  131.2490   58.5030 C   0  0  0  0  0  0  0  0  0  0  0  0
  125.3770  130.6940   59.2980 N   0  0  0  0  0  0  0  0  0  0  0  0
  124.4490  131.3070   60.0640 C   0  0  0  0  0  0  0  0  0  0  0  0
  124.3170  132.5270   60.1780 O   0  0  0  0  0  0  0  0  0  0  0  0
  123.5020  130.3540   60.8050 C   0  0  0  0  0  0  0  0  0  0  0  0
  123.9210  130.2200   62.1670 O   0  0  0  0  0  0  0  0  0  0  0  0
  125.1320  129.6100   62.4670 C   0  0  0  0  0  0  0  0  0  0  0  0
  125.9460  129.2590   61.4320 N   0  0  0  0  0  0  0  0  0  0  0  0
  127.1370  128.6640   61.6900 C   0  0  0  0  0  0  0  0  0  0  0  0
  127.9760  128.3040   60.5040 C   0  0  0  0  0  0  0  0  0  0  0  0
  128.5190  129.2990   59.6850 C   0  0  0  0  0  0  0  0  0  0  0  0
  129.3060  128.9690   58.5840 C   0  0  0  0  0  0  0  0  0  0  0  0
  129.5900  127.6310   58.2700 C   0  0  0  0  0  0  0  0  0  0  0  0
  130.3680  127.2820   57.1600 N   0  0  0  0  0  0  0  0  0  0  0  0
  131.5970  126.4750   57.3050 C   0  0  0  0  0  0  0  0  0  0  0  0
  132.5020  126.4890   56.0550 C   0  0  0  0  0  0  0  0  0  0  0  0
  131.7620  126.0870   54.9140 O   0  0  0  0  0  0  0  0  0  0  0  0
  130.6700  126.9590   54.6690 C   0  0  0  0  0  0  0  0  0  0  0  0
  129.7100  126.9580   55.8780 C   0  0  0  0  0  0  0  0  0  0  0  0
  129.0260  126.6370   59.0820 C   0  0  0  0  0  0  0  0  0  0  0  0
  128.2370  126.9670   60.1810 C   0  0  0  0  0  0  0  0  0  0  0  0
  127.5380  128.3880   63.0010 C   0  0  0  0  0  0  0  0  0  0  0  0
  126.7150  128.7280   64.0810 C   0  0  0  0  0  0  0  0  0  0  0  0
  127.1860  128.3840   65.4580 C   0  0  0  0  0  0  0  0  0  0  0  0
  128.5050  128.6460   65.8380 C   0  0  0  0  0  0  0  0  0  0  0  0
  128.9550  128.3100   67.1120 C   0  0  0  0  0  0  0  0  0  0  0  0
  128.1030  127.6890   68.0380 C   0  0  0  0  0  0  0  0  0  0  0  0
  128.5330  127.3470   69.3240 N   0  0  0  0  0  0  0  0  0  0  0  0
  127.6030  126.7810   70.3190 C   0  0  0  0  0  0  0  0  0  0  0  0
  128.3150  126.1440   71.5330 C   0  0  0  0  0  0  0  0  0  0  0  0
  129.1860  127.0900   72.1340 O   0  0  0  0  0  0  0  0  0  0  0  0
  130.1810  127.5360   71.2250 C   0  0  0  0  0  0  0  0  0  0  0  0
  129.5190  128.2090   70.0060 C   0  0  0  0  0  0  0  0  0  0  0  0
  126.7800  127.4380   67.6500 C   0  0  0  0  0  0  0  0  0  0  0  0
  126.3290  127.7730   66.3770 C   0  0  0  0  0  0  0  0  0  0  0  0
  125.4850  129.3690   63.8060 C   0  0  0  0  0  0  0  0  0  0  0  0
  124.5830  129.8040   64.8760 C   0  0  0  0  0  0  0  0  0  0  0  0
  123.8720  130.1490   65.7210 N   0  0  0  0  0  0  0  0  0  0  0  0
  127.4550  132.0340   58.9860 C   0  0  0  0  0  0  0  0  0  0  0  0
  128.4180  132.5250   58.1080 C   0  0  0  0  0  0  0  0  0  0  0  0
  131.7820  131.3829   58.0690 H   0  0  0  0  0  0  0  0  0  0  0  0
  130.8886  130.6570   56.6900 H   0  0  0  0  0  0  0  0  0  0  0  0
  132.6849  130.6689   56.6900 H   0  0  0  0  0  0  0  0  0  0  0  0
  132.5725  133.2206   56.6829 H   0  0  0  0  0  0  0  0  0  0  0  0
  131.9426  132.4398   55.1939 H   0  0  0  0  0  0  0  0  0  0  0  0
  127.2238  131.2184   55.1900 H   0  0  0  0  0  0  0  0  0  0  0  0
  125.5116  130.3319   56.7546 H   0  0  0  0  0  0  0  0  0  0  0  0
  125.3180  129.6880   59.2490 H   0  0  0  0  0  0  0  0  0  0  0  0
  122.4794  130.7582   60.7751 H   0  0  0  0  0  0  0  0  0  0  0  0
  123.5237  129.3677   60.3185 H   0  0  0  0  0  0  0  0  0  0  0  0
  128.3219  130.3568   59.9133 H   0  0  0  0  0  0  0  0  0  0  0  0
  129.7118  129.7709   57.9498 H   0  0  0  0  0  0  0  0  0  0  0  0
  132.1731  126.8700   58.1548 H   0  0  0  0  0  0  0  0  0  0  0  0
  131.2799  125.4331   57.4595 H   0  0  0  0  0  0  0  0  0  0  0  0
  132.8895  127.5064   55.8976 H   0  0  0  0  0  0  0  0  0  0  0  0
  133.3376  125.7900   56.2072 H   0  0  0  0  0  0  0  0  0  0  0  0
  131.0482  127.9789   54.5054 H   0  0  0  0  0  0  0  0  0  0  0  0
  130.1265  126.6142   53.7769 H   0  0  0  0  0  0  0  0  0  0  0  0
  128.9208  127.7021   55.6951 H   0  0  0  0  0  0  0  0  0  0  0  0
  129.3115  125.9369   55.9707 H   0  0  0  0  0  0  0  0  0  0  0  0
  129.2099  125.5783   58.8470 H   0  0  0  0  0  0  0  0  0  0  0  0
  127.8128  126.1659   60.8041 H   0  0  0  0  0  0  0  0  0  0  0  0
  128.5068  127.9004   63.1847 H   0  0  0  0  0  0  0  0  0  0  0  0
  129.1937  129.1218   65.1244 H   0  0  0  0  0  0  0  0  0  0  0  0
  129.9935  128.5346   67.3968 H   0  0  0  0  0  0  0  0  0  0  0  0
  126.9485  127.5870   70.6823 H   0  0  0  0  0  0  0  0  0  0  0  0
  127.0389  125.9809   69.8173 H   0  0  0  0  0  0  0  0  0  0  0  0
  127.5634  125.8216   72.2686 H   0  0  0  0  0  0  0  0  0  0  0  0
  128.9008  125.2765   71.1948 H   0  0  0  0  0  0  0  0  0  0  0  0
  130.8367  128.2608   71.7297 H   0  0  0  0  0  0  0  0  0  0  0  0
  130.7713  126.6727   70.8841 H   0  0  0  0  0  0  0  0  0  0  0  0
  129.0079  129.1216   70.3464 H   0  0  0  0  0  0  0  0  0  0  0  0
  130.3175  128.4255   69.2811 H   0  0  0  0  0  0  0  0  0  0  0  0
  126.0868  126.9685   68.3634 H   0  0  0  0  0  0  0  0  0  0  0  0
  125.2892  127.5550   66.0918 H   0  0  0  0  0  0  0  0  0  0  0  0
  127.5231  132.2625   60.0598 H   0  0  0  0  0  0  0  0  0  0  0  0
  129.2432  133.1407   58.4952 H   0  0  0  0  0  0  0  0  0  0  0  0
  1  2  1  0
  2  3  1  0
  3  4  1  0
  4  5  2  0
  4  6  1  0
  6  7  2  0
  7  8  1  0
  8  9  2  0
  9 10  1  0
 10 11  1  0
 11 12  2  0
 11 13  1  0
 13 14  1  0
 14 15  1  0
 15 16  2  0
 16 17  1  0
 17 18  1  0
 18 19  2  0
 19 20  1  0
 20 21  2  0
 21 22  1  0
 22 23  1  0
 23 24  1  0
 24 25  1  0
 25 26  1  0
 26 27  1  0
 21 28  1  0
 28 29  2  0
 17 30  2  0
 30 31  1  0
 31 32  1  0
 32 33  2  0
 33 34  1  0
 34 35  2  0
 35 36  1  0
 36 37  1  0
 37 38  1  0
 38 39  1  0
 39 40  1  0
 40 41  1  0
 35 42  1  0
 42 43  2  0
 31 44  2  0
 44 45  1  0
 45 46  3  0
  9 47  1  0
 47 48  2  0
 48  6  1  0
 44 15  1  0
 29 18  1  0
 43 32  1  0
 27 22  1  0
 41 36  1  0
  1 49  1  0
  1 50  1  0
  1 51  1  0
  2 52  1  0
  2 53  1  0
  7 54  1  0
  8 55  1  0
 10 56  1  0
 13 57  1  0
 13 58  1  0
 19 59  1  0
 20 60  1  0
 23 61  1  0
 23 62  1  0
 24 63  1  0
 24 64  1  0
 26 65  1  0
 26 66  1  0
 27 67  1  0
 27 68  1  0
 28 69  1  0
 29 70  1  0
 30 71  1  0
 33 72  1  0
 34 73  1  0
 37 74  1  0
 37 75  1  0
 38 76  1  0
 38 77  1  0
 40 78  1  0
 40 79  1  0
 41 80  1  0
 41 81  1  0
 42 82  1  0
 43 83  1  0
 47 84  1  0
 48 85  1  0
M  END
>  <Binding energies>  (1) 
[-7.28]

>  <Ligand effiencies>  (1) 
[-0.14857142857142858]

>  <Interactions>  (1) 
["V-B:GLU:543:CD:9880, V-B:MET:535:CE:9807, V-A:ASP:366:C:3208, V-A:ASP:366:CB:3212, V-A:TYR:539:CE1:4875, V-A:TYR:531:CZ:4794, H-A:TYR:539:N:4870, V-B:ASP:366:CG:8185, V-A:TYR:539:CZ:4877, V-A:PRO:540:CA:4883, V-A:TYR:539:C:4867, V-A:PRO:540:N:4884, V-A:PRO:540:CB:4885, V-B:ASP:366:CB:8184, V-A:MET:535:CE:4835, V-A:TYR:539:CE2:4876, V-A:LEU:363:CD1:3189, V-A:TYR:531:CE1:4792, V-A:GLU:543:CD:4908, V-A:PRO:540:CD:4887, V-A:GLU:543:CG:4907, H-B:TYR:539:OH:9850, V-A:HIS:456:CE1:4070, H-A:TYR:531:OH:4795, V-B:GLU:543:CB:9878, V-A:GLU:543:CB:4906, V-A:HIS:456:CD2:4068, V-A:HIS:456:CG:4066, V-B:ARG:545:CZ:9898, V-B:HIS:456:CD2:9040, V-B:TYR:484:CZ:9319, V-B:HIS:456:CE1:9042, V-A:TYR:539:CD2:4874, V-B:ILE:369:CD1:8211, V-B:ARG:545:CD:9895, V-A:TYR:539:CA:4869, V-B:ARG:545:CG:9894, V-A:PRO:540:CG:4886, V-A:TYR:539:CG:4872, V-A:TYR:539:CD1:4873, H-B:LYS:547:NZ:9923, V-B:ASP:366:CA:8182, H-B:TYR:484:OH:9320, H-B:GLY:454:N:9022, V-B:GLY:544:C:9884"]

$$$$
2b_Ghoteimi_2023
     RDKit          3D

 72 77  0  0  0  0  0  0  0  0999 V2000
  125.0500  130.3690   58.5690 N   0  0  0  0  0  0  0  0  0  0  0  0
  125.3870  130.0380   59.6250 C   0  0  0  0  0  0  0  0  0  0  0  0
  125.8160  129.6130   60.9610 C   0  0  0  0  0  0  0  0  0  0  0  0
  126.2410  128.2810   61.1910 C   0  0  0  0  0  0  0  0  0  0  0  0
  126.2900  127.2300   60.1310 C   0  0  0  0  0  0  0  0  0  0  0  0
  126.1900  125.8800   60.4720 C   0  0  0  0  0  0  0  0  0  0  0  0
  126.2360  124.8970   59.4880 C   0  0  0  0  0  0  0  0  0  0  0  0
  126.4020  125.2370   58.1360 C   0  0  0  0  0  0  0  0  0  0  0  0
  126.4380  124.2700   57.1300 N   0  0  0  0  0  0  0  0  0  0  0  0
  127.7460  123.7850   56.6440 C   0  0  0  0  0  0  0  0  0  0  0  0
  127.6570  123.0250   55.3040 C   0  0  0  0  0  0  0  0  0  0  0  0
  126.7240  121.9610   55.4060 O   0  0  0  0  0  0  0  0  0  0  0  0
  125.4250  122.4310   55.7310 C   0  0  0  0  0  0  0  0  0  0  0  0
  125.4570  123.1670   57.0870 C   0  0  0  0  0  0  0  0  0  0  0  0
  126.5040  126.5940   57.8040 C   0  0  0  0  0  0  0  0  0  0  0  0
  126.4540  127.5780   58.7870 C   0  0  0  0  0  0  0  0  0  0  0  0
  126.6460  127.9230   62.4820 C   0  0  0  0  0  0  0  0  0  0  0  0
  126.6580  128.8720   63.5080 C   0  0  0  0  0  0  0  0  0  0  0  0
  127.1100  128.5490   64.8970 C   0  0  0  0  0  0  0  0  0  0  0  0
  128.4340  128.7770   65.2880 C   0  0  0  0  0  0  0  0  0  0  0  0
  128.8580  128.4940   66.5840 C   0  0  0  0  0  0  0  0  0  0  0  0
  127.9760  127.9590   67.5350 C   0  0  0  0  0  0  0  0  0  0  0  0
  128.3790  127.6980   68.8500 N   0  0  0  0  0  0  0  0  0  0  0  0
  127.8850  126.4920   69.5450 C   0  0  0  0  0  0  0  0  0  0  0  0
  128.0860  126.5350   71.0750 C   0  0  0  0  0  0  0  0  0  0  0  0
  129.4510  126.7750   71.3800 O   0  0  0  0  0  0  0  0  0  0  0  0
  129.8910  128.0160   70.8520 C   0  0  0  0  0  0  0  0  0  0  0  0
  129.7420  128.0200   69.3160 C   0  0  0  0  0  0  0  0  0  0  0  0
  126.6480  127.7390   67.1410 C   0  0  0  0  0  0  0  0  0  0  0  0
  126.2250  128.0250   65.8460 C   0  0  0  0  0  0  0  0  0  0  0  0
  126.2520  130.1480   63.2860 N   0  0  0  0  0  0  0  0  0  0  0  0
  125.8240  130.5090   62.0530 C   0  0  0  0  0  0  0  0  0  0  0  0
  125.3250  132.2140   61.9430 S   0  0  0  0  0  0  0  0  0  0  0  0
  125.8390  132.8320   60.3130 C   0  0  0  0  0  0  0  0  0  0  0  0
  127.2920  132.4780   59.9950 C   0  0  0  0  0  0  0  0  0  0  0  0
  127.6890  132.5410   58.8300 O   0  0  0  0  0  0  0  0  0  0  0  0
  128.0450  132.1080   61.0540 N   0  0  0  0  0  0  0  0  0  0  0  0
  129.3850  131.7490   61.0500 C   0  0  0  0  0  0  0  0  0  0  0  0
  129.9460  130.9160   60.0830 C   0  0  0  0  0  0  0  0  0  0  0  0
  131.2730  130.8080   60.4290 C   0  0  0  0  0  0  0  0  0  0  0  0
  131.4990  131.5390   61.5460 O   0  0  0  0  0  0  0  0  0  0  0  0
  130.2950  132.1330   61.9300 N   0  0  0  0  0  0  0  0  0  0  0  0
  126.0739  125.5909   61.5270 H   0  0  0  0  0  0  0  0  0  0  0  0
  126.1410  123.8389   59.7735 H   0  0  0  0  0  0  0  0  0  0  0  0
  128.4115  124.6506   56.5106 H   0  0  0  0  0  0  0  0  0  0  0  0
  128.1299  123.0779   57.3941 H   0  0  0  0  0  0  0  0  0  0  0  0
  127.3328  123.7182   54.5138 H   0  0  0  0  0  0  0  0  0  0  0  0
  128.6468  122.6126   55.0585 H   0  0  0  0  0  0  0  0  0  0  0  0
  125.0811  123.1232   54.9483 H   0  0  0  0  0  0  0  0  0  0  0  0
  124.7368  121.5756   55.7993 H   0  0  0  0  0  0  0  0  0  0  0  0
  124.4570  123.5813   57.2831 H   0  0  0  0  0  0  0  0  0  0  0  0
  125.7583  122.4331   57.8490 H   0  0  0  0  0  0  0  0  0  0  0  0
  126.6254  126.8863   56.7505 H   0  0  0  0  0  0  0  0  0  0  0  0
  126.5442  128.6372   58.5043 H   0  0  0  0  0  0  0  0  0  0  0  0
  126.9567  126.8886   62.6904 H   0  0  0  0  0  0  0  0  0  0  0  0
  129.1508  129.1860   64.5607 H   0  0  0  0  0  0  0  0  0  0  0  0
  129.9022  128.6933   66.8669 H   0  0  0  0  0  0  0  0  0  0  0  0
  126.8097  126.3873   69.3383 H   0  0  0  0  0  0  0  0  0  0  0  0
  128.4685  125.6397   69.1666 H   0  0  0  0  0  0  0  0  0  0  0  0
  127.4707  127.3415   71.5004 H   0  0  0  0  0  0  0  0  0  0  0  0
  127.7850  125.5685   71.5054 H   0  0  0  0  0  0  0  0  0  0  0  0
  129.2848  128.8287   71.2787 H   0  0  0  0  0  0  0  0  0  0  0  0
  130.9496  128.1635   71.1120 H   0  0  0  0  0  0  0  0  0  0  0  0
  130.0086  129.0203   68.9441 H   0  0  0  0  0  0  0  0  0  0  0  0
  130.4078  127.2356   68.9270 H   0  0  0  0  0  0  0  0  0  0  0  0
  125.9285  127.3336   67.8676 H   0  0  0  0  0  0  0  0  0  0  0  0
  125.1786  127.8361   65.5642 H   0  0  0  0  0  0  0  0  0  0  0  0
  125.1895  132.3878   59.5444 H   0  0  0  0  0  0  0  0  0  0  0  0
  125.7524  133.9285   60.3241 H   0  0  0  0  0  0  0  0  0  0  0  0
  127.6020  132.1120   61.9610 H   0  0  0  0  0  0  0  0  0  0  0  0
  129.4374  130.4465   59.2281 H   0  0  0  0  0  0  0  0  0  0  0  0
  132.0289  130.2220   59.8856 H   0  0  0  0  0  0  0  0  0  0  0  0
  1  2  3  0
  2  3  1  0
  3  4  2  0
  4  5  1  0
  5  6  2  0
  6  7  1  0
  7  8  2  0
  8  9  1  0
  9 10  1  0
 10 11  1  0
 11 12  1  0
 12 13  1  0
 13 14  1  0
  8 15  1  0
 15 16  2  0
  4 17  1  0
 17 18  2  0
 18 19  1  0
 19 20  2  0
 20 21  1  0
 21 22  2  0
 22 23  1  0
 23 24  1  0
 24 25  1  0
 25 26  1  0
 26 27  1  0
 27 28  1  0
 22 29  1  0
 29 30  2  0
 18 31  1  0
 31 32  2  0
 32 33  1  0
 33 34  1  0
 34 35  1  0
 35 36  2  0
 35 37  1  0
 37 38  1  0
 38 39  1  0
 39 40  2  0
 40 41  1  0
 41 42  1  0
 32  3  1  0
 42 38  2  0
 16  5  1  0
 30 19  1  0
 14  9  1  0
 28 23  1  0
  6 43  1  0
  7 44  1  0
 10 45  1  0
 10 46  1  0
 11 47  1  0
 11 48  1  0
 13 49  1  0
 13 50  1  0
 14 51  1  0
 14 52  1  0
 15 53  1  0
 16 54  1  0
 17 55  1  0
 20 56  1  0
 21 57  1  0
 24 58  1  0
 24 59  1  0
 25 60  1  0
 25 61  1  0
 27 62  1  0
 27 63  1  0
 28 64  1  0
 28 65  1  0
 29 66  1  0
 30 67  1  0
 34 68  1  0
 34 69  1  0
 37 70  1  0
 39 71  1  0
 40 72  1  0
M  END
>  <Binding energies>  (1) 
[-8.66]

>  <Ligand effiencies>  (1) 
[-0.2013953488372093]

>  <Interactions>  (1) 
["V-B:TYR:539:CD1:9845, V-B:ILE:538:CD1:9837, V-B:PRO:540:CB:9857, V-B:PRO:540:CD:9859, V-B:GLU:543:CD:9880, H-B:TYR:539:N:9842, V-B:ILE:538:CG2:9835, V-B:ILE:538:CA:9832, V-B:MET:535:CE:9807, V-B:TYR:539:CZ:9849, V-B:TYR:539:CE1:9847, V-B:PRO:540:N:9856, V-A:TYR:539:CE1:4875, V-B:ASP:366:CG:8185, V-B:ILE:538:CB:9834, V-A:GLU:543:CD:4908, H-A:ALA:541:N:4891, V-A:ALA:541:CB:4892, V-A:GLU:543:CG:4907, V-A:HIS:456:CE1:4070, V-B:GLU:543:CB:9878, V-A:GLU:543:CB:4906, V-A:HIS:456:CD2:4068, V-B:ARG:545:CZ:9898, V-B:HIS:456:CD2:9040, V-B:HIS:456:CE1:9042, V-B:ARG:545:CG:9894, V-A:TYR:539:CD1:4873, H-B:TYR:484:OH:9320, V-B:GLU:543:C:9874, V-B:GLY:544:C:9884"]

$$$$
2b_Grossjean_2025
     RDKit          3D

 42 43  0  0  0  0  0  0  0  0999 V2000
  126.1280  122.6990   55.8290 C   0  0  0  0  0  0  0  0  0  0  0  0
  126.9200  122.0250   56.7960 O   0  0  0  0  0  0  0  0  0  0  0  0
  127.6000  122.7150   57.7470 C   0  0  0  0  0  0  0  0  0  0  0  0
  128.2880  122.1750   58.6190 O   0  0  0  0  0  0  0  0  0  0  0  0
  127.4280  124.2030   57.6370 C   0  0  0  0  0  0  0  0  0  0  0  0
  126.3730  124.8770   58.2700 C   0  0  0  0  0  0  0  0  0  0  0  0
  126.2420  126.2570   58.1460 C   0  0  0  0  0  0  0  0  0  0  0  0
  127.1600  126.9910   57.3960 C   0  0  0  0  0  0  0  0  0  0  0  0
  126.9300  128.3790   57.3320 N   0  0  0  0  0  0  0  0  0  0  0  0
  126.5810  129.1470   56.2780 C   0  0  0  0  0  0  0  0  0  0  0  0
  126.4210  128.7450   55.1240 O   0  0  0  0  0  0  0  0  0  0  0  0
  126.3970  130.6360   56.5880 C   0  0  0  0  0  0  0  0  0  0  0  0
  127.8980  131.6230   56.2770 S   0  0  0  0  0  0  0  0  0  0  0  0
  129.2860  130.9170   57.1550 C   0  0  0  0  0  0  0  0  0  0  0  0
  128.9800  129.9600   58.0680 N   0  0  0  0  0  0  0  0  0  0  0  0
  129.9800  129.3860   58.7730 C   0  0  0  0  0  0  0  0  0  0  0  0
  129.5540  128.3370   59.7820 C   0  0  0  0  0  0  0  0  0  0  0  0
  131.3180  129.7290   58.5960 C   0  0  0  0  0  0  0  0  0  0  0  0
  131.6580  130.7100   57.6520 C   0  0  0  0  0  0  0  0  0  0  0  0
  133.1430  131.0750   57.4640 C   0  0  0  0  0  0  0  0  0  0  0  0
  133.2490  132.2940   56.9330 F   0  0  0  0  0  0  0  0  0  0  0  0
  133.7710  131.0600   58.6410 F   0  0  0  0  0  0  0  0  0  0  0  0
  133.7850  130.2270   56.6560 F   0  0  0  0  0  0  0  0  0  0  0  0
  130.6180  131.3260   56.9090 C   0  0  0  0  0  0  0  0  0  0  0  0
  130.9160  132.3610   55.9140 C   0  0  0  0  0  0  0  0  0  0  0  0
  131.1510  133.1770   55.1280 N   0  0  0  0  0  0  0  0  0  0  0  0
  128.2130  126.3240   56.7530 C   0  0  0  0  0  0  0  0  0  0  0  0
  128.3430  124.9440   56.8770 C   0  0  0  0  0  0  0  0  0  0  0  0
  125.3857  123.3307   56.3388 H   0  0  0  0  0  0  0  0  0  0  0  0
  126.7745  123.3282   55.1996 H   0  0  0  0  0  0  0  0  0  0  0  0
  125.6103  121.9602   55.1996 H   0  0  0  0  0  0  0  0  0  0  0  0
  125.6442  124.3108   58.8685 H   0  0  0  0  0  0  0  0  0  0  0  0
  125.4075  126.7728   58.6437 H   0  0  0  0  0  0  0  0  0  0  0  0
  127.1000  128.8670   58.1990 H   0  0  0  0  0  0  0  0  0  0  0  0
  125.5844  131.0268   55.9579 H   0  0  0  0  0  0  0  0  0  0  0  0
  126.1650  130.7213   57.6599 H   0  0  0  0  0  0  0  0  0  0  0  0
  129.7106  128.7227   60.8002 H   0  0  0  0  0  0  0  0  0  0  0  0
  128.4890  128.1017   59.6388 H   0  0  0  0  0  0  0  0  0  0  0  0
  130.1533  127.4258   59.6388 H   0  0  0  0  0  0  0  0  0  0  0  0
  132.1010  129.2356   59.1906 H   0  0  0  0  0  0  0  0  0  0  0  0
  128.9367  126.8922   56.1502 H   0  0  0  0  0  0  0  0  0  0  0  0
  129.1737  124.4288   56.3725 H   0  0  0  0  0  0  0  0  0  0  0  0
  1  2  1  0
  2  3  1  0
  3  4  2  0
  3  5  1  0
  5  6  2  0
  6  7  1  0
  7  8  2  0
  8  9  1  0
  9 10  1  0
 10 11  2  0
 10 12  1  0
 12 13  1  0
 13 14  1  0
 14 15  2  0
 15 16  1  0
 16 17  1  0
 16 18  2  0
 18 19  1  0
 19 20  1  0
 20 21  1  0
 20 22  1  0
 20 23  1  0
 19 24  2  0
 24 25  1  0
 25 26  3  0
  8 27  1  0
 27 28  2  0
 28  5  1  0
 24 14  1  0
  1 29  1  0
  1 30  1  0
  1 31  1  0
  6 32  1  0
  7 33  1  0
  9 34  1  0
 12 35  1  0
 12 36  1  0
 17 37  1  0
 17 38  1  0
 17 39  1  0
 18 40  1  0
 27 41  1  0
 28 42  1  0
M  END
>  <Binding energies>  (1) 
[-7.08]

>  <Ligand effiencies>  (1) 
[-0.24413793103448275]

>  <Interactions>  (1) 
["V-B:ILE:538:CD1:9837, V-B:TYR:539:C:9839, V-B:PRO:540:CA:9855, H-B:TYR:539:N:9842, V-B:TYR:539:CE2:9848, V-B:TYR:539:CD2:9846, V-B:ILE:538:CA:9832, V-B:MET:535:CE:9807, V-B:PRO:540:N:9856, V-A:ASP:366:CG:3213, V-B:TYR:539:CG:9844, V-A:ASP:366:CB:3212, V-A:TYR:539:CE1:4875, V-A:TYR:531:CZ:4794, V-B:TYR:531:CE1:9764, H-A:TYR:539:N:4870, V-B:ASP:366:CG:8185, V-A:TYR:539:CZ:4877, V-A:TYR:531:CE2:4793, V-A:PRO:540:CA:4883, V-A:PRO:540:N:4884, V-A:PRO:540:CB:4885, H-B:LYS:534:NZ:9795, V-A:LEU:363:CD1:3189, V-A:PRO:540:CD:4887, V-A:LEU:363:CA:3185, H-B:TYR:531:OH:9767, V-A:PRO:540:CG:4886, V-A:ASN:362:C:3172, V-A:LEU:363:CB:3187, V-A:LEU:363:CG:3188"]

$$$$
2c_Ghoteimi_2023
     RDKit          3D

 72 77  0  0  0  0  0  0  0  0999 V2000
  128.3590  132.7130   64.3310 N   0  0  0  0  0  0  0  0  0  0  0  0
  128.1570  131.8010   63.6490 C   0  0  0  0  0  0  0  0  0  0  0  0
  127.8990  130.6420   62.7890 C   0  0  0  0  0  0  0  0  0  0  0  0
  127.9170  129.3290   63.3230 C   0  0  0  0  0  0  0  0  0  0  0  0
  128.1910  129.0180   64.7580 C   0  0  0  0  0  0  0  0  0  0  0  0
  127.6000  129.7810   65.7680 C   0  0  0  0  0  0  0  0  0  0  0  0
  127.8480  129.4950   67.1080 C   0  0  0  0  0  0  0  0  0  0  0  0
  128.7050  128.4470   67.4760 C   0  0  0  0  0  0  0  0  0  0  0  0
  128.9520  128.1290   68.8140 N   0  0  0  0  0  0  0  0  0  0  0  0
  128.3790  126.8920   69.3800 C   0  0  0  0  0  0  0  0  0  0  0  0
  128.3970  126.8630   70.9240 C   0  0  0  0  0  0  0  0  0  0  0  0
  129.7180  127.0730   71.3990 O   0  0  0  0  0  0  0  0  0  0  0  0
  130.2330  128.3270   70.9790 C   0  0  0  0  0  0  0  0  0  0  0  0
  130.2620  128.3950   69.4380 C   0  0  0  0  0  0  0  0  0  0  0  0
  129.2970  127.6890   66.4550 C   0  0  0  0  0  0  0  0  0  0  0  0
  129.0480  127.9740   65.1160 C   0  0  0  0  0  0  0  0  0  0  0  0
  127.6610  128.2550   62.4610 C   0  0  0  0  0  0  0  0  0  0  0  0
  127.3710  128.4830   61.1120 C   0  0  0  0  0  0  0  0  0  0  0  0
  127.0750  127.3720   60.1560 C   0  0  0  0  0  0  0  0  0  0  0  0
  126.9670  126.0530   60.6050 C   0  0  0  0  0  0  0  0  0  0  0  0
  126.6860  125.0140   59.7200 C   0  0  0  0  0  0  0  0  0  0  0  0
  126.5140  125.2580   58.3480 C   0  0  0  0  0  0  0  0  0  0  0  0
  126.2060  124.2310   57.4500 N   0  0  0  0  0  0  0  0  0  0  0  0
  127.2850  123.3800   56.9070 C   0  0  0  0  0  0  0  0  0  0  0  0
  126.8670  122.5660   55.6640 C   0  0  0  0  0  0  0  0  0  0  0  0
  125.7140  121.7940   55.9550 O   0  0  0  0  0  0  0  0  0  0  0  0
  124.6170  122.6150   56.3230 C   0  0  0  0  0  0  0  0  0  0  0  0
  124.9680  123.4350   57.5830 C   0  0  0  0  0  0  0  0  0  0  0  0
  126.6100  126.5840   57.9050 C   0  0  0  0  0  0  0  0  0  0  0  0
  126.8890  127.6220   58.7910 C   0  0  0  0  0  0  0  0  0  0  0  0
  127.3530  129.7410   60.6040 N   0  0  0  0  0  0  0  0  0  0  0  0
  127.6270  130.7940   61.4100 C   0  0  0  0  0  0  0  0  0  0  0  0
  127.5700  132.3640   60.5770 S   0  0  0  0  0  0  0  0  0  0  0  0
  126.8330  132.0850   58.9380 C   0  0  0  0  0  0  0  0  0  0  0  0
  127.8910  131.7630   57.8810 C   0  0  0  0  0  0  0  0  0  0  0  0
  127.6810  130.8550   57.0740 O   0  0  0  0  0  0  0  0  0  0  0  0
  129.0060  132.5220   57.9220 N   0  0  0  0  0  0  0  0  0  0  0  0
  130.0970  132.4410   57.0690 C   0  0  0  0  0  0  0  0  0  0  0  0
  130.2200  132.9540   55.8640 N   0  0  0  0  0  0  0  0  0  0  0  0
  131.4000  132.6860   55.3410 C   0  0  0  0  0  0  0  0  0  0  0  0
  132.2670  131.9360   56.1300 C   0  0  0  0  0  0  0  0  0  0  0  0
  131.4840  131.5680   57.6380 S   0  0  0  0  0  0  0  0  0  0  0  0
  126.9332  130.6146   65.5025 H   0  0  0  0  0  0  0  0  0  0  0  0
  127.3648  130.0997   67.8896 H   0  0  0  0  0  0  0  0  0  0  0  0
  127.3364  126.8029   69.0410 H   0  0  0  0  0  0  0  0  0  0  0  0
  129.0007  126.0545   69.0305 H   0  0  0  0  0  0  0  0  0  0  0  0
  127.7406  127.6564   71.3107 H   0  0  0  0  0  0  0  0  0  0  0  0
  128.0409  125.8816   71.2705 H   0  0  0  0  0  0  0  0  0  0  0  0
  129.5925  129.1326   71.3674 H   0  0  0  0  0  0  0  0  0  0  0  0
  131.2561  128.4454   71.3654 H   0  0  0  0  0  0  0  0  0  0  0  0
  130.5922  129.4010   69.1397 H   0  0  0  0  0  0  0  0  0  0  0  0
  130.9513  127.6108   69.0918 H   0  0  0  0  0  0  0  0  0  0  0  0
  129.9677  126.8573   66.7166 H   0  0  0  0  0  0  0  0  0  0  0  0
  129.5303  127.3718   64.3319 H   0  0  0  0  0  0  0  0  0  0  0  0
  127.6882  127.2255   62.8476 H   0  0  0  0  0  0  0  0  0  0  0  0
  127.1060  125.8316   61.6735 H   0  0  0  0  0  0  0  0  0  0  0  0
  126.5975  123.9864   60.1023 H   0  0  0  0  0  0  0  0  0  0  0  0
  128.1311  124.0262   56.6305 H   0  0  0  0  0  0  0  0  0  0  0  0
  127.5490  122.6558   57.6917 H   0  0  0  0  0  0  0  0  0  0  0  0
  126.6447  123.2546   54.8355 H   0  0  0  0  0  0  0  0  0  0  0  0
  127.6896  121.8933   55.3796 H   0  0  0  0  0  0  0  0  0  0  0  0
  124.3824  123.3012   55.4959 H   0  0  0  0  0  0  0  0  0  0  0  0
  123.7466  121.9779   56.5387 H   0  0  0  0  0  0  0  0  0  0  0  0
  124.1348  124.1218   57.7932 H   0  0  0  0  0  0  0  0  0  0  0  0
  125.1355  122.7152   58.3977 H   0  0  0  0  0  0  0  0  0  0  0  0
  126.4624  126.8092   56.8385 H   0  0  0  0  0  0  0  0  0  0  0  0
  126.9642  128.6523   58.4131 H   0  0  0  0  0  0  0  0  0  0  0  0
  126.1290  131.2424   59.0040 H   0  0  0  0  0  0  0  0  0  0  0  0
  126.3199  133.0094   58.6344 H   0  0  0  0  0  0  0  0  0  0  0  0
  129.0550  133.2430   58.6280 H   0  0  0  0  0  0  0  0  0  0  0  0
  131.6834  133.0356   54.3373 H   0  0  0  0  0  0  0  0  0  0  0  0
  133.2834  131.6261   55.8455 H   0  0  0  0  0  0  0  0  0  0  0  0
  1  2  3  0
  2  3  1  0
  3  4  2  0
  4  5  1  0
  5  6  2  0
  6  7  1  0
  7  8  2  0
  8  9  1  0
  9 10  1  0
 10 11  1  0
 11 12  1  0
 12 13  1  0
 13 14  1  0
  8 15  1  0
 15 16  2  0
  4 17  1  0
 17 18  2  0
 18 19  1  0
 19 20  2  0
 20 21  1  0
 21 22  2  0
 22 23  1  0
 23 24  1  0
 24 25  1  0
 25 26  1  0
 26 27  1  0
 27 28  1  0
 22 29  1  0
 29 30  2  0
 18 31  1  0
 31 32  2  0
 32 33  1  0
 33 34  1  0
 34 35  1  0
 35 36  2  0
 35 37  1  0
 37 38  1  0
 38 39  2  0
 39 40  1  0
 40 41  2  0
 41 42  1  0
 32  3  1  0
 42 38  1  0
 16  5  1  0
 30 19  1  0
 14  9  1  0
 28 23  1  0
  6 43  1  0
  7 44  1  0
 10 45  1  0
 10 46  1  0
 11 47  1  0
 11 48  1  0
 13 49  1  0
 13 50  1  0
 14 51  1  0
 14 52  1  0
 15 53  1  0
 16 54  1  0
 17 55  1  0
 20 56  1  0
 21 57  1  0
 24 58  1  0
 24 59  1  0
 25 60  1  0
 25 61  1  0
 27 62  1  0
 27 63  1  0
 28 64  1  0
 28 65  1  0
 29 66  1  0
 30 67  1  0
 34 68  1  0
 34 69  1  0
 37 70  1  0
 40 71  1  0
 41 72  1  0
M  END
>  <Binding energies>  (1) 
[-8.15]

>  <Ligand effiencies>  (1) 
[-0.18953488372093025]

>  <Interactions>  (1) 
["V-B:TYR:539:CD1:9845, V-B:ILE:538:CD1:9837, V-B:PRO:540:CB:9857, V-B:PRO:540:CD:9859, V-B:LEU:363:CD1:8161, V-B:GLU:543:CD:9880, V-B:PRO:540:CA:9855, H-B:TYR:539:N:9842, V-B:ILE:538:CG2:9835, V-B:ILE:538:CA:9832, V-B:MET:535:CE:9807, V-B:TYR:539:CE1:9847, V-B:TYR:531:CE2:9765, V-A:TYR:539:CE1:4875, H-A:TYR:539:N:4870, V-A:PRO:540:CA:4883, V-A:TYR:539:C:4867, V-A:PRO:540:N:4884, V-A:PRO:540:CB:4885, V-A:LEU:363:CD1:3189, V-B:ILE:538:C:9830, V-A:GLU:543:CD:4908, V-A:ALA:541:CB:4892, V-A:PRO:540:CD:4887, V-A:GLU:543:CG:4907, V-A:HIS:456:CE1:4070, V-A:ILE:538:CA:4860, V-A:ILE:538:CB:4862, V-A:ILE:538:CG2:4863, V-A:GLU:543:C:4902, V-A:GLU:543:CB:4906, V-A:GLY:544:C:4912, V-A:HIS:456:CD2:4068, V-A:GLY:544:CA:4914, V-B:HIS:456:CD2:9040, V-B:TYR:484:CZ:9319, V-B:HIS:456:CE1:9042, V-A:TYR:539:CD1:4873, V-B:TYR:484:CE2:9318, H-B:TYR:484:OH:9320, H-A:TYR:539:O:4868"]

$$$$
2c_Grossjean_2025
     RDKit          3D

 40 41  0  0  0  0  0  0  0  0999 V2000
  126.4640  122.7360   54.8700 C   0  0  0  0  0  0  0  0  0  0  0  0
  126.1750  122.2770   56.1870 O   0  0  0  0  0  0  0  0  0  0  0  0
  126.6660  122.9820   57.2690 C   0  0  0  0  0  0  0  0  0  0  0  0
  125.7210  123.5500   58.1220 C   0  0  0  0  0  0  0  0  0  0  0  0
  126.1180  124.2800   59.2390 C   0  0  0  0  0  0  0  0  0  0  0  0
  127.4830  124.4590   59.5090 C   0  0  0  0  0  0  0  0  0  0  0  0
  127.9800  125.1640   60.6200 N   0  0  0  0  0  0  0  0  0  0  0  0
  128.8170  126.2230   60.6410 C   0  0  0  0  0  0  0  0  0  0  0  0
  129.3380  126.7240   59.6430 O   0  0  0  0  0  0  0  0  0  0  0  0
  129.1300  126.7730   62.0410 C   0  0  0  0  0  0  0  0  0  0  0  0
  130.3960  125.8520   62.9810 S   0  0  0  0  0  0  0  0  0  0  0  0
  130.5960  124.2220   62.2710 C   0  0  0  0  0  0  0  0  0  0  0  0
  129.4450  123.5520   62.0060 N   0  0  0  0  0  0  0  0  0  0  0  0
  129.5190  122.3110   61.4770 C   0  0  0  0  0  0  0  0  0  0  0  0
  128.1910  121.6230   61.2250 C   0  0  0  0  0  0  0  0  0  0  0  0
  130.7310  121.6910   61.1830 C   0  0  0  0  0  0  0  0  0  0  0  0
  131.9320  122.3670   61.4410 C   0  0  0  0  0  0  0  0  0  0  0  0
  133.2650  121.6690   61.1080 C   0  0  0  0  0  0  0  0  0  0  0  0
  133.9810  122.4250   60.2750 F   0  0  0  0  0  0  0  0  0  0  0  0
  133.9680  121.4680   62.2240 F   0  0  0  0  0  0  0  0  0  0  0  0
  133.0920  120.4810   60.5240 F   0  0  0  0  0  0  0  0  0  0  0  0
  131.8690  123.6680   62.0010 C   0  0  0  0  0  0  0  0  0  0  0  0
  133.0940  124.4210   62.2940 C   0  0  0  0  0  0  0  0  0  0  0  0
  134.0600  125.0150   62.5250 N   0  0  0  0  0  0  0  0  0  0  0  0
  128.4330  123.8790   58.6670 C   0  0  0  0  0  0  0  0  0  0  0  0
  128.0310  123.1490   57.5520 C   0  0  0  0  0  0  0  0  0  0  0  0
  127.0493  123.6657   54.9259 H   0  0  0  0  0  0  0  0  0  0  0  0
  127.0430  121.9699   54.3335 H   0  0  0  0  0  0  0  0  0  0  0  0
  125.5229  122.9270   54.3335 H   0  0  0  0  0  0  0  0  0  0  0  0
  124.6495  123.4199   57.9101 H   0  0  0  0  0  0  0  0  0  0  0  0
  125.3623  124.7159   59.9090 H   0  0  0  0  0  0  0  0  0  0  0  0
  127.7180  124.7780   61.5160 H   0  0  0  0  0  0  0  0  0  0  0  0
  129.4793  127.8099   61.9277 H   0  0  0  0  0  0  0  0  0  0  0  0
  128.1979  126.6803   62.6178 H   0  0  0  0  0  0  0  0  0  0  0  0
  127.7170  121.3774   62.1868 H   0  0  0  0  0  0  0  0  0  0  0  0
  127.5333  122.2938   60.6527 H   0  0  0  0  0  0  0  0  0  0  0  0
  128.3596  120.6988   60.6527 H   0  0  0  0  0  0  0  0  0  0  0  0
  130.7459  120.6791   60.7519 H   0  0  0  0  0  0  0  0  0  0  0  0
  129.5044  123.9993   58.8855 H   0  0  0  0  0  0  0  0  0  0  0  0
  128.7863  122.7009   56.8896 H   0  0  0  0  0  0  0  0  0  0  0  0
  1  2  1  0
  2  3  1  0
  3  4  2  0
  4  5  1  0
  5  6  2  0
  6  7  1  0
  7  8  1  0
  8  9  2  0
  8 10  1  0
 10 11  1  0
 11 12  1  0
 12 13  2  0
 13 14  1  0
 14 15  1  0
 14 16  2  0
 16 17  1  0
 17 18  1  0
 18 19  1  0
 18 20  1  0
 18 21  1  0
 17 22  2  0
 22 23  1  0
 23 24  3  0
  6 25  1  0
 25 26  2  0
 26  3  1  0
 22 12  1  0
  1 27  1  0
  1 28  1  0
  1 29  1  0
  4 30  1  0
  5 31  1  0
  7 32  1  0
 10 33  1  0
 10 34  1  0
 15 35  1  0
 15 36  1  0
 15 37  1  0
 16 38  1  0
 25 39  1  0
 26 40  1  0
M  END
>  <Binding energies>  (1) 
[-6.14]

>  <Ligand effiencies>  (1) 
[-0.2274074074074074]

>  <Interactions>  (1) 
["V-B:ILE:538:CD1:9837, V-B:PRO:540:CB:9857, V-B:TYR:539:C:9839, V-B:PRO:540:CA:9855, H-B:TYR:539:N:9842, H-B:GLU:543:OE1:9881, V-B:TYR:539:CE2:9848, V-B:TYR:539:CD2:9846, V-B:ILE:538:CA:9832, V-B:MET:535:CE:9807, V-B:ALA:541:CB:9864, V-B:TYR:539:CZ:9849, V-B:PRO:540:C:9853, V-B:PRO:540:N:9856, V-A:SER:385:CB:3409, H-A:TYR:484:OH:4348, V-B:TYR:539:CG:9844, V-A:LEU:475:CD2:4259, V-A:ILE:369:CD1:3239, V-A:GLY:454:CA:4049, V-A:ILE:369:CB:3236, V-A:ILE:369:CG2:3237, H-A:GLY:454:N:4050, H-A:ARG:545:NH1:4927, H-A:ARG:545:NH2:4928, V-A:SER:385:C:3405, V-A:ILE:369:CG1:3238"]

$$$$
2d_Ghoteimi_2023
     RDKit          3D

 68 72  0  0  0  0  0  0  0  0999 V2000
  128.4970  132.0650   61.9380 C   0  0  0  0  0  0  0  0  0  0  0  0
  127.4490  132.9570   61.5900 O   0  0  0  0  0  0  0  0  0  0  0  0
  126.8790  132.9010   60.3690 C   0  0  0  0  0  0  0  0  0  0  0  0
  127.4870  132.8430   59.2960 O   0  0  0  0  0  0  0  0  0  0  0  0
  125.3460  132.9100   60.4680 C   0  0  0  0  0  0  0  0  0  0  0  0
  124.7790  132.1050   62.0060 S   0  0  0  0  0  0  0  0  0  0  0  0
  125.4840  130.4710   62.0750 C   0  0  0  0  0  0  0  0  0  0  0  0
  125.9350  130.1340   63.3080 N   0  0  0  0  0  0  0  0  0  0  0  0
  126.5040  128.9180   63.5060 C   0  0  0  0  0  0  0  0  0  0  0  0
  126.9930  128.6250   64.8870 C   0  0  0  0  0  0  0  0  0  0  0  0
  128.3100  128.9220   65.2540 C   0  0  0  0  0  0  0  0  0  0  0  0
  128.7730  128.6520   66.5390 C   0  0  0  0  0  0  0  0  0  0  0  0
  127.9310  128.0840   67.5080 C   0  0  0  0  0  0  0  0  0  0  0  0
  128.3850  127.7900   68.7990 N   0  0  0  0  0  0  0  0  0  0  0  0
  127.9990  126.5420   69.4870 C   0  0  0  0  0  0  0  0  0  0  0  0
  128.2760  126.5620   71.0040 C   0  0  0  0  0  0  0  0  0  0  0  0
  129.6410  126.8690   71.2430 O   0  0  0  0  0  0  0  0  0  0  0  0
  129.9880  128.1410   70.7220 C   0  0  0  0  0  0  0  0  0  0  0  0
  129.7560  128.1710   69.1960 C   0  0  0  0  0  0  0  0  0  0  0  0
  126.6160  127.7760   67.1320 C   0  0  0  0  0  0  0  0  0  0  0  0
  126.1540  128.0440   65.8460 C   0  0  0  0  0  0  0  0  0  0  0  0
  126.6290  128.0020   62.4580 C   0  0  0  0  0  0  0  0  0  0  0  0
  126.1410  128.3120   61.1820 C   0  0  0  0  0  0  0  0  0  0  0  0
  126.2840  127.2740   60.1180 C   0  0  0  0  0  0  0  0  0  0  0  0
  126.2670  125.9180   60.4520 C   0  0  0  0  0  0  0  0  0  0  0  0
  126.3870  124.9430   59.4670 C   0  0  0  0  0  0  0  0  0  0  0  0
  126.5310  125.2960   58.1160 C   0  0  0  0  0  0  0  0  0  0  0  0
  126.6400  124.3340   57.1080 N   0  0  0  0  0  0  0  0  0  0  0  0
  125.6640  123.2340   56.9860 C   0  0  0  0  0  0  0  0  0  0  0  0
  125.7330  122.4970   55.6310 C   0  0  0  0  0  0  0  0  0  0  0  0
  127.0530  122.0330   55.3970 O   0  0  0  0  0  0  0  0  0  0  0  0
  127.9870  123.1000   55.3670 C   0  0  0  0  0  0  0  0  0  0  0  0
  127.9780  123.8490   56.7170 C   0  0  0  0  0  0  0  0  0  0  0  0
  126.5280  126.6590   57.7870 C   0  0  0  0  0  0  0  0  0  0  0  0
  126.4070  127.6340   58.7730 C   0  0  0  0  0  0  0  0  0  0  0  0
  125.5440  129.5810   60.9780 C   0  0  0  0  0  0  0  0  0  0  0  0
  125.0010  129.9440   59.6650 C   0  0  0  0  0  0  0  0  0  0  0  0
  124.5730  130.2270   58.6270 N   0  0  0  0  0  0  0  0  0  0  0  0
  128.5741  131.9994   63.0333 H   0  0  0  0  0  0  0  0  0  0  0  0
  128.2824  131.0683   61.5252 H   0  0  0  0  0  0  0  0  0  0  0  0
  129.4466  132.4361   61.5252 H   0  0  0  0  0  0  0  0  0  0  0  0
  124.9918  133.9513   60.4564 H   0  0  0  0  0  0  0  0  0  0  0  0
  124.9383  132.3522   59.6121 H   0  0  0  0  0  0  0  0  0  0  0  0
  128.9892  129.3752   64.5170 H   0  0  0  0  0  0  0  0  0  0  0  0
  129.8155  128.8876   66.7991 H   0  0  0  0  0  0  0  0  0  0  0  0
  126.9223  126.3783   69.3323 H   0  0  0  0  0  0  0  0  0  0  0  0
  128.6109  125.7348   69.0581 H   0  0  0  0  0  0  0  0  0  0  0  0
  127.6421  127.3245   71.4803 H   0  0  0  0  0  0  0  0  0  0  0  0
  128.0487  125.5720   71.4262 H   0  0  0  0  0  0  0  0  0  0  0  0
  129.3656  128.9119   71.1998 H   0  0  0  0  0  0  0  0  0  0  0  0
  131.0506  128.3367   70.9284 H   0  0  0  0  0  0  0  0  0  0  0  0
  129.9520  129.1912   68.8344 H   0  0  0  0  0  0  0  0  0  0  0  0
  130.4381  127.4314   68.7512 H   0  0  0  0  0  0  0  0  0  0  0  0
  125.9378  127.3149   67.8651 H   0  0  0  0  0  0  0  0  0  0  0  0
  125.1159  127.7960   65.5798 H   0  0  0  0  0  0  0  0  0  0  0  0
  127.1139  127.0309   62.6363 H   0  0  0  0  0  0  0  0  0  0  0  0
  126.1576  125.6179   61.5046 H   0  0  0  0  0  0  0  0  0  0  0  0
  126.3688  123.8804   59.7508 H   0  0  0  0  0  0  0  0  0  0  0  0
  125.8571  122.5066   57.7882 H   0  0  0  0  0  0  0  0  0  0  0  0
  124.6617  123.6810   57.0606 H   0  0  0  0  0  0  0  0  0  0  0  0
  125.0433  121.6402   55.6469 H   0  0  0  0  0  0  0  0  0  0  0  0
  125.4470  123.1917   54.8275 H   0  0  0  0  0  0  0  0  0  0  0  0
  128.9936  122.6976   55.1806 H   0  0  0  0  0  0  0  0  0  0  0  0
  127.7098  123.7995   54.5646 H   0  0  0  0  0  0  0  0  0  0  0  0
  128.3433  123.1655   57.4977 H   0  0  0  0  0  0  0  0  0  0  0  0
  128.6237  124.7322   56.6032 H   0  0  0  0  0  0  0  0  0  0  0  0
  126.6227  126.9623   56.7339 H   0  0  0  0  0  0  0  0  0  0  0  0
  126.4082  128.6973   58.4912 H   0  0  0  0  0  0  0  0  0  0  0  0
  1  2  1  0
  2  3  1  0
  3  4  2  0
  3  5  1  0
  5  6  1  0
  6  7  1  0
  7  8  2  0
  8  9  1  0
  9 10  1  0
 10 11  2  0
 11 12  1  0
 12 13  2  0
 13 14  1  0
 14 15  1  0
 15 16  1  0
 16 17  1  0
 17 18  1  0
 18 19  1  0
 13 20  1  0
 20 21  2  0
  9 22  2  0
 22 23  1  0
 23 24  1  0
 24 25  2  0
 25 26  1  0
 26 27  2  0
 27 28  1  0
 28 29  1  0
 29 30  1  0
 30 31  1  0
 31 32  1  0
 32 33  1  0
 27 34  1  0
 34 35  2  0
 23 36  2  0
 36 37  1  0
 37 38  3  0
 36  7  1  0
 21 10  1  0
 35 24  1  0
 19 14  1  0
 33 28  1  0
  1 39  1  0
  1 40  1  0
  1 41  1  0
  5 42  1  0
  5 43  1  0
 11 44  1  0
 12 45  1  0
 15 46  1  0
 15 47  1  0
 16 48  1  0
 16 49  1  0
 18 50  1  0
 18 51  1  0
 19 52  1  0
 19 53  1  0
 20 54  1  0
 21 55  1  0
 22 56  1  0
 25 57  1  0
 26 58  1  0
 29 59  1  0
 29 60  1  0
 30 61  1  0
 30 62  1  0
 32 63  1  0
 32 64  1  0
 33 65  1  0
 33 66  1  0
 34 67  1  0
 35 68  1  0
M  END
>  <Binding energies>  (1) 
[-6.87]

>  <Ligand effiencies>  (1) 
[-0.18078947368421053]

>  <Interactions>  (1) 
["V-B:TYR:539:CD1:9845, V-B:ILE:538:CD1:9837, V-B:GLU:543:CD:9880, H-B:TYR:539:N:9842, V-B:ILE:538:CG2:9835, V-B:TYR:539:CE2:9848, V-B:ILE:538:CA:9832, V-B:MET:535:CE:9807, V-B:TYR:539:CZ:9849, V-B:TYR:539:CE1:9847, V-B:TYR:539:CG:9844, V-A:TYR:539:CE1:4875, V-B:ASP:366:CG:8185, V-B:ASP:366:CB:8184, V-B:ILE:538:C:9830, V-A:GLU:543:CD:4908, V-A:ALA:541:CB:4892, V-A:GLU:543:CG:4907, V-A:HIS:456:CE1:4070, V-A:GLU:543:C:4902, V-B:GLU:543:CB:9878, V-A:GLU:543:CB:4906, V-A:GLY:544:C:4912, V-A:HIS:456:CD2:4068, V-B:ARG:545:CZ:9898, V-B:HIS:456:CD2:9040, V-B:HIS:456:CE1:9042, V-B:ARG:545:CD:9895, V-B:ARG:545:CG:9894, V-A:TYR:539:CD1:4873, H-B:TYR:484:OH:9320, V-B:GLU:543:C:9874"]

$$$$
2d_Grossjean_2025
     RDKit          3D

 36 37  0  0  0  0  0  0  0  0999 V2000
  132.8680  124.7670   60.9520 C   0  0  0  0  0  0  0  0  0  0  0  0
  131.4800  124.2570   61.2900 C   0  0  0  0  0  0  0  0  0  0  0  0
  131.1970  122.8940   61.3460 C   0  0  0  0  0  0  0  0  0  0  0  0
  129.8990  122.4730   61.6680 C   0  0  0  0  0  0  0  0  0  0  0  0
  129.6070  120.9610   61.7360 C   0  0  0  0  0  0  0  0  0  0  0  0
  130.3330  120.3140   60.8240 F   0  0  0  0  0  0  0  0  0  0  0  0
  129.9150  120.4900   62.9460 F   0  0  0  0  0  0  0  0  0  0  0  0
  128.3250  120.6710   61.5080 F   0  0  0  0  0  0  0  0  0  0  0  0
  128.9090  123.4570   61.9190 C   0  0  0  0  0  0  0  0  0  0  0  0
  127.5490  123.0680   62.3040 C   0  0  0  0  0  0  0  0  0  0  0  0
  126.4770  122.7600   62.6100 N   0  0  0  0  0  0  0  0  0  0  0  0
  129.2810  124.8180   61.8140 C   0  0  0  0  0  0  0  0  0  0  0  0
  128.1590  126.1800   62.0650 S   0  0  0  0  0  0  0  0  0  0  0  0
  126.6380  125.8690   61.1090 C   0  0  0  0  0  0  0  0  0  0  0  0
  126.9050  125.1920   59.7610 C   0  0  0  0  0  0  0  0  0  0  0  0
  128.0150  125.3120   59.2410 O   0  0  0  0  0  0  0  0  0  0  0  0
  125.8610  124.5260   59.2250 N   0  0  0  0  0  0  0  0  0  0  0  0
  125.7920  123.8070   58.0170 C   0  0  0  0  0  0  0  0  0  0  0  0
  127.0150  123.4410   57.4500 C   0  0  0  0  0  0  0  0  0  0  0  0
  127.0490  122.7320   56.2520 C   0  0  0  0  0  0  0  0  0  0  0  0
  125.8570  122.3970   55.6150 C   0  0  0  0  0  0  0  0  0  0  0  0
  124.6320  122.7670   56.1630 C   0  0  0  0  0  0  0  0  0  0  0  0
  124.5940  123.4740   57.3610 C   0  0  0  0  0  0  0  0  0  0  0  0
  130.5460  125.2070   61.5220 N   0  0  0  0  0  0  0  0  0  0  0  0
  133.4204  124.9700   61.8813 H   0  0  0  0  0  0  0  0  0  0  0  0
  133.4048  124.0074   60.3648 H   0  0  0  0  0  0  0  0  0  0  0  0
  132.7853  125.6935   60.3648 H   0  0  0  0  0  0  0  0  0  0  0  0
  131.9849  122.1547   61.1394 H   0  0  0  0  0  0  0  0  0  0  0  0
  125.9778  125.2195   61.7025 H   0  0  0  0  0  0  0  0  0  0  0  0
  126.1755  126.8451   60.9006 H   0  0  0  0  0  0  0  0  0  0  0  0
  124.9850  124.5900   59.7240 H   0  0  0  0  0  0  0  0  0  0  0  0
  127.9550  123.7139   57.9519 H   0  0  0  0  0  0  0  0  0  0  0  0
  128.0129  122.4380   55.8110 H   0  0  0  0  0  0  0  0  0  0  0  0
  125.8836  121.8347   54.6699 H   0  0  0  0  0  0  0  0  0  0  0  0
  123.6959  122.5011   55.6501 H   0  0  0  0  0  0  0  0  0  0  0  0
  123.6278  123.7719   57.7942 H   0  0  0  0  0  0  0  0  0  0  0  0
  1  2  1  0
  2  3  2  0
  3  4  1  0
  4  5  1  0
  5  6  1  0
  5  7  1  0
  5  8  1  0
  4  9  2  0
  9 10  1  0
 10 11  3  0
  9 12  1  0
 12 13  1  0
 13 14  1  0
 14 15  1  0
 15 16  2  0
 15 17  1  0
 17 18  1  0
 18 19  2  0
 19 20  1  0
 20 21  2  0
 21 22  1  0
 22 23  2  0
 12 24  2  0
 24  2  1  0
 23 18  1  0
  1 25  1  0
  1 26  1  0
  1 27  1  0
  3 28  1  0
 14 29  1  0
 14 30  1  0
 17 31  1  0
 19 32  1  0
 20 33  1  0
 21 34  1  0
 22 35  1  0
 23 36  1  0
M  END
>  <Binding energies>  (1) 
[-6.7]

>  <Ligand effiencies>  (1) 
[-0.268]

>  <Interactions>  (1) 
["V-B:TYR:539:CD1:9845, V-B:ILE:538:CD1:9837, V-B:PRO:540:CB:9857, V-B:PRO:540:CD:9859, V-B:LEU:363:CD1:8161, V-B:GLU:543:CD:9880, V-B:TYR:539:C:9839, V-B:PRO:540:CA:9855, V-B:ILE:538:CG2:9835, V-B:TYR:539:CD2:9846, V-B:ILE:538:CA:9832, V-B:ALA:541:CB:9864, V-B:PRO:540:C:9853, H-B:ASP:366:OD2:8187, V-B:TYR:539:CE1:9847, V-B:PRO:540:N:9856, V-B:TYR:531:CE2:9765, V-A:LEU:475:CD1:4258, V-A:ASP:366:CG:3213, V-A:LEU:475:CD2:4259, V-B:TYR:531:CZ:9766, V-A:LEU:475:CG:4257, V-B:ILE:538:C:9830, V-B:ILE:538:CB:9834, H-B:ALA:541:N:9863, V-A:TYR:484:CZ:4347, V-B:ALA:541:CA:9862, V-B:GLU:543:CG:9879, V-A:TYR:484:CE1:4345"]

$$$$
2e_Grossjean_2025
     RDKit          3D

 38 39  0  0  0  0  0  0  0  0999 V2000
  127.1390  122.4650   54.5960 C   0  0  0  0  0  0  0  0  0  0  0  0
  126.7010  122.7440   56.0210 C   0  0  0  0  0  0  0  0  0  0  0  0
  125.4740  123.3500   56.3040 C   0  0  0  0  0  0  0  0  0  0  0  0
  125.1330  123.5660   57.6400 C   0  0  0  0  0  0  0  0  0  0  0  0
  126.0160  123.1770   58.6500 C   0  0  0  0  0  0  0  0  0  0  0  0
  127.2330  122.5840   58.2960 C   0  0  0  0  0  0  0  0  0  0  0  0
  128.0650  122.1720   59.3520 N   0  0  0  0  0  0  0  0  0  0  0  0
  129.3310  122.5620   59.6160 C   0  0  0  0  0  0  0  0  0  0  0  0
  129.9500  123.4240   58.9910 O   0  0  0  0  0  0  0  0  0  0  0  0
  130.0310  121.8210   60.7600 C   0  0  0  0  0  0  0  0  0  0  0  0
  129.1420  122.0030   62.3390 S   0  0  0  0  0  0  0  0  0  0  0  0
  127.8820  123.2230   62.0360 C   0  0  0  0  0  0  0  0  0  0  0  0
  126.6140  122.7430   62.0600 N   0  0  0  0  0  0  0  0  0  0  0  0
  125.5970  123.5940   61.7950 C   0  0  0  0  0  0  0  0  0  0  0  0
  124.2050  122.9920   61.8400 C   0  0  0  0  0  0  0  0  0  0  0  0
  125.8000  124.9400   61.4930 C   0  0  0  0  0  0  0  0  0  0  0  0
  127.1070  125.4490   61.4550 C   0  0  0  0  0  0  0  0  0  0  0  0
  127.3170  126.9330   61.0990 C   0  0  0  0  0  0  0  0  0  0  0  0
  126.1390  127.5330   60.9250 F   0  0  0  0  0  0  0  0  0  0  0  0
  127.9760  127.5480   62.0820 F   0  0  0  0  0  0  0  0  0  0  0  0
  128.0210  127.0980   59.9770 F   0  0  0  0  0  0  0  0  0  0  0  0
  128.1830  124.5710   61.7360 C   0  0  0  0  0  0  0  0  0  0  0  0
  129.5730  125.0350   61.6830 C   0  0  0  0  0  0  0  0  0  0  0  0
  130.6700  125.4020   61.6410 N   0  0  0  0  0  0  0  0  0  0  0  0
  127.5710  122.3620   56.9920 N   0  0  0  0  0  0  0  0  0  0  0  0
  128.0667  121.8741   54.6066 H   0  0  0  0  0  0  0  0  0  0  0  0
  126.3514  121.9018   54.0739 H   0  0  0  0  0  0  0  0  0  0  0  0
  127.3165  123.4168   54.0739 H   0  0  0  0  0  0  0  0  0  0  0  0
  124.7934  123.6495   55.4934 H   0  0  0  0  0  0  0  0  0  0  0  0
  124.1740  124.0400   57.8962 H   0  0  0  0  0  0  0  0  0  0  0  0
  125.7585  123.3345   59.7078 H   0  0  0  0  0  0  0  0  0  0  0  0
  127.6370  121.5340   60.0070 H   0  0  0  0  0  0  0  0  0  0  0  0
  130.0895  120.7521   60.5070 H   0  0  0  0  0  0  0  0  0  0  0  0
  131.0332  122.2573   60.8832 H   0  0  0  0  0  0  0  0  0  0  0  0
  123.8968  122.8587   62.8875 H   0  0  0  0  0  0  0  0  0  0  0  0
  123.4980  123.6648   61.3326 H   0  0  0  0  0  0  0  0  0  0  0  0
  124.2110  122.0161   61.3326 H   0  0  0  0  0  0  0  0  0  0  0  0
  124.9426  125.5974   61.2863 H   0  0  0  0  0  0  0  0  0  0  0  0
  1  2  1  0
  2  3  2  0
  3  4  1  0
  4  5  2  0
  5  6  1  0
  6  7  1  0
  7  8  1  0
  8  9  2  0
  8 10  1  0
 10 11  1  0
 11 12  1  0
 12 13  2  0
 13 14  1  0
 14 15  1  0
 14 16  2  0
 16 17  1  0
 17 18  1  0
 18 19  1  0
 18 20  1  0
 18 21  1  0
 17 22  2  0
 22 23  1  0
 23 24  3  0
  6 25  2  0
 25  2  1  0
 22 12  1  0
  1 26  1  0
  1 27  1  0
  1 28  1  0
  3 29  1  0
  4 30  1  0
  5 31  1  0
  7 32  1  0
 10 33  1  0
 10 34  1  0
 15 35  1  0
 15 36  1  0
 15 37  1  0
 16 38  1  0
M  END
>  <Binding energies>  (1) 
[-6.32]

>  <Ligand effiencies>  (1) 
[-0.24307692307692308]

>  <Interactions>  (1) 
["V-B:TYR:539:CD1:9845, V-B:ILE:538:CD1:9837, V-B:PRO:540:CB:9857, V-B:GLU:543:CD:9880, V-B:TYR:539:C:9839, V-B:PRO:540:CA:9855, H-B:TYR:539:N:9842, V-B:TYR:539:CE2:9848, V-B:TYR:539:CD2:9846, V-B:ILE:538:CA:9832, V-B:MET:535:CE:9807, V-B:PRO:540:C:9853, V-B:TYR:539:CE1:9847, V-B:PRO:540:N:9856, V-B:TYR:531:CE2:9765, H-A:TYR:484:OH:4348, V-B:TYR:531:CZ:9766, V-B:ASP:366:CG:8185, V-B:ILE:538:C:9830, H-B:ALA:541:N:9863, H-B:TYR:539:O:9840, V-B:ASN:362:CB:8148, V-B:GLU:543:CG:9879, V-B:VAL:537:C:9822"]

$$$$
2f_Grossjean_2025
     RDKit          3D

 35 36  0  0  0  0  0  0  0  0999 V2000
  133.2480  125.3480   64.3180 C   0  0  0  0  0  0  0  0  0  0  0  0
  132.5520  125.0930   62.9940 C   0  0  0  0  0  0  0  0  0  0  0  0
  133.2680  124.7850   61.8400 C   0  0  0  0  0  0  0  0  0  0  0  0
  132.5790  124.5660   60.6370 C   0  0  0  0  0  0  0  0  0  0  0  0
  133.3910  124.2390   59.3690 C   0  0  0  0  0  0  0  0  0  0  0  0
  134.6940  124.4070   59.6030 F   0  0  0  0  0  0  0  0  0  0  0  0
  133.1770  122.9740   59.0050 F   0  0  0  0  0  0  0  0  0  0  0  0
  133.0670  125.0160   58.3330 F   0  0  0  0  0  0  0  0  0  0  0  0
  131.1640  124.6580   60.6400 C   0  0  0  0  0  0  0  0  0  0  0  0
  130.4030  124.4930   59.3990 C   0  0  0  0  0  0  0  0  0  0  0  0
  129.8030  124.3620   58.4180 N   0  0  0  0  0  0  0  0  0  0  0  0
  130.5180  124.9490   61.8660 C   0  0  0  0  0  0  0  0  0  0  0  0
  128.7530  125.0900   62.0570 S   0  0  0  0  0  0  0  0  0  0  0  0
  128.0540  123.4060   62.1270 C   0  0  0  0  0  0  0  0  0  0  0  0
  126.9280  123.1250   61.1220 C   0  0  0  0  0  0  0  0  0  0  0  0
  125.8170  122.7600   61.5090 O   0  0  0  0  0  0  0  0  0  0  0  0
  127.2770  123.2940   59.8280 N   0  0  0  0  0  0  0  0  0  0  0  0
  126.5010  123.1360   58.6640 C   0  0  0  0  0  0  0  0  0  0  0  0
  125.1700  123.5630   58.5060 C   0  0  0  0  0  0  0  0  0  0  0  0
  124.5150  123.3480   57.2920 C   0  0  0  0  0  0  0  0  0  0  0  0
  125.2100  122.7130   56.2620 C   0  0  0  0  0  0  0  0  0  0  0  0
  126.4960  122.2990   56.3860 N   0  0  0  0  0  0  0  0  0  0  0  0
  127.1190  122.5160   57.5720 C   0  0  0  0  0  0  0  0  0  0  0  0
  131.2020  125.1800   63.0130 N   0  0  0  0  0  0  0  0  0  0  0  0
  132.5665  125.0983   65.1446 H   0  0  0  0  0  0  0  0  0  0  0  0
  134.1500  124.7219   64.3846 H   0  0  0  0  0  0  0  0  0  0  0  0
  133.5321  126.4086   64.3846 H   0  0  0  0  0  0  0  0  0  0  0  0
  134.3653  124.7139   61.8710 H   0  0  0  0  0  0  0  0  0  0  0  0
  128.8678  122.6912   61.9353 H   0  0  0  0  0  0  0  0  0  0  0  0
  127.6054  123.3023   63.1260 H   0  0  0  0  0  0  0  0  0  0  0  0
  128.2420  123.5390   59.6540 H   0  0  0  0  0  0  0  0  0  0  0  0
  124.6480  124.0637   59.3347 H   0  0  0  0  0  0  0  0  0  0  0  0
  123.4734  123.6722   57.1505 H   0  0  0  0  0  0  0  0  0  0  0  0
  124.6921  122.5404   55.3070 H   0  0  0  0  0  0  0  0  0  0  0  0
  128.1633  122.1878   57.6806 H   0  0  0  0  0  0  0  0  0  0  0  0
  1  2  1  0
  2  3  2  0
  3  4  1  0
  4  5  1  0
  5  6  1  0
  5  7  1  0
  5  8  1  0
  4  9  2  0
  9 10  1  0
 10 11  3  0
  9 12  1  0
 12 13  1  0
 13 14  1  0
 14 15  1  0
 15 16  2  0
 15 17  1  0
 17 18  1  0
 18 19  2  0
 19 20  1  0
 20 21  2  0
 21 22  1  0
 22 23  2  0
 12 24  2  0
 24  2  1  0
 23 18  1  0
  1 25  1  0
  1 26  1  0
  1 27  1  0
  3 28  1  0
 14 29  1  0
 14 30  1  0
 17 31  1  0
 19 32  1  0
 20 33  1  0
 21 34  1  0
 23 35  1  0
M  END
>  <Binding energies>  (1) 
[-6.63]

>  <Ligand effiencies>  (1) 
[-0.2652]

>  <Interactions>  (1) 
["V-B:ILE:538:CD1:9837, V-B:PRO:540:CB:9857, V-B:PRO:540:CD:9859, V-B:LEU:363:CD1:8161, V-B:GLU:543:CD:9880, V-B:TYR:539:C:9839, V-B:PRO:540:CA:9855, H-B:TYR:539:N:9842, V-B:ILE:538:CG2:9835, V-B:TYR:539:CE2:9848, V-B:TYR:539:CD2:9846, V-B:TYR:539:CZ:9849, V-B:PRO:540:C:9853, V-B:PRO:540:N:9856, V-B:TYR:531:CE2:9765, H-A:TYR:484:OH:4348, V-A:ASP:366:CA:3210, V-A:ASP:366:CG:3213, V-B:TYR:539:CG:9844, V-B:TYR:531:CZ:9766, V-A:ILE:369:CD1:3239, V-A:ASP:366:C:3208, V-A:ASP:366:CB:3212, V-A:ILE:369:CB:3236, V-A:ILE:369:CG2:3237, V-B:TYR:539:CA:9841, H-B:ALA:541:N:9863, V-A:ARG:545:CZ:4926, V-A:ARG:545:CD:4923, V-A:ILE:369:CG1:3238, V-B:GLU:543:CG:9879"]

$$$$
2g_Grossjean_2025
     RDKit          3D

 39 40  0  0  0  0  0  0  0  0999 V2000
  130.6370  118.7670   60.3820 C   0  0  0  0  0  0  0  0  0  0  0  0
  130.6410  120.2190   60.8210 C   0  0  0  0  0  0  0  0  0  0  0  0
  131.7420  121.0440   60.6050 C   0  0  0  0  0  0  0  0  0  0  0  0
  131.7000  122.3780   61.0360 C   0  0  0  0  0  0  0  0  0  0  0  0
  132.9320  123.2730   60.7970 C   0  0  0  0  0  0  0  0  0  0  0  0
  133.9620  122.5380   60.3750 F   0  0  0  0  0  0  0  0  0  0  0  0
  132.6500  124.1930   59.8730 F   0  0  0  0  0  0  0  0  0  0  0  0
  133.3260  123.9150   61.8990 F   0  0  0  0  0  0  0  0  0  0  0  0
  130.5240  122.8480   61.6750 C   0  0  0  0  0  0  0  0  0  0  0  0
  130.4490  124.2160   62.1950 C   0  0  0  0  0  0  0  0  0  0  0  0
  130.3900  125.2970   62.6050 N   0  0  0  0  0  0  0  0  0  0  0  0
  129.4420  121.9470   61.8230 C   0  0  0  0  0  0  0  0  0  0  0  0
  127.8870  122.3760   62.5760 S   0  0  0  0  0  0  0  0  0  0  0  0
  127.2200  123.8150   61.6730 C   0  0  0  0  0  0  0  0  0  0  0  0
  127.5090  123.8160   60.1650 C   0  0  0  0  0  0  0  0  0  0  0  0
  127.4150  124.8460   59.4940 O   0  0  0  0  0  0  0  0  0  0  0  0
  127.8610  122.6270   59.6430 N   0  0  0  0  0  0  0  0  0  0  0  0
  128.1920  122.3810   58.2390 C   0  0  0  0  0  0  0  0  0  0  0  0
  127.0410  122.6280   57.2690 C   0  0  0  0  0  0  0  0  0  0  0  0
  127.2880  122.6690   55.8930 C   0  0  0  0  0  0  0  0  0  0  0  0
  126.2330  122.8570   55.0030 C   0  0  0  0  0  0  0  0  0  0  0  0
  124.9350  122.9920   55.4900 C   0  0  0  0  0  0  0  0  0  0  0  0
  124.6810  122.9390   56.8600 C   0  0  0  0  0  0  0  0  0  0  0  0
  125.7350  122.7510   57.7500 C   0  0  0  0  0  0  0  0  0  0  0  0
  129.5090  120.6540   61.4210 N   0  0  0  0  0  0  0  0  0  0  0  0
  130.6352  118.1159   61.2686 H   0  0  0  0  0  0  0  0  0  0  0  0
  129.7383  118.5686   59.7795 H   0  0  0  0  0  0  0  0  0  0  0  0
  131.5346  118.5636   59.7795 H   0  0  0  0  0  0  0  0  0  0  0  0
  132.6375  120.6525   60.1003 H   0  0  0  0  0  0  0  0  0  0  0  0
  126.1291  123.8318   61.8129 H   0  0  0  0  0  0  0  0  0  0  0  0
  127.7228  124.7017   62.0864 H   0  0  0  0  0  0  0  0  0  0  0  0
  127.9410  121.8350   60.2630 H   0  0  0  0  0  0  0  0  0  0  0  0
  129.0250  123.0432   57.9605 H   0  0  0  0  0  0  0  0  0  0  0  0
  128.4478  121.3142   58.1584 H   0  0  0  0  0  0  0  0  0  0  0  0
  128.3141  122.5529   55.5140 H   0  0  0  0  0  0  0  0  0  0  0  0
  126.4241  122.8987   53.9205 H   0  0  0  0  0  0  0  0  0  0  0  0
  124.1023  123.1419   54.7870 H   0  0  0  0  0  0  0  0  0  0  0  0
  123.6527  123.0452   57.2359 H   0  0  0  0  0  0  0  0  0  0  0  0
  125.5396  122.6993   58.8313 H   0  0  0  0  0  0  0  0  0  0  0  0
  1  2  1  0
  2  3  2  0
  3  4  1  0
  4  5  1  0
  5  6  1  0
  5  7  1  0
  5  8  1  0
  4  9  2  0
  9 10  1  0
 10 11  3  0
  9 12  1  0
 12 13  1  0
 13 14  1  0
 14 15  1  0
 15 16  2  0
 15 17  1  0
 17 18  1  0
 18 19  1  0
 19 20  2  0
 20 21  1  0
 21 22  2  0
 22 23  1  0
 23 24  2  0
 12 25  2  0
 25  2  1  0
 24 19  1  0
  1 26  1  0
  1 27  1  0
  1 28  1  0
  3 29  1  0
 14 30  1  0
 14 31  1  0
 17 32  1  0
 18 33  1  0
 18 34  1  0
 20 35  1  0
 21 36  1  0
 22 37  1  0
 23 38  1  0
 24 39  1  0
M  END
>  <Binding energies>  (1) 
[-6.59]

>  <Ligand effiencies>  (1) 
[-0.25346153846153846]

>  <Interactions>  (1) 
["V-B:TYR:539:CD1:9845, V-B:ILE:538:CD1:9837, V-B:PRO:540:CB:9857, V-B:PRO:540:CD:9859, V-B:LEU:363:CD1:8161, V-B:GLU:543:CD:9880, V-B:TYR:539:C:9839, V-B:PRO:540:CA:9855, V-B:ILE:538:CG2:9835, V-B:TYR:539:CE2:9848, V-B:TYR:539:CD2:9846, V-B:ILE:538:CA:9832, V-B:MET:535:CE:9807, V-B:ALA:541:CB:9864, V-B:TYR:539:CZ:9849, V-B:TYR:539:CE1:9847, V-B:PRO:540:N:9856, V-B:TYR:531:CE2:9765, H-A:TYR:484:OH:4348, V-B:TYR:539:CG:9844, V-A:LEU:475:CD2:4259, V-B:TYR:531:CZ:9766, V-A:ILE:369:CD1:3239, V-A:ILE:369:CB:3236, V-A:ILE:369:CG2:3237, V-B:TYR:539:CA:9841, H-B:ALA:541:N:9863, V-B:TYR:539:CB:9843, H-B:TYR:539:O:9840, V-B:PRO:540:CG:9858, V-A:ILE:369:CG1:3238"]

$$$$
2h_Grossjean_2025
     RDKit          3D

 51 52  0  0  0  0  0  0  0  0999 V2000
  126.9580  126.1480   59.8240 C   0  0  0  0  0  0  0  0  0  0  0  0
  127.5940  127.4060   59.6300 O   0  0  0  0  0  0  0  0  0  0  0  0
  128.0390  127.7540   58.3670 C   0  0  0  0  0  0  0  0  0  0  0  0
  129.3920  127.7800   57.9930 C   0  0  0  0  0  0  0  0  0  0  0  0
  129.7640  128.1330   56.6980 C   0  0  0  0  0  0  0  0  0  0  0  0
  128.7960  128.4690   55.7500 C   0  0  0  0  0  0  0  0  0  0  0  0
  129.2260  128.8330   54.3300 C   0  0  0  0  0  0  0  0  0  0  0  0
  129.9750  130.0880   54.2480 N   0  0  0  0  0  0  0  0  0  0  0  0
  129.4360  131.2900   53.9750 C   0  0  0  0  0  0  0  0  0  0  0  0
  128.2500  131.4470   53.6820 O   0  0  0  0  0  0  0  0  0  0  0  0
  130.4000  132.4820   54.0600 C   0  0  0  0  0  0  0  0  0  0  0  0
  131.6950  132.3370   55.3360 S   0  0  0  0  0  0  0  0  0  0  0  0
  130.8720  131.9240   56.8590 C   0  0  0  0  0  0  0  0  0  0  0  0
  129.5290  132.1050   56.8200 N   0  0  0  0  0  0  0  0  0  0  0  0
  128.8060  131.8400   57.9310 C   0  0  0  0  0  0  0  0  0  0  0  0
  127.3120  132.0730   57.8160 C   0  0  0  0  0  0  0  0  0  0  0  0
  129.3850  131.3820   59.1130 C   0  0  0  0  0  0  0  0  0  0  0  0
  130.7700  131.1690   59.1660 C   0  0  0  0  0  0  0  0  0  0  0  0
  131.3910  130.6530   60.4790 C   0  0  0  0  0  0  0  0  0  0  0  0
  131.3760  129.3200   60.4970 F   0  0  0  0  0  0  0  0  0  0  0  0
  132.6580  131.0420   60.6390 F   0  0  0  0  0  0  0  0  0  0  0  0
  130.6970  131.1080   61.5240 F   0  0  0  0  0  0  0  0  0  0  0  0
  131.5420  131.4360   58.0060 C   0  0  0  0  0  0  0  0  0  0  0  0
  132.9830  131.1730   57.9920 C   0  0  0  0  0  0  0  0  0  0  0  0
  134.1210  130.9630   57.9820 N   0  0  0  0  0  0  0  0  0  0  0  0
  127.4410  128.4710   56.1170 C   0  0  0  0  0  0  0  0  0  0  0  0
  126.4820  128.8030   55.1890 O   0  0  0  0  0  0  0  0  0  0  0  0
  125.7370  129.9710   55.5090 C   0  0  0  0  0  0  0  0  0  0  0  0
  127.0670  128.0950   57.4180 C   0  0  0  0  0  0  0  0  0  0  0  0
  125.7400  128.0780   57.7750 O   0  0  0  0  0  0  0  0  0  0  0  0
  125.3710  129.1020   58.6880 C   0  0  0  0  0  0  0  0  0  0  0  0
  126.8579  125.9500   60.9014 H   0  0  0  0  0  0  0  0  0  0  0  0
  125.9607  126.1660   59.3603 H   0  0  0  0  0  0  0  0  0  0  0  0
  127.5637  125.3555   59.3603 H   0  0  0  0  0  0  0  0  0  0  0  0
  130.1659  127.5190   58.7299 H   0  0  0  0  0  0  0  0  0  0  0  0
  130.8283  128.1471   56.4203 H   0  0  0  0  0  0  0  0  0  0  0  0
  129.8605  128.0233   53.9405 H   0  0  0  0  0  0  0  0  0  0  0  0
  128.3078  128.9662   53.7391 H   0  0  0  0  0  0  0  0  0  0  0  0
  130.9490  130.0430   54.5110 H   0  0  0  0  0  0  0  0  0  0  0  0
  130.8941  132.5915   53.0833 H   0  0  0  0  0  0  0  0  0  0  0  0
  129.7885  133.3523   54.3403 H   0  0  0  0  0  0  0  0  0  0  0  0
  126.8731  132.1415   58.8223 H   0  0  0  0  0  0  0  0  0  0  0  0
  127.1280  133.0107   57.2711 H   0  0  0  0  0  0  0  0  0  0  0  0
  126.8512  131.2359   57.2711 H   0  0  0  0  0  0  0  0  0  0  0  0
  128.7604  131.1891   59.9976 H   0  0  0  0  0  0  0  0  0  0  0  0
  125.6704  130.0754   56.6020 H   0  0  0  0  0  0  0  0  0  0  0  0
  126.2393  130.8536   55.0863 H   0  0  0  0  0  0  0  0  0  0  0  0
  124.7249  129.8876   55.0863 H   0  0  0  0  0  0  0  0  0  0  0  0
  125.5017  128.7393   59.7182 H   0  0  0  0  0  0  0  0  0  0  0  0
  126.0077  129.9843   58.5264 H   0  0  0  0  0  0  0  0  0  0  0  0
  124.3178  129.3753   58.5264 H   0  0  0  0  0  0  0  0  0  0  0  0
  1  2  1  0
  2  3  1  0
  3  4  2  0
  4  5  1  0
  5  6  2  0
  6  7  1  0
  7  8  1  0
  8  9  1  0
  9 10  2  0
  9 11  1  0
 11 12  1  0
 12 13  1  0
 13 14  2  0
 14 15  1  0
 15 16  1  0
 15 17  2  0
 17 18  1  0
 18 19  1  0
 19 20  1  0
 19 21  1  0
 19 22  1  0
 18 23  2  0
 23 24  1  0
 24 25  3  0
  6 26  1  0
 26 27  1  0
 27 28  1  0
 26 29  2  0
 29 30  1  0
 30 31  1  0
 29  3  1  0
 23 13  1  0
  1 32  1  0
  1 33  1  0
  1 34  1  0
  4 35  1  0
  5 36  1  0
  7 37  1  0
  7 38  1  0
  8 39  1  0
 11 40  1  0
 11 41  1  0
 16 42  1  0
 16 43  1  0
 16 44  1  0
 17 45  1  0
 28 46  1  0
 28 47  1  0
 28 48  1  0
 31 49  1  0
 31 50  1  0
 31 51  1  0
M  END
>  <Binding energies>  (1) 
[-5.9]

>  <Ligand effiencies>  (1) 
[-0.184375]

>  <Interactions>  (1) 
["V-B:MET:535:CE:9807, V-A:ASP:366:CG:3213, V-A:TYR:539:CE1:4875, V-A:TYR:531:CZ:4794, V-B:TYR:531:CE1:9764, V-B:ASP:366:CG:8185, V-A:TYR:539:CZ:4877, V-A:PRO:540:CA:4883, V-A:PRO:540:N:4884, V-A:PRO:540:CB:4885, V-B:ASP:366:CB:8184, V-A:MET:535:CE:4835, H-B:LYS:534:NZ:9795, V-A:LEU:363:CD1:3189, V-A:GLU:543:CD:4908, V-A:GLU:543:CG:4907, H-B:TYR:531:OH:9767, V-A:ILE:538:CA:4860, V-A:ILE:538:CB:4862, V-A:ILE:538:CG2:4863, H-A:TYR:531:OH:4795, V-A:TYR:539:CG:4872, V-A:TYR:539:CD1:4873, H-A:LEU:363:N:3186"]

$$$$
2i_Grossjean_2025
     RDKit          3D

 32 33  0  0  0  0  0  0  0  0999 V2000
  130.1990  126.4670   63.2390 C   0  0  0  0  0  0  0  0  0  0  0  0
  130.6960  125.1940   62.5790 C   0  0  0  0  0  0  0  0  0  0  0  0
  132.0320  125.0320   62.2210 C   0  0  0  0  0  0  0  0  0  0  0  0
  132.4420  123.8350   61.6160 C   0  0  0  0  0  0  0  0  0  0  0  0
  133.9240  123.6720   61.2260 C   0  0  0  0  0  0  0  0  0  0  0  0
  134.0690  123.8300   59.9090 F   0  0  0  0  0  0  0  0  0  0  0  0
  134.6660  124.5830   61.8550 F   0  0  0  0  0  0  0  0  0  0  0  0
  134.4120  122.4700   61.5410 F   0  0  0  0  0  0  0  0  0  0  0  0
  131.4740  122.8240   61.3880 C   0  0  0  0  0  0  0  0  0  0  0  0
  131.8490  121.5530   60.7600 C   0  0  0  0  0  0  0  0  0  0  0  0
  132.1440  120.5490   60.2650 N   0  0  0  0  0  0  0  0  0  0  0  0
  130.1390  123.0740   61.7810 C   0  0  0  0  0  0  0  0  0  0  0  0
  128.8340  121.8800   61.5370 S   0  0  0  0  0  0  0  0  0  0  0  0
  127.2590  122.7800   61.4210 C   0  0  0  0  0  0  0  0  0  0  0  0
  126.9600  123.2440   59.9940 C   0  0  0  0  0  0  0  0  0  0  0  0
  126.3050  124.2740   59.8240 O   0  0  0  0  0  0  0  0  0  0  0  0
  127.4300  122.4510   59.0070 N   0  0  0  0  0  0  0  0  0  0  0  0
  127.2760  122.6470   57.6450 C   0  0  0  0  0  0  0  0  0  0  0  0
  128.0070  123.4520   56.7590 C   0  0  0  0  0  0  0  0  0  0  0  0
  127.4140  123.2530   55.5340 C   0  0  0  0  0  0  0  0  0  0  0  0
  126.3930  122.3740   55.6740 O   0  0  0  0  0  0  0  0  0  0  0  0
  126.3230  121.9950   57.0160 N   0  0  0  0  0  0  0  0  0  0  0  0
  129.7630  124.2400   62.3670 N   0  0  0  0  0  0  0  0  0  0  0  0
  130.2430  126.3544   64.3323 H   0  0  0  0  0  0  0  0  0  0  0  0
  130.8335  127.3113   62.9315 H   0  0  0  0  0  0  0  0  0  0  0  0
  129.1603  126.6580   62.9315 H   0  0  0  0  0  0  0  0  0  0  0  0
  132.7590  125.8354   62.4110 H   0  0  0  0  0  0  0  0  0  0  0  0
  126.4472  122.1171   61.7550 H   0  0  0  0  0  0  0  0  0  0  0  0
  127.3344  123.6742   62.0572 H   0  0  0  0  0  0  0  0  0  0  0  0
  127.9200  121.6100   59.2750 H   0  0  0  0  0  0  0  0  0  0  0  0
  128.8651  124.0995   56.9923 H   0  0  0  0  0  0  0  0  0  0  0  0
  127.7199  123.7310   54.5917 H   0  0  0  0  0  0  0  0  0  0  0  0
  1  2  1  0
  2  3  2  0
  3  4  1  0
  4  5  1  0
  5  6  1  0
  5  7  1  0
  5  8  1  0
  4  9  2  0
  9 10  1  0
 10 11  3  0
  9 12  1  0
 12 13  1  0
 13 14  1  0
 14 15  1  0
 15 16  2  0
 15 17  1  0
 17 18  1  0
 18 19  1  0
 19 20  2  0
 20 21  1  0
 21 22  1  0
 12 23  2  0
 23  2  1  0
 22 18  2  0
  1 24  1  0
  1 25  1  0
  1 26  1  0
  3 27  1  0
 14 28  1  0
 14 29  1  0
 17 30  1  0
 19 31  1  0
 20 32  1  0
M  END
>  <Binding energies>  (1) 
[-6.67]

>  <Ligand effiencies>  (1) 
[-0.27791666666666665]

>  <Interactions>  (1) 
["V-B:TYR:539:CD1:9845, V-B:PRO:540:CB:9857, V-B:TYR:539:C:9839, V-B:PRO:540:CA:9855, H-B:TYR:539:N:9842, V-B:TYR:539:CE2:9848, V-B:TYR:539:CD2:9846, V-B:MET:535:CE:9807, V-B:TYR:539:CZ:9849, V-B:PRO:540:C:9853, V-B:TYR:539:CE1:9847, V-B:PRO:540:N:9856, V-A:GLY:453:C:4042, H-A:TYR:484:OH:4348, V-A:ASP:366:CA:3210, V-A:ASP:366:CG:3213, V-A:LEU:475:CD2:4259, V-A:ILE:369:CD1:3239, V-A:GLY:454:CA:4049, V-A:ILE:369:CB:3236, V-A:ILE:369:CG2:3237, V-A:GLU:543:CD:4908, V-A:ARG:545:CZ:4926, H-B:TYR:539:O:9840, V-A:ILE:369:CG1:3238, V-A:GLY:453:CA:4044"]

$$$$
2j_Grossjean_2025
     RDKit          3D

 32 33  0  0  0  0  0  0  0  0999 V2000
  132.9630  130.6230   58.0910 C   0  0  0  0  0  0  0  0  0  0  0  0
  131.6770  130.2830   57.3610 C   0  0  0  0  0  0  0  0  0  0  0  0
  130.7060  131.2480   57.1050 C   0  0  0  0  0  0  0  0  0  0  0  0
  129.5350  130.8850   56.4230 C   0  0  0  0  0  0  0  0  0  0  0  0
  128.4720  131.9660   56.1490 C   0  0  0  0  0  0  0  0  0  0  0  0
  128.2090  132.0250   54.8430 F   0  0  0  0  0  0  0  0  0  0  0  0
  127.3470  131.6770   56.8040 F   0  0  0  0  0  0  0  0  0  0  0  0
  128.8610  133.1830   56.5360 F   0  0  0  0  0  0  0  0  0  0  0  0
  129.3800  129.5370   56.0160 C   0  0  0  0  0  0  0  0  0  0  0  0
  128.1760  129.1010   55.3010 C   0  0  0  0  0  0  0  0  0  0  0  0
  127.2260  128.7590   54.7350 N   0  0  0  0  0  0  0  0  0  0  0  0
  130.4170  128.6220   56.3180 C   0  0  0  0  0  0  0  0  0  0  0  0
  130.3290  126.8990   55.8520 S   0  0  0  0  0  0  0  0  0  0  0  0
  129.6060  125.9630   57.2420 C   0  0  0  0  0  0  0  0  0  0  0  0
  128.1670  125.4770   57.0140 C   0  0  0  0  0  0  0  0  0  0  0  0
  127.2450  126.2840   56.8760 O   0  0  0  0  0  0  0  0  0  0  0  0
  128.0200  124.1340   56.9930 N   0  0  0  0  0  0  0  0  0  0  0  0
  126.8370  123.4320   56.8040 C   0  0  0  0  0  0  0  0  0  0  0  0
  126.6020  122.4620   55.9470 N   0  0  0  0  0  0  0  0  0  0  0  0
  125.3630  122.0190   56.0410 C   0  0  0  0  0  0  0  0  0  0  0  0
  124.5600  122.6370   56.9950 C   0  0  0  0  0  0  0  0  0  0  0  0
  125.4890  123.8630   57.8070 S   0  0  0  0  0  0  0  0  0  0  0  0
  131.5440  128.9930   56.9770 N   0  0  0  0  0  0  0  0  0  0  0  0
  132.7914  130.5776   59.1766 H   0  0  0  0  0  0  0  0  0  0  0  0
  133.7445  129.9006   57.8128 H   0  0  0  0  0  0  0  0  0  0  0  0
  133.2854  131.6372   57.8128 H   0  0  0  0  0  0  0  0  0  0  0  0
  130.8560  132.2866   57.4349 H   0  0  0  0  0  0  0  0  0  0  0  0
  130.2389  125.0826   57.4273 H   0  0  0  0  0  0  0  0  0  0  0  0
  129.5663  126.6571   58.0944 H   0  0  0  0  0  0  0  0  0  0  0  0
  128.8470  123.5710   57.1280 H   0  0  0  0  0  0  0  0  0  0  0  0
  124.9859  121.2072   55.4016 H   0  0  0  0  0  0  0  0  0  0  0  0
  123.5082  122.3901   57.2020 H   0  0  0  0  0  0  0  0  0  0  0  0
  1  2  1  0
  2  3  2  0
  3  4  1  0
  4  5  1  0
  5  6  1  0
  5  7  1  0
  5  8  1  0
  4  9  2  0
  9 10  1  0
 10 11  3  0
  9 12  1  0
 12 13  1  0
 13 14  1  0
 14 15  1  0
 15 16  2  0
 15 17  1  0
 17 18  1  0
 18 19  2  0
 19 20  1  0
 20 21  2  0
 21 22  1  0
 12 23  2  0
 23  2  1  0
 22 18  1  0
  1 24  1  0
  1 25  1  0
  1 26  1  0
  3 27  1  0
 14 28  1  0
 14 29  1  0
 17 30  1  0
 20 31  1  0
 21 32  1  0
M  END
>  <Binding energies>  (1) 
[-6.06]

>  <Ligand effiencies>  (1) 
[-0.2525]

>  <Interactions>  (1) 
["V-B:ILE:538:CD1:9837, V-B:PRO:540:CB:9857, V-B:PRO:540:CD:9859, V-B:LEU:363:CD1:8161, V-B:PRO:540:CA:9855, H-B:TYR:539:N:9842, V-B:ILE:538:CG2:9835, V-B:ILE:538:CA:9832, V-B:MET:535:CE:9807, V-B:TYR:539:CZ:9849, V-B:PRO:540:N:9856, V-A:ASP:366:CG:3213, V-A:ASP:366:CB:3212, V-A:TYR:539:CE1:4875, V-A:TYR:539:CZ:4877, V-A:TYR:539:C:4867, V-A:PRO:540:N:4884, V-A:PRO:540:CB:4885, V-A:TYR:539:CE2:4876, H-B:LYS:534:NZ:9795, V-B:ILE:538:C:9830, V-B:ILE:538:CB:9834, H-B:TYR:539:OH:9850, H-B:TYR:531:OH:9767, H-A:TYR:531:OH:4795, V-B:PRO:540:CG:9858, V-A:TYR:539:CD2:4874, V-A:TYR:539:CA:4869, V-A:TYR:539:CG:4872, V-A:TYR:539:CD1:4873, V-A:TYR:539:CB:4871"]

$$$$
2k_Grossjean_2025
     RDKit          3D

 50 50  0  0  0  0  0  0  0  0999 V2000
  132.2710  131.0330   61.0640 C   0  0  0  0  0  0  0  0  0  0  0  0
  131.2250  131.9760   60.8800 O   0  0  0  0  0  0  0  0  0  0  0  0
  130.3390  131.6380   59.8200 C   0  0  0  0  0  0  0  0  0  0  0  0
  131.1100  130.9080   58.7130 C   0  0  0  0  0  0  0  0  0  0  0  0
  130.8200  131.5220   57.4650 O   0  0  0  0  0  0  0  0  0  0  0  0
  131.9700  131.9210   56.7290 C   0  0  0  0  0  0  0  0  0  0  0  0
  131.5110  132.4700   55.3720 C   0  0  0  0  0  0  0  0  0  0  0  0
  130.1590  132.8810   55.5040 O   0  0  0  0  0  0  0  0  0  0  0  0
  129.4070  132.8820   54.3000 C   0  0  0  0  0  0  0  0  0  0  0  0
  128.4100  131.7090   54.3320 C   0  0  0  0  0  0  0  0  0  0  0  0
  128.8260  130.6290   55.2300 N   0  0  0  0  0  0  0  0  0  0  0  0
  128.1930  129.4500   55.3830 C   0  0  0  0  0  0  0  0  0  0  0  0
  127.1870  129.1330   54.7460 O   0  0  0  0  0  0  0  0  0  0  0  0
  128.7920  128.5040   56.4340 C   0  0  0  0  0  0  0  0  0  0  0  0
  130.6140  128.5340   56.5660 S   0  0  0  0  0  0  0  0  0  0  0  0
  131.1390  127.3640   57.8120 C   0  0  0  0  0  0  0  0  0  0  0  0
  130.6090  127.5440   59.0490 N   0  0  0  0  0  0  0  0  0  0  0  0
  130.9650  126.6980   60.0410 C   0  0  0  0  0  0  0  0  0  0  0  0
  130.3400  126.9720   61.3950 C   0  0  0  0  0  0  0  0  0  0  0  0
  131.8460  125.6390   59.8450 C   0  0  0  0  0  0  0  0  0  0  0  0
  132.4000  125.4280   58.5730 C   0  0  0  0  0  0  0  0  0  0  0  0
  133.3700  124.2480   58.3720 C   0  0  0  0  0  0  0  0  0  0  0  0
  133.6270  124.0040   57.0860 F   0  0  0  0  0  0  0  0  0  0  0  0
  134.5330  124.5060   58.9710 F   0  0  0  0  0  0  0  0  0  0  0  0
  132.8510  123.1370   58.8960 F   0  0  0  0  0  0  0  0  0  0  0  0
  132.0410  126.3130   57.5240 C   0  0  0  0  0  0  0  0  0  0  0  0
  132.5920  126.1430   56.1760 C   0  0  0  0  0  0  0  0  0  0  0  0
  133.0270  126.0070   55.1110 N   0  0  0  0  0  0  0  0  0  0  0  0
  132.4412  130.8795   62.1399 H   0  0  0  0  0  0  0  0  0  0  0  0
  131.9895  130.0775   60.5973 H   0  0  0  0  0  0  0  0  0  0  0  0
  133.1923  131.4116   60.5973 H   0  0  0  0  0  0  0  0  0  0  0  0
  129.5430  130.9830   60.2039 H   0  0  0  0  0  0  0  0  0  0  0  0
  129.8958  132.5572   59.4092 H   0  0  0  0  0  0  0  0  0  0  0  0
  132.1899  130.9708   58.9128 H   0  0  0  0  0  0  0  0  0  0  0  0
  130.8087  129.8504   58.6857 H   0  0  0  0  0  0  0  0  0  0  0  0
  132.5119  132.7026   57.2817 H   0  0  0  0  0  0  0  0  0  0  0  0
  132.6407  131.0617   56.5814 H   0  0  0  0  0  0  0  0  0  0  0  0
  132.1364  133.3281   55.0848 H   0  0  0  0  0  0  0  0  0  0  0  0
  131.6031  131.6974   54.5944 H   0  0  0  0  0  0  0  0  0  0  0  0
  128.8578  133.8307   54.2088 H   0  0  0  0  0  0  0  0  0  0  0  0
  130.0829  132.7725   53.4391 H   0  0  0  0  0  0  0  0  0  0  0  0
  127.4335  132.0879   54.6681 H   0  0  0  0  0  0  0  0  0  0  0  0
  128.3604  131.2913   53.3156 H   0  0  0  0  0  0  0  0  0  0  0  0
  129.6540  130.8030   55.7810 H   0  0  0  0  0  0  0  0  0  0  0  0
  128.3760  128.7787   57.4145 H   0  0  0  0  0  0  0  0  0  0  0  0
  128.5278  127.4860   56.1118 H   0  0  0  0  0  0  0  0  0  0  0  0
  131.0370  126.6664   62.1892 H   0  0  0  0  0  0  0  0  0  0  0  0
  130.1254  128.0468   61.4890 H   0  0  0  0  0  0  0  0  0  0  0  0
  129.4042  126.4016   61.4890 H   0  0  0  0  0  0  0  0  0  0  0  0
  132.1062  124.9725   60.6805 H   0  0  0  0  0  0  0  0  0  0  0  0
  1  2  1  0
  2  3  1  0
  3  4  1  0
  4  5  1  0
  5  6  1  0
  6  7  1  0
  7  8  1  0
  8  9  1  0
  9 10  1  0
 10 11  1  0
 11 12  1  0
 12 13  2  0
 12 14  1  0
 14 15  1  0
 15 16  1  0
 16 17  2  0
 17 18  1  0
 18 19  1  0
 18 20  2  0
 20 21  1  0
 21 22  1  0
 22 23  1  0
 22 24  1  0
 22 25  1  0
 21 26  2  0
 26 27  1  0
 27 28  3  0
 26 16  1  0
  1 29  1  0
  1 30  1  0
  1 31  1  0
  3 32  1  0
  3 33  1  0
  4 34  1  0
  4 35  1  0
  6 36  1  0
  6 37  1  0
  7 38  1  0
  7 39  1  0
  9 40  1  0
  9 41  1  0
 10 42  1  0
 10 43  1  0
 11 44  1  0
 14 45  1  0
 14 46  1  0
 19 47  1  0
 19 48  1  0
 19 49  1  0
 20 50  1  0
M  END
>  <Binding energies>  (1) 
[-5.62]

>  <Ligand effiencies>  (1) 
[-0.19379310344827586]

>  <Interactions>  (1) 
["V-B:TYR:539:CE2:9848, V-B:TYR:539:CD2:9846, V-B:TYR:539:CZ:9849, V-A:ASP:366:CA:3210, V-A:ASP:366:CG:3213, V-A:ILE:369:CD1:3239, V-A:ASP:366:C:3208, V-A:ASP:366:CB:3212, V-A:ILE:369:CB:3236, V-A:ILE:369:CG2:3237, H-A:TYR:539:N:4870, V-A:PRO:540:CA:4883, V-A:PRO:540:N:4884, V-A:PRO:540:CB:4885, V-A:TYR:539:CE2:4876, H-B:LYS:534:NZ:9795, V-A:LEU:363:CD1:3189, V-A:TYR:531:CE1:4792, H-A:ALA:541:N:4891, V-A:PRO:540:CD:4887, H-B:TYR:539:OH:9850, V-A:ILE:538:CA:4860, V-A:ILE:538:CB:4862, V-A:ILE:538:CG2:4863, H-A:TYR:531:OH:4795, V-A:ILE:538:C:4858, V-A:TYR:539:CD2:4874, V-A:ILE:369:CG1:3238"]

$$$$
3aa_Grossjean_2025
     RDKit          3D

 52 54  0  0  0  0  0  0  0  0999 V2000
  128.9990  132.5060   58.2380 C   0  0  0  0  0  0  0  0  0  0  0  0
  128.3740  132.3660   56.8460 C   0  0  0  0  0  0  0  0  0  0  0  0
  129.2040  133.0080   55.8860 O   0  0  0  0  0  0  0  0  0  0  0  0
  130.5330  132.7380   55.8200 C   0  0  0  0  0  0  0  0  0  0  0  0
  131.3750  133.5550   55.4350 O   0  0  0  0  0  0  0  0  0  0  0  0
  130.8770  131.3390   56.2450 C   0  0  0  0  0  0  0  0  0  0  0  0
  130.1450  130.2270   55.8030 C   0  0  0  0  0  0  0  0  0  0  0  0
  130.4930  128.9430   56.2130 C   0  0  0  0  0  0  0  0  0  0  0  0
  131.5800  128.7430   57.0650 C   0  0  0  0  0  0  0  0  0  0  0  0
  131.8500  127.4050   57.4160 N   0  0  0  0  0  0  0  0  0  0  0  0
  132.1440  126.3500   56.6240 C   0  0  0  0  0  0  0  0  0  0  0  0
  132.2090  126.3760   55.3940 O   0  0  0  0  0  0  0  0  0  0  0  0
  132.4000  125.0300   57.3530 C   0  0  0  0  0  0  0  0  0  0  0  0
  132.1210  125.1830   59.1430 S   0  0  0  0  0  0  0  0  0  0  0  0
  130.8460  124.0180   59.5720 C   0  0  0  0  0  0  0  0  0  0  0  0
  129.8200  123.9860   58.6890 N   0  0  0  0  0  0  0  0  0  0  0  0
  128.7780  123.1410   58.8980 C   0  0  0  0  0  0  0  0  0  0  0  0
  127.6890  123.1530   57.8680 C   0  0  0  0  0  0  0  0  0  0  0  0
  127.9980  123.0910   56.5000 C   0  0  0  0  0  0  0  0  0  0  0  0
  126.9920  123.1010   55.5370 C   0  0  0  0  0  0  0  0  0  0  0  0
  125.6600  123.1740   55.9310 C   0  0  0  0  0  0  0  0  0  0  0  0
  125.3270  123.2340   57.2800 C   0  0  0  0  0  0  0  0  0  0  0  0
  126.3350  123.2210   58.2410 C   0  0  0  0  0  0  0  0  0  0  0  0
  128.7510  122.2950   60.0110 C   0  0  0  0  0  0  0  0  0  0  0  0
  129.7940  122.3230   60.9500 C   0  0  0  0  0  0  0  0  0  0  0  0
  129.7220  121.3850   62.1690 C   0  0  0  0  0  0  0  0  0  0  0  0
  130.9270  121.0500   62.6360 F   0  0  0  0  0  0  0  0  0  0  0  0
  129.0590  121.9730   63.1650 F   0  0  0  0  0  0  0  0  0  0  0  0
  129.0920  120.2570   61.8380 F   0  0  0  0  0  0  0  0  0  0  0  0
  130.8710  123.2180   60.7360 C   0  0  0  0  0  0  0  0  0  0  0  0
  131.9590  123.3320   61.7120 C   0  0  0  0  0  0  0  0  0  0  0  0
  132.8170  123.4220   62.4830 N   0  0  0  0  0  0  0  0  0  0  0  0
  132.3090  129.8510   57.5220 C   0  0  0  0  0  0  0  0  0  0  0  0
  131.9570  131.1340   57.1130 C   0  0  0  0  0  0  0  0  0  0  0  0
  128.2292  132.3336   59.0046 H   0  0  0  0  0  0  0  0  0  0  0  0
  129.8046  131.7660   58.3543 H   0  0  0  0  0  0  0  0  0  0  0  0
  129.4119  133.5189   58.3543 H   0  0  0  0  0  0  0  0  0  0  0  0
  128.2779  131.2998   56.5929 H   0  0  0  0  0  0  0  0  0  0  0  0
  127.3791  132.8353   56.8423 H   0  0  0  0  0  0  0  0  0  0  0  0
  129.2892  130.3708   55.1270 H   0  0  0  0  0  0  0  0  0  0  0  0
  129.9072  128.0802   55.8630 H   0  0  0  0  0  0  0  0  0  0  0  0
  131.7610  127.2090   58.4020 H   0  0  0  0  0  0  0  0  0  0  0  0
  131.7211  124.2636   56.9509 H   0  0  0  0  0  0  0  0  0  0  0  0
  133.4515  124.7493   57.1933 H   0  0  0  0  0  0  0  0  0  0  0  0
  129.0501  123.0337   56.1841 H   0  0  0  0  0  0  0  0  0  0  0  0
  127.2498  123.0514   54.4688 H   0  0  0  0  0  0  0  0  0  0  0  0
  124.8650  123.1843   55.1708 H   0  0  0  0  0  0  0  0  0  0  0  0
  124.2722  123.2915   57.5866 H   0  0  0  0  0  0  0  0  0  0  0  0
  126.0680  123.2646   59.3072 H   0  0  0  0  0  0  0  0  0  0  0  0
  127.9073  121.6033   60.1516 H   0  0  0  0  0  0  0  0  0  0  0  0
  133.1596  129.7057   58.2042 H   0  0  0  0  0  0  0  0  0  0  0  0
  132.5340  131.9974   57.4758 H   0  0  0  0  0  0  0  0  0  0  0  0
  1  2  1  0
  2  3  1  0
  3  4  1  0
  4  5  2  0
  4  6  1  0
  6  7  2  0
  7  8  1  0
  8  9  2  0
  9 10  1  0
 10 11  1  0
 11 12  2  0
 11 13  1  0
 13 14  1  0
 14 15  1  0
 15 16  2  0
 16 17  1  0
 17 18  1  0
 18 19  2  0
 19 20  1  0
 20 21  2  0
 21 22  1  0
 22 23  2  0
 17 24  2  0
 24 25  1  0
 25 26  1  0
 26 27  1  0
 26 28  1  0
 26 29  1  0
 25 30  2  0
 30 31  1  0
 31 32  3  0
  9 33  1  0
 33 34  2  0
 34  6  1  0
 30 15  1  0
 23 18  1  0
  1 35  1  0
  1 36  1  0
  1 37  1  0
  2 38  1  0
  2 39  1  0
  7 40  1  0
  8 41  1  0
 10 42  1  0
 13 43  1  0
 13 44  1  0
 19 45  1  0
 20 46  1  0
 21 47  1  0
 22 48  1  0
 23 49  1  0
 24 50  1  0
 33 51  1  0
 34 52  1  0
M  END
>  <Binding energies>  (1) 
[-9.04]

>  <Ligand effiencies>  (1) 
[-0.2582857142857143]

>  <Interactions>  (1) 
["V-B:TYR:539:CD1:9845, V-B:ILE:538:CD1:9837, V-B:PRO:540:CB:9857, V-B:PRO:540:CD:9859, V-B:TYR:539:C:9839, V-B:PRO:540:CA:9855, V-B:TYR:539:CE2:9848, V-B:TYR:539:CD2:9846, V-B:MET:535:CE:9807, V-B:ALA:541:CB:9864, V-B:TYR:539:CZ:9849, V-B:PRO:540:C:9853, V-B:TYR:539:CE1:9847, V-B:PRO:540:N:9856, V-B:TYR:531:CE2:9765, V-A:LEU:475:CD1:4258, H-A:TYR:484:OH:4348, V-A:ASP:366:CG:3213, V-B:TYR:539:CG:9844, V-A:LEU:475:CD2:4259, V-B:TYR:531:CZ:9766, V-A:LEU:475:CG:4257, V-A:ASP:366:CB:3212, V-A:TYR:539:CE1:4875, H-A:TYR:539:N:4870, V-A:TYR:539:CZ:4877, V-A:PRO:540:CA:4883, V-A:TYR:539:C:4867, V-A:PRO:540:N:4884, V-A:PRO:540:CB:4885, V-A:TYR:539:CE2:4876, H-A:GLY:454:N:4050, H-A:ASP:366:OD1:3214, V-A:PRO:540:CD:4887, H-B:TYR:539:OH:9850, V-A:ILE:538:CB:4862, V-A:TYR:484:CZ:4347, H-A:TYR:531:OH:4795, V-A:TYR:539:CD2:4874, V-A:TYR:539:CA:4869, V-A:TYR:539:CG:4872, V-A:TYR:539:CD1:4873, V-B:ALA:541:CA:9862, V-B:GLU:543:CG:9879, V-A:TYR:484:CE1:4345"]

$$$$
3ab_Grossjean_2025
     RDKit          3D

 49 51  0  0  0  0  0  0  0  0999 V2000
  129.6500  132.4220   54.4470 C   0  0  0  0  0  0  0  0  0  0  0  0
  130.2480  133.1810   55.4880 O   0  0  0  0  0  0  0  0  0  0  0  0
  131.3660  132.7400   56.1200 C   0  0  0  0  0  0  0  0  0  0  0  0
  132.5060  133.1130   55.8260 O   0  0  0  0  0  0  0  0  0  0  0  0
  131.0790  131.7550   57.2160 C   0  0  0  0  0  0  0  0  0  0  0  0
  131.8430  130.5910   57.3880 C   0  0  0  0  0  0  0  0  0  0  0  0
  131.5540  129.6950   58.4140 C   0  0  0  0  0  0  0  0  0  0  0  0
  130.4890  129.9510   59.2910 C   0  0  0  0  0  0  0  0  0  0  0  0
  130.1110  129.1210   60.3650 N   0  0  0  0  0  0  0  0  0  0  0  0
  129.0590  128.2850   60.4850 C   0  0  0  0  0  0  0  0  0  0  0  0
  128.1890  128.1030   59.6330 O   0  0  0  0  0  0  0  0  0  0  0  0
  128.9760  127.5210   61.8080 C   0  0  0  0  0  0  0  0  0  0  0  0
  130.5420  126.6940   62.2200 S   0  0  0  0  0  0  0  0  0  0  0  0
  130.5530  125.1230   61.3840 C   0  0  0  0  0  0  0  0  0  0  0  0
  129.4270  124.8800   60.6720 N   0  0  0  0  0  0  0  0  0  0  0  0
  129.3020  123.7190   59.9780 C   0  0  0  0  0  0  0  0  0  0  0  0
  128.0260  123.5290   59.2140 C   0  0  0  0  0  0  0  0  0  0  0  0
  128.0250  122.8900   57.9630 C   0  0  0  0  0  0  0  0  0  0  0  0
  126.8440  122.7100   57.2490 C   0  0  0  0  0  0  0  0  0  0  0  0
  125.6410  123.1700   57.7780 C   0  0  0  0  0  0  0  0  0  0  0  0
  125.6140  123.8100   59.0120 C   0  0  0  0  0  0  0  0  0  0  0  0
  126.7980  123.9880   59.7220 C   0  0  0  0  0  0  0  0  0  0  0  0
  130.3160  122.7560   60.0070 C   0  0  0  0  0  0  0  0  0  0  0  0
  131.4840  122.9750   60.7520 C   0  0  0  0  0  0  0  0  0  0  0  0
  132.5740  121.8860   60.7610 C   0  0  0  0  0  0  0  0  0  0  0  0
  133.0300  121.6220   61.9880 F   0  0  0  0  0  0  0  0  0  0  0  0
  132.0920  120.7480   60.2610 F   0  0  0  0  0  0  0  0  0  0  0  0
  133.6130  122.2770   60.0210 F   0  0  0  0  0  0  0  0  0  0  0  0
  131.6100  124.1890   61.4720 C   0  0  0  0  0  0  0  0  0  0  0  0
  132.7830  124.4440   62.3120 C   0  0  0  0  0  0  0  0  0  0  0  0
  133.7110  124.6420   62.9740 N   0  0  0  0  0  0  0  0  0  0  0  0
  129.7310  131.1120   59.1270 C   0  0  0  0  0  0  0  0  0  0  0  0
  130.0210  132.0040   58.1000 C   0  0  0  0  0  0  0  0  0  0  0  0
  129.0252  131.6290   54.8838 H   0  0  0  0  0  0  0  0  0  0  0  0
  129.0253  133.0804   53.8255 H   0  0  0  0  0  0  0  0  0  0  0  0
  130.4363  131.9688   53.8255 H   0  0  0  0  0  0  0  0  0  0  0  0
  132.6797  130.3838   56.7047 H   0  0  0  0  0  0  0  0  0  0  0  0
  132.1610  128.7859   58.5371 H   0  0  0  0  0  0  0  0  0  0  0  0
  130.7110  129.1990   61.1730 H   0  0  0  0  0  0  0  0  0  0  0  0
  128.7270  128.2296   62.6117 H   0  0  0  0  0  0  0  0  0  0  0  0
  128.2014  126.7469   61.7040 H   0  0  0  0  0  0  0  0  0  0  0  0
  128.9732  122.5259   57.5408 H   0  0  0  0  0  0  0  0  0  0  0  0
  126.8609  122.2066   56.2711 H   0  0  0  0  0  0  0  0  0  0  0  0
  124.7063  123.0262   57.2162 H   0  0  0  0  0  0  0  0  0  0  0  0
  124.6617  124.1739   59.4252 H   0  0  0  0  0  0  0  0  0  0  0  0
  126.7724  124.4964   60.6971 H   0  0  0  0  0  0  0  0  0  0  0  0
  130.1965  121.8201   59.4414 H   0  0  0  0  0  0  0  0  0  0  0  0
  128.8988  131.3227   59.8147 H   0  0  0  0  0  0  0  0  0  0  0  0
  129.4139  132.9135   57.9807 H   0  0  0  0  0  0  0  0  0  0  0  0
  1  2  1  0
  2  3  1  0
  3  4  2  0
  3  5  1  0
  5  6  2  0
  6  7  1  0
  7  8  2  0
  8  9  1  0
  9 10  1  0
 10 11  2  0
 10 12  1  0
 12 13  1  0
 13 14  1  0
 14 15  2  0
 15 16  1  0
 16 17  1  0
 17 18  2  0
 18 19  1  0
 19 20  2  0
 20 21  1  0
 21 22  2  0
 16 23  2  0
 23 24  1  0
 24 25  1  0
 25 26  1  0
 25 27  1  0
 25 28  1  0
 24 29  2  0
 29 30  1  0
 30 31  3  0
  8 32  1  0
 32 33  2  0
 33  5  1  0
 29 14  1  0
 22 17  1  0
  1 34  1  0
  1 35  1  0
  1 36  1  0
  6 37  1  0
  7 38  1  0
  9 39  1  0
 12 40  1  0
 12 41  1  0
 18 42  1  0
 19 43  1  0
 20 44  1  0
 21 45  1  0
 22 46  1  0
 23 47  1  0
 32 48  1  0
 33 49  1  0
M  END
>  <Binding energies>  (1) 
[-8.04]

>  <Ligand effiencies>  (1) 
[-0.2364705882352941]

>  <Interactions>  (1) 
["V-B:PRO:540:CB:9857, V-B:PRO:540:CD:9859, V-B:TYR:539:C:9839, V-B:PRO:540:CA:9855, V-B:TYR:539:CE2:9848, V-B:TYR:539:CD2:9846, V-B:TYR:539:CZ:9849, V-B:PRO:540:N:9856, H-A:TYR:484:OH:4348, V-A:ASP:366:CG:3213, V-B:TYR:539:CG:9844, V-A:LEU:475:CD2:4259, V-A:ILE:369:CD1:3239, V-A:GLY:454:CA:4049, V-A:ILE:369:CB:3236, V-A:ILE:369:CG2:3237, H-A:TYR:539:N:4870, V-A:PRO:540:CA:4883, V-A:TYR:539:C:4867, V-A:PRO:540:N:4884, V-A:PRO:540:CB:4885, H-A:GLY:454:N:4050, H-A:GLU:543:OE1:4909, H-A:ARG:545:NH2:4928, H-A:ASP:366:OD1:3214, V-A:PRO:540:CD:4887, V-A:ILE:538:CA:4860, V-A:ILE:538:CB:4862, V-A:ILE:538:CG2:4863, V-A:ILE:369:CG1:3238"]

$$$$
3ac_Grossjean_2025
     RDKit          3D

 47 49  0  0  0  0  0  0  0  0999 V2000
  125.0020  130.1150   56.1330 C   0  0  0  0  0  0  0  0  0  0  0  0
  125.8230  129.5410   55.1210 O   0  0  0  0  0  0  0  0  0  0  0  0
  126.9720  128.8650   55.4850 C   0  0  0  0  0  0  0  0  0  0  0  0
  126.8770  128.0330   56.6000 C   0  0  0  0  0  0  0  0  0  0  0  0
  127.9810  127.3090   57.0400 C   0  0  0  0  0  0  0  0  0  0  0  0
  129.2030  127.4150   56.3730 C   0  0  0  0  0  0  0  0  0  0  0  0
  130.2560  126.6300   56.8790 N   0  0  0  0  0  0  0  0  0  0  0  0
  131.4100  126.2660   56.2800 C   0  0  0  0  0  0  0  0  0  0  0  0
  131.7680  126.6130   55.1540 O   0  0  0  0  0  0  0  0  0  0  0  0
  132.3200  125.3520   57.1020 C   0  0  0  0  0  0  0  0  0  0  0  0
  131.9810  125.4680   58.8860 S   0  0  0  0  0  0  0  0  0  0  0  0
  130.7770  124.2270   59.3210 C   0  0  0  0  0  0  0  0  0  0  0  0
  129.7530  124.1450   58.4380 N   0  0  0  0  0  0  0  0  0  0  0  0
  128.7610  123.2390   58.6350 C   0  0  0  0  0  0  0  0  0  0  0  0
  127.6610  123.2170   57.6150 C   0  0  0  0  0  0  0  0  0  0  0  0
  126.3180  123.3460   58.0050 C   0  0  0  0  0  0  0  0  0  0  0  0
  125.2930  123.3330   57.0630 C   0  0  0  0  0  0  0  0  0  0  0  0
  125.5980  123.1880   55.7130 C   0  0  0  0  0  0  0  0  0  0  0  0
  126.9190  123.0530   55.3010 C   0  0  0  0  0  0  0  0  0  0  0  0
  127.9420  123.0670   56.2460 C   0  0  0  0  0  0  0  0  0  0  0  0
  128.7720  122.3960   59.7510 C   0  0  0  0  0  0  0  0  0  0  0  0
  129.8080  122.4770   60.6920 C   0  0  0  0  0  0  0  0  0  0  0  0
  129.7770  121.5330   61.9100 C   0  0  0  0  0  0  0  0  0  0  0  0
  129.2030  122.0870   62.9800 F   0  0  0  0  0  0  0  0  0  0  0  0
  129.0900  120.4270   61.6200 F   0  0  0  0  0  0  0  0  0  0  0  0
  131.0210  121.1920   62.2510 F   0  0  0  0  0  0  0  0  0  0  0  0
  130.8390  123.4280   60.4860 C   0  0  0  0  0  0  0  0  0  0  0  0
  131.9000  123.6010   61.4790 C   0  0  0  0  0  0  0  0  0  0  0  0
  132.7380  123.7380   62.2660 N   0  0  0  0  0  0  0  0  0  0  0  0
  129.3050  128.2450   55.2460 C   0  0  0  0  0  0  0  0  0  0  0  0
  128.1970  128.9670   54.8080 C   0  0  0  0  0  0  0  0  0  0  0  0
  125.3947  129.8405   57.1232 H   0  0  0  0  0  0  0  0  0  0  0  0
  125.0032  131.2101   56.0288 H   0  0  0  0  0  0  0  0  0  0  0  0
  123.9739  129.7379   56.0288 H   0  0  0  0  0  0  0  0  0  0  0  0
  125.9206  127.9482   57.1367 H   0  0  0  0  0  0  0  0  0  0  0  0
  127.8906  126.6507   57.9166 H   0  0  0  0  0  0  0  0  0  0  0  0
  130.1410  126.3460   57.8410 H   0  0  0  0  0  0  0  0  0  0  0  0
  132.1632  124.3124   56.7786 H   0  0  0  0  0  0  0  0  0  0  0  0
  133.3592  125.6712   56.9345 H   0  0  0  0  0  0  0  0  0  0  0  0
  126.0722  123.4591   59.0712 H   0  0  0  0  0  0  0  0  0  0  0  0
  124.2462  123.4369   57.3845 H   0  0  0  0  0  0  0  0  0  0  0  0
  124.7892  123.1801   54.9675 H   0  0  0  0  0  0  0  0  0  0  0  0
  127.1552  122.9356   54.2331 H   0  0  0  0  0  0  0  0  0  0  0  0
  128.9858  122.9590   55.9160 H   0  0  0  0  0  0  0  0  0  0  0  0
  127.9624  121.6646   59.8913 H   0  0  0  0  0  0  0  0  0  0  0  0
  130.2610  128.3256   54.7078 H   0  0  0  0  0  0  0  0  0  0  0  0
  128.2828  129.6203   53.9272 H   0  0  0  0  0  0  0  0  0  0  0  0
  1  2  1  0
  2  3  1  0
  3  4  2  0
  4  5  1  0
  5  6  2  0
  6  7  1  0
  7  8  1  0
  8  9  2  0
  8 10  1  0
 10 11  1  0
 11 12  1  0
 12 13  2  0
 13 14  1  0
 14 15  1  0
 15 16  2  0
 16 17  1  0
 17 18  2  0
 18 19  1  0
 19 20  2  0
 14 21  2  0
 21 22  1  0
 22 23  1  0
 23 24  1  0
 23 25  1  0
 23 26  1  0
 22 27  2  0
 27 28  1  0
 28 29  3  0
  6 30  1  0
 30 31  2  0
 31  3  1  0
 27 12  1  0
 20 15  1  0
  1 32  1  0
  1 33  1  0
  1 34  1  0
  4 35  1  0
  5 36  1  0
  7 37  1  0
 10 38  1  0
 10 39  1  0
 16 40  1  0
 17 41  1  0
 18 42  1  0
 19 43  1  0
 20 44  1  0
 21 45  1  0
 30 46  1  0
 31 47  1  0
M  END
>  <Binding energies>  (1) 
[-7.97]

>  <Ligand effiencies>  (1) 
[-0.2490625]

>  <Interactions>  (1) 
["V-B:TYR:539:CD1:9845, V-B:ILE:538:CD1:9837, V-B:PRO:540:CB:9857, V-B:TYR:539:C:9839, V-B:PRO:540:CA:9855, V-B:TYR:539:CE2:9848, V-B:TYR:539:CD2:9846, V-B:ILE:538:CA:9832, V-B:MET:535:CE:9807, V-B:ALA:541:CB:9864, V-B:TYR:539:CZ:9849, V-B:PRO:540:C:9853, V-B:TYR:539:CE1:9847, V-B:PRO:540:N:9856, V-B:TYR:531:CE2:9765, H-A:TYR:484:OH:4348, V-B:TYR:539:CG:9844, V-A:LEU:475:CD2:4259, V-B:TYR:531:CZ:9766, V-A:ASP:366:CB:3212, V-B:TYR:531:CE1:9764, V-A:TYR:539:CZ:4877, V-A:MET:535:CE:4835, H-B:LYS:534:NZ:9795, H-A:GLY:454:N:4050, H-B:TYR:539:OH:9850, H-B:TYR:531:OH:9767, V-A:TYR:484:CZ:4347, H-A:TYR:531:OH:4795, V-B:ALA:541:CA:9862, V-B:GLU:543:CG:9879, V-A:TYR:484:CE1:4345"]

$$$$
3ad_Grossjean_2025
     RDKit          3D

 43 45  0  0  0  0  0  0  0  0999 V2000
  130.6230  125.7050   62.3640 N   0  0  0  0  0  0  0  0  0  0  0  0
  130.7010  124.5930   62.0540 C   0  0  0  0  0  0  0  0  0  0  0  0
  130.8040  123.1840   61.6610 C   0  0  0  0  0  0  0  0  0  0  0  0
  131.9740  122.6900   61.0360 C   0  0  0  0  0  0  0  0  0  0  0  0
  133.2120  123.5690   60.7730 C   0  0  0  0  0  0  0  0  0  0  0  0
  133.8900  123.8550   61.8860 F   0  0  0  0  0  0  0  0  0  0  0  0
  134.0470  122.9420   59.9430 F   0  0  0  0  0  0  0  0  0  0  0  0
  132.8430  124.7270   60.2230 F   0  0  0  0  0  0  0  0  0  0  0  0
  132.0040  121.3450   60.6370 C   0  0  0  0  0  0  0  0  0  0  0  0
  130.8960  120.5180   60.8520 C   0  0  0  0  0  0  0  0  0  0  0  0
  130.8690  119.0790   60.4320 C   0  0  0  0  0  0  0  0  0  0  0  0
  129.9300  118.1900   60.9800 C   0  0  0  0  0  0  0  0  0  0  0  0
  129.8990  116.8530   60.5940 C   0  0  0  0  0  0  0  0  0  0  0  0
  130.8090  116.3850   59.6510 C   0  0  0  0  0  0  0  0  0  0  0  0
  131.7460  117.2460   59.0910 C   0  0  0  0  0  0  0  0  0  0  0  0
  131.7740  118.5830   59.4800 C   0  0  0  0  0  0  0  0  0  0  0  0
  129.7740  120.9980   61.4460 N   0  0  0  0  0  0  0  0  0  0  0  0
  129.7300  122.2870   61.8590 C   0  0  0  0  0  0  0  0  0  0  0  0
  128.1890  122.7380   62.6260 S   0  0  0  0  0  0  0  0  0  0  0  0
  127.2490  123.7160   61.4150 C   0  0  0  0  0  0  0  0  0  0  0  0
  127.3180  123.1150   60.0090 C   0  0  0  0  0  0  0  0  0  0  0  0
  128.2440  122.3530   59.7290 O   0  0  0  0  0  0  0  0  0  0  0  0
  126.3270  123.4870   59.1710 N   0  0  0  0  0  0  0  0  0  0  0  0
  126.0890  123.1140   57.8350 C   0  0  0  0  0  0  0  0  0  0  0  0
  127.2260  122.9860   57.0310 C   0  0  0  0  0  0  0  0  0  0  0  0
  127.1020  122.6260   55.6910 C   0  0  0  0  0  0  0  0  0  0  0  0
  125.8400  122.3960   55.1520 C   0  0  0  0  0  0  0  0  0  0  0  0
  124.7000  122.5260   55.9400 C   0  0  0  0  0  0  0  0  0  0  0  0
  124.8180  122.8870   57.2800 C   0  0  0  0  0  0  0  0  0  0  0  0
  132.9039  120.9384   60.1523 H   0  0  0  0  0  0  0  0  0  0  0  0
  129.2083  118.5557   61.7253 H   0  0  0  0  0  0  0  0  0  0  0  0
  129.1578  116.1688   61.0328 H   0  0  0  0  0  0  0  0  0  0  0  0
  130.7869  115.3281   59.3470 H   0  0  0  0  0  0  0  0  0  0  0  0
  132.4621  116.8729   58.3440 H   0  0  0  0  0  0  0  0  0  0  0  0
  132.5168  119.2610   59.0344 H   0  0  0  0  0  0  0  0  0  0  0  0
  126.1964  123.7559   61.7321 H   0  0  0  0  0  0  0  0  0  0  0  0
  127.6930  124.7216   61.3749 H   0  0  0  0  0  0  0  0  0  0  0  0
  125.6700  124.1620   59.5330 H   0  0  0  0  0  0  0  0  0  0  0  0
  128.2226  123.1704   57.4585 H   0  0  0  0  0  0  0  0  0  0  0  0
  127.9983  122.5240   55.0615 H   0  0  0  0  0  0  0  0  0  0  0  0
  125.7424  122.1091   54.0946 H   0  0  0  0  0  0  0  0  0  0  0  0
  123.7064  122.3437   55.5046 H   0  0  0  0  0  0  0  0  0  0  0  0
  123.9177  122.9943   57.9029 H   0  0  0  0  0  0  0  0  0  0  0  0
  1  2  3  0
  2  3  1  0
  3  4  2  0
  4  5  1  0
  5  6  1  0
  5  7  1  0
  5  8  1  0
  4  9  1  0
  9 10  2  0
 10 11  1  0
 11 12  2  0
 12 13  1  0
 13 14  2  0
 14 15  1  0
 15 16  2  0
 10 17  1  0
 17 18  2  0
 18 19  1  0
 19 20  1  0
 20 21  1  0
 21 22  2  0
 21 23  1  0
 23 24  1  0
 24 25  2  0
 25 26  1  0
 26 27  2  0
 27 28  1  0
 28 29  2  0
 18  3  1  0
 29 24  1  0
 16 11  1  0
  9 30  1  0
 12 31  1  0
 13 32  1  0
 14 33  1  0
 15 34  1  0
 16 35  1  0
 20 36  1  0
 20 37  1  0
 23 38  1  0
 25 39  1  0
 26 40  1  0
 27 41  1  0
 28 42  1  0
 29 43  1  0
M  END
>  <Binding energies>  (1) 
[-8.87]

>  <Ligand effiencies>  (1) 
[-0.29566666666666663]

>  <Interactions>  (1) 
["V-B:TYR:539:CD1:9845, V-B:ILE:538:CD1:9837, V-B:PRO:540:CB:9857, V-B:PRO:540:CD:9859, V-B:LEU:363:CD1:8161, V-B:GLU:543:CD:9880, V-B:TYR:539:C:9839, V-B:PRO:540:CA:9855, V-B:ILE:538:CG2:9835, V-B:TYR:539:CE2:9848, V-B:TYR:539:CD2:9846, V-B:ILE:538:CA:9832, V-B:MET:535:CE:9807, H-B:ASP:366:OD2:8187, V-B:TYR:539:CE1:9847, V-B:PRO:540:N:9856, V-B:TYR:531:CE2:9765, V-A:GLY:453:C:4042, V-A:SER:385:CB:3409, V-A:PRO:482:CB:4326, V-A:LEU:475:CD1:4258, H-A:TYR:484:OH:4348, V-A:ASP:366:CG:3213, V-B:TYR:539:CG:9844, V-A:LEU:475:CD2:4259, V-A:ILE:369:CD1:3239, V-A:GLY:454:CA:4049, V-A:ILE:369:CB:3236, V-A:ILE:369:CG2:3237, V-A:PRO:482:CG:4327, V-B:ILE:538:C:9830, V-B:ILE:538:CB:9834, V-B:TYR:539:CB:9843, V-B:PRO:540:CG:9858, V-A:HIS:383:CE1:3394, V-B:ILE:538:CG1:9836, V-A:ILE:369:CG1:3238"]

$$$$
3af_Grossjean_2025
     RDKit          3D

 42 44  0  0  0  0  0  0  0  0999 V2000
  130.9990  125.7840   62.2520 N   0  0  0  0  0  0  0  0  0  0  0  0
  131.0700  124.6710   61.9440 C   0  0  0  0  0  0  0  0  0  0  0  0
  131.1620  123.2620   61.5530 C   0  0  0  0  0  0  0  0  0  0  0  0
  132.2610  122.7930   60.7920 C   0  0  0  0  0  0  0  0  0  0  0  0
  133.4340  123.7030   60.3760 C   0  0  0  0  0  0  0  0  0  0  0  0
  134.3680  123.8100   61.3240 F   0  0  0  0  0  0  0  0  0  0  0  0
  134.0230  123.2150   59.2840 F   0  0  0  0  0  0  0  0  0  0  0  0
  132.9900  124.9330   60.1160 F   0  0  0  0  0  0  0  0  0  0  0  0
  132.2770  121.4470   60.3950 C   0  0  0  0  0  0  0  0  0  0  0  0
  131.2250  120.5950   60.7450 C   0  0  0  0  0  0  0  0  0  0  0  0
  131.1830  119.1540   60.3320 C   0  0  0  0  0  0  0  0  0  0  0  0
  130.2720  118.2640   60.9240 C   0  0  0  0  0  0  0  0  0  0  0  0
  130.2260  116.9260   60.5420 C   0  0  0  0  0  0  0  0  0  0  0  0
  131.0920  116.4590   59.5600 C   0  0  0  0  0  0  0  0  0  0  0  0
  132.0020  117.3190   58.9550 C   0  0  0  0  0  0  0  0  0  0  0  0
  132.0440  118.6570   59.3390 C   0  0  0  0  0  0  0  0  0  0  0  0
  130.1720  121.0480   61.4710 N   0  0  0  0  0  0  0  0  0  0  0  0
  130.1450  122.3380   61.8860 C   0  0  0  0  0  0  0  0  0  0  0  0
  128.6940  122.7430   62.8370 S   0  0  0  0  0  0  0  0  0  0  0  0
  127.4510  123.4310   61.7010 C   0  0  0  0  0  0  0  0  0  0  0  0
  127.5210  122.7800   60.3200 C   0  0  0  0  0  0  0  0  0  0  0  0
  127.9590  121.6340   60.2190 O   0  0  0  0  0  0  0  0  0  0  0  0
  127.0890  123.5480   59.2960 N   0  0  0  0  0  0  0  0  0  0  0  0
  127.0280  123.2580   57.9190 C   0  0  0  0  0  0  0  0  0  0  0  0
  127.9830  123.6360   56.9570 C   0  0  0  0  0  0  0  0  0  0  0  0
  127.7940  123.2810   55.6200 C   0  0  0  0  0  0  0  0  0  0  0  0
  126.6530  122.5550   55.2760 C   0  0  0  0  0  0  0  0  0  0  0  0
  125.7190  122.1780   56.1830 N   0  0  0  0  0  0  0  0  0  0  0  0
  125.9170  122.5300   57.4790 C   0  0  0  0  0  0  0  0  0  0  0  0
  133.1214  121.0603   59.8055 H   0  0  0  0  0  0  0  0  0  0  0  0
  129.5846  118.6295   61.7011 H   0  0  0  0  0  0  0  0  0  0  0  0
  129.5072  116.2410   61.0154 H   0  0  0  0  0  0  0  0  0  0  0  0
  131.0572  115.4015   59.2593 H   0  0  0  0  0  0  0  0  0  0  0  0
  132.6846  116.9447   58.1778 H   0  0  0  0  0  0  0  0  0  0  0  0
  132.7630  119.3359   58.8571 H   0  0  0  0  0  0  0  0  0  0  0  0
  126.4498  123.2616   62.1240 H   0  0  0  0  0  0  0  0  0  0  0  0
  127.6540  124.5056   61.5827 H   0  0  0  0  0  0  0  0  0  0  0  0
  126.7500  124.4660   59.5420 H   0  0  0  0  0  0  0  0  0  0  0  0
  128.8735  124.2080   57.2568 H   0  0  0  0  0  0  0  0  0  0  0  0
  128.5293  123.5676   54.8537 H   0  0  0  0  0  0  0  0  0  0  0  0
  126.5050  122.2764   54.2222 H   0  0  0  0  0  0  0  0  0  0  0  0
  125.1647  122.2271   58.2222 H   0  0  0  0  0  0  0  0  0  0  0  0
  1  2  3  0
  2  3  1  0
  3  4  2  0
  4  5  1  0
  5  6  1  0
  5  7  1  0
  5  8  1  0
  4  9  1  0
  9 10  2  0
 10 11  1  0
 11 12  2  0
 12 13  1  0
 13 14  2  0
 14 15  1  0
 15 16  2  0
 10 17  1  0
 17 18  2  0
 18 19  1  0
 19 20  1  0
 20 21  1  0
 21 22  2  0
 21 23  1  0
 23 24  1  0
 24 25  2  0
 25 26  1  0
 26 27  2  0
 27 28  1  0
 28 29  2  0
 18  3  1  0
 29 24  1  0
 16 11  1  0
  9 30  1  0
 12 31  1  0
 13 32  1  0
 14 33  1  0
 15 34  1  0
 16 35  1  0
 20 36  1  0
 20 37  1  0
 23 38  1  0
 25 39  1  0
 26 40  1  0
 27 41  1  0
 29 42  1  0
M  END
>  <Binding energies>  (1) 
[-8.16]

>  <Ligand effiencies>  (1) 
[-0.272]

>  <Interactions>  (1) 
["V-B:TYR:539:CD1:9845, V-B:ILE:538:CD1:9837, V-B:PRO:540:CB:9857, V-B:PRO:540:CD:9859, V-B:GLU:543:CD:9880, V-B:TYR:539:C:9839, V-B:PRO:540:CA:9855, H-B:TYR:539:N:9842, V-B:TYR:539:CE2:9848, V-B:TYR:539:CD2:9846, V-B:ILE:538:CA:9832, V-B:MET:535:CE:9807, V-B:TYR:539:CZ:9849, H-B:ASP:366:OD2:8187, V-B:TYR:539:CE1:9847, V-B:PRO:540:N:9856, V-A:GLY:453:C:4042, V-A:SER:385:CB:3409, V-A:PRO:482:CB:4326, V-A:LEU:475:CD1:4258, H-A:TYR:484:OH:4348, V-A:ASP:366:CG:3213, V-B:TYR:539:CG:9844, V-A:LEU:475:CD2:4259, V-A:ILE:369:CD1:3239, V-A:LEU:475:CG:4257, V-A:ASP:366:CB:3212, V-A:ILE:369:CB:3236, V-A:ILE:369:CG2:3237, V-A:PRO:482:CG:4327, V-B:ILE:538:C:9830, H-B:ALA:541:N:9863, H-A:ARG:545:NH2:4928, V-B:TYR:539:CB:9843, V-A:LEU:373:CD1:3280, V-A:HIS:383:CE1:3394, V-A:ILE:369:CG1:3238"]

$$$$
3ag_Grossjean_2025
     RDKit          3D

 46 48  0  0  0  0  0  0  0  0999 V2000
  131.3240  126.7350   61.6860 N   0  0  0  0  0  0  0  0  0  0  0  0
  131.3010  125.5870   61.5390 C   0  0  0  0  0  0  0  0  0  0  0  0
  131.2760  124.1340   61.3510 C   0  0  0  0  0  0  0  0  0  0  0  0
  132.3460  123.4690   60.7050 C   0  0  0  0  0  0  0  0  0  0  0  0
  133.6110  124.2040   60.2190 C   0  0  0  0  0  0  0  0  0  0  0  0
  134.3200  123.4900   59.3430 F   0  0  0  0  0  0  0  0  0  0  0  0
  133.2700  125.3470   59.6230 F   0  0  0  0  0  0  0  0  0  0  0  0
  134.4090  124.4760   61.2520 F   0  0  0  0  0  0  0  0  0  0  0  0
  132.2500  122.0840   60.5010 C   0  0  0  0  0  0  0  0  0  0  0  0
  131.1120  121.3850   60.9180 C   0  0  0  0  0  0  0  0  0  0  0  0
  130.9560  119.9080   60.7240 C   0  0  0  0  0  0  0  0  0  0  0  0
  129.9340  119.2020   61.3790 C   0  0  0  0  0  0  0  0  0  0  0  0
  129.7820  117.8300   61.2030 C   0  0  0  0  0  0  0  0  0  0  0  0
  130.6550  117.1410   60.3660 C   0  0  0  0  0  0  0  0  0  0  0  0
  131.6770  117.8160   59.7070 C   0  0  0  0  0  0  0  0  0  0  0  0
  131.8260  119.1870   59.8870 C   0  0  0  0  0  0  0  0  0  0  0  0
  130.0930  122.0240   61.5490 N   0  0  0  0  0  0  0  0  0  0  0  0
  130.1740  123.3580   61.7740 C   0  0  0  0  0  0  0  0  0  0  0  0
  128.7530  124.0240   62.6130 S   0  0  0  0  0  0  0  0  0  0  0  0
  127.4780  122.7280   62.6320 C   0  0  0  0  0  0  0  0  0  0  0  0
  126.2750  123.0880   61.7600 C   0  0  0  0  0  0  0  0  0  0  0  0
  125.1360  123.0310   62.2290 O   0  0  0  0  0  0  0  0  0  0  0  0
  126.5430  123.4630   60.4970 N   0  0  0  0  0  0  0  0  0  0  0  0
  125.5510  123.8810   59.5070 C   0  0  0  0  0  0  0  0  0  0  0  0
  125.8310  123.3780   58.0950 C   0  0  0  0  0  0  0  0  0  0  0  0
  124.7680  123.1310   57.2220 C   0  0  0  0  0  0  0  0  0  0  0  0
  125.0200  122.7000   55.9230 C   0  0  0  0  0  0  0  0  0  0  0  0
  126.3360  122.5270   55.4960 C   0  0  0  0  0  0  0  0  0  0  0  0
  127.4010  122.7860   56.3560 C   0  0  0  0  0  0  0  0  0  0  0  0
  127.1490  123.2180   57.6550 C   0  0  0  0  0  0  0  0  0  0  0  0
  133.0739  121.5449   60.0106 H   0  0  0  0  0  0  0  0  0  0  0  0
  129.2423  119.7423   62.0420 H   0  0  0  0  0  0  0  0  0  0  0  0
  128.9755  117.2923   61.7231 H   0  0  0  0  0  0  0  0  0  0  0  0
  130.5360  116.0566   60.2250 H   0  0  0  0  0  0  0  0  0  0  0  0
  132.3646  117.2678   59.0462 H   0  0  0  0  0  0  0  0  0  0  0  0
  132.6377  119.7160   59.3661 H   0  0  0  0  0  0  0  0  0  0  0  0
  127.9188  121.7920   62.2584 H   0  0  0  0  0  0  0  0  0  0  0  0
  127.1235  122.6184   63.6675 H   0  0  0  0  0  0  0  0  0  0  0  0
  127.5070  123.4900   60.1980 H   0  0  0  0  0  0  0  0  0  0  0  0
  124.5679  123.5002   59.8209 H   0  0  0  0  0  0  0  0  0  0  0  0
  125.5873  124.9796   59.4656 H   0  0  0  0  0  0  0  0  0  0  0  0
  123.7320  123.2773   57.5617 H   0  0  0  0  0  0  0  0  0  0  0  0
  124.1850  122.4968   55.2364 H   0  0  0  0  0  0  0  0  0  0  0  0
  126.5352  122.1828   54.4704 H   0  0  0  0  0  0  0  0  0  0  0  0
  128.4363  122.6497   56.0101 H   0  0  0  0  0  0  0  0  0  0  0  0
  127.9861  123.4335   58.3353 H   0  0  0  0  0  0  0  0  0  0  0  0
  1  2  3  0
  2  3  1  0
  3  4  2  0
  4  5  1  0
  5  6  1  0
  5  7  1  0
  5  8  1  0
  4  9  1  0
  9 10  2  0
 10 11  1  0
 11 12  2  0
 12 13  1  0
 13 14  2  0
 14 15  1  0
 15 16  2  0
 10 17  1  0
 17 18  2  0
 18 19  1  0
 19 20  1  0
 20 21  1  0
 21 22  2  0
 21 23  1  0
 23 24  1  0
 24 25  1  0
 25 26  2  0
 26 27  1  0
 27 28  2  0
 28 29  1  0
 29 30  2  0
 18  3  1  0
 30 25  1  0
 16 11  1  0
  9 31  1  0
 12 32  1  0
 13 33  1  0
 14 34  1  0
 15 35  1  0
 16 36  1  0
 20 37  1  0
 20 38  1  0
 23 39  1  0
 24 40  1  0
 24 41  1  0
 26 42  1  0
 27 43  1  0
 28 44  1  0
 29 45  1  0
 30 46  1  0
M  END
>  <Binding energies>  (1) 
[-9.1]

>  <Ligand effiencies>  (1) 
[-0.29354838709677417]

>  <Interactions>  (1) 
["V-B:TYR:539:CD1:9845, V-B:ILE:538:CD1:9837, V-B:PRO:540:CB:9857, V-B:PRO:540:CD:9859, V-B:LEU:363:CD1:8161, V-B:GLU:543:CD:9880, V-B:TYR:539:C:9839, V-B:PRO:540:CA:9855, V-B:ILE:538:CG2:9835, V-B:TYR:539:CE2:9848, V-B:TYR:539:CD2:9846, V-B:ILE:538:CA:9832, V-B:MET:535:CE:9807, V-B:ALA:541:CB:9864, V-B:TYR:539:CZ:9849, V-B:PRO:540:C:9853, V-B:TYR:539:CE1:9847, V-B:PRO:540:N:9856, V-B:TYR:531:CE2:9765, V-A:SER:385:CB:3409, V-A:PRO:482:CB:4326, V-A:LEU:475:CD1:4258, H-A:TYR:484:OH:4348, V-A:ASP:366:CA:3210, V-A:ASP:366:CG:3213, V-B:TYR:539:CG:9844, V-A:LEU:475:CD2:4259, V-B:TYR:531:CZ:9766, V-A:ILE:369:CD1:3239, V-A:ASP:366:CB:3212, V-A:ILE:369:CB:3236, V-A:ILE:369:CG2:3237, V-A:PRO:482:CG:4327, V-B:ILE:538:C:9830, H-B:ARG:545:NH2:9900, H-B:ALA:541:N:9863, H-A:ARG:545:NH2:4928, V-B:TYR:539:CB:9843, V-A:ILE:369:CG1:3238, V-B:ALA:541:CA:9862, V-B:GLU:543:CG:9879, V-A:GLY:453:CA:4044"]

$$$$
3ai_Grossjean_2025
     RDKit          3D

 39 41  0  0  0  0  0  0  0  0999 V2000
  131.1190  126.1150   62.4360 N   0  0  0  0  0  0  0  0  0  0  0  0
  131.1250  124.9930   62.1520 C   0  0  0  0  0  0  0  0  0  0  0  0
  131.1340  123.5720   61.7920 C   0  0  0  0  0  0  0  0  0  0  0  0
  132.3460  122.9140   61.4690 C   0  0  0  0  0  0  0  0  0  0  0  0
  133.7140  123.6210   61.5180 C   0  0  0  0  0  0  0  0  0  0  0  0
  134.0150  124.2470   60.3780 F   0  0  0  0  0  0  0  0  0  0  0  0
  133.7200  124.5340   62.4910 F   0  0  0  0  0  0  0  0  0  0  0  0
  134.6810  122.7340   61.7520 F   0  0  0  0  0  0  0  0  0  0  0  0
  132.2960  121.5660   61.0850 C   0  0  0  0  0  0  0  0  0  0  0  0
  131.0710  120.8930   61.0220 C   0  0  0  0  0  0  0  0  0  0  0  0
  130.9570  119.4570   60.6080 C   0  0  0  0  0  0  0  0  0  0  0  0
  131.8330  118.9150   59.6530 C   0  0  0  0  0  0  0  0  0  0  0  0
  131.7370  117.5810   59.2670 C   0  0  0  0  0  0  0  0  0  0  0  0
  130.7600  116.7680   59.8330 C   0  0  0  0  0  0  0  0  0  0  0  0
  129.8820  117.2800   60.7830 C   0  0  0  0  0  0  0  0  0  0  0  0
  129.9820  118.6140   61.1660 C   0  0  0  0  0  0  0  0  0  0  0  0
  129.9100  121.5300   61.3240 N   0  0  0  0  0  0  0  0  0  0  0  0
  129.9360  122.8250   61.7210 C   0  0  0  0  0  0  0  0  0  0  0  0
  128.3240  123.4830   62.0960 S   0  0  0  0  0  0  0  0  0  0  0  0
  127.6840  124.2890   60.5890 C   0  0  0  0  0  0  0  0  0  0  0  0
  127.4350  123.3440   59.4040 C   0  0  0  0  0  0  0  0  0  0  0  0
  128.1270  122.3360   59.2450 O   0  0  0  0  0  0  0  0  0  0  0  0
  126.4230  123.7170   58.5890 N   0  0  0  0  0  0  0  0  0  0  0  0
  125.9710  123.0580   57.4530 C   0  0  0  0  0  0  0  0  0  0  0  0
  124.6350  123.0500   57.0560 C   0  0  0  0  0  0  0  0  0  0  0  0
  124.6060  122.2980   55.9050 C   0  0  0  0  0  0  0  0  0  0  0  0
  125.8610  121.8740   55.6220 O   0  0  0  0  0  0  0  0  0  0  0  0
  126.7170  122.3620   56.6100 N   0  0  0  0  0  0  0  0  0  0  0  0
  133.2254  121.0348   60.8319 H   0  0  0  0  0  0  0  0  0  0  0  0
  132.6068  119.5545   59.2032 H   0  0  0  0  0  0  0  0  0  0  0  0
  132.4305  117.1714   58.5178 H   0  0  0  0  0  0  0  0  0  0  0  0
  130.6813  115.7142   59.5275 H   0  0  0  0  0  0  0  0  0  0  0  0
  129.1123  116.6332   61.2293 H   0  0  0  0  0  0  0  0  0  0  0  0
  129.2863  119.0148   61.9179 H   0  0  0  0  0  0  0  0  0  0  0  0
  126.7316  124.7780   60.8416 H   0  0  0  0  0  0  0  0  0  0  0  0
  128.4631  124.9935   60.2623 H   0  0  0  0  0  0  0  0  0  0  0  0
  125.9280  124.5660   58.8220 H   0  0  0  0  0  0  0  0  0  0  0  0
  123.7863  123.5398   57.5558 H   0  0  0  0  0  0  0  0  0  0  0  0
  123.7079  122.0764   55.3097 H   0  0  0  0  0  0  0  0  0  0  0  0
  1  2  3  0
  2  3  1  0
  3  4  2  0
  4  5  1  0
  5  6  1  0
  5  7  1  0
  5  8  1  0
  4  9  1  0
  9 10  2  0
 10 11  1  0
 11 12  2  0
 12 13  1  0
 13 14  2  0
 14 15  1  0
 15 16  2  0
 10 17  1  0
 17 18  2  0
 18 19  1  0
 19 20  1  0
 20 21  1  0
 21 22  2  0
 21 23  1  0
 23 24  1  0
 24 25  1  0
 25 26  2  0
 26 27  1  0
 27 28  1  0
 18  3  1  0
 28 24  2  0
 16 11  1  0
  9 29  1  0
 12 30  1  0
 13 31  1  0
 14 32  1  0
 15 33  1  0
 16 34  1  0
 20 35  1  0
 20 36  1  0
 23 37  1  0
 25 38  1  0
 26 39  1  0
M  END
>  <Binding energies>  (1) 
[-8.61]

>  <Ligand effiencies>  (1) 
[-0.2968965517241379]

>  <Interactions>  (1) 
["V-B:ILE:538:CD1:9837, V-B:PRO:540:CB:9857, V-B:PRO:540:CD:9859, V-B:LEU:363:CD1:8161, V-B:TYR:539:C:9839, V-B:PRO:540:CA:9855, H-B:TYR:539:N:9842, V-B:ILE:538:CG2:9835, V-B:TYR:539:CE2:9848, V-B:TYR:539:CD2:9846, V-B:ILE:538:CA:9832, V-B:ALA:541:CB:9864, H-B:ASP:366:OD2:8187, V-B:PRO:540:N:9856, V-B:TYR:531:CE2:9765, V-A:GLY:453:C:4042, V-A:SER:385:CB:3409, V-A:PRO:482:CB:4326, V-A:LEU:475:CD1:4258, V-A:ASP:366:CA:3210, V-A:ASP:366:CG:3213, V-B:TYR:539:CG:9844, V-A:LEU:475:CD2:4259, V-A:ILE:369:CD1:3239, V-A:GLY:454:CA:4049, V-A:LEU:475:CG:4257, V-A:ILE:369:CG2:3237, V-A:PRO:482:CG:4327, V-B:ILE:538:CB:9834, H-A:ARG:545:NH2:4928, V-A:ARG:545:CZ:4926, H-B:TYR:531:OH:9767, V-B:TYR:539:CB:9843, V-A:HIS:383:CE1:3394, V-A:ILE:369:CG1:3238, V-A:GLY:453:CA:4044"]

$$$$
3aj_Grossjean_2025
     RDKit          3D

 39 41  0  0  0  0  0  0  0  0999 V2000
  132.2990  123.9480   61.8140 N   0  0  0  0  0  0  0  0  0  0  0  0
  131.3940  123.8190   61.1050 C   0  0  0  0  0  0  0  0  0  0  0  0
  130.2450  123.6550   60.2100 C   0  0  0  0  0  0  0  0  0  0  0  0
  129.0780  122.9810   60.6460 C   0  0  0  0  0  0  0  0  0  0  0  0
  128.9230  122.4240   62.0740 C   0  0  0  0  0  0  0  0  0  0  0  0
  129.1870  123.3340   63.0150 F   0  0  0  0  0  0  0  0  0  0  0  0
  127.6750  121.9970   62.2650 F   0  0  0  0  0  0  0  0  0  0  0  0
  129.7620  121.4050   62.2600 F   0  0  0  0  0  0  0  0  0  0  0  0
  128.0240  122.8080   59.7350 C   0  0  0  0  0  0  0  0  0  0  0  0
  128.1340  123.2910   58.4260 C   0  0  0  0  0  0  0  0  0  0  0  0
  127.0440  123.1260   57.4120 C   0  0  0  0  0  0  0  0  0  0  0  0
  127.3510  122.9060   56.0600 C   0  0  0  0  0  0  0  0  0  0  0  0
  126.3430  122.7470   55.1120 C   0  0  0  0  0  0  0  0  0  0  0  0
  125.0090  122.8070   55.5060 C   0  0  0  0  0  0  0  0  0  0  0  0
  124.6790  123.0230   56.8400 C   0  0  0  0  0  0  0  0  0  0  0  0
  125.6900  123.1790   57.7840 C   0  0  0  0  0  0  0  0  0  0  0  0
  129.2570  123.9300   58.0120 N   0  0  0  0  0  0  0  0  0  0  0  0
  130.2780  124.1300   58.8790 C   0  0  0  0  0  0  0  0  0  0  0  0
  131.6550  125.0030   58.1650 S   0  0  0  0  0  0  0  0  0  0  0  0
  131.6040  126.7220   58.7760 C   0  0  0  0  0  0  0  0  0  0  0  0
  131.4900  127.7960   57.6840 C   0  0  0  0  0  0  0  0  0  0  0  0
  131.0750  127.5110   56.5580 O   0  0  0  0  0  0  0  0  0  0  0  0
  131.8750  129.0340   58.0670 N   0  0  0  0  0  0  0  0  0  0  0  0
  131.8690  130.1830   57.2880 C   0  0  0  0  0  0  0  0  0  0  0  0
  130.9330  130.5910   56.4580 N   0  0  0  0  0  0  0  0  0  0  0  0
  131.2560  131.7330   55.8840 C   0  0  0  0  0  0  0  0  0  0  0  0
  132.4850  132.2780   56.2480 C   0  0  0  0  0  0  0  0  0  0  0  0
  133.2480  131.2280   57.4030 S   0  0  0  0  0  0  0  0  0  0  0  0
  127.1067  122.2900   60.0517 H   0  0  0  0  0  0  0  0  0  0  0  0
  128.4037  122.8585   55.7444 H   0  0  0  0  0  0  0  0  0  0  0  0
  126.5999  122.5747   54.0564 H   0  0  0  0  0  0  0  0  0  0  0  0
  124.2117  122.6829   54.7584 H   0  0  0  0  0  0  0  0  0  0  0  0
  123.6239  123.0703   57.1475 H   0  0  0  0  0  0  0  0  0  0  0  0
  125.4247  123.3465   58.8383 H   0  0  0  0  0  0  0  0  0  0  0  0
  130.7357  126.8211   59.4440 H   0  0  0  0  0  0  0  0  0  0  0  0
  132.5656  126.8975   59.2806 H   0  0  0  0  0  0  0  0  0  0  0  0
  132.1930  129.1490   59.0180 H   0  0  0  0  0  0  0  0  0  0  0  0
  130.5927  132.2273   55.1589 H   0  0  0  0  0  0  0  0  0  0  0  0
  132.9045  133.2204   55.8661 H   0  0  0  0  0  0  0  0  0  0  0  0
  1  2  3  0
  2  3  1  0
  3  4  2  0
  4  5  1  0
  5  6  1  0
  5  7  1  0
  5  8  1  0
  4  9  1  0
  9 10  2  0
 10 11  1  0
 11 12  2  0
 12 13  1  0
 13 14  2  0
 14 15  1  0
 15 16  2  0
 10 17  1  0
 17 18  2  0
 18 19  1  0
 19 20  1  0
 20 21  1  0
 21 22  2  0
 21 23  1  0
 23 24  1  0
 24 25  2  0
 25 26  1  0
 26 27  2  0
 27 28  1  0
 18  3  1  0
 28 24  1  0
 16 11  1  0
  9 29  1  0
 12 30  1  0
 13 31  1  0
 14 32  1  0
 15 33  1  0
 16 34  1  0
 20 35  1  0
 20 36  1  0
 23 37  1  0
 26 38  1  0
 27 39  1  0
M  END
>  <Binding energies>  (1) 
[-7.77]

>  <Ligand effiencies>  (1) 
[-0.2679310344827586]

>  <Interactions>  (1) 
["V-B:TYR:539:CD1:9845, V-B:ILE:538:CD1:9837, V-B:PRO:540:CB:9857, V-B:PRO:540:CD:9859, V-B:LEU:363:CD1:8161, V-B:GLU:543:CD:9880, V-B:TYR:539:C:9839, V-B:PRO:540:CA:9855, V-B:ILE:538:CG2:9835, V-B:TYR:539:CE2:9848, V-B:TYR:539:CD2:9846, V-B:ILE:538:CA:9832, V-B:MET:535:CE:9807, V-B:ALA:541:CB:9864, V-B:TYR:539:CZ:9849, V-B:PRO:540:C:9853, V-B:TYR:539:CE1:9847, V-B:PRO:540:N:9856, V-B:TYR:531:CE2:9765, H-A:TYR:484:OH:4348, V-A:ASP:366:CG:3213, V-A:LEU:475:CD2:4259, V-B:TYR:531:CZ:9766, V-A:ASP:366:CB:3212, V-A:PRO:540:CA:4883, V-A:PRO:540:N:4884, V-A:PRO:540:CB:4885, V-A:LEU:363:CD1:3189, H-A:ASP:366:OD1:3214, V-A:PRO:540:CD:4887, V-A:LEU:363:CA:3185, H-B:TYR:539:OH:9850, V-A:TYR:484:CZ:4347, H-A:TYR:531:OH:4795, V-A:PRO:540:CG:4886, V-B:ALA:541:CA:9862, V-B:GLU:543:CG:9879, V-A:TYR:484:CE1:4345"]

$$$$
3ak_Grossjean_2025
     RDKit          3D

 57 58  0  0  0  0  0  0  0  0999 V2000
  131.8830  132.4950   55.4790 C   0  0  0  0  0  0  0  0  0  0  0  0
  130.6640  133.2200   55.5200 O   0  0  0  0  0  0  0  0  0  0  0  0
  129.5130  132.3880   55.5730 C   0  0  0  0  0  0  0  0  0  0  0  0
  128.8660  132.3420   54.1830 C   0  0  0  0  0  0  0  0  0  0  0  0
  127.7630  131.4430   54.2160 O   0  0  0  0  0  0  0  0  0  0  0  0
  127.3390  131.0370   55.5150 C   0  0  0  0  0  0  0  0  0  0  0  0
  126.1560  130.0510   55.5010 C   0  0  0  0  0  0  0  0  0  0  0  0
  126.6310  128.7560   55.1610 O   0  0  0  0  0  0  0  0  0  0  0  0
  127.8920  128.4360   55.7330 C   0  0  0  0  0  0  0  0  0  0  0  0
  127.7960  127.1230   56.5310 C   0  0  0  0  0  0  0  0  0  0  0  0
  129.0890  126.6370   57.0170 N   0  0  0  0  0  0  0  0  0  0  0  0
  130.2210  126.5430   56.2930 C   0  0  0  0  0  0  0  0  0  0  0  0
  130.2870  126.8850   55.1110 O   0  0  0  0  0  0  0  0  0  0  0  0
  131.4860  125.9850   56.9650 C   0  0  0  0  0  0  0  0  0  0  0  0
  131.4230  125.7790   58.7830 S   0  0  0  0  0  0  0  0  0  0  0  0
  130.3120  124.4350   59.1690 C   0  0  0  0  0  0  0  0  0  0  0  0
  129.3000  124.2400   58.2880 N   0  0  0  0  0  0  0  0  0  0  0  0
  128.3990  123.2460   58.4990 C   0  0  0  0  0  0  0  0  0  0  0  0
  127.3140  123.1010   57.4740 C   0  0  0  0  0  0  0  0  0  0  0  0
  127.6270  122.9020   56.1200 C   0  0  0  0  0  0  0  0  0  0  0  0
  126.6240  122.7630   55.1650 C   0  0  0  0  0  0  0  0  0  0  0  0
  125.2890  122.8190   55.5520 C   0  0  0  0  0  0  0  0  0  0  0  0
  124.9520  123.0120   56.8870 C   0  0  0  0  0  0  0  0  0  0  0  0
  125.9570  123.1500   57.8400 C   0  0  0  0  0  0  0  0  0  0  0  0
  128.5080  122.4040   59.6100 C   0  0  0  0  0  0  0  0  0  0  0  0
  129.5460  122.5830   60.5360 C   0  0  0  0  0  0  0  0  0  0  0  0
  129.6310  121.6360   61.7490 C   0  0  0  0  0  0  0  0  0  0  0  0
  130.8940  121.2590   61.9460 F   0  0  0  0  0  0  0  0  0  0  0  0
  129.1900  122.2560   62.8450 F   0  0  0  0  0  0  0  0  0  0  0  0
  128.9010  120.5290   61.5950 F   0  0  0  0  0  0  0  0  0  0  0  0
  130.4760  123.6270   60.3160 C   0  0  0  0  0  0  0  0  0  0  0  0
  131.5810  123.8620   61.2510 C   0  0  0  0  0  0  0  0  0  0  0  0
  132.4530  124.0480   61.9890 N   0  0  0  0  0  0  0  0  0  0  0  0
  132.2238  132.2923   56.5051 H   0  0  0  0  0  0  0  0  0  0  0  0
  131.7260  131.5434   54.9501 H   0  0  0  0  0  0  0  0  0  0  0  0
  132.6442  133.0872   54.9501 H   0  0  0  0  0  0  0  0  0  0  0  0
  129.8058  131.3723   55.8774 H   0  0  0  0  0  0  0  0  0  0  0  0
  128.7962  132.7911   56.3035 H   0  0  0  0  0  0  0  0  0  0  0  0
  128.5148  133.3470   53.9060 H   0  0  0  0  0  0  0  0  0  0  0  0
  129.6025  132.0003   53.4408 H   0  0  0  0  0  0  0  0  0  0  0  0
  128.1874  130.5541   56.0219 H   0  0  0  0  0  0  0  0  0  0  0  0
  126.9966  131.9419   56.0384 H   0  0  0  0  0  0  0  0  0  0  0  0
  125.6895  130.0220   56.4967 H   0  0  0  0  0  0  0  0  0  0  0  0
  125.4114  130.3777   54.7601 H   0  0  0  0  0  0  0  0  0  0  0  0
  128.6359  128.3202   54.9310 H   0  0  0  0  0  0  0  0  0  0  0  0
  128.1945  129.2472   56.4116 H   0  0  0  0  0  0  0  0  0  0  0  0
  127.1391  127.2898   57.3974 H   0  0  0  0  0  0  0  0  0  0  0  0
  127.3999  126.3579   55.8471 H   0  0  0  0  0  0  0  0  0  0  0  0
  129.1210  126.3550   57.9860 H   0  0  0  0  0  0  0  0  0  0  0  0
  131.6911  124.9984   56.5239 H   0  0  0  0  0  0  0  0  0  0  0  0
  132.2674  126.7379   56.7846 H   0  0  0  0  0  0  0  0  0  0  0  0
  128.6811  122.8552   55.8090 H   0  0  0  0  0  0  0  0  0  0  0  0
  126.8861  122.6094   54.1078 H   0  0  0  0  0  0  0  0  0  0  0  0
  124.4957  122.7100   54.7978 H   0  0  0  0  0  0  0  0  0  0  0  0
  123.8951  123.0555   57.1889 H   0  0  0  0  0  0  0  0  0  0  0  0
  125.6857  123.2997   58.8955 H   0  0  0  0  0  0  0  0  0  0  0  0
  127.7756  121.5968   59.7585 H   0  0  0  0  0  0  0  0  0  0  0  0
  1  2  1  0
  2  3  1  0
  3  4  1  0
  4  5  1  0
  5  6  1  0
  6  7  1  0
  7  8  1  0
  8  9  1  0
  9 10  1  0
 10 11  1  0
 11 12  1  0
 12 13  2  0
 12 14  1  0
 14 15  1  0
 15 16  1  0
 16 17  2  0
 17 18  1  0
 18 19  1  0
 19 20  2  0
 20 21  1  0
 21 22  2  0
 22 23  1  0
 23 24  2  0
 18 25  2  0
 25 26  1  0
 26 27  1  0
 27 28  1  0
 27 29  1  0
 27 30  1  0
 26 31  2  0
 31 32  1  0
 32 33  3  0
 31 16  1  0
 24 19  1  0
  1 34  1  0
  1 35  1  0
  1 36  1  0
  3 37  1  0
  3 38  1  0
  4 39  1  0
  4 40  1  0
  6 41  1  0
  6 42  1  0
  7 43  1  0
  7 44  1  0
  9 45  1  0
  9 46  1  0
 10 47  1  0
 10 48  1  0
 11 49  1  0
 14 50  1  0
 14 51  1  0
 20 52  1  0
 21 53  1  0
 22 54  1  0
 23 55  1  0
 24 56  1  0
 25 57  1  0
M  END
>  <Binding energies>  (1) 
[-8.11]

>  <Ligand effiencies>  (1) 
[-0.23852941176470588]

>  <Interactions>  (1) 
["V-B:TYR:539:CD1:9845, V-B:ILE:538:CD1:9837, V-B:PRO:540:CB:9857, V-B:PRO:540:CD:9859, V-B:LEU:363:CD1:8161, V-B:TYR:539:C:9839, V-B:PRO:540:CA:9855, V-B:ILE:538:CG2:9835, V-B:TYR:539:CE2:9848, V-B:TYR:539:CD2:9846, V-B:ILE:538:CA:9832, V-B:MET:535:CE:9807, V-B:ALA:541:CB:9864, V-B:TYR:539:CZ:9849, V-B:PRO:540:C:9853, V-B:TYR:539:CE1:9847, V-B:PRO:540:N:9856, V-B:TYR:531:CE2:9765, H-A:TYR:484:OH:4348, V-B:TYR:539:CG:9844, V-A:LEU:475:CD2:4259, V-B:TYR:531:CZ:9766, V-A:TYR:539:CE1:4875, V-B:TYR:531:CE1:9764, H-A:TYR:539:N:4870, V-A:TYR:539:CZ:4877, V-A:TYR:539:CE2:4876, H-B:LYS:534:NZ:9795, V-A:LEU:363:CD1:3189, V-A:PRO:540:CD:4887, H-B:TYR:531:OH:9767, V-A:ILE:538:CA:4860, V-A:ILE:538:CB:4862, V-A:TYR:484:CZ:4347, V-A:ILE:538:CG2:4863, H-A:TYR:531:OH:4795, V-A:TYR:539:CD2:4874, V-B:ALA:541:CA:9862, V-B:GLU:543:CG:9879, V-A:TYR:484:CE1:4345"]

$$$$
3bc_Grossjean_2025
     RDKit          3D

 47 49  0  0  0  0  0  0  0  0999 V2000
  132.4910  126.1370   56.1580 C   0  0  0  0  0  0  0  0  0  0  0  0
  131.6130  126.7820   55.2410 O   0  0  0  0  0  0  0  0  0  0  0  0
  130.3660  127.1900   55.6780 C   0  0  0  0  0  0  0  0  0  0  0  0
  129.8670  128.3670   55.1190 C   0  0  0  0  0  0  0  0  0  0  0  0
  128.6200  128.8580   55.4960 C   0  0  0  0  0  0  0  0  0  0  0  0
  127.8560  128.1800   56.4470 C   0  0  0  0  0  0  0  0  0  0  0  0
  126.6050  128.7450   56.7560 N   0  0  0  0  0  0  0  0  0  0  0  0
  125.7550  129.4230   55.9540 C   0  0  0  0  0  0  0  0  0  0  0  0
  125.9380  129.6300   54.7530 O   0  0  0  0  0  0  0  0  0  0  0  0
  124.4720  129.9080   56.6440 C   0  0  0  0  0  0  0  0  0  0  0  0
  124.5740  130.0510   58.4600 S   0  0  0  0  0  0  0  0  0  0  0  0
  125.8940  131.1800   58.8440 C   0  0  0  0  0  0  0  0  0  0  0  0
  126.8140  131.3000   57.8550 N   0  0  0  0  0  0  0  0  0  0  0  0
  127.8750  132.1330   58.0150 C   0  0  0  0  0  0  0  0  0  0  0  0
  128.8580  132.1920   56.8840 C   0  0  0  0  0  0  0  0  0  0  0  0
  130.2390  132.2020   57.1330 C   0  0  0  0  0  0  0  0  0  0  0  0
  131.1570  132.2570   56.0880 C   0  0  0  0  0  0  0  0  0  0  0  0
  130.7040  132.3030   54.7740 C   0  0  0  0  0  0  0  0  0  0  0  0
  129.3410  132.2970   54.4990 C   0  0  0  0  0  0  0  0  0  0  0  0
  128.4260  132.2430   55.5480 C   0  0  0  0  0  0  0  0  0  0  0  0
  128.0370  132.8730   59.1910 C   0  0  0  0  0  0  0  0  0  0  0  0
  127.0840  132.7790   60.2110 C   0  0  0  0  0  0  0  0  0  0  0  0
  127.2920  133.6190   61.4710 C   0  0  0  0  0  0  0  0  0  0  0  0
  125.9740  131.9230   60.0440 C   0  0  0  0  0  0  0  0  0  0  0  0
  124.9400  131.8450   61.0770 C   0  0  0  0  0  0  0  0  0  0  0  0
  124.1240  131.7850   61.8960 N   0  0  0  0  0  0  0  0  0  0  0  0
  128.3450  126.9890   57.0050 C   0  0  0  0  0  0  0  0  0  0  0  0
  129.5930  126.5010   56.6240 C   0  0  0  0  0  0  0  0  0  0  0  0
  132.1789  126.3663   57.1876 H   0  0  0  0  0  0  0  0  0  0  0  0
  132.4544  125.0494   55.9974 H   0  0  0  0  0  0  0  0  0  0  0  0
  133.5179  126.4970   55.9974 H   0  0  0  0  0  0  0  0  0  0  0  0
  130.4645  128.9121   54.3734 H   0  0  0  0  0  0  0  0  0  0  0  0
  128.2355  129.7836   55.0427 H   0  0  0  0  0  0  0  0  0  0  0  0
  126.2840  128.5610   57.6950 H   0  0  0  0  0  0  0  0  0  0  0  0
  124.2209  130.8990   56.2381 H   0  0  0  0  0  0  0  0  0  0  0  0
  123.7078  129.1436   56.4402 H   0  0  0  0  0  0  0  0  0  0  0  0
  130.6020  132.1658   58.1708 H   0  0  0  0  0  0  0  0  0  0  0  0
  132.2362  132.2640   56.3007 H   0  0  0  0  0  0  0  0  0  0  0  0
  131.4283  132.3444   53.9472 H   0  0  0  0  0  0  0  0  0  0  0  0
  128.9870  132.3347   53.4582 H   0  0  0  0  0  0  0  0  0  0  0  0
  127.3484  132.2402   55.3269 H   0  0  0  0  0  0  0  0  0  0  0  0
  128.9123  133.5278   59.3136 H   0  0  0  0  0  0  0  0  0  0  0  0
  127.1364  132.9907   62.3604 H   0  0  0  0  0  0  0  0  0  0  0  0
  128.3165  134.0195   61.4797 H   0  0  0  0  0  0  0  0  0  0  0  0
  126.5728  134.4513   61.4797 H   0  0  0  0  0  0  0  0  0  0  0  0
  127.7425  126.4403   57.7438 H   0  0  0  0  0  0  0  0  0  0  0  0
  129.9745  125.5696   57.0678 H   0  0  0  0  0  0  0  0  0  0  0  0
  1  2  1  0
  2  3  1  0
  3  4  2  0
  4  5  1  0
  5  6  2  0
  6  7  1  0
  7  8  1  0
  8  9  2  0
  8 10  1  0
 10 11  1  0
 11 12  1  0
 12 13  2  0
 13 14  1  0
 14 15  1  0
 15 16  2  0
 16 17  1  0
 17 18  2  0
 18 19  1  0
 19 20  2  0
 14 21  2  0
 21 22  1  0
 22 23  1  0
 22 24  2  0
 24 25  1  0
 25 26  3  0
  6 27  1  0
 27 28  2  0
 28  3  1  0
 24 12  1  0
 20 15  1  0
  1 29  1  0
  1 30  1  0
  1 31  1  0
  4 32  1  0
  5 33  1  0
  7 34  1  0
 10 35  1  0
 10 36  1  0
 16 37  1  0
 17 38  1  0
 18 39  1  0
 19 40  1  0
 20 41  1  0
 21 42  1  0
 23 43  1  0
 23 44  1  0
 23 45  1  0
 27 46  1  0
 28 47  1  0
M  END
>  <Binding energies>  (1) 
[-7.81]

>  <Ligand effiencies>  (1) 
[-0.2693103448275862]

>  <Interactions>  (1) 
["V-B:MET:535:CE:9807, V-B:TYR:531:CZ:9766, V-A:ASP:366:C:3208, V-A:ASP:366:CB:3212, V-A:TYR:539:CE1:4875, V-B:TYR:531:CE1:9764, V-A:TYR:539:CZ:4877, V-A:PRO:540:CA:4883, V-A:TYR:539:C:4867, V-A:PRO:540:N:4884, V-B:ASP:366:CB:8184, V-A:MET:535:CE:4835, V-A:TYR:539:CE2:4876, H-B:LYS:534:NZ:9795, V-A:TYR:531:CE1:4792, V-A:ALA:541:CB:4892, H-B:TYR:539:OH:9850, H-B:TYR:531:OH:9767, V-A:ILE:538:CA:4860, V-A:ILE:538:CB:4862, V-A:ILE:538:CG2:4863, V-B:LEU:475:CD2:9231, H-A:TYR:531:OH:4795, V-A:TYR:539:CD2:4874, V-A:TYR:539:CG:4872, V-A:TYR:539:CD1:4873, V-B:ASP:366:C:8180"]

$$$$
3bd_Grossjean_2025
     RDKit          3D

 43 45  0  0  0  0  0  0  0  0999 V2000
  133.8790  123.4160   60.2290 C   0  0  0  0  0  0  0  0  0  0  0  0
  132.6210  122.6610   60.6530 C   0  0  0  0  0  0  0  0  0  0  0  0
  132.5080  121.3120   60.2980 C   0  0  0  0  0  0  0  0  0  0  0  0
  131.3680  120.5860   60.6640 C   0  0  0  0  0  0  0  0  0  0  0  0
  131.1850  119.1370   60.3200 C   0  0  0  0  0  0  0  0  0  0  0  0
  131.9430  118.5410   59.2990 C   0  0  0  0  0  0  0  0  0  0  0  0
  131.7760  117.1970   58.9730 C   0  0  0  0  0  0  0  0  0  0  0  0
  130.8460  116.4290   59.6660 C   0  0  0  0  0  0  0  0  0  0  0  0
  130.0800  116.9960   60.6790 C   0  0  0  0  0  0  0  0  0  0  0  0
  130.2490  118.3400   61.0010 C   0  0  0  0  0  0  0  0  0  0  0  0
  130.3700  121.1710   61.3750 N   0  0  0  0  0  0  0  0  0  0  0  0
  130.4620  122.4780   61.7280 C   0  0  0  0  0  0  0  0  0  0  0  0
  129.0800  123.1310   62.6500 S   0  0  0  0  0  0  0  0  0  0  0  0
  128.0270  124.0670   61.5000 C   0  0  0  0  0  0  0  0  0  0  0  0
  127.6090  123.2260   60.2930 C   0  0  0  0  0  0  0  0  0  0  0  0
  127.5720  122.0000   60.4010 O   0  0  0  0  0  0  0  0  0  0  0  0
  127.3200  123.9190   59.1700 N   0  0  0  0  0  0  0  0  0  0  0  0
  126.8850  123.4380   57.9200 C   0  0  0  0  0  0  0  0  0  0  0  0
  125.5300  123.1100   57.8250 C   0  0  0  0  0  0  0  0  0  0  0  0
  125.0100  122.6180   56.6310 C   0  0  0  0  0  0  0  0  0  0  0  0
  125.8480  122.4440   55.5330 C   0  0  0  0  0  0  0  0  0  0  0  0
  127.2030  122.7540   55.6190 C   0  0  0  0  0  0  0  0  0  0  0  0
  127.7260  123.2470   56.8120 C   0  0  0  0  0  0  0  0  0  0  0  0
  131.5790  123.2710   61.3840 C   0  0  0  0  0  0  0  0  0  0  0  0
  131.6680  124.6820   61.7720 C   0  0  0  0  0  0  0  0  0  0  0  0
  131.7400  125.7950   62.0790 N   0  0  0  0  0  0  0  0  0  0  0  0
  134.4279  123.7454   61.1235 H   0  0  0  0  0  0  0  0  0  0  0  0
  134.5198  122.7531   59.6290 H   0  0  0  0  0  0  0  0  0  0  0  0
  133.5954  124.2933   59.6290 H   0  0  0  0  0  0  0  0  0  0  0  0
  133.3141  120.8224   59.7319 H   0  0  0  0  0  0  0  0  0  0  0  0
  132.6796  119.1445   58.7484 H   0  0  0  0  0  0  0  0  0  0  0  0
  132.3773  116.7447   58.1706 H   0  0  0  0  0  0  0  0  0  0  0  0
  130.7156  115.3669   59.4113 H   0  0  0  0  0  0  0  0  0  0  0  0
  129.3442  116.3856   61.2231 H   0  0  0  0  0  0  0  0  0  0  0  0
  129.6400  118.7853   61.8015 H   0  0  0  0  0  0  0  0  0  0  0  0
  127.1232  124.3962   62.0337 H   0  0  0  0  0  0  0  0  0  0  0  0
  128.6063  124.9264   61.1314 H   0  0  0  0  0  0  0  0  0  0  0  0
  127.4840  124.9140   59.2020 H   0  0  0  0  0  0  0  0  0  0  0  0
  124.8719  123.2410   58.6967 H   0  0  0  0  0  0  0  0  0  0  0  0
  123.9415  122.3678   56.5555 H   0  0  0  0  0  0  0  0  0  0  0  0
  125.4361  122.0581   54.5888 H   0  0  0  0  0  0  0  0  0  0  0  0
  127.8583  122.6099   54.7473 H   0  0  0  0  0  0  0  0  0  0  0  0
  128.7970  123.4865   56.8861 H   0  0  0  0  0  0  0  0  0  0  0  0
  1  2  1  0
  2  3  2  0
  3  4  1  0
  4  5  1  0
  5  6  2  0
  6  7  1  0
  7  8  2  0
  8  9  1  0
  9 10  2  0
  4 11  2  0
 11 12  1  0
 12 13  1  0
 13 14  1  0
 14 15  1  0
 15 16  2  0
 15 17  1  0
 17 18  1  0
 18 19  2  0
 19 20  1  0
 20 21  2  0
 21 22  1  0
 22 23  2  0
 12 24  2  0
 24 25  1  0
 25 26  3  0
 24  2  1  0
 10  5  1  0
 23 18  1  0
  1 27  1  0
  1 28  1  0
  1 29  1  0
  3 30  1  0
  6 31  1  0
  7 32  1  0
  8 33  1  0
  9 34  1  0
 10 35  1  0
 14 36  1  0
 14 37  1  0
 17 38  1  0
 19 39  1  0
 20 40  1  0
 21 41  1  0
 22 42  1  0
 23 43  1  0
M  END
>  <Binding energies>  (1) 
[-8.84]

>  <Ligand effiencies>  (1) 
[-0.3274074074074074]

>  <Interactions>  (1) 
["V-B:TYR:539:CD1:9845, V-B:ILE:538:CD1:9837, V-B:PRO:540:CB:9857, V-B:PRO:540:CD:9859, V-B:LEU:363:CD1:8161, V-B:GLU:543:CD:9880, V-B:PRO:540:CA:9855, V-B:ILE:538:CG2:9835, V-B:TYR:539:CE2:9848, V-B:TYR:539:CD2:9846, V-B:ILE:538:CA:9832, V-B:MET:535:CE:9807, V-B:TYR:539:CZ:9849, V-B:TYR:539:CE1:9847, V-B:PRO:540:N:9856, V-A:SER:385:CB:3409, V-A:PRO:482:CB:4326, V-A:LEU:475:CD1:4258, H-A:TYR:484:OH:4348, V-B:TYR:539:CG:9844, V-A:LEU:475:CD2:4259, V-A:ILE:369:CD1:3239, V-A:LEU:475:CG:4257, V-A:ILE:369:CB:3236, V-A:ILE:369:CG2:3237, V-A:PRO:482:CG:4327, V-B:ILE:538:C:9830, V-B:ILE:538:CB:9834, H-B:ALA:541:N:9863, H-A:ARG:545:NH2:4928, V-B:TYR:539:CB:9843, V-A:LEU:373:CD1:3280, V-A:HIS:383:CE1:3394, V-A:ILE:369:CG1:3238"]

$$$$
3be_Grossjean_2025
     RDKit          3D

 45 47  0  0  0  0  0  0  0  0999 V2000
  127.2060  122.4070   54.9960 C   0  0  0  0  0  0  0  0  0  0  0  0
  126.4290  122.8220   56.2300 C   0  0  0  0  0  0  0  0  0  0  0  0
  125.0320  122.8350   56.2450 C   0  0  0  0  0  0  0  0  0  0  0  0
  124.3840  123.2320   57.4150 C   0  0  0  0  0  0  0  0  0  0  0  0
  125.1390  123.6010   58.5310 C   0  0  0  0  0  0  0  0  0  0  0  0
  126.5360  123.5620   58.4500 C   0  0  0  0  0  0  0  0  0  0  0  0
  127.2390  123.9550   59.6040 N   0  0  0  0  0  0  0  0  0  0  0  0
  127.0650  123.5480   60.8800 C   0  0  0  0  0  0  0  0  0  0  0  0
  126.2160  122.7340   61.2450 O   0  0  0  0  0  0  0  0  0  0  0  0
  128.0290  124.1850   61.8940 C   0  0  0  0  0  0  0  0  0  0  0  0
  129.0180  123.0030   62.8720 S   0  0  0  0  0  0  0  0  0  0  0  0
  130.3880  122.4670   61.8710 C   0  0  0  0  0  0  0  0  0  0  0  0
  130.3140  121.1650   61.5000 N   0  0  0  0  0  0  0  0  0  0  0  0
  131.2940  120.6240   60.7290 C   0  0  0  0  0  0  0  0  0  0  0  0
  131.1440  119.1740   60.3750 C   0  0  0  0  0  0  0  0  0  0  0  0
  131.9240  118.5990   59.3590 C   0  0  0  0  0  0  0  0  0  0  0  0
  131.7880  117.2550   59.0240 C   0  0  0  0  0  0  0  0  0  0  0  0
  130.8660  116.4640   59.7010 C   0  0  0  0  0  0  0  0  0  0  0  0
  130.0790  117.0090   60.7100 C   0  0  0  0  0  0  0  0  0  0  0  0
  130.2180  118.3540   61.0420 C   0  0  0  0  0  0  0  0  0  0  0  0
  132.3860  121.3920   60.3120 C   0  0  0  0  0  0  0  0  0  0  0  0
  132.4650  122.7430   60.6660 C   0  0  0  0  0  0  0  0  0  0  0  0
  133.6670  123.5480   60.1730 C   0  0  0  0  0  0  0  0  0  0  0  0
  131.4420  123.3120   61.4550 C   0  0  0  0  0  0  0  0  0  0  0  0
  131.4770  124.7370   61.7900 C   0  0  0  0  0  0  0  0  0  0  0  0
  131.5070  125.8640   62.0540 N   0  0  0  0  0  0  0  0  0  0  0  0
  127.1760  123.1780   57.3070 N   0  0  0  0  0  0  0  0  0  0  0  0
  128.1385  121.9090   55.3001 H   0  0  0  0  0  0  0  0  0  0  0  0
  126.5985  121.7132   54.3963 H   0  0  0  0  0  0  0  0  0  0  0  0
  127.4448  123.2977   54.3963 H   0  0  0  0  0  0  0  0  0  0  0  0
  124.4566  122.5392   55.3554 H   0  0  0  0  0  0  0  0  0  0  0  0
  123.2851  123.2543   57.4585 H   0  0  0  0  0  0  0  0  0  0  0  0
  124.6428  123.9177   59.4602 H   0  0  0  0  0  0  0  0  0  0  0  0
  127.9490  124.6550   59.4450 H   0  0  0  0  0  0  0  0  0  0  0  0
  128.7235  124.8351   61.3417 H   0  0  0  0  0  0  0  0  0  0  0  0
  127.3999  124.7275   62.6150 H   0  0  0  0  0  0  0  0  0  0  0  0
  132.6539  119.2204   58.8194 H   0  0  0  0  0  0  0  0  0  0  0  0
  132.4078  116.8198   58.2263 H   0  0  0  0  0  0  0  0  0  0  0  0
  130.7586  115.4016   59.4370 H   0  0  0  0  0  0  0  0  0  0  0  0
  129.3504  116.3805   61.2431 H   0  0  0  0  0  0  0  0  0  0  0  0
  129.5927  118.7818   61.8395 H   0  0  0  0  0  0  0  0  0  0  0  0
  133.1819  120.9341   59.7063 H   0  0  0  0  0  0  0  0  0  0  0  0
  134.2333  123.9273   61.0364 H   0  0  0  0  0  0  0  0  0  0  0  0
  134.3162  122.9018   59.5639 H   0  0  0  0  0  0  0  0  0  0  0  0
  133.3166  124.3943   59.5639 H   0  0  0  0  0  0  0  0  0  0  0  0
  1  2  1  0
  2  3  2  0
  3  4  1  0
  4  5  2  0
  5  6  1  0
  6  7  1  0
  7  8  1  0
  8  9  2  0
  8 10  1  0
 10 11  1  0
 11 12  1  0
 12 13  2  0
 13 14  1  0
 14 15  1  0
 15 16  2  0
 16 17  1  0
 17 18  2  0
 18 19  1  0
 19 20  2  0
 14 21  2  0
 21 22  1  0
 22 23  1  0
 22 24  2  0
 24 25  1  0
 25 26  3  0
  6 27  2  0
 27  2  1  0
 24 12  1  0
 20 15  1  0
  1 28  1  0
  1 29  1  0
  1 30  1  0
  3 31  1  0
  4 32  1  0
  5 33  1  0
  7 34  1  0
 10 35  1  0
 10 36  1  0
 16 37  1  0
 17 38  1  0
 18 39  1  0
 19 40  1  0
 20 41  1  0
 21 42  1  0
 23 43  1  0
 23 44  1  0
 23 45  1  0
M  END
>  <Binding energies>  (1) 
[-9.39]

>  <Ligand effiencies>  (1) 
[-0.33535714285714285]

>  <Interactions>  (1) 
["V-B:TYR:539:CD1:9845, V-B:ILE:538:CD1:9837, V-B:PRO:540:CB:9857, V-B:PRO:540:CD:9859, V-B:LEU:363:CD1:8161, V-B:GLU:543:CD:9880, V-B:PRO:540:CA:9855, V-B:ILE:538:CG2:9835, V-B:TYR:539:CE2:9848, V-B:TYR:539:CD2:9846, V-B:ILE:538:CA:9832, V-B:MET:535:CE:9807, V-B:TYR:539:CE1:9847, V-B:PRO:540:N:9856, V-B:TYR:531:CE2:9765, V-A:SER:385:CB:3409, V-A:PRO:482:CB:4326, V-A:LEU:475:CD1:4258, H-A:TYR:484:OH:4348, V-B:TYR:539:CG:9844, V-A:LEU:475:CD2:4259, V-B:TYR:531:CZ:9766, V-A:ILE:369:CD1:3239, V-A:LEU:475:CG:4257, V-A:ILE:369:CB:3236, V-A:ILE:369:CG2:3237, V-A:PRO:482:CG:4327, V-B:ILE:538:C:9830, H-B:ALA:541:N:9863, H-A:ARG:545:NH2:4928, V-B:TYR:539:CB:9843, V-B:PRO:540:CG:9858, V-A:LEU:373:CD1:3280, V-A:HIS:383:CE1:3394"]

$$$$
3bf_Grossjean_2025
     RDKit          3D

 42 44  0  0  0  0  0  0  0  0999 V2000
  133.9570  123.3300   60.6410 C   0  0  0  0  0  0  0  0  0  0  0  0
  132.6390  122.6030   60.9020 C   0  0  0  0  0  0  0  0  0  0  0  0
  132.5340  121.2660   60.5040 C   0  0  0  0  0  0  0  0  0  0  0  0
  131.3500  120.5580   60.7370 C   0  0  0  0  0  0  0  0  0  0  0  0
  131.1810  119.1180   60.3550 C   0  0  0  0  0  0  0  0  0  0  0  0
  130.2280  118.3140   60.9990 C   0  0  0  0  0  0  0  0  0  0  0  0
  130.0660  116.9760   60.6500 C   0  0  0  0  0  0  0  0  0  0  0  0
  130.8580  116.4230   59.6490 C   0  0  0  0  0  0  0  0  0  0  0  0
  131.8100  117.1980   58.9970 C   0  0  0  0  0  0  0  0  0  0  0  0
  131.9700  118.5360   59.3500 C   0  0  0  0  0  0  0  0  0  0  0  0
  130.2910  121.1530   61.3490 N   0  0  0  0  0  0  0  0  0  0  0  0
  130.3690  122.4550   61.7180 C   0  0  0  0  0  0  0  0  0  0  0  0
  128.8890  123.0650   62.4970 S   0  0  0  0  0  0  0  0  0  0  0  0
  128.1470  124.3190   61.3980 C   0  0  0  0  0  0  0  0  0  0  0  0
  128.0700  123.9240   59.9160 C   0  0  0  0  0  0  0  0  0  0  0  0
  129.0720  123.9690   59.2010 O   0  0  0  0  0  0  0  0  0  0  0  0
  126.8510  123.5110   59.5060 N   0  0  0  0  0  0  0  0  0  0  0  0
  126.4450  123.0950   58.2240 C   0  0  0  0  0  0  0  0  0  0  0  0
  125.1390  123.4130   57.8340 C   0  0  0  0  0  0  0  0  0  0  0  0
  124.6810  123.0400   56.5680 C   0  0  0  0  0  0  0  0  0  0  0  0
  125.5520  122.3580   55.7190 C   0  0  0  0  0  0  0  0  0  0  0  0
  126.8260  122.0460   56.0670 N   0  0  0  0  0  0  0  0  0  0  0  0
  127.2580  122.4150   57.3000 C   0  0  0  0  0  0  0  0  0  0  0  0
  131.5390  123.2240   61.5310 C   0  0  0  0  0  0  0  0  0  0  0  0
  131.6450  124.6080   62.0010 C   0  0  0  0  0  0  0  0  0  0  0  0
  131.7300  125.7020   62.3700 N   0  0  0  0  0  0  0  0  0  0  0  0
  134.4285  123.5901   61.6002 H   0  0  0  0  0  0  0  0  0  0  0  0
  134.6296  122.6753   60.0674 H   0  0  0  0  0  0  0  0  0  0  0  0
  133.7620  124.2481   60.0674 H   0  0  0  0  0  0  0  0  0  0  0  0
  133.3822  120.7715   60.0080 H   0  0  0  0  0  0  0  0  0  0  0  0
  129.5998  118.7473   61.7912 H   0  0  0  0  0  0  0  0  0  0  0  0
  129.3146  116.3585   61.1638 H   0  0  0  0  0  0  0  0  0  0  0  0
  130.7301  115.3662   59.3718 H   0  0  0  0  0  0  0  0  0  0  0  0
  132.4342  116.7568   58.2059 H   0  0  0  0  0  0  0  0  0  0  0  0
  132.7259  119.1458   58.8336 H   0  0  0  0  0  0  0  0  0  0  0  0
  127.1245  124.5188   61.7508 H   0  0  0  0  0  0  0  0  0  0  0  0
  128.8072  125.1975   61.4466 H   0  0  0  0  0  0  0  0  0  0  0  0
  126.1360  123.4440   60.2150 H   0  0  0  0  0  0  0  0  0  0  0  0
  124.4747  123.9554   58.5228 H   0  0  0  0  0  0  0  0  0  0  0  0
  123.6561  123.2790   56.2480 H   0  0  0  0  0  0  0  0  0  0  0  0
  125.1906  122.0599   54.7237 H   0  0  0  0  0  0  0  0  0  0  0  0
  128.2908  122.1710   57.5893 H   0  0  0  0  0  0  0  0  0  0  0  0
  1  2  1  0
  2  3  2  0
  3  4  1  0
  4  5  1  0
  5  6  2  0
  6  7  1  0
  7  8  2  0
  8  9  1  0
  9 10  2  0
  4 11  2  0
 11 12  1  0
 12 13  1  0
 13 14  1  0
 14 15  1  0
 15 16  2  0
 15 17  1  0
 17 18  1  0
 18 19  2  0
 19 20  1  0
 20 21  2  0
 21 22  1  0
 22 23  2  0
 12 24  2  0
 24 25  1  0
 25 26  3  0
 24  2  1  0
 10  5  1  0
 23 18  1  0
  1 27  1  0
  1 28  1  0
  1 29  1  0
  3 30  1  0
  6 31  1  0
  7 32  1  0
  8 33  1  0
  9 34  1  0
 10 35  1  0
 14 36  1  0
 14 37  1  0
 17 38  1  0
 19 39  1  0
 20 40  1  0
 21 41  1  0
 23 42  1  0
M  END
>  <Binding energies>  (1) 
[-8.9]

>  <Ligand effiencies>  (1) 
[-0.32962962962962966]

>  <Interactions>  (1) 
["V-B:TYR:539:CD1:9845, V-B:ILE:538:CD1:9837, V-B:PRO:540:CB:9857, V-B:PRO:540:CD:9859, V-B:LEU:363:CD1:8161, V-B:GLU:543:CD:9880, V-B:TYR:539:C:9839, V-B:PRO:540:CA:9855, H-B:TYR:539:N:9842, V-B:ILE:538:CG2:9835, V-B:TYR:539:CE2:9848, V-B:TYR:539:CD2:9846, V-B:ILE:538:CA:9832, H-B:ASP:366:OD2:8187, V-B:PRO:540:N:9856, V-B:TYR:531:CE2:9765, V-A:SER:385:CB:3409, V-A:PRO:482:CB:4326, V-A:LEU:475:CD1:4258, H-A:TYR:484:OH:4348, V-B:TYR:539:CG:9844, V-A:LEU:475:CD2:4259, V-B:TYR:531:CZ:9766, V-A:ILE:369:CD1:3239, V-A:LEU:475:CG:4257, V-A:ILE:369:CB:3236, V-A:ILE:369:CG2:3237, V-A:PRO:482:CG:4327, V-B:ILE:538:C:9830, V-B:ILE:538:CB:9834, V-B:TYR:539:CA:9841, H-A:ARG:545:NH2:4928, V-B:TYR:539:CB:9843, V-A:LEU:373:CD1:3280, V-A:HIS:383:CE1:3394"]

$$$$
3bg_Grossjean_2025
     RDKit          3D

 46 48  0  0  0  0  0  0  0  0999 V2000
  133.8410  123.3460   60.5780 C   0  0  0  0  0  0  0  0  0  0  0  0
  132.5290  122.6100   60.8380 C   0  0  0  0  0  0  0  0  0  0  0  0
  132.4330  121.2710   60.4450 C   0  0  0  0  0  0  0  0  0  0  0  0
  131.2490  120.5550   60.6720 C   0  0  0  0  0  0  0  0  0  0  0  0
  131.0840  119.1120   60.2840 C   0  0  0  0  0  0  0  0  0  0  0  0
  131.8820  118.5350   59.2820 C   0  0  0  0  0  0  0  0  0  0  0  0
  131.7450  117.1950   58.9330 C   0  0  0  0  0  0  0  0  0  0  0  0
  130.8010  116.4060   59.5820 C   0  0  0  0  0  0  0  0  0  0  0  0
  129.9900  116.9520   60.5690 C   0  0  0  0  0  0  0  0  0  0  0  0
  130.1290  118.2930   60.9130 C   0  0  0  0  0  0  0  0  0  0  0  0
  130.1930  121.1470   61.2900 N   0  0  0  0  0  0  0  0  0  0  0  0
  130.2700  122.4450   61.6810 C   0  0  0  0  0  0  0  0  0  0  0  0
  128.8270  123.0910   62.5110 S   0  0  0  0  0  0  0  0  0  0  0  0
  128.4720  124.7460   61.8360 C   0  0  0  0  0  0  0  0  0  0  0  0
  127.1260  124.7880   61.1060 C   0  0  0  0  0  0  0  0  0  0  0  0
  126.2770  125.6180   61.4300 O   0  0  0  0  0  0  0  0  0  0  0  0
  126.9410  123.8700   60.1410 N   0  0  0  0  0  0  0  0  0  0  0  0
  125.6790  123.6110   59.4460 C   0  0  0  0  0  0  0  0  0  0  0  0
  125.9060  123.1780   58.0030 C   0  0  0  0  0  0  0  0  0  0  0  0
  127.2030  123.1360   57.4800 C   0  0  0  0  0  0  0  0  0  0  0  0
  127.4100  122.7500   56.1590 C   0  0  0  0  0  0  0  0  0  0  0  0
  126.3200  122.3960   55.3660 C   0  0  0  0  0  0  0  0  0  0  0  0
  125.0280  122.4160   55.8850 C   0  0  0  0  0  0  0  0  0  0  0  0
  124.8210  122.8030   57.2070 C   0  0  0  0  0  0  0  0  0  0  0  0
  131.4250  123.2250   61.4660 C   0  0  0  0  0  0  0  0  0  0  0  0
  131.4980  124.6240   61.8960 C   0  0  0  0  0  0  0  0  0  0  0  0
  131.5580  125.7280   62.2350 N   0  0  0  0  0  0  0  0  0  0  0  0
  134.3102  123.6092   61.5375 H   0  0  0  0  0  0  0  0  0  0  0  0
  134.5185  122.6963   60.0046 H   0  0  0  0  0  0  0  0  0  0  0  0
  133.6397  124.2629   60.0046 H   0  0  0  0  0  0  0  0  0  0  0  0
  133.2875  120.7791   59.9572 H   0  0  0  0  0  0  0  0  0  0  0  0
  132.6291  119.1541   58.7637 H   0  0  0  0  0  0  0  0  0  0  0  0
  132.3807  116.7613   58.1470 H   0  0  0  0  0  0  0  0  0  0  0  0
  130.6961  115.3447   59.3125 H   0  0  0  0  0  0  0  0  0  0  0  0
  129.2409  116.3266   61.0766 H   0  0  0  0  0  0  0  0  0  0  0  0
  129.4799  118.7206   61.6914 H   0  0  0  0  0  0  0  0  0  0  0  0
  128.4507  125.4705   62.6634 H   0  0  0  0  0  0  0  0  0  0  0  0
  129.2610  124.9952   61.1112 H   0  0  0  0  0  0  0  0  0  0  0  0
  127.6920  123.2250   59.9460 H   0  0  0  0  0  0  0  0  0  0  0  0
  125.1378  122.8134   59.9761 H   0  0  0  0  0  0  0  0  0  0  0  0
  125.0969  124.5443   59.4353 H   0  0  0  0  0  0  0  0  0  0  0  0
  128.0600  123.4083   58.1136 H   0  0  0  0  0  0  0  0  0  0  0  0
  128.4281  122.7245   55.7432 H   0  0  0  0  0  0  0  0  0  0  0  0
  126.4819  122.0978   54.3196 H   0  0  0  0  0  0  0  0  0  0  0  0
  124.1746  122.1275   55.2538 H   0  0  0  0  0  0  0  0  0  0  0  0
  123.8032  122.8133   57.6242 H   0  0  0  0  0  0  0  0  0  0  0  0
  1  2  1  0
  2  3  2  0
  3  4  1  0
  4  5  1  0
  5  6  2  0
  6  7  1  0
  7  8  2  0
  8  9  1  0
  9 10  2  0
  4 11  2  0
 11 12  1  0
 12 13  1  0
 13 14  1  0
 14 15  1  0
 15 16  2  0
 15 17  1  0
 17 18  1  0
 18 19  1  0
 19 20  2  0
 20 21  1  0
 21 22  2  0
 22 23  1  0
 23 24  2  0
 12 25  2  0
 25 26  1  0
 26 27  3  0
 25  2  1  0
 10  5  1  0
 24 19  1  0
  1 28  1  0
  1 29  1  0
  1 30  1  0
  3 31  1  0
  6 32  1  0
  7 33  1  0
  8 34  1  0
  9 35  1  0
 10 36  1  0
 14 37  1  0
 14 38  1  0
 17 39  1  0
 18 40  1  0
 18 41  1  0
 20 42  1  0
 21 43  1  0
 22 44  1  0
 23 45  1  0
 24 46  1  0
M  END
>  <Binding energies>  (1) 
[-8.84]

>  <Ligand effiencies>  (1) 
[-0.3157142857142857]

>  <Interactions>  (1) 
["V-B:TYR:539:CD1:9845, V-B:ILE:538:CD1:9837, V-B:PRO:540:CB:9857, V-B:PRO:540:CD:9859, V-B:LEU:363:CD1:8161, V-B:GLU:543:CD:9880, V-B:TYR:539:C:9839, V-B:PRO:540:CA:9855, V-B:ILE:538:CG2:9835, V-B:TYR:539:CE2:9848, V-B:TYR:539:CD2:9846, V-B:ILE:538:CA:9832, V-B:MET:535:CE:9807, V-B:TYR:539:CZ:9849, V-B:TYR:539:CE1:9847, V-B:PRO:540:N:9856, V-B:TYR:531:CE2:9765, V-A:SER:385:CB:3409, V-A:PRO:482:CB:4326, V-A:LEU:475:CD1:4258, H-A:TYR:484:OH:4348, V-B:TYR:539:CG:9844, V-A:LEU:475:CD2:4259, V-A:ILE:369:CD1:3239, V-A:ILE:369:CG2:3237, V-A:PRO:482:CG:4327, V-B:ILE:538:C:9830, V-B:ILE:538:CB:9834, H-B:ARG:545:NH2:9900, H-A:ARG:545:NH2:4928, V-B:TYR:539:CB:9843, V-B:PRO:540:CG:9858, V-A:LEU:373:CD1:3280, V-A:HIS:383:CE1:3394"]

$$$$
3bk_Grossjean_2025
     RDKit          3D

 57 58  0  0  0  0  0  0  0  0999 V2000
  131.8420  132.5010   55.5260 C   0  0  0  0  0  0  0  0  0  0  0  0
  130.5570  133.0740   55.3430 O   0  0  0  0  0  0  0  0  0  0  0  0
  129.6350  132.2040   54.7000 C   0  0  0  0  0  0  0  0  0  0  0  0
  128.3520  132.1040   55.5360 C   0  0  0  0  0  0  0  0  0  0  0  0
  127.4630  131.1790   54.9260 O   0  0  0  0  0  0  0  0  0  0  0  0
  127.0650  130.1150   55.7820 C   0  0  0  0  0  0  0  0  0  0  0  0
  127.4470  128.7770   55.1380 C   0  0  0  0  0  0  0  0  0  0  0  0
  126.8910  127.7120   55.8970 O   0  0  0  0  0  0  0  0  0  0  0  0
  127.8430  127.0090   56.6860 C   0  0  0  0  0  0  0  0  0  0  0  0
  129.2540  127.2750   56.1410 C   0  0  0  0  0  0  0  0  0  0  0  0
  130.2780  126.5020   56.8450 N   0  0  0  0  0  0  0  0  0  0  0  0
  131.4900  126.1860   56.3580 C   0  0  0  0  0  0  0  0  0  0  0  0
  131.8920  126.5340   55.2470 O   0  0  0  0  0  0  0  0  0  0  0  0
  132.4030  125.3710   57.2770 C   0  0  0  0  0  0  0  0  0  0  0  0
  131.9180  125.5200   59.0260 S   0  0  0  0  0  0  0  0  0  0  0  0
  130.6990  124.2700   59.3990 C   0  0  0  0  0  0  0  0  0  0  0  0
  129.6530  124.1850   58.5380 N   0  0  0  0  0  0  0  0  0  0  0  0
  128.6750  123.2650   58.7440 C   0  0  0  0  0  0  0  0  0  0  0  0
  127.5680  123.2250   57.7350 C   0  0  0  0  0  0  0  0  0  0  0  0
  126.2240  123.2590   58.1410 C   0  0  0  0  0  0  0  0  0  0  0  0
  125.1920  123.2160   57.2070 C   0  0  0  0  0  0  0  0  0  0  0  0
  125.4900  123.1400   55.8510 C   0  0  0  0  0  0  0  0  0  0  0  0
  126.8130  123.1090   55.4220 C   0  0  0  0  0  0  0  0  0  0  0  0
  127.8420  123.1540   56.3580 C   0  0  0  0  0  0  0  0  0  0  0  0
  128.7310  122.3910   59.8360 C   0  0  0  0  0  0  0  0  0  0  0  0
  129.8020  122.4650   60.7350 C   0  0  0  0  0  0  0  0  0  0  0  0
  129.8240  121.4930   61.9130 C   0  0  0  0  0  0  0  0  0  0  0  0
  130.8150  123.4220   60.5220 C   0  0  0  0  0  0  0  0  0  0  0  0
  131.9500  123.5210   61.4450 C   0  0  0  0  0  0  0  0  0  0  0  0
  132.8450  123.6000   62.1750 N   0  0  0  0  0  0  0  0  0  0  0  0
  132.0519  132.4074   56.6017 H   0  0  0  0  0  0  0  0  0  0  0  0
  131.8694  131.5054   55.0591 H   0  0  0  0  0  0  0  0  0  0  0  0
  132.6009  133.1460   55.0591 H   0  0  0  0  0  0  0  0  0  0  0  0
  129.3922  132.6002   53.7030 H   0  0  0  0  0  0  0  0  0  0  0  0
  130.0845  131.2050   54.6001 H   0  0  0  0  0  0  0  0  0  0  0  0
  128.6009  131.7595   56.5506 H   0  0  0  0  0  0  0  0  0  0  0  0
  127.8723  133.0922   55.5929 H   0  0  0  0  0  0  0  0  0  0  0  0
  127.5734  130.2142   56.7524 H   0  0  0  0  0  0  0  0  0  0  0  0
  125.9764  130.1528   55.9354 H   0  0  0  0  0  0  0  0  0  0  0  0
  127.0554  128.7391   54.1108 H   0  0  0  0  0  0  0  0  0  0  0  0
  128.5424  128.6795   55.1157 H   0  0  0  0  0  0  0  0  0  0  0  0
  127.7814  127.3537   57.7288 H   0  0  0  0  0  0  0  0  0  0  0  0
  127.6303  125.9306   56.6438 H   0  0  0  0  0  0  0  0  0  0  0  0
  129.2779  127.0048   55.0750 H   0  0  0  0  0  0  0  0  0  0  0  0
  129.4763  128.3418   56.2911 H   0  0  0  0  0  0  0  0  0  0  0  0
  130.0510  126.2280   57.7900 H   0  0  0  0  0  0  0  0  0  0  0  0
  132.3499  124.3125   56.9826 H   0  0  0  0  0  0  0  0  0  0  0  0
  133.4260  125.7617   57.1734 H   0  0  0  0  0  0  0  0  0  0  0  0
  125.9830  123.3205   59.2125 H   0  0  0  0  0  0  0  0  0  0  0  0
  124.1442  123.2421   57.5410 H   0  0  0  0  0  0  0  0  0  0  0  0
  124.6749  123.1042   55.1132 H   0  0  0  0  0  0  0  0  0  0  0  0
  127.0447  123.0492   54.3483 H   0  0  0  0  0  0  0  0  0  0  0  0
  128.8869  123.1337   56.0147 H   0  0  0  0  0  0  0  0  0  0  0  0
  127.9349  121.6472   59.9877 H   0  0  0  0  0  0  0  0  0  0  0  0
  129.8112  122.0593   62.8559 H   0  0  0  0  0  0  0  0  0  0  0  0
  128.9404  120.8395   61.8657 H   0  0  0  0  0  0  0  0  0  0  0  0
  130.7362  120.8802   61.8657 H   0  0  0  0  0  0  0  0  0  0  0  0
  1  2  1  0
  2  3  1  0
  3  4  1  0
  4  5  1  0
  5  6  1  0
  6  7  1  0
  7  8  1  0
  8  9  1  0
  9 10  1  0
 10 11  1  0
 11 12  1  0
 12 13  2  0
 12 14  1  0
 14 15  1  0
 15 16  1  0
 16 17  2  0
 17 18  1  0
 18 19  1  0
 19 20  2  0
 20 21  1  0
 21 22  2  0
 22 23  1  0
 23 24  2  0
 18 25  2  0
 25 26  1  0
 26 27  1  0
 26 28  2  0
 28 29  1  0
 29 30  3  0
 28 16  1  0
 24 19  1  0
  1 31  1  0
  1 32  1  0
  1 33  1  0
  3 34  1  0
  3 35  1  0
  4 36  1  0
  4 37  1  0
  6 38  1  0
  6 39  1  0
  7 40  1  0
  7 41  1  0
  9 42  1  0
  9 43  1  0
 10 44  1  0
 10 45  1  0
 11 46  1  0
 14 47  1  0
 14 48  1  0
 20 49  1  0
 21 50  1  0
 22 51  1  0
 23 52  1  0
 24 53  1  0
 25 54  1  0
 27 55  1  0
 27 56  1  0
 27 57  1  0
M  END
>  <Binding energies>  (1) 
[-8.06]

>  <Ligand effiencies>  (1) 
[-0.26]

>  <Interactions>  (1) 
["V-B:TYR:539:CD1:9845, V-B:ILE:538:CD1:9837, V-B:PRO:540:CB:9857, V-B:PRO:540:CD:9859, V-B:TYR:539:C:9839, V-B:PRO:540:CA:9855, V-B:TYR:539:CE2:9848, V-B:TYR:539:CD2:9846, V-B:ILE:538:CA:9832, V-B:MET:535:CE:9807, V-B:ALA:541:CB:9864, V-B:TYR:539:CZ:9849, V-B:TYR:539:CE1:9847, V-B:PRO:540:N:9856, V-B:TYR:531:CE2:9765, H-A:TYR:484:OH:4348, V-B:TYR:539:CG:9844, V-A:LEU:475:CD2:4259, V-B:TYR:531:CZ:9766, V-A:ASP:366:CB:3212, V-A:TYR:539:CE1:4875, H-A:TYR:539:N:4870, V-A:TYR:539:CZ:4877, V-A:PRO:540:N:4884, V-A:TYR:539:CE2:4876, H-B:LYS:534:NZ:9795, V-A:LEU:363:CD1:3189, H-A:GLY:454:N:4050, V-A:PRO:540:CD:4887, H-B:TYR:539:OH:9850, H-B:TYR:531:OH:9767, V-A:ILE:538:CA:4860, V-A:ILE:538:CB:4862, V-A:ILE:538:CG2:4863, H-A:TYR:531:OH:4795, V-A:TYR:539:CD2:4874, V-A:TYR:539:CG:4872, V-A:TYR:539:CD1:4873, V-A:TYR:484:CE1:4345"]

$$$$
3ca_Grossjean_2025
     RDKit          3D

 52 54  0  0  0  0  0  0  0  0999 V2000
  128.4140  131.8320   54.5410 C   0  0  0  0  0  0  0  0  0  0  0  0
  129.7400  132.4960   54.1610 C   0  0  0  0  0  0  0  0  0  0  0  0
  130.2390  133.2280   55.2750 O   0  0  0  0  0  0  0  0  0  0  0  0
  131.3810  132.8540   55.9050 C   0  0  0  0  0  0  0  0  0  0  0  0
  132.5030  133.2490   55.5730 O   0  0  0  0  0  0  0  0  0  0  0  0
  131.1440  131.9150   57.0540 C   0  0  0  0  0  0  0  0  0  0  0  0
  131.9800  130.8020   57.2110 C   0  0  0  0  0  0  0  0  0  0  0  0
  131.7860  129.9140   58.2660 C   0  0  0  0  0  0  0  0  0  0  0  0
  130.7490  130.1150   59.1790 C   0  0  0  0  0  0  0  0  0  0  0  0
  130.6430  129.1590   60.2060 N   0  0  0  0  0  0  0  0  0  0  0  0
  130.2460  127.8690   60.1460 C   0  0  0  0  0  0  0  0  0  0  0  0
  129.9090  127.2750   59.1220 O   0  0  0  0  0  0  0  0  0  0  0  0
  130.2510  127.1190   61.4820 C   0  0  0  0  0  0  0  0  0  0  0  0
  128.6320  126.3960   61.9070 S   0  0  0  0  0  0  0  0  0  0  0  0
  128.4250  124.8340   61.0610 C   0  0  0  0  0  0  0  0  0  0  0  0
  128.9860  123.7580   61.6680 N   0  0  0  0  0  0  0  0  0  0  0  0
  128.8510  122.5420   61.0960 C   0  0  0  0  0  0  0  0  0  0  0  0
  129.4910  121.3890   61.8430 C   0  0  0  0  0  0  0  0  0  0  0  0
  128.1700  122.3500   59.8970 C   0  0  0  0  0  0  0  0  0  0  0  0
  127.5970  123.4470   59.2410 C   0  0  0  0  0  0  0  0  0  0  0  0
  126.8880  123.1940   57.9510 C   0  0  0  0  0  0  0  0  0  0  0  0
  127.6200  122.9730   56.7780 C   0  0  0  0  0  0  0  0  0  0  0  0
  126.9680  122.7460   55.5690 C   0  0  0  0  0  0  0  0  0  0  0  0
  125.5760  122.7440   55.5270 C   0  0  0  0  0  0  0  0  0  0  0  0
  124.8320  122.9690   56.6830 C   0  0  0  0  0  0  0  0  0  0  0  0
  125.4890  123.1970   57.8900 C   0  0  0  0  0  0  0  0  0  0  0  0
  127.7170  124.7270   59.8400 C   0  0  0  0  0  0  0  0  0  0  0  0
  127.0940  125.9050   59.2270 C   0  0  0  0  0  0  0  0  0  0  0  0
  126.6010  126.8340   58.7420 N   0  0  0  0  0  0  0  0  0  0  0  0
  129.9120  131.2320   59.0330 C   0  0  0  0  0  0  0  0  0  0  0  0
  130.1090  132.1200   57.9790 C   0  0  0  0  0  0  0  0  0  0  0  0
  128.3266  131.7882   55.6366 H   0  0  0  0  0  0  0  0  0  0  0  0
  127.5792  132.4184   54.1297 H   0  0  0  0  0  0  0  0  0  0  0  0
  128.3835  130.8122   54.1297 H   0  0  0  0  0  0  0  0  0  0  0  0
  130.4682  131.7232   53.8738 H   0  0  0  0  0  0  0  0  0  0  0  0
  129.5790  133.1799   53.3146 H   0  0  0  0  0  0  0  0  0  0  0  0
  132.7966  130.6280   56.4949 H   0  0  0  0  0  0  0  0  0  0  0  0
  132.4545  129.0480   58.3809 H   0  0  0  0  0  0  0  0  0  0  0  0
  130.9590  129.4840   61.1080 H   0  0  0  0  0  0  0  0  0  0  0  0
  130.9917  126.3078   61.4246 H   0  0  0  0  0  0  0  0  0  0  0  0
  130.4981  127.8500   62.2659 H   0  0  0  0  0  0  0  0  0  0  0  0
  129.3978  121.5570   62.9261 H   0  0  0  0  0  0  0  0  0  0  0  0
  128.9846  120.4507   61.5725 H   0  0  0  0  0  0  0  0  0  0  0  0
  130.5552  121.3225   61.5725 H   0  0  0  0  0  0  0  0  0  0  0  0
  128.0823  121.3414   59.4668 H   0  0  0  0  0  0  0  0  0  0  0  0
  128.7195  122.9788   56.8120 H   0  0  0  0  0  0  0  0  0  0  0  0
  127.5492  122.5692   54.6520 H   0  0  0  0  0  0  0  0  0  0  0  0
  125.0595  122.5632   54.5728 H   0  0  0  0  0  0  0  0  0  0  0  0
  123.7327  122.9666   56.6430 H   0  0  0  0  0  0  0  0  0  0  0  0
  124.9038  123.3810   58.8031 H   0  0  0  0  0  0  0  0  0  0  0  0
  129.0987  131.4062   59.7528 H   0  0  0  0  0  0  0  0  0  0  0  0
  129.4464  132.9913   57.8703 H   0  0  0  0  0  0  0  0  0  0  0  0
  1  2  1  0
  2  3  1  0
  3  4  1  0
  4  5  2  0
  4  6  1  0
  6  7  2  0
  7  8  1  0
  8  9  2  0
  9 10  1  0
 10 11  1  0
 11 12  2  0
 11 13  1  0
 13 14  1  0
 14 15  1  0
 15 16  2  0
 16 17  1  0
 17 18  1  0
 17 19  2  0
 19 20  1  0
 20 21  1  0
 21 22  2  0
 22 23  1  0
 23 24  2  0
 24 25  1  0
 25 26  2  0
 20 27  2  0
 27 28  1  0
 28 29  3  0
  9 30  1  0
 30 31  2  0
 31  6  1  0
 27 15  1  0
 26 21  1  0
  1 32  1  0
  1 33  1  0
  1 34  1  0
  2 35  1  0
  2 36  1  0
  7 37  1  0
  8 38  1  0
 10 39  1  0
 13 40  1  0
 13 41  1  0
 18 42  1  0
 18 43  1  0
 18 44  1  0
 19 45  1  0
 22 46  1  0
 23 47  1  0
 24 48  1  0
 25 49  1  0
 26 50  1  0
 30 51  1  0
 31 52  1  0
M  END
>  <Binding energies>  (1) 
[-9.1]

>  <Ligand effiencies>  (1) 
[-0.284375]

>  <Interactions>  (1) 
["V-B:TYR:539:CD1:9845, V-B:ILE:538:CD1:9837, V-B:PRO:540:CB:9857, V-B:PRO:540:CD:9859, V-B:LEU:363:CD1:8161, V-B:TYR:539:C:9839, V-B:PRO:540:CA:9855, V-B:ILE:538:CG2:9835, V-B:TYR:539:CE2:9848, V-B:TYR:539:CD2:9846, V-B:ILE:538:CA:9832, V-B:MET:535:CE:9807, V-B:ALA:541:CB:9864, V-B:TYR:539:CZ:9849, V-B:TYR:539:CE1:9847, V-B:PRO:540:N:9856, V-B:TYR:531:CE2:9765, V-A:ASP:366:CG:3213, V-B:TYR:539:CG:9844, V-B:TYR:531:CZ:9766, V-A:ASP:366:CB:3212, H-A:TYR:539:N:4870, V-A:TYR:539:CZ:4877, V-A:PRO:540:CA:4883, V-A:TYR:539:C:4867, V-A:PRO:540:N:4884, V-A:PRO:540:CB:4885, V-A:TYR:539:CE2:4876, V-A:GLU:543:CD:4908, H-A:GLU:543:OE1:4909, H-A:ASP:366:OD1:3214, V-A:PRO:540:CD:4887, H-B:TYR:531:OH:9767, V-A:ILE:538:CA:4860, V-A:ILE:538:CB:4862, V-A:ILE:538:CG2:4863, V-A:TYR:539:CD2:4874"]

$$$$
3cb_Grossjean_2025
     RDKit          3D

 49 51  0  0  0  0  0  0  0  0999 V2000
  124.6180  122.6930   56.7980 C   0  0  0  0  0  0  0  0  0  0  0  0
  125.5690  121.9750   56.0260 O   0  0  0  0  0  0  0  0  0  0  0  0
  126.6510  122.5980   55.4930 C   0  0  0  0  0  0  0  0  0  0  0  0
  126.8250  122.7400   54.2790 O   0  0  0  0  0  0  0  0  0  0  0  0
  127.6190  123.0970   56.5280 C   0  0  0  0  0  0  0  0  0  0  0  0
  128.4670  124.1880   56.2890 C   0  0  0  0  0  0  0  0  0  0  0  0
  129.3510  124.6260   57.2710 C   0  0  0  0  0  0  0  0  0  0  0  0
  129.4100  123.9840   58.5080 C   0  0  0  0  0  0  0  0  0  0  0  0
  130.3380  124.5120   59.4290 N   0  0  0  0  0  0  0  0  0  0  0  0
  131.6600  124.7480   59.2900 C   0  0  0  0  0  0  0  0  0  0  0  0
  132.3100  124.5420   58.2630 O   0  0  0  0  0  0  0  0  0  0  0  0
  132.3380  125.3320   60.5390 C   0  0  0  0  0  0  0  0  0  0  0  0
  131.5050  124.9460   62.1170 S   0  0  0  0  0  0  0  0  0  0  0  0
  130.5110  123.4900   61.8670 C   0  0  0  0  0  0  0  0  0  0  0  0
  129.1880  123.6990   62.0740 N   0  0  0  0  0  0  0  0  0  0  0  0
  128.3350  122.6630   61.9120 C   0  0  0  0  0  0  0  0  0  0  0  0
  126.8690  122.9720   62.1480 C   0  0  0  0  0  0  0  0  0  0  0  0
  128.7630  121.3900   61.5470 C   0  0  0  0  0  0  0  0  0  0  0  0
  130.1280  121.1470   61.3430 C   0  0  0  0  0  0  0  0  0  0  0  0
  130.5370  119.7610   60.9580 C   0  0  0  0  0  0  0  0  0  0  0  0
  129.8810  118.6540   61.5100 C   0  0  0  0  0  0  0  0  0  0  0  0
  130.2480  117.3600   61.1500 C   0  0  0  0  0  0  0  0  0  0  0  0
  131.2740  117.1670   60.2290 C   0  0  0  0  0  0  0  0  0  0  0  0
  131.9320  118.2560   59.6650 C   0  0  0  0  0  0  0  0  0  0  0  0
  131.5620  119.5490   60.0260 C   0  0  0  0  0  0  0  0  0  0  0  0
  131.0370  122.2210   61.5220 C   0  0  0  0  0  0  0  0  0  0  0  0
  132.4830  122.0020   61.4140 C   0  0  0  0  0  0  0  0  0  0  0  0
  133.6240  121.8300   61.3290 N   0  0  0  0  0  0  0  0  0  0  0  0
  128.5620  122.8940   58.7570 C   0  0  0  0  0  0  0  0  0  0  0  0
  127.6780  122.4570   57.7740 C   0  0  0  0  0  0  0  0  0  0  0  0
  124.8224  122.5386   57.8678 H   0  0  0  0  0  0  0  0  0  0  0  0
  124.6886  123.7651   56.5622 H   0  0  0  0  0  0  0  0  0  0  0  0
  123.6062  122.3315   56.5622 H   0  0  0  0  0  0  0  0  0  0  0  0
  128.4333  124.7021   55.3171 H   0  0  0  0  0  0  0  0  0  0  0  0
  130.0081  125.4850   57.0700 H   0  0  0  0  0  0  0  0  0  0  0  0
  129.9310  124.7750   60.3160 H   0  0  0  0  0  0  0  0  0  0  0  0
  133.3631  124.9362   60.5880 H   0  0  0  0  0  0  0  0  0  0  0  0
  132.2984  126.4257   60.4287 H   0  0  0  0  0  0  0  0  0  0  0  0
  126.6725  123.0134   63.2295 H   0  0  0  0  0  0  0  0  0  0  0  0
  126.6209  123.9422   61.6928 H   0  0  0  0  0  0  0  0  0  0  0  0
  126.2504  122.1845   61.6928 H   0  0  0  0  0  0  0  0  0  0  0  0
  128.0325  120.5776   61.4191 H   0  0  0  0  0  0  0  0  0  0  0  0
  129.0681  118.8080   62.2349 H   0  0  0  0  0  0  0  0  0  0  0  0
  129.7303  116.4953   61.5907 H   0  0  0  0  0  0  0  0  0  0  0  0
  131.5670  116.1455   59.9448 H   0  0  0  0  0  0  0  0  0  0  0  0
  132.7410  118.0960   58.9371 H   0  0  0  0  0  0  0  0  0  0  0  0
  132.0779  120.4102   59.5764 H   0  0  0  0  0  0  0  0  0  0  0  0
  128.5957  122.3837   59.7309 H   0  0  0  0  0  0  0  0  0  0  0  0
  127.0187  121.6002   57.9772 H   0  0  0  0  0  0  0  0  0  0  0  0
  1  2  1  0
  2  3  1  0
  3  4  2  0
  3  5  1  0
  5  6  2  0
  6  7  1  0
  7  8  2  0
  8  9  1  0
  9 10  1  0
 10 11  2  0
 10 12  1  0
 12 13  1  0
 13 14  1  0
 14 15  2  0
 15 16  1  0
 16 17  1  0
 16 18  2  0
 18 19  1  0
 19 20  1  0
 20 21  2  0
 21 22  1  0
 22 23  2  0
 23 24  1  0
 24 25  2  0
 19 26  2  0
 26 27  1  0
 27 28  3  0
  8 29  1  0
 29 30  2  0
 30  5  1  0
 26 14  1  0
 25 20  1  0
  1 31  1  0
  1 32  1  0
  1 33  1  0
  6 34  1  0
  7 35  1  0
  9 36  1  0
 12 37  1  0
 12 38  1  0
 17 39  1  0
 17 40  1  0
 17 41  1  0
 18 42  1  0
 21 43  1  0
 22 44  1  0
 23 45  1  0
 24 46  1  0
 25 47  1  0
 29 48  1  0
 30 49  1  0
M  END
>  <Binding energies>  (1) 
[-8.96]

>  <Ligand effiencies>  (1) 
[-0.28903225806451616]

>  <Interactions>  (1) 
["V-B:TYR:539:CD1:9845, V-B:ILE:538:CD1:9837, V-B:PRO:540:CB:9857, V-B:PRO:540:CD:9859, V-B:LEU:363:CD1:8161, V-B:GLU:543:CD:9880, V-B:TYR:539:C:9839, V-B:PRO:540:CA:9855, H-B:TYR:539:N:9842, V-B:TYR:539:CE2:9848, V-B:TYR:539:CD2:9846, V-B:ILE:538:CA:9832, V-B:MET:535:CE:9807, V-B:ALA:541:CB:9864, V-B:TYR:539:CZ:9849, V-B:PRO:540:C:9853, V-B:TYR:539:CE1:9847, V-B:PRO:540:N:9856, V-B:TYR:531:CE2:9765, V-A:SER:385:CB:3409, V-A:PRO:482:CB:4326, V-A:LEU:475:CD1:4258, H-A:TYR:484:OH:4348, V-A:ASP:366:CG:3213, V-B:TYR:539:CG:9844, V-A:LEU:475:CD2:4259, V-A:LEU:475:CG:4257, V-A:PRO:482:CG:4327, V-B:ILE:538:C:9830, V-B:TYR:539:CA:9841, H-B:TYR:539:OH:9850, V-B:PRO:540:CG:9858, V-B:GLU:543:CG:9879"]

$$$$
3ce_Grossjean_2025
     RDKit          3D

 45 47  0  0  0  0  0  0  0  0999 V2000
  129.3740  131.3780   55.1720 C   0  0  0  0  0  0  0  0  0  0  0  0
  130.6460  131.0720   55.9390 C   0  0  0  0  0  0  0  0  0  0  0  0
  131.6100  132.0550   56.1770 C   0  0  0  0  0  0  0  0  0  0  0  0
  132.7520  131.7050   56.8980 C   0  0  0  0  0  0  0  0  0  0  0  0
  132.9020  130.3940   57.3580 C   0  0  0  0  0  0  0  0  0  0  0  0
  131.9030  129.4560   57.0760 C   0  0  0  0  0  0  0  0  0  0  0  0
  132.0990  128.1590   57.5800 N   0  0  0  0  0  0  0  0  0  0  0  0
  131.9880  126.9820   56.9250 C   0  0  0  0  0  0  0  0  0  0  0  0
  131.6920  126.8610   55.7350 O   0  0  0  0  0  0  0  0  0  0  0  0
  132.2670  125.7320   57.7570 C   0  0  0  0  0  0  0  0  0  0  0  0
  131.4290  125.7880   59.3690 S   0  0  0  0  0  0  0  0  0  0  0  0
  130.2290  124.4760   59.3360 C   0  0  0  0  0  0  0  0  0  0  0  0
  130.4420  123.5120   60.2650 N   0  0  0  0  0  0  0  0  0  0  0  0
  129.5730  122.4770   60.3330 C   0  0  0  0  0  0  0  0  0  0  0  0
  129.8620  121.4410   61.4020 C   0  0  0  0  0  0  0  0  0  0  0  0
  128.4800  122.3580   59.4780 C   0  0  0  0  0  0  0  0  0  0  0  0
  128.2590  123.3300   58.4940 C   0  0  0  0  0  0  0  0  0  0  0  0
  127.0890  123.1460   57.5840 C   0  0  0  0  0  0  0  0  0  0  0  0
  127.2900  122.8330   56.2340 C   0  0  0  0  0  0  0  0  0  0  0  0
  126.2040  122.6660   55.3790 C   0  0  0  0  0  0  0  0  0  0  0  0
  124.9100  122.8180   55.8680 C   0  0  0  0  0  0  0  0  0  0  0  0
  124.6930  123.1390   57.2060 C   0  0  0  0  0  0  0  0  0  0  0  0
  125.7810  123.3050   58.0590 C   0  0  0  0  0  0  0  0  0  0  0  0
  129.1540  124.4270   58.4170 C   0  0  0  0  0  0  0  0  0  0  0  0
  128.9650  125.4840   57.4180 C   0  0  0  0  0  0  0  0  0  0  0  0
  128.8140  126.3170   56.6300 N   0  0  0  0  0  0  0  0  0  0  0  0
  130.7790  129.7940   56.3770 N   0  0  0  0  0  0  0  0  0  0  0  0
  128.5565  131.5747   55.8812 H   0  0  0  0  0  0  0  0  0  0  0  0
  129.5315  132.2639   54.5392 H   0  0  0  0  0  0  0  0  0  0  0  0
  129.1114  130.5174   54.5392 H   0  0  0  0  0  0  0  0  0  0  0  0
  131.4718  133.0808   55.8046 H   0  0  0  0  0  0  0  0  0  0  0  0
  133.5291  132.4560   57.1030 H   0  0  0  0  0  0  0  0  0  0  0  0
  133.7931  130.1036   57.9338 H   0  0  0  0  0  0  0  0  0  0  0  0
  132.4490  128.1200   58.5260 H   0  0  0  0  0  0  0  0  0  0  0  0
  131.9132  124.8500   57.2030 H   0  0  0  0  0  0  0  0  0  0  0  0
  133.3506  125.6787   57.9384 H   0  0  0  0  0  0  0  0  0  0  0  0
  129.7354  121.8947   62.3960 H   0  0  0  0  0  0  0  0  0  0  0  0
  129.1650  120.5971   61.2927 H   0  0  0  0  0  0  0  0  0  0  0  0
  130.8952  121.0797   61.2927 H   0  0  0  0  0  0  0  0  0  0  0  0
  127.7932  121.5043   59.5751 H   0  0  0  0  0  0  0  0  0  0  0  0
  128.3130  122.7183   55.8464 H   0  0  0  0  0  0  0  0  0  0  0  0
  126.3682  122.4148   54.3207 H   0  0  0  0  0  0  0  0  0  0  0  0
  124.0520  122.6836   55.1928 H   0  0  0  0  0  0  0  0  0  0  0  0
  123.6681  123.2606   57.5865 H   0  0  0  0  0  0  0  0  0  0  0  0
  125.6118  123.5632   59.1148 H   0  0  0  0  0  0  0  0  0  0  0  0
  1  2  1  0
  2  3  2  0
  3  4  1  0
  4  5  2  0
  5  6  1  0
  6  7  1  0
  7  8  1  0
  8  9  2  0
  8 10  1  0
 10 11  1  0
 11 12  1  0
 12 13  2  0
 13 14  1  0
 14 15  1  0
 14 16  2  0
 16 17  1  0
 17 18  1  0
 18 19  2  0
 19 20  1  0
 20 21  2  0
 21 22  1  0
 22 23  2  0
 17 24  2  0
 24 25  1  0
 25 26  3  0
  6 27  2  0
 27  2  1  0
 24 12  1  0
 23 18  1  0
  1 28  1  0
  1 29  1  0
  1 30  1  0
  3 31  1  0
  4 32  1  0
  5 33  1  0
  7 34  1  0
 10 35  1  0
 10 36  1  0
 15 37  1  0
 15 38  1  0
 15 39  1  0
 16 40  1  0
 19 41  1  0
 20 42  1  0
 21 43  1  0
 22 44  1  0
 23 45  1  0
M  END
>  <Binding energies>  (1) 
[-8.71]

>  <Ligand effiencies>  (1) 
[-0.3110714285714286]

>  <Interactions>  (1) 
["V-B:TYR:539:CD1:9845, V-B:ILE:538:CD1:9837, V-B:PRO:540:CB:9857, V-B:PRO:540:CD:9859, V-B:LEU:363:CD1:8161, V-B:TYR:539:C:9839, V-B:PRO:540:CA:9855, V-B:ILE:538:CG2:9835, V-B:TYR:539:CE2:9848, V-B:TYR:539:CD2:9846, V-B:ILE:538:CA:9832, V-B:MET:535:CE:9807, V-B:TYR:539:CZ:9849, V-B:TYR:539:CE1:9847, V-B:PRO:540:N:9856, V-B:TYR:531:CE2:9765, V-A:ASP:366:CA:3210, V-A:ASP:366:CG:3213, V-B:TYR:539:CG:9844, V-A:LEU:475:CD2:4259, V-B:TYR:531:CZ:9766, V-A:ASP:366:CB:3212, V-A:PRO:540:CA:4883, V-A:PRO:540:N:4884, V-A:PRO:540:CB:4885, V-A:LEU:363:CD1:3189, H-A:ASP:366:OD1:3214, H-B:TYR:539:OH:9850, H-A:TYR:531:OH:4795, H-A:ASP:366:OD2:3215"]

$$$$
3ch_Grossjean_2025
     RDKit          3D

 55 57  0  0  0  0  0  0  0  0999 V2000
  125.6270  129.8840   55.4800 C   0  0  0  0  0  0  0  0  0  0  0  0
  126.8170  129.6020   54.7510 O   0  0  0  0  0  0  0  0  0  0  0  0
  128.0470  129.7800   55.3570 C   0  0  0  0  0  0  0  0  0  0  0  0
  128.4630  129.0900   56.5070 C   0  0  0  0  0  0  0  0  0  0  0  0
  129.7310  129.3150   57.0620 C   0  0  0  0  0  0  0  0  0  0  0  0
  130.2380  128.6690   58.2060 N   0  0  0  0  0  0  0  0  0  0  0  0
  130.6240  127.3850   58.3720 C   0  0  0  0  0  0  0  0  0  0  0  0
  130.6100  126.5170   57.5000 O   0  0  0  0  0  0  0  0  0  0  0  0
  131.1550  127.0310   59.7600 C   0  0  0  0  0  0  0  0  0  0  0  0
  129.8330  126.4820   60.8810 S   0  0  0  0  0  0  0  0  0  0  0  0
  129.2570  124.9250   60.2400 C   0  0  0  0  0  0  0  0  0  0  0  0
  129.8340  123.8440   60.8220 N   0  0  0  0  0  0  0  0  0  0  0  0
  129.4700  122.6120   60.3990 C   0  0  0  0  0  0  0  0  0  0  0  0
  130.1570  121.4490   61.0880 C   0  0  0  0  0  0  0  0  0  0  0  0
  128.5290  122.4110   59.3920 C   0  0  0  0  0  0  0  0  0  0  0  0
  127.9160  123.5160   58.7840 C   0  0  0  0  0  0  0  0  0  0  0  0
  126.9200  123.2530   57.7010 C   0  0  0  0  0  0  0  0  0  0  0  0
  125.5510  123.2450   57.9910 C   0  0  0  0  0  0  0  0  0  0  0  0
  124.6170  122.9920   56.9890 C   0  0  0  0  0  0  0  0  0  0  0  0
  125.0520  122.7410   55.6900 C   0  0  0  0  0  0  0  0  0  0  0  0
  126.4110  122.7380   55.3860 C   0  0  0  0  0  0  0  0  0  0  0  0
  127.3410  122.9910   56.3920 C   0  0  0  0  0  0  0  0  0  0  0  0
  128.2730  124.8150   59.2300 C   0  0  0  0  0  0  0  0  0  0  0  0
  127.5970  126.0010   58.6960 C   0  0  0  0  0  0  0  0  0  0  0  0
  127.0640  126.9380   58.2750 N   0  0  0  0  0  0  0  0  0  0  0  0
  130.5760  130.2540   56.4670 C   0  0  0  0  0  0  0  0  0  0  0  0
  130.1820  130.9590   55.3190 C   0  0  0  0  0  0  0  0  0  0  0  0
  130.9730  131.8960   54.6770 O   0  0  0  0  0  0  0  0  0  0  0  0
  132.2960  132.1350   55.1460 C   0  0  0  0  0  0  0  0  0  0  0  0
  128.9140  130.7140   54.7750 C   0  0  0  0  0  0  0  0  0  0  0  0
  128.5230  131.3840   53.6400 O   0  0  0  0  0  0  0  0  0  0  0  0
  128.6020  132.7990   53.7470 C   0  0  0  0  0  0  0  0  0  0  0  0
  125.8372  129.8342   56.5586 H   0  0  0  0  0  0  0  0  0  0  0  0
  125.2693  130.8918   55.2223 H   0  0  0  0  0  0  0  0  0  0  0  0
  124.8551  129.1439   55.2223 H   0  0  0  0  0  0  0  0  0  0  0  0
  127.7853  128.3633   56.9788 H   0  0  0  0  0  0  0  0  0  0  0  0
  130.3630  129.2770   59.0020 H   0  0  0  0  0  0  0  0  0  0  0  0
  131.8942  126.2224   59.6610 H   0  0  0  0  0  0  0  0  0  0  0  0
  131.6079  127.9367   60.1896 H   0  0  0  0  0  0  0  0  0  0  0  0
  130.0834  121.5735   62.1785 H   0  0  0  0  0  0  0  0  0  0  0  0
  129.6697  120.5081   60.7927 H   0  0  0  0  0  0  0  0  0  0  0  0
  131.2163  121.4217   60.7927 H   0  0  0  0  0  0  0  0  0  0  0  0
  128.2680  121.3905   59.0752 H   0  0  0  0  0  0  0  0  0  0  0  0
  125.2097  123.4401   59.0184 H   0  0  0  0  0  0  0  0  0  0  0  0
  123.5420  122.9905   57.2224 H   0  0  0  0  0  0  0  0  0  0  0  0
  124.3156  122.5434   54.8971 H   0  0  0  0  0  0  0  0  0  0  0  0
  126.7480  122.5372   54.3583 H   0  0  0  0  0  0  0  0  0  0  0  0
  128.4153  122.9848   56.1556 H   0  0  0  0  0  0  0  0  0  0  0  0
  131.5668  130.4444   56.9052 H   0  0  0  0  0  0  0  0  0  0  0  0
  132.3005  132.1358   56.2460 H   0  0  0  0  0  0  0  0  0  0  0  0
  132.9644  131.3431   54.7772 H   0  0  0  0  0  0  0  0  0  0  0  0
  132.6451  133.1107   54.7772 H   0  0  0  0  0  0  0  0  0  0  0  0
  128.6180  133.0861   54.8088 H   0  0  0  0  0  0  0  0  0  0  0  0
  129.5213  133.1530   53.2575 H   0  0  0  0  0  0  0  0  0  0  0  0
  127.7278  133.2531   53.2575 H   0  0  0  0  0  0  0  0  0  0  0  0
  1  2  1  0
  2  3  1  0
  3  4  2  0
  4  5  1  0
  5  6  1  0
  6  7  1  0
  7  8  2  0
  7  9  1  0
  9 10  1  0
 10 11  1  0
 11 12  2  0
 12 13  1  0
 13 14  1  0
 13 15  2  0
 15 16  1  0
 16 17  1  0
 17 18  2  0
 18 19  1  0
 19 20  2  0
 20 21  1  0
 21 22  2  0
 16 23  2  0
 23 24  1  0
 24 25  3  0
  5 26  2  0
 26 27  1  0
 27 28  1  0
 28 29  1  0
 27 30  2  0
 30 31  1  0
 31 32  1  0
 30  3  1  0
 23 11  1  0
 22 17  1  0
  1 33  1  0
  1 34  1  0
  1 35  1  0
  4 36  1  0
  6 37  1  0
  9 38  1  0
  9 39  1  0
 14 40  1  0
 14 41  1  0
 14 42  1  0
 15 43  1  0
 18 44  1  0
 19 45  1  0
 20 46  1  0
 21 47  1  0
 22 48  1  0
 26 49  1  0
 29 50  1  0
 29 51  1  0
 29 52  1  0
 32 53  1  0
 32 54  1  0
 32 55  1  0
M  END
>  <Binding energies>  (1) 
[-7.65]

>  <Ligand effiencies>  (1) 
[-0.23181818181818184]

>  <Interactions>  (1) 
["V-B:TYR:539:CD1:9845, V-B:ILE:538:CD1:9837, V-B:PRO:540:CB:9857, V-B:PRO:540:CD:9859, V-B:LEU:363:CD1:8161, V-B:TYR:539:C:9839, V-B:PRO:540:CA:9855, V-B:ILE:538:CG2:9835, V-B:TYR:539:CE2:9848, V-B:TYR:539:CD2:9846, V-B:ILE:538:CA:9832, V-B:MET:535:CE:9807, V-B:TYR:539:CZ:9849, V-B:TYR:539:CE1:9847, V-B:PRO:540:N:9856, V-B:TYR:531:CE2:9765, V-A:ASP:366:CG:3213, V-A:LEU:475:CD2:4259, V-B:TYR:531:CZ:9766, V-A:TYR:531:CZ:4794, V-B:TYR:531:CE1:9764, V-A:TYR:539:CZ:4877, V-A:TYR:531:CE2:4793, V-A:TYR:539:CE2:4876, H-B:LYS:534:NZ:9795, V-A:LEU:363:CD1:3189, H-B:TYR:531:OH:9767, V-A:ILE:538:CA:4860, V-A:ILE:538:CB:4862, V-A:ILE:538:CG2:4863, H-A:TYR:531:OH:4795, V-A:TYR:539:CD2:4874"]

$$$$
3ci_Grossjean_2025
     RDKit          3D

 39 41  0  0  0  0  0  0  0  0999 V2000
  127.0590  133.1240   60.5800 C   0  0  0  0  0  0  0  0  0  0  0  0
  127.1720  132.2670   59.3340 C   0  0  0  0  0  0  0  0  0  0  0  0
  128.1500  132.4990   58.3720 C   0  0  0  0  0  0  0  0  0  0  0  0
  128.2250  131.6690   57.2450 C   0  0  0  0  0  0  0  0  0  0  0  0
  129.3000  131.9470   56.2470 C   0  0  0  0  0  0  0  0  0  0  0  0
  130.6490  131.9420   56.6260 C   0  0  0  0  0  0  0  0  0  0  0  0
  131.6470  132.2100   55.6930 C   0  0  0  0  0  0  0  0  0  0  0  0
  131.3000  132.4910   54.3760 C   0  0  0  0  0  0  0  0  0  0  0  0
  129.9640  132.5090   53.9830 C   0  0  0  0  0  0  0  0  0  0  0  0
  128.9690  132.2400   54.9180 C   0  0  0  0  0  0  0  0  0  0  0  0
  127.2810  130.6180   57.1190 C   0  0  0  0  0  0  0  0  0  0  0  0
  127.2830  129.7440   55.9410 C   0  0  0  0  0  0  0  0  0  0  0  0
  127.2860  129.0540   55.0110 N   0  0  0  0  0  0  0  0  0  0  0  0
  126.3220  130.4480   58.1470 C   0  0  0  0  0  0  0  0  0  0  0  0
  125.1010  129.1430   58.1010 S   0  0  0  0  0  0  0  0  0  0  0  0
  125.7210  127.6970   59.0210 C   0  0  0  0  0  0  0  0  0  0  0  0
  126.2700  126.5890   58.1150 C   0  0  0  0  0  0  0  0  0  0  0  0
  127.0870  126.8780   57.2380 O   0  0  0  0  0  0  0  0  0  0  0  0
  125.7880  125.3480   58.3480 N   0  0  0  0  0  0  0  0  0  0  0  0
  126.1370  124.1740   57.6950 C   0  0  0  0  0  0  0  0  0  0  0  0
  127.4130  123.6160   57.7640 C   0  0  0  0  0  0  0  0  0  0  0  0
  127.3500  122.4790   56.9900 C   0  0  0  0  0  0  0  0  0  0  0  0
  126.0990  122.3600   56.4830 O   0  0  0  0  0  0  0  0  0  0  0  0
  125.3410  123.4400   56.9350 N   0  0  0  0  0  0  0  0  0  0  0  0
  126.2700  131.2660   59.2290 N   0  0  0  0  0  0  0  0  0  0  0  0
  127.1431  132.4864   61.4724 H   0  0  0  0  0  0  0  0  0  0  0  0
  127.8664  133.8710   60.5857 H   0  0  0  0  0  0  0  0  0  0  0  0
  126.0855  133.6362   60.5857 H   0  0  0  0  0  0  0  0  0  0  0  0
  128.8607  133.3295   58.4952 H   0  0  0  0  0  0  0  0  0  0  0  0
  130.9217  131.7245   57.6692 H   0  0  0  0  0  0  0  0  0  0  0  0
  132.7044  132.1995   55.9960 H   0  0  0  0  0  0  0  0  0  0  0  0
  132.0880  132.7010   53.6378 H   0  0  0  0  0  0  0  0  0  0  0  0
  129.6969  132.7344   52.9400 H   0  0  0  0  0  0  0  0  0  0  0  0
  127.9130  132.2576   54.6105 H   0  0  0  0  0  0  0  0  0  0  0  0
  126.5265  128.0298   59.6921 H   0  0  0  0  0  0  0  0  0  0  0  0
  124.8689  127.2732   59.5726 H   0  0  0  0  0  0  0  0  0  0  0  0
  125.1160  125.2460   59.0930 H   0  0  0  0  0  0  0  0  0  0  0  0
  128.2823  124.0010   58.3173 H   0  0  0  0  0  0  0  0  0  0  0  0
  128.1808  121.7803   56.8120 H   0  0  0  0  0  0  0  0  0  0  0  0
  1  2  1  0
  2  3  2  0
  3  4  1  0
  4  5  1  0
  5  6  2  0
  6  7  1  0
  7  8  2  0
  8  9  1  0
  9 10  2  0
  4 11  2  0
 11 12  1  0
 12 13  3  0
 11 14  1  0
 14 15  1  0
 15 16  1  0
 16 17  1  0
 17 18  2  0
 17 19  1  0
 19 20  1  0
 20 21  1  0
 21 22  2  0
 22 23  1  0
 23 24  1  0
 14 25  2  0
 25  2  1  0
 10  5  1  0
 24 20  2  0
  1 26  1  0
  1 27  1  0
  1 28  1  0
  3 29  1  0
  6 30  1  0
  7 31  1  0
  8 32  1  0
  9 33  1  0
 10 34  1  0
 16 35  1  0
 16 36  1  0
 19 37  1  0
 21 38  1  0
 22 39  1  0
M  END
>  <Binding energies>  (1) 
[-8.14]

>  <Ligand effiencies>  (1) 
[-0.3130769230769231]

>  <Interactions>  (1) 
["V-B:TYR:539:CD1:9845, V-B:TYR:539:C:9839, H-B:TYR:539:N:9842, V-B:TYR:539:CE2:9848, V-B:TYR:539:CD2:9846, H-B:ASP:366:OD2:8187, V-B:TYR:539:CE1:9847, V-B:PRO:540:N:9856, V-B:TYR:539:CG:9844, V-A:TYR:539:CE1:4875, V-B:ASP:366:CG:8185, V-A:PRO:540:CA:4883, V-A:TYR:539:C:4867, V-A:PRO:540:N:4884, V-B:ASP:366:CB:8184, V-A:TYR:539:CE2:4876, H-B:LYS:534:NZ:9795, V-B:TYR:539:CA:9841, H-B:TYR:531:OH:9767, V-A:ILE:538:CA:4860, V-A:ILE:538:CB:4862, V-A:ILE:538:CG2:4863, V-A:TYR:539:CD2:4874, V-A:TYR:539:CD1:4873"]

$$$$
3cj_Grossjean_2025
     RDKit          3D

 39 41  0  0  0  0  0  0  0  0999 V2000
  131.5240  124.9860   58.2270 C   0  0  0  0  0  0  0  0  0  0  0  0
  130.2110  124.5450   58.8430 C   0  0  0  0  0  0  0  0  0  0  0  0
  129.0990  124.2530   58.0570 C   0  0  0  0  0  0  0  0  0  0  0  0
  127.9110  123.8270   58.6670 C   0  0  0  0  0  0  0  0  0  0  0  0
  126.7670  123.4620   57.7820 C   0  0  0  0  0  0  0  0  0  0  0  0
  125.4580  123.8140   58.1320 C   0  0  0  0  0  0  0  0  0  0  0  0
  124.3890  123.4610   57.3120 C   0  0  0  0  0  0  0  0  0  0  0  0
  124.6260  122.7490   56.1400 C   0  0  0  0  0  0  0  0  0  0  0  0
  125.9220  122.3830   55.7840 C   0  0  0  0  0  0  0  0  0  0  0  0
  126.9890  122.7370   56.6050 C   0  0  0  0  0  0  0  0  0  0  0  0
  127.8740  123.7400   60.0810 C   0  0  0  0  0  0  0  0  0  0  0  0
  126.6520  123.3280   60.7800 C   0  0  0  0  0  0  0  0  0  0  0  0
  125.6880  123.0020   61.3310 N   0  0  0  0  0  0  0  0  0  0  0  0
  129.0500  124.0520   60.7990 C   0  0  0  0  0  0  0  0  0  0  0  0
  129.1800  123.8560   62.5640 S   0  0  0  0  0  0  0  0  0  0  0  0
  128.7550  122.1120   62.8730 C   0  0  0  0  0  0  0  0  0  0  0  0
  129.8020  121.1580   62.2890 C   0  0  0  0  0  0  0  0  0  0  0  0
  130.9990  121.3740   62.4890 O   0  0  0  0  0  0  0  0  0  0  0  0
  129.3060  120.1010   61.6090 N   0  0  0  0  0  0  0  0  0  0  0  0
  130.0270  119.0320   61.1030 C   0  0  0  0  0  0  0  0  0  0  0  0
  129.7300  117.7520   61.1730 N   0  0  0  0  0  0  0  0  0  0  0  0
  130.6290  117.0130   60.5530 C   0  0  0  0  0  0  0  0  0  0  0  0
  131.6870  117.6970   59.9610 C   0  0  0  0  0  0  0  0  0  0  0  0
  131.4860  119.4010   60.2390 S   0  0  0  0  0  0  0  0  0  0  0  0
  130.2000  124.4380   60.1900 N   0  0  0  0  0  0  0  0  0  0  0  0
  132.2411  125.2269   59.0256 H   0  0  0  0  0  0  0  0  0  0  0  0
  131.9278  124.1742   57.6042 H   0  0  0  0  0  0  0  0  0  0  0  0
  131.3559  125.8770   57.6042 H   0  0  0  0  0  0  0  0  0  0  0  0
  129.1527  124.3561   56.9632 H   0  0  0  0  0  0  0  0  0  0  0  0
  125.2725  124.3732   59.0609 H   0  0  0  0  0  0  0  0  0  0  0  0
  123.3627  123.7435   57.5893 H   0  0  0  0  0  0  0  0  0  0  0  0
  123.7830  122.4730   55.4895 H   0  0  0  0  0  0  0  0  0  0  0  0
  126.1015  121.8167   54.8582 H   0  0  0  0  0  0  0  0  0  0  0  0
  128.0127  122.4454   56.3274 H   0  0  0  0  0  0  0  0  0  0  0  0
  128.6909  121.9484   63.9589 H   0  0  0  0  0  0  0  0  0  0  0  0
  127.7922  121.9033   62.3836 H   0  0  0  0  0  0  0  0  0  0  0  0
  128.3020  120.0300   61.5300 H   0  0  0  0  0  0  0  0  0  0  0  0
  130.5474  115.9170   60.5062 H   0  0  0  0  0  0  0  0  0  0  0  0
  132.5165  117.2338   59.4066 H   0  0  0  0  0  0  0  0  0  0  0  0
  1  2  1  0
  2  3  2  0
  3  4  1  0
  4  5  1  0
  5  6  2  0
  6  7  1  0
  7  8  2  0
  8  9  1  0
  9 10  2  0
  4 11  2  0
 11 12  1  0
 12 13  3  0
 11 14  1  0
 14 15  1  0
 15 16  1  0
 16 17  1  0
 17 18  2  0
 17 19  1  0
 19 20  1  0
 20 21  2  0
 21 22  1  0
 22 23  2  0
 23 24  1  0
 14 25  2  0
 25  2  1  0
 10  5  1  0
 24 20  1  0
  1 26  1  0
  1 27  1  0
  1 28  1  0
  3 29  1  0
  6 30  1  0
  7 31  1  0
  8 32  1  0
  9 33  1  0
 10 34  1  0
 16 35  1  0
 16 36  1  0
 19 37  1  0
 22 38  1  0
 23 39  1  0
M  END
>  <Binding energies>  (1) 
[-8.3]

>  <Ligand effiencies>  (1) 
[-0.31923076923076926]

>  <Interactions>  (1) 
["V-B:ILE:538:CD1:9837, V-B:PRO:540:CB:9857, V-B:PRO:540:CD:9859, V-B:LEU:363:CD1:8161, V-B:GLU:543:CD:9880, V-B:TYR:539:C:9839, V-B:PRO:540:CA:9855, V-B:ILE:538:CG2:9835, V-B:TYR:539:CE2:9848, V-B:TYR:539:CD2:9846, V-B:ILE:538:CA:9832, V-B:ALA:541:CB:9864, V-B:TYR:539:CZ:9849, V-B:PRO:540:C:9853, V-B:PRO:540:N:9856, V-B:TYR:531:CE2:9765, V-A:SER:385:CB:3409, V-A:PRO:482:CB:4326, V-A:LEU:475:CD1:4258, H-A:TYR:484:OH:4348, V-A:LEU:475:CD2:4259, V-B:TYR:531:CZ:9766, V-A:PRO:482:CG:4327, V-B:ILE:538:C:9830, H-B:ALA:541:N:9863, V-A:TYR:484:CZ:4347, H-B:TYR:539:O:9840, V-B:ALA:541:CA:9862, V-B:GLU:543:CG:9879, V-A:TYR:484:CE1:4345, H-B:PRO:540:O:9854"]

$$$$
3ck_Grossjean_2025
     RDKit          3D

 57 58  0  0  0  0  0  0  0  0999 V2000
  132.8580  130.3190   57.7710 C   0  0  0  0  0  0  0  0  0  0  0  0
  131.7460  130.5810   56.9300 O   0  0  0  0  0  0  0  0  0  0  0  0
  131.9670  131.6430   56.0130 C   0  0  0  0  0  0  0  0  0  0  0  0
  130.9820  132.7830   56.3010 C   0  0  0  0  0  0  0  0  0  0  0  0
  130.3350  133.1620   55.0930 O   0  0  0  0  0  0  0  0  0  0  0  0
  129.0500  132.5780   54.9190 C   0  0  0  0  0  0  0  0  0  0  0  0
  129.1970  131.2650   54.1400 C   0  0  0  0  0  0  0  0  0  0  0  0
  128.0520  130.4650   54.3910 O   0  0  0  0  0  0  0  0  0  0  0  0
  128.3050  129.2750   55.1210 C   0  0  0  0  0  0  0  0  0  0  0  0
  129.7590  128.8240   54.8850 C   0  0  0  0  0  0  0  0  0  0  0  0
  130.4410  128.3700   56.1010 N   0  0  0  0  0  0  0  0  0  0  0  0
  131.1890  127.2580   56.2110 C   0  0  0  0  0  0  0  0  0  0  0  0
  131.4080  126.4940   55.2690 O   0  0  0  0  0  0  0  0  0  0  0  0
  131.7730  126.9890   57.6080 C   0  0  0  0  0  0  0  0  0  0  0  0
  130.5550  126.9230   58.9670 S   0  0  0  0  0  0  0  0  0  0  0  0
  129.7730  125.3170   58.9730 C   0  0  0  0  0  0  0  0  0  0  0  0
  130.3390  124.3920   59.7890 N   0  0  0  0  0  0  0  0  0  0  0  0
  129.8000  123.1530   59.8400 C   0  0  0  0  0  0  0  0  0  0  0  0
  130.4880  122.1740   60.7720 C   0  0  0  0  0  0  0  0  0  0  0  0
  128.6880  122.7870   59.0880 C   0  0  0  0  0  0  0  0  0  0  0  0
  128.0900  123.7230   58.2330 C   0  0  0  0  0  0  0  0  0  0  0  0
  126.9130  123.2790   57.4280 C   0  0  0  0  0  0  0  0  0  0  0  0
  125.6280  123.3180   57.9810 C   0  0  0  0  0  0  0  0  0  0  0  0
  124.5270  122.8950   57.2390 C   0  0  0  0  0  0  0  0  0  0  0  0
  124.7090  122.4270   55.9420 C   0  0  0  0  0  0  0  0  0  0  0  0
  125.9830  122.3740   55.3800 C   0  0  0  0  0  0  0  0  0  0  0  0
  127.0810  122.7970   56.1240 C   0  0  0  0  0  0  0  0  0  0  0  0
  128.6380  125.0310   58.1790 C   0  0  0  0  0  0  0  0  0  0  0  0
  128.0280  126.0650   57.3340 C   0  0  0  0  0  0  0  0  0  0  0  0
  127.5470  126.8800   56.6680 N   0  0  0  0  0  0  0  0  0  0  0  0
  132.5470  130.3923   58.8236 H   0  0  0  0  0  0  0  0  0  0  0  0
  133.2387  129.3066   57.5708 H   0  0  0  0  0  0  0  0  0  0  0  0
  133.6506  131.0550   57.5708 H   0  0  0  0  0  0  0  0  0  0  0  0
  132.9972  132.0127   56.1220 H   0  0  0  0  0  0  0  0  0  0  0  0
  131.8142  131.2780   54.9867 H   0  0  0  0  0  0  0  0  0  0  0  0
  130.2307  132.4441   57.0295 H   0  0  0  0  0  0  0  0  0  0  0  0
  131.5268  133.6451   56.7132 H   0  0  0  0  0  0  0  0  0  0  0  0
  128.6016  132.3745   55.9026 H   0  0  0  0  0  0  0  0  0  0  0  0
  128.4011  133.2693   54.3612 H   0  0  0  0  0  0  0  0  0  0  0  0
  129.2726  131.4781   53.0635 H   0  0  0  0  0  0  0  0  0  0  0  0
  130.1061  130.7350   54.4604 H   0  0  0  0  0  0  0  0  0  0  0  0
  128.1495  129.4633   56.1936 H   0  0  0  0  0  0  0  0  0  0  0  0
  127.6179  128.4855   54.7826 H   0  0  0  0  0  0  0  0  0  0  0  0
  129.7524  127.9959   54.1610 H   0  0  0  0  0  0  0  0  0  0  0  0
  130.3111  129.7007   54.5156 H   0  0  0  0  0  0  0  0  0  0  0  0
  130.3240  128.9510   56.9180 H   0  0  0  0  0  0  0  0  0  0  0  0
  132.2983  126.0231   57.5759 H   0  0  0  0  0  0  0  0  0  0  0  0
  132.4301  127.8425   57.8312 H   0  0  0  0  0  0  0  0  0  0  0  0
  130.2879  122.4587   61.8155 H   0  0  0  0  0  0  0  0  0  0  0  0
  130.1027  121.1602   60.5882 H   0  0  0  0  0  0  0  0  0  0  0  0
  131.5724  122.1930   60.5882 H   0  0  0  0  0  0  0  0  0  0  0  0
  128.2802  121.7682   59.1641 H   0  0  0  0  0  0  0  0  0  0  0  0
  125.4862  123.6850   59.0082 H   0  0  0  0  0  0  0  0  0  0  0  0
  123.5186  122.9311   57.6770 H   0  0  0  0  0  0  0  0  0  0  0  0
  123.8398  122.0959   55.3548 H   0  0  0  0  0  0  0  0  0  0  0  0
  126.1203  122.0002   54.3546 H   0  0  0  0  0  0  0  0  0  0  0  0
  128.0883  122.7523   55.6842 H   0  0  0  0  0  0  0  0  0  0  0  0
  1  2  1  0
  2  3  1  0
  3  4  1  0
  4  5  1  0
  5  6  1  0
  6  7  1  0
  7  8  1  0
  8  9  1  0
  9 10  1  0
 10 11  1  0
 11 12  1  0
 12 13  2  0
 12 14  1  0
 14 15  1  0
 15 16  1  0
 16 17  2  0
 17 18  1  0
 18 19  1  0
 18 20  2  0
 20 21  1  0
 21 22  1  0
 22 23  2  0
 23 24  1  0
 24 25  2  0
 25 26  1  0
 26 27  2  0
 21 28  2  0
 28 29  1  0
 29 30  3  0
 28 16  1  0
 27 22  1  0
  1 31  1  0
  1 32  1  0
  1 33  1  0
  3 34  1  0
  3 35  1  0
  4 36  1  0
  4 37  1  0
  6 38  1  0
  6 39  1  0
  7 40  1  0
  7 41  1  0
  9 42  1  0
  9 43  1  0
 10 44  1  0
 10 45  1  0
 11 46  1  0
 14 47  1  0
 14 48  1  0
 19 49  1  0
 19 50  1  0
 19 51  1  0
 20 52  1  0
 23 53  1  0
 24 54  1  0
 25 55  1  0
 26 56  1  0
 27 57  1  0
M  END
>  <Binding energies>  (1) 
[-7.17]

>  <Ligand effiencies>  (1) 
[-0.23129032258064516]

>  <Interactions>  (1) 
["V-B:TYR:539:CD1:9845, V-B:ILE:538:CD1:9837, V-B:PRO:540:CB:9857, V-B:PRO:540:CD:9859, V-B:LEU:363:CD1:8161, V-B:TYR:539:C:9839, V-B:PRO:540:CA:9855, V-B:ILE:538:CG2:9835, V-B:TYR:539:CE2:9848, V-B:TYR:539:CD2:9846, V-B:ILE:538:CA:9832, V-B:MET:535:CE:9807, V-B:TYR:539:CE1:9847, V-B:PRO:540:N:9856, V-B:TYR:531:CE2:9765, V-A:ASP:366:CG:3213, V-A:ASP:366:CB:3212, H-A:TYR:539:N:4870, V-A:PRO:540:CA:4883, V-A:TYR:539:C:4867, V-A:PRO:540:N:4884, V-A:PRO:540:CB:4885, V-A:MET:535:CE:4835, V-A:TYR:539:CE2:4876, H-B:LYS:534:NZ:9795, V-A:LEU:363:CD1:3189, V-B:ILE:538:C:9830, V-B:ILE:538:CB:9834, V-A:PRO:540:CD:4887, H-B:TYR:539:OH:9850, H-B:TYR:531:OH:9767, V-A:ILE:538:CA:4860, H-A:TYR:531:OH:4795, V-B:PRO:540:CG:9858, V-A:TYR:539:CD2:4874, V-A:TYR:539:CG:4872"]

$$$$
4aa_Grossjean_2025
     RDKit          3D

 45 47  0  0  0  0  0  0  0  0999 V2000
  128.4520  132.2400   54.1050 C   0  0  0  0  0  0  0  0  0  0  0  0
  129.8750  132.7810   53.9310 C   0  0  0  0  0  0  0  0  0  0  0  0
  130.3660  133.2310   55.1870 O   0  0  0  0  0  0  0  0  0  0  0  0
  131.6010  132.8730   55.6250 C   0  0  0  0  0  0  0  0  0  0  0  0
  132.5990  133.5920   55.5110 O   0  0  0  0  0  0  0  0  0  0  0  0
  131.6330  131.5130   56.2600 C   0  0  0  0  0  0  0  0  0  0  0  0
  130.5120  130.6800   56.1520 C   0  0  0  0  0  0  0  0  0  0  0  0
  130.5090  129.4150   56.7340 C   0  0  0  0  0  0  0  0  0  0  0  0
  131.6290  128.9540   57.4270 C   0  0  0  0  0  0  0  0  0  0  0  0
  131.5150  127.6640   57.9830 N   0  0  0  0  0  0  0  0  0  0  0  0
  131.9680  126.4730   57.5240 C   0  0  0  0  0  0  0  0  0  0  0  0
  132.5550  126.3210   56.4520 O   0  0  0  0  0  0  0  0  0  0  0  0
  131.6930  125.3250   58.3900 C   0  0  0  0  0  0  0  0  0  0  0  0
  130.0310  124.7940   58.6630 S   0  0  0  0  0  0  0  0  0  0  0  0
  130.5640  123.5270   59.7450 C   0  0  0  0  0  0  0  0  0  0  0  0
  129.7050  122.6970   60.3370 N   0  0  0  0  0  0  0  0  0  0  0  0
  130.2480  121.7630   61.1550 C   0  0  0  0  0  0  0  0  0  0  0  0
  129.2530  120.8320   61.8230 C   0  0  0  0  0  0  0  0  0  0  0  0
  131.6160  121.6380   61.3890 C   0  0  0  0  0  0  0  0  0  0  0  0
  132.5150  122.5100   60.7650 C   0  0  0  0  0  0  0  0  0  0  0  0
  133.9990  122.3350   61.0520 C   0  0  0  0  0  0  0  0  0  0  0  0
  131.9830  123.5060   59.9030 C   0  0  0  0  0  0  0  0  0  0  0  0
  132.6010  124.5450   59.1220 C   0  0  0  0  0  0  0  0  0  0  0  0
  133.9600  124.7370   59.1070 N   0  0  0  0  0  0  0  0  0  0  0  0
  132.7540  129.7820   57.5460 C   0  0  0  0  0  0  0  0  0  0  0  0
  132.7540  131.0480   56.9660 C   0  0  0  0  0  0  0  0  0  0  0  0
  128.2216  132.1524   55.1770 H   0  0  0  0  0  0  0  0  0  0  0  0
  127.7373  132.9291   53.6314 H   0  0  0  0  0  0  0  0  0  0  0  0
  128.3756  131.2501   53.6314 H   0  0  0  0  0  0  0  0  0  0  0  0
  130.5268  131.9825   53.5469 H   0  0  0  0  0  0  0  0  0  0  0  0
  129.8649  133.6192   53.2188 H   0  0  0  0  0  0  0  0  0  0  0  0
  129.6254  131.0286   55.6021 H   0  0  0  0  0  0  0  0  0  0  0  0
  129.6184  128.7753   56.6469 H   0  0  0  0  0  0  0  0  0  0  0  0
  131.0020  127.6340   58.8520 H   0  0  0  0  0  0  0  0  0  0  0  0
  129.3459  120.9190   62.9156 H   0  0  0  0  0  0  0  0  0  0  0  0
  128.2323  121.1069   61.5188 H   0  0  0  0  0  0  0  0  0  0  0  0
  129.4596  119.7953   61.5188 H   0  0  0  0  0  0  0  0  0  0  0  0
  131.9891  120.8539   62.0642 H   0  0  0  0  0  0  0  0  0  0  0  0
  134.1623  122.3157   62.1396 H   0  0  0  0  0  0  0  0  0  0  0  0
  134.3486  121.3894   60.6119 H   0  0  0  0  0  0  0  0  0  0  0  0
  134.5589  123.1733   60.6119 H   0  0  0  0  0  0  0  0  0  0  0  0
  134.5070  124.6030   58.2690 H   0  0  0  0  0  0  0  0  0  0  0  0
  134.4610  125.0170   59.9380 H   0  0  0  0  0  0  0  0  0  0  0  0
  133.6381  129.4311   58.0984 H   0  0  0  0  0  0  0  0  0  0  0  0
  133.6417  131.6905   57.0620 H   0  0  0  0  0  0  0  0  0  0  0  0
  1  2  1  0
  2  3  1  0
  3  4  1  0
  4  5  2  0
  4  6  1  0
  6  7  2  0
  7  8  1  0
  8  9  2  0
  9 10  1  0
 10 11  1  0
 11 12  2  0
 11 13  1  0
 13 14  1  0
 14 15  1  0
 15 16  2  0
 16 17  1  0
 17 18  1  0
 17 19  2  0
 19 20  1  0
 20 21  1  0
 20 22  2  0
 22 23  1  0
 23 24  1  0
  9 25  1  0
 25 26  2  0
 26  6  1  0
 23 13  2  0
 22 15  1  0
  1 27  1  0
  1 28  1  0
  1 29  1  0
  2 30  1  0
  2 31  1  0
  7 32  1  0
  8 33  1  0
 10 34  1  0
 18 35  1  0
 18 36  1  0
 18 37  1  0
 19 38  1  0
 21 39  1  0
 21 40  1  0
 21 41  1  0
 24 42  1  0
 24 43  1  0
 25 44  1  0
 26 45  1  0
M  END
>  <Binding energies>  (1) 
[-7.14]

>  <Ligand effiencies>  (1) 
[-0.24620689655172412]

>  <Interactions>  (1) 
["V-B:TYR:539:CE2:9848, V-B:TYR:539:CD2:9846, V-B:ALA:541:CB:9864, V-B:PRO:540:C:9853, V-A:ASP:366:CA:3210, V-A:ASP:366:CG:3213, V-A:LEU:475:CD2:4259, V-A:ILE:369:CD1:3239, V-A:ASP:366:C:3208, V-A:GLY:454:CA:4049, V-A:ASP:366:CB:3212, V-A:ILE:369:CB:3236, V-A:ILE:369:CG2:3237, H-A:TYR:539:N:4870, V-A:TYR:539:CZ:4877, V-A:TYR:539:C:4867, V-A:PRO:540:N:4884, V-A:PRO:540:CB:4885, V-A:TYR:539:CE2:4876, V-A:LEU:363:CD1:3189, H-A:ASP:366:OD1:3214, V-A:PRO:540:CD:4887, H-B:TYR:539:OH:9850, V-A:ILE:538:CA:4860, V-A:ILE:538:CB:4862, V-A:ILE:538:CG2:4863, H-A:TYR:531:OH:4795, V-A:ILE:538:C:4858, V-A:TYR:539:CD2:4874, H-A:ASP:366:OD2:3215, H-A:ASP:366:O:3209"]

$$$$
4ab_Grossjean_2025
     RDKit          3D

 42 44  0  0  0  0  0  0  0  0999 V2000
  126.6860  126.9230   67.8880 C   0  0  0  0  0  0  0  0  0  0  0  0
  125.7630  127.1910   66.8420 O   0  0  0  0  0  0  0  0  0  0  0  0
  125.4450  128.4660   66.5000 C   0  0  0  0  0  0  0  0  0  0  0  0
  124.5770  129.1290   67.0780 O   0  0  0  0  0  0  0  0  0  0  0  0
  126.2490  128.9880   65.3450 C   0  0  0  0  0  0  0  0  0  0  0  0
  125.6690  129.0240   64.0700 C   0  0  0  0  0  0  0  0  0  0  0  0
  126.3890  129.5010   62.9770 C   0  0  0  0  0  0  0  0  0  0  0  0
  127.6960  129.9590   63.1380 C   0  0  0  0  0  0  0  0  0  0  0  0
  128.3330  130.4120   61.9660 N   0  0  0  0  0  0  0  0  0  0  0  0
  129.3880  131.2470   61.8130 C   0  0  0  0  0  0  0  0  0  0  0  0
  129.9690  131.8090   62.7430 O   0  0  0  0  0  0  0  0  0  0  0  0
  129.8060  131.4770   60.4290 C   0  0  0  0  0  0  0  0  0  0  0  0
  128.6750  132.1600   59.2580 S   0  0  0  0  0  0  0  0  0  0  0  0
  129.8630  132.0600   57.9790 C   0  0  0  0  0  0  0  0  0  0  0  0
  129.5960  132.4580   56.7350 N   0  0  0  0  0  0  0  0  0  0  0  0
  130.6030  132.3250   55.8380 C   0  0  0  0  0  0  0  0  0  0  0  0
  130.2770  132.7790   54.4270 C   0  0  0  0  0  0  0  0  0  0  0  0
  131.8590  131.8120   56.1530 C   0  0  0  0  0  0  0  0  0  0  0  0
  132.1360  131.3940   57.4600 C   0  0  0  0  0  0  0  0  0  0  0  0
  133.5210  130.8390   57.7550 C   0  0  0  0  0  0  0  0  0  0  0  0
  131.1030  131.5140   58.4290 C   0  0  0  0  0  0  0  0  0  0  0  0
  131.0410  131.1850   59.8270 C   0  0  0  0  0  0  0  0  0  0  0  0
  132.1060  130.6380   60.4980 N   0  0  0  0  0  0  0  0  0  0  0  0
  128.2880  129.9220   64.4100 C   0  0  0  0  0  0  0  0  0  0  0  0
  127.5670  129.4420   65.5000 C   0  0  0  0  0  0  0  0  0  0  0  0
  126.1909  127.0668   68.8597 H   0  0  0  0  0  0  0  0  0  0  0  0
  127.0405  125.8848   67.8071 H   0  0  0  0  0  0  0  0  0  0  0  0
  127.5414  127.6099   67.8071 H   0  0  0  0  0  0  0  0  0  0  0  0
  124.6360  128.6725   63.9309 H   0  0  0  0  0  0  0  0  0  0  0  0
  125.9234  129.5164   61.9805 H   0  0  0  0  0  0  0  0  0  0  0  0
  127.9210  130.0630   61.1140 H   0  0  0  0  0  0  0  0  0  0  0  0
  129.6359  133.6719   54.4680 H   0  0  0  0  0  0  0  0  0  0  0  0
  131.2090  133.0209   53.8951 H   0  0  0  0  0  0  0  0  0  0  0  0
  129.7499  131.9732   53.8951 H   0  0  0  0  0  0  0  0  0  0  0  0
  132.6330  131.7353   55.3751 H   0  0  0  0  0  0  0  0  0  0  0  0
  133.6682  130.7800   58.8435 H   0  0  0  0  0  0  0  0  0  0  0  0
  133.6142  129.8341   57.3174 H   0  0  0  0  0  0  0  0  0  0  0  0
  134.2823  131.5015   57.3174 H   0  0  0  0  0  0  0  0  0  0  0  0
  132.0500  130.3880   61.4740 H   0  0  0  0  0  0  0  0  0  0  0  0
  132.9880  130.4710   60.0330 H   0  0  0  0  0  0  0  0  0  0  0  0
  129.3219  130.2723   64.5458 H   0  0  0  0  0  0  0  0  0  0  0  0
  128.0365  129.4185   66.4945 H   0  0  0  0  0  0  0  0  0  0  0  0
  1  2  1  0
  2  3  1  0
  3  4  2  0
  3  5  1  0
  5  6  2  0
  6  7  1  0
  7  8  2  0
  8  9  1  0
  9 10  1  0
 10 11  2  0
 10 12  1  0
 12 13  1  0
 13 14  1  0
 14 15  2  0
 15 16  1  0
 16 17  1  0
 16 18  2  0
 18 19  1  0
 19 20  1  0
 19 21  2  0
 21 22  1  0
 22 23  1  0
  8 24  1  0
 24 25  2  0
 25  5  1  0
 22 12  2  0
 21 14  1  0
  1 26  1  0
  1 27  1  0
  1 28  1  0
  6 29  1  0
  7 30  1  0
  9 31  1  0
 17 32  1  0
 17 33  1  0
 17 34  1  0
 18 35  1  0
 20 36  1  0
 20 37  1  0
 20 38  1  0
 23 39  1  0
 23 40  1  0
 24 41  1  0
 25 42  1  0
M  END
>  <Binding energies>  (1) 
[-6.89]

>  <Ligand effiencies>  (1) 
[-0.24607142857142855]

>  <Interactions>  (1) 
["V-B:GLU:543:CD:9880, V-A:ASP:366:CG:3213, V-A:ASP:366:CB:3212, V-A:PRO:540:CA:4883, V-A:TYR:539:C:4867, V-A:PRO:540:N:4884, V-A:PRO:540:CB:4885, V-A:LEU:363:CD1:3189, V-A:GLU:543:CD:4908, H-A:GLU:543:OE1:4909, H-A:ALA:541:N:4891, V-A:ALA:541:CB:4892, H-A:ASP:366:OD1:3214, V-A:LEU:363:CA:3185, V-A:GLU:543:CG:4907, V-A:ILE:538:CA:4860, V-A:ILE:538:CB:4862, V-A:ILE:538:CG2:4863, V-B:GLU:543:CB:9878, V-A:GLU:543:CB:4906, V-B:ARG:545:CZ:9898, V-B:TYR:484:CZ:9319, V-B:HIS:456:CE1:9042, V-A:ILE:538:C:4858, V-B:ARG:545:CD:9895, V-B:ARG:545:CG:9894, V-B:GLU:543:CG:9879, H-B:TYR:484:OH:9320, H-B:ARG:545:NE:9896, H-B:HIS:456:ND1:9039"]

$$$$
4ac_Grossjean_2025
     RDKit          3D

 40 42  0  0  0  0  0  0  0  0999 V2000
  133.9900  124.9770   66.3150 C   0  0  0  0  0  0  0  0  0  0  0  0
  134.1040  125.3890   64.9570 O   0  0  0  0  0  0  0  0  0  0  0  0
  133.0420  125.1810   64.0980 C   0  0  0  0  0  0  0  0  0  0  0  0
  133.2960  124.3990   62.9720 C   0  0  0  0  0  0  0  0  0  0  0  0
  132.2860  124.1350   62.0500 C   0  0  0  0  0  0  0  0  0  0  0  0
  131.0020  124.6450   62.2490 C   0  0  0  0  0  0  0  0  0  0  0  0
  130.0510  124.3370   61.2590 N   0  0  0  0  0  0  0  0  0  0  0  0
  128.7730  123.9110   61.4010 C   0  0  0  0  0  0  0  0  0  0  0  0
  128.2380  123.6860   62.4890 O   0  0  0  0  0  0  0  0  0  0  0  0
  128.0330  123.7150   60.1510 C   0  0  0  0  0  0  0  0  0  0  0  0
  128.8950  123.3880   58.6470 S   0  0  0  0  0  0  0  0  0  0  0  0
  127.3950  123.3040   57.7510 C   0  0  0  0  0  0  0  0  0  0  0  0
  127.3680  123.0610   56.4400 N   0  0  0  0  0  0  0  0  0  0  0  0
  126.1410  123.0230   55.8660 C   0  0  0  0  0  0  0  0  0  0  0  0
  126.1330  122.7440   54.3750 C   0  0  0  0  0  0  0  0  0  0  0  0
  124.9520  123.2230   56.5660 C   0  0  0  0  0  0  0  0  0  0  0  0
  124.9840  123.4780   57.9410 C   0  0  0  0  0  0  0  0  0  0  0  0
  123.6600  123.6890   58.6600 C   0  0  0  0  0  0  0  0  0  0  0  0
  126.2530  123.5230   58.5780 C   0  0  0  0  0  0  0  0  0  0  0  0
  126.6450  123.7530   59.9420 C   0  0  0  0  0  0  0  0  0  0  0  0
  125.7300  123.9890   60.9370 N   0  0  0  0  0  0  0  0  0  0  0  0
  130.7420  125.4420   63.3730 C   0  0  0  0  0  0  0  0  0  0  0  0
  131.7540  125.7050   64.2920 C   0  0  0  0  0  0  0  0  0  0  0  0
  134.2244  125.8243   66.9761 H   0  0  0  0  0  0  0  0  0  0  0  0
  132.9631  124.6337   66.5090 H   0  0  0  0  0  0  0  0  0  0  0  0
  134.6944  124.1547   66.5090 H   0  0  0  0  0  0  0  0  0  0  0  0
  134.3030  123.9869   62.8104 H   0  0  0  0  0  0  0  0  0  0  0  0
  132.5009  123.5225   61.1620 H   0  0  0  0  0  0  0  0  0  0  0  0
  130.3910  124.4180   60.3110 H   0  0  0  0  0  0  0  0  0  0  0  0
  126.1018  121.6576   54.2054 H   0  0  0  0  0  0  0  0  0  0  0  0
  125.2479  123.2118   53.9192 H   0  0  0  0  0  0  0  0  0  0  0  0
  127.0435  123.1603   53.9192 H   0  0  0  0  0  0  0  0  0  0  0  0
  123.9885  123.1803   56.0369 H   0  0  0  0  0  0  0  0  0  0  0  0
  123.8249  123.6627   59.7472 H   0  0  0  0  0  0  0  0  0  0  0  0
  123.2402  124.6654   58.3763 H   0  0  0  0  0  0  0  0  0  0  0  0
  122.9575  122.8915   58.3763 H   0  0  0  0  0  0  0  0  0  0  0  0
  124.7770  124.2520   60.7340 H   0  0  0  0  0  0  0  0  0  0  0  0
  125.9820  123.9040   61.9120 H   0  0  0  0  0  0  0  0  0  0  0  0
  129.7366  125.8602   63.5288 H   0  0  0  0  0  0  0  0  0  0  0  0
  131.5434  126.3266   65.1748 H   0  0  0  0  0  0  0  0  0  0  0  0
  1  2  1  0
  2  3  1  0
  3  4  2  0
  4  5  1  0
  5  6  2  0
  6  7  1  0
  7  8  1  0
  8  9  2  0
  8 10  1  0
 10 11  1  0
 11 12  1  0
 12 13  2  0
 13 14  1  0
 14 15  1  0
 14 16  2  0
 16 17  1  0
 17 18  1  0
 17 19  2  0
 19 20  1  0
 20 21  1  0
  6 22  1  0
 22 23  2  0
 23  3  1  0
 20 10  2  0
 19 12  1  0
  1 24  1  0
  1 25  1  0
  1 26  1  0
  4 27  1  0
  5 28  1  0
  7 29  1  0
 15 30  1  0
 15 31  1  0
 15 32  1  0
 16 33  1  0
 18 34  1  0
 18 35  1  0
 18 36  1  0
 21 37  1  0
 21 38  1  0
 22 39  1  0
 23 40  1  0
M  END
>  <Binding energies>  (1) 
[-6.84]

>  <Ligand effiencies>  (1) 
[-0.2630769230769231]

>  <Interactions>  (1) 
["V-B:ILE:538:CD1:9837, V-B:PRO:540:CB:9857, V-B:LEU:363:CD1:8161, V-B:PRO:540:CA:9855, H-B:GLU:543:OE1:9881, V-B:TYR:539:CE2:9848, V-B:TYR:539:CD2:9846, V-B:ILE:538:CA:9832, V-B:MET:535:CE:9807, V-B:TYR:539:CZ:9849, H-B:ASP:366:OD2:8187, V-B:PRO:540:N:9856, V-B:TYR:531:CE2:9765, H-A:TYR:484:OH:4348, V-B:TYR:531:CZ:9766, V-A:GLY:454:CA:4049, V-B:ASP:366:CG:8185, V-B:ILE:538:CB:9834, V-A:GLU:543:CD:4908, H-A:GLY:454:N:4050, H-A:ARG:545:NH1:4927, H-A:ARG:545:NH2:4928, V-A:ARG:545:CZ:4926, V-A:HIS:456:CE1:4070, V-A:ILE:455:C:4052, V-A:TYR:484:CE2:4346, H-A:ARG:545:NE:4924, V-A:TYR:484:CZ:4347, V-A:ARG:545:CG:4922, V-A:ARG:545:CD:4923, V-B:ILE:538:CG1:9836, V-B:MET:535:CG:9805, V-B:LEU:363:CA:8157, V-B:MET:535:CB:9804, V-B:VAL:537:C:9822, V-B:LEU:363:CB:8159"]

$$$$
4ad_Grossjean_2025
     RDKit          3D

 36 38  0  0  0  0  0  0  0  0999 V2000
  130.2470  132.8640   54.4780 C   0  0  0  0  0  0  0  0  0  0  0  0
  130.4990  132.3550   55.8850 C   0  0  0  0  0  0  0  0  0  0  0  0
  131.7100  131.7560   56.2260 C   0  0  0  0  0  0  0  0  0  0  0  0
  131.9190  131.2910   57.5300 C   0  0  0  0  0  0  0  0  0  0  0  0
  133.2560  130.6420   57.8540 C   0  0  0  0  0  0  0  0  0  0  0  0
  130.8640  131.4550   58.4690 C   0  0  0  0  0  0  0  0  0  0  0  0
  130.7390  131.1040   59.8580 C   0  0  0  0  0  0  0  0  0  0  0  0
  131.7530  130.4920   60.5510 N   0  0  0  0  0  0  0  0  0  0  0  0
  129.5010  131.4450   60.4240 C   0  0  0  0  0  0  0  0  0  0  0  0
  129.0320  131.2230   61.7930 C   0  0  0  0  0  0  0  0  0  0  0  0
  129.5980  131.7610   62.7460 O   0  0  0  0  0  0  0  0  0  0  0  0
  127.9520  130.4110   61.9120 N   0  0  0  0  0  0  0  0  0  0  0  0
  127.2900  129.9660   63.0730 C   0  0  0  0  0  0  0  0  0  0  0  0
  125.8930  129.9540   63.0130 C   0  0  0  0  0  0  0  0  0  0  0  0
  125.1480  129.5210   64.1060 C   0  0  0  0  0  0  0  0  0  0  0  0
  125.7990  129.0920   65.2590 C   0  0  0  0  0  0  0  0  0  0  0  0
  127.1910  129.0870   65.3270 C   0  0  0  0  0  0  0  0  0  0  0  0
  127.9390  129.5200   64.2360 C   0  0  0  0  0  0  0  0  0  0  0  0
  128.4510  132.2220   59.2370 S   0  0  0  0  0  0  0  0  0  0  0  0
  129.6730  132.0830   57.9940 C   0  0  0  0  0  0  0  0  0  0  0  0
  129.4720  132.5270   56.7520 N   0  0  0  0  0  0  0  0  0  0  0  0
  129.7594  133.8489   54.5262 H   0  0  0  0  0  0  0  0  0  0  0  0
  131.2043  132.9546   53.9439 H   0  0  0  0  0  0  0  0  0  0  0  0
  129.5945  132.1576   53.9439 H   0  0  0  0  0  0  0  0  0  0  0  0
  132.5021  131.6484   55.4704 H   0  0  0  0  0  0  0  0  0  0  0  0
  133.3796  130.5820   58.9454 H   0  0  0  0  0  0  0  0  0  0  0  0
  133.2854  129.6293   57.4255 H   0  0  0  0  0  0  0  0  0  0  0  0
  134.0699  131.2453   57.4255 H   0  0  0  0  0  0  0  0  0  0  0  0
  131.6650  130.2530   61.5280 H   0  0  0  0  0  0  0  0  0  0  0  0
  132.6270  130.2520   60.1010 H   0  0  0  0  0  0  0  0  0  0  0  0
  127.5450  130.0830   61.0490 H   0  0  0  0  0  0  0  0  0  0  0  0
  125.3809  130.2880   62.0985 H   0  0  0  0  0  0  0  0  0  0  0  0
  124.0490  129.5178   64.0588 H   0  0  0  0  0  0  0  0  0  0  0  0
  125.2097  128.7540   66.1241 H   0  0  0  0  0  0  0  0  0  0  0  0
  127.6972  128.7417   66.2405 H   0  0  0  0  0  0  0  0  0  0  0  0
  129.0379  129.5129   64.2846 H   0  0  0  0  0  0  0  0  0  0  0  0
  1  2  1  0
  2  3  2  0
  3  4  1  0
  4  5  1  0
  4  6  2  0
  6  7  1  0
  7  8  1  0
  7  9  2  0
  9 10  1  0
 10 11  2  0
 10 12  1  0
 12 13  1  0
 13 14  2  0
 14 15  1  0
 15 16  2  0
 16 17  1  0
 17 18  2  0
  9 19  1  0
 19 20  1  0
 20 21  2  0
 21  2  1  0
 20  6  1  0
 18 13  1  0
  1 22  1  0
  1 23  1  0
  1 24  1  0
  3 25  1  0
  5 26  1  0
  5 27  1  0
  5 28  1  0
  8 29  1  0
  8 30  1  0
 12 31  1  0
 14 32  1  0
 15 33  1  0
 16 34  1  0
 17 35  1  0
 18 36  1  0
M  END
>  <Binding energies>  (1) 
[-6.89]

>  <Ligand effiencies>  (1) 
[-0.2870833333333333]

>  <Interactions>  (1) 
["V-A:ASP:366:CG:3213, V-A:ASP:366:CB:3212, H-A:TYR:539:N:4870, V-A:PRO:540:CA:4883, V-A:TYR:539:C:4867, V-A:PRO:540:N:4884, V-A:PRO:540:CB:4885, V-A:LEU:363:CD1:3189, V-A:GLU:543:CD:4908, H-A:GLU:543:OE1:4909, H-A:ALA:541:N:4891, H-A:ASP:366:OD1:3214, V-A:LEU:363:CA:3185, V-A:GLU:543:CG:4907, V-A:ILE:538:CA:4860, V-A:ILE:538:CB:4862, V-A:ILE:538:CG2:4863, V-B:ARG:545:CZ:9898, V-A:ILE:538:C:4858"]

$$$$
4ae_Grossjean_2025
     RDKit          3D

 38 40  0  0  0  0  0  0  0  0999 V2000
  128.1380  128.8260   66.7300 C   0  0  0  0  0  0  0  0  0  0  0  0
  127.3240  129.0900   65.4780 C   0  0  0  0  0  0  0  0  0  0  0  0
  125.9450  128.8680   65.4410 C   0  0  0  0  0  0  0  0  0  0  0  0
  125.2630  129.1260   64.2520 C   0  0  0  0  0  0  0  0  0  0  0  0
  125.9670  129.5920   63.1400 C   0  0  0  0  0  0  0  0  0  0  0  0
  127.3470  129.8010   63.2470 C   0  0  0  0  0  0  0  0  0  0  0  0
  128.0030  130.2510   62.0890 N   0  0  0  0  0  0  0  0  0  0  0  0
  129.0050  131.1600   61.9810 C   0  0  0  0  0  0  0  0  0  0  0  0
  129.4980  131.7540   62.9410 O   0  0  0  0  0  0  0  0  0  0  0  0
  129.4800  131.4100   60.6180 C   0  0  0  0  0  0  0  0  0  0  0  0
  128.4220  132.1760   59.4320 S   0  0  0  0  0  0  0  0  0  0  0  0
  129.6500  132.0610   58.1920 C   0  0  0  0  0  0  0  0  0  0  0  0
  129.4440  132.5040   56.9520 N   0  0  0  0  0  0  0  0  0  0  0  0
  130.4740  132.3510   56.0860 C   0  0  0  0  0  0  0  0  0  0  0  0
  130.2150  132.8560   54.6770 C   0  0  0  0  0  0  0  0  0  0  0  0
  131.6950  131.7740   56.4280 C   0  0  0  0  0  0  0  0  0  0  0  0
  131.9090  131.3110   57.7320 C   0  0  0  0  0  0  0  0  0  0  0  0
  133.2570  130.6840   58.0560 C   0  0  0  0  0  0  0  0  0  0  0  0
  130.8500  131.4530   58.6680 C   0  0  0  0  0  0  0  0  0  0  0  0
  130.7270  131.0920   60.0560 C   0  0  0  0  0  0  0  0  0  0  0  0
  131.7470  130.4910   60.7500 N   0  0  0  0  0  0  0  0  0  0  0  0
  128.0220  129.5440   64.4060 N   0  0  0  0  0  0  0  0  0  0  0  0
  127.5204  129.0263   67.6179 H   0  0  0  0  0  0  0  0  0  0  0  0
  128.4650  127.7758   66.7401 H   0  0  0  0  0  0  0  0  0  0  0  0
  129.0191  129.4844   66.7401 H   0  0  0  0  0  0  0  0  0  0  0  0
  125.4100  128.4986   66.3283 H   0  0  0  0  0  0  0  0  0  0  0  0
  124.1768  128.9633   64.1908 H   0  0  0  0  0  0  0  0  0  0  0  0
  125.4445  129.7921   62.1929 H   0  0  0  0  0  0  0  0  0  0  0  0
  127.6400  129.8780   61.2240 H   0  0  0  0  0  0  0  0  0  0  0  0
  129.7135  133.8339   54.7244 H   0  0  0  0  0  0  0  0  0  0  0  0
  131.1712  132.9598   54.1431 H   0  0  0  0  0  0  0  0  0  0  0  0
  129.5728  132.1400   54.1431 H   0  0  0  0  0  0  0  0  0  0  0  0
  132.4906  131.6822   55.6740 H   0  0  0  0  0  0  0  0  0  0  0  0
  133.3816  130.6260   59.1474 H   0  0  0  0  0  0  0  0  0  0  0  0
  133.3032  129.6720   57.6274 H   0  0  0  0  0  0  0  0  0  0  0  0
  134.0607  131.3007   57.6274 H   0  0  0  0  0  0  0  0  0  0  0  0
  131.6640  130.2670   61.7320 H   0  0  0  0  0  0  0  0  0  0  0  0
  132.6190  130.2510   60.2990 H   0  0  0  0  0  0  0  0  0  0  0  0
  1  2  1  0
  2  3  2  0
  3  4  1  0
  4  5  2  0
  5  6  1  0
  6  7  1  0
  7  8  1  0
  8  9  2  0
  8 10  1  0
 10 11  1  0
 11 12  1  0
 12 13  2  0
 13 14  1  0
 14 15  1  0
 14 16  2  0
 16 17  1  0
 17 18  1  0
 17 19  2  0
 19 20  1  0
 20 21  1  0
  6 22  2  0
 22  2  1  0
 20 10  2  0
 19 12  1  0
  1 23  1  0
  1 24  1  0
  1 25  1  0
  3 26  1  0
  4 27  1  0
  5 28  1  0
  7 29  1  0
 15 30  1  0
 15 31  1  0
 15 32  1  0
 16 33  1  0
 18 34  1  0
 18 35  1  0
 18 36  1  0
 21 37  1  0
 21 38  1  0
M  END
>  <Binding energies>  (1) 
[-7.09]

>  <Ligand effiencies>  (1) 
[-0.2836]

>  <Interactions>  (1) 
["V-A:ASP:366:CG:3213, V-A:ASP:366:CB:3212, V-A:PRO:540:CA:4883, V-A:TYR:539:C:4867, V-A:PRO:540:N:4884, V-A:PRO:540:CB:4885, V-A:LEU:363:CD1:3189, V-A:GLU:543:CD:4908, H-A:GLU:543:OE1:4909, H-A:ASP:366:OD1:3214, V-A:LEU:363:CA:3185, V-A:GLU:543:CG:4907, V-A:ILE:538:CA:4860, V-A:ILE:538:CB:4862, V-A:ILE:538:CG2:4863, V-A:GLU:543:CB:4906, V-B:ARG:545:CZ:9898, V-B:HIS:456:CE1:9042, V-A:ILE:538:C:4858, H-B:TYR:484:OH:9320"]

$$$$
4af_Grossjean_2025
     RDKit          3D

 35 37  0  0  0  0  0  0  0  0999 V2000
  126.5430  122.4520   54.4490 C   0  0  0  0  0  0  0  0  0  0  0  0
  126.4970  122.8270   55.9190 C   0  0  0  0  0  0  0  0  0  0  0  0
  125.2940  123.1600   56.5380 C   0  0  0  0  0  0  0  0  0  0  0  0
  125.2760  123.5050   57.8940 C   0  0  0  0  0  0  0  0  0  0  0  0
  123.9390  123.8620   58.5240 C   0  0  0  0  0  0  0  0  0  0  0  0
  126.5120  123.5020   58.5960 C   0  0  0  0  0  0  0  0  0  0  0  0
  126.8530  123.7990   59.9620 C   0  0  0  0  0  0  0  0  0  0  0  0
  125.9100  124.1710   60.8870 N   0  0  0  0  0  0  0  0  0  0  0  0
  128.2210  123.6730   60.2490 C   0  0  0  0  0  0  0  0  0  0  0  0
  128.9140  123.9250   61.5140 C   0  0  0  0  0  0  0  0  0  0  0  0
  128.3410  123.7440   62.5890 O   0  0  0  0  0  0  0  0  0  0  0  0
  130.1970  124.3450   61.3980 N   0  0  0  0  0  0  0  0  0  0  0  0
  131.1120  124.7150   62.4020 C   0  0  0  0  0  0  0  0  0  0  0  0
  130.7950  125.4310   63.5710 C   0  0  0  0  0  0  0  0  0  0  0  0
  131.8050  125.7500   64.4800 C   0  0  0  0  0  0  0  0  0  0  0  0
  133.1120  125.3500   64.1970 C   0  0  0  0  0  0  0  0  0  0  0  0
  133.4450  124.6660   63.0740 N   0  0  0  0  0  0  0  0  0  0  0  0
  132.4520  124.3630   62.1990 C   0  0  0  0  0  0  0  0  0  0  0  0
  129.1290  123.1800   58.8170 S   0  0  0  0  0  0  0  0  0  0  0  0
  127.6740  123.1430   57.8480 C   0  0  0  0  0  0  0  0  0  0  0  0
  127.6940  122.8120   56.5570 N   0  0  0  0  0  0  0  0  0  0  0  0
  126.6764  121.3644   54.3520 H   0  0  0  0  0  0  0  0  0  0  0  0
  125.6015  122.7505   53.9648 H   0  0  0  0  0  0  0  0  0  0  0  0
  127.3844  122.9692   53.9648 H   0  0  0  0  0  0  0  0  0  0  0  0
  124.3579  123.1517   55.9604 H   0  0  0  0  0  0  0  0  0  0  0  0
  124.0317  123.8372   59.6198 H   0  0  0  0  0  0  0  0  0  0  0  0
  123.6407  124.8713   58.2040 H   0  0  0  0  0  0  0  0  0  0  0  0
  123.1773  123.1358   58.2040 H   0  0  0  0  0  0  0  0  0  0  0  0
  125.0050  124.5290   60.6130 H   0  0  0  0  0  0  0  0  0  0  0  0
  126.0900  124.0950   61.8780 H   0  0  0  0  0  0  0  0  0  0  0  0
  130.5650  124.3990   60.4590 H   0  0  0  0  0  0  0  0  0  0  0  0
  129.7570  125.7376   63.7674 H   0  0  0  0  0  0  0  0  0  0  0  0
  131.5755  126.3056   65.4012 H   0  0  0  0  0  0  0  0  0  0  0  0
  133.9062  125.6003   64.9157 H   0  0  0  0  0  0  0  0  0  0  0  0
  132.7137  123.8125   61.2833 H   0  0  0  0  0  0  0  0  0  0  0  0
  1  2  1  0
  2  3  2  0
  3  4  1  0
  4  5  1  0
  4  6  2  0
  6  7  1  0
  7  8  1  0
  7  9  2  0
  9 10  1  0
 10 11  2  0
 10 12  1  0
 12 13  1  0
 13 14  2  0
 14 15  1  0
 15 16  2  0
 16 17  1  0
 17 18  2  0
  9 19  1  0
 19 20  1  0
 20 21  2  0
 21  2  1  0
 20  6  1  0
 18 13  1  0
  1 22  1  0
  1 23  1  0
  1 24  1  0
  3 25  1  0
  5 26  1  0
  5 27  1  0
  5 28  1  0
  8 29  1  0
  8 30  1  0
 12 31  1  0
 14 32  1  0
 15 33  1  0
 16 34  1  0
 18 35  1  0
M  END
>  <Binding energies>  (1) 
[-6.93]

>  <Ligand effiencies>  (1) 
[-0.28875]

>  <Interactions>  (1) 
["V-B:TYR:539:CD1:9845, V-B:ILE:538:CD1:9837, V-B:PRO:540:CB:9857, V-B:LEU:363:CD1:8161, V-B:TYR:539:C:9839, V-B:PRO:540:CA:9855, H-B:TYR:539:N:9842, H-B:GLU:543:OE1:9881, V-B:TYR:539:CE2:9848, V-B:TYR:539:CD2:9846, V-B:ILE:538:CA:9832, V-B:MET:535:CE:9807, V-B:TYR:539:CZ:9849, H-B:ASP:366:OD2:8187, V-B:PRO:540:N:9856, V-B:TYR:531:CE2:9765, H-A:TYR:484:OH:4348, V-B:TYR:531:CZ:9766, V-B:ASP:366:CG:8185, V-B:ASP:366:CB:8184, V-B:ILE:538:C:9830, V-B:ILE:538:CB:9834, V-A:GLU:543:CD:4908, H-A:GLY:454:N:4050, H-A:ARG:545:NH2:4928, V-A:ARG:545:CZ:4926, V-A:TYR:484:CE2:4346, V-A:TYR:484:CZ:4347, V-A:ARG:545:CD:4923, V-B:ILE:538:CG1:9836, V-B:LEU:363:CA:8157, V-B:VAL:537:C:9822, V-B:LEU:363:CB:8159"]

$$$$
4ag_Grossjean_2025
     RDKit          3D

 39 41  0  0  0  0  0  0  0  0999 V2000
  123.8840  132.8660   60.7160 C   0  0  0  0  0  0  0  0  0  0  0  0
  124.4850  131.4970   60.9720 C   0  0  0  0  0  0  0  0  0  0  0  0
  124.7110  131.0450   62.2710 C   0  0  0  0  0  0  0  0  0  0  0  0
  125.2650  129.7780   62.4850 C   0  0  0  0  0  0  0  0  0  0  0  0
  125.4930  129.3290   63.9200 C   0  0  0  0  0  0  0  0  0  0  0  0
  125.5790  128.9900   61.3450 C   0  0  0  0  0  0  0  0  0  0  0  0
  126.1440  127.6760   61.2000 C   0  0  0  0  0  0  0  0  0  0  0  0
  126.5010  126.9080   62.2810 N   0  0  0  0  0  0  0  0  0  0  0  0
  126.2950  127.2650   59.8680 C   0  0  0  0  0  0  0  0  0  0  0  0
  126.8220  125.9970   59.3630 C   0  0  0  0  0  0  0  0  0  0  0  0
  127.8330  125.9570   58.6580 O   0  0  0  0  0  0  0  0  0  0  0  0
  126.1270  124.8890   59.6970 N   0  0  0  0  0  0  0  0  0  0  0  0
  126.4830  123.5210   59.3260 C   0  0  0  0  0  0  0  0  0  0  0  0
  126.3520  123.2290   57.8350 C   0  0  0  0  0  0  0  0  0  0  0  0
  127.5000  123.0820   57.0520 C   0  0  0  0  0  0  0  0  0  0  0  0
  127.3830  122.7920   55.6950 C   0  0  0  0  0  0  0  0  0  0  0  0
  126.1190  122.6380   55.1280 C   0  0  0  0  0  0  0  0  0  0  0  0
  124.9710  122.7680   55.9070 C   0  0  0  0  0  0  0  0  0  0  0  0
  125.0880  123.0570   57.2640 C   0  0  0  0  0  0  0  0  0  0  0  0
  125.7260  128.5020   58.7480 S   0  0  0  0  0  0  0  0  0  0  0  0
  125.2980  129.5660   60.0690 C   0  0  0  0  0  0  0  0  0  0  0  0
  124.7690  130.7730   59.8620 N   0  0  0  0  0  0  0  0  0  0  0  0
  123.6684  133.3572   61.6763 H   0  0  0  0  0  0  0  0  0  0  0  0
  124.5963  133.4778   60.1430 H   0  0  0  0  0  0  0  0  0  0  0  0
  122.9515  132.7558   60.1430 H   0  0  0  0  0  0  0  0  0  0  0  0
  124.4538  131.6845   63.1282 H   0  0  0  0  0  0  0  0  0  0  0  0
  125.1049  130.0933   64.6094 H   0  0  0  0  0  0  0  0  0  0  0  0
  124.9687  128.3778   64.0943 H   0  0  0  0  0  0  0  0  0  0  0  0
  126.5703  129.1911   64.0943 H   0  0  0  0  0  0  0  0  0  0  0  0
  126.8470  127.3190   63.1360 H   0  0  0  0  0  0  0  0  0  0  0  0
  126.4250  125.9000   62.2560 H   0  0  0  0  0  0  0  0  0  0  0  0
  125.3420  124.9900   60.3240 H   0  0  0  0  0  0  0  0  0  0  0  0
  127.5270  123.3425   59.6231 H   0  0  0  0  0  0  0  0  0  0  0  0
  125.7759  122.8564   59.8439 H   0  0  0  0  0  0  0  0  0  0  0  0
  128.4950  123.1952   57.5070 H   0  0  0  0  0  0  0  0  0  0  0  0
  128.2841  122.6849   55.0733 H   0  0  0  0  0  0  0  0  0  0  0  0
  126.0269  122.4117   54.0555 H   0  0  0  0  0  0  0  0  0  0  0  0
  123.9773  122.6429   55.4522 H   0  0  0  0  0  0  0  0  0  0  0  0
  124.1858  123.1499   57.8865 H   0  0  0  0  0  0  0  0  0  0  0  0
  1  2  1  0
  2  3  2  0
  3  4  1  0
  4  5  1  0
  4  6  2  0
  6  7  1  0
  7  8  1  0
  7  9  2  0
  9 10  1  0
 10 11  2  0
 10 12  1  0
 12 13  1  0
 13 14  1  0
 14 15  2  0
 15 16  1  0
 16 17  2  0
 17 18  1  0
 18 19  2  0
  9 20  1  0
 20 21  1  0
 21 22  2  0
 22  2  1  0
 21  6  1  0
 19 14  1  0
  1 23  1  0
  1 24  1  0
  1 25  1  0
  3 26  1  0
  5 27  1  0
  5 28  1  0
  5 29  1  0
  8 30  1  0
  8 31  1  0
 12 32  1  0
 13 33  1  0
 13 34  1  0
 15 35  1  0
 16 36  1  0
 17 37  1  0
 18 38  1  0
 19 39  1  0
M  END
>  <Binding energies>  (1) 
[-6.92]

>  <Ligand effiencies>  (1) 
[-0.2768]

>  <Interactions>  (1) 
["V-B:TYR:539:CD1:9845, V-B:ILE:538:CD1:9837, V-B:PRO:540:CB:9857, V-B:PRO:540:CD:9859, V-B:LEU:363:CD1:8161, V-B:GLU:543:CD:9880, H-B:GLU:543:OE2:9882, V-B:PRO:540:CA:9855, V-B:ILE:538:CG2:9835, H-B:GLU:543:OE1:9881, V-B:TYR:539:CE2:9848, V-B:ILE:538:CA:9832, V-B:MET:535:CE:9807, V-B:TYR:539:CZ:9849, H-B:ASP:366:OD2:8187, V-B:TYR:539:CE1:9847, V-B:PRO:540:N:9856, V-B:TYR:531:CE2:9765, V-B:TYR:539:CG:9844, V-B:TYR:531:CZ:9766, V-B:ASP:366:CG:8185, V-B:ASP:366:CB:8184, V-B:ILE:538:C:9830, V-B:ILE:538:CB:9834, V-B:ARG:545:CZ:9898, V-B:ILE:369:CD1:8211, V-B:ILE:369:CG2:8209"]

$$$$
4ah_Grossjean_2025
     RDKit          3D

 51 53  0  0  0  0  0  0  0  0999 V2000
  128.9600  132.6570   53.6360 C   0  0  0  0  0  0  0  0  0  0  0  0
  127.9570  132.0120   54.4120 O   0  0  0  0  0  0  0  0  0  0  0  0
  128.3230  131.0220   55.3070 C   0  0  0  0  0  0  0  0  0  0  0  0
  129.5330  131.0160   56.0180 C   0  0  0  0  0  0  0  0  0  0  0  0
  129.8370  129.9820   56.9040 C   0  0  0  0  0  0  0  0  0  0  0  0
  131.1350  130.0170   57.7030 C   0  0  0  0  0  0  0  0  0  0  0  0
  131.4760  128.7370   58.3230 N   0  0  0  0  0  0  0  0  0  0  0  0
  131.7580  127.5970   57.6570 C   0  0  0  0  0  0  0  0  0  0  0  0
  131.7170  127.5170   56.4280 O   0  0  0  0  0  0  0  0  0  0  0  0
  132.0780  126.4350   58.4850 C   0  0  0  0  0  0  0  0  0  0  0  0
  132.5770  124.9200   57.7300 S   0  0  0  0  0  0  0  0  0  0  0  0
  132.7020  124.1330   59.2880 C   0  0  0  0  0  0  0  0  0  0  0  0
  133.0760  122.8590   59.4080 N   0  0  0  0  0  0  0  0  0  0  0  0
  133.1340  122.3720   60.6710 C   0  0  0  0  0  0  0  0  0  0  0  0
  133.5580  120.9190   60.7840 C   0  0  0  0  0  0  0  0  0  0  0  0
  132.8330  123.1220   61.8050 C   0  0  0  0  0  0  0  0  0  0  0  0
  132.4390  124.4590   61.6770 C   0  0  0  0  0  0  0  0  0  0  0  0
  132.1190  125.2360   62.9450 C   0  0  0  0  0  0  0  0  0  0  0  0
  132.3630  125.0050   60.3670 C   0  0  0  0  0  0  0  0  0  0  0  0
  131.9990  126.3080   59.8790 C   0  0  0  0  0  0  0  0  0  0  0  0
  131.6210  127.3270   60.7170 N   0  0  0  0  0  0  0  0  0  0  0  0
  128.9130  128.9560   57.1060 C   0  0  0  0  0  0  0  0  0  0  0  0
  127.6980  128.9320   56.4050 C   0  0  0  0  0  0  0  0  0  0  0  0
  126.7450  127.9390   56.5450 O   0  0  0  0  0  0  0  0  0  0  0  0
  126.7210  127.1580   57.7350 C   0  0  0  0  0  0  0  0  0  0  0  0
  127.4170  129.9680   55.5030 C   0  0  0  0  0  0  0  0  0  0  0  0
  126.2230  129.9680   54.8230 O   0  0  0  0  0  0  0  0  0  0  0  0
  125.0920  130.2340   55.6410 C   0  0  0  0  0  0  0  0  0  0  0  0
  129.6943  133.1292   54.3053 H   0  0  0  0  0  0  0  0  0  0  0  0
  129.4664  131.9148   53.0014 H   0  0  0  0  0  0  0  0  0  0  0  0
  128.4948  133.4257   53.0014 H   0  0  0  0  0  0  0  0  0  0  0  0
  130.2509  131.8371   55.8749 H   0  0  0  0  0  0  0  0  0  0  0  0
  131.9527  130.3039   57.0255 H   0  0  0  0  0  0  0  0  0  0  0  0
  130.9926  130.7421   58.5178 H   0  0  0  0  0  0  0  0  0  0  0  0
  131.6090  128.7500   59.3230 H   0  0  0  0  0  0  0  0  0  0  0  0
  133.6388  120.6421   61.8455 H   0  0  0  0  0  0  0  0  0  0  0  0
  132.8091  120.2793   60.2942 H   0  0  0  0  0  0  0  0  0  0  0  0
  134.5334  120.7825   60.2942 H   0  0  0  0  0  0  0  0  0  0  0  0
  132.9049  122.6634   62.8022 H   0  0  0  0  0  0  0  0  0  0  0  0
  132.3711  124.6239   63.8235 H   0  0  0  0  0  0  0  0  0  0  0  0
  132.7077  126.1650   62.9642 H   0  0  0  0  0  0  0  0  0  0  0  0
  131.0468  125.4809   62.9642 H   0  0  0  0  0  0  0  0  0  0  0  0
  132.1680  128.1690   60.8140 H   0  0  0  0  0  0  0  0  0  0  0  0
  130.7790  127.2630   61.2720 H   0  0  0  0  0  0  0  0  0  0  0  0
  129.1404  128.1550   57.8248 H   0  0  0  0  0  0  0  0  0  0  0  0
  126.7414  127.8234   58.6107 H   0  0  0  0  0  0  0  0  0  0  0  0
  125.8038  126.5512   57.7569 H   0  0  0  0  0  0  0  0  0  0  0  0
  127.5992  126.4960   57.7569 H   0  0  0  0  0  0  0  0  0  0  0  0
  125.3813  130.1660   56.7001 H   0  0  0  0  0  0  0  0  0  0  0  0
  124.7152  131.2453   55.4281 H   0  0  0  0  0  0  0  0  0  0  0  0
  124.3039  129.4967   55.4281 H   0  0  0  0  0  0  0  0  0  0  0  0
  1  2  1  0
  2  3  1  0
  3  4  2  0
  4  5  1  0
  5  6  1  0
  6  7  1  0
  7  8  1  0
  8  9  2  0
  8 10  1  0
 10 11  1  0
 11 12  1  0
 12 13  2  0
 13 14  1  0
 14 15  1  0
 14 16  2  0
 16 17  1  0
 17 18  1  0
 17 19  2  0
 19 20  1  0
 20 21  1  0
  5 22  2  0
 22 23  1  0
 23 24  1  0
 24 25  1  0
 23 26  2  0
 26 27  1  0
 27 28  1  0
 26  3  1  0
 20 10  2  0
 19 12  1  0
  1 29  1  0
  1 30  1  0
  1 31  1  0
  4 32  1  0
  6 33  1  0
  6 34  1  0
  7 35  1  0
 15 36  1  0
 15 37  1  0
 15 38  1  0
 16 39  1  0
 18 40  1  0
 18 41  1  0
 18 42  1  0
 21 43  1  0
 21 44  1  0
 22 45  1  0
 25 46  1  0
 25 47  1  0
 25 48  1  0
 28 49  1  0
 28 50  1  0
 28 51  1  0
M  END
>  <Binding energies>  (1) 
[-6.15]

>  <Ligand effiencies>  (1) 
[-0.19838709677419356]

>  <Interactions>  (1) 
["V-B:TYR:539:CE2:9848, V-B:TYR:539:CZ:9849, V-A:SER:385:CB:3409, V-A:ASP:366:CA:3210, V-A:ASP:366:CG:3213, V-A:LEU:475:CD2:4259, V-A:ILE:369:CD1:3239, V-A:ASP:366:CB:3212, V-A:ILE:369:CG2:3237, V-B:TYR:531:CE1:9764, V-A:TYR:539:CZ:4877, V-A:TYR:539:CE2:4876, H-B:LYS:534:NZ:9795, H-A:GLU:543:OE1:4909, V-A:ARG:545:CZ:4926, H-A:ASP:366:OD1:3214, V-A:SER:385:C:3405, H-B:TYR:531:OH:9767, V-A:ILE:538:CA:4860, H-A:TYR:531:OH:4795, H-A:TYR:539:OH:4878, V-A:TYR:539:CD2:4874, H-A:ASP:366:OD2:3215"]

$$$$
4ai_Grossjean_2025
     RDKit          3D

 32 34  0  0  0  0  0  0  0  0999 V2000
  133.2490  125.0070   64.1860 C   0  0  0  0  0  0  0  0  0  0  0  0
  132.7500  124.8470   62.7610 C   0  0  0  0  0  0  0  0  0  0  0  0
  133.6410  124.6630   61.7060 C   0  0  0  0  0  0  0  0  0  0  0  0
  133.1590  124.5130   60.4000 C   0  0  0  0  0  0  0  0  0  0  0  0
  134.1710  124.3120   59.2830 C   0  0  0  0  0  0  0  0  0  0  0  0
  131.7520  124.5540   60.2040 C   0  0  0  0  0  0  0  0  0  0  0  0
  130.9340  124.4360   59.0280 C   0  0  0  0  0  0  0  0  0  0  0  0
  131.4700  124.2500   57.7780 N   0  0  0  0  0  0  0  0  0  0  0  0
  129.5560  124.5230   59.2800 C   0  0  0  0  0  0  0  0  0  0  0  0
  128.4480  124.4550   58.3240 C   0  0  0  0  0  0  0  0  0  0  0  0
  128.1340  125.4400   57.6540 O   0  0  0  0  0  0  0  0  0  0  0  0
  127.8330  123.2490   58.2330 N   0  0  0  0  0  0  0  0  0  0  0  0
  126.7700  122.9040   57.4080 C   0  0  0  0  0  0  0  0  0  0  0  0
  125.5020  123.4750   57.5190 C   0  0  0  0  0  0  0  0  0  0  0  0
  124.7500  122.8700   56.5390 C   0  0  0  0  0  0  0  0  0  0  0  0
  125.5240  121.9820   55.8710 O   0  0  0  0  0  0  0  0  0  0  0  0
  126.8030  122.0130   56.4290 N   0  0  0  0  0  0  0  0  0  0  0  0
  129.2380  124.7800   60.9970 S   0  0  0  0  0  0  0  0  0  0  0  0
  130.9480  124.7490   61.3670 C   0  0  0  0  0  0  0  0  0  0  0  0
  131.4040  124.8940   62.6120 N   0  0  0  0  0  0  0  0  0  0  0  0
  132.4426  124.7484   64.8881 H   0  0  0  0  0  0  0  0  0  0  0  0
  134.1072  124.3390   64.3512 H   0  0  0  0  0  0  0  0  0  0  0  0
  133.5587  126.0495   64.3512 H   0  0  0  0  0  0  0  0  0  0  0  0
  134.7236  124.6355   61.8991 H   0  0  0  0  0  0  0  0  0  0  0  0
  135.1623  124.1151   59.7174 H   0  0  0  0  0  0  0  0  0  0  0  0
  133.8664  123.4568   58.6618 H   0  0  0  0  0  0  0  0  0  0  0  0
  134.2164  125.2187   58.6618 H   0  0  0  0  0  0  0  0  0  0  0  0
  132.3480  123.7710   57.6410 H   0  0  0  0  0  0  0  0  0  0  0  0
  131.0030  124.5930   56.9500 H   0  0  0  0  0  0  0  0  0  0  0  0
  128.1830  122.5090   58.8210 H   0  0  0  0  0  0  0  0  0  0  0  0
  125.1745  124.2429   58.2353 H   0  0  0  0  0  0  0  0  0  0  0  0
  123.6894  123.0748   56.3311 H   0  0  0  0  0  0  0  0  0  0  0  0
  1  2  1  0
  2  3  2  0
  3  4  1  0
  4  5  1  0
  4  6  2  0
  6  7  1  0
  7  8  1  0
  7  9  2  0
  9 10  1  0
 10 11  2  0
 10 12  1  0
 12 13  1  0
 13 14  1  0
 14 15  2  0
 15 16  1  0
 16 17  1  0
  9 18  1  0
 18 19  1  0
 19 20  2  0
 20  2  1  0
 19  6  1  0
 17 13  2  0
  1 21  1  0
  1 22  1  0
  1 23  1  0
  3 24  1  0
  5 25  1  0
  5 26  1  0
  5 27  1  0
  8 28  1  0
  8 29  1  0
 12 30  1  0
 14 31  1  0
 15 32  1  0
M  END
>  <Binding energies>  (1) 
[-6.56]

>  <Ligand effiencies>  (1) 
[-0.2852173913043478]

>  <Interactions>  (1) 
["V-B:ILE:538:CD1:9837, V-B:PRO:540:CB:9857, V-B:PRO:540:CD:9859, V-B:LEU:363:CD1:8161, V-B:TYR:539:C:9839, V-B:PRO:540:CA:9855, H-B:TYR:539:N:9842, V-B:TYR:539:CE2:9848, V-B:TYR:539:CD2:9846, V-B:TYR:539:CZ:9849, V-B:PRO:540:N:9856, V-B:TYR:531:CE2:9765, H-A:TYR:484:OH:4348, V-A:ASP:366:CA:3210, V-A:ASP:366:CG:3213, V-B:TYR:531:CZ:9766, V-A:ILE:369:CD1:3239, V-A:GLY:454:CA:4049, V-A:ASP:366:CB:3212, V-A:ILE:369:CB:3236, V-A:ILE:369:CG2:3237, V-A:ARG:545:CZ:4926, H-B:TYR:539:OH:9850, V-A:TYR:484:CE2:4346, V-A:TYR:484:CZ:4347, H-B:TYR:539:O:9840, V-A:ILE:369:CG1:3238"]

$$$$
4aj_Grossjean_2025
     RDKit          3D

 32 34  0  0  0  0  0  0  0  0999 V2000
  126.5150  122.3830   54.5860 C   0  0  0  0  0  0  0  0  0  0  0  0
  126.4170  122.7600   56.0530 C   0  0  0  0  0  0  0  0  0  0  0  0
  125.1990  123.1260   56.6190 C   0  0  0  0  0  0  0  0  0  0  0  0
  125.1330  123.4750   57.9730 C   0  0  0  0  0  0  0  0  0  0  0  0
  123.7790  123.8680   58.5440 C   0  0  0  0  0  0  0  0  0  0  0  0
  126.3360  123.4390   58.7270 C   0  0  0  0  0  0  0  0  0  0  0  0
  126.6260  123.7290   60.1060 C   0  0  0  0  0  0  0  0  0  0  0  0
  125.6570  124.1340   60.9880 N   0  0  0  0  0  0  0  0  0  0  0  0
  127.9740  123.5540   60.4540 C   0  0  0  0  0  0  0  0  0  0  0  0
  128.6140  123.7680   61.7530 C   0  0  0  0  0  0  0  0  0  0  0  0
  128.2970  123.0880   62.7310 O   0  0  0  0  0  0  0  0  0  0  0  0
  129.5640  124.7360   61.7820 N   0  0  0  0  0  0  0  0  0  0  0  0
  130.3230  125.1260   62.8770 C   0  0  0  0  0  0  0  0  0  0  0  0
  129.9040  125.4110   64.0910 N   0  0  0  0  0  0  0  0  0  0  0  0
  130.9040  125.7410   64.8840 C   0  0  0  0  0  0  0  0  0  0  0  0
  132.1730  125.7290   64.3120 C   0  0  0  0  0  0  0  0  0  0  0  0
  132.0370  125.2570   62.6450 S   0  0  0  0  0  0  0  0  0  0  0  0
  128.9290  123.0360   59.0640 S   0  0  0  0  0  0  0  0  0  0  0  0
  127.5180  123.0440   58.0300 C   0  0  0  0  0  0  0  0  0  0  0  0
  127.5850  122.7110   56.7400 N   0  0  0  0  0  0  0  0  0  0  0  0
  126.7909  121.3218   54.4978 H   0  0  0  0  0  0  0  0  0  0  0  0
  125.5433  122.5510   54.0985 H   0  0  0  0  0  0  0  0  0  0  0  0
  127.2818  123.0029   54.0985 H   0  0  0  0  0  0  0  0  0  0  0  0
  124.2883  123.1410   56.0022 H   0  0  0  0  0  0  0  0  0  0  0  0
  123.8265  123.8542   59.6429 H   0  0  0  0  0  0  0  0  0  0  0  0
  123.5160  124.8795   58.2010 H   0  0  0  0  0  0  0  0  0  0  0  0
  123.0153  123.1544   58.2010 H   0  0  0  0  0  0  0  0  0  0  0  0
  125.7840  124.0700   61.9870 H   0  0  0  0  0  0  0  0  0  0  0  0
  124.7770  124.5120   60.6640 H   0  0  0  0  0  0  0  0  0  0  0  0
  129.7490  125.2280   60.9210 H   0  0  0  0  0  0  0  0  0  0  0  0
  130.7446  126.0107   65.9384 H   0  0  0  0  0  0  0  0  0  0  0  0
  133.1103  125.9780   64.8312 H   0  0  0  0  0  0  0  0  0  0  0  0
  1  2  1  0
  2  3  2  0
  3  4  1  0
  4  5  1  0
  4  6  2  0
  6  7  1  0
  7  8  1  0
  7  9  2  0
  9 10  1  0
 10 11  2  0
 10 12  1  0
 12 13  1  0
 13 14  2  0
 14 15  1  0
 15 16  2  0
 16 17  1  0
  9 18  1  0
 18 19  1  0
 19 20  2  0
 20  2  1  0
 19  6  1  0
 17 13  1  0
  1 21  1  0
  1 22  1  0
  1 23  1  0
  3 24  1  0
  5 25  1  0
  5 26  1  0
  5 27  1  0
  8 28  1  0
  8 29  1  0
 12 30  1  0
 15 31  1  0
 16 32  1  0
M  END
>  <Binding energies>  (1) 
[-6.43]

>  <Ligand effiencies>  (1) 
[-0.27956521739130435]

>  <Interactions>  (1) 
["V-B:TYR:539:CD1:9845, V-B:ILE:538:CD1:9837, V-B:PRO:540:CB:9857, V-B:LEU:363:CD1:8161, V-B:GLU:543:CD:9880, V-B:TYR:539:C:9839, V-B:PRO:540:CA:9855, H-B:TYR:539:N:9842, H-B:GLU:543:OE1:9881, V-B:TYR:539:CE2:9848, V-B:TYR:539:CD2:9846, V-B:ILE:538:CA:9832, V-B:MET:535:CE:9807, H-B:ASP:366:OD2:8187, V-B:PRO:540:N:9856, V-B:TYR:531:CE2:9765, H-A:TYR:484:OH:4348, V-B:TYR:531:CZ:9766, V-B:ASP:366:CG:8185, V-B:ASP:366:CB:8184, V-B:ILE:538:C:9830, V-B:ILE:538:CB:9834, V-A:GLU:543:CD:4908, V-A:ARG:545:CZ:4926, V-A:TYR:484:CE2:4346, V-A:TYR:484:CZ:4347, V-B:ILE:538:CG1:9836, V-B:LEU:363:CA:8157, V-B:VAL:537:C:9822, V-B:LEU:363:CB:8159"]

$$$$
4ak_Grossjean_2025
     RDKit          3D

 50 51  0  0  0  0  0  0  0  0999 V2000
  125.6470  129.9260   55.8350 C   0  0  0  0  0  0  0  0  0  0  0  0
  126.4940  129.0510   55.1070 O   0  0  0  0  0  0  0  0  0  0  0  0
  127.7750  128.8780   55.7010 C   0  0  0  0  0  0  0  0  0  0  0  0
  128.7850  129.8090   55.0180 C   0  0  0  0  0  0  0  0  0  0  0  0
  128.6420  131.1240   55.5400 O   0  0  0  0  0  0  0  0  0  0  0  0
  128.3630  132.1060   54.5520 C   0  0  0  0  0  0  0  0  0  0  0  0
  129.6820  132.6570   53.9980 C   0  0  0  0  0  0  0  0  0  0  0  0
  130.5750  132.9080   55.0750 O   0  0  0  0  0  0  0  0  0  0  0  0
  131.7640  132.1310   55.0290 C   0  0  0  0  0  0  0  0  0  0  0  0
  131.9530  131.4100   56.3770 C   0  0  0  0  0  0  0  0  0  0  0  0
  130.8850  131.6770   57.3390 N   0  0  0  0  0  0  0  0  0  0  0  0
  130.9730  131.4980   58.6730 C   0  0  0  0  0  0  0  0  0  0  0  0
  132.0040  131.1010   59.2190 O   0  0  0  0  0  0  0  0  0  0  0  0
  129.7720  131.8120   59.4450 C   0  0  0  0  0  0  0  0  0  0  0  0
  128.3570  132.5000   58.6490 S   0  0  0  0  0  0  0  0  0  0  0  0
  127.4720  132.5410   60.1570 C   0  0  0  0  0  0  0  0  0  0  0  0
  126.2230  133.0040   60.2300 N   0  0  0  0  0  0  0  0  0  0  0  0
  125.6520  132.9820   61.4590 C   0  0  0  0  0  0  0  0  0  0  0  0
  124.2310  133.5120   61.5210 C   0  0  0  0  0  0  0  0  0  0  0  0
  126.2920  132.5130   62.6040 C   0  0  0  0  0  0  0  0  0  0  0  0
  127.6030  132.0270   62.5240 C   0  0  0  0  0  0  0  0  0  0  0  0
  128.2610  131.5300   63.8010 C   0  0  0  0  0  0  0  0  0  0  0  0
  128.2350  132.0350   61.2520 C   0  0  0  0  0  0  0  0  0  0  0  0
  129.5420  131.6200   60.8160 C   0  0  0  0  0  0  0  0  0  0  0  0
  130.4690  131.0910   61.6780 N   0  0  0  0  0  0  0  0  0  0  0  0
  125.7982  129.7698   56.9133 H   0  0  0  0  0  0  0  0  0  0  0  0
  125.8884  130.9680   55.5781 H   0  0  0  0  0  0  0  0  0  0  0  0
  124.5977  129.7186   55.5781 H   0  0  0  0  0  0  0  0  0  0  0  0
  127.7183  129.1211   56.7723 H   0  0  0  0  0  0  0  0  0  0  0  0
  128.0980  127.8336   55.5788 H   0  0  0  0  0  0  0  0  0  0  0  0
  129.8059  129.4470   55.2095 H   0  0  0  0  0  0  0  0  0  0  0  0
  128.5991  129.8214   53.9339 H   0  0  0  0  0  0  0  0  0  0  0  0
  127.7830  131.6512   53.7354 H   0  0  0  0  0  0  0  0  0  0  0  0
  127.7813  132.9248   55.0005 H   0  0  0  0  0  0  0  0  0  0  0  0
  130.1292  131.9210   53.3137 H   0  0  0  0  0  0  0  0  0  0  0  0
  129.4904  133.5926   53.4522 H   0  0  0  0  0  0  0  0  0  0  0  0
  131.6861  131.3873   54.2222 H   0  0  0  0  0  0  0  0  0  0  0  0
  132.6260  132.7871   54.8378 H   0  0  0  0  0  0  0  0  0  0  0  0
  131.9893  130.3267   56.1897 H   0  0  0  0  0  0  0  0  0  0  0  0
  132.8863  131.7902   56.8178 H   0  0  0  0  0  0  0  0  0  0  0  0
  130.0120  132.0110   56.9550 H   0  0  0  0  0  0  0  0  0  0  0  0
  123.9274  133.6252   62.5722 H   0  0  0  0  0  0  0  0  0  0  0  0
  124.1818  134.4889   61.0179 H   0  0  0  0  0  0  0  0  0  0  0  0
  123.5540  132.8059   61.0179 H   0  0  0  0  0  0  0  0  0  0  0  0
  125.7677  132.5244   63.5709 H   0  0  0  0  0  0  0  0  0  0  0  0
  127.7245  131.9352   64.6716 H   0  0  0  0  0  0  0  0  0  0  0  0
  128.2260  130.4309   63.8277 H   0  0  0  0  0  0  0  0  0  0  0  0
  129.3086  131.8642   63.8277 H   0  0  0  0  0  0  0  0  0  0  0  0
  130.2600  130.9310   62.6540 H   0  0  0  0  0  0  0  0  0  0  0  0
  131.3940  130.8380   61.3620 H   0  0  0  0  0  0  0  0  0  0  0  0
  1  2  1  0
  2  3  1  0
  3  4  1  0
  4  5  1  0
  5  6  1  0
  6  7  1  0
  7  8  1  0
  8  9  1  0
  9 10  1  0
 10 11  1  0
 11 12  1  0
 12 13  2  0
 12 14  1  0
 14 15  1  0
 15 16  1  0
 16 17  2  0
 17 18  1  0
 18 19  1  0
 18 20  2  0
 20 21  1  0
 21 22  1  0
 21 23  2  0
 23 24  1  0
 24 25  1  0
 24 14  2  0
 23 16  1  0
  1 26  1  0
  1 27  1  0
  1 28  1  0
  3 29  1  0
  3 30  1  0
  4 31  1  0
  4 32  1  0
  6 33  1  0
  6 34  1  0
  7 35  1  0
  7 36  1  0
  9 37  1  0
  9 38  1  0
 10 39  1  0
 10 40  1  0
 11 41  1  0
 19 42  1  0
 19 43  1  0
 19 44  1  0
 20 45  1  0
 22 46  1  0
 22 47  1  0
 22 48  1  0
 25 49  1  0
 25 50  1  0
M  END
>  <Binding energies>  (1) 
[-5.85]

>  <Ligand effiencies>  (1) 
[-0.2089285714285714]

>  <Interactions>  (1) 
["V-B:MET:535:CE:9807, V-A:TYR:539:CE1:4875, V-A:TYR:531:CZ:4794, V-B:TYR:531:CE1:9764, H-A:TYR:539:N:4870, V-A:TYR:539:CZ:4877, V-A:TYR:531:CE2:4793, V-A:PRO:540:CA:4883, V-A:TYR:539:C:4867, V-A:PRO:540:N:4884, V-A:PRO:540:CB:4885, V-A:TYR:539:CE2:4876, H-B:LYS:534:NZ:9795, V-A:LEU:363:CD1:3189, V-A:GLU:543:CD:4908, H-A:GLU:543:OE1:4909, V-A:ALA:541:CB:4892, H-A:ASP:366:OD1:3214, V-A:GLU:543:CG:4907, H-B:TYR:531:OH:9767, V-A:ILE:538:CA:4860, V-A:ILE:538:CB:4862, V-A:ILE:538:CG2:4863, V-B:LEU:475:CD2:9231, V-B:TYR:484:CZ:9319, V-A:ILE:538:C:4858, V-A:TYR:539:CD2:4874, V-B:ILE:369:CD1:8211, V-A:TYR:539:CD1:4873, V-B:TYR:484:CE2:9318"]

$$$$
4al_Grossjean_2025
     RDKit          3D

 28 29  0  0  0  0  0  0  0  0999 V2000
  129.5150  124.4080   62.6140 C   0  0  0  0  0  0  0  0  0  0  0  0
  129.0090  123.1300   62.2590 O   0  0  0  0  0  0  0  0  0  0  0  0
  127.6780  122.9330   62.0770 C   0  0  0  0  0  0  0  0  0  0  0  0
  126.8750  122.7490   62.9950 O   0  0  0  0  0  0  0  0  0  0  0  0
  127.2820  122.9620   60.6520 C   0  0  0  0  0  0  0  0  0  0  0  0
  128.4120  122.4150   59.4110 S   0  0  0  0  0  0  0  0  0  0  0  0
  127.2530  122.7540   58.1470 C   0  0  0  0  0  0  0  0  0  0  0  0
  127.5280  122.5340   56.8610 N   0  0  0  0  0  0  0  0  0  0  0  0
  126.5420  122.8400   55.9800 C   0  0  0  0  0  0  0  0  0  0  0  0
  126.8760  122.5820   54.5220 C   0  0  0  0  0  0  0  0  0  0  0  0
  125.3020  123.3540   56.3530 C   0  0  0  0  0  0  0  0  0  0  0  0
  125.0160  123.5830   57.7030 C   0  0  0  0  0  0  0  0  0  0  0  0
  123.6500  124.1450   58.0610 C   0  0  0  0  0  0  0  0  0  0  0  0
  126.0260  123.2750   58.6550 C   0  0  0  0  0  0  0  0  0  0  0  0
  126.0720  123.3830   60.0870 C   0  0  0  0  0  0  0  0  0  0  0  0
  125.0180  123.8560   60.8260 N   0  0  0  0  0  0  0  0  0  0  0  0
  129.5502  124.4970   63.7098 H   0  0  0  0  0  0  0  0  0  0  0  0
  130.5285  124.5280   62.2036 H   0  0  0  0  0  0  0  0  0  0  0  0
  128.8584  125.1893   62.2036 H   0  0  0  0  0  0  0  0  0  0  0  0
  127.7451  121.9107   54.4582 H   0  0  0  0  0  0  0  0  0  0  0  0
  126.0134  122.1134   54.0256 H   0  0  0  0  0  0  0  0  0  0  0  0
  127.1115  123.5350   54.0256 H   0  0  0  0  0  0  0  0  0  0  0  0
  124.5473  123.5799   55.5853 H   0  0  0  0  0  0  0  0  0  0  0  0
  123.5464  124.1876   59.1553 H   0  0  0  0  0  0  0  0  0  0  0  0
  123.5492  125.1577   57.6434 H   0  0  0  0  0  0  0  0  0  0  0  0
  122.8658  123.4965   57.6434 H   0  0  0  0  0  0  0  0  0  0  0  0
  124.2510  124.3580   60.4030 H   0  0  0  0  0  0  0  0  0  0  0  0
  124.9740  123.7180   61.8270 H   0  0  0  0  0  0  0  0  0  0  0  0
  1  2  1  0
  2  3  1  0
  3  4  2  0
  3  5  1  0
  5  6  1  0
  6  7  1  0
  7  8  2  0
  8  9  1  0
  9 10  1  0
  9 11  2  0
 11 12  1  0
 12 13  1  0
 12 14  2  0
 14 15  1  0
 15 16  1  0
 15  5  2  0
 14  7  1  0
  1 17  1  0
  1 18  1  0
  1 19  1  0
 10 20  1  0
 10 21  1  0
 10 22  1  0
 11 23  1  0
 13 24  1  0
 13 25  1  0
 13 26  1  0
 16 27  1  0
 16 28  1  0
M  END
>  <Binding energies>  (1) 
[-6.09]

>  <Ligand effiencies>  (1) 
[-0.3383333333333333]

>  <Interactions>  (1) 
["V-B:TYR:539:CD1:9845, V-B:ILE:538:CD1:9837, V-B:PRO:540:CB:9857, V-B:LEU:363:CD1:8161, V-B:GLU:543:CD:9880, V-B:TYR:539:C:9839, V-B:PRO:540:CA:9855, H-B:TYR:539:N:9842, H-B:GLU:543:OE1:9881, V-B:TYR:539:CE2:9848, V-B:TYR:539:CD2:9846, V-B:ILE:538:CA:9832, V-B:MET:535:CE:9807, V-B:ALA:541:CB:9864, V-B:PRO:540:C:9853, H-B:ASP:366:OD2:8187, V-B:TYR:539:CE1:9847, V-B:PRO:540:N:9856, V-B:TYR:531:CE2:9765, H-A:TYR:484:OH:4348, V-B:TYR:531:CZ:9766, V-B:ASP:366:CG:8185, V-B:ASP:366:CB:8184, V-B:ILE:538:C:9830, H-B:ALA:541:N:9863, V-B:LEU:363:CA:8157, V-B:GLU:543:CG:9879, V-B:VAL:537:C:9822, V-B:LEU:363:CB:8159"]

$$$$
4ba_Grossjean_2025
     RDKit          3D

 44 46  0  0  0  0  0  0  0  0999 V2000
  127.9960  127.6580   67.7500 C   0  0  0  0  0  0  0  0  0  0  0  0
  126.5420  127.2500   67.4470 C   0  0  0  0  0  0  0  0  0  0  0  0
  125.7090  128.3080   66.6950 C   0  0  0  0  0  0  0  0  0  0  0  0
  124.6500  128.7080   67.1860 O   0  0  0  0  0  0  0  0  0  0  0  0
  126.2390  128.8130   65.3850 C   0  0  0  0  0  0  0  0  0  0  0  0
  127.6060  129.0930   65.2580 C   0  0  0  0  0  0  0  0  0  0  0  0
  128.1240  129.5630   64.0550 C   0  0  0  0  0  0  0  0  0  0  0  0
  127.2900  129.7590   62.9540 C   0  0  0  0  0  0  0  0  0  0  0  0
  127.9170  130.2450   61.7900 N   0  0  0  0  0  0  0  0  0  0  0  0
  128.7060  131.3340   61.6150 C   0  0  0  0  0  0  0  0  0  0  0  0
  128.9790  132.1410   62.5050 O   0  0  0  0  0  0  0  0  0  0  0  0
  129.2190  131.5220   60.2560 C   0  0  0  0  0  0  0  0  0  0  0  0
  128.2460  132.3610   59.0510 S   0  0  0  0  0  0  0  0  0  0  0  0
  129.4660  132.1130   57.8250 C   0  0  0  0  0  0  0  0  0  0  0  0
  129.3000  132.5580   56.5800 N   0  0  0  0  0  0  0  0  0  0  0  0
  130.3130  132.3060   55.7190 C   0  0  0  0  0  0  0  0  0  0  0  0
  130.0990  132.8140   54.3040 C   0  0  0  0  0  0  0  0  0  0  0  0
  131.4780  131.6300   56.0710 C   0  0  0  0  0  0  0  0  0  0  0  0
  131.6590  131.1580   57.3810 C   0  0  0  0  0  0  0  0  0  0  0  0
  132.9580  130.4220   57.7220 C   0  0  0  0  0  0  0  0  0  0  0  0
  132.7770  129.1190   57.9460 F   0  0  0  0  0  0  0  0  0  0  0  0
  133.8220  130.5360   56.7120 F   0  0  0  0  0  0  0  0  0  0  0  0
  133.4970  130.9450   58.8240 F   0  0  0  0  0  0  0  0  0  0  0  0
  130.6050  131.4030   58.3130 C   0  0  0  0  0  0  0  0  0  0  0  0
  130.4300  131.0700   59.7060 C   0  0  0  0  0  0  0  0  0  0  0  0
  131.3690  130.3750   60.4250 N   0  0  0  0  0  0  0  0  0  0  0  0
  125.9190  129.4870   63.0740 C   0  0  0  0  0  0  0  0  0  0  0  0
  125.4020  129.0170   64.2780 C   0  0  0  0  0  0  0  0  0  0  0  0
  128.1457  127.7000   68.8390 H   0  0  0  0  0  0  0  0  0  0  0  0
  128.6830  126.9179   67.3137 H   0  0  0  0  0  0  0  0  0  0  0  0
  128.1977  128.6474   67.3137 H   0  0  0  0  0  0  0  0  0  0  0  0
  126.5649  126.3362   66.8350 H   0  0  0  0  0  0  0  0  0  0  0  0
  126.0529  127.1116   68.4225 H   0  0  0  0  0  0  0  0  0  0  0  0
  128.2758  128.9399   66.1170 H   0  0  0  0  0  0  0  0  0  0  0  0
  129.1988  129.7816   63.9716 H   0  0  0  0  0  0  0  0  0  0  0  0
  127.7310  129.6980   60.9630 H   0  0  0  0  0  0  0  0  0  0  0  0
  129.6722  133.8272   54.3388 H   0  0  0  0  0  0  0  0  0  0  0  0
  131.0626  132.8401   53.7741 H   0  0  0  0  0  0  0  0  0  0  0  0
  129.4072  132.1427   53.7741 H   0  0  0  0  0  0  0  0  0  0  0  0
  132.2622  131.4645   55.3176 H   0  0  0  0  0  0  0  0  0  0  0  0
  131.3050  130.2690   61.4270 H   0  0  0  0  0  0  0  0  0  0  0  0
  132.1670  129.9490   59.9730 H   0  0  0  0  0  0  0  0  0  0  0  0
  125.2509  129.6455   62.2146 H   0  0  0  0  0  0  0  0  0  0  0  0
  124.3262  128.8034   64.3622 H   0  0  0  0  0  0  0  0  0  0  0  0
  1  2  1  0
  2  3  1  0
  3  4  2  0
  3  5  1  0
  5  6  2  0
  6  7  1  0
  7  8  2  0
  8  9  1  0
  9 10  1  0
 10 11  2  0
 10 12  1  0
 12 13  1  0
 13 14  1  0
 14 15  2  0
 15 16  1  0
 16 17  1  0
 16 18  2  0
 18 19  1  0
 19 20  1  0
 20 21  1  0
 20 22  1  0
 20 23  1  0
 19 24  2  0
 24 25  1  0
 25 26  1  0
  8 27  1  0
 27 28  2  0
 28  5  1  0
 25 12  2  0
 24 14  1  0
  1 29  1  0
  1 30  1  0
  1 31  1  0
  2 32  1  0
  2 33  1  0
  6 34  1  0
  7 35  1  0
  9 36  1  0
 17 37  1  0
 17 38  1  0
 17 39  1  0
 18 40  1  0
 26 41  1  0
 26 42  1  0
 27 43  1  0
 28 44  1  0
M  END
>  <Binding energies>  (1) 
[-6.85]

>  <Ligand effiencies>  (1) 
[-0.22096774193548385]

>  <Interactions>  (1) 
["V-B:GLU:543:CD:9880, V-A:ASP:366:CG:3213, V-A:ASP:366:CB:3212, V-A:TYR:531:CZ:4794, H-A:TYR:539:N:4870, V-A:TYR:531:CE2:4793, V-A:PRO:540:CA:4883, V-A:TYR:539:C:4867, V-A:PRO:540:N:4884, V-A:PRO:540:CB:4885, V-A:LEU:363:CD1:3189, V-A:GLU:543:CD:4908, H-A:GLU:543:OE1:4909, H-A:ASP:366:OD1:3214, V-A:LEU:363:CA:3185, V-A:GLU:543:CG:4907, V-A:ILE:538:CA:4860, V-A:ILE:538:CB:4862, V-A:ILE:538:CG2:4863, V-B:GLU:543:CB:9878, V-B:ARG:545:CZ:9898, V-B:HIS:456:CE1:9042, V-A:ILE:538:C:4858, V-B:ARG:545:CD:9895, V-B:ARG:545:CG:9894, V-A:TYR:539:CD1:4873, H-B:TYR:484:OH:9320, H-B:ARG:545:NE:9896, H-B:HIS:456:ND1:9039"]

$$$$
4bb_Grossjean_2025
     RDKit          3D

 41 43  0  0  0  0  0  0  0  0999 V2000
  123.8820  129.4900   66.7710 C   0  0  0  0  0  0  0  0  0  0  0  0
  125.1410  128.6990   66.4080 C   0  0  0  0  0  0  0  0  0  0  0  0
  125.4460  127.7360   67.1140 O   0  0  0  0  0  0  0  0  0  0  0  0
  125.9410  129.1430   65.2210 C   0  0  0  0  0  0  0  0  0  0  0  0
  125.2790  129.4980   64.0390 C   0  0  0  0  0  0  0  0  0  0  0  0
  125.9980  129.9130   62.9220 C   0  0  0  0  0  0  0  0  0  0  0  0
  127.3910  129.9890   62.9670 C   0  0  0  0  0  0  0  0  0  0  0  0
  128.0190  130.4190   61.7800 N   0  0  0  0  0  0  0  0  0  0  0  0
  129.0500  131.2800   61.6020 C   0  0  0  0  0  0  0  0  0  0  0  0
  129.6150  131.8810   62.5160 O   0  0  0  0  0  0  0  0  0  0  0  0
  129.4530  131.4920   60.2090 C   0  0  0  0  0  0  0  0  0  0  0  0
  128.3580  132.2830   59.0790 S   0  0  0  0  0  0  0  0  0  0  0  0
  129.5020  132.1010   57.7690 C   0  0  0  0  0  0  0  0  0  0  0  0
  129.2320  132.5460   56.5430 N   0  0  0  0  0  0  0  0  0  0  0  0
  130.1940  132.3460   55.6140 C   0  0  0  0  0  0  0  0  0  0  0  0
  129.8670  132.8620   54.2240 C   0  0  0  0  0  0  0  0  0  0  0  0
  131.4080  131.7170   55.8780 C   0  0  0  0  0  0  0  0  0  0  0  0
  131.6980  131.2460   57.1680 C   0  0  0  0  0  0  0  0  0  0  0  0
  133.0470  130.5600   57.4110 C   0  0  0  0  0  0  0  0  0  0  0  0
  133.7490  131.1250   58.3960 F   0  0  0  0  0  0  0  0  0  0  0  0
  132.8500  129.2830   57.7410 F   0  0  0  0  0  0  0  0  0  0  0  0
  133.7900  130.6200   56.3060 F   0  0  0  0  0  0  0  0  0  0  0  0
  130.7030  131.4410   58.1730 C   0  0  0  0  0  0  0  0  0  0  0  0
  130.6430  131.1010   59.5730 C   0  0  0  0  0  0  0  0  0  0  0  0
  131.6650  130.4580   60.2230 N   0  0  0  0  0  0  0  0  0  0  0  0
  128.0620  129.6290   64.1450 C   0  0  0  0  0  0  0  0  0  0  0  0
  127.3410  129.2120   65.2600 C   0  0  0  0  0  0  0  0  0  0  0  0
  123.7887  129.5486   67.8655 H   0  0  0  0  0  0  0  0  0  0  0  0
  123.9541  130.5054   66.3542 H   0  0  0  0  0  0  0  0  0  0  0  0
  122.9984  128.9844   66.3542 H   0  0  0  0  0  0  0  0  0  0  0  0
  124.1811  129.4484   63.9931 H   0  0  0  0  0  0  0  0  0  0  0  0
  125.4653  130.1827   61.9982 H   0  0  0  0  0  0  0  0  0  0  0  0
  127.6150  130.0340   60.9390 H   0  0  0  0  0  0  0  0  0  0  0  0
  129.2798  133.7886   54.3056 H   0  0  0  0  0  0  0  0  0  0  0  0
  130.8008  133.0664   53.6797 H   0  0  0  0  0  0  0  0  0  0  0  0
  129.2835  132.1049   53.6797 H   0  0  0  0  0  0  0  0  0  0  0  0
  132.1441  131.5885   55.0707 H   0  0  0  0  0  0  0  0  0  0  0  0
  132.5140  130.1840   59.7480 H   0  0  0  0  0  0  0  0  0  0  0  0
  131.6040  130.2340   61.2070 H   0  0  0  0  0  0  0  0  0  0  0  0
  129.1602  129.6764   64.1876 H   0  0  0  0  0  0  0  0  0  0  0  0
  127.8746  128.9338   66.1808 H   0  0  0  0  0  0  0  0  0  0  0  0
  1  2  1  0
  2  3  2  0
  2  4  1  0
  4  5  2  0
  5  6  1  0
  6  7  2  0
  7  8  1  0
  8  9  1  0
  9 10  2  0
  9 11  1  0
 11 12  1  0
 12 13  1  0
 13 14  2  0
 14 15  1  0
 15 16  1  0
 15 17  2  0
 17 18  1  0
 18 19  1  0
 19 20  1  0
 19 21  1  0
 19 22  1  0
 18 23  2  0
 23 24  1  0
 24 25  1  0
  7 26  1  0
 26 27  2  0
 27  4  1  0
 24 11  2  0
 23 13  1  0
  1 28  1  0
  1 29  1  0
  1 30  1  0
  5 31  1  0
  6 32  1  0
  8 33  1  0
 16 34  1  0
 16 35  1  0
 16 36  1  0
 17 37  1  0
 25 38  1  0
 25 39  1  0
 26 40  1  0
 27 41  1  0
M  END
>  <Binding energies>  (1) 
[-7.17]

>  <Ligand effiencies>  (1) 
[-0.239]

>  <Interactions>  (1) 
["V-A:ASP:366:CG:3213, V-A:ASP:366:CB:3212, V-A:TYR:531:CZ:4794, H-A:TYR:539:N:4870, V-A:TYR:531:CE2:4793, V-A:PRO:540:CA:4883, V-A:TYR:539:C:4867, V-A:PRO:540:N:4884, V-A:PRO:540:CB:4885, V-A:LEU:363:CD1:3189, V-A:GLU:543:CD:4908, H-A:GLU:543:OE1:4909, H-A:ALA:541:N:4891, H-A:ASP:366:OD1:3214, V-A:LEU:363:CA:3185, V-A:GLU:543:CG:4907, V-A:ILE:538:CA:4860, V-A:ILE:538:CB:4862, V-A:ILE:538:CG2:4863, V-B:ARG:545:CZ:9898, V-B:TYR:484:CZ:9319, V-B:HIS:456:CE1:9042, V-A:ILE:538:C:4858, V-A:TYR:539:CD2:4874, V-B:ARG:545:CD:9895, V-B:ARG:545:CG:9894, V-A:TYR:539:CD1:4873, H-B:ARG:545:NE:9896, H-B:HIS:456:ND1:9039, V-A:LEU:363:CB:3187, V-B:TYR:484:CE1:9317"]

$$$$
4bc_Grossjean_2025
     RDKit          3D

 40 42  0  0  0  0  0  0  0  0999 V2000
  123.9120  129.7440   66.9030 C   0  0  0  0  0  0  0  0  0  0  0  0
  123.7710  129.1850   65.6010 O   0  0  0  0  0  0  0  0  0  0  0  0
  124.7130  129.4810   64.6350 C   0  0  0  0  0  0  0  0  0  0  0  0
  124.2570  130.1670   63.5100 C   0  0  0  0  0  0  0  0  0  0  0  0
  125.1330  130.5090   62.4840 C   0  0  0  0  0  0  0  0  0  0  0  0
  126.4860  130.1750   62.5740 C   0  0  0  0  0  0  0  0  0  0  0  0
  127.2920  130.5480   61.4830 N   0  0  0  0  0  0  0  0  0  0  0  0
  128.5210  131.1180   61.4810 C   0  0  0  0  0  0  0  0  0  0  0  0
  129.1300  131.4430   62.5010 O   0  0  0  0  0  0  0  0  0  0  0  0
  129.1080  131.3450   60.1560 C   0  0  0  0  0  0  0  0  0  0  0  0
  128.1760  132.1560   58.9000 S   0  0  0  0  0  0  0  0  0  0  0  0
  129.4980  132.0180   57.7650 C   0  0  0  0  0  0  0  0  0  0  0  0
  129.4000  132.4910   56.5230 N   0  0  0  0  0  0  0  0  0  0  0  0
  130.4880  132.3240   55.7370 C   0  0  0  0  0  0  0  0  0  0  0  0
  130.3590  132.8750   54.3290 C   0  0  0  0  0  0  0  0  0  0  0  0
  131.6610  131.7010   56.1590 C   0  0  0  0  0  0  0  0  0  0  0  0
  131.7690  131.2000   57.4660 C   0  0  0  0  0  0  0  0  0  0  0  0
  133.0780  130.5200   57.8820 C   0  0  0  0  0  0  0  0  0  0  0  0
  133.5990  131.0320   58.9980 F   0  0  0  0  0  0  0  0  0  0  0  0
  132.8610  129.2230   58.1010 F   0  0  0  0  0  0  0  0  0  0  0  0
  133.9860  130.6590   56.9170 F   0  0  0  0  0  0  0  0  0  0  0  0
  130.6390  131.3620   58.3220 C   0  0  0  0  0  0  0  0  0  0  0  0
  130.3850  130.9910   59.6930 C   0  0  0  0  0  0  0  0  0  0  0  0
  131.3150  130.3490   60.4700 N   0  0  0  0  0  0  0  0  0  0  0  0
  126.9500  129.4730   63.6960 C   0  0  0  0  0  0  0  0  0  0  0  0
  126.0710  129.1320   64.7200 C   0  0  0  0  0  0  0  0  0  0  0  0
  123.7164  128.9685   67.6582 H   0  0  0  0  0  0  0  0  0  0  0  0
  124.9351  130.1280   67.0283 H   0  0  0  0  0  0  0  0  0  0  0  0
  123.1934  130.5674   67.0283 H   0  0  0  0  0  0  0  0  0  0  0  0
  123.1944  130.4406   63.4326 H   0  0  0  0  0  0  0  0  0  0  0  0
  124.7583  131.0443   61.5991 H   0  0  0  0  0  0  0  0  0  0  0  0
  126.8710  130.3910   60.5790 H   0  0  0  0  0  0  0  0  0  0  0  0
  130.1085  133.9451   54.3755 H   0  0  0  0  0  0  0  0  0  0  0  0
  131.3120  132.7444   53.7954 H   0  0  0  0  0  0  0  0  0  0  0  0
  129.5630  132.3349   53.7954 H   0  0  0  0  0  0  0  0  0  0  0  0
  132.5075  131.6012   55.4637 H   0  0  0  0  0  0  0  0  0  0  0  0
  132.1570  129.9510   60.0790 H   0  0  0  0  0  0  0  0  0  0  0  0
  131.1890  130.2560   61.4690 H   0  0  0  0  0  0  0  0  0  0  0  0
  128.0109  129.1913   63.7669 H   0  0  0  0  0  0  0  0  0  0  0  0
  126.4417  128.5864   65.6003 H   0  0  0  0  0  0  0  0  0  0  0  0
  1  2  1  0
  2  3  1  0
  3  4  2  0
  4  5  1  0
  5  6  2  0
  6  7  1  0
  7  8  1  0
  8  9  2  0
  8 10  1  0
 10 11  1  0
 11 12  1  0
 12 13  2  0
 13 14  1  0
 14 15  1  0
 14 16  2  0
 16 17  1  0
 17 18  1  0
 18 19  1  0
 18 20  1  0
 18 21  1  0
 17 22  2  0
 22 23  1  0
 23 24  1  0
  6 25  1  0
 25 26  2  0
 26  3  1  0
 23 10  2  0
 22 12  1  0
  1 27  1  0
  1 28  1  0
  1 29  1  0
  4 30  1  0
  5 31  1  0
  7 32  1  0
 15 33  1  0
 15 34  1  0
 15 35  1  0
 16 36  1  0
 24 37  1  0
 24 38  1  0
 25 39  1  0
 26 40  1  0
M  END
>  <Binding energies>  (1) 
[-6.48]

>  <Ligand effiencies>  (1) 
[-0.22344827586206897]

>  <Interactions>  (1) 
["V-A:ASP:366:CG:3213, V-A:ASP:366:CB:3212, V-A:TYR:531:CZ:4794, H-A:TYR:539:N:4870, V-A:TYR:531:CE2:4793, V-A:PRO:540:CA:4883, V-A:TYR:539:C:4867, V-A:PRO:540:N:4884, V-A:PRO:540:CB:4885, V-A:LEU:363:CD1:3189, H-A:GLU:543:OE1:4909, H-A:ASP:366:OD1:3214, V-A:LEU:363:CA:3185, V-A:ILE:538:CA:4860, V-A:ILE:538:CB:4862, V-A:ILE:538:CG2:4863, V-B:ARG:545:CZ:9898, V-B:TYR:484:CZ:9319, V-B:HIS:456:CE1:9042, V-A:ILE:538:C:4858, V-B:ARG:545:CD:9895, V-B:ARG:545:CG:9894, V-A:TYR:539:CD1:4873, V-B:GLY:454:CA:9021, V-A:ASN:362:C:3172, H-B:TYR:484:OH:9320, H-B:GLY:454:N:9022, H-B:ARG:545:NE:9896, H-B:ARG:545:NH1:9899, V-B:GLY:453:CA:9016, V-A:LEU:363:CB:3187, V-B:TYR:484:CE1:9317, V-A:LEU:363:CG:3188"]

$$$$
4bd_Grossjean_2025
     RDKit          3D

 36 38  0  0  0  0  0  0  0  0999 V2000
  129.8390  132.8530   54.5260 C   0  0  0  0  0  0  0  0  0  0  0  0
  130.1650  132.3400   55.9170 C   0  0  0  0  0  0  0  0  0  0  0  0
  131.3930  131.7450   56.1940 C   0  0  0  0  0  0  0  0  0  0  0  0
  131.6800  131.2730   57.4840 C   0  0  0  0  0  0  0  0  0  0  0  0
  133.0430  130.6230   57.7400 C   0  0  0  0  0  0  0  0  0  0  0  0
  133.8360  130.6330   56.6660 F   0  0  0  0  0  0  0  0  0  0  0  0
  133.6800  131.2750   58.7120 F   0  0  0  0  0  0  0  0  0  0  0  0
  132.8760  129.3500   58.0990 F   0  0  0  0  0  0  0  0  0  0  0  0
  130.6680  131.4320   58.4780 C   0  0  0  0  0  0  0  0  0  0  0  0
  130.6010  131.0820   59.8750 C   0  0  0  0  0  0  0  0  0  0  0  0
  131.6360  130.4720   60.5350 N   0  0  0  0  0  0  0  0  0  0  0  0
  129.3850  131.4200   60.4940 C   0  0  0  0  0  0  0  0  0  0  0  0
  128.9740  131.1960   61.8830 C   0  0  0  0  0  0  0  0  0  0  0  0
  129.5800  131.7330   62.8120 O   0  0  0  0  0  0  0  0  0  0  0  0
  127.8990  130.3860   62.0480 N   0  0  0  0  0  0  0  0  0  0  0  0
  127.2870  129.9420   63.2350 C   0  0  0  0  0  0  0  0  0  0  0  0
  125.8910  129.8690   63.2130 C   0  0  0  0  0  0  0  0  0  0  0  0
  125.1930  129.4320   64.3350 C   0  0  0  0  0  0  0  0  0  0  0  0
  125.8910  129.0590   65.4810 C   0  0  0  0  0  0  0  0  0  0  0  0
  127.2820  129.1140   65.5110 C   0  0  0  0  0  0  0  0  0  0  0  0
  127.9840  129.5510   64.3900 C   0  0  0  0  0  0  0  0  0  0  0  0
  128.2840  132.1940   59.3570 S   0  0  0  0  0  0  0  0  0  0  0  0
  129.4520  132.0580   58.0630 C   0  0  0  0  0  0  0  0  0  0  0  0
  129.1860  132.5050   56.8370 N   0  0  0  0  0  0  0  0  0  0  0  0
  129.2506  133.7790   54.6053 H   0  0  0  0  0  0  0  0  0  0  0  0
  130.7731  133.0576   53.9824 H   0  0  0  0  0  0  0  0  0  0  0  0
  129.2571  132.0942   53.9824 H   0  0  0  0  0  0  0  0  0  0  0  0
  132.1434  131.6442   55.3961 H   0  0  0  0  0  0  0  0  0  0  0  0
  132.5000  130.2320   60.0700 H   0  0  0  0  0  0  0  0  0  0  0  0
  131.5720  130.2460   61.5180 H   0  0  0  0  0  0  0  0  0  0  0  0
  127.4550  130.0600   61.2030 H   0  0  0  0  0  0  0  0  0  0  0  0
  125.3418  130.1582   62.3048 H   0  0  0  0  0  0  0  0  0  0  0  0
  124.0943  129.3814   64.3167 H   0  0  0  0  0  0  0  0  0  0  0  0
  125.3391  128.7183   66.3694 H   0  0  0  0  0  0  0  0  0  0  0  0
  127.8257  128.8128   66.4186 H   0  0  0  0  0  0  0  0  0  0  0  0
  129.0831  129.5898   64.4093 H   0  0  0  0  0  0  0  0  0  0  0  0
  1  2  1  0
  2  3  2  0
  3  4  1  0
  4  5  1  0
  5  6  1  0
  5  7  1  0
  5  8  1  0
  4  9  2  0
  9 10  1  0
 10 11  1  0
 10 12  2  0
 12 13  1  0
 13 14  2  0
 13 15  1  0
 15 16  1  0
 16 17  2  0
 17 18  1  0
 18 19  2  0
 19 20  1  0
 20 21  2  0
 12 22  1  0
 22 23  1  0
 23 24  2  0
 24  2  1  0
 23  9  1  0
 21 16  1  0
  1 25  1  0
  1 26  1  0
  1 27  1  0
  3 28  1  0
 11 29  1  0
 11 30  1  0
 15 31  1  0
 17 32  1  0
 18 33  1  0
 19 34  1  0
 20 35  1  0
 21 36  1  0
M  END
>  <Binding energies>  (1) 
[-6.43]

>  <Ligand effiencies>  (1) 
[-0.23814814814814814]

>  <Interactions>  (1) 
["V-A:ASP:366:CG:3213, V-A:ASP:366:CB:3212, V-A:TYR:531:CZ:4794, V-A:TYR:531:CE2:4793, V-A:PRO:540:CA:4883, V-A:TYR:539:C:4867, V-A:PRO:540:N:4884, V-A:PRO:540:CB:4885, V-A:LEU:363:CD1:3189, V-A:GLU:543:CD:4908, H-A:GLU:543:OE1:4909, H-A:ASP:366:OD1:3214, V-A:LEU:363:CA:3185, V-A:GLU:543:CG:4907, V-A:ILE:538:CA:4860, V-A:ILE:538:CB:4862, V-A:ILE:538:CG2:4863, V-B:ARG:545:CZ:9898, V-B:TYR:484:CZ:9319, V-A:ILE:538:C:4858, V-A:TYR:539:CD2:4874, V-A:ASN:362:C:3172, V-A:LEU:363:CB:3187"]

$$$$
4be_Grossjean_2025
     RDKit          3D

 38 40  0  0  0  0  0  0  0  0999 V2000
  128.3550  128.7980   66.7610 C   0  0  0  0  0  0  0  0  0  0  0  0
  127.4790  129.0710   65.5540 C   0  0  0  0  0  0  0  0  0  0  0  0
  126.0940  128.8880   65.6000 C   0  0  0  0  0  0  0  0  0  0  0  0
  125.3500  129.1560   64.4500 C   0  0  0  0  0  0  0  0  0  0  0  0
  126.0010  129.5950   63.2950 C   0  0  0  0  0  0  0  0  0  0  0  0
  127.3900  129.7630   63.3190 C   0  0  0  0  0  0  0  0  0  0  0  0
  127.9850  130.2000   62.1220 N   0  0  0  0  0  0  0  0  0  0  0  0
  128.9530  131.1340   61.9430 C   0  0  0  0  0  0  0  0  0  0  0  0
  129.4800  131.7610   62.8640 O   0  0  0  0  0  0  0  0  0  0  0  0
  129.3370  131.3830   60.5500 C   0  0  0  0  0  0  0  0  0  0  0  0
  128.1980  132.1420   59.4400 S   0  0  0  0  0  0  0  0  0  0  0  0
  129.3420  132.0360   58.1230 C   0  0  0  0  0  0  0  0  0  0  0  0
  129.0440  132.4890   56.9060 N   0  0  0  0  0  0  0  0  0  0  0  0
  130.0110  132.3540   55.9690 C   0  0  0  0  0  0  0  0  0  0  0  0
  129.6520  132.8730   54.5890 C   0  0  0  0  0  0  0  0  0  0  0  0
  131.2570  131.7850   56.2190 C   0  0  0  0  0  0  0  0  0  0  0  0
  131.5770  131.3070   57.4990 C   0  0  0  0  0  0  0  0  0  0  0  0
  132.9620  130.6920   57.7270 C   0  0  0  0  0  0  0  0  0  0  0  0
  133.7420  130.7460   56.6440 F   0  0  0  0  0  0  0  0  0  0  0  0
  133.5920  131.3450   58.7030 F   0  0  0  0  0  0  0  0  0  0  0  0
  132.8360  129.4090   58.0650 F   0  0  0  0  0  0  0  0  0  0  0  0
  130.5780  131.4300   58.5100 C   0  0  0  0  0  0  0  0  0  0  0  0
  130.5390  131.0570   59.9030 C   0  0  0  0  0  0  0  0  0  0  0  0
  131.5910  130.4450   60.5350 N   0  0  0  0  0  0  0  0  0  0  0  0
  128.1250  129.4970   64.4380 N   0  0  0  0  0  0  0  0  0  0  0  0
  127.7786  128.9776   67.6805 H   0  0  0  0  0  0  0  0  0  0  0  0
  128.6937  127.7517   66.7391 H   0  0  0  0  0  0  0  0  0  0  0  0
  129.2282  129.4666   66.7391 H   0  0  0  0  0  0  0  0  0  0  0  0
  125.6022  128.5410   66.5207 H   0  0  0  0  0  0  0  0  0  0  0  0
  124.2582  129.0224   64.4533 H   0  0  0  0  0  0  0  0  0  0  0  0
  125.4297  129.8058   62.3790 H   0  0  0  0  0  0  0  0  0  0  0  0
  127.6030  129.7840   61.2850 H   0  0  0  0  0  0  0  0  0  0  0  0
  129.0287  133.7741   54.6868 H   0  0  0  0  0  0  0  0  0  0  0  0
  130.5722  133.1215   54.0399 H   0  0  0  0  0  0  0  0  0  0  0  0
  129.0949  132.0996   54.0399 H   0  0  0  0  0  0  0  0  0  0  0  0
  131.9957  131.7096   55.4074 H   0  0  0  0  0  0  0  0  0  0  0  0
  132.4620  130.2550   60.0620 H   0  0  0  0  0  0  0  0  0  0  0  0
  131.5250  130.1550   61.5010 H   0  0  0  0  0  0  0  0  0  0  0  0
  1  2  1  0
  2  3  2  0
  3  4  1  0
  4  5  2  0
  5  6  1  0
  6  7  1  0
  7  8  1  0
  8  9  2  0
  8 10  1  0
 10 11  1  0
 11 12  1  0
 12 13  2  0
 13 14  1  0
 14 15  1  0
 14 16  2  0
 16 17  1  0
 17 18  1  0
 18 19  1  0
 18 20  1  0
 18 21  1  0
 17 22  2  0
 22 23  1  0
 23 24  1  0
  6 25  2  0
 25  2  1  0
 23 10  2  0
 22 12  1  0
  1 26  1  0
  1 27  1  0
  1 28  1  0
  3 29  1  0
  4 30  1  0
  5 31  1  0
  7 32  1  0
 15 33  1  0
 15 34  1  0
 15 35  1  0
 16 36  1  0
 24 37  1  0
 24 38  1  0
M  END
>  <Binding energies>  (1) 
[-6.63]

>  <Ligand effiencies>  (1) 
[-0.2367857142857143]

>  <Interactions>  (1) 
["V-A:ASP:366:CG:3213, V-A:ASP:366:CB:3212, V-A:TYR:531:CZ:4794, V-A:TYR:531:CE2:4793, V-A:PRO:540:CA:4883, V-A:TYR:539:C:4867, V-A:PRO:540:N:4884, V-A:PRO:540:CB:4885, V-A:LEU:363:CD1:3189, V-A:GLU:543:CD:4908, H-A:GLU:543:OE1:4909, H-A:ASP:366:OD1:3214, V-A:LEU:363:CA:3185, V-A:GLU:543:CG:4907, V-A:ILE:538:CA:4860, V-A:ILE:538:CB:4862, V-A:ILE:538:CG2:4863, V-A:GLU:543:CB:4906, V-B:ARG:545:CZ:9898, V-B:HIS:456:CE1:9042, V-A:ILE:538:C:4858, V-A:TYR:539:CD2:4874, H-B:TYR:484:OH:9320, V-A:LEU:363:CB:3187"]

$$$$
4bf_Grossjean_2025
     RDKit          3D

 35 37  0  0  0  0  0  0  0  0999 V2000
  129.9180  132.8730   54.4290 C   0  0  0  0  0  0  0  0  0  0  0  0
  130.1560  132.3340   55.8290 C   0  0  0  0  0  0  0  0  0  0  0  0
  131.3510  131.7020   56.1600 C   0  0  0  0  0  0  0  0  0  0  0  0
  131.5560  131.2050   57.4560 C   0  0  0  0  0  0  0  0  0  0  0  0
  132.8870  130.5150   57.7740 C   0  0  0  0  0  0  0  0  0  0  0  0
  133.5050  131.0360   58.8370 F   0  0  0  0  0  0  0  0  0  0  0  0
  132.6770  129.2230   58.0290 F   0  0  0  0  0  0  0  0  0  0  0  0
  133.7150  130.6300   56.7350 F   0  0  0  0  0  0  0  0  0  0  0  0
  130.4970  131.3770   58.3970 C   0  0  0  0  0  0  0  0  0  0  0  0
  130.3450  131.0080   59.7830 C   0  0  0  0  0  0  0  0  0  0  0  0
  131.3270  130.3570   60.4860 N   0  0  0  0  0  0  0  0  0  0  0  0
  129.1120  131.3760   60.3440 C   0  0  0  0  0  0  0  0  0  0  0  0
  128.6160  131.1310   61.7020 C   0  0  0  0  0  0  0  0  0  0  0  0
  129.2590  131.5080   62.6820 O   0  0  0  0  0  0  0  0  0  0  0  0
  127.4240  130.4900   61.7780 N   0  0  0  0  0  0  0  0  0  0  0  0
  126.7050  130.0670   62.9120 C   0  0  0  0  0  0  0  0  0  0  0  0
  127.1660  129.1500   63.8730 C   0  0  0  0  0  0  0  0  0  0  0  0
  126.3430  128.8020   64.9470 C   0  0  0  0  0  0  0  0  0  0  0  0
  125.0740  129.3770   65.0290 C   0  0  0  0  0  0  0  0  0  0  0  0
  124.6030  130.2570   64.1110 N   0  0  0  0  0  0  0  0  0  0  0  0
  125.4150  130.5860   63.0730 C   0  0  0  0  0  0  0  0  0  0  0  0
  128.0930  132.1930   59.1610 S   0  0  0  0  0  0  0  0  0  0  0  0
  129.3230  132.0430   57.9280 C   0  0  0  0  0  0  0  0  0  0  0  0
  129.1330  132.5140   56.6960 N   0  0  0  0  0  0  0  0  0  0  0  0
  129.4744  133.8775   54.4933 H   0  0  0  0  0  0  0  0  0  0  0  0
  130.8752  132.9287   53.8899 H   0  0  0  0  0  0  0  0  0  0  0  0
  129.2320  132.2031   53.8899 H   0  0  0  0  0  0  0  0  0  0  0  0
  132.1395  131.5915   55.4010 H   0  0  0  0  0  0  0  0  0  0  0  0
  132.1390  129.9650   60.0320 H   0  0  0  0  0  0  0  0  0  0  0  0
  131.2710  130.2490   61.4890 H   0  0  0  0  0  0  0  0  0  0  0  0
  126.9710  130.2890   60.8980 H   0  0  0  0  0  0  0  0  0  0  0  0
  128.1694  128.7089   63.7797 H   0  0  0  0  0  0  0  0  0  0  0  0
  126.6878  128.0902   65.7115 H   0  0  0  0  0  0  0  0  0  0  0  0
  124.4271  129.1043   65.8759 H   0  0  0  0  0  0  0  0  0  0  0  0
  125.0400  131.2960   62.3211 H   0  0  0  0  0  0  0  0  0  0  0  0
  1  2  1  0
  2  3  2  0
  3  4  1  0
  4  5  1  0
  5  6  1  0
  5  7  1  0
  5  8  1  0
  4  9  2  0
  9 10  1  0
 10 11  1  0
 10 12  2  0
 12 13  1  0
 13 14  2  0
 13 15  1  0
 15 16  1  0
 16 17  2  0
 17 18  1  0
 18 19  2  0
 19 20  1  0
 20 21  2  0
 12 22  1  0
 22 23  1  0
 23 24  2  0
 24  2  1  0
 23  9  1  0
 21 16  1  0
  1 25  1  0
  1 26  1  0
  1 27  1  0
  3 28  1  0
 11 29  1  0
 11 30  1  0
 15 31  1  0
 17 32  1  0
 18 33  1  0
 19 34  1  0
 21 35  1  0
M  END
>  <Binding energies>  (1) 
[-6.48]

>  <Ligand effiencies>  (1) 
[-0.24000000000000002]

>  <Interactions>  (1) 
["V-B:GLU:543:CD:9880, V-A:ASP:366:CG:3213, V-A:ASP:366:CB:3212, V-A:TYR:531:CZ:4794, V-A:TYR:531:CE2:4793, V-A:PRO:540:CA:4883, V-A:TYR:539:C:4867, V-A:PRO:540:N:4884, V-A:PRO:540:CB:4885, V-A:LEU:363:CD1:3189, H-A:GLU:543:OE1:4909, H-A:ASP:366:OD1:3214, V-A:LEU:363:CA:3185, V-A:ILE:538:CA:4860, V-A:ILE:538:CB:4862, V-A:ILE:538:CG2:4863, V-B:ARG:545:CZ:9898, V-A:ILE:538:C:4858, V-A:TYR:539:CD2:4874, V-A:TYR:539:CD1:4873, H-B:TYR:484:OH:9320, H-B:GLY:454:N:9022"]

$$$$
4bg_Grossjean_2025
     RDKit          3D

 39 41  0  0  0  0  0  0  0  0999 V2000
  129.1250  132.7750   53.9600 C   0  0  0  0  0  0  0  0  0  0  0  0
  129.7010  131.7200   54.8880 C   0  0  0  0  0  0  0  0  0  0  0  0
  130.8440  131.9730   55.6400 C   0  0  0  0  0  0  0  0  0  0  0  0
  131.3690  130.9860   56.4900 C   0  0  0  0  0  0  0  0  0  0  0  0
  132.6300  131.3110   57.2980 C   0  0  0  0  0  0  0  0  0  0  0  0
  133.5890  130.3920   57.1610 F   0  0  0  0  0  0  0  0  0  0  0  0
  133.1350  132.4770   56.8960 F   0  0  0  0  0  0  0  0  0  0  0  0
  132.3300  131.3840   58.5940 F   0  0  0  0  0  0  0  0  0  0  0  0
  130.6820  129.7370   56.5410 C   0  0  0  0  0  0  0  0  0  0  0  0
  130.9180  128.5160   57.2710 C   0  0  0  0  0  0  0  0  0  0  0  0
  131.9820  128.3540   58.1230 N   0  0  0  0  0  0  0  0  0  0  0  0
  129.9610  127.5160   57.0390 C   0  0  0  0  0  0  0  0  0  0  0  0
  129.9100  126.1590   57.5830 C   0  0  0  0  0  0  0  0  0  0  0  0
  130.8830  125.6530   58.1420 O   0  0  0  0  0  0  0  0  0  0  0  0
  128.7260  125.5220   57.4670 N   0  0  0  0  0  0  0  0  0  0  0  0
  128.4470  124.1600   57.9220 C   0  0  0  0  0  0  0  0  0  0  0  0
  127.2680  123.5090   57.2120 C   0  0  0  0  0  0  0  0  0  0  0  0
  126.0400  123.3760   57.8670 C   0  0  0  0  0  0  0  0  0  0  0  0
  124.9530  122.8160   57.2020 C   0  0  0  0  0  0  0  0  0  0  0  0
  125.0920  122.4020   55.8790 C   0  0  0  0  0  0  0  0  0  0  0  0
  126.3070  122.5470   55.2140 C   0  0  0  0  0  0  0  0  0  0  0  0
  127.3950  123.1060   55.8790 C   0  0  0  0  0  0  0  0  0  0  0  0
  128.7520  128.0450   55.8730 S   0  0  0  0  0  0  0  0  0  0  0  0
  129.5160  129.6100   55.7250 C   0  0  0  0  0  0  0  0  0  0  0  0
  129.0240  130.5490   54.9180 N   0  0  0  0  0  0  0  0  0  0  0  0
  128.6822  133.5860   54.5568 H   0  0  0  0  0  0  0  0  0  0  0  0
  129.9261  133.1820   53.3255 H   0  0  0  0  0  0  0  0  0  0  0  0
  128.3495  132.3212   53.3255 H   0  0  0  0  0  0  0  0  0  0  0  0
  131.3396  132.9524   55.5683 H   0  0  0  0  0  0  0  0  0  0  0  0
  132.2890  127.4420   58.4270 H   0  0  0  0  0  0  0  0  0  0  0  0
  132.4910  129.1490   58.4850 H   0  0  0  0  0  0  0  0  0  0  0  0
  127.9970  125.9660   56.9260 H   0  0  0  0  0  0  0  0  0  0  0  0
  129.3416  123.5446   57.7461 H   0  0  0  0  0  0  0  0  0  0  0  0
  128.1857  124.2237   58.9886 H   0  0  0  0  0  0  0  0  0  0  0  0
  125.9328  123.7140   58.9083 H   0  0  0  0  0  0  0  0  0  0  0  0
  123.9887  122.7008   57.7186 H   0  0  0  0  0  0  0  0  0  0  0  0
  124.2338  121.9563   55.3547 H   0  0  0  0  0  0  0  0  0  0  0  0
  126.4066  122.2213   54.1680 H   0  0  0  0  0  0  0  0  0  0  0  0
  128.3545  123.2306   55.3558 H   0  0  0  0  0  0  0  0  0  0  0  0
  1  2  1  0
  2  3  2  0
  3  4  1  0
  4  5  1  0
  5  6  1  0
  5  7  1  0
  5  8  1  0
  4  9  2  0
  9 10  1  0
 10 11  1  0
 10 12  2  0
 12 13  1  0
 13 14  2  0
 13 15  1  0
 15 16  1  0
 16 17  1  0
 17 18  2  0
 18 19  1  0
 19 20  2  0
 20 21  1  0
 21 22  2  0
 12 23  1  0
 23 24  1  0
 24 25  2  0
 25  2  1  0
 24  9  1  0
 22 17  1  0
  1 26  1  0
  1 27  1  0
  1 28  1  0
  3 29  1  0
 11 30  1  0
 11 31  1  0
 15 32  1  0
 16 33  1  0
 16 34  1  0
 18 35  1  0
 19 36  1  0
 20 37  1  0
 21 38  1  0
 22 39  1  0
M  END
>  <Binding energies>  (1) 
[-6.43]

>  <Ligand effiencies>  (1) 
[-0.22964285714285712]

>  <Interactions>  (1) 
["V-B:TYR:539:CD1:9845, V-B:ILE:538:CD1:9837, V-B:PRO:540:CB:9857, V-B:PRO:540:CD:9859, V-B:LEU:363:CD1:8161, V-B:PRO:540:CA:9855, V-B:ILE:538:CG2:9835, V-B:TYR:539:CE2:9848, V-B:ILE:538:CA:9832, V-B:MET:535:CE:9807, V-B:TYR:539:CZ:9849, V-B:TYR:539:CE1:9847, V-B:PRO:540:N:9856, V-B:TYR:531:CE2:9765, V-A:ASP:366:CG:3213, V-A:ASP:366:CB:3212, V-A:TYR:531:CZ:4794, V-A:PRO:540:CA:4883, V-A:PRO:540:N:4884, V-A:PRO:540:CB:4885, V-A:TYR:539:CE2:4876, V-A:LEU:363:CD1:3189, V-B:ILE:538:C:9830, V-B:ILE:538:CB:9834, H-A:ASP:366:OD1:3214, V-A:PRO:540:CD:4887, V-A:LEU:363:CA:3185, H-B:TYR:531:OH:9767, V-A:ILE:538:CA:4860, V-A:ILE:538:CB:4862, V-A:ILE:538:CG2:4863, V-B:PRO:540:CG:9858, V-A:ILE:538:C:4858, V-A:TYR:539:CD2:4874, V-A:PRO:540:CG:4886, H-A:ASP:366:OD2:3215, V-A:LEU:363:CB:3187, V-A:LEU:363:CG:3188"]

$$$$
4bh_Grossjean_2025
     RDKit          3D

 51 53  0  0  0  0  0  0  0  0999 V2000
  133.8300  130.6850   57.5510 C   0  0  0  0  0  0  0  0  0  0  0  0
  132.9430  131.7530   57.2380 O   0  0  0  0  0  0  0  0  0  0  0  0
  131.6470  131.7230   57.7200 C   0  0  0  0  0  0  0  0  0  0  0  0
  131.2870  131.1900   58.9680 C   0  0  0  0  0  0  0  0  0  0  0  0
  129.9570  131.1900   59.3900 C   0  0  0  0  0  0  0  0  0  0  0  0
  129.5920  130.6490   60.7670 C   0  0  0  0  0  0  0  0  0  0  0  0
  129.7750  129.2030   60.8930 N   0  0  0  0  0  0  0  0  0  0  0  0
  128.9370  128.2630   60.4090 C   0  0  0  0  0  0  0  0  0  0  0  0
  127.8860  128.5470   59.8310 O   0  0  0  0  0  0  0  0  0  0  0  0
  129.3230  126.8720   60.6480 C   0  0  0  0  0  0  0  0  0  0  0  0
  128.1120  125.5960   60.5750 S   0  0  0  0  0  0  0  0  0  0  0  0
  129.3020  124.3850   60.9910 C   0  0  0  0  0  0  0  0  0  0  0  0
  128.9750  123.0970   61.0980 N   0  0  0  0  0  0  0  0  0  0  0  0
  129.9830  122.2540   61.4230 C   0  0  0  0  0  0  0  0  0  0  0  0
  129.5880  120.7930   61.5420 C   0  0  0  0  0  0  0  0  0  0  0  0
  131.2960  122.6620   61.6390 C   0  0  0  0  0  0  0  0  0  0  0  0
  131.6460  124.0170   61.5290 C   0  0  0  0  0  0  0  0  0  0  0  0
  133.1050  124.4190   61.7730 C   0  0  0  0  0  0  0  0  0  0  0  0
  133.2420  125.3320   62.7370 F   0  0  0  0  0  0  0  0  0  0  0  0
  133.8130  123.3490   62.1340 F   0  0  0  0  0  0  0  0  0  0  0  0
  133.6230  124.9340   60.6580 F   0  0  0  0  0  0  0  0  0  0  0  0
  130.6070  124.9340   61.1910 C   0  0  0  0  0  0  0  0  0  0  0  0
  130.5830  126.3630   61.0000 C   0  0  0  0  0  0  0  0  0  0  0  0
  131.6960  127.1510   61.1430 N   0  0  0  0  0  0  0  0  0  0  0  0
  128.9770  131.7550   58.5720 C   0  0  0  0  0  0  0  0  0  0  0  0
  129.3060  132.2880   57.3160 C   0  0  0  0  0  0  0  0  0  0  0  0
  128.3860  132.8490   56.4490 O   0  0  0  0  0  0  0  0  0  0  0  0
  127.9980  132.1310   55.2830 C   0  0  0  0  0  0  0  0  0  0  0  0
  130.6450  132.2600   56.9000 C   0  0  0  0  0  0  0  0  0  0  0  0
  130.9850  132.7960   55.6790 O   0  0  0  0  0  0  0  0  0  0  0  0
  131.3500  131.8280   54.7060 C   0  0  0  0  0  0  0  0  0  0  0  0
  133.9128  130.5853   58.6433 H   0  0  0  0  0  0  0  0  0  0  0  0
  133.4405  129.7483   57.1258 H   0  0  0  0  0  0  0  0  0  0  0  0
  134.8223  130.8959   57.1258 H   0  0  0  0  0  0  0  0  0  0  0  0
  132.0638  130.7668   59.6218 H   0  0  0  0  0  0  0  0  0  0  0  0
  130.2256  131.1467   61.5158 H   0  0  0  0  0  0  0  0  0  0  0  0
  128.5226  130.8546   60.9225 H   0  0  0  0  0  0  0  0  0  0  0  0
  130.6570  128.9000   61.2810 H   0  0  0  0  0  0  0  0  0  0  0  0
  129.5138  120.5186   62.6046 H   0  0  0  0  0  0  0  0  0  0  0  0
  128.6150  120.6353   61.0538 H   0  0  0  0  0  0  0  0  0  0  0  0
  130.3490  120.1665   61.0538 H   0  0  0  0  0  0  0  0  0  0  0  0
  132.0641  121.9182   61.8975 H   0  0  0  0  0  0  0  0  0  0  0  0
  132.4980  127.0580   60.5350 H   0  0  0  0  0  0  0  0  0  0  0  0
  131.7570  127.8490   61.8710 H   0  0  0  0  0  0  0  0  0  0  0  0
  127.9327  131.7829   58.9165 H   0  0  0  0  0  0  0  0  0  0  0  0
  127.4941  131.1985   55.5773 H   0  0  0  0  0  0  0  0  0  0  0  0
  127.3099  132.7468   54.6853 H   0  0  0  0  0  0  0  0  0  0  0  0
  128.8902  131.8928   54.6853 H   0  0  0  0  0  0  0  0  0  0  0  0
  131.6949  130.9133   55.2103 H   0  0  0  0  0  0  0  0  0  0  0  0
  130.4785  131.5936   54.0771 H   0  0  0  0  0  0  0  0  0  0  0  0
  132.1593  132.2274   54.0771 H   0  0  0  0  0  0  0  0  0  0  0  0
  1  2  1  0
  2  3  1  0
  3  4  2  0
  4  5  1  0
  5  6  1  0
  6  7  1  0
  7  8  1  0
  8  9  2  0
  8 10  1  0
 10 11  1  0
 11 12  1  0
 12 13  2  0
 13 14  1  0
 14 15  1  0
 14 16  2  0
 16 17  1  0
 17 18  1  0
 18 19  1  0
 18 20  1  0
 18 21  1  0
 17 22  2  0
 22 23  1  0
 23 24  1  0
  5 25  2  0
 25 26  1  0
 26 27  1  0
 27 28  1  0
 26 29  2  0
 29 30  1  0
 30 31  1  0
 29  3  1  0
 23 10  2  0
 22 12  1  0
  1 32  1  0
  1 33  1  0
  1 34  1  0
  4 35  1  0
  6 36  1  0
  6 37  1  0
  7 38  1  0
 15 39  1  0
 15 40  1  0
 15 41  1  0
 16 42  1  0
 24 43  1  0
 24 44  1  0
 25 45  1  0
 28 46  1  0
 28 47  1  0
 28 48  1  0
 31 49  1  0
 31 50  1  0
 31 51  1  0
M  END
>  <Binding energies>  (1) 
[-5.66]

>  <Ligand effiencies>  (1) 
[-0.16647058823529412]

>  <Interactions>  (1) 
["V-B:ALA:541:CB:9864, V-A:GLY:453:C:4042, V-A:ASP:366:CG:3213, V-A:LEU:475:CD2:4259, V-A:ILE:369:CD1:3239, V-A:GLY:454:CA:4049, V-A:ASP:366:CB:3212, V-A:TYR:539:CE1:4875, V-A:TYR:531:CZ:4794, H-A:TYR:539:N:4870, V-A:TYR:539:CZ:4877, V-A:TYR:531:CE2:4793, V-A:PRO:540:CA:4883, V-A:TYR:539:C:4867, V-A:PRO:540:N:4884, V-A:PRO:540:CB:4885, V-A:TYR:539:CE2:4876, V-A:LEU:363:CD1:3189, H-A:GLU:543:OE1:4909, H-A:GLU:543:OE2:4910, V-A:ARG:545:CZ:4926, H-A:ASP:366:OD1:3214, V-A:LEU:363:CA:3185, V-A:ILE:538:CB:4862, V-A:ILE:538:CG2:4863, V-A:TYR:539:CD2:4874, V-A:TYR:539:CG:4872, V-A:TYR:539:CD1:4873, H-A:ASP:366:OD2:3215, V-A:LEU:363:CB:3187"]

$$$$
4bi_Grossjean_2025
     RDKit          3D

 32 34  0  0  0  0  0  0  0  0999 V2000
  129.4350  132.8180   55.4420 C   0  0  0  0  0  0  0  0  0  0  0  0
  129.4620  132.3950   56.9000 C   0  0  0  0  0  0  0  0  0  0  0  0
  130.6260  131.8970   57.4800 C   0  0  0  0  0  0  0  0  0  0  0  0
  130.6380  131.5130   58.8310 C   0  0  0  0  0  0  0  0  0  0  0  0
  131.9440  130.9780   59.4280 C   0  0  0  0  0  0  0  0  0  0  0  0
  132.4270  131.7500   60.4040 F   0  0  0  0  0  0  0  0  0  0  0  0
  131.7420  129.7650   59.9420 F   0  0  0  0  0  0  0  0  0  0  0  0
  132.8780  130.9040   58.4780 F   0  0  0  0  0  0  0  0  0  0  0  0
  129.4200  131.6550   59.5600 C   0  0  0  0  0  0  0  0  0  0  0  0
  129.0560  131.3700   60.9270 C   0  0  0  0  0  0  0  0  0  0  0  0
  129.9410  130.8490   61.8370 N   0  0  0  0  0  0  0  0  0  0  0  0
  127.7230  131.6800   61.2430 C   0  0  0  0  0  0  0  0  0  0  0  0
  127.0220  131.5080   62.5180 C   0  0  0  0  0  0  0  0  0  0  0  0
  127.0890  132.3720   63.3950 O   0  0  0  0  0  0  0  0  0  0  0  0
  126.3040  130.3630   62.6390 N   0  0  0  0  0  0  0  0  0  0  0  0
  125.5410  129.9540   63.7240 C   0  0  0  0  0  0  0  0  0  0  0  0
  126.0390  129.1400   64.7410 C   0  0  0  0  0  0  0  0  0  0  0  0
  124.9860  128.9680   65.6110 C   0  0  0  0  0  0  0  0  0  0  0  0
  123.9100  129.6440   65.1410 O   0  0  0  0  0  0  0  0  0  0  0  0
  124.2750  130.2640   63.9440 N   0  0  0  0  0  0  0  0  0  0  0  0
  126.8670  132.3140   59.8390 S   0  0  0  0  0  0  0  0  0  0  0  0
  128.2990  132.1790   58.8470 C   0  0  0  0  0  0  0  0  0  0  0  0
  128.2940  132.5430   57.5650 N   0  0  0  0  0  0  0  0  0  0  0  0
  129.3650  133.9140   55.3794 H   0  0  0  0  0  0  0  0  0  0  0  0
  130.3565  132.4804   54.9452 H   0  0  0  0  0  0  0  0  0  0  0  0
  128.5639  132.3660   54.9452 H   0  0  0  0  0  0  0  0  0  0  0  0
  131.5411  131.8039   56.8768 H   0  0  0  0  0  0  0  0  0  0  0  0
  129.8730  131.0530   62.8240 H   0  0  0  0  0  0  0  0  0  0  0  0
  130.6970  130.2440   61.5480 H   0  0  0  0  0  0  0  0  0  0  0  0
  126.3110  129.7320   61.8500 H   0  0  0  0  0  0  0  0  0  0  0  0
  127.0539  128.7250   64.8290 H   0  0  0  0  0  0  0  0  0  0  0  0
  125.0138  128.3770   66.5383 H   0  0  0  0  0  0  0  0  0  0  0  0
  1  2  1  0
  2  3  2  0
  3  4  1  0
  4  5  1  0
  5  6  1  0
  5  7  1  0
  5  8  1  0
  4  9  2  0
  9 10  1  0
 10 11  1  0
 10 12  2  0
 12 13  1  0
 13 14  2  0
 13 15  1  0
 15 16  1  0
 16 17  1  0
 17 18  2  0
 18 19  1  0
 19 20  1  0
 12 21  1  0
 21 22  1  0
 22 23  2  0
 23  2  1  0
 22  9  1  0
 20 16  2  0
  1 24  1  0
  1 25  1  0
  1 26  1  0
  3 27  1  0
 11 28  1  0
 11 29  1  0
 15 30  1  0
 17 31  1  0
 18 32  1  0
M  END
>  <Binding energies>  (1) 
[-6.08]

>  <Ligand effiencies>  (1) 
[-0.23384615384615384]

>  <Interactions>  (1) 
["V-A:ASP:366:CG:3213, V-A:ASP:366:CB:3212, V-A:TYR:539:CE1:4875, V-A:PRO:540:CA:4883, V-A:TYR:539:C:4867, V-A:PRO:540:N:4884, V-A:PRO:540:CB:4885, V-A:TYR:539:CE2:4876, V-A:GLU:543:CD:4908, H-A:GLU:543:OE1:4909, V-A:GLU:543:CG:4907, V-A:ILE:538:CA:4860, V-B:ARG:545:CZ:9898, V-A:ILE:538:C:4858, V-A:TYR:539:CD2:4874, V-B:ARG:545:CD:9895, V-A:PRO:540:C:4881, V-A:TYR:539:CA:4869, V-B:ARG:545:CG:9894, V-A:TYR:539:CG:4872, V-A:TYR:539:CD1:4873, H-B:TYR:484:OH:9320, H-B:GLY:454:N:9022, H-B:ARG:545:NE:9896, H-B:ARG:545:NH1:9899"]

$$$$
4bj_Grossjean_2025
     RDKit          3D

 32 34  0  0  0  0  0  0  0  0999 V2000
  129.8320  132.8720   54.5200 C   0  0  0  0  0  0  0  0  0  0  0  0
  130.1630  132.3700   55.9130 C   0  0  0  0  0  0  0  0  0  0  0  0
  131.3900  131.7710   56.1870 C   0  0  0  0  0  0  0  0  0  0  0  0
  131.6800  131.3050   57.4790 C   0  0  0  0  0  0  0  0  0  0  0  0
  133.0440  130.6510   57.7320 C   0  0  0  0  0  0  0  0  0  0  0  0
  133.8510  130.7010   56.6710 F   0  0  0  0  0  0  0  0  0  0  0  0
  133.6630  131.2730   58.7360 F   0  0  0  0  0  0  0  0  0  0  0  0
  132.8740  129.3670   58.0460 F   0  0  0  0  0  0  0  0  0  0  0  0
  130.6740  131.4760   58.4760 C   0  0  0  0  0  0  0  0  0  0  0  0
  130.6090  131.1300   59.8750 C   0  0  0  0  0  0  0  0  0  0  0  0
  131.6380  130.5020   60.5320 N   0  0  0  0  0  0  0  0  0  0  0  0
  129.4080  131.4980   60.5020 C   0  0  0  0  0  0  0  0  0  0  0  0
  129.0060  131.2920   61.8960 C   0  0  0  0  0  0  0  0  0  0  0  0
  129.3270  132.0990   62.7710 O   0  0  0  0  0  0  0  0  0  0  0  0
  128.2610  130.1840   62.1300 N   0  0  0  0  0  0  0  0  0  0  0  0
  127.7470  129.7670   63.3500 C   0  0  0  0  0  0  0  0  0  0  0  0
  128.3630  129.7110   64.5100 N   0  0  0  0  0  0  0  0  0  0  0  0
  127.5650  129.2710   65.4620 C   0  0  0  0  0  0  0  0  0  0  0  0
  126.2650  128.9560   65.0800 C   0  0  0  0  0  0  0  0  0  0  0  0
  126.0890  129.2550   63.3760 S   0  0  0  0  0  0  0  0  0  0  0  0
  128.3050  132.2690   59.3660 S   0  0  0  0  0  0  0  0  0  0  0  0
  129.4610  132.1090   58.0650 C   0  0  0  0  0  0  0  0  0  0  0  0
  129.1890  132.5480   56.8360 N   0  0  0  0  0  0  0  0  0  0  0  0
  129.2279  133.7882   54.5944 H   0  0  0  0  0  0  0  0  0  0  0  0
  130.7639  133.0903   53.9778 H   0  0  0  0  0  0  0  0  0  0  0  0
  129.2643  132.1015   53.9778 H   0  0  0  0  0  0  0  0  0  0  0  0
  132.1363  131.6624   55.3863 H   0  0  0  0  0  0  0  0  0  0  0  0
  131.5830  130.2680   61.5120 H   0  0  0  0  0  0  0  0  0  0  0  0
  132.4940  130.2570   60.0530 H   0  0  0  0  0  0  0  0  0  0  0  0
  128.0470  129.5940   61.3390 H   0  0  0  0  0  0  0  0  0  0  0  0
  127.9079  129.1590   66.5012 H   0  0  0  0  0  0  0  0  0  0  0  0
  125.4762  128.5789   65.7476 H   0  0  0  0  0  0  0  0  0  0  0  0
  1  2  1  0
  2  3  2  0
  3  4  1  0
  4  5  1  0
  5  6  1  0
  5  7  1  0
  5  8  1  0
  4  9  2  0
  9 10  1  0
 10 11  1  0
 10 12  2  0
 12 13  1  0
 13 14  2  0
 13 15  1  0
 15 16  1  0
 16 17  2  0
 17 18  1  0
 18 19  2  0
 19 20  1  0
 12 21  1  0
 21 22  1  0
 22 23  2  0
 23  2  1  0
 22  9  1  0
 20 16  1  0
  1 24  1  0
  1 25  1  0
  1 26  1  0
  3 27  1  0
 11 28  1  0
 11 29  1  0
 15 30  1  0
 18 31  1  0
 19 32  1  0
M  END
>  <Binding energies>  (1) 
[-5.79]

>  <Ligand effiencies>  (1) 
[-0.2226923076923077]

>  <Interactions>  (1) 
["V-A:ASP:366:CG:3213, V-A:ASP:366:CB:3212, V-A:TYR:531:CZ:4794, V-A:TYR:531:CE2:4793, V-A:PRO:540:CA:4883, V-A:TYR:539:C:4867, V-A:PRO:540:N:4884, V-A:PRO:540:CB:4885, V-A:LEU:363:CD1:3189, V-A:GLU:543:CD:4908, H-A:GLU:543:OE1:4909, H-A:ALA:541:N:4891, V-A:ALA:541:CB:4892, H-A:ASP:366:OD1:3214, V-A:LEU:363:CA:3185, V-A:GLU:543:CG:4907, V-A:ILE:538:CA:4860, V-A:ILE:538:CB:4862, V-A:ILE:538:CG2:4863, V-B:TYR:484:CZ:9319, V-A:ILE:538:C:4858, V-A:TYR:539:CD2:4874, V-A:ASN:362:C:3172, H-B:TYR:484:OH:9320, V-A:LEU:363:CB:3187, V-A:LEU:363:CG:3188"]

$$$$
4bk_Grossjean_2025
     RDKit          3D

 50 51  0  0  0  0  0  0  0  0999 V2000
  125.8630  129.8740   55.7650 C   0  0  0  0  0  0  0  0  0  0  0  0
  126.7030  129.3270   54.7600 O   0  0  0  0  0  0  0  0  0  0  0  0
  128.0190  129.0430   55.2160 C   0  0  0  0  0  0  0  0  0  0  0  0
  129.0330  129.8370   54.3830 C   0  0  0  0  0  0  0  0  0  0  0  0
  128.3700  130.9140   53.7340 O   0  0  0  0  0  0  0  0  0  0  0  0
  128.4750  132.1520   54.4250 C   0  0  0  0  0  0  0  0  0  0  0  0
  129.9100  132.6830   54.3050 C   0  0  0  0  0  0  0  0  0  0  0  0
  130.6020  132.4430   55.5220 O   0  0  0  0  0  0  0  0  0  0  0  0
  131.9540  132.8870   55.5120 C   0  0  0  0  0  0  0  0  0  0  0  0
  132.7870  132.0060   56.4590 C   0  0  0  0  0  0  0  0  0  0  0  0
  132.1220  130.7600   56.8410 N   0  0  0  0  0  0  0  0  0  0  0  0
  131.9260  130.3370   58.1070 C   0  0  0  0  0  0  0  0  0  0  0  0
  132.2860  130.9930   59.0850 O   0  0  0  0  0  0  0  0  0  0  0  0
  131.2490  129.0480   58.2580 C   0  0  0  0  0  0  0  0  0  0  0  0
  130.6630  128.1860   56.8370 S   0  0  0  0  0  0  0  0  0  0  0  0
  130.0780  126.8680   57.8250 C   0  0  0  0  0  0  0  0  0  0  0  0
  129.4730  125.8100   57.2850 N   0  0  0  0  0  0  0  0  0  0  0  0
  129.0650  124.8530   58.1510 C   0  0  0  0  0  0  0  0  0  0  0  0
  128.3820  123.6560   57.5140 C   0  0  0  0  0  0  0  0  0  0  0  0
  129.2450  124.9290   59.5290 C   0  0  0  0  0  0  0  0  0  0  0  0
  129.8790  126.0410   60.1040 C   0  0  0  0  0  0  0  0  0  0  0  0
  130.0510  126.0810   61.6260 C   0  0  0  0  0  0  0  0  0  0  0  0
  131.3170  126.2710   62.0040 F   0  0  0  0  0  0  0  0  0  0  0  0
  129.3280  127.0780   62.1360 F   0  0  0  0  0  0  0  0  0  0  0  0
  129.6450  124.9280   62.1570 F   0  0  0  0  0  0  0  0  0  0  0  0
  130.3230  127.0690   59.2190 C   0  0  0  0  0  0  0  0  0  0  0  0
  131.0000  128.3240   59.4330 C   0  0  0  0  0  0  0  0  0  0  0  0
  131.3620  128.7680   60.6790 N   0  0  0  0  0  0  0  0  0  0  0  0
  126.2613  129.6146   56.7570 H   0  0  0  0  0  0  0  0  0  0  0  0
  125.8285  130.9683   55.6584 H   0  0  0  0  0  0  0  0  0  0  0  0
  124.8482  129.4630   55.6584 H   0  0  0  0  0  0  0  0  0  0  0  0
  128.1099  129.3294   56.2742 H   0  0  0  0  0  0  0  0  0  0  0  0
  128.2194  127.9668   55.1081 H   0  0  0  0  0  0  0  0  0  0  0  0
  129.8192  130.2337   55.0422 H   0  0  0  0  0  0  0  0  0  0  0  0
  129.4868  129.1768   53.6292 H   0  0  0  0  0  0  0  0  0  0  0  0
  127.7768  132.8787   53.9841 H   0  0  0  0  0  0  0  0  0  0  0  0
  128.2261  132.0027   55.4860 H   0  0  0  0  0  0  0  0  0  0  0  0
  130.4252  132.1671   53.4813 H   0  0  0  0  0  0  0  0  0  0  0  0
  129.8875  133.7636   54.1005 H   0  0  0  0  0  0  0  0  0  0  0  0
  132.3574  132.8125   54.4914 H   0  0  0  0  0  0  0  0  0  0  0  0
  132.0000  133.9336   55.8475 H   0  0  0  0  0  0  0  0  0  0  0  0
  133.7331  131.7549   55.9572 H   0  0  0  0  0  0  0  0  0  0  0  0
  132.9417  132.5837   57.3822 H   0  0  0  0  0  0  0  0  0  0  0  0
  131.8030  130.1760   56.0830 H   0  0  0  0  0  0  0  0  0  0  0  0
  128.0014  122.9890   58.3016 H   0  0  0  0  0  0  0  0  0  0  0  0
  127.5448  124.0010   56.8895 H   0  0  0  0  0  0  0  0  0  0  0  0
  129.1050  123.1108   56.8895 H   0  0  0  0  0  0  0  0  0  0  0  0
  128.8876  124.1113   60.1722 H   0  0  0  0  0  0  0  0  0  0  0  0
  130.9530  128.3900   61.5220 H   0  0  0  0  0  0  0  0  0  0  0  0
  132.0600  129.4900   60.7970 H   0  0  0  0  0  0  0  0  0  0  0  0
  1  2  1  0
  2  3  1  0
  3  4  1  0
  4  5  1  0
  5  6  1  0
  6  7  1  0
  7  8  1  0
  8  9  1  0
  9 10  1  0
 10 11  1  0
 11 12  1  0
 12 13  2  0
 12 14  1  0
 14 15  1  0
 15 16  1  0
 16 17  2  0
 17 18  1  0
 18 19  1  0
 18 20  2  0
 20 21  1  0
 21 22  1  0
 22 23  1  0
 22 24  1  0
 22 25  1  0
 21 26  2  0
 26 27  1  0
 27 28  1  0
 27 14  2  0
 26 16  1  0
  1 29  1  0
  1 30  1  0
  1 31  1  0
  3 32  1  0
  3 33  1  0
  4 34  1  0
  4 35  1  0
  6 36  1  0
  6 37  1  0
  7 38  1  0
  7 39  1  0
  9 40  1  0
  9 41  1  0
 10 42  1  0
 10 43  1  0
 11 44  1  0
 19 45  1  0
 19 46  1  0
 19 47  1  0
 20 48  1  0
 28 49  1  0
 28 50  1  0
M  END
>  <Binding energies>  (1) 
[-4.86]

>  <Ligand effiencies>  (1) 
[-0.15677419354838712]

>  <Interactions>  (1) 
["V-B:GLU:543:CD:9880, V-B:TYR:539:CE2:9848, V-B:TYR:539:CD2:9846, V-B:MET:535:CE:9807, V-B:TYR:539:CZ:9849, V-A:ASP:366:CG:3213, V-B:TYR:531:CE1:9764, H-A:TYR:539:N:4870, V-A:TYR:539:CZ:4877, V-A:PRO:540:CA:4883, V-A:PRO:540:N:4884, V-A:PRO:540:CB:4885, V-A:MET:535:CE:4835, V-A:TYR:539:CE2:4876, H-B:LYS:534:NZ:9795, V-A:LEU:363:CD1:3189, V-A:GLU:543:CD:4908, H-A:GLU:543:OE1:4909, H-A:ASP:366:OD1:3214, V-A:PRO:540:CD:4887, V-A:ILE:538:CA:4860, V-A:ILE:538:CB:4862, V-A:ILE:538:CG2:4863, H-A:TYR:531:OH:4795, V-A:ILE:538:C:4858, V-A:TYR:539:CD2:4874, V-A:PRO:540:CG:4886"]

$$$$
4ca_Grossjean_2025
     RDKit          3D

 52 55  0  0  0  0  0  0  0  0999 V2000
  131.1280  126.8820   74.5860 C   0  0  0  0  0  0  0  0  0  0  0  0
  131.2030  127.8380   73.3910 C   0  0  0  0  0  0  0  0  0  0  0  0
  129.9200  127.9400   72.7860 O   0  0  0  0  0  0  0  0  0  0  0  0
  129.3890  126.9030   72.0870 C   0  0  0  0  0  0  0  0  0  0  0  0
  129.1390  125.8030   72.5890 O   0  0  0  0  0  0  0  0  0  0  0  0
  129.1340  127.2300   70.6450 C   0  0  0  0  0  0  0  0  0  0  0  0
  128.0820  126.5920   69.9740 C   0  0  0  0  0  0  0  0  0  0  0  0
  127.8180  126.8780   68.6380 C   0  0  0  0  0  0  0  0  0  0  0  0
  128.6020  127.7990   67.9430 C   0  0  0  0  0  0  0  0  0  0  0  0
  128.2410  128.0180   66.5990 N   0  0  0  0  0  0  0  0  0  0  0  0
  127.2090  128.7260   66.0770 C   0  0  0  0  0  0  0  0  0  0  0  0
  126.4020  129.3690   66.7490 O   0  0  0  0  0  0  0  0  0  0  0  0
  127.1110  128.7030   64.6160 C   0  0  0  0  0  0  0  0  0  0  0  0
  125.7730  129.5130   63.8040 S   0  0  0  0  0  0  0  0  0  0  0  0
  126.4010  129.0740   62.2340 C   0  0  0  0  0  0  0  0  0  0  0  0
  125.7790  129.4320   61.1130 N   0  0  0  0  0  0  0  0  0  0  0  0
  126.3490  129.0580   59.9390 C   0  0  0  0  0  0  0  0  0  0  0  0
  125.6290  129.4860   58.6930 C   0  0  0  0  0  0  0  0  0  0  0  0
  124.5130  130.3360   58.7630 C   0  0  0  0  0  0  0  0  0  0  0  0
  123.8380  130.7320   57.6110 C   0  0  0  0  0  0  0  0  0  0  0  0
  124.2700  130.2810   56.3680 C   0  0  0  0  0  0  0  0  0  0  0  0
  125.3700  129.4360   56.2700 C   0  0  0  0  0  0  0  0  0  0  0  0
  126.0420  129.0420   57.4240 C   0  0  0  0  0  0  0  0  0  0  0  0
  127.5280  128.3060   59.8960 C   0  0  0  0  0  0  0  0  0  0  0  0
  128.1890  127.9190   61.0720 C   0  0  0  0  0  0  0  0  0  0  0  0
  129.4790  127.0990   60.9520 C   0  0  0  0  0  0  0  0  0  0  0  0
  130.5480  127.7310   61.4400 F   0  0  0  0  0  0  0  0  0  0  0  0
  129.3510  125.9550   61.6240 F   0  0  0  0  0  0  0  0  0  0  0  0
  129.7260  126.8310   59.6700 F   0  0  0  0  0  0  0  0  0  0  0  0
  127.6090  128.3220   62.3090 C   0  0  0  0  0  0  0  0  0  0  0  0
  127.9930  128.1270   63.6860 C   0  0  0  0  0  0  0  0  0  0  0  0
  129.1210  127.4360   64.0490 N   0  0  0  0  0  0  0  0  0  0  0  0
  129.6530  128.4470   68.6070 C   0  0  0  0  0  0  0  0  0  0  0  0
  129.9150  128.1620   69.9450 C   0  0  0  0  0  0  0  0  0  0  0  0
  131.1733  127.4596   75.5210 H   0  0  0  0  0  0  0  0  0  0  0  0
  130.1830  126.3203   74.5474 H   0  0  0  0  0  0  0  0  0  0  0  0
  131.9738  126.1798   74.5474 H   0  0  0  0  0  0  0  0  0  0  0  0
  131.5262  128.8314   73.7355 H   0  0  0  0  0  0  0  0  0  0  0  0
  131.9256  127.4522   72.6568 H   0  0  0  0  0  0  0  0  0  0  0  0
  127.4596  125.8589   70.5080 H   0  0  0  0  0  0  0  0  0  0  0  0
  126.9849  126.3741   68.1261 H   0  0  0  0  0  0  0  0  0  0  0  0
  128.8600  127.5860   65.9300 H   0  0  0  0  0  0  0  0  0  0  0  0
  124.1666  130.6947   59.7435 H   0  0  0  0  0  0  0  0  0  0  0  0
  122.9664  131.3990   57.6838 H   0  0  0  0  0  0  0  0  0  0  0  0
  123.7384  130.5946   55.4574 H   0  0  0  0  0  0  0  0  0  0  0  0
  125.7077  129.0805   55.2853 H   0  0  0  0  0  0  0  0  0  0  0  0
  126.9106  128.3721   57.3418 H   0  0  0  0  0  0  0  0  0  0  0  0
  127.9450  128.0123   58.9214 H   0  0  0  0  0  0  0  0  0  0  0  0
  129.9980  127.5490   63.5600 H   0  0  0  0  0  0  0  0  0  0  0  0
  129.1150  126.7870   64.8250 H   0  0  0  0  0  0  0  0  0  0  0  0
  130.2716  129.1816   68.0706 H   0  0  0  0  0  0  0  0  0  0  0  0
  130.7429  128.6730   70.4583 H   0  0  0  0  0  0  0  0  0  0  0  0
  1  2  1  0
  2  3  1  0
  3  4  1  0
  4  5  2  0
  4  6  1  0
  6  7  2  0
  7  8  1  0
  8  9  2  0
  9 10  1  0
 10 11  1  0
 11 12  2  0
 11 13  1  0
 13 14  1  0
 14 15  1  0
 15 16  2  0
 16 17  1  0
 17 18  1  0
 18 19  2  0
 19 20  1  0
 20 21  2  0
 21 22  1  0
 22 23  2  0
 17 24  2  0
 24 25  1  0
 25 26  1  0
 26 27  1  0
 26 28  1  0
 26 29  1  0
 25 30  2  0
 30 31  1  0
 31 32  1  0
  9 33  1  0
 33 34  2  0
 34  6  1  0
 31 13  2  0
 30 15  1  0
 23 18  1  0
  1 35  1  0
  1 36  1  0
  1 37  1  0
  2 38  1  0
  2 39  1  0
  7 40  1  0
  8 41  1  0
 10 42  1  0
 19 43  1  0
 20 44  1  0
 21 45  1  0
 22 46  1  0
 23 47  1  0
 24 48  1  0
 32 49  1  0
 32 50  1  0
 33 51  1  0
 34 52  1  0
M  END
>  <Binding energies>  (1) 
[-6.7]

>  <Ligand effiencies>  (1) 
[-0.1810810810810811]

>  <Interactions>  (1) 
["V-B:GLU:543:CD:9880, H-B:GLU:543:OE2:9882, H-B:GLU:543:OE1:9881, V-B:TYR:531:CZ:9766, V-A:TYR:539:CE1:4875, V-B:TYR:531:CE1:9764, V-B:ASP:366:CG:8185, V-A:TYR:539:CZ:4877, V-B:ASP:366:CB:8184, V-A:GLU:543:CD:4908, H-A:GLU:543:OE1:4909, H-A:GLU:543:OE2:4910, V-A:GLU:543:CG:4907, V-A:HIS:456:CE1:4070, V-A:GLU:543:C:4902, V-B:GLU:543:CB:9878, V-A:LYS:547:CE:4950, V-A:GLU:543:CB:4906, V-A:GLY:544:C:4912, V-A:HIS:456:CD2:4068, H-A:LYS:547:NZ:4951, V-B:HIS:456:CD2:9040, V-B:HIS:456:CE1:9042, H-B:LYS:547:NZ:9923, V-B:ASP:366:C:8180, V-B:ASP:366:CA:8182, H-B:TYR:484:OH:9320, V-A:GLU:543:CA:4904, H-B:HIS:456:ND1:9039"]

$$$$
4cb_Grossjean_2025
     RDKit          3D

 49 52  0  0  0  0  0  0  0  0999 V2000
  131.3210  127.6610   73.4730 C   0  0  0  0  0  0  0  0  0  0  0  0
  130.1460  127.9370   72.7230 O   0  0  0  0  0  0  0  0  0  0  0  0
  129.5060  126.9530   72.0410 C   0  0  0  0  0  0  0  0  0  0  0  0
  129.1570  125.8850   72.5520 O   0  0  0  0  0  0  0  0  0  0  0  0
  129.2630  127.2940   70.5980 C   0  0  0  0  0  0  0  0  0  0  0  0
  128.3550  126.5250   69.8570 C   0  0  0  0  0  0  0  0  0  0  0  0
  128.1030  126.8200   68.5210 C   0  0  0  0  0  0  0  0  0  0  0  0
  128.7550  127.8830   67.8950 C   0  0  0  0  0  0  0  0  0  0  0  0
  128.4130  128.1010   66.5470 N   0  0  0  0  0  0  0  0  0  0  0  0
  128.1900  129.2600   65.8790 C   0  0  0  0  0  0  0  0  0  0  0  0
  128.3050  130.3800   66.3790 O   0  0  0  0  0  0  0  0  0  0  0  0
  127.8070  129.1070   64.4730 C   0  0  0  0  0  0  0  0  0  0  0  0
  126.6080  130.1830   63.7580 S   0  0  0  0  0  0  0  0  0  0  0  0
  126.7740  129.4090   62.2000 C   0  0  0  0  0  0  0  0  0  0  0  0
  126.0680  129.8090   61.1460 N   0  0  0  0  0  0  0  0  0  0  0  0
  126.2730  129.1520   59.9740 C   0  0  0  0  0  0  0  0  0  0  0  0
  125.4650  129.6300   58.8020 C   0  0  0  0  0  0  0  0  0  0  0  0
  125.7350  129.1620   57.5070 C   0  0  0  0  0  0  0  0  0  0  0  0
  124.9920  129.6030   56.4140 C   0  0  0  0  0  0  0  0  0  0  0  0
  123.9660  130.5230   56.6040 C   0  0  0  0  0  0  0  0  0  0  0  0
  123.6790  131.0050   57.8770 C   0  0  0  0  0  0  0  0  0  0  0  0
  124.4260  130.5620   58.9650 C   0  0  0  0  0  0  0  0  0  0  0  0
  127.1710  128.0840   59.8740 C   0  0  0  0  0  0  0  0  0  0  0  0
  127.9180  127.6530   60.9790 C   0  0  0  0  0  0  0  0  0  0  0  0
  128.8870  126.4770   60.7980 C   0  0  0  0  0  0  0  0  0  0  0  0
  130.1500  126.7900   61.0950 F   0  0  0  0  0  0  0  0  0  0  0  0
  128.5270  125.4710   61.5960 F   0  0  0  0  0  0  0  0  0  0  0  0
  128.8650  126.0650   59.5310 F   0  0  0  0  0  0  0  0  0  0  0  0
  127.7230  128.3450   62.2100 C   0  0  0  0  0  0  0  0  0  0  0  0
  128.3020  128.1980   63.5230 C   0  0  0  0  0  0  0  0  0  0  0  0
  129.2520  127.2520   63.8130 N   0  0  0  0  0  0  0  0  0  0  0  0
  129.6630  128.6610   68.6300 C   0  0  0  0  0  0  0  0  0  0  0  0
  129.9130  128.3650   69.9670 C   0  0  0  0  0  0  0  0  0  0  0  0
  131.0913  127.7150   74.5474 H   0  0  0  0  0  0  0  0  0  0  0  0
  131.6852  126.6529   73.2261 H   0  0  0  0  0  0  0  0  0  0  0  0
  132.0960  128.4015   73.2261 H   0  0  0  0  0  0  0  0  0  0  0  0
  127.8372  125.6809   70.3360 H   0  0  0  0  0  0  0  0  0  0  0  0
  127.3842  126.2105   67.9537 H   0  0  0  0  0  0  0  0  0  0  0  0
  128.3350  127.2560   66.0000 H   0  0  0  0  0  0  0  0  0  0  0  0
  126.5462  128.4354   57.3523 H   0  0  0  0  0  0  0  0  0  0  0  0
  125.2157  129.2254   55.4053 H   0  0  0  0  0  0  0  0  0  0  0  0
  123.3779  130.8715   55.7422 H   0  0  0  0  0  0  0  0  0  0  0  0
  122.8665  131.7320   58.0231 H   0  0  0  0  0  0  0  0  0  0  0  0
  124.1990  130.9482   59.9697 H   0  0  0  0  0  0  0  0  0  0  0  0
  127.2934  127.5719   58.9082 H   0  0  0  0  0  0  0  0  0  0  0  0
  130.1770  127.2820   63.4070 H   0  0  0  0  0  0  0  0  0  0  0  0
  129.0590  126.4900   64.4480 H   0  0  0  0  0  0  0  0  0  0  0  0
  130.1777  129.5057   68.1489 H   0  0  0  0  0  0  0  0  0  0  0  0
  130.6283  128.9778   70.5351 H   0  0  0  0  0  0  0  0  0  0  0  0
  1  2  1  0
  2  3  1  0
  3  4  2  0
  3  5  1  0
  5  6  2  0
  6  7  1  0
  7  8  2  0
  8  9  1  0
  9 10  1  0
 10 11  2  0
 10 12  1  0
 12 13  1  0
 13 14  1  0
 14 15  2  0
 15 16  1  0
 16 17  1  0
 17 18  2  0
 18 19  1  0
 19 20  2  0
 20 21  1  0
 21 22  2  0
 16 23  2  0
 23 24  1  0
 24 25  1  0
 25 26  1  0
 25 27  1  0
 25 28  1  0
 24 29  2  0
 29 30  1  0
 30 31  1  0
  8 32  1  0
 32 33  2  0
 33  5  1  0
 30 12  2  0
 29 14  1  0
 22 17  1  0
  1 34  1  0
  1 35  1  0
  1 36  1  0
  6 37  1  0
  7 38  1  0
  9 39  1  0
 18 40  1  0
 19 41  1  0
 20 42  1  0
 21 43  1  0
 22 44  1  0
 23 45  1  0
 31 46  1  0
 31 47  1  0
 32 48  1  0
 33 49  1  0
M  END
>  <Binding energies>  (1) 
[-6.62]

>  <Ligand effiencies>  (1) 
[-0.18388888888888888]

>  <Interactions>  (1) 
["V-B:GLU:543:CD:9880, H-B:GLU:543:OE2:9882, H-B:GLU:543:OE1:9881, V-B:TYR:531:CZ:9766, V-A:TYR:539:CE1:4875, V-B:TYR:531:CE1:9764, V-B:ASP:366:CG:8185, V-A:TYR:539:CZ:4877, V-B:ASP:366:CB:8184, V-A:GLU:543:CD:4908, H-A:GLU:543:OE1:4909, H-A:GLU:543:OE2:4910, V-A:GLU:543:CG:4907, V-A:HIS:456:CE1:4070, V-A:GLU:543:C:4902, V-B:GLU:543:CB:9878, V-A:LYS:547:CE:4950, V-A:GLU:543:CB:4906, V-A:HIS:456:CD2:4068, H-A:LYS:547:NZ:4951, V-B:HIS:456:CD2:9040, V-B:HIS:456:CE1:9042, H-B:LYS:547:NZ:9923, V-B:ASP:366:C:8180, V-B:ASP:366:CA:8182, V-B:ILE:369:CG2:8209, V-B:ILE:369:CB:8208, H-B:TYR:484:OH:9320, V-A:GLU:543:CA:4904"]

$$$$
4cc_Grossjean_2025
     RDKit          3D

 47 50  0  0  0  0  0  0  0  0999 V2000
  124.0950  132.2440   62.5540 C   0  0  0  0  0  0  0  0  0  0  0  0
  123.8720  131.0620   63.3150 O   0  0  0  0  0  0  0  0  0  0  0  0
  124.7730  130.0190   63.2210 C   0  0  0  0  0  0  0  0  0  0  0  0
  125.0630  129.5610   61.9370 C   0  0  0  0  0  0  0  0  0  0  0  0
  125.9610  128.5150   61.7420 C   0  0  0  0  0  0  0  0  0  0  0  0
  126.5750  127.9040   62.8370 C   0  0  0  0  0  0  0  0  0  0  0  0
  127.4790  126.8660   62.5420 N   0  0  0  0  0  0  0  0  0  0  0  0
  128.6620  126.9210   61.8830 C   0  0  0  0  0  0  0  0  0  0  0  0
  129.1630  127.9620   61.4550 O   0  0  0  0  0  0  0  0  0  0  0  0
  129.3420  125.6350   61.7010 C   0  0  0  0  0  0  0  0  0  0  0  0
  128.4080  124.1750   61.3810 S   0  0  0  0  0  0  0  0  0  0  0  0
  129.8630  123.2100   61.2970 C   0  0  0  0  0  0  0  0  0  0  0  0
  129.8150  121.9010   61.0570 N   0  0  0  0  0  0  0  0  0  0  0  0
  130.9980  121.2370   61.0010 C   0  0  0  0  0  0  0  0  0  0  0  0
  130.9130  119.7620   60.7320 C   0  0  0  0  0  0  0  0  0  0  0  0
  129.9270  118.9750   61.3500 C   0  0  0  0  0  0  0  0  0  0  0  0
  129.8430  117.6070   61.1070 C   0  0  0  0  0  0  0  0  0  0  0  0
  130.7470  117.0030   60.2400 C   0  0  0  0  0  0  0  0  0  0  0  0
  131.7360  117.7580   59.6180 C   0  0  0  0  0  0  0  0  0  0  0  0
  131.8170  119.1260   59.8640 C   0  0  0  0  0  0  0  0  0  0  0  0
  132.2200  121.8850   61.2010 C   0  0  0  0  0  0  0  0  0  0  0  0
  132.2820  123.2650   61.4560 C   0  0  0  0  0  0  0  0  0  0  0  0
  133.6560  123.9120   61.6600 C   0  0  0  0  0  0  0  0  0  0  0  0
  133.6950  124.7440   62.7040 F   0  0  0  0  0  0  0  0  0  0  0  0
  134.5730  122.9670   61.8710 F   0  0  0  0  0  0  0  0  0  0  0  0
  133.9890  124.6140   60.5780 F   0  0  0  0  0  0  0  0  0  0  0  0
  131.0480  123.9740   61.5090 C   0  0  0  0  0  0  0  0  0  0  0  0
  130.7180  125.3580   61.7420 C   0  0  0  0  0  0  0  0  0  0  0  0
  131.6700  126.3170   61.9790 N   0  0  0  0  0  0  0  0  0  0  0  0
  126.2980  128.3670   64.1320 C   0  0  0  0  0  0  0  0  0  0  0  0
  125.4000  129.4140   64.3210 C   0  0  0  0  0  0  0  0  0  0  0  0
  124.2552  133.0934   63.2344 H   0  0  0  0  0  0  0  0  0  0  0  0
  124.9836  132.1095   61.9198 H   0  0  0  0  0  0  0  0  0  0  0  0
  123.2185  132.4426   61.9198 H   0  0  0  0  0  0  0  0  0  0  0  0
  124.5775  130.0307   61.0689 H   0  0  0  0  0  0  0  0  0  0  0  0
  126.1873  128.1691   60.7226 H   0  0  0  0  0  0  0  0  0  0  0  0
  127.2110  125.9630   62.9020 H   0  0  0  0  0  0  0  0  0  0  0  0
  129.2096  119.4475   62.0371 H   0  0  0  0  0  0  0  0  0  0  0  0
  129.0643  117.0058   61.5991 H   0  0  0  0  0  0  0  0  0  0  0  0
  130.6797  115.9225   60.0450 H   0  0  0  0  0  0  0  0  0  0  0  0
  132.4510  117.2763   58.9348 H   0  0  0  0  0  0  0  0  0  0  0  0
  132.6015  119.7188   59.3708 H   0  0  0  0  0  0  0  0  0  0  0  0
  133.1522  121.3026   61.1579 H   0  0  0  0  0  0  0  0  0  0  0  0
  131.4250  127.2520   62.2740 H   0  0  0  0  0  0  0  0  0  0  0  0
  132.6540  126.1190   61.8640 H   0  0  0  0  0  0  0  0  0  0  0  0
  126.7907  127.9024   64.9988 H   0  0  0  0  0  0  0  0  0  0  0  0
  125.1807  129.7691   65.3387 H   0  0  0  0  0  0  0  0  0  0  0  0
  1  2  1  0
  2  3  1  0
  3  4  2  0
  4  5  1  0
  5  6  2  0
  6  7  1  0
  7  8  1  0
  8  9  2  0
  8 10  1  0
 10 11  1  0
 11 12  1  0
 12 13  2  0
 13 14  1  0
 14 15  1  0
 15 16  2  0
 16 17  1  0
 17 18  2  0
 18 19  1  0
 19 20  2  0
 14 21  2  0
 21 22  1  0
 22 23  1  0
 23 24  1  0
 23 25  1  0
 23 26  1  0
 22 27  2  0
 27 28  1  0
 28 29  1  0
  6 30  1  0
 30 31  2  0
 31  3  1  0
 28 10  2  0
 27 12  1  0
 20 15  1  0
  1 32  1  0
  1 33  1  0
  1 34  1  0
  4 35  1  0
  5 36  1  0
  7 37  1  0
 16 38  1  0
 17 39  1  0
 18 40  1  0
 19 41  1  0
 20 42  1  0
 21 43  1  0
 29 44  1  0
 29 45  1  0
 30 46  1  0
 31 47  1  0
M  END
>  <Binding energies>  (1) 
[-7.5]

>  <Ligand effiencies>  (1) 
[-0.22058823529411764]

>  <Interactions>  (1) 
["V-B:GLU:543:CD:9880, H-B:GLU:543:OE2:9882, V-B:TYR:539:C:9839, H-B:GLU:543:OE1:9881, V-B:TYR:539:CE2:9848, V-B:TYR:539:CD2:9846, V-B:ALA:541:CB:9864, V-A:GLY:453:C:4042, V-A:SER:385:CB:3409, V-A:PRO:482:CB:4326, V-A:LEU:475:CD1:4258, V-A:ASP:366:CA:3210, V-A:ASP:366:CG:3213, V-B:TYR:539:CG:9844, V-A:LEU:475:CD2:4259, V-A:ILE:369:CD1:3239, V-A:GLY:454:CA:4049, V-A:LEU:475:CG:4257, V-A:ASP:366:CB:3212, V-A:PRO:482:CG:4327, V-B:ASP:366:CG:8185, V-A:GLU:543:CD:4908, H-A:GLU:543:OE1:4909, H-A:GLU:543:OE2:4910, V-A:ARG:545:CZ:4926, H-A:ASP:366:OD1:3214, V-B:LEU:475:CD2:9231, V-B:TYR:539:CB:9843, V-B:ARG:545:CZ:9898, V-B:ILE:369:CD1:8211, V-B:GLY:454:CA:9021, H-B:TYR:484:OH:9320, H-A:ASP:366:OD2:3215, V-A:GLY:453:CA:4044, H-B:GLY:454:N:9022"]

$$$$
4cd_Grossjean_2025
     RDKit          3D

 43 46  0  0  0  0  0  0  0  0999 V2000
  131.5840  126.6210   61.8530 N   0  0  0  0  0  0  0  0  0  0  0  0
  130.6310  125.6400   61.7510 C   0  0  0  0  0  0  0  0  0  0  0  0
  129.2540  125.8890   61.8670 C   0  0  0  0  0  0  0  0  0  0  0  0
  128.5750  127.1630   62.1240 C   0  0  0  0  0  0  0  0  0  0  0  0
  129.1220  128.2320   61.8530 O   0  0  0  0  0  0  0  0  0  0  0  0
  127.3340  127.0610   62.6590 N   0  0  0  0  0  0  0  0  0  0  0  0
  126.4480  128.0750   63.0670 C   0  0  0  0  0  0  0  0  0  0  0  0
  125.8290  128.7970   62.0430 C   0  0  0  0  0  0  0  0  0  0  0  0
  124.9260  129.8120   62.3450 C   0  0  0  0  0  0  0  0  0  0  0  0
  124.6340  130.1020   63.6750 C   0  0  0  0  0  0  0  0  0  0  0  0
  125.2320  129.3810   64.7060 C   0  0  0  0  0  0  0  0  0  0  0  0
  126.1370  128.3650   64.4070 C   0  0  0  0  0  0  0  0  0  0  0  0
  128.3210  124.4060   61.6740 S   0  0  0  0  0  0  0  0  0  0  0  0
  129.7770  123.4660   61.4500 C   0  0  0  0  0  0  0  0  0  0  0  0
  129.7300  122.1520   61.2440 N   0  0  0  0  0  0  0  0  0  0  0  0
  130.9150  121.5040   61.0940 C   0  0  0  0  0  0  0  0  0  0  0  0
  130.8310  120.0230   60.8670 C   0  0  0  0  0  0  0  0  0  0  0  0
  129.8440  119.2530   61.5040 C   0  0  0  0  0  0  0  0  0  0  0  0
  129.7590  117.8790   61.2970 C   0  0  0  0  0  0  0  0  0  0  0  0
  130.6640  117.2530   60.4450 C   0  0  0  0  0  0  0  0  0  0  0  0
  131.6480  117.9920   59.7990 C   0  0  0  0  0  0  0  0  0  0  0  0
  131.7280  119.3650   60.0070 C   0  0  0  0  0  0  0  0  0  0  0  0
  132.1380  122.1810   61.1320 C   0  0  0  0  0  0  0  0  0  0  0  0
  132.1980  123.5680   61.3450 C   0  0  0  0  0  0  0  0  0  0  0  0
  133.5720  124.2460   61.3790 C   0  0  0  0  0  0  0  0  0  0  0  0
  133.7100  125.1010   62.3950 F   0  0  0  0  0  0  0  0  0  0  0  0
  134.5280  123.3250   61.5000 F   0  0  0  0  0  0  0  0  0  0  0  0
  133.7640  124.9330   60.2520 F   0  0  0  0  0  0  0  0  0  0  0  0
  130.9620  124.2550   61.5150 C   0  0  0  0  0  0  0  0  0  0  0  0
  131.3410  127.5830   62.0470 H   0  0  0  0  0  0  0  0  0  0  0  0
  132.5670  126.4140   61.7410 H   0  0  0  0  0  0  0  0  0  0  0  0
  126.9740  126.1240   62.7740 H   0  0  0  0  0  0  0  0  0  0  0  0
  126.0567  128.5618   60.9928 H   0  0  0  0  0  0  0  0  0  0  0  0
  124.4452  130.3825   61.5366 H   0  0  0  0  0  0  0  0  0  0  0  0
  123.9245  130.9079   63.9139 H   0  0  0  0  0  0  0  0  0  0  0  0
  124.9902  129.6133   65.7536 H   0  0  0  0  0  0  0  0  0  0  0  0
  126.6077  127.7904   65.2184 H   0  0  0  0  0  0  0  0  0  0  0  0
  129.1262  119.7439   62.1777 H   0  0  0  0  0  0  0  0  0  0  0  0
  128.9802  117.2909   61.8045 H   0  0  0  0  0  0  0  0  0  0  0  0
  130.6002  116.1670   60.2819 H   0  0  0  0  0  0  0  0  0  0  0  0
  132.3607  117.4931   59.1259 H   0  0  0  0  0  0  0  0  0  0  0  0
  132.5061  119.9458   59.4900 H   0  0  0  0  0  0  0  0  0  0  0  0
  133.0715  121.6161   60.9923 H   0  0  0  0  0  0  0  0  0  0  0  0
  1  2  1  0
  2  3  2  0
  3  4  1  0
  4  5  2  0
  4  6  1  0
  6  7  1  0
  7  8  2  0
  8  9  1  0
  9 10  2  0
 10 11  1  0
 11 12  2  0
  3 13  1  0
 13 14  1  0
 14 15  2  0
 15 16  1  0
 16 17  1  0
 17 18  2  0
 18 19  1  0
 19 20  2  0
 20 21  1  0
 21 22  2  0
 16 23  2  0
 23 24  1  0
 24 25  1  0
 25 26  1  0
 25 27  1  0
 25 28  1  0
 24 29  2  0
 29  2  1  0
 12  7  1  0
 29 14  1  0
 22 17  1  0
  1 30  1  0
  1 31  1  0
  6 32  1  0
  8 33  1  0
  9 34  1  0
 10 35  1  0
 11 36  1  0
 12 37  1  0
 18 38  1  0
 19 39  1  0
 20 40  1  0
 21 41  1  0
 22 42  1  0
 23 43  1  0
M  END
>  <Binding energies>  (1) 
[-7.23]

>  <Ligand effiencies>  (1) 
[-0.2259375]

>  <Interactions>  (1) 
["V-B:GLU:543:CD:9880, H-B:GLU:543:OE2:9882, H-B:GLU:543:OE1:9881, V-B:TYR:539:CE2:9848, V-B:TYR:539:CD2:9846, V-B:ALA:541:CB:9864, V-A:GLY:453:C:4042, V-A:SER:385:CB:3409, V-A:PRO:482:CB:4326, V-A:LEU:475:CD1:4258, V-A:ASP:366:CA:3210, V-A:ASP:366:CG:3213, V-A:LEU:475:CD2:4259, V-A:ILE:369:CD1:3239, V-A:GLY:454:CA:4049, V-A:LEU:475:CG:4257, V-A:ASP:366:CB:3212, V-A:PRO:482:CG:4327, V-B:ASP:366:CG:8185, V-A:GLU:543:CD:4908, H-A:GLU:543:OE1:4909, H-A:GLU:543:OE2:4910, V-A:ARG:545:CZ:4926, H-A:ASP:366:OD1:3214, V-B:TYR:539:CB:9843, V-B:ARG:545:CZ:9898, V-A:ILE:369:CG1:3238, H-A:ASP:366:OD2:3215, V-A:GLY:453:CA:4044"]

$$$$
4ce_Grossjean_2025
     RDKit          3D

 45 48  0  0  0  0  0  0  0  0999 V2000
  124.3480  129.4930   65.8330 C   0  0  0  0  0  0  0  0  0  0  0  0
  124.9280  129.3920   64.4340 C   0  0  0  0  0  0  0  0  0  0  0  0
  124.6220  130.3330   63.4470 C   0  0  0  0  0  0  0  0  0  0  0  0
  125.1980  130.1810   62.1850 C   0  0  0  0  0  0  0  0  0  0  0  0
  126.0570  129.1080   61.9430 C   0  0  0  0  0  0  0  0  0  0  0  0
  126.3170  128.1990   62.9760 C   0  0  0  0  0  0  0  0  0  0  0  0
  127.2090  127.1530   62.6780 N   0  0  0  0  0  0  0  0  0  0  0  0
  128.4610  127.2260   62.1620 C   0  0  0  0  0  0  0  0  0  0  0  0
  129.0260  128.2860   61.8840 O   0  0  0  0  0  0  0  0  0  0  0  0
  129.1300  125.9410   61.9480 C   0  0  0  0  0  0  0  0  0  0  0  0
  128.1820  124.4660   61.7750 S   0  0  0  0  0  0  0  0  0  0  0  0
  129.6260  123.5130   61.5320 C   0  0  0  0  0  0  0  0  0  0  0  0
  129.5640  122.2010   61.3230 N   0  0  0  0  0  0  0  0  0  0  0  0
  130.7390  121.5460   61.1280 C   0  0  0  0  0  0  0  0  0  0  0  0
  130.6350  120.0690   60.8900 C   0  0  0  0  0  0  0  0  0  0  0  0
  131.5300  119.4180   60.0260 C   0  0  0  0  0  0  0  0  0  0  0  0
  131.4340  118.0480   59.7940 C   0  0  0  0  0  0  0  0  0  0  0  0
  130.4400  117.3090   60.4270 C   0  0  0  0  0  0  0  0  0  0  0  0
  129.5410  117.9290   61.2860 C   0  0  0  0  0  0  0  0  0  0  0  0
  129.6380  119.3000   61.5130 C   0  0  0  0  0  0  0  0  0  0  0  0
  131.9710  122.2100   61.1660 C   0  0  0  0  0  0  0  0  0  0  0  0
  132.0470  123.5930   61.3910 C   0  0  0  0  0  0  0  0  0  0  0  0
  133.4280  124.2570   61.4180 C   0  0  0  0  0  0  0  0  0  0  0  0
  133.5970  125.0730   62.4600 F   0  0  0  0  0  0  0  0  0  0  0  0
  134.3760  123.3210   61.4870 F   0  0  0  0  0  0  0  0  0  0  0  0
  133.6030  124.9790   60.3120 F   0  0  0  0  0  0  0  0  0  0  0  0
  130.8200  124.2920   61.5810 C   0  0  0  0  0  0  0  0  0  0  0  0
  130.5050  125.6790   61.8230 C   0  0  0  0  0  0  0  0  0  0  0  0
  131.4660  126.6520   61.9190 N   0  0  0  0  0  0  0  0  0  0  0  0
  125.7610  128.3430   64.2140 N   0  0  0  0  0  0  0  0  0  0  0  0
  125.1496  129.3534   66.5732 H   0  0  0  0  0  0  0  0  0  0  0  0
  123.8911  130.4842   65.9698 H   0  0  0  0  0  0  0  0  0  0  0  0
  123.5829  128.7146   65.9698 H   0  0  0  0  0  0  0  0  0  0  0  0
  123.9439  131.1726   63.6596 H   0  0  0  0  0  0  0  0  0  0  0  0
  124.9762  130.9030   61.3853 H   0  0  0  0  0  0  0  0  0  0  0  0
  126.5231  128.9782   60.9551 H   0  0  0  0  0  0  0  0  0  0  0  0
  126.8750  126.2320   62.9210 H   0  0  0  0  0  0  0  0  0  0  0  0
  132.3186  119.9985   59.5249 H   0  0  0  0  0  0  0  0  0  0  0  0
  132.1414  117.5524   59.1129 H   0  0  0  0  0  0  0  0  0  0  0  0
  130.3652  116.2265   60.2463 H   0  0  0  0  0  0  0  0  0  0  0  0
  128.7567  117.3403   61.7843 H   0  0  0  0  0  0  0  0  0  0  0  0
  128.9225  119.7883   62.1909 H   0  0  0  0  0  0  0  0  0  0  0  0
  132.8976  121.6363   61.0165 H   0  0  0  0  0  0  0  0  0  0  0  0
  132.4510  126.4420   61.8310 H   0  0  0  0  0  0  0  0  0  0  0  0
  131.2210  127.6180   62.0840 H   0  0  0  0  0  0  0  0  0  0  0  0
  1  2  1  0
  2  3  2  0
  3  4  1  0
  4  5  2  0
  5  6  1  0
  6  7  1  0
  7  8  1  0
  8  9  2  0
  8 10  1  0
 10 11  1  0
 11 12  1  0
 12 13  2  0
 13 14  1  0
 14 15  1  0
 15 16  2  0
 16 17  1  0
 17 18  2  0
 18 19  1  0
 19 20  2  0
 14 21  2  0
 21 22  1  0
 22 23  1  0
 23 24  1  0
 23 25  1  0
 23 26  1  0
 22 27  2  0
 27 28  1  0
 28 29  1  0
  6 30  2  0
 30  2  1  0
 28 10  2  0
 27 12  1  0
 20 15  1  0
  1 31  1  0
  1 32  1  0
  1 33  1  0
  3 34  1  0
  4 35  1  0
  5 36  1  0
  7 37  1  0
 16 38  1  0
 17 39  1  0
 18 40  1  0
 19 41  1  0
 20 42  1  0
 21 43  1  0
 29 44  1  0
 29 45  1  0
M  END
>  <Binding energies>  (1) 
[-7.43]

>  <Ligand effiencies>  (1) 
[-0.22515151515151513]

>  <Interactions>  (1) 
["V-B:GLU:543:CD:9880, H-B:GLU:543:OE2:9882, V-B:TYR:539:C:9839, H-B:GLU:543:OE1:9881, V-B:TYR:539:CE2:9848, V-B:TYR:539:CD2:9846, V-B:ALA:541:CB:9864, V-A:GLY:453:C:4042, V-A:SER:385:CB:3409, V-A:PRO:482:CB:4326, V-A:LEU:475:CD1:4258, V-A:ASP:366:CA:3210, V-A:ASP:366:CG:3213, V-B:TYR:539:CG:9844, V-A:LEU:475:CD2:4259, V-A:ILE:369:CD1:3239, V-A:GLY:454:CA:4049, V-A:ASP:366:CB:3212, V-A:PRO:482:CG:4327, H-B:ARG:545:NH2:9900, V-A:GLU:543:CD:4908, H-A:GLU:543:OE1:4909, H-A:GLU:543:OE2:4910, V-A:ARG:545:CZ:4926, H-A:ASP:366:OD1:3214, V-B:TYR:539:CB:9843, V-B:ARG:545:CZ:9898, V-B:TYR:484:CZ:9319, V-B:ARG:545:CD:9895, H-A:ASP:366:OD2:3215, H-B:ARG:545:NE:9896"]

$$$$
4cf_Grossjean_2025
     RDKit          3D

 42 45  0  0  0  0  0  0  0  0999 V2000
  131.5710  126.6350   61.8260 N   0  0  0  0  0  0  0  0  0  0  0  0
  130.6160  125.6560   61.7280 C   0  0  0  0  0  0  0  0  0  0  0  0
  129.2400  125.9060   61.8520 C   0  0  0  0  0  0  0  0  0  0  0  0
  128.5650  127.1760   62.1330 C   0  0  0  0  0  0  0  0  0  0  0  0
  129.1270  128.2490   61.9080 O   0  0  0  0  0  0  0  0  0  0  0  0
  127.3090  127.0680   62.6320 N   0  0  0  0  0  0  0  0  0  0  0  0
  126.4190  128.0760   63.0500 C   0  0  0  0  0  0  0  0  0  0  0  0
  126.1130  128.3930   64.3870 C   0  0  0  0  0  0  0  0  0  0  0  0
  125.1970  129.4100   64.6640 C   0  0  0  0  0  0  0  0  0  0  0  0
  124.6070  130.0860   63.5960 C   0  0  0  0  0  0  0  0  0  0  0  0
  124.8780  129.7960   62.2990 N   0  0  0  0  0  0  0  0  0  0  0  0
  125.7700  128.8030   62.0460 C   0  0  0  0  0  0  0  0  0  0  0  0
  128.3040  124.4250   61.6660 S   0  0  0  0  0  0  0  0  0  0  0  0
  129.7580  123.4830   61.4320 C   0  0  0  0  0  0  0  0  0  0  0  0
  129.7080  122.1670   61.2310 N   0  0  0  0  0  0  0  0  0  0  0  0
  130.8930  121.5190   61.0760 C   0  0  0  0  0  0  0  0  0  0  0  0
  130.8060  120.0360   60.8590 C   0  0  0  0  0  0  0  0  0  0  0  0
  131.7070  119.3830   60.0030 C   0  0  0  0  0  0  0  0  0  0  0  0
  131.6340  118.0080   59.7960 C   0  0  0  0  0  0  0  0  0  0  0  0
  130.6570  117.2640   60.4480 C   0  0  0  0  0  0  0  0  0  0  0  0
  129.7530  117.8850   61.3050 C   0  0  0  0  0  0  0  0  0  0  0  0
  129.8300  119.2590   61.5080 C   0  0  0  0  0  0  0  0  0  0  0  0
  132.1150  122.1960   61.0990 C   0  0  0  0  0  0  0  0  0  0  0  0
  132.1780  123.5830   61.3060 C   0  0  0  0  0  0  0  0  0  0  0  0
  133.5530  124.2610   61.3240 C   0  0  0  0  0  0  0  0  0  0  0  0
  133.6920  125.1360   62.3220 F   0  0  0  0  0  0  0  0  0  0  0  0
  134.5070  123.3410   61.4650 F   0  0  0  0  0  0  0  0  0  0  0  0
  133.7450  124.9240   60.1840 F   0  0  0  0  0  0  0  0  0  0  0  0
  130.9440  124.2710   61.4880 C   0  0  0  0  0  0  0  0  0  0  0  0
  132.5510  126.4440   61.6700 H   0  0  0  0  0  0  0  0  0  0  0  0
  131.3240  127.5880   62.0570 H   0  0  0  0  0  0  0  0  0  0  0  0
  126.9450  126.1310   62.7190 H   0  0  0  0  0  0  0  0  0  0  0  0
  126.5930  127.8424   65.2094 H   0  0  0  0  0  0  0  0  0  0  0  0
  124.9461  129.6724   65.7023 H   0  0  0  0  0  0  0  0  0  0  0  0
  123.8897  130.8905   63.8155 H   0  0  0  0  0  0  0  0  0  0  0  0
  125.9936  128.5578   60.9973 H   0  0  0  0  0  0  0  0  0  0  0  0
  132.4834  119.9672   59.4873 H   0  0  0  0  0  0  0  0  0  0  0  0
  132.3461  117.5126   59.1197 H   0  0  0  0  0  0  0  0  0  0  0  0
  130.5981  116.1777   60.2855 H   0  0  0  0  0  0  0  0  0  0  0  0
  128.9818  117.2925   61.8190 H   0  0  0  0  0  0  0  0  0  0  0  0
  129.1153  119.7460   62.1877 H   0  0  0  0  0  0  0  0  0  0  0  0
  133.0469  121.6305   60.9519 H   0  0  0  0  0  0  0  0  0  0  0  0
  1  2  1  0
  2  3  2  0
  3  4  1  0
  4  5  2  0
  4  6  1  0
  6  7  1  0
  7  8  2  0
  8  9  1  0
  9 10  2  0
 10 11  1  0
 11 12  2  0
  3 13  1  0
 13 14  1  0
 14 15  2  0
 15 16  1  0
 16 17  1  0
 17 18  2  0
 18 19  1  0
 19 20  2  0
 20 21  1  0
 21 22  2  0
 16 23  2  0
 23 24  1  0
 24 25  1  0
 25 26  1  0
 25 27  1  0
 25 28  1  0
 24 29  2  0
 29  2  1  0
 12  7  1  0
 29 14  1  0
 22 17  1  0
  1 30  1  0
  1 31  1  0
  6 32  1  0
  8 33  1  0
  9 34  1  0
 10 35  1  0
 12 36  1  0
 18 37  1  0
 19 38  1  0
 20 39  1  0
 21 40  1  0
 22 41  1  0
 23 42  1  0
M  END
>  <Binding energies>  (1) 
[-6.89]

>  <Ligand effiencies>  (1) 
[-0.2153125]

>  <Interactions>  (1) 
["V-B:GLU:543:CD:9880, H-B:GLU:543:OE2:9882, H-B:GLU:543:OE1:9881, V-B:TYR:539:CE2:9848, V-B:TYR:539:CD2:9846, V-B:ALA:541:CB:9864, V-A:GLY:453:C:4042, V-A:SER:385:CB:3409, V-A:PRO:482:CB:4326, V-A:LEU:475:CD1:4258, V-A:ASP:366:CA:3210, V-A:ASP:366:CG:3213, V-A:LEU:475:CD2:4259, V-A:ILE:369:CD1:3239, V-A:GLY:454:CA:4049, V-A:LEU:475:CG:4257, V-A:ASP:366:CB:3212, V-A:PRO:482:CG:4327, V-B:ASP:366:CG:8185, V-A:GLU:543:CD:4908, H-A:GLU:543:OE1:4909, H-A:GLU:543:OE2:4910, V-A:ARG:545:CZ:4926, H-A:ASP:366:OD1:3214, V-B:TYR:539:CB:9843, V-B:ARG:545:CZ:9898, V-A:ILE:369:CG1:3238, H-A:ASP:366:OD2:3215, V-A:GLY:453:CA:4044"]

$$$$
4cg_Grossjean_2025
     RDKit          3D

 46 49  0  0  0  0  0  0  0  0999 V2000
  131.0510  126.5880   62.4410 N   0  0  0  0  0  0  0  0  0  0  0  0
  130.1740  125.5680   62.1770 C   0  0  0  0  0  0  0  0  0  0  0  0
  128.7820  125.7340   62.1740 C   0  0  0  0  0  0  0  0  0  0  0  0
  128.0090  126.9570   62.3880 C   0  0  0  0  0  0  0  0  0  0  0  0
  126.8240  127.0350   62.0540 O   0  0  0  0  0  0  0  0  0  0  0  0
  128.6800  127.9950   62.9300 N   0  0  0  0  0  0  0  0  0  0  0  0
  128.1060  129.3000   63.2510 C   0  0  0  0  0  0  0  0  0  0  0  0
  126.8540  129.2160   64.1160 C   0  0  0  0  0  0  0  0  0  0  0  0
  126.9550  128.8000   65.4460 C   0  0  0  0  0  0  0  0  0  0  0  0
  125.8180  128.7510   66.2490 C   0  0  0  0  0  0  0  0  0  0  0  0
  124.5850  129.1280   65.7210 C   0  0  0  0  0  0  0  0  0  0  0  0
  124.4800  129.5600   64.4000 C   0  0  0  0  0  0  0  0  0  0  0  0
  125.6170  129.6100   63.5980 C   0  0  0  0  0  0  0  0  0  0  0  0
  127.9560  124.2300   61.7770 S   0  0  0  0  0  0  0  0  0  0  0  0
  129.4790  123.3830   61.6400 C   0  0  0  0  0  0  0  0  0  0  0  0
  129.5280  122.0890   61.3340 N   0  0  0  0  0  0  0  0  0  0  0  0
  130.7570  121.5160   61.2440 C   0  0  0  0  0  0  0  0  0  0  0  0
  130.7790  120.0540   60.8990 C   0  0  0  0  0  0  0  0  0  0  0  0
  129.8500  119.1660   61.4650 C   0  0  0  0  0  0  0  0  0  0  0  0
  129.8660  117.8110   61.1500 C   0  0  0  0  0  0  0  0  0  0  0  0
  130.8180  117.3200   60.2600 C   0  0  0  0  0  0  0  0  0  0  0  0
  131.7510  118.1770   59.6870 C   0  0  0  0  0  0  0  0  0  0  0  0
  131.7310  119.5320   60.0060 C   0  0  0  0  0  0  0  0  0  0  0  0
  131.9290  122.2430   61.4810 C   0  0  0  0  0  0  0  0  0  0  0  0
  131.8890  123.6090   61.8050 C   0  0  0  0  0  0  0  0  0  0  0  0
  133.2110  124.3450   62.0530 C   0  0  0  0  0  0  0  0  0  0  0  0
  134.2830  123.5780   61.8460 F   0  0  0  0  0  0  0  0  0  0  0  0
  133.3040  125.3920   61.2330 F   0  0  0  0  0  0  0  0  0  0  0  0
  133.2610  124.7690   63.3140 F   0  0  0  0  0  0  0  0  0  0  0  0
  130.6050  124.2220   61.8870 C   0  0  0  0  0  0  0  0  0  0  0  0
  131.5760  127.0460   61.7080 H   0  0  0  0  0  0  0  0  0  0  0  0
  131.1970  126.9250   63.3820 H   0  0  0  0  0  0  0  0  0  0  0  0
  129.6260  127.8360   63.2450 H   0  0  0  0  0  0  0  0  0  0  0  0
  128.8622  129.8904   63.7891 H   0  0  0  0  0  0  0  0  0  0  0  0
  127.8119  129.7675   62.2997 H   0  0  0  0  0  0  0  0  0  0  0  0
  127.9327  128.5111   65.8590 H   0  0  0  0  0  0  0  0  0  0  0  0
  125.8931  128.4165   67.2942 H   0  0  0  0  0  0  0  0  0  0  0  0
  123.6856  129.0843   66.3528 H   0  0  0  0  0  0  0  0  0  0  0  0
  123.5032  129.8601   63.9929 H   0  0  0  0  0  0  0  0  0  0  0  0
  125.5419  129.9593   62.5576 H   0  0  0  0  0  0  0  0  0  0  0  0
  129.0967  119.5483   62.1695 H   0  0  0  0  0  0  0  0  0  0  0  0
  129.1297  117.1302   61.6021 H   0  0  0  0  0  0  0  0  0  0  0  0
  130.8319  116.2491   60.0091 H   0  0  0  0  0  0  0  0  0  0  0  0
  132.5018  117.7860   58.9846 H   0  0  0  0  0  0  0  0  0  0  0  0
  132.4726  120.2055   59.5516 H   0  0  0  0  0  0  0  0  0  0  0  0
  132.9017  121.7341   61.4121 H   0  0  0  0  0  0  0  0  0  0  0  0
  1  2  1  0
  2  3  2  0
  3  4  1  0
  4  5  2  0
  4  6  1  0
  6  7  1  0
  7  8  1  0
  8  9  2  0
  9 10  1  0
 10 11  2  0
 11 12  1  0
 12 13  2  0
  3 14  1  0
 14 15  1  0
 15 16  2  0
 16 17  1  0
 17 18  1  0
 18 19  2  0
 19 20  1  0
 20 21  2  0
 21 22  1  0
 22 23  2  0
 17 24  2  0
 24 25  1  0
 25 26  1  0
 26 27  1  0
 26 28  1  0
 26 29  1  0
 25 30  2  0
 30  2  1  0
 13  8  1  0
 30 15  1  0
 23 18  1  0
  1 31  1  0
  1 32  1  0
  6 33  1  0
  7 34  1  0
  7 35  1  0
  9 36  1  0
 10 37  1  0
 11 38  1  0
 12 39  1  0
 13 40  1  0
 19 41  1  0
 20 42  1  0
 21 43  1  0
 22 44  1  0
 23 45  1  0
 24 46  1  0
M  END
>  <Binding energies>  (1) 
[-7.72]

>  <Ligand effiencies>  (1) 
[-0.23393939393939392]

>  <Interactions>  (1) 
["V-B:GLU:543:CD:9880, H-B:GLU:543:OE2:9882, V-B:TYR:539:CE2:9848, V-B:TYR:539:CD2:9846, V-B:ALA:541:CB:9864, V-A:GLY:453:C:4042, V-A:SER:385:CB:3409, V-A:PRO:482:CB:4326, V-A:LEU:475:CD1:4258, V-A:ASP:366:CG:3213, V-A:LEU:475:CD2:4259, V-A:ILE:369:CD1:3239, V-A:GLY:454:CA:4049, V-A:LEU:475:CG:4257, V-A:PRO:482:CG:4327, H-B:ARG:545:NH2:9900, V-A:GLU:543:CD:4908, H-A:GLU:543:OE1:4909, H-A:GLU:543:OE2:4910, V-A:ARG:545:CZ:4926, H-A:ASP:366:OD1:3214, V-A:GLU:543:CG:4907, V-B:TYR:539:CB:9843, V-B:ARG:545:CZ:9898, V-B:TYR:484:CZ:9319, V-B:HIS:456:CE1:9042, V-B:ARG:545:CD:9895, V-B:ARG:545:CG:9894, V-A:GLY:453:CA:4044"]

$$$$
4ch_Grossjean_2025
     RDKit          3D

 58 61  0  0  0  0  0  0  0  0999 V2000
  124.0260  132.2510   62.4540 C   0  0  0  0  0  0  0  0  0  0  0  0
  123.8100  131.0350   63.1630 O   0  0  0  0  0  0  0  0  0  0  0  0
  124.8960  130.2610   63.5280 C   0  0  0  0  0  0  0  0  0  0  0  0
  126.1090  130.2280   62.8210 C   0  0  0  0  0  0  0  0  0  0  0  0
  127.1650  129.4230   63.2490 C   0  0  0  0  0  0  0  0  0  0  0  0
  128.4640  129.3800   62.4530 C   0  0  0  0  0  0  0  0  0  0  0  0
  128.9870  128.0310   62.2290 N   0  0  0  0  0  0  0  0  0  0  0  0
  128.3190  127.0200   61.6350 C   0  0  0  0  0  0  0  0  0  0  0  0
  127.1770  127.1520   61.1870 O   0  0  0  0  0  0  0  0  0  0  0  0
  129.0440  125.7540   61.5170 C   0  0  0  0  0  0  0  0  0  0  0  0
  128.1610  124.2520   61.2640 S   0  0  0  0  0  0  0  0  0  0  0  0
  129.6480  123.3360   61.2110 C   0  0  0  0  0  0  0  0  0  0  0  0
  129.6460  122.0180   61.0350 N   0  0  0  0  0  0  0  0  0  0  0  0
  130.8510  121.3920   61.0020 C   0  0  0  0  0  0  0  0  0  0  0  0
  130.8140  119.9030   60.8090 C   0  0  0  0  0  0  0  0  0  0  0  0
  129.8510  119.1170   61.4630 C   0  0  0  0  0  0  0  0  0  0  0  0
  129.8110  117.7360   61.2890 C   0  0  0  0  0  0  0  0  0  0  0  0
  130.7380  117.1190   60.4560 C   0  0  0  0  0  0  0  0  0  0  0  0
  131.7050  117.8730   59.7990 C   0  0  0  0  0  0  0  0  0  0  0  0
  131.7420  119.2530   59.9780 C   0  0  0  0  0  0  0  0  0  0  0  0
  132.0510  122.0920   61.1630 C   0  0  0  0  0  0  0  0  0  0  0  0
  132.0660  123.4840   61.3510 C   0  0  0  0  0  0  0  0  0  0  0  0
  133.4160  124.1880   61.5200 C   0  0  0  0  0  0  0  0  0  0  0  0
  133.7270  124.9810   60.4920 F   0  0  0  0  0  0  0  0  0  0  0  0
  133.3950  124.9460   62.6160 F   0  0  0  0  0  0  0  0  0  0  0  0
  134.3870  123.2820   61.6320 F   0  0  0  0  0  0  0  0  0  0  0  0
  130.8080  124.1510   61.3740 C   0  0  0  0  0  0  0  0  0  0  0  0
  130.4300  125.5340   61.5350 C   0  0  0  0  0  0  0  0  0  0  0  0
  131.3470  126.5410   61.7020 N   0  0  0  0  0  0  0  0  0  0  0  0
  127.0080  128.6270   64.3840 C   0  0  0  0  0  0  0  0  0  0  0  0
  125.8050  128.6390   65.1100 C   0  0  0  0  0  0  0  0  0  0  0  0
  125.5810  127.8780   66.2430 O   0  0  0  0  0  0  0  0  0  0  0  0
  126.6580  127.6240   67.1390 C   0  0  0  0  0  0  0  0  0  0  0  0
  124.7590  129.4650   64.6740 C   0  0  0  0  0  0  0  0  0  0  0  0
  123.5730  129.4750   65.3660 O   0  0  0  0  0  0  0  0  0  0  0  0
  123.7010  129.8480   66.7310 C   0  0  0  0  0  0  0  0  0  0  0  0
  124.1719  133.0725   63.1709 H   0  0  0  0  0  0  0  0  0  0  0  0
  124.9208  132.1528   61.8217 H   0  0  0  0  0  0  0  0  0  0  0  0
  123.1522  132.4670   61.8217 H   0  0  0  0  0  0  0  0  0  0  0  0
  126.2280  130.8449   61.9181 H   0  0  0  0  0  0  0  0  0  0  0  0
  128.2838  129.8470   61.4735 H   0  0  0  0  0  0  0  0  0  0  0  0
  129.2174  129.9159   63.0490 H   0  0  0  0  0  0  0  0  0  0  0  0
  129.8970  127.8370   62.6190 H   0  0  0  0  0  0  0  0  0  0  0  0
  129.1162  119.6004   62.1236 H   0  0  0  0  0  0  0  0  0  0  0  0
  129.0494  117.1357   61.8082 H   0  0  0  0  0  0  0  0  0  0  0  0
  130.7064  116.0284   60.3158 H   0  0  0  0  0  0  0  0  0  0  0  0
  132.4368  117.3812   59.1413 H   0  0  0  0  0  0  0  0  0  0  0  0
  132.5110  119.8448   59.4599 H   0  0  0  0  0  0  0  0  0  0  0  0
  133.0029  121.5411   61.1420 H   0  0  0  0  0  0  0  0  0  0  0  0
  131.2280  127.2610   62.4010 H   0  0  0  0  0  0  0  0  0  0  0  0
  132.1790  126.5930   61.1320 H   0  0  0  0  0  0  0  0  0  0  0  0
  127.8358  127.9824   64.7145 H   0  0  0  0  0  0  0  0  0  0  0  0
  126.3001  127.7084   68.1757 H   0  0  0  0  0  0  0  0  0  0  0  0
  127.0468  126.6095   66.9667 H   0  0  0  0  0  0  0  0  0  0  0  0
  127.4591  128.3578   66.9667 H   0  0  0  0  0  0  0  0  0  0  0  0
  123.4106  129.0019   67.3711 H   0  0  0  0  0  0  0  0  0  0  0  0
  124.7452  130.1239   66.9393 H   0  0  0  0  0  0  0  0  0  0  0  0
  123.0462  130.7070   66.9393 H   0  0  0  0  0  0  0  0  0  0  0  0
  1  2  1  0
  2  3  1  0
  3  4  2  0
  4  5  1  0
  5  6  1  0
  6  7  1  0
  7  8  1  0
  8  9  2  0
  8 10  1  0
 10 11  1  0
 11 12  1  0
 12 13  2  0
 13 14  1  0
 14 15  1  0
 15 16  2  0
 16 17  1  0
 17 18  2  0
 18 19  1  0
 19 20  2  0
 14 21  2  0
 21 22  1  0
 22 23  1  0
 23 24  1  0
 23 25  1  0
 23 26  1  0
 22 27  2  0
 27 28  1  0
 28 29  1  0
  5 30  2  0
 30 31  1  0
 31 32  1  0
 32 33  1  0
 31 34  2  0
 34 35  1  0
 35 36  1  0
 34  3  1  0
 28 10  2  0
 27 12  1  0
 20 15  1  0
  1 37  1  0
  1 38  1  0
  1 39  1  0
  4 40  1  0
  6 41  1  0
  6 42  1  0
  7 43  1  0
 16 44  1  0
 17 45  1  0
 18 46  1  0
 19 47  1  0
 20 48  1  0
 21 49  1  0
 29 50  1  0
 29 51  1  0
 30 52  1  0
 33 53  1  0
 33 54  1  0
 33 55  1  0
 36 56  1  0
 36 57  1  0
 36 58  1  0
M  END
>  <Binding energies>  (1) 
[-7.82]

>  <Ligand effiencies>  (1) 
[-0.20051282051282052]

>  <Interactions>  (1) 
["V-B:GLU:543:CD:9880, V-B:TYR:539:CE2:9848, V-B:TYR:539:CD2:9846, V-B:ALA:541:CB:9864, V-A:GLY:453:C:4042, V-A:SER:385:CB:3409, V-A:PRO:482:CB:4326, V-A:LEU:475:CD1:4258, V-A:ASP:366:CA:3210, V-A:ASP:366:CG:3213, V-A:LEU:475:CD2:4259, V-A:ILE:369:CD1:3239, V-A:GLY:454:CA:4049, V-A:LEU:475:CG:4257, V-A:ASP:366:CB:3212, V-A:PRO:482:CG:4327, V-A:GLU:543:CD:4908, H-A:GLU:543:OE1:4909, H-A:GLU:543:OE2:4910, V-A:ARG:545:CZ:4926, H-A:ASP:366:OD1:3214, V-B:LEU:475:CD2:9231, V-B:GLU:543:CB:9878, V-B:ARG:545:CZ:9898, V-B:TYR:484:CZ:9319, V-B:HIS:456:CE1:9042, V-B:ILE:369:CD1:8211, V-B:ARG:545:CD:9895, V-B:ARG:545:CG:9894, V-B:GLY:454:CA:9021, H-B:TYR:484:OH:9320, H-A:ASP:366:OD2:3215, V-A:GLY:453:CA:4044, H-B:GLY:454:N:9022, H-B:ARG:545:NE:9896, V-B:GLY:453:C:9014, H-B:ARG:545:NH1:9899, V-B:GLY:453:CA:9016, V-B:TYR:484:CE1:9317"]

$$$$
4ci_Grossjean_2025
     RDKit          3D

 39 42  0  0  0  0  0  0  0  0999 V2000
  131.3340  127.3230   60.9880 N   0  0  0  0  0  0  0  0  0  0  0  0
  130.9820  126.0350   60.6750 C   0  0  0  0  0  0  0  0  0  0  0  0
  131.5930  124.9090   61.2520 C   0  0  0  0  0  0  0  0  0  0  0  0
  132.6600  124.8630   62.2550 C   0  0  0  0  0  0  0  0  0  0  0  0
  133.8110  124.5590   61.9350 O   0  0  0  0  0  0  0  0  0  0  0  0
  132.2810  125.1590   63.5240 N   0  0  0  0  0  0  0  0  0  0  0  0
  133.0800  125.1870   64.6600 C   0  0  0  0  0  0  0  0  0  0  0  0
  132.5780  125.4200   65.9390 C   0  0  0  0  0  0  0  0  0  0  0  0
  133.6730  125.3680   66.7700 C   0  0  0  0  0  0  0  0  0  0  0  0
  134.7790  125.1160   66.0280 O   0  0  0  0  0  0  0  0  0  0  0  0
  134.3900  125.0040   64.6920 N   0  0  0  0  0  0  0  0  0  0  0  0
  130.8900  123.4170   60.6320 S   0  0  0  0  0  0  0  0  0  0  0  0
  129.7940  124.3080   59.6020 C   0  0  0  0  0  0  0  0  0  0  0  0
  128.9230  123.6860   58.8100 N   0  0  0  0  0  0  0  0  0  0  0  0
  128.1090  124.4620   58.0480 C   0  0  0  0  0  0  0  0  0  0  0  0
  127.1420  123.7310   57.1620 C   0  0  0  0  0  0  0  0  0  0  0  0
  127.5340  123.2680   55.8950 C   0  0  0  0  0  0  0  0  0  0  0  0
  126.6420  122.5890   55.0690 C   0  0  0  0  0  0  0  0  0  0  0  0
  125.3390  122.3640   55.4990 C   0  0  0  0  0  0  0  0  0  0  0  0
  124.9220  122.8150   56.7460 C   0  0  0  0  0  0  0  0  0  0  0  0
  125.8170  123.4950   57.5690 C   0  0  0  0  0  0  0  0  0  0  0  0
  128.1870  125.8580   58.0740 C   0  0  0  0  0  0  0  0  0  0  0  0
  129.1010  126.5250   58.9060 C   0  0  0  0  0  0  0  0  0  0  0  0
  129.1310  128.0580   58.8830 C   0  0  0  0  0  0  0  0  0  0  0  0
  130.3280  128.5540   58.5650 F   0  0  0  0  0  0  0  0  0  0  0  0
  128.2590  128.5100   57.9820 F   0  0  0  0  0  0  0  0  0  0  0  0
  128.8070  128.5330   60.0860 F   0  0  0  0  0  0  0  0  0  0  0  0
  129.9500  125.7200   59.7180 C   0  0  0  0  0  0  0  0  0  0  0  0
  131.0700  127.7530   61.8630 H   0  0  0  0  0  0  0  0  0  0  0  0
  131.8800  127.8870   60.3500 H   0  0  0  0  0  0  0  0  0  0  0  0
  131.3090  125.3850   63.6720 H   0  0  0  0  0  0  0  0  0  0  0  0
  131.5316  125.6055   66.2229 H   0  0  0  0  0  0  0  0  0  0  0  0
  133.6541  125.5083   67.8609 H   0  0  0  0  0  0  0  0  0  0  0  0
  128.5632  123.4449   55.5495 H   0  0  0  0  0  0  0  0  0  0  0  0
  126.9668  122.2321   54.0805 H   0  0  0  0  0  0  0  0  0  0  0  0
  124.6339  121.8258   54.8485 H   0  0  0  0  0  0  0  0  0  0  0  0
  123.8899  122.6357   57.0815 H   0  0  0  0  0  0  0  0  0  0  0  0
  125.4816  123.8532   58.5535 H   0  0  0  0  0  0  0  0  0  0  0  0
  127.5180  126.4464   57.4289 H   0  0  0  0  0  0  0  0  0  0  0  0
  1  2  1  0
  2  3  2  0
  3  4  1  0
  4  5  2  0
  4  6  1  0
  6  7  1  0
  7  8  1  0
  8  9  2  0
  9 10  1  0
 10 11  1  0
  3 12  1  0
 12 13  1  0
 13 14  2  0
 14 15  1  0
 15 16  1  0
 16 17  2  0
 17 18  1  0
 18 19  2  0
 19 20  1  0
 20 21  2  0
 15 22  2  0
 22 23  1  0
 23 24  1  0
 24 25  1  0
 24 26  1  0
 24 27  1  0
 23 28  2  0
 28  2  1  0
 11  7  2  0
 28 13  1  0
 21 16  1  0
  1 29  1  0
  1 30  1  0
  6 31  1  0
  8 32  1  0
  9 33  1  0
 17 34  1  0
 18 35  1  0
 19 36  1  0
 20 37  1  0
 21 38  1  0
 22 39  1  0
M  END
>  <Binding energies>  (1) 
[-7.84]

>  <Ligand effiencies>  (1) 
[-0.2529032258064516]

>  <Interactions>  (1) 
["V-B:TYR:539:CD1:9845, V-B:ILE:538:CD1:9837, V-B:PRO:540:CB:9857, V-B:PRO:540:CD:9859, V-B:LEU:363:CD1:8161, V-B:ILE:538:CG2:9835, V-B:TYR:539:CE2:9848, V-B:ILE:538:CA:9832, V-B:MET:535:CE:9807, V-B:TYR:539:CZ:9849, V-B:TYR:539:CE1:9847, V-B:PRO:540:N:9856, V-B:TYR:531:CE2:9765, H-A:TYR:484:OH:4348, V-A:ASP:366:CG:3213, V-B:ILE:538:C:9830, V-B:ILE:538:CB:9834, H-A:GLY:454:N:4050, H-A:GLU:543:OE1:4909, H-A:ARG:545:NH1:4927, H-A:GLU:543:OE2:4910, V-A:ARG:545:CZ:4926, H-A:ASP:366:OD1:3214, V-A:HIS:456:CE1:4070, V-A:ILE:455:C:4052, V-A:TYR:484:CE2:4346, H-A:ARG:545:NE:4924, V-A:TYR:484:CZ:4347, V-A:ARG:545:CG:4922, V-A:ARG:545:CD:4923, V-B:ILE:538:CG1:9836, H-A:ASP:366:OD2:3215, H-A:ILE:455:N:4055"]

$$$$
4cj_Grossjean_2025
     RDKit          3D

 39 42  0  0  0  0  0  0  0  0999 V2000
  131.4420  126.6130   61.9530 N   0  0  0  0  0  0  0  0  0  0  0  0
  130.4920  125.6300   61.8400 C   0  0  0  0  0  0  0  0  0  0  0  0
  129.1130  125.8780   61.9400 C   0  0  0  0  0  0  0  0  0  0  0  0
  128.4280  127.1540   62.1640 C   0  0  0  0  0  0  0  0  0  0  0  0
  129.0090  128.2240   61.9690 O   0  0  0  0  0  0  0  0  0  0  0  0
  127.1470  127.0580   62.5990 N   0  0  0  0  0  0  0  0  0  0  0  0
  126.2830  128.1070   62.8840 C   0  0  0  0  0  0  0  0  0  0  0  0
  125.5560  128.8060   62.0390 N   0  0  0  0  0  0  0  0  0  0  0  0
  124.8460  129.7290   62.6590 C   0  0  0  0  0  0  0  0  0  0  0  0
  124.9900  129.7910   64.0420 C   0  0  0  0  0  0  0  0  0  0  0  0
  126.1190  128.5690   64.5480 S   0  0  0  0  0  0  0  0  0  0  0  0
  128.1830  124.3960   61.7340 S   0  0  0  0  0  0  0  0  0  0  0  0
  129.6420  123.4580   61.5180 C   0  0  0  0  0  0  0  0  0  0  0  0
  129.5980  122.1470   61.2980 N   0  0  0  0  0  0  0  0  0  0  0  0
  130.7820  121.5030   61.1350 C   0  0  0  0  0  0  0  0  0  0  0  0
  130.6960  120.0260   60.8750 C   0  0  0  0  0  0  0  0  0  0  0  0
  129.7110  119.2440   61.4980 C   0  0  0  0  0  0  0  0  0  0  0  0
  129.6290  117.8730   61.2660 C   0  0  0  0  0  0  0  0  0  0  0  0
  130.5380  117.2630   60.4060 C   0  0  0  0  0  0  0  0  0  0  0  0
  131.5240  118.0140   59.7780 C   0  0  0  0  0  0  0  0  0  0  0  0
  131.6010  119.3850   60.0120 C   0  0  0  0  0  0  0  0  0  0  0  0
  132.0060  122.1760   61.2180 C   0  0  0  0  0  0  0  0  0  0  0  0
  132.0650  123.5590   61.4520 C   0  0  0  0  0  0  0  0  0  0  0  0
  133.4390  124.2330   61.5280 C   0  0  0  0  0  0  0  0  0  0  0  0
  133.5740  125.0300   62.5900 F   0  0  0  0  0  0  0  0  0  0  0  0
  134.3920  123.3040   61.6020 F   0  0  0  0  0  0  0  0  0  0  0  0
  133.6360  124.9800   60.4420 F   0  0  0  0  0  0  0  0  0  0  0  0
  130.8270  124.2470   61.6050 C   0  0  0  0  0  0  0  0  0  0  0  0
  131.1970  127.5750   62.1460 H   0  0  0  0  0  0  0  0  0  0  0  0
  132.4260  126.4060   61.8510 H   0  0  0  0  0  0  0  0  0  0  0  0
  126.7740  126.1310   62.7420 H   0  0  0  0  0  0  0  0  0  0  0  0
  124.1776  130.4114   62.1135 H   0  0  0  0  0  0  0  0  0  0  0  0
  124.4733  130.4985   64.7072 H   0  0  0  0  0  0  0  0  0  0  0  0
  128.9923  119.7214   62.1803 H   0  0  0  0  0  0  0  0  0  0  0  0
  128.8493  117.2748   61.7602 H   0  0  0  0  0  0  0  0  0  0  0  0
  130.4753  116.1802   60.2226 H   0  0  0  0  0  0  0  0  0  0  0  0
  132.2404  117.5282   59.0992 H   0  0  0  0  0  0  0  0  0  0  0  0
  132.3833  119.9757   59.5129 H   0  0  0  0  0  0  0  0  0  0  0  0
  132.9413  121.6097   61.0974 H   0  0  0  0  0  0  0  0  0  0  0  0
  1  2  1  0
  2  3  2  0
  3  4  1  0
  4  5  2  0
  4  6  1  0
  6  7  1  0
  7  8  2  0
  8  9  1  0
  9 10  2  0
 10 11  1  0
  3 12  1  0
 12 13  1  0
 13 14  2  0
 14 15  1  0
 15 16  1  0
 16 17  2  0
 17 18  1  0
 18 19  2  0
 19 20  1  0
 20 21  2  0
 15 22  2  0
 22 23  1  0
 23 24  1  0
 24 25  1  0
 24 26  1  0
 24 27  1  0
 23 28  2  0
 28  2  1  0
 11  7  1  0
 28 13  1  0
 21 16  1  0
  1 29  1  0
  1 30  1  0
  6 31  1  0
  9 32  1  0
 10 33  1  0
 17 34  1  0
 18 35  1  0
 19 36  1  0
 20 37  1  0
 21 38  1  0
 22 39  1  0
M  END
>  <Binding energies>  (1) 
[-6.68]

>  <Ligand effiencies>  (1) 
[-0.21548387096774194]

>  <Interactions>  (1) 
["V-B:GLU:543:CD:9880, H-B:GLU:543:OE2:9882, V-B:TYR:539:C:9839, H-B:GLU:543:OE1:9881, V-B:TYR:539:CE2:9848, V-B:TYR:539:CD2:9846, V-B:ALA:541:CB:9864, V-A:GLY:453:C:4042, V-A:SER:385:CB:3409, V-A:PRO:482:CB:4326, V-A:LEU:475:CD1:4258, V-A:ASP:366:CA:3210, V-A:ASP:366:CG:3213, V-B:TYR:539:CG:9844, V-A:LEU:475:CD2:4259, V-A:ILE:369:CD1:3239, V-A:GLY:454:CA:4049, V-A:ASP:366:CB:3212, V-A:PRO:482:CG:4327, H-B:ARG:545:NH2:9900, V-A:GLU:543:CD:4908, H-A:GLU:543:OE1:4909, H-A:GLU:543:OE2:4910, V-A:ARG:545:CZ:4926, H-A:ASP:366:OD1:3214, V-B:TYR:539:CB:9843, V-B:ARG:545:CZ:9898, H-A:ASP:366:OD2:3215, V-A:GLY:453:CA:4044"]

$$$$
4ck_Grossjean_2025
     RDKit          3D

 57 59  0  0  0  0  0  0  0  0999 V2000
  128.4590  130.1900   54.5210 C   0  0  0  0  0  0  0  0  0  0  0  0
  128.4680  131.3620   53.7200 O   0  0  0  0  0  0  0  0  0  0  0  0
  129.0320  132.4890   54.3760 C   0  0  0  0  0  0  0  0  0  0  0  0
  130.5580  132.3350   54.4130 C   0  0  0  0  0  0  0  0  0  0  0  0
  131.0570  132.9380   55.5990 O   0  0  0  0  0  0  0  0  0  0  0  0
  132.0340  132.1520   56.2680 C   0  0  0  0  0  0  0  0  0  0  0  0
  131.3520  131.3360   57.3730 C   0  0  0  0  0  0  0  0  0  0  0  0
  132.3510  130.6620   58.1260 O   0  0  0  0  0  0  0  0  0  0  0  0
  132.8280  131.4030   59.2420 C   0  0  0  0  0  0  0  0  0  0  0  0
  132.2000  130.8540   60.5320 C   0  0  0  0  0  0  0  0  0  0  0  0
  131.3620  129.6810   60.2800 N   0  0  0  0  0  0  0  0  0  0  0  0
  130.1030  129.4990   60.7290 C   0  0  0  0  0  0  0  0  0  0  0  0
  129.5050  130.3450   61.3960 O   0  0  0  0  0  0  0  0  0  0  0  0
  129.4730  128.2290   60.3670 C   0  0  0  0  0  0  0  0  0  0  0  0
  128.4700  128.1200   58.9220 S   0  0  0  0  0  0  0  0  0  0  0  0
  128.2000  126.4140   59.1860 C   0  0  0  0  0  0  0  0  0  0  0  0
  127.4530  125.6920   58.3550 N   0  0  0  0  0  0  0  0  0  0  0  0
  127.2980  124.3730   58.6430 C   0  0  0  0  0  0  0  0  0  0  0  0
  126.4640  123.5830   57.6760 C   0  0  0  0  0  0  0  0  0  0  0  0
  125.1170  123.2990   57.9530 C   0  0  0  0  0  0  0  0  0  0  0  0
  124.3380  122.5640   57.0620 C   0  0  0  0  0  0  0  0  0  0  0  0
  124.8980  122.1030   55.8760 C   0  0  0  0  0  0  0  0  0  0  0  0
  126.2290  122.3740   55.5730 C   0  0  0  0  0  0  0  0  0  0  0  0
  127.0030  123.1100   56.4670 C   0  0  0  0  0  0  0  0  0  0  0  0
  127.9030  123.7840   59.7580 C   0  0  0  0  0  0  0  0  0  0  0  0
  128.6930  124.5370   60.6420 C   0  0  0  0  0  0  0  0  0  0  0  0
  129.3230  123.8280   61.8470 C   0  0  0  0  0  0  0  0  0  0  0  0
  130.6550  123.7860   61.7930 F   0  0  0  0  0  0  0  0  0  0  0  0
  128.9890  124.4650   62.9690 F   0  0  0  0  0  0  0  0  0  0  0  0
  128.8860  122.5700   61.9080 F   0  0  0  0  0  0  0  0  0  0  0  0
  128.8590  125.9210   60.3510 C   0  0  0  0  0  0  0  0  0  0  0  0
  129.5870  126.9830   61.0030 C   0  0  0  0  0  0  0  0  0  0  0  0
  130.3210  126.7890   62.1450 N   0  0  0  0  0  0  0  0  0  0  0  0
  128.4612  130.4724   55.5841 H   0  0  0  0  0  0  0  0  0  0  0  0
  127.5563  129.6016   54.2998 H   0  0  0  0  0  0  0  0  0  0  0  0
  129.3525  129.5878   54.2998 H   0  0  0  0  0  0  0  0  0  0  0  0
  128.7672  133.4052   53.8279 H   0  0  0  0  0  0  0  0  0  0  0  0
  128.6407  132.5555   55.4019 H   0  0  0  0  0  0  0  0  0  0  0  0
  130.8209  131.2669   54.4040 H   0  0  0  0  0  0  0  0  0  0  0  0
  131.0015  132.8243   53.5333 H   0  0  0  0  0  0  0  0  0  0  0  0
  132.5134  131.4707   55.5497 H   0  0  0  0  0  0  0  0  0  0  0  0
  132.7978  132.8084   56.7103 H   0  0  0  0  0  0  0  0  0  0  0  0
  130.7830  132.0085   58.0318 H   0  0  0  0  0  0  0  0  0  0  0  0
  130.6626  130.6043   56.9265 H   0  0  0  0  0  0  0  0  0  0  0  0
  133.9227  131.3125   59.3006 H   0  0  0  0  0  0  0  0  0  0  0  0
  132.5516  132.4610   59.1229 H   0  0  0  0  0  0  0  0  0  0  0  0
  133.0051  130.5722   61.2265 H   0  0  0  0  0  0  0  0  0  0  0  0
  131.5615  131.6410   60.9597 H   0  0  0  0  0  0  0  0  0  0  0  0
  131.7530  128.9820   59.6650 H   0  0  0  0  0  0  0  0  0  0  0  0
  124.6692  123.6631   58.8895 H   0  0  0  0  0  0  0  0  0  0  0  0
  123.2848  122.3494   57.2958 H   0  0  0  0  0  0  0  0  0  0  0  0
  124.2851  121.5203   55.1726 H   0  0  0  0  0  0  0  0  0  0  0  0
  126.6674  122.0089   54.6325 H   0  0  0  0  0  0  0  0  0  0  0  0
  128.0538  123.3247   56.2228 H   0  0  0  0  0  0  0  0  0  0  0  0
  127.7572  122.7101   59.9462 H   0  0  0  0  0  0  0  0  0  0  0  0
  130.2800  125.9260   62.6690 H   0  0  0  0  0  0  0  0  0  0  0  0
  130.9370  127.5070   62.5020 H   0  0  0  0  0  0  0  0  0  0  0  0
  1  2  1  0
  2  3  1  0
  3  4  1  0
  4  5  1  0
  5  6  1  0
  6  7  1  0
  7  8  1  0
  8  9  1  0
  9 10  1  0
 10 11  1  0
 11 12  1  0
 12 13  2  0
 12 14  1  0
 14 15  1  0
 15 16  1  0
 16 17  2  0
 17 18  1  0
 18 19  1  0
 19 20  2  0
 20 21  1  0
 21 22  2  0
 22 23  1  0
 23 24  2  0
 18 25  2  0
 25 26  1  0
 26 27  1  0
 27 28  1  0
 27 29  1  0
 27 30  1  0
 26 31  2  0
 31 32  1  0
 32 33  1  0
 32 14  2  0
 31 16  1  0
 24 19  1  0
  1 34  1  0
  1 35  1  0
  1 36  1  0
  3 37  1  0
  3 38  1  0
  4 39  1  0
  4 40  1  0
  6 41  1  0
  6 42  1  0
  7 43  1  0
  7 44  1  0
  9 45  1  0
  9 46  1  0
 10 47  1  0
 10 48  1  0
 11 49  1  0
 20 50  1  0
 21 51  1  0
 22 52  1  0
 23 53  1  0
 24 54  1  0
 25 55  1  0
 33 56  1  0
 33 57  1  0
M  END
>  <Binding energies>  (1) 
[-6.1]

>  <Ligand effiencies>  (1) 
[-0.16944444444444443]

>  <Interactions>  (1) 
["V-B:ILE:538:CD1:9837, V-B:PRO:540:CB:9857, V-B:PRO:540:CD:9859, V-B:LEU:363:CD1:8161, V-B:GLU:543:CD:9880, V-B:PRO:540:CA:9855, V-B:ILE:538:CG2:9835, V-B:ILE:538:CA:9832, V-B:MET:535:CE:9807, V-B:ALA:541:CB:9864, V-B:PRO:540:N:9856, V-A:ASP:366:CG:3213, H-A:TYR:539:N:4870, V-A:PRO:540:CA:4883, V-A:PRO:540:N:4884, V-A:PRO:540:CB:4885, V-A:TYR:539:CE2:4876, H-B:LYS:534:NZ:9795, V-A:LEU:363:CD1:3189, V-B:ILE:538:C:9830, V-B:ILE:538:CB:9834, V-A:GLU:543:CD:4908, H-A:GLU:543:OE1:4909, H-A:GLU:543:OE2:4910, H-A:ASP:366:OD1:3214, V-A:PRO:540:CD:4887, V-A:ILE:538:CA:4860, V-A:ILE:538:CB:4862, V-A:ILE:538:CG2:4863, V-B:PRO:540:CG:9858, V-A:TYR:539:CD2:4874, V-B:GLU:543:CG:9879"]

$$$$
4dd_Grossjean_2025
     RDKit          3D

 43 46  0  0  0  0  0  0  0  0999 V2000
  133.5360  124.3160   61.2510 C   0  0  0  0  0  0  0  0  0  0  0  0
  132.1800  123.6270   61.2670 C   0  0  0  0  0  0  0  0  0  0  0  0
  132.1410  122.2410   61.0670 C   0  0  0  0  0  0  0  0  0  0  0  0
  130.9250  121.5480   61.0700 C   0  0  0  0  0  0  0  0  0  0  0  0
  130.8530  120.0650   60.8530 C   0  0  0  0  0  0  0  0  0  0  0  0
  129.8760  119.2900   61.4990 C   0  0  0  0  0  0  0  0  0  0  0  0
  129.8010  117.9140   61.2990 C   0  0  0  0  0  0  0  0  0  0  0  0
  130.7080  117.2900   60.4500 C   0  0  0  0  0  0  0  0  0  0  0  0
  131.6850  118.0330   59.7960 C   0  0  0  0  0  0  0  0  0  0  0  0
  131.7550  119.4100   59.9970 C   0  0  0  0  0  0  0  0  0  0  0  0
  129.7350  122.1840   61.2540 N   0  0  0  0  0  0  0  0  0  0  0  0
  129.7710  123.5010   61.4510 C   0  0  0  0  0  0  0  0  0  0  0  0
  128.3200  124.4390   61.7180 S   0  0  0  0  0  0  0  0  0  0  0  0
  129.2540  125.9290   61.8700 C   0  0  0  0  0  0  0  0  0  0  0  0
  128.5820  127.2010   62.1400 C   0  0  0  0  0  0  0  0  0  0  0  0
  129.1490  128.2710   61.9130 O   0  0  0  0  0  0  0  0  0  0  0  0
  127.3240  127.1000   62.6350 N   0  0  0  0  0  0  0  0  0  0  0  0
  126.4380  128.1120   63.0460 C   0  0  0  0  0  0  0  0  0  0  0  0
  125.8100  128.8270   62.0210 C   0  0  0  0  0  0  0  0  0  0  0  0
  124.9040  129.8400   62.3250 C   0  0  0  0  0  0  0  0  0  0  0  0
  124.6190  130.1340   63.6550 C   0  0  0  0  0  0  0  0  0  0  0  0
  125.2280  129.4220   64.6850 C   0  0  0  0  0  0  0  0  0  0  0  0
  126.1350  128.4090   64.3850 C   0  0  0  0  0  0  0  0  0  0  0  0
  130.6270  125.6830   61.7110 C   0  0  0  0  0  0  0  0  0  0  0  0
  131.5900  126.6590   61.7740 N   0  0  0  0  0  0  0  0  0  0  0  0
  130.9490  124.3000   61.4730 C   0  0  0  0  0  0  0  0  0  0  0  0
  133.8726  124.4870   62.2842 H   0  0  0  0  0  0  0  0  0  0  0  0
  134.2649  123.6789   60.7286 H   0  0  0  0  0  0  0  0  0  0  0  0
  133.4512  125.2803   60.7286 H   0  0  0  0  0  0  0  0  0  0  0  0
  133.0791  121.6897   60.9054 H   0  0  0  0  0  0  0  0  0  0  0  0
  129.1579  119.7782   62.1743 H   0  0  0  0  0  0  0  0  0  0  0  0
  129.0271  117.3230   61.8108 H   0  0  0  0  0  0  0  0  0  0  0  0
  130.6526  116.2024   60.2946 H   0  0  0  0  0  0  0  0  0  0  0  0
  132.3992  117.5358   59.1231 H   0  0  0  0  0  0  0  0  0  0  0  0
  132.5288  119.9940   59.4773 H   0  0  0  0  0  0  0  0  0  0  0  0
  126.9530  126.1650   62.7140 H   0  0  0  0  0  0  0  0  0  0  0  0
  126.0326  128.5882   60.9706 H   0  0  0  0  0  0  0  0  0  0  0  0
  124.4158  130.4052   61.5174 H   0  0  0  0  0  0  0  0  0  0  0  0
  123.9059  130.9365   63.8949 H   0  0  0  0  0  0  0  0  0  0  0  0
  124.9932  129.6592   65.7331 H   0  0  0  0  0  0  0  0  0  0  0  0
  126.6141  127.8415   65.1964 H   0  0  0  0  0  0  0  0  0  0  0  0
  131.3590  127.6260   61.9510 H   0  0  0  0  0  0  0  0  0  0  0  0
  132.5680  126.4380   61.6490 H   0  0  0  0  0  0  0  0  0  0  0  0
  1  2  1  0
  2  3  2  0
  3  4  1  0
  4  5  1  0
  5  6  2  0
  6  7  1  0
  7  8  2  0
  8  9  1  0
  9 10  2  0
  4 11  2  0
 11 12  1  0
 12 13  1  0
 13 14  1  0
 14 15  1  0
 15 16  2  0
 15 17  1  0
 17 18  1  0
 18 19  2  0
 19 20  1  0
 20 21  2  0
 21 22  1  0
 22 23  2  0
 14 24  2  0
 24 25  1  0
 24 26  1  0
 26  2  1  0
 10  5  1  0
 26 12  2  0
 23 18  1  0
  1 27  1  0
  1 28  1  0
  1 29  1  0
  3 30  1  0
  6 31  1  0
  7 32  1  0
  8 33  1  0
  9 34  1  0
 10 35  1  0
 17 36  1  0
 19 37  1  0
 20 38  1  0
 21 39  1  0
 22 40  1  0
 23 41  1  0
 25 42  1  0
 25 43  1  0
M  END
>  <Binding energies>  (1) 
[-7.56]

>  <Ligand effiencies>  (1) 
[-0.26068965517241377]

>  <Interactions>  (1) 
["V-B:GLU:543:CD:9880, H-B:GLU:543:OE2:9882, H-B:GLU:543:OE1:9881, V-B:TYR:539:CE2:9848, V-B:TYR:539:CD2:9846, V-B:ALA:541:CB:9864, V-A:SER:385:CB:3409, V-A:PRO:482:CB:4326, V-A:LEU:475:CD1:4258, V-A:ASP:366:CG:3213, V-A:LEU:475:CD2:4259, V-A:ILE:369:CD1:3239, V-A:LEU:475:CG:4257, V-A:PRO:482:CG:4327, V-B:ASP:366:CG:8185, V-A:GLU:543:CD:4908, H-A:GLU:543:OE1:4909, H-A:GLU:543:OE2:4910, V-A:ARG:545:CZ:4926, H-A:ASP:366:OD1:3214, V-B:TYR:539:CB:9843, V-B:ARG:545:CZ:9898, H-A:ASP:366:OD2:3215"]

$$$$
4dg_Grossjean_2025
     RDKit          3D

 46 49  0  0  0  0  0  0  0  0999 V2000
  131.2980  126.1870   62.8310 C   0  0  0  0  0  0  0  0  0  0  0  0
  131.3870  125.4420   61.5070 C   0  0  0  0  0  0  0  0  0  0  0  0
  131.4470  124.0430   61.5400 C   0  0  0  0  0  0  0  0  0  0  0  0
  131.5300  123.2990   60.3570 C   0  0  0  0  0  0  0  0  0  0  0  0
  131.5930  121.7970   60.3600 C   0  0  0  0  0  0  0  0  0  0  0  0
  132.7490  121.1240   59.9310 C   0  0  0  0  0  0  0  0  0  0  0  0
  132.8110  119.7320   59.9280 C   0  0  0  0  0  0  0  0  0  0  0  0
  131.7160  118.9910   60.3570 C   0  0  0  0  0  0  0  0  0  0  0  0
  130.5570  119.6320   60.7840 C   0  0  0  0  0  0  0  0  0  0  0  0
  130.4980  121.0230   60.7840 C   0  0  0  0  0  0  0  0  0  0  0  0
  131.5370  123.8940   59.1330 N   0  0  0  0  0  0  0  0  0  0  0  0
  131.4810  125.2250   59.1010 C   0  0  0  0  0  0  0  0  0  0  0  0
  131.4910  126.1150   57.5960 S   0  0  0  0  0  0  0  0  0  0  0  0
  131.3930  127.6520   58.4550 C   0  0  0  0  0  0  0  0  0  0  0  0
  131.4050  128.9110   57.7110 C   0  0  0  0  0  0  0  0  0  0  0  0
  130.6390  129.1050   56.7650 O   0  0  0  0  0  0  0  0  0  0  0  0
  132.3250  129.8170   58.1010 N   0  0  0  0  0  0  0  0  0  0  0  0
  132.5030  131.1470   57.5200 C   0  0  0  0  0  0  0  0  0  0  0  0
  131.2300  131.7130   56.9020 C   0  0  0  0  0  0  0  0  0  0  0  0
  131.1640  131.9290   55.5220 C   0  0  0  0  0  0  0  0  0  0  0  0
  129.9930  132.4160   54.9500 C   0  0  0  0  0  0  0  0  0  0  0  0
  128.8870  132.6750   55.7560 C   0  0  0  0  0  0  0  0  0  0  0  0
  128.9390  132.4460   57.1290 C   0  0  0  0  0  0  0  0  0  0  0  0
  130.1110  131.9580   57.7020 C   0  0  0  0  0  0  0  0  0  0  0  0
  131.3710  127.4590   59.8440 C   0  0  0  0  0  0  0  0  0  0  0  0
  131.3120  128.4830   60.7560 N   0  0  0  0  0  0  0  0  0  0  0  0
  131.4090  126.0770   60.2390 C   0  0  0  0  0  0  0  0  0  0  0  0
  131.3836  125.4706   63.6613 H   0  0  0  0  0  0  0  0  0  0  0  0
  132.1148  126.9210   62.8943 H   0  0  0  0  0  0  0  0  0  0  0  0
  130.3312  126.7079   62.8943 H   0  0  0  0  0  0  0  0  0  0  0  0
  131.4287  123.5218   62.5085 H   0  0  0  0  0  0  0  0  0  0  0  0
  133.6192  121.7052   59.5920 H   0  0  0  0  0  0  0  0  0  0  0  0
  133.7236  119.2211   59.5872 H   0  0  0  0  0  0  0  0  0  0  0  0
  131.7659  117.8921   60.3590 H   0  0  0  0  0  0  0  0  0  0  0  0
  129.6913  119.0423   61.1200 H   0  0  0  0  0  0  0  0  0  0  0  0
  129.5793  121.5252   61.1214 H   0  0  0  0  0  0  0  0  0  0  0  0
  132.8640  129.6210   58.9320 H   0  0  0  0  0  0  0  0  0  0  0  0
  132.8400  131.8314   58.3125 H   0  0  0  0  0  0  0  0  0  0  0  0
  133.2421  131.0516   56.7109 H   0  0  0  0  0  0  0  0  0  0  0  0
  132.0375  131.7140   54.8890 H   0  0  0  0  0  0  0  0  0  0  0  0
  129.9409  132.5957   53.8660 H   0  0  0  0  0  0  0  0  0  0  0  0
  127.9630  133.0644   55.3037 H   0  0  0  0  0  0  0  0  0  0  0  0
  128.0593  132.6494   57.7573 H   0  0  0  0  0  0  0  0  0  0  0  0
  130.1556  131.7655   58.7841 H   0  0  0  0  0  0  0  0  0  0  0  0
  131.9050  129.2960   60.6850 H   0  0  0  0  0  0  0  0  0  0  0  0
  130.6620  128.4570   61.5300 H   0  0  0  0  0  0  0  0  0  0  0  0
  1  2  1  0
  2  3  2  0
  3  4  1  0
  4  5  1  0
  5  6  2  0
  6  7  1  0
  7  8  2  0
  8  9  1  0
  9 10  2  0
  4 11  2  0
 11 12  1  0
 12 13  1  0
 13 14  1  0
 14 15  1  0
 15 16  2  0
 15 17  1  0
 17 18  1  0
 18 19  1  0
 19 20  2  0
 20 21  1  0
 21 22  2  0
 22 23  1  0
 23 24  2  0
 14 25  2  0
 25 26  1  0
 25 27  1  0
 27  2  1  0
 10  5  1  0
 27 12  2  0
 24 19  1  0
  1 28  1  0
  1 29  1  0
  1 30  1  0
  3 31  1  0
  6 32  1  0
  7 33  1  0
  8 34  1  0
  9 35  1  0
 10 36  1  0
 17 37  1  0
 18 38  1  0
 18 39  1  0
 20 40  1  0
 21 41  1  0
 22 42  1  0
 23 43  1  0
 24 44  1  0
 26 45  1  0
 26 46  1  0
M  END
>  <Binding energies>  (1) 
[-7.9]

>  <Ligand effiencies>  (1) 
[-0.26333333333333336]

>  <Interactions>  (1) 
["V-B:TYR:539:CE2:9848, V-B:TYR:539:CD2:9846, V-A:SER:385:CB:3409, V-A:ASP:366:CG:3213, V-A:LEU:475:CD2:4259, V-A:ASP:366:CB:3212, V-A:ILE:369:CG2:3237, V-A:TYR:539:CZ:4877, V-A:PRO:540:CA:4883, V-A:TYR:539:C:4867, V-A:PRO:540:N:4884, V-A:PRO:540:CB:4885, V-A:TYR:539:CE2:4876, V-A:LEU:363:CD1:3189, V-A:GLU:543:CD:4908, H-A:GLU:543:OE1:4909, V-A:ARG:545:CZ:4926, H-A:ASP:366:OD1:3214, V-A:ILE:538:CA:4860, V-A:ILE:538:CB:4862, H-A:TYR:531:OH:4795, V-A:TYR:539:CD2:4874, V-A:TYR:539:CA:4869, V-A:TYR:539:CG:4872, V-A:TYR:539:CD1:4873, V-A:SER:385:CA:3407"]

$$$$
4dj_Grossjean_2025
     RDKit          3D

 39 42  0  0  0  0  0  0  0  0999 V2000
  133.5030  124.3250   61.3920 C   0  0  0  0  0  0  0  0  0  0  0  0
  132.1480  123.6340   61.3590 C   0  0  0  0  0  0  0  0  0  0  0  0
  132.1170  122.2530   61.1360 C   0  0  0  0  0  0  0  0  0  0  0  0
  130.9020  121.5580   61.0920 C   0  0  0  0  0  0  0  0  0  0  0  0
  130.8380  120.0750   60.8600 C   0  0  0  0  0  0  0  0  0  0  0  0
  129.8660  119.2870   61.4970 C   0  0  0  0  0  0  0  0  0  0  0  0
  129.8010  117.9120   61.2860 C   0  0  0  0  0  0  0  0  0  0  0  0
  130.7160  117.3020   60.4340 C   0  0  0  0  0  0  0  0  0  0  0  0
  131.6920  118.0570   59.7940 C   0  0  0  0  0  0  0  0  0  0  0  0
  131.7520  119.4310   60.0060 C   0  0  0  0  0  0  0  0  0  0  0  0
  129.7090  122.1850   61.2800 N   0  0  0  0  0  0  0  0  0  0  0  0
  129.7370  123.5000   61.4920 C   0  0  0  0  0  0  0  0  0  0  0  0
  128.2770  124.4310   61.7410 S   0  0  0  0  0  0  0  0  0  0  0  0
  129.2030  125.9220   61.9250 C   0  0  0  0  0  0  0  0  0  0  0  0
  128.5190  127.1930   62.1680 C   0  0  0  0  0  0  0  0  0  0  0  0
  129.1080  128.2660   62.0130 O   0  0  0  0  0  0  0  0  0  0  0  0
  127.2300  127.0930   62.5740 N   0  0  0  0  0  0  0  0  0  0  0  0
  126.3650  128.1370   62.8720 C   0  0  0  0  0  0  0  0  0  0  0  0
  125.6800  128.8830   62.0330 N   0  0  0  0  0  0  0  0  0  0  0  0
  124.9560  129.7850   62.6660 C   0  0  0  0  0  0  0  0  0  0  0  0
  125.0440  129.7810   64.0550 C   0  0  0  0  0  0  0  0  0  0  0  0
  126.1390  128.5240   64.5480 S   0  0  0  0  0  0  0  0  0  0  0  0
  130.5790  125.6820   61.7910 C   0  0  0  0  0  0  0  0  0  0  0  0
  131.5370  126.6600   61.8840 N   0  0  0  0  0  0  0  0  0  0  0  0
  130.9110  124.3040   61.5460 C   0  0  0  0  0  0  0  0  0  0  0  0
  133.8095  124.4813   62.4368 H   0  0  0  0  0  0  0  0  0  0  0  0
  134.2476  123.6965   60.8815 H   0  0  0  0  0  0  0  0  0  0  0  0
  133.4316  125.2968   60.8815 H   0  0  0  0  0  0  0  0  0  0  0  0
  133.0603  121.7055   60.9932 H   0  0  0  0  0  0  0  0  0  0  0  0
  129.1430  119.7643   62.1748 H   0  0  0  0  0  0  0  0  0  0  0  0
  129.0300  117.3112   61.7905 H   0  0  0  0  0  0  0  0  0  0  0  0
  130.6669  116.2160   60.2658 H   0  0  0  0  0  0  0  0  0  0  0  0
  132.4144  117.5701   59.1223 H   0  0  0  0  0  0  0  0  0  0  0  0
  132.5269  120.0234   59.4975 H   0  0  0  0  0  0  0  0  0  0  0  0
  126.8470  126.1640   62.6780 H   0  0  0  0  0  0  0  0  0  0  0  0
  124.3181  130.5006   62.1265 H   0  0  0  0  0  0  0  0  0  0  0  0
  124.5076  130.4628   64.7313 H   0  0  0  0  0  0  0  0  0  0  0  0
  132.5210  126.4550   61.7870 H   0  0  0  0  0  0  0  0  0  0  0  0
  131.2870  127.6240   62.0550 H   0  0  0  0  0  0  0  0  0  0  0  0
  1  2  1  0
  2  3  2  0
  3  4  1  0
  4  5  1  0
  5  6  2  0
  6  7  1  0
  7  8  2  0
  8  9  1  0
  9 10  2  0
  4 11  2  0
 11 12  1  0
 12 13  1  0
 13 14  1  0
 14 15  1  0
 15 16  2  0
 15 17  1  0
 17 18  1  0
 18 19  2  0
 19 20  1  0
 20 21  2  0
 21 22  1  0
 14 23  2  0
 23 24  1  0
 23 25  1  0
 25  2  1  0
 10  5  1  0
 25 12  2  0
 22 18  1  0
  1 26  1  0
  1 27  1  0
  1 28  1  0
  3 29  1  0
  6 30  1  0
  7 31  1  0
  8 32  1  0
  9 33  1  0
 10 34  1  0
 17 35  1  0
 20 36  1  0
 21 37  1  0
 24 38  1  0
 24 39  1  0
M  END
>  <Binding energies>  (1) 
[-6.99]

>  <Ligand effiencies>  (1) 
[-0.24964285714285714]

>  <Interactions>  (1) 
["V-B:GLU:543:CD:9880, H-B:GLU:543:OE2:9882, H-B:GLU:543:OE1:9881, V-B:TYR:539:CE2:9848, V-B:TYR:539:CD2:9846, V-B:ALA:541:CB:9864, V-A:SER:385:CB:3409, V-A:PRO:482:CB:4326, V-A:LEU:475:CD1:4258, V-A:ASP:366:CG:3213, V-A:LEU:475:CD2:4259, V-A:ILE:369:CD1:3239, V-A:LEU:475:CG:4257, V-A:PRO:482:CG:4327, H-B:ARG:545:NH2:9900, V-A:GLU:543:CD:4908, H-A:GLU:543:OE1:4909, H-A:GLU:543:OE2:4910, V-A:ARG:545:CZ:4926, H-A:ASP:366:OD1:3214, V-B:TYR:539:CB:9843, V-B:ARG:545:CZ:9898, H-A:ASP:366:OD2:3215"]

$$$$
4ea_Grossjean_2025
     RDKit          3D

 52 55  0  0  0  0  0  0  0  0999 V2000
  130.5210  117.1000   60.1390 C   0  0  0  0  0  0  0  0  0  0  0  0
  129.9940  118.1230   61.1500 C   0  0  0  0  0  0  0  0  0  0  0  0
  130.3010  119.4350   60.6980 O   0  0  0  0  0  0  0  0  0  0  0  0
  130.1320  120.5130   61.5050 C   0  0  0  0  0  0  0  0  0  0  0  0
  129.8930  120.4260   62.7140 O   0  0  0  0  0  0  0  0  0  0  0  0
  130.2630  121.8220   60.7820 C   0  0  0  0  0  0  0  0  0  0  0  0
  129.1790  122.3010   60.0340 C   0  0  0  0  0  0  0  0  0  0  0  0
  129.2680  123.5110   59.3520 C   0  0  0  0  0  0  0  0  0  0  0  0
  130.4400  124.2670   59.4020 C   0  0  0  0  0  0  0  0  0  0  0  0
  130.4160  125.4720   58.6740 N   0  0  0  0  0  0  0  0  0  0  0  0
  130.1140  125.7070   57.3730 C   0  0  0  0  0  0  0  0  0  0  0  0
  129.7900  124.8330   56.5680 O   0  0  0  0  0  0  0  0  0  0  0  0
  130.1970  127.1090   56.9560 C   0  0  0  0  0  0  0  0  0  0  0  0
  129.4760  127.6320   55.4320 S   0  0  0  0  0  0  0  0  0  0  0  0
  129.9890  129.2820   55.6990 C   0  0  0  0  0  0  0  0  0  0  0  0
  129.7240  130.2530   54.8240 N   0  0  0  0  0  0  0  0  0  0  0  0
  130.1770  131.4890   55.1500 C   0  0  0  0  0  0  0  0  0  0  0  0
  129.8650  132.5780   54.1410 C   0  0  0  0  0  0  0  0  0  0  0  0
  130.8800  131.7730   56.3180 C   0  0  0  0  0  0  0  0  0  0  0  0
  131.1560  130.7520   57.2330 C   0  0  0  0  0  0  0  0  0  0  0  0
  131.9050  131.0700   58.4700 C   0  0  0  0  0  0  0  0  0  0  0  0
  131.2170  131.3610   59.6530 C   0  0  0  0  0  0  0  0  0  0  0  0
  131.9210  131.6580   60.8170 C   0  0  0  0  0  0  0  0  0  0  0  0
  133.3140  131.6670   60.7980 C   0  0  0  0  0  0  0  0  0  0  0  0
  134.0080  131.3830   59.6240 C   0  0  0  0  0  0  0  0  0  0  0  0
  133.3030  131.0870   58.4610 C   0  0  0  0  0  0  0  0  0  0  0  0
  130.6980  129.4400   56.9280 C   0  0  0  0  0  0  0  0  0  0  0  0
  130.8020  128.1850   57.6260 C   0  0  0  0  0  0  0  0  0  0  0  0
  131.4390  128.0700   58.8340 N   0  0  0  0  0  0  0  0  0  0  0  0
  131.5310  123.7950   60.1480 C   0  0  0  0  0  0  0  0  0  0  0  0
  131.4400  122.5850   60.8300 C   0  0  0  0  0  0  0  0  0  0  0  0
  130.9606  116.2466   60.6761 H   0  0  0  0  0  0  0  0  0  0  0  0
  129.6920  116.7481   59.5074 H   0  0  0  0  0  0  0  0  0  0  0  0
  131.2888  117.5707   59.5074 H   0  0  0  0  0  0  0  0  0  0  0  0
  128.9038  118.0143   61.2477 H   0  0  0  0  0  0  0  0  0  0  0  0
  130.4679  117.9510   62.1276 H   0  0  0  0  0  0  0  0  0  0  0  0
  128.2492  121.7152   59.9854 H   0  0  0  0  0  0  0  0  0  0  0  0
  128.4084  123.8740   58.7694 H   0  0  0  0  0  0  0  0  0  0  0  0
  130.6660  126.2840   59.2190 H   0  0  0  0  0  0  0  0  0  0  0  0
  129.5996  133.5043   54.6716 H   0  0  0  0  0  0  0  0  0  0  0  0
  130.7480  132.7570   53.5099 H   0  0  0  0  0  0  0  0  0  0  0  0
  129.0212  132.2623   53.5099 H   0  0  0  0  0  0  0  0  0  0  0  0
  131.2181  132.7999   56.5209 H   0  0  0  0  0  0  0  0  0  0  0  0
  130.1171  131.3551   59.6635 H   0  0  0  0  0  0  0  0  0  0  0  0
  131.3797  131.8845   61.7474 H   0  0  0  0  0  0  0  0  0  0  0  0
  133.8705  131.9003   61.7177 H   0  0  0  0  0  0  0  0  0  0  0  0
  135.1079  131.3926   59.6161 H   0  0  0  0  0  0  0  0  0  0  0  0
  133.8477  130.8656   57.5313 H   0  0  0  0  0  0  0  0  0  0  0  0
  130.9860  127.6610   59.6400 H   0  0  0  0  0  0  0  0  0  0  0  0
  132.3890  128.3920   58.9610 H   0  0  0  0  0  0  0  0  0  0  0  0
  132.4599  124.3824   60.1938 H   0  0  0  0  0  0  0  0  0  0  0  0
  132.2998  122.2229   61.4128 H   0  0  0  0  0  0  0  0  0  0  0  0
  1  2  1  0
  2  3  1  0
  3  4  1  0
  4  5  2  0
  4  6  1  0
  6  7  2  0
  7  8  1  0
  8  9  2  0
  9 10  1  0
 10 11  1  0
 11 12  2  0
 11 13  1  0
 13 14  1  0
 14 15  1  0
 15 16  2  0
 16 17  1  0
 17 18  1  0
 17 19  2  0
 19 20  1  0
 20 21  1  0
 21 22  2  0
 22 23  1  0
 23 24  2  0
 24 25  1  0
 25 26  2  0
 20 27  2  0
 27 28  1  0
 28 29  1  0
  9 30  1  0
 30 31  2  0
 31  6  1  0
 28 13  2  0
 27 15  1  0
 26 21  1  0
  1 32  1  0
  1 33  1  0
  1 34  1  0
  2 35  1  0
  2 36  1  0
  7 37  1  0
  8 38  1  0
 10 39  1  0
 18 40  1  0
 18 41  1  0
 18 42  1  0
 19 43  1  0
 22 44  1  0
 23 45  1  0
 24 46  1  0
 25 47  1  0
 26 48  1  0
 29 49  1  0
 29 50  1  0
 30 51  1  0
 31 52  1  0
M  END
>  <Binding energies>  (1) 
[-7.5]

>  <Ligand effiencies>  (1) 
[-0.22058823529411764]

>  <Interactions>  (1) 
["V-B:TYR:539:C:9839, V-B:TYR:539:CE2:9848, V-B:TYR:539:CD2:9846, V-B:MET:535:CE:9807, V-B:ALA:541:CB:9864, V-A:PRO:482:CB:4326, V-A:LEU:475:CD1:4258, H-A:TYR:484:OH:4348, V-A:ASP:366:CG:3213, V-A:LEU:475:CD2:4259, V-A:LEU:475:CG:4257, V-A:ASP:366:CB:3212, V-A:PRO:482:CG:4327, V-A:PRO:540:CA:4883, V-A:PRO:540:CB:4885, H-A:ASP:366:OD1:3214, V-A:LEU:363:CA:3185, H-B:TYR:539:OH:9850, V-A:ILE:538:CA:4860, V-A:ILE:538:CB:4862, V-A:ILE:538:CG2:4863, H-A:TYR:531:OH:4795, V-B:TYR:539:CB:9843, V-A:ILE:538:C:4858, V-A:PRO:540:C:4881, V-A:ASN:362:CB:3176, V-A:ASN:362:C:3172, H-A:ASP:366:OD2:3215, V-A:LEU:363:CB:3187"]

$$$$
4eb_Grossjean_2025
     RDKit          3D

 49 52  0  0  0  0  0  0  0  0999 V2000
  130.0550  132.5250   53.7190 C   0  0  0  0  0  0  0  0  0  0  0  0
  130.5300  133.2480   54.8450 O   0  0  0  0  0  0  0  0  0  0  0  0
  131.6610  132.8670   55.4950 C   0  0  0  0  0  0  0  0  0  0  0  0
  132.6830  133.5560   55.5410 O   0  0  0  0  0  0  0  0  0  0  0  0
  131.5420  131.5220   56.1510 C   0  0  0  0  0  0  0  0  0  0  0  0
  130.2880  130.8990   56.2120 C   0  0  0  0  0  0  0  0  0  0  0  0
  130.1460  129.6520   56.8130 C   0  0  0  0  0  0  0  0  0  0  0  0
  131.2500  129.0020   57.3670 C   0  0  0  0  0  0  0  0  0  0  0  0
  130.9870  127.7470   57.9480 N   0  0  0  0  0  0  0  0  0  0  0  0
  131.6230  126.5590   57.7990 C   0  0  0  0  0  0  0  0  0  0  0  0
  132.6050  126.3840   57.0760 O   0  0  0  0  0  0  0  0  0  0  0  0
  131.0630  125.4480   58.5730 C   0  0  0  0  0  0  0  0  0  0  0  0
  132.0000  124.7020   59.8690 S   0  0  0  0  0  0  0  0  0  0  0  0
  130.7080  123.5780   60.2220 C   0  0  0  0  0  0  0  0  0  0  0  0
  130.8110  122.6660   61.1910 N   0  0  0  0  0  0  0  0  0  0  0  0
  129.7400  121.8560   61.3630 C   0  0  0  0  0  0  0  0  0  0  0  0
  129.8790  120.8260   62.4690 C   0  0  0  0  0  0  0  0  0  0  0  0
  128.5780  121.9330   60.5980 C   0  0  0  0  0  0  0  0  0  0  0  0
  128.4740  122.8920   59.5830 C   0  0  0  0  0  0  0  0  0  0  0  0
  127.2320  122.9620   58.7780 C   0  0  0  0  0  0  0  0  0  0  0  0
  127.1930  122.4020   57.4980 C   0  0  0  0  0  0  0  0  0  0  0  0
  126.0250  122.4660   56.7400 C   0  0  0  0  0  0  0  0  0  0  0  0
  124.8980  123.0950   57.2640 C   0  0  0  0  0  0  0  0  0  0  0  0
  124.9290  123.6590   58.5370 C   0  0  0  0  0  0  0  0  0  0  0  0
  126.0960  123.5940   59.2930 C   0  0  0  0  0  0  0  0  0  0  0  0
  129.5770  123.7620   59.3700 C   0  0  0  0  0  0  0  0  0  0  0  0
  129.8080  124.8350   58.4390 C   0  0  0  0  0  0  0  0  0  0  0  0
  128.8710  125.2120   57.5100 N   0  0  0  0  0  0  0  0  0  0  0  0
  132.5090  129.6180   57.3110 C   0  0  0  0  0  0  0  0  0  0  0  0
  132.6500  130.8650   56.7090 C   0  0  0  0  0  0  0  0  0  0  0  0
  129.4808  131.6510   54.0601 H   0  0  0  0  0  0  0  0  0  0  0  0
  129.4075  133.1751   53.1123 H   0  0  0  0  0  0  0  0  0  0  0  0
  130.9088  132.1888   53.1123 H   0  0  0  0  0  0  0  0  0  0  0  0
  129.4086  131.4000   55.7811 H   0  0  0  0  0  0  0  0  0  0  0  0
  129.1557  129.1747   56.8518 H   0  0  0  0  0  0  0  0  0  0  0  0
  130.1960  127.7430   58.5740 H   0  0  0  0  0  0  0  0  0  0  0  0
  129.8115  121.3261   63.4464 H   0  0  0  0  0  0  0  0  0  0  0  0
  129.0730  120.0826   62.3811 H   0  0  0  0  0  0  0  0  0  0  0  0
  130.8532  120.3228   62.3811 H   0  0  0  0  0  0  0  0  0  0  0  0
  127.7442  121.2420   60.7910 H   0  0  0  0  0  0  0  0  0  0  0  0
  128.0867  121.9093   57.0876 H   0  0  0  0  0  0  0  0  0  0  0  0
  125.9934  122.0224   55.7339 H   0  0  0  0  0  0  0  0  0  0  0  0
  123.9755  123.1467   56.6671 H   0  0  0  0  0  0  0  0  0  0  0  0
  124.0347  124.1539   58.9435 H   0  0  0  0  0  0  0  0  0  0  0  0
  126.1246  124.0408   60.2978 H   0  0  0  0  0  0  0  0  0  0  0  0
  129.0480  125.1390   56.5180 H   0  0  0  0  0  0  0  0  0  0  0  0
  127.9690  125.5760   57.7880 H   0  0  0  0  0  0  0  0  0  0  0  0
  133.3863  129.1147   57.7436 H   0  0  0  0  0  0  0  0  0  0  0  0
  133.6409  131.3411   56.6700 H   0  0  0  0  0  0  0  0  0  0  0  0
  1  2  1  0
  2  3  1  0
  3  4  2  0
  3  5  1  0
  5  6  2  0
  6  7  1  0
  7  8  2  0
  8  9  1  0
  9 10  1  0
 10 11  2  0
 10 12  1  0
 12 13  1  0
 13 14  1  0
 14 15  2  0
 15 16  1  0
 16 17  1  0
 16 18  2  0
 18 19  1  0
 19 20  1  0
 20 21  2  0
 21 22  1  0
 22 23  2  0
 23 24  1  0
 24 25  2  0
 19 26  2  0
 26 27  1  0
 27 28  1  0
  8 29  1  0
 29 30  2  0
 30  5  1  0
 27 12  2  0
 26 14  1  0
 25 20  1  0
  1 31  1  0
  1 32  1  0
  1 33  1  0
  6 34  1  0
  7 35  1  0
  9 36  1  0
 17 37  1  0
 17 38  1  0
 17 39  1  0
 18 40  1  0
 21 41  1  0
 22 42  1  0
 23 43  1  0
 24 44  1  0
 25 45  1  0
 28 46  1  0
 28 47  1  0
 29 48  1  0
 30 49  1  0
M  END
>  <Binding energies>  (1) 
[-8.12]

>  <Ligand effiencies>  (1) 
[-0.24606060606060604]

>  <Interactions>  (1) 
["V-B:PRO:540:CB:9857, V-B:PRO:540:CD:9859, V-B:LEU:363:CD1:8161, V-B:TYR:539:C:9839, V-B:PRO:540:CA:9855, V-B:TYR:539:CE2:9848, V-B:TYR:539:CD2:9846, V-B:MET:535:CE:9807, V-B:ALA:541:CB:9864, V-B:PRO:540:C:9853, V-B:PRO:540:N:9856, V-A:LEU:475:CD1:4258, H-A:TYR:484:OH:4348, V-A:ASP:366:CG:3213, V-B:TYR:539:CG:9844, V-A:LEU:475:CD2:4259, V-A:ASP:366:CB:3212, V-A:TYR:531:CZ:4794, H-A:TYR:539:N:4870, V-A:PRO:540:N:4884, V-A:PRO:540:CB:4885, V-A:LEU:363:CD1:3189, V-B:TYR:539:CA:9841, V-A:PRO:540:CD:4887, H-B:TYR:539:OH:9850, V-A:ILE:538:CA:4860, V-A:ILE:538:CB:4862, V-A:TYR:484:CZ:4347, V-A:ILE:538:CG2:4863, V-A:TYR:484:CE1:4345"]

$$$$
8a_Ghoteimi_2023
     RDKit          3D

 67 71  0  0  0  0  0  0  0  0999 V2000
  131.1100  124.6690   74.7060 C   0  0  0  0  0  0  0  0  0  0  0  0
  130.7070  126.0510   74.1850 C   0  0  0  0  0  0  0  0  0  0  0  0
  129.8240  125.9010   73.0800 O   0  0  0  0  0  0  0  0  0  0  0  0
  128.9990  126.9120   72.7000 C   0  0  0  0  0  0  0  0  0  0  0  0
  128.3230  127.5730   73.4940 O   0  0  0  0  0  0  0  0  0  0  0  0
  128.9850  127.1400   71.2160 C   0  0  0  0  0  0  0  0  0  0  0  0
  128.0100  126.5080   70.4360 C   0  0  0  0  0  0  0  0  0  0  0  0
  127.9720  126.6990   69.0570 C   0  0  0  0  0  0  0  0  0  0  0  0
  128.9070  127.5230   68.4300 C   0  0  0  0  0  0  0  0  0  0  0  0
  128.7740  127.6380   67.0310 N   0  0  0  0  0  0  0  0  0  0  0  0
  128.4060  128.6970   66.2690 C   0  0  0  0  0  0  0  0  0  0  0  0
  128.1070  129.8030   66.7180 O   0  0  0  0  0  0  0  0  0  0  0  0
  128.3890  128.4500   64.8240 C   0  0  0  0  0  0  0  0  0  0  0  0
  127.4060  129.4560   63.7610 S   0  0  0  0  0  0  0  0  0  0  0  0
  127.9140  128.5490   62.3550 C   0  0  0  0  0  0  0  0  0  0  0  0
  127.4580  128.8330   61.1360 N   0  0  0  0  0  0  0  0  0  0  0  0
  127.9130  128.0620   60.1120 C   0  0  0  0  0  0  0  0  0  0  0  0
  127.3720  128.3850   58.7560 C   0  0  0  0  0  0  0  0  0  0  0  0
  126.0540  128.8340   58.5900 C   0  0  0  0  0  0  0  0  0  0  0  0
  125.5530  129.1220   57.3240 C   0  0  0  0  0  0  0  0  0  0  0  0
  126.3550  128.9730   56.1940 C   0  0  0  0  0  0  0  0  0  0  0  0
  125.7730  129.2800   54.9790 O   0  0  0  0  0  0  0  0  0  0  0  0
  124.7180  130.2350   54.9370 C   0  0  0  0  0  0  0  0  0  0  0  0
  127.6770  128.5310   56.3500 C   0  0  0  0  0  0  0  0  0  0  0  0
  128.1740  128.2400   57.6170 C   0  0  0  0  0  0  0  0  0  0  0  0
  128.8220  127.0210   60.3090 C   0  0  0  0  0  0  0  0  0  0  0  0
  129.3170  126.7300   61.5850 C   0  0  0  0  0  0  0  0  0  0  0  0
  130.3070  125.6330   61.7340 C   0  0  0  0  0  0  0  0  0  0  0  0
  129.9420  124.3140   61.4540 C   0  0  0  0  0  0  0  0  0  0  0  0
  130.8720  123.2860   61.5720 C   0  0  0  0  0  0  0  0  0  0  0  0
  132.1830  123.5570   61.9670 C   0  0  0  0  0  0  0  0  0  0  0  0
  133.0370  122.4740   62.0560 O   0  0  0  0  0  0  0  0  0  0  0  0
  133.5750  121.9140   60.8650 C   0  0  0  0  0  0  0  0  0  0  0  0
  132.5540  124.8820   62.2420 C   0  0  0  0  0  0  0  0  0  0  0  0
  131.6210  125.9100   62.1210 C   0  0  0  0  0  0  0  0  0  0  0  0
  128.8370  127.5100   62.6760 C   0  0  0  0  0  0  0  0  0  0  0  0
  129.0760  127.4650   64.0970 C   0  0  0  0  0  0  0  0  0  0  0  0
  129.8910  126.5260   64.6790 N   0  0  0  0  0  0  0  0  0  0  0  0
  129.8850  128.1650   69.2040 C   0  0  0  0  0  0  0  0  0  0  0  0
  129.9220  127.9730   70.5830 C   0  0  0  0  0  0  0  0  0  0  0  0
  131.1077  124.6768   75.8060 H   0  0  0  0  0  0  0  0  0  0  0  0
  130.3937  123.9172   74.3432 H   0  0  0  0  0  0  0  0  0  0  0  0
  132.1182  124.4200   74.3432 H   0  0  0  0  0  0  0  0  0  0  0  0
  130.2015  126.6116   74.9851 H   0  0  0  0  0  0  0  0  0  0  0  0
  131.6055  126.5992   73.8652 H   0  0  0  0  0  0  0  0  0  0  0  0
  127.2670  125.8545   70.9164 H   0  0  0  0  0  0  0  0  0  0  0  0
  127.1988  126.1963   68.4575 H   0  0  0  0  0  0  0  0  0  0  0  0
  129.0020  126.7940   66.5270 H   0  0  0  0  0  0  0  0  0  0  0  0
  125.4081  128.9601   59.4714 H   0  0  0  0  0  0  0  0  0  0  0  0
  124.5153  129.4702   57.2143 H   0  0  0  0  0  0  0  0  0  0  0  0
  124.4236  130.5015   55.9628 H   0  0  0  0  0  0  0  0  0  0  0  0
  125.0604  131.1366   54.4079 H   0  0  0  0  0  0  0  0  0  0  0  0
  123.8549  129.8048   54.4079 H   0  0  0  0  0  0  0  0  0  0  0  0
  128.3234  128.4139   55.4677 H   0  0  0  0  0  0  0  0  0  0  0  0
  129.2116  127.8911   57.7254 H   0  0  0  0  0  0  0  0  0  0  0  0
  129.1539  126.4209   59.4489 H   0  0  0  0  0  0  0  0  0  0  0  0
  128.9131  124.0868   61.1383 H   0  0  0  0  0  0  0  0  0  0  0  0
  130.5716  122.2509   61.3521 H   0  0  0  0  0  0  0  0  0  0  0  0
  134.3156  121.1431   61.1243 H   0  0  0  0  0  0  0  0  0  0  0  0
  132.7651  121.4606   60.2746 H   0  0  0  0  0  0  0  0  0  0  0  0
  134.0605  122.7051   60.2746 H   0  0  0  0  0  0  0  0  0  0  0  0
  133.5840  125.1098   62.5539 H   0  0  0  0  0  0  0  0  0  0  0  0
  131.9210  126.9471   62.3316 H   0  0  0  0  0  0  0  0  0  0  0  0
  130.8900  126.5320   64.5280 H   0  0  0  0  0  0  0  0  0  0  0  0
  129.5240  125.8020   65.2790 H   0  0  0  0  0  0  0  0  0  0  0  0
  130.6240  128.8212   68.7210 H   0  0  0  0  0  0  0  0  0  0  0  0
  130.6931  128.4790   71.1825 H   0  0  0  0  0  0  0  0  0  0  0  0
  1  2  1  0
  2  3  1  0
  3  4  1  0
  4  5  2  0
  4  6  1  0
  6  7  2  0
  7  8  1  0
  8  9  2  0
  9 10  1  0
 10 11  1  0
 11 12  2  0
 11 13  1  0
 13 14  1  0
 14 15  1  0
 15 16  2  0
 16 17  1  0
 17 18  1  0
 18 19  2  0
 19 20  1  0
 20 21  2  0
 21 22  1  0
 22 23  1  0
 21 24  1  0
 24 25  2  0
 17 26  2  0
 26 27  1  0
 27 28  1  0
 28 29  2  0
 29 30  1  0
 30 31  2  0
 31 32  1  0
 32 33  1  0
 31 34  1  0
 34 35  2  0
 27 36  2  0
 36 37  1  0
 37 38  1  0
  9 39  1  0
 39 40  2  0
 40  6  1  0
 37 13  2  0
 36 15  1  0
 25 18  1  0
 35 28  1  0
  1 41  1  0
  1 42  1  0
  1 43  1  0
  2 44  1  0
  2 45  1  0
  7 46  1  0
  8 47  1  0
 10 48  1  0
 19 49  1  0
 20 50  1  0
 23 51  1  0
 23 52  1  0
 23 53  1  0
 24 54  1  0
 25 55  1  0
 26 56  1  0
 29 57  1  0
 30 58  1  0
 33 59  1  0
 33 60  1  0
 33 61  1  0
 34 62  1  0
 35 63  1  0
 38 64  1  0
 38 65  1  0
 39 66  1  0
 40 67  1  0
M  END
>  <Binding energies>  (1) 
[-6.88]

>  <Ligand effiencies>  (1) 
[-0.16]

>  <Interactions>  (1) 
["V-B:GLU:543:CD:9880, H-B:GLU:543:OE2:9882, H-B:GLU:543:OE1:9881, V-B:MET:535:CE:9807, H-A:TYR:484:OH:4348, V-A:LEU:475:CD2:4259, V-B:TYR:531:CZ:9766, V-A:ILE:369:CD1:3239, V-A:ILE:369:CG2:3237, V-B:TYR:531:CE1:9764, V-B:ASP:366:CG:8185, V-A:TYR:539:CZ:4877, V-B:ASP:366:CB:8184, H-B:LYS:534:NZ:9795, V-A:GLU:543:CD:4908, H-A:GLY:454:N:4050, H-A:GLU:543:OE1:4909, H-A:GLU:543:OE2:4910, V-A:GLU:543:CG:4907, V-A:HIS:456:CE1:4070, H-B:TYR:531:OH:9767, V-A:GLU:543:C:4902, V-B:GLU:543:CB:9878, V-A:GLU:543:CB:4906, V-A:HIS:456:CD2:4068, V-A:HIS:456:CB:4065, V-B:HIS:456:CD2:9040, V-B:HIS:456:CE1:9042, H-B:LYS:547:NZ:9923, V-B:TYR:531:CD1:9762, V-B:ASN:370:CB:8217, H-B:TYR:484:OH:9320, V-B:GLU:543:C:9874, V-B:LYS:547:CE:9922, V-B:GLY:544:C:9884, V-B:ASN:370:CG:8218"]

$$$$
8b_Ghoteimi_2023
     RDKit          3D

 54 58  0  0  0  0  0  0  0  0999 V2000
  130.6150  118.8050   60.7510 C   0  0  0  0  0  0  0  0  0  0  0  0
  129.8700  119.5600   61.7010 O   0  0  0  0  0  0  0  0  0  0  0  0
  129.8040  120.9330   61.5660 C   0  0  0  0  0  0  0  0  0  0  0  0
  128.5290  121.4960   61.5330 C   0  0  0  0  0  0  0  0  0  0  0  0
  128.3650  122.8700   61.3990 C   0  0  0  0  0  0  0  0  0  0  0  0
  129.4750  123.7220   61.2950 C   0  0  0  0  0  0  0  0  0  0  0  0
  129.3050  125.2010   61.1500 C   0  0  0  0  0  0  0  0  0  0  0  0
  128.3410  125.9070   61.8780 C   0  0  0  0  0  0  0  0  0  0  0  0
  128.2030  127.2890   61.7230 C   0  0  0  0  0  0  0  0  0  0  0  0
  127.1660  128.0050   62.5020 C   0  0  0  0  0  0  0  0  0  0  0  0
  127.3520  128.2480   63.8640 C   0  0  0  0  0  0  0  0  0  0  0  0
  126.3800  128.9300   64.5920 C   0  0  0  0  0  0  0  0  0  0  0  0
  125.2110  129.3760   63.9730 C   0  0  0  0  0  0  0  0  0  0  0  0
  124.3050  130.0440   64.7730 O   0  0  0  0  0  0  0  0  0  0  0  0
  123.9980  129.5210   66.0610 C   0  0  0  0  0  0  0  0  0  0  0  0
  125.0260  129.1270   62.6040 C   0  0  0  0  0  0  0  0  0  0  0  0
  125.9980  128.4450   61.8770 C   0  0  0  0  0  0  0  0  0  0  0  0
  129.0720  127.9510   60.8160 C   0  0  0  0  0  0  0  0  0  0  0  0
  129.2090  129.3300   60.4240 C   0  0  0  0  0  0  0  0  0  0  0  0
  128.4170  130.3220   60.9420 N   0  0  0  0  0  0  0  0  0  0  0  0
  130.2200  129.5540   59.4770 C   0  0  0  0  0  0  0  0  0  0  0  0
  130.6330  130.8200   58.8670 C   0  0  0  0  0  0  0  0  0  0  0  0
  130.8710  131.8080   59.5670 O   0  0  0  0  0  0  0  0  0  0  0  0
  130.7250  130.8110   57.5130 N   0  0  0  0  0  0  0  0  0  0  0  0
  131.0950  131.8610   56.6840 C   0  0  0  0  0  0  0  0  0  0  0  0
  132.4170  132.1160   56.3210 C   0  0  0  0  0  0  0  0  0  0  0  0
  132.3580  133.2260   55.5100 C   0  0  0  0  0  0  0  0  0  0  0  0
  131.0680  133.6170   55.3870 O   0  0  0  0  0  0  0  0  0  0  0  0
  130.2750  132.7440   56.1350 N   0  0  0  0  0  0  0  0  0  0  0  0
  131.0340  128.0490   59.0450 S   0  0  0  0  0  0  0  0  0  0  0  0
  130.0170  127.1330   60.1330 C   0  0  0  0  0  0  0  0  0  0  0  0
  130.1480  125.8150   60.2770 N   0  0  0  0  0  0  0  0  0  0  0  0
  130.7540  123.1510   61.3320 C   0  0  0  0  0  0  0  0  0  0  0  0
  130.9210  121.7740   61.4650 C   0  0  0  0  0  0  0  0  0  0  0  0
  131.2928  118.1181   61.2789 H   0  0  0  0  0  0  0  0  0  0  0  0
  129.9245  118.2260   60.1201 H   0  0  0  0  0  0  0  0  0  0  0  0
  131.2032  119.4877   60.1201 H   0  0  0  0  0  0  0  0  0  0  0  0
  127.6445  120.8470   61.6137 H   0  0  0  0  0  0  0  0  0  0  0  0
  127.3508  123.2952   61.3742 H   0  0  0  0  0  0  0  0  0  0  0  0
  127.6856  125.3692   62.5789 H   0  0  0  0  0  0  0  0  0  0  0  0
  128.2683  127.9001   64.3634 H   0  0  0  0  0  0  0  0  0  0  0  0
  126.5349  129.1189   65.6645 H   0  0  0  0  0  0  0  0  0  0  0  0
  124.3939  130.1955   66.8345 H   0  0  0  0  0  0  0  0  0  0  0  0
  122.9069  129.4364   66.1718 H   0  0  0  0  0  0  0  0  0  0  0  0
  124.4560  128.5270   66.1718 H   0  0  0  0  0  0  0  0  0  0  0  0
  124.1093  129.4721   62.1035 H   0  0  0  0  0  0  0  0  0  0  0  0
  125.8448  128.2520   60.8050 H   0  0  0  0  0  0  0  0  0  0  0  0
  128.6940  131.2930   60.9010 H   0  0  0  0  0  0  0  0  0  0  0  0
  127.5310  130.1190   61.3850 H   0  0  0  0  0  0  0  0  0  0  0  0
  130.5060  129.9440   57.0450 H   0  0  0  0  0  0  0  0  0  0  0  0
  133.3132  131.5518   56.6186 H   0  0  0  0  0  0  0  0  0  0  0  0
  133.2213  133.7171   55.0372 H   0  0  0  0  0  0  0  0  0  0  0  0
  131.6393  123.7993   61.2549 H   0  0  0  0  0  0  0  0  0  0  0  0
  131.9336  121.3451   61.4908 H   0  0  0  0  0  0  0  0  0  0  0  0
  1  2  1  0
  2  3  1  0
  3  4  2  0
  4  5  1  0
  5  6  2  0
  6  7  1  0
  7  8  2  0
  8  9  1  0
  9 10  1  0
 10 11  2  0
 11 12  1  0
 12 13  2  0
 13 14  1  0
 14 15  1  0
 13 16  1  0
 16 17  2  0
  9 18  2  0
 18 19  1  0
 19 20  1  0
 19 21  2  0
 21 22  1  0
 22 23  2  0
 22 24  1  0
 24 25  1  0
 25 26  1  0
 26 27  2  0
 27 28  1  0
 28 29  1  0
 21 30  1  0
 30 31  1  0
 31 32  2  0
  6 33  1  0
 33 34  2  0
 34  3  1  0
 32  7  1  0
 17 10  1  0
 31 18  1  0
 29 25  2  0
  1 35  1  0
  1 36  1  0
  1 37  1  0
  4 38  1  0
  5 39  1  0
  8 40  1  0
 11 41  1  0
 12 42  1  0
 15 43  1  0
 15 44  1  0
 15 45  1  0
 16 46  1  0
 17 47  1  0
 20 48  1  0
 20 49  1  0
 24 50  1  0
 26 51  1  0
 27 52  1  0
 33 53  1  0
 34 54  1  0
M  END
>  <Binding energies>  (1) 
[-7.51]

>  <Ligand effiencies>  (1) 
[-0.20297297297297295]

>  <Interactions>  (1) 
["V-B:GLU:543:CD:9880, V-B:PRO:540:CA:9855, V-B:TYR:539:CD2:9846, V-B:ALA:541:CB:9864, V-B:PRO:540:C:9853, V-A:ASP:366:CG:3213, V-A:LEU:475:CD2:4259, H-A:TYR:539:N:4870, V-B:ASP:366:CG:8185, V-A:PRO:540:CA:4883, V-A:PRO:540:N:4884, V-A:PRO:540:CB:4885, V-A:LEU:363:CD1:3189, H-A:ALA:541:N:4891, V-A:PRO:540:CD:4887, V-A:ILE:538:CA:4860, V-A:ILE:538:CB:4862, V-A:ILE:538:CG2:4863, H-A:TYR:531:OH:4795, V-B:ARG:545:CZ:9898, V-B:ARG:545:CD:9895, V-B:ARG:545:CG:9894, V-A:PRO:540:CG:4886, V-A:ILE:538:CD1:4865, V-B:ALA:541:CA:9862, V-B:GLY:454:CA:9021, H-B:TYR:484:OH:9320, H-B:GLY:454:N:9022, V-B:GLY:453:C:9014, V-B:GLY:453:CA:9016"]

$$$$
8c_Ghoteimi_2023
     RDKit          3D

 54 58  0  0  0  0  0  0  0  0999 V2000
  123.8960  132.4460   62.0890 C   0  0  0  0  0  0  0  0  0  0  0  0
  123.8630  131.1790   62.7360 O   0  0  0  0  0  0  0  0  0  0  0  0
  124.6900  130.1690   62.2820 C   0  0  0  0  0  0  0  0  0  0  0  0
  125.3490  129.4200   63.2550 C   0  0  0  0  0  0  0  0  0  0  0  0
  126.2050  128.3840   62.8910 C   0  0  0  0  0  0  0  0  0  0  0  0
  126.4240  128.0710   61.5420 C   0  0  0  0  0  0  0  0  0  0  0  0
  127.3450  126.9620   61.1440 C   0  0  0  0  0  0  0  0  0  0  0  0
  128.1460  127.0430   60.0000 C   0  0  0  0  0  0  0  0  0  0  0  0
  129.0010  125.9920   59.6520 C   0  0  0  0  0  0  0  0  0  0  0  0
  129.8290  126.1060   58.4300 C   0  0  0  0  0  0  0  0  0  0  0  0
  129.2250  126.1340   57.1700 C   0  0  0  0  0  0  0  0  0  0  0  0
  130.0050  126.2510   56.0240 C   0  0  0  0  0  0  0  0  0  0  0  0
  131.3950  126.3370   56.1160 C   0  0  0  0  0  0  0  0  0  0  0  0
  132.0860  126.4530   54.9250 O   0  0  0  0  0  0  0  0  0  0  0  0
  131.6200  125.7500   53.7790 C   0  0  0  0  0  0  0  0  0  0  0  0
  132.0000  126.3040   57.3820 C   0  0  0  0  0  0  0  0  0  0  0  0
  131.2190  126.1880   58.5290 C   0  0  0  0  0  0  0  0  0  0  0  0
  129.0340  124.8490   60.4950 C   0  0  0  0  0  0  0  0  0  0  0  0
  129.7780  123.6190   60.4430 C   0  0  0  0  0  0  0  0  0  0  0  0
  130.6750  123.3450   59.4410 N   0  0  0  0  0  0  0  0  0  0  0  0
  129.5000  122.7400   61.5020 C   0  0  0  0  0  0  0  0  0  0  0  0
  130.0710  121.4170   61.7630 C   0  0  0  0  0  0  0  0  0  0  0  0
  130.6310  121.1730   62.8340 O   0  0  0  0  0  0  0  0  0  0  0  0
  129.9370  120.5170   60.7570 N   0  0  0  0  0  0  0  0  0  0  0  0
  130.3830  119.2030   60.7490 C   0  0  0  0  0  0  0  0  0  0  0  0
  129.8560  118.1670   61.3650 N   0  0  0  0  0  0  0  0  0  0  0  0
  130.5410  117.0650   61.1330 C   0  0  0  0  0  0  0  0  0  0  0  0
  131.6560  117.1950   60.3110 C   0  0  0  0  0  0  0  0  0  0  0  0
  131.8060  118.8560   59.8210 S   0  0  0  0  0  0  0  0  0  0  0  0
  128.3020  123.4250   62.6000 S   0  0  0  0  0  0  0  0  0  0  0  0
  128.1800  124.8780   61.6350 C   0  0  0  0  0  0  0  0  0  0  0  0
  127.3630  125.8780   61.9670 N   0  0  0  0  0  0  0  0  0  0  0  0
  125.7560  128.8280   60.5690 C   0  0  0  0  0  0  0  0  0  0  0  0
  124.9000  129.8640   60.9300 C   0  0  0  0  0  0  0  0  0  0  0  0
  123.9168  133.2438   62.8460 H   0  0  0  0  0  0  0  0  0  0  0  0
  124.7962  132.5134   61.4604 H   0  0  0  0  0  0  0  0  0  0  0  0
  123.0005  132.5602   61.4604 H   0  0  0  0  0  0  0  0  0  0  0  0
  125.1916  129.6491   64.3193 H   0  0  0  0  0  0  0  0  0  0  0  0
  126.7165  127.8031   63.6726 H   0  0  0  0  0  0  0  0  0  0  0  0
  128.1031  127.9421   59.3678 H   0  0  0  0  0  0  0  0  0  0  0  0
  128.1306  126.0634   57.0842 H   0  0  0  0  0  0  0  0  0  0  0  0
  129.5217  126.2760   55.0362 H   0  0  0  0  0  0  0  0  0  0  0  0
  131.0384  124.8727   54.0984 H   0  0  0  0  0  0  0  0  0  0  0  0
  130.9821  126.4132   53.1763 H   0  0  0  0  0  0  0  0  0  0  0  0
  132.4793  125.4207   53.1763 H   0  0  0  0  0  0  0  0  0  0  0  0
  133.0946  126.3700   57.4684 H   0  0  0  0  0  0  0  0  0  0  0  0
  131.6998  126.1608   59.5180 H   0  0  0  0  0  0  0  0  0  0  0  0
  131.5140  122.8090   59.6180 H   0  0  0  0  0  0  0  0  0  0  0  0
  130.5310  123.6690   58.4960 H   0  0  0  0  0  0  0  0  0  0  0  0
  129.4590  120.8240   59.9230 H   0  0  0  0  0  0  0  0  0  0  0  0
  130.2476  116.0969   61.5650 H   0  0  0  0  0  0  0  0  0  0  0  0
  132.3330  116.3788   60.0186 H   0  0  0  0  0  0  0  0  0  0  0  0
  125.9110  128.5995   59.5042 H   0  0  0  0  0  0  0  0  0  0  0  0
  124.3859  130.4462   60.1510 H   0  0  0  0  0  0  0  0  0  0  0  0
  1  2  1  0
  2  3  1  0
  3  4  2  0
  4  5  1  0
  5  6  2  0
  6  7  1  0
  7  8  2  0
  8  9  1  0
  9 10  1  0
 10 11  2  0
 11 12  1  0
 12 13  2  0
 13 14  1  0
 14 15  1  0
 13 16  1  0
 16 17  2  0
  9 18  2  0
 18 19  1  0
 19 20  1  0
 19 21  2  0
 21 22  1  0
 22 23  2  0
 22 24  1  0
 24 25  1  0
 25 26  2  0
 26 27  1  0
 27 28  2  0
 28 29  1  0
 21 30  1  0
 30 31  1  0
 31 32  2  0
  6 33  1  0
 33 34  2  0
 34  3  1  0
 32  7  1  0
 17 10  1  0
 31 18  1  0
 29 25  1  0
  1 35  1  0
  1 36  1  0
  1 37  1  0
  4 38  1  0
  5 39  1  0
  8 40  1  0
 11 41  1  0
 12 42  1  0
 15 43  1  0
 15 44  1  0
 15 45  1  0
 16 46  1  0
 17 47  1  0
 20 48  1  0
 20 49  1  0
 24 50  1  0
 27 51  1  0
 28 52  1  0
 33 53  1  0
 34 54  1  0
M  END
>  <Binding energies>  (1) 
[-6.73]

>  <Ligand effiencies>  (1) 
[-0.1818918918918919]

>  <Interactions>  (1) 
["V-B:GLU:543:CD:9880, V-B:TYR:539:C:9839, V-B:TYR:539:CE2:9848, V-B:TYR:539:CD2:9846, V-B:MET:535:CE:9807, V-B:ALA:541:CB:9864, V-B:TYR:539:CZ:9849, V-A:SER:385:CB:3409, V-A:PRO:482:CB:4326, V-A:LEU:475:CD1:4258, H-A:TYR:484:OH:4348, V-A:ASP:366:CG:3213, V-A:LEU:475:CD2:4259, V-A:LEU:475:CG:4257, V-A:ASP:366:CB:3212, V-A:PRO:482:CG:4327, V-A:TYR:531:CZ:4794, V-B:ASP:366:CG:8185, V-A:MET:535:CE:4835, V-A:TYR:531:CE1:4792, V-A:ASN:370:CB:3245, H-B:ARG:545:NH2:9900, H-B:TYR:539:OH:9850, V-B:LEU:475:CD2:9231, H-A:TYR:531:OH:4795, V-B:ARG:545:CZ:9898, H-B:TYR:539:O:9840, V-B:ILE:369:CD1:8211, V-B:GLU:543:CG:9879, V-B:GLY:454:CA:9021, H-B:GLY:454:N:9022, V-A:ASN:370:CG:3246"]

$$$$
8d_Ghoteimi_2023
     RDKit          3D

 50 53  0  0  0  0  0  0  0  0999 V2000
  126.5880  122.7660   54.7570 C   0  0  0  0  0  0  0  0  0  0  0  0
  126.4960  122.0290   55.9680 O   0  0  0  0  0  0  0  0  0  0  0  0
  125.7970  122.5160   57.0270 C   0  0  0  0  0  0  0  0  0  0  0  0
  124.5780  122.3890   57.1660 O   0  0  0  0  0  0  0  0  0  0  0  0
  126.6530  123.2200   58.0070 C   0  0  0  0  0  0  0  0  0  0  0  0
  128.0980  122.4300   58.6410 S   0  0  0  0  0  0  0  0  0  0  0  0
  128.4700  123.8220   59.6320 C   0  0  0  0  0  0  0  0  0  0  0  0
  129.5430  123.8550   60.4240 N   0  0  0  0  0  0  0  0  0  0  0  0
  129.7400  124.9870   61.1510 C   0  0  0  0  0  0  0  0  0  0  0  0
  130.9470  124.9960   62.0350 C   0  0  0  0  0  0  0  0  0  0  0  0
  130.9620  125.7220   63.2340 C   0  0  0  0  0  0  0  0  0  0  0  0
  132.0880  125.7280   64.0520 C   0  0  0  0  0  0  0  0  0  0  0  0
  133.2290  125.0100   63.6940 C   0  0  0  0  0  0  0  0  0  0  0  0
  134.2980  125.0730   64.5650 O   0  0  0  0  0  0  0  0  0  0  0  0
  134.0570  124.9960   65.9670 C   0  0  0  0  0  0  0  0  0  0  0  0
  133.2240  124.2790   62.4970 C   0  0  0  0  0  0  0  0  0  0  0  0
  132.0950  124.2750   61.6820 C   0  0  0  0  0  0  0  0  0  0  0  0
  128.8650  126.0750   61.0910 C   0  0  0  0  0  0  0  0  0  0  0  0
  127.7420  126.0410   60.2580 C   0  0  0  0  0  0  0  0  0  0  0  0
  126.8380  127.2140   60.2090 C   0  0  0  0  0  0  0  0  0  0  0  0
  126.5860  127.8570   58.9950 C   0  0  0  0  0  0  0  0  0  0  0  0
  125.7440  128.9640   58.9510 C   0  0  0  0  0  0  0  0  0  0  0  0
  125.1380  129.4410   60.1140 C   0  0  0  0  0  0  0  0  0  0  0  0
  124.3190  130.5450   59.9750 O   0  0  0  0  0  0  0  0  0  0  0  0
  124.0340  131.0380   58.6710 C   0  0  0  0  0  0  0  0  0  0  0  0
  125.3900  128.7900   61.3330 C   0  0  0  0  0  0  0  0  0  0  0  0
  126.2330  127.6840   61.3760 C   0  0  0  0  0  0  0  0  0  0  0  0
  127.5180  124.8700   59.4870 C   0  0  0  0  0  0  0  0  0  0  0  0
  126.4910  124.4980   58.5530 C   0  0  0  0  0  0  0  0  0  0  0  0
  125.4450  125.3280   58.2350 N   0  0  0  0  0  0  0  0  0  0  0  0
  126.7213  123.8335   54.9866 H   0  0  0  0  0  0  0  0  0  0  0  0
  127.4482  122.4063   54.1733 H   0  0  0  0  0  0  0  0  0  0  0  0
  125.6658  122.6288   54.1733 H   0  0  0  0  0  0  0  0  0  0  0  0
  130.0716  126.2948   63.5325 H   0  0  0  0  0  0  0  0  0  0  0  0
  132.0780  126.3040   64.9891 H   0  0  0  0  0  0  0  0  0  0  0  0
  134.9672  125.2868   66.5120 H   0  0  0  0  0  0  0  0  0  0  0  0
  133.2355  125.6764   66.2358 H   0  0  0  0  0  0  0  0  0  0  0  0
  133.7822  123.9653   66.2358 H   0  0  0  0  0  0  0  0  0  0  0  0
  134.1155  123.7066   62.2009 H   0  0  0  0  0  0  0  0  0  0  0  0
  132.1047  123.6966   60.7464 H   0  0  0  0  0  0  0  0  0  0  0  0
  129.0613  126.9665   61.7047 H   0  0  0  0  0  0  0  0  0  0  0  0
  127.0545  127.4873   58.0710 H   0  0  0  0  0  0  0  0  0  0  0  0
  125.5545  129.4673   57.9914 H   0  0  0  0  0  0  0  0  0  0  0  0
  123.4849  131.9879   58.7500 H   0  0  0  0  0  0  0  0  0  0  0  0
  124.9760  131.2031   58.1275 H   0  0  0  0  0  0  0  0  0  0  0  0
  123.4208  130.3041   58.1275 H   0  0  0  0  0  0  0  0  0  0  0  0
  124.9190  129.1561   62.2572 H   0  0  0  0  0  0  0  0  0  0  0  0
  126.4236  127.1777   62.3338 H   0  0  0  0  0  0  0  0  0  0  0  0
  125.4650  125.9090   57.4090 H   0  0  0  0  0  0  0  0  0  0  0  0
  124.6180  125.3820   58.8120 H   0  0  0  0  0  0  0  0  0  0  0  0
  1  2  1  0
  2  3  1  0
  3  4  2  0
  3  5  1  0
  5  6  1  0
  6  7  1  0
  7  8  2  0
  8  9  1  0
  9 10  1  0
 10 11  2  0
 11 12  1  0
 12 13  2  0
 13 14  1  0
 14 15  1  0
 13 16  1  0
 16 17  2  0
  9 18  2  0
 18 19  1  0
 19 20  1  0
 20 21  2  0
 21 22  1  0
 22 23  2  0
 23 24  1  0
 24 25  1  0
 23 26  1  0
 26 27  2  0
 19 28  2  0
 28 29  1  0
 29 30  1  0
 29  5  2  0
 28  7  1  0
 17 10  1  0
 27 20  1  0
  1 31  1  0
  1 32  1  0
  1 33  1  0
 11 34  1  0
 12 35  1  0
 15 36  1  0
 15 37  1  0
 15 38  1  0
 16 39  1  0
 17 40  1  0
 18 41  1  0
 21 42  1  0
 22 43  1  0
 25 44  1  0
 25 45  1  0
 25 46  1  0
 26 47  1  0
 27 48  1  0
 30 49  1  0
 30 50  1  0
M  END
>  <Binding energies>  (1) 
[-7.75]

>  <Ligand effiencies>  (1) 
[-0.2421875]

>  <Interactions>  (1) 
["V-B:ILE:538:CD1:9837, V-B:PRO:540:CB:9857, V-B:PRO:540:CD:9859, V-B:TYR:539:C:9839, V-B:PRO:540:CA:9855, H-B:TYR:539:N:9842, V-B:TYR:539:CE2:9848, V-B:TYR:539:CD2:9846, V-B:ILE:538:CA:9832, V-B:MET:535:CE:9807, H-B:ASP:366:OD2:8187, V-B:PRO:540:N:9856, V-A:GLY:453:C:4042, H-A:TYR:484:OH:4348, V-B:TYR:539:CG:9844, V-B:TYR:531:CZ:9766, V-A:GLY:454:CA:4049, V-A:TYR:539:CE1:4875, V-B:ASP:366:CG:8185, V-B:ASP:366:CB:8184, V-A:GLU:543:CD:4908, H-A:GLY:454:N:4050, H-A:ARG:545:NH1:4927, H-A:ARG:545:NH2:4928, V-A:ARG:545:CZ:4926, H-B:TYR:531:OH:9767, V-A:ILE:455:C:4052, V-A:TYR:484:CE2:4346, H-A:ARG:545:NE:4924, V-A:TYR:484:CZ:4347, V-A:ARG:545:CG:4922, V-A:ARG:545:CD:4923, V-B:ASP:366:CA:8182"]

$$$$
9a_Ghoteimi_2023
     RDKit          3D

 85 91  0  0  0  0  0  0  0  0999 V2000
  131.7480  132.7990   55.3250 C   0  0  0  0  0  0  0  0  0  0  0  0
  130.8200  132.3600   54.1870 C   0  0  0  0  0  0  0  0  0  0  0  0
  129.5630  133.0130   54.3230 O   0  0  0  0  0  0  0  0  0  0  0  0
  128.4320  132.3080   54.5800 C   0  0  0  0  0  0  0  0  0  0  0  0
  127.4790  132.2410   53.7960 O   0  0  0  0  0  0  0  0  0  0  0  0
  128.4490  131.6240   55.9160 C   0  0  0  0  0  0  0  0  0  0  0  0
  129.1360  132.2180   56.9820 C   0  0  0  0  0  0  0  0  0  0  0  0
  129.1720  131.6080   58.2320 C   0  0  0  0  0  0  0  0  0  0  0  0
  128.5210  130.3930   58.4440 C   0  0  0  0  0  0  0  0  0  0  0  0
  128.6250  129.8680   59.7470 N   0  0  0  0  0  0  0  0  0  0  0  0
  127.7150  129.8260   60.7530 C   0  0  0  0  0  0  0  0  0  0  0  0
  126.5720  130.2750   60.6700 O   0  0  0  0  0  0  0  0  0  0  0  0
  128.1780  129.1890   61.9890 C   0  0  0  0  0  0  0  0  0  0  0  0
  127.9830  130.0060   63.5400 S   0  0  0  0  0  0  0  0  0  0  0  0
  128.7170  128.6670   64.3900 C   0  0  0  0  0  0  0  0  0  0  0  0
  128.8520  128.6710   65.7150 N   0  0  0  0  0  0  0  0  0  0  0  0
  129.4260  127.5750   66.2800 C   0  0  0  0  0  0  0  0  0  0  0  0
  129.5580  127.5960   67.7680 C   0  0  0  0  0  0  0  0  0  0  0  0
  128.6320  126.9240   68.5750 C   0  0  0  0  0  0  0  0  0  0  0  0
  128.7490  126.9380   69.9620 C   0  0  0  0  0  0  0  0  0  0  0  0
  129.8040  127.6140   70.5950 C   0  0  0  0  0  0  0  0  0  0  0  0
  129.9230  127.6530   71.9880 N   0  0  0  0  0  0  0  0  0  0  0  0
  131.2020  127.3540   72.6620 C   0  0  0  0  0  0  0  0  0  0  0  0
  131.0620  127.0910   74.1760 C   0  0  0  0  0  0  0  0  0  0  0  0
  130.4000  128.1780   74.8000 O   0  0  0  0  0  0  0  0  0  0  0  0
  129.0980  128.3680   74.2680 C   0  0  0  0  0  0  0  0  0  0  0  0
  129.1850  128.6750   72.7590 C   0  0  0  0  0  0  0  0  0  0  0  0
  130.7200  128.2980   69.7830 C   0  0  0  0  0  0  0  0  0  0  0  0
  130.6010  128.2860   68.3960 C   0  0  0  0  0  0  0  0  0  0  0  0
  129.8840  126.4970   65.5190 C   0  0  0  0  0  0  0  0  0  0  0  0
  129.7610  126.4980   64.1250 C   0  0  0  0  0  0  0  0  0  0  0  0
  130.2980  125.3430   63.3610 C   0  0  0  0  0  0  0  0  0  0  0  0
  131.6600  125.2590   63.0610 C   0  0  0  0  0  0  0  0  0  0  0  0
  132.1630  124.1690   62.3570 C   0  0  0  0  0  0  0  0  0  0  0  0
  131.3190  123.1230   61.9490 C   0  0  0  0  0  0  0  0  0  0  0  0
  131.8000  122.0250   61.2320 N   0  0  0  0  0  0  0  0  0  0  0  0
  133.0670  122.1520   60.4840 C   0  0  0  0  0  0  0  0  0  0  0  0
  133.6670  120.7930   60.0650 C   0  0  0  0  0  0  0  0  0  0  0  0
  132.7140  120.0480   59.3230 O   0  0  0  0  0  0  0  0  0  0  0  0
  131.5420  119.7930   60.0810 C   0  0  0  0  0  0  0  0  0  0  0  0
  130.8850  121.1250   60.5010 C   0  0  0  0  0  0  0  0  0  0  0  0
  129.9550  123.2160   62.2580 C   0  0  0  0  0  0  0  0  0  0  0  0
  129.4510  124.3080   62.9580 C   0  0  0  0  0  0  0  0  0  0  0  0
  129.1310  127.6200   63.5150 C   0  0  0  0  0  0  0  0  0  0  0  0
  128.7880  127.9350   62.1500 C   0  0  0  0  0  0  0  0  0  0  0  0
  129.0290  127.0730   61.1110 N   0  0  0  0  0  0  0  0  0  0  0  0
  127.8270  129.7900   57.3840 C   0  0  0  0  0  0  0  0  0  0  0  0
  127.7930  130.4020   56.1330 C   0  0  0  0  0  0  0  0  0  0  0  0
  131.2739  132.5747   56.2919 H   0  0  0  0  0  0  0  0  0  0  0  0
  132.7021  132.2568   55.2499 H   0  0  0  0  0  0  0  0  0  0  0  0
  131.9340  133.8806   55.2499 H   0  0  0  0  0  0  0  0  0  0  0  0
  131.2711  132.6301   53.2208 H   0  0  0  0  0  0  0  0  0  0  0  0
  130.6746  131.2706   54.2313 H   0  0  0  0  0  0  0  0  0  0  0  0
  129.6527  133.1771   56.8295 H   0  0  0  0  0  0  0  0  0  0  0  0
  129.7175  132.0872   59.0584 H   0  0  0  0  0  0  0  0  0  0  0  0
  129.5230  129.4570   59.9530 H   0  0  0  0  0  0  0  0  0  0  0  0
  127.8004  126.3773   68.1064 H   0  0  0  0  0  0  0  0  0  0  0  0
  128.0017  126.4101   70.5727 H   0  0  0  0  0  0  0  0  0  0  0  0
  131.6400  126.4601   72.1938 H   0  0  0  0  0  0  0  0  0  0  0  0
  131.8390  128.2436   72.5491 H   0  0  0  0  0  0  0  0  0  0  0  0
  130.4792  126.1714   74.3332 H   0  0  0  0  0  0  0  0  0  0  0  0
  132.0639  126.9790   74.6161 H   0  0  0  0  0  0  0  0  0  0  0  0
  128.5052  127.4540   74.4203 H   0  0  0  0  0  0  0  0  0  0  0  0
  128.6177  129.2138   74.7817 H   0  0  0  0  0  0  0  0  0  0  0  0
  128.1627  128.7416   72.3584 H   0  0  0  0  0  0  0  0  0  0  0  0
  129.7385  129.6198   72.6539 H   0  0  0  0  0  0  0  0  0  0  0  0
  131.5467  128.8535   70.2499 H   0  0  0  0  0  0  0  0  0  0  0  0
  131.3380  128.8271   67.7844 H   0  0  0  0  0  0  0  0  0  0  0  0
  130.3476  125.6357   66.0222 H   0  0  0  0  0  0  0  0  0  0  0  0
  132.3402  126.0609   63.3839 H   0  0  0  0  0  0  0  0  0  0  0  0
  133.2356  124.1260   62.1169 H   0  0  0  0  0  0  0  0  0  0  0  0
  132.8791  122.7453   59.5770 H   0  0  0  0  0  0  0  0  0  0  0  0
  133.7933  122.6367   61.1530 H   0  0  0  0  0  0  0  0  0  0  0  0
  134.5584  120.9647   59.4438 H   0  0  0  0  0  0  0  0  0  0  0  0
  133.9432  120.2275   60.9672 H   0  0  0  0  0  0  0  0  0  0  0  0
  130.8330  119.2133   59.4717 H   0  0  0  0  0  0  0  0  0  0  0  0
  131.8118  119.2233   60.9825 H   0  0  0  0  0  0  0  0  0  0  0  0
  130.5363  121.6428   59.5953 H   0  0  0  0  0  0  0  0  0  0  0  0
  130.0580  120.8785   61.1831 H   0  0  0  0  0  0  0  0  0  0  0  0
  129.2723  122.4133   61.9423 H   0  0  0  0  0  0  0  0  0  0  0  0
  128.3781  124.3565   63.1956 H   0  0  0  0  0  0  0  0  0  0  0  0
  128.2860  126.5440   60.6750 H   0  0  0  0  0  0  0  0  0  0  0  0
  129.9610  126.9360   60.7460 H   0  0  0  0  0  0  0  0  0  0  0  0
  127.3089  128.8324   57.5411 H   0  0  0  0  0  0  0  0  0  0  0  0
  127.2467  129.9230   55.3071 H   0  0  0  0  0  0  0  0  0  0  0  0
  1  2  1  0
  2  3  1  0
  3  4  1  0
  4  5  2  0
  4  6  1  0
  6  7  2  0
  7  8  1  0
  8  9  2  0
  9 10  1  0
 10 11  1  0
 11 12  2  0
 11 13  1  0
 13 14  1  0
 14 15  1  0
 15 16  2  0
 16 17  1  0
 17 18  1  0
 18 19  2  0
 19 20  1  0
 20 21  2  0
 21 22  1  0
 22 23  1  0
 23 24  1  0
 24 25  1  0
 25 26  1  0
 26 27  1  0
 21 28  1  0
 28 29  2  0
 17 30  2  0
 30 31  1  0
 31 32  1  0
 32 33  2  0
 33 34  1  0
 34 35  2  0
 35 36  1  0
 36 37  1  0
 37 38  1  0
 38 39  1  0
 39 40  1  0
 40 41  1  0
 35 42  1  0
 42 43  2  0
 31 44  2  0
 44 45  1  0
 45 46  1  0
  9 47  1  0
 47 48  2  0
 48  6  1  0
 45 13  2  0
 44 15  1  0
 29 18  1  0
 43 32  1  0
 27 22  1  0
 41 36  1  0
  1 49  1  0
  1 50  1  0
  1 51  1  0
  2 52  1  0
  2 53  1  0
  7 54  1  0
  8 55  1  0
 10 56  1  0
 19 57  1  0
 20 58  1  0
 23 59  1  0
 23 60  1  0
 24 61  1  0
 24 62  1  0
 26 63  1  0
 26 64  1  0
 27 65  1  0
 27 66  1  0
 28 67  1  0
 29 68  1  0
 30 69  1  0
 33 70  1  0
 34 71  1  0
 37 72  1  0
 37 73  1  0
 38 74  1  0
 38 75  1  0
 40 76  1  0
 40 77  1  0
 41 78  1  0
 41 79  1  0
 42 80  1  0
 43 81  1  0
 46 82  1  0
 46 83  1  0
 47 84  1  0
 48 85  1  0
M  END
>  <Binding energies>  (1) 
[-2.53]

>  <Ligand effiencies>  (1) 
[-0.0496078431372549]

>  <Interactions>  (1) 
["V-B:GLU:543:CD:9880, V-B:TYR:539:CE2:9848, V-B:TYR:539:CD2:9846, V-A:SER:385:CB:3409, V-A:LEU:475:CD2:4259, V-A:ILE:369:CD1:3239, V-A:ILE:369:CG2:3237, H-A:TYR:539:N:4870, V-A:TYR:539:CZ:4877, V-A:TYR:539:C:4867, V-A:PRO:540:N:4884, V-A:TYR:539:CE2:4876, H-B:LYS:534:NZ:9795, V-A:LEU:363:CD1:3189, V-A:GLU:543:CD:4908, H-A:GLU:543:OE1:4909, V-A:PRO:540:CD:4887, V-A:GLU:543:CG:4907, V-A:SER:385:C:3405, V-A:HIS:456:CE1:4070, V-A:ILE:538:CA:4860, V-A:ILE:538:CB:4862, V-A:TYR:484:CZ:4347, V-A:ILE:538:CG2:4863, H-A:TYR:539:OH:4878, V-A:GLU:543:C:4902, V-B:GLU:543:CB:9878, V-A:GLU:543:CB:4906, V-A:GLY:544:C:4912, V-A:HIS:456:CD2:4068, V-A:HIS:456:CG:4066, H-A:LYS:547:NZ:4951, V-A:HIS:456:CB:4065, V-A:GLY:544:CA:4914, V-B:HIS:456:CD2:9040, V-B:HIS:456:CE1:9042, V-A:TYR:539:CD2:4874, V-A:TYR:539:CG:4872, V-B:GLU:543:CG:9879, V-A:SER:385:CA:3407, V-A:GLU:543:CA:4904"]

$$$$
9b_Ghoteimi_2023
     RDKit          3D

 72 78  0  0  0  0  0  0  0  0999 V2000
  127.6850  129.1380   58.1290 N   0  0  0  0  0  0  0  0  0  0  0  0
  127.9220  129.8250   59.2930 C   0  0  0  0  0  0  0  0  0  0  0  0
  128.3170  131.1710   59.3290 C   0  0  0  0  0  0  0  0  0  0  0  0
  128.5280  132.0920   58.2090 C   0  0  0  0  0  0  0  0  0  0  0  0
  128.1220  133.2550   58.2670 O   0  0  0  0  0  0  0  0  0  0  0  0
  129.1790  131.5710   57.1400 N   0  0  0  0  0  0  0  0  0  0  0  0
  129.5000  132.2090   55.9490 C   0  0  0  0  0  0  0  0  0  0  0  0
  128.6640  132.2040   54.8340 C   0  0  0  0  0  0  0  0  0  0  0  0
  129.3330  132.9380   53.8810 C   0  0  0  0  0  0  0  0  0  0  0  0
  130.5110  133.3630   54.3980 O   0  0  0  0  0  0  0  0  0  0  0  0
  130.6050  132.8950   55.7080 N   0  0  0  0  0  0  0  0  0  0  0  0
  128.5620  131.7190   60.9870 S   0  0  0  0  0  0  0  0  0  0  0  0
  128.1520  130.1420   61.6170 C   0  0  0  0  0  0  0  0  0  0  0  0
  128.1800  129.8830   62.9230 N   0  0  0  0  0  0  0  0  0  0  0  0
  127.8620  128.6190   63.3090 C   0  0  0  0  0  0  0  0  0  0  0  0
  127.9210  128.3500   64.7770 C   0  0  0  0  0  0  0  0  0  0  0  0
  129.1250  128.0010   65.4010 C   0  0  0  0  0  0  0  0  0  0  0  0
  129.1710  127.7370   66.7670 C   0  0  0  0  0  0  0  0  0  0  0  0
  128.0130  127.7980   67.5560 C   0  0  0  0  0  0  0  0  0  0  0  0
  128.0450  127.5380   68.9310 N   0  0  0  0  0  0  0  0  0  0  0  0
  129.3020  127.6240   69.7010 C   0  0  0  0  0  0  0  0  0  0  0  0
  129.0960  127.6500   71.2300 C   0  0  0  0  0  0  0  0  0  0  0  0
  128.3280  126.5290   71.6350 O   0  0  0  0  0  0  0  0  0  0  0  0
  127.0470  126.5290   71.0280 C   0  0  0  0  0  0  0  0  0  0  0  0
  127.1870  126.4720   69.4910 C   0  0  0  0  0  0  0  0  0  0  0  0
  126.8140  128.1670   66.9300 C   0  0  0  0  0  0  0  0  0  0  0  0
  126.7680  128.4350   65.5650 C   0  0  0  0  0  0  0  0  0  0  0  0
  127.4920  127.6300   62.3930 C   0  0  0  0  0  0  0  0  0  0  0  0
  127.4410  127.9040   61.0210 C   0  0  0  0  0  0  0  0  0  0  0  0
  127.0130  126.8270   60.0920 C   0  0  0  0  0  0  0  0  0  0  0  0
  126.1250  127.1060   59.0520 C   0  0  0  0  0  0  0  0  0  0  0  0
  125.7370  126.1040   58.1690 C   0  0  0  0  0  0  0  0  0  0  0  0
  126.2250  124.7940   58.3020 C   0  0  0  0  0  0  0  0  0  0  0  0
  125.8610  123.7770   57.4160 N   0  0  0  0  0  0  0  0  0  0  0  0
  126.9070  123.0940   56.6300 C   0  0  0  0  0  0  0  0  0  0  0  0
  126.3450  122.2990   55.4320 C   0  0  0  0  0  0  0  0  0  0  0  0
  125.3690  121.3710   55.8810 O   0  0  0  0  0  0  0  0  0  0  0  0
  124.2830  122.0200   56.5250 C   0  0  0  0  0  0  0  0  0  0  0  0
  124.7920  122.8130   57.7480 C   0  0  0  0  0  0  0  0  0  0  0  0
  127.1310  124.5310   59.3390 C   0  0  0  0  0  0  0  0  0  0  0  0
  127.5200  125.5340   60.2240 C   0  0  0  0  0  0  0  0  0  0  0  0
  127.8050  129.2120   60.5920 C   0  0  0  0  0  0  0  0  0  0  0  0
  128.2560  128.3530   57.8480 H   0  0  0  0  0  0  0  0  0  0  0  0
  126.9280  129.3940   57.5110 H   0  0  0  0  0  0  0  0  0  0  0  0
  129.4740  130.6070   57.2080 H   0  0  0  0  0  0  0  0  0  0  0  0
  127.6818  131.7184   54.7366 H   0  0  0  0  0  0  0  0  0  0  0  0
  128.9698  133.1460   52.8637 H   0  0  0  0  0  0  0  0  0  0  0  0
  130.0465  127.9346   64.8040 H   0  0  0  0  0  0  0  0  0  0  0  0
  130.1315  127.4762   67.2354 H   0  0  0  0  0  0  0  0  0  0  0  0
  129.9229  126.7515   69.4496 H   0  0  0  0  0  0  0  0  0  0  0  0
  129.7811  128.5753   69.4264 H   0  0  0  0  0  0  0  0  0  0  0  0
  130.0753  127.6205   71.7301 H   0  0  0  0  0  0  0  0  0  0  0  0
  128.5633  128.5717   71.5069 H   0  0  0  0  0  0  0  0  0  0  0  0
  126.4805  125.6520   71.3743 H   0  0  0  0  0  0  0  0  0  0  0  0
  126.5169  127.4516   71.3069 H   0  0  0  0  0  0  0  0  0  0  0  0
  127.6203  125.4985   69.2179 H   0  0  0  0  0  0  0  0  0  0  0  0
  126.1805  126.6168   69.0716 H   0  0  0  0  0  0  0  0  0  0  0  0
  125.8940  128.2460   67.5278 H   0  0  0  0  0  0  0  0  0  0  0  0
  125.8122  128.7175   65.0994 H   0  0  0  0  0  0  0  0  0  0  0  0
  127.2375  126.6229   62.7550 H   0  0  0  0  0  0  0  0  0  0  0  0
  125.7294  128.1251   58.9299 H   0  0  0  0  0  0  0  0  0  0  0  0
  125.0373  126.3412   57.3541 H   0  0  0  0  0  0  0  0  0  0  0  0
  127.6085  123.8509   56.2493 H   0  0  0  0  0  0  0  0  0  0  0  0
  127.4002  122.3731   57.2986 H   0  0  0  0  0  0  0  0  0  0  0  0
  125.8836  122.9956   54.7166 H   0  0  0  0  0  0  0  0  0  0  0  0
  127.1655  121.7527   54.9439 H   0  0  0  0  0  0  0  0  0  0  0  0
  123.8004  122.7109   55.8180 H   0  0  0  0  0  0  0  0  0  0  0  0
  123.5583  121.2638   56.8611 H   0  0  0  0  0  0  0  0  0  0  0  0
  123.9460  123.3658   58.1824 H   0  0  0  0  0  0  0  0  0  0  0  0
  125.2178  122.0849   58.4540 H   0  0  0  0  0  0  0  0  0  0  0  0
  127.5410  123.5170   59.4556 H   0  0  0  0  0  0  0  0  0  0  0  0
  128.2310  125.3052   61.0315 H   0  0  0  0  0  0  0  0  0  0  0  0
  1  2  1  0
  2  3  2  0
  3  4  1  0
  4  5  2  0
  4  6  1  0
  6  7  1  0
  7  8  1  0
  8  9  2  0
  9 10  1  0
 10 11  1  0
  3 12  1  0
 12 13  1  0
 13 14  2  0
 14 15  1  0
 15 16  1  0
 16 17  2  0
 17 18  1  0
 18 19  2  0
 19 20  1  0
 20 21  1  0
 21 22  1  0
 22 23  1  0
 23 24  1  0
 24 25  1  0
 19 26  1  0
 26 27  2  0
 15 28  2  0
 28 29  1  0
 29 30  1  0
 30 31  2  0
 31 32  1  0
 32 33  2  0
 33 34  1  0
 34 35  1  0
 35 36  1  0
 36 37  1  0
 37 38  1  0
 38 39  1  0
 33 40  1  0
 40 41  2  0
 29 42  2  0
 42  2  1  0
 11  7  2  0
 42 13  1  0
 27 16  1  0
 41 30  1  0
 25 20  1  0
 39 34  1  0
  1 43  1  0
  1 44  1  0
  6 45  1  0
  8 46  1  0
  9 47  1  0
 17 48  1  0
 18 49  1  0
 21 50  1  0
 21 51  1  0
 22 52  1  0
 22 53  1  0
 24 54  1  0
 24 55  1  0
 25 56  1  0
 25 57  1  0
 26 58  1  0
 27 59  1  0
 28 60  1  0
 31 61  1  0
 32 62  1  0
 35 63  1  0
 35 64  1  0
 36 65  1  0
 36 66  1  0
 38 67  1  0
 38 68  1  0
 39 69  1  0
 39 70  1  0
 40 71  1  0
 41 72  1  0
M  END
>  <Binding energies>  (1) 
[-5.29]

>  <Ligand effiencies>  (1) 
[-0.11755555555555555]

>  <Interactions>  (1) 
["V-B:ILE:538:CD1:9837, V-B:PRO:540:CB:9857, V-B:PRO:540:CD:9859, V-B:LEU:363:CD1:8161, V-B:GLU:543:CD:9880, V-B:PRO:540:CA:9855, H-B:TYR:539:N:9842, V-B:ILE:538:CG2:9835, V-B:ILE:538:CA:9832, V-B:PRO:540:N:9856, V-B:TYR:531:CZ:9766, H-A:TYR:539:N:4870, V-B:ASP:366:CG:8185, V-A:TYR:539:CZ:4877, V-A:TYR:539:C:4867, V-B:ASP:366:CB:8184, V-A:TYR:539:CE2:4876, V-B:ILE:538:C:9830, V-B:ILE:538:CB:9834, V-A:GLU:543:CD:4908, V-A:GLU:543:CG:4907, V-A:HIS:456:CE1:4070, V-A:ILE:538:CA:4860, V-A:ILE:538:CB:4862, V-A:ILE:538:CG2:4863, V-B:GLU:543:CB:9878, V-A:GLU:543:CB:4906, V-A:HIS:456:CD2:4068, V-B:HIS:456:CD2:9040, V-B:HIS:456:CE1:9042, V-B:PRO:540:CG:9858, V-A:ILE:538:C:4858, V-A:TYR:539:CD2:4874, V-A:TYR:539:CD1:4873, H-B:LYS:547:NZ:9923, V-B:GLU:543:C:9874, V-B:GLY:544:C:9884, V-B:ARG:545:CA:9891"]

$$$$
9c_Ghoteimi_2023
     RDKit          3D

 72 78  0  0  0  0  0  0  0  0999 V2000
  128.9710  127.3060   61.6670 N   0  0  0  0  0  0  0  0  0  0  0  0
  129.6740  126.7980   62.7290 C   0  0  0  0  0  0  0  0  0  0  0  0
  130.6910  125.8400   62.5960 C   0  0  0  0  0  0  0  0  0  0  0  0
  131.2100  125.2240   61.3710 C   0  0  0  0  0  0  0  0  0  0  0  0
  131.3550  124.0020   61.2920 O   0  0  0  0  0  0  0  0  0  0  0  0
  131.5140  126.0860   60.3700 N   0  0  0  0  0  0  0  0  0  0  0  0
  132.0310  125.7660   59.1220 C   0  0  0  0  0  0  0  0  0  0  0  0
  131.7290  126.3040   57.9600 N   0  0  0  0  0  0  0  0  0  0  0  0
  132.4130  125.7500   56.9770 C   0  0  0  0  0  0  0  0  0  0  0  0
  133.2950  124.7350   57.3370 C   0  0  0  0  0  0  0  0  0  0  0  0
  133.2170  124.5030   59.0580 S   0  0  0  0  0  0  0  0  0  0  0  0
  131.3570  125.3940   64.1660 S   0  0  0  0  0  0  0  0  0  0  0  0
  130.2600  126.4760   64.9900 C   0  0  0  0  0  0  0  0  0  0  0  0
  130.2500  126.5830   66.3180 N   0  0  0  0  0  0  0  0  0  0  0  0
  129.3460  127.4390   66.8610 C   0  0  0  0  0  0  0  0  0  0  0  0
  129.3420  127.5240   68.3530 C   0  0  0  0  0  0  0  0  0  0  0  0
  130.2440  128.3490   69.0340 C   0  0  0  0  0  0  0  0  0  0  0  0
  130.2430  128.4170   70.4240 C   0  0  0  0  0  0  0  0  0  0  0  0
  129.3460  127.6510   71.1860 C   0  0  0  0  0  0  0  0  0  0  0  0
  129.3270  127.7130   72.5840 N   0  0  0  0  0  0  0  0  0  0  0  0
  130.1620  126.8130   73.4050 C   0  0  0  0  0  0  0  0  0  0  0  0
  130.2830  127.2480   74.8810 C   0  0  0  0  0  0  0  0  0  0  0  0
  128.9910  127.3990   75.4480 O   0  0  0  0  0  0  0  0  0  0  0  0
  128.2380  128.3890   74.7660 C   0  0  0  0  0  0  0  0  0  0  0  0
  128.0570  127.9930   73.2850 C   0  0  0  0  0  0  0  0  0  0  0  0
  128.4320  126.8410   70.4970 C   0  0  0  0  0  0  0  0  0  0  0  0
  128.4310  126.7760   69.1060 C   0  0  0  0  0  0  0  0  0  0  0  0
  128.4780  128.2040   66.0770 C   0  0  0  0  0  0  0  0  0  0  0  0
  128.5000  128.1110   64.6810 C   0  0  0  0  0  0  0  0  0  0  0  0
  127.5800  128.9680   63.8920 C   0  0  0  0  0  0  0  0  0  0  0  0
  126.2430  129.1010   64.2700 C   0  0  0  0  0  0  0  0  0  0  0  0
  125.3810  129.9170   63.5420 C   0  0  0  0  0  0  0  0  0  0  0  0
  125.8340  130.6190   62.4150 C   0  0  0  0  0  0  0  0  0  0  0  0
  124.9890  131.4530   61.6760 N   0  0  0  0  0  0  0  0  0  0  0  0
  124.7340  132.8260   62.1540 C   0  0  0  0  0  0  0  0  0  0  0  0
  123.5090  133.4870   61.4850 C   0  0  0  0  0  0  0  0  0  0  0  0
  123.6570  133.4660   60.0730 O   0  0  0  0  0  0  0  0  0  0  0  0
  123.7680  132.1410   59.5770 C   0  0  0  0  0  0  0  0  0  0  0  0
  124.9970  131.4430   60.2000 C   0  0  0  0  0  0  0  0  0  0  0  0
  127.1840  130.4940   62.0560 C   0  0  0  0  0  0  0  0  0  0  0  0
  128.0460  129.6780   62.7840 C   0  0  0  0  0  0  0  0  0  0  0  0
  129.4150  127.1930   64.0910 C   0  0  0  0  0  0  0  0  0  0  0  0
  128.0890  126.9100   61.3730 H   0  0  0  0  0  0  0  0  0  0  0  0
  129.3120  128.0970   61.1400 H   0  0  0  0  0  0  0  0  0  0  0  0
  131.3480  127.0680   60.5370 H   0  0  0  0  0  0  0  0  0  0  0  0
  132.2930  126.0720   55.9321 H   0  0  0  0  0  0  0  0  0  0  0  0
  133.9373  124.1711   56.6446 H   0  0  0  0  0  0  0  0  0  0  0  0
  130.9643  128.9526   68.4623 H   0  0  0  0  0  0  0  0  0  0  0  0
  130.9562  129.0813   70.9339 H   0  0  0  0  0  0  0  0  0  0  0  0
  129.7193  125.8065   73.3754 H   0  0  0  0  0  0  0  0  0  0  0  0
  131.1759  126.8402   72.9792 H   0  0  0  0  0  0  0  0  0  0  0  0
  130.8403  126.4833   75.4420 H   0  0  0  0  0  0  0  0  0  0  0  0
  130.8155  128.2092   74.9326 H   0  0  0  0  0  0  0  0  0  0  0  0
  127.2500  128.4851   75.2400 H   0  0  0  0  0  0  0  0  0  0  0  0
  128.7740  129.3481   74.8187 H   0  0  0  0  0  0  0  0  0  0  0  0
  127.4302  127.0901   73.2414 H   0  0  0  0  0  0  0  0  0  0  0  0
  127.5932  128.8518   72.7777 H   0  0  0  0  0  0  0  0  0  0  0  0
  127.7023  126.2460   71.0658 H   0  0  0  0  0  0  0  0  0  0  0  0
  127.7048  126.1284   68.5930 H   0  0  0  0  0  0  0  0  0  0  0  0
  127.7679  128.8885   66.5640 H   0  0  0  0  0  0  0  0  0  0  0  0
  125.8675  128.5572   65.1494 H   0  0  0  0  0  0  0  0  0  0  0  0
  124.3307  130.0125   63.8548 H   0  0  0  0  0  0  0  0  0  0  0  0
  124.5628  132.7916   63.2400 H   0  0  0  0  0  0  0  0  0  0  0  0
  125.6146  133.4312   61.8927 H   0  0  0  0  0  0  0  0  0  0  0  0
  122.5994  132.9351   61.7642 H   0  0  0  0  0  0  0  0  0  0  0  0
  123.4311  134.5304   61.8246 H   0  0  0  0  0  0  0  0  0  0  0  0
  122.8593  131.5780   59.8364 H   0  0  0  0  0  0  0  0  0  0  0  0
  123.8881  132.1743   58.4841 H   0  0  0  0  0  0  0  0  0  0  0  0
  125.0152  130.3976   59.8581 H   0  0  0  0  0  0  0  0  0  0  0  0
  125.8876  132.0011   59.8755 H   0  0  0  0  0  0  0  0  0  0  0  0
  127.5674  131.0486   61.1868 H   0  0  0  0  0  0  0  0  0  0  0  0
  129.1009  129.5923   62.4842 H   0  0  0  0  0  0  0  0  0  0  0  0
  1  2  1  0
  2  3  2  0
  3  4  1  0
  4  5  2  0
  4  6  1  0
  6  7  1  0
  7  8  2  0
  8  9  1  0
  9 10  2  0
 10 11  1  0
  3 12  1  0
 12 13  1  0
 13 14  2  0
 14 15  1  0
 15 16  1  0
 16 17  2  0
 17 18  1  0
 18 19  2  0
 19 20  1  0
 20 21  1  0
 21 22  1  0
 22 23  1  0
 23 24  1  0
 24 25  1  0
 19 26  1  0
 26 27  2  0
 15 28  2  0
 28 29  1  0
 29 30  1  0
 30 31  2  0
 31 32  1  0
 32 33  2  0
 33 34  1  0
 34 35  1  0
 35 36  1  0
 36 37  1  0
 37 38  1  0
 38 39  1  0
 33 40  1  0
 40 41  2  0
 29 42  2  0
 42  2  1  0
 11  7  1  0
 42 13  1  0
 27 16  1  0
 41 30  1  0
 25 20  1  0
 39 34  1  0
  1 43  1  0
  1 44  1  0
  6 45  1  0
  9 46  1  0
 10 47  1  0
 17 48  1  0
 18 49  1  0
 21 50  1  0
 21 51  1  0
 22 52  1  0
 22 53  1  0
 24 54  1  0
 24 55  1  0
 25 56  1  0
 25 57  1  0
 26 58  1  0
 27 59  1  0
 28 60  1  0
 31 61  1  0
 32 62  1  0
 35 63  1  0
 35 64  1  0
 36 65  1  0
 36 66  1  0
 38 67  1  0
 38 68  1  0
 39 69  1  0
 39 70  1  0
 40 71  1  0
 41 72  1  0
M  END
>  <Binding energies>  (1) 
[-3.26]

>  <Ligand effiencies>  (1) 
[-0.07244444444444444]

>  <Interactions>  (1) 
["V-B:GLU:543:CD:9880, V-B:TYR:539:CE2:9848, V-B:TYR:539:CZ:9849, H-A:TYR:484:OH:4348, V-A:ASP:366:CA:3210, V-A:ASP:366:CG:3213, V-A:ASP:366:C:3208, V-A:ASP:366:CB:3212, V-A:ILE:369:CG2:3237, V-A:TYR:539:CE1:4875, V-A:GLU:543:CD:4908, H-A:GLU:543:OE1:4909, H-A:ASP:366:OD1:3214, V-A:GLU:543:CG:4907, V-A:HIS:456:CE1:4070, V-A:TYR:484:CE2:4346, V-A:TYR:484:CZ:4347, V-B:LEU:475:CD2:9231, V-A:GLU:543:C:4902, V-B:GLU:543:CB:9878, V-A:GLU:543:CB:4906, V-A:GLY:544:C:4912, V-A:HIS:456:CD2:4068, V-A:GLY:544:CA:4914, V-B:HIS:456:CD2:9040, V-B:HIS:456:CE1:9042, V-B:ILE:369:CD1:8211, H-B:LYS:547:NZ:9923, V-B:ILE:369:CG2:8209, V-B:ILE:369:CB:8208, V-B:HIS:456:CG:9038, V-B:SER:385:C:8377"]

$$$$
9d_Ghoteimi_2023
     RDKit          3D

 68 73  0  0  0  0  0  0  0  0999 V2000
  123.5860  131.6810   58.0520 C   0  0  0  0  0  0  0  0  0  0  0  0
  124.5980  132.2990   58.8340 O   0  0  0  0  0  0  0  0  0  0  0  0
  124.3960  132.5640   60.1510 C   0  0  0  0  0  0  0  0  0  0  0  0
  123.7670  133.5400   60.5690 O   0  0  0  0  0  0  0  0  0  0  0  0
  125.0150  131.5590   61.0430 C   0  0  0  0  0  0  0  0  0  0  0  0
  125.4690  132.0060   62.6870 S   0  0  0  0  0  0  0  0  0  0  0  0
  126.0360  130.3850   63.0130 C   0  0  0  0  0  0  0  0  0  0  0  0
  126.5150  130.0410   64.2070 N   0  0  0  0  0  0  0  0  0  0  0  0
  126.9140  128.7510   64.3640 C   0  0  0  0  0  0  0  0  0  0  0  0
  127.4240  128.3810   65.7200 C   0  0  0  0  0  0  0  0  0  0  0  0
  126.6080  127.6900   66.6220 C   0  0  0  0  0  0  0  0  0  0  0  0
  127.0730  127.3440   67.8870 C   0  0  0  0  0  0  0  0  0  0  0  0
  128.3780  127.6640   68.2930 C   0  0  0  0  0  0  0  0  0  0  0  0
  128.8540  127.3380   69.5680 N   0  0  0  0  0  0  0  0  0  0  0  0
  129.8340  128.1950   70.2650 C   0  0  0  0  0  0  0  0  0  0  0  0
  130.5010  127.5180   71.4810 C   0  0  0  0  0  0  0  0  0  0  0  0
  129.5090  127.0470   72.3780 O   0  0  0  0  0  0  0  0  0  0  0  0
  128.6640  126.0900   71.7620 C   0  0  0  0  0  0  0  0  0  0  0  0
  127.9410  126.7190   70.5520 C   0  0  0  0  0  0  0  0  0  0  0  0
  129.1870  128.3710   67.3910 C   0  0  0  0  0  0  0  0  0  0  0  0
  128.7200  128.7200   66.1270 C   0  0  0  0  0  0  0  0  0  0  0  0
  126.8630  127.8230   63.3210 C   0  0  0  0  0  0  0  0  0  0  0  0
  126.3780  128.1850   62.0590 C   0  0  0  0  0  0  0  0  0  0  0  0
  126.3720  127.1660   60.9770 C   0  0  0  0  0  0  0  0  0  0  0  0
  126.1240  125.8220   61.2650 C   0  0  0  0  0  0  0  0  0  0  0  0
  126.1010  124.8730   60.2450 C   0  0  0  0  0  0  0  0  0  0  0  0
  126.3090  125.2480   58.9080 C   0  0  0  0  0  0  0  0  0  0  0  0
  126.3000  124.3150   57.8690 N   0  0  0  0  0  0  0  0  0  0  0  0
  125.1960  123.3390   57.7910 C   0  0  0  0  0  0  0  0  0  0  0  0
  125.0930  122.6440   56.4160 C   0  0  0  0  0  0  0  0  0  0  0  0
  126.3330  122.0350   56.0850 O   0  0  0  0  0  0  0  0  0  0  0  0
  127.3840  122.9880   56.0200 C   0  0  0  0  0  0  0  0  0  0  0  0
  127.5450  123.6870   57.3870 C   0  0  0  0  0  0  0  0  0  0  0  0
  126.5580  126.6000   58.6320 C   0  0  0  0  0  0  0  0  0  0  0  0
  126.5830  127.5470   59.6510 C   0  0  0  0  0  0  0  0  0  0  0  0
  125.9170  129.5200   61.8850 C   0  0  0  0  0  0  0  0  0  0  0  0
  125.3110  130.2160   60.7800 C   0  0  0  0  0  0  0  0  0  0  0  0
  125.0280  129.6100   59.5830 N   0  0  0  0  0  0  0  0  0  0  0  0
  122.8375  131.2239   58.7159 H   0  0  0  0  0  0  0  0  0  0  0  0
  123.1003  132.4368   57.4172 H   0  0  0  0  0  0  0  0  0  0  0  0
  124.0365  130.9037   57.4172 H   0  0  0  0  0  0  0  0  0  0  0  0
  125.5842  127.4163   66.3271 H   0  0  0  0  0  0  0  0  0  0  0  0
  126.4065  126.8106   68.5807 H   0  0  0  0  0  0  0  0  0  0  0  0
  130.6209  128.4747   69.5491 H   0  0  0  0  0  0  0  0  0  0  0  0
  129.2824  129.0667   70.6468 H   0  0  0  0  0  0  0  0  0  0  0  0
  131.1124  126.6710   71.1365 H   0  0  0  0  0  0  0  0  0  0  0  0
  131.1373  128.2510   71.9985 H   0  0  0  0  0  0  0  0  0  0  0  0
  129.2690  125.2370   71.4208 H   0  0  0  0  0  0  0  0  0  0  0  0
  127.9143  125.7501   72.4917 H   0  0  0  0  0  0  0  0  0  0  0  0
  127.3656  125.9312   70.0437 H   0  0  0  0  0  0  0  0  0  0  0  0
  127.2995  127.5222   70.9438 H   0  0  0  0  0  0  0  0  0  0  0  0
  130.2077  128.6544   67.6876 H   0  0  0  0  0  0  0  0  0  0  0  0
  129.3784  129.2698   65.4383 H   0  0  0  0  0  0  0  0  0  0  0  0
  127.2089  126.7932   63.4940 H   0  0  0  0  0  0  0  0  0  0  0  0
  125.9455  125.5104   62.3047 H   0  0  0  0  0  0  0  0  0  0  0  0
  125.9175  123.8165   60.4903 H   0  0  0  0  0  0  0  0  0  0  0  0
  125.3551  122.5692   58.5605 H   0  0  0  0  0  0  0  0  0  0  0  0
  124.2588  123.8932   57.9476 H   0  0  0  0  0  0  0  0  0  0  0  0
  124.3081  121.8743   56.4548 H   0  0  0  0  0  0  0  0  0  0  0  0
  124.8432  123.3935   55.6505 H   0  0  0  0  0  0  0  0  0  0  0  0
  128.3229  122.4782   55.7583 H   0  0  0  0  0  0  0  0  0  0  0  0
  127.1435  123.7406   55.2546 H   0  0  0  0  0  0  0  0  0  0  0  0
  127.8682  122.9392   58.1261 H   0  0  0  0  0  0  0  0  0  0  0  0
  128.2871  124.4888   57.2587 H   0  0  0  0  0  0  0  0  0  0  0  0
  126.7363  126.9168   57.5938 H   0  0  0  0  0  0  0  0  0  0  0  0
  126.7704  128.6037   59.4098 H   0  0  0  0  0  0  0  0  0  0  0  0
  124.7800  128.6330   59.5270 H   0  0  0  0  0  0  0  0  0  0  0  0
  125.0540  130.1240   58.7130 H   0  0  0  0  0  0  0  0  0  0  0  0
  1  2  1  0
  2  3  1  0
  3  4  2  0
  3  5  1  0
  5  6  1  0
  6  7  1  0
  7  8  2  0
  8  9  1  0
  9 10  1  0
 10 11  2  0
 11 12  1  0
 12 13  2  0
 13 14  1  0
 14 15  1  0
 15 16  1  0
 16 17  1  0
 17 18  1  0
 18 19  1  0
 13 20  1  0
 20 21  2  0
  9 22  2  0
 22 23  1  0
 23 24  1  0
 24 25  2  0
 25 26  1  0
 26 27  2  0
 27 28  1  0
 28 29  1  0
 29 30  1  0
 30 31  1  0
 31 32  1  0
 32 33  1  0
 27 34  1  0
 34 35  2  0
 23 36  2  0
 36 37  1  0
 37 38  1  0
 37  5  2  0
 36  7  1  0
 21 10  1  0
 35 24  1  0
 19 14  1  0
 33 28  1  0
  1 39  1  0
  1 40  1  0
  1 41  1  0
 11 42  1  0
 12 43  1  0
 15 44  1  0
 15 45  1  0
 16 46  1  0
 16 47  1  0
 18 48  1  0
 18 49  1  0
 19 50  1  0
 19 51  1  0
 20 52  1  0
 21 53  1  0
 22 54  1  0
 25 55  1  0
 26 56  1  0
 29 57  1  0
 29 58  1  0
 30 59  1  0
 30 60  1  0
 32 61  1  0
 32 62  1  0
 33 63  1  0
 33 64  1  0
 34 65  1  0
 35 66  1  0
 38 67  1  0
 38 68  1  0
M  END
>  <Binding energies>  (1) 
[-5.97]

>  <Ligand effiencies>  (1) 
[-0.14925]

>  <Interactions>  (1) 
["V-B:TYR:539:CD1:9845, V-B:ILE:538:CD1:9837, V-B:PRO:540:CB:9857, V-B:PRO:540:CD:9859, V-B:LEU:363:CD1:8161, V-B:GLU:543:CD:9880, V-B:PRO:540:CA:9855, H-B:TYR:539:N:9842, V-B:ILE:538:CG2:9835, H-B:ASP:366:OD1:8186, V-B:MET:535:CE:9807, V-B:TYR:539:CZ:9849, H-B:ASP:366:OD2:8187, V-B:TYR:539:CE1:9847, V-B:PRO:540:N:9856, V-B:TYR:531:CE2:9765, V-A:TYR:539:CE1:4875, V-B:ASP:366:CG:8185, V-A:TYR:539:CZ:4877, V-B:ASP:366:CB:8184, V-A:GLU:543:CD:4908, V-A:GLU:543:CG:4907, V-A:HIS:456:CE1:4070, V-B:LEU:475:CD2:9231, V-B:GLU:543:CB:9878, V-A:GLU:543:CB:4906, V-A:GLY:544:C:4912, V-A:HIS:456:CD2:4068, V-A:HIS:456:CG:4066, V-B:HIS:456:CD2:9040, V-B:HIS:456:CE1:9042, V-B:ILE:369:CD1:8211, V-B:ARG:545:CG:9894, H-B:LYS:547:NZ:9923, V-B:ASP:366:CA:8182, V-B:ILE:369:CG2:8209, V-B:ILE:369:CB:8208, H-B:TYR:484:OH:9320"]

$$$$
RR10_Rahimova_2017
     RDKit          3D

 66 70  0  0  0  0  0  0  0  0999 V2000
  133.6150  124.2870   57.8550 C   0  0  0  0  0  0  0  0  0  0  0  0
  133.4810  123.9980   59.3600 C   0  0  1  0  0  0  0  0  0  0  0  0
  132.5720  125.0300   60.0670 C   0  0  0  0  0  0  0  0  0  0  0  0
  132.4800  124.7400   61.5820 C   0  0  0  0  0  0  0  0  0  0  0  0
  131.9510  123.3120   61.8740 C   0  0  1  0  0  0  0  0  0  0  0  0
  130.5400  123.1910   61.4820 N   0  0  0  0  0  0  0  0  0  0  0  0
  129.7140  122.1910   61.8420 C   0  0  0  0  0  0  0  0  0  0  0  0
  130.0630  121.2630   62.5760 O   0  0  0  0  0  0  0  0  0  0  0  0
  128.2780  122.2400   61.2790 C   0  0  1  0  0  0  0  0  0  0  0  0
  127.3780  123.0660   62.2360 C   0  0  0  0  0  0  0  0  0  0  0  0
  125.9610  123.1960   61.6280 C   0  0  0  0  0  0  0  0  0  0  0  0
  125.9850  123.7240   60.1750 C   0  0  0  0  0  0  0  0  0  0  0  0
  126.9180  122.9200   59.3400 N   0  0  0  0  0  0  0  0  0  0  0  0
  126.8050  123.2390   57.6010 S   0  0  0  0  0  0  0  0  0  0  0  0
  125.4830  123.8170   57.3280 O   0  0  0  0  0  0  0  0  0  0  0  0
  127.2440  122.0300   56.8920 O   0  0  0  0  0  0  0  0  0  0  0  0
  128.0070  124.5310   57.2850 C   0  0  0  0  0  0  0  0  0  0  0  0
  129.3670  124.2580   57.4610 C   0  0  0  0  0  0  0  0  0  0  0  0
  130.3540  125.2220   57.2340 C   0  0  0  0  0  0  0  0  0  0  0  0
  129.9130  126.4800   56.8170 C   0  0  0  0  0  0  0  0  0  0  0  0
  130.5510  127.6570   56.5060 N   0  0  0  0  0  0  0  0  0  0  0  0
  129.5880  128.5810   56.1540 C   0  0  0  0  0  0  0  0  0  0  0  0
  129.9000  129.9950   55.7570 C   0  0  0  0  0  0  0  0  0  0  0  0
  129.2910  130.5670   54.6310 C   0  0  0  0  0  0  0  0  0  0  0  0
  129.5760  131.8790   54.2640 C   0  0  0  0  0  0  0  0  0  0  0  0
  130.4750  132.6280   55.0200 C   0  0  0  0  0  0  0  0  0  0  0  0
  131.0880  132.0750   56.1400 C   0  0  0  0  0  0  0  0  0  0  0  0
  130.8020  130.7630   56.5070 C   0  0  0  0  0  0  0  0  0  0  0  0
  128.3760  128.0760   56.2120 N   0  0  0  0  0  0  0  0  0  0  0  0
  128.5440  126.7790   56.6220 C   0  0  0  0  0  0  0  0  0  0  0  0
  127.5760  125.7910   56.8550 C   0  0  0  0  0  0  0  0  0  0  0  0
  128.3040  122.8820   59.8700 C   0  0  0  0  0  0  0  0  0  0  0  0
  132.8620  122.2890   61.1440 C   0  0  0  0  0  0  0  0  0  0  0  0
  132.9500  122.5700   59.6270 C   0  0  0  0  0  0  0  0  0  0  0  0
  134.0737  125.2764   57.7110 H   0  0  0  0  0  0  0  0  0  0  0  0
  134.2484  123.5178   57.3889 H   0  0  0  0  0  0  0  0  0  0  0  0
  132.6187  124.2734   57.3889 H   0  0  0  0  0  0  0  0  0  0  0  0
  134.4949  124.0797   59.7786 H   0  0  0  0  0  0  0  0  0  0  0  0
  132.9878  126.0374   59.9181 H   0  0  0  0  0  0  0  0  0  0  0  0
  131.5626  124.9623   59.6351 H   0  0  0  0  0  0  0  0  0  0  0  0
  133.4819  124.8439   62.0240 H   0  0  0  0  0  0  0  0  0  0  0  0
  131.7723  125.4586   62.0210 H   0  0  0  0  0  0  0  0  0  0  0  0
  131.9885  123.1026   62.9532 H   0  0  0  0  0  0  0  0  0  0  0  0
  130.2130  123.8560   60.7960 H   0  0  0  0  0  0  0  0  0  0  0  0
  127.8693  121.2219   61.1993 H   0  0  0  0  0  0  0  0  0  0  0  0
  127.3141  122.5575   63.2093 H   0  0  0  0  0  0  0  0  0  0  0  0
  127.8113  124.0677   62.3733 H   0  0  0  0  0  0  0  0  0  0  0  0
  125.4820  122.2058   61.6354 H   0  0  0  0  0  0  0  0  0  0  0  0
  125.4016  123.9211   62.2374 H   0  0  0  0  0  0  0  0  0  0  0  0
  124.9724  123.6590   59.7501 H   0  0  0  0  0  0  0  0  0  0  0  0
  126.3282  124.7691   60.1835 H   0  0  0  0  0  0  0  0  0  0  0  0
  129.6701  123.2526   57.7885 H   0  0  0  0  0  0  0  0  0  0  0  0
  131.4222  125.0012   57.3764 H   0  0  0  0  0  0  0  0  0  0  0  0
  131.5390  127.8640   56.5200 H   0  0  0  0  0  0  0  0  0  0  0  0
  128.5828  129.9745   54.0333 H   0  0  0  0  0  0  0  0  0  0  0  0
  129.0934  132.3226   53.3807 H   0  0  0  0  0  0  0  0  0  0  0  0
  130.7019  133.6643   54.7293 H   0  0  0  0  0  0  0  0  0  0  0  0
  131.7960  132.6723   56.7332 H   0  0  0  0  0  0  0  0  0  0  0  0
  131.2872  130.3255   57.3920 H   0  0  0  0  0  0  0  0  0  0  0  0
  126.5069  126.0010   56.7038 H   0  0  0  0  0  0  0  0  0  0  0  0
  128.9398  122.2828   59.2016 H   0  0  0  0  0  0  0  0  0  0  0  0
  128.7110  123.9022   59.9299 H   0  0  0  0  0  0  0  0  0  0  0  0
  133.8729  122.3436   61.5743 H   0  0  0  0  0  0  0  0  0  0  0  0
  132.4250  121.2886   61.2790 H   0  0  0  0  0  0  0  0  0  0  0  0
  133.6308  121.8403   59.1645 H   0  0  0  0  0  0  0  0  0  0  0  0
  131.9423  122.4832   59.1945 H   0  0  0  0  0  0  0  0  0  0  0  0
  1  2  1  0
  2  3  1  0
  3  4  1  0
  4  5  1  0
  5  6  1  0
  6  7  1  0
  7  8  2  0
  7  9  1  0
  9 10  1  0
 10 11  1  0
 11 12  1  0
 12 13  1  0
 13 14  1  0
 14 15  2  0
 14 16  2  0
 14 17  1  0
 17 18  2  0
 18 19  1  0
 19 20  2  0
 20 21  1  0
 21 22  1  0
 22 23  1  0
 23 24  2  0
 24 25  1  0
 25 26  2  0
 26 27  1  0
 27 28  2  0
 22 29  2  0
 29 30  1  0
 30 31  2  0
 13 32  1  0
  5 33  1  0
 33 34  1  0
 34  2  1  0
 32  9  1  0
 31 17  1  0
 30 20  1  0
 28 23  1  0
  1 35  1  0
  1 36  1  0
  1 37  1  0
  2 38  1  1
  3 39  1  0
  3 40  1  0
  4 41  1  0
  4 42  1  0
  5 43  1  1
  6 44  1  0
  9 45  1  6
 10 46  1  0
 10 47  1  0
 11 48  1  0
 11 49  1  0
 12 50  1  0
 12 51  1  0
 18 52  1  0
 19 53  1  0
 21 54  1  0
 24 55  1  0
 25 56  1  0
 26 57  1  0
 27 58  1  0
 28 59  1  0
 31 60  1  0
 32 61  1  0
 32 62  1  0
 33 63  1  0
 33 64  1  0
 34 65  1  0
 34 66  1  0
M  END
>  <Binding energies>  (1) 
[-10.75]

>  <Ligand effiencies>  (1) 
[-0.2986111111111111]

>  <Interactions>  (1) 
["V-B:PRO:540:CB:9857, V-B:GLU:543:CD:9880, V-B:PRO:540:CA:9855, H-B:TYR:539:N:9842, V-B:TYR:539:CE2:9848, V-B:TYR:539:CD2:9846, V-B:MET:535:CE:9807, V-B:ALA:541:CB:9864, V-B:TYR:539:CZ:9849, V-B:PRO:540:C:9853, V-B:PRO:540:N:9856, H-A:TYR:484:OH:4348, V-A:ASP:366:CA:3210, V-A:ASP:366:CG:3213, V-A:LEU:475:CD2:4259, V-A:ILE:369:CD1:3239, V-A:ASP:366:C:3208, V-A:ASP:366:CB:3212, V-A:ILE:369:CB:3236, V-A:ILE:369:CG2:3237, V-A:PRO:540:N:4884, H-B:TYR:531:OH:9767, V-A:ILE:538:CA:4860, V-A:ILE:538:CB:4862, V-A:ILE:538:CG2:4863, H-A:TYR:531:OH:4795, V-B:GLU:543:CG:9879"]

$$$$
RR11_Rahimova_2017
     RDKit          3D

 55 60  0  0  0  0  0  0  0  0999 V2000
  133.9780  123.8460   56.8160 N   0  0  0  0  0  0  0  0  0  0  0  0
  133.2210  124.9830   57.0960 C   0  0  0  0  0  0  0  0  0  0  0  0
  132.7710  125.2130   58.3950 C   0  0  0  0  0  0  0  0  0  0  0  0
  132.0180  126.3500   58.6740 C   0  0  0  0  0  0  0  0  0  0  0  0
  131.7080  127.2660   57.6600 C   0  0  0  0  0  0  0  0  0  0  0  0
  130.9010  128.4930   57.9640 C   0  0  0  0  0  0  0  0  0  0  0  0
  130.0640  128.6010   58.9730 N   0  0  0  0  0  0  0  0  0  0  0  0
  129.5580  129.8720   58.8890 C   0  0  0  0  0  0  0  0  0  0  0  0
  128.6300  130.5120   59.7210 C   0  0  0  0  0  0  0  0  0  0  0  0
  128.2810  131.8370   59.4330 C   0  0  0  0  0  0  0  0  0  0  0  0
  127.2710  132.5570   60.3160 C   0  0  0  0  0  0  0  0  0  0  0  0
  126.8150  131.7190   61.5020 C   0  0  0  0  0  0  0  0  0  0  0  0
  125.4510  131.4670   61.6840 C   0  0  0  0  0  0  0  0  0  0  0  0
  124.9850  130.6970   62.7510 C   0  0  0  0  0  0  0  0  0  0  0  0
  125.9260  130.1680   63.6450 C   0  0  0  0  0  0  0  0  0  0  0  0
  125.7270  129.3970   64.7600 N   0  0  0  0  0  0  0  0  0  0  0  0
  126.9290  129.1730   65.2460 C   0  0  0  0  0  0  0  0  0  0  0  0
  127.2070  128.3770   66.4890 C   0  0  0  0  0  0  0  0  0  0  0  0
  128.4800  128.3910   67.0720 C   0  0  0  0  0  0  0  0  0  0  0  0
  128.7410  127.6440   68.2180 C   0  0  0  0  0  0  0  0  0  0  0  0
  127.7290  126.8770   68.7900 C   0  0  0  0  0  0  0  0  0  0  0  0
  127.9900  126.1260   69.9350 N   0  0  0  0  0  0  0  0  0  0  0  0
  126.4570  126.8570   68.2240 C   0  0  0  0  0  0  0  0  0  0  0  0
  126.1970  127.6040   67.0780 C   0  0  0  0  0  0  0  0  0  0  0  0
  127.9130  129.7650   64.4840 N   0  0  0  0  0  0  0  0  0  0  0  0
  127.3030  130.4210   63.4410 C   0  0  0  0  0  0  0  0  0  0  0  0
  127.7760  131.1860   62.3720 C   0  0  0  0  0  0  0  0  0  0  0  0
  128.8280  132.4940   58.3250 C   0  0  0  0  0  0  0  0  0  0  0  0
  129.7510  131.8820   57.4740 C   0  0  0  0  0  0  0  0  0  0  0  0
  130.1030  130.5650   57.7820 C   0  0  0  0  0  0  0  0  0  0  0  0
  130.9560  129.6490   57.2130 N   0  0  0  0  0  0  0  0  0  0  0  0
  132.1660  127.0200   56.3580 C   0  0  0  0  0  0  0  0  0  0  0  0
  132.9200  125.8840   56.0760 C   0  0  0  0  0  0  0  0  0  0  0  0
  133.5120  122.9980   56.5240 H   0  0  0  0  0  0  0  0  0  0  0  0
  134.9840  123.8950   56.8680 H   0  0  0  0  0  0  0  0  0  0  0  0
  133.0100  124.4987   59.1967 H   0  0  0  0  0  0  0  0  0  0  0  0
  131.6632  126.5310   59.6994 H   0  0  0  0  0  0  0  0  0  0  0  0
  128.1865  129.9864   60.5795 H   0  0  0  0  0  0  0  0  0  0  0  0
  127.7327  133.4803   60.6959 H   0  0  0  0  0  0  0  0  0  0  0  0
  126.3841  132.7654   59.6995 H   0  0  0  0  0  0  0  0  0  0  0  0
  124.7279  131.8859   60.9687 H   0  0  0  0  0  0  0  0  0  0  0  0
  123.9094  130.5106   62.8864 H   0  0  0  0  0  0  0  0  0  0  0  0
  129.2800  128.9967   66.6214 H   0  0  0  0  0  0  0  0  0  0  0  0
  129.7437  127.6597   68.6701 H   0  0  0  0  0  0  0  0  0  0  0  0
  127.5360  126.3690   70.8040 H   0  0  0  0  0  0  0  0  0  0  0  0
  128.6040  125.3250   69.8740 H   0  0  0  0  0  0  0  0  0  0  0  0
  125.6596  126.2526   68.6810 H   0  0  0  0  0  0  0  0  0  0  0  0
  125.1917  127.5873   66.6317 H   0  0  0  0  0  0  0  0  0  0  0  0
  128.8970  129.7020   64.7020 H   0  0  0  0  0  0  0  0  0  0  0  0
  128.8512  131.3616   62.2203 H   0  0  0  0  0  0  0  0  0  0  0  0
  128.5200  133.5293   58.1169 H   0  0  0  0  0  0  0  0  0  0  0  0
  130.1781  132.4084   56.6077 H   0  0  0  0  0  0  0  0  0  0  0  0
  131.5420  129.7540   56.3980 H   0  0  0  0  0  0  0  0  0  0  0  0
  131.9277  127.7303   55.5526 H   0  0  0  0  0  0  0  0  0  0  0  0
  133.2768  125.6983   55.0522 H   0  0  0  0  0  0  0  0  0  0  0  0
  1  2  1  0
  2  3  2  0
  3  4  1  0
  4  5  2  0
  5  6  1  0
  6  7  2  0
  7  8  1  0
  8  9  2  0
  9 10  1  0
 10 11  1  0
 11 12  1  0
 12 13  2  0
 13 14  1  0
 14 15  2  0
 15 16  1  0
 16 17  2  0
 17 18  1  0
 18 19  2  0
 19 20  1  0
 20 21  2  0
 21 22  1  0
 21 23  1  0
 23 24  2  0
 17 25  1  0
 25 26  1  0
 26 27  2  0
 10 28  2  0
 28 29  1  0
 29 30  2  0
 30 31  1  0
  5 32  1  0
 32 33  2  0
 33  2  1  0
 31  6  1  0
 30  8  1  0
 27 12  1  0
 26 15  1  0
 24 18  1  0
  1 34  1  0
  1 35  1  0
  3 36  1  0
  4 37  1  0
  9 38  1  0
 11 39  1  0
 11 40  1  0
 13 41  1  0
 14 42  1  0
 19 43  1  0
 20 44  1  0
 22 45  1  0
 22 46  1  0
 23 47  1  0
 24 48  1  0
 25 49  1  0
 27 50  1  0
 28 51  1  0
 29 52  1  0
 31 53  1  0
 32 54  1  0
 33 55  1  0
M  END
>  <Binding energies>  (1) 
[-7.02]

>  <Ligand effiencies>  (1) 
[-0.18]

>  <Interactions>  (1) 
["V-B:GLU:543:CD:9880, V-B:TYR:539:CE2:9848, V-B:TYR:539:CZ:9849, V-A:ASP:366:CA:3210, V-A:ASP:366:CG:3213, V-A:ASP:366:C:3208, V-A:ASP:366:CB:3212, V-A:ILE:369:CB:3236, V-A:ILE:369:CG2:3237, V-A:TYR:531:CZ:4794, V-A:PRO:540:CA:4883, V-A:TYR:539:C:4867, V-A:PRO:540:N:4884, V-A:TYR:531:CE1:4792, V-A:ASN:370:CB:3245, V-A:GLU:543:CD:4908, H-A:GLU:543:OE1:4909, H-A:GLU:543:OE2:4910, V-A:GLU:543:CG:4907, H-B:TYR:539:OH:9850, V-A:HIS:456:CE1:4070, H-A:TYR:531:OH:4795, V-B:GLU:543:CB:9878, V-A:GLU:543:CB:4906, V-A:HIS:456:CD2:4068, V-B:TYR:484:CZ:9319, V-B:HIS:456:CE1:9042, V-B:ARG:545:CD:9895, V-B:ARG:545:CG:9894, V-A:TYR:539:CD1:4873, H-A:HIS:456:NE2:4071, H-B:TYR:484:OH:9320, V-B:GLU:543:C:9874, H-B:HIS:456:NE2:9043, H-A:ASP:366:O:3209, H-B:GLU:543:O:9875, V-B:GLY:544:C:9884, V-B:ARG:545:CA:9891, V-A:ASN:370:CA:3243, H-B:GLY:544:O:9885, V-A:ILE:369:CA:3234, V-A:ILE:369:C:3232"]

$$$$
RR11_Rahimova_2017-again1
     RDKit          3D

 56 61  0  0  0  0  0  0  0  0999 V2000
  133.9960  123.8560   56.7870 N   0  0  0  0  0  0  0  0  0  0  0  0
  133.1880  124.9430   57.1180 C   0  0  0  0  0  0  0  0  0  0  0  0
  132.6840  125.0650   58.4110 C   0  0  0  0  0  0  0  0  0  0  0  0
  131.8740  126.1500   58.7390 C   0  0  0  0  0  0  0  0  0  0  0  0
  131.5620  127.1190   57.7770 C   0  0  0  0  0  0  0  0  0  0  0  0
  130.6820  128.2840   58.1300 C   0  0  0  0  0  0  0  0  0  0  0  0
  130.8150  129.4930   57.6310 N   0  0  0  0  0  0  0  0  0  0  0  0
  129.8360  130.2420   58.2280 C   0  0  0  0  0  0  0  0  0  0  0  0
  129.5310  131.5990   58.0630 C   0  0  0  0  0  0  0  0  0  0  0  0
  128.4790  132.1330   58.8090 C   0  0  0  0  0  0  0  0  0  0  0  0
  127.7420  131.3490   59.7030 C   0  0  0  0  0  0  0  0  0  0  0  0
  126.6070  131.9840   60.4950 C   0  0  0  0  0  0  0  0  0  0  0  0
  126.2460  131.1890   61.7410 C   0  0  0  0  0  0  0  0  0  0  0  0
  124.9000  130.9410   62.0370 C   0  0  0  0  0  0  0  0  0  0  0  0
  124.5070  130.2190   63.1670 C   0  0  0  0  0  0  0  0  0  0  0  0
  125.5290  129.7470   63.9950 C   0  0  0  0  0  0  0  0  0  0  0  0
  125.5010  129.0220   65.1790 N   0  0  0  0  0  0  0  0  0  0  0  0
  126.7830  128.7990   65.6270 C   0  0  0  0  0  0  0  0  0  0  0  0
  127.1870  128.0750   66.8700 C   0  0  0  0  0  0  0  0  0  0  0  0
  128.4680  128.2580   67.4050 C   0  0  0  0  0  0  0  0  0  0  0  0
  128.8460  127.5930   68.5680 C   0  0  0  0  0  0  0  0  0  0  0  0
  127.9450  126.7390   69.2020 C   0  0  0  0  0  0  0  0  0  0  0  0
  128.3240  126.0770   70.3680 N   0  0  0  0  0  0  0  0  0  0  0  0
  126.6670  126.5490   68.6770 C   0  0  0  0  0  0  0  0  0  0  0  0
  126.2900  127.2150   67.5140 C   0  0  0  0  0  0  0  0  0  0  0  0
  127.6220  129.3860   64.7080 N   0  0  0  0  0  0  0  0  0  0  0  0
  126.8820  129.9800   63.6960 C   0  0  0  0  0  0  0  0  0  0  0  0
  127.2700  130.6970   62.5610 C   0  0  0  0  0  0  0  0  0  0  0  0
  128.0120  129.9840   59.8680 C   0  0  0  0  0  0  0  0  0  0  0  0
  129.0710  129.4580   59.1250 C   0  0  0  0  0  0  0  0  0  0  0  0
  129.6390  128.2090   59.0290 N   0  0  0  0  0  0  0  0  0  0  0  0
  132.0760  126.9840   56.4810 C   0  0  0  0  0  0  0  0  0  0  0  0
  132.8870  125.9010   56.1520 C   0  0  0  0  0  0  0  0  0  0  0  0
  133.5680  122.9950   56.4770 H   0  0  0  0  0  0  0  0  0  0  0  0
  134.9970  123.9290   56.9000 H   0  0  0  0  0  0  0  0  0  0  0  0
  132.9249  124.3069   59.1707 H   0  0  0  0  0  0  0  0  0  0  0  0
  131.4768  126.2463   59.7603 H   0  0  0  0  0  0  0  0  0  0  0  0
  130.1045  132.2265   57.3649 H   0  0  0  0  0  0  0  0  0  0  0  0
  128.2232  133.1963   58.6910 H   0  0  0  0  0  0  0  0  0  0  0  0
  126.9129  132.9959   60.7992 H   0  0  0  0  0  0  0  0  0  0  0  0
  125.7195  132.0062   59.8455 H   0  0  0  0  0  0  0  0  0  0  0  0
  124.1262  131.3274   61.3573 H   0  0  0  0  0  0  0  0  0  0  0  0
  123.4469  130.0317   63.3933 H   0  0  0  0  0  0  0  0  0  0  0  0
  124.6880  128.6910   65.6770 H   0  0  0  0  0  0  0  0  0  0  0  0
  129.1793  128.9308   66.9036 H   0  0  0  0  0  0  0  0  0  0  0  0
  129.8529  127.7410   68.9855 H   0  0  0  0  0  0  0  0  0  0  0  0
  128.6010  125.1070   70.3220 H   0  0  0  0  0  0  0  0  0  0  0  0
  128.2900  126.5650   71.2510 H   0  0  0  0  0  0  0  0  0  0  0  0
  125.9587  125.8747   69.1805 H   0  0  0  0  0  0  0  0  0  0  0  0
  125.2823  127.0646   67.0993 H   0  0  0  0  0  0  0  0  0  0  0  0
  128.6260  129.3650   64.8050 H   0  0  0  0  0  0  0  0  0  0  0  0
  128.3302  130.8672   62.3224 H   0  0  0  0  0  0  0  0  0  0  0  0
  127.4185  129.3571   60.5498 H   0  0  0  0  0  0  0  0  0  0  0  0
  129.3840  127.3610   59.5130 H   0  0  0  0  0  0  0  0  0  0  0  0
  131.8372  127.7391   55.7176 H   0  0  0  0  0  0  0  0  0  0  0  0
  133.2888  125.8021   55.1328 H   0  0  0  0  0  0  0  0  0  0  0  0
  1  2  1  0
  2  3  2  0
  3  4  1  0
  4  5  2  0
  5  6  1  0
  6  7  2  0
  7  8  1  0
  8  9  2  0
  9 10  1  0
 10 11  2  0
 11 12  1  0
 12 13  1  0
 13 14  2  0
 14 15  1  0
 15 16  2  0
 16 17  1  0
 17 18  1  0
 18 19  1  0
 19 20  2  0
 20 21  1  0
 21 22  2  0
 22 23  1  0
 22 24  1  0
 24 25  2  0
 18 26  2  0
 26 27  1  0
 27 28  2  0
 11 29  1  0
 29 30  2  0
 30 31  1  0
  5 32  1  0
 32 33  2  0
 33  2  1  0
 31  6  1  0
 30  8  1  0
 28 13  1  0
 27 16  1  0
 25 19  1  0
  1 34  1  0
  1 35  1  0
  3 36  1  0
  4 37  1  0
  9 38  1  0
 10 39  1  0
 12 40  1  0
 12 41  1  0
 14 42  1  0
 15 43  1  0
 17 44  1  0
 20 45  1  0
 21 46  1  0
 23 47  1  0
 23 48  1  0
 24 49  1  0
 25 50  1  0
 26 51  1  0
 28 52  1  0
 29 53  1  0
 31 54  1  0
 32 55  1  0
 33 56  1  0
M  CHG  1  26   1
M  END
>  <Binding energies>  (1) 
[-7.0]

>  <Ligand effiencies>  (1) 
[-0.175]

>  <Interactions>  (1) 
["V-B:GLU:543:CD:9880, V-B:TYR:539:CE2:9848, V-B:TYR:539:CZ:9849, V-A:ASP:366:CA:3210, V-A:ASP:366:CG:3213, V-A:ASP:366:C:3208, V-A:ASP:366:CB:3212, V-A:ILE:369:CB:3236, V-A:ILE:369:CG2:3237, V-A:PRO:540:CA:4883, V-A:TYR:531:CE1:4792, V-A:ASN:370:CB:3245, V-A:GLU:543:CD:4908, H-A:GLU:543:OE1:4909, H-A:GLU:543:OE2:4910, V-A:GLU:543:CG:4907, H-B:TYR:539:OH:9850, V-A:HIS:456:CE1:4070, V-B:GLU:543:CB:9878, V-A:GLU:543:CB:4906, V-A:HIS:456:CD2:4068, V-B:ARG:545:CZ:9898, V-B:HIS:456:CE1:9042, V-B:ARG:545:CD:9895, V-B:ARG:545:CG:9894, V-A:TYR:539:CD1:4873, H-A:HIS:456:NE2:4071, H-B:TYR:484:OH:9320, V-B:GLU:543:C:9874, H-B:HIS:456:NE2:9043, H-A:ASP:366:O:3209, H-B:GLU:543:O:9875, V-B:ARG:545:CA:9891, V-A:ASN:370:CA:3243, H-B:GLY:544:O:9885, V-A:ILE:369:CA:3234, V-A:ILE:369:C:3232"]

$$$$
RR11_Rahimova_2017-again2
     RDKit          3D

 57 62  0  0  0  0  0  0  0  0999 V2000
  133.9700  123.8710   56.8110 N   0  0  0  0  0  0  0  0  0  0  0  0
  133.1880  124.9940   57.0770 C   0  0  0  0  0  0  0  0  0  0  0  0
  132.6470  125.1780   58.3470 C   0  0  0  0  0  0  0  0  0  0  0  0
  131.8610  126.2970   58.6100 C   0  0  0  0  0  0  0  0  0  0  0  0
  131.6110  127.2370   57.6030 C   0  0  0  0  0  0  0  0  0  0  0  0
  130.7590  128.4320   57.8820 C   0  0  0  0  0  0  0  0  0  0  0  0
  129.8970  128.6000   58.9420 N   0  0  0  0  0  0  0  0  0  0  0  0
  129.2960  129.8500   58.8740 C   0  0  0  0  0  0  0  0  0  0  0  0
  128.3700  130.4820   59.7080 C   0  0  0  0  0  0  0  0  0  0  0  0
  127.9780  131.7790   59.3530 C   0  0  0  0  0  0  0  0  0  0  0  0
  126.9750  132.5220   60.2260 C   0  0  0  0  0  0  0  0  0  0  0  0
  126.5330  131.7110   61.4360 C   0  0  0  0  0  0  0  0  0  0  0  0
  125.1670  131.5390   61.6900 C   0  0  0  0  0  0  0  0  0  0  0  0
  124.7010  130.8060   62.7840 C   0  0  0  0  0  0  0  0  0  0  0  0
  125.6690  130.2440   63.6200 C   0  0  0  0  0  0  0  0  0  0  0  0
  125.5630  129.4820   64.7750 N   0  0  0  0  0  0  0  0  0  0  0  0
  126.8140  129.1620   65.2480 C   0  0  0  0  0  0  0  0  0  0  0  0
  127.1350  128.3700   66.4740 C   0  0  0  0  0  0  0  0  0  0  0  0
  126.1570  127.5700   67.0740 C   0  0  0  0  0  0  0  0  0  0  0  0
  126.4580  126.8240   68.2110 C   0  0  0  0  0  0  0  0  0  0  0  0
  127.7400  126.8760   68.7530 C   0  0  0  0  0  0  0  0  0  0  0  0
  128.0440  126.1250   69.8880 N   0  0  0  0  0  0  0  0  0  0  0  0
  128.7220  127.6730   68.1660 C   0  0  0  0  0  0  0  0  0  0  0  0
  128.4200  128.4180   67.0290 C   0  0  0  0  0  0  0  0  0  0  0  0
  127.7140  129.7230   64.3720 N   0  0  0  0  0  0  0  0  0  0  0  0
  127.0410  130.4000   63.3630 C   0  0  0  0  0  0  0  0  0  0  0  0
  127.5020  131.1290   62.2630 C   0  0  0  0  0  0  0  0  0  0  0  0
  128.4730  132.3950   58.1970 C   0  0  0  0  0  0  0  0  0  0  0  0
  129.3930  131.7640   57.3560 C   0  0  0  0  0  0  0  0  0  0  0  0
  129.7980  130.4780   57.7230 C   0  0  0  0  0  0  0  0  0  0  0  0
  130.6880  129.5870   57.1380 N   0  0  0  0  0  0  0  0  0  0  0  0
  132.1630  127.0440   56.3310 C   0  0  0  0  0  0  0  0  0  0  0  0
  132.9490  125.9250   56.0680 C   0  0  0  0  0  0  0  0  0  0  0  0
  134.9770  123.9490   56.8360 H   0  0  0  0  0  0  0  0  0  0  0  0
  133.5250  123.0080   56.5320 H   0  0  0  0  0  0  0  0  0  0  0  0
  132.8401  124.4411   59.1405 H   0  0  0  0  0  0  0  0  0  0  0  0
  131.4346  126.4430   59.6134 H   0  0  0  0  0  0  0  0  0  0  0  0
  129.7620  127.8900   59.6460 H   0  0  0  0  0  0  0  0  0  0  0  0
  127.9674  129.9838   60.6023 H   0  0  0  0  0  0  0  0  0  0  0  0
  127.4389  133.4550   60.5785 H   0  0  0  0  0  0  0  0  0  0  0  0
  126.0824  132.7168   59.6133 H   0  0  0  0  0  0  0  0  0  0  0  0
  124.4369  131.9960   61.0058 H   0  0  0  0  0  0  0  0  0  0  0  0
  123.6258  130.6777   62.9775 H   0  0  0  0  0  0  0  0  0  0  0  0
  124.7170  129.1860   65.2410 H   0  0  0  0  0  0  0  0  0  0  0  0
  125.1447  127.5298   66.6456 H   0  0  0  0  0  0  0  0  0  0  0  0
  125.6859  126.1959   68.6793 H   0  0  0  0  0  0  0  0  0  0  0  0
  127.9370  126.5380   70.8020 H   0  0  0  0  0  0  0  0  0  0  0  0
  128.4310  125.1980   69.7810 H   0  0  0  0  0  0  0  0  0  0  0  0
  129.7321  127.7131   68.5997 H   0  0  0  0  0  0  0  0  0  0  0  0
  129.1939  129.0469   66.5648 H   0  0  0  0  0  0  0  0  0  0  0  0
  128.7130  129.6360   64.4930 H   0  0  0  0  0  0  0  0  0  0  0  0
  128.5766  131.2405   62.0564 H   0  0  0  0  0  0  0  0  0  0  0  0
  128.1266  133.4077   57.9431 H   0  0  0  0  0  0  0  0  0  0  0  0
  129.7791  132.2549   56.4505 H   0  0  0  0  0  0  0  0  0  0  0  0
  131.2300  129.7210   56.2970 H   0  0  0  0  0  0  0  0  0  0  0  0
  131.9749  127.7799   55.5354 H   0  0  0  0  0  0  0  0  0  0  0  0
  133.3799  125.7764   55.0669 H   0  0  0  0  0  0  0  0  0  0  0  0
  1  2  1  0
  2  3  2  0
  3  4  1  0
  4  5  2  0
  5  6  1  0
  6  7  1  0
  7  8  1  0
  8  9  2  0
  9 10  1  0
 10 11  1  0
 11 12  1  0
 12 13  2  0
 13 14  1  0
 14 15  2  0
 15 16  1  0
 16 17  1  0
 17 18  1  0
 18 19  2  0
 19 20  1  0
 20 21  2  0
 21 22  1  0
 21 23  1  0
 23 24  2  0
 17 25  2  0
 25 26  1  0
 26 27  2  0
 10 28  2  0
 28 29  1  0
 29 30  2  0
 30 31  1  0
  5 32  1  0
 32 33  2  0
 33  2  1  0
 31  6  2  0
 30  8  1  0
 27 12  1  0
 26 15  1  0
 24 18  1  0
  1 34  1  0
  1 35  1  0
  3 36  1  0
  4 37  1  0
  7 38  1  0
  9 39  1  0
 11 40  1  0
 11 41  1  0
 13 42  1  0
 14 43  1  0
 16 44  1  0
 19 45  1  0
 20 46  1  0
 22 47  1  0
 22 48  1  0
 23 49  1  0
 24 50  1  0
 25 51  1  0
 27 52  1  0
 28 53  1  0
 29 54  1  0
 31 55  1  0
 32 56  1  0
 33 57  1  0
M  CHG  2  25   1  31   1
M  END
>  <Binding energies>  (1) 
[-7.66]

>  <Ligand effiencies>  (1) 
[-0.18682926829268293]

>  <Interactions>  (1) 
["V-B:GLU:543:CD:9880, V-B:TYR:539:CE2:9848, V-B:TYR:539:CZ:9849, V-A:ASP:366:CA:3210, V-A:ASP:366:CG:3213, V-A:ASP:366:C:3208, V-A:ASP:366:CB:3212, V-A:ILE:369:CB:3236, V-A:ILE:369:CG2:3237, V-A:TYR:539:CE1:4875, V-A:TYR:531:CZ:4794, V-A:TYR:539:C:4867, V-A:TYR:531:CE1:4792, V-A:ASN:370:CB:3245, V-A:GLU:543:CD:4908, H-A:GLU:543:OE1:4909, H-A:GLU:543:OE2:4910, V-A:GLU:543:CG:4907, H-B:TYR:539:OH:9850, V-A:HIS:456:CE1:4070, H-A:TYR:531:OH:4795, V-B:GLU:543:CB:9878, V-A:GLU:543:CB:4906, V-A:HIS:456:CD2:4068, V-B:ARG:545:CZ:9898, V-B:TYR:484:CZ:9319, V-B:HIS:456:CE1:9042, V-B:ARG:545:CD:9895, V-B:ARG:545:CG:9894, V-A:TYR:539:CD1:4873, H-A:HIS:456:NE2:4071, H-B:TYR:484:OH:9320, V-B:GLU:543:C:9874, H-B:HIS:456:NE2:9043, H-A:ASP:366:O:3209, H-B:GLU:543:O:9875, V-B:ARG:545:CA:9891, V-A:ASN:370:CA:3243, H-B:GLY:544:O:9885, V-A:ILE:369:CA:3234, V-A:ILE:369:C:3232"]

$$$$
RR12_Rahimova_2017
     RDKit          3D

 51 53  0  0  0  0  0  0  0  0999 V2000
  133.1500  124.6160   62.6010 C   0  0  0  0  0  0  0  0  0  0  0  0
  134.1050  124.1410   61.4980 C   0  0  0  0  0  0  0  0  0  0  0  0
  133.5510  122.9370   60.7140 C   0  0  0  0  0  0  0  0  0  0  0  0
  132.2590  123.2600   60.1150 N   0  0  0  0  0  0  0  0  0  0  0  0
  131.0150  122.7590   60.4700 C   0  0  0  0  0  0  0  0  0  0  0  0
  130.7990  121.7180   61.5540 C   0  0  0  0  0  0  0  0  0  0  0  0
  129.3720  121.1400   61.5360 C   0  0  0  0  0  0  0  0  0  0  0  0
  128.3460  122.0650   62.2170 C   0  0  0  0  0  0  0  0  0  0  0  0
  127.6170  122.9250   61.2860 N   0  0  0  0  0  0  0  0  0  0  0  0
  126.3050  123.2150   61.3680 C   0  0  0  0  0  0  0  0  0  0  0  0
  125.5700  122.7720   62.2530 O   0  0  0  0  0  0  0  0  0  0  0  0
  125.7630  124.1500   60.2800 C   0  0  0  0  0  0  0  0  0  0  0  0
  126.7040  124.2320   59.2090 O   0  0  0  0  0  0  0  0  0  0  0  0
  126.4130  123.6230   58.0030 C   0  0  0  0  0  0  0  0  0  0  0  0
  125.0670  123.3370   57.7610 C   0  0  0  0  0  0  0  0  0  0  0  0
  124.6760  122.7270   56.5730 C   0  0  0  0  0  0  0  0  0  0  0  0
  125.6350  122.4000   55.6180 C   0  0  0  0  0  0  0  0  0  0  0  0
  126.9820  122.6750   55.8440 C   0  0  0  0  0  0  0  0  0  0  0  0
  127.3720  123.2850   57.0340 C   0  0  0  0  0  0  0  0  0  0  0  0
  130.0330  123.2610   59.7630 N   0  0  0  0  0  0  0  0  0  0  0  0
  130.6290  124.1520   58.9150 C   0  0  0  0  0  0  0  0  0  0  0  0
  130.0400  124.9800   57.9470 C   0  0  0  0  0  0  0  0  0  0  0  0
  130.8720  125.8180   57.2050 C   0  0  0  0  0  0  0  0  0  0  0  0
  132.2510  125.8390   57.4130 C   0  0  0  0  0  0  0  0  0  0  0  0
  132.8680  125.0270   58.3670 C   0  0  0  0  0  0  0  0  0  0  0  0
  132.0320  124.1850   59.1120 C   0  0  0  0  0  0  0  0  0  0  0  0
  133.5893  124.3975   63.5855 H   0  0  0  0  0  0  0  0  0  0  0  0
  132.9880  125.6997   62.5041 H   0  0  0  0  0  0  0  0  0  0  0  0
  132.1880  124.0914   62.5041 H   0  0  0  0  0  0  0  0  0  0  0  0
  134.2736  124.9711   60.7962 H   0  0  0  0  0  0  0  0  0  0  0  0
  135.0404  123.8224   61.9812 H   0  0  0  0  0  0  0  0  0  0  0  0
  134.2606  122.6674   59.9179 H   0  0  0  0  0  0  0  0  0  0  0  0
  133.4175  122.0945   61.4085 H   0  0  0  0  0  0  0  0  0  0  0  0
  131.5149  120.8966   61.4028 H   0  0  0  0  0  0  0  0  0  0  0  0
  130.9497  122.2098   62.5264 H   0  0  0  0  0  0  0  0  0  0  0  0
  129.0677  120.9870   60.4901 H   0  0  0  0  0  0  0  0  0  0  0  0
  129.3901  120.1943   62.0976 H   0  0  0  0  0  0  0  0  0  0  0  0
  127.6177  121.4393   62.7538 H   0  0  0  0  0  0  0  0  0  0  0  0
  128.9096  122.7274   62.8905 H   0  0  0  0  0  0  0  0  0  0  0  0
  128.1560  123.3280   60.5330 H   0  0  0  0  0  0  0  0  0  0  0  0
  124.8089  123.7559   59.9001 H   0  0  0  0  0  0  0  0  0  0  0  0
  125.6034  125.1521   60.7047 H   0  0  0  0  0  0  0  0  0  0  0  0
  124.3101  123.5962   58.5159 H   0  0  0  0  0  0  0  0  0  0  0  0
  123.6146  122.5042   56.3893 H   0  0  0  0  0  0  0  0  0  0  0  0
  125.3266  121.9205   54.6773 H   0  0  0  0  0  0  0  0  0  0  0  0
  127.7343  122.4115   55.0859 H   0  0  0  0  0  0  0  0  0  0  0  0
  128.4348  123.5028   57.2155 H   0  0  0  0  0  0  0  0  0  0  0  0
  128.9531  124.9684   57.7783 H   0  0  0  0  0  0  0  0  0  0  0  0
  130.4320  126.4754   56.4406 H   0  0  0  0  0  0  0  0  0  0  0  0
  132.8714  126.5158   56.8072 H   0  0  0  0  0  0  0  0  0  0  0  0
  133.9563  125.0475   58.5257 H   0  0  0  0  0  0  0  0  0  0  0  0
  1  2  1  0
  2  3  1  0
  3  4  1  0
  4  5  1  0
  5  6  1  0
  6  7  1  0
  7  8  1  0
  8  9  1  0
  9 10  1  0
 10 11  2  0
 10 12  1  0
 12 13  1  0
 13 14  1  0
 14 15  2  0
 15 16  1  0
 16 17  2  0
 17 18  1  0
 18 19  2  0
  5 20  2  0
 20 21  1  0
 21 22  2  0
 22 23  1  0
 23 24  2  0
 24 25  1  0
 25 26  2  0
 26  4  1  0
 19 14  1  0
 26 21  1  0
  1 27  1  0
  1 28  1  0
  1 29  1  0
  2 30  1  0
  2 31  1  0
  3 32  1  0
  3 33  1  0
  6 34  1  0
  6 35  1  0
  7 36  1  0
  7 37  1  0
  8 38  1  0
  8 39  1  0
  9 40  1  0
 12 41  1  0
 12 42  1  0
 15 43  1  0
 16 44  1  0
 17 45  1  0
 18 46  1  0
 19 47  1  0
 22 48  1  0
 23 49  1  0
 24 50  1  0
 25 51  1  0
M  END
>  <Binding energies>  (1) 
[-7.16]

>  <Ligand effiencies>  (1) 
[-0.2651851851851852]

>  <Interactions>  (1) 
["V-B:TYR:539:CD1:9845, V-B:ILE:538:CD1:9837, V-B:PRO:540:CB:9857, V-B:PRO:540:CD:9859, V-B:LEU:363:CD1:8161, V-B:PRO:540:CA:9855, V-B:ILE:538:CG2:9835, V-B:TYR:539:CE2:9848, V-B:TYR:539:CD2:9846, V-B:ILE:538:CA:9832, V-B:MET:535:CE:9807, V-B:ALA:541:CB:9864, V-B:TYR:539:CZ:9849, V-B:PRO:540:C:9853, V-B:TYR:539:CE1:9847, V-B:PRO:540:N:9856, V-B:TYR:531:CE2:9765, V-A:ASP:366:CA:3210, V-A:ASP:366:CG:3213, V-A:LEU:475:CD2:4259, V-A:ILE:369:CD1:3239, V-A:ASP:366:CB:3212, V-A:ILE:369:CG2:3237, V-B:ILE:538:C:9830, V-B:ILE:538:CB:9834, H-B:ALA:541:N:9863, V-A:ARG:545:CZ:4926, V-B:ALA:541:CA:9862"]

$$$$
RR13_Rahimova_2017
     RDKit          3D

 84 90  0  0  0  0  0  0  0  0999 V2000
  129.1170  128.7010   55.3630 Cl  0  0  0  0  0  0  0  0  0  0  0  0
  128.0280  129.2400   56.5960 C   0  0  0  0  0  0  0  0  0  0  0  0
  126.7240  129.5640   56.2150 C   0  0  0  0  0  0  0  0  0  0  0  0
  125.8060  130.0240   57.1550 C   0  0  0  0  0  0  0  0  0  0  0  0
  126.1880  130.1660   58.4860 C   0  0  0  0  0  0  0  0  0  0  0  0
  127.4870  129.8440   58.8740 C   0  0  0  0  0  0  0  0  0  0  0  0
  128.4240  129.3670   57.9430 C   0  0  0  0  0  0  0  0  0  0  0  0
  129.8650  129.0420   58.3930 C   0  0  1  0  0  0  0  0  0  0  0  0
  130.4410  130.1730   59.2580 C   0  0  0  0  0  0  0  0  0  0  0  0
  129.8820  130.7150   60.3180 N   0  0  0  0  0  0  0  0  0  0  0  0
  130.7570  131.7090   60.7450 N   0  0  0  0  0  0  0  0  0  0  0  0
  131.8520  131.7690   59.9060 N   0  0  0  0  0  0  0  0  0  0  0  0
  131.6220  130.8290   58.9830 N   0  0  0  0  0  0  0  0  0  0  0  0
  132.6010  130.5710   57.9330 C   0  0  0  0  0  0  0  0  0  0  0  0
  132.6870  131.7750   56.9760 C   0  0  0  0  0  0  0  0  0  0  0  0
  131.3850  132.0070   56.2250 C   0  0  0  0  0  0  0  0  0  0  0  0
  131.3170  131.7550   54.8520 C   0  0  0  0  0  0  0  0  0  0  0  0
  130.1270  131.9750   54.1640 C   0  0  0  0  0  0  0  0  0  0  0  0
  129.0090  132.4450   54.8510 C   0  0  0  0  0  0  0  0  0  0  0  0
  129.0710  132.6990   56.2190 C   0  0  0  0  0  0  0  0  0  0  0  0
  130.2610  132.4800   56.9090 C   0  0  0  0  0  0  0  0  0  0  0  0
  129.9960  127.7140   59.0400 N   0  0  0  0  0  0  0  0  0  0  0  0
  130.0090  126.6440   58.0260 C   0  0  0  0  0  0  0  0  0  0  0  0
  130.2780  125.2700   58.6810 C   0  0  0  0  0  0  0  0  0  0  0  0
  129.2200  124.9410   59.6510 N   0  0  0  0  0  0  0  0  0  0  0  0
  129.3940  123.5950   60.2450 C   0  0  1  0  0  0  0  0  0  0  0  0
  130.7610  123.3330   60.9140 C   0  0  0  0  0  0  0  0  0  0  0  0
  131.5360  124.4530   61.2450 C   0  0  0  0  0  0  0  0  0  0  0  0
  132.7750  124.3130   61.8680 C   0  0  0  0  0  0  0  0  0  0  0  0
  133.2630  123.0440   62.1650 C   0  0  0  0  0  0  0  0  0  0  0  0
  132.5170  121.9180   61.8300 C   0  0  0  0  0  0  0  0  0  0  0  0
  131.2750  122.0470   61.2020 C   0  0  0  0  0  0  0  0  0  0  0  0
  130.4550  120.5860   60.7640 Cl  0  0  0  0  0  0  0  0  0  0  0  0
  128.2590  123.2060   61.1950 C   0  0  0  0  0  0  0  0  0  0  0  0
  128.3920  122.4850   62.2850 N   0  0  0  0  0  0  0  0  0  0  0  0
  127.1200  122.3950   62.8410 N   0  0  0  0  0  0  0  0  0  0  0  0
  126.2160  123.0940   62.0690 N   0  0  0  0  0  0  0  0  0  0  0  0
  126.9450  123.6040   61.0700 N   0  0  0  0  0  0  0  0  0  0  0  0
  126.3040  124.4000   60.0290 C   0  0  0  0  0  0  0  0  0  0  0  0
  125.3480  123.5260   59.1970 C   0  0  0  0  0  0  0  0  0  0  0  0
  125.8970  123.2360   57.8090 C   0  0  0  0  0  0  0  0  0  0  0  0
  125.0280  122.8680   56.7770 C   0  0  0  0  0  0  0  0  0  0  0  0
  125.5310  122.6100   55.5050 C   0  0  0  0  0  0  0  0  0  0  0  0
  126.9000  122.7180   55.2680 C   0  0  0  0  0  0  0  0  0  0  0  0
  127.7710  123.0850   56.2930 C   0  0  0  0  0  0  0  0  0  0  0  0
  127.2690  123.3450   57.5650 C   0  0  0  0  0  0  0  0  0  0  0  0
  129.2140  126.0100   60.6660 C   0  0  0  0  0  0  0  0  0  0  0  0
  128.9350  127.3800   60.0060 C   0  0  0  0  0  0  0  0  0  0  0  0
  126.4198  129.4548   55.1635 H   0  0  0  0  0  0  0  0  0  0  0  0
  124.7804  130.2749   56.8465 H   0  0  0  0  0  0  0  0  0  0  0  0
  125.4655  130.5319   59.2304 H   0  0  0  0  0  0  0  0  0  0  0  0
  127.7833  129.9654   59.9264 H   0  0  0  0  0  0  0  0  0  0  0  0
  130.4721  128.9757   57.4781 H   0  0  0  0  0  0  0  0  0  0  0  0
  133.5868  130.3993   58.3900 H   0  0  0  0  0  0  0  0  0  0  0  0
  132.2901  129.6825   57.3638 H   0  0  0  0  0  0  0  0  0  0  0  0
  132.9238  132.6760   57.5609 H   0  0  0  0  0  0  0  0  0  0  0  0
  133.4708  131.5612   56.2344 H   0  0  0  0  0  0  0  0  0  0  0  0
  132.2026  131.3833   54.3157 H   0  0  0  0  0  0  0  0  0  0  0  0
  130.0692  131.7788   53.0832 H   0  0  0  0  0  0  0  0  0  0  0  0
  128.0684  132.6170   54.3073 H   0  0  0  0  0  0  0  0  0  0  0  0
  128.1838  133.0710   56.7524 H   0  0  0  0  0  0  0  0  0  0  0  0
  130.3164  132.6787   57.9895 H   0  0  0  0  0  0  0  0  0  0  0  0
  129.0336  126.6166   57.5182 H   0  0  0  0  0  0  0  0  0  0  0  0
  130.8114  126.8531   57.3032 H   0  0  0  0  0  0  0  0  0  0  0  0
  130.3050  124.4963   57.8996 H   0  0  0  0  0  0  0  0  0  0  0  0
  131.2420  125.3121   59.2091 H   0  0  0  0  0  0  0  0  0  0  0  0
  129.3587  122.9397   59.3622 H   0  0  0  0  0  0  0  0  0  0  0  0
  131.1601  125.4595   61.0091 H   0  0  0  0  0  0  0  0  0  0  0  0
  133.3663  125.2044   62.1246 H   0  0  0  0  0  0  0  0  0  0  0  0
  134.2369  122.9312   62.6638 H   0  0  0  0  0  0  0  0  0  0  0  0
  132.9087  120.9165   62.0617 H   0  0  0  0  0  0  0  0  0  0  0  0
  125.7342  125.2166   60.4964 H   0  0  0  0  0  0  0  0  0  0  0  0
  127.0795  124.8112   59.3660 H   0  0  0  0  0  0  0  0  0  0  0  0
  125.1917  122.5724   59.7226 H   0  0  0  0  0  0  0  0  0  0  0  0
  124.4033  124.0769   59.0784 H   0  0  0  0  0  0  0  0  0  0  0  0
  123.9485  122.7825   56.9702 H   0  0  0  0  0  0  0  0  0  0  0  0
  124.8506  122.3220   54.6901 H   0  0  0  0  0  0  0  0  0  0  0  0
  127.2971  122.5118   54.2631 H   0  0  0  0  0  0  0  0  0  0  0  0
  128.8502  123.1687   56.0973 H   0  0  0  0  0  0  0  0  0  0  0  0
  127.9513  123.6359   58.3773 H   0  0  0  0  0  0  0  0  0  0  0  0
  128.4306  125.7996   61.4090 H   0  0  0  0  0  0  0  0  0  0  0  0
  130.1993  126.0436   61.1539 H   0  0  0  0  0  0  0  0  0  0  0  0
  127.9686  127.3392   59.4822 H   0  0  0  0  0  0  0  0  0  0  0  0
  128.9105  128.1529   60.7883 H   0  0  0  0  0  0  0  0  0  0  0  0
  1  2  1  0
  2  3  2  0
  3  4  1  0
  4  5  2  0
  5  6  1  0
  6  7  2  0
  7  8  1  0
  8  9  1  0
  9 10  2  0
 10 11  1  0
 11 12  2  0
 12 13  1  0
 13 14  1  0
 14 15  1  0
 15 16  1  0
 16 17  2  0
 17 18  1  0
 18 19  2  0
 19 20  1  0
 20 21  2  0
  8 22  1  0
 22 23  1  0
 23 24  1  0
 24 25  1  0
 25 26  1  0
 26 27  1  0
 27 28  2  0
 28 29  1  0
 29 30  2  0
 30 31  1  0
 31 32  2  0
 32 33  1  0
 26 34  1  0
 34 35  2  0
 35 36  1  0
 36 37  2  0
 37 38  1  0
 38 39  1  0
 39 40  1  0
 40 41  1  0
 41 42  2  0
 42 43  1  0
 43 44  2  0
 44 45  1  0
 45 46  2  0
 25 47  1  0
 47 48  1  0
  7  2  1  0
 13  9  1  0
 21 16  1  0
 48 22  1  0
 32 27  1  0
 38 34  1  0
 46 41  1  0
  3 49  1  0
  4 50  1  0
  5 51  1  0
  6 52  1  0
  8 53  1  6
 14 54  1  0
 14 55  1  0
 15 56  1  0
 15 57  1  0
 17 58  1  0
 18 59  1  0
 19 60  1  0
 20 61  1  0
 21 62  1  0
 23 63  1  0
 23 64  1  0
 24 65  1  0
 24 66  1  0
 26 67  1  6
 28 68  1  0
 29 69  1  0
 30 70  1  0
 31 71  1  0
 39 72  1  0
 39 73  1  0
 40 74  1  0
 40 75  1  0
 42 76  1  0
 43 77  1  0
 44 78  1  0
 45 79  1  0
 46 80  1  0
 47 81  1  0
 47 82  1  0
 48 83  1  0
 48 84  1  0
M  END
>  <Binding energies>  (1) 
[-13.33]

>  <Ligand effiencies>  (1) 
[-0.27770833333333333]

>  <Interactions>  (1) 
["V-B:TYR:539:CD1:9845, V-B:ILE:538:CD1:9837, V-B:PRO:540:CB:9857, V-B:PRO:540:CD:9859, V-B:LEU:363:CD1:8161, V-B:PRO:540:CA:9855, V-B:ILE:538:CG2:9835, V-B:TYR:539:CE2:9848, V-B:TYR:539:CD2:9846, V-B:ILE:538:CA:9832, V-B:MET:535:CE:9807, V-B:TYR:539:CZ:9849, V-B:TYR:539:CE1:9847, V-B:PRO:540:N:9856, V-B:TYR:531:CE2:9765, V-A:ASP:366:CG:3213, V-B:TYR:539:CG:9844, V-A:LEU:475:CD2:4259, V-A:GLY:454:CA:4049, V-A:ASP:366:CB:3212, V-A:TYR:531:CZ:4794, V-A:TYR:531:CE2:4793, V-A:PRO:540:CA:4883, V-A:TYR:539:C:4867, V-A:PRO:540:N:4884, V-A:PRO:540:CB:4885, V-A:TYR:539:CE2:4876, V-A:LEU:363:CD1:3189, V-B:ILE:538:CB:9834, H-B:ALA:541:N:9863, H-A:ALA:541:N:4891, V-A:ILE:538:CA:4860, V-A:ILE:538:CB:4862, V-A:ILE:538:CG2:4863, V-A:TYR:539:CD2:4874, V-A:TYR:539:CA:4869, V-A:PRO:540:CG:4886, V-A:TYR:539:CG:4872, V-A:TYR:539:CD1:4873"]

$$$$
RR14_Rahimova_2017
     RDKit          3D

 76 80  0  0  0  0  0  0  0  0999 V2000
  132.9040  131.1110   61.5080 C   0  0  0  0  0  0  0  0  0  0  0  0
  131.6240  131.6850   61.7490 O   0  0  0  0  0  0  0  0  0  0  0  0
  130.7200  131.7750   60.7080 C   0  0  0  0  0  0  0  0  0  0  0  0
  131.1570  131.3210   59.4630 C   0  0  0  0  0  0  0  0  0  0  0  0
  130.3250  131.3950   58.3500 C   0  0  0  0  0  0  0  0  0  0  0  0
  129.0410  131.9320   58.4720 C   0  0  0  0  0  0  0  0  0  0  0  0
  128.1520  132.0750   57.2440 C   0  0  0  0  0  0  0  0  0  0  0  0
  128.9010  132.1250   55.9890 N   0  0  0  0  0  0  0  0  0  0  0  0
  129.6900  133.1690   55.7140 N   0  0  0  0  0  0  0  0  0  0  0  0
  130.2060  132.9000   54.4610 N   0  0  0  0  0  0  0  0  0  0  0  0
  129.7100  131.6880   53.9910 N   0  0  0  0  0  0  0  0  0  0  0  0
  128.9150  131.2390   54.9330 C   0  0  0  0  0  0  0  0  0  0  0  0
  128.1160  129.9450   54.8630 C   0  0  0  0  0  0  0  0  0  0  0  0
  128.5800  128.9440   55.8380 N   0  0  0  0  0  0  0  0  0  0  0  0
  127.6760  127.7900   55.9130 C   0  0  0  0  0  0  0  0  0  0  0  0
  127.2860  127.4090   57.3580 C   0  0  0  0  0  0  0  0  0  0  0  0
  127.7660  126.0040   57.7790 C   0  0  0  0  0  0  0  0  0  0  0  0
  127.1600  124.9240   56.9940 N   0  0  0  0  0  0  0  0  0  0  0  0
  126.0880  124.2750   57.7600 C   0  0  0  0  0  0  0  0  0  0  0  0
  125.4640  123.0980   56.9810 C   0  0  0  0  0  0  0  0  0  0  0  0
  126.4780  122.1800   56.5870 O   0  0  0  0  0  0  0  0  0  0  0  0
  127.4570  122.7840   55.7500 C   0  0  0  0  0  0  0  0  0  0  0  0
  128.1430  123.9510   56.4930 C   0  0  0  0  0  0  0  0  0  0  0  0
  129.9440  128.5090   55.5050 C   0  0  0  0  0  0  0  0  0  0  0  0
  130.6150  127.5760   56.5110 C   0  0  0  0  0  0  0  0  0  0  0  0
  130.4850  127.7760   57.8450 C   0  0  0  0  0  0  0  0  0  0  0  0
  131.1560  126.9120   58.8390 C   0  0  0  0  0  0  0  0  0  0  0  0
  131.0280  127.0800   60.2280 C   0  0  0  0  0  0  0  0  0  0  0  0
  130.1690  128.1880   60.8230 C   0  0  0  0  0  0  0  0  0  0  0  0
  131.7030  126.2050   61.0830 C   0  0  0  0  0  0  0  0  0  0  0  0
  132.4950  125.1780   60.5700 C   0  0  0  0  0  0  0  0  0  0  0  0
  132.6270  125.0020   59.1900 C   0  0  0  0  0  0  0  0  0  0  0  0
  133.4970  123.8700   58.6610 C   0  0  0  0  0  0  0  0  0  0  0  0
  131.9530  125.8750   58.3220 C   0  0  0  0  0  0  0  0  0  0  0  0
  132.0580  125.7380   56.9220 N   0  0  0  0  0  0  0  0  0  0  0  0
  131.4630  126.5060   55.9750 C   0  0  0  0  0  0  0  0  0  0  0  0
  131.6550  126.2830   54.7800 O   0  0  0  0  0  0  0  0  0  0  0  0
  128.5840  132.3620   59.7200 C   0  0  0  0  0  0  0  0  0  0  0  0
  129.4180  132.2890   60.8320 C   0  0  0  0  0  0  0  0  0  0  0  0
  133.3940  130.8913   62.4680 H   0  0  0  0  0  0  0  0  0  0  0  0
  132.7861  130.1795   60.9349 H   0  0  0  0  0  0  0  0  0  0  0  0
  133.5211  131.8186   60.9349 H   0  0  0  0  0  0  0  0  0  0  0  0
  132.1684  130.9008   59.3604 H   0  0  0  0  0  0  0  0  0  0  0  0
  130.6783  131.0307   57.3741 H   0  0  0  0  0  0  0  0  0  0  0  0
  127.4667  131.2153   57.2073 H   0  0  0  0  0  0  0  0  0  0  0  0
  127.6150  133.0301   57.3406 H   0  0  0  0  0  0  0  0  0  0  0  0
  127.0588  130.1715   55.0655 H   0  0  0  0  0  0  0  0  0  0  0  0
  128.2526  129.5211   53.8572 H   0  0  0  0  0  0  0  0  0  0  0  0
  126.7583  128.0292   55.3558 H   0  0  0  0  0  0  0  0  0  0  0  0
  128.2110  126.9301   55.4837 H   0  0  0  0  0  0  0  0  0  0  0  0
  127.7282  128.1471   58.0433 H   0  0  0  0  0  0  0  0  0  0  0  0
  126.1870  127.4007   57.4033 H   0  0  0  0  0  0  0  0  0  0  0  0
  128.8578  125.9562   57.6539 H   0  0  0  0  0  0  0  0  0  0  0  0
  127.4615  125.8560   58.8256 H   0  0  0  0  0  0  0  0  0  0  0  0
  126.5039  123.8966   58.7054 H   0  0  0  0  0  0  0  0  0  0  0  0
  125.3001  125.0195   57.9468 H   0  0  0  0  0  0  0  0  0  0  0  0
  124.7356  122.5818   57.6236 H   0  0  0  0  0  0  0  0  0  0  0  0
  124.9615  123.4866   56.0830 H   0  0  0  0  0  0  0  0  0  0  0  0
  128.2128  122.0338   55.4742 H   0  0  0  0  0  0  0  0  0  0  0  0
  126.9671  123.1718   54.8447 H   0  0  0  0  0  0  0  0  0  0  0  0
  128.7121  123.5477   57.3436 H   0  0  0  0  0  0  0  0  0  0  0  0
  128.8087  124.4666   55.7852 H   0  0  0  0  0  0  0  0  0  0  0  0
  129.9038  127.9873   54.5374 H   0  0  0  0  0  0  0  0  0  0  0  0
  130.5534  129.4248   55.4985 H   0  0  0  0  0  0  0  0  0  0  0  0
  129.8597  128.6086   58.1997 H   0  0  0  0  0  0  0  0  0  0  0  0
  130.2104  128.1345   61.9209 H   0  0  0  0  0  0  0  0  0  0  0  0
  130.5479  129.1652   60.4889 H   0  0  0  0  0  0  0  0  0  0  0  0
  129.1283  128.0646   60.4889 H   0  0  0  0  0  0  0  0  0  0  0  0
  131.6088  126.3274   62.1721 H   0  0  0  0  0  0  0  0  0  0  0  0
  133.0208  124.5000   61.2583 H   0  0  0  0  0  0  0  0  0  0  0  0
  133.9261  123.3117   59.5061 H   0  0  0  0  0  0  0  0  0  0  0  0
  132.8846  123.1929   58.0474 H   0  0  0  0  0  0  0  0  0  0  0  0
  134.3089  124.2875   58.0474 H   0  0  0  0  0  0  0  0  0  0  0  0
  132.6400  124.9990   56.5580 H   0  0  0  0  0  0  0  0  0  0  0  0
  127.5634  132.7589   59.8241 H   0  0  0  0  0  0  0  0  0  0  0  0
  129.0565  132.6350   61.8116 H   0  0  0  0  0  0  0  0  0  0  0  0
  1  2  1  0
  2  3  1  0
  3  4  2  0
  4  5  1  0
  5  6  2  0
  6  7  1  0
  7  8  1  0
  8  9  1  0
  9 10  2  0
 10 11  1  0
 11 12  2  0
 12 13  1  0
 13 14  1  0
 14 15  1  0
 15 16  1  0
 16 17  1  0
 17 18  1  0
 18 19  1  0
 19 20  1  0
 20 21  1  0
 21 22  1  0
 22 23  1  0
 14 24  1  0
 24 25  1  0
 25 26  2  0
 26 27  1  0
 27 28  2  0
 28 29  1  0
 28 30  1  0
 30 31  2  0
 31 32  1  0
 32 33  1  0
 32 34  2  0
 34 35  1  0
 35 36  1  0
 36 37  2  0
  6 38  1  0
 38 39  2  0
 39  3  1  0
 12  8  1  0
 23 18  1  0
 36 25  1  0
 34 27  1  0
  1 40  1  0
  1 41  1  0
  1 42  1  0
  4 43  1  0
  5 44  1  0
  7 45  1  0
  7 46  1  0
 13 47  1  0
 13 48  1  0
 15 49  1  0
 15 50  1  0
 16 51  1  0
 16 52  1  0
 17 53  1  0
 17 54  1  0
 19 55  1  0
 19 56  1  0
 20 57  1  0
 20 58  1  0
 22 59  1  0
 22 60  1  0
 23 61  1  0
 23 62  1  0
 24 63  1  0
 24 64  1  0
 26 65  1  0
 29 66  1  0
 29 67  1  0
 29 68  1  0
 30 69  1  0
 31 70  1  0
 33 71  1  0
 33 72  1  0
 33 73  1  0
 35 74  1  0
 38 75  1  0
 39 76  1  0
M  END
>  <Binding energies>  (1) 
[-11.11]

>  <Ligand effiencies>  (1) 
[-0.27775]

>  <Interactions>  (1) 
["V-B:TYR:539:CD1:9845, V-B:PRO:540:CB:9857, V-B:PRO:540:CD:9859, H-B:TYR:539:N:9842, V-B:TYR:539:CE2:9848, V-B:MET:535:CE:9807, V-B:TYR:539:CZ:9849, V-B:TYR:539:CE1:9847, V-B:PRO:540:N:9856, V-A:ASP:366:CA:3210, V-A:ASP:366:CG:3213, V-B:TYR:539:CG:9844, V-A:ILE:369:CD1:3239, V-A:ASP:366:CB:3212, V-A:ILE:369:CB:3236, V-A:ILE:369:CG2:3237, V-A:TYR:539:CE1:4875, H-A:TYR:539:N:4870, V-A:TYR:539:CZ:4877, V-A:PRO:540:CA:4883, V-A:TYR:539:C:4867, V-A:PRO:540:CB:4885, V-A:GLU:543:CD:4908, H-A:ALA:541:N:4891, V-A:ALA:541:CB:4892, H-B:TYR:539:OH:9850, H-B:TYR:531:OH:9767, H-A:TYR:531:OH:4795, V-A:TYR:539:CD2:4874, V-A:PRO:540:C:4881, V-A:TYR:539:CG:4872, V-A:TYR:539:CD1:4873, V-A:ASN:362:CB:3176, H-A:ASP:366:O:3209"]

$$$$
RR15_Rahimova_2017
     RDKit          3D

 85 89  0  0  0  0  0  0  0  0999 V2000
  133.2490  122.7700   62.2430 C   0  0  0  0  0  0  0  0  0  0  0  0
  133.8420  123.9290   61.6680 O   0  0  0  0  0  0  0  0  0  0  0  0
  133.2960  124.4760   60.5190 C   0  0  0  0  0  0  0  0  0  0  0  0
  133.7820  124.2160   59.2280 C   0  0  0  0  0  0  0  0  0  0  0  0
  133.1870  124.8010   58.1130 C   0  0  0  0  0  0  0  0  0  0  0  0
  132.0950  125.6620   58.2540 C   0  0  0  0  0  0  0  0  0  0  0  0
  131.4570  126.2990   57.0500 C   0  0  0  0  0  0  0  0  0  0  0  0
  131.9240  126.1420   55.8190 N   0  0  0  0  0  0  0  0  0  0  0  0
  131.0920  126.8750   54.9980 N   0  0  0  0  0  0  0  0  0  0  0  0
  130.1780  127.3670   55.8360 N   0  0  0  0  0  0  0  0  0  0  0  0
  129.1820  128.3470   55.4070 C   0  0  0  0  0  0  0  0  0  0  0  0
  127.8270  128.2650   56.1530 C   0  0  0  0  0  0  0  0  0  0  0  0
  126.8900  127.6850   55.5980 O   0  0  0  0  0  0  0  0  0  0  0  0
  127.7100  128.8030   57.4060 N   0  0  0  0  0  0  0  0  0  0  0  0
  127.7880  127.9590   58.6140 C   0  0  0  0  0  0  0  0  0  0  0  0
  127.0050  126.6340   58.4940 C   0  0  0  0  0  0  0  0  0  0  0  0
  127.8330  125.4350   57.9740 C   0  0  0  0  0  0  0  0  0  0  0  0
  127.0990  124.5680   57.0480 N   0  0  0  0  0  0  0  0  0  0  0  0
  127.9610  123.6300   56.3120 C   0  0  0  0  0  0  0  0  0  0  0  0
  127.1320  122.6840   55.4170 C   0  0  0  0  0  0  0  0  0  0  0  0
  126.1440  122.0130   56.1930 O   0  0  0  0  0  0  0  0  0  0  0  0
  125.2440  122.9170   56.8240 C   0  0  0  0  0  0  0  0  0  0  0  0
  126.0210  123.8670   57.7600 C   0  0  0  0  0  0  0  0  0  0  0  0
  127.6900  130.2750   57.6700 C   0  0  2  0  0  0  0  0  0  0  0  0
  127.6210  131.1520   56.3810 C   0  0  0  0  0  0  0  0  0  0  0  0
  126.6070  131.1790   55.6850 O   0  0  0  0  0  0  0  0  0  0  0  0
  128.7150  131.8900   56.1210 N   0  0  0  0  0  0  0  0  0  0  0  0
  128.8410  132.8570   55.0360 C   0  0  0  0  0  0  0  0  0  0  0  0
  130.2430  132.8010   54.4010 C   0  0  2  0  0  0  0  0  0  0  0  0
  130.8900  131.4060   54.3520 C   0  0  0  0  0  0  0  0  0  0  0  0
  131.8730  131.4030   55.4970 C   0  0  0  0  0  0  0  0  0  0  0  0
  132.3200  132.8550   55.5110 C   0  0  0  0  0  0  0  0  0  0  0  0
  131.1040  133.5530   55.2670 O   0  0  0  0  0  0  0  0  0  0  0  0
  128.7330  130.6470   58.7170 C   0  0  0  0  0  0  0  0  0  0  0  0
  128.3140  131.3780   59.8360 C   0  0  0  0  0  0  0  0  0  0  0  0
  129.2220  131.7460   60.8240 C   0  0  0  0  0  0  0  0  0  0  0  0
  130.5600  131.3840   60.7010 C   0  0  0  0  0  0  0  0  0  0  0  0
  131.4430  131.7410   61.6610 F   0  0  0  0  0  0  0  0  0  0  0  0
  130.9960  130.6560   59.5970 C   0  0  0  0  0  0  0  0  0  0  0  0
  130.0870  130.2890   58.6090 C   0  0  0  0  0  0  0  0  0  0  0  0
  130.3870  127.0690   57.1240 N   0  0  0  0  0  0  0  0  0  0  0  0
  131.6110  125.9180   59.5430 C   0  0  0  0  0  0  0  0  0  0  0  0
  132.1970  125.3330   60.6780 C   0  0  0  0  0  0  0  0  0  0  0  0
  131.7540  125.5520   61.9710 O   0  0  0  0  0  0  0  0  0  0  0  0
  130.6880  126.4660   62.2030 C   0  0  0  0  0  0  0  0  0  0  0  0
  133.2871  122.8444   63.3398 H   0  0  0  0  0  0  0  0  0  0  0  0
  132.2012  122.6940   61.9168 H   0  0  0  0  0  0  0  0  0  0  0  0
  133.8004  121.8758   61.9168 H   0  0  0  0  0  0  0  0  0  0  0  0
  134.6420  123.5430   59.0956 H   0  0  0  0  0  0  0  0  0  0  0  0
  133.5811  124.5829   57.1094 H   0  0  0  0  0  0  0  0  0  0  0  0
  129.6000  129.3520   55.5662 H   0  0  0  0  0  0  0  0  0  0  0  0
  128.9676  128.1285   54.3504 H   0  0  0  0  0  0  0  0  0  0  0  0
  128.8451  127.7221   58.8050 H   0  0  0  0  0  0  0  0  0  0  0  0
  127.3318  128.5298   59.4362 H   0  0  0  0  0  0  0  0  0  0  0  0
  126.6163  126.3750   59.4899 H   0  0  0  0  0  0  0  0  0  0  0  0
  126.2133  126.8088   57.7506 H   0  0  0  0  0  0  0  0  0  0  0  0
  128.7204  125.8254   57.4543 H   0  0  0  0  0  0  0  0  0  0  0  0
  128.0942  124.8218   58.8491 H   0  0  0  0  0  0  0  0  0  0  0  0
  128.6552  124.2031   55.6799 H   0  0  0  0  0  0  0  0  0  0  0  0
  128.5109  123.0197   57.0435 H   0  0  0  0  0  0  0  0  0  0  0  0
  126.6380  123.2703   54.6281 H   0  0  0  0  0  0  0  0  0  0  0  0
  127.8023  121.9374   54.9661 H   0  0  0  0  0  0  0  0  0  0  0  0
  124.7228  123.5077   56.0563 H   0  0  0  0  0  0  0  0  0  0  0  0
  124.5129  122.3457   57.4148 H   0  0  0  0  0  0  0  0  0  0  0  0
  125.3234  124.6108   58.1725 H   0  0  0  0  0  0  0  0  0  0  0  0
  126.4736  123.2650   58.5617 H   0  0  0  0  0  0  0  0  0  0  0  0
  126.7279  130.5372   58.1344 H   0  0  0  0  0  0  0  0  0  0  0  0
  129.4960  131.8330   56.7570 H   0  0  0  0  0  0  0  0  0  0  0  0
  128.0888  132.6321   54.2656 H   0  0  0  0  0  0  0  0  0  0  0  0
  128.6847  133.8651   55.4476 H   0  0  0  0  0  0  0  0  0  0  0  0
  130.1271  133.1638   53.3690 H   0  0  0  0  0  0  0  0  0  0  0  0
  130.1317  130.6210   54.4889 H   0  0  0  0  0  0  0  0  0  0  0  0
  131.3744  131.2041   53.3853 H   0  0  0  0  0  0  0  0  0  0  0  0
  131.3877  131.1221   56.4434 H   0  0  0  0  0  0  0  0  0  0  0  0
  132.6944  130.6803   55.3830 H   0  0  0  0  0  0  0  0  0  0  0  0
  132.7476  133.1301   56.4864 H   0  0  0  0  0  0  0  0  0  0  0  0
  133.1090  133.0784   54.7778 H   0  0  0  0  0  0  0  0  0  0  0  0
  127.2564  131.6640   59.9347 H   0  0  0  0  0  0  0  0  0  0  0  0
  128.8835  132.3207   61.6987 H   0  0  0  0  0  0  0  0  0  0  0  0
  132.0548  130.3720   59.5061 H   0  0  0  0  0  0  0  0  0  0  0  0
  130.4316  129.7141   57.7368 H   0  0  0  0  0  0  0  0  0  0  0  0
  130.7518  126.5930   59.6698 H   0  0  0  0  0  0  0  0  0  0  0  0
  130.5417  126.5914   63.2860 H   0  0  0  0  0  0  0  0  0  0  0  0
  130.9338  127.4383   61.7512 H   0  0  0  0  0  0  0  0  0  0  0  0
  129.7646  126.0747   61.7512 H   0  0  0  0  0  0  0  0  0  0  0  0
  1  2  1  0
  2  3  1  0
  3  4  2  0
  4  5  1  0
  5  6  2  0
  6  7  1  0
  7  8  1  0
  8  9  2  0
  9 10  1  0
 10 11  1  0
 11 12  1  0
 12 13  2  0
 12 14  1  0
 14 15  1  0
 15 16  1  0
 16 17  1  0
 17 18  1  0
 18 19  1  0
 19 20  1  0
 20 21  1  0
 21 22  1  0
 22 23  1  0
 14 24  1  0
 24 25  1  0
 25 26  2  0
 25 27  1  0
 27 28  1  0
 28 29  1  0
 29 30  1  0
 30 31  1  0
 31 32  1  0
 32 33  1  0
 24 34  1  0
 34 35  2  0
 35 36  1  0
 36 37  2  0
 37 38  1  0
 37 39  1  0
 39 40  2  0
 10 41  1  0
  6 42  1  0
 42 43  2  0
 43 44  1  0
 44 45  1  0
 43  3  1  0
 41  7  2  0
 23 18  1  0
 33 29  1  0
 40 34  1  0
  1 46  1  0
  1 47  1  0
  1 48  1  0
  4 49  1  0
  5 50  1  0
 11 51  1  0
 11 52  1  0
 15 53  1  0
 15 54  1  0
 16 55  1  0
 16 56  1  0
 17 57  1  0
 17 58  1  0
 19 59  1  0
 19 60  1  0
 20 61  1  0
 20 62  1  0
 22 63  1  0
 22 64  1  0
 23 65  1  0
 23 66  1  0
 24 67  1  1
 27 68  1  0
 28 69  1  0
 28 70  1  0
 29 71  1  6
 30 72  1  0
 30 73  1  0
 31 74  1  0
 31 75  1  0
 32 76  1  0
 32 77  1  0
 35 78  1  0
 36 79  1  0
 39 80  1  0
 40 81  1  0
 42 82  1  0
 45 83  1  0
 45 84  1  0
 45 85  1  0
M  END
>  <Binding energies>  (1) 
[-10.11]

>  <Ligand effiencies>  (1) 
[-0.21978260869565217]

>  <Interactions>  (1) 
["V-B:TYR:539:CD1:9845, V-B:PRO:540:CB:9857, V-B:PRO:540:CD:9859, V-B:LEU:363:CD1:8161, H-B:TYR:539:N:9842, V-B:TYR:539:CE2:9848, V-B:ILE:538:CA:9832, V-B:MET:535:CE:9807, V-B:TYR:539:CZ:9849, V-B:TYR:539:CE1:9847, V-B:PRO:540:N:9856, V-A:ASP:366:CA:3210, V-A:ASP:366:CG:3213, V-A:LEU:475:CD2:4259, V-A:ILE:369:CD1:3239, V-A:ASP:366:C:3208, V-A:GLY:454:CA:4049, V-A:ASP:366:CB:3212, V-A:ILE:369:CB:3236, V-A:ILE:369:CG2:3237, V-A:TYR:539:CE1:4875, V-A:TYR:531:CZ:4794, H-A:TYR:539:N:4870, V-A:TYR:539:CZ:4877, V-A:TYR:531:CE2:4793, V-A:PRO:540:CA:4883, V-A:PRO:540:N:4884, V-A:PRO:540:CB:4885, V-A:TYR:539:CE2:4876, H-B:LYS:534:NZ:9795, V-A:LEU:363:CD1:3189, V-A:GLU:543:CD:4908, H-A:GLY:454:N:4050, H-A:ARG:545:NH2:4928, V-A:ALA:541:CB:4892, V-A:PRO:540:CD:4887, V-A:GLU:543:CG:4907, H-B:TYR:539:OH:9850, H-B:TYR:531:OH:9767, V-A:ILE:538:CA:4860, V-A:ILE:538:CB:4862, V-A:ILE:538:CG2:4863, H-A:TYR:531:OH:4795, H-A:TYR:539:OH:4878, V-A:ILE:538:C:4858, V-A:TYR:539:CD2:4874, V-A:PRO:540:C:4881, V-A:PRO:540:CG:4886, V-A:TYR:539:CG:4872, V-A:TYR:539:CD1:4873, V-A:ALA:541:CA:4890, V-A:ALA:541:C:4888"]

$$$$
RR16_Rahimova_2017
     RDKit          3D

 80 85  0  0  0  0  0  0  0  0999 V2000
  131.9490  131.6090   53.8620 O   0  0  0  0  0  0  0  0  0  0  0  0
  131.6280  132.1400   55.1920 S   0  0  0  0  0  0  0  0  0  0  0  0
  131.7070  133.5800   55.4660 O   0  0  0  0  0  0  0  0  0  0  0  0
  132.6500  131.3020   56.3610 N   0  0  0  0  0  0  0  0  0  0  0  0
  132.6420  131.6860   57.7920 C   0  0  0  0  0  0  0  0  0  0  0  0
  131.2480  131.3740   58.3950 C   0  0  0  0  0  0  0  0  0  0  0  0
  131.0260  131.7220   59.8800 C   0  0  0  0  0  0  0  0  0  0  0  0
  132.0670  131.1020   60.8290 C   0  0  0  0  0  0  0  0  0  0  0  0
  133.4080  131.8510   60.9330 C   0  0  0  0  0  0  0  0  0  0  0  0
  134.3710  131.7410   59.7340 C   0  0  0  0  0  0  0  0  0  0  0  0
  133.8420  131.0030   58.4890 C   0  0  0  0  0  0  0  0  0  0  0  0
  129.9690  131.5960   55.5800 C   0  0  0  0  0  0  0  0  0  0  0  0
  129.2430  132.2180   56.5990 C   0  0  0  0  0  0  0  0  0  0  0  0
  128.0040  131.7070   56.9730 C   0  0  0  0  0  0  0  0  0  0  0  0
  127.4950  130.5780   56.3270 C   0  0  0  0  0  0  0  0  0  0  0  0
  125.9690  129.8350   56.9000 S   0  0  0  0  0  0  0  0  0  0  0  0
  125.2410  129.3580   55.7160 O   0  0  0  0  0  0  0  0  0  0  0  0
  125.3370  130.7850   57.8250 O   0  0  0  0  0  0  0  0  0  0  0  0
  126.4980  128.4230   57.8350 N   0  0  0  0  0  0  0  0  0  0  0  0
  125.5080  127.9390   58.8320 C   0  0  0  0  0  0  0  0  0  0  0  0
  126.1630  126.9290   59.7960 C   0  0  0  0  0  0  0  0  0  0  0  0
  126.8650  125.7790   59.0330 C   0  0  0  0  0  0  0  0  0  0  0  0
  127.5610  124.7900   59.9720 C   0  0  0  0  0  0  0  0  0  0  0  0
  126.8250  124.1510   60.9800 C   0  0  0  0  0  0  0  0  0  0  0  0
  127.4180  123.2370   61.8520 C   0  0  0  0  0  0  0  0  0  0  0  0
  126.6810  122.6190   62.8300 O   0  0  0  0  0  0  0  0  0  0  0  0
  128.7850  122.9630   61.6970 C   0  0  0  0  0  0  0  0  0  0  0  0
  129.6130  122.1180   62.3770 N   0  0  0  0  0  0  0  0  0  0  0  0
  130.8610  122.2070   61.8000 N   0  0  0  0  0  0  0  0  0  0  0  0
  130.8090  123.1220   60.8130 N   0  0  0  0  0  0  0  0  0  0  0  0
  131.9750  123.3590   59.9710 C   0  0  0  0  0  0  0  0  0  0  0  0
  131.9100  124.6920   59.2390 C   0  0  0  0  0  0  0  0  0  0  0  0
  132.3260  124.7810   57.9070 C   0  0  0  0  0  0  0  0  0  0  0  0
  132.2460  125.9970   57.2260 C   0  0  0  0  0  0  0  0  0  0  0  0
  131.7490  127.1290   57.8740 C   0  0  0  0  0  0  0  0  0  0  0  0
  131.3300  127.0450   59.2020 C   0  0  0  0  0  0  0  0  0  0  0  0
  130.7040  128.4400   60.0020 Cl  0  0  0  0  0  0  0  0  0  0  0  0
  131.4130  125.8290   59.8840 C   0  0  0  0  0  0  0  0  0  0  0  0
  129.5230  123.6180   60.6820 C   0  0  0  0  0  0  0  0  0  0  0  0
  128.9310  124.5370   59.8100 C   0  0  0  0  0  0  0  0  0  0  0  0
  127.7990  126.3010   57.9110 C   0  0  0  0  0  0  0  0  0  0  0  0
  127.0960  127.3390   57.0130 C   0  0  0  0  0  0  0  0  0  0  0  0
  128.2030  129.9830   55.2800 C   0  0  0  0  0  0  0  0  0  0  0  0
  129.4430  130.4910   54.9090 C   0  0  0  0  0  0  0  0  0  0  0  0
  132.9010  130.3330   56.1490 H   0  0  0  0  0  0  0  0  0  0  0  0
  132.7831  132.7664   57.9433 H   0  0  0  0  0  0  0  0  0  0  0  0
  130.5024  131.9323   57.8098 H   0  0  0  0  0  0  0  0  0  0  0  0
  131.1575  130.2789   58.3451 H   0  0  0  0  0  0  0  0  0  0  0  0
  131.0663  132.8158   59.9890 H   0  0  0  0  0  0  0  0  0  0  0  0
  130.0483  131.3047   60.1627 H   0  0  0  0  0  0  0  0  0  0  0  0
  131.6244  131.0609   61.8352 H   0  0  0  0  0  0  0  0  0  0  0  0
  132.3075  130.1156   60.4057 H   0  0  0  0  0  0  0  0  0  0  0  0
  133.1810  132.9175   61.0785 H   0  0  0  0  0  0  0  0  0  0  0  0
  133.9381  131.3691   61.7677 H   0  0  0  0  0  0  0  0  0  0  0  0
  134.6398  132.7626   59.4272 H   0  0  0  0  0  0  0  0  0  0  0  0
  135.2143  131.1336   60.0944 H   0  0  0  0  0  0  0  0  0  0  0  0
  134.6632  130.9277   57.7610 H   0  0  0  0  0  0  0  0  0  0  0  0
  133.4814  130.0244   58.8387 H   0  0  0  0  0  0  0  0  0  0  0  0
  129.6490  133.1074   57.1031 H   0  0  0  0  0  0  0  0  0  0  0  0
  127.4271  132.1907   57.7750 H   0  0  0  0  0  0  0  0  0  0  0  0
  125.1265  128.7947   59.4084 H   0  0  0  0  0  0  0  0  0  0  0  0
  124.6827  127.4413   58.3017 H   0  0  0  0  0  0  0  0  0  0  0  0
  126.9079  127.4552   60.4110 H   0  0  0  0  0  0  0  0  0  0  0  0
  125.3718  126.4912   60.4223 H   0  0  0  0  0  0  0  0  0  0  0  0
  126.0705  125.2085   58.5297 H   0  0  0  0  0  0  0  0  0  0  0  0
  125.7534  124.3758   61.0861 H   0  0  0  0  0  0  0  0  0  0  0  0
  126.1890  123.2340   63.3790 H   0  0  0  0  0  0  0  0  0  0  0  0
  132.8743  123.3488   60.6043 H   0  0  0  0  0  0  0  0  0  0  0  0
  132.0033  122.5639   59.2114 H   0  0  0  0  0  0  0  0  0  0  0  0
  132.7175  123.8901   57.3942 H   0  0  0  0  0  0  0  0  0  0  0  0
  132.5747  126.0631   56.1784 H   0  0  0  0  0  0  0  0  0  0  0  0
  131.6877  128.0874   57.3375 H   0  0  0  0  0  0  0  0  0  0  0  0
  131.0862  125.7654   60.9324 H   0  0  0  0  0  0  0  0  0  0  0  0
  129.5168  125.0417   59.0277 H   0  0  0  0  0  0  0  0  0  0  0  0
  128.6812  126.7692   58.3720 H   0  0  0  0  0  0  0  0  0  0  0  0
  128.0867  125.4457   57.2820 H   0  0  0  0  0  0  0  0  0  0  0  0
  127.8311  127.7744   56.3202 H   0  0  0  0  0  0  0  0  0  0  0  0
  126.2945  126.8368   56.4515 H   0  0  0  0  0  0  0  0  0  0  0  0
  127.7810  129.1158   54.7510 H   0  0  0  0  0  0  0  0  0  0  0  0
  130.0078  130.0234   54.0890 H   0  0  0  0  0  0  0  0  0  0  0  0
  1  2  2  0
  2  3  2  0
  2  4  1  0
  4  5  1  0
  5  6  1  0
  6  7  1  0
  7  8  1  0
  8  9  1  0
  9 10  1  0
 10 11  1  0
  2 12  1  0
 12 13  2  0
 13 14  1  0
 14 15  2  0
 15 16  1  0
 16 17  2  0
 16 18  2  0
 16 19  1  0
 19 20  1  0
 20 21  1  0
 21 22  1  0
 22 23  1  0
 23 24  2  0
 24 25  1  0
 25 26  1  0
 25 27  2  0
 27 28  1  0
 28 29  2  0
 29 30  1  0
 30 31  1  0
 31 32  1  0
 32 33  2  0
 33 34  1  0
 34 35  2  0
 35 36  1  0
 36 37  1  0
 36 38  2  0
 30 39  1  0
 39 40  2  0
 22 41  1  0
 41 42  1  0
 15 43  1  0
 43 44  2  0
 11  5  1  0
 44 12  1  0
 42 19  1  0
 40 23  1  0
 39 27  1  0
 38 32  1  0
  4 45  1  0
  5 46  1  0
  6 47  1  0
  6 48  1  0
  7 49  1  0
  7 50  1  0
  8 51  1  0
  8 52  1  0
  9 53  1  0
  9 54  1  0
 10 55  1  0
 10 56  1  0
 11 57  1  0
 11 58  1  0
 13 59  1  0
 14 60  1  0
 20 61  1  0
 20 62  1  0
 21 63  1  0
 21 64  1  0
 22 65  1  0
 24 66  1  0
 26 67  1  0
 31 68  1  0
 31 69  1  0
 33 70  1  0
 34 71  1  0
 35 72  1  0
 38 73  1  0
 40 74  1  0
 41 75  1  0
 41 76  1  0
 42 77  1  0
 42 78  1  0
 43 79  1  0
 44 80  1  0
M  END
>  <Binding energies>  (1) 
[-10.33]

>  <Ligand effiencies>  (1) 
[-0.21520833333333333]

>  <Interactions>  (1) 
["V-B:GLU:543:CD:9880, V-B:PRO:540:CA:9855, H-B:GLU:543:OE1:9881, V-B:TYR:539:CE2:9848, V-B:MET:535:CE:9807, V-B:TYR:539:CZ:9849, H-A:TYR:484:OH:4348, V-A:ASP:366:CG:3213, V-A:ASP:366:CB:3212, V-A:TYR:539:CE1:4875, H-A:TYR:539:N:4870, V-B:ASP:366:CG:8185, V-A:TYR:539:CZ:4877, V-A:TYR:531:CE2:4793, V-A:PRO:540:CA:4883, V-A:TYR:539:C:4867, V-A:PRO:540:CB:4885, V-B:ASP:366:CB:8184, H-B:LYS:534:NZ:9795, V-A:LEU:363:CD1:3189, H-B:ALA:541:N:9863, V-A:LEU:363:CA:3185, H-B:TYR:531:OH:9767, V-A:ILE:538:CB:4862, V-A:ILE:538:CG2:4863, H-A:TYR:531:OH:4795, H-A:TYR:539:OH:4878, V-A:PRO:540:C:4881, V-A:PRO:540:CG:4886, V-A:TYR:539:CD1:4873, V-A:ASN:362:CB:3176, V-A:ASN:362:C:3172, V-A:ASN:362:CA:3174, H-B:ALA:541:O:9861, V-A:LEU:363:CB:3187"]

$$$$
RR17_Rahimova_2017
     RDKit          3D

 63 66  0  0  0  0  0  0  0  0999 V2000
  132.4750  131.7220   56.6730 C   0  0  0  0  0  0  0  0  0  0  0  0
  132.4360  132.7230   55.5140 C   0  0  0  0  0  0  0  0  0  0  0  0
  131.1200  133.2610   55.4180 O   0  0  0  0  0  0  0  0  0  0  0  0
  130.0360  132.4020   55.4040 C   0  0  0  0  0  0  0  0  0  0  0  0
  129.1230  132.5360   56.4490 C   0  0  0  0  0  0  0  0  0  0  0  0
  128.0020  131.7150   56.5200 C   0  0  0  0  0  0  0  0  0  0  0  0
  127.7710  130.7360   55.5430 C   0  0  0  0  0  0  0  0  0  0  0  0
  126.5530  129.8650   55.6460 C   0  0  0  0  0  0  0  0  0  0  0  0
  126.4950  128.7450   55.1300 O   0  0  0  0  0  0  0  0  0  0  0  0
  125.3450  130.4380   56.4200 C   0  0  0  0  0  0  0  0  0  0  0  0
  125.7320  130.7300   58.1830 S   0  0  0  0  0  0  0  0  0  0  0  0
  126.1560  129.0840   58.6790 C   0  0  0  0  0  0  0  0  0  0  0  0
  125.4350  128.0110   58.4480 N   0  0  0  0  0  0  0  0  0  0  0  0
  126.1100  126.9220   58.9850 N   0  0  0  0  0  0  0  0  0  0  0  0
  127.2160  127.3770   59.5180 C   0  0  0  0  0  0  0  0  0  0  0  0
  128.2610  126.5140   60.2080 C   0  0  0  0  0  0  0  0  0  0  0  0
  127.9890  125.0810   60.1280 N   0  0  0  0  0  0  0  0  0  0  0  0
  127.5020  124.4420   58.9730 C   0  0  0  0  0  0  0  0  0  0  0  0
  128.2830  124.5160   57.8200 C   0  0  0  0  0  0  0  0  0  0  0  0
  127.8570  123.9110   56.6410 C   0  0  0  0  0  0  0  0  0  0  0  0
  126.6430  123.2190   56.6040 C   0  0  0  0  0  0  0  0  0  0  0  0
  126.1870  122.5650   55.3000 C   0  0  0  0  0  0  0  0  0  0  0  0
  125.2480  121.6370   55.5000 F   0  0  0  0  0  0  0  0  0  0  0  0
  125.6870  123.4820   54.4690 F   0  0  0  0  0  0  0  0  0  0  0  0
  127.2330  121.9820   54.7140 F   0  0  0  0  0  0  0  0  0  0  0  0
  125.8620  123.1370   57.7610 C   0  0  0  0  0  0  0  0  0  0  0  0
  126.2890  123.7410   58.9400 C   0  0  0  0  0  0  0  0  0  0  0  0
  127.3020  128.7460   59.3690 N   0  0  0  0  0  0  0  0  0  0  0  0
  128.3360  129.5940   59.7940 C   0  0  0  0  0  0  0  0  0  0  0  0
  128.1250  130.4450   60.8780 C   0  0  0  0  0  0  0  0  0  0  0  0
  129.1500  131.2890   61.2970 C   0  0  0  0  0  0  0  0  0  0  0  0
  130.3880  131.2830   60.6340 C   0  0  0  0  0  0  0  0  0  0  0  0
  131.4600  132.0830   60.9800 O   0  0  0  0  0  0  0  0  0  0  0  0
  132.7170  131.4770   61.2620 C   0  0  0  0  0  0  0  0  0  0  0  0
  130.5800  130.4250   59.5490 C   0  0  0  0  0  0  0  0  0  0  0  0
  129.5600  129.5780   59.1250 C   0  0  0  0  0  0  0  0  0  0  0  0
  128.6910  130.6030   54.4920 C   0  0  0  0  0  0  0  0  0  0  0  0
  129.8110  131.4260   54.4220 C   0  0  0  0  0  0  0  0  0  0  0  0
  132.4538  132.2664   57.6286 H   0  0  0  0  0  0  0  0  0  0  0  0
  131.6021  131.0554   56.6113 H   0  0  0  0  0  0  0  0  0  0  0  0
  133.3971  131.1254   56.6113 H   0  0  0  0  0  0  0  0  0  0  0  0
  133.1547  133.5344   55.7016 H   0  0  0  0  0  0  0  0  0  0  0  0
  132.7036  132.2181   54.5741 H   0  0  0  0  0  0  0  0  0  0  0  0
  129.2905  133.2979   57.2246 H   0  0  0  0  0  0  0  0  0  0  0  0
  127.2904  131.8350   57.3502 H   0  0  0  0  0  0  0  0  0  0  0  0
  125.0490  131.3920   55.9593 H   0  0  0  0  0  0  0  0  0  0  0  0
  124.5305  129.7004   56.3701 H   0  0  0  0  0  0  0  0  0  0  0  0
  129.2364  126.7085   59.7382 H   0  0  0  0  0  0  0  0  0  0  0  0
  128.2457  126.7838   61.2743 H   0  0  0  0  0  0  0  0  0  0  0  0
  127.9550  124.5660   60.9950 H   0  0  0  0  0  0  0  0  0  0  0  0
  129.2413  125.0556   57.8424 H   0  0  0  0  0  0  0  0  0  0  0  0
  128.4778  123.9777   55.7353 H   0  0  0  0  0  0  0  0  0  0  0  0
  124.9062  122.5929   57.7393 H   0  0  0  0  0  0  0  0  0  0  0  0
  125.6727  123.6679   59.8482 H   0  0  0  0  0  0  0  0  0  0  0  0
  127.1559  130.4496   61.3984 H   0  0  0  0  0  0  0  0  0  0  0  0
  128.9894  131.9634   62.1510 H   0  0  0  0  0  0  0  0  0  0  0  0
  132.8557  131.4101   62.3512 H   0  0  0  0  0  0  0  0  0  0  0  0
  132.7432  130.4673   60.8264 H   0  0  0  0  0  0  0  0  0  0  0  0
  133.5233  132.0854   60.8264 H   0  0  0  0  0  0  0  0  0  0  0  0
  131.5468  130.4184   59.0243 H   0  0  0  0  0  0  0  0  0  0  0  0
  129.7175  128.9028   58.2710 H   0  0  0  0  0  0  0  0  0  0  0  0
  128.5254  129.8411   53.7161 H   0  0  0  0  0  0  0  0  0  0  0  0
  130.5237  131.3105   53.5921 H   0  0  0  0  0  0  0  0  0  0  0  0
  1  2  1  0
  2  3  1  0
  3  4  1  0
  4  5  2  0
  5  6  1  0
  6  7  2  0
  7  8  1  0
  8  9  2  0
  8 10  1  0
 10 11  1  0
 11 12  1  0
 12 13  2  0
 13 14  1  0
 14 15  2  0
 15 16  1  0
 16 17  1  0
 17 18  1  0
 18 19  2  0
 19 20  1  0
 20 21  2  0
 21 22  1  0
 22 23  1  0
 22 24  1  0
 22 25  1  0
 21 26  1  0
 26 27  2  0
 15 28  1  0
 28 29  1  0
 29 30  2  0
 30 31  1  0
 31 32  2  0
 32 33  1  0
 33 34  1  0
 32 35  1  0
 35 36  2  0
  7 37  1  0
 37 38  2  0
 38  4  1  0
 28 12  1  0
 36 29  1  0
 27 18  1  0
  1 39  1  0
  1 40  1  0
  1 41  1  0
  2 42  1  0
  2 43  1  0
  5 44  1  0
  6 45  1  0
 10 46  1  0
 10 47  1  0
 16 48  1  0
 16 49  1  0
 17 50  1  0
 19 51  1  0
 20 52  1  0
 26 53  1  0
 27 54  1  0
 30 55  1  0
 31 56  1  0
 34 57  1  0
 34 58  1  0
 34 59  1  0
 35 60  1  0
 36 61  1  0
 37 62  1  0
 38 63  1  0
M  END
>  <Binding energies>  (1) 
[-9.19]

>  <Ligand effiencies>  (1) 
[-0.23564102564102563]

>  <Interactions>  (1) 
["V-B:TYR:539:CD1:9845, V-B:ILE:538:CD1:9837, V-B:PRO:540:CB:9857, V-B:PRO:540:CD:9859, V-B:PRO:540:CA:9855, V-B:ILE:538:CG2:9835, H-B:GLU:543:OE1:9881, V-B:ILE:538:CA:9832, V-B:MET:535:CE:9807, V-B:TYR:539:CZ:9849, V-B:TYR:539:CE1:9847, V-B:PRO:540:N:9856, V-B:TYR:531:CE2:9765, V-B:TYR:539:CG:9844, V-B:TYR:531:CZ:9766, V-A:TYR:539:CE1:4875, V-B:TYR:531:CE1:9764, H-A:TYR:539:N:4870, V-A:TYR:539:CZ:4877, V-A:PRO:540:CA:4883, V-A:TYR:539:C:4867, V-A:PRO:540:N:4884, V-A:PRO:540:CB:4885, V-A:TYR:539:CE2:4876, H-B:LYS:534:NZ:9795, V-A:LEU:363:CD1:3189, V-B:ILE:538:C:9830, V-B:ILE:538:CB:9834, H-A:ALA:541:N:4891, V-A:PRO:540:CD:4887, H-B:TYR:531:OH:9767, V-A:ILE:538:CB:4862, V-A:ILE:538:CG2:4863, V-B:ILE:538:CG1:9836, V-A:TYR:539:CD2:4874, V-A:PRO:540:CG:4886, V-A:TYR:539:CG:4872, V-A:TYR:539:CD1:4873, V-B:MET:535:CG:9805, V-A:ASN:362:CB:3176, V-B:MET:535:CB:9804, V-B:VAL:537:C:9822"]

$$$$
RR18_Rahimova_2017
     RDKit          3D

 56 61  0  0  0  0  0  0  0  0999 V2000
  126.1220  124.0080   60.9280 C   0  0  0  0  0  0  0  0  0  0  0  0
  127.2380  123.9600   59.9150 C   0  0  0  0  0  0  0  0  0  0  0  0
  127.7780  122.9620   59.1200 C   0  0  0  0  0  0  0  0  0  0  0  0
  128.8080  123.5470   58.3830 C   0  0  0  0  0  0  0  0  0  0  0  0
  128.8590  124.8810   58.7550 C   0  0  0  0  0  0  0  0  0  0  0  0
  129.7300  126.0630   58.3360 C   0  0  1  0  0  0  0  0  0  0  0  0
  130.9650  125.5980   57.5070 C   0  0  0  0  0  0  0  0  0  0  0  0
  131.9960  124.7660   58.1200 C   0  0  0  0  0  0  0  0  0  0  0  0
  133.0990  124.6050   57.5940 O   0  0  0  0  0  0  0  0  0  0  0  0
  131.6340  124.2170   59.3030 N   0  0  0  0  0  0  0  0  0  0  0  0
  132.3460  123.3540   60.1640 C   0  0  0  0  0  0  0  0  0  0  0  0
  132.6790  122.0280   59.8320 C   0  0  0  0  0  0  0  0  0  0  0  0
  133.3780  121.2250   60.7310 C   0  0  0  0  0  0  0  0  0  0  0  0
  133.7490  121.7280   61.9740 C   0  0  0  0  0  0  0  0  0  0  0  0
  133.4160  123.0360   62.3220 C   0  0  0  0  0  0  0  0  0  0  0  0
  132.7160  123.8540   61.4290 C   0  0  0  0  0  0  0  0  0  0  0  0
  132.3720  125.2760   61.8600 C   0  0  0  0  0  0  0  0  0  0  0  0
  131.0040  125.8970   56.1820 C   0  0  0  0  0  0  0  0  0  0  0  0
  130.0980  126.6810   55.5350 N   0  0  0  0  0  0  0  0  0  0  0  0
  129.1720  127.2600   56.2070 C   0  0  0  0  0  0  0  0  0  0  0  0
  128.0340  128.4080   55.5430 S   0  0  0  0  0  0  0  0  0  0  0  0
  127.2580  128.6430   57.1400 C   0  0  0  0  0  0  0  0  0  0  0  0
  126.1980  129.4730   57.4370 C   0  0  0  0  0  0  0  0  0  0  0  0
  125.6320  130.3520   56.4040 C   0  0  0  0  0  0  0  0  0  0  0  0
  125.9370  130.4800   55.2190 O   0  0  0  0  0  0  0  0  0  0  0  0
  124.6660  131.0740   56.9810 N   0  0  0  0  0  0  0  0  0  0  0  0
  124.4810  130.7620   58.2930 C   0  0  0  0  0  0  0  0  0  0  0  0
  123.5540  131.3090   59.1800 C   0  0  0  0  0  0  0  0  0  0  0  0
  123.5050  130.8260   60.4840 C   0  0  0  0  0  0  0  0  0  0  0  0
  124.3700  129.8050   60.8750 C   0  0  0  0  0  0  0  0  0  0  0  0
  125.2910  129.2740   59.9680 C   0  0  0  0  0  0  0  0  0  0  0  0
  125.3720  129.7650   58.6510 C   0  0  0  0  0  0  0  0  0  0  0  0
  127.9580  127.8010   58.1110 C   0  0  0  0  0  0  0  0  0  0  0  0
  127.7380  127.7390   59.3160 O   0  0  0  0  0  0  0  0  0  0  0  0
  128.9450  127.0650   57.5310 N   0  0  0  0  0  0  0  0  0  0  0  0
  127.9010  125.1240   59.6880 O   0  0  0  0  0  0  0  0  0  0  0  0
  126.5467  123.9897   61.9425 H   0  0  0  0  0  0  0  0  0  0  0  0
  125.5412  124.9320   60.7902 H   0  0  0  0  0  0  0  0  0  0  0  0
  125.4640  123.1373   60.7902 H   0  0  0  0  0  0  0  0  0  0  0  0
  127.4565  121.9109   59.0780 H   0  0  0  0  0  0  0  0  0  0  0  0
  129.4551  123.0459   57.6481 H   0  0  0  0  0  0  0  0  0  0  0  0
  130.0803  126.5398   59.2633 H   0  0  0  0  0  0  0  0  0  0  0  0
  130.7340  124.4980   59.6610 H   0  0  0  0  0  0  0  0  0  0  0  0
  132.3847  121.6212   58.8533 H   0  0  0  0  0  0  0  0  0  0  0  0
  133.6370  120.1915   60.4574 H   0  0  0  0  0  0  0  0  0  0  0  0
  134.3043  121.0943   62.6811 H   0  0  0  0  0  0  0  0  0  0  0  0
  133.7063  123.4285   63.3077 H   0  0  0  0  0  0  0  0  0  0  0  0
  132.3582  125.3330   62.9584 H   0  0  0  0  0  0  0  0  0  0  0  0
  133.1278  125.9715   61.4662 H   0  0  0  0  0  0  0  0  0  0  0  0
  131.3819  125.5491   61.4662 H   0  0  0  0  0  0  0  0  0  0  0  0
  131.8281  125.4746   55.5884 H   0  0  0  0  0  0  0  0  0  0  0  0
  124.1190  131.7610   56.4830 H   0  0  0  0  0  0  0  0  0  0  0  0
  122.8729  132.1090   58.8541 H   0  0  0  0  0  0  0  0  0  0  0  0
  122.7872  131.2478   61.2029 H   0  0  0  0  0  0  0  0  0  0  0  0
  124.3273  129.4154   61.9028 H   0  0  0  0  0  0  0  0  0  0  0  0
  125.9611  128.4621   60.2871 H   0  0  0  0  0  0  0  0  0  0  0  0
  1  2  1  0
  2  3  2  0
  3  4  1  0
  4  5  2  0
  5  6  1  0
  6  7  1  0
  7  8  1  0
  8  9  2  0
  8 10  1  0
 10 11  1  0
 11 12  2  0
 12 13  1  0
 13 14  2  0
 14 15  1  0
 15 16  2  0
 16 17  1  0
  7 18  2  0
 18 19  1  0
 19 20  2  0
 20 21  1  0
 21 22  1  0
 22 23  2  0
 23 24  1  0
 24 25  2  0
 24 26  1  0
 26 27  1  0
 27 28  2  0
 28 29  1  0
 29 30  2  0
 30 31  1  0
 31 32  2  0
 22 33  1  0
 33 34  2  0
 33 35  1  0
  5 36  1  0
 36  2  1  0
 35  6  1  0
 16 11  1  0
 35 20  1  0
 32 23  1  0
 32 27  1  0
  1 37  1  0
  1 38  1  0
  1 39  1  0
  3 40  1  0
  4 41  1  0
  6 42  1  1
 10 43  1  0
 12 44  1  0
 13 45  1  0
 14 46  1  0
 15 47  1  0
 17 48  1  0
 17 49  1  0
 17 50  1  0
 18 51  1  0
 26 52  1  0
 28 53  1  0
 29 54  1  0
 30 55  1  0
 31 56  1  0
M  END
>  <Binding energies>  (1) 
[-8.29]

>  <Ligand effiencies>  (1) 
[-0.21815789473684208]

>  <Interactions>  (1) 
["V-B:TYR:539:C:9839, V-B:PRO:540:CA:9855, V-B:TYR:539:CE2:9848, V-B:TYR:539:CD2:9846, V-B:MET:535:CE:9807, V-B:TYR:539:CZ:9849, V-B:PRO:540:N:9856, V-A:ASP:366:CG:3213, V-A:LEU:475:CD2:4259, V-A:ILE:369:CD1:3239, V-A:GLY:454:CA:4049, V-A:ILE:369:CG2:3237, V-A:TYR:539:CE1:4875, V-B:TYR:531:CE1:9764, V-B:ASP:366:CG:8185, V-A:TYR:539:CZ:4877, V-B:ASP:366:CB:8184, H-B:LYS:534:NZ:9795, H-B:TYR:539:OH:9850, H-A:TYR:539:OH:4878, V-B:ILE:369:CD1:8211, H-B:ASP:366:O:8181, V-B:ASP:366:CA:8182, V-B:ILE:369:CG2:8209, V-B:ILE:369:CB:8208"]

$$$$
RR19_Rahimova_2017
     RDKit          3D

 72 77  0  0  0  0  0  0  0  0999 V2000
  129.1190  125.5750   62.3550 O   0  0  0  0  0  0  0  0  0  0  0  0
  128.6420  125.1720   61.2900 C   0  0  0  0  0  0  0  0  0  0  0  0
  128.8780  125.6980   60.0610 N   0  0  0  0  0  0  0  0  0  0  0  0
  129.7980  126.6030   59.5920 C   0  0  0  0  0  0  0  0  0  0  0  0
  131.1420  127.1760   60.4470 S   0  0  0  0  0  0  0  0  0  0  0  0
  129.4480  126.9630   58.3140 N   0  0  0  0  0  0  0  0  0  0  0  0
  130.0700  127.6970   57.3570 C   0  0  0  0  0  0  0  0  0  0  0  0
  131.2420  128.0800   57.3760 O   0  0  0  0  0  0  0  0  0  0  0  0
  129.1580  128.0760   56.1640 C   0  0  2  0  0  0  0  0  0  0  0  0
  129.8910  128.7610   54.9740 C   0  0  0  0  0  0  0  0  0  0  0  0
  129.6610  130.2590   54.8480 C   0  0  0  0  0  0  0  0  0  0  0  0
  128.8910  130.7860   53.7880 C   0  0  0  0  0  0  0  0  0  0  0  0
  128.6260  132.1480   53.7330 C   0  0  0  0  0  0  0  0  0  0  0  0
  129.0990  132.9950   54.7280 C   0  0  0  0  0  0  0  0  0  0  0  0
  129.8320  132.4860   55.7930 C   0  0  0  0  0  0  0  0  0  0  0  0
  130.1060  131.1270   55.8680 C   0  0  0  0  0  0  0  0  0  0  0  0
  127.9830  128.8710   56.6130 N   0  0  0  0  0  0  0  0  0  0  0  0
  126.8410  128.9310   55.8700 C   0  0  0  0  0  0  0  0  0  0  0  0
  126.6320  128.3990   54.7780 O   0  0  0  0  0  0  0  0  0  0  0  0
  125.9000  129.7670   56.6550 C   0  0  0  0  0  0  0  0  0  0  0  0
  124.5910  130.1700   56.3860 C   0  0  0  0  0  0  0  0  0  0  0  0
  123.9280  130.9650   57.3270 C   0  0  0  0  0  0  0  0  0  0  0  0
  124.5740  131.3430   58.5130 C   0  0  0  0  0  0  0  0  0  0  0  0
  125.8860  130.9280   58.7640 C   0  0  0  0  0  0  0  0  0  0  0  0
  126.5300  130.1360   57.8120 C   0  0  0  0  0  0  0  0  0  0  0  0
  127.8910  129.5450   57.7990 C   0  0  0  0  0  0  0  0  0  0  0  0
  128.7500  129.6360   58.6780 O   0  0  0  0  0  0  0  0  0  0  0  0
  127.6650  123.9660   61.2960 C   0  0  2  0  0  0  0  0  0  0  0  0
  128.2310  122.7000   62.0030 C   0  0  0  0  0  0  0  0  0  0  0  0
  129.6500  122.3480   61.5940 C   0  0  0  0  0  0  0  0  0  0  0  0
  129.9060  121.1590   60.8780 C   0  0  0  0  0  0  0  0  0  0  0  0
  131.1890  120.8890   60.4170 C   0  0  0  0  0  0  0  0  0  0  0  0
  132.2160  121.7980   60.6320 C   0  0  0  0  0  0  0  0  0  0  0  0
  131.9700  122.9910   61.3000 C   0  0  0  0  0  0  0  0  0  0  0  0
  130.6950  123.2790   61.7710 C   0  0  0  0  0  0  0  0  0  0  0  0
  127.1200  123.6400   59.9470 N   0  0  0  0  0  0  0  0  0  0  0  0
  127.9340  123.3220   58.9020 C   0  0  0  0  0  0  0  0  0  0  0  0
  129.1640  123.2750   58.9020 O   0  0  0  0  0  0  0  0  0  0  0  0
  127.0230  123.0440   57.7640 C   0  0  0  0  0  0  0  0  0  0  0  0
  127.2930  122.6780   56.4450 C   0  0  0  0  0  0  0  0  0  0  0  0
  126.2180  122.4740   55.5720 C   0  0  0  0  0  0  0  0  0  0  0  0
  124.9010  122.6340   56.0250 C   0  0  0  0  0  0  0  0  0  0  0  0
  124.6510  122.9990   57.3520 C   0  0  0  0  0  0  0  0  0  0  0  0
  125.7370  123.2000   58.2060 C   0  0  0  0  0  0  0  0  0  0  0  0
  125.7900  123.5820   59.6380 C   0  0  0  0  0  0  0  0  0  0  0  0
  124.8380  123.8000   60.3880 O   0  0  0  0  0  0  0  0  0  0  0  0
  128.3280  125.2690   59.3310 H   0  0  0  0  0  0  0  0  0  0  0  0
  128.5030  126.7090   58.0680 H   0  0  0  0  0  0  0  0  0  0  0  0
  128.8028  127.1166   55.7597 H   0  0  0  0  0  0  0  0  0  0  0  0
  130.9709  128.5916   55.0965 H   0  0  0  0  0  0  0  0  0  0  0  0
  129.4766  128.3105   54.0600 H   0  0  0  0  0  0  0  0  0  0  0  0
  128.5012  130.1177   53.0060 H   0  0  0  0  0  0  0  0  0  0  0  0
  128.0390  132.5583   52.8981 H   0  0  0  0  0  0  0  0  0  0  0  0
  128.8921  134.0739   54.6722 H   0  0  0  0  0  0  0  0  0  0  0  0
  130.1967  133.1625   56.5799 H   0  0  0  0  0  0  0  0  0  0  0  0
  130.6703  130.7265   56.7231 H   0  0  0  0  0  0  0  0  0  0  0  0
  124.0912  129.8688   55.4536 H   0  0  0  0  0  0  0  0  0  0  0  0
  122.8962  131.2948   57.1360 H   0  0  0  0  0  0  0  0  0  0  0  0
  124.0469  131.9682   59.2487 H   0  0  0  0  0  0  0  0  0  0  0  0
  126.3994  131.2197   59.6921 H   0  0  0  0  0  0  0  0  0  0  0  0
  126.8187  124.3098   61.9088 H   0  0  0  0  0  0  0  0  0  0  0  0
  128.2171  122.8747   63.0889 H   0  0  0  0  0  0  0  0  0  0  0  0
  127.5938  121.8553   61.7022 H   0  0  0  0  0  0  0  0  0  0  0  0
  129.0905  120.4464   60.6849 H   0  0  0  0  0  0  0  0  0  0  0  0
  131.3916  119.9509   59.8794 H   0  0  0  0  0  0  0  0  0  0  0  0
  133.2304  121.5723   60.2714 H   0  0  0  0  0  0  0  0  0  0  0  0
  132.7875  123.7101   61.4566 H   0  0  0  0  0  0  0  0  0  0  0  0
  130.5003  124.2334   62.2821 H   0  0  0  0  0  0  0  0  0  0  0  0
  128.3293  122.5523   56.0983 H   0  0  0  0  0  0  0  0  0  0  0  0
  126.4072  122.1872   54.5270 H   0  0  0  0  0  0  0  0  0  0  0  0
  124.0606  122.4718   55.3340 H   0  0  0  0  0  0  0  0  0  0  0  0
  123.6203  123.1250   57.7151 H   0  0  0  0  0  0  0  0  0  0  0  0
  1  2  2  0
  2  3  1  0
  3  4  1  0
  4  5  2  0
  4  6  1  0
  6  7  1  0
  7  8  2  0
  7  9  1  0
  9 10  1  0
 10 11  1  0
 11 12  2  0
 12 13  1  0
 13 14  2  0
 14 15  1  0
 15 16  2  0
  9 17  1  0
 17 18  1  0
 18 19  2  0
 18 20  1  0
 20 21  2  0
 21 22  1  0
 22 23  2  0
 23 24  1  0
 24 25  2  0
 25 26  1  0
 26 27  2  0
  2 28  1  0
 28 29  1  0
 29 30  1  0
 30 31  2  0
 31 32  1  0
 32 33  2  0
 33 34  1  0
 34 35  2  0
 28 36  1  0
 36 37  1  0
 37 38  2  0
 37 39  1  0
 39 40  2  0
 40 41  1  0
 41 42  2  0
 42 43  1  0
 43 44  2  0
 44 45  1  0
 45 46  2  0
 16 11  1  0
 26 17  1  0
 35 30  1  0
 45 36  1  0
 25 20  1  0
 44 39  1  0
  3 47  1  0
  6 48  1  0
  9 49  1  6
 10 50  1  0
 10 51  1  0
 12 52  1  0
 13 53  1  0
 14 54  1  0
 15 55  1  0
 16 56  1  0
 21 57  1  0
 22 58  1  0
 23 59  1  0
 24 60  1  0
 28 61  1  1
 29 62  1  0
 29 63  1  0
 31 64  1  0
 32 65  1  0
 33 66  1  0
 34 67  1  0
 35 68  1  0
 40 69  1  0
 41 70  1  0
 42 71  1  0
 43 72  1  0
M  END
>  <Binding energies>  (1) 
[-11.91]

>  <Ligand effiencies>  (1) 
[-0.248125]

>  <Interactions>  (1) 
["V-B:TYR:539:CD1:9845, V-B:ILE:538:CD1:9837, V-B:PRO:540:CB:9857, V-B:PRO:540:CD:9859, V-B:LEU:363:CD1:8161, V-B:GLU:543:CD:9880, V-B:TYR:539:C:9839, V-B:PRO:540:CA:9855, V-B:ILE:538:CG2:9835, V-B:TYR:539:CE2:9848, V-B:TYR:539:CD2:9846, V-B:ILE:538:CA:9832, V-B:MET:535:CE:9807, V-B:ALA:541:CB:9864, V-B:TYR:539:CZ:9849, V-B:TYR:539:CE1:9847, V-B:PRO:540:N:9856, V-B:TYR:531:CE2:9765, V-A:ASP:366:CG:3213, V-B:TYR:539:CG:9844, V-A:LEU:475:CD2:4259, V-A:TYR:539:CE1:4875, V-B:TYR:531:CE1:9764, V-A:TYR:539:CZ:4877, V-A:TYR:539:C:4867, V-A:MET:535:CE:4835, V-A:TYR:539:CE2:4876, H-B:LYS:534:NZ:9795, V-B:ILE:538:C:9830, H-B:TYR:531:OH:9767, V-A:ILE:538:CA:4860, H-A:TYR:531:OH:4795, V-B:PRO:540:CG:9858, V-A:ILE:538:C:4858, V-A:TYR:539:CD2:4874, V-A:TYR:539:CG:4872, V-B:ASP:366:C:8180, V-B:ASP:366:CA:8182"]

$$$$
RR19_Rahimova_2017-again1
     RDKit          3D

 71 76  0  0  0  0  0  0  0  0999 V2000
  130.2200  124.8020   57.0290 O   0  0  0  0  0  0  0  0  0  0  0  0
  129.5050  125.5420   57.7090 C   0  0  0  0  0  0  0  0  0  0  0  0
  129.1750  126.8200   57.4080 N   0  0  0  0  0  0  0  0  0  0  0  0
  129.3700  127.5920   56.2970 C   0  0  0  0  0  0  0  0  0  0  0  0
  130.2220  127.2670   54.8860 S   0  0  0  0  0  0  0  0  0  0  0  0
  128.6380  128.7510   56.4870 N   0  0  0  0  0  0  0  0  0  0  0  0
  127.5400  129.1270   55.9170 C   0  0  0  0  0  0  0  0  0  0  0  0
  126.8000  128.5260   55.1140 O   0  0  0  0  0  0  0  0  0  0  0  0
  127.0600  130.5750   56.2730 C   0  0  2  0  0  0  0  0  0  0  0  0
  127.4520  131.5970   55.1550 C   0  0  0  0  0  0  0  0  0  0  0  0
  128.9550  131.7910   54.9720 C   0  0  0  0  0  0  0  0  0  0  0  0
  129.6300  131.1000   53.9620 C   0  0  0  0  0  0  0  0  0  0  0  0
  130.9980  131.2880   53.7850 C   0  0  0  0  0  0  0  0  0  0  0  0
  131.6880  132.1650   54.6200 C   0  0  0  0  0  0  0  0  0  0  0  0
  131.0220  132.8540   55.6320 C   0  0  0  0  0  0  0  0  0  0  0  0
  129.6550  132.6650   55.8100 C   0  0  0  0  0  0  0  0  0  0  0  0
  127.4230  131.0020   57.6650 N   0  0  0  0  0  0  0  0  0  0  0  0
  126.4790  131.4320   58.5490 C   0  0  0  0  0  0  0  0  0  0  0  0
  125.2670  131.5410   58.3550 O   0  0  0  0  0  0  0  0  0  0  0  0
  127.2210  131.7420   59.7980 C   0  0  0  0  0  0  0  0  0  0  0  0
  126.7750  132.2210   61.0310 C   0  0  0  0  0  0  0  0  0  0  0  0
  127.7130  132.4260   62.0480 C   0  0  0  0  0  0  0  0  0  0  0  0
  129.0690  132.1500   61.8250 C   0  0  0  0  0  0  0  0  0  0  0  0
  129.4950  131.6700   60.5830 C   0  0  0  0  0  0  0  0  0  0  0  0
  128.5440  131.4750   59.5800 C   0  0  0  0  0  0  0  0  0  0  0  0
  128.6870  130.9840   58.1880 C   0  0  0  0  0  0  0  0  0  0  0  0
  129.7260  130.6360   57.6280 O   0  0  0  0  0  0  0  0  0  0  0  0
  128.9020  125.0150   59.0450 C   0  0  2  0  0  0  0  0  0  0  0  0
  128.2270  123.6190   58.9200 C   0  0  0  0  0  0  0  0  0  0  0  0
  127.2100  123.5240   57.7970 C   0  0  0  0  0  0  0  0  0  0  0  0
  127.6260  123.1830   56.4930 C   0  0  0  0  0  0  0  0  0  0  0  0
  126.6840  123.0000   55.4880 C   0  0  0  0  0  0  0  0  0  0  0  0
  125.3280  123.1240   55.7680 C   0  0  0  0  0  0  0  0  0  0  0  0
  124.9030  123.4220   57.0560 C   0  0  0  0  0  0  0  0  0  0  0  0
  125.8280  123.6090   58.0740 C   0  0  0  0  0  0  0  0  0  0  0  0
  128.0270  126.0010   59.7490 N   0  0  0  0  0  0  0  0  0  0  0  0
  128.2820  126.3990   61.0270 C   0  0  0  0  0  0  0  0  0  0  0  0
  129.1610  125.9780   61.7790 O   0  0  0  0  0  0  0  0  0  0  0  0
  127.2820  127.4550   61.3190 C   0  0  0  0  0  0  0  0  0  0  0  0
  127.0750  128.2270   62.4640 C   0  0  0  0  0  0  0  0  0  0  0  0
  126.0520  129.1810   62.4520 C   0  0  0  0  0  0  0  0  0  0  0  0
  125.2560  129.3490   61.3110 C   0  0  0  0  0  0  0  0  0  0  0  0
  125.4770  128.5640   60.1740 C   0  0  0  0  0  0  0  0  0  0  0  0
  126.5040  127.6200   60.2060 C   0  0  0  0  0  0  0  0  0  0  0  0
  126.9910  126.6780   59.1680 C   0  0  0  0  0  0  0  0  0  0  0  0
  126.5600  126.5450   58.0220 O   0  0  0  0  0  0  0  0  0  0  0  0
  128.5970  127.2660   58.1040 H   0  0  0  0  0  0  0  0  0  0  0  0
  125.9603  130.5566   56.2925 H   0  0  0  0  0  0  0  0  0  0  0  0
  127.0332  131.2410   54.2022 H   0  0  0  0  0  0  0  0  0  0  0  0
  127.0469  132.5712   55.4663 H   0  0  0  0  0  0  0  0  0  0  0  0
  129.0805  130.4078   53.3071 H   0  0  0  0  0  0  0  0  0  0  0  0
  131.5318  130.7469   52.9899 H   0  0  0  0  0  0  0  0  0  0  0  0
  132.7686  132.3148   54.4789 H   0  0  0  0  0  0  0  0  0  0  0  0
  131.5744  133.5439   56.2869 H   0  0  0  0  0  0  0  0  0  0  0  0
  129.1249  133.2029   56.6098 H   0  0  0  0  0  0  0  0  0  0  0  0
  125.7087  132.4327   61.1991 H   0  0  0  0  0  0  0  0  0  0  0  0
  127.3852  132.8055   63.0270 H   0  0  0  0  0  0  0  0  0  0  0  0
  129.8007  132.3117   62.6303 H   0  0  0  0  0  0  0  0  0  0  0  0
  130.5573  131.4506   60.4000 H   0  0  0  0  0  0  0  0  0  0  0  0
  129.7796  124.8752   59.6932 H   0  0  0  0  0  0  0  0  0  0  0  0
  129.0121  122.8699   58.7401 H   0  0  0  0  0  0  0  0  0  0  0  0
  127.6818  123.4435   59.8592 H   0  0  0  0  0  0  0  0  0  0  0  0
  128.6967  123.0619   56.2716 H   0  0  0  0  0  0  0  0  0  0  0  0
  127.0125  122.7561   54.4669 H   0  0  0  0  0  0  0  0  0  0  0  0
  124.5883  122.9854   54.9657 H   0  0  0  0  0  0  0  0  0  0  0  0
  123.8278  123.5103   57.2707 H   0  0  0  0  0  0  0  0  0  0  0  0
  125.4843  123.8234   59.0967 H   0  0  0  0  0  0  0  0  0  0  0  0
  127.7030  128.0879   63.3564 H   0  0  0  0  0  0  0  0  0  0  0  0
  125.8716  129.8019   63.3419 H   0  0  0  0  0  0  0  0  0  0  0  0
  124.4537  130.1015   61.3092 H   0  0  0  0  0  0  0  0  0  0  0  0
  124.8551  128.6883   59.2752 H   0  0  0  0  0  0  0  0  0  0  0  0
  1  2  2  0
  2  3  1  0
  3  4  1  0
  4  5  2  0
  4  6  1  0
  6  7  2  0
  7  8  1  0
  7  9  1  0
  9 10  1  0
 10 11  1  0
 11 12  2  0
 12 13  1  0
 13 14  2  0
 14 15  1  0
 15 16  2  0
  9 17  1  0
 17 18  1  0
 18 19  2  0
 18 20  1  0
 20 21  2  0
 21 22  1  0
 22 23  2  0
 23 24  1  0
 24 25  2  0
 25 26  1  0
 26 27  2  0
  2 28  1  0
 28 29  1  0
 29 30  1  0
 30 31  2  0
 31 32  1  0
 32 33  2  0
 33 34  1  0
 34 35  2  0
 28 36  1  0
 36 37  1  0
 37 38  2  0
 37 39  1  0
 39 40  2  0
 40 41  1  0
 41 42  2  0
 42 43  1  0
 43 44  2  0
 44 45  1  0
 45 46  2  0
 16 11  1  0
 26 17  1  0
 35 30  1  0
 45 36  1  0
 25 20  1  0
 44 39  1  0
  3 47  1  0
  9 48  1  1
 10 49  1  0
 10 50  1  0
 12 51  1  0
 13 52  1  0
 14 53  1  0
 15 54  1  0
 16 55  1  0
 21 56  1  0
 22 57  1  0
 23 58  1  0
 24 59  1  0
 28 60  1  1
 29 61  1  0
 29 62  1  0
 31 63  1  0
 32 64  1  0
 33 65  1  0
 34 66  1  0
 35 67  1  0
 40 68  1  0
 41 69  1  0
 42 70  1  0
 43 71  1  0
M  CHG  1   8  -1
M  END
>  <Binding energies>  (1) 
[-10.26]

>  <Ligand effiencies>  (1) 
[-0.21829787234042553]

>  <Interactions>  (1) 
["V-B:TYR:539:CD1:9845, V-B:ILE:538:CD1:9837, V-B:PRO:540:CB:9857, V-B:LEU:363:CD1:8161, V-B:PRO:540:CA:9855, V-B:TYR:539:CE2:9848, V-B:ILE:538:CA:9832, V-B:MET:535:CE:9807, V-B:TYR:539:CZ:9849, V-B:TYR:539:CE1:9847, V-B:TYR:531:CE2:9765, V-B:TYR:531:CZ:9766, V-A:TYR:539:CE1:4875, V-A:TYR:531:CZ:4794, V-B:ASP:366:CG:8185, V-A:TYR:539:CZ:4877, V-A:TYR:531:CE2:4793, V-A:TYR:539:C:4867, V-A:PRO:540:N:4884, V-B:ASP:366:CB:8184, V-A:MET:535:CE:4835, V-A:TYR:539:CE2:4876, H-B:LYS:534:NZ:9795, V-A:ALA:541:CB:4892, V-A:PRO:540:CD:4887, H-B:TYR:539:OH:9850, H-B:TYR:531:OH:9767, V-A:ILE:538:CA:4860, V-A:ILE:538:CB:4862, V-A:ILE:538:CG2:4863, H-A:TYR:539:OH:4878, V-A:TYR:539:CD2:4874, V-A:TYR:539:CA:4869, V-A:TYR:539:CG:4872, V-A:TYR:539:CD1:4873, V-A:MET:535:CG:4833"]

$$$$
RR1_Rahimova_2017
     RDKit          3D

 68 71  0  0  0  0  0  0  0  0999 V2000
  132.4930  132.5250   55.8300 C   0  0  0  0  0  0  0  0  0  0  0  0
  131.3870  133.0910   55.1360 O   0  0  0  0  0  0  0  0  0  0  0  0
  130.1150  132.6160   55.3940 C   0  0  0  0  0  0  0  0  0  0  0  0
  129.5670  132.4790   56.6790 C   0  0  0  0  0  0  0  0  0  0  0  0
  128.2770  131.9830   56.8420 C   0  0  0  0  0  0  0  0  0  0  0  0
  127.5130  131.6230   55.7310 C   0  0  0  0  0  0  0  0  0  0  0  0
  126.2380  131.0890   56.0020 N   0  0  0  0  0  0  0  0  0  0  0  0
  125.7550  129.8550   55.7420 C   0  0  0  0  0  0  0  0  0  0  0  0
  126.3650  128.9770   55.1330 O   0  0  0  0  0  0  0  0  0  0  0  0
  124.3330  129.6010   56.2680 C   0  0  0  0  0  0  0  0  0  0  0  0
  123.9200  130.4310   57.8420 S   0  0  0  0  0  0  0  0  0  0  0  0
  125.4210  130.0830   58.6970 C   0  0  0  0  0  0  0  0  0  0  0  0
  126.0990  130.9690   59.3830 N   0  0  0  0  0  0  0  0  0  0  0  0
  127.1320  130.2800   59.8580 C   0  0  0  0  0  0  0  0  0  0  0  0
  128.1830  130.9060   60.7300 C   0  0  0  0  0  0  0  0  0  0  0  0
  127.9450  131.1780   62.0870 C   0  0  0  0  0  0  0  0  0  0  0  0
  128.9410  131.7630   62.8710 C   0  0  0  0  0  0  0  0  0  0  0  0
  130.1640  132.0660   62.2750 C   0  0  0  0  0  0  0  0  0  0  0  0
  130.4270  131.8180   60.9680 N   0  0  0  0  0  0  0  0  0  0  0  0
  129.4470  131.2470   60.2220 C   0  0  0  0  0  0  0  0  0  0  0  0
  127.1680  129.0060   59.5150 N   0  0  0  0  0  0  0  0  0  0  0  0
  126.0680  128.8770   58.7670 N   0  0  0  0  0  0  0  0  0  0  0  0
  125.7080  127.5810   58.1920 C   0  0  0  0  0  0  0  0  0  0  0  0
  126.4970  126.3820   58.7460 C   0  0  0  0  0  0  0  0  0  0  0  0
  126.0080  125.2470   58.7440 O   0  0  0  0  0  0  0  0  0  0  0  0
  127.7230  126.6780   59.2180 N   0  0  0  0  0  0  0  0  0  0  0  0
  128.5490  125.6290   59.5980 N   0  0  0  0  0  0  0  0  0  0  0  0
  129.8780  125.8640   59.6600 C   0  0  0  0  0  0  0  0  0  0  0  0
  130.3930  126.9760   59.5010 O   0  0  0  0  0  0  0  0  0  0  0  0
  130.7420  124.6590   59.9720 C   0  0  0  0  0  0  0  0  0  0  0  0
  131.9710  124.4940   59.3240 C   0  0  0  0  0  0  0  0  0  0  0  0
  132.7750  123.3900   59.5870 C   0  0  0  0  0  0  0  0  0  0  0  0
  132.3690  122.4080   60.5050 C   0  0  0  0  0  0  0  0  0  0  0  0
  133.1140  121.2810   60.8010 O   0  0  0  0  0  0  0  0  0  0  0  0
  132.9260  120.0960   60.0370 C   0  0  0  0  0  0  0  0  0  0  0  0
  131.1380  122.5510   61.1600 C   0  0  0  0  0  0  0  0  0  0  0  0
  130.7750  121.5460   62.0400 O   0  0  0  0  0  0  0  0  0  0  0  0
  129.5900  120.7960   61.8010 C   0  0  0  0  0  0  0  0  0  0  0  0
  130.3380  123.6760   60.8900 C   0  0  0  0  0  0  0  0  0  0  0  0
  128.0570  131.7590   54.4450 C   0  0  0  0  0  0  0  0  0  0  0  0
  129.3480  132.2560   54.2860 C   0  0  0  0  0  0  0  0  0  0  0  0
  132.3277  132.6096   56.9142 H   0  0  0  0  0  0  0  0  0  0  0  0
  132.5939  131.4644   55.5561 H   0  0  0  0  0  0  0  0  0  0  0  0
  133.4122  133.0635   55.5561 H   0  0  0  0  0  0  0  0  0  0  0  0
  130.1595  132.7648   57.5606 H   0  0  0  0  0  0  0  0  0  0  0  0
  127.8569  131.8740   57.8528 H   0  0  0  0  0  0  0  0  0  0  0  0
  125.5930  131.7440   56.4200 H   0  0  0  0  0  0  0  0  0  0  0  0
  123.6216  129.9483   55.5043 H   0  0  0  0  0  0  0  0  0  0  0  0
  124.2728  128.5213   56.4697 H   0  0  0  0  0  0  0  0  0  0  0  0
  126.9709  130.9294   62.5335 H   0  0  0  0  0  0  0  0  0  0  0  0
  128.7646  131.9799   63.9349 H   0  0  0  0  0  0  0  0  0  0  0  0
  130.9500  132.5263   62.8917 H   0  0  0  0  0  0  0  0  0  0  0  0
  129.6544  131.0401   59.1617 H   0  0  0  0  0  0  0  0  0  0  0  0
  124.6397  127.4060   58.3872 H   0  0  0  0  0  0  0  0  0  0  0  0
  125.9522  127.6413   57.1212 H   0  0  0  0  0  0  0  0  0  0  0  0
  128.2180  127.5420   59.0420 H   0  0  0  0  0  0  0  0  0  0  0  0
  128.1880  124.7420   59.2800 H   0  0  0  0  0  0  0  0  0  0  0  0
  132.3060  125.2479   58.5964 H   0  0  0  0  0  0  0  0  0  0  0  0
  133.7402  123.2849   59.0699 H   0  0  0  0  0  0  0  0  0  0  0  0
  132.7903  119.2404   60.7149 H   0  0  0  0  0  0  0  0  0  0  0  0
  132.0341  120.2063   59.4027 H   0  0  0  0  0  0  0  0  0  0  0  0
  133.8082  119.9249   59.4027 H   0  0  0  0  0  0  0  0  0  0  0  0
  129.1374  120.5095   62.7618 H   0  0  0  0  0  0  0  0  0  0  0  0
  128.8779  121.4082   61.2282 H   0  0  0  0  0  0  0  0  0  0  0  0
  129.8385  119.8904   61.2282 H   0  0  0  0  0  0  0  0  0  0  0  0
  129.3748  123.7883   61.4093 H   0  0  0  0  0  0  0  0  0  0  0  0
  127.4644  131.4734   53.5634 H   0  0  0  0  0  0  0  0  0  0  0  0
  129.7677  132.3659   53.2752 H   0  0  0  0  0  0  0  0  0  0  0  0
  1  2  1  0
  2  3  1  0
  3  4  2  0
  4  5  1  0
  5  6  2  0
  6  7  1  0
  7  8  1  0
  8  9  2  0
  8 10  1  0
 10 11  1  0
 11 12  1  0
 12 13  2  0
 13 14  1  0
 14 15  1  0
 15 16  2  0
 16 17  1  0
 17 18  2  0
 18 19  1  0
 19 20  2  0
 14 21  2  0
 21 22  1  0
 22 23  1  0
 23 24  1  0
 24 25  2  0
 24 26  1  0
 26 27  1  0
 27 28  1  0
 28 29  2  0
 28 30  1  0
 30 31  2  0
 31 32  1  0
 32 33  2  0
 33 34  1  0
 34 35  1  0
 33 36  1  0
 36 37  1  0
 37 38  1  0
 36 39  2  0
  6 40  1  0
 40 41  2  0
 41  3  1  0
 22 12  1  0
 39 30  1  0
 20 15  1  0
  1 42  1  0
  1 43  1  0
  1 44  1  0
  4 45  1  0
  5 46  1  0
  7 47  1  0
 10 48  1  0
 10 49  1  0
 16 50  1  0
 17 51  1  0
 18 52  1  0
 20 53  1  0
 23 54  1  0
 23 55  1  0
 26 56  1  0
 27 57  1  0
 31 58  1  0
 32 59  1  0
 35 60  1  0
 35 61  1  0
 35 62  1  0
 38 63  1  0
 38 64  1  0
 38 65  1  0
 39 66  1  0
 40 67  1  0
 41 68  1  0
M  END
>  <Binding energies>  (1) 
[-7.67]

>  <Ligand effiencies>  (1) 
[-0.17431818181818182]

>  <Interactions>  (1) 
["V-B:TYR:539:CE2:9848, V-B:TYR:539:CD2:9846, V-B:ALA:541:CB:9864, V-A:SER:385:CB:3409, H-A:TYR:484:OH:4348, V-A:LEU:475:CD2:4259, V-B:TYR:531:CZ:9766, V-A:ILE:369:CG2:3237, V-A:TYR:539:CE1:4875, V-B:TYR:531:CE1:9764, H-A:TYR:539:N:4870, V-B:ASP:366:CG:8185, V-A:TYR:539:CZ:4877, V-A:TYR:539:C:4867, V-A:PRO:540:N:4884, V-A:PRO:540:CB:4885, V-B:ASP:366:CB:8184, V-A:TYR:539:CE2:4876, H-B:LYS:534:NZ:9795, V-A:LEU:363:CD1:3189, V-A:GLU:543:CD:4908, H-A:ALA:541:N:4891, V-A:ALA:541:CB:4892, V-A:PRO:540:CD:4887, V-A:GLU:543:CG:4907, H-B:TYR:531:OH:9767, V-A:ILE:538:CA:4860, V-A:ILE:538:CB:4862, H-A:TYR:539:OH:4878, V-A:TYR:539:CD2:4874, V-A:PRO:540:CG:4886, V-A:TYR:539:CG:4872, V-A:TYR:539:CD1:4873, V-B:ASP:366:C:8180, V-B:TYR:531:CD1:9762, V-A:ALA:541:CA:4890, V-A:SER:385:CA:3407, V-A:ALA:541:C:4888"]

$$$$
RR20_Rahimova_2017
     RDKit          3D

 68 73  0  0  0  0  0  0  0  0999 V2000
  132.8820  131.2760   57.3140 C   0  0  0  0  0  0  0  0  0  0  0  0
  131.4240  131.2880   56.8930 C   0  0  0  0  0  0  0  0  0  0  0  0
  130.7710  132.5030   56.6840 C   0  0  0  0  0  0  0  0  0  0  0  0
  129.4360  132.5160   56.2890 C   0  0  0  0  0  0  0  0  0  0  0  0
  128.7390  131.3150   56.1130 C   0  0  0  0  0  0  0  0  0  0  0  0
  127.2950  131.3500   55.6640 C   0  0  0  0  0  0  0  0  0  0  0  0
  127.0670  131.6810   54.4980 O   0  0  0  0  0  0  0  0  0  0  0  0
  126.3110  131.0070   56.5470 N   0  0  0  0  0  0  0  0  0  0  0  0
  125.0300  130.4410   56.0920 C   0  0  0  0  0  0  0  0  0  0  0  0
  124.2670  130.0480   57.3460 C   0  0  0  0  0  0  0  0  0  0  0  0
  125.3280  130.0730   58.4040 C   0  0  0  0  0  0  0  0  0  0  0  0
  125.2360  129.7140   59.7490 C   0  0  0  0  0  0  0  0  0  0  0  0
  126.2990  129.9620   60.6280 C   0  0  0  0  0  0  0  0  0  0  0  0
  126.2040  129.5680   62.0750 C   0  0  0  0  0  0  0  0  0  0  0  0
  127.2800  129.0680   62.6620 N   0  0  0  0  0  0  0  0  0  0  0  0
  127.0900  128.7790   63.9250 C   0  0  0  0  0  0  0  0  0  0  0  0
  128.0000  128.2490   64.8260 N   0  0  0  0  0  0  0  0  0  0  0  0
  128.3770  128.7840   66.0130 C   0  0  0  0  0  0  0  0  0  0  0  0
  127.9270  129.8380   66.4680 O   0  0  0  0  0  0  0  0  0  0  0  0
  129.4160  128.0130   66.8610 C   0  0  0  0  0  0  0  0  0  0  0  0
  129.0100  127.8590   68.2700 N   0  0  0  0  0  0  0  0  0  0  0  0
  128.4280  126.5370   68.5460 C   0  0  0  0  0  0  0  0  0  0  0  0
  127.7820  126.5220   69.9490 C   0  0  0  0  0  0  0  0  0  0  0  0
  128.6720  127.1470   71.0240 C   0  0  0  0  0  0  0  0  0  0  0  0
  128.3810  126.9870   72.3830 C   0  0  0  0  0  0  0  0  0  0  0  0
  129.1700  127.5890   73.3610 C   0  0  0  0  0  0  0  0  0  0  0  0
  130.2660  128.3600   72.9880 C   0  0  0  0  0  0  0  0  0  0  0  0
  130.5720  128.5210   71.6380 C   0  0  0  0  0  0  0  0  0  0  0  0
  129.7870  127.9230   70.6450 C   0  0  0  0  0  0  0  0  0  0  0  0
  130.1560  128.0510   69.1670 C   0  0  0  0  0  0  0  0  0  0  0  0
  125.5010  129.1070   64.4980 S   0  0  0  0  0  0  0  0  0  0  0  0
  125.0640  129.6700   62.9010 C   0  0  0  0  0  0  0  0  0  0  0  0
  123.6520  130.1280   62.6100 C   0  0  0  0  0  0  0  0  0  0  0  0
  127.4320  130.6280   60.1360 C   0  0  0  0  0  0  0  0  0  0  0  0
  127.5190  131.0050   58.7960 C   0  0  0  0  0  0  0  0  0  0  0  0
  126.4850  130.6750   57.9090 C   0  0  0  0  0  0  0  0  0  0  0  0
  129.4090  130.0990   56.2970 C   0  0  0  0  0  0  0  0  0  0  0  0
  130.7450  130.0850   56.6910 C   0  0  0  0  0  0  0  0  0  0  0  0
  132.9466  131.2755   58.4121 H   0  0  0  0  0  0  0  0  0  0  0  0
  133.3707  130.3738   56.9175 H   0  0  0  0  0  0  0  0  0  0  0  0
  133.3855  132.1700   56.9175 H   0  0  0  0  0  0  0  0  0  0  0  0
  131.3106  133.4502   56.8312 H   0  0  0  0  0  0  0  0  0  0  0  0
  128.9264  133.4751   56.1143 H   0  0  0  0  0  0  0  0  0  0  0  0
  124.4635  131.1915   55.5212 H   0  0  0  0  0  0  0  0  0  0  0  0
  125.1878  129.5749   55.4325 H   0  0  0  0  0  0  0  0  0  0  0  0
  123.4697  130.7726   57.5677 H   0  0  0  0  0  0  0  0  0  0  0  0
  123.7614  129.0748   57.2602 H   0  0  0  0  0  0  0  0  0  0  0  0
  124.3207  129.2319   60.1230 H   0  0  0  0  0  0  0  0  0  0  0  0
  128.4300  127.3750   64.5600 H   0  0  0  0  0  0  0  0  0  0  0  0
  129.5520  127.0127   66.4241 H   0  0  0  0  0  0  0  0  0  0  0  0
  130.3483  128.5967   66.8493 H   0  0  0  0  0  0  0  0  0  0  0  0
  127.6610  126.3125   67.7902 H   0  0  0  0  0  0  0  0  0  0  0  0
  129.2243  125.7790   68.5089 H   0  0  0  0  0  0  0  0  0  0  0  0
  126.8374  127.0840   69.9059 H   0  0  0  0  0  0  0  0  0  0  0  0
  127.6218  125.4696   70.2259 H   0  0  0  0  0  0  0  0  0  0  0  0
  127.5165  126.3769   72.6839 H   0  0  0  0  0  0  0  0  0  0  0  0
  128.9268  127.4549   74.4254 H   0  0  0  0  0  0  0  0  0  0  0  0
  130.8892  128.8411   73.7562 H   0  0  0  0  0  0  0  0  0  0  0  0
  131.4432  129.1269   71.3484 H   0  0  0  0  0  0  0  0  0  0  0  0
  130.5710  129.0551   68.9952 H   0  0  0  0  0  0  0  0  0  0  0  0
  130.8863  127.2601   68.9410 H   0  0  0  0  0  0  0  0  0  0  0  0
  123.1200  130.3006   63.5572 H   0  0  0  0  0  0  0  0  0  0  0  0
  123.6817  131.0626   62.0306 H   0  0  0  0  0  0  0  0  0  0  0  0
  123.1275  129.3539   62.0306 H   0  0  0  0  0  0  0  0  0  0  0  0
  128.2645  130.8563   60.8178 H   0  0  0  0  0  0  0  0  0  0  0  0
  128.3976  131.5604   58.4359 H   0  0  0  0  0  0  0  0  0  0  0  0
  128.8777  129.1505   56.1296 H   0  0  0  0  0  0  0  0  0  0  0  0
  131.2644  129.1273   56.8428 H   0  0  0  0  0  0  0  0  0  0  0  0
  1  2  1  0
  2  3  2  0
  3  4  1  0
  4  5  2  0
  5  6  1  0
  6  7  2  0
  6  8  1  0
  8  9  1  0
  9 10  1  0
 10 11  1  0
 11 12  2  0
 12 13  1  0
 13 14  1  0
 14 15  1  0
 15 16  2  0
 16 17  1  0
 17 18  1  0
 18 19  2  0
 18 20  1  0
 20 21  1  0
 21 22  1  0
 22 23  1  0
 23 24  1  0
 24 25  2  0
 25 26  1  0
 26 27  2  0
 27 28  1  0
 28 29  2  0
 29 30  1  0
 16 31  1  0
 31 32  1  0
 32 33  1  0
 13 34  2  0
 34 35  1  0
 35 36  2  0
  5 37  1  0
 37 38  2  0
 38  2  1  0
 36  8  1  0
 36 11  1  0
 32 14  2  0
 30 21  1  0
 29 24  1  0
  1 39  1  0
  1 40  1  0
  1 41  1  0
  3 42  1  0
  4 43  1  0
  9 44  1  0
  9 45  1  0
 10 46  1  0
 10 47  1  0
 12 48  1  0
 17 49  1  0
 20 50  1  0
 20 51  1  0
 22 52  1  0
 22 53  1  0
 23 54  1  0
 23 55  1  0
 25 56  1  0
 26 57  1  0
 27 58  1  0
 28 59  1  0
 30 60  1  0
 30 61  1  0
 33 62  1  0
 33 63  1  0
 33 64  1  0
 34 65  1  0
 35 66  1  0
 37 67  1  0
 38 68  1  0
M  END
>  <Binding energies>  (1) 
[-9.99]

>  <Ligand effiencies>  (1) 
[-0.2561538461538462]

>  <Interactions>  (1) 
["V-B:GLU:543:CD:9880, H-B:GLU:543:OE2:9882, H-B:GLU:543:OE1:9881, V-A:TYR:539:CE1:4875, V-B:TYR:531:CE1:9764, V-B:ASP:366:CG:8185, V-A:TYR:539:CZ:4877, V-A:PRO:540:CA:4883, V-A:TYR:539:C:4867, V-A:PRO:540:N:4884, V-A:PRO:540:CB:4885, V-B:ASP:366:CB:8184, V-A:TYR:539:CE2:4876, H-B:LYS:534:NZ:9795, V-A:LEU:363:CD1:3189, V-A:GLU:543:CD:4908, H-A:GLU:543:OE1:4909, H-A:GLU:543:OE2:4910, V-A:PRO:540:CD:4887, V-A:GLU:543:CG:4907, V-A:HIS:456:CE1:4070, H-A:TYR:539:OH:4878, V-A:GLU:543:C:4902, V-B:GLU:543:CB:9878, V-A:LYS:547:CE:4950, V-A:GLU:543:CB:4906, V-A:GLY:544:C:4912, V-A:HIS:456:CD2:4068, V-B:ARG:545:CZ:9898, V-A:GLY:544:CA:4914, V-B:HIS:456:CD2:9040, V-B:HIS:456:CE1:9042, V-A:TYR:539:CG:4872, V-B:ASP:366:C:8180, V-B:ASP:366:CA:8182, H-B:TYR:484:OH:9320, V-B:GLU:543:C:9874, V-B:GLY:453:C:9014, V-B:GLY:453:CA:9016, V-B:GLY:544:C:9884"]

$$$$
RR20_Rahimova_2017-again1
     RDKit          3D

 68 73  0  0  0  0  0  0  0  0999 V2000
  131.7680  116.6730   58.5450 C   0  0  0  0  0  0  0  0  0  0  0  0
  131.5870  117.9620   59.3280 C   0  0  0  0  0  0  0  0  0  0  0  0
  132.5050  119.0020   59.1780 C   0  0  0  0  0  0  0  0  0  0  0  0
  132.3360  120.1860   59.8890 C   0  0  0  0  0  0  0  0  0  0  0  0
  131.2540  120.3370   60.7640 C   0  0  0  0  0  0  0  0  0  0  0  0
  131.0760  121.6380   61.5150 C   0  0  0  0  0  0  0  0  0  0  0  0
  130.4390  121.6090   62.5700 O   0  0  0  0  0  0  0  0  0  0  0  0
  131.6440  122.7760   61.0190 N   0  0  0  0  0  0  0  0  0  0  0  0
  133.0980  123.0000   61.0840 C   0  0  0  0  0  0  0  0  0  0  0  0
  133.3690  124.2800   60.3100 C   0  0  0  0  0  0  0  0  0  0  0  0
  132.0940  124.4840   59.5480 C   0  0  0  0  0  0  0  0  0  0  0  0
  131.7840  125.4610   58.6010 C   0  0  0  0  0  0  0  0  0  0  0  0
  130.4750  125.5940   58.1140 C   0  0  0  0  0  0  0  0  0  0  0  0
  130.1390  126.6500   57.1000 C   0  0  0  0  0  0  0  0  0  0  0  0
  129.2150  127.5450   57.4100 N   0  0  0  0  0  0  0  0  0  0  0  0
  128.9790  128.4210   56.4640 C   0  0  0  0  0  0  0  0  0  0  0  0
  128.0660  129.4430   56.4430 N   0  0  0  0  0  0  0  0  0  0  0  0
  127.0610  129.5200   55.6370 C   0  0  0  0  0  0  0  0  0  0  0  0
  126.6250  128.7270   54.7810 O   0  0  0  0  0  0  0  0  0  0  0  0
  126.2520  130.8270   55.7700 C   0  0  0  0  0  0  0  0  0  0  0  0
  125.0500  130.6110   56.7340 N   0  0  2  0  0  0  0  0  0  0  0  0
  125.1940  131.4070   58.0480 C   0  0  0  0  0  0  0  0  0  0  0  0
  126.3910  130.8750   58.8570 C   0  0  0  0  0  0  0  0  0  0  0  0
  126.3900  129.3560   59.0020 C   0  0  0  0  0  0  0  0  0  0  0  0
  127.1370  128.7560   60.0230 C   0  0  0  0  0  0  0  0  0  0  0  0
  127.1980  127.3710   60.1560 C   0  0  0  0  0  0  0  0  0  0  0  0
  126.5050  126.5630   59.2640 C   0  0  0  0  0  0  0  0  0  0  0  0
  125.7470  127.1450   58.2510 C   0  0  0  0  0  0  0  0  0  0  0  0
  125.6660  128.5350   58.1060 C   0  0  0  0  0  0  0  0  0  0  0  0
  124.7710  129.1120   57.0020 C   0  0  0  0  0  0  0  0  0  0  0  0
  129.9220  128.1600   55.0450 S   0  0  0  0  0  0  0  0  0  0  0  0
  130.7070  126.8040   55.8190 C   0  0  0  0  0  0  0  0  0  0  0  0
  131.8070  126.0440   55.1080 C   0  0  0  0  0  0  0  0  0  0  0  0
  129.4810  124.7570   58.6360 C   0  0  0  0  0  0  0  0  0  0  0  0
  129.7840  123.7910   59.5970 C   0  0  0  0  0  0  0  0  0  0  0  0
  131.1090  123.6150   60.0160 C   0  0  0  0  0  0  0  0  0  0  0  0
  130.3190  119.3000   60.8860 C   0  0  0  0  0  0  0  0  0  0  0  0
  130.4890  118.1160   60.1750 C   0  0  0  0  0  0  0  0  0  0  0  0
  131.8860  115.8325   59.2447 H   0  0  0  0  0  0  0  0  0  0  0  0
  130.8851  116.5017   57.9116 H   0  0  0  0  0  0  0  0  0  0  0  0
  132.6639  116.7514   57.9116 H   0  0  0  0  0  0  0  0  0  0  0  0
  133.3618  118.8859   58.4980 H   0  0  0  0  0  0  0  0  0  0  0  0
  133.0564  121.0076   59.7628 H   0  0  0  0  0  0  0  0  0  0  0  0
  133.4194  123.1124   62.1300 H   0  0  0  0  0  0  0  0  0  0  0  0
  133.6522  122.1508   60.6577 H   0  0  0  0  0  0  0  0  0  0  0  0
  133.5623  125.1216   60.9914 H   0  0  0  0  0  0  0  0  0  0  0  0
  134.2572  124.2184   59.6640 H   0  0  0  0  0  0  0  0  0  0  0  0
  132.5732  126.1330   58.2330 H   0  0  0  0  0  0  0  0  0  0  0  0
  126.9022  131.6191   56.1698 H   0  0  0  0  0  0  0  0  0  0  0  0
  125.8734  131.1205   54.7798 H   0  0  0  0  0  0  0  0  0  0  0  0
  124.2410  130.9890   56.2580 H   0  0  0  0  0  0  0  0  0  0  0  0
  125.3556  132.4697   57.8144 H   0  0  0  0  0  0  0  0  0  0  0  0
  124.2760  131.2914   58.6428 H   0  0  0  0  0  0  0  0  0  0  0  0
  127.3186  131.1772   58.3489 H   0  0  0  0  0  0  0  0  0  0  0  0
  126.3171  131.3004   59.8687 H   0  0  0  0  0  0  0  0  0  0  0  0
  127.6863  129.3908   60.7338 H   0  0  0  0  0  0  0  0  0  0  0  0
  127.7923  126.9191   60.9638 H   0  0  0  0  0  0  0  0  0  0  0  0
  126.5546  125.4681   59.3572 H   0  0  0  0  0  0  0  0  0  0  0  0
  125.1999  126.4982   57.5493 H   0  0  0  0  0  0  0  0  0  0  0  0
  124.9486  128.5489   56.0739 H   0  0  0  0  0  0  0  0  0  0  0  0
  123.7272  129.0215   57.3372 H   0  0  0  0  0  0  0  0  0  0  0  0
  132.4740  125.5832   55.8515 H   0  0  0  0  0  0  0  0  0  0  0  0
  131.3625  125.2594   54.4780 H   0  0  0  0  0  0  0  0  0  0  0  0
  132.3836  126.7373   54.4780 H   0  0  0  0  0  0  0  0  0  0  0  0
  128.4445  124.8625   58.2830 H   0  0  0  0  0  0  0  0  0  0  0  0
  128.9837  123.1691   60.0245 H   0  0  0  0  0  0  0  0  0  0  0  0
  129.4477  119.4225   61.5462 H   0  0  0  0  0  0  0  0  0  0  0  0
  129.7576  117.3012   60.2807 H   0  0  0  0  0  0  0  0  0  0  0  0
  1  2  1  0
  2  3  2  0
  3  4  1  0
  4  5  2  0
  5  6  1  0
  6  7  2  0
  6  8  1  0
  8  9  1  0
  9 10  1  0
 10 11  1  0
 11 12  2  0
 12 13  1  0
 13 14  1  0
 14 15  1  0
 15 16  2  0
 16 17  1  0
 17 18  2  0
 18 19  1  0
 18 20  1  0
 20 21  1  0
 21 22  1  0
 22 23  1  0
 23 24  1  0
 24 25  2  0
 25 26  1  0
 26 27  2  0
 27 28  1  0
 28 29  2  0
 29 30  1  0
 16 31  1  0
 31 32  1  0
 32 33  1  0
 13 34  2  0
 34 35  1  0
 35 36  2  0
  5 37  1  0
 37 38  2  0
 38  2  1  0
 36  8  1  0
 36 11  1  0
 32 14  2  0
 30 21  1  0
 29 24  1  0
  1 39  1  0
  1 40  1  0
  1 41  1  0
  3 42  1  0
  4 43  1  0
  9 44  1  0
  9 45  1  0
 10 46  1  0
 10 47  1  0
 12 48  1  0
 20 49  1  0
 20 50  1  0
 21 51  1  6
 22 52  1  0
 22 53  1  0
 23 54  1  0
 23 55  1  0
 25 56  1  0
 26 57  1  0
 27 58  1  0
 28 59  1  0
 30 60  1  0
 30 61  1  0
 33 62  1  0
 33 63  1  0
 33 64  1  0
 34 65  1  0
 35 66  1  0
 37 67  1  0
 38 68  1  0
M  CHG  2  19  -1  21   1
M  END
>  <Binding energies>  (1) 
[-9.89]

>  <Ligand effiencies>  (1) 
[-0.2535897435897436]

>  <Interactions>  (1) 
["V-B:TYR:539:C:9839, V-B:TYR:539:CE2:9848, V-B:TYR:539:CD2:9846, V-B:MET:535:CE:9807, V-A:SER:385:CB:3409, H-A:TYR:484:OH:4348, V-A:ASP:366:CG:3213, V-B:TYR:539:CG:9844, V-A:LEU:475:CD2:4259, V-B:TYR:531:CZ:9766, V-A:ILE:369:CD1:3239, V-A:ASP:366:CB:3212, V-A:ILE:369:CG2:3237, V-A:TYR:539:CE1:4875, V-A:TYR:531:CZ:4794, V-B:TYR:531:CE1:9764, V-B:ASP:366:CG:8185, V-A:TYR:539:CZ:4877, V-B:ASP:366:CB:8184, V-A:MET:535:CE:4835, V-A:TYR:539:CE2:4876, H-B:LYS:534:NZ:9795, V-A:TYR:531:CE1:4792, H-B:TYR:531:OH:9767, H-A:TYR:539:OH:4878, V-B:TYR:539:CB:9843, V-A:LEU:373:CD1:3280, V-A:LEU:373:CD2:3281, V-A:HIS:383:CE1:3394, V-A:TYR:539:CD1:4873, H-B:ASP:366:O:8181, V-A:SER:385:CA:3407"]

$$$$
RR21_Rahimova_2017
     RDKit          3D

 62 67  0  0  0  0  0  0  0  0999 V2000
  128.0950  126.9210   68.8050 C   0  0  0  0  0  0  0  0  0  0  0  0
  128.1220  128.1880   68.1540 O   0  0  0  0  0  0  0  0  0  0  0  0
  127.8090  128.2640   66.8100 C   0  0  0  0  0  0  0  0  0  0  0  0
  128.7520  128.4820   65.7910 C   0  0  0  0  0  0  0  0  0  0  0  0
  128.3530  128.5420   64.4560 C   0  0  0  0  0  0  0  0  0  0  0  0
  127.0080  128.3830   64.1050 C   0  0  0  0  0  0  0  0  0  0  0  0
  126.5830  128.4440   62.6690 C   0  0  0  0  0  0  0  0  0  0  0  0
  125.9060  129.4860   62.2290 N   0  0  0  0  0  0  0  0  0  0  0  0
  125.6680  129.2690   60.9270 N   0  0  0  0  0  0  0  0  0  0  0  0
  124.9700  130.2160   60.1330 C   0  0  0  0  0  0  0  0  0  0  0  0
  124.6240  131.4730   60.6530 C   0  0  0  0  0  0  0  0  0  0  0  0
  123.9440  132.3950   59.8630 C   0  0  0  0  0  0  0  0  0  0  0  0
  123.6050  132.0650   58.5530 C   0  0  0  0  0  0  0  0  0  0  0  0
  123.9400  130.8200   58.0260 C   0  0  0  0  0  0  0  0  0  0  0  0
  124.6200  129.8960   58.8130 C   0  0  0  0  0  0  0  0  0  0  0  0
  126.2190  128.0740   60.5370 C   0  0  0  0  0  0  0  0  0  0  0  0
  126.8140  127.4950   61.6480 C   0  0  0  0  0  0  0  0  0  0  0  0
  127.5640  126.2490   61.7180 C   0  0  0  0  0  0  0  0  0  0  0  0
  128.7290  125.9370   61.1070 C   0  0  0  0  0  0  0  0  0  0  0  0
  129.6980  126.9560   60.0190 S   0  0  0  0  0  0  0  0  0  0  0  0
  130.8800  125.6620   59.8830 C   0  0  0  0  0  0  0  0  0  0  0  0
  131.9880  125.6650   59.2080 N   0  0  0  0  0  0  0  0  0  0  0  0
  132.8680  124.5470   59.1920 C   0  0  0  0  0  0  0  0  0  0  0  0
  133.9430  124.4780   58.5970 O   0  0  0  0  0  0  0  0  0  0  0  0
  132.3820  123.3790   60.0050 C   0  0  0  0  0  0  0  0  0  0  0  0
  133.2390  122.1080   60.0470 C   0  0  0  0  0  0  0  0  0  0  0  0
  132.4370  120.8080   60.0630 C   0  0  0  0  0  0  0  0  0  0  0  0
  131.2590  120.7230   60.8090 C   0  0  0  0  0  0  0  0  0  0  0  0
  130.5190  119.5430   60.8110 C   0  0  0  0  0  0  0  0  0  0  0  0
  130.9540  118.4460   60.0640 C   0  0  0  0  0  0  0  0  0  0  0  0
  130.1380  117.1670   60.0600 C   0  0  0  0  0  0  0  0  0  0  0  0
  132.1260  118.5330   59.3090 C   0  0  0  0  0  0  0  0  0  0  0  0
  132.8660  119.7120   59.3080 C   0  0  0  0  0  0  0  0  0  0  0  0
  131.2720  123.3890   60.6680 N   0  0  0  0  0  0  0  0  0  0  0  0
  130.5070  124.5610   60.6060 N   0  0  0  0  0  0  0  0  0  0  0  0
  129.3420  124.6300   61.2970 C   0  0  0  0  0  0  0  0  0  0  0  0
  128.8790  123.7170   61.9910 O   0  0  0  0  0  0  0  0  0  0  0  0
  126.0680  128.1730   65.1190 C   0  0  0  0  0  0  0  0  0  0  0  0
  126.4640  128.1130   66.4550 C   0  0  0  0  0  0  0  0  0  0  0  0
  125.5300  127.9070   67.4130 F   0  0  0  0  0  0  0  0  0  0  0  0
  128.0981  127.0687   69.8950 H   0  0  0  0  0  0  0  0  0  0  0  0
  127.1851  126.3772   68.5113 H   0  0  0  0  0  0  0  0  0  0  0  0
  128.9809  126.3389   68.5113 H   0  0  0  0  0  0  0  0  0  0  0  0
  129.8141  128.6064   66.0487 H   0  0  0  0  0  0  0  0  0  0  0  0
  129.1035  128.7161   63.6709 H   0  0  0  0  0  0  0  0  0  0  0  0
  124.8913  131.7302   61.6886 H   0  0  0  0  0  0  0  0  0  0  0  0
  123.6753  133.3804   60.2715 H   0  0  0  0  0  0  0  0  0  0  0  0
  123.0678  132.7943   57.9289 H   0  0  0  0  0  0  0  0  0  0  0  0
  123.6677  130.5680   56.9905 H   0  0  0  0  0  0  0  0  0  0  0  0
  124.8839  128.9117   58.3989 H   0  0  0  0  0  0  0  0  0  0  0  0
  126.1932  127.6502   59.5222 H   0  0  0  0  0  0  0  0  0  0  0  0
  127.1269  125.4608   62.3486 H   0  0  0  0  0  0  0  0  0  0  0  0
  133.8883  122.1011   59.1591 H   0  0  0  0  0  0  0  0  0  0  0  0
  133.8040  122.1406   60.9903 H   0  0  0  0  0  0  0  0  0  0  0  0
  130.9157  121.5883   61.3950 H   0  0  0  0  0  0  0  0  0  0  0  0
  129.5927  119.4751   61.4004 H   0  0  0  0  0  0  0  0  0  0  0  0
  129.9393  116.8556   61.0961 H   0  0  0  0  0  0  0  0  0  0  0  0
  129.1844  117.3421   59.5405 H   0  0  0  0  0  0  0  0  0  0  0  0
  130.6987  116.3760   59.5405 H   0  0  0  0  0  0  0  0  0  0  0  0
  132.4639  117.6705   58.7157 H   0  0  0  0  0  0  0  0  0  0  0  0
  133.7886  119.7815   58.7131 H   0  0  0  0  0  0  0  0  0  0  0  0
  125.0055  128.0539   64.8602 H   0  0  0  0  0  0  0  0  0  0  0  0
  1  2  1  0
  2  3  1  0
  3  4  2  0
  4  5  1  0
  5  6  2  0
  6  7  1  0
  7  8  2  0
  8  9  1  0
  9 10  1  0
 10 11  2  0
 11 12  1  0
 12 13  2  0
 13 14  1  0
 14 15  2  0
  9 16  1  0
 16 17  2  0
 17 18  1  0
 18 19  2  0
 19 20  1  0
 20 21  1  0
 21 22  2  0
 22 23  1  0
 23 24  2  0
 23 25  1  0
 25 26  1  0
 26 27  1  0
 27 28  2  0
 28 29  1  0
 29 30  2  0
 30 31  1  0
 30 32  1  0
 32 33  2  0
 25 34  2  0
 34 35  1  0
 35 36  1  0
 36 37  2  0
  6 38  1  0
 38 39  2  0
 39 40  1  0
 39  3  1  0
 17  7  1  0
 36 19  1  0
 15 10  1  0
 35 21  1  0
 33 27  1  0
  1 41  1  0
  1 42  1  0
  1 43  1  0
  4 44  1  0
  5 45  1  0
 11 46  1  0
 12 47  1  0
 13 48  1  0
 14 49  1  0
 15 50  1  0
 16 51  1  0
 18 52  1  0
 26 53  1  0
 26 54  1  0
 28 55  1  0
 29 56  1  0
 31 57  1  0
 31 58  1  0
 31 59  1  0
 32 60  1  0
 33 61  1  0
 38 62  1  0
M  END
>  <Binding energies>  (1) 
[-7.3]

>  <Ligand effiencies>  (1) 
[-0.1825]

>  <Interactions>  (1) 
["V-B:GLU:543:CD:9880, V-B:TYR:539:C:9839, V-B:TYR:539:CE2:9848, V-B:TYR:539:CD2:9846, V-A:SER:385:CB:3409, V-A:PRO:482:CB:4326, V-A:ASP:366:CG:3213, V-B:TYR:539:CG:9844, V-A:LEU:475:CD2:4259, V-A:ILE:369:CD1:3239, V-A:ASP:366:CB:3212, V-A:ILE:369:CG2:3237, V-A:PRO:482:CG:4327, V-A:TYR:539:CE1:4875, V-B:ASP:366:CG:8185, V-A:TYR:539:CZ:4877, V-B:ASP:366:CB:8184, V-A:GLU:543:CD:4908, V-A:GLU:543:CG:4907, V-A:HIS:456:CE1:4070, V-B:TYR:539:CB:9843, V-B:GLU:543:CB:9878, V-A:GLU:543:CB:4906, V-B:ARG:545:CZ:9898, V-B:HIS:456:CE1:9042, V-A:LEU:373:CD1:3280, V-B:ILE:369:CD1:8211, V-B:ARG:545:CD:9895, V-B:ARG:545:CG:9894, V-B:ASP:366:C:8180, V-B:ASP:366:CA:8182, V-B:ILE:369:CG2:8209, V-B:ILE:369:CB:8208, V-A:SER:385:CA:3407, V-B:ARG:545:CB:9893"]

$$$$
RR22_Rahimova_2017
     RDKit          3D

 49 54  0  0  0  0  0  0  0  0999 V2000
  124.2320  130.2500   54.4080 O   0  0  0  0  0  0  0  0  0  0  0  0
  124.9520  130.2820   55.4030 C   0  0  0  0  0  0  0  0  0  0  0  0
  124.5700  130.1500   56.7270 N   0  0  0  0  0  0  0  0  0  0  0  0
  125.5480  130.1500   57.7710 C   0  0  1  0  0  0  0  0  0  0  0  0
  125.1460  131.1940   58.6620 O   0  0  0  0  0  0  0  0  0  0  0  0
  124.8610  130.8620   59.9870 C   0  0  0  0  0  0  0  0  0  0  0  0
  124.1320  131.7990   60.7200 C   0  0  0  0  0  0  0  0  0  0  0  0
  123.8430  131.5550   62.0630 C   0  0  0  0  0  0  0  0  0  0  0  0
  124.2900  130.3830   62.6720 C   0  0  0  0  0  0  0  0  0  0  0  0
  125.0200  129.4460   61.9390 C   0  0  0  0  0  0  0  0  0  0  0  0
  125.2960  129.6650   60.5850 C   0  0  0  0  0  0  0  0  0  0  0  0
  126.1140  128.7350   59.7170 C   0  0  1  0  0  0  0  0  0  0  0  0
  126.1260  127.2330   59.9180 C   0  0  0  0  0  0  0  0  0  0  0  0
  126.3770  126.7780   58.4780 C   0  0  0  0  0  0  0  0  0  0  0  0
  126.8640  125.4260   58.1410 C   0  0  0  0  0  0  0  0  0  0  0  0
  128.2130  125.2130   57.8190 C   0  0  0  0  0  0  0  0  0  0  0  0
  128.6670  123.9350   57.5040 C   0  0  0  0  0  0  0  0  0  0  0  0
  127.7770  122.8640   57.5080 C   0  0  0  0  0  0  0  0  0  0  0  0
  126.4360  123.0590   57.8260 C   0  0  0  0  0  0  0  0  0  0  0  0
  125.9800  124.3360   58.1420 C   0  0  0  0  0  0  0  0  0  0  0  0
  126.0870  127.7050   57.6440 N   0  0  0  0  0  0  0  0  0  0  0  0
  125.6220  128.8110   58.3750 N   0  0  0  0  0  0  0  0  0  0  0  0
  126.8610  130.5850   57.1370 C   0  0  0  0  0  0  0  0  0  0  0  0
  127.9180  131.0270   57.8590 C   0  0  0  0  0  0  0  0  0  0  0  0
  129.2450  131.4580   57.3780 C   0  0  0  0  0  0  0  0  0  0  0  0
  130.4480  130.9490   57.8870 C   0  0  0  0  0  0  0  0  0  0  0  0
  131.6670  131.4040   57.3830 C   0  0  0  0  0  0  0  0  0  0  0  0
  131.6520  132.3710   56.3780 C   0  0  0  0  0  0  0  0  0  0  0  0
  130.5040  132.8870   55.8720 N   0  0  0  0  0  0  0  0  0  0  0  0
  129.3280  132.4310   56.3750 C   0  0  0  0  0  0  0  0  0  0  0  0
  126.7540  130.5220   55.3720 S   0  0  0  0  0  0  0  0  0  0  0  0
  123.5950  130.0950   56.9800 H   0  0  0  0  0  0  0  0  0  0  0  0
  123.7863  132.7268   60.2408 H   0  0  0  0  0  0  0  0  0  0  0  0
  123.2619  132.2879   62.6420 H   0  0  0  0  0  0  0  0  0  0  0  0
  124.0667  130.1964   63.7328 H   0  0  0  0  0  0  0  0  0  0  0  0
  125.3806  128.5295   62.4290 H   0  0  0  0  0  0  0  0  0  0  0  0
  127.1159  129.1043   59.9810 H   0  0  0  0  0  0  0  0  0  0  0  0
  126.9348  126.9173   60.5934 H   0  0  0  0  0  0  0  0  0  0  0  0
  125.2200  126.8193   60.3849 H   0  0  0  0  0  0  0  0  0  0  0  0
  128.9152  126.0597   57.8154 H   0  0  0  0  0  0  0  0  0  0  0  0
  129.7254  123.7719   57.2528 H   0  0  0  0  0  0  0  0  0  0  0  0
  128.1369  121.8551   57.2577 H   0  0  0  0  0  0  0  0  0  0  0  0
  125.7394  122.2077   57.8276 H   0  0  0  0  0  0  0  0  0  0  0  0
  124.9206  124.4915   58.3939 H   0  0  0  0  0  0  0  0  0  0  0  0
  127.7676  131.0705   58.9478 H   0  0  0  0  0  0  0  0  0  0  0  0
  130.4309  130.1908   58.6838 H   0  0  0  0  0  0  0  0  0  0  0  0
  132.6181  131.0091   57.7695 H   0  0  0  0  0  0  0  0  0  0  0  0
  132.6119  132.7305   55.9787 H   0  0  0  0  0  0  0  0  0  0  0  0
  128.3924  132.8476   55.9737 H   0  0  0  0  0  0  0  0  0  0  0  0
  1  2  2  0
  2  3  1  0
  3  4  1  0
  4  5  1  1
  5  6  1  0
  6  7  2  0
  7  8  1  0
  8  9  2  0
  9 10  1  0
 10 11  2  0
 11 12  1  0
 12 13  1  0
 13 14  1  0
 14 15  1  0
 15 16  2  0
 16 17  1  0
 17 18  2  0
 18 19  1  0
 19 20  2  0
 14 21  2  0
 21 22  1  0
  4 23  1  0
 23 24  2  0
 24 25  1  0
 25 26  2  0
 26 27  1  0
 27 28  2  0
 28 29  1  0
 29 30  2  0
 23 31  1  0
 31  2  1  0
 22  4  1  0
 30 25  1  0
 11  6  1  0
 22 12  1  0
 20 15  1  0
  3 32  1  0
  7 33  1  0
  8 34  1  0
  9 35  1  0
 10 36  1  0
 12 37  1  6
 13 38  1  0
 13 39  1  0
 16 40  1  0
 17 41  1  0
 18 42  1  0
 19 43  1  0
 20 44  1  0
 24 45  1  0
 26 46  1  0
 27 47  1  0
 28 48  1  0
 30 49  1  0
M  END
>  <Binding energies>  (1) 
[-9.29]

>  <Ligand effiencies>  (1) 
[-0.2903125]

>  <Interactions>  (1) 
["V-B:PRO:540:CB:9857, V-B:TYR:539:C:9839, V-B:PRO:540:CA:9855, V-B:TYR:539:CE2:9848, V-B:TYR:539:CD2:9846, V-B:TYR:539:CZ:9849, V-B:PRO:540:N:9856, V-B:TYR:539:CG:9844, V-A:TYR:539:CE1:4875, V-B:TYR:531:CE1:9764, H-A:TYR:539:N:4870, V-B:ASP:366:CG:8185, V-A:TYR:539:CZ:4877, V-A:PRO:540:CA:4883, V-A:TYR:539:C:4867, V-A:PRO:540:N:4884, V-A:PRO:540:CB:4885, V-B:ASP:366:CB:8184, H-B:LYS:534:NZ:9795, V-A:PRO:540:CD:4887, H-B:TYR:531:OH:9767, H-A:TYR:539:OH:4878, V-B:ILE:369:CD1:8211, V-A:TYR:539:CG:4872, H-B:ASP:366:O:8181, V-B:TYR:531:CD1:9762"]

$$$$
RR23_Rahimova_2017
     RDKit          3D

 65 70  0  0  0  0  0  0  0  0999 V2000
  131.9360  132.7290   55.1400 C   0  0  0  0  0  0  0  0  0  0  0  0
  130.5790  132.0720   55.3160 C   0  0  0  0  0  0  0  0  0  0  0  0
  129.7790  132.4050   56.4090 C   0  0  0  0  0  0  0  0  0  0  0  0
  128.5300  131.8080   56.5650 C   0  0  0  0  0  0  0  0  0  0  0  0
  128.0770  130.8660   55.6350 C   0  0  0  0  0  0  0  0  0  0  0  0
  126.7090  130.2450   55.8100 C   0  0  0  0  0  0  0  0  0  0  0  0
  126.0720  129.9680   54.7910 O   0  0  0  0  0  0  0  0  0  0  0  0
  126.2400  130.0030   57.0710 N   0  0  0  0  0  0  0  0  0  0  0  0
  124.9910  130.6110   57.5570 C   0  0  0  0  0  0  0  0  0  0  0  0
  124.7230  130.0010   58.9230 C   0  0  0  0  0  0  0  0  0  0  0  0
  125.6380  128.8150   58.9450 C   0  0  0  0  0  0  0  0  0  0  0  0
  125.7660  127.8200   59.9150 C   0  0  0  0  0  0  0  0  0  0  0  0
  126.7990  126.8750   59.8300 C   0  0  0  0  0  0  0  0  0  0  0  0
  126.9760  125.7640   60.8770 C   0  0  2  0  0  0  0  0  0  0  0  0
  128.3650  125.4030   61.0610 N   0  0  0  0  0  0  0  0  0  0  0  0
  128.5000  124.1730   61.3550 C   0  0  0  0  0  0  0  0  0  0  0  0
  129.6530  123.4840   61.5720 N   0  0  0  0  0  0  0  0  0  0  0  0
  130.9290  123.9010   61.3910 C   0  0  0  0  0  0  0  0  0  0  0  0
  131.2700  125.0280   61.0250 O   0  0  0  0  0  0  0  0  0  0  0  0
  132.0150  122.8490   61.6710 C   0  0  0  0  0  0  0  0  0  0  0  0
  131.4520  121.4980   61.4440 N   0  0  0  0  0  0  0  0  0  0  0  0
  130.3770  121.1570   62.2550 N   0  0  0  0  0  0  0  0  0  0  0  0
  129.7960  120.0040   62.1570 N   0  0  0  0  0  0  0  0  0  0  0  0
  130.2500  119.0750   61.2180 C   0  0  0  0  0  0  0  0  0  0  0  0
  129.6020  117.8400   61.1390 C   0  0  0  0  0  0  0  0  0  0  0  0
  130.0320  116.8910   60.2100 C   0  0  0  0  0  0  0  0  0  0  0  0
  131.1060  117.1740   59.3630 C   0  0  0  0  0  0  0  0  0  0  0  0
  131.7560  118.4070   59.4410 C   0  0  0  0  0  0  0  0  0  0  0  0
  131.3230  119.3600   60.3710 C   0  0  0  0  0  0  0  0  0  0  0  0
  132.0140  120.6990   60.4740 C   0  0  0  0  0  0  0  0  0  0  0  0
  132.9770  121.0300   59.7750 O   0  0  0  0  0  0  0  0  0  0  0  0
  127.0040  123.2040   61.4930 S   0  0  0  0  0  0  0  0  0  0  0  0
  126.1160  124.5050   60.6190 C   0  0  2  0  0  0  0  0  0  0  0  0
  125.9270  124.0840   59.1470 C   0  0  0  0  0  0  0  0  0  0  0  0
  127.7250  126.9780   58.7850 C   0  0  0  0  0  0  0  0  0  0  0  0
  127.6100  127.9850   57.8260 C   0  0  0  0  0  0  0  0  0  0  0  0
  126.5290  128.8760   57.8720 C   0  0  0  0  0  0  0  0  0  0  0  0
  128.8740  130.5580   54.5240 C   0  0  0  0  0  0  0  0  0  0  0  0
  130.1220  131.1550   54.3680 C   0  0  0  0  0  0  0  0  0  0  0  0
  132.3720  132.9401   56.1276 H   0  0  0  0  0  0  0  0  0  0  0  0
  132.6011  132.0531   54.5824 H   0  0  0  0  0  0  0  0  0  0  0  0
  131.8183  133.6699   54.5824 H   0  0  0  0  0  0  0  0  0  0  0  0
  130.1342  133.1388   57.1475 H   0  0  0  0  0  0  0  0  0  0  0  0
  127.8972  132.0784   57.4231 H   0  0  0  0  0  0  0  0  0  0  0  0
  125.1065  131.7015   57.6429 H   0  0  0  0  0  0  0  0  0  0  0  0
  124.1580  130.4214   56.8641 H   0  0  0  0  0  0  0  0  0  0  0  0
  124.9721  130.7081   59.7280 H   0  0  0  0  0  0  0  0  0  0  0  0
  123.6668  129.7379   59.0817 H   0  0  0  0  0  0  0  0  0  0  0  0
  125.0526  127.7765   60.7512 H   0  0  0  0  0  0  0  0  0  0  0  0
  126.6016  126.2060   61.8121 H   0  0  0  0  0  0  0  0  0  0  0  0
  129.5450  122.5230   61.8600 H   0  0  0  0  0  0  0  0  0  0  0  0
  132.8676  123.0110   60.9950 H   0  0  0  0  0  0  0  0  0  0  0  0
  132.3565  122.9376   62.7129 H   0  0  0  0  0  0  0  0  0  0  0  0
  128.7564  117.6163   61.8061 H   0  0  0  0  0  0  0  0  0  0  0  0
  129.5237  115.9177   60.1448 H   0  0  0  0  0  0  0  0  0  0  0  0
  131.4407  116.4230   58.6322 H   0  0  0  0  0  0  0  0  0  0  0  0
  132.6035  118.6286   58.7757 H   0  0  0  0  0  0  0  0  0  0  0  0
  125.0878  124.7058   60.9543 H   0  0  0  0  0  0  0  0  0  0  0  0
  125.4768  123.0811   59.1074 H   0  0  0  0  0  0  0  0  0  0  0  0
  125.2654  124.8032   58.6420 H   0  0  0  0  0  0  0  0  0  0  0  0
  126.9041  124.0675   58.6420 H   0  0  0  0  0  0  0  0  0  0  0  0
  128.5529  126.2567   58.7192 H   0  0  0  0  0  0  0  0  0  0  0  0
  128.3675  128.0796   57.0341 H   0  0  0  0  0  0  0  0  0  0  0  0
  128.5119  129.8415   53.7720 H   0  0  0  0  0  0  0  0  0  0  0  0
  130.7474  130.9043   53.4985 H   0  0  0  0  0  0  0  0  0  0  0  0
  1  2  1  0
  2  3  2  0
  3  4  1  0
  4  5  2  0
  5  6  1  0
  6  7  2  0
  6  8  1  0
  8  9  1  0
  9 10  1  0
 10 11  1  0
 11 12  2  0
 12 13  1  0
 13 14  1  0
 14 15  1  0
 15 16  2  0
 16 17  1  0
 17 18  1  0
 18 19  2  0
 18 20  1  0
 20 21  1  0
 21 22  1  0
 22 23  2  0
 23 24  1  0
 24 25  2  0
 25 26  1  0
 26 27  2  0
 27 28  1  0
 28 29  2  0
 29 30  1  0
 30 31  2  0
 16 32  1  0
 32 33  1  0
 33 34  1  0
 13 35  2  0
 35 36  1  0
 36 37  2  0
  5 38  1  0
 38 39  2  0
 39  2  1  0
 37  8  1  0
 37 11  1  0
 33 14  1  0
 30 21  1  0
 29 24  1  0
  1 40  1  0
  1 41  1  0
  1 42  1  0
  3 43  1  0
  4 44  1  0
  9 45  1  0
  9 46  1  0
 10 47  1  0
 10 48  1  0
 12 49  1  0
 14 50  1  1
 17 51  1  0
 20 52  1  0
 20 53  1  0
 25 54  1  0
 26 55  1  0
 27 56  1  0
 28 57  1  0
 33 58  1  1
 34 59  1  0
 34 60  1  0
 34 61  1  0
 35 62  1  0
 36 63  1  0
 38 64  1  0
 39 65  1  0
M  END
>  <Binding energies>  (1) 
[-10.91]

>  <Ligand effiencies>  (1) 
[-0.27275]

>  <Interactions>  (1) 
["V-B:PRO:540:CB:9857, V-B:TYR:539:C:9839, V-B:PRO:540:CA:9855, V-B:TYR:539:CE2:9848, V-B:TYR:539:CD2:9846, V-A:SER:385:CB:3409, V-A:PRO:482:CB:4326, V-A:LEU:475:CD1:4258, H-A:TYR:484:OH:4348, V-B:TYR:539:CG:9844, V-A:LEU:475:CD2:4259, V-A:LEU:475:CG:4257, V-A:PRO:482:CG:4327, V-A:TYR:539:CE1:4875, V-B:ASP:366:CG:8185, V-A:TYR:539:CZ:4877, V-A:TYR:539:C:4867, V-A:PRO:540:N:4884, V-B:ASP:366:CB:8184, H-B:LYS:534:NZ:9795, V-A:LEU:363:CD1:3189, H-B:ALA:541:N:9863, V-A:PRO:540:CD:4887, V-A:ILE:538:CA:4860, V-A:ILE:538:CB:4862, V-A:ILE:538:CG2:4863, H-A:TYR:539:OH:4878, V-B:TYR:539:CB:9843, V-A:TYR:539:CD1:4873, V-B:ASP:366:CA:8182"]

$$$$
RR24_Rahimova_2017
     RDKit          3D

 65 71  0  0  0  0  0  0  0  0999 V2000
  126.1480  130.8950   58.1180 C   0  0  0  0  0  0  0  0  0  0  0  0
  126.5340  131.0330   56.6380 C   0  0  2  0  0  0  0  0  0  0  0  0
  126.0480  129.8400   55.7630 C   0  0  0  0  0  0  0  0  0  0  0  0
  124.9830  129.8750   55.1380 O   0  0  0  0  0  0  0  0  0  0  0  0
  126.9080  128.7800   55.7990 O   0  0  0  0  0  0  0  0  0  0  0  0
  127.1800  128.1670   57.0010 C   0  0  0  0  0  0  0  0  0  0  0  0
  126.1310  127.6240   57.7460 C   0  0  0  0  0  0  0  0  0  0  0  0
  126.3950  126.9920   58.9580 C   0  0  0  0  0  0  0  0  0  0  0  0
  127.7090  126.8940   59.4260 C   0  0  0  0  0  0  0  0  0  0  0  0
  127.9910  126.2150   60.7720 C   0  0  1  0  0  0  0  0  0  0  0  0
  129.4020  125.5820   60.8140 C   0  0  0  0  0  0  0  0  0  0  0  0
  130.2750  125.8150   61.8120 C   0  0  0  0  0  0  0  0  0  0  0  0
  129.9750  126.6380   62.8690 N   0  0  0  0  0  0  0  0  0  0  0  0
  128.7580  127.2710   62.9600 C   0  0  0  0  0  0  0  0  0  0  0  0
  128.6170  128.0410   64.0700 N   0  0  0  0  0  0  0  0  0  0  0  0
  127.5110  128.8030   64.2910 C   0  0  0  0  0  0  0  0  0  0  0  0
  127.5610  129.7090   65.1240 O   0  0  0  0  0  0  0  0  0  0  0  0
  126.4730  128.5650   63.4030 N   0  0  0  0  0  0  0  0  0  0  0  0
  125.2170  129.3010   63.6540 C   0  0  0  0  0  0  0  0  0  0  0  0
  126.5090  127.8050   62.2460 C   0  0  0  0  0  0  0  0  0  0  0  0
  125.5560  127.6790   61.4710 O   0  0  0  0  0  0  0  0  0  0  0  0
  127.7890  127.1270   62.0180 C   0  0  0  0  0  0  0  0  0  0  0  0
  131.5170  125.0940   61.5920 C   0  0  0  0  0  0  0  0  0  0  0  0
  132.7080  125.0070   62.3140 C   0  0  0  0  0  0  0  0  0  0  0  0
  133.7450  124.2080   61.8260 C   0  0  0  0  0  0  0  0  0  0  0  0
  133.5870  123.5030   60.6290 C   0  0  0  0  0  0  0  0  0  0  0  0
  132.3910  123.5930   59.9100 C   0  0  0  0  0  0  0  0  0  0  0  0
  131.3590  124.3950   60.4020 C   0  0  0  0  0  0  0  0  0  0  0  0
  130.0120  124.6650   59.8570 C   0  0  0  0  0  0  0  0  0  0  0  0
  129.4770  124.2410   58.8340 O   0  0  0  0  0  0  0  0  0  0  0  0
  128.7590  127.4230   58.6690 C   0  0  0  0  0  0  0  0  0  0  0  0
  128.4960  128.0520   57.4560 C   0  0  0  0  0  0  0  0  0  0  0  0
  127.9900  131.3110   56.4610 N   0  0  0  0  0  0  0  0  0  0  0  0
  128.5080  131.6560   55.2490 C   0  0  0  0  0  0  0  0  0  0  0  0
  127.9010  131.7750   54.1830 O   0  0  0  0  0  0  0  0  0  0  0  0
  129.9600  131.8570   55.4830 C   0  0  0  0  0  0  0  0  0  0  0  0
  130.9850  132.2170   54.6070 C   0  0  0  0  0  0  0  0  0  0  0  0
  132.2840  132.3390   55.1120 C   0  0  0  0  0  0  0  0  0  0  0  0
  132.5390  132.1050   56.4690 C   0  0  0  0  0  0  0  0  0  0  0  0
  131.4980  131.7460   57.3310 C   0  0  0  0  0  0  0  0  0  0  0  0
  130.2090  131.6270   56.8090 C   0  0  0  0  0  0  0  0  0  0  0  0
  128.9240  131.2720   57.4600 C   0  0  0  0  0  0  0  0  0  0  0  0
  128.7390  131.0060   58.6480 O   0  0  0  0  0  0  0  0  0  0  0  0
  126.9970  131.1985   58.7482 H   0  0  0  0  0  0  0  0  0  0  0  0
  125.2829  131.5395   58.3330 H   0  0  0  0  0  0  0  0  0  0  0  0
  125.8876  129.8481   58.3330 H   0  0  0  0  0  0  0  0  0  0  0  0
  125.9919  131.9145   56.2652 H   0  0  0  0  0  0  0  0  0  0  0  0
  125.0977  127.6956   57.3757 H   0  0  0  0  0  0  0  0  0  0  0  0
  125.5687  126.5691   59.5483 H   0  0  0  0  0  0  0  0  0  0  0  0
  127.2278  125.4254   60.8362 H   0  0  0  0  0  0  0  0  0  0  0  0
  130.6600  126.7830   63.5980 H   0  0  0  0  0  0  0  0  0  0  0  0
  129.3500  128.0920   64.7610 H   0  0  0  0  0  0  0  0  0  0  0  0
  125.0573  129.3946   64.7383 H   0  0  0  0  0  0  0  0  0  0  0  0
  125.2833  130.3031   63.2053 H   0  0  0  0  0  0  0  0  0  0  0  0
  124.3751  128.7533   63.2053 H   0  0  0  0  0  0  0  0  0  0  0  0
  132.8290  125.5611   63.2565 H   0  0  0  0  0  0  0  0  0  0  0  0
  134.6891  124.1333   62.3855 H   0  0  0  0  0  0  0  0  0  0  0  0
  134.4071  122.8748   60.2512 H   0  0  0  0  0  0  0  0  0  0  0  0
  132.2646  123.0388   58.9683 H   0  0  0  0  0  0  0  0  0  0  0  0
  129.7939  127.3418   59.0328 H   0  0  0  0  0  0  0  0  0  0  0  0
  129.3235  128.4583   56.8558 H   0  0  0  0  0  0  0  0  0  0  0  0
  130.7761  132.4008   53.5428 H   0  0  0  0  0  0  0  0  0  0  0  0
  133.1086  132.6199   54.4403 H   0  0  0  0  0  0  0  0  0  0  0  0
  133.5629  132.2040   56.8586 H   0  0  0  0  0  0  0  0  0  0  0  0
  131.6910  131.5613   58.3981 H   0  0  0  0  0  0  0  0  0  0  0  0
  1  2  1  0
  2  3  1  0
  3  4  2  0
  3  5  1  0
  5  6  1  0
  6  7  2  0
  7  8  1  0
  8  9  2  0
  9 10  1  0
 10 11  1  0
 11 12  2  0
 12 13  1  0
 13 14  1  0
 14 15  1  0
 15 16  1  0
 16 17  2  0
 16 18  1  0
 18 19  1  0
 18 20  1  0
 20 21  2  0
 20 22  1  0
 12 23  1  0
 23 24  2  0
 24 25  1  0
 25 26  2  0
 26 27  1  0
 27 28  2  0
 28 29  1  0
 29 30  2  0
  9 31  1  0
 31 32  2  0
  2 33  1  0
 33 34  1  0
 34 35  2  0
 34 36  1  0
 36 37  2  0
 37 38  1  0
 38 39  2  0
 39 40  1  0
 40 41  2  0
 41 42  1  0
 42 43  2  0
 32  6  1  0
 42 33  1  0
 22 10  1  0
 28 23  1  0
 41 36  1  0
 29 11  1  0
 22 14  2  0
  1 44  1  0
  1 45  1  0
  1 46  1  0
  2 47  1  6
  7 48  1  0
  8 49  1  0
 10 50  1  1
 13 51  1  0
 15 52  1  0
 19 53  1  0
 19 54  1  0
 19 55  1  0
 24 56  1  0
 25 57  1  0
 26 58  1  0
 27 59  1  0
 31 60  1  0
 32 61  1  0
 37 62  1  0
 38 63  1  0
 39 64  1  0
 40 65  1  0
M  END
>  <Binding energies>  (1) 
[-9.86]

>  <Ligand effiencies>  (1) 
[-0.2191111111111111]

>  <Interactions>  (1) 
["V-B:GLU:543:CD:9880, H-B:GLU:543:OE2:9882, V-B:TYR:539:CE2:9848, V-B:TYR:531:CZ:9766, V-A:ILE:369:CD1:3239, V-A:ILE:369:CG2:3237, V-A:TYR:539:CE1:4875, V-A:TYR:531:CZ:4794, V-B:TYR:531:CE1:9764, V-B:ASP:366:CG:8185, V-A:TYR:539:CZ:4877, V-A:TYR:531:CE2:4793, V-A:PRO:540:CA:4883, V-A:PRO:540:N:4884, V-A:PRO:540:CB:4885, V-B:ASP:366:CB:8184, V-A:TYR:539:CE2:4876, H-B:LYS:534:NZ:9795, V-A:LEU:363:CD1:3189, H-B:ARG:545:NH2:9900, V-A:GLU:543:CD:4908, H-A:GLU:543:OE1:4909, H-A:GLU:543:OE2:4910, V-A:ARG:545:CZ:4926, V-A:PRO:540:CD:4887, V-A:GLU:543:CG:4907, H-B:TYR:531:OH:9767, V-A:ILE:538:CA:4860, V-A:ILE:538:CB:4862, V-A:ILE:538:CG2:4863, H-A:TYR:539:OH:4878, V-B:ARG:545:CZ:9898, V-A:PRO:540:CG:4886, H-B:TYR:484:OH:9320"]

$$$$
RR24_Rahimova_2017-again1
     RDKit          3D

 63 69  0  0  0  0  0  0  0  0999 V2000
  132.8640  132.4780   56.2420 C   0  0  0  0  0  0  0  0  0  0  0  0
  131.5440  131.7900   55.8690 C   0  0  2  0  0  0  0  0  0  0  0  0
  130.3680  132.7870   55.6530 C   0  0  0  0  0  0  0  0  0  0  0  0
  130.0880  133.2380   54.5360 O   0  0  0  0  0  0  0  0  0  0  0  0
  129.7290  133.1080   56.8170 O   0  0  0  0  0  0  0  0  0  0  0  0
  128.7610  132.2660   57.3150 C   0  0  0  0  0  0  0  0  0  0  0  0
  128.6300  132.1090   58.6960 C   0  0  0  0  0  0  0  0  0  0  0  0
  127.6400  131.2750   59.2090 C   0  0  0  0  0  0  0  0  0  0  0  0
  126.7720  130.6000   58.3440 C   0  0  0  0  0  0  0  0  0  0  0  0
  125.6790  129.6790   58.9050 C   0  0  1  0  0  0  0  0  0  0  0  0
  126.1360  128.2010   58.9070 C   0  0  0  0  0  0  0  0  0  0  0  0
  126.4530  127.3470   57.9080 C   0  0  0  0  0  0  0  0  0  0  0  0
  126.3930  127.6260   56.6510 O   0  0  0  0  0  0  0  0  0  0  0  0
  126.9020  126.0680   58.4590 C   0  0  0  0  0  0  0  0  0  0  0  0
  127.3440  124.8830   57.8560 C   0  0  0  0  0  0  0  0  0  0  0  0
  127.7230  123.8040   58.6550 C   0  0  0  0  0  0  0  0  0  0  0  0
  127.6580  123.9050   60.0460 C   0  0  0  0  0  0  0  0  0  0  0  0
  127.2140  125.0880   60.6420 C   0  0  0  0  0  0  0  0  0  0  0  0
  126.8400  126.1690   59.8410 C   0  0  0  0  0  0  0  0  0  0  0  0
  126.3330  127.4920   60.1600 C   0  0  0  0  0  0  0  0  0  0  0  0
  126.0680  128.0190   61.2960 N   0  0  0  0  0  0  0  0  0  0  0  0
  125.4780  129.2430   61.3960 C   0  0  0  0  0  0  0  0  0  0  0  0
  125.1260  129.5650   62.6750 N   0  0  0  0  0  0  0  0  0  0  0  0
  124.5750  130.7030   62.9100 C   0  0  0  0  0  0  0  0  0  0  0  0
  124.3030  130.8890   64.1080 O   0  0  0  0  0  0  0  0  0  0  0  0
  124.3110  131.6270   61.9000 N   0  0  0  0  0  0  0  0  0  0  0  0
  123.6790  132.9460   62.1400 C   0  0  0  0  0  0  0  0  0  0  0  0
  124.6160  131.3800   60.5760 C   0  0  0  0  0  0  0  0  0  0  0  0
  124.3780  132.1600   59.6480 O   0  0  0  0  0  0  0  0  0  0  0  0
  125.2550  130.0820   60.3370 C   0  0  0  0  0  0  0  0  0  0  0  0
  126.8990  130.7690   56.9620 C   0  0  0  0  0  0  0  0  0  0  0  0
  127.8860  131.6040   56.4490 C   0  0  0  0  0  0  0  0  0  0  0  0
  131.1930  130.6980   56.8240 N   0  0  0  0  0  0  0  0  0  0  0  0
  131.4540  130.8040   58.1570 C   0  0  0  0  0  0  0  0  0  0  0  0
  131.9880  131.7480   58.7430 O   0  0  0  0  0  0  0  0  0  0  0  0
  130.9620  129.5390   58.7570 C   0  0  0  0  0  0  0  0  0  0  0  0
  130.9700  129.0900   60.0800 C   0  0  0  0  0  0  0  0  0  0  0  0
  130.4290  127.8310   60.3620 C   0  0  0  0  0  0  0  0  0  0  0  0
  129.8920  127.0460   59.3340 C   0  0  0  0  0  0  0  0  0  0  0  0
  129.8920  127.5130   58.0160 C   0  0  0  0  0  0  0  0  0  0  0  0
  130.4380  128.7710   57.7540 C   0  0  0  0  0  0  0  0  0  0  0  0
  130.5780  129.5240   56.4820 C   0  0  0  0  0  0  0  0  0  0  0  0
  130.2150  129.1690   55.3610 O   0  0  0  0  0  0  0  0  0  0  0  0
  132.9559  132.5259   57.3371 H   0  0  0  0  0  0  0  0  0  0  0  0
  133.7063  131.9042   55.8281 H   0  0  0  0  0  0  0  0  0  0  0  0
  132.8761  133.4971   55.8281 H   0  0  0  0  0  0  0  0  0  0  0  0
  131.7156  131.3199   54.8894 H   0  0  0  0  0  0  0  0  0  0  0  0
  129.3079  132.6434   59.3779 H   0  0  0  0  0  0  0  0  0  0  0  0
  127.5401  131.1466   60.2969 H   0  0  0  0  0  0  0  0  0  0  0  0
  124.8104  129.7916   58.2395 H   0  0  0  0  0  0  0  0  0  0  0  0
  127.3919  124.8040   56.7599 H   0  0  0  0  0  0  0  0  0  0  0  0
  128.0737  122.8718   58.1881 H   0  0  0  0  0  0  0  0  0  0  0  0
  127.9567  123.0522   60.6733 H   0  0  0  0  0  0  0  0  0  0  0  0
  127.1592  125.1676   61.7377 H   0  0  0  0  0  0  0  0  0  0  0  0
  123.5952  133.1209   63.2228 H   0  0  0  0  0  0  0  0  0  0  0  0
  124.2963  133.7361   61.6877 H   0  0  0  0  0  0  0  0  0  0  0  0
  122.6764  132.9599   61.6877 H   0  0  0  0  0  0  0  0  0  0  0  0
  126.2172  130.2407   56.2793 H   0  0  0  0  0  0  0  0  0  0  0  0
  127.9780  131.7434   55.3618 H   0  0  0  0  0  0  0  0  0  0  0  0
  131.3924  129.7128   60.8823 H   0  0  0  0  0  0  0  0  0  0  0  0
  130.4254  127.4559   61.3961 H   0  0  0  0  0  0  0  0  0  0  0  0
  129.4682  126.0574   59.5645 H   0  0  0  0  0  0  0  0  0  0  0  0
  129.4711  126.9026   57.2034 H   0  0  0  0  0  0  0  0  0  0  0  0
  1  2  1  0
  2  3  1  0
  3  4  2  0
  3  5  1  0
  5  6  1  0
  6  7  2  0
  7  8  1  0
  8  9  2  0
  9 10  1  0
 10 11  1  0
 11 12  2  0
 12 13  1  0
 12 14  1  0
 14 15  2  0
 15 16  1  0
 16 17  2  0
 17 18  1  0
 18 19  2  0
 19 20  1  0
 20 21  2  0
 21 22  1  0
 22 23  1  0
 23 24  2  0
 24 25  1  0
 24 26  1  0
 26 27  1  0
 26 28  1  0
 28 29  2  0
 28 30  1  0
  9 31  1  0
 31 32  2  0
  2 33  1  0
 33 34  1  0
 34 35  2  0
 34 36  1  0
 36 37  2  0
 37 38  1  0
 38 39  2  0
 39 40  1  0
 40 41  2  0
 41 42  1  0
 42 43  2  0
 32  6  1  0
 42 33  1  0
 30 10  1  0
 41 36  1  0
 20 11  1  0
 30 22  2  0
 19 14  1  0
  1 44  1  0
  1 45  1  0
  1 46  1  0
  2 47  1  6
  7 48  1  0
  8 49  1  0
 10 50  1  6
 15 51  1  0
 16 52  1  0
 17 53  1  0
 18 54  1  0
 27 55  1  0
 27 56  1  0
 27 57  1  0
 31 58  1  0
 32 59  1  0
 37 60  1  0
 38 61  1  0
 39 62  1  0
 40 63  1  0
M  CHG  2  13  -1  25  -1
M  END
>  <Binding energies>  (1) 
[-8.33]

>  <Ligand effiencies>  (1) 
[-0.19372093023255815]

>  <Interactions>  (1) 
["V-A:ASP:366:CG:3213, V-A:TYR:539:CE1:4875, H-A:TYR:539:N:4870, V-B:ASP:366:CG:8185, V-A:TYR:539:CZ:4877, V-A:PRO:540:CA:4883, V-A:TYR:539:C:4867, V-A:PRO:540:N:4884, V-A:PRO:540:CB:4885, V-B:ASP:366:CB:8184, V-A:TYR:539:CE2:4876, V-A:LEU:363:CD1:3189, H-B:ARG:545:NH2:9900, V-A:PRO:540:CD:4887, H-B:TYR:531:OH:9767, V-A:ILE:538:CA:4860, V-A:ILE:538:CB:4862, V-B:LEU:475:CD2:9231, H-A:TYR:531:OH:4795, V-B:ILE:369:CD1:8211, V-A:TYR:539:CA:4869, V-A:PRO:540:CG:4886, V-A:TYR:539:CG:4872, V-A:TYR:539:CD1:4873, V-B:GLY:454:CA:9021, H-B:TYR:484:OH:9320, H-B:GLY:454:N:9022"]

$$$$
RR25_Rahimova_2017
     RDKit          3D

 63 68  0  0  0  0  0  0  0  0999 V2000
  132.9270  123.3930   61.3580 O   0  0  0  0  0  0  0  0  0  0  0  0
  131.7250  123.4660   61.1010 C   0  0  0  0  0  0  0  0  0  0  0  0
  130.9030  122.6140   61.7960 O   0  0  0  0  0  0  0  0  0  0  0  0
  129.5290  122.7670   61.7840 C   0  0  0  0  0  0  0  0  0  0  0  0
  128.8320  122.2690   62.8840 C   0  0  0  0  0  0  0  0  0  0  0  0
  127.4440  122.3820   62.9340 C   0  0  0  0  0  0  0  0  0  0  0  0
  126.7340  122.9870   61.8860 C   0  0  0  0  0  0  0  0  0  0  0  0
  125.2570  123.1130   61.9450 N   0  0  0  0  0  0  0  0  0  0  0  0
  124.6760  122.7480   62.9640 O   0  0  0  0  0  0  0  0  0  0  0  0
  124.6680  123.5770   60.9730 O   0  0  0  0  0  0  0  0  0  0  0  0
  127.4540  123.4710   60.7810 C   0  0  0  0  0  0  0  0  0  0  0  0
  128.8450  123.3580   60.7120 C   0  0  0  0  0  0  0  0  0  0  0  0
  129.6680  123.8740   59.5450 C   0  0  0  0  0  0  0  0  0  0  0  0
  131.0370  124.4000   60.0630 C   0  0  2  0  0  0  0  0  0  0  0  0
  131.9480  124.8460   58.8820 C   0  0  0  0  0  0  0  0  0  0  0  0
  132.9850  124.1960   58.7210 O   0  0  0  0  0  0  0  0  0  0  0  0
  131.5680  125.8160   57.9960 N   0  0  0  0  0  0  0  0  0  0  0  0
  130.5250  126.8170   58.3030 C   0  0  0  0  0  0  0  0  0  0  0  0
  129.7120  127.1030   57.0230 C   0  0  0  0  0  0  0  0  0  0  0  0
  130.5820  127.5100   55.9170 N   0  0  0  0  0  0  0  0  0  0  0  0
  129.8020  127.9110   54.7380 C   0  0  0  0  0  0  0  0  0  0  0  0
  129.4760  129.4280   54.7180 C   0  0  0  0  0  0  0  0  0  0  0  0
  128.5370  129.9110   55.7720 N   0  0  0  0  0  0  0  0  0  0  0  0
  129.1000  130.7200   56.7370 C   0  0  0  0  0  0  0  0  0  0  0  0
  130.3030  131.0050   56.7630 O   0  0  0  0  0  0  0  0  0  0  0  0
  128.1200  131.2550   57.7630 C   0  0  0  0  0  0  0  0  0  0  0  0
  128.5810  132.1090   58.7740 C   0  0  0  0  0  0  0  0  0  0  0  0
  127.7070  132.6260   59.7280 C   0  0  0  0  0  0  0  0  0  0  0  0
  126.3490  132.3110   59.7020 C   0  0  0  0  0  0  0  0  0  0  0  0
  125.8380  131.4520   58.6990 C   0  0  0  0  0  0  0  0  0  0  0  0
  124.4730  131.0920   58.6130 C   0  0  0  0  0  0  0  0  0  0  0  0
  124.0350  130.2440   57.5970 C   0  0  0  0  0  0  0  0  0  0  0  0
  124.9270  129.7360   56.6550 C   0  0  0  0  0  0  0  0  0  0  0  0
  126.2880  130.0650   56.7010 C   0  0  0  0  0  0  0  0  0  0  0  0
  126.7410  130.9290   57.7310 C   0  0  0  0  0  0  0  0  0  0  0  0
  127.2260  129.4990   55.6520 C   0  0  0  0  0  0  0  0  0  0  0  0
  126.8300  128.7450   54.7570 O   0  0  0  0  0  0  0  0  0  0  0  0
  131.5230  126.4330   55.6020 C   0  0  0  0  0  0  0  0  0  0  0  0
  132.4190  126.0850   56.8140 C   0  0  0  0  0  0  0  0  0  0  0  0
  129.3763  121.7882   63.7102 H   0  0  0  0  0  0  0  0  0  0  0  0
  126.8983  121.9921   63.8059 H   0  0  0  0  0  0  0  0  0  0  0  0
  126.9111  123.9492   59.9524 H   0  0  0  0  0  0  0  0  0  0  0  0
  129.8374  123.0577   58.8274 H   0  0  0  0  0  0  0  0  0  0  0  0
  129.1259  124.6933   59.0501 H   0  0  0  0  0  0  0  0  0  0  0  0
  130.8328  125.3055   60.6533 H   0  0  0  0  0  0  0  0  0  0  0  0
  129.8571  126.4260   59.0847 H   0  0  0  0  0  0  0  0  0  0  0  0
  130.9942  127.7453   58.6608 H   0  0  0  0  0  0  0  0  0  0  0  0
  129.1678  126.1919   56.7336 H   0  0  0  0  0  0  0  0  0  0  0  0
  129.0124  127.9253   57.2338 H   0  0  0  0  0  0  0  0  0  0  0  0
  130.3789  127.6639   53.8346 H   0  0  0  0  0  0  0  0  0  0  0  0
  128.8460  127.3680   54.7739 H   0  0  0  0  0  0  0  0  0  0  0  0
  130.4223  129.9768   54.8337 H   0  0  0  0  0  0  0  0  0  0  0  0
  128.9642  129.6079   53.7611 H   0  0  0  0  0  0  0  0  0  0  0  0
  129.6476  132.3748   58.8149 H   0  0  0  0  0  0  0  0  0  0  0  0
  128.0939  133.2923   60.5130 H   0  0  0  0  0  0  0  0  0  0  0  0
  125.6734  132.7305   60.4620 H   0  0  0  0  0  0  0  0  0  0  0  0
  123.7552  131.4821   59.3496 H   0  0  0  0  0  0  0  0  0  0  0  0
  122.9707  129.9722   57.5382 H   0  0  0  0  0  0  0  0  0  0  0  0
  124.5574  129.0671   55.8639 H   0  0  0  0  0  0  0  0  0  0  0  0
  130.9552  125.5375   55.3094 H   0  0  0  0  0  0  0  0  0  0  0  0
  132.1720  126.7731   54.7816 H   0  0  0  0  0  0  0  0  0  0  0  0
  133.0181  125.1920   56.5827 H   0  0  0  0  0  0  0  0  0  0  0  0
  133.0891  126.9304   57.0294 H   0  0  0  0  0  0  0  0  0  0  0  0
  1  2  2  0
  2  3  1  0
  3  4  1  0
  4  5  2  0
  5  6  1  0
  6  7  2  0
  7  8  1  0
  8  9  2  0
  8 10  1  0
  7 11  1  0
 11 12  2  0
 12 13  1  0
 13 14  1  0
 14 15  1  0
 15 16  2  0
 15 17  1  0
 17 18  1  0
 18 19  1  0
 19 20  1  0
 20 21  1  0
 21 22  1  0
 22 23  1  0
 23 24  1  0
 24 25  2  0
 24 26  1  0
 26 27  2  0
 27 28  1  0
 28 29  2  0
 29 30  1  0
 30 31  2  0
 31 32  1  0
 32 33  2  0
 33 34  1  0
 34 35  2  0
 34 36  1  0
 36 37  2  0
 20 38  1  0
 38 39  1  0
 14  2  1  0
 39 17  1  0
 12  4  1  0
 36 23  1  0
 35 26  1  0
 35 30  1  0
  5 40  1  0
  6 41  1  0
 11 42  1  0
 13 43  1  0
 13 44  1  0
 14 45  1  1
 18 46  1  0
 18 47  1  0
 19 48  1  0
 19 49  1  0
 21 50  1  0
 21 51  1  0
 22 52  1  0
 22 53  1  0
 27 54  1  0
 28 55  1  0
 29 56  1  0
 31 57  1  0
 32 58  1  0
 33 59  1  0
 38 60  1  0
 38 61  1  0
 39 62  1  0
 39 63  1  0
M  CHG  2   8   1  10  -1
M  END
>  <Binding energies>  (1) 
[-10.64]

>  <Ligand effiencies>  (1) 
[-0.27282051282051284]

>  <Interactions>  (1) 
["V-B:PRO:540:CB:9857, V-B:GLU:543:CD:9880, V-B:PRO:540:CA:9855, V-B:TYR:539:CE2:9848, V-B:MET:535:CE:9807, V-B:ALA:541:CB:9864, V-B:PRO:540:C:9853, H-A:TYR:484:OH:4348, V-A:ASP:366:CA:3210, V-A:ASP:366:C:3208, V-A:ASP:366:CB:3212, V-A:TYR:539:CE1:4875, V-B:TYR:531:CE1:9764, V-A:TYR:539:CZ:4877, V-A:TYR:539:C:4867, V-B:ASP:366:CB:8184, V-A:MET:535:CE:4835, H-B:LYS:534:NZ:9795, V-A:TYR:531:CE1:4792, H-B:ARG:545:NH2:9900, H-B:ALA:541:N:9863, H-B:TYR:539:OH:9850, H-B:TYR:531:OH:9767, V-A:TYR:484:CZ:4347, H-A:TYR:531:OH:4795, V-A:TYR:539:CD1:4873, V-B:ASP:366:C:8180, V-B:ASP:366:CA:8182, H-B:ASN:362:ND2:8151, V-B:ALA:541:CA:9862, V-B:GLU:543:CG:9879, V-A:TYR:484:CE1:4345"]

$$$$
RR26_Rahimova_2017
     RDKit          3D

 59 65  0  0  0  0  0  0  0  0999 V2000
  132.7850  120.5710   59.7890 C   0  0  0  0  0  0  0  0  0  0  0  0
  131.6460  119.7480   60.3760 C   0  0  0  0  0  0  0  0  0  0  0  0
  131.7440  118.3530   60.3300 C   0  0  0  0  0  0  0  0  0  0  0  0
  130.7510  117.5510   60.8880 C   0  0  0  0  0  0  0  0  0  0  0  0
  129.6500  118.1380   61.5040 C   0  0  0  0  0  0  0  0  0  0  0  0
  129.5410  119.5260   61.5560 C   0  0  0  0  0  0  0  0  0  0  0  0
  130.5270  120.3500   60.9930 C   0  0  0  0  0  0  0  0  0  0  0  0
  130.3250  121.8360   61.0790 C   0  0  0  0  0  0  0  0  0  0  0  0
  130.1720  122.5970   59.9990 N   0  0  0  0  0  0  0  0  0  0  0  0
  130.0180  123.7830   60.5240 C   0  0  0  0  0  0  0  0  0  0  0  0
  129.7680  125.3790   59.9210 S   0  0  0  0  0  0  0  0  0  0  0  0
  129.7270  125.9890   61.6170 C   0  0  0  0  0  0  0  0  0  0  0  0
  129.5600  127.2640   62.0350 C   0  0  0  0  0  0  0  0  0  0  0  0
  129.3660  128.4540   61.2240 C   0  0  0  0  0  0  0  0  0  0  0  0
  130.1340  128.9010   60.1600 C   0  0  0  0  0  0  0  0  0  0  0  0
  129.5530  130.0430   59.6690 N   0  0  0  0  0  0  0  0  0  0  0  0
  129.9810  130.8480   58.5820 C   0  0  0  0  0  0  0  0  0  0  0  0
  129.0610  131.6140   57.8510 C   0  0  0  0  0  0  0  0  0  0  0  0
  129.4930  132.3970   56.7830 C   0  0  0  0  0  0  0  0  0  0  0  0
  130.8440  132.4190   56.4460 C   0  0  0  0  0  0  0  0  0  0  0  0
  131.7680  131.6650   57.1660 C   0  0  0  0  0  0  0  0  0  0  0  0
  131.3390  130.8800   58.2310 C   0  0  0  0  0  0  0  0  0  0  0  0
  128.4350  130.3270   60.3540 N   0  0  0  0  0  0  0  0  0  0  0  0
  128.3150  129.3970   61.2810 C   0  0  0  0  0  0  0  0  0  0  0  0
  127.1570  129.4370   62.2310 C   0  0  0  0  0  0  0  0  0  0  0  0
  125.8870  129.8360   61.7870 C   0  0  0  0  0  0  0  0  0  0  0  0
  124.8030  129.8800   62.6660 C   0  0  0  0  0  0  0  0  0  0  0  0
  124.9830  129.5250   64.0010 C   0  0  0  0  0  0  0  0  0  0  0  0
  126.2430  129.1070   64.4530 C   0  0  0  0  0  0  0  0  0  0  0  0
  127.3250  129.0700   63.5750 C   0  0  0  0  0  0  0  0  0  0  0  0
  126.4780  128.7880   65.7760 O   0  0  0  0  0  0  0  0  0  0  0  0
  125.2950  128.4910   66.5250 C   0  0  0  0  0  0  0  0  0  0  0  0
  124.1850  129.5280   66.2210 C   0  0  0  0  0  0  0  0  0  0  0  0
  123.8750  129.5360   64.8240 O   0  0  0  0  0  0  0  0  0  0  0  0
  129.9170  124.9220   62.5950 C   0  0  0  0  0  0  0  0  0  0  0  0
  129.9490  124.9910   63.8250 O   0  0  0  0  0  0  0  0  0  0  0  0
  130.0680  123.7320   61.8670 N   0  0  0  0  0  0  0  0  0  0  0  0
  130.2630  122.4650   62.2430 N   0  0  0  0  0  0  0  0  0  0  0  0
  133.3832  121.0033   60.6046 H   0  0  0  0  0  0  0  0  0  0  0  0
  133.4232  119.9241   59.1692 H   0  0  0  0  0  0  0  0  0  0  0  0
  132.3712  121.3801   59.1692 H   0  0  0  0  0  0  0  0  0  0  0  0
  132.6147  117.8844   59.8479 H   0  0  0  0  0  0  0  0  0  0  0  0
  130.8371  116.4554   60.8417 H   0  0  0  0  0  0  0  0  0  0  0  0
  128.8667  117.5070   61.9493 H   0  0  0  0  0  0  0  0  0  0  0  0
  128.6685  119.9828   62.0460 H   0  0  0  0  0  0  0  0  0  0  0  0
  129.5726  127.4197   63.1239 H   0  0  0  0  0  0  0  0  0  0  0  0
  131.0482  128.4242   59.7768 H   0  0  0  0  0  0  0  0  0  0  0  0
  127.9950  131.5963   58.1220 H   0  0  0  0  0  0  0  0  0  0  0  0
  128.7704  132.9951   56.2085 H   0  0  0  0  0  0  0  0  0  0  0  0
  131.1849  133.0379   55.6029 H   0  0  0  0  0  0  0  0  0  0  0  0
  132.8333  131.6904   56.8932 H   0  0  0  0  0  0  0  0  0  0  0  0
  132.0666  130.2825   58.7998 H   0  0  0  0  0  0  0  0  0  0  0  0
  125.7437  130.1176   60.7334 H   0  0  0  0  0  0  0  0  0  0  0  0
  123.8119  130.1934   62.3061 H   0  0  0  0  0  0  0  0  0  0  0  0
  128.3139  128.7520   63.9369 H   0  0  0  0  0  0  0  0  0  0  0  0
  124.9368  127.4872   66.2528 H   0  0  0  0  0  0  0  0  0  0  0  0
  125.5343  128.5306   67.5979 H   0  0  0  0  0  0  0  0  0  0  0  0
  123.2808  129.2679   66.7909 H   0  0  0  0  0  0  0  0  0  0  0  0
  124.5424  130.5269   66.5116 H   0  0  0  0  0  0  0  0  0  0  0  0
  1  2  1  0
  2  3  2  0
  3  4  1  0
  4  5  2  0
  5  6  1  0
  6  7  2  0
  7  8  1  0
  8  9  1  0
  9 10  2  0
 10 11  1  0
 11 12  1  0
 12 13  2  0
 13 14  1  0
 14 15  2  0
 15 16  1  0
 16 17  1  0
 17 18  2  0
 18 19  1  0
 19 20  2  0
 20 21  1  0
 21 22  2  0
 16 23  1  0
 23 24  2  0
 24 25  1  0
 25 26  2  0
 26 27  1  0
 27 28  2  0
 28 29  1  0
 29 30  2  0
 29 31  1  0
 31 32  1  0
 32 33  1  0
 33 34  1  0
 12 35  1  0
 35 36  2  0
 35 37  1  0
 37 38  1  0
  7  2  1  0
 38  8  2  0
 37 10  1  0
 24 14  1  0
 30 25  1  0
 22 17  1  0
 34 28  1  0
  1 39  1  0
  1 40  1  0
  1 41  1  0
  3 42  1  0
  4 43  1  0
  5 44  1  0
  6 45  1  0
 13 46  1  0
 15 47  1  0
 18 48  1  0
 19 49  1  0
 20 50  1  0
 21 51  1  0
 22 52  1  0
 26 53  1  0
 27 54  1  0
 30 55  1  0
 32 56  1  0
 32 57  1  0
 33 58  1  0
 33 59  1  0
M  END
>  <Binding energies>  (1) 
[-9.33]

>  <Ligand effiencies>  (1) 
[-0.24552631578947368]

>  <Interactions>  (1) 
["V-B:GLU:543:CD:9880, V-B:TYR:539:C:9839, V-B:TYR:539:CE2:9848, V-B:TYR:539:CD2:9846, V-B:ALA:541:CB:9864, V-B:PRO:540:C:9853, V-A:SER:385:CB:3409, V-A:PRO:482:CB:4326, V-A:LEU:475:CD1:4258, H-A:TYR:484:OH:4348, V-A:LEU:475:CD2:4259, V-A:LEU:475:CG:4257, V-A:ILE:369:CG2:3237, V-A:PRO:482:CG:4327, V-A:PRO:540:CA:4883, V-A:TYR:539:C:4867, V-A:PRO:540:N:4884, V-A:PRO:540:CB:4885, H-B:ARG:545:NH2:9900, V-A:GLU:543:CD:4908, V-A:PRO:540:CD:4887, V-B:ARG:545:CZ:9898, V-B:TYR:484:CZ:9319, V-B:HIS:456:CE1:9042, V-B:ARG:545:CD:9895, V-B:ARG:545:CG:9894, H-B:TYR:484:OH:9320, H-B:GLY:454:N:9022, H-B:ARG:545:NE:9896, H-B:ARG:545:NH1:9899, V-B:TYR:484:CE1:9317"]

$$$$
RR27_Rahimova_2017
     RDKit          3D

 66 71  0  0  0  0  0  0  0  0999 V2000
  128.3150  123.4620   60.6330 O   0  0  0  0  0  0  0  0  0  0  0  0
  127.9200  124.1400   59.6790 C   0  0  0  0  0  0  0  0  0  0  0  0
  128.5240  123.8580   58.2730 C   0  0  0  0  0  0  0  0  0  0  0  0
  129.4000  125.0120   57.7500 C   0  0  0  0  0  0  0  0  0  0  0  0
  128.9970  125.8200   56.6750 C   0  0  0  0  0  0  0  0  0  0  0  0
  129.8120  126.8560   56.2290 C   0  0  0  0  0  0  0  0  0  0  0  0
  131.0340  127.0890   56.8540 C   0  0  0  0  0  0  0  0  0  0  0  0
  131.4490  126.2950   57.9190 C   0  0  0  0  0  0  0  0  0  0  0  0
  130.6340  125.2590   58.3650 C   0  0  0  0  0  0  0  0  0  0  0  0
  127.4580  123.3530   57.2830 C   0  0  0  0  0  0  0  0  0  0  0  0
  127.7430  123.1660   55.9230 C   0  0  0  0  0  0  0  0  0  0  0  0
  126.7520  122.7190   55.0530 C   0  0  0  0  0  0  0  0  0  0  0  0
  125.4720  122.4620   55.5370 C   0  0  0  0  0  0  0  0  0  0  0  0
  125.1720  122.6530   56.8840 C   0  0  0  0  0  0  0  0  0  0  0  0
  126.1620  123.1010   57.7520 C   0  0  0  0  0  0  0  0  0  0  0  0
  126.8760  125.0080   59.8030 N   0  0  0  0  0  0  0  0  0  0  0  0
  126.5320  126.0130   58.7860 C   0  0  0  0  0  0  0  0  0  0  0  0
  127.3710  127.2720   59.1000 C   0  0  0  0  0  0  0  0  0  0  0  0
  127.1690  127.7820   60.5620 C   0  0  0  0  0  0  0  0  0  0  0  0
  128.0660  128.9680   60.9620 C   0  0  0  0  0  0  0  0  0  0  0  0
  127.6650  129.6950   62.0450 N   0  0  0  0  0  0  0  0  0  0  0  0
  128.4380  130.7390   62.4570 C   0  0  0  0  0  0  0  0  0  0  0  0
  128.1430  131.5370   63.5300 O   0  0  0  0  0  0  0  0  0  0  0  0
  129.6190  131.0260   61.7460 C   0  0  0  0  0  0  0  0  0  0  0  0
  130.5970  131.9670   61.8870 N   0  0  0  0  0  0  0  0  0  0  0  0
  131.5150  131.7600   60.8760 N   0  0  0  0  0  0  0  0  0  0  0  0
  131.1140  130.7070   60.1320 N   0  0  0  0  0  0  0  0  0  0  0  0
  131.8930  130.2790   58.9720 C   0  0  0  0  0  0  0  0  0  0  0  0
  131.6060  131.0850   57.7120 C   0  0  0  0  0  0  0  0  0  0  0  0
  132.6570  131.6490   56.9830 C   0  0  0  0  0  0  0  0  0  0  0  0
  132.3950  132.3790   55.8220 C   0  0  0  0  0  0  0  0  0  0  0  0
  131.0820  132.5430   55.3820 C   0  0  0  0  0  0  0  0  0  0  0  0
  130.0290  131.9740   56.1000 C   0  0  0  0  0  0  0  0  0  0  0  0
  128.4040  132.1540   55.5420 Cl  0  0  0  0  0  0  0  0  0  0  0  0
  130.2900  131.2520   57.2640 C   0  0  0  0  0  0  0  0  0  0  0  0
  129.9230  130.2110   60.6350 C   0  0  0  0  0  0  0  0  0  0  0  0
  129.1800  129.1880   60.2060 N   0  0  0  0  0  0  0  0  0  0  0  0
  127.1930  126.6140   61.5950 C   0  0  0  0  0  0  0  0  0  0  0  0
  126.3760  125.3780   61.1370 C   0  0  0  0  0  0  0  0  0  0  0  0
  129.2326  123.0237   58.3821 H   0  0  0  0  0  0  0  0  0  0  0  0
  128.0314  125.6331   56.1824 H   0  0  0  0  0  0  0  0  0  0  0  0
  129.4924  127.4876   55.3870 H   0  0  0  0  0  0  0  0  0  0  0  0
  131.6779  127.9087   56.5026 H   0  0  0  0  0  0  0  0  0  0  0  0
  132.4168  126.4855   58.4060 H   0  0  0  0  0  0  0  0  0  0  0  0
  130.9610  124.6299   59.2060 H   0  0  0  0  0  0  0  0  0  0  0  0
  128.7538  123.3733   55.5417 H   0  0  0  0  0  0  0  0  0  0  0  0
  126.9795  122.5695   53.9872 H   0  0  0  0  0  0  0  0  0  0  0  0
  124.6908  122.1050   54.8498 H   0  0  0  0  0  0  0  0  0  0  0  0
  124.1579  122.4506   57.2589 H   0  0  0  0  0  0  0  0  0  0  0  0
  125.9258  123.2587   58.8147 H   0  0  0  0  0  0  0  0  0  0  0  0
  126.7771  125.6353   57.7824 H   0  0  0  0  0  0  0  0  0  0  0  0
  125.4561  126.2411   58.8049 H   0  0  0  0  0  0  0  0  0  0  0  0
  128.4345  127.0312   58.9551 H   0  0  0  0  0  0  0  0  0  0  0  0
  127.0383  128.0707   58.4207 H   0  0  0  0  0  0  0  0  0  0  0  0
  126.1550  128.2078   60.5816 H   0  0  0  0  0  0  0  0  0  0  0  0
  127.4210  131.1940   64.0610 H   0  0  0  0  0  0  0  0  0  0  0  0
  132.9612  130.3810   59.2140 H   0  0  0  0  0  0  0  0  0  0  0  0
  131.6089  129.2377   58.7598 H   0  0  0  0  0  0  0  0  0  0  0  0
  133.6941  131.5172   57.3252 H   0  0  0  0  0  0  0  0  0  0  0  0
  133.2248  132.8250   55.2541 H   0  0  0  0  0  0  0  0  0  0  0  0
  130.8761  133.1209   54.4689 H   0  0  0  0  0  0  0  0  0  0  0  0
  129.4580  130.8115   57.8330 H   0  0  0  0  0  0  0  0  0  0  0  0
  128.2374  126.3052   61.7497 H   0  0  0  0  0  0  0  0  0  0  0  0
  126.7314  126.9867   62.5213 H   0  0  0  0  0  0  0  0  0  0  0  0
  126.5225  124.5453   61.8407 H   0  0  0  0  0  0  0  0  0  0  0  0
  125.3002  125.6054   61.1061 H   0  0  0  0  0  0  0  0  0  0  0  0
  1  2  2  0
  2  3  1  0
  3  4  1  0
  4  5  2  0
  5  6  1  0
  6  7  2  0
  7  8  1  0
  8  9  2  0
  3 10  1  0
 10 11  2  0
 11 12  1  0
 12 13  2  0
 13 14  1  0
 14 15  2  0
  2 16  1  0
 16 17  1  0
 17 18  1  0
 18 19  1  0
 19 20  1  0
 20 21  2  0
 21 22  1  0
 22 23  1  0
 22 24  2  0
 24 25  1  0
 25 26  2  0
 26 27  1  0
 27 28  1  0
 28 29  1  0
 29 30  2  0
 30 31  1  0
 31 32  2  0
 32 33  1  0
 33 34  1  0
 33 35  2  0
 27 36  1  0
 36 37  2  0
 19 38  1  0
 38 39  1  0
  9  4  1  0
 15 10  1  0
 39 16  1  0
 37 20  1  0
 36 24  1  0
 35 29  1  0
  3 40  1  0
  5 41  1  0
  6 42  1  0
  7 43  1  0
  8 44  1  0
  9 45  1  0
 11 46  1  0
 12 47  1  0
 13 48  1  0
 14 49  1  0
 15 50  1  0
 17 51  1  0
 17 52  1  0
 18 53  1  0
 18 54  1  0
 19 55  1  0
 23 56  1  0
 28 57  1  0
 28 58  1  0
 30 59  1  0
 31 60  1  0
 32 61  1  0
 35 62  1  0
 38 63  1  0
 38 64  1  0
 39 65  1  0
 39 66  1  0
M  END
>  <Binding energies>  (1) 
[-10.63]

>  <Ligand effiencies>  (1) 
[-0.26575000000000004]

>  <Interactions>  (1) 
["V-B:TYR:539:CD1:9845, V-B:ILE:538:CD1:9837, V-B:PRO:540:CB:9857, V-B:PRO:540:CD:9859, V-B:LEU:363:CD1:8161, V-B:GLU:543:CD:9880, V-B:PRO:540:CA:9855, V-B:ILE:538:CG2:9835, V-B:TYR:539:CE2:9848, V-B:ILE:538:CA:9832, V-B:MET:535:CE:9807, V-B:TYR:539:CZ:9849, V-B:TYR:539:CE1:9847, V-B:PRO:540:N:9856, V-B:TYR:531:CE2:9765, V-A:ASP:366:CG:3213, V-A:ASP:366:CB:3212, V-A:TYR:539:CE1:4875, V-A:TYR:539:CZ:4877, V-A:PRO:540:CA:4883, V-A:PRO:540:N:4884, V-A:PRO:540:CB:4885, V-A:TYR:539:CE2:4876, V-A:LEU:363:CD1:3189, V-B:ILE:538:C:9830, V-B:ILE:538:CB:9834, V-A:GLU:543:CD:4908, H-A:ALA:541:N:4891, V-A:PRO:540:CD:4887, V-A:GLU:543:CG:4907, V-A:ILE:538:CA:4860, V-A:ILE:538:CB:4862, V-A:ILE:538:CG2:4863, V-B:PRO:540:CG:9858, V-A:TYR:539:CD2:4874, V-A:TYR:539:CG:4872, V-A:TYR:539:CD1:4873, H-B:TYR:484:OH:9320"]

$$$$
RR27_Rahimova_2017-again1
     RDKit          3D

 66 71  0  0  0  0  0  0  0  0999 V2000
  128.5800  126.0840   56.2510 O   0  0  0  0  0  0  0  0  0  0  0  0
  128.9800  125.6520   57.3360 C   0  0  0  0  0  0  0  0  0  0  0  0
  127.9520  124.9490   58.2730 C   0  0  0  0  0  0  0  0  0  0  0  0
  126.9400  124.0850   57.4960 C   0  0  0  0  0  0  0  0  0  0  0  0
  125.6200  123.9060   57.9360 C   0  0  0  0  0  0  0  0  0  0  0  0
  124.7350  123.1180   57.2050 C   0  0  0  0  0  0  0  0  0  0  0  0
  125.1640  122.5040   56.0320 C   0  0  0  0  0  0  0  0  0  0  0  0
  126.4700  122.6720   55.5820 C   0  0  0  0  0  0  0  0  0  0  0  0
  127.3550  123.4610   56.3120 C   0  0  0  0  0  0  0  0  0  0  0  0
  127.2950  125.9380   59.2550 C   0  0  0  0  0  0  0  0  0  0  0  0
  126.7230  127.1400   58.8110 C   0  0  0  0  0  0  0  0  0  0  0  0
  126.1530  128.0270   59.7210 C   0  0  0  0  0  0  0  0  0  0  0  0
  126.1490  127.7170   61.0780 C   0  0  0  0  0  0  0  0  0  0  0  0
  126.7140  126.5290   61.5330 C   0  0  0  0  0  0  0  0  0  0  0  0
  127.2910  125.6450   60.6250 C   0  0  0  0  0  0  0  0  0  0  0  0
  130.3090  125.6370   57.6450 N   0  0  0  0  0  0  0  0  0  0  0  0
  130.8300  125.4050   59.0000 C   0  0  0  0  0  0  0  0  0  0  0  0
  130.8330  126.7620   59.7420 C   0  0  0  0  0  0  0  0  0  0  0  0
  131.3680  127.9820   58.9220 C   0  0  0  0  0  0  0  0  0  0  0  0
  130.8130  129.3280   59.3980 C   0  0  0  0  0  0  0  0  0  0  0  0
  129.7060  129.7940   58.9100 N   0  0  0  0  0  0  0  0  0  0  0  0
  129.3110  131.0010   59.4010 C   0  0  0  0  0  0  0  0  0  0  0  0
  129.9760  131.7580   60.3550 C   0  0  0  0  0  0  0  0  0  0  0  0
  129.3190  132.8800   60.5920 N   0  0  0  0  0  0  0  0  0  0  0  0
  128.1860  132.8790   59.7840 N   0  0  0  0  0  0  0  0  0  0  0  0
  128.1930  131.7290   59.0870 N   0  0  0  0  0  0  0  0  0  0  0  0
  127.1410  131.4310   58.1250 C   0  0  0  0  0  0  0  0  0  0  0  0
  127.6660  130.8780   56.8080 C   0  0  0  0  0  0  0  0  0  0  0  0
  127.3690  129.5630   56.4320 C   0  0  0  0  0  0  0  0  0  0  0  0
  127.8580  129.0500   55.2290 C   0  0  0  0  0  0  0  0  0  0  0  0
  128.6420  129.8490   54.3970 C   0  0  0  0  0  0  0  0  0  0  0  0
  128.9360  131.1620   54.7640 C   0  0  0  0  0  0  0  0  0  0  0  0
  129.9100  132.1470   53.7360 Cl  0  0  0  0  0  0  0  0  0  0  0  0
  128.4480  131.6760   55.9660 C   0  0  0  0  0  0  0  0  0  0  0  0
  131.2230  131.2500   60.9270 C   0  0  0  0  0  0  0  0  0  0  0  0
  131.9440  131.7700   61.7760 O   0  0  0  0  0  0  0  0  0  0  0  0
  131.5270  130.0280   60.3650 N   0  0  0  0  0  0  0  0  0  0  0  0
  131.3170  127.8380   57.3680 C   0  0  0  0  0  0  0  0  0  0  0  0
  131.2630  126.3910   56.8180 C   0  0  0  0  0  0  0  0  0  0  0  0
  128.5162  124.2400   58.8966 H   0  0  0  0  0  0  0  0  0  0  0  0
  125.2823  124.3909   58.8638 H   0  0  0  0  0  0  0  0  0  0  0  0
  123.7006  122.9812   57.5533 H   0  0  0  0  0  0  0  0  0  0  0  0
  124.4646  121.8805   55.4556 H   0  0  0  0  0  0  0  0  0  0  0  0
  126.8017  122.1837   54.6538 H   0  0  0  0  0  0  0  0  0  0  0  0
  128.3873  123.5954   55.9567 H   0  0  0  0  0  0  0  0  0  0  0  0
  126.7248  127.3831   57.7382 H   0  0  0  0  0  0  0  0  0  0  0  0
  125.7076  128.9691   59.3686 H   0  0  0  0  0  0  0  0  0  0  0  0
  125.6959  128.4161   61.7963 H   0  0  0  0  0  0  0  0  0  0  0  0
  126.7047  126.2893   62.6065 H   0  0  0  0  0  0  0  0  0  0  0  0
  127.7465  124.7109   60.9856 H   0  0  0  0  0  0  0  0  0  0  0  0
  130.1859  124.6890   59.5314 H   0  0  0  0  0  0  0  0  0  0  0  0
  131.8471  124.9883   58.9553 H   0  0  0  0  0  0  0  0  0  0  0  0
  129.7988  126.9847   60.0434 H   0  0  0  0  0  0  0  0  0  0  0  0
  131.5273  126.6406   60.5865 H   0  0  0  0  0  0  0  0  0  0  0  0
  132.4428  127.9724   59.1557 H   0  0  0  0  0  0  0  0  0  0  0  0
  126.4623  130.6881   58.5694 H   0  0  0  0  0  0  0  0  0  0  0  0
  126.6296  132.3783   57.8989 H   0  0  0  0  0  0  0  0  0  0  0  0
  126.7489  128.9321   57.0858 H   0  0  0  0  0  0  0  0  0  0  0  0
  127.6248  128.0153   54.9373 H   0  0  0  0  0  0  0  0  0  0  0  0
  129.0288  129.4432   53.4506 H   0  0  0  0  0  0  0  0  0  0  0  0
  128.6790  132.7126   56.2526 H   0  0  0  0  0  0  0  0  0  0  0  0
  132.3790  129.6070   60.7060 H   0  0  0  0  0  0  0  0  0  0  0  0
  130.4209  128.3667   57.0109 H   0  0  0  0  0  0  0  0  0  0  0  0
  132.2655  128.2576   57.0016 H   0  0  0  0  0  0  0  0  0  0  0  0
  130.9265  126.4000   55.7708 H   0  0  0  0  0  0  0  0  0  0  0  0
  132.2591  125.9258   56.8554 H   0  0  0  0  0  0  0  0  0  0  0  0
  1  2  2  0
  2  3  1  0
  3  4  1  0
  4  5  2  0
  5  6  1  0
  6  7  2  0
  7  8  1  0
  8  9  2  0
  3 10  1  0
 10 11  2  0
 11 12  1  0
 12 13  2  0
 13 14  1  0
 14 15  2  0
  2 16  1  0
 16 17  1  0
 17 18  1  0
 18 19  1  0
 19 20  1  0
 20 21  2  0
 21 22  1  0
 22 23  2  0
 23 24  1  0
 24 25  2  0
 25 26  1  0
 26 27  1  0
 27 28  1  0
 28 29  2  0
 29 30  1  0
 30 31  2  0
 31 32  1  0
 32 33  1  0
 32 34  2  0
 23 35  1  0
 35 36  2  0
 35 37  1  0
 19 38  1  0
 38 39  1  0
  9  4  1  0
 15 10  1  0
 39 16  1  0
 37 20  1  0
 26 22  1  0
 34 28  1  0
  3 40  1  0
  5 41  1  0
  6 42  1  0
  7 43  1  0
  8 44  1  0
  9 45  1  0
 11 46  1  0
 12 47  1  0
 13 48  1  0
 14 49  1  0
 15 50  1  0
 17 51  1  0
 17 52  1  0
 18 53  1  0
 18 54  1  0
 19 55  1  0
 27 56  1  0
 27 57  1  0
 29 58  1  0
 30 59  1  0
 31 60  1  0
 34 61  1  0
 37 62  1  0
 38 63  1  0
 38 64  1  0
 39 65  1  0
 39 66  1  0
M  END
>  <Binding energies>  (1) 
[-10.23]

>  <Ligand effiencies>  (1) 
[-0.25575000000000003]

>  <Interactions>  (1) 
["V-B:ILE:538:CD1:9837, V-B:PRO:540:CB:9857, V-B:PRO:540:CD:9859, V-B:LEU:363:CD1:8161, V-B:GLU:543:CD:9880, V-B:ILE:538:CG2:9835, V-B:ILE:538:CA:9832, V-B:MET:535:CE:9807, V-B:TYR:531:CE2:9765, V-A:ASP:366:CG:3213, V-A:ASP:366:CB:3212, V-A:TYR:539:CE1:4875, V-B:ASP:366:CG:8185, V-A:TYR:539:CZ:4877, V-A:PRO:540:CA:4883, V-B:ASP:366:CB:8184, V-A:MET:535:CE:4835, H-A:GLU:543:OE1:4909, H-A:ALA:541:N:4891, H-A:ASP:366:OD1:3214, V-A:ILE:538:CA:4860, V-A:ILE:538:CB:4862, V-A:ILE:538:CG2:4863, V-A:TYR:539:CD1:4873"]

$$$$
RR28_Rahimova_2017
     RDKit          3D

 82 85  0  0  0  0  0  0  0  0999 V2000
  132.5830  131.5340   61.9350 C   0  0  0  0  0  0  0  0  0  0  0  0
  132.1210  130.9930   60.5870 C   0  0  0  0  0  0  0  0  0  0  0  0
  132.7110  131.3300   59.5630 O   0  0  0  0  0  0  0  0  0  0  0  0
  131.0630  130.1560   60.6100 N   0  0  0  0  0  0  0  0  0  0  0  0
  130.3980  129.4910   59.4670 C   0  0  0  0  0  0  0  0  0  0  0  0
  131.0290  128.0800   59.2910 C   0  0  0  0  0  0  0  0  0  0  0  0
  131.1920  127.2530   60.4130 C   0  0  0  0  0  0  0  0  0  0  0  0
  131.7570  125.9880   60.2940 C   0  0  0  0  0  0  0  0  0  0  0  0
  132.1740  125.5180   59.0470 C   0  0  0  0  0  0  0  0  0  0  0  0
  132.7970  124.1270   58.9360 C   0  0  0  0  0  0  0  0  0  0  0  0
  131.9550  123.1630   59.3160 F   0  0  0  0  0  0  0  0  0  0  0  0
  133.1620  123.8830   57.6770 F   0  0  0  0  0  0  0  0  0  0  0  0
  133.8770  124.0670   59.7150 F   0  0  0  0  0  0  0  0  0  0  0  0
  132.0200  126.3320   57.9220 C   0  0  0  0  0  0  0  0  0  0  0  0
  131.4540  127.5990   58.0430 C   0  0  0  0  0  0  0  0  0  0  0  0
  130.4850  130.3880   58.1810 C   0  0  0  0  0  0  0  0  0  0  0  0
  129.6910  131.7130   58.3020 C   0  0  0  0  0  0  0  0  0  0  0  0
  128.2930  131.3380   58.5690 N   0  0  0  0  0  0  0  0  0  0  0  0
  127.4070  131.2120   57.5440 C   0  0  0  0  0  0  0  0  0  0  0  0
  127.6830  131.5630   56.3940 O   0  0  0  0  0  0  0  0  0  0  0  0
  125.9570  130.7700   57.8580 C   0  0  0  0  0  0  0  0  0  0  0  0
  125.5030  129.4290   57.2180 C   0  0  0  0  0  0  0  0  0  0  0  0
  126.6480  128.5260   56.7030 C   0  0  0  0  0  0  0  0  0  0  0  0
  127.0440  128.6970   55.5460 O   0  0  0  0  0  0  0  0  0  0  0  0
  127.2760  127.6750   57.5620 N   0  0  0  0  0  0  0  0  0  0  0  0
  126.6750  127.2040   58.8150 C   0  0  0  0  0  0  0  0  0  0  0  0
  125.8100  125.9760   58.4550 C   0  0  0  0  0  0  0  0  0  0  0  0
  126.5820  124.8200   57.7280 C   0  0  0  0  0  0  0  0  0  0  0  0
  125.6060  123.9110   57.0910 N   0  0  0  0  0  0  0  0  0  0  0  0
  125.8230  122.6810   56.5840 C   0  0  0  0  0  0  0  0  0  0  0  0
  124.6170  121.9820   55.9660 C   0  0  0  0  0  0  0  0  0  0  0  0
  126.9150  122.1140   56.5940 O   0  0  0  0  0  0  0  0  0  0  0  0
  127.3410  124.0030   58.8240 C   0  0  0  0  0  0  0  0  0  0  0  0
  128.6340  123.4890   58.6310 C   0  0  0  0  0  0  0  0  0  0  0  0
  129.2760  122.7670   59.6340 C   0  0  0  0  0  0  0  0  0  0  0  0
  128.6390  122.5370   60.8560 C   0  0  0  0  0  0  0  0  0  0  0  0
  129.3310  121.7500   61.9680 C   0  0  0  0  0  0  0  0  0  0  0  0
  129.1800  120.4380   61.7790 F   0  0  0  0  0  0  0  0  0  0  0  0
  130.6330  122.0350   61.9590 F   0  0  0  0  0  0  0  0  0  0  0  0
  128.8460  122.0500   63.1740 F   0  0  0  0  0  0  0  0  0  0  0  0
  127.3510  123.0340   61.0590 C   0  0  0  0  0  0  0  0  0  0  0  0
  126.7130  123.7560   60.0550 C   0  0  0  0  0  0  0  0  0  0  0  0
  127.5420  125.4460   56.6440 C   0  0  0  0  0  0  0  0  0  0  0  0
  128.2910  126.7390   57.0620 C   0  0  0  0  0  0  0  0  0  0  0  0
  128.1070  130.6690   59.8650 C   0  0  0  0  0  0  0  0  0  0  0  0
  128.8780  129.3250   59.7970 C   0  0  0  0  0  0  0  0  0  0  0  0
  132.0985  130.9667   62.7433 H   0  0  0  0  0  0  0  0  0  0  0  0
  133.6749  131.4296   62.0172 H   0  0  0  0  0  0  0  0  0  0  0  0
  132.3090  132.5961   62.0172 H   0  0  0  0  0  0  0  0  0  0  0  0
  130.6470  129.9680   61.5090 H   0  0  0  0  0  0  0  0  0  0  0  0
  130.8680  127.6108   61.4014 H   0  0  0  0  0  0  0  0  0  0  0  0
  131.8759  125.3550   61.1858 H   0  0  0  0  0  0  0  0  0  0  0  0
  132.3473  125.9706   56.9360 H   0  0  0  0  0  0  0  0  0  0  0  0
  131.3388  128.2302   57.1495 H   0  0  0  0  0  0  0  0  0  0  0  0
  131.5418  130.6302   57.9953 H   0  0  0  0  0  0  0  0  0  0  0  0
  130.0389  129.8157   57.3543 H   0  0  0  0  0  0  0  0  0  0  0  0
  130.0869  132.3193   59.1301 H   0  0  0  0  0  0  0  0  0  0  0  0
  129.7741  132.3125   57.3835 H   0  0  0  0  0  0  0  0  0  0  0  0
  125.8636  130.6712   58.9496 H   0  0  0  0  0  0  0  0  0  0  0  0
  125.3086  131.5434   57.4205 H   0  0  0  0  0  0  0  0  0  0  0  0
  124.9381  128.8646   57.9745 H   0  0  0  0  0  0  0  0  0  0  0  0
  124.9051  129.6984   56.3349 H   0  0  0  0  0  0  0  0  0  0  0  0
  127.4613  126.9182   59.5292 H   0  0  0  0  0  0  0  0  0  0  0  0
  126.0688  127.9923   59.2852 H   0  0  0  0  0  0  0  0  0  0  0  0
  125.3850  125.5717   59.3856 H   0  0  0  0  0  0  0  0  0  0  0  0
  125.0456  126.3312   57.7482 H   0  0  0  0  0  0  0  0  0  0  0  0
  124.6750  124.2880   56.9980 H   0  0  0  0  0  0  0  0  0  0  0  0
  123.9633  121.6031   56.7655 H   0  0  0  0  0  0  0  0  0  0  0  0
  124.0584  122.6964   55.3433 H   0  0  0  0  0  0  0  0  0  0  0  0
  124.9592  121.1422   55.3433 H   0  0  0  0  0  0  0  0  0  0  0  0
  129.1472  123.6594   57.6731 H   0  0  0  0  0  0  0  0  0  0  0  0
  130.2898  122.3758   59.4632 H   0  0  0  0  0  0  0  0  0  0  0  0
  126.8384  122.8545   62.0156 H   0  0  0  0  0  0  0  0  0  0  0  0
  125.6972  124.1405   60.2292 H   0  0  0  0  0  0  0  0  0  0  0  0
  128.2969  124.6887   56.3858 H   0  0  0  0  0  0  0  0  0  0  0  0
  126.8917  125.7384   55.8064 H   0  0  0  0  0  0  0  0  0  0  0  0
  129.0214  126.5144   57.8532 H   0  0  0  0  0  0  0  0  0  0  0  0
  128.8397  127.1695   56.2114 H   0  0  0  0  0  0  0  0  0  0  0  0
  128.5102  131.2952   60.6745 H   0  0  0  0  0  0  0  0  0  0  0  0
  127.0396  130.4990   60.0691 H   0  0  0  0  0  0  0  0  0  0  0  0
  128.7865  128.8219   60.7709 H   0  0  0  0  0  0  0  0  0  0  0  0
  128.4327  128.7386   58.9798 H   0  0  0  0  0  0  0  0  0  0  0  0
  1  2  1  0
  2  3  2  0
  2  4  1  0
  4  5  1  0
  5  6  1  0
  6  7  2  0
  7  8  1  0
  8  9  2  0
  9 10  1  0
 10 11  1  0
 10 12  1  0
 10 13  1  0
  9 14  1  0
 14 15  2  0
  5 16  1  0
 16 17  1  0
 17 18  1  0
 18 19  1  0
 19 20  2  0
 19 21  1  0
 21 22  1  0
 22 23  1  0
 23 24  2  0
 23 25  1  0
 25 26  1  0
 26 27  1  0
 27 28  1  0
 28 29  1  0
 29 30  1  0
 30 31  1  0
 30 32  2  0
 28 33  1  0
 33 34  2  0
 34 35  1  0
 35 36  2  0
 36 37  1  0
 37 38  1  0
 37 39  1  0
 37 40  1  0
 36 41  1  0
 41 42  2  0
 28 43  1  0
 43 44  1  0
 18 45  1  0
 45 46  1  0
 46  5  1  0
 15  6  1  0
 44 25  1  0
 42 33  1  0
  1 47  1  0
  1 48  1  0
  1 49  1  0
  4 50  1  0
  7 51  1  0
  8 52  1  0
 14 53  1  0
 15 54  1  0
 16 55  1  0
 16 56  1  0
 17 57  1  0
 17 58  1  0
 21 59  1  0
 21 60  1  0
 22 61  1  0
 22 62  1  0
 26 63  1  0
 26 64  1  0
 27 65  1  0
 27 66  1  0
 29 67  1  0
 31 68  1  0
 31 69  1  0
 31 70  1  0
 34 71  1  0
 35 72  1  0
 41 73  1  0
 42 74  1  0
 43 75  1  0
 43 76  1  0
 44 77  1  0
 44 78  1  0
 45 79  1  0
 45 80  1  0
 46 81  1  0
 46 82  1  0
M  END
>  <Binding energies>  (1) 
[-10.17]

>  <Ligand effiencies>  (1) 
[-0.211875]

>  <Interactions>  (1) 
["V-B:ILE:538:CD1:9837, V-B:PRO:540:CD:9859, V-B:LEU:363:CD1:8161, V-B:GLU:543:CD:9880, V-B:PRO:540:CA:9855, H-B:TYR:539:N:9842, V-B:ILE:538:CG2:9835, V-B:TYR:539:CE2:9848, V-B:TYR:539:CD2:9846, V-B:ILE:538:CA:9832, V-B:MET:535:CE:9807, V-B:ALA:541:CB:9864, V-B:TYR:539:CZ:9849, V-B:PRO:540:C:9853, V-B:PRO:540:N:9856, V-A:ASP:366:CA:3210, V-A:ASP:366:CG:3213, V-A:LEU:475:CD2:4259, V-B:TYR:531:CZ:9766, V-A:ILE:369:CD1:3239, V-A:ASP:366:CB:3212, V-A:ILE:369:CB:3236, V-A:ILE:369:CG2:3237, V-A:TYR:539:CE1:4875, V-B:TYR:531:CE1:9764, V-B:ASP:366:CG:8185, V-A:TYR:539:CZ:4877, V-A:PRO:540:CA:4883, V-A:PRO:540:CB:4885, V-B:ASP:366:CB:8184, V-B:ILE:538:CB:9834, V-A:GLU:543:CD:4908, H-A:GLU:543:OE1:4909, V-A:GLU:543:CG:4907, H-B:TYR:531:OH:9767, V-A:TYR:484:CZ:4347, V-B:PRO:540:CG:9858, V-B:ILE:538:CG1:9836, V-A:ASN:362:CB:3176, V-B:ALA:541:CA:9862, V-B:GLU:543:CG:9879, V-A:TYR:484:CE1:4345, V-A:ALA:541:C:4888"]

$$$$
RR29_Rahimova_2017
     RDKit          3D

 35 36  0  0  0  0  0  0  0  0999 V2000
  129.2960  121.3050   61.8250 C   0  0  0  0  0  0  0  0  0  0  0  0
  128.7620  122.6700   62.2330 C   0  0  0  0  0  0  0  0  0  0  0  0
  127.2270  122.7840   62.0930 C   0  0  0  0  0  0  0  0  0  0  0  0
  126.8240  123.9270   61.1380 C   0  0  0  0  0  0  0  0  0  0  0  0
  126.8030  123.4840   59.6840 C   0  0  0  0  0  0  0  0  0  0  0  0
  127.9900  123.0470   59.0630 C   0  0  0  0  0  0  0  0  0  0  0  0
  127.9930  122.6330   57.7240 C   0  0  0  0  0  0  0  0  0  0  0  0
  126.7870  122.6820   57.0340 C   0  0  0  0  0  0  0  0  0  0  0  0
  125.6320  123.1060   57.6300 C   0  0  0  0  0  0  0  0  0  0  0  0
  125.5980  123.5130   58.9590 C   0  0  0  0  0  0  0  0  0  0  0  0
  124.6090  123.0190   56.7400 O   0  0  0  0  0  0  0  0  0  0  0  0
  125.2050  122.7280   55.5040 C   0  0  0  0  0  0  0  0  0  0  0  0
  126.5230  122.3140   55.7520 O   0  0  0  0  0  0  0  0  0  0  0  0
  129.5930  123.5630   62.6270 N   0  0  0  0  0  0  0  0  0  0  0  0
  129.1220  124.8250   62.9150 N   0  0  0  0  0  0  0  0  0  0  0  0
  129.8680  125.7990   63.4620 C   0  0  0  0  0  0  0  0  0  0  0  0
  131.1570  125.6830   63.7820 N   0  0  0  0  0  0  0  0  0  0  0  0
  129.2810  126.9620   63.7040 N   0  0  0  0  0  0  0  0  0  0  0  0
  129.5260  120.7170   62.7258 H   0  0  0  0  0  0  0  0  0  0  0  0
  128.5376  120.7783   61.2271 H   0  0  0  0  0  0  0  0  0  0  0  0
  130.2105  121.4328   61.2271 H   0  0  0  0  0  0  0  0  0  0  0  0
  126.8336  121.8352   61.6993 H   0  0  0  0  0  0  0  0  0  0  0  0
  126.8076  123.0031   63.0860 H   0  0  0  0  0  0  0  0  0  0  0  0
  125.8200  124.2813   61.4143 H   0  0  0  0  0  0  0  0  0  0  0  0
  127.5732  124.7265   61.2353 H   0  0  0  0  0  0  0  0  0  0  0  0
  128.9279  123.0305   59.6375 H   0  0  0  0  0  0  0  0  0  0  0  0
  128.9150  122.2824   57.2372 H   0  0  0  0  0  0  0  0  0  0  0  0
  124.6604  123.8464   59.4277 H   0  0  0  0  0  0  0  0  0  0  0  0
  124.6485  121.9241   54.9999 H   0  0  0  0  0  0  0  0  0  0  0  0
  125.1961  123.6153   54.8539 H   0  0  0  0  0  0  0  0  0  0  0  0
  128.1470  125.0000   62.7200 H   0  0  0  0  0  0  0  0  0  0  0  0
  131.7300  126.5070   63.8880 H   0  0  0  0  0  0  0  0  0  0  0  0
  131.5580  124.7640   63.9050 H   0  0  0  0  0  0  0  0  0  0  0  0
  128.2770  127.0130   63.7880 H   0  0  0  0  0  0  0  0  0  0  0  0
  129.8420  127.7950   63.8100 H   0  0  0  0  0  0  0  0  0  0  0  0
  1  2  1  0
  2  3  1  0
  3  4  1  0
  4  5  1  0
  5  6  2  0
  6  7  1  0
  7  8  2  0
  8  9  1  0
  9 10  2  0
  9 11  1  0
 11 12  1  0
 12 13  1  0
  2 14  2  0
 14 15  1  0
 15 16  1  0
 16 17  1  0
 16 18  2  0
 10  5  1  0
 13  8  1  0
  1 19  1  0
  1 20  1  0
  1 21  1  0
  3 22  1  0
  3 23  1  0
  4 24  1  0
  4 25  1  0
  6 26  1  0
  7 27  1  0
 10 28  1  0
 12 29  1  0
 12 30  1  0
 15 31  1  0
 17 32  1  0
 17 33  1  0
 18 34  1  0
 18 35  1  0
M  CHG  1  18   1
M  END
>  <Binding energies>  (1) 
[-8.56]

>  <Ligand effiencies>  (1) 
[-0.3721739130434783]

>  <Interactions>  (1) 
["V-B:TYR:539:CD1:9845, V-B:ILE:538:CD1:9837, V-B:PRO:540:CB:9857, V-B:PRO:540:CD:9859, V-B:LEU:363:CD1:8161, V-B:GLU:543:CD:9880, H-B:GLU:543:OE2:9882, V-B:TYR:539:C:9839, V-B:PRO:540:CA:9855, H-B:TYR:539:N:9842, V-B:ILE:538:CG2:9835, H-B:GLU:543:OE1:9881, V-B:TYR:539:CE2:9848, V-B:TYR:539:CD2:9846, V-B:ILE:538:CA:9832, V-B:ALA:541:CB:9864, V-B:TYR:539:CZ:9849, V-B:PRO:540:C:9853, V-B:PRO:540:N:9856, V-B:TYR:531:CE2:9765, H-A:TYR:484:OH:4348, V-B:TYR:539:CG:9844, V-B:TYR:531:CZ:9766, V-A:GLU:543:CD:4908, H-A:GLU:543:OE1:4909, H-A:GLU:543:OE2:4910, H-B:TYR:531:OH:9767, V-A:TYR:484:CZ:4347, V-B:GLU:543:CG:9879"]

$$$$
RR29_Rahimova_2017-again1
     RDKit          3D

 34 35  0  0  0  0  0  0  0  0999 V2000
  128.0670  132.2470   62.3550 C   0  0  0  0  0  0  0  0  0  0  0  0
  129.1380  132.3550   61.2800 C   0  0  0  0  0  0  0  0  0  0  0  0
  128.5990  132.8490   59.9240 C   0  0  0  0  0  0  0  0  0  0  0  0
  127.6820  131.8000   59.2620 C   0  0  0  0  0  0  0  0  0  0  0  0
  127.8500  131.7570   57.7510 C   0  0  0  0  0  0  0  0  0  0  0  0
  126.9490  131.0130   56.9640 C   0  0  0  0  0  0  0  0  0  0  0  0
  127.0840  130.9620   55.5690 C   0  0  0  0  0  0  0  0  0  0  0  0
  128.1420  131.6620   54.9990 C   0  0  0  0  0  0  0  0  0  0  0  0
  129.0210  132.3830   55.7580 C   0  0  0  0  0  0  0  0  0  0  0  0
  128.9040  132.4600   57.1420 C   0  0  0  0  0  0  0  0  0  0  0  0
  129.9260  132.9870   54.9450 O   0  0  0  0  0  0  0  0  0  0  0  0
  129.7120  132.4420   53.6700 C   0  0  0  0  0  0  0  0  0  0  0  0
  128.4690  131.7920   53.6870 O   0  0  0  0  0  0  0  0  0  0  0  0
  130.3480  132.0230   61.5630 N   0  0  0  0  0  0  0  0  0  0  0  0
  131.2230  132.1020   60.6130 N   0  0  0  0  0  0  0  0  0  0  0  0
  131.8020  131.0150   60.2530 C   0  0  0  0  0  0  0  0  0  0  0  0
  131.6080  129.7050   60.7730 N   0  0  0  0  0  0  0  0  0  0  0  0
  132.7650  131.0050   59.2210 N   0  0  0  0  0  0  0  0  0  0  0  0
  128.5380  132.2945   63.3479 H   0  0  0  0  0  0  0  0  0  0  0  0
  127.3542  133.0778   62.2472 H   0  0  0  0  0  0  0  0  0  0  0  0
  127.5344  131.2906   62.2472 H   0  0  0  0  0  0  0  0  0  0  0  0
  128.0261  133.7745   60.0832 H   0  0  0  0  0  0  0  0  0  0  0  0
  129.4556  133.0273   59.2573 H   0  0  0  0  0  0  0  0  0  0  0  0
  127.9242  130.8089   59.6731 H   0  0  0  0  0  0  0  0  0  0  0  0
  126.6403  132.0807   59.4766 H   0  0  0  0  0  0  0  0  0  0  0  0
  126.1286  130.4647   57.4502 H   0  0  0  0  0  0  0  0  0  0  0  0
  126.3790  130.3894   54.9485 H   0  0  0  0  0  0  0  0  0  0  0  0
  129.6128  133.0515   57.7401 H   0  0  0  0  0  0  0  0  0  0  0  0
  129.7055  133.2433   52.9164 H   0  0  0  0  0  0  0  0  0  0  0  0
  130.5137  131.7335   53.4144 H   0  0  0  0  0  0  0  0  0  0  0  0
  130.9590  129.5170   61.5240 H   0  0  0  0  0  0  0  0  0  0  0  0
  132.1140  128.9040   60.4280 H   0  0  0  0  0  0  0  0  0  0  0  0
  133.0380  131.8460   58.7340 H   0  0  0  0  0  0  0  0  0  0  0  0
  133.2340  130.1630   58.9250 H   0  0  0  0  0  0  0  0  0  0  0  0
  1  2  1  0
  2  3  1  0
  3  4  1  0
  4  5  1  0
  5  6  2  0
  6  7  1  0
  7  8  2  0
  8  9  1  0
  9 10  2  0
  9 11  1  0
 11 12  1  0
 12 13  1  0
  2 14  2  0
 14 15  1  0
 15 16  2  0
 16 17  1  0
 16 18  1  0
 10  5  1  0
 13  8  1  0
  1 19  1  0
  1 20  1  0
  1 21  1  0
  3 22  1  0
  3 23  1  0
  4 24  1  0
  4 25  1  0
  6 26  1  0
  7 27  1  0
 10 28  1  0
 12 29  1  0
 12 30  1  0
 17 31  1  0
 17 32  1  0
 18 33  1  0
 18 34  1  0
M  END
>  <Binding energies>  (1) 
[-7.15]

>  <Ligand effiencies>  (1) 
[-0.325]

>  <Interactions>  (1) 
["V-A:ASP:366:CG:3213, V-A:TYR:539:CE1:4875, H-A:TYR:539:N:4870, V-A:TYR:539:CZ:4877, V-A:PRO:540:CA:4883, V-A:TYR:539:C:4867, V-A:PRO:540:N:4884, V-A:PRO:540:CB:4885, V-A:TYR:539:CE2:4876, H-B:LYS:534:NZ:9795, V-A:GLU:543:CD:4908, H-A:GLU:543:OE1:4909, H-A:ALA:541:N:4891, V-A:ALA:541:CB:4892, H-A:ASP:366:OD1:3214, V-A:ILE:538:CA:4860, V-A:ILE:538:CB:4862, V-A:ILE:538:CG2:4863, V-A:TYR:539:CD2:4874, V-A:TYR:539:CG:4872, V-A:TYR:539:CD1:4873, H-A:ASP:366:OD2:3215"]

$$$$
RR2_Rahimova_2017
     RDKit          3D

 76 80  0  0  0  0  0  0  0  0999 V2000
  133.4260  122.7710   61.1180 C   0  0  0  0  0  0  0  0  0  0  0  0
  133.9560  123.1430   59.8510 O   0  0  0  0  0  0  0  0  0  0  0  0
  133.3290  124.1370   59.1230 C   0  0  0  0  0  0  0  0  0  0  0  0
  132.3590  125.0060   59.6420 C   0  0  0  0  0  0  0  0  0  0  0  0
  131.7780  125.9760   58.8310 C   0  0  0  0  0  0  0  0  0  0  0  0
  132.1500  126.1010   57.4850 C   0  0  0  0  0  0  0  0  0  0  0  0
  131.4970  127.1620   56.6210 C   0  0  0  0  0  0  0  0  0  0  0  0
  131.0330  126.8660   55.5140 O   0  0  0  0  0  0  0  0  0  0  0  0
  131.4800  128.4140   57.1350 N   0  0  0  0  0  0  0  0  0  0  0  0
  130.9770  129.4420   56.3450 N   0  0  0  0  0  0  0  0  0  0  0  0
  131.4450  130.6900   56.5480 C   0  0  0  0  0  0  0  0  0  0  0  0
  132.1550  131.0310   57.4980 O   0  0  0  0  0  0  0  0  0  0  0  0
  131.0590  131.7230   55.4810 C   0  0  0  0  0  0  0  0  0  0  0  0
  129.3090  132.2580   55.5180 S   0  0  0  0  0  0  0  0  0  0  0  0
  128.5190  130.7540   56.0060 C   0  0  0  0  0  0  0  0  0  0  0  0
  127.7980  130.0290   55.1890 N   0  0  0  0  0  0  0  0  0  0  0  0
  127.2760  128.9710   55.9190 N   0  0  0  0  0  0  0  0  0  0  0  0
  127.7270  129.0790   57.1460 C   0  0  0  0  0  0  0  0  0  0  0  0
  127.3960  128.1070   58.2320 C   0  0  0  0  0  0  0  0  0  0  0  0
  128.0720  126.8860   58.3010 C   0  0  0  0  0  0  0  0  0  0  0  0
  127.7650  125.9710   59.3040 C   0  0  0  0  0  0  0  0  0  0  0  0
  126.7900  126.2770   60.2600 C   0  0  0  0  0  0  0  0  0  0  0  0
  126.4320  125.3900   61.2860 N   0  0  0  0  0  0  0  0  0  0  0  0
  125.7610  123.7640   61.0300 S   0  0  0  0  0  0  0  0  0  0  0  0
  124.3180  123.8800   61.2710 O   0  0  0  0  0  0  0  0  0  0  0  0
  126.5760  122.8100   61.7910 O   0  0  0  0  0  0  0  0  0  0  0  0
  125.9670  123.4420   59.2800 C   0  0  0  0  0  0  0  0  0  0  0  0
  127.1680  122.9260   58.7880 C   0  0  0  0  0  0  0  0  0  0  0  0
  127.3140  122.6980   57.4230 C   0  0  0  0  0  0  0  0  0  0  0  0
  126.2590  122.9780   56.5520 C   0  0  0  0  0  0  0  0  0  0  0  0
  126.4240  122.7420   55.0610 C   0  0  0  0  0  0  0  0  0  0  0  0
  125.0600  123.4980   57.0460 C   0  0  0  0  0  0  0  0  0  0  0  0
  124.9140  123.7280   58.4110 C   0  0  0  0  0  0  0  0  0  0  0  0
  126.1180  127.4980   60.1920 C   0  0  0  0  0  0  0  0  0  0  0  0
  126.4200  128.4110   59.1850 C   0  0  0  0  0  0  0  0  0  0  0  0
  128.5270  130.2030   57.2740 N   0  0  0  0  0  0  0  0  0  0  0  0
  129.1650  130.6990   58.4300 C   0  0  0  0  0  0  0  0  0  0  0  0
  129.9750  129.8580   59.1940 C   0  0  0  0  0  0  0  0  0  0  0  0
  130.6050  130.3550   60.3310 C   0  0  0  0  0  0  0  0  0  0  0  0
  130.4320  131.6860   60.7150 C   0  0  0  0  0  0  0  0  0  0  0  0
  131.0960  132.0870   61.8580 O   0  0  0  0  0  0  0  0  0  0  0  0
  132.3540  131.4990   62.1740 C   0  0  0  0  0  0  0  0  0  0  0  0
  129.6140  132.5250   59.9400 C   0  0  0  0  0  0  0  0  0  0  0  0
  128.9840  132.0330   58.8010 C   0  0  0  0  0  0  0  0  0  0  0  0
  133.1260  125.2320   56.9740 C   0  0  0  0  0  0  0  0  0  0  0  0
  133.7060  124.2630   57.7870 C   0  0  0  0  0  0  0  0  0  0  0  0
  134.0453  123.2057   61.9165 H   0  0  0  0  0  0  0  0  0  0  0  0
  132.3955  123.1450   61.2085 H   0  0  0  0  0  0  0  0  0  0  0  0
  133.4275  121.6747   61.2085 H   0  0  0  0  0  0  0  0  0  0  0  0
  132.0556  124.9206   60.6959 H   0  0  0  0  0  0  0  0  0  0  0  0
  131.0185  126.6522   59.2505 H   0  0  0  0  0  0  0  0  0  0  0  0
  132.2080  128.7410   57.7540 H   0  0  0  0  0  0  0  0  0  0  0  0
  130.6090  129.1220   55.4600 H   0  0  0  0  0  0  0  0  0  0  0  0
  131.6906  132.6123   55.6230 H   0  0  0  0  0  0  0  0  0  0  0  0
  131.2091  131.2309   54.5088 H   0  0  0  0  0  0  0  0  0  0  0  0
  128.8493  126.6471   57.5602 H   0  0  0  0  0  0  0  0  0  0  0  0
  128.2900  125.0052   59.3452 H   0  0  0  0  0  0  0  0  0  0  0  0
  126.5910  125.6850   62.2380 H   0  0  0  0  0  0  0  0  0  0  0  0
  127.9954  122.7007   59.4769 H   0  0  0  0  0  0  0  0  0  0  0  0
  128.2602  122.2973   57.0302 H   0  0  0  0  0  0  0  0  0  0  0  0
  127.0473  121.8505   54.8977 H   0  0  0  0  0  0  0  0  0  0  0  0
  125.4360  122.5876   54.6027 H   0  0  0  0  0  0  0  0  0  0  0  0
  126.9082  123.6169   54.6027 H   0  0  0  0  0  0  0  0  0  0  0  0
  124.2328  123.7252   56.3574 H   0  0  0  0  0  0  0  0  0  0  0  0
  123.9702  124.1344   58.8036 H   0  0  0  0  0  0  0  0  0  0  0  0
  125.3461  127.7404   60.9373 H   0  0  0  0  0  0  0  0  0  0  0  0
  125.8893  129.3735   59.1395 H   0  0  0  0  0  0  0  0  0  0  0  0
  130.1149  128.8075   58.8991 H   0  0  0  0  0  0  0  0  0  0  0  0
  131.2452  129.6930   60.9327 H   0  0  0  0  0  0  0  0  0  0  0  0
  132.4694  131.4451   63.2666 H   0  0  0  0  0  0  0  0  0  0  0  0
  132.4018  130.4852   61.7497 H   0  0  0  0  0  0  0  0  0  0  0  0
  133.1624  132.1125   61.7497 H   0  0  0  0  0  0  0  0  0  0  0  0
  129.4710  133.5751   60.2348 H   0  0  0  0  0  0  0  0  0  0  0  0
  128.3456  132.6926   58.1949 H   0  0  0  0  0  0  0  0  0  0  0  0
  133.4353  125.3175   55.9218 H   0  0  0  0  0  0  0  0  0  0  0  0
  134.4698  123.5895   57.3711 H   0  0  0  0  0  0  0  0  0  0  0  0
  1  2  1  0
  2  3  1  0
  3  4  2  0
  4  5  1  0
  5  6  2  0
  6  7  1  0
  7  8  2  0
  7  9  1  0
  9 10  1  0
 10 11  1  0
 11 12  2  0
 11 13  1  0
 13 14  1  0
 14 15  1  0
 15 16  2  0
 16 17  1  0
 17 18  2  0
 18 19  1  0
 19 20  2  0
 20 21  1  0
 21 22  2  0
 22 23  1  0
 23 24  1  0
 24 25  2  0
 24 26  2  0
 24 27  1  0
 27 28  2  0
 28 29  1  0
 29 30  2  0
 30 31  1  0
 30 32  1  0
 32 33  2  0
 22 34  1  0
 34 35  2  0
 18 36  1  0
 36 37  1  0
 37 38  2  0
 38 39  1  0
 39 40  2  0
 40 41  1  0
 41 42  1  0
 40 43  1  0
 43 44  2  0
  6 45  1  0
 45 46  2  0
 46  3  1  0
 36 15  1  0
 44 37  1  0
 35 19  1  0
 33 27  1  0
  1 47  1  0
  1 48  1  0
  1 49  1  0
  4 50  1  0
  5 51  1  0
  9 52  1  0
 10 53  1  0
 13 54  1  0
 13 55  1  0
 20 56  1  0
 21 57  1  0
 23 58  1  0
 28 59  1  0
 29 60  1  0
 31 61  1  0
 31 62  1  0
 31 63  1  0
 32 64  1  0
 33 65  1  0
 34 66  1  0
 35 67  1  0
 38 68  1  0
 39 69  1  0
 42 70  1  0
 42 71  1  0
 42 72  1  0
 43 73  1  0
 44 74  1  0
 45 75  1  0
 46 76  1  0
M  END
>  <Binding energies>  (1) 
[-11.42]

>  <Ligand effiencies>  (1) 
[-0.2330612244897959]

>  <Interactions>  (1) 
["V-B:ILE:538:CD1:9837, V-B:PRO:540:CB:9857, V-B:LEU:363:CD1:8161, V-B:GLU:543:CD:9880, H-B:GLU:543:OE2:9882, V-B:TYR:539:C:9839, V-B:PRO:540:CA:9855, H-B:GLU:543:OE1:9881, V-B:TYR:539:CE2:9848, V-B:TYR:539:CD2:9846, V-B:ILE:538:CA:9832, V-B:MET:535:CE:9807, V-B:TYR:539:CZ:9849, H-B:ASP:366:OD2:8187, V-B:PRO:540:N:9856, V-B:TYR:531:CE2:9765, V-A:ASP:366:CA:3210, V-A:ASP:366:CG:3213, V-B:TYR:539:CG:9844, V-B:TYR:531:CZ:9766, V-A:ILE:369:CD1:3239, V-A:ASP:366:C:3208, V-A:ASP:366:CB:3212, V-A:ILE:369:CB:3236, V-A:ILE:369:CG2:3237, V-A:TYR:531:CZ:4794, H-A:TYR:539:N:4870, V-B:ASP:366:CG:8185, V-A:PRO:540:CA:4883, V-A:TYR:539:C:4867, V-A:PRO:540:N:4884, H-B:LYS:534:NZ:9795, H-B:ARG:545:NH2:9900, H-B:ALA:541:N:9863, V-A:GLU:543:CD:4908, H-A:ALA:541:N:4891, H-A:ASP:366:OD1:3214, V-A:GLU:543:CG:4907, H-A:TYR:531:OH:4795, V-A:PRO:540:C:4881, V-A:ASN:362:CB:3176, V-A:ALA:541:CA:4890, V-A:ALA:541:C:4888"]

$$$$
RR30_Rahimova_2017
     RDKit          3D

 29 30  0  0  0  0  0  0  0  0999 V2000
  133.9540  131.7050   60.3600 C   0  0  0  0  0  0  0  0  0  0  0  0
  132.6130  131.1950   59.8120 C   0  0  0  0  0  0  0  0  0  0  0  0
  131.4430  131.6270   60.6680 C   0  0  0  0  0  0  0  0  0  0  0  0
  131.3170  131.5450   61.9690 N   0  0  0  0  0  0  0  0  0  0  0  0
  130.0590  132.0650   62.2650 N   0  0  0  0  0  0  0  0  0  0  0  0
  129.5300  132.4060   61.1170 C   0  0  0  0  0  0  0  0  0  0  0  0
  127.9500  133.1380   60.8370 S   0  0  0  0  0  0  0  0  0  0  0  0
  127.1620  131.8170   59.8620 C   0  0  0  0  0  0  0  0  0  0  0  0
  127.8350  131.6240   58.5000 C   0  0  0  0  0  0  0  0  0  0  0  0
  127.5270  130.6510   57.8090 O   0  0  0  0  0  0  0  0  0  0  0  0
  128.7680  132.5440   58.1660 N   0  0  0  0  0  0  0  0  0  0  0  0
  129.5100  132.5770   56.9940 C   0  0  0  0  0  0  0  0  0  0  0  0
  129.1420  133.0150   55.8110 N   0  0  0  0  0  0  0  0  0  0  0  0
  130.1520  132.8920   54.8650 N   0  0  0  0  0  0  0  0  0  0  0  0
  131.2560  132.3680   55.3470 C   0  0  0  0  0  0  0  0  0  0  0  0
  132.4930  132.1300   54.5120 C   0  0  0  0  0  0  0  0  0  0  0  0
  131.1380  131.9780   57.0420 S   0  0  0  0  0  0  0  0  0  0  0  0
  130.3520  132.1620   60.0640 O   0  0  0  0  0  0  0  0  0  0  0  0
  133.9283  131.6952   61.4597 H   0  0  0  0  0  0  0  0  0  0  0  0
  134.7664  131.0530   60.0064 H   0  0  0  0  0  0  0  0  0  0  0  0
  134.1278  132.7320   60.0064 H   0  0  0  0  0  0  0  0  0  0  0  0
  132.4727  131.5904   58.7952 H   0  0  0  0  0  0  0  0  0  0  0  0
  132.6443  130.0954   59.8139 H   0  0  0  0  0  0  0  0  0  0  0  0
  127.2259  130.8745   60.4255 H   0  0  0  0  0  0  0  0  0  0  0  0
  126.1158  132.1066   59.6840 H   0  0  0  0  0  0  0  0  0  0  0  0
  128.9570  133.2820   58.8290 H   0  0  0  0  0  0  0  0  0  0  0  0
  133.3558  131.9640   55.1738 H   0  0  0  0  0  0  0  0  0  0  0  0
  132.3421  131.2444   53.8772 H   0  0  0  0  0  0  0  0  0  0  0  0
  132.6815  133.0084   53.8772 H   0  0  0  0  0  0  0  0  0  0  0  0
  1  2  1  0
  2  3  1  0
  3  4  2  0
  4  5  1  0
  5  6  2  0
  6  7  1  0
  7  8  1  0
  8  9  1  0
  9 10  2  0
  9 11  1  0
 11 12  1  0
 12 13  2  0
 13 14  1  0
 14 15  2  0
 15 16  1  0
 15 17  1  0
  6 18  1  0
 18  3  1  0
 17 12  1  0
  1 19  1  0
  1 20  1  0
  1 21  1  0
  2 22  1  0
  2 23  1  0
  8 24  1  0
  8 25  1  0
 11 26  1  0
 16 27  1  0
 16 28  1  0
 16 29  1  0
M  END
>  <Binding energies>  (1) 
[-6.55]

>  <Ligand effiencies>  (1) 
[-0.3447368421052632]

>  <Interactions>  (1) 
["V-A:TYR:539:CE1:4875, V-A:TYR:531:CZ:4794, H-A:TYR:539:N:4870, V-A:TYR:531:CE2:4793, V-A:PRO:540:CA:4883, V-A:TYR:539:C:4867, V-A:PRO:540:N:4884, V-A:PRO:540:CB:4885, V-A:LEU:363:CD1:3189, H-A:ALA:541:N:4891, V-A:ALA:541:CB:4892, V-A:LEU:363:CA:3185, V-A:ILE:538:CB:4862, V-A:ILE:538:CG2:4863, V-A:PRO:540:C:4881, V-A:TYR:539:CA:4869, V-A:TYR:539:CD1:4873, V-A:ASN:362:CB:3176, V-A:ALA:541:CA:4890, V-A:ASN:362:C:3172, H-A:TYR:539:O:4868, V-A:ASN:362:CA:3174"]

$$$$
RR31_Rahimova_2017
     RDKit          3D

 44 45  0  0  0  0  0  0  0  0999 V2000
  124.4170  122.7220   55.8480 C   0  0  0  0  0  0  0  0  0  0  0  0
  125.6150  122.9210   56.7680 C   0  0  0  0  0  0  0  0  0  0  0  0
  125.3980  123.2550   58.1050 C   0  0  0  0  0  0  0  0  0  0  0  0
  126.4720  123.4400   58.9730 C   0  0  0  0  0  0  0  0  0  0  0  0
  127.7960  123.2880   58.5320 C   0  0  0  0  0  0  0  0  0  0  0  0
  128.8840  123.4810   59.3860 N   0  0  0  0  0  0  0  0  0  0  0  0
  129.4370  122.3850   60.2060 C   0  0  0  0  0  0  0  0  0  0  0  0
  130.3410  122.8620   61.3680 C   0  0  0  0  0  0  0  0  0  0  0  0
  131.4330  123.7020   60.8710 N   0  0  0  0  0  0  0  0  0  0  0  0
  132.3280  124.1400   61.9470 C   0  0  0  0  0  0  0  0  0  0  0  0
  131.9130  125.4910   62.5640 C   0  0  0  0  0  0  0  0  0  0  0  0
  130.5380  125.4210   63.2480 C   0  0  0  0  0  0  0  0  0  0  0  0
  130.6780  125.7430   64.7400 N   0  0  0  0  0  0  0  0  0  0  0  0
  130.8300  124.8680   60.2270 C   0  0  0  0  0  0  0  0  0  0  0  0
  129.9500  124.4390   59.0310 C   0  0  0  0  0  0  0  0  0  0  0  0
  128.0000  122.9610   57.1830 C   0  0  0  0  0  0  0  0  0  0  0  0
  126.9300  122.7730   56.3010 C   0  0  0  0  0  0  0  0  0  0  0  0
  127.2190  122.4220   54.8460 C   0  0  0  0  0  0  0  0  0  0  0  0
  123.5109  122.5715   56.4533 H   0  0  0  0  0  0  0  0  0  0  0  0
  124.2904  123.6114   55.2133 H   0  0  0  0  0  0  0  0  0  0  0  0
  124.5847  121.8394   55.2133 H   0  0  0  0  0  0  0  0  0  0  0  0
  124.3697  123.3734   58.4773 H   0  0  0  0  0  0  0  0  0  0  0  0
  126.2792  123.7098   60.0218 H   0  0  0  0  0  0  0  0  0  0  0  0
  128.5983  121.8148   60.6320 H   0  0  0  0  0  0  0  0  0  0  0  0
  130.0682  121.7774   59.5408 H   0  0  0  0  0  0  0  0  0  0  0  0
  129.7358  123.4424   62.0800 H   0  0  0  0  0  0  0  0  0  0  0  0
  130.7738  121.9791   61.8612 H   0  0  0  0  0  0  0  0  0  0  0  0
  132.3234  123.3768   62.7391 H   0  0  0  0  0  0  0  0  0  0  0  0
  133.3285  124.2718   61.5093 H   0  0  0  0  0  0  0  0  0  0  0  0
  132.6652  125.7850   63.3108 H   0  0  0  0  0  0  0  0  0  0  0  0
  131.8471  126.2274   61.7495 H   0  0  0  0  0  0  0  0  0  0  0  0
  129.8607  126.1504   62.7799 H   0  0  0  0  0  0  0  0  0  0  0  0
  130.1293  124.4061   63.1343 H   0  0  0  0  0  0  0  0  0  0  0  0
  131.3420  126.4940   64.8720 H   0  0  0  0  0  0  0  0  0  0  0  0
  131.0030  124.9300   65.2430 H   0  0  0  0  0  0  0  0  0  0  0  0
  129.7870  126.0280   65.1210 H   0  0  0  0  0  0  0  0  0  0  0  0
  130.2076  125.4031   60.9593 H   0  0  0  0  0  0  0  0  0  0  0  0
  131.6334  125.5222   59.8575 H   0  0  0  0  0  0  0  0  0  0  0  0
  129.4801  125.3384   58.6065 H   0  0  0  0  0  0  0  0  0  0  0  0
  130.6112  123.9299   58.3144 H   0  0  0  0  0  0  0  0  0  0  0  0
  129.0283  122.8494   56.8087 H   0  0  0  0  0  0  0  0  0  0  0  0
  127.9177  121.5734   54.8054 H   0  0  0  0  0  0  0  0  0  0  0  0
  126.2806  122.1488   54.3414 H   0  0  0  0  0  0  0  0  0  0  0  0
  127.6673  123.2906   54.3414 H   0  0  0  0  0  0  0  0  0  0  0  0
  1  2  1  0
  2  3  2  0
  3  4  1  0
  4  5  2  0
  5  6  1  0
  6  7  1  0
  7  8  1  0
  8  9  1  0
  9 10  1  0
 10 11  1  0
 11 12  1  0
 12 13  1  0
  9 14  1  0
 14 15  1  0
  5 16  1  0
 16 17  2  0
 17 18  1  0
 17  2  1  0
 15  6  1  0
  1 19  1  0
  1 20  1  0
  1 21  1  0
  3 22  1  0
  4 23  1  0
  7 24  1  0
  7 25  1  0
  8 26  1  0
  8 27  1  0
 10 28  1  0
 10 29  1  0
 11 30  1  0
 11 31  1  0
 12 32  1  0
 12 33  1  0
 13 34  1  0
 13 35  1  0
 13 36  1  0
 14 37  1  0
 14 38  1  0
 15 39  1  0
 15 40  1  0
 16 41  1  0
 18 42  1  0
 18 43  1  0
 18 44  1  0
M  CHG  1  13   1
M  END
>  <Binding energies>  (1) 
[-7.78]

>  <Ligand effiencies>  (1) 
[-0.3704761904761905]

>  <Interactions>  (1) 
["V-B:TYR:539:CD1:9845, V-B:ILE:538:CD1:9837, V-B:PRO:540:CB:9857, V-B:PRO:540:CD:9859, V-B:LEU:363:CD1:8161, V-B:GLU:543:CD:9880, H-B:GLU:543:OE2:9882, V-B:PRO:540:CA:9855, V-B:ILE:538:CG2:9835, V-B:TYR:539:CE2:9848, V-B:TYR:539:CD2:9846, V-B:ILE:538:CA:9832, V-B:MET:535:CE:9807, V-B:TYR:539:CZ:9849, V-B:TYR:539:CE1:9847, V-B:PRO:540:N:9856, V-B:TYR:531:CE2:9765, H-A:TYR:484:OH:4348, V-B:TYR:539:CG:9844, V-B:TYR:531:CZ:9766, V-B:ILE:538:C:9830, V-A:GLU:543:CD:4908, H-A:GLU:543:OE1:4909, H-A:GLU:543:OE2:4910, V-A:ARG:545:CZ:4926, V-A:TYR:484:CE2:4346, V-A:TYR:484:CZ:4347, V-B:VAL:537:C:9822"]

$$$$
RR32_Rahimova_2017
     RDKit          3D

 37 39  0  0  0  0  0  0  0  0999 V2000
  125.2540  123.8650   60.7230 C   0  0  0  0  0  0  0  0  0  0  0  0
  126.3160  123.4340   59.7170 C   0  0  0  0  0  0  0  0  0  0  0  0
  127.6220  123.2510   60.1740 C   0  0  0  0  0  0  0  0  0  0  0  0
  128.6170  122.8550   59.2860 C   0  0  0  0  0  0  0  0  0  0  0  0
  129.9110  122.6740   59.7430 N   0  0  0  0  0  0  0  0  0  0  0  0
  130.6620  123.8800   60.1370 C   0  0  0  0  0  0  0  0  0  0  0  0
  132.1490  123.5950   60.4590 C   0  0  0  0  0  0  0  0  0  0  0  0
  132.2530  122.6080   61.5330 N   0  0  0  0  0  0  0  0  0  0  0  0
  133.6540  122.3630   61.8590 C   0  0  0  0  0  0  0  0  0  0  0  0
  131.6160  121.3750   61.0760 C   0  0  0  0  0  0  0  0  0  0  0  0
  130.1230  121.6260   60.7600 C   0  0  0  0  0  0  0  0  0  0  0  0
  128.3770  122.6360   57.9670 N   0  0  0  0  0  0  0  0  0  0  0  0
  127.1140  122.8090   57.4900 C   0  0  0  0  0  0  0  0  0  0  0  0
  126.8920  122.5750   56.1110 C   0  0  0  0  0  0  0  0  0  0  0  0
  125.6230  122.7370   55.5690 C   0  0  0  0  0  0  0  0  0  0  0  0
  124.5580  123.1270   56.3710 C   0  0  0  0  0  0  0  0  0  0  0  0
  124.7410  123.3640   57.7300 C   0  0  0  0  0  0  0  0  0  0  0  0
  126.0250  123.2130   58.3300 C   0  0  0  0  0  0  0  0  0  0  0  0
  125.6326  123.7114   61.7443 H   0  0  0  0  0  0  0  0  0  0  0  0
  125.0194  124.9295   60.5752 H   0  0  0  0  0  0  0  0  0  0  0  0
  124.3439  123.2650   60.5752 H   0  0  0  0  0  0  0  0  0  0  0  0
  127.8640  123.4195   61.2337 H   0  0  0  0  0  0  0  0  0  0  0  0
  130.6160  124.6056   59.3115 H   0  0  0  0  0  0  0  0  0  0  0  0
  130.1976  124.2685   61.0554 H   0  0  0  0  0  0  0  0  0  0  0  0
  132.6477  123.2064   59.5588 H   0  0  0  0  0  0  0  0  0  0  0  0
  132.6317  124.5292   60.7820 H   0  0  0  0  0  0  0  0  0  0  0  0
  133.7778  122.3413   62.9518 H   0  0  0  0  0  0  0  0  0  0  0  0
  133.9655  121.3968   61.4355 H   0  0  0  0  0  0  0  0  0  0  0  0
  134.2749  123.1662   61.4355 H   0  0  0  0  0  0  0  0  0  0  0  0
  132.1242  121.0194   60.1675 H   0  0  0  0  0  0  0  0  0  0  0  0
  131.6907  120.6183   61.8709 H   0  0  0  0  0  0  0  0  0  0  0  0
  129.6812  120.6881   60.3925 H   0  0  0  0  0  0  0  0  0  0  0  0
  129.6464  121.9718   61.6892 H   0  0  0  0  0  0  0  0  0  0  0  0
  127.7274  122.2638   55.4666 H   0  0  0  0  0  0  0  0  0  0  0  0
  125.4604  122.5550   54.4964 H   0  0  0  0  0  0  0  0  0  0  0  0
  123.5591  123.2498   55.9270 H   0  0  0  0  0  0  0  0  0  0  0  0
  123.8848  123.6714   58.3483 H   0  0  0  0  0  0  0  0  0  0  0  0
  1  2  1  0
  2  3  2  0
  3  4  1  0
  4  5  1  0
  5  6  1  0
  6  7  1  0
  7  8  1  0
  8  9  1  0
  8 10  1  0
 10 11  1  0
  4 12  2  0
 12 13  1  0
 13 14  2  0
 14 15  1  0
 15 16  2  0
 16 17  1  0
 17 18  2  0
 18  2  1  0
 11  5  1  0
 18 13  1  0
  1 19  1  0
  1 20  1  0
  1 21  1  0
  3 22  1  0
  6 23  1  0
  6 24  1  0
  7 25  1  0
  7 26  1  0
  9 27  1  0
  9 28  1  0
  9 29  1  0
 10 30  1  0
 10 31  1  0
 11 32  1  0
 11 33  1  0
 14 34  1  0
 15 35  1  0
 16 36  1  0
 17 37  1  0
M  END
>  <Binding energies>  (1) 
[-6.65]

>  <Ligand effiencies>  (1) 
[-0.36944444444444446]

>  <Interactions>  (1) 
["V-B:TYR:539:CD1:9845, V-B:ILE:538:CD1:9837, V-B:PRO:540:CB:9857, V-B:LEU:363:CD1:8161, V-B:TYR:539:C:9839, V-B:PRO:540:CA:9855, V-B:ILE:538:CG2:9835, V-B:TYR:539:CE2:9848, V-B:TYR:539:CD2:9846, V-B:ILE:538:CA:9832, V-B:TYR:539:CE1:9847, V-B:PRO:540:N:9856, V-B:TYR:531:CE2:9765, H-A:TYR:484:OH:4348, V-A:LEU:475:CD2:4259, V-B:TYR:531:CZ:9766, V-A:ILE:369:CD1:3239, V-A:GLY:454:CA:4049"]

$$$$
RR32_Rahimova_2017-again1
     RDKit          3D

 38 40  0  0  0  0  0  0  0  0999 V2000
  132.7780  121.8350   60.0140 C   0  0  0  0  0  0  0  0  0  0  0  0
  131.5120  121.3640   60.7150 C   0  0  0  0  0  0  0  0  0  0  0  0
  130.7090  122.2730   61.4030 C   0  0  0  0  0  0  0  0  0  0  0  0
  129.5430  121.8380   62.0430 C   0  0  0  0  0  0  0  0  0  0  0  0
  128.7280  122.7310   62.7470 N   0  0  0  0  0  0  0  0  0  0  0  0
  129.1630  124.1250   62.9670 C   0  0  0  0  0  0  0  0  0  0  0  0
  128.7880  125.0560   61.7890 C   0  0  0  0  0  0  0  0  0  0  0  0
  127.2540  125.0640   61.6390 N   0  0  0  0  0  0  0  0  0  0  0  0
  126.8240  125.9660   60.4660 C   0  0  0  0  0  0  0  0  0  0  0  0
  126.7710  123.6160   61.4190 C   0  0  0  0  0  0  0  0  0  0  0  0
  127.2570  122.7490   62.6050 C   0  0  0  0  0  0  0  0  0  0  0  0
  129.1790  120.5260   62.0360 N   0  0  0  0  0  0  0  0  0  0  0  0
  129.9410  119.6160   61.3710 C   0  0  0  0  0  0  0  0  0  0  0  0
  129.5230  118.2640   61.3710 C   0  0  0  0  0  0  0  0  0  0  0  0
  130.2710  117.3000   60.7010 C   0  0  0  0  0  0  0  0  0  0  0  0
  131.4350  117.6520   60.0250 C   0  0  0  0  0  0  0  0  0  0  0  0
  131.8730  118.9740   60.0080 C   0  0  0  0  0  0  0  0  0  0  0  0
  131.1350  119.9870   60.6800 C   0  0  0  0  0  0  0  0  0  0  0  0
  133.5308  122.1151   60.7656 H   0  0  0  0  0  0  0  0  0  0  0  0
  133.1723  121.0234   59.3848 H   0  0  0  0  0  0  0  0  0  0  0  0
  132.5460  122.7070   59.3848 H   0  0  0  0  0  0  0  0  0  0  0  0
  130.9929  123.3350   61.4428 H   0  0  0  0  0  0  0  0  0  0  0  0
  128.6842  124.5037   63.8821 H   0  0  0  0  0  0  0  0  0  0  0  0
  130.2595  124.1229   63.0553 H   0  0  0  0  0  0  0  0  0  0  0  0
  129.1458  126.0758   61.9940 H   0  0  0  0  0  0  0  0  0  0  0  0
  129.2549  124.6949   60.8608 H   0  0  0  0  0  0  0  0  0  0  0  0
  126.8500  125.4100   62.4980 H   0  0  0  0  0  0  0  0  0  0  0  0
  126.3820  126.8933   60.8594 H   0  0  0  0  0  0  0  0  0  0  0  0
  127.7023  126.2108   59.8506 H   0  0  0  0  0  0  0  0  0  0  0  0
  126.0808  125.4378   59.8506 H   0  0  0  0  0  0  0  0  0  0  0  0
  125.6723  123.5950   61.3702 H   0  0  0  0  0  0  0  0  0  0  0  0
  127.1767  123.2234   60.4749 H   0  0  0  0  0  0  0  0  0  0  0  0
  126.8209  123.1487   63.5324 H   0  0  0  0  0  0  0  0  0  0  0  0
  126.9342  121.7158   62.4092 H   0  0  0  0  0  0  0  0  0  0  0  0
  128.6043  117.9740   61.9020 H   0  0  0  0  0  0  0  0  0  0  0  0
  129.9391  116.2513   60.7060 H   0  0  0  0  0  0  0  0  0  0  0  0
  132.0147  116.8791   59.4991 H   0  0  0  0  0  0  0  0  0  0  0  0
  132.7964  119.2364   59.4709 H   0  0  0  0  0  0  0  0  0  0  0  0
  1  2  1  0
  2  3  2  0
  3  4  1  0
  4  5  1  0
  5  6  1  0
  6  7  1  0
  7  8  1  0
  8  9  1  0
  8 10  1  0
 10 11  1  0
  4 12  2  0
 12 13  1  0
 13 14  2  0
 14 15  1  0
 15 16  2  0
 16 17  1  0
 17 18  2  0
 18  2  1  0
 11  5  1  0
 18 13  1  0
  1 19  1  0
  1 20  1  0
  1 21  1  0
  3 22  1  0
  6 23  1  0
  6 24  1  0
  7 25  1  0
  7 26  1  0
  8 27  1  0
  9 28  1  0
  9 29  1  0
  9 30  1  0
 10 31  1  0
 10 32  1  0
 11 33  1  0
 11 34  1  0
 14 35  1  0
 15 36  1  0
 16 37  1  0
 17 38  1  0
M  CHG  1   8   1
M  END
>  <Binding energies>  (1) 
[-6.92]

>  <Ligand effiencies>  (1) 
[-0.3642105263157895]

>  <Interactions>  (1) 
["V-B:GLU:543:CD:9880, H-B:GLU:543:OE2:9882, V-B:TYR:539:C:9839, V-B:PRO:540:CA:9855, H-B:GLU:543:OE1:9881, V-B:TYR:539:CE2:9848, V-B:TYR:539:CD2:9846, V-B:ALA:541:CB:9864, V-B:PRO:540:C:9853, V-A:SER:385:CB:3409, V-A:PRO:482:CB:4326, V-A:LEU:475:CD1:4258, V-A:LEU:475:CD2:4259, V-A:ILE:369:CG2:3237, V-A:PRO:482:CG:4327, H-B:ALA:541:N:9863, V-A:TYR:484:CZ:4347, V-B:ALA:541:CA:9862, V-B:GLU:543:CG:9879, V-A:TYR:484:CE1:4345"]

$$$$
RR32_Rahimova_2017-again2
     RDKit          3D

 39 41  0  0  0  0  0  0  0  0999 V2000
  129.1260  124.5180   56.2560 C   0  0  0  0  0  0  0  0  0  0  0  0
  128.0950  124.8100   57.3380 C   0  0  0  0  0  0  0  0  0  0  0  0
  128.3920  125.7070   58.3680 C   0  0  0  0  0  0  0  0  0  0  0  0
  127.4580  125.9830   59.3760 C   0  0  0  0  0  0  0  0  0  0  0  0
  127.7090  126.9110   60.4500 N   0  0  0  0  0  0  0  0  0  0  0  0
  127.5380  126.4980   61.8690 C   0  0  0  0  0  0  0  0  0  0  0  0
  128.8250  125.8110   62.4000 C   0  0  0  0  0  0  0  0  0  0  0  0
  130.0160  126.7930   62.2910 N   0  0  0  0  0  0  0  0  0  0  0  0
  131.3250  126.1260   62.7570 C   0  0  0  0  0  0  0  0  0  0  0  0
  130.1470  127.3150   60.8410 C   0  0  0  0  0  0  0  0  0  0  0  0
  128.7920  127.9260   60.3930 C   0  0  0  0  0  0  0  0  0  0  0  0
  126.2620  125.3630   59.3150 N   0  0  0  0  0  0  0  0  0  0  0  0
  125.8810  124.4680   58.3420 C   0  0  0  0  0  0  0  0  0  0  0  0
  124.6000  123.8720   58.3730 C   0  0  0  0  0  0  0  0  0  0  0  0
  124.2470  122.9730   57.3700 C   0  0  0  0  0  0  0  0  0  0  0  0
  125.1410  122.6630   56.3480 C   0  0  0  0  0  0  0  0  0  0  0  0
  126.4090  123.2440   56.3050 C   0  0  0  0  0  0  0  0  0  0  0  0
  126.8170  124.1680   57.3080 C   0  0  0  0  0  0  0  0  0  0  0  0
  130.0832  124.2469   56.7252 H   0  0  0  0  0  0  0  0  0  0  0  0
  128.7750  123.6839   55.6306 H   0  0  0  0  0  0  0  0  0  0  0  0
  129.2645  125.4122   55.6306 H   0  0  0  0  0  0  0  0  0  0  0  0
  129.3733  126.2037   58.3878 H   0  0  0  0  0  0  0  0  0  0  0  0
  127.3248  127.3871   62.4806 H   0  0  0  0  0  0  0  0  0  0  0  0
  126.7044  125.7830   61.9310 H   0  0  0  0  0  0  0  0  0  0  0  0
  128.6806  125.5251   63.4523 H   0  0  0  0  0  0  0  0  0  0  0  0
  129.0347  124.9122   61.8015 H   0  0  0  0  0  0  0  0  0  0  0  0
  129.8180  127.5860   62.8870 H   0  0  0  0  0  0  0  0  0  0  0  0
  131.3570  126.1097   63.8564 H   0  0  0  0  0  0  0  0  0  0  0  0
  131.3683  125.0959   62.3736 H   0  0  0  0  0  0  0  0  0  0  0  0
  132.1839  126.6964   62.3736 H   0  0  0  0  0  0  0  0  0  0  0  0
  130.9305  128.0859   60.7971 H   0  0  0  0  0  0  0  0  0  0  0  0
  130.4163  126.4840   60.1724 H   0  0  0  0  0  0  0  0  0  0  0  0
  128.5365  128.7632   61.0591 H   0  0  0  0  0  0  0  0  0  0  0  0
  128.8905  128.2774   59.3553 H   0  0  0  0  0  0  0  0  0  0  0  0
  125.5920  125.5780   60.0380 H   0  0  0  0  0  0  0  0  0  0  0  0
  123.8914  124.1150   59.1785 H   0  0  0  0  0  0  0  0  0  0  0  0
  123.2525  122.5031   57.3849 H   0  0  0  0  0  0  0  0  0  0  0  0
  124.8436  121.9507   55.5643 H   0  0  0  0  0  0  0  0  0  0  0  0
  127.0995  122.9856   55.4886 H   0  0  0  0  0  0  0  0  0  0  0  0
  1  2  1  0
  2  3  2  0
  3  4  1  0
  4  5  1  0
  5  6  1  0
  6  7  1  0
  7  8  1  0
  8  9  1  0
  8 10  1  0
 10 11  1  0
  4 12  2  0
 12 13  1  0
 13 14  2  0
 14 15  1  0
 15 16  2  0
 16 17  1  0
 17 18  2  0
 18  2  1  0
 11  5  1  0
 18 13  1  0
  1 19  1  0
  1 20  1  0
  1 21  1  0
  3 22  1  0
  6 23  1  0
  6 24  1  0
  7 25  1  0
  7 26  1  0
  8 27  1  0
  9 28  1  0
  9 29  1  0
  9 30  1  0
 10 31  1  0
 10 32  1  0
 11 33  1  0
 11 34  1  0
 12 35  1  0
 14 36  1  0
 15 37  1  0
 16 38  1  0
 17 39  1  0
M  CHG  2   8   1  12   1
M  END
>  <Binding energies>  (1) 
[-7.23]

>  <Ligand effiencies>  (1) 
[-0.36150000000000004]

>  <Interactions>  (1) 
["V-B:ILE:538:CD1:9837, V-B:PRO:540:CB:9857, V-B:PRO:540:CD:9859, V-B:LEU:363:CD1:8161, V-B:GLU:543:CD:9880, V-B:PRO:540:CA:9855, V-B:ILE:538:CG2:9835, V-B:TYR:539:CE2:9848, V-B:MET:535:CE:9807, V-B:TYR:539:CZ:9849, H-B:ASP:366:OD2:8187, V-B:TYR:539:CE1:9847, V-B:PRO:540:N:9856, V-B:TYR:531:CE2:9765, V-B:ASP:366:CG:8185, V-A:GLU:543:CD:4908, H-A:GLU:543:OE1:4909, H-A:GLU:543:OE2:4910, V-B:PRO:540:CG:9858"]

$$$$
RR33_Rahimova_2017
     RDKit          3D

 36 37  0  0  0  0  0  0  0  0999 V2000
  124.6390  122.9200   56.7630 C   0  0  0  0  0  0  0  0  0  0  0  0
  125.7050  123.0570   55.6720 C   0  0  0  0  0  0  0  0  0  0  0  0
  126.8750  122.3570   56.0840 O   0  0  0  0  0  0  0  0  0  0  0  0
  127.5930  122.8170   57.1710 C   0  0  0  0  0  0  0  0  0  0  0  0
  128.5650  123.7820   56.9100 C   0  0  0  0  0  0  0  0  0  0  0  0
  129.3410  124.3030   57.9420 C   0  0  0  0  0  0  0  0  0  0  0  0
  129.1540  123.8640   59.2560 C   0  0  0  0  0  0  0  0  0  0  0  0
  129.9890  124.4230   60.3640 C   0  0  0  0  0  0  0  0  0  0  0  0
  131.3000  124.4530   60.4440 N   0  0  0  0  0  0  0  0  0  0  0  0
  131.5670  125.0430   61.5990 C   0  0  0  0  0  0  0  0  0  0  0  0
  132.9950  125.2720   62.0440 C   0  0  0  0  0  0  0  0  0  0  0  0
  133.5030  124.1100   62.7580 N   0  0  0  0  0  0  0  0  0  0  0  0
  133.6470  122.9780   61.8580 C   0  0  0  0  0  0  0  0  0  0  0  0
  130.3790  125.3790   62.2360 C   0  0  0  0  0  0  0  0  0  0  0  0
  130.0110  126.0540   63.5350 C   0  0  0  0  0  0  0  0  0  0  0  0
  129.3650  124.9770   61.4360 O   0  0  0  0  0  0  0  0  0  0  0  0
  128.1780  122.8990   59.5230 C   0  0  0  0  0  0  0  0  0  0  0  0
  127.4020  122.3770   58.4900 C   0  0  0  0  0  0  0  0  0  0  0  0
  125.1166  122.9814   57.7520 H   0  0  0  0  0  0  0  0  0  0  0  0
  123.9029  123.7309   56.6603 H   0  0  0  0  0  0  0  0  0  0  0  0
  124.1319  121.9493   56.6603 H   0  0  0  0  0  0  0  0  0  0  0  0
  125.3291  122.6277   54.7316 H   0  0  0  0  0  0  0  0  0  0  0  0
  125.9416  124.1192   55.5115 H   0  0  0  0  0  0  0  0  0  0  0  0
  128.7201  124.1348   55.8797 H   0  0  0  0  0  0  0  0  0  0  0  0
  130.1047  125.0636   57.7224 H   0  0  0  0  0  0  0  0  0  0  0  0
  133.6236  125.4563   61.1603 H   0  0  0  0  0  0  0  0  0  0  0  0
  133.0208  126.1409   62.7181 H   0  0  0  0  0  0  0  0  0  0  0  0
  132.8570  123.8640   63.4950 H   0  0  0  0  0  0  0  0  0  0  0  0
  133.7644  122.0553   62.4452 H   0  0  0  0  0  0  0  0  0  0  0  0
  132.7518  122.8976   61.2238 H   0  0  0  0  0  0  0  0  0  0  0  0
  134.5338  123.1243   61.2238 H   0  0  0  0  0  0  0  0  0  0  0  0
  130.3488  125.4344   64.3788 H   0  0  0  0  0  0  0  0  0  0  0  0
  130.4966  127.0397   63.5864 H   0  0  0  0  0  0  0  0  0  0  0  0
  128.9194  126.1799   63.5864 H   0  0  0  0  0  0  0  0  0  0  0  0
  128.0219  122.5499   60.5544 H   0  0  0  0  0  0  0  0  0  0  0  0
  126.6371  121.6175   58.7091 H   0  0  0  0  0  0  0  0  0  0  0  0
  1  2  1  0
  2  3  1  0
  3  4  1  0
  4  5  2  0
  5  6  1  0
  6  7  2  0
  7  8  1  0
  8  9  2  0
  9 10  1  0
 10 11  1  0
 11 12  1  0
 12 13  1  0
 10 14  2  0
 14 15  1  0
 14 16  1  0
  7 17  1  0
 17 18  2  0
 18  4  1  0
 16  8  1  0
  1 19  1  0
  1 20  1  0
  1 21  1  0
  2 22  1  0
  2 23  1  0
  5 24  1  0
  6 25  1  0
 11 26  1  0
 11 27  1  0
 12 28  1  0
 13 29  1  0
 13 30  1  0
 13 31  1  0
 15 32  1  0
 15 33  1  0
 15 34  1  0
 17 35  1  0
 18 36  1  0
M  END
>  <Binding energies>  (1) 
[-5.45]

>  <Ligand effiencies>  (1) 
[-0.2868421052631579]

>  <Interactions>  (1) 
["V-B:TYR:539:CD1:9845, V-B:ILE:538:CD1:9837, V-B:PRO:540:CB:9857, V-B:PRO:540:CD:9859, V-B:LEU:363:CD1:8161, V-B:GLU:543:CD:9880, V-B:TYR:539:C:9839, V-B:PRO:540:CA:9855, H-B:TYR:539:N:9842, V-B:TYR:539:CE2:9848, V-B:TYR:539:CD2:9846, V-B:MET:535:CE:9807, V-B:TYR:539:CZ:9849, V-B:TYR:539:CE1:9847, V-B:PRO:540:N:9856, V-B:TYR:531:CE2:9765, H-A:TYR:484:OH:4348, V-A:ASP:366:CG:3213, V-B:TYR:539:CG:9844, V-B:TYR:531:CZ:9766, V-A:ILE:369:CD1:3239, V-A:GLY:454:CA:4049, V-A:GLU:543:CD:4908, H-A:GLY:454:N:4050, V-A:ARG:545:CZ:4926"]

$$$$
RR33_Rahimova_2017-again1
     RDKit          3D

 37 38  0  0  0  0  0  0  0  0999 V2000
  127.1090  122.7010   54.7600 C   0  0  0  0  0  0  0  0  0  0  0  0
  125.7520  122.5800   55.4600 C   0  0  0  0  0  0  0  0  0  0  0  0
  125.9490  122.0010   56.7460 O   0  0  0  0  0  0  0  0  0  0  0  0
  126.4990  122.7650   57.7570 C   0  0  0  0  0  0  0  0  0  0  0  0
  127.8920  122.7860   57.8340 C   0  0  0  0  0  0  0  0  0  0  0  0
  128.5380  123.5290   58.8190 C   0  0  0  0  0  0  0  0  0  0  0  0
  127.7940  124.2640   59.7480 C   0  0  0  0  0  0  0  0  0  0  0  0
  128.4830  125.0630   60.8070 C   0  0  0  0  0  0  0  0  0  0  0  0
  127.9880  126.0570   61.5110 N   0  0  0  0  0  0  0  0  0  0  0  0
  128.9680  126.4410   62.3160 C   0  0  0  0  0  0  0  0  0  0  0  0
  128.7800  127.5900   63.2880 C   0  0  0  0  0  0  0  0  0  0  0  0
  127.3100  127.6330   63.7380 N   0  0  0  0  0  0  0  0  0  0  0  0
  126.6420  128.9990   63.5220 C   0  0  0  0  0  0  0  0  0  0  0  0
  130.0920  125.6580   62.0830 C   0  0  0  0  0  0  0  0  0  0  0  0
  131.4910  125.5920   62.6440 C   0  0  0  0  0  0  0  0  0  0  0  0
  129.7720  124.7710   61.1120 O   0  0  0  0  0  0  0  0  0  0  0  0
  126.3960  124.2450   59.6740 C   0  0  0  0  0  0  0  0  0  0  0  0
  125.7530  123.5030   58.6880 C   0  0  0  0  0  0  0  0  0  0  0  0
  127.9059  122.7721   55.5149 H   0  0  0  0  0  0  0  0  0  0  0  0
  127.2776  121.8143   54.1312 H   0  0  0  0  0  0  0  0  0  0  0  0
  127.1180  123.6035   54.1312 H   0  0  0  0  0  0  0  0  0  0  0  0
  125.3019  123.5778   55.5688 H   0  0  0  0  0  0  0  0  0  0  0  0
  125.0791  121.9461   54.8638 H   0  0  0  0  0  0  0  0  0  0  0  0
  128.4860  122.2098   57.1093 H   0  0  0  0  0  0  0  0  0  0  0  0
  129.6369  123.5379   58.8666 H   0  0  0  0  0  0  0  0  0  0  0  0
  129.4291  127.4417   64.1636 H   0  0  0  0  0  0  0  0  0  0  0  0
  129.0452  128.5380   62.7970 H   0  0  0  0  0  0  0  0  0  0  0  0
  126.7930  126.9310   63.2300 H   0  0  0  0  0  0  0  0  0  0  0  0
  127.2670  127.4010   64.7200 H   0  0  0  0  0  0  0  0  0  0  0  0
  126.4184  129.4561   64.4972 H   0  0  0  0  0  0  0  0  0  0  0  0
  127.3214  129.6542   62.9570 H   0  0  0  0  0  0  0  0  0  0  0  0
  125.7077  128.8650   62.9570 H   0  0  0  0  0  0  0  0  0  0  0  0
  131.4458  125.5941   63.7431 H   0  0  0  0  0  0  0  0  0  0  0  0
  131.9813  124.6697   62.2990 H   0  0  0  0  0  0  0  0  0  0  0  0
  132.0659  126.4640   62.2990 H   0  0  0  0  0  0  0  0  0  0  0  0
  125.8023  124.8202   60.3998 H   0  0  0  0  0  0  0  0  0  0  0  0
  124.6542  123.4951   58.6383 H   0  0  0  0  0  0  0  0  0  0  0  0
  1  2  1  0
  2  3  1  0
  3  4  1  0
  4  5  2  0
  5  6  1  0
  6  7  2  0
  7  8  1  0
  8  9  2  0
  9 10  1  0
 10 11  1  0
 11 12  1  0
 12 13  1  0
 10 14  2  0
 14 15  1  0
 14 16  1  0
  7 17  1  0
 17 18  2  0
 18  4  1  0
 16  8  1  0
  1 19  1  0
  1 20  1  0
  1 21  1  0
  2 22  1  0
  2 23  1  0
  5 24  1  0
  6 25  1  0
 11 26  1  0
 11 27  1  0
 12 28  1  0
 12 29  1  0
 13 30  1  0
 13 31  1  0
 13 32  1  0
 15 33  1  0
 15 34  1  0
 15 35  1  0
 17 36  1  0
 18 37  1  0
M  CHG  1  12   1
M  END
>  <Binding energies>  (1) 
[-6.64]

>  <Ligand effiencies>  (1) 
[-0.33199999999999996]

>  <Interactions>  (1) 
["V-B:TYR:539:CD1:9845, V-B:ILE:538:CD1:9837, V-B:PRO:540:CB:9857, V-B:PRO:540:CD:9859, V-B:GLU:543:CD:9880, H-B:GLU:543:OE2:9882, V-B:TYR:539:C:9839, V-B:PRO:540:CA:9855, H-B:TYR:539:N:9842, V-B:ILE:538:CG2:9835, H-B:GLU:543:OE1:9881, V-B:TYR:539:CE2:9848, V-B:TYR:539:CD2:9846, V-B:ILE:538:CA:9832, V-B:MET:535:CE:9807, V-B:TYR:539:CZ:9849, V-B:TYR:539:CE1:9847, V-B:PRO:540:N:9856, V-B:TYR:539:CG:9844, V-B:ILE:538:CB:9834, V-A:GLU:543:CD:4908, V-B:VAL:537:C:9822"]

$$$$
RR3_Rahimova_2017
     RDKit          3D

 63 69  0  0  0  0  0  0  0  0999 V2000
  124.2360  128.9930   67.0070 C   0  0  0  0  0  0  0  0  0  0  0  0
  123.8440  129.5840   65.8100 C   0  0  0  0  0  0  0  0  0  0  0  0
  124.7040  129.5600   64.7160 C   0  0  0  0  0  0  0  0  0  0  0  0
  125.9620  128.9450   64.8020 C   0  0  0  0  0  0  0  0  0  0  0  0
  126.8850  128.9180   63.6230 C   0  0  0  0  0  0  0  0  0  0  0  0
  127.4680  130.0970   63.1380 C   0  0  0  0  0  0  0  0  0  0  0  0
  128.3230  130.0720   62.0400 C   0  0  0  0  0  0  0  0  0  0  0  0
  128.6100  128.8660   61.3960 C   0  0  0  0  0  0  0  0  0  0  0  0
  129.5240  128.8330   60.2120 C   0  0  0  0  0  0  0  0  0  0  0  0
  129.7830  129.9500   59.5410 N   0  0  0  0  0  0  0  0  0  0  0  0
  130.6360  129.6320   58.5980 C   0  0  0  0  0  0  0  0  0  0  0  0
  131.1950  130.5610   57.6190 C   0  0  0  0  0  0  0  0  0  0  0  0
  132.5230  130.9450   57.5340 C   0  0  0  0  0  0  0  0  0  0  0  0
  132.6950  131.8220   56.4940 N   0  0  0  0  0  0  0  0  0  0  0  0
  131.4910  132.0450   55.8640 C   0  0  0  0  0  0  0  0  0  0  0  0
  131.1690  132.8510   54.7670 C   0  0  0  0  0  0  0  0  0  0  0  0
  129.8350  132.8650   54.3610 C   0  0  0  0  0  0  0  0  0  0  0  0
  128.8620  132.1150   55.0120 C   0  0  0  0  0  0  0  0  0  0  0  0
  129.1820  131.3100   56.1050 C   0  0  0  0  0  0  0  0  0  0  0  0
  130.5140  131.2600   56.5550 C   0  0  0  0  0  0  0  0  0  0  0  0
  130.9370  128.2980   58.6400 N   0  0  0  0  0  0  0  0  0  0  0  0
  130.2150  127.7390   59.6630 C   0  0  0  0  0  0  0  0  0  0  0  0
  130.2430  126.2780   59.9710 C   0  0  0  0  0  0  0  0  0  0  0  0
  130.0010  125.3450   58.9630 C   0  0  0  0  0  0  0  0  0  0  0  0
  130.0140  123.9830   59.2490 C   0  0  0  0  0  0  0  0  0  0  0  0
  130.2730  123.5220   60.5470 C   0  0  0  0  0  0  0  0  0  0  0  0
  130.2670  122.0580   60.8560 C   0  0  0  0  0  0  0  0  0  0  0  0
  129.2220  121.4830   61.5940 C   0  0  0  0  0  0  0  0  0  0  0  0
  129.2140  120.1190   61.8770 C   0  0  0  0  0  0  0  0  0  0  0  0
  130.2540  119.3140   61.4230 C   0  0  0  0  0  0  0  0  0  0  0  0
  131.3000  119.8630   60.6880 C   0  0  0  0  0  0  0  0  0  0  0  0
  131.3050  121.2270   60.4080 C   0  0  0  0  0  0  0  0  0  0  0  0
  130.5330  124.4700   61.5480 C   0  0  0  0  0  0  0  0  0  0  0  0
  130.5200  125.8320   61.2650 C   0  0  0  0  0  0  0  0  0  0  0  0
  128.0440  127.6850   61.8800 C   0  0  0  0  0  0  0  0  0  0  0  0
  127.1890  127.7120   62.9780 C   0  0  0  0  0  0  0  0  0  0  0  0
  126.3350  128.3560   66.0190 C   0  0  0  0  0  0  0  0  0  0  0  0
  125.4780  128.3780   67.1160 C   0  0  0  0  0  0  0  0  0  0  0  0
  123.5584  129.0125   67.8733 H   0  0  0  0  0  0  0  0  0  0  0  0
  122.8594  130.0677   65.7287 H   0  0  0  0  0  0  0  0  0  0  0  0
  124.3931  130.0296   63.7711 H   0  0  0  0  0  0  0  0  0  0  0  0
  127.2468  131.0547   63.6318 H   0  0  0  0  0  0  0  0  0  0  0  0
  128.7752  131.0069   61.6774 H   0  0  0  0  0  0  0  0  0  0  0  0
  133.3234  130.5970   58.2035 H   0  0  0  0  0  0  0  0  0  0  0  0
  133.5940  132.2180   56.2620 H   0  0  0  0  0  0  0  0  0  0  0  0
  131.9339  133.4471   54.2478 H   0  0  0  0  0  0  0  0  0  0  0  0
  129.5443  133.4869   53.5015 H   0  0  0  0  0  0  0  0  0  0  0  0
  127.8212  132.1573   54.6587 H   0  0  0  0  0  0  0  0  0  0  0  0
  128.4019  130.7209   56.6094 H   0  0  0  0  0  0  0  0  0  0  0  0
  131.5570  127.8080   58.0120 H   0  0  0  0  0  0  0  0  0  0  0  0
  129.7989  125.6872   57.9373 H   0  0  0  0  0  0  0  0  0  0  0  0
  129.8183  123.2582   58.4451 H   0  0  0  0  0  0  0  0  0  0  0  0
  128.3984  122.1171   61.9539 H   0  0  0  0  0  0  0  0  0  0  0  0
  128.3888  119.6802   62.4571 H   0  0  0  0  0  0  0  0  0  0  0  0
  130.2492  118.2370   61.6465 H   0  0  0  0  0  0  0  0  0  0  0  0
  132.1193  119.2224   60.3297 H   0  0  0  0  0  0  0  0  0  0  0  0
  132.1338  121.6588   59.8278 H   0  0  0  0  0  0  0  0  0  0  0  0
  130.7503  124.1313   62.5717 H   0  0  0  0  0  0  0  0  0  0  0  0
  130.7286  126.5599   62.0630 H   0  0  0  0  0  0  0  0  0  0  0  0
  128.2752  126.7274   61.3906 H   0  0  0  0  0  0  0  0  0  0  0  0
  126.7461  126.7740   63.3442 H   0  0  0  0  0  0  0  0  0  0  0  0
  127.3179  127.8701   66.1079 H   0  0  0  0  0  0  0  0  0  0  0  0
  125.7822  127.9110   68.0644 H   0  0  0  0  0  0  0  0  0  0  0  0
  1  2  2  0
  2  3  1  0
  3  4  2  0
  4  5  1  0
  5  6  2  0
  6  7  1  0
  7  8  2  0
  8  9  1  0
  9 10  1  0
 10 11  2  0
 11 12  1  0
 12 13  2  0
 13 14  1  0
 14 15  1  0
 15 16  2  0
 16 17  1  0
 17 18  2  0
 18 19  1  0
 19 20  2  0
 11 21  1  0
 21 22  1  0
 22 23  1  0
 23 24  2  0
 24 25  1  0
 25 26  2  0
 26 27  1  0
 27 28  2  0
 28 29  1  0
 29 30  2  0
 30 31  1  0
 31 32  2  0
 26 33  1  0
 33 34  2  0
  8 35  1  0
 35 36  2  0
  4 37  1  0
 37 38  2  0
 38  1  1  0
 36  5  1  0
 22  9  2  0
 34 23  1  0
 20 12  1  0
 32 27  1  0
 20 15  1  0
  1 39  1  0
  2 40  1  0
  3 41  1  0
  6 42  1  0
  7 43  1  0
 13 44  1  0
 14 45  1  0
 16 46  1  0
 17 47  1  0
 18 48  1  0
 19 49  1  0
 21 50  1  0
 24 51  1  0
 25 52  1  0
 28 53  1  0
 29 54  1  0
 30 55  1  0
 31 56  1  0
 32 57  1  0
 33 58  1  0
 34 59  1  0
 35 60  1  0
 36 61  1  0
 37 62  1  0
 38 63  1  0
M  END
>  <Binding energies>  (1) 
[-8.02]

>  <Ligand effiencies>  (1) 
[-0.20049999999999998]

>  <Interactions>  (1) 
["V-B:GLU:543:CD:9880, V-B:TYR:539:CE2:9848, V-B:TYR:539:CD2:9846, V-B:ALA:541:CB:9864, V-B:PRO:540:C:9853, V-A:LEU:475:CD1:4258, V-A:ASP:366:CG:3213, V-A:LEU:475:CD2:4259, V-A:LEU:475:CG:4257, V-A:PRO:540:CB:4885, V-A:TYR:539:CE2:4876, V-A:LEU:363:CD1:3189, H-A:ASP:366:OD1:3214, V-A:ILE:538:CA:4860, V-A:ILE:538:CB:4862, V-A:ILE:538:CG2:4863, H-A:TYR:531:OH:4795, V-B:ARG:545:CZ:9898, V-B:HIS:456:CE1:9042, V-A:ILE:538:C:4858, V-A:TYR:539:CD2:4874, V-B:ARG:545:CD:9895, V-B:ARG:545:CG:9894, V-B:ALA:541:CA:9862, V-B:GLY:454:CA:9021, V-B:GLY:453:C:9014, V-B:GLY:453:CA:9016, V-B:ARG:545:CB:9893"]

$$$$
RR4_Rahimova_2017
     RDKit          3D

 66 70  0  0  0  0  0  0  0  0999 V2000
  126.5240  122.6900   54.3770 C   0  0  0  0  0  0  0  0  0  0  0  0
  125.9660  122.3230   55.6340 O   0  0  0  0  0  0  0  0  0  0  0  0
  126.2460  123.0930   56.7460 C   0  0  0  0  0  0  0  0  0  0  0  0
  127.4900  123.7190   56.7770 C   0  0  0  0  0  0  0  0  0  0  0  0
  127.8580  124.5150   57.8570 C   0  0  0  0  0  0  0  0  0  0  0  0
  126.9920  124.7070   58.9430 C   0  0  0  0  0  0  0  0  0  0  0  0
  127.3920  125.5670   60.1080 C   0  0  0  0  0  0  0  0  0  0  0  0
  128.5720  125.3610   60.8310 C   0  0  0  0  0  0  0  0  0  0  0  0
  128.9040  126.1930   61.9080 C   0  0  0  0  0  0  0  0  0  0  0  0
  130.1940  125.9300   62.6140 C   0  0  0  0  0  0  0  0  0  0  0  0
  130.2480  125.9620   64.0110 C   0  0  0  0  0  0  0  0  0  0  0  0
  131.4430  125.7070   64.6780 C   0  0  0  0  0  0  0  0  0  0  0  0
  132.6040  125.4090   63.9640 C   0  0  0  0  0  0  0  0  0  0  0  0
  133.7420  125.1690   64.7100 O   0  0  0  0  0  0  0  0  0  0  0  0
  133.6330  125.0530   66.1250 C   0  0  0  0  0  0  0  0  0  0  0  0
  132.5530  125.3710   62.5630 C   0  0  0  0  0  0  0  0  0  0  0  0
  131.3560  125.6270   61.8980 C   0  0  0  0  0  0  0  0  0  0  0  0
  128.0040  127.2270   62.2640 C   0  0  0  0  0  0  0  0  0  0  0  0
  128.3030  128.1270   63.3820 C   0  0  0  0  0  0  0  0  0  0  0  0
  128.5390  128.8370   64.2640 N   0  0  0  0  0  0  0  0  0  0  0  0
  126.8160  127.3590   61.5090 C   0  0  0  0  0  0  0  0  0  0  0  0
  125.5690  128.5910   61.8220 S   0  0  0  0  0  0  0  0  0  0  0  0
  125.0320  129.2600   60.2120 C   0  0  0  0  0  0  0  0  0  0  0  0
  126.0170  130.2480   59.5730 C   0  0  0  0  0  0  0  0  0  0  0  0
  126.0540  131.4240   59.9430 O   0  0  0  0  0  0  0  0  0  0  0  0
  126.7930  129.7220   58.5960 N   0  0  0  0  0  0  0  0  0  0  0  0
  127.7770  130.3550   57.8330 C   0  0  0  0  0  0  0  0  0  0  0  0
  129.0890  131.2610   58.5400 S   0  0  0  0  0  0  0  0  0  0  0  0
  129.7370  131.6490   56.9760 C   0  0  0  0  0  0  0  0  0  0  0  0
  128.9600  131.0990   55.9440 C   0  0  0  0  0  0  0  0  0  0  0  0
  127.8600  130.3540   56.4320 C   0  0  0  0  0  0  0  0  0  0  0  0
  126.9080  129.6650   55.5660 C   0  0  0  0  0  0  0  0  0  0  0  0
  126.1540  129.1190   54.8790 N   0  0  0  0  0  0  0  0  0  0  0  0
  129.3470  131.2700   54.4700 C   0  0  0  0  0  0  0  0  0  0  0  0
  130.8170  131.7290   54.3420 C   0  0  0  0  0  0  0  0  0  0  0  0
  131.1560  132.8710   55.3160 C   0  0  0  0  0  0  0  0  0  0  0  0
  131.0310  132.4320   56.7900 C   0  0  0  0  0  0  0  0  0  0  0  0
  126.5350  126.5610   60.4520 N   0  0  0  0  0  0  0  0  0  0  0  0
  125.7390  124.0760   58.9020 C   0  0  0  0  0  0  0  0  0  0  0  0
  125.3670  123.2780   57.8230 C   0  0  0  0  0  0  0  0  0  0  0  0
  127.4329  123.2878   54.5398 H   0  0  0  0  0  0  0  0  0  0  0  0
  126.7787  121.7825   53.8099 H   0  0  0  0  0  0  0  0  0  0  0  0
  125.7916  123.2833   53.8099 H   0  0  0  0  0  0  0  0  0  0  0  0
  128.1889  123.5825   55.9386 H   0  0  0  0  0  0  0  0  0  0  0  0
  128.8445  125.0017   57.8590 H   0  0  0  0  0  0  0  0  0  0  0  0
  129.2456  124.5377   60.5510 H   0  0  0  0  0  0  0  0  0  0  0  0
  129.3393  126.1904   64.5872 H   0  0  0  0  0  0  0  0  0  0  0  0
  131.4721  125.7407   65.7771 H   0  0  0  0  0  0  0  0  0  0  0  0
  134.3107  125.7742   66.6053 H   0  0  0  0  0  0  0  0  0  0  0  0
  132.5975  125.2626   66.4314 H   0  0  0  0  0  0  0  0  0  0  0  0
  133.9066  124.0326   66.4314 H   0  0  0  0  0  0  0  0  0  0  0  0
  133.4611  125.1383   61.9874 H   0  0  0  0  0  0  0  0  0  0  0  0
  131.3247  125.5904   60.7991 H   0  0  0  0  0  0  0  0  0  0  0  0
  124.8926  128.4172   59.5190 H   0  0  0  0  0  0  0  0  0  0  0  0
  124.1043  129.8204   60.3998 H   0  0  0  0  0  0  0  0  0  0  0  0
  126.6600  128.7430   58.3920 H   0  0  0  0  0  0  0  0  0  0  0  0
  129.2220  130.3089   53.9498 H   0  0  0  0  0  0  0  0  0  0  0  0
  128.6969  132.0345   54.0196 H   0  0  0  0  0  0  0  0  0  0  0  0
  131.4751  130.8739   54.5559 H   0  0  0  0  0  0  0  0  0  0  0  0
  130.9663  132.1027   53.3182 H   0  0  0  0  0  0  0  0  0  0  0  0
  132.1888  133.2008   55.1304 H   0  0  0  0  0  0  0  0  0  0  0  0
  130.4395  133.6877   55.1435 H   0  0  0  0  0  0  0  0  0  0  0  0
  131.8871  131.7952   57.0573 H   0  0  0  0  0  0  0  0  0  0  0  0
  131.0198  133.3203   57.4387 H   0  0  0  0  0  0  0  0  0  0  0  0
  125.0375  124.2144   59.7379 H   0  0  0  0  0  0  0  0  0  0  0  0
  124.3806  122.7912   57.8155 H   0  0  0  0  0  0  0  0  0  0  0  0
  1  2  1  0
  2  3  1  0
  3  4  2  0
  4  5  1  0
  5  6  2  0
  6  7  1  0
  7  8  2  0
  8  9  1  0
  9 10  1  0
 10 11  2  0
 11 12  1  0
 12 13  2  0
 13 14  1  0
 14 15  1  0
 13 16  1  0
 16 17  2  0
  9 18  2  0
 18 19  1  0
 19 20  3  0
 18 21  1  0
 21 22  1  0
 22 23  1  0
 23 24  1  0
 24 25  2  0
 24 26  1  0
 26 27  1  0
 27 28  1  0
 28 29  1  0
 29 30  2  0
 30 31  1  0
 31 32  1  0
 32 33  3  0
 30 34  1  0
 34 35  1  0
 35 36  1  0
 36 37  1  0
 21 38  2  0
  6 39  1  0
 39 40  2  0
 40  3  1  0
 38  7  1  0
 17 10  1  0
 31 27  2  0
 37 29  1  0
  1 41  1  0
  1 42  1  0
  1 43  1  0
  4 44  1  0
  5 45  1  0
  8 46  1  0
 11 47  1  0
 12 48  1  0
 15 49  1  0
 15 50  1  0
 15 51  1  0
 16 52  1  0
 17 53  1  0
 23 54  1  0
 23 55  1  0
 26 56  1  0
 34 57  1  0
 34 58  1  0
 35 59  1  0
 35 60  1  0
 36 61  1  0
 36 62  1  0
 37 63  1  0
 37 64  1  0
 39 65  1  0
 40 66  1  0
M  END
>  <Binding energies>  (1) 
[-9.94]

>  <Ligand effiencies>  (1) 
[-0.2424390243902439]

>  <Interactions>  (1) 
["V-B:ILE:538:CD1:9837, V-B:PRO:540:CB:9857, V-B:PRO:540:CD:9859, V-B:GLU:543:CD:9880, V-B:PRO:540:CA:9855, H-B:TYR:539:N:9842, V-B:ILE:538:CA:9832, V-B:MET:535:CE:9807, V-B:PRO:540:N:9856, H-A:TYR:484:OH:4348, V-B:ASP:366:CG:8185, V-A:PRO:540:CA:4883, V-A:TYR:539:C:4867, V-A:PRO:540:N:4884, V-A:PRO:540:CB:4885, V-B:ASP:366:CB:8184, H-B:LYS:534:NZ:9795, V-B:ILE:538:C:9830, V-B:ILE:538:CB:9834, H-B:ARG:545:NH2:9900, V-A:GLU:543:CD:4908, H-A:GLY:454:N:4050, H-A:ARG:545:NH2:4928, V-A:ARG:545:CZ:4926, V-A:PRO:540:CD:4887, V-A:HIS:456:CE1:4070, H-B:TYR:531:OH:9767, V-A:ILE:538:CA:4860, V-A:ILE:538:CB:4862, V-A:TYR:484:CE2:4346, H-A:ARG:545:NE:4924, V-A:TYR:484:CZ:4347, V-A:ARG:545:CG:4922, V-A:ILE:538:CG2:4863, V-A:ARG:545:CD:4923, V-B:ILE:538:CG1:9836, V-A:ILE:538:C:4858, V-B:MET:535:CG:9805, V-B:MET:535:CB:9804, V-B:VAL:537:C:9822"]

$$$$
RR5_Rahimova_2017
     RDKit          3D

 77 82  0  0  0  0  0  0  0  0999 V2000
  130.7120  125.4210   60.0580 O   0  0  0  0  0  0  0  0  0  0  0  0
  130.5750  125.2300   58.8500 C   0  0  0  0  0  0  0  0  0  0  0  0
  131.7360  125.5520   57.8900 C   0  0  0  0  0  0  0  0  0  0  0  0
  131.4390  126.7370   56.9040 C   0  0  2  0  0  0  0  0  0  0  0  0
  130.3670  127.6560   57.3380 N   0  0  0  0  0  0  0  0  0  0  0  0
  130.6520  128.8900   57.9060 C   0  0  0  0  0  0  0  0  0  0  0  0
  131.7700  129.3830   58.0730 O   0  0  0  0  0  0  0  0  0  0  0  0
  129.4930  129.4680   58.2660 O   0  0  0  0  0  0  0  0  0  0  0  0
  129.4520  130.8030   58.7630 C   0  0  0  0  0  0  0  0  0  0  0  0
  128.6740  131.7240   57.7970 C   0  0  0  0  0  0  0  0  0  0  0  0
  129.3370  131.8820   56.4410 C   0  0  0  0  0  0  0  0  0  0  0  0
  130.6160  132.3500   56.1240 C   0  0  0  0  0  0  0  0  0  0  0  0
  131.0320  132.3900   54.7920 C   0  0  0  0  0  0  0  0  0  0  0  0
  130.1740  131.9650   53.7770 C   0  0  0  0  0  0  0  0  0  0  0  0
  128.8950  131.5000   54.0900 C   0  0  0  0  0  0  0  0  0  0  0  0
  128.4810  131.4610   55.4220 C   0  0  0  0  0  0  0  0  0  0  0  0
  127.2100  131.0350   56.0290 C   0  0  0  0  0  0  0  0  0  0  0  0
  126.0340  130.5480   55.4540 C   0  0  0  0  0  0  0  0  0  0  0  0
  124.9470  130.2320   56.2690 C   0  0  0  0  0  0  0  0  0  0  0  0
  125.0350  130.3990   57.6520 C   0  0  0  0  0  0  0  0  0  0  0  0
  126.2130  130.8820   58.2230 C   0  0  0  0  0  0  0  0  0  0  0  0
  127.3050  131.1970   57.4120 C   0  0  0  0  0  0  0  0  0  0  0  0
  131.1270  126.2060   55.4830 C   0  0  0  0  0  0  0  0  0  0  0  0
  131.7740  126.4670   54.4890 O   0  0  0  0  0  0  0  0  0  0  0  0
  130.0330  125.3900   55.5290 O   0  0  0  0  0  0  0  0  0  0  0  0
  129.4670  124.7140   58.2710 N   0  0  0  0  0  0  0  0  0  0  0  0
  128.1440  124.2670   58.8020 C   0  0  0  0  0  0  0  0  0  0  0  0
  127.4970  125.6210   59.2500 C   0  0  0  0  0  0  0  0  0  0  0  0
  127.7220  126.1530   60.5300 C   0  0  0  0  0  0  0  0  0  0  0  0
  127.1420  127.3580   60.9170 C   0  0  0  0  0  0  0  0  0  0  0  0
  126.3190  128.0460   60.0330 C   0  0  0  0  0  0  0  0  0  0  0  0
  126.0800  127.5440   58.7590 C   0  0  0  0  0  0  0  0  0  0  0  0
  126.6680  126.3450   58.3700 C   0  0  0  0  0  0  0  0  0  0  0  0
  127.3710  123.5920   57.6200 C   0  0  0  0  0  0  0  0  0  0  0  0
  127.9850  123.3460   56.3810 C   0  0  0  0  0  0  0  0  0  0  0  0
  127.2720  122.7620   55.3360 C   0  0  0  0  0  0  0  0  0  0  0  0
  125.9360  122.4190   55.5160 C   0  0  0  0  0  0  0  0  0  0  0  0
  125.3070  122.6490   56.7350 C   0  0  0  0  0  0  0  0  0  0  0  0
  126.0230  123.2240   57.7800 C   0  0  0  0  0  0  0  0  0  0  0  0
  128.4580  123.3150   60.0050 C   0  0  0  0  0  0  0  0  0  0  0  0
  129.6220  122.5260   60.0200 C   0  0  0  0  0  0  0  0  0  0  0  0
  129.9020  121.6720   61.0830 C   0  0  0  0  0  0  0  0  0  0  0  0
  129.0230  121.5960   62.1560 C   0  0  0  0  0  0  0  0  0  0  0  0
  127.8710  122.3730   62.1770 C   0  0  0  0  0  0  0  0  0  0  0  0
  127.5950  123.2260   61.1120 C   0  0  0  0  0  0  0  0  0  0  0  0
  132.6190  125.8150   58.4910 H   0  0  0  0  0  0  0  0  0  0  0  0
  131.8959  124.6561   57.2720 H   0  0  0  0  0  0  0  0  0  0  0  0
  132.3636  127.3328   56.8986 H   0  0  0  0  0  0  0  0  0  0  0  0
  129.4220  127.3020   57.3780 H   0  0  0  0  0  0  0  0  0  0  0  0
  128.9550  130.8074   59.7443 H   0  0  0  0  0  0  0  0  0  0  0  0
  130.4824  131.1773   58.8541 H   0  0  0  0  0  0  0  0  0  0  0  0
  128.6320  132.6574   58.3774 H   0  0  0  0  0  0  0  0  0  0  0  0
  131.2933  132.6861   56.9229 H   0  0  0  0  0  0  0  0  0  0  0  0
  132.0383  132.7573   54.5421 H   0  0  0  0  0  0  0  0  0  0  0  0
  130.5056  131.9963   52.7286 H   0  0  0  0  0  0  0  0  0  0  0  0
  128.2172  131.1661   53.2905 H   0  0  0  0  0  0  0  0  0  0  0  0
  125.9654  130.4144   54.3643 H   0  0  0  0  0  0  0  0  0  0  0  0
  124.0179  129.8502   55.8206 H   0  0  0  0  0  0  0  0  0  0  0  0
  124.1756  130.1498   58.2918 H   0  0  0  0  0  0  0  0  0  0  0  0
  126.2814  131.0147   59.3128 H   0  0  0  0  0  0  0  0  0  0  0  0
  130.2720  124.4610   55.5400 H   0  0  0  0  0  0  0  0  0  0  0  0
  129.4900  124.7180   57.2620 H   0  0  0  0  0  0  0  0  0  0  0  0
  128.3659  125.6097   61.2372 H   0  0  0  0  0  0  0  0  0  0  0  0
  127.3347  127.7649   61.9206 H   0  0  0  0  0  0  0  0  0  0  0  0
  125.8541  128.9933   60.3435 H   0  0  0  0  0  0  0  0  0  0  0  0
  125.4291  128.0922   58.0620 H   0  0  0  0  0  0  0  0  0  0  0  0
  126.4827  125.9553   57.3582 H   0  0  0  0  0  0  0  0  0  0  0  0
  129.0408  123.6175   56.2339 H   0  0  0  0  0  0  0  0  0  0  0  0
  127.7645  122.5726   54.3708 H   0  0  0  0  0  0  0  0  0  0  0  0
  125.3730  121.9627   54.6885 H   0  0  0  0  0  0  0  0  0  0  0  0
  124.2498  122.3779   56.8720 H   0  0  0  0  0  0  0  0  0  0  0  0
  125.5269  123.3936   58.7470 H   0  0  0  0  0  0  0  0  0  0  0  0
  130.3246  122.5848   59.1757 H   0  0  0  0  0  0  0  0  0  0  0  0
  130.8158  121.0597   61.0734 H   0  0  0  0  0  0  0  0  0  0  0  0
  129.2400  120.9170   62.9937 H   0  0  0  0  0  0  0  0  0  0  0  0
  127.1804  122.3143   63.0312 H   0  0  0  0  0  0  0  0  0  0  0  0
  126.6843  123.8424   61.1368 H   0  0  0  0  0  0  0  0  0  0  0  0
  1  2  2  0
  2  3  1  0
  3  4  1  0
  4  5  1  0
  5  6  1  0
  6  7  2  0
  6  8  1  0
  8  9  1  0
  9 10  1  0
 10 11  1  0
 11 12  2  0
 12 13  1  0
 13 14  2  0
 14 15  1  0
 15 16  2  0
 16 17  1  0
 17 18  2  0
 18 19  1  0
 19 20  2  0
 20 21  1  0
 21 22  2  0
  4 23  1  0
 23 24  2  0
 23 25  1  0
  2 26  1  0
 26 27  1  0
 27 28  1  0
 28 29  2  0
 29 30  1  0
 30 31  2  0
 31 32  1  0
 32 33  2  0
 27 34  1  0
 34 35  2  0
 35 36  1  0
 36 37  2  0
 37 38  1  0
 38 39  2  0
 27 40  1  0
 40 41  2  0
 41 42  1  0
 42 43  2  0
 43 44  1  0
 44 45  2  0
 22 10  1  0
 33 28  1  0
 39 34  1  0
 45 40  1  0
 16 11  1  0
 22 17  1  0
  3 46  1  0
  3 47  1  0
  4 48  1  6
  5 49  1  0
  9 50  1  0
  9 51  1  0
 10 52  1  0
 12 53  1  0
 13 54  1  0
 14 55  1  0
 15 56  1  0
 18 57  1  0
 19 58  1  0
 20 59  1  0
 21 60  1  0
 25 61  1  0
 26 62  1  0
 29 63  1  0
 30 64  1  0
 31 65  1  0
 32 66  1  0
 33 67  1  0
 35 68  1  0
 36 69  1  0
 37 70  1  0
 38 71  1  0
 39 72  1  0
 41 73  1  0
 42 74  1  0
 43 75  1  0
 44 76  1  0
 45 77  1  0
M  END
>  <Binding energies>  (1) 
[-11.21]

>  <Ligand effiencies>  (1) 
[-0.23354166666666668]

>  <Interactions>  (1) 
["V-B:TYR:539:CD1:9845, V-B:ILE:538:CD1:9837, V-B:PRO:540:CB:9857, V-B:PRO:540:CD:9859, V-B:LEU:363:CD1:8161, V-B:GLU:543:CD:9880, V-B:PRO:540:CA:9855, V-B:ILE:538:CG2:9835, V-B:TYR:539:CE2:9848, V-B:TYR:539:CD2:9846, V-B:ILE:538:CA:9832, V-B:MET:535:CE:9807, V-B:ALA:541:CB:9864, V-B:TYR:539:CZ:9849, V-B:PRO:540:C:9853, V-B:TYR:539:CE1:9847, V-B:PRO:540:N:9856, V-A:ASP:366:CB:3212, V-A:TYR:539:CE1:4875, V-B:TYR:531:CE1:9764, V-B:ASP:366:CG:8185, V-A:TYR:539:CZ:4877, V-A:TYR:539:C:4867, V-A:PRO:540:N:4884, V-B:ASP:366:CB:8184, V-A:TYR:539:CE2:4876, V-B:ILE:538:C:9830, V-B:ILE:538:CB:9834, H-B:TYR:539:OH:9850, V-A:ILE:538:CA:4860, V-A:ILE:538:CB:4862, V-A:ILE:538:CG2:4863, H-A:TYR:531:OH:4795, V-A:TYR:539:CD1:4873, V-B:ALA:541:CA:9862, V-B:GLU:543:CG:9879, V-A:TYR:484:CE1:4345"]

$$$$
RR5_Rahimova_2017-again1
     RDKit          3D

 76 81  0  0  0  0  0  0  0  0999 V2000
  128.0670  131.7630   57.5160 O   0  0  0  0  0  0  0  0  0  0  0  0
  127.7350  130.6130   57.8030 C   0  0  0  0  0  0  0  0  0  0  0  0
  126.2350  130.2950   57.9810 C   0  0  0  0  0  0  0  0  0  0  0  0
  125.6500  129.1500   57.0910 C   0  0  2  0  0  0  0  0  0  0  0  0
  126.0980  127.8460   57.6240 N   0  0  0  0  0  0  0  0  0  0  0  0
  126.1970  127.6110   58.9910 C   0  0  0  0  0  0  0  0  0  0  0  0
  125.9610  128.4190   59.8940 O   0  0  0  0  0  0  0  0  0  0  0  0
  126.5980  126.3400   59.1820 O   0  0  0  0  0  0  0  0  0  0  0  0
  126.4820  125.7210   60.4590 C   0  0  0  0  0  0  0  0  0  0  0  0
  126.4110  124.1900   60.3010 C   0  0  0  0  0  0  0  0  0  0  0  0
  126.3420  123.7330   58.8550 C   0  0  0  0  0  0  0  0  0  0  0  0
  125.3910  124.0210   57.8720 C   0  0  0  0  0  0  0  0  0  0  0  0
  125.5370  123.4970   56.5860 C   0  0  0  0  0  0  0  0  0  0  0  0
  126.6280  122.6810   56.2810 C   0  0  0  0  0  0  0  0  0  0  0  0
  127.5760  122.3860   57.2610 C   0  0  0  0  0  0  0  0  0  0  0  0
  127.4290  122.9130   58.5470 C   0  0  0  0  0  0  0  0  0  0  0  0
  128.2550  122.7600   59.7540 C   0  0  0  0  0  0  0  0  0  0  0  0
  129.4310  122.0420   59.9790 C   0  0  0  0  0  0  0  0  0  0  0  0
  130.0160  122.0530   61.2460 C   0  0  0  0  0  0  0  0  0  0  0  0
  129.4270  122.7790   62.2830 C   0  0  0  0  0  0  0  0  0  0  0  0
  128.2520  123.4980   62.0550 C   0  0  0  0  0  0  0  0  0  0  0  0
  127.6650  123.4910   60.7870 C   0  0  0  0  0  0  0  0  0  0  0  0
  126.0370  129.3270   55.5670 C   0  0  0  0  0  0  0  0  0  0  0  0
  125.8500  130.4820   55.1180 O   0  0  0  0  0  0  0  0  0  0  0  0
  126.5180  128.3260   54.9850 O   0  0  0  0  0  0  0  0  0  0  0  0
  128.6110  129.5870   57.8500 N   0  0  0  0  0  0  0  0  0  0  0  0
  130.0880  129.5970   57.6980 C   0  0  0  0  0  0  0  0  0  0  0  0
  130.7470  130.3300   58.9090 C   0  0  0  0  0  0  0  0  0  0  0  0
  129.9840  130.7030   60.0300 C   0  0  0  0  0  0  0  0  0  0  0  0
  130.5710  131.3450   61.1160 C   0  0  0  0  0  0  0  0  0  0  0  0
  131.9340  131.6190   61.1000 C   0  0  0  0  0  0  0  0  0  0  0  0
  132.7140  131.2570   60.0060 C   0  0  0  0  0  0  0  0  0  0  0  0
  132.1240  130.6160   58.9190 C   0  0  0  0  0  0  0  0  0  0  0  0
  130.7680  128.1900   57.7050 C   0  0  0  0  0  0  0  0  0  0  0  0
  130.5090  127.2690   58.7350 C   0  0  0  0  0  0  0  0  0  0  0  0
  131.1140  126.0150   58.7450 C   0  0  0  0  0  0  0  0  0  0  0  0
  131.9840  125.6620   57.7190 C   0  0  0  0  0  0  0  0  0  0  0  0
  132.2490  126.5510   56.6820 C   0  0  0  0  0  0  0  0  0  0  0  0
  131.6420  127.8040   56.6750 C   0  0  0  0  0  0  0  0  0  0  0  0
  130.3320  130.3960   56.3710 C   0  0  0  0  0  0  0  0  0  0  0  0
  131.1570  131.5330   56.3340 C   0  0  0  0  0  0  0  0  0  0  0  0
  131.3780  132.2210   55.1440 C   0  0  0  0  0  0  0  0  0  0  0  0
  130.7880  131.7710   53.9680 C   0  0  0  0  0  0  0  0  0  0  0  0
  129.9870  130.6350   53.9710 C   0  0  0  0  0  0  0  0  0  0  0  0
  129.7660  129.9500   55.1630 C   0  0  0  0  0  0  0  0  0  0  0  0
  126.0762  130.0141   59.0326 H   0  0  0  0  0  0  0  0  0  0  0  0
  125.7065  131.2063   57.6644 H   0  0  0  0  0  0  0  0  0  0  0  0
  124.5517  129.1953   57.1309 H   0  0  0  0  0  0  0  0  0  0  0  0
  126.2710  127.0920   56.9750 H   0  0  0  0  0  0  0  0  0  0  0  0
  127.3574  125.9833   61.0713 H   0  0  0  0  0  0  0  0  0  0  0  0
  125.5629  126.0753   60.9486 H   0  0  0  0  0  0  0  0  0  0  0  0
  125.5089  123.9378   60.8777 H   0  0  0  0  0  0  0  0  0  0  0  0
  124.5282  124.6600   58.1113 H   0  0  0  0  0  0  0  0  0  0  0  0
  124.7907  123.7276   55.8115 H   0  0  0  0  0  0  0  0  0  0  0  0
  126.7402  122.2702   55.2668 H   0  0  0  0  0  0  0  0  0  0  0  0
  128.4351  121.7417   57.0227 H   0  0  0  0  0  0  0  0  0  0  0  0
  129.8943  121.4703   59.1614 H   0  0  0  0  0  0  0  0  0  0  0  0
  130.9426  121.4888   61.4279 H   0  0  0  0  0  0  0  0  0  0  0  0
  129.8893  122.7846   63.2811 H   0  0  0  0  0  0  0  0  0  0  0  0
  127.7888  124.0694   62.8729 H   0  0  0  0  0  0  0  0  0  0  0  0
  128.2370  128.7010   58.1580 H   0  0  0  0  0  0  0  0  0  0  0  0
  128.9062  130.4838   60.0485 H   0  0  0  0  0  0  0  0  0  0  0  0
  129.9594  131.6345   61.9833 H   0  0  0  0  0  0  0  0  0  0  0  0
  132.3992  132.1257   61.9584 H   0  0  0  0  0  0  0  0  0  0  0  0
  133.7919  131.4761   59.9995 H   0  0  0  0  0  0  0  0  0  0  0  0
  132.7437  130.3295   58.0565 H   0  0  0  0  0  0  0  0  0  0  0  0
  129.8177  127.5432   59.5455 H   0  0  0  0  0  0  0  0  0  0  0  0
  130.9049  125.3070   59.5604 H   0  0  0  0  0  0  0  0  0  0  0  0
  132.4659  124.6732   57.7274 H   0  0  0  0  0  0  0  0  0  0  0  0
  132.9351  126.2651   55.8712 H   0  0  0  0  0  0  0  0  0  0  0  0
  131.8498  128.5021   55.8507 H   0  0  0  0  0  0  0  0  0  0  0  0
  131.6357  131.8849   57.2598 H   0  0  0  0  0  0  0  0  0  0  0  0
  132.0165  133.1166   55.1341 H   0  0  0  0  0  0  0  0  0  0  0  0
  130.9564  132.3179   53.0286 H   0  0  0  0  0  0  0  0  0  0  0  0
  129.5298  130.2788   53.0361 H   0  0  0  0  0  0  0  0  0  0  0  0
  129.1391  129.0461   55.1599 H   0  0  0  0  0  0  0  0  0  0  0  0
  1  2  2  0
  2  3  1  0
  3  4  1  0
  4  5  1  0
  5  6  1  0
  6  7  2  0
  6  8  1  0
  8  9  1  0
  9 10  1  0
 10 11  1  0
 11 12  2  0
 12 13  1  0
 13 14  2  0
 14 15  1  0
 15 16  2  0
 16 17  1  0
 17 18  2  0
 18 19  1  0
 19 20  2  0
 20 21  1  0
 21 22  2  0
  4 23  1  0
 23 24  2  0
 23 25  1  0
  2 26  1  0
 26 27  1  0
 27 28  1  0
 28 29  2  0
 29 30  1  0
 30 31  2  0
 31 32  1  0
 32 33  2  0
 27 34  1  0
 34 35  2  0
 35 36  1  0
 36 37  2  0
 37 38  1  0
 38 39  2  0
 27 40  1  0
 40 41  2  0
 41 42  1  0
 42 43  2  0
 43 44  1  0
 44 45  2  0
 22 10  1  0
 33 28  1  0
 39 34  1  0
 45 40  1  0
 16 11  1  0
 22 17  1  0
  3 46  1  0
  3 47  1  0
  4 48  1  6
  5 49  1  0
  9 50  1  0
  9 51  1  0
 10 52  1  0
 12 53  1  0
 13 54  1  0
 14 55  1  0
 15 56  1  0
 18 57  1  0
 19 58  1  0
 20 59  1  0
 21 60  1  0
 26 61  1  0
 29 62  1  0
 30 63  1  0
 31 64  1  0
 32 65  1  0
 33 66  1  0
 35 67  1  0
 36 68  1  0
 37 69  1  0
 38 70  1  0
 39 71  1  0
 41 72  1  0
 42 73  1  0
 43 74  1  0
 44 75  1  0
 45 76  1  0
M  CHG  1  25  -1
M  END
>  <Binding energies>  (1) 
[-11.6]

>  <Ligand effiencies>  (1) 
[-0.24680851063829787]

>  <Interactions>  (1) 
["V-B:TYR:539:CD1:9845, V-B:PRO:540:CB:9857, V-B:GLU:543:CD:9880, V-B:TYR:539:C:9839, V-B:PRO:540:CA:9855, V-B:TYR:539:CE2:9848, V-B:TYR:539:CD2:9846, V-B:TYR:539:CZ:9849, V-B:TYR:539:CE1:9847, V-B:PRO:540:N:9856, V-B:TYR:531:CE2:9765, V-A:ASP:366:CG:3213, V-B:TYR:539:CG:9844, V-B:TYR:531:CZ:9766, V-A:ASP:366:CB:3212, V-B:TYR:531:CE1:9764, V-B:ASP:366:CG:8185, V-A:PRO:540:CA:4883, V-A:PRO:540:CB:4885, V-B:ASP:366:CB:8184, V-A:MET:535:CE:4835, H-B:LYS:534:NZ:9795, V-B:TYR:539:CA:9841, H-B:TYR:531:OH:9767, V-A:ILE:538:CB:4862, V-A:TYR:484:CZ:4347, V-A:ILE:538:CG2:4863, H-A:TYR:539:OH:4878, V-A:PRO:540:C:4881, V-A:MET:535:CG:4833, V-A:TYR:484:CE1:4345"]

$$$$
RR6_Rahimova_2017
     RDKit          3D

 63 66  0  0  0  0  0  0  0  0999 V2000
  124.6610  122.6690   56.3940 C   0  0  0  0  0  0  0  0  0  0  0  0
  125.9050  122.0270   56.6330 O   0  0  0  0  0  0  0  0  0  0  0  0
  127.0380  122.7500   56.8300 C   0  0  0  0  0  0  0  0  0  0  0  0
  128.0070  122.7160   56.0650 O   0  0  0  0  0  0  0  0  0  0  0  0
  126.9950  123.5950   58.0700 C   0  0  0  0  0  0  0  0  0  0  0  0
  127.2130  123.0550   59.3460 C   0  0  0  0  0  0  0  0  0  0  0  0
  127.1590  123.8650   60.4780 C   0  0  0  0  0  0  0  0  0  0  0  0
  126.8800  125.2340   60.3520 C   0  0  0  0  0  0  0  0  0  0  0  0
  126.7750  126.1340   61.4280 N   0  0  0  0  0  0  0  0  0  0  0  0
  126.4750  127.4510   61.4160 C   0  0  0  0  0  0  0  0  0  0  0  0
  126.2220  128.1160   60.4120 O   0  0  0  0  0  0  0  0  0  0  0  0
  126.5250  128.1540   62.7770 C   0  0  0  0  0  0  0  0  0  0  0  0
  127.9910  129.2160   63.0010 S   0  0  0  0  0  0  0  0  0  0  0  0
  128.9890  129.0290   61.5380 C   0  0  0  0  0  0  0  0  0  0  0  0
  129.6890  127.8710   61.4850 N   0  0  0  0  0  0  0  0  0  0  0  0
  130.4640  127.6010   60.4040 C   0  0  0  0  0  0  0  0  0  0  0  0
  131.1580  126.2710   60.3960 C   0  0  0  0  0  0  0  0  0  0  0  0
  131.2510  125.5120   59.2190 C   0  0  0  0  0  0  0  0  0  0  0  0
  131.8830  124.2720   59.2140 C   0  0  0  0  0  0  0  0  0  0  0  0
  132.4420  123.7680   60.3890 C   0  0  0  0  0  0  0  0  0  0  0  0
  133.1220  122.4120   60.3810 C   0  0  0  0  0  0  0  0  0  0  0  0
  132.3620  124.5070   61.5670 C   0  0  0  0  0  0  0  0  0  0  0  0
  131.7300  125.7460   61.5660 C   0  0  0  0  0  0  0  0  0  0  0  0
  130.5590  128.5130   59.3480 C   0  0  0  0  0  0  0  0  0  0  0  0
  129.8470  129.7200   59.3810 C   0  0  0  0  0  0  0  0  0  0  0  0
  129.9800  130.6390   58.2110 C   0  0  0  0  0  0  0  0  0  0  0  0
  128.8570  130.9700   57.4470 C   0  0  0  0  0  0  0  0  0  0  0  0
  128.9680  131.8380   56.3640 C   0  0  0  0  0  0  0  0  0  0  0  0
  130.2010  132.3960   56.0280 C   0  0  0  0  0  0  0  0  0  0  0  0
  130.2160  133.2480   54.9400 O   0  0  0  0  0  0  0  0  0  0  0  0
  129.5100  132.8790   53.7600 C   0  0  0  0  0  0  0  0  0  0  0  0
  131.3300  132.0710   56.7950 C   0  0  0  0  0  0  0  0  0  0  0  0
  131.2150  131.2030   57.8770 C   0  0  0  0  0  0  0  0  0  0  0  0
  129.0400  129.9940   60.5130 C   0  0  0  0  0  0  0  0  0  0  0  0
  128.2920  131.2510   60.6250 C   0  0  0  0  0  0  0  0  0  0  0  0
  127.7010  132.2420   60.7120 N   0  0  0  0  0  0  0  0  0  0  0  0
  126.6800  125.7780   59.0830 C   0  0  0  0  0  0  0  0  0  0  0  0
  126.7320  124.9660   57.9520 C   0  0  0  0  0  0  0  0  0  0  0  0
  124.1847  122.9148   57.3546 H   0  0  0  0  0  0  0  0  0  0  0  0
  124.8293  123.5929   55.8211 H   0  0  0  0  0  0  0  0  0  0  0  0
  124.0055  121.9966   55.8211 H   0  0  0  0  0  0  0  0  0  0  0  0
  127.4286  121.9817   59.4538 H   0  0  0  0  0  0  0  0  0  0  0  0
  127.3355  123.4302   61.4729 H   0  0  0  0  0  0  0  0  0  0  0  0
  127.0430  125.7470   62.3210 H   0  0  0  0  0  0  0  0  0  0  0  0
  125.6251  128.7785   62.8785 H   0  0  0  0  0  0  0  0  0  0  0  0
  126.5785  127.3668   63.5434 H   0  0  0  0  0  0  0  0  0  0  0  0
  130.8179  125.9031   58.2865 H   0  0  0  0  0  0  0  0  0  0  0  0
  131.9419  123.6889   58.2831 H   0  0  0  0  0  0  0  0  0  0  0  0
  133.2888  122.0794   61.4161 H   0  0  0  0  0  0  0  0  0  0  0  0
  132.4823  121.6841   59.8605 H   0  0  0  0  0  0  0  0  0  0  0  0
  134.0880  122.4893   59.8605 H   0  0  0  0  0  0  0  0  0  0  0  0
  132.7978  124.1115   62.4963 H   0  0  0  0  0  0  0  0  0  0  0  0
  131.6773  126.3256   62.4994 H   0  0  0  0  0  0  0  0  0  0  0  0
  131.1984  128.2810   58.4835 H   0  0  0  0  0  0  0  0  0  0  0  0
  127.8772  130.5410   57.7037 H   0  0  0  0  0  0  0  0  0  0  0  0
  128.0765  132.0854   55.7690 H   0  0  0  0  0  0  0  0  0  0  0  0
  128.5664  132.3858   54.0364 H   0  0  0  0  0  0  0  0  0  0  0  0
  129.2930  133.7790   53.1660 H   0  0  0  0  0  0  0  0  0  0  0  0
  130.1251  132.1871   53.1660 H   0  0  0  0  0  0  0  0  0  0  0  0
  132.3089  132.5034   56.5405 H   0  0  0  0  0  0  0  0  0  0  0  0
  132.1049  130.9582   58.4755 H   0  0  0  0  0  0  0  0  0  0  0  0
  126.4801  126.8543   58.9747 H   0  0  0  0  0  0  0  0  0  0  0  0
  126.5651  125.4053   56.9575 H   0  0  0  0  0  0  0  0  0  0  0  0
  1  2  1  0
  2  3  1  0
  3  4  2  0
  3  5  1  0
  5  6  2  0
  6  7  1  0
  7  8  2  0
  8  9  1  0
  9 10  1  0
 10 11  2  0
 10 12  1  0
 12 13  1  0
 13 14  1  0
 14 15  2  0
 15 16  1  0
 16 17  1  0
 17 18  2  0
 18 19  1  0
 19 20  2  0
 20 21  1  0
 20 22  1  0
 22 23  2  0
 16 24  2  0
 24 25  1  0
 25 26  1  0
 26 27  2  0
 27 28  1  0
 28 29  2  0
 29 30  1  0
 30 31  1  0
 29 32  1  0
 32 33  2  0
 25 34  2  0
 34 35  1  0
 35 36  3  0
  8 37  1  0
 37 38  2  0
 38  5  1  0
 34 14  1  0
 23 17  1  0
 33 26  1  0
  1 39  1  0
  1 40  1  0
  1 41  1  0
  6 42  1  0
  7 43  1  0
  9 44  1  0
 12 45  1  0
 12 46  1  0
 18 47  1  0
 19 48  1  0
 21 49  1  0
 21 50  1  0
 21 51  1  0
 22 52  1  0
 23 53  1  0
 24 54  1  0
 27 55  1  0
 28 56  1  0
 31 57  1  0
 31 58  1  0
 31 59  1  0
 32 60  1  0
 33 61  1  0
 37 62  1  0
 38 63  1  0
M  END
>  <Binding energies>  (1) 
[-8.9]

>  <Ligand effiencies>  (1) 
[-0.22820512820512823]

>  <Interactions>  (1) 
["V-B:ILE:538:CD1:9837, V-B:PRO:540:CB:9857, V-B:PRO:540:CD:9859, V-B:LEU:363:CD1:8161, V-B:GLU:543:CD:9880, H-B:GLU:543:OE2:9882, V-B:TYR:539:C:9839, V-B:PRO:540:CA:9855, H-B:TYR:539:N:9842, V-B:ILE:538:CG2:9835, H-B:GLU:543:OE1:9881, V-B:TYR:539:CE2:9848, V-B:PRO:540:N:9856, V-B:TYR:531:CE2:9765, V-A:ASP:366:CG:3213, V-A:ILE:369:CD1:3239, V-A:ILE:369:CG2:3237, H-A:TYR:539:N:4870, V-B:ASP:366:CG:8185, V-A:PRO:540:CA:4883, V-A:TYR:539:C:4867, V-A:PRO:540:N:4884, V-A:PRO:540:CB:4885, V-A:TYR:539:CE2:4876, V-A:GLU:543:CD:4908, V-A:PRO:540:CD:4887, V-A:ILE:538:CA:4860, V-A:ILE:538:CB:4862, V-A:ILE:538:CG2:4863, V-A:ILE:538:C:4858, V-A:TYR:539:CD2:4874"]

$$$$
RR7_Rahimova_2017
     RDKit          3D

 80 86  0  0  0  0  0  0  0  0999 V2000
  133.2440  124.0980   59.1140 C   0  0  0  0  0  0  0  0  0  0  0  0
  132.2760  124.5010   58.1500 O   0  0  0  0  0  0  0  0  0  0  0  0
  131.7580  125.7800   58.2110 C   0  0  0  0  0  0  0  0  0  0  0  0
  131.9330  126.5780   57.0820 C   0  0  0  0  0  0  0  0  0  0  0  0
  131.4410  127.8790   57.0490 C   0  0  0  0  0  0  0  0  0  0  0  0
  130.7690  128.4200   58.1550 C   0  0  0  0  0  0  0  0  0  0  0  0
  130.1780  129.8640   58.1340 C   0  0  0  0  0  0  0  0  0  0  0  0
  128.7790  129.7260   57.7980 O   0  0  0  0  0  0  0  0  0  0  0  0
  128.3830  128.8940   56.7020 C   0  0  0  0  0  0  0  0  0  0  0  0
  126.9380  128.4220   56.9280 C   0  0  1  0  0  0  0  0  0  0  0  0
  126.9660  126.9980   56.9460 O   0  0  0  0  0  0  0  0  0  0  0  0
  126.4790  126.4790   58.1500 C   0  0  1  0  0  0  0  0  0  0  0  0
  127.1750  125.2510   58.4830 N   0  0  0  0  0  0  0  0  0  0  0  0
  127.3590  124.1330   57.6880 C   0  0  0  0  0  0  0  0  0  0  0  0
  127.9900  123.1370   58.2580 N   0  0  0  0  0  0  0  0  0  0  0  0
  128.2130  123.5790   59.5340 C   0  0  0  0  0  0  0  0  0  0  0  0
  128.8320  122.9750   60.6460 C   0  0  0  0  0  0  0  0  0  0  0  0
  129.3610  121.6790   60.5030 N   0  0  0  0  0  0  0  0  0  0  0  0
  130.0020  120.9140   61.4190 C   0  0  0  0  0  0  0  0  0  0  0  0
  130.2450  121.2720   62.5740 O   0  0  0  0  0  0  0  0  0  0  0  0
  130.4550  119.5540   60.9340 C   0  0  0  0  0  0  0  0  0  0  0  0
  131.4920  119.4620   59.9930 C   0  0  0  0  0  0  0  0  0  0  0  0
  131.9280  118.2220   59.5380 C   0  0  0  0  0  0  0  0  0  0  0  0
  131.3350  117.0610   60.0240 C   0  0  0  0  0  0  0  0  0  0  0  0
  130.3080  117.1290   60.9620 C   0  0  0  0  0  0  0  0  0  0  0  0
  129.8700  118.3710   61.4170 C   0  0  0  0  0  0  0  0  0  0  0  0
  128.8980  123.6610   61.8270 N   0  0  0  0  0  0  0  0  0  0  0  0
  128.3550  124.9060   61.8680 C   0  0  0  0  0  0  0  0  0  0  0  0
  127.7410  125.5810   60.8600 N   0  0  0  0  0  0  0  0  0  0  0  0
  127.6970  124.8880   59.7140 C   0  0  0  0  0  0  0  0  0  0  0  0
  126.6390  127.6050   59.1650 C   0  0  0  0  0  0  0  0  0  0  0  0
  126.3350  128.8060   58.2870 C   0  0  2  0  0  0  0  0  0  0  0  0
  124.9440  129.0670   58.2080 O   0  0  0  0  0  0  0  0  0  0  0  0
  130.2440  130.5490   59.5250 C   0  0  0  0  0  0  0  0  0  0  0  0
  131.4840  130.7670   60.1480 C   0  0  0  0  0  0  0  0  0  0  0  0
  131.5540  131.3680   61.4010 C   0  0  0  0  0  0  0  0  0  0  0  0
  130.3840  131.7580   62.0450 C   0  0  0  0  0  0  0  0  0  0  0  0
  129.1450  131.5510   61.4460 C   0  0  0  0  0  0  0  0  0  0  0  0
  129.0750  130.9490   60.1930 C   0  0  0  0  0  0  0  0  0  0  0  0
  130.8530  130.8570   57.1460 C   0  0  0  0  0  0  0  0  0  0  0  0
  130.0720  131.6380   56.2790 C   0  0  0  0  0  0  0  0  0  0  0  0
  130.6670  132.5220   55.3850 C   0  0  0  0  0  0  0  0  0  0  0  0
  132.0540  132.6290   55.3420 C   0  0  0  0  0  0  0  0  0  0  0  0
  132.8480  131.8550   56.1820 C   0  0  0  0  0  0  0  0  0  0  0  0
  132.2510  130.9710   57.0760 C   0  0  0  0  0  0  0  0  0  0  0  0
  130.5840  127.6080   59.2840 C   0  0  0  0  0  0  0  0  0  0  0  0
  131.0750  126.3060   59.3170 C   0  0  0  0  0  0  0  0  0  0  0  0
  132.8452  124.2640   60.1256 H   0  0  0  0  0  0  0  0  0  0  0  0
  133.4720  123.0302   58.9804 H   0  0  0  0  0  0  0  0  0  0  0  0
  134.1624  124.6885   58.9804 H   0  0  0  0  0  0  0  0  0  0  0  0
  132.4656  126.1751   56.2079 H   0  0  0  0  0  0  0  0  0  0  0  0
  131.5806  128.4903   56.1452 H   0  0  0  0  0  0  0  0  0  0  0  0
  128.4415  129.4665   55.7646 H   0  0  0  0  0  0  0  0  0  0  0  0
  129.0521  128.0234   56.6359 H   0  0  0  0  0  0  0  0  0  0  0  0
  126.3379  128.8902   56.1339 H   0  0  0  0  0  0  0  0  0  0  0  0
  125.4209  126.1808   58.1107 H   0  0  0  0  0  0  0  0  0  0  0  0
  127.0001  124.0844   56.6493 H   0  0  0  0  0  0  0  0  0  0  0  0
  129.2410  121.2770   59.5850 H   0  0  0  0  0  0  0  0  0  0  0  0
  131.9645  120.3792   59.6116 H   0  0  0  0  0  0  0  0  0  0  0  0
  132.7384  118.1595   58.7969 H   0  0  0  0  0  0  0  0  0  0  0  0
  131.6805  116.0806   59.6641 H   0  0  0  0  0  0  0  0  0  0  0  0
  129.8447  116.2065   61.3420 H   0  0  0  0  0  0  0  0  0  0  0  0
  129.0604  118.4259   62.1597 H   0  0  0  0  0  0  0  0  0  0  0  0
  128.4200  125.4308   62.8326 H   0  0  0  0  0  0  0  0  0  0  0  0
  125.9196  127.5128   59.9920 H   0  0  0  0  0  0  0  0  0  0  0  0
  127.6172  127.6372   59.6670 H   0  0  0  0  0  0  0  0  0  0  0  0
  126.7588  129.7409   58.6825 H   0  0  0  0  0  0  0  0  0  0  0  0
  124.5150  128.3160   57.7900 H   0  0  0  0  0  0  0  0  0  0  0  0
  132.4097  130.4592   59.6398 H   0  0  0  0  0  0  0  0  0  0  0  0
  132.5301  131.5340   61.8803 H   0  0  0  0  0  0  0  0  0  0  0  0
  130.4387  132.2337   63.0353 H   0  0  0  0  0  0  0  0  0  0  0  0
  128.2241  131.8621   61.9610 H   0  0  0  0  0  0  0  0  0  0  0  0
  128.0948  130.7849   59.7214 H   0  0  0  0  0  0  0  0  0  0  0  0
  128.9759  131.5496   56.3071 H   0  0  0  0  0  0  0  0  0  0  0  0
  130.0444  133.1335   54.7153 H   0  0  0  0  0  0  0  0  0  0  0  0
  132.5259  133.3308   54.6386 H   0  0  0  0  0  0  0  0  0  0  0  0
  133.9438  131.9413   56.1398 H   0  0  0  0  0  0  0  0  0  0  0  0
  132.8809  130.3551   57.7347 H   0  0  0  0  0  0  0  0  0  0  0  0
  130.0433  128.0059   60.1554 H   0  0  0  0  0  0  0  0  0  0  0  0
  130.9267  125.6872   60.2143 H   0  0  0  0  0  0  0  0  0  0  0  0
  1  2  1  0
  2  3  1  0
  3  4  2  0
  4  5  1  0
  5  6  2  0
  6  7  1  0
  7  8  1  0
  8  9  1  0
  9 10  1  0
 10 11  1  0
 11 12  1  0
 12 13  1  0
 13 14  1  0
 14 15  2  0
 15 16  1  0
 16 17  2  0
 17 18  1  0
 18 19  1  0
 19 20  2  0
 19 21  1  0
 21 22  2  0
 22 23  1  0
 23 24  2  0
 24 25  1  0
 25 26  2  0
 17 27  1  0
 27 28  2  0
 28 29  1  0
 29 30  2  0
 12 31  1  0
 31 32  1  0
 32 33  1  0
  7 34  1  0
 34 35  2  0
 35 36  1  0
 36 37  2  0
 37 38  1  0
 38 39  2  0
  7 40  1  0
 40 41  2  0
 41 42  1  0
 42 43  2  0
 43 44  1  0
 44 45  2  0
  6 46  1  0
 46 47  2  0
 47  3  1  0
 32 10  1  0
 39 34  1  0
 45 40  1  0
 30 13  1  0
 30 16  1  0
 26 21  1  0
  1 48  1  0
  1 49  1  0
  1 50  1  0
  4 51  1  0
  5 52  1  0
  9 53  1  0
  9 54  1  0
 10 55  1  6
 12 56  1  6
 14 57  1  0
 18 58  1  0
 22 59  1  0
 23 60  1  0
 24 61  1  0
 25 62  1  0
 26 63  1  0
 28 64  1  0
 31 65  1  0
 31 66  1  0
 32 67  1  1
 33 68  1  0
 35 69  1  0
 36 70  1  0
 37 71  1  0
 38 72  1  0
 39 73  1  0
 41 74  1  0
 42 75  1  0
 43 76  1  0
 44 77  1  0
 45 78  1  0
 46 79  1  0
 47 80  1  0
M  END
>  <Binding energies>  (1) 
[-9.87]

>  <Ligand effiencies>  (1) 
[-0.2014285714285714]

>  <Interactions>  (1) 
["V-B:GLU:543:CD:9880, V-B:TYR:539:C:9839, V-B:TYR:539:CE2:9848, V-B:TYR:539:CD2:9846, V-B:ALA:541:CB:9864, H-B:ASP:366:OD2:8187, V-A:SER:385:CB:3409, V-A:PRO:482:CB:4326, V-A:LEU:475:CD1:4258, H-A:TYR:484:OH:4348, V-A:ASP:366:CA:3210, V-A:ASP:366:CG:3213, V-B:TYR:539:CG:9844, V-A:LEU:475:CD2:4259, V-A:LEU:475:CG:4257, V-A:ASP:366:CB:3212, V-A:ILE:369:CG2:3237, V-A:PRO:482:CG:4327, V-B:ASP:366:CG:8185, V-A:TYR:531:CE2:4793, V-A:PRO:540:CA:4883, V-A:PRO:540:CB:4885, V-A:LEU:363:CD1:3189, V-A:GLU:543:CD:4908, V-A:ALA:541:CB:4892, V-A:PRO:540:CD:4887, V-A:GLU:543:CG:4907, H-B:TYR:539:OH:9850, H-B:TYR:531:OH:9767, V-A:ILE:538:CA:4860, V-A:ILE:538:CB:4862, V-A:ILE:538:CG2:4863, V-B:TYR:539:CB:9843, H-B:TYR:539:O:9840, V-A:ALA:541:CA:4890"]

$$$$
RR8_A_Rahimova_2017
     RDKit          3D

 73 77  0  0  0  0  0  0  0  0999 V2000
  131.5030  126.9940   56.4390 O   0  0  0  0  0  0  0  0  0  0  0  0
  130.9330  128.0810   56.5760 C   0  0  0  0  0  0  0  0  0  0  0  0
  129.9880  128.5730   55.7150 O   0  0  0  0  0  0  0  0  0  0  0  0
  128.6510  128.2300   55.9560 C   0  0  1  0  0  0  0  0  0  0  0  0
  128.5020  127.5600   57.1750 O   0  0  0  0  0  0  0  0  0  0  0  0
  127.3060  127.9450   57.8470 C   0  0  2  0  0  0  0  0  0  0  0  0
  126.4780  126.6820   58.1370 C   0  0  0  0  0  0  0  0  0  0  0  0
  127.3080  125.7280   58.7850 O   0  0  0  0  0  0  0  0  0  0  0  0
  126.6480  124.5100   59.1050 C   0  0  0  0  0  0  0  0  0  0  0  0
  126.3180  123.7510   57.8290 C   0  0  0  0  0  0  0  0  0  0  0  0
  124.9980  123.3760   57.5630 C   0  0  0  0  0  0  0  0  0  0  0  0
  124.6920  122.6860   56.3920 C   0  0  0  0  0  0  0  0  0  0  0  0
  125.7070  122.3760   55.4880 C   0  0  0  0  0  0  0  0  0  0  0  0
  127.0240  122.7500   55.7430 C   0  0  0  0  0  0  0  0  0  0  0  0
  127.3300  123.4410   56.9130 C   0  0  0  0  0  0  0  0  0  0  0  0
  126.6580  128.9550   56.8910 C   0  0  1  0  0  0  0  0  0  0  0  0
  126.0440  130.0510   57.5650 O   0  0  0  0  0  0  0  0  0  0  0  0
  126.0820  130.0010   58.9870 C   0  0  0  0  0  0  0  0  0  0  0  0
  126.9800  131.1070   59.5220 C   0  0  0  0  0  0  0  0  0  0  0  0
  128.1180  131.4860   58.8030 C   0  0  0  0  0  0  0  0  0  0  0  0
  128.9490  132.4900   59.2900 C   0  0  0  0  0  0  0  0  0  0  0  0
  128.6420  133.1130   60.4990 C   0  0  0  0  0  0  0  0  0  0  0  0
  127.5150  132.7370   61.2260 C   0  0  0  0  0  0  0  0  0  0  0  0
  126.6850  131.7310   60.7390 C   0  0  0  0  0  0  0  0  0  0  0  0
  127.8380  129.5070   56.1130 C   0  0  2  0  0  0  0  0  0  0  0  0
  127.4060  130.0670   54.8760 O   0  0  0  0  0  0  0  0  0  0  0  0
  127.5880  131.4720   54.7380 C   0  0  0  0  0  0  0  0  0  0  0  0
  129.0600  131.8220   54.8890 C   0  0  0  0  0  0  0  0  0  0  0  0
  129.5090  132.5060   56.0240 C   0  0  0  0  0  0  0  0  0  0  0  0
  130.8590  132.8140   56.1620 C   0  0  0  0  0  0  0  0  0  0  0  0
  131.7590  132.4360   55.1680 C   0  0  0  0  0  0  0  0  0  0  0  0
  131.3220  131.7500   54.0380 C   0  0  0  0  0  0  0  0  0  0  0  0
  129.9710  131.4400   53.8980 C   0  0  0  0  0  0  0  0  0  0  0  0
  131.2030  129.0050   57.7280 C   0  0  0  0  0  0  0  0  0  0  0  0
  132.0720  130.1020   57.6110 C   0  0  0  0  0  0  0  0  0  0  0  0
  132.3020  130.9400   58.6990 C   0  0  0  0  0  0  0  0  0  0  0  0
  131.6750  130.7040   59.9290 C   0  0  0  0  0  0  0  0  0  0  0  0
  131.9200  131.5990   61.0860 N   0  0  0  0  0  0  0  0  0  0  0  0
  131.0090  131.7910   61.8850 O   0  0  0  0  0  0  0  0  0  0  0  0
  133.0280  132.1150   61.2050 O   0  0  0  0  0  0  0  0  0  0  0  0
  130.8110  129.6080   60.0440 C   0  0  0  0  0  0  0  0  0  0  0  0
  130.5780  128.7690   58.9590 C   0  0  0  0  0  0  0  0  0  0  0  0
  128.3234  127.5979   55.1174 H   0  0  0  0  0  0  0  0  0  0  0  0
  127.4380  128.4160   58.8323 H   0  0  0  0  0  0  0  0  0  0  0  0
  125.6301  126.9378   58.7894 H   0  0  0  0  0  0  0  0  0  0  0  0
  126.0931  126.2635   57.1953 H   0  0  0  0  0  0  0  0  0  0  0  0
  127.3049  123.8939   59.7366 H   0  0  0  0  0  0  0  0  0  0  0  0
  125.7163  124.7334   59.6455 H   0  0  0  0  0  0  0  0  0  0  0  0
  124.2006  123.6257   58.2784 H   0  0  0  0  0  0  0  0  0  0  0  0
  123.6544  122.3872   56.1817 H   0  0  0  0  0  0  0  0  0  0  0  0
  125.4652  121.8305   54.5639 H   0  0  0  0  0  0  0  0  0  0  0  0
  127.8185  122.5010   55.0241 H   0  0  0  0  0  0  0  0  0  0  0  0
  128.3677  123.7433   57.1173 H   0  0  0  0  0  0  0  0  0  0  0  0
  125.8712  128.4700   56.2946 H   0  0  0  0  0  0  0  0  0  0  0  0
  125.0646  130.1337   59.3836 H   0  0  0  0  0  0  0  0  0  0  0  0
  126.4813  129.0262   59.3039 H   0  0  0  0  0  0  0  0  0  0  0  0
  128.3565  130.9895   57.8508 H   0  0  0  0  0  0  0  0  0  0  0  0
  129.8432  132.7906   58.7244 H   0  0  0  0  0  0  0  0  0  0  0  0
  129.2965  133.9096   60.8826 H   0  0  0  0  0  0  0  0  0  0  0  0
  127.2820  133.2324   62.1801 H   0  0  0  0  0  0  0  0  0  0  0  0
  125.7965  131.4265   61.3115 H   0  0  0  0  0  0  0  0  0  0  0  0
  128.3951  130.3324   56.5803 H   0  0  0  0  0  0  0  0  0  0  0  0
  127.2381  131.7890   53.7445 H   0  0  0  0  0  0  0  0  0  0  0  0
  127.0114  131.9896   55.5188 H   0  0  0  0  0  0  0  0  0  0  0  0
  128.7949  132.8003   56.8072 H   0  0  0  0  0  0  0  0  0  0  0  0
  131.2141  133.3537   57.0523 H   0  0  0  0  0  0  0  0  0  0  0  0
  132.8256  132.6820   55.2770 H   0  0  0  0  0  0  0  0  0  0  0  0
  132.0403  131.4541   53.2592 H   0  0  0  0  0  0  0  0  0  0  0  0
  129.6207  130.8952   53.0089 H   0  0  0  0  0  0  0  0  0  0  0  0
  132.5746  130.3007   56.6529 H   0  0  0  0  0  0  0  0  0  0  0  0
  132.9835  131.7967   58.5913 H   0  0  0  0  0  0  0  0  0  0  0  0
  130.3109  129.4082   61.0031 H   0  0  0  0  0  0  0  0  0  0  0  0
  129.8967  127.9124   59.0689 H   0  0  0  0  0  0  0  0  0  0  0  0
  1  2  2  0
  2  3  1  0
  3  4  1  0
  4  5  1  0
  5  6  1  0
  6  7  1  0
  7  8  1  0
  8  9  1  0
  9 10  1  0
 10 11  2  0
 11 12  1  0
 12 13  2  0
 13 14  1  0
 14 15  2  0
  6 16  1  0
 16 17  1  0
 17 18  1  0
 18 19  1  0
 19 20  2  0
 20 21  1  0
 21 22  2  0
 22 23  1  0
 23 24  2  0
 16 25  1  0
 25 26  1  0
 26 27  1  0
 27 28  1  0
 28 29  2  0
 29 30  1  0
 30 31  2  0
 31 32  1  0
 32 33  2  0
  2 34  1  0
 34 35  2  0
 35 36  1  0
 36 37  2  0
 37 38  1  0
 38 39  2  0
 38 40  1  0
 37 41  1  0
 41 42  2  0
 25  4  1  0
 33 28  1  0
 42 34  1  0
 15 10  1  0
 24 19  1  0
  4 43  1  6
  6 44  1  1
  7 45  1  0
  7 46  1  0
  9 47  1  0
  9 48  1  0
 11 49  1  0
 12 50  1  0
 13 51  1  0
 14 52  1  0
 15 53  1  0
 16 54  1  6
 18 55  1  0
 18 56  1  0
 20 57  1  0
 21 58  1  0
 22 59  1  0
 23 60  1  0
 24 61  1  0
 25 62  1  1
 27 63  1  0
 27 64  1  0
 29 65  1  0
 30 66  1  0
 31 67  1  0
 32 68  1  0
 33 69  1  0
 35 70  1  0
 36 71  1  0
 41 72  1  0
 42 73  1  0
M  CHG  2  38   1  40  -1
M  END
>  <Binding energies>  (1) 
[-10.18]

>  <Ligand effiencies>  (1) 
[-0.24238095238095236]

>  <Interactions>  (1) 
["V-B:TYR:539:CD1:9845, V-B:ILE:538:CD1:9837, V-B:PRO:540:CB:9857, V-B:PRO:540:CD:9859, V-B:LEU:363:CD1:8161, V-B:PRO:540:CA:9855, V-B:ILE:538:CG2:9835, V-B:ILE:538:CA:9832, V-B:MET:535:CE:9807, V-B:TYR:539:CE1:9847, V-B:TYR:531:CE2:9765, V-A:ASP:366:CB:3212, V-A:TYR:531:CZ:4794, V-A:TYR:539:CZ:4877, V-A:TYR:531:CE2:4793, V-A:PRO:540:CA:4883, V-A:TYR:539:C:4867, V-A:PRO:540:N:4884, V-A:PRO:540:CB:4885, V-A:TYR:539:CE2:4876, H-B:LYS:534:NZ:9795, V-A:LEU:363:CD1:3189, V-B:ILE:538:C:9830, V-B:ILE:538:CB:9834, H-A:ALA:541:N:4891, V-A:ALA:541:CB:4892, V-A:PRO:540:CD:4887, V-A:ILE:538:CB:4862, V-A:ILE:538:CG2:4863, H-A:TYR:531:OH:4795, V-A:TYR:539:CD2:4874, V-A:PRO:540:C:4881, V-A:TYR:539:CA:4869"]

$$$$
RR8_B_Rahimova_2017
     RDKit          3D

 73 77  0  0  0  0  0  0  0  0999 V2000
  132.2210  126.5630   55.9120 O   0  0  0  0  0  0  0  0  0  0  0  0
  131.5290  126.2960   56.8990 C   0  0  0  0  0  0  0  0  0  0  0  0
  130.1790  126.5040   56.9750 O   0  0  0  0  0  0  0  0  0  0  0  0
  129.7250  127.7420   57.4650 C   0  0  2  0  0  0  0  0  0  0  0  0
  129.1090  127.6140   58.7160 O   0  0  0  0  0  0  0  0  0  0  0  0
  127.7030  127.4090   58.5860 C   0  0  2  0  0  0  0  0  0  0  0  0
  127.3120  126.0850   59.2660 C   0  0  0  0  0  0  0  0  0  0  0  0
  126.0450  125.6640   58.7760 O   0  0  0  0  0  0  0  0  0  0  0  0
  125.8030  124.2680   58.8660 C   0  0  0  0  0  0  0  0  0  0  0  0
  126.1140  123.6190   57.5260 C   0  0  0  0  0  0  0  0  0  0  0  0
  127.4180  123.6540   57.0230 C   0  0  0  0  0  0  0  0  0  0  0  0
  127.7050  123.0830   55.7860 C   0  0  0  0  0  0  0  0  0  0  0  0
  126.6850  122.4760   55.0550 C   0  0  0  0  0  0  0  0  0  0  0  0
  125.3850  122.4310   55.5520 C   0  0  0  0  0  0  0  0  0  0  0  0
  125.0970  123.0050   56.7880 C   0  0  0  0  0  0  0  0  0  0  0  0
  127.4480  127.4750   57.0750 C   0  0  1  0  0  0  0  0  0  0  0  0
  126.1820  128.0920   56.8230 O   0  0  0  0  0  0  0  0  0  0  0  0
  126.1970  129.4520   56.3830 C   0  0  0  0  0  0  0  0  0  0  0  0
  125.5520  130.3950   57.3940 C   0  0  0  0  0  0  0  0  0  0  0  0
  124.1650  130.5700   57.4030 C   0  0  0  0  0  0  0  0  0  0  0  0
  123.5760  131.4060   58.3480 C   0  0  0  0  0  0  0  0  0  0  0  0
  124.3760  132.0670   59.2780 C   0  0  0  0  0  0  0  0  0  0  0  0
  125.7590  131.9010   59.2720 C   0  0  0  0  0  0  0  0  0  0  0  0
  126.3480  131.0620   58.3290 C   0  0  0  0  0  0  0  0  0  0  0  0
  128.6290  128.2820   56.5480 C   0  0  2  0  0  0  0  0  0  0  0  0
  128.8450  128.0030   55.1670 O   0  0  0  0  0  0  0  0  0  0  0  0
  129.8970  128.7300   54.5510 C   0  0  0  0  0  0  0  0  0  0  0  0
  129.7460  130.1940   54.9250 C   0  0  0  0  0  0  0  0  0  0  0  0
  130.6280  130.7860   55.8340 C   0  0  0  0  0  0  0  0  0  0  0  0
  130.4680  132.1240   56.1840 C   0  0  0  0  0  0  0  0  0  0  0  0
  129.4280  132.8650   55.6270 C   0  0  0  0  0  0  0  0  0  0  0  0
  128.5450  132.2810   54.7190 C   0  0  0  0  0  0  0  0  0  0  0  0
  128.7050  130.9440   54.3680 C   0  0  0  0  0  0  0  0  0  0  0  0
  132.0940  125.7330   58.1710 C   0  0  0  0  0  0  0  0  0  0  0  0
  131.6340  126.1440   59.4300 C   0  0  0  0  0  0  0  0  0  0  0  0
  132.1830  125.6120   60.5920 C   0  0  0  0  0  0  0  0  0  0  0  0
  133.2120  124.6650   60.5260 C   0  0  0  0  0  0  0  0  0  0  0  0
  133.8140  124.1180   61.7670 N   0  0  0  0  0  0  0  0  0  0  0  0
  134.0080  124.8790   62.7110 O   0  0  0  0  0  0  0  0  0  0  0  0
  134.0930  122.9220   61.8080 O   0  0  0  0  0  0  0  0  0  0  0  0
  133.6670  124.2500   59.2680 C   0  0  0  0  0  0  0  0  0  0  0  0
  133.1140  124.7760   58.1050 C   0  0  0  0  0  0  0  0  0  0  0  0
  130.6078  128.3957   57.5234 H   0  0  0  0  0  0  0  0  0  0  0  0
  127.0743  128.1585   59.0891 H   0  0  0  0  0  0  0  0  0  0  0  0
  128.0674  125.3181   59.0397 H   0  0  0  0  0  0  0  0  0  0  0  0
  127.2573  126.2309   60.3549 H   0  0  0  0  0  0  0  0  0  0  0  0
  126.4471  123.8324   59.6441 H   0  0  0  0  0  0  0  0  0  0  0  0
  124.7488  124.0917   59.1262 H   0  0  0  0  0  0  0  0  0  0  0  0
  128.2185  124.1334   57.6055 H   0  0  0  0  0  0  0  0  0  0  0  0
  128.7301  123.1107   55.3881 H   0  0  0  0  0  0  0  0  0  0  0  0
  126.9093  122.0281   54.0757 H   0  0  0  0  0  0  0  0  0  0  0  0
  124.5883  121.9439   54.9706 H   0  0  0  0  0  0  0  0  0  0  0  0
  124.0709  122.9754   57.1832 H   0  0  0  0  0  0  0  0  0  0  0  0
  127.3880  126.4945   56.5800 H   0  0  0  0  0  0  0  0  0  0  0  0
  127.2409  129.7616   56.2265 H   0  0  0  0  0  0  0  0  0  0  0  0
  125.6164  129.5103   55.4505 H   0  0  0  0  0  0  0  0  0  0  0  0
  123.5395  130.0477   56.6641 H   0  0  0  0  0  0  0  0  0  0  0  0
  122.4848  131.5439   58.3604 H   0  0  0  0  0  0  0  0  0  0  0  0
  123.9104  132.7269   60.0248 H   0  0  0  0  0  0  0  0  0  0  0  0
  126.3826  132.4296   60.0080 H   0  0  0  0  0  0  0  0  0  0  0  0
  127.4393  130.9245   58.3203 H   0  0  0  0  0  0  0  0  0  0  0  0
  128.5333  129.3776   56.5713 H   0  0  0  0  0  0  0  0  0  0  0  0
  130.8675  128.3533   54.9063 H   0  0  0  0  0  0  0  0  0  0  0  0
  129.8516  128.6108   53.4584 H   0  0  0  0  0  0  0  0  0  0  0  0
  131.4466  130.1959   56.2717 H   0  0  0  0  0  0  0  0  0  0  0  0
  131.1603  132.5944   56.8978 H   0  0  0  0  0  0  0  0  0  0  0  0
  129.3020  133.9215   55.9062 H   0  0  0  0  0  0  0  0  0  0  0  0
  127.7272  132.8736   54.2830 H   0  0  0  0  0  0  0  0  0  0  0  0
  128.0126  130.4768   53.6523 H   0  0  0  0  0  0  0  0  0  0  0  0
  130.8320  126.8937   59.4994 H   0  0  0  0  0  0  0  0  0  0  0  0
  131.8051  125.9384   61.5721 H   0  0  0  0  0  0  0  0  0  0  0  0
  134.4695  123.5008   59.1990 H   0  0  0  0  0  0  0  0  0  0  0  0
  133.4812  124.4372   57.1250 H   0  0  0  0  0  0  0  0  0  0  0  0
  1  2  2  0
  2  3  1  0
  3  4  1  0
  4  5  1  0
  5  6  1  0
  6  7  1  0
  7  8  1  0
  8  9  1  0
  9 10  1  0
 10 11  2  0
 11 12  1  0
 12 13  2  0
 13 14  1  0
 14 15  2  0
  6 16  1  0
 16 17  1  0
 17 18  1  0
 18 19  1  0
 19 20  2  0
 20 21  1  0
 21 22  2  0
 22 23  1  0
 23 24  2  0
 16 25  1  0
 25 26  1  0
 26 27  1  0
 27 28  1  0
 28 29  2  0
 29 30  1  0
 30 31  2  0
 31 32  1  0
 32 33  2  0
  2 34  1  0
 34 35  2  0
 35 36  1  0
 36 37  2  0
 37 38  1  0
 38 39  2  0
 38 40  1  0
 37 41  1  0
 41 42  2  0
 25  4  1  0
 33 28  1  0
 42 34  1  0
 15 10  1  0
 24 19  1  0
  4 43  1  1
  6 44  1  1
  7 45  1  0
  7 46  1  0
  9 47  1  0
  9 48  1  0
 11 49  1  0
 12 50  1  0
 13 51  1  0
 14 52  1  0
 15 53  1  0
 16 54  1  6
 18 55  1  0
 18 56  1  0
 20 57  1  0
 21 58  1  0
 22 59  1  0
 23 60  1  0
 24 61  1  0
 25 62  1  6
 27 63  1  0
 27 64  1  0
 29 65  1  0
 30 66  1  0
 31 67  1  0
 32 68  1  0
 33 69  1  0
 35 70  1  0
 36 71  1  0
 41 72  1  0
 42 73  1  0
M  CHG  2  38   1  40  -1
M  END
>  <Binding energies>  (1) 
[-9.95]

>  <Ligand effiencies>  (1) 
[-0.2369047619047619]

>  <Interactions>  (1) 
["V-B:TYR:539:CD1:9845, V-B:ILE:538:CD1:9837, V-B:PRO:540:CB:9857, V-B:PRO:540:CD:9859, V-B:LEU:363:CD1:8161, V-B:ILE:538:CG2:9835, V-B:TYR:539:CE2:9848, V-B:ILE:538:CA:9832, V-B:MET:535:CE:9807, V-B:TYR:539:CZ:9849, V-B:TYR:539:CE1:9847, V-B:TYR:531:CE2:9765, V-A:ASP:366:CA:3210, V-A:ASP:366:CG:3213, V-B:TYR:539:CG:9844, V-A:ILE:369:CD1:3239, V-A:ASP:366:C:3208, V-A:ASP:366:CB:3212, V-A:ILE:369:CB:3236, V-A:ILE:369:CG2:3237, V-A:TYR:539:CE1:4875, V-A:TYR:531:CZ:4794, V-B:TYR:531:CE1:9764, V-A:TYR:539:CZ:4877, V-A:TYR:539:C:4867, V-A:PRO:540:N:4884, V-B:ASP:366:CB:8184, V-A:MET:535:CE:4835, V-A:TYR:539:CE2:4876, V-B:ILE:538:C:9830, V-B:ILE:538:CB:9834, H-A:GLY:454:N:4050, H-A:ARG:545:NH1:4927, H-A:ARG:545:NH2:4928, H-B:TYR:539:OH:9850, H-B:TYR:531:OH:9767, H-A:TYR:531:OH:4795, V-A:TYR:539:CD2:4874, V-A:TYR:539:CA:4869, V-A:TYR:539:CG:4872, V-A:TYR:539:CD1:4873, V-B:ASP:366:C:8180, V-B:ASP:366:CA:8182, V-B:ILE:369:CG2:8209, V-B:ILE:369:CB:8208"]

$$$$
RR9_Rahimova_2017
     RDKit          3D

 64 68  0  0  0  0  0  0  0  0999 V2000
  124.2770  133.5390   60.9000 C   0  0  0  0  0  0  0  0  0  0  0  0
  123.6290  132.9660   62.1650 C   0  0  0  0  0  0  0  0  0  0  0  0
  124.6570  132.6040   63.0820 O   0  0  0  0  0  0  0  0  0  0  0  0
  125.3120  131.3980   62.9240 C   0  0  0  0  0  0  0  0  0  0  0  0
  126.5930  131.4520   62.3780 C   0  0  0  0  0  0  0  0  0  0  0  0
  127.3290  130.2880   62.1800 C   0  0  0  0  0  0  0  0  0  0  0  0
  126.8020  129.0340   62.5240 C   0  0  0  0  0  0  0  0  0  0  0  0
  127.5890  127.7750   62.3080 C   0  0  0  0  0  0  0  0  0  0  0  0
  127.0040  126.6280   61.7490 C   0  0  0  0  0  0  0  0  0  0  0  0
  127.7490  125.4540   61.5370 C   0  0  0  0  0  0  0  0  0  0  0  0
  127.0910  124.2930   60.8410 C   0  0  0  0  0  0  0  0  0  0  0  0
  127.7540  123.3100   60.5110 O   0  0  0  0  0  0  0  0  0  0  0  0
  125.7720  124.4270   60.5980 N   0  0  0  0  0  0  0  0  0  0  0  0
  124.9430  123.4980   59.8240 C   0  0  0  0  0  0  0  0  0  0  0  0
  124.6680  123.9880   58.3840 C   0  0  0  0  0  0  0  0  0  0  0  0
  125.6200  123.4340   57.3300 C   0  0  0  0  0  0  0  0  0  0  0  0
  125.1240  122.9830   56.1030 C   0  0  0  0  0  0  0  0  0  0  0  0
  126.0000  122.5100   55.1290 C   0  0  0  0  0  0  0  0  0  0  0  0
  127.3680  122.4840   55.3880 C   0  0  0  0  0  0  0  0  0  0  0  0
  127.8700  122.9280   56.6100 C   0  0  0  0  0  0  0  0  0  0  0  0
  126.9940  123.4020   57.5830 C   0  0  0  0  0  0  0  0  0  0  0  0
  129.1040  125.4880   61.9500 C   0  0  0  0  0  0  0  0  0  0  0  0
  130.2470  124.6070   62.0010 C   0  0  0  0  0  0  0  0  0  0  0  0
  130.3450  123.1600   61.6480 C   0  0  0  0  0  0  0  0  0  0  0  0
  129.4950  122.2280   62.2530 C   0  0  0  0  0  0  0  0  0  0  0  0
  129.6000  120.8770   61.9340 C   0  0  0  0  0  0  0  0  0  0  0  0
  130.5520  120.4520   61.0060 C   0  0  0  0  0  0  0  0  0  0  0  0
  130.6790  118.9760   60.6720 C   0  0  0  0  0  0  0  0  0  0  0  0
  131.4030  121.3780   60.4010 C   0  0  0  0  0  0  0  0  0  0  0  0
  131.2960  122.7290   60.7190 C   0  0  0  0  0  0  0  0  0  0  0  0
  131.3010  125.2460   62.4560 N   0  0  0  0  0  0  0  0  0  0  0  0
  130.9240  126.4950   62.7700 N   0  0  0  0  0  0  0  0  0  0  0  0
  129.5920  126.6990   62.4950 C   0  0  0  0  0  0  0  0  0  0  0  0
  128.8960  127.8190   62.6900 N   0  0  0  0  0  0  0  0  0  0  0  0
  125.5120  128.9880   63.0710 C   0  0  0  0  0  0  0  0  0  0  0  0
  124.7740  130.1520   63.2720 C   0  0  0  0  0  0  0  0  0  0  0  0
  125.0734  134.2432   61.1827 H   0  0  0  0  0  0  0  0  0  0  0  0
  124.7063  132.7197   60.3046 H   0  0  0  0  0  0  0  0  0  0  0  0
  123.5164  134.0654   60.3046 H   0  0  0  0  0  0  0  0  0  0  0  0
  122.9758  133.7240   62.6219 H   0  0  0  0  0  0  0  0  0  0  0  0
  123.0268  132.0816   61.9095 H   0  0  0  0  0  0  0  0  0  0  0  0
  127.0264  132.4243   62.1009 H   0  0  0  0  0  0  0  0  0  0  0  0
  128.3384  130.3518   61.7476 H   0  0  0  0  0  0  0  0  0  0  0  0
  125.9400  126.6477   61.4707 H   0  0  0  0  0  0  0  0  0  0  0  0
  125.2970  125.2300   60.9830 H   0  0  0  0  0  0  0  0  0  0  0  0
  125.4594  122.5282   59.7714 H   0  0  0  0  0  0  0  0  0  0  0  0
  123.9722  123.4198   60.3354 H   0  0  0  0  0  0  0  0  0  0  0  0
  123.6445  123.6918   58.1108 H   0  0  0  0  0  0  0  0  0  0  0  0
  124.8151  125.0781   58.3933 H   0  0  0  0  0  0  0  0  0  0  0  0
  124.0418  123.0018   55.9069 H   0  0  0  0  0  0  0  0  0  0  0  0
  125.6135  122.1590   54.1608 H   0  0  0  0  0  0  0  0  0  0  0  0
  128.0600  122.1089   54.6196 H   0  0  0  0  0  0  0  0  0  0  0  0
  128.9524  122.9041   56.8047 H   0  0  0  0  0  0  0  0  0  0  0  0
  127.3834  123.7512   58.5507 H   0  0  0  0  0  0  0  0  0  0  0  0
  128.7425  122.5632   62.9819 H   0  0  0  0  0  0  0  0  0  0  0  0
  128.9332  120.1449   62.4130 H   0  0  0  0  0  0  0  0  0  0  0  0
  130.7292  118.3924   61.6031 H   0  0  0  0  0  0  0  0  0  0  0  0
  129.8050  118.6563   60.0855 H   0  0  0  0  0  0  0  0  0  0  0  0
  131.5947  118.8102   60.0855 H   0  0  0  0  0  0  0  0  0  0  0  0
  132.1568  121.0410   59.6743 H   0  0  0  0  0  0  0  0  0  0  0  0
  131.9623  123.4599   60.2374 H   0  0  0  0  0  0  0  0  0  0  0  0
  131.5890  127.1520   63.1530 H   0  0  0  0  0  0  0  0  0  0  0  0
  125.0754  128.0165   63.3460 H   0  0  0  0  0  0  0  0  0  0  0  0
  123.7648  130.0928   63.7057 H   0  0  0  0  0  0  0  0  0  0  0  0
  1  2  1  0
  2  3  1  0
  3  4  1  0
  4  5  2  0
  5  6  1  0
  6  7  2  0
  7  8  1  0
  8  9  2  0
  9 10  1  0
 10 11  1  0
 11 12  2  0
 11 13  1  0
 13 14  1  0
 14 15  1  0
 15 16  1  0
 16 17  2  0
 17 18  1  0
 18 19  2  0
 19 20  1  0
 20 21  2  0
 10 22  2  0
 22 23  1  0
 23 24  1  0
 24 25  2  0
 25 26  1  0
 26 27  2  0
 27 28  1  0
 27 29  1  0
 29 30  2  0
 23 31  2  0
 31 32  1  0
 32 33  1  0
 33 34  2  0
  7 35  1  0
 35 36  2  0
 36  4  1  0
 34  8  1  0
 21 16  1  0
 33 22  1  0
 30 24  1  0
  1 37  1  0
  1 38  1  0
  1 39  1  0
  2 40  1  0
  2 41  1  0
  5 42  1  0
  6 43  1  0
  9 44  1  0
 13 45  1  0
 14 46  1  0
 14 47  1  0
 15 48  1  0
 15 49  1  0
 17 50  1  0
 18 51  1  0
 19 52  1  0
 20 53  1  0
 21 54  1  0
 25 55  1  0
 26 56  1  0
 28 57  1  0
 28 58  1  0
 28 59  1  0
 29 60  1  0
 30 61  1  0
 32 62  1  0
 35 63  1  0
 36 64  1  0
M  END
>  <Binding energies>  (1) 
[-9.56]

>  <Ligand effiencies>  (1) 
[-0.25157894736842107]

>  <Interactions>  (1) 
["V-B:TYR:539:CD1:9845, V-B:ILE:538:CD1:9837, V-B:PRO:540:CB:9857, V-B:LEU:363:CD1:8161, V-B:GLU:543:CD:9880, V-B:PRO:540:CA:9855, V-B:ILE:538:CG2:9835, H-B:ASP:366:OD1:8186, H-B:GLU:543:OE1:9881, V-B:TYR:539:CE2:9848, V-B:TYR:539:CD2:9846, V-B:ILE:538:CA:9832, V-B:MET:535:CE:9807, V-B:ALA:541:CB:9864, V-B:TYR:539:CZ:9849, H-B:ASP:366:OD2:8187, V-B:TYR:539:CE1:9847, V-B:TYR:531:CE2:9765, H-A:TYR:484:OH:4348, V-B:TYR:539:CG:9844, V-A:LEU:475:CD2:4259, V-B:TYR:531:CZ:9766, V-B:ASP:366:CG:8185, V-B:ILE:538:C:9830, V-B:ILE:538:CB:9834, V-A:GLU:543:CD:4908, H-A:GLU:543:OE1:4909, H-A:GLU:543:OE2:4910, V-A:TYR:484:CZ:4347, V-B:LEU:475:CD2:9231, V-B:ARG:545:CZ:9898, V-B:ILE:369:CD1:8211, V-B:GLY:454:CA:9021, V-B:ILE:369:CG2:8209, H-B:TYR:484:OH:9320, V-A:TYR:484:CE1:4345, H-B:GLY:454:N:9022"]

$$$$
