1a_Grossjean_2025
     RDKit          3D

 26 27  0  0  0  0  0  0  0  0999 V2000
  126.1110  122.7720   55.0830 C   0  0  0  0  0  0  0  0  0  0  0  0
  125.6070  122.4810   56.4990 C   0  0  0  0  0  0  0  0  0  0  0  0
  126.6820  122.0020   57.2960 O   0  0  0  0  0  0  0  0  0  0  0  0
  127.2260  122.7720   58.2740 C   0  0  0  0  0  0  0  0  0  0  0  0
  127.6230  122.3210   59.3530 O   0  0  0  0  0  0  0  0  0  0  0  0
  127.2820  124.2300   57.9190 C   0  0  0  0  0  0  0  0  0  0  0  0
  128.2240  124.6690   56.9790 C   0  0  0  0  0  0  0  0  0  0  0  0
  128.3030  126.0150   56.6320 C   0  0  0  0  0  0  0  0  0  0  0  0
  127.4470  126.9490   57.2170 C   0  0  0  0  0  0  0  0  0  0  0  0
  127.6170  128.2820   56.7940 N   0  0  0  0  0  0  0  0  0  0  0  0
  127.1670  128.9040   55.6850 C   0  0  0  0  0  0  0  0  0  0  0  0
  126.4870  128.3850   54.7980 O   0  0  0  0  0  0  0  0  0  0  0  0
  127.5560  130.3790   55.5570 C   0  0  0  0  0  0  0  0  0  0  0  0
  129.1240  130.5990   54.6640 S   0  0  0  0  0  0  0  0  0  0  0  0
  130.4370  130.1290   55.7680 C   0  0  0  0  0  0  0  0  0  0  0  0
  130.4440  128.8090   56.0810 N   0  0  0  0  0  0  0  0  0  0  0  0
  131.4000  128.3440   56.9190 C   0  0  0  0  0  0  0  0  0  0  0  0
  131.3360  126.8600   57.2330 C   0  0  0  0  0  0  0  0  0  0  0  0
  132.3840  129.1630   57.4670 C   0  0  0  0  0  0  0  0  0  0  0  0
  132.3990  130.5220   57.1350 C   0  0  0  0  0  0  0  0  0  0  0  0
  133.4960  131.3990   57.7350 C   0  0  0  0  0  0  0  0  0  0  0  0
  131.4130  131.0300   56.2580 C   0  0  0  0  0  0  0  0  0  0  0  0
  131.4370  132.4400   55.8570 C   0  0  0  0  0  0  0  0  0  0  0  0
  131.4590  133.5530   55.5420 N   0  0  0  0  0  0  0  0  0  0  0  0
  126.4950  126.5170   58.1530 C   0  0  0  0  0  0  0  0  0  0  0  0
  126.4170  125.1710   58.4990 C   0  0  0  0  0  0  0  0  0  0  0  0
  1  2  1  0
  2  3  1  0
  3  4  1  0
  4  5  2  0
  4  6  1  0
  6  7  2  0
  7  8  1  0
  8  9  2  0
  9 10  1  0
 10 11  1  0
 11 12  2  0
 11 13  1  0
 13 14  1  0
 14 15  1  0
 15 16  2  0
 16 17  1  0
 17 18  1  0
 17 19  2  0
 19 20  1  0
 20 21  1  0
 20 22  2  0
 22 23  1  0
 23 24  3  0
  9 25  1  0
 25 26  2  0
 26  6  1  0
 22 15  1  0
M  END
>  <Binding energies>  (1) 
[-7.61]

>  <Ligand effiencies>  (1) 
[-0.28185185185185185]

>  <Interactions>  (1) 
["V-B:ILE:538:CD1:9837, V-B:PRO:540:CD:9859, V-B:TYR:539:C:9839, V-B:PRO:540:CA:9855, H-B:TYR:539:N:9842, V-B:ILE:538:CA:9832, V-B:MET:535:CE:9807, V-B:PRO:540:N:9856, V-A:ASP:366:CG:3213, V-A:ASP:366:CB:3212, H-A:TYR:539:N:4870, V-A:PRO:540:CA:4883, V-A:PRO:540:N:4884, V-A:PRO:540:CB:4885, H-B:LYS:534:NZ:9795, V-A:LEU:363:CD1:3189, V-A:PRO:540:CD:4887, V-A:LEU:363:CA:3185, H-B:TYR:531:OH:9767, V-A:ILE:538:CB:4862, H-A:TYR:531:OH:4795, V-A:LEU:363:CB:3187"]

$$$$
1aa_Ghoteimi_2023
     RDKit          3D

 40 43  0  0  0  0  0  0  0  0999 V2000
  133.7240  126.9310   73.8810 C   0  0  0  0  0  0  0  0  0  0  0  0
  132.2080  126.8660   74.0910 C   0  0  0  0  0  0  0  0  0  0  0  0
  131.5510  126.9880   72.8360 O   0  0  0  0  0  0  0  0  0  0  0  0
  130.3340  127.5810   72.7370 C   0  0  0  0  0  0  0  0  0  0  0  0
  129.7000  128.0000   73.7110 O   0  0  0  0  0  0  0  0  0  0  0  0
  129.8320  127.6770   71.3250 C   0  0  0  0  0  0  0  0  0  0  0  0
  130.4060  128.5550   70.3920 C   0  0  0  0  0  0  0  0  0  0  0  0
  129.9200  128.6220   69.0880 C   0  0  0  0  0  0  0  0  0  0  0  0
  128.8490  127.8080   68.6930 C   0  0  0  0  0  0  0  0  0  0  0  0
  128.2760  127.7910   67.4080 N   0  0  0  0  0  0  0  0  0  0  0  0
  128.0590  128.7980   66.5310 C   0  0  0  0  0  0  0  0  0  0  0  0
  128.3540  129.9770   66.7270 O   0  0  0  0  0  0  0  0  0  0  0  0
  127.3970  128.4360   65.1920 C   0  0  0  0  0  0  0  0  0  0  0  0
  127.7480  129.3930   64.1840 O   0  0  0  0  0  0  0  0  0  0  0  0
  128.3830  128.9850   63.0200 C   0  0  0  0  0  0  0  0  0  0  0  0
  128.7670  127.6820   62.9220 N   0  0  0  0  0  0  0  0  0  0  0  0
  129.4040  127.2470   61.8030 C   0  0  0  0  0  0  0  0  0  0  0  0
  129.7920  125.7960   61.7730 C   0  0  0  0  0  0  0  0  0  0  0  0
  131.1220  125.4090   61.5540 C   0  0  0  0  0  0  0  0  0  0  0  0
  131.4840  124.0660   61.5240 C   0  0  0  0  0  0  0  0  0  0  0  0
  130.5300  123.0680   61.7130 C   0  0  0  0  0  0  0  0  0  0  0  0
  130.9810  121.7630   61.6650 O   0  0  0  0  0  0  0  0  0  0  0  0
  132.2220  121.4800   61.0280 C   0  0  0  0  0  0  0  0  0  0  0  0
  129.1980  123.4390   61.9380 C   0  0  0  0  0  0  0  0  0  0  0  0
  128.8390  124.7830   61.9680 C   0  0  0  0  0  0  0  0  0  0  0  0
  129.6530  128.1210   60.7380 C   0  0  0  0  0  0  0  0  0  0  0  0
  129.2580  129.4640   60.8090 C   0  0  0  0  0  0  0  0  0  0  0  0
  129.5430  130.3430   59.6360 C   0  0  0  0  0  0  0  0  0  0  0  0
  128.4930  130.8280   58.8490 C   0  0  0  0  0  0  0  0  0  0  0  0
  128.7500  131.6560   57.7590 C   0  0  0  0  0  0  0  0  0  0  0  0
  130.0570  132.0210   57.4380 C   0  0  0  0  0  0  0  0  0  0  0  0
  130.2160  132.8450   56.3400 O   0  0  0  0  0  0  0  0  0  0  0  0
  131.1780  132.5030   55.3490 C   0  0  0  0  0  0  0  0  0  0  0  0
  131.1120  131.5430   58.2290 C   0  0  0  0  0  0  0  0  0  0  0  0
  130.8540  130.7150   59.3180 C   0  0  0  0  0  0  0  0  0  0  0  0
  128.6130  129.9090   61.9860 C   0  0  0  0  0  0  0  0  0  0  0  0
  128.2050  131.3030   62.1680 C   0  0  0  0  0  0  0  0  0  0  0  0
  127.8810  132.4040   62.3140 N   0  0  0  0  0  0  0  0  0  0  0  0
  128.2750  126.9360   69.6190 C   0  0  0  0  0  0  0  0  0  0  0  0
  128.7610  126.8700   70.9210 C   0  0  0  0  0  0  0  0  0  0  0  0
  1  2  1  0
  2  3  1  0
  3  4  1  0
  4  5  2  0
  4  6  1  0
  6  7  2  0
  7  8  1  0
  8  9  2  0
  9 10  1  0
 10 11  1  0
 11 12  2  0
 11 13  1  0
 13 14  1  0
 14 15  1  0
 15 16  2  0
 16 17  1  0
 17 18  1  0
 18 19  2  0
 19 20  1  0
 20 21  2  0
 21 22  1  0
 22 23  1  0
 21 24  1  0
 24 25  2  0
 17 26  2  0
 26 27  1  0
 27 28  1  0
 28 29  2  0
 29 30  1  0
 30 31  2  0
 31 32  1  0
 32 33  1  0
 31 34  1  0
 34 35  2  0
 27 36  2  0
 36 37  1  0
 37 38  3  0
  9 39  1  0
 39 40  2  0
 40  6  1  0
 36 15  1  0
 25 18  1  0
 35 28  1  0
M  END
>  <Binding energies>  (2) 
[-7.94]

>  <Ligand effiencies>  (2) 
[-0.19365853658536586]

>  <Interactions>  (2) 
["V-B:GLU:543:CD:9880, H-B:GLU:543:OE2:9882, H-A:TYR:484:OH:4348, V-A:LEU:475:CD2:4259, H-A:TYR:539:N:4870, V-A:PRO:540:CA:4883, V-A:TYR:539:C:4867, V-A:PRO:540:N:4884, V-A:PRO:540:CB:4885, V-A:GLU:543:CD:4908, V-A:GLU:543:CG:4907, V-A:HIS:456:CE1:4070, V-A:ILE:538:CB:4862, V-A:ILE:538:CG2:4863, V-A:GLU:543:C:4902, V-A:GLU:543:CB:4906, V-A:GLY:544:C:4912, V-A:HIS:456:CD2:4068, V-A:HIS:456:CG:4066, H-A:LYS:547:NZ:4951, V-A:HIS:456:CA:4063, V-A:HIS:456:C:4061, V-A:HIS:456:CB:4065, V-A:GLY:544:CA:4914, V-B:HIS:456:CD2:9040, V-B:HIS:456:CE1:9042, H-B:TYR:484:OH:9320, V-A:GLU:543:CA:4904"]

$$$$
1b_Grossjean_2025
     RDKit          3D

 25 26  0  0  0  0  0  0  0  0999 V2000
  126.6240  122.9360   54.6290 C   0  0  0  0  0  0  0  0  0  0  0  0
  126.3170  122.0140   55.6660 O   0  0  0  0  0  0  0  0  0  0  0  0
  125.5090  122.3670   56.6980 C   0  0  0  0  0  0  0  0  0  0  0  0
  124.2780  122.2700   56.6630 O   0  0  0  0  0  0  0  0  0  0  0  0
  126.2610  122.8810   57.8930 C   0  0  0  0  0  0  0  0  0  0  0  0
  125.6650  123.7330   58.8340 C   0  0  0  0  0  0  0  0  0  0  0  0
  126.3910  124.1920   59.9300 C   0  0  0  0  0  0  0  0  0  0  0  0
  127.7200  123.8110   60.1090 C   0  0  0  0  0  0  0  0  0  0  0  0
  128.3560  124.3370   61.2500 N   0  0  0  0  0  0  0  0  0  0  0  0
  128.9290  123.7030   62.2970 C   0  0  0  0  0  0  0  0  0  0  0  0
  129.0050  122.4830   62.4400 O   0  0  0  0  0  0  0  0  0  0  0  0
  129.5320  124.6170   63.3650 C   0  0  0  0  0  0  0  0  0  0  0  0
  130.2400  126.1320   62.6520 S   0  0  0  0  0  0  0  0  0  0  0  0
  130.9410  125.6990   61.0750 C   0  0  0  0  0  0  0  0  0  0  0  0
  130.1080  125.9190   60.0270 N   0  0  0  0  0  0  0  0  0  0  0  0
  130.5420  125.6250   58.7790 C   0  0  0  0  0  0  0  0  0  0  0  0
  129.5620  125.9110   57.6560 C   0  0  0  0  0  0  0  0  0  0  0  0
  131.8060  125.0950   58.5280 C   0  0  0  0  0  0  0  0  0  0  0  0
  132.6630  124.8440   59.6030 C   0  0  0  0  0  0  0  0  0  0  0  0
  134.0380  124.2480   59.3050 C   0  0  0  0  0  0  0  0  0  0  0  0
  132.2330  125.1430   60.9160 C   0  0  0  0  0  0  0  0  0  0  0  0
  133.0960  124.8480   62.0610 C   0  0  0  0  0  0  0  0  0  0  0  0
  133.7810  124.6140   62.9640 N   0  0  0  0  0  0  0  0  0  0  0  0
  128.3230  122.9590   59.1720 C   0  0  0  0  0  0  0  0  0  0  0  0
  127.5970  122.5000   58.0770 C   0  0  0  0  0  0  0  0  0  0  0  0
  1  2  1  0
  2  3  1  0
  3  4  2  0
  3  5  1  0
  5  6  2  0
  6  7  1  0
  7  8  2  0
  8  9  1  0
  9 10  1  0
 10 11  2  0
 10 12  1  0
 12 13  1  0
 13 14  1  0
 14 15  2  0
 15 16  1  0
 16 17  1  0
 16 18  2  0
 18 19  1  0
 19 20  1  0
 19 21  2  0
 21 22  1  0
 22 23  3  0
  8 24  1  0
 24 25  2  0
 25  5  1  0
 21 14  1  0
M  END
>  <Binding energies>  (3) 
[-7.29]

>  <Ligand effiencies>  (3) 
[-0.2803846153846154]

>  <Interactions>  (3) 
["V-B:ILE:538:CD1:9837, V-B:PRO:540:CB:9857, V-B:PRO:540:CD:9859, V-B:GLU:543:CD:9880, V-B:TYR:539:C:9839, V-B:PRO:540:CA:9855, H-B:TYR:539:N:9842, H-B:GLU:543:OE1:9881, V-B:TYR:539:CE2:9848, V-B:TYR:539:CD2:9846, V-B:ILE:538:CA:9832, V-B:MET:535:CE:9807, V-B:PRO:540:N:9856, H-A:TYR:484:OH:4348, V-A:ASP:366:CA:3210, V-A:ASP:366:CG:3213, V-B:TYR:539:CG:9844, V-A:ILE:369:CD1:3239, V-A:ASP:366:CB:3212, V-A:ILE:369:CB:3236, V-A:ILE:369:CG2:3237, H-A:GLY:454:N:4050, H-A:ARG:545:NH2:4928, V-A:ARG:545:CZ:4926, V-A:TYR:484:CZ:4347, V-B:MET:535:CG:9805, V-B:GLU:543:CG:9879, V-B:MET:535:CB:9804"]

$$$$
1c_Grossjean_2025
     RDKit          3D

 23 24  0  0  0  0  0  0  0  0999 V2000
  132.8620  131.1530   61.7980 C   0  0  0  0  0  0  0  0  0  0  0  0
  131.5880  131.7410   61.5590 O   0  0  0  0  0  0  0  0  0  0  0  0
  131.0690  131.7270   60.2790 C   0  0  0  0  0  0  0  0  0  0  0  0
  129.7270  132.0830   60.1470 C   0  0  0  0  0  0  0  0  0  0  0  0
  129.1140  132.1000   58.8980 C   0  0  0  0  0  0  0  0  0  0  0  0
  129.8500  131.7640   57.7520 C   0  0  0  0  0  0  0  0  0  0  0  0
  129.3280  131.7390   56.4440 N   0  0  0  0  0  0  0  0  0  0  0  0
  129.7420  132.4000   55.3420 C   0  0  0  0  0  0  0  0  0  0  0  0
  130.7070  133.1630   55.2880 O   0  0  0  0  0  0  0  0  0  0  0  0
  128.9210  132.1460   54.0760 C   0  0  0  0  0  0  0  0  0  0  0  0
  128.8650  130.3810   53.6490 S   0  0  0  0  0  0  0  0  0  0  0  0
  128.0180  129.5130   54.9550 C   0  0  0  0  0  0  0  0  0  0  0  0
  126.8070  130.0450   55.2590 N   0  0  0  0  0  0  0  0  0  0  0  0
  126.0700  129.4700   56.2380 C   0  0  0  0  0  0  0  0  0  0  0  0
  124.7250  130.1140   56.5150 C   0  0  0  0  0  0  0  0  0  0  0  0
  126.5090  128.3590   56.9540 C   0  0  0  0  0  0  0  0  0  0  0  0
  127.7650  127.8170   56.6660 C   0  0  0  0  0  0  0  0  0  0  0  0
  128.2310  126.6090   57.4760 C   0  0  0  0  0  0  0  0  0  0  0  0
  128.5540  128.4030   55.6480 C   0  0  0  0  0  0  0  0  0  0  0  0
  129.8950  127.8830   55.3690 C   0  0  0  0  0  0  0  0  0  0  0  0
  130.9540  127.4720   55.1490 N   0  0  0  0  0  0  0  0  0  0  0  0
  131.1900  131.3960   57.8800 C   0  0  0  0  0  0  0  0  0  0  0  0
  131.7990  131.3800   59.1320 C   0  0  0  0  0  0  0  0  0  0  0  0
  1  2  1  0
  2  3  1  0
  3  4  2  0
  4  5  1  0
  5  6  2  0
  6  7  1  0
  7  8  1  0
  8  9  2  0
  8 10  1  0
 10 11  1  0
 11 12  1  0
 12 13  2  0
 13 14  1  0
 14 15  1  0
 14 16  2  0
 16 17  1  0
 17 18  1  0
 17 19  2  0
 19 20  1  0
 20 21  3  0
  6 22  1  0
 22 23  2  0
 23  3  1  0
 19 12  1  0
M  END
>  <Binding energies>  (4) 
[-7.09]

>  <Ligand effiencies>  (4) 
[-0.29541666666666666]

>  <Interactions>  (4) 
["V-B:MET:535:CE:9807, V-B:TYR:531:CZ:9766, V-B:TYR:531:CE1:9764, H-A:TYR:539:N:4870, V-A:TYR:539:CZ:4877, V-A:PRO:540:CA:4883, V-A:TYR:539:C:4867, V-A:PRO:540:N:4884, V-A:PRO:540:CB:4885, V-A:MET:535:CE:4835, V-A:TYR:539:CE2:4876, H-B:LYS:534:NZ:9795, V-A:GLU:543:CD:4908, H-A:ALA:541:N:4891, V-A:GLU:543:CG:4907, H-A:TYR:531:OH:4795, V-A:TYR:539:CD2:4874, V-A:PRO:540:C:4881, V-A:ASN:362:CB:3176"]

$$$$
1d_Grossjean_2025
     RDKit          3D

 21 22  0  0  0  0  0  0  0  0999 V2000
  132.8540  124.7030   61.1370 C   0  0  0  0  0  0  0  0  0  0  0  0
  132.2100  123.3320   61.0740 C   0  0  0  0  0  0  0  0  0  0  0  0
  132.8080  122.2750   60.3910 C   0  0  0  0  0  0  0  0  0  0  0  0
  132.1730  121.0290   60.3750 C   0  0  0  0  0  0  0  0  0  0  0  0
  132.8560  119.8820   59.6330 C   0  0  0  0  0  0  0  0  0  0  0  0
  130.9370  120.8740   61.0440 C   0  0  0  0  0  0  0  0  0  0  0  0
  130.2780  119.5670   61.0810 C   0  0  0  0  0  0  0  0  0  0  0  0
  129.7600  118.5320   61.1090 N   0  0  0  0  0  0  0  0  0  0  0  0
  130.3910  122.0070   61.6910 C   0  0  0  0  0  0  0  0  0  0  0  0
  128.8490  121.9930   62.5780 S   0  0  0  0  0  0  0  0  0  0  0  0
  127.9380  123.4960   62.1070 C   0  0  0  0  0  0  0  0  0  0  0  0
  126.9350  123.2330   60.9830 C   0  0  0  0  0  0  0  0  0  0  0  0
  125.7760  122.9340   61.2700 O   0  0  0  0  0  0  0  0  0  0  0  0
  127.4190  123.3810   59.7310 N   0  0  0  0  0  0  0  0  0  0  0  0
  126.7790  123.2010   58.4900 C   0  0  0  0  0  0  0  0  0  0  0  0
  127.6190  122.9020   57.4140 C   0  0  0  0  0  0  0  0  0  0  0  0
  127.0880  122.6990   56.1430 C   0  0  0  0  0  0  0  0  0  0  0  0
  125.7120  122.7890   55.9480 C   0  0  0  0  0  0  0  0  0  0  0  0
  124.8630  123.0780   57.0130 C   0  0  0  0  0  0  0  0  0  0  0  0
  125.3910  123.2830   58.2850 C   0  0  0  0  0  0  0  0  0  0  0  0
  131.0260  123.2070   61.7190 N   0  0  0  0  0  0  0  0  0  0  0  0
  1  2  1  0
  2  3  2  0
  3  4  1  0
  4  5  1  0
  4  6  2  0
  6  7  1  0
  7  8  3  0
  6  9  1  0
  9 10  1  0
 10 11  1  0
 11 12  1  0
 12 13  2  0
 12 14  1  0
 14 15  1  0
 15 16  2  0
 16 17  1  0
 17 18  2  0
 18 19  1  0
 19 20  2  0
  9 21  2  0
 21  2  1  0
 20 15  1  0
M  END
>  <Binding energies>  (5) 
[-7.44]

>  <Ligand effiencies>  (5) 
[-0.3381818181818182]

>  <Interactions>  (5) 
["V-B:TYR:539:CD1:9845, V-B:ILE:538:CD1:9837, V-B:PRO:540:CB:9857, V-B:PRO:540:CD:9859, V-B:LEU:363:CD1:8161, V-B:GLU:543:CD:9880, V-B:TYR:539:C:9839, V-B:PRO:540:CA:9855, V-B:TYR:539:CE2:9848, V-B:TYR:539:CD2:9846, V-B:ILE:538:CA:9832, V-B:MET:535:CE:9807, V-B:TYR:539:CZ:9849, V-B:TYR:539:CE1:9847, V-B:PRO:540:N:9856, V-B:TYR:531:CE2:9765, V-A:SER:385:CB:3409, H-A:TYR:484:OH:4348, V-A:ASP:366:CG:3213, V-B:TYR:539:CG:9844, V-A:LEU:475:CD2:4259, V-A:ILE:369:CG2:3237, H-B:ALA:541:N:9863, V-B:GLU:543:CG:9879, V-A:SER:385:CA:3407"]

$$$$
1e_Grossjean_2025
     RDKit          3D

 22 23  0  0  0  0  0  0  0  0999 V2000
  127.1460  122.3720   55.1010 C   0  0  0  0  0  0  0  0  0  0  0  0
  126.4790  122.7790   56.4010 C   0  0  0  0  0  0  0  0  0  0  0  0
  125.1240  123.1160   56.4540 C   0  0  0  0  0  0  0  0  0  0  0  0
  124.5790  123.4820   57.6850 C   0  0  0  0  0  0  0  0  0  0  0  0
  125.3910  123.5060   58.8210 C   0  0  0  0  0  0  0  0  0  0  0  0
  126.7410  123.1520   58.6990 C   0  0  0  0  0  0  0  0  0  0  0  0
  127.5110  123.2060   59.8740 N   0  0  0  0  0  0  0  0  0  0  0  0
  127.1110  123.0170   61.1510 C   0  0  0  0  0  0  0  0  0  0  0  0
  125.9560  122.7680   61.5000 O   0  0  0  0  0  0  0  0  0  0  0  0
  128.1990  123.1600   62.2170 C   0  0  0  0  0  0  0  0  0  0  0  0
  129.1340  121.6180   62.4460 S   0  0  0  0  0  0  0  0  0  0  0  0
  130.6350  121.7130   61.4900 C   0  0  0  0  0  0  0  0  0  0  0  0
  131.1720  122.9590   61.4510 N   0  0  0  0  0  0  0  0  0  0  0  0
  132.3140  123.1560   60.7510 C   0  0  0  0  0  0  0  0  0  0  0  0
  132.8570  124.5710   60.7590 C   0  0  0  0  0  0  0  0  0  0  0  0
  132.9560  122.1320   60.0580 C   0  0  0  0  0  0  0  0  0  0  0  0
  132.3980  120.8500   60.0710 C   0  0  0  0  0  0  0  0  0  0  0  0
  133.1120  119.7490   59.2870 C   0  0  0  0  0  0  0  0  0  0  0  0
  131.2040  120.6210   60.7920 C   0  0  0  0  0  0  0  0  0  0  0  0
  130.5770  119.2980   60.7670 C   0  0  0  0  0  0  0  0  0  0  0  0
  130.0830  118.2510   60.7460 N   0  0  0  0  0  0  0  0  0  0  0  0
  127.2810  122.7960   57.4960 N   0  0  0  0  0  0  0  0  0  0  0  0
  1  2  1  0
  2  3  2  0
  3  4  1  0
  4  5  2  0
  5  6  1  0
  6  7  1  0
  7  8  1  0
  8  9  2  0
  8 10  1  0
 10 11  1  0
 11 12  1  0
 12 13  2  0
 13 14  1  0
 14 15  1  0
 14 16  2  0
 16 17  1  0
 17 18  1  0
 17 19  2  0
 19 20  1  0
 20 21  3  0
  6 22  2  0
 22  2  1  0
 19 12  1  0
M  END
>  <Binding energies>  (6) 
[-7.89]

>  <Ligand effiencies>  (6) 
[-0.34304347826086956]

>  <Interactions>  (6) 
["V-B:TYR:539:CD1:9845, V-B:ILE:538:CD1:9837, V-B:PRO:540:CB:9857, V-B:LEU:363:CD1:8161, V-B:GLU:543:CD:9880, V-B:TYR:539:C:9839, V-B:PRO:540:CA:9855, V-B:TYR:539:CE2:9848, V-B:TYR:539:CD2:9846, V-B:ILE:538:CA:9832, V-B:MET:535:CE:9807, V-B:PRO:540:C:9853, V-B:TYR:539:CE1:9847, V-B:PRO:540:N:9856, V-B:TYR:531:CE2:9765, V-A:SER:385:CB:3409, H-A:TYR:484:OH:4348, V-A:ASP:366:CG:3213, V-B:TYR:539:CG:9844, V-A:LEU:475:CD2:4259, V-B:TYR:531:CZ:9766, V-A:ILE:369:CG2:3237, V-B:ILE:538:C:9830, H-B:ALA:541:N:9863, V-A:LEU:373:CD1:3280, V-B:GLU:543:CG:9879, V-A:SER:385:CA:3407"]

$$$$
1f_Grossjean_2025
     RDKit          3D

 21 22  0  0  0  0  0  0  0  0999 V2000
  129.4860  125.2310   57.4820 C   0  0  0  0  0  0  0  0  0  0  0  0
  130.4110  124.5720   58.4880 C   0  0  0  0  0  0  0  0  0  0  0  0
  131.7930  124.7260   58.4190 C   0  0  0  0  0  0  0  0  0  0  0  0
  132.5960  124.0840   59.3680 C   0  0  0  0  0  0  0  0  0  0  0  0
  134.1100  124.2520   59.2610 C   0  0  0  0  0  0  0  0  0  0  0  0
  131.9850  123.3040   60.3770 C   0  0  0  0  0  0  0  0  0  0  0  0
  132.8120  122.5790   61.3450 C   0  0  0  0  0  0  0  0  0  0  0  0
  133.4660  122.0070   62.1100 N   0  0  0  0  0  0  0  0  0  0  0  0
  130.5730  123.2260   60.3870 C   0  0  0  0  0  0  0  0  0  0  0  0
  129.6300  122.2940   61.5780 S   0  0  0  0  0  0  0  0  0  0  0  0
  128.1370  123.2520   62.0080 C   0  0  0  0  0  0  0  0  0  0  0  0
  126.9490  123.0600   61.0550 C   0  0  0  0  0  0  0  0  0  0  0  0
  125.8370  122.7640   61.4950 O   0  0  0  0  0  0  0  0  0  0  0  0
  127.2470  123.2170   59.7480 N   0  0  0  0  0  0  0  0  0  0  0  0
  126.4120  123.1230   58.6180 C   0  0  0  0  0  0  0  0  0  0  0  0
  125.0970  123.6170   58.5270 C   0  0  0  0  0  0  0  0  0  0  0  0
  124.3800  123.4580   57.3380 C   0  0  0  0  0  0  0  0  0  0  0  0
  124.9960  122.8100   56.2670 C   0  0  0  0  0  0  0  0  0  0  0  0
  126.2630  122.3290   56.3280 N   0  0  0  0  0  0  0  0  0  0  0  0
  126.9470  122.4920   57.4890 C   0  0  0  0  0  0  0  0  0  0  0  0
  129.8050  123.8330   59.4480 N   0  0  0  0  0  0  0  0  0  0  0  0
  1  2  1  0
  2  3  2  0
  3  4  1  0
  4  5  1  0
  4  6  2  0
  6  7  1  0
  7  8  3  0
  6  9  1  0
  9 10  1  0
 10 11  1  0
 11 12  1  0
 12 13  2  0
 12 14  1  0
 14 15  1  0
 15 16  2  0
 16 17  1  0
 17 18  2  0
 18 19  1  0
 19 20  2  0
  9 21  2  0
 21  2  1  0
 20 15  1  0
M  END
>  <Binding energies>  (7) 
[-7.16]

>  <Ligand effiencies>  (7) 
[-0.32545454545454544]

>  <Interactions>  (7) 
["V-B:ILE:538:CD1:9837, V-B:PRO:540:CB:9857, V-B:PRO:540:CD:9859, V-B:LEU:363:CD1:8161, V-B:GLU:543:CD:9880, V-B:TYR:539:C:9839, V-B:PRO:540:CA:9855, H-B:TYR:539:N:9842, V-B:ILE:538:CG2:9835, V-B:TYR:539:CE2:9848, V-B:TYR:539:CZ:9849, V-B:PRO:540:C:9853, V-B:PRO:540:N:9856, V-B:TYR:531:CE2:9765, H-A:TYR:484:OH:4348, V-A:ASP:366:CA:3210, V-A:ASP:366:CG:3213, V-A:LEU:475:CD2:4259, V-B:TYR:531:CZ:9766, V-A:ILE:369:CD1:3239, V-A:ASP:366:CB:3212, V-A:ILE:369:CB:3236, V-A:ILE:369:CG2:3237, V-B:TYR:539:CA:9841, H-B:ALA:541:N:9863, H-A:GLY:454:N:4050, V-A:ILE:369:CG1:3238"]

$$$$
1g_Grossjean_2025
     RDKit          3D

 22 23  0  0  0  0  0  0  0  0999 V2000
  128.3500  123.3550   56.1960 C   0  0  0  0  0  0  0  0  0  0  0  0
  127.3930  123.3870   57.3720 C   0  0  0  0  0  0  0  0  0  0  0  0
  126.0450  123.7000   57.2080 C   0  0  0  0  0  0  0  0  0  0  0  0
  125.2130  123.7300   58.3330 C   0  0  0  0  0  0  0  0  0  0  0  0
  123.7410  124.0900   58.1300 C   0  0  0  0  0  0  0  0  0  0  0  0
  125.7560  123.4350   59.6030 C   0  0  0  0  0  0  0  0  0  0  0  0
  124.9160  123.5110   60.8010 C   0  0  0  0  0  0  0  0  0  0  0  0
  124.2500  123.5740   61.7460 N   0  0  0  0  0  0  0  0  0  0  0  0
  127.1300  123.1030   59.6720 C   0  0  0  0  0  0  0  0  0  0  0  0
  127.9730  122.6960   61.1850 S   0  0  0  0  0  0  0  0  0  0  0  0
  129.7380  123.0490   60.9310 C   0  0  0  0  0  0  0  0  0  0  0  0
  130.6150  121.8340   61.2370 C   0  0  0  0  0  0  0  0  0  0  0  0
  130.5250  121.2670   62.3270 O   0  0  0  0  0  0  0  0  0  0  0  0
  131.4620  121.4510   60.2660 N   0  0  0  0  0  0  0  0  0  0  0  0
  132.3460  120.2870   60.3210 C   0  0  0  0  0  0  0  0  0  0  0  0
  131.6610  118.9630   59.9980 C   0  0  0  0  0  0  0  0  0  0  0  0
  130.5690  118.5370   60.7610 C   0  0  0  0  0  0  0  0  0  0  0  0
  129.9430  117.3290   60.4660 C   0  0  0  0  0  0  0  0  0  0  0  0
  130.4090  116.5520   59.4060 C   0  0  0  0  0  0  0  0  0  0  0  0
  131.4930  116.9720   58.6400 C   0  0  0  0  0  0  0  0  0  0  0  0
  132.1200  118.1800   58.9350 C   0  0  0  0  0  0  0  0  0  0  0  0
  127.9340  123.0990   58.5790 N   0  0  0  0  0  0  0  0  0  0  0  0
  1  2  1  0
  2  3  2  0
  3  4  1  0
  4  5  1  0
  4  6  2  0
  6  7  1  0
  7  8  3  0
  6  9  1  0
  9 10  1  0
 10 11  1  0
 11 12  1  0
 12 13  2  0
 12 14  1  0
 14 15  1  0
 15 16  1  0
 16 17  2  0
 17 18  1  0
 18 19  2  0
 19 20  1  0
 20 21  2  0
  9 22  2  0
 22  2  1  0
 21 16  1  0
M  END
>  <Binding energies>  (8) 
[-7.76]

>  <Ligand effiencies>  (8) 
[-0.3373913043478261]

>  <Interactions>  (8) 
["V-B:TYR:539:CD1:9845, V-B:PRO:540:CB:9857, V-B:LEU:363:CD1:8161, V-B:TYR:539:C:9839, V-B:PRO:540:CA:9855, V-B:TYR:539:CE2:9848, V-B:TYR:539:CD2:9846, V-B:MET:535:CE:9807, V-B:TYR:539:CZ:9849, V-B:TYR:539:CE1:9847, V-B:PRO:540:N:9856, V-B:TYR:531:CE2:9765, V-A:SER:385:CB:3409, V-A:PRO:482:CB:4326, V-A:LEU:475:CD1:4258, H-A:TYR:484:OH:4348, V-B:TYR:539:CG:9844, V-A:LEU:475:CD2:4259, V-B:TYR:531:CZ:9766, V-A:LEU:475:CG:4257, V-A:PRO:482:CG:4327, V-B:ASP:366:CG:8185, V-B:ASP:366:CB:8184, H-B:ARG:545:NH2:9900, V-B:VAL:344:CG1:7973, V-B:TYR:539:CB:9843, V-A:LEU:373:CD1:3280, V-A:HIS:383:CE1:3394, V-B:LEU:363:CA:8157, V-B:LEU:363:CB:8159"]

$$$$
1h_Grossjean_2025
     RDKit          3D

 28 29  0  0  0  0  0  0  0  0999 V2000
  130.2620  118.3170   60.8970 C   0  0  0  0  0  0  0  0  0  0  0  0
  131.0400  119.4710   60.6010 O   0  0  0  0  0  0  0  0  0  0  0  0
  130.5520  120.7220   60.9330 C   0  0  0  0  0  0  0  0  0  0  0  0
  129.3330  120.9360   61.5970 C   0  0  0  0  0  0  0  0  0  0  0  0
  128.8960  122.2290   61.8880 C   0  0  0  0  0  0  0  0  0  0  0  0
  127.5810  122.4480   62.6300 C   0  0  0  0  0  0  0  0  0  0  0  0
  126.5440  123.0920   61.8240 N   0  0  0  0  0  0  0  0  0  0  0  0
  125.2340  123.1300   62.1300 C   0  0  0  0  0  0  0  0  0  0  0  0
  124.7570  122.6410   63.1540 O   0  0  0  0  0  0  0  0  0  0  0  0
  124.3190  123.8230   61.1210 C   0  0  0  0  0  0  0  0  0  0  0  0
  124.8290  123.5000   59.4060 S   0  0  0  0  0  0  0  0  0  0  0  0
  126.3540  124.3800   59.1070 C   0  0  0  0  0  0  0  0  0  0  0  0
  126.6780  125.3270   60.0260 N   0  0  0  0  0  0  0  0  0  0  0  0
  127.8240  126.0290   59.8620 C   0  0  0  0  0  0  0  0  0  0  0  0
  128.1200  127.0650   60.9310 C   0  0  0  0  0  0  0  0  0  0  0  0
  128.6860  125.8220   58.7880 C   0  0  0  0  0  0  0  0  0  0  0  0
  128.3620  124.8520   57.8330 C   0  0  0  0  0  0  0  0  0  0  0  0
  129.3210  124.6400   56.6640 C   0  0  0  0  0  0  0  0  0  0  0  0
  127.1700  124.1070   57.9850 C   0  0  0  0  0  0  0  0  0  0  0  0
  126.8040  123.0860   57.0000 C   0  0  0  0  0  0  0  0  0  0  0  0
  126.5150  122.2790   56.2210 N   0  0  0  0  0  0  0  0  0  0  0  0
  129.6970  123.3200   61.5480 C   0  0  0  0  0  0  0  0  0  0  0  0
  130.9230  123.1350   60.8890 C   0  0  0  0  0  0  0  0  0  0  0  0
  131.7660  124.1680   60.5200 O   0  0  0  0  0  0  0  0  0  0  0  0
  131.9550  125.2660   61.4070 C   0  0  0  0  0  0  0  0  0  0  0  0
  131.3340  121.8300   60.5770 C   0  0  0  0  0  0  0  0  0  0  0  0
  132.5340  121.6330   59.9380 O   0  0  0  0  0  0  0  0  0  0  0  0
  133.6630  121.6900   60.7980 C   0  0  0  0  0  0  0  0  0  0  0  0
  1  2  1  0
  2  3  1  0
  3  4  2  0
  4  5  1  0
  5  6  1  0
  6  7  1  0
  7  8  1  0
  8  9  2  0
  8 10  1  0
 10 11  1  0
 11 12  1  0
 12 13  2  0
 13 14  1  0
 14 15  1  0
 14 16  2  0
 16 17  1  0
 17 18  1  0
 17 19  2  0
 19 20  1  0
 20 21  3  0
  5 22  2  0
 22 23  1  0
 23 24  1  0
 24 25  1  0
 23 26  2  0
 26 27  1  0
 27 28  1  0
 26  3  1  0
 19 12  1  0
M  END
>  <Binding energies>  (9) 
[-6.32]

>  <Ligand effiencies>  (9) 
[-0.21793103448275863]

>  <Interactions>  (9) 
["V-B:PRO:540:CB:9857, V-B:GLU:543:CD:9880, V-B:PRO:540:CA:9855, H-B:TYR:539:N:9842, H-B:GLU:543:OE1:9881, V-B:TYR:539:CE2:9848, V-B:TYR:539:CD2:9846, V-B:MET:535:CE:9807, V-B:ALA:541:CB:9864, V-B:TYR:539:CZ:9849, V-B:PRO:540:C:9853, V-B:TYR:539:CE1:9847, V-B:PRO:540:N:9856, V-A:PRO:482:CB:4326, V-A:LEU:475:CD1:4258, V-A:LEU:475:CD2:4259, V-A:ILE:369:CD1:3239, V-A:ILE:369:CG2:3237, V-B:ASP:366:CG:8185, H-B:ALA:541:N:9863, H-B:ASN:362:ND2:8151, V-B:ASN:362:CB:8148, V-B:ALA:541:CA:9862, V-B:GLU:543:CG:9879"]

$$$$
1i_Grossjean_2025
     RDKit          3D

 20 21  0  0  0  0  0  0  0  0999 V2000
  129.8590  125.2670   58.4230 C   0  0  0  0  0  0  0  0  0  0  0  0
  128.6470  124.5540   57.8540 C   0  0  0  0  0  0  0  0  0  0  0  0
  128.6560  124.0080   56.5730 C   0  0  0  0  0  0  0  0  0  0  0  0
  127.5120  123.3520   56.1040 C   0  0  0  0  0  0  0  0  0  0  0  0
  127.5520  122.7470   54.7030 C   0  0  0  0  0  0  0  0  0  0  0  0
  126.3740  123.2670   56.9390 C   0  0  0  0  0  0  0  0  0  0  0  0
  125.1830  122.5420   56.4880 C   0  0  0  0  0  0  0  0  0  0  0  0
  124.2440  121.9670   56.1310 N   0  0  0  0  0  0  0  0  0  0  0  0
  126.4460  123.8720   58.2160 C   0  0  0  0  0  0  0  0  0  0  0  0
  125.1110  123.8610   59.3930 S   0  0  0  0  0  0  0  0  0  0  0  0
  125.7760  124.4310   60.9850 C   0  0  0  0  0  0  0  0  0  0  0  0
  126.6820  123.3850   61.6390 C   0  0  0  0  0  0  0  0  0  0  0  0
  126.2760  122.7670   62.6240 O   0  0  0  0  0  0  0  0  0  0  0  0
  127.8910  123.2170   61.0590 N   0  0  0  0  0  0  0  0  0  0  0  0
  128.8970  122.3450   61.4500 C   0  0  0  0  0  0  0  0  0  0  0  0
  129.6830  121.6360   60.5440 C   0  0  0  0  0  0  0  0  0  0  0  0
  130.5460  120.8970   61.3200 C   0  0  0  0  0  0  0  0  0  0  0  0
  130.2910  121.1470   62.6260 O   0  0  0  0  0  0  0  0  0  0  0  0
  129.2420  122.0650   62.6960 N   0  0  0  0  0  0  0  0  0  0  0  0
  127.5670  124.4880   58.6690 N   0  0  0  0  0  0  0  0  0  0  0  0
  1  2  1  0
  2  3  2  0
  3  4  1  0
  4  5  1  0
  4  6  2  0
  6  7  1  0
  7  8  3  0
  6  9  1  0
  9 10  1  0
 10 11  1  0
 11 12  1  0
 12 13  2  0
 12 14  1  0
 14 15  1  0
 15 16  1  0
 16 17  2  0
 17 18  1  0
 18 19  1  0
  9 20  2  0
 20  2  1  0
 19 15  2  0
M  END
>  <Binding energies>  (10) 
[-7.01]

>  <Ligand effiencies>  (10) 
[-0.3338095238095238]

>  <Interactions>  (10) 
["V-B:TYR:539:CD1:9845, V-B:ILE:538:CD1:9837, V-B:PRO:540:CB:9857, V-B:PRO:540:CD:9859, V-B:LEU:363:CD1:8161, V-B:GLU:543:CD:9880, V-B:PRO:540:CA:9855, V-B:ILE:538:CG2:9835, V-B:TYR:539:CE2:9848, V-B:TYR:539:CD2:9846, V-B:ILE:538:CA:9832, V-B:MET:535:CE:9807, V-B:TYR:539:CZ:9849, V-B:TYR:539:CE1:9847, V-B:PRO:540:N:9856, H-A:TYR:484:OH:4348, V-A:LEU:475:CD2:4259, H-B:ALA:541:N:9863, V-B:VAL:537:C:9822"]

$$$$
1k_Grossjean_2025
     RDKit          3D

 25 25  0  0  0  0  0  0  0  0999 V2000
  127.2270  122.8290   55.3740 C   0  0  0  0  0  0  0  0  0  0  0  0
  126.5050  122.1750   56.4050 O   0  0  0  0  0  0  0  0  0  0  0  0
  125.5200  122.9970   57.0170 C   0  0  0  0  0  0  0  0  0  0  0  0
  126.0790  123.5810   58.3210 C   0  0  0  0  0  0  0  0  0  0  0  0
  127.0350  122.6840   58.8700 O   0  0  0  0  0  0  0  0  0  0  0  0
  128.1690  123.3310   59.4330 C   0  0  0  0  0  0  0  0  0  0  0  0
  127.9090  123.6140   60.9180 C   0  0  0  0  0  0  0  0  0  0  0  0
  129.0380  123.2100   61.6820 O   0  0  0  0  0  0  0  0  0  0  0  0
  129.1700  121.8000   61.8070 C   0  0  0  0  0  0  0  0  0  0  0  0
  130.2140  121.2880   60.7970 C   0  0  0  0  0  0  0  0  0  0  0  0
  131.5590  121.8260   61.0080 N   0  0  0  0  0  0  0  0  0  0  0  0
  132.6970  121.2600   60.5690 C   0  0  0  0  0  0  0  0  0  0  0  0
  132.7220  120.2100   59.9250 O   0  0  0  0  0  0  0  0  0  0  0  0
  133.9910  122.0090   60.9280 C   0  0  0  0  0  0  0  0  0  0  0  0
  133.9610  123.8150   60.6520 S   0  0  0  0  0  0  0  0  0  0  0  0
  133.0280  124.5930   61.9640 C   0  0  0  0  0  0  0  0  0  0  0  0
  133.6130  124.5900   63.1890 N   0  0  0  0  0  0  0  0  0  0  0  0
  132.9570  125.1550   64.2290 C   0  0  0  0  0  0  0  0  0  0  0  0
  133.6710  125.1040   65.5650 C   0  0  0  0  0  0  0  0  0  0  0  0
  131.7040  125.7480   64.0930 C   0  0  0  0  0  0  0  0  0  0  0  0
  131.0930  125.7640   62.8340 C   0  0  0  0  0  0  0  0  0  0  0  0
  129.7200  126.4190   62.7070 C   0  0  0  0  0  0  0  0  0  0  0  0
  131.7600  125.1760   61.7370 C   0  0  0  0  0  0  0  0  0  0  0  0
  131.1430  125.1750   60.4070 C   0  0  0  0  0  0  0  0  0  0  0  0
  130.6540  125.1740   59.3580 N   0  0  0  0  0  0  0  0  0  0  0  0
  1  2  1  0
  2  3  1  0
  3  4  1  0
  4  5  1  0
  5  6  1  0
  6  7  1  0
  7  8  1  0
  8  9  1  0
  9 10  1  0
 10 11  1  0
 11 12  1  0
 12 13  2  0
 12 14  1  0
 14 15  1  0
 15 16  1  0
 16 17  2  0
 17 18  1  0
 18 19  1  0
 18 20  2  0
 20 21  1  0
 21 22  1  0
 21 23  2  0
 23 24  1  0
 24 25  3  0
 23 16  1  0
M  END
>  <Binding energies>  (11) 
[-6.03]

>  <Ligand effiencies>  (11) 
[-0.23192307692307693]

>  <Interactions>  (11) 
["V-B:TYR:539:CD1:9845, V-B:PRO:540:CB:9857, V-B:PRO:540:CD:9859, V-B:GLU:543:CD:9880, V-B:PRO:540:CA:9855, H-B:TYR:539:N:9842, V-B:TYR:539:CE2:9848, V-B:TYR:539:CD2:9846, V-B:ILE:538:CA:9832, V-B:MET:535:CE:9807, V-B:ALA:541:CB:9864, V-B:TYR:539:CE1:9847, V-B:PRO:540:N:9856, H-A:TYR:484:OH:4348, V-A:LEU:475:CD2:4259, V-A:ILE:369:CD1:3239, V-A:GLY:454:CA:4049, V-A:ILE:369:CG2:3237, V-A:GLU:543:CD:4908, H-A:GLY:454:N:4050, H-A:ARG:545:NH2:4928, V-A:ARG:545:CZ:4926, V-A:TYR:484:CE2:4346, V-A:TYR:484:CZ:4347, V-A:ARG:545:CG:4922, V-A:ARG:545:CD:4923, V-A:ILE:369:CG1:3238"]

$$$$
1l_Grossjean_2025
     RDKit          3D

 17 17  0  0  0  0  0  0  0  0999 V2000
  130.7230  118.1310   60.3450 C   0  0  0  0  0  0  0  0  0  0  0  0
  131.1890  119.4130   60.7410 O   0  0  0  0  0  0  0  0  0  0  0  0
  130.2460  120.3850   60.4090 N   0  0  0  0  0  0  0  0  0  0  0  0
  129.7410  121.1660   61.3830 C   0  0  0  0  0  0  0  0  0  0  0  0
  130.2190  121.2370   62.5190 O   0  0  0  0  0  0  0  0  0  0  0  0
  128.5130  121.9960   60.9830 C   0  0  0  0  0  0  0  0  0  0  0  0
  128.8140  123.2400   59.6810 S   0  0  0  0  0  0  0  0  0  0  0  0
  127.4490  123.1810   58.5320 C   0  0  0  0  0  0  0  0  0  0  0  0
  127.7670  122.8410   57.2560 N   0  0  0  0  0  0  0  0  0  0  0  0
  126.7800  122.7790   56.3310 C   0  0  0  0  0  0  0  0  0  0  0  0
  127.2130  122.3930   54.9300 C   0  0  0  0  0  0  0  0  0  0  0  0
  125.4470  123.0490   56.6350 C   0  0  0  0  0  0  0  0  0  0  0  0
  125.1070  123.3980   57.9460 C   0  0  0  0  0  0  0  0  0  0  0  0
  123.6400  123.6890   58.2570 C   0  0  0  0  0  0  0  0  0  0  0  0
  126.1220  123.4700   58.9260 C   0  0  0  0  0  0  0  0  0  0  0  0
  125.7940  123.8340   60.3090 C   0  0  0  0  0  0  0  0  0  0  0  0
  125.5340  124.1220   61.3980 N   0  0  0  0  0  0  0  0  0  0  0  0
  1  2  1  0
  2  3  1  0
  3  4  1  0
  4  5  2  0
  4  6  1  0
  6  7  1  0
  7  8  1  0
  8  9  2  0
  9 10  1  0
 10 11  1  0
 10 12  2  0
 12 13  1  0
 13 14  1  0
 13 15  2  0
 15 16  1  0
 16 17  3  0
 15  8  1  0
M  END
>  <Binding energies>  (12) 
[-6.85]

>  <Ligand effiencies>  (12) 
[-0.38055555555555554]

>  <Interactions>  (12) 
["V-B:TYR:539:CD1:9845, V-B:ILE:538:CD1:9837, V-B:PRO:540:CB:9857, V-B:LEU:363:CD1:8161, V-B:TYR:539:C:9839, V-B:PRO:540:CA:9855, V-B:TYR:539:CE2:9848, V-B:TYR:539:CD2:9846, V-B:ILE:538:CA:9832, V-B:MET:535:CE:9807, V-B:ALA:541:CB:9864, V-B:PRO:540:C:9853, V-B:TYR:539:CE1:9847, V-B:PRO:540:N:9856, V-A:SER:385:CB:3409, H-A:TYR:484:OH:4348, V-A:LEU:475:CD2:4259, V-B:ASP:366:CG:8185, V-B:ILE:538:C:9830, H-B:ARG:545:NH2:9900, V-B:TYR:539:CB:9843, H-B:TYR:539:O:9840, V-B:LEU:363:CA:8157, V-B:VAL:537:C:9822, V-B:LEU:363:CB:8159"]

$$$$
1m_Grossjean_2025
     RDKit          3D

 20 20  0  0  0  0  0  0  0  0999 V2000
  126.4590  129.4710   55.8450 C   0  0  0  0  0  0  0  0  0  0  0  0
  127.2790  129.1090   54.7440 O   0  0  0  0  0  0  0  0  0  0  0  0
  128.6150  129.2900   54.7950 C   0  0  0  0  0  0  0  0  0  0  0  0
  129.4650  128.4600   54.4600 O   0  0  0  0  0  0  0  0  0  0  0  0
  128.9760  130.6940   55.3230 C   0  0  0  0  0  0  0  0  0  0  0  0
  130.4240  130.8810   55.5030 N   0  0  0  0  0  0  0  0  0  0  0  0
  131.0400  132.0520   55.7530 C   0  0  0  0  0  0  0  0  0  0  0  0
  130.4360  133.1230   55.8440 O   0  0  0  0  0  0  0  0  0  0  0  0
  132.5640  131.9760   55.9130 C   0  0  0  0  0  0  0  0  0  0  0  0
  133.1310  131.3550   57.5330 S   0  0  0  0  0  0  0  0  0  0  0  0
  132.1110  129.9640   57.9760 C   0  0  0  0  0  0  0  0  0  0  0  0
  132.0520  129.0070   57.0160 N   0  0  0  0  0  0  0  0  0  0  0  0
  131.3100  127.8990   57.2460 C   0  0  0  0  0  0  0  0  0  0  0  0
  131.3070  126.8650   56.1360 C   0  0  0  0  0  0  0  0  0  0  0  0
  130.5930  127.7050   58.4250 C   0  0  0  0  0  0  0  0  0  0  0  0
  130.6250  128.6970   59.4110 C   0  0  0  0  0  0  0  0  0  0  0  0
  129.8190  128.4700   60.6880 C   0  0  0  0  0  0  0  0  0  0  0  0
  131.3930  129.8640   59.1930 C   0  0  0  0  0  0  0  0  0  0  0  0
  131.4010  130.9370   60.1900 C   0  0  0  0  0  0  0  0  0  0  0  0
  131.4070  131.7840   60.9780 N   0  0  0  0  0  0  0  0  0  0  0  0
  1  2  1  0
  2  3  1  0
  3  4  2  0
  3  5  1  0
  5  6  1  0
  6  7  1  0
  7  8  2  0
  7  9  1  0
  9 10  1  0
 10 11  1  0
 11 12  2  0
 12 13  1  0
 13 14  1  0
 13 15  2  0
 15 16  1  0
 16 17  1  0
 16 18  2  0
 18 19  1  0
 19 20  3  0
 18 11  1  0
M  END
>  <Binding energies>  (13) 
[-5.73]

>  <Ligand effiencies>  (13) 
[-0.27285714285714285]

>  <Interactions>  (13) 
["V-B:MET:535:CE:9807, V-A:ASP:366:CG:3213, V-A:ASP:366:CB:3212, V-A:TYR:531:CZ:4794, V-B:TYR:531:CE1:9764, H-A:TYR:539:N:4870, V-A:TYR:531:CE2:4793, V-A:PRO:540:CA:4883, V-A:PRO:540:CB:4885, V-A:MET:535:CE:4835, H-B:LYS:534:NZ:9795, V-A:LEU:363:CD1:3189, H-A:ALA:541:N:4891, H-A:TYR:531:OH:4795"]

$$$$
1n_Grossjean_2025
     RDKit          3D

 27 28  0  0  0  0  0  0  0  0999 V2000
  126.1560  123.1290   54.8130 C   0  0  0  0  0  0  0  0  0  0  0  0
  125.8030  122.6020   56.2080 C   0  0  0  0  0  0  0  0  0  0  0  0
  126.9820  122.1210   56.8430 O   0  0  0  0  0  0  0  0  0  0  0  0
  127.5470  122.7960   57.8770 C   0  0  0  0  0  0  0  0  0  0  0  0
  127.9780  122.2450   58.8940 O   0  0  0  0  0  0  0  0  0  0  0  0
  127.6070  124.2800   57.6540 C   0  0  0  0  0  0  0  0  0  0  0  0
  126.6240  125.1470   58.1560 C   0  0  0  0  0  0  0  0  0  0  0  0
  126.7080  126.5170   57.9290 C   0  0  0  0  0  0  0  0  0  0  0  0
  127.7670  127.0490   57.1920 C   0  0  0  0  0  0  0  0  0  0  0  0
  127.7500  128.4470   57.0180 N   0  0  0  0  0  0  0  0  0  0  0  0
  127.1640  129.1900   56.0560 C   0  0  0  0  0  0  0  0  0  0  0  0
  126.5000  128.7490   55.1180 O   0  0  0  0  0  0  0  0  0  0  0  0
  127.3600  130.7070   56.1780 C   0  0  0  0  0  0  0  0  0  0  0  0
  127.1480  131.2310   57.6140 C   0  0  0  0  0  0  0  0  0  0  0  0
  128.3470  132.4930   58.1410 S   0  0  0  0  0  0  0  0  0  0  0  0
  129.9240  132.0670   57.4350 C   0  0  0  0  0  0  0  0  0  0  0  0
  129.9230  132.0440   56.0780 N   0  0  0  0  0  0  0  0  0  0  0  0
  131.0750  131.7480   55.4320 C   0  0  0  0  0  0  0  0  0  0  0  0
  131.0010  131.7520   53.9170 C   0  0  0  0  0  0  0  0  0  0  0  0
  132.2610  131.4590   56.1030 C   0  0  0  0  0  0  0  0  0  0  0  0
  132.2670  131.4600   57.5020 C   0  0  0  0  0  0  0  0  0  0  0  0
  133.5760  131.1270   58.2160 C   0  0  0  0  0  0  0  0  0  0  0  0
  131.0750  131.7620   58.1990 C   0  0  0  0  0  0  0  0  0  0  0  0
  131.0460  131.7180   59.6620 C   0  0  0  0  0  0  0  0  0  0  0  0
  131.0250  131.6820   60.8180 N   0  0  0  0  0  0  0  0  0  0  0  0
  128.7580  126.1900   56.6950 C   0  0  0  0  0  0  0  0  0  0  0  0
  128.6750  124.8200   56.9270 C   0  0  0  0  0  0  0  0  0  0  0  0
  1  2  1  0
  2  3  1  0
  3  4  1  0
  4  5  2  0
  4  6  1  0
  6  7  2  0
  7  8  1  0
  8  9  2  0
  9 10  1  0
 10 11  1  0
 11 12  2  0
 11 13  1  0
 13 14  1  0
 14 15  1  0
 15 16  1  0
 16 17  2  0
 17 18  1  0
 18 19  1  0
 18 20  2  0
 20 21  1  0
 21 22  1  0
 21 23  2  0
 23 24  1  0
 24 25  3  0
  9 26  1  0
 26 27  2  0
 27  6  1  0
 23 16  1  0
M  END
>  <Binding energies>  (14) 
[-8.47]

>  <Ligand effiencies>  (14) 
[-0.30250000000000005]

>  <Interactions>  (14) 
["V-B:ILE:538:CD1:9837, V-B:PRO:540:CD:9859, V-B:TYR:539:C:9839, V-B:PRO:540:CA:9855, H-B:TYR:539:N:9842, V-B:TYR:539:CE2:9848, V-B:TYR:539:CD2:9846, V-B:ILE:538:CA:9832, V-B:MET:535:CE:9807, V-B:TYR:539:CZ:9849, V-B:PRO:540:N:9856, V-B:TYR:531:CE2:9765, V-A:ASP:366:CG:3213, V-B:TYR:531:CZ:9766, V-A:ASP:366:CB:3212, V-A:TYR:539:CE1:4875, V-A:TYR:531:CZ:4794, V-A:TYR:539:CZ:4877, V-A:TYR:531:CE2:4793, V-A:PRO:540:CA:4883, V-A:TYR:539:C:4867, V-A:PRO:540:N:4884, V-A:PRO:540:CB:4885, H-B:LYS:534:NZ:9795, V-A:LEU:363:CD1:3189, H-A:ALA:541:N:4891, V-A:LEU:363:CA:3185, H-B:TYR:531:OH:9767, V-A:ILE:538:CB:4862, V-A:ILE:538:CG2:4863, V-A:PRO:540:C:4881, V-A:TYR:539:CD1:4873, V-B:MET:535:CG:9805, V-A:MET:535:CG:4833, V-A:LEU:363:CB:3187"]

$$$$
1q_Grossjean_2025
     RDKit          3D

 21 21  0  0  0  0  0  0  0  0999 V2000
  124.6320  122.7460   56.6900 C   0  0  0  0  0  0  0  0  0  0  0  0
  125.6770  122.0270   56.0510 O   0  0  0  0  0  0  0  0  0  0  0  0
  126.6970  122.6870   55.4470 C   0  0  0  0  0  0  0  0  0  0  0  0
  126.7900  122.9080   54.2390 O   0  0  0  0  0  0  0  0  0  0  0  0
  127.8100  123.1430   56.4140 C   0  0  0  0  0  0  0  0  0  0  0  0
  127.6160  122.6510   57.7870 N   0  0  0  0  0  0  0  0  0  0  0  0
  128.3750  122.9690   58.8530 C   0  0  0  0  0  0  0  0  0  0  0  0
  129.3410  123.7310   58.7900 O   0  0  0  0  0  0  0  0  0  0  0  0
  127.9580  122.3330   60.1880 C   0  0  0  0  0  0  0  0  0  0  0  0
  127.9130  123.3190   61.3720 C   0  0  0  0  0  0  0  0  0  0  0  0
  129.3710  123.2250   62.4530 S   0  0  0  0  0  0  0  0  0  0  0  0
  130.7370  122.5810   61.5080 C   0  0  0  0  0  0  0  0  0  0  0  0
  131.6740  123.5170   61.2090 N   0  0  0  0  0  0  0  0  0  0  0  0
  132.7600  123.1470   60.4910 C   0  0  0  0  0  0  0  0  0  0  0  0
  133.7530  124.2520   60.1820 C   0  0  0  0  0  0  0  0  0  0  0  0
  132.9620  121.8400   60.0540 C   0  0  0  0  0  0  0  0  0  0  0  0
  132.0170  120.8620   60.3780 C   0  0  0  0  0  0  0  0  0  0  0  0
  132.2710  119.4320   59.9020 C   0  0  0  0  0  0  0  0  0  0  0  0
  130.8760  121.2240   61.1290 C   0  0  0  0  0  0  0  0  0  0  0  0
  129.9050  120.2020   61.5250 C   0  0  0  0  0  0  0  0  0  0  0  0
  129.1400  119.3910   61.8370 N   0  0  0  0  0  0  0  0  0  0  0  0
  1  2  1  0
  2  3  1  0
  3  4  2  0
  3  5  1  0
  5  6  1  0
  6  7  1  0
  7  8  2  0
  7  9  1  0
  9 10  1  0
 10 11  1  0
 11 12  1  0
 12 13  2  0
 13 14  1  0
 14 15  1  0
 14 16  2  0
 16 17  1  0
 17 18  1  0
 17 19  2  0
 19 20  1  0
 20 21  3  0
 19 12  1  0
M  END
>  <Binding energies>  (15) 
[-5.98]

>  <Ligand effiencies>  (15) 
[-0.27181818181818185]

>  <Interactions>  (15) 
["V-B:TYR:539:CD1:9845, V-B:ILE:538:CD1:9837, V-B:PRO:540:CB:9857, V-B:PRO:540:CD:9859, V-B:LEU:363:CD1:8161, V-B:TYR:539:C:9839, V-B:PRO:540:CA:9855, H-B:TYR:539:N:9842, V-B:TYR:539:CE2:9848, V-B:TYR:539:CD2:9846, V-B:ILE:538:CA:9832, V-B:MET:535:CE:9807, V-B:ALA:541:CB:9864, V-B:TYR:539:CZ:9849, V-B:PRO:540:C:9853, V-B:TYR:539:CE1:9847, V-B:PRO:540:N:9856, V-B:TYR:531:CE2:9765, V-A:SER:385:CB:3409, H-A:TYR:484:OH:4348, V-A:ASP:366:CA:3210, V-A:ASP:366:CG:3213, V-B:TYR:539:CG:9844, V-A:LEU:475:CD2:4259, V-A:ILE:369:CD1:3239, V-A:ILE:369:CG2:3237, H-B:ALA:541:N:9863, H-B:TYR:539:O:9840, V-B:PRO:540:CG:9858"]

$$$$
2a_Grossjean_2025
     RDKit          3D

 29 30  0  0  0  0  0  0  0  0999 V2000
  124.7390  122.5290   56.2820 C   0  0  0  0  0  0  0  0  0  0  0  0
  126.1980  122.7610   55.8760 C   0  0  0  0  0  0  0  0  0  0  0  0
  127.0540  122.1360   56.8250 O   0  0  0  0  0  0  0  0  0  0  0  0
  127.5870  122.8390   57.8580 C   0  0  0  0  0  0  0  0  0  0  0  0
  128.1170  122.3110   58.8390 O   0  0  0  0  0  0  0  0  0  0  0  0
  127.4840  124.3270   57.6750 C   0  0  0  0  0  0  0  0  0  0  0  0
  128.4070  125.0430   56.8980 C   0  0  0  0  0  0  0  0  0  0  0  0
  128.2840  126.4220   56.7500 C   0  0  0  0  0  0  0  0  0  0  0  0
  127.2470  127.1120   57.3780 C   0  0  0  0  0  0  0  0  0  0  0  0
  127.2290  128.5040   57.1700 N   0  0  0  0  0  0  0  0  0  0  0  0
  126.8630  129.2150   56.0820 C   0  0  0  0  0  0  0  0  0  0  0  0
  126.4840  128.7390   55.0110 O   0  0  0  0  0  0  0  0  0  0  0  0
  126.9450  130.7380   56.2300 C   0  0  0  0  0  0  0  0  0  0  0  0
  127.7090  131.2710   57.7980 S   0  0  0  0  0  0  0  0  0  0  0  0
  129.3220  130.5160   57.9710 C   0  0  0  0  0  0  0  0  0  0  0  0
  129.3690  129.3960   58.7360 N   0  0  0  0  0  0  0  0  0  0  0  0
  130.5580  128.7800   58.9210 C   0  0  0  0  0  0  0  0  0  0  0  0
  130.5340  127.5510   59.8110 C   0  0  0  0  0  0  0  0  0  0  0  0
  131.7400  129.2420   58.3500 C   0  0  0  0  0  0  0  0  0  0  0  0
  131.7140  130.3930   57.5470 C   0  0  0  0  0  0  0  0  0  0  0  0
  133.0300  130.8910   56.9210 C   0  0  0  0  0  0  0  0  0  0  0  0
  133.6300  131.7530   57.7420 F   0  0  0  0  0  0  0  0  0  0  0  0
  133.8480  129.8610   56.7010 F   0  0  0  0  0  0  0  0  0  0  0  0
  132.8430  131.5110   55.7530 F   0  0  0  0  0  0  0  0  0  0  0  0
  130.4730  131.0510   57.3480 C   0  0  0  0  0  0  0  0  0  0  0  0
  130.3890  132.2600   56.5210 C   0  0  0  0  0  0  0  0  0  0  0  0
  130.3220  133.2140   55.8690 N   0  0  0  0  0  0  0  0  0  0  0  0
  126.3160  126.4010   58.1490 C   0  0  0  0  0  0  0  0  0  0  0  0
  126.4370  125.0220   58.2920 C   0  0  0  0  0  0  0  0  0  0  0  0
  1  2  1  0
  2  3  1  0
  3  4  1  0
  4  5  2  0
  4  6  1  0
  6  7  2  0
  7  8  1  0
  8  9  2  0
  9 10  1  0
 10 11  1  0
 11 12  2  0
 11 13  1  0
 13 14  1  0
 14 15  1  0
 15 16  2  0
 16 17  1  0
 17 18  1  0
 17 19  2  0
 19 20  1  0
 20 21  1  0
 21 22  1  0
 21 23  1  0
 21 24  1  0
 20 25  2  0
 25 26  1  0
 26 27  3  0
  9 28  1  0
 28 29  2  0
 29  6  1  0
 25 15  1  0
M  END
>  <Binding energies>  (16) 
[-7.22]

>  <Ligand effiencies>  (16) 
[-0.24066666666666667]

>  <Interactions>  (16) 
["V-B:ILE:538:CD1:9837, V-B:PRO:540:CB:9857, V-B:PRO:540:CD:9859, V-B:LEU:363:CD1:8161, V-B:TYR:539:C:9839, V-B:PRO:540:CA:9855, H-B:TYR:539:N:9842, V-B:ILE:538:CG2:9835, V-B:TYR:539:CE2:9848, V-B:TYR:539:CD2:9846, V-B:ILE:538:CA:9832, V-B:MET:535:CE:9807, V-B:PRO:540:N:9856, V-B:TYR:531:CE2:9765, V-A:ASP:366:CG:3213, V-A:ASP:366:CB:3212, V-A:TYR:539:CE1:4875, V-A:TYR:531:CZ:4794, H-A:TYR:539:N:4870, V-A:TYR:539:CZ:4877, V-A:TYR:531:CE2:4793, V-A:PRO:540:CA:4883, V-A:TYR:539:C:4867, V-A:PRO:540:N:4884, V-A:PRO:540:CB:4885, H-B:LYS:534:NZ:9795, V-A:LEU:363:CD1:3189, V-A:LEU:363:CA:3185, H-B:TYR:531:OH:9767, V-A:PRO:540:CG:4886, V-A:LEU:363:CB:3187, V-A:LEU:363:CG:3188"]

$$$$
2b_Grossjean_2025
     RDKit          3D

 28 29  0  0  0  0  0  0  0  0999 V2000
  126.1280  122.6990   55.8290 C   0  0  0  0  0  0  0  0  0  0  0  0
  126.9200  122.0250   56.7960 O   0  0  0  0  0  0  0  0  0  0  0  0
  127.6000  122.7150   57.7470 C   0  0  0  0  0  0  0  0  0  0  0  0
  128.2880  122.1750   58.6190 O   0  0  0  0  0  0  0  0  0  0  0  0
  127.4280  124.2030   57.6370 C   0  0  0  0  0  0  0  0  0  0  0  0
  126.3730  124.8770   58.2700 C   0  0  0  0  0  0  0  0  0  0  0  0
  126.2420  126.2570   58.1460 C   0  0  0  0  0  0  0  0  0  0  0  0
  127.1600  126.9910   57.3960 C   0  0  0  0  0  0  0  0  0  0  0  0
  126.9300  128.3790   57.3320 N   0  0  0  0  0  0  0  0  0  0  0  0
  126.5810  129.1470   56.2780 C   0  0  0  0  0  0  0  0  0  0  0  0
  126.4210  128.7450   55.1240 O   0  0  0  0  0  0  0  0  0  0  0  0
  126.3970  130.6360   56.5880 C   0  0  0  0  0  0  0  0  0  0  0  0
  127.8980  131.6230   56.2770 S   0  0  0  0  0  0  0  0  0  0  0  0
  129.2860  130.9170   57.1550 C   0  0  0  0  0  0  0  0  0  0  0  0
  128.9800  129.9600   58.0680 N   0  0  0  0  0  0  0  0  0  0  0  0
  129.9800  129.3860   58.7730 C   0  0  0  0  0  0  0  0  0  0  0  0
  129.5540  128.3370   59.7820 C   0  0  0  0  0  0  0  0  0  0  0  0
  131.3180  129.7290   58.5960 C   0  0  0  0  0  0  0  0  0  0  0  0
  131.6580  130.7100   57.6520 C   0  0  0  0  0  0  0  0  0  0  0  0
  133.1430  131.0750   57.4640 C   0  0  0  0  0  0  0  0  0  0  0  0
  133.2490  132.2940   56.9330 F   0  0  0  0  0  0  0  0  0  0  0  0
  133.7710  131.0600   58.6410 F   0  0  0  0  0  0  0  0  0  0  0  0
  133.7850  130.2270   56.6560 F   0  0  0  0  0  0  0  0  0  0  0  0
  130.6180  131.3260   56.9090 C   0  0  0  0  0  0  0  0  0  0  0  0
  130.9160  132.3610   55.9140 C   0  0  0  0  0  0  0  0  0  0  0  0
  131.1510  133.1770   55.1280 N   0  0  0  0  0  0  0  0  0  0  0  0
  128.2130  126.3240   56.7530 C   0  0  0  0  0  0  0  0  0  0  0  0
  128.3430  124.9440   56.8770 C   0  0  0  0  0  0  0  0  0  0  0  0
  1  2  1  0
  2  3  1  0
  3  4  2  0
  3  5  1  0
  5  6  2  0
  6  7  1  0
  7  8  2  0
  8  9  1  0
  9 10  1  0
 10 11  2  0
 10 12  1  0
 12 13  1  0
 13 14  1  0
 14 15  2  0
 15 16  1  0
 16 17  1  0
 16 18  2  0
 18 19  1  0
 19 20  1  0
 20 21  1  0
 20 22  1  0
 20 23  1  0
 19 24  2  0
 24 25  1  0
 25 26  3  0
  8 27  1  0
 27 28  2  0
 28  5  1  0
 24 14  1  0
M  END
>  <Binding energies>  (17) 
[-7.08]

>  <Ligand effiencies>  (17) 
[-0.24413793103448275]

>  <Interactions>  (17) 
["V-B:ILE:538:CD1:9837, V-B:TYR:539:C:9839, V-B:PRO:540:CA:9855, H-B:TYR:539:N:9842, V-B:TYR:539:CE2:9848, V-B:TYR:539:CD2:9846, V-B:ILE:538:CA:9832, V-B:MET:535:CE:9807, V-B:PRO:540:N:9856, V-A:ASP:366:CG:3213, V-B:TYR:539:CG:9844, V-A:ASP:366:CB:3212, V-A:TYR:539:CE1:4875, V-A:TYR:531:CZ:4794, V-B:TYR:531:CE1:9764, H-A:TYR:539:N:4870, V-B:ASP:366:CG:8185, V-A:TYR:539:CZ:4877, V-A:TYR:531:CE2:4793, V-A:PRO:540:CA:4883, V-A:PRO:540:N:4884, V-A:PRO:540:CB:4885, H-B:LYS:534:NZ:9795, V-A:LEU:363:CD1:3189, V-A:PRO:540:CD:4887, V-A:LEU:363:CA:3185, H-B:TYR:531:OH:9767, V-A:PRO:540:CG:4886, V-A:ASN:362:C:3172, V-A:LEU:363:CB:3187, V-A:LEU:363:CG:3188"]

$$$$
2c_Grossjean_2025
     RDKit          3D

 26 27  0  0  0  0  0  0  0  0999 V2000
  126.4640  122.7360   54.8700 C   0  0  0  0  0  0  0  0  0  0  0  0
  126.1750  122.2770   56.1870 O   0  0  0  0  0  0  0  0  0  0  0  0
  126.6660  122.9820   57.2690 C   0  0  0  0  0  0  0  0  0  0  0  0
  125.7210  123.5500   58.1220 C   0  0  0  0  0  0  0  0  0  0  0  0
  126.1180  124.2800   59.2390 C   0  0  0  0  0  0  0  0  0  0  0  0
  127.4830  124.4590   59.5090 C   0  0  0  0  0  0  0  0  0  0  0  0
  127.9800  125.1640   60.6200 N   0  0  0  0  0  0  0  0  0  0  0  0
  128.8170  126.2230   60.6410 C   0  0  0  0  0  0  0  0  0  0  0  0
  129.3380  126.7240   59.6430 O   0  0  0  0  0  0  0  0  0  0  0  0
  129.1300  126.7730   62.0410 C   0  0  0  0  0  0  0  0  0  0  0  0
  130.3960  125.8520   62.9810 S   0  0  0  0  0  0  0  0  0  0  0  0
  130.5960  124.2220   62.2710 C   0  0  0  0  0  0  0  0  0  0  0  0
  129.4450  123.5520   62.0060 N   0  0  0  0  0  0  0  0  0  0  0  0
  129.5190  122.3110   61.4770 C   0  0  0  0  0  0  0  0  0  0  0  0
  128.1910  121.6230   61.2250 C   0  0  0  0  0  0  0  0  0  0  0  0
  130.7310  121.6910   61.1830 C   0  0  0  0  0  0  0  0  0  0  0  0
  131.9320  122.3670   61.4410 C   0  0  0  0  0  0  0  0  0  0  0  0
  133.2650  121.6690   61.1080 C   0  0  0  0  0  0  0  0  0  0  0  0
  133.9810  122.4250   60.2750 F   0  0  0  0  0  0  0  0  0  0  0  0
  133.9680  121.4680   62.2240 F   0  0  0  0  0  0  0  0  0  0  0  0
  133.0920  120.4810   60.5240 F   0  0  0  0  0  0  0  0  0  0  0  0
  131.8690  123.6680   62.0010 C   0  0  0  0  0  0  0  0  0  0  0  0
  133.0940  124.4210   62.2940 C   0  0  0  0  0  0  0  0  0  0  0  0
  134.0600  125.0150   62.5250 N   0  0  0  0  0  0  0  0  0  0  0  0
  128.4330  123.8790   58.6670 C   0  0  0  0  0  0  0  0  0  0  0  0
  128.0310  123.1490   57.5520 C   0  0  0  0  0  0  0  0  0  0  0  0
  1  2  1  0
  2  3  1  0
  3  4  2  0
  4  5  1  0
  5  6  2  0
  6  7  1  0
  7  8  1  0
  8  9  2  0
  8 10  1  0
 10 11  1  0
 11 12  1  0
 12 13  2  0
 13 14  1  0
 14 15  1  0
 14 16  2  0
 16 17  1  0
 17 18  1  0
 18 19  1  0
 18 20  1  0
 18 21  1  0
 17 22  2  0
 22 23  1  0
 23 24  3  0
  6 25  1  0
 25 26  2  0
 26  3  1  0
 22 12  1  0
M  END
>  <Binding energies>  (18) 
[-6.14]

>  <Ligand effiencies>  (18) 
[-0.2274074074074074]

>  <Interactions>  (18) 
["V-B:ILE:538:CD1:9837, V-B:PRO:540:CB:9857, V-B:TYR:539:C:9839, V-B:PRO:540:CA:9855, H-B:TYR:539:N:9842, H-B:GLU:543:OE1:9881, V-B:TYR:539:CE2:9848, V-B:TYR:539:CD2:9846, V-B:ILE:538:CA:9832, V-B:MET:535:CE:9807, V-B:ALA:541:CB:9864, V-B:TYR:539:CZ:9849, V-B:PRO:540:C:9853, V-B:PRO:540:N:9856, V-A:SER:385:CB:3409, H-A:TYR:484:OH:4348, V-B:TYR:539:CG:9844, V-A:LEU:475:CD2:4259, V-A:ILE:369:CD1:3239, V-A:GLY:454:CA:4049, V-A:ILE:369:CB:3236, V-A:ILE:369:CG2:3237, H-A:GLY:454:N:4050, H-A:ARG:545:NH1:4927, H-A:ARG:545:NH2:4928, V-A:SER:385:C:3405, V-A:ILE:369:CG1:3238"]

$$$$
2d_Ghoteimi_2023
     RDKit          3D

 38 42  0  0  0  0  0  0  0  0999 V2000
  128.4970  132.0650   61.9380 C   0  0  0  0  0  0  0  0  0  0  0  0
  127.4490  132.9570   61.5900 O   0  0  0  0  0  0  0  0  0  0  0  0
  126.8790  132.9010   60.3690 C   0  0  0  0  0  0  0  0  0  0  0  0
  127.4870  132.8430   59.2960 O   0  0  0  0  0  0  0  0  0  0  0  0
  125.3460  132.9100   60.4680 C   0  0  0  0  0  0  0  0  0  0  0  0
  124.7790  132.1050   62.0060 S   0  0  0  0  0  0  0  0  0  0  0  0
  125.4840  130.4710   62.0750 C   0  0  0  0  0  0  0  0  0  0  0  0
  125.9350  130.1340   63.3080 N   0  0  0  0  0  0  0  0  0  0  0  0
  126.5040  128.9180   63.5060 C   0  0  0  0  0  0  0  0  0  0  0  0
  126.9930  128.6250   64.8870 C   0  0  0  0  0  0  0  0  0  0  0  0
  128.3100  128.9220   65.2540 C   0  0  0  0  0  0  0  0  0  0  0  0
  128.7730  128.6520   66.5390 C   0  0  0  0  0  0  0  0  0  0  0  0
  127.9310  128.0840   67.5080 C   0  0  0  0  0  0  0  0  0  0  0  0
  128.3850  127.7900   68.7990 N   0  0  0  0  0  0  0  0  0  0  0  0
  127.9990  126.5420   69.4870 C   0  0  0  0  0  0  0  0  0  0  0  0
  128.2760  126.5620   71.0040 C   0  0  0  0  0  0  0  0  0  0  0  0
  129.6410  126.8690   71.2430 O   0  0  0  0  0  0  0  0  0  0  0  0
  129.9880  128.1410   70.7220 C   0  0  0  0  0  0  0  0  0  0  0  0
  129.7560  128.1710   69.1960 C   0  0  0  0  0  0  0  0  0  0  0  0
  126.6160  127.7760   67.1320 C   0  0  0  0  0  0  0  0  0  0  0  0
  126.1540  128.0440   65.8460 C   0  0  0  0  0  0  0  0  0  0  0  0
  126.6290  128.0020   62.4580 C   0  0  0  0  0  0  0  0  0  0  0  0
  126.1410  128.3120   61.1820 C   0  0  0  0  0  0  0  0  0  0  0  0
  126.2840  127.2740   60.1180 C   0  0  0  0  0  0  0  0  0  0  0  0
  126.2670  125.9180   60.4520 C   0  0  0  0  0  0  0  0  0  0  0  0
  126.3870  124.9430   59.4670 C   0  0  0  0  0  0  0  0  0  0  0  0
  126.5310  125.2960   58.1160 C   0  0  0  0  0  0  0  0  0  0  0  0
  126.6400  124.3340   57.1080 N   0  0  0  0  0  0  0  0  0  0  0  0
  125.6640  123.2340   56.9860 C   0  0  0  0  0  0  0  0  0  0  0  0
  125.7330  122.4970   55.6310 C   0  0  0  0  0  0  0  0  0  0  0  0
  127.0530  122.0330   55.3970 O   0  0  0  0  0  0  0  0  0  0  0  0
  127.9870  123.1000   55.3670 C   0  0  0  0  0  0  0  0  0  0  0  0
  127.9780  123.8490   56.7170 C   0  0  0  0  0  0  0  0  0  0  0  0
  126.5280  126.6590   57.7870 C   0  0  0  0  0  0  0  0  0  0  0  0
  126.4070  127.6340   58.7730 C   0  0  0  0  0  0  0  0  0  0  0  0
  125.5440  129.5810   60.9780 C   0  0  0  0  0  0  0  0  0  0  0  0
  125.0010  129.9440   59.6650 C   0  0  0  0  0  0  0  0  0  0  0  0
  124.5730  130.2270   58.6270 N   0  0  0  0  0  0  0  0  0  0  0  0
  1  2  1  0
  2  3  1  0
  3  4  2  0
  3  5  1  0
  5  6  1  0
  6  7  1  0
  7  8  2  0
  8  9  1  0
  9 10  1  0
 10 11  2  0
 11 12  1  0
 12 13  2  0
 13 14  1  0
 14 15  1  0
 15 16  1  0
 16 17  1  0
 17 18  1  0
 18 19  1  0
 13 20  1  0
 20 21  2  0
  9 22  2  0
 22 23  1  0
 23 24  1  0
 24 25  2  0
 25 26  1  0
 26 27  2  0
 27 28  1  0
 28 29  1  0
 29 30  1  0
 30 31  1  0
 31 32  1  0
 32 33  1  0
 27 34  1  0
 34 35  2  0
 23 36  2  0
 36 37  1  0
 37 38  3  0
 36  7  1  0
 21 10  1  0
 35 24  1  0
 19 14  1  0
 33 28  1  0
M  END
>  <Binding energies>  (19) 
[-6.87]

>  <Ligand effiencies>  (19) 
[-0.18078947368421053]

>  <Interactions>  (19) 
["V-B:TYR:539:CD1:9845, V-B:ILE:538:CD1:9837, V-B:GLU:543:CD:9880, H-B:TYR:539:N:9842, V-B:ILE:538:CG2:9835, V-B:TYR:539:CE2:9848, V-B:ILE:538:CA:9832, V-B:MET:535:CE:9807, V-B:TYR:539:CZ:9849, V-B:TYR:539:CE1:9847, V-B:TYR:539:CG:9844, V-A:TYR:539:CE1:4875, V-B:ASP:366:CG:8185, V-B:ASP:366:CB:8184, V-B:ILE:538:C:9830, V-A:GLU:543:CD:4908, V-A:ALA:541:CB:4892, V-A:GLU:543:CG:4907, V-A:HIS:456:CE1:4070, V-A:GLU:543:C:4902, V-B:GLU:543:CB:9878, V-A:GLU:543:CB:4906, V-A:GLY:544:C:4912, V-A:HIS:456:CD2:4068, V-B:ARG:545:CZ:9898, V-B:HIS:456:CD2:9040, V-B:HIS:456:CE1:9042, V-B:ARG:545:CD:9895, V-B:ARG:545:CG:9894, V-A:TYR:539:CD1:4873, H-B:TYR:484:OH:9320, V-B:GLU:543:C:9874"]

$$$$
2d_Grossjean_2025
     RDKit          3D

 24 25  0  0  0  0  0  0  0  0999 V2000
  132.8680  124.7670   60.9520 C   0  0  0  0  0  0  0  0  0  0  0  0
  131.4800  124.2570   61.2900 C   0  0  0  0  0  0  0  0  0  0  0  0
  131.1970  122.8940   61.3460 C   0  0  0  0  0  0  0  0  0  0  0  0
  129.8990  122.4730   61.6680 C   0  0  0  0  0  0  0  0  0  0  0  0
  129.6070  120.9610   61.7360 C   0  0  0  0  0  0  0  0  0  0  0  0
  130.3330  120.3140   60.8240 F   0  0  0  0  0  0  0  0  0  0  0  0
  129.9150  120.4900   62.9460 F   0  0  0  0  0  0  0  0  0  0  0  0
  128.3250  120.6710   61.5080 F   0  0  0  0  0  0  0  0  0  0  0  0
  128.9090  123.4570   61.9190 C   0  0  0  0  0  0  0  0  0  0  0  0
  127.5490  123.0680   62.3040 C   0  0  0  0  0  0  0  0  0  0  0  0
  126.4770  122.7600   62.6100 N   0  0  0  0  0  0  0  0  0  0  0  0
  129.2810  124.8180   61.8140 C   0  0  0  0  0  0  0  0  0  0  0  0
  128.1590  126.1800   62.0650 S   0  0  0  0  0  0  0  0  0  0  0  0
  126.6380  125.8690   61.1090 C   0  0  0  0  0  0  0  0  0  0  0  0
  126.9050  125.1920   59.7610 C   0  0  0  0  0  0  0  0  0  0  0  0
  128.0150  125.3120   59.2410 O   0  0  0  0  0  0  0  0  0  0  0  0
  125.8610  124.5260   59.2250 N   0  0  0  0  0  0  0  0  0  0  0  0
  125.7920  123.8070   58.0170 C   0  0  0  0  0  0  0  0  0  0  0  0
  127.0150  123.4410   57.4500 C   0  0  0  0  0  0  0  0  0  0  0  0
  127.0490  122.7320   56.2520 C   0  0  0  0  0  0  0  0  0  0  0  0
  125.8570  122.3970   55.6150 C   0  0  0  0  0  0  0  0  0  0  0  0
  124.6320  122.7670   56.1630 C   0  0  0  0  0  0  0  0  0  0  0  0
  124.5940  123.4740   57.3610 C   0  0  0  0  0  0  0  0  0  0  0  0
  130.5460  125.2070   61.5220 N   0  0  0  0  0  0  0  0  0  0  0  0
  1  2  1  0
  2  3  2  0
  3  4  1  0
  4  5  1  0
  5  6  1  0
  5  7  1  0
  5  8  1  0
  4  9  2  0
  9 10  1  0
 10 11  3  0
  9 12  1  0
 12 13  1  0
 13 14  1  0
 14 15  1  0
 15 16  2  0
 15 17  1  0
 17 18  1  0
 18 19  2  0
 19 20  1  0
 20 21  2  0
 21 22  1  0
 22 23  2  0
 12 24  2  0
 24  2  1  0
 23 18  1  0
M  END
>  <Binding energies>  (20) 
[-6.7]

>  <Ligand effiencies>  (20) 
[-0.268]

>  <Interactions>  (20) 
["V-B:TYR:539:CD1:9845, V-B:ILE:538:CD1:9837, V-B:PRO:540:CB:9857, V-B:PRO:540:CD:9859, V-B:LEU:363:CD1:8161, V-B:GLU:543:CD:9880, V-B:TYR:539:C:9839, V-B:PRO:540:CA:9855, V-B:ILE:538:CG2:9835, V-B:TYR:539:CD2:9846, V-B:ILE:538:CA:9832, V-B:ALA:541:CB:9864, V-B:PRO:540:C:9853, H-B:ASP:366:OD2:8187, V-B:TYR:539:CE1:9847, V-B:PRO:540:N:9856, V-B:TYR:531:CE2:9765, V-A:LEU:475:CD1:4258, V-A:ASP:366:CG:3213, V-A:LEU:475:CD2:4259, V-B:TYR:531:CZ:9766, V-A:LEU:475:CG:4257, V-B:ILE:538:C:9830, V-B:ILE:538:CB:9834, H-B:ALA:541:N:9863, V-A:TYR:484:CZ:4347, V-B:ALA:541:CA:9862, V-B:GLU:543:CG:9879, V-A:TYR:484:CE1:4345"]

$$$$
2e_Grossjean_2025
     RDKit          3D

 25 26  0  0  0  0  0  0  0  0999 V2000
  127.1390  122.4650   54.5960 C   0  0  0  0  0  0  0  0  0  0  0  0
  126.7010  122.7440   56.0210 C   0  0  0  0  0  0  0  0  0  0  0  0
  125.4740  123.3500   56.3040 C   0  0  0  0  0  0  0  0  0  0  0  0
  125.1330  123.5660   57.6400 C   0  0  0  0  0  0  0  0  0  0  0  0
  126.0160  123.1770   58.6500 C   0  0  0  0  0  0  0  0  0  0  0  0
  127.2330  122.5840   58.2960 C   0  0  0  0  0  0  0  0  0  0  0  0
  128.0650  122.1720   59.3520 N   0  0  0  0  0  0  0  0  0  0  0  0
  129.3310  122.5620   59.6160 C   0  0  0  0  0  0  0  0  0  0  0  0
  129.9500  123.4240   58.9910 O   0  0  0  0  0  0  0  0  0  0  0  0
  130.0310  121.8210   60.7600 C   0  0  0  0  0  0  0  0  0  0  0  0
  129.1420  122.0030   62.3390 S   0  0  0  0  0  0  0  0  0  0  0  0
  127.8820  123.2230   62.0360 C   0  0  0  0  0  0  0  0  0  0  0  0
  126.6140  122.7430   62.0600 N   0  0  0  0  0  0  0  0  0  0  0  0
  125.5970  123.5940   61.7950 C   0  0  0  0  0  0  0  0  0  0  0  0
  124.2050  122.9920   61.8400 C   0  0  0  0  0  0  0  0  0  0  0  0
  125.8000  124.9400   61.4930 C   0  0  0  0  0  0  0  0  0  0  0  0
  127.1070  125.4490   61.4550 C   0  0  0  0  0  0  0  0  0  0  0  0
  127.3170  126.9330   61.0990 C   0  0  0  0  0  0  0  0  0  0  0  0
  126.1390  127.5330   60.9250 F   0  0  0  0  0  0  0  0  0  0  0  0
  127.9760  127.5480   62.0820 F   0  0  0  0  0  0  0  0  0  0  0  0
  128.0210  127.0980   59.9770 F   0  0  0  0  0  0  0  0  0  0  0  0
  128.1830  124.5710   61.7360 C   0  0  0  0  0  0  0  0  0  0  0  0
  129.5730  125.0350   61.6830 C   0  0  0  0  0  0  0  0  0  0  0  0
  130.6700  125.4020   61.6410 N   0  0  0  0  0  0  0  0  0  0  0  0
  127.5710  122.3620   56.9920 N   0  0  0  0  0  0  0  0  0  0  0  0
  1  2  1  0
  2  3  2  0
  3  4  1  0
  4  5  2  0
  5  6  1  0
  6  7  1  0
  7  8  1  0
  8  9  2  0
  8 10  1  0
 10 11  1  0
 11 12  1  0
 12 13  2  0
 13 14  1  0
 14 15  1  0
 14 16  2  0
 16 17  1  0
 17 18  1  0
 18 19  1  0
 18 20  1  0
 18 21  1  0
 17 22  2  0
 22 23  1  0
 23 24  3  0
  6 25  2  0
 25  2  1  0
 22 12  1  0
M  END
>  <Binding energies>  (21) 
[-6.32]

>  <Ligand effiencies>  (21) 
[-0.24307692307692308]

>  <Interactions>  (21) 
["V-B:TYR:539:CD1:9845, V-B:ILE:538:CD1:9837, V-B:PRO:540:CB:9857, V-B:GLU:543:CD:9880, V-B:TYR:539:C:9839, V-B:PRO:540:CA:9855, H-B:TYR:539:N:9842, V-B:TYR:539:CE2:9848, V-B:TYR:539:CD2:9846, V-B:ILE:538:CA:9832, V-B:MET:535:CE:9807, V-B:PRO:540:C:9853, V-B:TYR:539:CE1:9847, V-B:PRO:540:N:9856, V-B:TYR:531:CE2:9765, H-A:TYR:484:OH:4348, V-B:TYR:531:CZ:9766, V-B:ASP:366:CG:8185, V-B:ILE:538:C:9830, H-B:ALA:541:N:9863, H-B:TYR:539:O:9840, V-B:ASN:362:CB:8148, V-B:GLU:543:CG:9879, V-B:VAL:537:C:9822"]

$$$$
2f_Grossjean_2025
     RDKit          3D

 24 25  0  0  0  0  0  0  0  0999 V2000
  133.2480  125.3480   64.3180 C   0  0  0  0  0  0  0  0  0  0  0  0
  132.5520  125.0930   62.9940 C   0  0  0  0  0  0  0  0  0  0  0  0
  133.2680  124.7850   61.8400 C   0  0  0  0  0  0  0  0  0  0  0  0
  132.5790  124.5660   60.6370 C   0  0  0  0  0  0  0  0  0  0  0  0
  133.3910  124.2390   59.3690 C   0  0  0  0  0  0  0  0  0  0  0  0
  134.6940  124.4070   59.6030 F   0  0  0  0  0  0  0  0  0  0  0  0
  133.1770  122.9740   59.0050 F   0  0  0  0  0  0  0  0  0  0  0  0
  133.0670  125.0160   58.3330 F   0  0  0  0  0  0  0  0  0  0  0  0
  131.1640  124.6580   60.6400 C   0  0  0  0  0  0  0  0  0  0  0  0
  130.4030  124.4930   59.3990 C   0  0  0  0  0  0  0  0  0  0  0  0
  129.8030  124.3620   58.4180 N   0  0  0  0  0  0  0  0  0  0  0  0
  130.5180  124.9490   61.8660 C   0  0  0  0  0  0  0  0  0  0  0  0
  128.7530  125.0900   62.0570 S   0  0  0  0  0  0  0  0  0  0  0  0
  128.0540  123.4060   62.1270 C   0  0  0  0  0  0  0  0  0  0  0  0
  126.9280  123.1250   61.1220 C   0  0  0  0  0  0  0  0  0  0  0  0
  125.8170  122.7600   61.5090 O   0  0  0  0  0  0  0  0  0  0  0  0
  127.2770  123.2940   59.8280 N   0  0  0  0  0  0  0  0  0  0  0  0
  126.5010  123.1360   58.6640 C   0  0  0  0  0  0  0  0  0  0  0  0
  125.1700  123.5630   58.5060 C   0  0  0  0  0  0  0  0  0  0  0  0
  124.5150  123.3480   57.2920 C   0  0  0  0  0  0  0  0  0  0  0  0
  125.2100  122.7130   56.2620 C   0  0  0  0  0  0  0  0  0  0  0  0
  126.4960  122.2990   56.3860 N   0  0  0  0  0  0  0  0  0  0  0  0
  127.1190  122.5160   57.5720 C   0  0  0  0  0  0  0  0  0  0  0  0
  131.2020  125.1800   63.0130 N   0  0  0  0  0  0  0  0  0  0  0  0
  1  2  1  0
  2  3  2  0
  3  4  1  0
  4  5  1  0
  5  6  1  0
  5  7  1  0
  5  8  1  0
  4  9  2  0
  9 10  1  0
 10 11  3  0
  9 12  1  0
 12 13  1  0
 13 14  1  0
 14 15  1  0
 15 16  2  0
 15 17  1  0
 17 18  1  0
 18 19  2  0
 19 20  1  0
 20 21  2  0
 21 22  1  0
 22 23  2  0
 12 24  2  0
 24  2  1  0
 23 18  1  0
M  END
>  <Binding energies>  (22) 
[-6.63]

>  <Ligand effiencies>  (22) 
[-0.2652]

>  <Interactions>  (22) 
["V-B:ILE:538:CD1:9837, V-B:PRO:540:CB:9857, V-B:PRO:540:CD:9859, V-B:LEU:363:CD1:8161, V-B:GLU:543:CD:9880, V-B:TYR:539:C:9839, V-B:PRO:540:CA:9855, H-B:TYR:539:N:9842, V-B:ILE:538:CG2:9835, V-B:TYR:539:CE2:9848, V-B:TYR:539:CD2:9846, V-B:TYR:539:CZ:9849, V-B:PRO:540:C:9853, V-B:PRO:540:N:9856, V-B:TYR:531:CE2:9765, H-A:TYR:484:OH:4348, V-A:ASP:366:CA:3210, V-A:ASP:366:CG:3213, V-B:TYR:539:CG:9844, V-B:TYR:531:CZ:9766, V-A:ILE:369:CD1:3239, V-A:ASP:366:C:3208, V-A:ASP:366:CB:3212, V-A:ILE:369:CB:3236, V-A:ILE:369:CG2:3237, V-B:TYR:539:CA:9841, H-B:ALA:541:N:9863, V-A:ARG:545:CZ:4926, V-A:ARG:545:CD:4923, V-A:ILE:369:CG1:3238, V-B:GLU:543:CG:9879"]

$$$$
2g_Grossjean_2025
     RDKit          3D

 25 26  0  0  0  0  0  0  0  0999 V2000
  130.6370  118.7670   60.3820 C   0  0  0  0  0  0  0  0  0  0  0  0
  130.6410  120.2190   60.8210 C   0  0  0  0  0  0  0  0  0  0  0  0
  131.7420  121.0440   60.6050 C   0  0  0  0  0  0  0  0  0  0  0  0
  131.7000  122.3780   61.0360 C   0  0  0  0  0  0  0  0  0  0  0  0
  132.9320  123.2730   60.7970 C   0  0  0  0  0  0  0  0  0  0  0  0
  133.9620  122.5380   60.3750 F   0  0  0  0  0  0  0  0  0  0  0  0
  132.6500  124.1930   59.8730 F   0  0  0  0  0  0  0  0  0  0  0  0
  133.3260  123.9150   61.8990 F   0  0  0  0  0  0  0  0  0  0  0  0
  130.5240  122.8480   61.6750 C   0  0  0  0  0  0  0  0  0  0  0  0
  130.4490  124.2160   62.1950 C   0  0  0  0  0  0  0  0  0  0  0  0
  130.3900  125.2970   62.6050 N   0  0  0  0  0  0  0  0  0  0  0  0
  129.4420  121.9470   61.8230 C   0  0  0  0  0  0  0  0  0  0  0  0
  127.8870  122.3760   62.5760 S   0  0  0  0  0  0  0  0  0  0  0  0
  127.2200  123.8150   61.6730 C   0  0  0  0  0  0  0  0  0  0  0  0
  127.5090  123.8160   60.1650 C   0  0  0  0  0  0  0  0  0  0  0  0
  127.4150  124.8460   59.4940 O   0  0  0  0  0  0  0  0  0  0  0  0
  127.8610  122.6270   59.6430 N   0  0  0  0  0  0  0  0  0  0  0  0
  128.1920  122.3810   58.2390 C   0  0  0  0  0  0  0  0  0  0  0  0
  127.0410  122.6280   57.2690 C   0  0  0  0  0  0  0  0  0  0  0  0
  127.2880  122.6690   55.8930 C   0  0  0  0  0  0  0  0  0  0  0  0
  126.2330  122.8570   55.0030 C   0  0  0  0  0  0  0  0  0  0  0  0
  124.9350  122.9920   55.4900 C   0  0  0  0  0  0  0  0  0  0  0  0
  124.6810  122.9390   56.8600 C   0  0  0  0  0  0  0  0  0  0  0  0
  125.7350  122.7510   57.7500 C   0  0  0  0  0  0  0  0  0  0  0  0
  129.5090  120.6540   61.4210 N   0  0  0  0  0  0  0  0  0  0  0  0
  1  2  1  0
  2  3  2  0
  3  4  1  0
  4  5  1  0
  5  6  1  0
  5  7  1  0
  5  8  1  0
  4  9  2  0
  9 10  1  0
 10 11  3  0
  9 12  1  0
 12 13  1  0
 13 14  1  0
 14 15  1  0
 15 16  2  0
 15 17  1  0
 17 18  1  0
 18 19  1  0
 19 20  2  0
 20 21  1  0
 21 22  2  0
 22 23  1  0
 23 24  2  0
 12 25  2  0
 25  2  1  0
 24 19  1  0
M  END
>  <Binding energies>  (23) 
[-6.59]

>  <Ligand effiencies>  (23) 
[-0.25346153846153846]

>  <Interactions>  (23) 
["V-B:TYR:539:CD1:9845, V-B:ILE:538:CD1:9837, V-B:PRO:540:CB:9857, V-B:PRO:540:CD:9859, V-B:LEU:363:CD1:8161, V-B:GLU:543:CD:9880, V-B:TYR:539:C:9839, V-B:PRO:540:CA:9855, V-B:ILE:538:CG2:9835, V-B:TYR:539:CE2:9848, V-B:TYR:539:CD2:9846, V-B:ILE:538:CA:9832, V-B:MET:535:CE:9807, V-B:ALA:541:CB:9864, V-B:TYR:539:CZ:9849, V-B:TYR:539:CE1:9847, V-B:PRO:540:N:9856, V-B:TYR:531:CE2:9765, H-A:TYR:484:OH:4348, V-B:TYR:539:CG:9844, V-A:LEU:475:CD2:4259, V-B:TYR:531:CZ:9766, V-A:ILE:369:CD1:3239, V-A:ILE:369:CB:3236, V-A:ILE:369:CG2:3237, V-B:TYR:539:CA:9841, H-B:ALA:541:N:9863, V-B:TYR:539:CB:9843, H-B:TYR:539:O:9840, V-B:PRO:540:CG:9858, V-A:ILE:369:CG1:3238"]

$$$$
2h_Grossjean_2025
     RDKit          3D

 31 32  0  0  0  0  0  0  0  0999 V2000
  126.9580  126.1480   59.8240 C   0  0  0  0  0  0  0  0  0  0  0  0
  127.5940  127.4060   59.6300 O   0  0  0  0  0  0  0  0  0  0  0  0
  128.0390  127.7540   58.3670 C   0  0  0  0  0  0  0  0  0  0  0  0
  129.3920  127.7800   57.9930 C   0  0  0  0  0  0  0  0  0  0  0  0
  129.7640  128.1330   56.6980 C   0  0  0  0  0  0  0  0  0  0  0  0
  128.7960  128.4690   55.7500 C   0  0  0  0  0  0  0  0  0  0  0  0
  129.2260  128.8330   54.3300 C   0  0  0  0  0  0  0  0  0  0  0  0
  129.9750  130.0880   54.2480 N   0  0  0  0  0  0  0  0  0  0  0  0
  129.4360  131.2900   53.9750 C   0  0  0  0  0  0  0  0  0  0  0  0
  128.2500  131.4470   53.6820 O   0  0  0  0  0  0  0  0  0  0  0  0
  130.4000  132.4820   54.0600 C   0  0  0  0  0  0  0  0  0  0  0  0
  131.6950  132.3370   55.3360 S   0  0  0  0  0  0  0  0  0  0  0  0
  130.8720  131.9240   56.8590 C   0  0  0  0  0  0  0  0  0  0  0  0
  129.5290  132.1050   56.8200 N   0  0  0  0  0  0  0  0  0  0  0  0
  128.8060  131.8400   57.9310 C   0  0  0  0  0  0  0  0  0  0  0  0
  127.3120  132.0730   57.8160 C   0  0  0  0  0  0  0  0  0  0  0  0
  129.3850  131.3820   59.1130 C   0  0  0  0  0  0  0  0  0  0  0  0
  130.7700  131.1690   59.1660 C   0  0  0  0  0  0  0  0  0  0  0  0
  131.3910  130.6530   60.4790 C   0  0  0  0  0  0  0  0  0  0  0  0
  131.3760  129.3200   60.4970 F   0  0  0  0  0  0  0  0  0  0  0  0
  132.6580  131.0420   60.6390 F   0  0  0  0  0  0  0  0  0  0  0  0
  130.6970  131.1080   61.5240 F   0  0  0  0  0  0  0  0  0  0  0  0
  131.5420  131.4360   58.0060 C   0  0  0  0  0  0  0  0  0  0  0  0
  132.9830  131.1730   57.9920 C   0  0  0  0  0  0  0  0  0  0  0  0
  134.1210  130.9630   57.9820 N   0  0  0  0  0  0  0  0  0  0  0  0
  127.4410  128.4710   56.1170 C   0  0  0  0  0  0  0  0  0  0  0  0
  126.4820  128.8030   55.1890 O   0  0  0  0  0  0  0  0  0  0  0  0
  125.7370  129.9710   55.5090 C   0  0  0  0  0  0  0  0  0  0  0  0
  127.0670  128.0950   57.4180 C   0  0  0  0  0  0  0  0  0  0  0  0
  125.7400  128.0780   57.7750 O   0  0  0  0  0  0  0  0  0  0  0  0
  125.3710  129.1020   58.6880 C   0  0  0  0  0  0  0  0  0  0  0  0
  1  2  1  0
  2  3  1  0
  3  4  2  0
  4  5  1  0
  5  6  2  0
  6  7  1  0
  7  8  1  0
  8  9  1  0
  9 10  2  0
  9 11  1  0
 11 12  1  0
 12 13  1  0
 13 14  2  0
 14 15  1  0
 15 16  1  0
 15 17  2  0
 17 18  1  0
 18 19  1  0
 19 20  1  0
 19 21  1  0
 19 22  1  0
 18 23  2  0
 23 24  1  0
 24 25  3  0
  6 26  1  0
 26 27  1  0
 27 28  1  0
 26 29  2  0
 29 30  1  0
 30 31  1  0
 29  3  1  0
 23 13  1  0
M  END
>  <Binding energies>  (24) 
[-5.9]

>  <Ligand effiencies>  (24) 
[-0.184375]

>  <Interactions>  (24) 
["V-B:MET:535:CE:9807, V-A:ASP:366:CG:3213, V-A:TYR:539:CE1:4875, V-A:TYR:531:CZ:4794, V-B:TYR:531:CE1:9764, V-B:ASP:366:CG:8185, V-A:TYR:539:CZ:4877, V-A:PRO:540:CA:4883, V-A:PRO:540:N:4884, V-A:PRO:540:CB:4885, V-B:ASP:366:CB:8184, V-A:MET:535:CE:4835, H-B:LYS:534:NZ:9795, V-A:LEU:363:CD1:3189, V-A:GLU:543:CD:4908, V-A:GLU:543:CG:4907, H-B:TYR:531:OH:9767, V-A:ILE:538:CA:4860, V-A:ILE:538:CB:4862, V-A:ILE:538:CG2:4863, H-A:TYR:531:OH:4795, V-A:TYR:539:CG:4872, V-A:TYR:539:CD1:4873, H-A:LEU:363:N:3186"]

$$$$
2i_Grossjean_2025
     RDKit          3D

 23 24  0  0  0  0  0  0  0  0999 V2000
  130.1990  126.4670   63.2390 C   0  0  0  0  0  0  0  0  0  0  0  0
  130.6960  125.1940   62.5790 C   0  0  0  0  0  0  0  0  0  0  0  0
  132.0320  125.0320   62.2210 C   0  0  0  0  0  0  0  0  0  0  0  0
  132.4420  123.8350   61.6160 C   0  0  0  0  0  0  0  0  0  0  0  0
  133.9240  123.6720   61.2260 C   0  0  0  0  0  0  0  0  0  0  0  0
  134.0690  123.8300   59.9090 F   0  0  0  0  0  0  0  0  0  0  0  0
  134.6660  124.5830   61.8550 F   0  0  0  0  0  0  0  0  0  0  0  0
  134.4120  122.4700   61.5410 F   0  0  0  0  0  0  0  0  0  0  0  0
  131.4740  122.8240   61.3880 C   0  0  0  0  0  0  0  0  0  0  0  0
  131.8490  121.5530   60.7600 C   0  0  0  0  0  0  0  0  0  0  0  0
  132.1440  120.5490   60.2650 N   0  0  0  0  0  0  0  0  0  0  0  0
  130.1390  123.0740   61.7810 C   0  0  0  0  0  0  0  0  0  0  0  0
  128.8340  121.8800   61.5370 S   0  0  0  0  0  0  0  0  0  0  0  0
  127.2590  122.7800   61.4210 C   0  0  0  0  0  0  0  0  0  0  0  0
  126.9600  123.2440   59.9940 C   0  0  0  0  0  0  0  0  0  0  0  0
  126.3050  124.2740   59.8240 O   0  0  0  0  0  0  0  0  0  0  0  0
  127.4300  122.4510   59.0070 N   0  0  0  0  0  0  0  0  0  0  0  0
  127.2760  122.6470   57.6450 C   0  0  0  0  0  0  0  0  0  0  0  0
  128.0070  123.4520   56.7590 C   0  0  0  0  0  0  0  0  0  0  0  0
  127.4140  123.2530   55.5340 C   0  0  0  0  0  0  0  0  0  0  0  0
  126.3930  122.3740   55.6740 O   0  0  0  0  0  0  0  0  0  0  0  0
  126.3230  121.9950   57.0160 N   0  0  0  0  0  0  0  0  0  0  0  0
  129.7630  124.2400   62.3670 N   0  0  0  0  0  0  0  0  0  0  0  0
  1  2  1  0
  2  3  2  0
  3  4  1  0
  4  5  1  0
  5  6  1  0
  5  7  1  0
  5  8  1  0
  4  9  2  0
  9 10  1  0
 10 11  3  0
  9 12  1  0
 12 13  1  0
 13 14  1  0
 14 15  1  0
 15 16  2  0
 15 17  1  0
 17 18  1  0
 18 19  1  0
 19 20  2  0
 20 21  1  0
 21 22  1  0
 12 23  2  0
 23  2  1  0
 22 18  2  0
M  END
>  <Binding energies>  (25) 
[-6.67]

>  <Ligand effiencies>  (25) 
[-0.27791666666666665]

>  <Interactions>  (25) 
["V-B:TYR:539:CD1:9845, V-B:PRO:540:CB:9857, V-B:TYR:539:C:9839, V-B:PRO:540:CA:9855, H-B:TYR:539:N:9842, V-B:TYR:539:CE2:9848, V-B:TYR:539:CD2:9846, V-B:MET:535:CE:9807, V-B:TYR:539:CZ:9849, V-B:PRO:540:C:9853, V-B:TYR:539:CE1:9847, V-B:PRO:540:N:9856, V-A:GLY:453:C:4042, H-A:TYR:484:OH:4348, V-A:ASP:366:CA:3210, V-A:ASP:366:CG:3213, V-A:LEU:475:CD2:4259, V-A:ILE:369:CD1:3239, V-A:GLY:454:CA:4049, V-A:ILE:369:CB:3236, V-A:ILE:369:CG2:3237, V-A:GLU:543:CD:4908, V-A:ARG:545:CZ:4926, H-B:TYR:539:O:9840, V-A:ILE:369:CG1:3238, V-A:GLY:453:CA:4044"]

$$$$
2k_Grossjean_2025
     RDKit          3D

 28 28  0  0  0  0  0  0  0  0999 V2000
  132.2710  131.0330   61.0640 C   0  0  0  0  0  0  0  0  0  0  0  0
  131.2250  131.9760   60.8800 O   0  0  0  0  0  0  0  0  0  0  0  0
  130.3390  131.6380   59.8200 C   0  0  0  0  0  0  0  0  0  0  0  0
  131.1100  130.9080   58.7130 C   0  0  0  0  0  0  0  0  0  0  0  0
  130.8200  131.5220   57.4650 O   0  0  0  0  0  0  0  0  0  0  0  0
  131.9700  131.9210   56.7290 C   0  0  0  0  0  0  0  0  0  0  0  0
  131.5110  132.4700   55.3720 C   0  0  0  0  0  0  0  0  0  0  0  0
  130.1590  132.8810   55.5040 O   0  0  0  0  0  0  0  0  0  0  0  0
  129.4070  132.8820   54.3000 C   0  0  0  0  0  0  0  0  0  0  0  0
  128.4100  131.7090   54.3320 C   0  0  0  0  0  0  0  0  0  0  0  0
  128.8260  130.6290   55.2300 N   0  0  0  0  0  0  0  0  0  0  0  0
  128.1930  129.4500   55.3830 C   0  0  0  0  0  0  0  0  0  0  0  0
  127.1870  129.1330   54.7460 O   0  0  0  0  0  0  0  0  0  0  0  0
  128.7920  128.5040   56.4340 C   0  0  0  0  0  0  0  0  0  0  0  0
  130.6140  128.5340   56.5660 S   0  0  0  0  0  0  0  0  0  0  0  0
  131.1390  127.3640   57.8120 C   0  0  0  0  0  0  0  0  0  0  0  0
  130.6090  127.5440   59.0490 N   0  0  0  0  0  0  0  0  0  0  0  0
  130.9650  126.6980   60.0410 C   0  0  0  0  0  0  0  0  0  0  0  0
  130.3400  126.9720   61.3950 C   0  0  0  0  0  0  0  0  0  0  0  0
  131.8460  125.6390   59.8450 C   0  0  0  0  0  0  0  0  0  0  0  0
  132.4000  125.4280   58.5730 C   0  0  0  0  0  0  0  0  0  0  0  0
  133.3700  124.2480   58.3720 C   0  0  0  0  0  0  0  0  0  0  0  0
  133.6270  124.0040   57.0860 F   0  0  0  0  0  0  0  0  0  0  0  0
  134.5330  124.5060   58.9710 F   0  0  0  0  0  0  0  0  0  0  0  0
  132.8510  123.1370   58.8960 F   0  0  0  0  0  0  0  0  0  0  0  0
  132.0410  126.3130   57.5240 C   0  0  0  0  0  0  0  0  0  0  0  0
  132.5920  126.1430   56.1760 C   0  0  0  0  0  0  0  0  0  0  0  0
  133.0270  126.0070   55.1110 N   0  0  0  0  0  0  0  0  0  0  0  0
  1  2  1  0
  2  3  1  0
  3  4  1  0
  4  5  1  0
  5  6  1  0
  6  7  1  0
  7  8  1  0
  8  9  1  0
  9 10  1  0
 10 11  1  0
 11 12  1  0
 12 13  2  0
 12 14  1  0
 14 15  1  0
 15 16  1  0
 16 17  2  0
 17 18  1  0
 18 19  1  0
 18 20  2  0
 20 21  1  0
 21 22  1  0
 22 23  1  0
 22 24  1  0
 22 25  1  0
 21 26  2  0
 26 27  1  0
 27 28  3  0
 26 16  1  0
M  END
>  <Binding energies>  (26) 
[-5.62]

>  <Ligand effiencies>  (26) 
[-0.19379310344827586]

>  <Interactions>  (26) 
["V-B:TYR:539:CE2:9848, V-B:TYR:539:CD2:9846, V-B:TYR:539:CZ:9849, V-A:ASP:366:CA:3210, V-A:ASP:366:CG:3213, V-A:ILE:369:CD1:3239, V-A:ASP:366:C:3208, V-A:ASP:366:CB:3212, V-A:ILE:369:CB:3236, V-A:ILE:369:CG2:3237, H-A:TYR:539:N:4870, V-A:PRO:540:CA:4883, V-A:PRO:540:N:4884, V-A:PRO:540:CB:4885, V-A:TYR:539:CE2:4876, H-B:LYS:534:NZ:9795, V-A:LEU:363:CD1:3189, V-A:TYR:531:CE1:4792, H-A:ALA:541:N:4891, V-A:PRO:540:CD:4887, H-B:TYR:539:OH:9850, V-A:ILE:538:CA:4860, V-A:ILE:538:CB:4862, V-A:ILE:538:CG2:4863, H-A:TYR:531:OH:4795, V-A:ILE:538:C:4858, V-A:TYR:539:CD2:4874, V-A:ILE:369:CG1:3238"]

$$$$
3aa_Grossjean_2025
     RDKit          3D

 34 36  0  0  0  0  0  0  0  0999 V2000
  128.9990  132.5060   58.2380 C   0  0  0  0  0  0  0  0  0  0  0  0
  128.3740  132.3660   56.8460 C   0  0  0  0  0  0  0  0  0  0  0  0
  129.2040  133.0080   55.8860 O   0  0  0  0  0  0  0  0  0  0  0  0
  130.5330  132.7380   55.8200 C   0  0  0  0  0  0  0  0  0  0  0  0
  131.3750  133.5550   55.4350 O   0  0  0  0  0  0  0  0  0  0  0  0
  130.8770  131.3390   56.2450 C   0  0  0  0  0  0  0  0  0  0  0  0
  130.1450  130.2270   55.8030 C   0  0  0  0  0  0  0  0  0  0  0  0
  130.4930  128.9430   56.2130 C   0  0  0  0  0  0  0  0  0  0  0  0
  131.5800  128.7430   57.0650 C   0  0  0  0  0  0  0  0  0  0  0  0
  131.8500  127.4050   57.4160 N   0  0  0  0  0  0  0  0  0  0  0  0
  132.1440  126.3500   56.6240 C   0  0  0  0  0  0  0  0  0  0  0  0
  132.2090  126.3760   55.3940 O   0  0  0  0  0  0  0  0  0  0  0  0
  132.4000  125.0300   57.3530 C   0  0  0  0  0  0  0  0  0  0  0  0
  132.1210  125.1830   59.1430 S   0  0  0  0  0  0  0  0  0  0  0  0
  130.8460  124.0180   59.5720 C   0  0  0  0  0  0  0  0  0  0  0  0
  129.8200  123.9860   58.6890 N   0  0  0  0  0  0  0  0  0  0  0  0
  128.7780  123.1410   58.8980 C   0  0  0  0  0  0  0  0  0  0  0  0
  127.6890  123.1530   57.8680 C   0  0  0  0  0  0  0  0  0  0  0  0
  127.9980  123.0910   56.5000 C   0  0  0  0  0  0  0  0  0  0  0  0
  126.9920  123.1010   55.5370 C   0  0  0  0  0  0  0  0  0  0  0  0
  125.6600  123.1740   55.9310 C   0  0  0  0  0  0  0  0  0  0  0  0
  125.3270  123.2340   57.2800 C   0  0  0  0  0  0  0  0  0  0  0  0
  126.3350  123.2210   58.2410 C   0  0  0  0  0  0  0  0  0  0  0  0
  128.7510  122.2950   60.0110 C   0  0  0  0  0  0  0  0  0  0  0  0
  129.7940  122.3230   60.9500 C   0  0  0  0  0  0  0  0  0  0  0  0
  129.7220  121.3850   62.1690 C   0  0  0  0  0  0  0  0  0  0  0  0
  130.9270  121.0500   62.6360 F   0  0  0  0  0  0  0  0  0  0  0  0
  129.0590  121.9730   63.1650 F   0  0  0  0  0  0  0  0  0  0  0  0
  129.0920  120.2570   61.8380 F   0  0  0  0  0  0  0  0  0  0  0  0
  130.8710  123.2180   60.7360 C   0  0  0  0  0  0  0  0  0  0  0  0
  131.9590  123.3320   61.7120 C   0  0  0  0  0  0  0  0  0  0  0  0
  132.8170  123.4220   62.4830 N   0  0  0  0  0  0  0  0  0  0  0  0
  132.3090  129.8510   57.5220 C   0  0  0  0  0  0  0  0  0  0  0  0
  131.9570  131.1340   57.1130 C   0  0  0  0  0  0  0  0  0  0  0  0
  1  2  1  0
  2  3  1  0
  3  4  1  0
  4  5  2  0
  4  6  1  0
  6  7  2  0
  7  8  1  0
  8  9  2  0
  9 10  1  0
 10 11  1  0
 11 12  2  0
 11 13  1  0
 13 14  1  0
 14 15  1  0
 15 16  2  0
 16 17  1  0
 17 18  1  0
 18 19  2  0
 19 20  1  0
 20 21  2  0
 21 22  1  0
 22 23  2  0
 17 24  2  0
 24 25  1  0
 25 26  1  0
 26 27  1  0
 26 28  1  0
 26 29  1  0
 25 30  2  0
 30 31  1  0
 31 32  3  0
  9 33  1  0
 33 34  2  0
 34  6  1  0
 30 15  1  0
 23 18  1  0
M  END
>  <Binding energies>  (27) 
[-9.04]

>  <Ligand effiencies>  (27) 
[-0.2582857142857143]

>  <Interactions>  (27) 
["V-B:TYR:539:CD1:9845, V-B:ILE:538:CD1:9837, V-B:PRO:540:CB:9857, V-B:PRO:540:CD:9859, V-B:TYR:539:C:9839, V-B:PRO:540:CA:9855, V-B:TYR:539:CE2:9848, V-B:TYR:539:CD2:9846, V-B:MET:535:CE:9807, V-B:ALA:541:CB:9864, V-B:TYR:539:CZ:9849, V-B:PRO:540:C:9853, V-B:TYR:539:CE1:9847, V-B:PRO:540:N:9856, V-B:TYR:531:CE2:9765, V-A:LEU:475:CD1:4258, H-A:TYR:484:OH:4348, V-A:ASP:366:CG:3213, V-B:TYR:539:CG:9844, V-A:LEU:475:CD2:4259, V-B:TYR:531:CZ:9766, V-A:LEU:475:CG:4257, V-A:ASP:366:CB:3212, V-A:TYR:539:CE1:4875, H-A:TYR:539:N:4870, V-A:TYR:539:CZ:4877, V-A:PRO:540:CA:4883, V-A:TYR:539:C:4867, V-A:PRO:540:N:4884, V-A:PRO:540:CB:4885, V-A:TYR:539:CE2:4876, H-A:GLY:454:N:4050, H-A:ASP:366:OD1:3214, V-A:PRO:540:CD:4887, H-B:TYR:539:OH:9850, V-A:ILE:538:CB:4862, V-A:TYR:484:CZ:4347, H-A:TYR:531:OH:4795, V-A:TYR:539:CD2:4874, V-A:TYR:539:CA:4869, V-A:TYR:539:CG:4872, V-A:TYR:539:CD1:4873, V-B:ALA:541:CA:9862, V-B:GLU:543:CG:9879, V-A:TYR:484:CE1:4345"]

$$$$
3ad_Grossjean_2025
     RDKit          3D

 29 31  0  0  0  0  0  0  0  0999 V2000
  130.6230  125.7050   62.3640 N   0  0  0  0  0  0  0  0  0  0  0  0
  130.7010  124.5930   62.0540 C   0  0  0  0  0  0  0  0  0  0  0  0
  130.8040  123.1840   61.6610 C   0  0  0  0  0  0  0  0  0  0  0  0
  131.9740  122.6900   61.0360 C   0  0  0  0  0  0  0  0  0  0  0  0
  133.2120  123.5690   60.7730 C   0  0  0  0  0  0  0  0  0  0  0  0
  133.8900  123.8550   61.8860 F   0  0  0  0  0  0  0  0  0  0  0  0
  134.0470  122.9420   59.9430 F   0  0  0  0  0  0  0  0  0  0  0  0
  132.8430  124.7270   60.2230 F   0  0  0  0  0  0  0  0  0  0  0  0
  132.0040  121.3450   60.6370 C   0  0  0  0  0  0  0  0  0  0  0  0
  130.8960  120.5180   60.8520 C   0  0  0  0  0  0  0  0  0  0  0  0
  130.8690  119.0790   60.4320 C   0  0  0  0  0  0  0  0  0  0  0  0
  129.9300  118.1900   60.9800 C   0  0  0  0  0  0  0  0  0  0  0  0
  129.8990  116.8530   60.5940 C   0  0  0  0  0  0  0  0  0  0  0  0
  130.8090  116.3850   59.6510 C   0  0  0  0  0  0  0  0  0  0  0  0
  131.7460  117.2460   59.0910 C   0  0  0  0  0  0  0  0  0  0  0  0
  131.7740  118.5830   59.4800 C   0  0  0  0  0  0  0  0  0  0  0  0
  129.7740  120.9980   61.4460 N   0  0  0  0  0  0  0  0  0  0  0  0
  129.7300  122.2870   61.8590 C   0  0  0  0  0  0  0  0  0  0  0  0
  128.1890  122.7380   62.6260 S   0  0  0  0  0  0  0  0  0  0  0  0
  127.2490  123.7160   61.4150 C   0  0  0  0  0  0  0  0  0  0  0  0
  127.3180  123.1150   60.0090 C   0  0  0  0  0  0  0  0  0  0  0  0
  128.2440  122.3530   59.7290 O   0  0  0  0  0  0  0  0  0  0  0  0
  126.3270  123.4870   59.1710 N   0  0  0  0  0  0  0  0  0  0  0  0
  126.0890  123.1140   57.8350 C   0  0  0  0  0  0  0  0  0  0  0  0
  127.2260  122.9860   57.0310 C   0  0  0  0  0  0  0  0  0  0  0  0
  127.1020  122.6260   55.6910 C   0  0  0  0  0  0  0  0  0  0  0  0
  125.8400  122.3960   55.1520 C   0  0  0  0  0  0  0  0  0  0  0  0
  124.7000  122.5260   55.9400 C   0  0  0  0  0  0  0  0  0  0  0  0
  124.8180  122.8870   57.2800 C   0  0  0  0  0  0  0  0  0  0  0  0
  1  2  3  0
  2  3  1  0
  3  4  2  0
  4  5  1  0
  5  6  1  0
  5  7  1  0
  5  8  1  0
  4  9  1  0
  9 10  2  0
 10 11  1  0
 11 12  2  0
 12 13  1  0
 13 14  2  0
 14 15  1  0
 15 16  2  0
 10 17  1  0
 17 18  2  0
 18 19  1  0
 19 20  1  0
 20 21  1  0
 21 22  2  0
 21 23  1  0
 23 24  1  0
 24 25  2  0
 25 26  1  0
 26 27  2  0
 27 28  1  0
 28 29  2  0
 18  3  1  0
 29 24  1  0
 16 11  1  0
M  END
>  <Binding energies>  (28) 
[-8.87]

>  <Ligand effiencies>  (28) 
[-0.29566666666666663]

>  <Interactions>  (28) 
["V-B:TYR:539:CD1:9845, V-B:ILE:538:CD1:9837, V-B:PRO:540:CB:9857, V-B:PRO:540:CD:9859, V-B:LEU:363:CD1:8161, V-B:GLU:543:CD:9880, V-B:TYR:539:C:9839, V-B:PRO:540:CA:9855, V-B:ILE:538:CG2:9835, V-B:TYR:539:CE2:9848, V-B:TYR:539:CD2:9846, V-B:ILE:538:CA:9832, V-B:MET:535:CE:9807, H-B:ASP:366:OD2:8187, V-B:TYR:539:CE1:9847, V-B:PRO:540:N:9856, V-B:TYR:531:CE2:9765, V-A:GLY:453:C:4042, V-A:SER:385:CB:3409, V-A:PRO:482:CB:4326, V-A:LEU:475:CD1:4258, H-A:TYR:484:OH:4348, V-A:ASP:366:CG:3213, V-B:TYR:539:CG:9844, V-A:LEU:475:CD2:4259, V-A:ILE:369:CD1:3239, V-A:GLY:454:CA:4049, V-A:ILE:369:CB:3236, V-A:ILE:369:CG2:3237, V-A:PRO:482:CG:4327, V-B:ILE:538:C:9830, V-B:ILE:538:CB:9834, V-B:TYR:539:CB:9843, V-B:PRO:540:CG:9858, V-A:HIS:383:CE1:3394, V-B:ILE:538:CG1:9836, V-A:ILE:369:CG1:3238"]

$$$$
3ai_Grossjean_2025
     RDKit          3D

 28 30  0  0  0  0  0  0  0  0999 V2000
  131.1190  126.1150   62.4360 N   0  0  0  0  0  0  0  0  0  0  0  0
  131.1250  124.9930   62.1520 C   0  0  0  0  0  0  0  0  0  0  0  0
  131.1340  123.5720   61.7920 C   0  0  0  0  0  0  0  0  0  0  0  0
  132.3460  122.9140   61.4690 C   0  0  0  0  0  0  0  0  0  0  0  0
  133.7140  123.6210   61.5180 C   0  0  0  0  0  0  0  0  0  0  0  0
  134.0150  124.2470   60.3780 F   0  0  0  0  0  0  0  0  0  0  0  0
  133.7200  124.5340   62.4910 F   0  0  0  0  0  0  0  0  0  0  0  0
  134.6810  122.7340   61.7520 F   0  0  0  0  0  0  0  0  0  0  0  0
  132.2960  121.5660   61.0850 C   0  0  0  0  0  0  0  0  0  0  0  0
  131.0710  120.8930   61.0220 C   0  0  0  0  0  0  0  0  0  0  0  0
  130.9570  119.4570   60.6080 C   0  0  0  0  0  0  0  0  0  0  0  0
  131.8330  118.9150   59.6530 C   0  0  0  0  0  0  0  0  0  0  0  0
  131.7370  117.5810   59.2670 C   0  0  0  0  0  0  0  0  0  0  0  0
  130.7600  116.7680   59.8330 C   0  0  0  0  0  0  0  0  0  0  0  0
  129.8820  117.2800   60.7830 C   0  0  0  0  0  0  0  0  0  0  0  0
  129.9820  118.6140   61.1660 C   0  0  0  0  0  0  0  0  0  0  0  0
  129.9100  121.5300   61.3240 N   0  0  0  0  0  0  0  0  0  0  0  0
  129.9360  122.8250   61.7210 C   0  0  0  0  0  0  0  0  0  0  0  0
  128.3240  123.4830   62.0960 S   0  0  0  0  0  0  0  0  0  0  0  0
  127.6840  124.2890   60.5890 C   0  0  0  0  0  0  0  0  0  0  0  0
  127.4350  123.3440   59.4040 C   0  0  0  0  0  0  0  0  0  0  0  0
  128.1270  122.3360   59.2450 O   0  0  0  0  0  0  0  0  0  0  0  0
  126.4230  123.7170   58.5890 N   0  0  0  0  0  0  0  0  0  0  0  0
  125.9710  123.0580   57.4530 C   0  0  0  0  0  0  0  0  0  0  0  0
  124.6350  123.0500   57.0560 C   0  0  0  0  0  0  0  0  0  0  0  0
  124.6060  122.2980   55.9050 C   0  0  0  0  0  0  0  0  0  0  0  0
  125.8610  121.8740   55.6220 O   0  0  0  0  0  0  0  0  0  0  0  0
  126.7170  122.3620   56.6100 N   0  0  0  0  0  0  0  0  0  0  0  0
  1  2  3  0
  2  3  1  0
  3  4  2  0
  4  5  1  0
  5  6  1  0
  5  7  1  0
  5  8  1  0
  4  9  1  0
  9 10  2  0
 10 11  1  0
 11 12  2  0
 12 13  1  0
 13 14  2  0
 14 15  1  0
 15 16  2  0
 10 17  1  0
 17 18  2  0
 18 19  1  0
 19 20  1  0
 20 21  1  0
 21 22  2  0
 21 23  1  0
 23 24  1  0
 24 25  1  0
 25 26  2  0
 26 27  1  0
 27 28  1  0
 18  3  1  0
 28 24  2  0
 16 11  1  0
M  END
>  <Binding energies>  (29) 
[-8.61]

>  <Ligand effiencies>  (29) 
[-0.2968965517241379]

>  <Interactions>  (29) 
["V-B:ILE:538:CD1:9837, V-B:PRO:540:CB:9857, V-B:PRO:540:CD:9859, V-B:LEU:363:CD1:8161, V-B:TYR:539:C:9839, V-B:PRO:540:CA:9855, H-B:TYR:539:N:9842, V-B:ILE:538:CG2:9835, V-B:TYR:539:CE2:9848, V-B:TYR:539:CD2:9846, V-B:ILE:538:CA:9832, V-B:ALA:541:CB:9864, H-B:ASP:366:OD2:8187, V-B:PRO:540:N:9856, V-B:TYR:531:CE2:9765, V-A:GLY:453:C:4042, V-A:SER:385:CB:3409, V-A:PRO:482:CB:4326, V-A:LEU:475:CD1:4258, V-A:ASP:366:CA:3210, V-A:ASP:366:CG:3213, V-B:TYR:539:CG:9844, V-A:LEU:475:CD2:4259, V-A:ILE:369:CD1:3239, V-A:GLY:454:CA:4049, V-A:LEU:475:CG:4257, V-A:ILE:369:CG2:3237, V-A:PRO:482:CG:4327, V-B:ILE:538:CB:9834, H-A:ARG:545:NH2:4928, V-A:ARG:545:CZ:4926, H-B:TYR:531:OH:9767, V-B:TYR:539:CB:9843, V-A:HIS:383:CE1:3394, V-A:ILE:369:CG1:3238, V-A:GLY:453:CA:4044"]

$$$$
3aj_Grossjean_2025
     RDKit          3D

 28 30  0  0  0  0  0  0  0  0999 V2000
  132.2990  123.9480   61.8140 N   0  0  0  0  0  0  0  0  0  0  0  0
  131.3940  123.8190   61.1050 C   0  0  0  0  0  0  0  0  0  0  0  0
  130.2450  123.6550   60.2100 C   0  0  0  0  0  0  0  0  0  0  0  0
  129.0780  122.9810   60.6460 C   0  0  0  0  0  0  0  0  0  0  0  0
  128.9230  122.4240   62.0740 C   0  0  0  0  0  0  0  0  0  0  0  0
  129.1870  123.3340   63.0150 F   0  0  0  0  0  0  0  0  0  0  0  0
  127.6750  121.9970   62.2650 F   0  0  0  0  0  0  0  0  0  0  0  0
  129.7620  121.4050   62.2600 F   0  0  0  0  0  0  0  0  0  0  0  0
  128.0240  122.8080   59.7350 C   0  0  0  0  0  0  0  0  0  0  0  0
  128.1340  123.2910   58.4260 C   0  0  0  0  0  0  0  0  0  0  0  0
  127.0440  123.1260   57.4120 C   0  0  0  0  0  0  0  0  0  0  0  0
  127.3510  122.9060   56.0600 C   0  0  0  0  0  0  0  0  0  0  0  0
  126.3430  122.7470   55.1120 C   0  0  0  0  0  0  0  0  0  0  0  0
  125.0090  122.8070   55.5060 C   0  0  0  0  0  0  0  0  0  0  0  0
  124.6790  123.0230   56.8400 C   0  0  0  0  0  0  0  0  0  0  0  0
  125.6900  123.1790   57.7840 C   0  0  0  0  0  0  0  0  0  0  0  0
  129.2570  123.9300   58.0120 N   0  0  0  0  0  0  0  0  0  0  0  0
  130.2780  124.1300   58.8790 C   0  0  0  0  0  0  0  0  0  0  0  0
  131.6550  125.0030   58.1650 S   0  0  0  0  0  0  0  0  0  0  0  0
  131.6040  126.7220   58.7760 C   0  0  0  0  0  0  0  0  0  0  0  0
  131.4900  127.7960   57.6840 C   0  0  0  0  0  0  0  0  0  0  0  0
  131.0750  127.5110   56.5580 O   0  0  0  0  0  0  0  0  0  0  0  0
  131.8750  129.0340   58.0670 N   0  0  0  0  0  0  0  0  0  0  0  0
  131.8690  130.1830   57.2880 C   0  0  0  0  0  0  0  0  0  0  0  0
  130.9330  130.5910   56.4580 N   0  0  0  0  0  0  0  0  0  0  0  0
  131.2560  131.7330   55.8840 C   0  0  0  0  0  0  0  0  0  0  0  0
  132.4850  132.2780   56.2480 C   0  0  0  0  0  0  0  0  0  0  0  0
  133.2480  131.2280   57.4030 S   0  0  0  0  0  0  0  0  0  0  0  0
  1  2  3  0
  2  3  1  0
  3  4  2  0
  4  5  1  0
  5  6  1  0
  5  7  1  0
  5  8  1  0
  4  9  1  0
  9 10  2  0
 10 11  1  0
 11 12  2  0
 12 13  1  0
 13 14  2  0
 14 15  1  0
 15 16  2  0
 10 17  1  0
 17 18  2  0
 18 19  1  0
 19 20  1  0
 20 21  1  0
 21 22  2  0
 21 23  1  0
 23 24  1  0
 24 25  2  0
 25 26  1  0
 26 27  2  0
 27 28  1  0
 18  3  1  0
 28 24  1  0
 16 11  1  0
M  END
>  <Binding energies>  (30) 
[-7.77]

>  <Ligand effiencies>  (30) 
[-0.2679310344827586]

>  <Interactions>  (30) 
["V-B:TYR:539:CD1:9845, V-B:ILE:538:CD1:9837, V-B:PRO:540:CB:9857, V-B:PRO:540:CD:9859, V-B:LEU:363:CD1:8161, V-B:GLU:543:CD:9880, V-B:TYR:539:C:9839, V-B:PRO:540:CA:9855, V-B:ILE:538:CG2:9835, V-B:TYR:539:CE2:9848, V-B:TYR:539:CD2:9846, V-B:ILE:538:CA:9832, V-B:MET:535:CE:9807, V-B:ALA:541:CB:9864, V-B:TYR:539:CZ:9849, V-B:PRO:540:C:9853, V-B:TYR:539:CE1:9847, V-B:PRO:540:N:9856, V-B:TYR:531:CE2:9765, H-A:TYR:484:OH:4348, V-A:ASP:366:CG:3213, V-A:LEU:475:CD2:4259, V-B:TYR:531:CZ:9766, V-A:ASP:366:CB:3212, V-A:PRO:540:CA:4883, V-A:PRO:540:N:4884, V-A:PRO:540:CB:4885, V-A:LEU:363:CD1:3189, H-A:ASP:366:OD1:3214, V-A:PRO:540:CD:4887, V-A:LEU:363:CA:3185, H-B:TYR:539:OH:9850, V-A:TYR:484:CZ:4347, H-A:TYR:531:OH:4795, V-A:PRO:540:CG:4886, V-B:ALA:541:CA:9862, V-B:GLU:543:CG:9879, V-A:TYR:484:CE1:4345"]

$$$$
3ak_Grossjean_2025
     RDKit          3D

 33 34  0  0  0  0  0  0  0  0999 V2000
  131.8830  132.4950   55.4790 C   0  0  0  0  0  0  0  0  0  0  0  0
  130.6640  133.2200   55.5200 O   0  0  0  0  0  0  0  0  0  0  0  0
  129.5130  132.3880   55.5730 C   0  0  0  0  0  0  0  0  0  0  0  0
  128.8660  132.3420   54.1830 C   0  0  0  0  0  0  0  0  0  0  0  0
  127.7630  131.4430   54.2160 O   0  0  0  0  0  0  0  0  0  0  0  0
  127.3390  131.0370   55.5150 C   0  0  0  0  0  0  0  0  0  0  0  0
  126.1560  130.0510   55.5010 C   0  0  0  0  0  0  0  0  0  0  0  0
  126.6310  128.7560   55.1610 O   0  0  0  0  0  0  0  0  0  0  0  0
  127.8920  128.4360   55.7330 C   0  0  0  0  0  0  0  0  0  0  0  0
  127.7960  127.1230   56.5310 C   0  0  0  0  0  0  0  0  0  0  0  0
  129.0890  126.6370   57.0170 N   0  0  0  0  0  0  0  0  0  0  0  0
  130.2210  126.5430   56.2930 C   0  0  0  0  0  0  0  0  0  0  0  0
  130.2870  126.8850   55.1110 O   0  0  0  0  0  0  0  0  0  0  0  0
  131.4860  125.9850   56.9650 C   0  0  0  0  0  0  0  0  0  0  0  0
  131.4230  125.7790   58.7830 S   0  0  0  0  0  0  0  0  0  0  0  0
  130.3120  124.4350   59.1690 C   0  0  0  0  0  0  0  0  0  0  0  0
  129.3000  124.2400   58.2880 N   0  0  0  0  0  0  0  0  0  0  0  0
  128.3990  123.2460   58.4990 C   0  0  0  0  0  0  0  0  0  0  0  0
  127.3140  123.1010   57.4740 C   0  0  0  0  0  0  0  0  0  0  0  0
  127.6270  122.9020   56.1200 C   0  0  0  0  0  0  0  0  0  0  0  0
  126.6240  122.7630   55.1650 C   0  0  0  0  0  0  0  0  0  0  0  0
  125.2890  122.8190   55.5520 C   0  0  0  0  0  0  0  0  0  0  0  0
  124.9520  123.0120   56.8870 C   0  0  0  0  0  0  0  0  0  0  0  0
  125.9570  123.1500   57.8400 C   0  0  0  0  0  0  0  0  0  0  0  0
  128.5080  122.4040   59.6100 C   0  0  0  0  0  0  0  0  0  0  0  0
  129.5460  122.5830   60.5360 C   0  0  0  0  0  0  0  0  0  0  0  0
  129.6310  121.6360   61.7490 C   0  0  0  0  0  0  0  0  0  0  0  0
  130.8940  121.2590   61.9460 F   0  0  0  0  0  0  0  0  0  0  0  0
  129.1900  122.2560   62.8450 F   0  0  0  0  0  0  0  0  0  0  0  0
  128.9010  120.5290   61.5950 F   0  0  0  0  0  0  0  0  0  0  0  0
  130.4760  123.6270   60.3160 C   0  0  0  0  0  0  0  0  0  0  0  0
  131.5810  123.8620   61.2510 C   0  0  0  0  0  0  0  0  0  0  0  0
  132.4530  124.0480   61.9890 N   0  0  0  0  0  0  0  0  0  0  0  0
  1  2  1  0
  2  3  1  0
  3  4  1  0
  4  5  1  0
  5  6  1  0
  6  7  1  0
  7  8  1  0
  8  9  1  0
  9 10  1  0
 10 11  1  0
 11 12  1  0
 12 13  2  0
 12 14  1  0
 14 15  1  0
 15 16  1  0
 16 17  2  0
 17 18  1  0
 18 19  1  0
 19 20  2  0
 20 21  1  0
 21 22  2  0
 22 23  1  0
 23 24  2  0
 18 25  2  0
 25 26  1  0
 26 27  1  0
 27 28  1  0
 27 29  1  0
 27 30  1  0
 26 31  2  0
 31 32  1  0
 32 33  3  0
 31 16  1  0
 24 19  1  0
M  END
>  <Binding energies>  (31) 
[-8.11]

>  <Ligand effiencies>  (31) 
[-0.23852941176470588]

>  <Interactions>  (31) 
["V-B:TYR:539:CD1:9845, V-B:ILE:538:CD1:9837, V-B:PRO:540:CB:9857, V-B:PRO:540:CD:9859, V-B:LEU:363:CD1:8161, V-B:TYR:539:C:9839, V-B:PRO:540:CA:9855, V-B:ILE:538:CG2:9835, V-B:TYR:539:CE2:9848, V-B:TYR:539:CD2:9846, V-B:ILE:538:CA:9832, V-B:MET:535:CE:9807, V-B:ALA:541:CB:9864, V-B:TYR:539:CZ:9849, V-B:PRO:540:C:9853, V-B:TYR:539:CE1:9847, V-B:PRO:540:N:9856, V-B:TYR:531:CE2:9765, H-A:TYR:484:OH:4348, V-B:TYR:539:CG:9844, V-A:LEU:475:CD2:4259, V-B:TYR:531:CZ:9766, V-A:TYR:539:CE1:4875, V-B:TYR:531:CE1:9764, H-A:TYR:539:N:4870, V-A:TYR:539:CZ:4877, V-A:TYR:539:CE2:4876, H-B:LYS:534:NZ:9795, V-A:LEU:363:CD1:3189, V-A:PRO:540:CD:4887, H-B:TYR:531:OH:9767, V-A:ILE:538:CA:4860, V-A:ILE:538:CB:4862, V-A:TYR:484:CZ:4347, V-A:ILE:538:CG2:4863, H-A:TYR:531:OH:4795, V-A:TYR:539:CD2:4874, V-B:ALA:541:CA:9862, V-B:GLU:543:CG:9879, V-A:TYR:484:CE1:4345"]

$$$$
3bk_Grossjean_2025
     RDKit          3D

 30 31  0  0  0  0  0  0  0  0999 V2000
  131.8420  132.5010   55.5260 C   0  0  0  0  0  0  0  0  0  0  0  0
  130.5570  133.0740   55.3430 O   0  0  0  0  0  0  0  0  0  0  0  0
  129.6350  132.2040   54.7000 C   0  0  0  0  0  0  0  0  0  0  0  0
  128.3520  132.1040   55.5360 C   0  0  0  0  0  0  0  0  0  0  0  0
  127.4630  131.1790   54.9260 O   0  0  0  0  0  0  0  0  0  0  0  0
  127.0650  130.1150   55.7820 C   0  0  0  0  0  0  0  0  0  0  0  0
  127.4470  128.7770   55.1380 C   0  0  0  0  0  0  0  0  0  0  0  0
  126.8910  127.7120   55.8970 O   0  0  0  0  0  0  0  0  0  0  0  0
  127.8430  127.0090   56.6860 C   0  0  0  0  0  0  0  0  0  0  0  0
  129.2540  127.2750   56.1410 C   0  0  0  0  0  0  0  0  0  0  0  0
  130.2780  126.5020   56.8450 N   0  0  0  0  0  0  0  0  0  0  0  0
  131.4900  126.1860   56.3580 C   0  0  0  0  0  0  0  0  0  0  0  0
  131.8920  126.5340   55.2470 O   0  0  0  0  0  0  0  0  0  0  0  0
  132.4030  125.3710   57.2770 C   0  0  0  0  0  0  0  0  0  0  0  0
  131.9180  125.5200   59.0260 S   0  0  0  0  0  0  0  0  0  0  0  0
  130.6990  124.2700   59.3990 C   0  0  0  0  0  0  0  0  0  0  0  0
  129.6530  124.1850   58.5380 N   0  0  0  0  0  0  0  0  0  0  0  0
  128.6750  123.2650   58.7440 C   0  0  0  0  0  0  0  0  0  0  0  0
  127.5680  123.2250   57.7350 C   0  0  0  0  0  0  0  0  0  0  0  0
  126.2240  123.2590   58.1410 C   0  0  0  0  0  0  0  0  0  0  0  0
  125.1920  123.2160   57.2070 C   0  0  0  0  0  0  0  0  0  0  0  0
  125.4900  123.1400   55.8510 C   0  0  0  0  0  0  0  0  0  0  0  0
  126.8130  123.1090   55.4220 C   0  0  0  0  0  0  0  0  0  0  0  0
  127.8420  123.1540   56.3580 C   0  0  0  0  0  0  0  0  0  0  0  0
  128.7310  122.3910   59.8360 C   0  0  0  0  0  0  0  0  0  0  0  0
  129.8020  122.4650   60.7350 C   0  0  0  0  0  0  0  0  0  0  0  0
  129.8240  121.4930   61.9130 C   0  0  0  0  0  0  0  0  0  0  0  0
  130.8150  123.4220   60.5220 C   0  0  0  0  0  0  0  0  0  0  0  0
  131.9500  123.5210   61.4450 C   0  0  0  0  0  0  0  0  0  0  0  0
  132.8450  123.6000   62.1750 N   0  0  0  0  0  0  0  0  0  0  0  0
  1  2  1  0
  2  3  1  0
  3  4  1  0
  4  5  1  0
  5  6  1  0
  6  7  1  0
  7  8  1  0
  8  9  1  0
  9 10  1  0
 10 11  1  0
 11 12  1  0
 12 13  2  0
 12 14  1  0
 14 15  1  0
 15 16  1  0
 16 17  2  0
 17 18  1  0
 18 19  1  0
 19 20  2  0
 20 21  1  0
 21 22  2  0
 22 23  1  0
 23 24  2  0
 18 25  2  0
 25 26  1  0
 26 27  1  0
 26 28  2  0
 28 29  1  0
 29 30  3  0
 28 16  1  0
 24 19  1  0
M  END
>  <Binding energies>  (32) 
[-8.06]

>  <Ligand effiencies>  (32) 
[-0.26]

>  <Interactions>  (32) 
["V-B:TYR:539:CD1:9845, V-B:ILE:538:CD1:9837, V-B:PRO:540:CB:9857, V-B:PRO:540:CD:9859, V-B:TYR:539:C:9839, V-B:PRO:540:CA:9855, V-B:TYR:539:CE2:9848, V-B:TYR:539:CD2:9846, V-B:ILE:538:CA:9832, V-B:MET:535:CE:9807, V-B:ALA:541:CB:9864, V-B:TYR:539:CZ:9849, V-B:TYR:539:CE1:9847, V-B:PRO:540:N:9856, V-B:TYR:531:CE2:9765, H-A:TYR:484:OH:4348, V-B:TYR:539:CG:9844, V-A:LEU:475:CD2:4259, V-B:TYR:531:CZ:9766, V-A:ASP:366:CB:3212, V-A:TYR:539:CE1:4875, H-A:TYR:539:N:4870, V-A:TYR:539:CZ:4877, V-A:PRO:540:N:4884, V-A:TYR:539:CE2:4876, H-B:LYS:534:NZ:9795, V-A:LEU:363:CD1:3189, H-A:GLY:454:N:4050, V-A:PRO:540:CD:4887, H-B:TYR:539:OH:9850, H-B:TYR:531:OH:9767, V-A:ILE:538:CA:4860, V-A:ILE:538:CB:4862, V-A:ILE:538:CG2:4863, H-A:TYR:531:OH:4795, V-A:TYR:539:CD2:4874, V-A:TYR:539:CG:4872, V-A:TYR:539:CD1:4873, V-A:TYR:484:CE1:4345"]

$$$$
3cb_Grossjean_2025
     RDKit          3D

 30 32  0  0  0  0  0  0  0  0999 V2000
  124.6180  122.6930   56.7980 C   0  0  0  0  0  0  0  0  0  0  0  0
  125.5690  121.9750   56.0260 O   0  0  0  0  0  0  0  0  0  0  0  0
  126.6510  122.5980   55.4930 C   0  0  0  0  0  0  0  0  0  0  0  0
  126.8250  122.7400   54.2790 O   0  0  0  0  0  0  0  0  0  0  0  0
  127.6190  123.0970   56.5280 C   0  0  0  0  0  0  0  0  0  0  0  0
  128.4670  124.1880   56.2890 C   0  0  0  0  0  0  0  0  0  0  0  0
  129.3510  124.6260   57.2710 C   0  0  0  0  0  0  0  0  0  0  0  0
  129.4100  123.9840   58.5080 C   0  0  0  0  0  0  0  0  0  0  0  0
  130.3380  124.5120   59.4290 N   0  0  0  0  0  0  0  0  0  0  0  0
  131.6600  124.7480   59.2900 C   0  0  0  0  0  0  0  0  0  0  0  0
  132.3100  124.5420   58.2630 O   0  0  0  0  0  0  0  0  0  0  0  0
  132.3380  125.3320   60.5390 C   0  0  0  0  0  0  0  0  0  0  0  0
  131.5050  124.9460   62.1170 S   0  0  0  0  0  0  0  0  0  0  0  0
  130.5110  123.4900   61.8670 C   0  0  0  0  0  0  0  0  0  0  0  0
  129.1880  123.6990   62.0740 N   0  0  0  0  0  0  0  0  0  0  0  0
  128.3350  122.6630   61.9120 C   0  0  0  0  0  0  0  0  0  0  0  0
  126.8690  122.9720   62.1480 C   0  0  0  0  0  0  0  0  0  0  0  0
  128.7630  121.3900   61.5470 C   0  0  0  0  0  0  0  0  0  0  0  0
  130.1280  121.1470   61.3430 C   0  0  0  0  0  0  0  0  0  0  0  0
  130.5370  119.7610   60.9580 C   0  0  0  0  0  0  0  0  0  0  0  0
  129.8810  118.6540   61.5100 C   0  0  0  0  0  0  0  0  0  0  0  0
  130.2480  117.3600   61.1500 C   0  0  0  0  0  0  0  0  0  0  0  0
  131.2740  117.1670   60.2290 C   0  0  0  0  0  0  0  0  0  0  0  0
  131.9320  118.2560   59.6650 C   0  0  0  0  0  0  0  0  0  0  0  0
  131.5620  119.5490   60.0260 C   0  0  0  0  0  0  0  0  0  0  0  0
  131.0370  122.2210   61.5220 C   0  0  0  0  0  0  0  0  0  0  0  0
  132.4830  122.0020   61.4140 C   0  0  0  0  0  0  0  0  0  0  0  0
  133.6240  121.8300   61.3290 N   0  0  0  0  0  0  0  0  0  0  0  0
  128.5620  122.8940   58.7570 C   0  0  0  0  0  0  0  0  0  0  0  0
  127.6780  122.4570   57.7740 C   0  0  0  0  0  0  0  0  0  0  0  0
  1  2  1  0
  2  3  1  0
  3  4  2  0
  3  5  1  0
  5  6  2  0
  6  7  1  0
  7  8  2  0
  8  9  1  0
  9 10  1  0
 10 11  2  0
 10 12  1  0
 12 13  1  0
 13 14  1  0
 14 15  2  0
 15 16  1  0
 16 17  1  0
 16 18  2  0
 18 19  1  0
 19 20  1  0
 20 21  2  0
 21 22  1  0
 22 23  2  0
 23 24  1  0
 24 25  2  0
 19 26  2  0
 26 27  1  0
 27 28  3  0
  8 29  1  0
 29 30  2  0
 30  5  1  0
 26 14  1  0
 25 20  1  0
M  END
>  <Binding energies>  (33) 
[-8.96]

>  <Ligand effiencies>  (33) 
[-0.28903225806451616]

>  <Interactions>  (33) 
["V-B:TYR:539:CD1:9845, V-B:ILE:538:CD1:9837, V-B:PRO:540:CB:9857, V-B:PRO:540:CD:9859, V-B:LEU:363:CD1:8161, V-B:GLU:543:CD:9880, V-B:TYR:539:C:9839, V-B:PRO:540:CA:9855, H-B:TYR:539:N:9842, V-B:TYR:539:CE2:9848, V-B:TYR:539:CD2:9846, V-B:ILE:538:CA:9832, V-B:MET:535:CE:9807, V-B:ALA:541:CB:9864, V-B:TYR:539:CZ:9849, V-B:PRO:540:C:9853, V-B:TYR:539:CE1:9847, V-B:PRO:540:N:9856, V-B:TYR:531:CE2:9765, V-A:SER:385:CB:3409, V-A:PRO:482:CB:4326, V-A:LEU:475:CD1:4258, H-A:TYR:484:OH:4348, V-A:ASP:366:CG:3213, V-B:TYR:539:CG:9844, V-A:LEU:475:CD2:4259, V-A:LEU:475:CG:4257, V-A:PRO:482:CG:4327, V-B:ILE:538:C:9830, V-B:TYR:539:CA:9841, H-B:TYR:539:OH:9850, V-B:PRO:540:CG:9858, V-B:GLU:543:CG:9879"]

$$$$
3ch_Grossjean_2025
     RDKit          3D

 32 34  0  0  0  0  0  0  0  0999 V2000
  125.6270  129.8840   55.4800 C   0  0  0  0  0  0  0  0  0  0  0  0
  126.8170  129.6020   54.7510 O   0  0  0  0  0  0  0  0  0  0  0  0
  128.0470  129.7800   55.3570 C   0  0  0  0  0  0  0  0  0  0  0  0
  128.4630  129.0900   56.5070 C   0  0  0  0  0  0  0  0  0  0  0  0
  129.7310  129.3150   57.0620 C   0  0  0  0  0  0  0  0  0  0  0  0
  130.2380  128.6690   58.2060 N   0  0  0  0  0  0  0  0  0  0  0  0
  130.6240  127.3850   58.3720 C   0  0  0  0  0  0  0  0  0  0  0  0
  130.6100  126.5170   57.5000 O   0  0  0  0  0  0  0  0  0  0  0  0
  131.1550  127.0310   59.7600 C   0  0  0  0  0  0  0  0  0  0  0  0
  129.8330  126.4820   60.8810 S   0  0  0  0  0  0  0  0  0  0  0  0
  129.2570  124.9250   60.2400 C   0  0  0  0  0  0  0  0  0  0  0  0
  129.8340  123.8440   60.8220 N   0  0  0  0  0  0  0  0  0  0  0  0
  129.4700  122.6120   60.3990 C   0  0  0  0  0  0  0  0  0  0  0  0
  130.1570  121.4490   61.0880 C   0  0  0  0  0  0  0  0  0  0  0  0
  128.5290  122.4110   59.3920 C   0  0  0  0  0  0  0  0  0  0  0  0
  127.9160  123.5160   58.7840 C   0  0  0  0  0  0  0  0  0  0  0  0
  126.9200  123.2530   57.7010 C   0  0  0  0  0  0  0  0  0  0  0  0
  125.5510  123.2450   57.9910 C   0  0  0  0  0  0  0  0  0  0  0  0
  124.6170  122.9920   56.9890 C   0  0  0  0  0  0  0  0  0  0  0  0
  125.0520  122.7410   55.6900 C   0  0  0  0  0  0  0  0  0  0  0  0
  126.4110  122.7380   55.3860 C   0  0  0  0  0  0  0  0  0  0  0  0
  127.3410  122.9910   56.3920 C   0  0  0  0  0  0  0  0  0  0  0  0
  128.2730  124.8150   59.2300 C   0  0  0  0  0  0  0  0  0  0  0  0
  127.5970  126.0010   58.6960 C   0  0  0  0  0  0  0  0  0  0  0  0
  127.0640  126.9380   58.2750 N   0  0  0  0  0  0  0  0  0  0  0  0
  130.5760  130.2540   56.4670 C   0  0  0  0  0  0  0  0  0  0  0  0
  130.1820  130.9590   55.3190 C   0  0  0  0  0  0  0  0  0  0  0  0
  130.9730  131.8960   54.6770 O   0  0  0  0  0  0  0  0  0  0  0  0
  132.2960  132.1350   55.1460 C   0  0  0  0  0  0  0  0  0  0  0  0
  128.9140  130.7140   54.7750 C   0  0  0  0  0  0  0  0  0  0  0  0
  128.5230  131.3840   53.6400 O   0  0  0  0  0  0  0  0  0  0  0  0
  128.6020  132.7990   53.7470 C   0  0  0  0  0  0  0  0  0  0  0  0
  1  2  1  0
  2  3  1  0
  3  4  2  0
  4  5  1  0
  5  6  1  0
  6  7  1  0
  7  8  2  0
  7  9  1  0
  9 10  1  0
 10 11  1  0
 11 12  2  0
 12 13  1  0
 13 14  1  0
 13 15  2  0
 15 16  1  0
 16 17  1  0
 17 18  2  0
 18 19  1  0
 19 20  2  0
 20 21  1  0
 21 22  2  0
 16 23  2  0
 23 24  1  0
 24 25  3  0
  5 26  2  0
 26 27  1  0
 27 28  1  0
 28 29  1  0
 27 30  2  0
 30 31  1  0
 31 32  1  0
 30  3  1  0
 23 11  1  0
 22 17  1  0
M  END
>  <Binding energies>  (34) 
[-7.65]

>  <Ligand effiencies>  (34) 
[-0.23181818181818184]

>  <Interactions>  (34) 
["V-B:TYR:539:CD1:9845, V-B:ILE:538:CD1:9837, V-B:PRO:540:CB:9857, V-B:PRO:540:CD:9859, V-B:LEU:363:CD1:8161, V-B:TYR:539:C:9839, V-B:PRO:540:CA:9855, V-B:ILE:538:CG2:9835, V-B:TYR:539:CE2:9848, V-B:TYR:539:CD2:9846, V-B:ILE:538:CA:9832, V-B:MET:535:CE:9807, V-B:TYR:539:CZ:9849, V-B:TYR:539:CE1:9847, V-B:PRO:540:N:9856, V-B:TYR:531:CE2:9765, V-A:ASP:366:CG:3213, V-A:LEU:475:CD2:4259, V-B:TYR:531:CZ:9766, V-A:TYR:531:CZ:4794, V-B:TYR:531:CE1:9764, V-A:TYR:539:CZ:4877, V-A:TYR:531:CE2:4793, V-A:TYR:539:CE2:4876, H-B:LYS:534:NZ:9795, V-A:LEU:363:CD1:3189, H-B:TYR:531:OH:9767, V-A:ILE:538:CA:4860, V-A:ILE:538:CB:4862, V-A:ILE:538:CG2:4863, H-A:TYR:531:OH:4795, V-A:TYR:539:CD2:4874"]

$$$$
3ci_Grossjean_2025
     RDKit          3D

 25 27  0  0  0  0  0  0  0  0999 V2000
  127.0590  133.1240   60.5800 C   0  0  0  0  0  0  0  0  0  0  0  0
  127.1720  132.2670   59.3340 C   0  0  0  0  0  0  0  0  0  0  0  0
  128.1500  132.4990   58.3720 C   0  0  0  0  0  0  0  0  0  0  0  0
  128.2250  131.6690   57.2450 C   0  0  0  0  0  0  0  0  0  0  0  0
  129.3000  131.9470   56.2470 C   0  0  0  0  0  0  0  0  0  0  0  0
  130.6490  131.9420   56.6260 C   0  0  0  0  0  0  0  0  0  0  0  0
  131.6470  132.2100   55.6930 C   0  0  0  0  0  0  0  0  0  0  0  0
  131.3000  132.4910   54.3760 C   0  0  0  0  0  0  0  0  0  0  0  0
  129.9640  132.5090   53.9830 C   0  0  0  0  0  0  0  0  0  0  0  0
  128.9690  132.2400   54.9180 C   0  0  0  0  0  0  0  0  0  0  0  0
  127.2810  130.6180   57.1190 C   0  0  0  0  0  0  0  0  0  0  0  0
  127.2830  129.7440   55.9410 C   0  0  0  0  0  0  0  0  0  0  0  0
  127.2860  129.0540   55.0110 N   0  0  0  0  0  0  0  0  0  0  0  0
  126.3220  130.4480   58.1470 C   0  0  0  0  0  0  0  0  0  0  0  0
  125.1010  129.1430   58.1010 S   0  0  0  0  0  0  0  0  0  0  0  0
  125.7210  127.6970   59.0210 C   0  0  0  0  0  0  0  0  0  0  0  0
  126.2700  126.5890   58.1150 C   0  0  0  0  0  0  0  0  0  0  0  0
  127.0870  126.8780   57.2380 O   0  0  0  0  0  0  0  0  0  0  0  0
  125.7880  125.3480   58.3480 N   0  0  0  0  0  0  0  0  0  0  0  0
  126.1370  124.1740   57.6950 C   0  0  0  0  0  0  0  0  0  0  0  0
  127.4130  123.6160   57.7640 C   0  0  0  0  0  0  0  0  0  0  0  0
  127.3500  122.4790   56.9900 C   0  0  0  0  0  0  0  0  0  0  0  0
  126.0990  122.3600   56.4830 O   0  0  0  0  0  0  0  0  0  0  0  0
  125.3410  123.4400   56.9350 N   0  0  0  0  0  0  0  0  0  0  0  0
  126.2700  131.2660   59.2290 N   0  0  0  0  0  0  0  0  0  0  0  0
  1  2  1  0
  2  3  2  0
  3  4  1  0
  4  5  1  0
  5  6  2  0
  6  7  1  0
  7  8  2  0
  8  9  1  0
  9 10  2  0
  4 11  2  0
 11 12  1  0
 12 13  3  0
 11 14  1  0
 14 15  1  0
 15 16  1  0
 16 17  1  0
 17 18  2  0
 17 19  1  0
 19 20  1  0
 20 21  1  0
 21 22  2  0
 22 23  1  0
 23 24  1  0
 14 25  2  0
 25  2  1  0
 10  5  1  0
 24 20  2  0
M  END
>  <Binding energies>  (35) 
[-8.14]

>  <Ligand effiencies>  (35) 
[-0.3130769230769231]

>  <Interactions>  (35) 
["V-B:TYR:539:CD1:9845, V-B:TYR:539:C:9839, H-B:TYR:539:N:9842, V-B:TYR:539:CE2:9848, V-B:TYR:539:CD2:9846, H-B:ASP:366:OD2:8187, V-B:TYR:539:CE1:9847, V-B:PRO:540:N:9856, V-B:TYR:539:CG:9844, V-A:TYR:539:CE1:4875, V-B:ASP:366:CG:8185, V-A:PRO:540:CA:4883, V-A:TYR:539:C:4867, V-A:PRO:540:N:4884, V-B:ASP:366:CB:8184, V-A:TYR:539:CE2:4876, H-B:LYS:534:NZ:9795, V-B:TYR:539:CA:9841, H-B:TYR:531:OH:9767, V-A:ILE:538:CA:4860, V-A:ILE:538:CB:4862, V-A:ILE:538:CG2:4863, V-A:TYR:539:CD2:4874, V-A:TYR:539:CD1:4873"]

$$$$
3ck_Grossjean_2025
     RDKit          3D

 30 31  0  0  0  0  0  0  0  0999 V2000
  132.8580  130.3190   57.7710 C   0  0  0  0  0  0  0  0  0  0  0  0
  131.7460  130.5810   56.9300 O   0  0  0  0  0  0  0  0  0  0  0  0
  131.9670  131.6430   56.0130 C   0  0  0  0  0  0  0  0  0  0  0  0
  130.9820  132.7830   56.3010 C   0  0  0  0  0  0  0  0  0  0  0  0
  130.3350  133.1620   55.0930 O   0  0  0  0  0  0  0  0  0  0  0  0
  129.0500  132.5780   54.9190 C   0  0  0  0  0  0  0  0  0  0  0  0
  129.1970  131.2650   54.1400 C   0  0  0  0  0  0  0  0  0  0  0  0
  128.0520  130.4650   54.3910 O   0  0  0  0  0  0  0  0  0  0  0  0
  128.3050  129.2750   55.1210 C   0  0  0  0  0  0  0  0  0  0  0  0
  129.7590  128.8240   54.8850 C   0  0  0  0  0  0  0  0  0  0  0  0
  130.4410  128.3700   56.1010 N   0  0  0  0  0  0  0  0  0  0  0  0
  131.1890  127.2580   56.2110 C   0  0  0  0  0  0  0  0  0  0  0  0
  131.4080  126.4940   55.2690 O   0  0  0  0  0  0  0  0  0  0  0  0
  131.7730  126.9890   57.6080 C   0  0  0  0  0  0  0  0  0  0  0  0
  130.5550  126.9230   58.9670 S   0  0  0  0  0  0  0  0  0  0  0  0
  129.7730  125.3170   58.9730 C   0  0  0  0  0  0  0  0  0  0  0  0
  130.3390  124.3920   59.7890 N   0  0  0  0  0  0  0  0  0  0  0  0
  129.8000  123.1530   59.8400 C   0  0  0  0  0  0  0  0  0  0  0  0
  130.4880  122.1740   60.7720 C   0  0  0  0  0  0  0  0  0  0  0  0
  128.6880  122.7870   59.0880 C   0  0  0  0  0  0  0  0  0  0  0  0
  128.0900  123.7230   58.2330 C   0  0  0  0  0  0  0  0  0  0  0  0
  126.9130  123.2790   57.4280 C   0  0  0  0  0  0  0  0  0  0  0  0
  125.6280  123.3180   57.9810 C   0  0  0  0  0  0  0  0  0  0  0  0
  124.5270  122.8950   57.2390 C   0  0  0  0  0  0  0  0  0  0  0  0
  124.7090  122.4270   55.9420 C   0  0  0  0  0  0  0  0  0  0  0  0
  125.9830  122.3740   55.3800 C   0  0  0  0  0  0  0  0  0  0  0  0
  127.0810  122.7970   56.1240 C   0  0  0  0  0  0  0  0  0  0  0  0
  128.6380  125.0310   58.1790 C   0  0  0  0  0  0  0  0  0  0  0  0
  128.0280  126.0650   57.3340 C   0  0  0  0  0  0  0  0  0  0  0  0
  127.5470  126.8800   56.6680 N   0  0  0  0  0  0  0  0  0  0  0  0
  1  2  1  0
  2  3  1  0
  3  4  1  0
  4  5  1  0
  5  6  1  0
  6  7  1  0
  7  8  1  0
  8  9  1  0
  9 10  1  0
 10 11  1  0
 11 12  1  0
 12 13  2  0
 12 14  1  0
 14 15  1  0
 15 16  1  0
 16 17  2  0
 17 18  1  0
 18 19  1  0
 18 20  2  0
 20 21  1  0
 21 22  1  0
 22 23  2  0
 23 24  1  0
 24 25  2  0
 25 26  1  0
 26 27  2  0
 21 28  2  0
 28 29  1  0
 29 30  3  0
 28 16  1  0
 27 22  1  0
M  END
>  <Binding energies>  (36) 
[-7.17]

>  <Ligand effiencies>  (36) 
[-0.23129032258064516]

>  <Interactions>  (36) 
["V-B:TYR:539:CD1:9845, V-B:ILE:538:CD1:9837, V-B:PRO:540:CB:9857, V-B:PRO:540:CD:9859, V-B:LEU:363:CD1:8161, V-B:TYR:539:C:9839, V-B:PRO:540:CA:9855, V-B:ILE:538:CG2:9835, V-B:TYR:539:CE2:9848, V-B:TYR:539:CD2:9846, V-B:ILE:538:CA:9832, V-B:MET:535:CE:9807, V-B:TYR:539:CE1:9847, V-B:PRO:540:N:9856, V-B:TYR:531:CE2:9765, V-A:ASP:366:CG:3213, V-A:ASP:366:CB:3212, H-A:TYR:539:N:4870, V-A:PRO:540:CA:4883, V-A:TYR:539:C:4867, V-A:PRO:540:N:4884, V-A:PRO:540:CB:4885, V-A:MET:535:CE:4835, V-A:TYR:539:CE2:4876, H-B:LYS:534:NZ:9795, V-A:LEU:363:CD1:3189, V-B:ILE:538:C:9830, V-B:ILE:538:CB:9834, V-A:PRO:540:CD:4887, H-B:TYR:539:OH:9850, H-B:TYR:531:OH:9767, V-A:ILE:538:CA:4860, H-A:TYR:531:OH:4795, V-B:PRO:540:CG:9858, V-A:TYR:539:CD2:4874, V-A:TYR:539:CG:4872"]

$$$$
4aa_Grossjean_2025
     RDKit          3D

 26 28  0  0  0  0  0  0  0  0999 V2000
  128.4520  132.2400   54.1050 C   0  0  0  0  0  0  0  0  0  0  0  0
  129.8750  132.7810   53.9310 C   0  0  0  0  0  0  0  0  0  0  0  0
  130.3660  133.2310   55.1870 O   0  0  0  0  0  0  0  0  0  0  0  0
  131.6010  132.8730   55.6250 C   0  0  0  0  0  0  0  0  0  0  0  0
  132.5990  133.5920   55.5110 O   0  0  0  0  0  0  0  0  0  0  0  0
  131.6330  131.5130   56.2600 C   0  0  0  0  0  0  0  0  0  0  0  0
  130.5120  130.6800   56.1520 C   0  0  0  0  0  0  0  0  0  0  0  0
  130.5090  129.4150   56.7340 C   0  0  0  0  0  0  0  0  0  0  0  0
  131.6290  128.9540   57.4270 C   0  0  0  0  0  0  0  0  0  0  0  0
  131.5150  127.6640   57.9830 N   0  0  0  0  0  0  0  0  0  0  0  0
  131.9680  126.4730   57.5240 C   0  0  0  0  0  0  0  0  0  0  0  0
  132.5550  126.3210   56.4520 O   0  0  0  0  0  0  0  0  0  0  0  0
  131.6930  125.3250   58.3900 C   0  0  0  0  0  0  0  0  0  0  0  0
  130.0310  124.7940   58.6630 S   0  0  0  0  0  0  0  0  0  0  0  0
  130.5640  123.5270   59.7450 C   0  0  0  0  0  0  0  0  0  0  0  0
  129.7050  122.6970   60.3370 N   0  0  0  0  0  0  0  0  0  0  0  0
  130.2480  121.7630   61.1550 C   0  0  0  0  0  0  0  0  0  0  0  0
  129.2530  120.8320   61.8230 C   0  0  0  0  0  0  0  0  0  0  0  0
  131.6160  121.6380   61.3890 C   0  0  0  0  0  0  0  0  0  0  0  0
  132.5150  122.5100   60.7650 C   0  0  0  0  0  0  0  0  0  0  0  0
  133.9990  122.3350   61.0520 C   0  0  0  0  0  0  0  0  0  0  0  0
  131.9830  123.5060   59.9030 C   0  0  0  0  0  0  0  0  0  0  0  0
  132.6010  124.5450   59.1220 C   0  0  0  0  0  0  0  0  0  0  0  0
  133.9600  124.7370   59.1070 N   0  0  0  0  0  0  0  0  0  0  0  0
  132.7540  129.7820   57.5460 C   0  0  0  0  0  0  0  0  0  0  0  0
  132.7540  131.0480   56.9660 C   0  0  0  0  0  0  0  0  0  0  0  0
  1  2  1  0
  2  3  1  0
  3  4  1  0
  4  5  2  0
  4  6  1  0
  6  7  2  0
  7  8  1  0
  8  9  2  0
  9 10  1  0
 10 11  1  0
 11 12  2  0
 11 13  1  0
 13 14  1  0
 14 15  1  0
 15 16  2  0
 16 17  1  0
 17 18  1  0
 17 19  2  0
 19 20  1  0
 20 21  1  0
 20 22  2  0
 22 23  1  0
 23 24  1  0
  9 25  1  0
 25 26  2  0
 26  6  1  0
 23 13  2  0
 22 15  1  0
M  END
>  <Binding energies>  (37) 
[-7.14]

>  <Ligand effiencies>  (37) 
[-0.24620689655172412]

>  <Interactions>  (37) 
["V-B:TYR:539:CE2:9848, V-B:TYR:539:CD2:9846, V-B:ALA:541:CB:9864, V-B:PRO:540:C:9853, V-A:ASP:366:CA:3210, V-A:ASP:366:CG:3213, V-A:LEU:475:CD2:4259, V-A:ILE:369:CD1:3239, V-A:ASP:366:C:3208, V-A:GLY:454:CA:4049, V-A:ASP:366:CB:3212, V-A:ILE:369:CB:3236, V-A:ILE:369:CG2:3237, H-A:TYR:539:N:4870, V-A:TYR:539:CZ:4877, V-A:TYR:539:C:4867, V-A:PRO:540:N:4884, V-A:PRO:540:CB:4885, V-A:TYR:539:CE2:4876, V-A:LEU:363:CD1:3189, H-A:ASP:366:OD1:3214, V-A:PRO:540:CD:4887, H-B:TYR:539:OH:9850, V-A:ILE:538:CA:4860, V-A:ILE:538:CB:4862, V-A:ILE:538:CG2:4863, H-A:TYR:531:OH:4795, V-A:ILE:538:C:4858, V-A:TYR:539:CD2:4874, H-A:ASP:366:OD2:3215, H-A:ASP:366:O:3209"]

$$$$
4ab_Grossjean_2025
     RDKit          3D

 25 27  0  0  0  0  0  0  0  0999 V2000
  126.6860  126.9230   67.8880 C   0  0  0  0  0  0  0  0  0  0  0  0
  125.7630  127.1910   66.8420 O   0  0  0  0  0  0  0  0  0  0  0  0
  125.4450  128.4660   66.5000 C   0  0  0  0  0  0  0  0  0  0  0  0
  124.5770  129.1290   67.0780 O   0  0  0  0  0  0  0  0  0  0  0  0
  126.2490  128.9880   65.3450 C   0  0  0  0  0  0  0  0  0  0  0  0
  125.6690  129.0240   64.0700 C   0  0  0  0  0  0  0  0  0  0  0  0
  126.3890  129.5010   62.9770 C   0  0  0  0  0  0  0  0  0  0  0  0
  127.6960  129.9590   63.1380 C   0  0  0  0  0  0  0  0  0  0  0  0
  128.3330  130.4120   61.9660 N   0  0  0  0  0  0  0  0  0  0  0  0
  129.3880  131.2470   61.8130 C   0  0  0  0  0  0  0  0  0  0  0  0
  129.9690  131.8090   62.7430 O   0  0  0  0  0  0  0  0  0  0  0  0
  129.8060  131.4770   60.4290 C   0  0  0  0  0  0  0  0  0  0  0  0
  128.6750  132.1600   59.2580 S   0  0  0  0  0  0  0  0  0  0  0  0
  129.8630  132.0600   57.9790 C   0  0  0  0  0  0  0  0  0  0  0  0
  129.5960  132.4580   56.7350 N   0  0  0  0  0  0  0  0  0  0  0  0
  130.6030  132.3250   55.8380 C   0  0  0  0  0  0  0  0  0  0  0  0
  130.2770  132.7790   54.4270 C   0  0  0  0  0  0  0  0  0  0  0  0
  131.8590  131.8120   56.1530 C   0  0  0  0  0  0  0  0  0  0  0  0
  132.1360  131.3940   57.4600 C   0  0  0  0  0  0  0  0  0  0  0  0
  133.5210  130.8390   57.7550 C   0  0  0  0  0  0  0  0  0  0  0  0
  131.1030  131.5140   58.4290 C   0  0  0  0  0  0  0  0  0  0  0  0
  131.0410  131.1850   59.8270 C   0  0  0  0  0  0  0  0  0  0  0  0
  132.1060  130.6380   60.4980 N   0  0  0  0  0  0  0  0  0  0  0  0
  128.2880  129.9220   64.4100 C   0  0  0  0  0  0  0  0  0  0  0  0
  127.5670  129.4420   65.5000 C   0  0  0  0  0  0  0  0  0  0  0  0
  1  2  1  0
  2  3  1  0
  3  4  2  0
  3  5  1  0
  5  6  2  0
  6  7  1  0
  7  8  2  0
  8  9  1  0
  9 10  1  0
 10 11  2  0
 10 12  1  0
 12 13  1  0
 13 14  1  0
 14 15  2  0
 15 16  1  0
 16 17  1  0
 16 18  2  0
 18 19  1  0
 19 20  1  0
 19 21  2  0
 21 22  1  0
 22 23  1  0
  8 24  1  0
 24 25  2  0
 25  5  1  0
 22 12  2  0
 21 14  1  0
M  END
>  <Binding energies>  (38) 
[-6.89]

>  <Ligand effiencies>  (38) 
[-0.24607142857142855]

>  <Interactions>  (38) 
["V-B:GLU:543:CD:9880, V-A:ASP:366:CG:3213, V-A:ASP:366:CB:3212, V-A:PRO:540:CA:4883, V-A:TYR:539:C:4867, V-A:PRO:540:N:4884, V-A:PRO:540:CB:4885, V-A:LEU:363:CD1:3189, V-A:GLU:543:CD:4908, H-A:GLU:543:OE1:4909, H-A:ALA:541:N:4891, V-A:ALA:541:CB:4892, H-A:ASP:366:OD1:3214, V-A:LEU:363:CA:3185, V-A:GLU:543:CG:4907, V-A:ILE:538:CA:4860, V-A:ILE:538:CB:4862, V-A:ILE:538:CG2:4863, V-B:GLU:543:CB:9878, V-A:GLU:543:CB:4906, V-B:ARG:545:CZ:9898, V-B:TYR:484:CZ:9319, V-B:HIS:456:CE1:9042, V-A:ILE:538:C:4858, V-B:ARG:545:CD:9895, V-B:ARG:545:CG:9894, V-B:GLU:543:CG:9879, H-B:TYR:484:OH:9320, H-B:ARG:545:NE:9896, H-B:HIS:456:ND1:9039"]

$$$$
4ac_Grossjean_2025
     RDKit          3D

 23 25  0  0  0  0  0  0  0  0999 V2000
  133.9900  124.9770   66.3150 C   0  0  0  0  0  0  0  0  0  0  0  0
  134.1040  125.3890   64.9570 O   0  0  0  0  0  0  0  0  0  0  0  0
  133.0420  125.1810   64.0980 C   0  0  0  0  0  0  0  0  0  0  0  0
  133.2960  124.3990   62.9720 C   0  0  0  0  0  0  0  0  0  0  0  0
  132.2860  124.1350   62.0500 C   0  0  0  0  0  0  0  0  0  0  0  0
  131.0020  124.6450   62.2490 C   0  0  0  0  0  0  0  0  0  0  0  0
  130.0510  124.3370   61.2590 N   0  0  0  0  0  0  0  0  0  0  0  0
  128.7730  123.9110   61.4010 C   0  0  0  0  0  0  0  0  0  0  0  0
  128.2380  123.6860   62.4890 O   0  0  0  0  0  0  0  0  0  0  0  0
  128.0330  123.7150   60.1510 C   0  0  0  0  0  0  0  0  0  0  0  0
  128.8950  123.3880   58.6470 S   0  0  0  0  0  0  0  0  0  0  0  0
  127.3950  123.3040   57.7510 C   0  0  0  0  0  0  0  0  0  0  0  0
  127.3680  123.0610   56.4400 N   0  0  0  0  0  0  0  0  0  0  0  0
  126.1410  123.0230   55.8660 C   0  0  0  0  0  0  0  0  0  0  0  0
  126.1330  122.7440   54.3750 C   0  0  0  0  0  0  0  0  0  0  0  0
  124.9520  123.2230   56.5660 C   0  0  0  0  0  0  0  0  0  0  0  0
  124.9840  123.4780   57.9410 C   0  0  0  0  0  0  0  0  0  0  0  0
  123.6600  123.6890   58.6600 C   0  0  0  0  0  0  0  0  0  0  0  0
  126.2530  123.5230   58.5780 C   0  0  0  0  0  0  0  0  0  0  0  0
  126.6450  123.7530   59.9420 C   0  0  0  0  0  0  0  0  0  0  0  0
  125.7300  123.9890   60.9370 N   0  0  0  0  0  0  0  0  0  0  0  0
  130.7420  125.4420   63.3730 C   0  0  0  0  0  0  0  0  0  0  0  0
  131.7540  125.7050   64.2920 C   0  0  0  0  0  0  0  0  0  0  0  0
  1  2  1  0
  2  3  1  0
  3  4  2  0
  4  5  1  0
  5  6  2  0
  6  7  1  0
  7  8  1  0
  8  9  2  0
  8 10  1  0
 10 11  1  0
 11 12  1  0
 12 13  2  0
 13 14  1  0
 14 15  1  0
 14 16  2  0
 16 17  1  0
 17 18  1  0
 17 19  2  0
 19 20  1  0
 20 21  1  0
  6 22  1  0
 22 23  2  0
 23  3  1  0
 20 10  2  0
 19 12  1  0
M  END
>  <Binding energies>  (39) 
[-6.84]

>  <Ligand effiencies>  (39) 
[-0.2630769230769231]

>  <Interactions>  (39) 
["V-B:ILE:538:CD1:9837, V-B:PRO:540:CB:9857, V-B:LEU:363:CD1:8161, V-B:PRO:540:CA:9855, H-B:GLU:543:OE1:9881, V-B:TYR:539:CE2:9848, V-B:TYR:539:CD2:9846, V-B:ILE:538:CA:9832, V-B:MET:535:CE:9807, V-B:TYR:539:CZ:9849, H-B:ASP:366:OD2:8187, V-B:PRO:540:N:9856, V-B:TYR:531:CE2:9765, H-A:TYR:484:OH:4348, V-B:TYR:531:CZ:9766, V-A:GLY:454:CA:4049, V-B:ASP:366:CG:8185, V-B:ILE:538:CB:9834, V-A:GLU:543:CD:4908, H-A:GLY:454:N:4050, H-A:ARG:545:NH1:4927, H-A:ARG:545:NH2:4928, V-A:ARG:545:CZ:4926, V-A:HIS:456:CE1:4070, V-A:ILE:455:C:4052, V-A:TYR:484:CE2:4346, H-A:ARG:545:NE:4924, V-A:TYR:484:CZ:4347, V-A:ARG:545:CG:4922, V-A:ARG:545:CD:4923, V-B:ILE:538:CG1:9836, V-B:MET:535:CG:9805, V-B:LEU:363:CA:8157, V-B:MET:535:CB:9804, V-B:VAL:537:C:9822, V-B:LEU:363:CB:8159"]

$$$$
4ad_Grossjean_2025
     RDKit          3D

 21 23  0  0  0  0  0  0  0  0999 V2000
  130.2470  132.8640   54.4780 C   0  0  0  0  0  0  0  0  0  0  0  0
  130.4990  132.3550   55.8850 C   0  0  0  0  0  0  0  0  0  0  0  0
  131.7100  131.7560   56.2260 C   0  0  0  0  0  0  0  0  0  0  0  0
  131.9190  131.2910   57.5300 C   0  0  0  0  0  0  0  0  0  0  0  0
  133.2560  130.6420   57.8540 C   0  0  0  0  0  0  0  0  0  0  0  0
  130.8640  131.4550   58.4690 C   0  0  0  0  0  0  0  0  0  0  0  0
  130.7390  131.1040   59.8580 C   0  0  0  0  0  0  0  0  0  0  0  0
  131.7530  130.4920   60.5510 N   0  0  0  0  0  0  0  0  0  0  0  0
  129.5010  131.4450   60.4240 C   0  0  0  0  0  0  0  0  0  0  0  0
  129.0320  131.2230   61.7930 C   0  0  0  0  0  0  0  0  0  0  0  0
  129.5980  131.7610   62.7460 O   0  0  0  0  0  0  0  0  0  0  0  0
  127.9520  130.4110   61.9120 N   0  0  0  0  0  0  0  0  0  0  0  0
  127.2900  129.9660   63.0730 C   0  0  0  0  0  0  0  0  0  0  0  0
  125.8930  129.9540   63.0130 C   0  0  0  0  0  0  0  0  0  0  0  0
  125.1480  129.5210   64.1060 C   0  0  0  0  0  0  0  0  0  0  0  0
  125.7990  129.0920   65.2590 C   0  0  0  0  0  0  0  0  0  0  0  0
  127.1910  129.0870   65.3270 C   0  0  0  0  0  0  0  0  0  0  0  0
  127.9390  129.5200   64.2360 C   0  0  0  0  0  0  0  0  0  0  0  0
  128.4510  132.2220   59.2370 S   0  0  0  0  0  0  0  0  0  0  0  0
  129.6730  132.0830   57.9940 C   0  0  0  0  0  0  0  0  0  0  0  0
  129.4720  132.5270   56.7520 N   0  0  0  0  0  0  0  0  0  0  0  0
  1  2  1  0
  2  3  2  0
  3  4  1  0
  4  5  1  0
  4  6  2  0
  6  7  1  0
  7  8  1  0
  7  9  2  0
  9 10  1  0
 10 11  2  0
 10 12  1  0
 12 13  1  0
 13 14  2  0
 14 15  1  0
 15 16  2  0
 16 17  1  0
 17 18  2  0
  9 19  1  0
 19 20  1  0
 20 21  2  0
 21  2  1  0
 20  6  1  0
 18 13  1  0
M  END
>  <Binding energies>  (40) 
[-6.89]

>  <Ligand effiencies>  (40) 
[-0.2870833333333333]

>  <Interactions>  (40) 
["V-A:ASP:366:CG:3213, V-A:ASP:366:CB:3212, H-A:TYR:539:N:4870, V-A:PRO:540:CA:4883, V-A:TYR:539:C:4867, V-A:PRO:540:N:4884, V-A:PRO:540:CB:4885, V-A:LEU:363:CD1:3189, V-A:GLU:543:CD:4908, H-A:GLU:543:OE1:4909, H-A:ALA:541:N:4891, H-A:ASP:366:OD1:3214, V-A:LEU:363:CA:3185, V-A:GLU:543:CG:4907, V-A:ILE:538:CA:4860, V-A:ILE:538:CB:4862, V-A:ILE:538:CG2:4863, V-B:ARG:545:CZ:9898, V-A:ILE:538:C:4858"]

$$$$
4ae_Grossjean_2025
     RDKit          3D

 22 24  0  0  0  0  0  0  0  0999 V2000
  128.1380  128.8260   66.7300 C   0  0  0  0  0  0  0  0  0  0  0  0
  127.3240  129.0900   65.4780 C   0  0  0  0  0  0  0  0  0  0  0  0
  125.9450  128.8680   65.4410 C   0  0  0  0  0  0  0  0  0  0  0  0
  125.2630  129.1260   64.2520 C   0  0  0  0  0  0  0  0  0  0  0  0
  125.9670  129.5920   63.1400 C   0  0  0  0  0  0  0  0  0  0  0  0
  127.3470  129.8010   63.2470 C   0  0  0  0  0  0  0  0  0  0  0  0
  128.0030  130.2510   62.0890 N   0  0  0  0  0  0  0  0  0  0  0  0
  129.0050  131.1600   61.9810 C   0  0  0  0  0  0  0  0  0  0  0  0
  129.4980  131.7540   62.9410 O   0  0  0  0  0  0  0  0  0  0  0  0
  129.4800  131.4100   60.6180 C   0  0  0  0  0  0  0  0  0  0  0  0
  128.4220  132.1760   59.4320 S   0  0  0  0  0  0  0  0  0  0  0  0
  129.6500  132.0610   58.1920 C   0  0  0  0  0  0  0  0  0  0  0  0
  129.4440  132.5040   56.9520 N   0  0  0  0  0  0  0  0  0  0  0  0
  130.4740  132.3510   56.0860 C   0  0  0  0  0  0  0  0  0  0  0  0
  130.2150  132.8560   54.6770 C   0  0  0  0  0  0  0  0  0  0  0  0
  131.6950  131.7740   56.4280 C   0  0  0  0  0  0  0  0  0  0  0  0
  131.9090  131.3110   57.7320 C   0  0  0  0  0  0  0  0  0  0  0  0
  133.2570  130.6840   58.0560 C   0  0  0  0  0  0  0  0  0  0  0  0
  130.8500  131.4530   58.6680 C   0  0  0  0  0  0  0  0  0  0  0  0
  130.7270  131.0920   60.0560 C   0  0  0  0  0  0  0  0  0  0  0  0
  131.7470  130.4910   60.7500 N   0  0  0  0  0  0  0  0  0  0  0  0
  128.0220  129.5440   64.4060 N   0  0  0  0  0  0  0  0  0  0  0  0
  1  2  1  0
  2  3  2  0
  3  4  1  0
  4  5  2  0
  5  6  1  0
  6  7  1  0
  7  8  1  0
  8  9  2  0
  8 10  1  0
 10 11  1  0
 11 12  1  0
 12 13  2  0
 13 14  1  0
 14 15  1  0
 14 16  2  0
 16 17  1  0
 17 18  1  0
 17 19  2  0
 19 20  1  0
 20 21  1  0
  6 22  2  0
 22  2  1  0
 20 10  2  0
 19 12  1  0
M  END
>  <Binding energies>  (41) 
[-7.09]

>  <Ligand effiencies>  (41) 
[-0.2836]

>  <Interactions>  (41) 
["V-A:ASP:366:CG:3213, V-A:ASP:366:CB:3212, V-A:PRO:540:CA:4883, V-A:TYR:539:C:4867, V-A:PRO:540:N:4884, V-A:PRO:540:CB:4885, V-A:LEU:363:CD1:3189, V-A:GLU:543:CD:4908, H-A:GLU:543:OE1:4909, H-A:ASP:366:OD1:3214, V-A:LEU:363:CA:3185, V-A:GLU:543:CG:4907, V-A:ILE:538:CA:4860, V-A:ILE:538:CB:4862, V-A:ILE:538:CG2:4863, V-A:GLU:543:CB:4906, V-B:ARG:545:CZ:9898, V-B:HIS:456:CE1:9042, V-A:ILE:538:C:4858, H-B:TYR:484:OH:9320"]

$$$$
4af_Grossjean_2025
     RDKit          3D

 21 23  0  0  0  0  0  0  0  0999 V2000
  126.5430  122.4520   54.4490 C   0  0  0  0  0  0  0  0  0  0  0  0
  126.4970  122.8270   55.9190 C   0  0  0  0  0  0  0  0  0  0  0  0
  125.2940  123.1600   56.5380 C   0  0  0  0  0  0  0  0  0  0  0  0
  125.2760  123.5050   57.8940 C   0  0  0  0  0  0  0  0  0  0  0  0
  123.9390  123.8620   58.5240 C   0  0  0  0  0  0  0  0  0  0  0  0
  126.5120  123.5020   58.5960 C   0  0  0  0  0  0  0  0  0  0  0  0
  126.8530  123.7990   59.9620 C   0  0  0  0  0  0  0  0  0  0  0  0
  125.9100  124.1710   60.8870 N   0  0  0  0  0  0  0  0  0  0  0  0
  128.2210  123.6730   60.2490 C   0  0  0  0  0  0  0  0  0  0  0  0
  128.9140  123.9250   61.5140 C   0  0  0  0  0  0  0  0  0  0  0  0
  128.3410  123.7440   62.5890 O   0  0  0  0  0  0  0  0  0  0  0  0
  130.1970  124.3450   61.3980 N   0  0  0  0  0  0  0  0  0  0  0  0
  131.1120  124.7150   62.4020 C   0  0  0  0  0  0  0  0  0  0  0  0
  130.7950  125.4310   63.5710 C   0  0  0  0  0  0  0  0  0  0  0  0
  131.8050  125.7500   64.4800 C   0  0  0  0  0  0  0  0  0  0  0  0
  133.1120  125.3500   64.1970 C   0  0  0  0  0  0  0  0  0  0  0  0
  133.4450  124.6660   63.0740 N   0  0  0  0  0  0  0  0  0  0  0  0
  132.4520  124.3630   62.1990 C   0  0  0  0  0  0  0  0  0  0  0  0
  129.1290  123.1800   58.8170 S   0  0  0  0  0  0  0  0  0  0  0  0
  127.6740  123.1430   57.8480 C   0  0  0  0  0  0  0  0  0  0  0  0
  127.6940  122.8120   56.5570 N   0  0  0  0  0  0  0  0  0  0  0  0
  1  2  1  0
  2  3  2  0
  3  4  1  0
  4  5  1  0
  4  6  2  0
  6  7  1  0
  7  8  1  0
  7  9  2  0
  9 10  1  0
 10 11  2  0
 10 12  1  0
 12 13  1  0
 13 14  2  0
 14 15  1  0
 15 16  2  0
 16 17  1  0
 17 18  2  0
  9 19  1  0
 19 20  1  0
 20 21  2  0
 21  2  1  0
 20  6  1  0
 18 13  1  0
M  END
>  <Binding energies>  (42) 
[-6.93]

>  <Ligand effiencies>  (42) 
[-0.28875]

>  <Interactions>  (42) 
["V-B:TYR:539:CD1:9845, V-B:ILE:538:CD1:9837, V-B:PRO:540:CB:9857, V-B:LEU:363:CD1:8161, V-B:TYR:539:C:9839, V-B:PRO:540:CA:9855, H-B:TYR:539:N:9842, H-B:GLU:543:OE1:9881, V-B:TYR:539:CE2:9848, V-B:TYR:539:CD2:9846, V-B:ILE:538:CA:9832, V-B:MET:535:CE:9807, V-B:TYR:539:CZ:9849, H-B:ASP:366:OD2:8187, V-B:PRO:540:N:9856, V-B:TYR:531:CE2:9765, H-A:TYR:484:OH:4348, V-B:TYR:531:CZ:9766, V-B:ASP:366:CG:8185, V-B:ASP:366:CB:8184, V-B:ILE:538:C:9830, V-B:ILE:538:CB:9834, V-A:GLU:543:CD:4908, H-A:GLY:454:N:4050, H-A:ARG:545:NH2:4928, V-A:ARG:545:CZ:4926, V-A:TYR:484:CE2:4346, V-A:TYR:484:CZ:4347, V-A:ARG:545:CD:4923, V-B:ILE:538:CG1:9836, V-B:LEU:363:CA:8157, V-B:VAL:537:C:9822, V-B:LEU:363:CB:8159"]

$$$$
4ag_Grossjean_2025
     RDKit          3D

 22 24  0  0  0  0  0  0  0  0999 V2000
  123.8840  132.8660   60.7160 C   0  0  0  0  0  0  0  0  0  0  0  0
  124.4850  131.4970   60.9720 C   0  0  0  0  0  0  0  0  0  0  0  0
  124.7110  131.0450   62.2710 C   0  0  0  0  0  0  0  0  0  0  0  0
  125.2650  129.7780   62.4850 C   0  0  0  0  0  0  0  0  0  0  0  0
  125.4930  129.3290   63.9200 C   0  0  0  0  0  0  0  0  0  0  0  0
  125.5790  128.9900   61.3450 C   0  0  0  0  0  0  0  0  0  0  0  0
  126.1440  127.6760   61.2000 C   0  0  0  0  0  0  0  0  0  0  0  0
  126.5010  126.9080   62.2810 N   0  0  0  0  0  0  0  0  0  0  0  0
  126.2950  127.2650   59.8680 C   0  0  0  0  0  0  0  0  0  0  0  0
  126.8220  125.9970   59.3630 C   0  0  0  0  0  0  0  0  0  0  0  0
  127.8330  125.9570   58.6580 O   0  0  0  0  0  0  0  0  0  0  0  0
  126.1270  124.8890   59.6970 N   0  0  0  0  0  0  0  0  0  0  0  0
  126.4830  123.5210   59.3260 C   0  0  0  0  0  0  0  0  0  0  0  0
  126.3520  123.2290   57.8350 C   0  0  0  0  0  0  0  0  0  0  0  0
  127.5000  123.0820   57.0520 C   0  0  0  0  0  0  0  0  0  0  0  0
  127.3830  122.7920   55.6950 C   0  0  0  0  0  0  0  0  0  0  0  0
  126.1190  122.6380   55.1280 C   0  0  0  0  0  0  0  0  0  0  0  0
  124.9710  122.7680   55.9070 C   0  0  0  0  0  0  0  0  0  0  0  0
  125.0880  123.0570   57.2640 C   0  0  0  0  0  0  0  0  0  0  0  0
  125.7260  128.5020   58.7480 S   0  0  0  0  0  0  0  0  0  0  0  0
  125.2980  129.5660   60.0690 C   0  0  0  0  0  0  0  0  0  0  0  0
  124.7690  130.7730   59.8620 N   0  0  0  0  0  0  0  0  0  0  0  0
  1  2  1  0
  2  3  2  0
  3  4  1  0
  4  5  1  0
  4  6  2  0
  6  7  1  0
  7  8  1  0
  7  9  2  0
  9 10  1  0
 10 11  2  0
 10 12  1  0
 12 13  1  0
 13 14  1  0
 14 15  2  0
 15 16  1  0
 16 17  2  0
 17 18  1  0
 18 19  2  0
  9 20  1  0
 20 21  1  0
 21 22  2  0
 22  2  1  0
 21  6  1  0
 19 14  1  0
M  END
>  <Binding energies>  (43) 
[-6.92]

>  <Ligand effiencies>  (43) 
[-0.2768]

>  <Interactions>  (43) 
["V-B:TYR:539:CD1:9845, V-B:ILE:538:CD1:9837, V-B:PRO:540:CB:9857, V-B:PRO:540:CD:9859, V-B:LEU:363:CD1:8161, V-B:GLU:543:CD:9880, H-B:GLU:543:OE2:9882, V-B:PRO:540:CA:9855, V-B:ILE:538:CG2:9835, H-B:GLU:543:OE1:9881, V-B:TYR:539:CE2:9848, V-B:ILE:538:CA:9832, V-B:MET:535:CE:9807, V-B:TYR:539:CZ:9849, H-B:ASP:366:OD2:8187, V-B:TYR:539:CE1:9847, V-B:PRO:540:N:9856, V-B:TYR:531:CE2:9765, V-B:TYR:539:CG:9844, V-B:TYR:531:CZ:9766, V-B:ASP:366:CG:8185, V-B:ASP:366:CB:8184, V-B:ILE:538:C:9830, V-B:ILE:538:CB:9834, V-B:ARG:545:CZ:9898, V-B:ILE:369:CD1:8211, V-B:ILE:369:CG2:8209"]

$$$$
4ah_Grossjean_2025
     RDKit          3D

 28 30  0  0  0  0  0  0  0  0999 V2000
  128.9600  132.6570   53.6360 C   0  0  0  0  0  0  0  0  0  0  0  0
  127.9570  132.0120   54.4120 O   0  0  0  0  0  0  0  0  0  0  0  0
  128.3230  131.0220   55.3070 C   0  0  0  0  0  0  0  0  0  0  0  0
  129.5330  131.0160   56.0180 C   0  0  0  0  0  0  0  0  0  0  0  0
  129.8370  129.9820   56.9040 C   0  0  0  0  0  0  0  0  0  0  0  0
  131.1350  130.0170   57.7030 C   0  0  0  0  0  0  0  0  0  0  0  0
  131.4760  128.7370   58.3230 N   0  0  0  0  0  0  0  0  0  0  0  0
  131.7580  127.5970   57.6570 C   0  0  0  0  0  0  0  0  0  0  0  0
  131.7170  127.5170   56.4280 O   0  0  0  0  0  0  0  0  0  0  0  0
  132.0780  126.4350   58.4850 C   0  0  0  0  0  0  0  0  0  0  0  0
  132.5770  124.9200   57.7300 S   0  0  0  0  0  0  0  0  0  0  0  0
  132.7020  124.1330   59.2880 C   0  0  0  0  0  0  0  0  0  0  0  0
  133.0760  122.8590   59.4080 N   0  0  0  0  0  0  0  0  0  0  0  0
  133.1340  122.3720   60.6710 C   0  0  0  0  0  0  0  0  0  0  0  0
  133.5580  120.9190   60.7840 C   0  0  0  0  0  0  0  0  0  0  0  0
  132.8330  123.1220   61.8050 C   0  0  0  0  0  0  0  0  0  0  0  0
  132.4390  124.4590   61.6770 C   0  0  0  0  0  0  0  0  0  0  0  0
  132.1190  125.2360   62.9450 C   0  0  0  0  0  0  0  0  0  0  0  0
  132.3630  125.0050   60.3670 C   0  0  0  0  0  0  0  0  0  0  0  0
  131.9990  126.3080   59.8790 C   0  0  0  0  0  0  0  0  0  0  0  0
  131.6210  127.3270   60.7170 N   0  0  0  0  0  0  0  0  0  0  0  0
  128.9130  128.9560   57.1060 C   0  0  0  0  0  0  0  0  0  0  0  0
  127.6980  128.9320   56.4050 C   0  0  0  0  0  0  0  0  0  0  0  0
  126.7450  127.9390   56.5450 O   0  0  0  0  0  0  0  0  0  0  0  0
  126.7210  127.1580   57.7350 C   0  0  0  0  0  0  0  0  0  0  0  0
  127.4170  129.9680   55.5030 C   0  0  0  0  0  0  0  0  0  0  0  0
  126.2230  129.9680   54.8230 O   0  0  0  0  0  0  0  0  0  0  0  0
  125.0920  130.2340   55.6410 C   0  0  0  0  0  0  0  0  0  0  0  0
  1  2  1  0
  2  3  1  0
  3  4  2  0
  4  5  1  0
  5  6  1  0
  6  7  1  0
  7  8  1  0
  8  9  2  0
  8 10  1  0
 10 11  1  0
 11 12  1  0
 12 13  2  0
 13 14  1  0
 14 15  1  0
 14 16  2  0
 16 17  1  0
 17 18  1  0
 17 19  2  0
 19 20  1  0
 20 21  1  0
  5 22  2  0
 22 23  1  0
 23 24  1  0
 24 25  1  0
 23 26  2  0
 26 27  1  0
 27 28  1  0
 26  3  1  0
 20 10  2  0
 19 12  1  0
M  END
>  <Binding energies>  (44) 
[-6.15]

>  <Ligand effiencies>  (44) 
[-0.19838709677419356]

>  <Interactions>  (44) 
["V-B:TYR:539:CE2:9848, V-B:TYR:539:CZ:9849, V-A:SER:385:CB:3409, V-A:ASP:366:CA:3210, V-A:ASP:366:CG:3213, V-A:LEU:475:CD2:4259, V-A:ILE:369:CD1:3239, V-A:ASP:366:CB:3212, V-A:ILE:369:CG2:3237, V-B:TYR:531:CE1:9764, V-A:TYR:539:CZ:4877, V-A:TYR:539:CE2:4876, H-B:LYS:534:NZ:9795, H-A:GLU:543:OE1:4909, V-A:ARG:545:CZ:4926, H-A:ASP:366:OD1:3214, V-A:SER:385:C:3405, H-B:TYR:531:OH:9767, V-A:ILE:538:CA:4860, H-A:TYR:531:OH:4795, H-A:TYR:539:OH:4878, V-A:TYR:539:CD2:4874, H-A:ASP:366:OD2:3215"]

$$$$
4ai_Grossjean_2025
     RDKit          3D

 20 22  0  0  0  0  0  0  0  0999 V2000
  133.2490  125.0070   64.1860 C   0  0  0  0  0  0  0  0  0  0  0  0
  132.7500  124.8470   62.7610 C   0  0  0  0  0  0  0  0  0  0  0  0
  133.6410  124.6630   61.7060 C   0  0  0  0  0  0  0  0  0  0  0  0
  133.1590  124.5130   60.4000 C   0  0  0  0  0  0  0  0  0  0  0  0
  134.1710  124.3120   59.2830 C   0  0  0  0  0  0  0  0  0  0  0  0
  131.7520  124.5540   60.2040 C   0  0  0  0  0  0  0  0  0  0  0  0
  130.9340  124.4360   59.0280 C   0  0  0  0  0  0  0  0  0  0  0  0
  131.4700  124.2500   57.7780 N   0  0  0  0  0  0  0  0  0  0  0  0
  129.5560  124.5230   59.2800 C   0  0  0  0  0  0  0  0  0  0  0  0
  128.4480  124.4550   58.3240 C   0  0  0  0  0  0  0  0  0  0  0  0
  128.1340  125.4400   57.6540 O   0  0  0  0  0  0  0  0  0  0  0  0
  127.8330  123.2490   58.2330 N   0  0  0  0  0  0  0  0  0  0  0  0
  126.7700  122.9040   57.4080 C   0  0  0  0  0  0  0  0  0  0  0  0
  125.5020  123.4750   57.5190 C   0  0  0  0  0  0  0  0  0  0  0  0
  124.7500  122.8700   56.5390 C   0  0  0  0  0  0  0  0  0  0  0  0
  125.5240  121.9820   55.8710 O   0  0  0  0  0  0  0  0  0  0  0  0
  126.8030  122.0130   56.4290 N   0  0  0  0  0  0  0  0  0  0  0  0
  129.2380  124.7800   60.9970 S   0  0  0  0  0  0  0  0  0  0  0  0
  130.9480  124.7490   61.3670 C   0  0  0  0  0  0  0  0  0  0  0  0
  131.4040  124.8940   62.6120 N   0  0  0  0  0  0  0  0  0  0  0  0
  1  2  1  0
  2  3  2  0
  3  4  1  0
  4  5  1  0
  4  6  2  0
  6  7  1  0
  7  8  1  0
  7  9  2  0
  9 10  1  0
 10 11  2  0
 10 12  1  0
 12 13  1  0
 13 14  1  0
 14 15  2  0
 15 16  1  0
 16 17  1  0
  9 18  1  0
 18 19  1  0
 19 20  2  0
 20  2  1  0
 19  6  1  0
 17 13  2  0
M  END
>  <Binding energies>  (45) 
[-6.56]

>  <Ligand effiencies>  (45) 
[-0.2852173913043478]

>  <Interactions>  (45) 
["V-B:ILE:538:CD1:9837, V-B:PRO:540:CB:9857, V-B:PRO:540:CD:9859, V-B:LEU:363:CD1:8161, V-B:TYR:539:C:9839, V-B:PRO:540:CA:9855, H-B:TYR:539:N:9842, V-B:TYR:539:CE2:9848, V-B:TYR:539:CD2:9846, V-B:TYR:539:CZ:9849, V-B:PRO:540:N:9856, V-B:TYR:531:CE2:9765, H-A:TYR:484:OH:4348, V-A:ASP:366:CA:3210, V-A:ASP:366:CG:3213, V-B:TYR:531:CZ:9766, V-A:ILE:369:CD1:3239, V-A:GLY:454:CA:4049, V-A:ASP:366:CB:3212, V-A:ILE:369:CB:3236, V-A:ILE:369:CG2:3237, V-A:ARG:545:CZ:4926, H-B:TYR:539:OH:9850, V-A:TYR:484:CE2:4346, V-A:TYR:484:CZ:4347, H-B:TYR:539:O:9840, V-A:ILE:369:CG1:3238"]

$$$$
4aj_Grossjean_2025
     RDKit          3D

 20 22  0  0  0  0  0  0  0  0999 V2000
  126.5150  122.3830   54.5860 C   0  0  0  0  0  0  0  0  0  0  0  0
  126.4170  122.7600   56.0530 C   0  0  0  0  0  0  0  0  0  0  0  0
  125.1990  123.1260   56.6190 C   0  0  0  0  0  0  0  0  0  0  0  0
  125.1330  123.4750   57.9730 C   0  0  0  0  0  0  0  0  0  0  0  0
  123.7790  123.8680   58.5440 C   0  0  0  0  0  0  0  0  0  0  0  0
  126.3360  123.4390   58.7270 C   0  0  0  0  0  0  0  0  0  0  0  0
  126.6260  123.7290   60.1060 C   0  0  0  0  0  0  0  0  0  0  0  0
  125.6570  124.1340   60.9880 N   0  0  0  0  0  0  0  0  0  0  0  0
  127.9740  123.5540   60.4540 C   0  0  0  0  0  0  0  0  0  0  0  0
  128.6140  123.7680   61.7530 C   0  0  0  0  0  0  0  0  0  0  0  0
  128.2970  123.0880   62.7310 O   0  0  0  0  0  0  0  0  0  0  0  0
  129.5640  124.7360   61.7820 N   0  0  0  0  0  0  0  0  0  0  0  0
  130.3230  125.1260   62.8770 C   0  0  0  0  0  0  0  0  0  0  0  0
  129.9040  125.4110   64.0910 N   0  0  0  0  0  0  0  0  0  0  0  0
  130.9040  125.7410   64.8840 C   0  0  0  0  0  0  0  0  0  0  0  0
  132.1730  125.7290   64.3120 C   0  0  0  0  0  0  0  0  0  0  0  0
  132.0370  125.2570   62.6450 S   0  0  0  0  0  0  0  0  0  0  0  0
  128.9290  123.0360   59.0640 S   0  0  0  0  0  0  0  0  0  0  0  0
  127.5180  123.0440   58.0300 C   0  0  0  0  0  0  0  0  0  0  0  0
  127.5850  122.7110   56.7400 N   0  0  0  0  0  0  0  0  0  0  0  0
  1  2  1  0
  2  3  2  0
  3  4  1  0
  4  5  1  0
  4  6  2  0
  6  7  1  0
  7  8  1  0
  7  9  2  0
  9 10  1  0
 10 11  2  0
 10 12  1  0
 12 13  1  0
 13 14  2  0
 14 15  1  0
 15 16  2  0
 16 17  1  0
  9 18  1  0
 18 19  1  0
 19 20  2  0
 20  2  1  0
 19  6  1  0
 17 13  1  0
M  END
>  <Binding energies>  (46) 
[-6.43]

>  <Ligand effiencies>  (46) 
[-0.27956521739130435]

>  <Interactions>  (46) 
["V-B:TYR:539:CD1:9845, V-B:ILE:538:CD1:9837, V-B:PRO:540:CB:9857, V-B:LEU:363:CD1:8161, V-B:GLU:543:CD:9880, V-B:TYR:539:C:9839, V-B:PRO:540:CA:9855, H-B:TYR:539:N:9842, H-B:GLU:543:OE1:9881, V-B:TYR:539:CE2:9848, V-B:TYR:539:CD2:9846, V-B:ILE:538:CA:9832, V-B:MET:535:CE:9807, H-B:ASP:366:OD2:8187, V-B:PRO:540:N:9856, V-B:TYR:531:CE2:9765, H-A:TYR:484:OH:4348, V-B:TYR:531:CZ:9766, V-B:ASP:366:CG:8185, V-B:ASP:366:CB:8184, V-B:ILE:538:C:9830, V-B:ILE:538:CB:9834, V-A:GLU:543:CD:4908, V-A:ARG:545:CZ:4926, V-A:TYR:484:CE2:4346, V-A:TYR:484:CZ:4347, V-B:ILE:538:CG1:9836, V-B:LEU:363:CA:8157, V-B:VAL:537:C:9822, V-B:LEU:363:CB:8159"]

$$$$
4ak_Grossjean_2025
     RDKit          3D

 25 26  0  0  0  0  0  0  0  0999 V2000
  125.6470  129.9260   55.8350 C   0  0  0  0  0  0  0  0  0  0  0  0
  126.4940  129.0510   55.1070 O   0  0  0  0  0  0  0  0  0  0  0  0
  127.7750  128.8780   55.7010 C   0  0  0  0  0  0  0  0  0  0  0  0
  128.7850  129.8090   55.0180 C   0  0  0  0  0  0  0  0  0  0  0  0
  128.6420  131.1240   55.5400 O   0  0  0  0  0  0  0  0  0  0  0  0
  128.3630  132.1060   54.5520 C   0  0  0  0  0  0  0  0  0  0  0  0
  129.6820  132.6570   53.9980 C   0  0  0  0  0  0  0  0  0  0  0  0
  130.5750  132.9080   55.0750 O   0  0  0  0  0  0  0  0  0  0  0  0
  131.7640  132.1310   55.0290 C   0  0  0  0  0  0  0  0  0  0  0  0
  131.9530  131.4100   56.3770 C   0  0  0  0  0  0  0  0  0  0  0  0
  130.8850  131.6770   57.3390 N   0  0  0  0  0  0  0  0  0  0  0  0
  130.9730  131.4980   58.6730 C   0  0  0  0  0  0  0  0  0  0  0  0
  132.0040  131.1010   59.2190 O   0  0  0  0  0  0  0  0  0  0  0  0
  129.7720  131.8120   59.4450 C   0  0  0  0  0  0  0  0  0  0  0  0
  128.3570  132.5000   58.6490 S   0  0  0  0  0  0  0  0  0  0  0  0
  127.4720  132.5410   60.1570 C   0  0  0  0  0  0  0  0  0  0  0  0
  126.2230  133.0040   60.2300 N   0  0  0  0  0  0  0  0  0  0  0  0
  125.6520  132.9820   61.4590 C   0  0  0  0  0  0  0  0  0  0  0  0
  124.2310  133.5120   61.5210 C   0  0  0  0  0  0  0  0  0  0  0  0
  126.2920  132.5130   62.6040 C   0  0  0  0  0  0  0  0  0  0  0  0
  127.6030  132.0270   62.5240 C   0  0  0  0  0  0  0  0  0  0  0  0
  128.2610  131.5300   63.8010 C   0  0  0  0  0  0  0  0  0  0  0  0
  128.2350  132.0350   61.2520 C   0  0  0  0  0  0  0  0  0  0  0  0
  129.5420  131.6200   60.8160 C   0  0  0  0  0  0  0  0  0  0  0  0
  130.4690  131.0910   61.6780 N   0  0  0  0  0  0  0  0  0  0  0  0
  1  2  1  0
  2  3  1  0
  3  4  1  0
  4  5  1  0
  5  6  1  0
  6  7  1  0
  7  8  1  0
  8  9  1  0
  9 10  1  0
 10 11  1  0
 11 12  1  0
 12 13  2  0
 12 14  1  0
 14 15  1  0
 15 16  1  0
 16 17  2  0
 17 18  1  0
 18 19  1  0
 18 20  2  0
 20 21  1  0
 21 22  1  0
 21 23  2  0
 23 24  1  0
 24 25  1  0
 24 14  2  0
 23 16  1  0
M  END
>  <Binding energies>  (47) 
[-5.85]

>  <Ligand effiencies>  (47) 
[-0.2089285714285714]

>  <Interactions>  (47) 
["V-B:MET:535:CE:9807, V-A:TYR:539:CE1:4875, V-A:TYR:531:CZ:4794, V-B:TYR:531:CE1:9764, H-A:TYR:539:N:4870, V-A:TYR:539:CZ:4877, V-A:TYR:531:CE2:4793, V-A:PRO:540:CA:4883, V-A:TYR:539:C:4867, V-A:PRO:540:N:4884, V-A:PRO:540:CB:4885, V-A:TYR:539:CE2:4876, H-B:LYS:534:NZ:9795, V-A:LEU:363:CD1:3189, V-A:GLU:543:CD:4908, H-A:GLU:543:OE1:4909, V-A:ALA:541:CB:4892, H-A:ASP:366:OD1:3214, V-A:GLU:543:CG:4907, H-B:TYR:531:OH:9767, V-A:ILE:538:CA:4860, V-A:ILE:538:CB:4862, V-A:ILE:538:CG2:4863, V-B:LEU:475:CD2:9231, V-B:TYR:484:CZ:9319, V-A:ILE:538:C:4858, V-A:TYR:539:CD2:4874, V-B:ILE:369:CD1:8211, V-A:TYR:539:CD1:4873, V-B:TYR:484:CE2:9318"]

$$$$
4al_Grossjean_2025
     RDKit          3D

 16 17  0  0  0  0  0  0  0  0999 V2000
  129.5150  124.4080   62.6140 C   0  0  0  0  0  0  0  0  0  0  0  0
  129.0090  123.1300   62.2590 O   0  0  0  0  0  0  0  0  0  0  0  0
  127.6780  122.9330   62.0770 C   0  0  0  0  0  0  0  0  0  0  0  0
  126.8750  122.7490   62.9950 O   0  0  0  0  0  0  0  0  0  0  0  0
  127.2820  122.9620   60.6520 C   0  0  0  0  0  0  0  0  0  0  0  0
  128.4120  122.4150   59.4110 S   0  0  0  0  0  0  0  0  0  0  0  0
  127.2530  122.7540   58.1470 C   0  0  0  0  0  0  0  0  0  0  0  0
  127.5280  122.5340   56.8610 N   0  0  0  0  0  0  0  0  0  0  0  0
  126.5420  122.8400   55.9800 C   0  0  0  0  0  0  0  0  0  0  0  0
  126.8760  122.5820   54.5220 C   0  0  0  0  0  0  0  0  0  0  0  0
  125.3020  123.3540   56.3530 C   0  0  0  0  0  0  0  0  0  0  0  0
  125.0160  123.5830   57.7030 C   0  0  0  0  0  0  0  0  0  0  0  0
  123.6500  124.1450   58.0610 C   0  0  0  0  0  0  0  0  0  0  0  0
  126.0260  123.2750   58.6550 C   0  0  0  0  0  0  0  0  0  0  0  0
  126.0720  123.3830   60.0870 C   0  0  0  0  0  0  0  0  0  0  0  0
  125.0180  123.8560   60.8260 N   0  0  0  0  0  0  0  0  0  0  0  0
  1  2  1  0
  2  3  1  0
  3  4  2  0
  3  5  1  0
  5  6  1  0
  6  7  1  0
  7  8  2  0
  8  9  1  0
  9 10  1  0
  9 11  2  0
 11 12  1  0
 12 13  1  0
 12 14  2  0
 14 15  1  0
 15 16  1  0
 15  5  2  0
 14  7  1  0
M  END
>  <Binding energies>  (48) 
[-6.09]

>  <Ligand effiencies>  (48) 
[-0.3383333333333333]

>  <Interactions>  (48) 
["V-B:TYR:539:CD1:9845, V-B:ILE:538:CD1:9837, V-B:PRO:540:CB:9857, V-B:LEU:363:CD1:8161, V-B:GLU:543:CD:9880, V-B:TYR:539:C:9839, V-B:PRO:540:CA:9855, H-B:TYR:539:N:9842, H-B:GLU:543:OE1:9881, V-B:TYR:539:CE2:9848, V-B:TYR:539:CD2:9846, V-B:ILE:538:CA:9832, V-B:MET:535:CE:9807, V-B:ALA:541:CB:9864, V-B:PRO:540:C:9853, H-B:ASP:366:OD2:8187, V-B:TYR:539:CE1:9847, V-B:PRO:540:N:9856, V-B:TYR:531:CE2:9765, H-A:TYR:484:OH:4348, V-B:TYR:531:CZ:9766, V-B:ASP:366:CG:8185, V-B:ASP:366:CB:8184, V-B:ILE:538:C:9830, H-B:ALA:541:N:9863, V-B:LEU:363:CA:8157, V-B:GLU:543:CG:9879, V-B:VAL:537:C:9822, V-B:LEU:363:CB:8159"]

$$$$
4bc_Grossjean_2025
     RDKit          3D

 26 28  0  0  0  0  0  0  0  0999 V2000
  123.9120  129.7440   66.9030 C   0  0  0  0  0  0  0  0  0  0  0  0
  123.7710  129.1850   65.6010 O   0  0  0  0  0  0  0  0  0  0  0  0
  124.7130  129.4810   64.6350 C   0  0  0  0  0  0  0  0  0  0  0  0
  124.2570  130.1670   63.5100 C   0  0  0  0  0  0  0  0  0  0  0  0
  125.1330  130.5090   62.4840 C   0  0  0  0  0  0  0  0  0  0  0  0
  126.4860  130.1750   62.5740 C   0  0  0  0  0  0  0  0  0  0  0  0
  127.2920  130.5480   61.4830 N   0  0  0  0  0  0  0  0  0  0  0  0
  128.5210  131.1180   61.4810 C   0  0  0  0  0  0  0  0  0  0  0  0
  129.1300  131.4430   62.5010 O   0  0  0  0  0  0  0  0  0  0  0  0
  129.1080  131.3450   60.1560 C   0  0  0  0  0  0  0  0  0  0  0  0
  128.1760  132.1560   58.9000 S   0  0  0  0  0  0  0  0  0  0  0  0
  129.4980  132.0180   57.7650 C   0  0  0  0  0  0  0  0  0  0  0  0
  129.4000  132.4910   56.5230 N   0  0  0  0  0  0  0  0  0  0  0  0
  130.4880  132.3240   55.7370 C   0  0  0  0  0  0  0  0  0  0  0  0
  130.3590  132.8750   54.3290 C   0  0  0  0  0  0  0  0  0  0  0  0
  131.6610  131.7010   56.1590 C   0  0  0  0  0  0  0  0  0  0  0  0
  131.7690  131.2000   57.4660 C   0  0  0  0  0  0  0  0  0  0  0  0
  133.0780  130.5200   57.8820 C   0  0  0  0  0  0  0  0  0  0  0  0
  133.5990  131.0320   58.9980 F   0  0  0  0  0  0  0  0  0  0  0  0
  132.8610  129.2230   58.1010 F   0  0  0  0  0  0  0  0  0  0  0  0
  133.9860  130.6590   56.9170 F   0  0  0  0  0  0  0  0  0  0  0  0
  130.6390  131.3620   58.3220 C   0  0  0  0  0  0  0  0  0  0  0  0
  130.3850  130.9910   59.6930 C   0  0  0  0  0  0  0  0  0  0  0  0
  131.3150  130.3490   60.4700 N   0  0  0  0  0  0  0  0  0  0  0  0
  126.9500  129.4730   63.6960 C   0  0  0  0  0  0  0  0  0  0  0  0
  126.0710  129.1320   64.7200 C   0  0  0  0  0  0  0  0  0  0  0  0
  1  2  1  0
  2  3  1  0
  3  4  2  0
  4  5  1  0
  5  6  2  0
  6  7  1  0
  7  8  1  0
  8  9  2  0
  8 10  1  0
 10 11  1  0
 11 12  1  0
 12 13  2  0
 13 14  1  0
 14 15  1  0
 14 16  2  0
 16 17  1  0
 17 18  1  0
 18 19  1  0
 18 20  1  0
 18 21  1  0
 17 22  2  0
 22 23  1  0
 23 24  1  0
  6 25  1  0
 25 26  2  0
 26  3  1  0
 23 10  2  0
 22 12  1  0
M  END
>  <Binding energies>  (49) 
[-6.48]

>  <Ligand effiencies>  (49) 
[-0.22344827586206897]

>  <Interactions>  (49) 
["V-A:ASP:366:CG:3213, V-A:ASP:366:CB:3212, V-A:TYR:531:CZ:4794, H-A:TYR:539:N:4870, V-A:TYR:531:CE2:4793, V-A:PRO:540:CA:4883, V-A:TYR:539:C:4867, V-A:PRO:540:N:4884, V-A:PRO:540:CB:4885, V-A:LEU:363:CD1:3189, H-A:GLU:543:OE1:4909, H-A:ASP:366:OD1:3214, V-A:LEU:363:CA:3185, V-A:ILE:538:CA:4860, V-A:ILE:538:CB:4862, V-A:ILE:538:CG2:4863, V-B:ARG:545:CZ:9898, V-B:TYR:484:CZ:9319, V-B:HIS:456:CE1:9042, V-A:ILE:538:C:4858, V-B:ARG:545:CD:9895, V-B:ARG:545:CG:9894, V-A:TYR:539:CD1:4873, V-B:GLY:454:CA:9021, V-A:ASN:362:C:3172, H-B:TYR:484:OH:9320, H-B:GLY:454:N:9022, H-B:ARG:545:NE:9896, H-B:ARG:545:NH1:9899, V-B:GLY:453:CA:9016, V-A:LEU:363:CB:3187, V-B:TYR:484:CE1:9317, V-A:LEU:363:CG:3188"]

$$$$
4bf_Grossjean_2025
     RDKit          3D

 24 26  0  0  0  0  0  0  0  0999 V2000
  129.9180  132.8730   54.4290 C   0  0  0  0  0  0  0  0  0  0  0  0
  130.1560  132.3340   55.8290 C   0  0  0  0  0  0  0  0  0  0  0  0
  131.3510  131.7020   56.1600 C   0  0  0  0  0  0  0  0  0  0  0  0
  131.5560  131.2050   57.4560 C   0  0  0  0  0  0  0  0  0  0  0  0
  132.8870  130.5150   57.7740 C   0  0  0  0  0  0  0  0  0  0  0  0
  133.5050  131.0360   58.8370 F   0  0  0  0  0  0  0  0  0  0  0  0
  132.6770  129.2230   58.0290 F   0  0  0  0  0  0  0  0  0  0  0  0
  133.7150  130.6300   56.7350 F   0  0  0  0  0  0  0  0  0  0  0  0
  130.4970  131.3770   58.3970 C   0  0  0  0  0  0  0  0  0  0  0  0
  130.3450  131.0080   59.7830 C   0  0  0  0  0  0  0  0  0  0  0  0
  131.3270  130.3570   60.4860 N   0  0  0  0  0  0  0  0  0  0  0  0
  129.1120  131.3760   60.3440 C   0  0  0  0  0  0  0  0  0  0  0  0
  128.6160  131.1310   61.7020 C   0  0  0  0  0  0  0  0  0  0  0  0
  129.2590  131.5080   62.6820 O   0  0  0  0  0  0  0  0  0  0  0  0
  127.4240  130.4900   61.7780 N   0  0  0  0  0  0  0  0  0  0  0  0
  126.7050  130.0670   62.9120 C   0  0  0  0  0  0  0  0  0  0  0  0
  127.1660  129.1500   63.8730 C   0  0  0  0  0  0  0  0  0  0  0  0
  126.3430  128.8020   64.9470 C   0  0  0  0  0  0  0  0  0  0  0  0
  125.0740  129.3770   65.0290 C   0  0  0  0  0  0  0  0  0  0  0  0
  124.6030  130.2570   64.1110 N   0  0  0  0  0  0  0  0  0  0  0  0
  125.4150  130.5860   63.0730 C   0  0  0  0  0  0  0  0  0  0  0  0
  128.0930  132.1930   59.1610 S   0  0  0  0  0  0  0  0  0  0  0  0
  129.3230  132.0430   57.9280 C   0  0  0  0  0  0  0  0  0  0  0  0
  129.1330  132.5140   56.6960 N   0  0  0  0  0  0  0  0  0  0  0  0
  1  2  1  0
  2  3  2  0
  3  4  1  0
  4  5  1  0
  5  6  1  0
  5  7  1  0
  5  8  1  0
  4  9  2  0
  9 10  1  0
 10 11  1  0
 10 12  2  0
 12 13  1  0
 13 14  2  0
 13 15  1  0
 15 16  1  0
 16 17  2  0
 17 18  1  0
 18 19  2  0
 19 20  1  0
 20 21  2  0
 12 22  1  0
 22 23  1  0
 23 24  2  0
 24  2  1  0
 23  9  1  0
 21 16  1  0
M  END
>  <Binding energies>  (50) 
[-6.48]

>  <Ligand effiencies>  (50) 
[-0.24000000000000002]

>  <Interactions>  (50) 
["V-B:GLU:543:CD:9880, V-A:ASP:366:CG:3213, V-A:ASP:366:CB:3212, V-A:TYR:531:CZ:4794, V-A:TYR:531:CE2:4793, V-A:PRO:540:CA:4883, V-A:TYR:539:C:4867, V-A:PRO:540:N:4884, V-A:PRO:540:CB:4885, V-A:LEU:363:CD1:3189, H-A:GLU:543:OE1:4909, H-A:ASP:366:OD1:3214, V-A:LEU:363:CA:3185, V-A:ILE:538:CA:4860, V-A:ILE:538:CB:4862, V-A:ILE:538:CG2:4863, V-B:ARG:545:CZ:9898, V-A:ILE:538:C:4858, V-A:TYR:539:CD2:4874, V-A:TYR:539:CD1:4873, H-B:TYR:484:OH:9320, H-B:GLY:454:N:9022"]

$$$$
4bh_Grossjean_2025
     RDKit          3D

 31 33  0  0  0  0  0  0  0  0999 V2000
  133.8300  130.6850   57.5510 C   0  0  0  0  0  0  0  0  0  0  0  0
  132.9430  131.7530   57.2380 O   0  0  0  0  0  0  0  0  0  0  0  0
  131.6470  131.7230   57.7200 C   0  0  0  0  0  0  0  0  0  0  0  0
  131.2870  131.1900   58.9680 C   0  0  0  0  0  0  0  0  0  0  0  0
  129.9570  131.1900   59.3900 C   0  0  0  0  0  0  0  0  0  0  0  0
  129.5920  130.6490   60.7670 C   0  0  0  0  0  0  0  0  0  0  0  0
  129.7750  129.2030   60.8930 N   0  0  0  0  0  0  0  0  0  0  0  0
  128.9370  128.2630   60.4090 C   0  0  0  0  0  0  0  0  0  0  0  0
  127.8860  128.5470   59.8310 O   0  0  0  0  0  0  0  0  0  0  0  0
  129.3230  126.8720   60.6480 C   0  0  0  0  0  0  0  0  0  0  0  0
  128.1120  125.5960   60.5750 S   0  0  0  0  0  0  0  0  0  0  0  0
  129.3020  124.3850   60.9910 C   0  0  0  0  0  0  0  0  0  0  0  0
  128.9750  123.0970   61.0980 N   0  0  0  0  0  0  0  0  0  0  0  0
  129.9830  122.2540   61.4230 C   0  0  0  0  0  0  0  0  0  0  0  0
  129.5880  120.7930   61.5420 C   0  0  0  0  0  0  0  0  0  0  0  0
  131.2960  122.6620   61.6390 C   0  0  0  0  0  0  0  0  0  0  0  0
  131.6460  124.0170   61.5290 C   0  0  0  0  0  0  0  0  0  0  0  0
  133.1050  124.4190   61.7730 C   0  0  0  0  0  0  0  0  0  0  0  0
  133.2420  125.3320   62.7370 F   0  0  0  0  0  0  0  0  0  0  0  0
  133.8130  123.3490   62.1340 F   0  0  0  0  0  0  0  0  0  0  0  0
  133.6230  124.9340   60.6580 F   0  0  0  0  0  0  0  0  0  0  0  0
  130.6070  124.9340   61.1910 C   0  0  0  0  0  0  0  0  0  0  0  0
  130.5830  126.3630   61.0000 C   0  0  0  0  0  0  0  0  0  0  0  0
  131.6960  127.1510   61.1430 N   0  0  0  0  0  0  0  0  0  0  0  0
  128.9770  131.7550   58.5720 C   0  0  0  0  0  0  0  0  0  0  0  0
  129.3060  132.2880   57.3160 C   0  0  0  0  0  0  0  0  0  0  0  0
  128.3860  132.8490   56.4490 O   0  0  0  0  0  0  0  0  0  0  0  0
  127.9980  132.1310   55.2830 C   0  0  0  0  0  0  0  0  0  0  0  0
  130.6450  132.2600   56.9000 C   0  0  0  0  0  0  0  0  0  0  0  0
  130.9850  132.7960   55.6790 O   0  0  0  0  0  0  0  0  0  0  0  0
  131.3500  131.8280   54.7060 C   0  0  0  0  0  0  0  0  0  0  0  0
  1  2  1  0
  2  3  1  0
  3  4  2  0
  4  5  1  0
  5  6  1  0
  6  7  1  0
  7  8  1  0
  8  9  2  0
  8 10  1  0
 10 11  1  0
 11 12  1  0
 12 13  2  0
 13 14  1  0
 14 15  1  0
 14 16  2  0
 16 17  1  0
 17 18  1  0
 18 19  1  0
 18 20  1  0
 18 21  1  0
 17 22  2  0
 22 23  1  0
 23 24  1  0
  5 25  2  0
 25 26  1  0
 26 27  1  0
 27 28  1  0
 26 29  2  0
 29 30  1  0
 30 31  1  0
 29  3  1  0
 23 10  2  0
 22 12  1  0
M  END
>  <Binding energies>  (51) 
[-5.66]

>  <Ligand effiencies>  (51) 
[-0.16647058823529412]

>  <Interactions>  (51) 
["V-B:ALA:541:CB:9864, V-A:GLY:453:C:4042, V-A:ASP:366:CG:3213, V-A:LEU:475:CD2:4259, V-A:ILE:369:CD1:3239, V-A:GLY:454:CA:4049, V-A:ASP:366:CB:3212, V-A:TYR:539:CE1:4875, V-A:TYR:531:CZ:4794, H-A:TYR:539:N:4870, V-A:TYR:539:CZ:4877, V-A:TYR:531:CE2:4793, V-A:PRO:540:CA:4883, V-A:TYR:539:C:4867, V-A:PRO:540:N:4884, V-A:PRO:540:CB:4885, V-A:TYR:539:CE2:4876, V-A:LEU:363:CD1:3189, H-A:GLU:543:OE1:4909, H-A:GLU:543:OE2:4910, V-A:ARG:545:CZ:4926, H-A:ASP:366:OD1:3214, V-A:LEU:363:CA:3185, V-A:ILE:538:CB:4862, V-A:ILE:538:CG2:4863, V-A:TYR:539:CD2:4874, V-A:TYR:539:CG:4872, V-A:TYR:539:CD1:4873, H-A:ASP:366:OD2:3215, V-A:LEU:363:CB:3187"]

$$$$
4bi_Grossjean_2025
     RDKit          3D

 23 25  0  0  0  0  0  0  0  0999 V2000
  129.4350  132.8180   55.4420 C   0  0  0  0  0  0  0  0  0  0  0  0
  129.4620  132.3950   56.9000 C   0  0  0  0  0  0  0  0  0  0  0  0
  130.6260  131.8970   57.4800 C   0  0  0  0  0  0  0  0  0  0  0  0
  130.6380  131.5130   58.8310 C   0  0  0  0  0  0  0  0  0  0  0  0
  131.9440  130.9780   59.4280 C   0  0  0  0  0  0  0  0  0  0  0  0
  132.4270  131.7500   60.4040 F   0  0  0  0  0  0  0  0  0  0  0  0
  131.7420  129.7650   59.9420 F   0  0  0  0  0  0  0  0  0  0  0  0
  132.8780  130.9040   58.4780 F   0  0  0  0  0  0  0  0  0  0  0  0
  129.4200  131.6550   59.5600 C   0  0  0  0  0  0  0  0  0  0  0  0
  129.0560  131.3700   60.9270 C   0  0  0  0  0  0  0  0  0  0  0  0
  129.9410  130.8490   61.8370 N   0  0  0  0  0  0  0  0  0  0  0  0
  127.7230  131.6800   61.2430 C   0  0  0  0  0  0  0  0  0  0  0  0
  127.0220  131.5080   62.5180 C   0  0  0  0  0  0  0  0  0  0  0  0
  127.0890  132.3720   63.3950 O   0  0  0  0  0  0  0  0  0  0  0  0
  126.3040  130.3630   62.6390 N   0  0  0  0  0  0  0  0  0  0  0  0
  125.5410  129.9540   63.7240 C   0  0  0  0  0  0  0  0  0  0  0  0
  126.0390  129.1400   64.7410 C   0  0  0  0  0  0  0  0  0  0  0  0
  124.9860  128.9680   65.6110 C   0  0  0  0  0  0  0  0  0  0  0  0
  123.9100  129.6440   65.1410 O   0  0  0  0  0  0  0  0  0  0  0  0
  124.2750  130.2640   63.9440 N   0  0  0  0  0  0  0  0  0  0  0  0
  126.8670  132.3140   59.8390 S   0  0  0  0  0  0  0  0  0  0  0  0
  128.2990  132.1790   58.8470 C   0  0  0  0  0  0  0  0  0  0  0  0
  128.2940  132.5430   57.5650 N   0  0  0  0  0  0  0  0  0  0  0  0
  1  2  1  0
  2  3  2  0
  3  4  1  0
  4  5  1  0
  5  6  1  0
  5  7  1  0
  5  8  1  0
  4  9  2  0
  9 10  1  0
 10 11  1  0
 10 12  2  0
 12 13  1  0
 13 14  2  0
 13 15  1  0
 15 16  1  0
 16 17  1  0
 17 18  2  0
 18 19  1  0
 19 20  1  0
 12 21  1  0
 21 22  1  0
 22 23  2  0
 23  2  1  0
 22  9  1  0
 20 16  2  0
M  END
>  <Binding energies>  (52) 
[-6.08]

>  <Ligand effiencies>  (52) 
[-0.23384615384615384]

>  <Interactions>  (52) 
["V-A:ASP:366:CG:3213, V-A:ASP:366:CB:3212, V-A:TYR:539:CE1:4875, V-A:PRO:540:CA:4883, V-A:TYR:539:C:4867, V-A:PRO:540:N:4884, V-A:PRO:540:CB:4885, V-A:TYR:539:CE2:4876, V-A:GLU:543:CD:4908, H-A:GLU:543:OE1:4909, V-A:GLU:543:CG:4907, V-A:ILE:538:CA:4860, V-B:ARG:545:CZ:9898, V-A:ILE:538:C:4858, V-A:TYR:539:CD2:4874, V-B:ARG:545:CD:9895, V-A:PRO:540:C:4881, V-A:TYR:539:CA:4869, V-B:ARG:545:CG:9894, V-A:TYR:539:CG:4872, V-A:TYR:539:CD1:4873, H-B:TYR:484:OH:9320, H-B:GLY:454:N:9022, H-B:ARG:545:NE:9896, H-B:ARG:545:NH1:9899"]

$$$$
4bj_Grossjean_2025
     RDKit          3D

 23 25  0  0  0  0  0  0  0  0999 V2000
  129.8320  132.8720   54.5200 C   0  0  0  0  0  0  0  0  0  0  0  0
  130.1630  132.3700   55.9130 C   0  0  0  0  0  0  0  0  0  0  0  0
  131.3900  131.7710   56.1870 C   0  0  0  0  0  0  0  0  0  0  0  0
  131.6800  131.3050   57.4790 C   0  0  0  0  0  0  0  0  0  0  0  0
  133.0440  130.6510   57.7320 C   0  0  0  0  0  0  0  0  0  0  0  0
  133.8510  130.7010   56.6710 F   0  0  0  0  0  0  0  0  0  0  0  0
  133.6630  131.2730   58.7360 F   0  0  0  0  0  0  0  0  0  0  0  0
  132.8740  129.3670   58.0460 F   0  0  0  0  0  0  0  0  0  0  0  0
  130.6740  131.4760   58.4760 C   0  0  0  0  0  0  0  0  0  0  0  0
  130.6090  131.1300   59.8750 C   0  0  0  0  0  0  0  0  0  0  0  0
  131.6380  130.5020   60.5320 N   0  0  0  0  0  0  0  0  0  0  0  0
  129.4080  131.4980   60.5020 C   0  0  0  0  0  0  0  0  0  0  0  0
  129.0060  131.2920   61.8960 C   0  0  0  0  0  0  0  0  0  0  0  0
  129.3270  132.0990   62.7710 O   0  0  0  0  0  0  0  0  0  0  0  0
  128.2610  130.1840   62.1300 N   0  0  0  0  0  0  0  0  0  0  0  0
  127.7470  129.7670   63.3500 C   0  0  0  0  0  0  0  0  0  0  0  0
  128.3630  129.7110   64.5100 N   0  0  0  0  0  0  0  0  0  0  0  0
  127.5650  129.2710   65.4620 C   0  0  0  0  0  0  0  0  0  0  0  0
  126.2650  128.9560   65.0800 C   0  0  0  0  0  0  0  0  0  0  0  0
  126.0890  129.2550   63.3760 S   0  0  0  0  0  0  0  0  0  0  0  0
  128.3050  132.2690   59.3660 S   0  0  0  0  0  0  0  0  0  0  0  0
  129.4610  132.1090   58.0650 C   0  0  0  0  0  0  0  0  0  0  0  0
  129.1890  132.5480   56.8360 N   0  0  0  0  0  0  0  0  0  0  0  0
  1  2  1  0
  2  3  2  0
  3  4  1  0
  4  5  1  0
  5  6  1  0
  5  7  1  0
  5  8  1  0
  4  9  2  0
  9 10  1  0
 10 11  1  0
 10 12  2  0
 12 13  1  0
 13 14  2  0
 13 15  1  0
 15 16  1  0
 16 17  2  0
 17 18  1  0
 18 19  2  0
 19 20  1  0
 12 21  1  0
 21 22  1  0
 22 23  2  0
 23  2  1  0
 22  9  1  0
 20 16  1  0
M  END
>  <Binding energies>  (53) 
[-5.79]

>  <Ligand effiencies>  (53) 
[-0.2226923076923077]

>  <Interactions>  (53) 
["V-A:ASP:366:CG:3213, V-A:ASP:366:CB:3212, V-A:TYR:531:CZ:4794, V-A:TYR:531:CE2:4793, V-A:PRO:540:CA:4883, V-A:TYR:539:C:4867, V-A:PRO:540:N:4884, V-A:PRO:540:CB:4885, V-A:LEU:363:CD1:3189, V-A:GLU:543:CD:4908, H-A:GLU:543:OE1:4909, H-A:ALA:541:N:4891, V-A:ALA:541:CB:4892, H-A:ASP:366:OD1:3214, V-A:LEU:363:CA:3185, V-A:GLU:543:CG:4907, V-A:ILE:538:CA:4860, V-A:ILE:538:CB:4862, V-A:ILE:538:CG2:4863, V-B:TYR:484:CZ:9319, V-A:ILE:538:C:4858, V-A:TYR:539:CD2:4874, V-A:ASN:362:C:3172, H-B:TYR:484:OH:9320, V-A:LEU:363:CB:3187, V-A:LEU:363:CG:3188"]

$$$$
4bk_Grossjean_2025
     RDKit          3D

 28 29  0  0  0  0  0  0  0  0999 V2000
  125.8630  129.8740   55.7650 C   0  0  0  0  0  0  0  0  0  0  0  0
  126.7030  129.3270   54.7600 O   0  0  0  0  0  0  0  0  0  0  0  0
  128.0190  129.0430   55.2160 C   0  0  0  0  0  0  0  0  0  0  0  0
  129.0330  129.8370   54.3830 C   0  0  0  0  0  0  0  0  0  0  0  0
  128.3700  130.9140   53.7340 O   0  0  0  0  0  0  0  0  0  0  0  0
  128.4750  132.1520   54.4250 C   0  0  0  0  0  0  0  0  0  0  0  0
  129.9100  132.6830   54.3050 C   0  0  0  0  0  0  0  0  0  0  0  0
  130.6020  132.4430   55.5220 O   0  0  0  0  0  0  0  0  0  0  0  0
  131.9540  132.8870   55.5120 C   0  0  0  0  0  0  0  0  0  0  0  0
  132.7870  132.0060   56.4590 C   0  0  0  0  0  0  0  0  0  0  0  0
  132.1220  130.7600   56.8410 N   0  0  0  0  0  0  0  0  0  0  0  0
  131.9260  130.3370   58.1070 C   0  0  0  0  0  0  0  0  0  0  0  0
  132.2860  130.9930   59.0850 O   0  0  0  0  0  0  0  0  0  0  0  0
  131.2490  129.0480   58.2580 C   0  0  0  0  0  0  0  0  0  0  0  0
  130.6630  128.1860   56.8370 S   0  0  0  0  0  0  0  0  0  0  0  0
  130.0780  126.8680   57.8250 C   0  0  0  0  0  0  0  0  0  0  0  0
  129.4730  125.8100   57.2850 N   0  0  0  0  0  0  0  0  0  0  0  0
  129.0650  124.8530   58.1510 C   0  0  0  0  0  0  0  0  0  0  0  0
  128.3820  123.6560   57.5140 C   0  0  0  0  0  0  0  0  0  0  0  0
  129.2450  124.9290   59.5290 C   0  0  0  0  0  0  0  0  0  0  0  0
  129.8790  126.0410   60.1040 C   0  0  0  0  0  0  0  0  0  0  0  0
  130.0510  126.0810   61.6260 C   0  0  0  0  0  0  0  0  0  0  0  0
  131.3170  126.2710   62.0040 F   0  0  0  0  0  0  0  0  0  0  0  0
  129.3280  127.0780   62.1360 F   0  0  0  0  0  0  0  0  0  0  0  0
  129.6450  124.9280   62.1570 F   0  0  0  0  0  0  0  0  0  0  0  0
  130.3230  127.0690   59.2190 C   0  0  0  0  0  0  0  0  0  0  0  0
  131.0000  128.3240   59.4330 C   0  0  0  0  0  0  0  0  0  0  0  0
  131.3620  128.7680   60.6790 N   0  0  0  0  0  0  0  0  0  0  0  0
  1  2  1  0
  2  3  1  0
  3  4  1  0
  4  5  1  0
  5  6  1  0
  6  7  1  0
  7  8  1  0
  8  9  1  0
  9 10  1  0
 10 11  1  0
 11 12  1  0
 12 13  2  0
 12 14  1  0
 14 15  1  0
 15 16  1  0
 16 17  2  0
 17 18  1  0
 18 19  1  0
 18 20  2  0
 20 21  1  0
 21 22  1  0
 22 23  1  0
 22 24  1  0
 22 25  1  0
 21 26  2  0
 26 27  1  0
 27 28  1  0
 27 14  2  0
 26 16  1  0
M  END
>  <Binding energies>  (54) 
[-4.86]

>  <Ligand effiencies>  (54) 
[-0.15677419354838712]

>  <Interactions>  (54) 
["V-B:GLU:543:CD:9880, V-B:TYR:539:CE2:9848, V-B:TYR:539:CD2:9846, V-B:MET:535:CE:9807, V-B:TYR:539:CZ:9849, V-A:ASP:366:CG:3213, V-B:TYR:531:CE1:9764, H-A:TYR:539:N:4870, V-A:TYR:539:CZ:4877, V-A:PRO:540:CA:4883, V-A:PRO:540:N:4884, V-A:PRO:540:CB:4885, V-A:MET:535:CE:4835, V-A:TYR:539:CE2:4876, H-B:LYS:534:NZ:9795, V-A:LEU:363:CD1:3189, V-A:GLU:543:CD:4908, H-A:GLU:543:OE1:4909, H-A:ASP:366:OD1:3214, V-A:PRO:540:CD:4887, V-A:ILE:538:CA:4860, V-A:ILE:538:CB:4862, V-A:ILE:538:CG2:4863, H-A:TYR:531:OH:4795, V-A:ILE:538:C:4858, V-A:TYR:539:CD2:4874, V-A:PRO:540:CG:4886"]

$$$$
4cd_Grossjean_2025
     RDKit          3D

 29 32  0  0  0  0  0  0  0  0999 V2000
  131.5840  126.6210   61.8530 N   0  0  0  0  0  0  0  0  0  0  0  0
  130.6310  125.6400   61.7510 C   0  0  0  0  0  0  0  0  0  0  0  0
  129.2540  125.8890   61.8670 C   0  0  0  0  0  0  0  0  0  0  0  0
  128.5750  127.1630   62.1240 C   0  0  0  0  0  0  0  0  0  0  0  0
  129.1220  128.2320   61.8530 O   0  0  0  0  0  0  0  0  0  0  0  0
  127.3340  127.0610   62.6590 N   0  0  0  0  0  0  0  0  0  0  0  0
  126.4480  128.0750   63.0670 C   0  0  0  0  0  0  0  0  0  0  0  0
  125.8290  128.7970   62.0430 C   0  0  0  0  0  0  0  0  0  0  0  0
  124.9260  129.8120   62.3450 C   0  0  0  0  0  0  0  0  0  0  0  0
  124.6340  130.1020   63.6750 C   0  0  0  0  0  0  0  0  0  0  0  0
  125.2320  129.3810   64.7060 C   0  0  0  0  0  0  0  0  0  0  0  0
  126.1370  128.3650   64.4070 C   0  0  0  0  0  0  0  0  0  0  0  0
  128.3210  124.4060   61.6740 S   0  0  0  0  0  0  0  0  0  0  0  0
  129.7770  123.4660   61.4500 C   0  0  0  0  0  0  0  0  0  0  0  0
  129.7300  122.1520   61.2440 N   0  0  0  0  0  0  0  0  0  0  0  0
  130.9150  121.5040   61.0940 C   0  0  0  0  0  0  0  0  0  0  0  0
  130.8310  120.0230   60.8670 C   0  0  0  0  0  0  0  0  0  0  0  0
  129.8440  119.2530   61.5040 C   0  0  0  0  0  0  0  0  0  0  0  0
  129.7590  117.8790   61.2970 C   0  0  0  0  0  0  0  0  0  0  0  0
  130.6640  117.2530   60.4450 C   0  0  0  0  0  0  0  0  0  0  0  0
  131.6480  117.9920   59.7990 C   0  0  0  0  0  0  0  0  0  0  0  0
  131.7280  119.3650   60.0070 C   0  0  0  0  0  0  0  0  0  0  0  0
  132.1380  122.1810   61.1320 C   0  0  0  0  0  0  0  0  0  0  0  0
  132.1980  123.5680   61.3450 C   0  0  0  0  0  0  0  0  0  0  0  0
  133.5720  124.2460   61.3790 C   0  0  0  0  0  0  0  0  0  0  0  0
  133.7100  125.1010   62.3950 F   0  0  0  0  0  0  0  0  0  0  0  0
  134.5280  123.3250   61.5000 F   0  0  0  0  0  0  0  0  0  0  0  0
  133.7640  124.9330   60.2520 F   0  0  0  0  0  0  0  0  0  0  0  0
  130.9620  124.2550   61.5150 C   0  0  0  0  0  0  0  0  0  0  0  0
  1  2  1  0
  2  3  2  0
  3  4  1  0
  4  5  2  0
  4  6  1  0
  6  7  1  0
  7  8  2  0
  8  9  1  0
  9 10  2  0
 10 11  1  0
 11 12  2  0
  3 13  1  0
 13 14  1  0
 14 15  2  0
 15 16  1  0
 16 17  1  0
 17 18  2  0
 18 19  1  0
 19 20  2  0
 20 21  1  0
 21 22  2  0
 16 23  2  0
 23 24  1  0
 24 25  1  0
 25 26  1  0
 25 27  1  0
 25 28  1  0
 24 29  2  0
 29  2  1  0
 12  7  1  0
 29 14  1  0
 22 17  1  0
M  END
>  <Binding energies>  (55) 
[-7.23]

>  <Ligand effiencies>  (55) 
[-0.2259375]

>  <Interactions>  (55) 
["V-B:GLU:543:CD:9880, H-B:GLU:543:OE2:9882, H-B:GLU:543:OE1:9881, V-B:TYR:539:CE2:9848, V-B:TYR:539:CD2:9846, V-B:ALA:541:CB:9864, V-A:GLY:453:C:4042, V-A:SER:385:CB:3409, V-A:PRO:482:CB:4326, V-A:LEU:475:CD1:4258, V-A:ASP:366:CA:3210, V-A:ASP:366:CG:3213, V-A:LEU:475:CD2:4259, V-A:ILE:369:CD1:3239, V-A:GLY:454:CA:4049, V-A:LEU:475:CG:4257, V-A:ASP:366:CB:3212, V-A:PRO:482:CG:4327, V-B:ASP:366:CG:8185, V-A:GLU:543:CD:4908, H-A:GLU:543:OE1:4909, H-A:GLU:543:OE2:4910, V-A:ARG:545:CZ:4926, H-A:ASP:366:OD1:3214, V-B:TYR:539:CB:9843, V-B:ARG:545:CZ:9898, V-A:ILE:369:CG1:3238, H-A:ASP:366:OD2:3215, V-A:GLY:453:CA:4044"]

$$$$
4cg_Grossjean_2025
     RDKit          3D

 30 33  0  0  0  0  0  0  0  0999 V2000
  131.0510  126.5880   62.4410 N   0  0  0  0  0  0  0  0  0  0  0  0
  130.1740  125.5680   62.1770 C   0  0  0  0  0  0  0  0  0  0  0  0
  128.7820  125.7340   62.1740 C   0  0  0  0  0  0  0  0  0  0  0  0
  128.0090  126.9570   62.3880 C   0  0  0  0  0  0  0  0  0  0  0  0
  126.8240  127.0350   62.0540 O   0  0  0  0  0  0  0  0  0  0  0  0
  128.6800  127.9950   62.9300 N   0  0  0  0  0  0  0  0  0  0  0  0
  128.1060  129.3000   63.2510 C   0  0  0  0  0  0  0  0  0  0  0  0
  126.8540  129.2160   64.1160 C   0  0  0  0  0  0  0  0  0  0  0  0
  126.9550  128.8000   65.4460 C   0  0  0  0  0  0  0  0  0  0  0  0
  125.8180  128.7510   66.2490 C   0  0  0  0  0  0  0  0  0  0  0  0
  124.5850  129.1280   65.7210 C   0  0  0  0  0  0  0  0  0  0  0  0
  124.4800  129.5600   64.4000 C   0  0  0  0  0  0  0  0  0  0  0  0
  125.6170  129.6100   63.5980 C   0  0  0  0  0  0  0  0  0  0  0  0
  127.9560  124.2300   61.7770 S   0  0  0  0  0  0  0  0  0  0  0  0
  129.4790  123.3830   61.6400 C   0  0  0  0  0  0  0  0  0  0  0  0
  129.5280  122.0890   61.3340 N   0  0  0  0  0  0  0  0  0  0  0  0
  130.7570  121.5160   61.2440 C   0  0  0  0  0  0  0  0  0  0  0  0
  130.7790  120.0540   60.8990 C   0  0  0  0  0  0  0  0  0  0  0  0
  129.8500  119.1660   61.4650 C   0  0  0  0  0  0  0  0  0  0  0  0
  129.8660  117.8110   61.1500 C   0  0  0  0  0  0  0  0  0  0  0  0
  130.8180  117.3200   60.2600 C   0  0  0  0  0  0  0  0  0  0  0  0
  131.7510  118.1770   59.6870 C   0  0  0  0  0  0  0  0  0  0  0  0
  131.7310  119.5320   60.0060 C   0  0  0  0  0  0  0  0  0  0  0  0
  131.9290  122.2430   61.4810 C   0  0  0  0  0  0  0  0  0  0  0  0
  131.8890  123.6090   61.8050 C   0  0  0  0  0  0  0  0  0  0  0  0
  133.2110  124.3450   62.0530 C   0  0  0  0  0  0  0  0  0  0  0  0
  134.2830  123.5780   61.8460 F   0  0  0  0  0  0  0  0  0  0  0  0
  133.3040  125.3920   61.2330 F   0  0  0  0  0  0  0  0  0  0  0  0
  133.2610  124.7690   63.3140 F   0  0  0  0  0  0  0  0  0  0  0  0
  130.6050  124.2220   61.8870 C   0  0  0  0  0  0  0  0  0  0  0  0
  1  2  1  0
  2  3  2  0
  3  4  1  0
  4  5  2  0
  4  6  1  0
  6  7  1  0
  7  8  1  0
  8  9  2  0
  9 10  1  0
 10 11  2  0
 11 12  1  0
 12 13  2  0
  3 14  1  0
 14 15  1  0
 15 16  2  0
 16 17  1  0
 17 18  1  0
 18 19  2  0
 19 20  1  0
 20 21  2  0
 21 22  1  0
 22 23  2  0
 17 24  2  0
 24 25  1  0
 25 26  1  0
 26 27  1  0
 26 28  1  0
 26 29  1  0
 25 30  2  0
 30  2  1  0
 13  8  1  0
 30 15  1  0
 23 18  1  0
M  END
>  <Binding energies>  (56) 
[-7.72]

>  <Ligand effiencies>  (56) 
[-0.23393939393939392]

>  <Interactions>  (56) 
["V-B:GLU:543:CD:9880, H-B:GLU:543:OE2:9882, V-B:TYR:539:CE2:9848, V-B:TYR:539:CD2:9846, V-B:ALA:541:CB:9864, V-A:GLY:453:C:4042, V-A:SER:385:CB:3409, V-A:PRO:482:CB:4326, V-A:LEU:475:CD1:4258, V-A:ASP:366:CG:3213, V-A:LEU:475:CD2:4259, V-A:ILE:369:CD1:3239, V-A:GLY:454:CA:4049, V-A:LEU:475:CG:4257, V-A:PRO:482:CG:4327, H-B:ARG:545:NH2:9900, V-A:GLU:543:CD:4908, H-A:GLU:543:OE1:4909, H-A:GLU:543:OE2:4910, V-A:ARG:545:CZ:4926, H-A:ASP:366:OD1:3214, V-A:GLU:543:CG:4907, V-B:TYR:539:CB:9843, V-B:ARG:545:CZ:9898, V-B:TYR:484:CZ:9319, V-B:HIS:456:CE1:9042, V-B:ARG:545:CD:9895, V-B:ARG:545:CG:9894, V-A:GLY:453:CA:4044"]

$$$$
4ch_Grossjean_2025
     RDKit          3D

 36 39  0  0  0  0  0  0  0  0999 V2000
  124.0260  132.2510   62.4540 C   0  0  0  0  0  0  0  0  0  0  0  0
  123.8100  131.0350   63.1630 O   0  0  0  0  0  0  0  0  0  0  0  0
  124.8960  130.2610   63.5280 C   0  0  0  0  0  0  0  0  0  0  0  0
  126.1090  130.2280   62.8210 C   0  0  0  0  0  0  0  0  0  0  0  0
  127.1650  129.4230   63.2490 C   0  0  0  0  0  0  0  0  0  0  0  0
  128.4640  129.3800   62.4530 C   0  0  0  0  0  0  0  0  0  0  0  0
  128.9870  128.0310   62.2290 N   0  0  0  0  0  0  0  0  0  0  0  0
  128.3190  127.0200   61.6350 C   0  0  0  0  0  0  0  0  0  0  0  0
  127.1770  127.1520   61.1870 O   0  0  0  0  0  0  0  0  0  0  0  0
  129.0440  125.7540   61.5170 C   0  0  0  0  0  0  0  0  0  0  0  0
  128.1610  124.2520   61.2640 S   0  0  0  0  0  0  0  0  0  0  0  0
  129.6480  123.3360   61.2110 C   0  0  0  0  0  0  0  0  0  0  0  0
  129.6460  122.0180   61.0350 N   0  0  0  0  0  0  0  0  0  0  0  0
  130.8510  121.3920   61.0020 C   0  0  0  0  0  0  0  0  0  0  0  0
  130.8140  119.9030   60.8090 C   0  0  0  0  0  0  0  0  0  0  0  0
  129.8510  119.1170   61.4630 C   0  0  0  0  0  0  0  0  0  0  0  0
  129.8110  117.7360   61.2890 C   0  0  0  0  0  0  0  0  0  0  0  0
  130.7380  117.1190   60.4560 C   0  0  0  0  0  0  0  0  0  0  0  0
  131.7050  117.8730   59.7990 C   0  0  0  0  0  0  0  0  0  0  0  0
  131.7420  119.2530   59.9780 C   0  0  0  0  0  0  0  0  0  0  0  0
  132.0510  122.0920   61.1630 C   0  0  0  0  0  0  0  0  0  0  0  0
  132.0660  123.4840   61.3510 C   0  0  0  0  0  0  0  0  0  0  0  0
  133.4160  124.1880   61.5200 C   0  0  0  0  0  0  0  0  0  0  0  0
  133.7270  124.9810   60.4920 F   0  0  0  0  0  0  0  0  0  0  0  0
  133.3950  124.9460   62.6160 F   0  0  0  0  0  0  0  0  0  0  0  0
  134.3870  123.2820   61.6320 F   0  0  0  0  0  0  0  0  0  0  0  0
  130.8080  124.1510   61.3740 C   0  0  0  0  0  0  0  0  0  0  0  0
  130.4300  125.5340   61.5350 C   0  0  0  0  0  0  0  0  0  0  0  0
  131.3470  126.5410   61.7020 N   0  0  0  0  0  0  0  0  0  0  0  0
  127.0080  128.6270   64.3840 C   0  0  0  0  0  0  0  0  0  0  0  0
  125.8050  128.6390   65.1100 C   0  0  0  0  0  0  0  0  0  0  0  0
  125.5810  127.8780   66.2430 O   0  0  0  0  0  0  0  0  0  0  0  0
  126.6580  127.6240   67.1390 C   0  0  0  0  0  0  0  0  0  0  0  0
  124.7590  129.4650   64.6740 C   0  0  0  0  0  0  0  0  0  0  0  0
  123.5730  129.4750   65.3660 O   0  0  0  0  0  0  0  0  0  0  0  0
  123.7010  129.8480   66.7310 C   0  0  0  0  0  0  0  0  0  0  0  0
  1  2  1  0
  2  3  1  0
  3  4  2  0
  4  5  1  0
  5  6  1  0
  6  7  1  0
  7  8  1  0
  8  9  2  0
  8 10  1  0
 10 11  1  0
 11 12  1  0
 12 13  2  0
 13 14  1  0
 14 15  1  0
 15 16  2  0
 16 17  1  0
 17 18  2  0
 18 19  1  0
 19 20  2  0
 14 21  2  0
 21 22  1  0
 22 23  1  0
 23 24  1  0
 23 25  1  0
 23 26  1  0
 22 27  2  0
 27 28  1  0
 28 29  1  0
  5 30  2  0
 30 31  1  0
 31 32  1  0
 32 33  1  0
 31 34  2  0
 34 35  1  0
 35 36  1  0
 34  3  1  0
 28 10  2  0
 27 12  1  0
 20 15  1  0
M  END
>  <Binding energies>  (57) 
[-7.82]

>  <Ligand effiencies>  (57) 
[-0.20051282051282052]

>  <Interactions>  (57) 
["V-B:GLU:543:CD:9880, V-B:TYR:539:CE2:9848, V-B:TYR:539:CD2:9846, V-B:ALA:541:CB:9864, V-A:GLY:453:C:4042, V-A:SER:385:CB:3409, V-A:PRO:482:CB:4326, V-A:LEU:475:CD1:4258, V-A:ASP:366:CA:3210, V-A:ASP:366:CG:3213, V-A:LEU:475:CD2:4259, V-A:ILE:369:CD1:3239, V-A:GLY:454:CA:4049, V-A:LEU:475:CG:4257, V-A:ASP:366:CB:3212, V-A:PRO:482:CG:4327, V-A:GLU:543:CD:4908, H-A:GLU:543:OE1:4909, H-A:GLU:543:OE2:4910, V-A:ARG:545:CZ:4926, H-A:ASP:366:OD1:3214, V-B:LEU:475:CD2:9231, V-B:GLU:543:CB:9878, V-B:ARG:545:CZ:9898, V-B:TYR:484:CZ:9319, V-B:HIS:456:CE1:9042, V-B:ILE:369:CD1:8211, V-B:ARG:545:CD:9895, V-B:ARG:545:CG:9894, V-B:GLY:454:CA:9021, H-B:TYR:484:OH:9320, H-A:ASP:366:OD2:3215, V-A:GLY:453:CA:4044, H-B:GLY:454:N:9022, H-B:ARG:545:NE:9896, V-B:GLY:453:C:9014, H-B:ARG:545:NH1:9899, V-B:GLY:453:CA:9016, V-B:TYR:484:CE1:9317"]

$$$$
4cj_Grossjean_2025
     RDKit          3D

 28 31  0  0  0  0  0  0  0  0999 V2000
  131.4420  126.6130   61.9530 N   0  0  0  0  0  0  0  0  0  0  0  0
  130.4920  125.6300   61.8400 C   0  0  0  0  0  0  0  0  0  0  0  0
  129.1130  125.8780   61.9400 C   0  0  0  0  0  0  0  0  0  0  0  0
  128.4280  127.1540   62.1640 C   0  0  0  0  0  0  0  0  0  0  0  0
  129.0090  128.2240   61.9690 O   0  0  0  0  0  0  0  0  0  0  0  0
  127.1470  127.0580   62.5990 N   0  0  0  0  0  0  0  0  0  0  0  0
  126.2830  128.1070   62.8840 C   0  0  0  0  0  0  0  0  0  0  0  0
  125.5560  128.8060   62.0390 N   0  0  0  0  0  0  0  0  0  0  0  0
  124.8460  129.7290   62.6590 C   0  0  0  0  0  0  0  0  0  0  0  0
  124.9900  129.7910   64.0420 C   0  0  0  0  0  0  0  0  0  0  0  0
  126.1190  128.5690   64.5480 S   0  0  0  0  0  0  0  0  0  0  0  0
  128.1830  124.3960   61.7340 S   0  0  0  0  0  0  0  0  0  0  0  0
  129.6420  123.4580   61.5180 C   0  0  0  0  0  0  0  0  0  0  0  0
  129.5980  122.1470   61.2980 N   0  0  0  0  0  0  0  0  0  0  0  0
  130.7820  121.5030   61.1350 C   0  0  0  0  0  0  0  0  0  0  0  0
  130.6960  120.0260   60.8750 C   0  0  0  0  0  0  0  0  0  0  0  0
  129.7110  119.2440   61.4980 C   0  0  0  0  0  0  0  0  0  0  0  0
  129.6290  117.8730   61.2660 C   0  0  0  0  0  0  0  0  0  0  0  0
  130.5380  117.2630   60.4060 C   0  0  0  0  0  0  0  0  0  0  0  0
  131.5240  118.0140   59.7780 C   0  0  0  0  0  0  0  0  0  0  0  0
  131.6010  119.3850   60.0120 C   0  0  0  0  0  0  0  0  0  0  0  0
  132.0060  122.1760   61.2180 C   0  0  0  0  0  0  0  0  0  0  0  0
  132.0650  123.5590   61.4520 C   0  0  0  0  0  0  0  0  0  0  0  0
  133.4390  124.2330   61.5280 C   0  0  0  0  0  0  0  0  0  0  0  0
  133.5740  125.0300   62.5900 F   0  0  0  0  0  0  0  0  0  0  0  0
  134.3920  123.3040   61.6020 F   0  0  0  0  0  0  0  0  0  0  0  0
  133.6360  124.9800   60.4420 F   0  0  0  0  0  0  0  0  0  0  0  0
  130.8270  124.2470   61.6050 C   0  0  0  0  0  0  0  0  0  0  0  0
  1  2  1  0
  2  3  2  0
  3  4  1  0
  4  5  2  0
  4  6  1  0
  6  7  1  0
  7  8  2  0
  8  9  1  0
  9 10  2  0
 10 11  1  0
  3 12  1  0
 12 13  1  0
 13 14  2  0
 14 15  1  0
 15 16  1  0
 16 17  2  0
 17 18  1  0
 18 19  2  0
 19 20  1  0
 20 21  2  0
 15 22  2  0
 22 23  1  0
 23 24  1  0
 24 25  1  0
 24 26  1  0
 24 27  1  0
 23 28  2  0
 28  2  1  0
 11  7  1  0
 28 13  1  0
 21 16  1  0
M  END
>  <Binding energies>  (58) 
[-6.68]

>  <Ligand effiencies>  (58) 
[-0.21548387096774194]

>  <Interactions>  (58) 
["V-B:GLU:543:CD:9880, H-B:GLU:543:OE2:9882, V-B:TYR:539:C:9839, H-B:GLU:543:OE1:9881, V-B:TYR:539:CE2:9848, V-B:TYR:539:CD2:9846, V-B:ALA:541:CB:9864, V-A:GLY:453:C:4042, V-A:SER:385:CB:3409, V-A:PRO:482:CB:4326, V-A:LEU:475:CD1:4258, V-A:ASP:366:CA:3210, V-A:ASP:366:CG:3213, V-B:TYR:539:CG:9844, V-A:LEU:475:CD2:4259, V-A:ILE:369:CD1:3239, V-A:GLY:454:CA:4049, V-A:ASP:366:CB:3212, V-A:PRO:482:CG:4327, H-B:ARG:545:NH2:9900, V-A:GLU:543:CD:4908, H-A:GLU:543:OE1:4909, H-A:GLU:543:OE2:4910, V-A:ARG:545:CZ:4926, H-A:ASP:366:OD1:3214, V-B:TYR:539:CB:9843, V-B:ARG:545:CZ:9898, H-A:ASP:366:OD2:3215, V-A:GLY:453:CA:4044"]

$$$$
4ck_Grossjean_2025
     RDKit          3D

 33 35  0  0  0  0  0  0  0  0999 V2000
  128.4590  130.1900   54.5210 C   0  0  0  0  0  0  0  0  0  0  0  0
  128.4680  131.3620   53.7200 O   0  0  0  0  0  0  0  0  0  0  0  0
  129.0320  132.4890   54.3760 C   0  0  0  0  0  0  0  0  0  0  0  0
  130.5580  132.3350   54.4130 C   0  0  0  0  0  0  0  0  0  0  0  0
  131.0570  132.9380   55.5990 O   0  0  0  0  0  0  0  0  0  0  0  0
  132.0340  132.1520   56.2680 C   0  0  0  0  0  0  0  0  0  0  0  0
  131.3520  131.3360   57.3730 C   0  0  0  0  0  0  0  0  0  0  0  0
  132.3510  130.6620   58.1260 O   0  0  0  0  0  0  0  0  0  0  0  0
  132.8280  131.4030   59.2420 C   0  0  0  0  0  0  0  0  0  0  0  0
  132.2000  130.8540   60.5320 C   0  0  0  0  0  0  0  0  0  0  0  0
  131.3620  129.6810   60.2800 N   0  0  0  0  0  0  0  0  0  0  0  0
  130.1030  129.4990   60.7290 C   0  0  0  0  0  0  0  0  0  0  0  0
  129.5050  130.3450   61.3960 O   0  0  0  0  0  0  0  0  0  0  0  0
  129.4730  128.2290   60.3670 C   0  0  0  0  0  0  0  0  0  0  0  0
  128.4700  128.1200   58.9220 S   0  0  0  0  0  0  0  0  0  0  0  0
  128.2000  126.4140   59.1860 C   0  0  0  0  0  0  0  0  0  0  0  0
  127.4530  125.6920   58.3550 N   0  0  0  0  0  0  0  0  0  0  0  0
  127.2980  124.3730   58.6430 C   0  0  0  0  0  0  0  0  0  0  0  0
  126.4640  123.5830   57.6760 C   0  0  0  0  0  0  0  0  0  0  0  0
  125.1170  123.2990   57.9530 C   0  0  0  0  0  0  0  0  0  0  0  0
  124.3380  122.5640   57.0620 C   0  0  0  0  0  0  0  0  0  0  0  0
  124.8980  122.1030   55.8760 C   0  0  0  0  0  0  0  0  0  0  0  0
  126.2290  122.3740   55.5730 C   0  0  0  0  0  0  0  0  0  0  0  0
  127.0030  123.1100   56.4670 C   0  0  0  0  0  0  0  0  0  0  0  0
  127.9030  123.7840   59.7580 C   0  0  0  0  0  0  0  0  0  0  0  0
  128.6930  124.5370   60.6420 C   0  0  0  0  0  0  0  0  0  0  0  0
  129.3230  123.8280   61.8470 C   0  0  0  0  0  0  0  0  0  0  0  0
  130.6550  123.7860   61.7930 F   0  0  0  0  0  0  0  0  0  0  0  0
  128.9890  124.4650   62.9690 F   0  0  0  0  0  0  0  0  0  0  0  0
  128.8860  122.5700   61.9080 F   0  0  0  0  0  0  0  0  0  0  0  0
  128.8590  125.9210   60.3510 C   0  0  0  0  0  0  0  0  0  0  0  0
  129.5870  126.9830   61.0030 C   0  0  0  0  0  0  0  0  0  0  0  0
  130.3210  126.7890   62.1450 N   0  0  0  0  0  0  0  0  0  0  0  0
  1  2  1  0
  2  3  1  0
  3  4  1  0
  4  5  1  0
  5  6  1  0
  6  7  1  0
  7  8  1  0
  8  9  1  0
  9 10  1  0
 10 11  1  0
 11 12  1  0
 12 13  2  0
 12 14  1  0
 14 15  1  0
 15 16  1  0
 16 17  2  0
 17 18  1  0
 18 19  1  0
 19 20  2  0
 20 21  1  0
 21 22  2  0
 22 23  1  0
 23 24  2  0
 18 25  2  0
 25 26  1  0
 26 27  1  0
 27 28  1  0
 27 29  1  0
 27 30  1  0
 26 31  2  0
 31 32  1  0
 32 33  1  0
 32 14  2  0
 31 16  1  0
 24 19  1  0
M  END
>  <Binding energies>  (59) 
[-6.1]

>  <Ligand effiencies>  (59) 
[-0.16944444444444443]

>  <Interactions>  (59) 
["V-B:ILE:538:CD1:9837, V-B:PRO:540:CB:9857, V-B:PRO:540:CD:9859, V-B:LEU:363:CD1:8161, V-B:GLU:543:CD:9880, V-B:PRO:540:CA:9855, V-B:ILE:538:CG2:9835, V-B:ILE:538:CA:9832, V-B:MET:535:CE:9807, V-B:ALA:541:CB:9864, V-B:PRO:540:N:9856, V-A:ASP:366:CG:3213, H-A:TYR:539:N:4870, V-A:PRO:540:CA:4883, V-A:PRO:540:N:4884, V-A:PRO:540:CB:4885, V-A:TYR:539:CE2:4876, H-B:LYS:534:NZ:9795, V-A:LEU:363:CD1:3189, V-B:ILE:538:C:9830, V-B:ILE:538:CB:9834, V-A:GLU:543:CD:4908, H-A:GLU:543:OE1:4909, H-A:GLU:543:OE2:4910, H-A:ASP:366:OD1:3214, V-A:PRO:540:CD:4887, V-A:ILE:538:CA:4860, V-A:ILE:538:CB:4862, V-A:ILE:538:CG2:4863, V-B:PRO:540:CG:9858, V-A:TYR:539:CD2:4874, V-B:GLU:543:CG:9879"]

$$$$
4dd_Grossjean_2025
     RDKit          3D

 26 29  0  0  0  0  0  0  0  0999 V2000
  133.5360  124.3160   61.2510 C   0  0  0  0  0  0  0  0  0  0  0  0
  132.1800  123.6270   61.2670 C   0  0  0  0  0  0  0  0  0  0  0  0
  132.1410  122.2410   61.0670 C   0  0  0  0  0  0  0  0  0  0  0  0
  130.9250  121.5480   61.0700 C   0  0  0  0  0  0  0  0  0  0  0  0
  130.8530  120.0650   60.8530 C   0  0  0  0  0  0  0  0  0  0  0  0
  129.8760  119.2900   61.4990 C   0  0  0  0  0  0  0  0  0  0  0  0
  129.8010  117.9140   61.2990 C   0  0  0  0  0  0  0  0  0  0  0  0
  130.7080  117.2900   60.4500 C   0  0  0  0  0  0  0  0  0  0  0  0
  131.6850  118.0330   59.7960 C   0  0  0  0  0  0  0  0  0  0  0  0
  131.7550  119.4100   59.9970 C   0  0  0  0  0  0  0  0  0  0  0  0
  129.7350  122.1840   61.2540 N   0  0  0  0  0  0  0  0  0  0  0  0
  129.7710  123.5010   61.4510 C   0  0  0  0  0  0  0  0  0  0  0  0
  128.3200  124.4390   61.7180 S   0  0  0  0  0  0  0  0  0  0  0  0
  129.2540  125.9290   61.8700 C   0  0  0  0  0  0  0  0  0  0  0  0
  128.5820  127.2010   62.1400 C   0  0  0  0  0  0  0  0  0  0  0  0
  129.1490  128.2710   61.9130 O   0  0  0  0  0  0  0  0  0  0  0  0
  127.3240  127.1000   62.6350 N   0  0  0  0  0  0  0  0  0  0  0  0
  126.4380  128.1120   63.0460 C   0  0  0  0  0  0  0  0  0  0  0  0
  125.8100  128.8270   62.0210 C   0  0  0  0  0  0  0  0  0  0  0  0
  124.9040  129.8400   62.3250 C   0  0  0  0  0  0  0  0  0  0  0  0
  124.6190  130.1340   63.6550 C   0  0  0  0  0  0  0  0  0  0  0  0
  125.2280  129.4220   64.6850 C   0  0  0  0  0  0  0  0  0  0  0  0
  126.1350  128.4090   64.3850 C   0  0  0  0  0  0  0  0  0  0  0  0
  130.6270  125.6830   61.7110 C   0  0  0  0  0  0  0  0  0  0  0  0
  131.5900  126.6590   61.7740 N   0  0  0  0  0  0  0  0  0  0  0  0
  130.9490  124.3000   61.4730 C   0  0  0  0  0  0  0  0  0  0  0  0
  1  2  1  0
  2  3  2  0
  3  4  1  0
  4  5  1  0
  5  6  2  0
  6  7  1  0
  7  8  2  0
  8  9  1  0
  9 10  2  0
  4 11  2  0
 11 12  1  0
 12 13  1  0
 13 14  1  0
 14 15  1  0
 15 16  2  0
 15 17  1  0
 17 18  1  0
 18 19  2  0
 19 20  1  0
 20 21  2  0
 21 22  1  0
 22 23  2  0
 14 24  2  0
 24 25  1  0
 24 26  1  0
 26  2  1  0
 10  5  1  0
 26 12  2  0
 23 18  1  0
M  END
>  <Binding energies>  (60) 
[-7.56]

>  <Ligand effiencies>  (60) 
[-0.26068965517241377]

>  <Interactions>  (60) 
["V-B:GLU:543:CD:9880, H-B:GLU:543:OE2:9882, H-B:GLU:543:OE1:9881, V-B:TYR:539:CE2:9848, V-B:TYR:539:CD2:9846, V-B:ALA:541:CB:9864, V-A:SER:385:CB:3409, V-A:PRO:482:CB:4326, V-A:LEU:475:CD1:4258, V-A:ASP:366:CG:3213, V-A:LEU:475:CD2:4259, V-A:ILE:369:CD1:3239, V-A:LEU:475:CG:4257, V-A:PRO:482:CG:4327, V-B:ASP:366:CG:8185, V-A:GLU:543:CD:4908, H-A:GLU:543:OE1:4909, H-A:GLU:543:OE2:4910, V-A:ARG:545:CZ:4926, H-A:ASP:366:OD1:3214, V-B:TYR:539:CB:9843, V-B:ARG:545:CZ:9898, H-A:ASP:366:OD2:3215"]

$$$$
4dg_Grossjean_2025
     RDKit          3D

 27 30  0  0  0  0  0  0  0  0999 V2000
  131.2980  126.1870   62.8310 C   0  0  0  0  0  0  0  0  0  0  0  0
  131.3870  125.4420   61.5070 C   0  0  0  0  0  0  0  0  0  0  0  0
  131.4470  124.0430   61.5400 C   0  0  0  0  0  0  0  0  0  0  0  0
  131.5300  123.2990   60.3570 C   0  0  0  0  0  0  0  0  0  0  0  0
  131.5930  121.7970   60.3600 C   0  0  0  0  0  0  0  0  0  0  0  0
  132.7490  121.1240   59.9310 C   0  0  0  0  0  0  0  0  0  0  0  0
  132.8110  119.7320   59.9280 C   0  0  0  0  0  0  0  0  0  0  0  0
  131.7160  118.9910   60.3570 C   0  0  0  0  0  0  0  0  0  0  0  0
  130.5570  119.6320   60.7840 C   0  0  0  0  0  0  0  0  0  0  0  0
  130.4980  121.0230   60.7840 C   0  0  0  0  0  0  0  0  0  0  0  0
  131.5370  123.8940   59.1330 N   0  0  0  0  0  0  0  0  0  0  0  0
  131.4810  125.2250   59.1010 C   0  0  0  0  0  0  0  0  0  0  0  0
  131.4910  126.1150   57.5960 S   0  0  0  0  0  0  0  0  0  0  0  0
  131.3930  127.6520   58.4550 C   0  0  0  0  0  0  0  0  0  0  0  0
  131.4050  128.9110   57.7110 C   0  0  0  0  0  0  0  0  0  0  0  0
  130.6390  129.1050   56.7650 O   0  0  0  0  0  0  0  0  0  0  0  0
  132.3250  129.8170   58.1010 N   0  0  0  0  0  0  0  0  0  0  0  0
  132.5030  131.1470   57.5200 C   0  0  0  0  0  0  0  0  0  0  0  0
  131.2300  131.7130   56.9020 C   0  0  0  0  0  0  0  0  0  0  0  0
  131.1640  131.9290   55.5220 C   0  0  0  0  0  0  0  0  0  0  0  0
  129.9930  132.4160   54.9500 C   0  0  0  0  0  0  0  0  0  0  0  0
  128.8870  132.6750   55.7560 C   0  0  0  0  0  0  0  0  0  0  0  0
  128.9390  132.4460   57.1290 C   0  0  0  0  0  0  0  0  0  0  0  0
  130.1110  131.9580   57.7020 C   0  0  0  0  0  0  0  0  0  0  0  0
  131.3710  127.4590   59.8440 C   0  0  0  0  0  0  0  0  0  0  0  0
  131.3120  128.4830   60.7560 N   0  0  0  0  0  0  0  0  0  0  0  0
  131.4090  126.0770   60.2390 C   0  0  0  0  0  0  0  0  0  0  0  0
  1  2  1  0
  2  3  2  0
  3  4  1  0
  4  5  1  0
  5  6  2  0
  6  7  1  0
  7  8  2  0
  8  9  1  0
  9 10  2  0
  4 11  2  0
 11 12  1  0
 12 13  1  0
 13 14  1  0
 14 15  1  0
 15 16  2  0
 15 17  1  0
 17 18  1  0
 18 19  1  0
 19 20  2  0
 20 21  1  0
 21 22  2  0
 22 23  1  0
 23 24  2  0
 14 25  2  0
 25 26  1  0
 25 27  1  0
 27  2  1  0
 10  5  1  0
 27 12  2  0
 24 19  1  0
M  END
>  <Binding energies>  (61) 
[-7.9]

>  <Ligand effiencies>  (61) 
[-0.26333333333333336]

>  <Interactions>  (61) 
["V-B:TYR:539:CE2:9848, V-B:TYR:539:CD2:9846, V-A:SER:385:CB:3409, V-A:ASP:366:CG:3213, V-A:LEU:475:CD2:4259, V-A:ASP:366:CB:3212, V-A:ILE:369:CG2:3237, V-A:TYR:539:CZ:4877, V-A:PRO:540:CA:4883, V-A:TYR:539:C:4867, V-A:PRO:540:N:4884, V-A:PRO:540:CB:4885, V-A:TYR:539:CE2:4876, V-A:LEU:363:CD1:3189, V-A:GLU:543:CD:4908, H-A:GLU:543:OE1:4909, V-A:ARG:545:CZ:4926, H-A:ASP:366:OD1:3214, V-A:ILE:538:CA:4860, V-A:ILE:538:CB:4862, H-A:TYR:531:OH:4795, V-A:TYR:539:CD2:4874, V-A:TYR:539:CA:4869, V-A:TYR:539:CG:4872, V-A:TYR:539:CD1:4873, V-A:SER:385:CA:3407"]

$$$$
4dj_Grossjean_2025
     RDKit          3D

 25 28  0  0  0  0  0  0  0  0999 V2000
  133.5030  124.3250   61.3920 C   0  0  0  0  0  0  0  0  0  0  0  0
  132.1480  123.6340   61.3590 C   0  0  0  0  0  0  0  0  0  0  0  0
  132.1170  122.2530   61.1360 C   0  0  0  0  0  0  0  0  0  0  0  0
  130.9020  121.5580   61.0920 C   0  0  0  0  0  0  0  0  0  0  0  0
  130.8380  120.0750   60.8600 C   0  0  0  0  0  0  0  0  0  0  0  0
  129.8660  119.2870   61.4970 C   0  0  0  0  0  0  0  0  0  0  0  0
  129.8010  117.9120   61.2860 C   0  0  0  0  0  0  0  0  0  0  0  0
  130.7160  117.3020   60.4340 C   0  0  0  0  0  0  0  0  0  0  0  0
  131.6920  118.0570   59.7940 C   0  0  0  0  0  0  0  0  0  0  0  0
  131.7520  119.4310   60.0060 C   0  0  0  0  0  0  0  0  0  0  0  0
  129.7090  122.1850   61.2800 N   0  0  0  0  0  0  0  0  0  0  0  0
  129.7370  123.5000   61.4920 C   0  0  0  0  0  0  0  0  0  0  0  0
  128.2770  124.4310   61.7410 S   0  0  0  0  0  0  0  0  0  0  0  0
  129.2030  125.9220   61.9250 C   0  0  0  0  0  0  0  0  0  0  0  0
  128.5190  127.1930   62.1680 C   0  0  0  0  0  0  0  0  0  0  0  0
  129.1080  128.2660   62.0130 O   0  0  0  0  0  0  0  0  0  0  0  0
  127.2300  127.0930   62.5740 N   0  0  0  0  0  0  0  0  0  0  0  0
  126.3650  128.1370   62.8720 C   0  0  0  0  0  0  0  0  0  0  0  0
  125.6800  128.8830   62.0330 N   0  0  0  0  0  0  0  0  0  0  0  0
  124.9560  129.7850   62.6660 C   0  0  0  0  0  0  0  0  0  0  0  0
  125.0440  129.7810   64.0550 C   0  0  0  0  0  0  0  0  0  0  0  0
  126.1390  128.5240   64.5480 S   0  0  0  0  0  0  0  0  0  0  0  0
  130.5790  125.6820   61.7910 C   0  0  0  0  0  0  0  0  0  0  0  0
  131.5370  126.6600   61.8840 N   0  0  0  0  0  0  0  0  0  0  0  0
  130.9110  124.3040   61.5460 C   0  0  0  0  0  0  0  0  0  0  0  0
  1  2  1  0
  2  3  2  0
  3  4  1  0
  4  5  1  0
  5  6  2  0
  6  7  1  0
  7  8  2  0
  8  9  1  0
  9 10  2  0
  4 11  2  0
 11 12  1  0
 12 13  1  0
 13 14  1  0
 14 15  1  0
 15 16  2  0
 15 17  1  0
 17 18  1  0
 18 19  2  0
 19 20  1  0
 20 21  2  0
 21 22  1  0
 14 23  2  0
 23 24  1  0
 23 25  1  0
 25  2  1  0
 10  5  1  0
 25 12  2  0
 22 18  1  0
M  END
>  <Binding energies>  (62) 
[-6.99]

>  <Ligand effiencies>  (62) 
[-0.24964285714285714]

>  <Interactions>  (62) 
["V-B:GLU:543:CD:9880, H-B:GLU:543:OE2:9882, H-B:GLU:543:OE1:9881, V-B:TYR:539:CE2:9848, V-B:TYR:539:CD2:9846, V-B:ALA:541:CB:9864, V-A:SER:385:CB:3409, V-A:PRO:482:CB:4326, V-A:LEU:475:CD1:4258, V-A:ASP:366:CG:3213, V-A:LEU:475:CD2:4259, V-A:ILE:369:CD1:3239, V-A:LEU:475:CG:4257, V-A:PRO:482:CG:4327, H-B:ARG:545:NH2:9900, V-A:GLU:543:CD:4908, H-A:GLU:543:OE1:4909, H-A:GLU:543:OE2:4910, V-A:ARG:545:CZ:4926, H-A:ASP:366:OD1:3214, V-B:TYR:539:CB:9843, V-B:ARG:545:CZ:9898, H-A:ASP:366:OD2:3215"]

$$$$
4ea_Grossjean_2025
     RDKit          3D

 31 34  0  0  0  0  0  0  0  0999 V2000
  130.5210  117.1000   60.1390 C   0  0  0  0  0  0  0  0  0  0  0  0
  129.9940  118.1230   61.1500 C   0  0  0  0  0  0  0  0  0  0  0  0
  130.3010  119.4350   60.6980 O   0  0  0  0  0  0  0  0  0  0  0  0
  130.1320  120.5130   61.5050 C   0  0  0  0  0  0  0  0  0  0  0  0
  129.8930  120.4260   62.7140 O   0  0  0  0  0  0  0  0  0  0  0  0
  130.2630  121.8220   60.7820 C   0  0  0  0  0  0  0  0  0  0  0  0
  129.1790  122.3010   60.0340 C   0  0  0  0  0  0  0  0  0  0  0  0
  129.2680  123.5110   59.3520 C   0  0  0  0  0  0  0  0  0  0  0  0
  130.4400  124.2670   59.4020 C   0  0  0  0  0  0  0  0  0  0  0  0
  130.4160  125.4720   58.6740 N   0  0  0  0  0  0  0  0  0  0  0  0
  130.1140  125.7070   57.3730 C   0  0  0  0  0  0  0  0  0  0  0  0
  129.7900  124.8330   56.5680 O   0  0  0  0  0  0  0  0  0  0  0  0
  130.1970  127.1090   56.9560 C   0  0  0  0  0  0  0  0  0  0  0  0
  129.4760  127.6320   55.4320 S   0  0  0  0  0  0  0  0  0  0  0  0
  129.9890  129.2820   55.6990 C   0  0  0  0  0  0  0  0  0  0  0  0
  129.7240  130.2530   54.8240 N   0  0  0  0  0  0  0  0  0  0  0  0
  130.1770  131.4890   55.1500 C   0  0  0  0  0  0  0  0  0  0  0  0
  129.8650  132.5780   54.1410 C   0  0  0  0  0  0  0  0  0  0  0  0
  130.8800  131.7730   56.3180 C   0  0  0  0  0  0  0  0  0  0  0  0
  131.1560  130.7520   57.2330 C   0  0  0  0  0  0  0  0  0  0  0  0
  131.9050  131.0700   58.4700 C   0  0  0  0  0  0  0  0  0  0  0  0
  131.2170  131.3610   59.6530 C   0  0  0  0  0  0  0  0  0  0  0  0
  131.9210  131.6580   60.8170 C   0  0  0  0  0  0  0  0  0  0  0  0
  133.3140  131.6670   60.7980 C   0  0  0  0  0  0  0  0  0  0  0  0
  134.0080  131.3830   59.6240 C   0  0  0  0  0  0  0  0  0  0  0  0
  133.3030  131.0870   58.4610 C   0  0  0  0  0  0  0  0  0  0  0  0
  130.6980  129.4400   56.9280 C   0  0  0  0  0  0  0  0  0  0  0  0
  130.8020  128.1850   57.6260 C   0  0  0  0  0  0  0  0  0  0  0  0
  131.4390  128.0700   58.8340 N   0  0  0  0  0  0  0  0  0  0  0  0
  131.5310  123.7950   60.1480 C   0  0  0  0  0  0  0  0  0  0  0  0
  131.4400  122.5850   60.8300 C   0  0  0  0  0  0  0  0  0  0  0  0
  1  2  1  0
  2  3  1  0
  3  4  1  0
  4  5  2  0
  4  6  1  0
  6  7  2  0
  7  8  1  0
  8  9  2  0
  9 10  1  0
 10 11  1  0
 11 12  2  0
 11 13  1  0
 13 14  1  0
 14 15  1  0
 15 16  2  0
 16 17  1  0
 17 18  1  0
 17 19  2  0
 19 20  1  0
 20 21  1  0
 21 22  2  0
 22 23  1  0
 23 24  2  0
 24 25  1  0
 25 26  2  0
 20 27  2  0
 27 28  1  0
 28 29  1  0
  9 30  1  0
 30 31  2  0
 31  6  1  0
 28 13  2  0
 27 15  1  0
 26 21  1  0
M  END
>  <Binding energies>  (63) 
[-7.5]

>  <Ligand effiencies>  (63) 
[-0.22058823529411764]

>  <Interactions>  (63) 
["V-B:TYR:539:C:9839, V-B:TYR:539:CE2:9848, V-B:TYR:539:CD2:9846, V-B:MET:535:CE:9807, V-B:ALA:541:CB:9864, V-A:PRO:482:CB:4326, V-A:LEU:475:CD1:4258, H-A:TYR:484:OH:4348, V-A:ASP:366:CG:3213, V-A:LEU:475:CD2:4259, V-A:LEU:475:CG:4257, V-A:ASP:366:CB:3212, V-A:PRO:482:CG:4327, V-A:PRO:540:CA:4883, V-A:PRO:540:CB:4885, H-A:ASP:366:OD1:3214, V-A:LEU:363:CA:3185, H-B:TYR:539:OH:9850, V-A:ILE:538:CA:4860, V-A:ILE:538:CB:4862, V-A:ILE:538:CG2:4863, H-A:TYR:531:OH:4795, V-B:TYR:539:CB:9843, V-A:ILE:538:C:4858, V-A:PRO:540:C:4881, V-A:ASN:362:CB:3176, V-A:ASN:362:C:3172, H-A:ASP:366:OD2:3215, V-A:LEU:363:CB:3187"]

$$$$
4eb_Grossjean_2025
     RDKit          3D

 30 33  0  0  0  0  0  0  0  0999 V2000
  130.0550  132.5250   53.7190 C   0  0  0  0  0  0  0  0  0  0  0  0
  130.5300  133.2480   54.8450 O   0  0  0  0  0  0  0  0  0  0  0  0
  131.6610  132.8670   55.4950 C   0  0  0  0  0  0  0  0  0  0  0  0
  132.6830  133.5560   55.5410 O   0  0  0  0  0  0  0  0  0  0  0  0
  131.5420  131.5220   56.1510 C   0  0  0  0  0  0  0  0  0  0  0  0
  130.2880  130.8990   56.2120 C   0  0  0  0  0  0  0  0  0  0  0  0
  130.1460  129.6520   56.8130 C   0  0  0  0  0  0  0  0  0  0  0  0
  131.2500  129.0020   57.3670 C   0  0  0  0  0  0  0  0  0  0  0  0
  130.9870  127.7470   57.9480 N   0  0  0  0  0  0  0  0  0  0  0  0
  131.6230  126.5590   57.7990 C   0  0  0  0  0  0  0  0  0  0  0  0
  132.6050  126.3840   57.0760 O   0  0  0  0  0  0  0  0  0  0  0  0
  131.0630  125.4480   58.5730 C   0  0  0  0  0  0  0  0  0  0  0  0
  132.0000  124.7020   59.8690 S   0  0  0  0  0  0  0  0  0  0  0  0
  130.7080  123.5780   60.2220 C   0  0  0  0  0  0  0  0  0  0  0  0
  130.8110  122.6660   61.1910 N   0  0  0  0  0  0  0  0  0  0  0  0
  129.7400  121.8560   61.3630 C   0  0  0  0  0  0  0  0  0  0  0  0
  129.8790  120.8260   62.4690 C   0  0  0  0  0  0  0  0  0  0  0  0
  128.5780  121.9330   60.5980 C   0  0  0  0  0  0  0  0  0  0  0  0
  128.4740  122.8920   59.5830 C   0  0  0  0  0  0  0  0  0  0  0  0
  127.2320  122.9620   58.7780 C   0  0  0  0  0  0  0  0  0  0  0  0
  127.1930  122.4020   57.4980 C   0  0  0  0  0  0  0  0  0  0  0  0
  126.0250  122.4660   56.7400 C   0  0  0  0  0  0  0  0  0  0  0  0
  124.8980  123.0950   57.2640 C   0  0  0  0  0  0  0  0  0  0  0  0
  124.9290  123.6590   58.5370 C   0  0  0  0  0  0  0  0  0  0  0  0
  126.0960  123.5940   59.2930 C   0  0  0  0  0  0  0  0  0  0  0  0
  129.5770  123.7620   59.3700 C   0  0  0  0  0  0  0  0  0  0  0  0
  129.8080  124.8350   58.4390 C   0  0  0  0  0  0  0  0  0  0  0  0
  128.8710  125.2120   57.5100 N   0  0  0  0  0  0  0  0  0  0  0  0
  132.5090  129.6180   57.3110 C   0  0  0  0  0  0  0  0  0  0  0  0
  132.6500  130.8650   56.7090 C   0  0  0  0  0  0  0  0  0  0  0  0
  1  2  1  0
  2  3  1  0
  3  4  2  0
  3  5  1  0
  5  6  2  0
  6  7  1  0
  7  8  2  0
  8  9  1  0
  9 10  1  0
 10 11  2  0
 10 12  1  0
 12 13  1  0
 13 14  1  0
 14 15  2  0
 15 16  1  0
 16 17  1  0
 16 18  2  0
 18 19  1  0
 19 20  1  0
 20 21  2  0
 21 22  1  0
 22 23  2  0
 23 24  1  0
 24 25  2  0
 19 26  2  0
 26 27  1  0
 27 28  1  0
  8 29  1  0
 29 30  2  0
 30  5  1  0
 27 12  2  0
 26 14  1  0
 25 20  1  0
M  END
>  <Binding energies>  (64) 
[-8.12]

>  <Ligand effiencies>  (64) 
[-0.24606060606060604]

>  <Interactions>  (64) 
["V-B:PRO:540:CB:9857, V-B:PRO:540:CD:9859, V-B:LEU:363:CD1:8161, V-B:TYR:539:C:9839, V-B:PRO:540:CA:9855, V-B:TYR:539:CE2:9848, V-B:TYR:539:CD2:9846, V-B:MET:535:CE:9807, V-B:ALA:541:CB:9864, V-B:PRO:540:C:9853, V-B:PRO:540:N:9856, V-A:LEU:475:CD1:4258, H-A:TYR:484:OH:4348, V-A:ASP:366:CG:3213, V-B:TYR:539:CG:9844, V-A:LEU:475:CD2:4259, V-A:ASP:366:CB:3212, V-A:TYR:531:CZ:4794, H-A:TYR:539:N:4870, V-A:PRO:540:N:4884, V-A:PRO:540:CB:4885, V-A:LEU:363:CD1:3189, V-B:TYR:539:CA:9841, V-A:PRO:540:CD:4887, H-B:TYR:539:OH:9850, V-A:ILE:538:CA:4860, V-A:ILE:538:CB:4862, V-A:TYR:484:CZ:4347, V-A:ILE:538:CG2:4863, V-A:TYR:484:CE1:4345"]

$$$$
8b_Ghoteimi_2023
     RDKit          3D

 34 38  0  0  0  0  0  0  0  0999 V2000
  130.6150  118.8050   60.7510 C   0  0  0  0  0  0  0  0  0  0  0  0
  129.8700  119.5600   61.7010 O   0  0  0  0  0  0  0  0  0  0  0  0
  129.8040  120.9330   61.5660 C   0  0  0  0  0  0  0  0  0  0  0  0
  128.5290  121.4960   61.5330 C   0  0  0  0  0  0  0  0  0  0  0  0
  128.3650  122.8700   61.3990 C   0  0  0  0  0  0  0  0  0  0  0  0
  129.4750  123.7220   61.2950 C   0  0  0  0  0  0  0  0  0  0  0  0
  129.3050  125.2010   61.1500 C   0  0  0  0  0  0  0  0  0  0  0  0
  128.3410  125.9070   61.8780 C   0  0  0  0  0  0  0  0  0  0  0  0
  128.2030  127.2890   61.7230 C   0  0  0  0  0  0  0  0  0  0  0  0
  127.1660  128.0050   62.5020 C   0  0  0  0  0  0  0  0  0  0  0  0
  127.3520  128.2480   63.8640 C   0  0  0  0  0  0  0  0  0  0  0  0
  126.3800  128.9300   64.5920 C   0  0  0  0  0  0  0  0  0  0  0  0
  125.2110  129.3760   63.9730 C   0  0  0  0  0  0  0  0  0  0  0  0
  124.3050  130.0440   64.7730 O   0  0  0  0  0  0  0  0  0  0  0  0
  123.9980  129.5210   66.0610 C   0  0  0  0  0  0  0  0  0  0  0  0
  125.0260  129.1270   62.6040 C   0  0  0  0  0  0  0  0  0  0  0  0
  125.9980  128.4450   61.8770 C   0  0  0  0  0  0  0  0  0  0  0  0
  129.0720  127.9510   60.8160 C   0  0  0  0  0  0  0  0  0  0  0  0
  129.2090  129.3300   60.4240 C   0  0  0  0  0  0  0  0  0  0  0  0
  128.4170  130.3220   60.9420 N   0  0  0  0  0  0  0  0  0  0  0  0
  130.2200  129.5540   59.4770 C   0  0  0  0  0  0  0  0  0  0  0  0
  130.6330  130.8200   58.8670 C   0  0  0  0  0  0  0  0  0  0  0  0
  130.8710  131.8080   59.5670 O   0  0  0  0  0  0  0  0  0  0  0  0
  130.7250  130.8110   57.5130 N   0  0  0  0  0  0  0  0  0  0  0  0
  131.0950  131.8610   56.6840 C   0  0  0  0  0  0  0  0  0  0  0  0
  132.4170  132.1160   56.3210 C   0  0  0  0  0  0  0  0  0  0  0  0
  132.3580  133.2260   55.5100 C   0  0  0  0  0  0  0  0  0  0  0  0
  131.0680  133.6170   55.3870 O   0  0  0  0  0  0  0  0  0  0  0  0
  130.2750  132.7440   56.1350 N   0  0  0  0  0  0  0  0  0  0  0  0
  131.0340  128.0490   59.0450 S   0  0  0  0  0  0  0  0  0  0  0  0
  130.0170  127.1330   60.1330 C   0  0  0  0  0  0  0  0  0  0  0  0
  130.1480  125.8150   60.2770 N   0  0  0  0  0  0  0  0  0  0  0  0
  130.7540  123.1510   61.3320 C   0  0  0  0  0  0  0  0  0  0  0  0
  130.9210  121.7740   61.4650 C   0  0  0  0  0  0  0  0  0  0  0  0
  1  2  1  0
  2  3  1  0
  3  4  2  0
  4  5  1  0
  5  6  2  0
  6  7  1  0
  7  8  2  0
  8  9  1  0
  9 10  1  0
 10 11  2  0
 11 12  1  0
 12 13  2  0
 13 14  1  0
 14 15  1  0
 13 16  1  0
 16 17  2  0
  9 18  2  0
 18 19  1  0
 19 20  1  0
 19 21  2  0
 21 22  1  0
 22 23  2  0
 22 24  1  0
 24 25  1  0
 25 26  1  0
 26 27  2  0
 27 28  1  0
 28 29  1  0
 21 30  1  0
 30 31  1  0
 31 32  2  0
  6 33  1  0
 33 34  2  0
 34  3  1  0
 32  7  1  0
 17 10  1  0
 31 18  1  0
 29 25  2  0
M  END
>  <Binding energies>  (65) 
[-7.51]

>  <Ligand effiencies>  (65) 
[-0.20297297297297295]

>  <Interactions>  (65) 
["V-B:GLU:543:CD:9880, V-B:PRO:540:CA:9855, V-B:TYR:539:CD2:9846, V-B:ALA:541:CB:9864, V-B:PRO:540:C:9853, V-A:ASP:366:CG:3213, V-A:LEU:475:CD2:4259, H-A:TYR:539:N:4870, V-B:ASP:366:CG:8185, V-A:PRO:540:CA:4883, V-A:PRO:540:N:4884, V-A:PRO:540:CB:4885, V-A:LEU:363:CD1:3189, H-A:ALA:541:N:4891, V-A:PRO:540:CD:4887, V-A:ILE:538:CA:4860, V-A:ILE:538:CB:4862, V-A:ILE:538:CG2:4863, H-A:TYR:531:OH:4795, V-B:ARG:545:CZ:9898, V-B:ARG:545:CD:9895, V-B:ARG:545:CG:9894, V-A:PRO:540:CG:4886, V-A:ILE:538:CD1:4865, V-B:ALA:541:CA:9862, V-B:GLY:454:CA:9021, H-B:TYR:484:OH:9320, H-B:GLY:454:N:9022, V-B:GLY:453:C:9014, V-B:GLY:453:CA:9016"]

$$$$
9d_Ghoteimi_2023
     RDKit          3D

 38 43  0  0  0  0  0  0  0  0999 V2000
  123.5860  131.6810   58.0520 C   0  0  0  0  0  0  0  0  0  0  0  0
  124.5980  132.2990   58.8340 O   0  0  0  0  0  0  0  0  0  0  0  0
  124.3960  132.5640   60.1510 C   0  0  0  0  0  0  0  0  0  0  0  0
  123.7670  133.5400   60.5690 O   0  0  0  0  0  0  0  0  0  0  0  0
  125.0150  131.5590   61.0430 C   0  0  0  0  0  0  0  0  0  0  0  0
  125.4690  132.0060   62.6870 S   0  0  0  0  0  0  0  0  0  0  0  0
  126.0360  130.3850   63.0130 C   0  0  0  0  0  0  0  0  0  0  0  0
  126.5150  130.0410   64.2070 N   0  0  0  0  0  0  0  0  0  0  0  0
  126.9140  128.7510   64.3640 C   0  0  0  0  0  0  0  0  0  0  0  0
  127.4240  128.3810   65.7200 C   0  0  0  0  0  0  0  0  0  0  0  0
  126.6080  127.6900   66.6220 C   0  0  0  0  0  0  0  0  0  0  0  0
  127.0730  127.3440   67.8870 C   0  0  0  0  0  0  0  0  0  0  0  0
  128.3780  127.6640   68.2930 C   0  0  0  0  0  0  0  0  0  0  0  0
  128.8540  127.3380   69.5680 N   0  0  0  0  0  0  0  0  0  0  0  0
  129.8340  128.1950   70.2650 C   0  0  0  0  0  0  0  0  0  0  0  0
  130.5010  127.5180   71.4810 C   0  0  0  0  0  0  0  0  0  0  0  0
  129.5090  127.0470   72.3780 O   0  0  0  0  0  0  0  0  0  0  0  0
  128.6640  126.0900   71.7620 C   0  0  0  0  0  0  0  0  0  0  0  0
  127.9410  126.7190   70.5520 C   0  0  0  0  0  0  0  0  0  0  0  0
  129.1870  128.3710   67.3910 C   0  0  0  0  0  0  0  0  0  0  0  0
  128.7200  128.7200   66.1270 C   0  0  0  0  0  0  0  0  0  0  0  0
  126.8630  127.8230   63.3210 C   0  0  0  0  0  0  0  0  0  0  0  0
  126.3780  128.1850   62.0590 C   0  0  0  0  0  0  0  0  0  0  0  0
  126.3720  127.1660   60.9770 C   0  0  0  0  0  0  0  0  0  0  0  0
  126.1240  125.8220   61.2650 C   0  0  0  0  0  0  0  0  0  0  0  0
  126.1010  124.8730   60.2450 C   0  0  0  0  0  0  0  0  0  0  0  0
  126.3090  125.2480   58.9080 C   0  0  0  0  0  0  0  0  0  0  0  0
  126.3000  124.3150   57.8690 N   0  0  0  0  0  0  0  0  0  0  0  0
  125.1960  123.3390   57.7910 C   0  0  0  0  0  0  0  0  0  0  0  0
  125.0930  122.6440   56.4160 C   0  0  0  0  0  0  0  0  0  0  0  0
  126.3330  122.0350   56.0850 O   0  0  0  0  0  0  0  0  0  0  0  0
  127.3840  122.9880   56.0200 C   0  0  0  0  0  0  0  0  0  0  0  0
  127.5450  123.6870   57.3870 C   0  0  0  0  0  0  0  0  0  0  0  0
  126.5580  126.6000   58.6320 C   0  0  0  0  0  0  0  0  0  0  0  0
  126.5830  127.5470   59.6510 C   0  0  0  0  0  0  0  0  0  0  0  0
  125.9170  129.5200   61.8850 C   0  0  0  0  0  0  0  0  0  0  0  0
  125.3110  130.2160   60.7800 C   0  0  0  0  0  0  0  0  0  0  0  0
  125.0280  129.6100   59.5830 N   0  0  0  0  0  0  0  0  0  0  0  0
  1  2  1  0
  2  3  1  0
  3  4  2  0
  3  5  1  0
  5  6  1  0
  6  7  1  0
  7  8  2  0
  8  9  1  0
  9 10  1  0
 10 11  2  0
 11 12  1  0
 12 13  2  0
 13 14  1  0
 14 15  1  0
 15 16  1  0
 16 17  1  0
 17 18  1  0
 18 19  1  0
 13 20  1  0
 20 21  2  0
  9 22  2  0
 22 23  1  0
 23 24  1  0
 24 25  2  0
 25 26  1  0
 26 27  2  0
 27 28  1  0
 28 29  1  0
 29 30  1  0
 30 31  1  0
 31 32  1  0
 32 33  1  0
 27 34  1  0
 34 35  2  0
 23 36  2  0
 36 37  1  0
 37 38  1  0
 37  5  2  0
 36  7  1  0
 21 10  1  0
 35 24  1  0
 19 14  1  0
 33 28  1  0
M  END
>  <Binding energies>  (66) 
[-5.97]

>  <Ligand effiencies>  (66) 
[-0.14925]

>  <Interactions>  (66) 
["V-B:TYR:539:CD1:9845, V-B:ILE:538:CD1:9837, V-B:PRO:540:CB:9857, V-B:PRO:540:CD:9859, V-B:LEU:363:CD1:8161, V-B:GLU:543:CD:9880, V-B:PRO:540:CA:9855, H-B:TYR:539:N:9842, V-B:ILE:538:CG2:9835, H-B:ASP:366:OD1:8186, V-B:MET:535:CE:9807, V-B:TYR:539:CZ:9849, H-B:ASP:366:OD2:8187, V-B:TYR:539:CE1:9847, V-B:PRO:540:N:9856, V-B:TYR:531:CE2:9765, V-A:TYR:539:CE1:4875, V-B:ASP:366:CG:8185, V-A:TYR:539:CZ:4877, V-B:ASP:366:CB:8184, V-A:GLU:543:CD:4908, V-A:GLU:543:CG:4907, V-A:HIS:456:CE1:4070, V-B:LEU:475:CD2:9231, V-B:GLU:543:CB:9878, V-A:GLU:543:CB:4906, V-A:GLY:544:C:4912, V-A:HIS:456:CD2:4068, V-A:HIS:456:CG:4066, V-B:HIS:456:CD2:9040, V-B:HIS:456:CE1:9042, V-B:ILE:369:CD1:8211, V-B:ARG:545:CG:9894, H-B:LYS:547:NZ:9923, V-B:ASP:366:CA:8182, V-B:ILE:369:CG2:8209, V-B:ILE:369:CB:8208, H-B:TYR:484:OH:9320"]

$$$$
RR10_Rahimova_2017
     RDKit          3D

 34 38  0  0  0  0  0  0  0  0999 V2000
  133.6150  124.2870   57.8550 C   0  0  0  0  0  0  0  0  0  0  0  0
  133.4810  123.9980   59.3600 C   0  0  1  0  0  0  0  0  0  0  0  0
  132.5720  125.0300   60.0670 C   0  0  0  0  0  0  0  0  0  0  0  0
  132.4800  124.7400   61.5820 C   0  0  0  0  0  0  0  0  0  0  0  0
  131.9510  123.3120   61.8740 C   0  0  1  0  0  0  0  0  0  0  0  0
  130.5400  123.1910   61.4820 N   0  0  0  0  0  0  0  0  0  0  0  0
  129.7140  122.1910   61.8420 C   0  0  0  0  0  0  0  0  0  0  0  0
  130.0630  121.2630   62.5760 O   0  0  0  0  0  0  0  0  0  0  0  0
  128.2780  122.2400   61.2790 C   0  0  1  0  0  0  0  0  0  0  0  0
  127.3780  123.0660   62.2360 C   0  0  0  0  0  0  0  0  0  0  0  0
  125.9610  123.1960   61.6280 C   0  0  0  0  0  0  0  0  0  0  0  0
  125.9850  123.7240   60.1750 C   0  0  0  0  0  0  0  0  0  0  0  0
  126.9180  122.9200   59.3400 N   0  0  0  0  0  0  0  0  0  0  0  0
  126.8050  123.2390   57.6010 S   0  0  0  0  0  0  0  0  0  0  0  0
  125.4830  123.8170   57.3280 O   0  0  0  0  0  0  0  0  0  0  0  0
  127.2440  122.0300   56.8920 O   0  0  0  0  0  0  0  0  0  0  0  0
  128.0070  124.5310   57.2850 C   0  0  0  0  0  0  0  0  0  0  0  0
  129.3670  124.2580   57.4610 C   0  0  0  0  0  0  0  0  0  0  0  0
  130.3540  125.2220   57.2340 C   0  0  0  0  0  0  0  0  0  0  0  0
  129.9130  126.4800   56.8170 C   0  0  0  0  0  0  0  0  0  0  0  0
  130.5510  127.6570   56.5060 N   0  0  0  0  0  0  0  0  0  0  0  0
  129.5880  128.5810   56.1540 C   0  0  0  0  0  0  0  0  0  0  0  0
  129.9000  129.9950   55.7570 C   0  0  0  0  0  0  0  0  0  0  0  0
  129.2910  130.5670   54.6310 C   0  0  0  0  0  0  0  0  0  0  0  0
  129.5760  131.8790   54.2640 C   0  0  0  0  0  0  0  0  0  0  0  0
  130.4750  132.6280   55.0200 C   0  0  0  0  0  0  0  0  0  0  0  0
  131.0880  132.0750   56.1400 C   0  0  0  0  0  0  0  0  0  0  0  0
  130.8020  130.7630   56.5070 C   0  0  0  0  0  0  0  0  0  0  0  0
  128.3760  128.0760   56.2120 N   0  0  0  0  0  0  0  0  0  0  0  0
  128.5440  126.7790   56.6220 C   0  0  0  0  0  0  0  0  0  0  0  0
  127.5760  125.7910   56.8550 C   0  0  0  0  0  0  0  0  0  0  0  0
  128.3040  122.8820   59.8700 C   0  0  0  0  0  0  0  0  0  0  0  0
  132.8620  122.2890   61.1440 C   0  0  0  0  0  0  0  0  0  0  0  0
  132.9500  122.5700   59.6270 C   0  0  0  0  0  0  0  0  0  0  0  0
  2  1  1  6
  2  3  1  0
  3  4  1  0
  4  5  1  0
  5  6  1  6
  6  7  1  0
  7  8  2  0
  9  7  1  1
  9 10  1  0
 10 11  1  0
 11 12  1  0
 12 13  1  0
 13 14  1  0
 14 15  2  0
 14 16  2  0
 14 17  1  0
 17 18  2  0
 18 19  1  0
 19 20  2  0
 20 21  1  0
 21 22  1  0
 22 23  1  0
 23 24  2  0
 24 25  1  0
 25 26  2  0
 26 27  1  0
 27 28  2  0
 22 29  2  0
 29 30  1  0
 30 31  2  0
 13 32  1  0
  5 33  1  0
 33 34  1  0
 34  2  1  0
 32  9  1  0
 31 17  1  0
 30 20  1  0
 28 23  1  0
M  END
>  <Binding energies>  (67) 
[-10.75]

>  <Ligand effiencies>  (67) 
[-0.2986111111111111]

>  <Interactions>  (67) 
["V-B:PRO:540:CB:9857, V-B:GLU:543:CD:9880, V-B:PRO:540:CA:9855, H-B:TYR:539:N:9842, V-B:TYR:539:CE2:9848, V-B:TYR:539:CD2:9846, V-B:MET:535:CE:9807, V-B:ALA:541:CB:9864, V-B:TYR:539:CZ:9849, V-B:PRO:540:C:9853, V-B:PRO:540:N:9856, H-A:TYR:484:OH:4348, V-A:ASP:366:CA:3210, V-A:ASP:366:CG:3213, V-A:LEU:475:CD2:4259, V-A:ILE:369:CD1:3239, V-A:ASP:366:C:3208, V-A:ASP:366:CB:3212, V-A:ILE:369:CB:3236, V-A:ILE:369:CG2:3237, V-A:PRO:540:N:4884, H-B:TYR:531:OH:9767, V-A:ILE:538:CA:4860, V-A:ILE:538:CB:4862, V-A:ILE:538:CG2:4863, H-A:TYR:531:OH:4795, V-B:GLU:543:CG:9879"]

$$$$
RR12_Rahimova_2017
     RDKit          3D

 26 28  0  0  0  0  0  0  0  0999 V2000
  133.1500  124.6160   62.6010 C   0  0  0  0  0  0  0  0  0  0  0  0
  134.1050  124.1410   61.4980 C   0  0  0  0  0  0  0  0  0  0  0  0
  133.5510  122.9370   60.7140 C   0  0  0  0  0  0  0  0  0  0  0  0
  132.2590  123.2600   60.1150 N   0  0  0  0  0  0  0  0  0  0  0  0
  131.0150  122.7590   60.4700 C   0  0  0  0  0  0  0  0  0  0  0  0
  130.7990  121.7180   61.5540 C   0  0  0  0  0  0  0  0  0  0  0  0
  129.3720  121.1400   61.5360 C   0  0  0  0  0  0  0  0  0  0  0  0
  128.3460  122.0650   62.2170 C   0  0  0  0  0  0  0  0  0  0  0  0
  127.6170  122.9250   61.2860 N   0  0  0  0  0  0  0  0  0  0  0  0
  126.3050  123.2150   61.3680 C   0  0  0  0  0  0  0  0  0  0  0  0
  125.5700  122.7720   62.2530 O   0  0  0  0  0  0  0  0  0  0  0  0
  125.7630  124.1500   60.2800 C   0  0  0  0  0  0  0  0  0  0  0  0
  126.7040  124.2320   59.2090 O   0  0  0  0  0  0  0  0  0  0  0  0
  126.4130  123.6230   58.0030 C   0  0  0  0  0  0  0  0  0  0  0  0
  125.0670  123.3370   57.7610 C   0  0  0  0  0  0  0  0  0  0  0  0
  124.6760  122.7270   56.5730 C   0  0  0  0  0  0  0  0  0  0  0  0
  125.6350  122.4000   55.6180 C   0  0  0  0  0  0  0  0  0  0  0  0
  126.9820  122.6750   55.8440 C   0  0  0  0  0  0  0  0  0  0  0  0
  127.3720  123.2850   57.0340 C   0  0  0  0  0  0  0  0  0  0  0  0
  130.0330  123.2610   59.7630 N   0  0  0  0  0  0  0  0  0  0  0  0
  130.6290  124.1520   58.9150 C   0  0  0  0  0  0  0  0  0  0  0  0
  130.0400  124.9800   57.9470 C   0  0  0  0  0  0  0  0  0  0  0  0
  130.8720  125.8180   57.2050 C   0  0  0  0  0  0  0  0  0  0  0  0
  132.2510  125.8390   57.4130 C   0  0  0  0  0  0  0  0  0  0  0  0
  132.8680  125.0270   58.3670 C   0  0  0  0  0  0  0  0  0  0  0  0
  132.0320  124.1850   59.1120 C   0  0  0  0  0  0  0  0  0  0  0  0
  1  2  1  0
  2  3  1  0
  3  4  1  0
  4  5  1  0
  5  6  1  0
  6  7  1  0
  7  8  1  0
  8  9  1  0
  9 10  1  0
 10 11  2  0
 10 12  1  0
 12 13  1  0
 13 14  1  0
 14 15  2  0
 15 16  1  0
 16 17  2  0
 17 18  1  0
 18 19  2  0
  5 20  2  0
 20 21  1  0
 21 22  2  0
 22 23  1  0
 23 24  2  0
 24 25  1  0
 25 26  2  0
 26  4  1  0
 19 14  1  0
 26 21  1  0
M  END
>  <Binding energies>  (68) 
[-7.16]

>  <Ligand effiencies>  (68) 
[-0.2651851851851852]

>  <Interactions>  (68) 
["V-B:TYR:539:CD1:9845, V-B:ILE:538:CD1:9837, V-B:PRO:540:CB:9857, V-B:PRO:540:CD:9859, V-B:LEU:363:CD1:8161, V-B:PRO:540:CA:9855, V-B:ILE:538:CG2:9835, V-B:TYR:539:CE2:9848, V-B:TYR:539:CD2:9846, V-B:ILE:538:CA:9832, V-B:MET:535:CE:9807, V-B:ALA:541:CB:9864, V-B:TYR:539:CZ:9849, V-B:PRO:540:C:9853, V-B:TYR:539:CE1:9847, V-B:PRO:540:N:9856, V-B:TYR:531:CE2:9765, V-A:ASP:366:CA:3210, V-A:ASP:366:CG:3213, V-A:LEU:475:CD2:4259, V-A:ILE:369:CD1:3239, V-A:ASP:366:CB:3212, V-A:ILE:369:CG2:3237, V-B:ILE:538:C:9830, V-B:ILE:538:CB:9834, H-B:ALA:541:N:9863, V-A:ARG:545:CZ:4926, V-B:ALA:541:CA:9862"]

$$$$
RR13_Rahimova_2017
     RDKit          3D

 48 54  0  0  0  0  0  0  0  0999 V2000
  129.1170  128.7010   55.3630 Cl  0  0  0  0  0  0  0  0  0  0  0  0
  128.0280  129.2400   56.5960 C   0  0  0  0  0  0  0  0  0  0  0  0
  126.7240  129.5640   56.2150 C   0  0  0  0  0  0  0  0  0  0  0  0
  125.8060  130.0240   57.1550 C   0  0  0  0  0  0  0  0  0  0  0  0
  126.1880  130.1660   58.4860 C   0  0  0  0  0  0  0  0  0  0  0  0
  127.4870  129.8440   58.8740 C   0  0  0  0  0  0  0  0  0  0  0  0
  128.4240  129.3670   57.9430 C   0  0  0  0  0  0  0  0  0  0  0  0
  129.8650  129.0420   58.3930 C   0  0  1  0  0  0  0  0  0  0  0  0
  130.4410  130.1730   59.2580 C   0  0  0  0  0  0  0  0  0  0  0  0
  129.8820  130.7150   60.3180 N   0  0  0  0  0  0  0  0  0  0  0  0
  130.7570  131.7090   60.7450 N   0  0  0  0  0  0  0  0  0  0  0  0
  131.8520  131.7690   59.9060 N   0  0  0  0  0  0  0  0  0  0  0  0
  131.6220  130.8290   58.9830 N   0  0  0  0  0  0  0  0  0  0  0  0
  132.6010  130.5710   57.9330 C   0  0  0  0  0  0  0  0  0  0  0  0
  132.6870  131.7750   56.9760 C   0  0  0  0  0  0  0  0  0  0  0  0
  131.3850  132.0070   56.2250 C   0  0  0  0  0  0  0  0  0  0  0  0
  131.3170  131.7550   54.8520 C   0  0  0  0  0  0  0  0  0  0  0  0
  130.1270  131.9750   54.1640 C   0  0  0  0  0  0  0  0  0  0  0  0
  129.0090  132.4450   54.8510 C   0  0  0  0  0  0  0  0  0  0  0  0
  129.0710  132.6990   56.2190 C   0  0  0  0  0  0  0  0  0  0  0  0
  130.2610  132.4800   56.9090 C   0  0  0  0  0  0  0  0  0  0  0  0
  129.9960  127.7140   59.0400 N   0  0  0  0  0  0  0  0  0  0  0  0
  130.0090  126.6440   58.0260 C   0  0  0  0  0  0  0  0  0  0  0  0
  130.2780  125.2700   58.6810 C   0  0  0  0  0  0  0  0  0  0  0  0
  129.2200  124.9410   59.6510 N   0  0  0  0  0  0  0  0  0  0  0  0
  129.3940  123.5950   60.2450 C   0  0  1  0  0  0  0  0  0  0  0  0
  130.7610  123.3330   60.9140 C   0  0  0  0  0  0  0  0  0  0  0  0
  131.5360  124.4530   61.2450 C   0  0  0  0  0  0  0  0  0  0  0  0
  132.7750  124.3130   61.8680 C   0  0  0  0  0  0  0  0  0  0  0  0
  133.2630  123.0440   62.1650 C   0  0  0  0  0  0  0  0  0  0  0  0
  132.5170  121.9180   61.8300 C   0  0  0  0  0  0  0  0  0  0  0  0
  131.2750  122.0470   61.2020 C   0  0  0  0  0  0  0  0  0  0  0  0
  130.4550  120.5860   60.7640 Cl  0  0  0  0  0  0  0  0  0  0  0  0
  128.2590  123.2060   61.1950 C   0  0  0  0  0  0  0  0  0  0  0  0
  128.3920  122.4850   62.2850 N   0  0  0  0  0  0  0  0  0  0  0  0
  127.1200  122.3950   62.8410 N   0  0  0  0  0  0  0  0  0  0  0  0
  126.2160  123.0940   62.0690 N   0  0  0  0  0  0  0  0  0  0  0  0
  126.9450  123.6040   61.0700 N   0  0  0  0  0  0  0  0  0  0  0  0
  126.3040  124.4000   60.0290 C   0  0  0  0  0  0  0  0  0  0  0  0
  125.3480  123.5260   59.1970 C   0  0  0  0  0  0  0  0  0  0  0  0
  125.8970  123.2360   57.8090 C   0  0  0  0  0  0  0  0  0  0  0  0
  125.0280  122.8680   56.7770 C   0  0  0  0  0  0  0  0  0  0  0  0
  125.5310  122.6100   55.5050 C   0  0  0  0  0  0  0  0  0  0  0  0
  126.9000  122.7180   55.2680 C   0  0  0  0  0  0  0  0  0  0  0  0
  127.7710  123.0850   56.2930 C   0  0  0  0  0  0  0  0  0  0  0  0
  127.2690  123.3450   57.5650 C   0  0  0  0  0  0  0  0  0  0  0  0
  129.2140  126.0100   60.6660 C   0  0  0  0  0  0  0  0  0  0  0  0
  128.9350  127.3800   60.0060 C   0  0  0  0  0  0  0  0  0  0  0  0
  1  2  1  0
  2  3  2  0
  3  4  1  0
  4  5  2  0
  5  6  1  0
  6  7  2  0
  7  8  1  0
  8  9  1  0
  9 10  2  0
 10 11  1  0
 11 12  2  0
 12 13  1  0
 13 14  1  0
 14 15  1  0
 15 16  1  0
 16 17  2  0
 17 18  1  0
 18 19  2  0
 19 20  1  0
 20 21  2  0
  8 22  1  1
 22 23  1  0
 23 24  1  0
 24 25  1  0
 26 25  1  1
 26 27  1  0
 27 28  2  0
 28 29  1  0
 29 30  2  0
 30 31  1  0
 31 32  2  0
 32 33  1  0
 26 34  1  0
 34 35  2  0
 35 36  1  0
 36 37  2  0
 37 38  1  0
 38 39  1  0
 39 40  1  0
 40 41  1  0
 41 42  2  0
 42 43  1  0
 43 44  2  0
 44 45  1  0
 45 46  2  0
 25 47  1  0
 47 48  1  0
  7  2  1  0
 13  9  1  0
 21 16  1  0
 48 22  1  0
 32 27  1  0
 38 34  1  0
 46 41  1  0
M  END
>  <Binding energies>  (69) 
[-13.33]

>  <Ligand effiencies>  (69) 
[-0.27770833333333333]

>  <Interactions>  (69) 
["V-B:TYR:539:CD1:9845, V-B:ILE:538:CD1:9837, V-B:PRO:540:CB:9857, V-B:PRO:540:CD:9859, V-B:LEU:363:CD1:8161, V-B:PRO:540:CA:9855, V-B:ILE:538:CG2:9835, V-B:TYR:539:CE2:9848, V-B:TYR:539:CD2:9846, V-B:ILE:538:CA:9832, V-B:MET:535:CE:9807, V-B:TYR:539:CZ:9849, V-B:TYR:539:CE1:9847, V-B:PRO:540:N:9856, V-B:TYR:531:CE2:9765, V-A:ASP:366:CG:3213, V-B:TYR:539:CG:9844, V-A:LEU:475:CD2:4259, V-A:GLY:454:CA:4049, V-A:ASP:366:CB:3212, V-A:TYR:531:CZ:4794, V-A:TYR:531:CE2:4793, V-A:PRO:540:CA:4883, V-A:TYR:539:C:4867, V-A:PRO:540:N:4884, V-A:PRO:540:CB:4885, V-A:TYR:539:CE2:4876, V-A:LEU:363:CD1:3189, V-B:ILE:538:CB:9834, H-B:ALA:541:N:9863, H-A:ALA:541:N:4891, V-A:ILE:538:CA:4860, V-A:ILE:538:CB:4862, V-A:ILE:538:CG2:4863, V-A:TYR:539:CD2:4874, V-A:TYR:539:CA:4869, V-A:PRO:540:CG:4886, V-A:TYR:539:CG:4872, V-A:TYR:539:CD1:4873"]

$$$$
RR14_Rahimova_2017
     RDKit          3D

 39 43  0  0  0  0  0  0  0  0999 V2000
  132.9040  131.1110   61.5080 C   0  0  0  0  0  0  0  0  0  0  0  0
  131.6240  131.6850   61.7490 O   0  0  0  0  0  0  0  0  0  0  0  0
  130.7200  131.7750   60.7080 C   0  0  0  0  0  0  0  0  0  0  0  0
  131.1570  131.3210   59.4630 C   0  0  0  0  0  0  0  0  0  0  0  0
  130.3250  131.3950   58.3500 C   0  0  0  0  0  0  0  0  0  0  0  0
  129.0410  131.9320   58.4720 C   0  0  0  0  0  0  0  0  0  0  0  0
  128.1520  132.0750   57.2440 C   0  0  0  0  0  0  0  0  0  0  0  0
  128.9010  132.1250   55.9890 N   0  0  0  0  0  0  0  0  0  0  0  0
  129.6900  133.1690   55.7140 N   0  0  0  0  0  0  0  0  0  0  0  0
  130.2060  132.9000   54.4610 N   0  0  0  0  0  0  0  0  0  0  0  0
  129.7100  131.6880   53.9910 N   0  0  0  0  0  0  0  0  0  0  0  0
  128.9150  131.2390   54.9330 C   0  0  0  0  0  0  0  0  0  0  0  0
  128.1160  129.9450   54.8630 C   0  0  0  0  0  0  0  0  0  0  0  0
  128.5800  128.9440   55.8380 N   0  0  0  0  0  0  0  0  0  0  0  0
  127.6760  127.7900   55.9130 C   0  0  0  0  0  0  0  0  0  0  0  0
  127.2860  127.4090   57.3580 C   0  0  0  0  0  0  0  0  0  0  0  0
  127.7660  126.0040   57.7790 C   0  0  0  0  0  0  0  0  0  0  0  0
  127.1600  124.9240   56.9940 N   0  0  0  0  0  0  0  0  0  0  0  0
  126.0880  124.2750   57.7600 C   0  0  0  0  0  0  0  0  0  0  0  0
  125.4640  123.0980   56.9810 C   0  0  0  0  0  0  0  0  0  0  0  0
  126.4780  122.1800   56.5870 O   0  0  0  0  0  0  0  0  0  0  0  0
  127.4570  122.7840   55.7500 C   0  0  0  0  0  0  0  0  0  0  0  0
  128.1430  123.9510   56.4930 C   0  0  0  0  0  0  0  0  0  0  0  0
  129.9440  128.5090   55.5050 C   0  0  0  0  0  0  0  0  0  0  0  0
  130.6150  127.5760   56.5110 C   0  0  0  0  0  0  0  0  0  0  0  0
  130.4850  127.7760   57.8450 C   0  0  0  0  0  0  0  0  0  0  0  0
  131.1560  126.9120   58.8390 C   0  0  0  0  0  0  0  0  0  0  0  0
  131.0280  127.0800   60.2280 C   0  0  0  0  0  0  0  0  0  0  0  0
  130.1690  128.1880   60.8230 C   0  0  0  0  0  0  0  0  0  0  0  0
  131.7030  126.2050   61.0830 C   0  0  0  0  0  0  0  0  0  0  0  0
  132.4950  125.1780   60.5700 C   0  0  0  0  0  0  0  0  0  0  0  0
  132.6270  125.0020   59.1900 C   0  0  0  0  0  0  0  0  0  0  0  0
  133.4970  123.8700   58.6610 C   0  0  0  0  0  0  0  0  0  0  0  0
  131.9530  125.8750   58.3220 C   0  0  0  0  0  0  0  0  0  0  0  0
  132.0580  125.7380   56.9220 N   0  0  0  0  0  0  0  0  0  0  0  0
  131.4630  126.5060   55.9750 C   0  0  0  0  0  0  0  0  0  0  0  0
  131.6550  126.2830   54.7800 O   0  0  0  0  0  0  0  0  0  0  0  0
  128.5840  132.3620   59.7200 C   0  0  0  0  0  0  0  0  0  0  0  0
  129.4180  132.2890   60.8320 C   0  0  0  0  0  0  0  0  0  0  0  0
  1  2  1  0
  2  3  1  0
  3  4  2  0
  4  5  1  0
  5  6  2  0
  6  7  1  0
  7  8  1  0
  8  9  1  0
  9 10  2  0
 10 11  1  0
 11 12  2  0
 12 13  1  0
 13 14  1  0
 14 15  1  0
 15 16  1  0
 16 17  1  0
 17 18  1  0
 18 19  1  0
 19 20  1  0
 20 21  1  0
 21 22  1  0
 22 23  1  0
 14 24  1  0
 24 25  1  0
 25 26  2  0
 26 27  1  0
 27 28  2  0
 28 29  1  0
 28 30  1  0
 30 31  2  0
 31 32  1  0
 32 33  1  0
 32 34  2  0
 34 35  1  0
 35 36  1  0
 36 37  2  0
  6 38  1  0
 38 39  2  0
 39  3  1  0
 12  8  1  0
 23 18  1  0
 36 25  1  0
 34 27  1  0
M  END
>  <Binding energies>  (70) 
[-11.11]

>  <Ligand effiencies>  (70) 
[-0.27775]

>  <Interactions>  (70) 
["V-B:TYR:539:CD1:9845, V-B:PRO:540:CB:9857, V-B:PRO:540:CD:9859, H-B:TYR:539:N:9842, V-B:TYR:539:CE2:9848, V-B:MET:535:CE:9807, V-B:TYR:539:CZ:9849, V-B:TYR:539:CE1:9847, V-B:PRO:540:N:9856, V-A:ASP:366:CA:3210, V-A:ASP:366:CG:3213, V-B:TYR:539:CG:9844, V-A:ILE:369:CD1:3239, V-A:ASP:366:CB:3212, V-A:ILE:369:CB:3236, V-A:ILE:369:CG2:3237, V-A:TYR:539:CE1:4875, H-A:TYR:539:N:4870, V-A:TYR:539:CZ:4877, V-A:PRO:540:CA:4883, V-A:TYR:539:C:4867, V-A:PRO:540:CB:4885, V-A:GLU:543:CD:4908, H-A:ALA:541:N:4891, V-A:ALA:541:CB:4892, H-B:TYR:539:OH:9850, H-B:TYR:531:OH:9767, H-A:TYR:531:OH:4795, V-A:TYR:539:CD2:4874, V-A:PRO:540:C:4881, V-A:TYR:539:CG:4872, V-A:TYR:539:CD1:4873, V-A:ASN:362:CB:3176, H-A:ASP:366:O:3209"]

$$$$
RR15_Rahimova_2017
     RDKit          3D

 45 49  0  0  0  0  0  0  0  0999 V2000
  133.2490  122.7700   62.2430 C   0  0  0  0  0  0  0  0  0  0  0  0
  133.8420  123.9290   61.6680 O   0  0  0  0  0  0  0  0  0  0  0  0
  133.2960  124.4760   60.5190 C   0  0  0  0  0  0  0  0  0  0  0  0
  133.7820  124.2160   59.2280 C   0  0  0  0  0  0  0  0  0  0  0  0
  133.1870  124.8010   58.1130 C   0  0  0  0  0  0  0  0  0  0  0  0
  132.0950  125.6620   58.2540 C   0  0  0  0  0  0  0  0  0  0  0  0
  131.4570  126.2990   57.0500 C   0  0  0  0  0  0  0  0  0  0  0  0
  131.9240  126.1420   55.8190 N   0  0  0  0  0  0  0  0  0  0  0  0
  131.0920  126.8750   54.9980 N   0  0  0  0  0  0  0  0  0  0  0  0
  130.1780  127.3670   55.8360 N   0  0  0  0  0  0  0  0  0  0  0  0
  129.1820  128.3470   55.4070 C   0  0  0  0  0  0  0  0  0  0  0  0
  127.8270  128.2650   56.1530 C   0  0  0  0  0  0  0  0  0  0  0  0
  126.8900  127.6850   55.5980 O   0  0  0  0  0  0  0  0  0  0  0  0
  127.7100  128.8030   57.4060 N   0  0  0  0  0  0  0  0  0  0  0  0
  127.7880  127.9590   58.6140 C   0  0  0  0  0  0  0  0  0  0  0  0
  127.0050  126.6340   58.4940 C   0  0  0  0  0  0  0  0  0  0  0  0
  127.8330  125.4350   57.9740 C   0  0  0  0  0  0  0  0  0  0  0  0
  127.0990  124.5680   57.0480 N   0  0  0  0  0  0  0  0  0  0  0  0
  127.9610  123.6300   56.3120 C   0  0  0  0  0  0  0  0  0  0  0  0
  127.1320  122.6840   55.4170 C   0  0  0  0  0  0  0  0  0  0  0  0
  126.1440  122.0130   56.1930 O   0  0  0  0  0  0  0  0  0  0  0  0
  125.2440  122.9170   56.8240 C   0  0  0  0  0  0  0  0  0  0  0  0
  126.0210  123.8670   57.7600 C   0  0  0  0  0  0  0  0  0  0  0  0
  127.6900  130.2750   57.6700 C   0  0  2  0  0  0  0  0  0  0  0  0
  127.6210  131.1520   56.3810 C   0  0  0  0  0  0  0  0  0  0  0  0
  126.6070  131.1790   55.6850 O   0  0  0  0  0  0  0  0  0  0  0  0
  128.7150  131.8900   56.1210 N   0  0  0  0  0  0  0  0  0  0  0  0
  128.8410  132.8570   55.0360 C   0  0  0  0  0  0  0  0  0  0  0  0
  130.2430  132.8010   54.4010 C   0  0  2  0  0  0  0  0  0  0  0  0
  130.8900  131.4060   54.3520 C   0  0  0  0  0  0  0  0  0  0  0  0
  131.8730  131.4030   55.4970 C   0  0  0  0  0  0  0  0  0  0  0  0
  132.3200  132.8550   55.5110 C   0  0  0  0  0  0  0  0  0  0  0  0
  131.1040  133.5530   55.2670 O   0  0  0  0  0  0  0  0  0  0  0  0
  128.7330  130.6470   58.7170 C   0  0  0  0  0  0  0  0  0  0  0  0
  128.3140  131.3780   59.8360 C   0  0  0  0  0  0  0  0  0  0  0  0
  129.2220  131.7460   60.8240 C   0  0  0  0  0  0  0  0  0  0  0  0
  130.5600  131.3840   60.7010 C   0  0  0  0  0  0  0  0  0  0  0  0
  131.4430  131.7410   61.6610 F   0  0  0  0  0  0  0  0  0  0  0  0
  130.9960  130.6560   59.5970 C   0  0  0  0  0  0  0  0  0  0  0  0
  130.0870  130.2890   58.6090 C   0  0  0  0  0  0  0  0  0  0  0  0
  130.3870  127.0690   57.1240 N   0  0  0  0  0  0  0  0  0  0  0  0
  131.6110  125.9180   59.5430 C   0  0  0  0  0  0  0  0  0  0  0  0
  132.1970  125.3330   60.6780 C   0  0  0  0  0  0  0  0  0  0  0  0
  131.7540  125.5520   61.9710 O   0  0  0  0  0  0  0  0  0  0  0  0
  130.6880  126.4660   62.2030 C   0  0  0  0  0  0  0  0  0  0  0  0
  1  2  1  0
  2  3  1  0
  3  4  2  0
  4  5  1  0
  5  6  2  0
  6  7  1  0
  7  8  1  0
  8  9  2  0
  9 10  1  0
 10 11  1  0
 11 12  1  0
 12 13  2  0
 12 14  1  0
 14 15  1  0
 15 16  1  0
 16 17  1  0
 17 18  1  0
 18 19  1  0
 19 20  1  0
 20 21  1  0
 21 22  1  0
 22 23  1  0
 24 14  1  6
 24 25  1  0
 25 26  2  0
 25 27  1  0
 27 28  1  0
 29 28  1  1
 29 30  1  0
 30 31  1  0
 31 32  1  0
 32 33  1  0
 24 34  1  0
 34 35  2  0
 35 36  1  0
 36 37  2  0
 37 38  1  0
 37 39  1  0
 39 40  2  0
 10 41  1  0
  6 42  1  0
 42 43  2  0
 43 44  1  0
 44 45  1  0
 43  3  1  0
 41  7  2  0
 23 18  1  0
 33 29  1  0
 40 34  1  0
M  END
>  <Binding energies>  (71) 
[-10.11]

>  <Ligand effiencies>  (71) 
[-0.21978260869565217]

>  <Interactions>  (71) 
["V-B:TYR:539:CD1:9845, V-B:PRO:540:CB:9857, V-B:PRO:540:CD:9859, V-B:LEU:363:CD1:8161, H-B:TYR:539:N:9842, V-B:TYR:539:CE2:9848, V-B:ILE:538:CA:9832, V-B:MET:535:CE:9807, V-B:TYR:539:CZ:9849, V-B:TYR:539:CE1:9847, V-B:PRO:540:N:9856, V-A:ASP:366:CA:3210, V-A:ASP:366:CG:3213, V-A:LEU:475:CD2:4259, V-A:ILE:369:CD1:3239, V-A:ASP:366:C:3208, V-A:GLY:454:CA:4049, V-A:ASP:366:CB:3212, V-A:ILE:369:CB:3236, V-A:ILE:369:CG2:3237, V-A:TYR:539:CE1:4875, V-A:TYR:531:CZ:4794, H-A:TYR:539:N:4870, V-A:TYR:539:CZ:4877, V-A:TYR:531:CE2:4793, V-A:PRO:540:CA:4883, V-A:PRO:540:N:4884, V-A:PRO:540:CB:4885, V-A:TYR:539:CE2:4876, H-B:LYS:534:NZ:9795, V-A:LEU:363:CD1:3189, V-A:GLU:543:CD:4908, H-A:GLY:454:N:4050, H-A:ARG:545:NH2:4928, V-A:ALA:541:CB:4892, V-A:PRO:540:CD:4887, V-A:GLU:543:CG:4907, H-B:TYR:539:OH:9850, H-B:TYR:531:OH:9767, V-A:ILE:538:CA:4860, V-A:ILE:538:CB:4862, V-A:ILE:538:CG2:4863, H-A:TYR:531:OH:4795, H-A:TYR:539:OH:4878, V-A:ILE:538:C:4858, V-A:TYR:539:CD2:4874, V-A:PRO:540:C:4881, V-A:PRO:540:CG:4886, V-A:TYR:539:CG:4872, V-A:TYR:539:CD1:4873, V-A:ALA:541:CA:4890, V-A:ALA:541:C:4888"]

$$$$
RR17_Rahimova_2017
     RDKit          3D

 38 41  0  0  0  0  0  0  0  0999 V2000
  132.4750  131.7220   56.6730 C   0  0  0  0  0  0  0  0  0  0  0  0
  132.4360  132.7230   55.5140 C   0  0  0  0  0  0  0  0  0  0  0  0
  131.1200  133.2610   55.4180 O   0  0  0  0  0  0  0  0  0  0  0  0
  130.0360  132.4020   55.4040 C   0  0  0  0  0  0  0  0  0  0  0  0
  129.1230  132.5360   56.4490 C   0  0  0  0  0  0  0  0  0  0  0  0
  128.0020  131.7150   56.5200 C   0  0  0  0  0  0  0  0  0  0  0  0
  127.7710  130.7360   55.5430 C   0  0  0  0  0  0  0  0  0  0  0  0
  126.5530  129.8650   55.6460 C   0  0  0  0  0  0  0  0  0  0  0  0
  126.4950  128.7450   55.1300 O   0  0  0  0  0  0  0  0  0  0  0  0
  125.3450  130.4380   56.4200 C   0  0  0  0  0  0  0  0  0  0  0  0
  125.7320  130.7300   58.1830 S   0  0  0  0  0  0  0  0  0  0  0  0
  126.1560  129.0840   58.6790 C   0  0  0  0  0  0  0  0  0  0  0  0
  125.4350  128.0110   58.4480 N   0  0  0  0  0  0  0  0  0  0  0  0
  126.1100  126.9220   58.9850 N   0  0  0  0  0  0  0  0  0  0  0  0
  127.2160  127.3770   59.5180 C   0  0  0  0  0  0  0  0  0  0  0  0
  128.2610  126.5140   60.2080 C   0  0  0  0  0  0  0  0  0  0  0  0
  127.9890  125.0810   60.1280 N   0  0  0  0  0  0  0  0  0  0  0  0
  127.5020  124.4420   58.9730 C   0  0  0  0  0  0  0  0  0  0  0  0
  128.2830  124.5160   57.8200 C   0  0  0  0  0  0  0  0  0  0  0  0
  127.8570  123.9110   56.6410 C   0  0  0  0  0  0  0  0  0  0  0  0
  126.6430  123.2190   56.6040 C   0  0  0  0  0  0  0  0  0  0  0  0
  126.1870  122.5650   55.3000 C   0  0  0  0  0  0  0  0  0  0  0  0
  125.2480  121.6370   55.5000 F   0  0  0  0  0  0  0  0  0  0  0  0
  125.6870  123.4820   54.4690 F   0  0  0  0  0  0  0  0  0  0  0  0
  127.2330  121.9820   54.7140 F   0  0  0  0  0  0  0  0  0  0  0  0
  125.8620  123.1370   57.7610 C   0  0  0  0  0  0  0  0  0  0  0  0
  126.2890  123.7410   58.9400 C   0  0  0  0  0  0  0  0  0  0  0  0
  127.3020  128.7460   59.3690 N   0  0  0  0  0  0  0  0  0  0  0  0
  128.3360  129.5940   59.7940 C   0  0  0  0  0  0  0  0  0  0  0  0
  128.1250  130.4450   60.8780 C   0  0  0  0  0  0  0  0  0  0  0  0
  129.1500  131.2890   61.2970 C   0  0  0  0  0  0  0  0  0  0  0  0
  130.3880  131.2830   60.6340 C   0  0  0  0  0  0  0  0  0  0  0  0
  131.4600  132.0830   60.9800 O   0  0  0  0  0  0  0  0  0  0  0  0
  132.7170  131.4770   61.2620 C   0  0  0  0  0  0  0  0  0  0  0  0
  130.5800  130.4250   59.5490 C   0  0  0  0  0  0  0  0  0  0  0  0
  129.5600  129.5780   59.1250 C   0  0  0  0  0  0  0  0  0  0  0  0
  128.6910  130.6030   54.4920 C   0  0  0  0  0  0  0  0  0  0  0  0
  129.8110  131.4260   54.4220 C   0  0  0  0  0  0  0  0  0  0  0  0
  1  2  1  0
  2  3  1  0
  3  4  1  0
  4  5  2  0
  5  6  1  0
  6  7  2  0
  7  8  1  0
  8  9  2  0
  8 10  1  0
 10 11  1  0
 11 12  1  0
 12 13  2  0
 13 14  1  0
 14 15  2  0
 15 16  1  0
 16 17  1  0
 17 18  1  0
 18 19  2  0
 19 20  1  0
 20 21  2  0
 21 22  1  0
 22 23  1  0
 22 24  1  0
 22 25  1  0
 21 26  1  0
 26 27  2  0
 15 28  1  0
 28 29  1  0
 29 30  2  0
 30 31  1  0
 31 32  2  0
 32 33  1  0
 33 34  1  0
 32 35  1  0
 35 36  2  0
  7 37  1  0
 37 38  2  0
 38  4  1  0
 28 12  1  0
 36 29  1  0
 27 18  1  0
M  END
>  <Binding energies>  (72) 
[-9.19]

>  <Ligand effiencies>  (72) 
[-0.23564102564102563]

>  <Interactions>  (72) 
["V-B:TYR:539:CD1:9845, V-B:ILE:538:CD1:9837, V-B:PRO:540:CB:9857, V-B:PRO:540:CD:9859, V-B:PRO:540:CA:9855, V-B:ILE:538:CG2:9835, H-B:GLU:543:OE1:9881, V-B:ILE:538:CA:9832, V-B:MET:535:CE:9807, V-B:TYR:539:CZ:9849, V-B:TYR:539:CE1:9847, V-B:PRO:540:N:9856, V-B:TYR:531:CE2:9765, V-B:TYR:539:CG:9844, V-B:TYR:531:CZ:9766, V-A:TYR:539:CE1:4875, V-B:TYR:531:CE1:9764, H-A:TYR:539:N:4870, V-A:TYR:539:CZ:4877, V-A:PRO:540:CA:4883, V-A:TYR:539:C:4867, V-A:PRO:540:N:4884, V-A:PRO:540:CB:4885, V-A:TYR:539:CE2:4876, H-B:LYS:534:NZ:9795, V-A:LEU:363:CD1:3189, V-B:ILE:538:C:9830, V-B:ILE:538:CB:9834, H-A:ALA:541:N:4891, V-A:PRO:540:CD:4887, H-B:TYR:531:OH:9767, V-A:ILE:538:CB:4862, V-A:ILE:538:CG2:4863, V-B:ILE:538:CG1:9836, V-A:TYR:539:CD2:4874, V-A:PRO:540:CG:4886, V-A:TYR:539:CG:4872, V-A:TYR:539:CD1:4873, V-B:MET:535:CG:9805, V-A:ASN:362:CB:3176, V-B:MET:535:CB:9804, V-B:VAL:537:C:9822"]

$$$$
RR19_Rahimova_2017
     RDKit          3D

 46 51  0  0  0  0  0  0  0  0999 V2000
  129.1190  125.5750   62.3550 O   0  0  0  0  0  0  0  0  0  0  0  0
  128.6420  125.1720   61.2900 C   0  0  0  0  0  0  0  0  0  0  0  0
  128.8780  125.6980   60.0610 N   0  0  0  0  0  0  0  0  0  0  0  0
  129.7980  126.6030   59.5920 C   0  0  0  0  0  0  0  0  0  0  0  0
  131.1420  127.1760   60.4470 S   0  0  0  0  0  0  0  0  0  0  0  0
  129.4480  126.9630   58.3140 N   0  0  0  0  0  0  0  0  0  0  0  0
  130.0700  127.6970   57.3570 C   0  0  0  0  0  0  0  0  0  0  0  0
  131.2420  128.0800   57.3760 O   0  0  0  0  0  0  0  0  0  0  0  0
  129.1580  128.0760   56.1640 C   0  0  2  0  0  0  0  0  0  0  0  0
  129.8910  128.7610   54.9740 C   0  0  0  0  0  0  0  0  0  0  0  0
  129.6610  130.2590   54.8480 C   0  0  0  0  0  0  0  0  0  0  0  0
  128.8910  130.7860   53.7880 C   0  0  0  0  0  0  0  0  0  0  0  0
  128.6260  132.1480   53.7330 C   0  0  0  0  0  0  0  0  0  0  0  0
  129.0990  132.9950   54.7280 C   0  0  0  0  0  0  0  0  0  0  0  0
  129.8320  132.4860   55.7930 C   0  0  0  0  0  0  0  0  0  0  0  0
  130.1060  131.1270   55.8680 C   0  0  0  0  0  0  0  0  0  0  0  0
  127.9830  128.8710   56.6130 N   0  0  0  0  0  0  0  0  0  0  0  0
  126.8410  128.9310   55.8700 C   0  0  0  0  0  0  0  0  0  0  0  0
  126.6320  128.3990   54.7780 O   0  0  0  0  0  0  0  0  0  0  0  0
  125.9000  129.7670   56.6550 C   0  0  0  0  0  0  0  0  0  0  0  0
  124.5910  130.1700   56.3860 C   0  0  0  0  0  0  0  0  0  0  0  0
  123.9280  130.9650   57.3270 C   0  0  0  0  0  0  0  0  0  0  0  0
  124.5740  131.3430   58.5130 C   0  0  0  0  0  0  0  0  0  0  0  0
  125.8860  130.9280   58.7640 C   0  0  0  0  0  0  0  0  0  0  0  0
  126.5300  130.1360   57.8120 C   0  0  0  0  0  0  0  0  0  0  0  0
  127.8910  129.5450   57.7990 C   0  0  0  0  0  0  0  0  0  0  0  0
  128.7500  129.6360   58.6780 O   0  0  0  0  0  0  0  0  0  0  0  0
  127.6650  123.9660   61.2960 C   0  0  2  0  0  0  0  0  0  0  0  0
  128.2310  122.7000   62.0030 C   0  0  0  0  0  0  0  0  0  0  0  0
  129.6500  122.3480   61.5940 C   0  0  0  0  0  0  0  0  0  0  0  0
  129.9060  121.1590   60.8780 C   0  0  0  0  0  0  0  0  0  0  0  0
  131.1890  120.8890   60.4170 C   0  0  0  0  0  0  0  0  0  0  0  0
  132.2160  121.7980   60.6320 C   0  0  0  0  0  0  0  0  0  0  0  0
  131.9700  122.9910   61.3000 C   0  0  0  0  0  0  0  0  0  0  0  0
  130.6950  123.2790   61.7710 C   0  0  0  0  0  0  0  0  0  0  0  0
  127.1200  123.6400   59.9470 N   0  0  0  0  0  0  0  0  0  0  0  0
  127.9340  123.3220   58.9020 C   0  0  0  0  0  0  0  0  0  0  0  0
  129.1640  123.2750   58.9020 O   0  0  0  0  0  0  0  0  0  0  0  0
  127.0230  123.0440   57.7640 C   0  0  0  0  0  0  0  0  0  0  0  0
  127.2930  122.6780   56.4450 C   0  0  0  0  0  0  0  0  0  0  0  0
  126.2180  122.4740   55.5720 C   0  0  0  0  0  0  0  0  0  0  0  0
  124.9010  122.6340   56.0250 C   0  0  0  0  0  0  0  0  0  0  0  0
  124.6510  122.9990   57.3520 C   0  0  0  0  0  0  0  0  0  0  0  0
  125.7370  123.2000   58.2060 C   0  0  0  0  0  0  0  0  0  0  0  0
  125.7900  123.5820   59.6380 C   0  0  0  0  0  0  0  0  0  0  0  0
  124.8380  123.8000   60.3880 O   0  0  0  0  0  0  0  0  0  0  0  0
  1  2  2  0
  2  3  1  0
  3  4  1  0
  4  5  2  0
  4  6  1  0
  6  7  1  0
  7  8  2  0
  7  9  1  0
  9 10  1  6
 10 11  1  0
 11 12  2  0
 12 13  1  0
 13 14  2  0
 14 15  1  0
 15 16  2  0
  9 17  1  0
 17 18  1  0
 18 19  2  0
 18 20  1  0
 20 21  2  0
 21 22  1  0
 22 23  2  0
 23 24  1  0
 24 25  2  0
 25 26  1  0
 26 27  2  0
  2 28  1  0
 28 29  1  6
 29 30  1  0
 30 31  2  0
 31 32  1  0
 32 33  2  0
 33 34  1  0
 34 35  2  0
 28 36  1  0
 36 37  1  0
 37 38  2  0
 37 39  1  0
 39 40  2  0
 40 41  1  0
 41 42  2  0
 42 43  1  0
 43 44  2  0
 44 45  1  0
 45 46  2  0
 16 11  1  0
 26 17  1  0
 35 30  1  0
 45 36  1  0
 25 20  1  0
 44 39  1  0
M  END
>  <Binding energies>  (73) 
[-11.91]

>  <Ligand effiencies>  (73) 
[-0.248125]

>  <Interactions>  (73) 
["V-B:TYR:539:CD1:9845, V-B:ILE:538:CD1:9837, V-B:PRO:540:CB:9857, V-B:PRO:540:CD:9859, V-B:LEU:363:CD1:8161, V-B:GLU:543:CD:9880, V-B:TYR:539:C:9839, V-B:PRO:540:CA:9855, V-B:ILE:538:CG2:9835, V-B:TYR:539:CE2:9848, V-B:TYR:539:CD2:9846, V-B:ILE:538:CA:9832, V-B:MET:535:CE:9807, V-B:ALA:541:CB:9864, V-B:TYR:539:CZ:9849, V-B:TYR:539:CE1:9847, V-B:PRO:540:N:9856, V-B:TYR:531:CE2:9765, V-A:ASP:366:CG:3213, V-B:TYR:539:CG:9844, V-A:LEU:475:CD2:4259, V-A:TYR:539:CE1:4875, V-B:TYR:531:CE1:9764, V-A:TYR:539:CZ:4877, V-A:TYR:539:C:4867, V-A:MET:535:CE:4835, V-A:TYR:539:CE2:4876, H-B:LYS:534:NZ:9795, V-B:ILE:538:C:9830, H-B:TYR:531:OH:9767, V-A:ILE:538:CA:4860, H-A:TYR:531:OH:4795, V-B:PRO:540:CG:9858, V-A:ILE:538:C:4858, V-A:TYR:539:CD2:4874, V-A:TYR:539:CG:4872, V-B:ASP:366:C:8180, V-B:ASP:366:CA:8182"]

$$$$
RR1_Rahimova_2017
     RDKit          3D

 41 44  0  0  0  0  0  0  0  0999 V2000
  132.4930  132.5250   55.8300 C   0  0  0  0  0  0  0  0  0  0  0  0
  131.3870  133.0910   55.1360 O   0  0  0  0  0  0  0  0  0  0  0  0
  130.1150  132.6160   55.3940 C   0  0  0  0  0  0  0  0  0  0  0  0
  129.5670  132.4790   56.6790 C   0  0  0  0  0  0  0  0  0  0  0  0
  128.2770  131.9830   56.8420 C   0  0  0  0  0  0  0  0  0  0  0  0
  127.5130  131.6230   55.7310 C   0  0  0  0  0  0  0  0  0  0  0  0
  126.2380  131.0890   56.0020 N   0  0  0  0  0  0  0  0  0  0  0  0
  125.7550  129.8550   55.7420 C   0  0  0  0  0  0  0  0  0  0  0  0
  126.3650  128.9770   55.1330 O   0  0  0  0  0  0  0  0  0  0  0  0
  124.3330  129.6010   56.2680 C   0  0  0  0  0  0  0  0  0  0  0  0
  123.9200  130.4310   57.8420 S   0  0  0  0  0  0  0  0  0  0  0  0
  125.4210  130.0830   58.6970 C   0  0  0  0  0  0  0  0  0  0  0  0
  126.0990  130.9690   59.3830 N   0  0  0  0  0  0  0  0  0  0  0  0
  127.1320  130.2800   59.8580 C   0  0  0  0  0  0  0  0  0  0  0  0
  128.1830  130.9060   60.7300 C   0  0  0  0  0  0  0  0  0  0  0  0
  127.9450  131.1780   62.0870 C   0  0  0  0  0  0  0  0  0  0  0  0
  128.9410  131.7630   62.8710 C   0  0  0  0  0  0  0  0  0  0  0  0
  130.1640  132.0660   62.2750 C   0  0  0  0  0  0  0  0  0  0  0  0
  130.4270  131.8180   60.9680 N   0  0  0  0  0  0  0  0  0  0  0  0
  129.4470  131.2470   60.2220 C   0  0  0  0  0  0  0  0  0  0  0  0
  127.1680  129.0060   59.5150 N   0  0  0  0  0  0  0  0  0  0  0  0
  126.0680  128.8770   58.7670 N   0  0  0  0  0  0  0  0  0  0  0  0
  125.7080  127.5810   58.1920 C   0  0  0  0  0  0  0  0  0  0  0  0
  126.4970  126.3820   58.7460 C   0  0  0  0  0  0  0  0  0  0  0  0
  126.0080  125.2470   58.7440 O   0  0  0  0  0  0  0  0  0  0  0  0
  127.7230  126.6780   59.2180 N   0  0  0  0  0  0  0  0  0  0  0  0
  128.5490  125.6290   59.5980 N   0  0  0  0  0  0  0  0  0  0  0  0
  129.8780  125.8640   59.6600 C   0  0  0  0  0  0  0  0  0  0  0  0
  130.3930  126.9760   59.5010 O   0  0  0  0  0  0  0  0  0  0  0  0
  130.7420  124.6590   59.9720 C   0  0  0  0  0  0  0  0  0  0  0  0
  131.9710  124.4940   59.3240 C   0  0  0  0  0  0  0  0  0  0  0  0
  132.7750  123.3900   59.5870 C   0  0  0  0  0  0  0  0  0  0  0  0
  132.3690  122.4080   60.5050 C   0  0  0  0  0  0  0  0  0  0  0  0
  133.1140  121.2810   60.8010 O   0  0  0  0  0  0  0  0  0  0  0  0
  132.9260  120.0960   60.0370 C   0  0  0  0  0  0  0  0  0  0  0  0
  131.1380  122.5510   61.1600 C   0  0  0  0  0  0  0  0  0  0  0  0
  130.7750  121.5460   62.0400 O   0  0  0  0  0  0  0  0  0  0  0  0
  129.5900  120.7960   61.8010 C   0  0  0  0  0  0  0  0  0  0  0  0
  130.3380  123.6760   60.8900 C   0  0  0  0  0  0  0  0  0  0  0  0
  128.0570  131.7590   54.4450 C   0  0  0  0  0  0  0  0  0  0  0  0
  129.3480  132.2560   54.2860 C   0  0  0  0  0  0  0  0  0  0  0  0
  1  2  1  0
  2  3  1  0
  3  4  2  0
  4  5  1  0
  5  6  2  0
  6  7  1  0
  7  8  1  0
  8  9  2  0
  8 10  1  0
 10 11  1  0
 11 12  1  0
 12 13  2  0
 13 14  1  0
 14 15  1  0
 15 16  2  0
 16 17  1  0
 17 18  2  0
 18 19  1  0
 19 20  2  0
 14 21  2  0
 21 22  1  0
 22 23  1  0
 23 24  1  0
 24 25  2  0
 24 26  1  0
 26 27  1  0
 27 28  1  0
 28 29  2  0
 28 30  1  0
 30 31  2  0
 31 32  1  0
 32 33  2  0
 33 34  1  0
 34 35  1  0
 33 36  1  0
 36 37  1  0
 37 38  1  0
 36 39  2  0
  6 40  1  0
 40 41  2  0
 41  3  1  0
 22 12  1  0
 39 30  1  0
 20 15  1  0
M  END
>  <Binding energies>  (74) 
[-7.67]

>  <Ligand effiencies>  (74) 
[-0.17431818181818182]

>  <Interactions>  (74) 
["V-B:TYR:539:CE2:9848, V-B:TYR:539:CD2:9846, V-B:ALA:541:CB:9864, V-A:SER:385:CB:3409, H-A:TYR:484:OH:4348, V-A:LEU:475:CD2:4259, V-B:TYR:531:CZ:9766, V-A:ILE:369:CG2:3237, V-A:TYR:539:CE1:4875, V-B:TYR:531:CE1:9764, H-A:TYR:539:N:4870, V-B:ASP:366:CG:8185, V-A:TYR:539:CZ:4877, V-A:TYR:539:C:4867, V-A:PRO:540:N:4884, V-A:PRO:540:CB:4885, V-B:ASP:366:CB:8184, V-A:TYR:539:CE2:4876, H-B:LYS:534:NZ:9795, V-A:LEU:363:CD1:3189, V-A:GLU:543:CD:4908, H-A:ALA:541:N:4891, V-A:ALA:541:CB:4892, V-A:PRO:540:CD:4887, V-A:GLU:543:CG:4907, H-B:TYR:531:OH:9767, V-A:ILE:538:CA:4860, V-A:ILE:538:CB:4862, H-A:TYR:539:OH:4878, V-A:TYR:539:CD2:4874, V-A:PRO:540:CG:4886, V-A:TYR:539:CG:4872, V-A:TYR:539:CD1:4873, V-B:ASP:366:C:8180, V-B:TYR:531:CD1:9762, V-A:ALA:541:CA:4890, V-A:SER:385:CA:3407, V-A:ALA:541:C:4888"]

$$$$
RR22_Rahimova_2017
     RDKit          3D

 31 36  0  0  0  0  0  0  0  0999 V2000
  124.2320  130.2500   54.4080 O   0  0  0  0  0  0  0  0  0  0  0  0
  124.9520  130.2820   55.4030 C   0  0  0  0  0  0  0  0  0  0  0  0
  124.5700  130.1500   56.7270 N   0  0  0  0  0  0  0  0  0  0  0  0
  125.5480  130.1500   57.7710 C   0  0  1  0  0  0  0  0  0  0  0  0
  125.1460  131.1940   58.6620 O   0  0  0  0  0  0  0  0  0  0  0  0
  124.8610  130.8620   59.9870 C   0  0  0  0  0  0  0  0  0  0  0  0
  124.1320  131.7990   60.7200 C   0  0  0  0  0  0  0  0  0  0  0  0
  123.8430  131.5550   62.0630 C   0  0  0  0  0  0  0  0  0  0  0  0
  124.2900  130.3830   62.6720 C   0  0  0  0  0  0  0  0  0  0  0  0
  125.0200  129.4460   61.9390 C   0  0  0  0  0  0  0  0  0  0  0  0
  125.2960  129.6650   60.5850 C   0  0  0  0  0  0  0  0  0  0  0  0
  126.1140  128.7350   59.7170 C   0  0  1  0  0  0  0  0  0  0  0  0
  126.1260  127.2330   59.9180 C   0  0  0  0  0  0  0  0  0  0  0  0
  126.3770  126.7780   58.4780 C   0  0  0  0  0  0  0  0  0  0  0  0
  126.8640  125.4260   58.1410 C   0  0  0  0  0  0  0  0  0  0  0  0
  128.2130  125.2130   57.8190 C   0  0  0  0  0  0  0  0  0  0  0  0
  128.6670  123.9350   57.5040 C   0  0  0  0  0  0  0  0  0  0  0  0
  127.7770  122.8640   57.5080 C   0  0  0  0  0  0  0  0  0  0  0  0
  126.4360  123.0590   57.8260 C   0  0  0  0  0  0  0  0  0  0  0  0
  125.9800  124.3360   58.1420 C   0  0  0  0  0  0  0  0  0  0  0  0
  126.0870  127.7050   57.6440 N   0  0  0  0  0  0  0  0  0  0  0  0
  125.6220  128.8110   58.3750 N   0  0  0  0  0  0  0  0  0  0  0  0
  126.8610  130.5850   57.1370 C   0  0  0  0  0  0  0  0  0  0  0  0
  127.9180  131.0270   57.8590 C   0  0  0  0  0  0  0  0  0  0  0  0
  129.2450  131.4580   57.3780 C   0  0  0  0  0  0  0  0  0  0  0  0
  130.4480  130.9490   57.8870 C   0  0  0  0  0  0  0  0  0  0  0  0
  131.6670  131.4040   57.3830 C   0  0  0  0  0  0  0  0  0  0  0  0
  131.6520  132.3710   56.3780 C   0  0  0  0  0  0  0  0  0  0  0  0
  130.5040  132.8870   55.8720 N   0  0  0  0  0  0  0  0  0  0  0  0
  129.3280  132.4310   56.3750 C   0  0  0  0  0  0  0  0  0  0  0  0
  126.7540  130.5220   55.3720 S   0  0  0  0  0  0  0  0  0  0  0  0
  1  2  2  0
  2  3  1  0
  4  3  1  6
  4  5  1  0
  5  6  1  0
  6  7  2  0
  7  8  1  0
  8  9  2  0
  9 10  1  0
 10 11  2  0
 11 12  1  0
 12 13  1  1
 13 14  1  0
 14 15  1  0
 15 16  2  0
 16 17  1  0
 17 18  2  0
 18 19  1  0
 19 20  2  0
 14 21  2  0
 21 22  1  0
  4 23  1  0
 23 24  2  0
 24 25  1  0
 25 26  2  0
 26 27  1  0
 27 28  2  0
 28 29  1  0
 29 30  2  0
 23 31  1  0
 31  2  1  0
 22  4  1  0
 30 25  1  0
 11  6  1  0
 22 12  1  0
 20 15  1  0
M  END
>  <Binding energies>  (75) 
[-9.29]

>  <Ligand effiencies>  (75) 
[-0.2903125]

>  <Interactions>  (75) 
["V-B:PRO:540:CB:9857, V-B:TYR:539:C:9839, V-B:PRO:540:CA:9855, V-B:TYR:539:CE2:9848, V-B:TYR:539:CD2:9846, V-B:TYR:539:CZ:9849, V-B:PRO:540:N:9856, V-B:TYR:539:CG:9844, V-A:TYR:539:CE1:4875, V-B:TYR:531:CE1:9764, H-A:TYR:539:N:4870, V-B:ASP:366:CG:8185, V-A:TYR:539:CZ:4877, V-A:PRO:540:CA:4883, V-A:TYR:539:C:4867, V-A:PRO:540:N:4884, V-A:PRO:540:CB:4885, V-B:ASP:366:CB:8184, H-B:LYS:534:NZ:9795, V-A:PRO:540:CD:4887, H-B:TYR:531:OH:9767, H-A:TYR:539:OH:4878, V-B:ILE:369:CD1:8211, V-A:TYR:539:CG:4872, H-B:ASP:366:O:8181, V-B:TYR:531:CD1:9762"]

$$$$
RR24_Rahimova_2017
     RDKit          3D

 43 49  0  0  0  0  0  0  0  0999 V2000
  126.1480  130.8950   58.1180 C   0  0  0  0  0  0  0  0  0  0  0  0
  126.5340  131.0330   56.6380 C   0  0  2  0  0  0  0  0  0  0  0  0
  126.0480  129.8400   55.7630 C   0  0  0  0  0  0  0  0  0  0  0  0
  124.9830  129.8750   55.1380 O   0  0  0  0  0  0  0  0  0  0  0  0
  126.9080  128.7800   55.7990 O   0  0  0  0  0  0  0  0  0  0  0  0
  127.1800  128.1670   57.0010 C   0  0  0  0  0  0  0  0  0  0  0  0
  126.1310  127.6240   57.7460 C   0  0  0  0  0  0  0  0  0  0  0  0
  126.3950  126.9920   58.9580 C   0  0  0  0  0  0  0  0  0  0  0  0
  127.7090  126.8940   59.4260 C   0  0  0  0  0  0  0  0  0  0  0  0
  127.9910  126.2150   60.7720 C   0  0  1  0  0  0  0  0  0  0  0  0
  129.4020  125.5820   60.8140 C   0  0  0  0  0  0  0  0  0  0  0  0
  130.2750  125.8150   61.8120 C   0  0  0  0  0  0  0  0  0  0  0  0
  129.9750  126.6380   62.8690 N   0  0  0  0  0  0  0  0  0  0  0  0
  128.7580  127.2710   62.9600 C   0  0  0  0  0  0  0  0  0  0  0  0
  128.6170  128.0410   64.0700 N   0  0  0  0  0  0  0  0  0  0  0  0
  127.5110  128.8030   64.2910 C   0  0  0  0  0  0  0  0  0  0  0  0
  127.5610  129.7090   65.1240 O   0  0  0  0  0  0  0  0  0  0  0  0
  126.4730  128.5650   63.4030 N   0  0  0  0  0  0  0  0  0  0  0  0
  125.2170  129.3010   63.6540 C   0  0  0  0  0  0  0  0  0  0  0  0
  126.5090  127.8050   62.2460 C   0  0  0  0  0  0  0  0  0  0  0  0
  125.5560  127.6790   61.4710 O   0  0  0  0  0  0  0  0  0  0  0  0
  127.7890  127.1270   62.0180 C   0  0  0  0  0  0  0  0  0  0  0  0
  131.5170  125.0940   61.5920 C   0  0  0  0  0  0  0  0  0  0  0  0
  132.7080  125.0070   62.3140 C   0  0  0  0  0  0  0  0  0  0  0  0
  133.7450  124.2080   61.8260 C   0  0  0  0  0  0  0  0  0  0  0  0
  133.5870  123.5030   60.6290 C   0  0  0  0  0  0  0  0  0  0  0  0
  132.3910  123.5930   59.9100 C   0  0  0  0  0  0  0  0  0  0  0  0
  131.3590  124.3950   60.4020 C   0  0  0  0  0  0  0  0  0  0  0  0
  130.0120  124.6650   59.8570 C   0  0  0  0  0  0  0  0  0  0  0  0
  129.4770  124.2410   58.8340 O   0  0  0  0  0  0  0  0  0  0  0  0
  128.7590  127.4230   58.6690 C   0  0  0  0  0  0  0  0  0  0  0  0
  128.4960  128.0520   57.4560 C   0  0  0  0  0  0  0  0  0  0  0  0
  127.9900  131.3110   56.4610 N   0  0  0  0  0  0  0  0  0  0  0  0
  128.5080  131.6560   55.2490 C   0  0  0  0  0  0  0  0  0  0  0  0
  127.9010  131.7750   54.1830 O   0  0  0  0  0  0  0  0  0  0  0  0
  129.9600  131.8570   55.4830 C   0  0  0  0  0  0  0  0  0  0  0  0
  130.9850  132.2170   54.6070 C   0  0  0  0  0  0  0  0  0  0  0  0
  132.2840  132.3390   55.1120 C   0  0  0  0  0  0  0  0  0  0  0  0
  132.5390  132.1050   56.4690 C   0  0  0  0  0  0  0  0  0  0  0  0
  131.4980  131.7460   57.3310 C   0  0  0  0  0  0  0  0  0  0  0  0
  130.2090  131.6270   56.8090 C   0  0  0  0  0  0  0  0  0  0  0  0
  128.9240  131.2720   57.4600 C   0  0  0  0  0  0  0  0  0  0  0  0
  128.7390  131.0060   58.6480 O   0  0  0  0  0  0  0  0  0  0  0  0
  2  1  1  1
  2  3  1  0
  3  4  2  0
  3  5  1  0
  5  6  1  0
  6  7  2  0
  7  8  1  0
  8  9  2  0
 10  9  1  6
 10 11  1  0
 11 12  2  0
 12 13  1  0
 13 14  1  0
 14 15  1  0
 15 16  1  0
 16 17  2  0
 16 18  1  0
 18 19  1  0
 18 20  1  0
 20 21  2  0
 20 22  1  0
 12 23  1  0
 23 24  2  0
 24 25  1  0
 25 26  2  0
 26 27  1  0
 27 28  2  0
 28 29  1  0
 29 30  2  0
  9 31  1  0
 31 32  2  0
  2 33  1  0
 33 34  1  0
 34 35  2  0
 34 36  1  0
 36 37  2  0
 37 38  1  0
 38 39  2  0
 39 40  1  0
 40 41  2  0
 41 42  1  0
 42 43  2  0
 32  6  1  0
 42 33  1  0
 22 10  1  0
 28 23  1  0
 41 36  1  0
 29 11  1  0
 22 14  2  0
M  END
>  <Binding energies>  (76) 
[-9.86]

>  <Ligand effiencies>  (76) 
[-0.2191111111111111]

>  <Interactions>  (76) 
["V-B:GLU:543:CD:9880, H-B:GLU:543:OE2:9882, V-B:TYR:539:CE2:9848, V-B:TYR:531:CZ:9766, V-A:ILE:369:CD1:3239, V-A:ILE:369:CG2:3237, V-A:TYR:539:CE1:4875, V-A:TYR:531:CZ:4794, V-B:TYR:531:CE1:9764, V-B:ASP:366:CG:8185, V-A:TYR:539:CZ:4877, V-A:TYR:531:CE2:4793, V-A:PRO:540:CA:4883, V-A:PRO:540:N:4884, V-A:PRO:540:CB:4885, V-B:ASP:366:CB:8184, V-A:TYR:539:CE2:4876, H-B:LYS:534:NZ:9795, V-A:LEU:363:CD1:3189, H-B:ARG:545:NH2:9900, V-A:GLU:543:CD:4908, H-A:GLU:543:OE1:4909, H-A:GLU:543:OE2:4910, V-A:ARG:545:CZ:4926, V-A:PRO:540:CD:4887, V-A:GLU:543:CG:4907, H-B:TYR:531:OH:9767, V-A:ILE:538:CA:4860, V-A:ILE:538:CB:4862, V-A:ILE:538:CG2:4863, H-A:TYR:539:OH:4878, V-B:ARG:545:CZ:9898, V-A:PRO:540:CG:4886, H-B:TYR:484:OH:9320"]

$$$$
RR25_Rahimova_2017
     RDKit          3D

 39 44  0  0  0  0  0  0  0  0999 V2000
  132.9270  123.3930   61.3580 O   0  0  0  0  0  0  0  0  0  0  0  0
  131.7250  123.4660   61.1010 C   0  0  0  0  0  0  0  0  0  0  0  0
  130.9030  122.6140   61.7960 O   0  0  0  0  0  0  0  0  0  0  0  0
  129.5290  122.7670   61.7840 C   0  0  0  0  0  0  0  0  0  0  0  0
  128.8320  122.2690   62.8840 C   0  0  0  0  0  0  0  0  0  0  0  0
  127.4440  122.3820   62.9340 C   0  0  0  0  0  0  0  0  0  0  0  0
  126.7340  122.9870   61.8860 C   0  0  0  0  0  0  0  0  0  0  0  0
  125.2570  123.1130   61.9450 N   0  0  0  0  0  0  0  0  0  0  0  0
  124.6760  122.7480   62.9640 O   0  0  0  0  0  0  0  0  0  0  0  0
  124.6680  123.5770   60.9730 O   0  0  0  0  0  0  0  0  0  0  0  0
  127.4540  123.4710   60.7810 C   0  0  0  0  0  0  0  0  0  0  0  0
  128.8450  123.3580   60.7120 C   0  0  0  0  0  0  0  0  0  0  0  0
  129.6680  123.8740   59.5450 C   0  0  0  0  0  0  0  0  0  0  0  0
  131.0370  124.4000   60.0630 C   0  0  2  0  0  0  0  0  0  0  0  0
  131.9480  124.8460   58.8820 C   0  0  0  0  0  0  0  0  0  0  0  0
  132.9850  124.1960   58.7210 O   0  0  0  0  0  0  0  0  0  0  0  0
  131.5680  125.8160   57.9960 N   0  0  0  0  0  0  0  0  0  0  0  0
  130.5250  126.8170   58.3030 C   0  0  0  0  0  0  0  0  0  0  0  0
  129.7120  127.1030   57.0230 C   0  0  0  0  0  0  0  0  0  0  0  0
  130.5820  127.5100   55.9170 N   0  0  0  0  0  0  0  0  0  0  0  0
  129.8020  127.9110   54.7380 C   0  0  0  0  0  0  0  0  0  0  0  0
  129.4760  129.4280   54.7180 C   0  0  0  0  0  0  0  0  0  0  0  0
  128.5370  129.9110   55.7720 N   0  0  0  0  0  0  0  0  0  0  0  0
  129.1000  130.7200   56.7370 C   0  0  0  0  0  0  0  0  0  0  0  0
  130.3030  131.0050   56.7630 O   0  0  0  0  0  0  0  0  0  0  0  0
  128.1200  131.2550   57.7630 C   0  0  0  0  0  0  0  0  0  0  0  0
  128.5810  132.1090   58.7740 C   0  0  0  0  0  0  0  0  0  0  0  0
  127.7070  132.6260   59.7280 C   0  0  0  0  0  0  0  0  0  0  0  0
  126.3490  132.3110   59.7020 C   0  0  0  0  0  0  0  0  0  0  0  0
  125.8380  131.4520   58.6990 C   0  0  0  0  0  0  0  0  0  0  0  0
  124.4730  131.0920   58.6130 C   0  0  0  0  0  0  0  0  0  0  0  0
  124.0350  130.2440   57.5970 C   0  0  0  0  0  0  0  0  0  0  0  0
  124.9270  129.7360   56.6550 C   0  0  0  0  0  0  0  0  0  0  0  0
  126.2880  130.0650   56.7010 C   0  0  0  0  0  0  0  0  0  0  0  0
  126.7410  130.9290   57.7310 C   0  0  0  0  0  0  0  0  0  0  0  0
  127.2260  129.4990   55.6520 C   0  0  0  0  0  0  0  0  0  0  0  0
  126.8300  128.7450   54.7570 O   0  0  0  0  0  0  0  0  0  0  0  0
  131.5230  126.4330   55.6020 C   0  0  0  0  0  0  0  0  0  0  0  0
  132.4190  126.0850   56.8140 C   0  0  0  0  0  0  0  0  0  0  0  0
  1  2  2  0
  2  3  1  0
  3  4  1  0
  4  5  2  0
  5  6  1  0
  6  7  2  0
  7  8  1  0
  8  9  2  0
  8 10  1  0
  7 11  1  0
 11 12  2  0
 12 13  1  0
 13 14  1  0
 14 15  1  6
 15 16  2  0
 15 17  1  0
 17 18  1  0
 18 19  1  0
 19 20  1  0
 20 21  1  0
 21 22  1  0
 22 23  1  0
 23 24  1  0
 24 25  2  0
 24 26  1  0
 26 27  2  0
 27 28  1  0
 28 29  2  0
 29 30  1  0
 30 31  2  0
 31 32  1  0
 32 33  2  0
 33 34  1  0
 34 35  2  0
 34 36  1  0
 36 37  2  0
 20 38  1  0
 38 39  1  0
 14  2  1  0
 39 17  1  0
 12  4  1  0
 36 23  1  0
 35 26  1  0
 35 30  1  0
M  CHG  2   8   1  10  -1
M  END
>  <Binding energies>  (77) 
[-10.64]

>  <Ligand effiencies>  (77) 
[-0.27282051282051284]

>  <Interactions>  (77) 
["V-B:PRO:540:CB:9857, V-B:GLU:543:CD:9880, V-B:PRO:540:CA:9855, V-B:TYR:539:CE2:9848, V-B:MET:535:CE:9807, V-B:ALA:541:CB:9864, V-B:PRO:540:C:9853, H-A:TYR:484:OH:4348, V-A:ASP:366:CA:3210, V-A:ASP:366:C:3208, V-A:ASP:366:CB:3212, V-A:TYR:539:CE1:4875, V-B:TYR:531:CE1:9764, V-A:TYR:539:CZ:4877, V-A:TYR:539:C:4867, V-B:ASP:366:CB:8184, V-A:MET:535:CE:4835, H-B:LYS:534:NZ:9795, V-A:TYR:531:CE1:4792, H-B:ARG:545:NH2:9900, H-B:ALA:541:N:9863, H-B:TYR:539:OH:9850, H-B:TYR:531:OH:9767, V-A:TYR:484:CZ:4347, H-A:TYR:531:OH:4795, V-A:TYR:539:CD1:4873, V-B:ASP:366:C:8180, V-B:ASP:366:CA:8182, H-B:ASN:362:ND2:8151, V-B:ALA:541:CA:9862, V-B:GLU:543:CG:9879, V-A:TYR:484:CE1:4345"]

$$$$
RR27_Rahimova_2017
     RDKit          3D

 39 44  0  0  0  0  0  0  0  0999 V2000
  128.3150  123.4620   60.6330 O   0  0  0  0  0  0  0  0  0  0  0  0
  127.9200  124.1400   59.6790 C   0  0  0  0  0  0  0  0  0  0  0  0
  128.5240  123.8580   58.2730 C   0  0  0  0  0  0  0  0  0  0  0  0
  129.4000  125.0120   57.7500 C   0  0  0  0  0  0  0  0  0  0  0  0
  128.9970  125.8200   56.6750 C   0  0  0  0  0  0  0  0  0  0  0  0
  129.8120  126.8560   56.2290 C   0  0  0  0  0  0  0  0  0  0  0  0
  131.0340  127.0890   56.8540 C   0  0  0  0  0  0  0  0  0  0  0  0
  131.4490  126.2950   57.9190 C   0  0  0  0  0  0  0  0  0  0  0  0
  130.6340  125.2590   58.3650 C   0  0  0  0  0  0  0  0  0  0  0  0
  127.4580  123.3530   57.2830 C   0  0  0  0  0  0  0  0  0  0  0  0
  127.7430  123.1660   55.9230 C   0  0  0  0  0  0  0  0  0  0  0  0
  126.7520  122.7190   55.0530 C   0  0  0  0  0  0  0  0  0  0  0  0
  125.4720  122.4620   55.5370 C   0  0  0  0  0  0  0  0  0  0  0  0
  125.1720  122.6530   56.8840 C   0  0  0  0  0  0  0  0  0  0  0  0
  126.1620  123.1010   57.7520 C   0  0  0  0  0  0  0  0  0  0  0  0
  126.8760  125.0080   59.8030 N   0  0  0  0  0  0  0  0  0  0  0  0
  126.5320  126.0130   58.7860 C   0  0  0  0  0  0  0  0  0  0  0  0
  127.3710  127.2720   59.1000 C   0  0  0  0  0  0  0  0  0  0  0  0
  127.1690  127.7820   60.5620 C   0  0  0  0  0  0  0  0  0  0  0  0
  128.0660  128.9680   60.9620 C   0  0  0  0  0  0  0  0  0  0  0  0
  127.6650  129.6950   62.0450 N   0  0  0  0  0  0  0  0  0  0  0  0
  128.4380  130.7390   62.4570 C   0  0  0  0  0  0  0  0  0  0  0  0
  128.1430  131.5370   63.5300 O   0  0  0  0  0  0  0  0  0  0  0  0
  129.6190  131.0260   61.7460 C   0  0  0  0  0  0  0  0  0  0  0  0
  130.5970  131.9670   61.8870 N   0  0  0  0  0  0  0  0  0  0  0  0
  131.5150  131.7600   60.8760 N   0  0  0  0  0  0  0  0  0  0  0  0
  131.1140  130.7070   60.1320 N   0  0  0  0  0  0  0  0  0  0  0  0
  131.8930  130.2790   58.9720 C   0  0  0  0  0  0  0  0  0  0  0  0
  131.6060  131.0850   57.7120 C   0  0  0  0  0  0  0  0  0  0  0  0
  132.6570  131.6490   56.9830 C   0  0  0  0  0  0  0  0  0  0  0  0
  132.3950  132.3790   55.8220 C   0  0  0  0  0  0  0  0  0  0  0  0
  131.0820  132.5430   55.3820 C   0  0  0  0  0  0  0  0  0  0  0  0
  130.0290  131.9740   56.1000 C   0  0  0  0  0  0  0  0  0  0  0  0
  128.4040  132.1540   55.5420 Cl  0  0  0  0  0  0  0  0  0  0  0  0
  130.2900  131.2520   57.2640 C   0  0  0  0  0  0  0  0  0  0  0  0
  129.9230  130.2110   60.6350 C   0  0  0  0  0  0  0  0  0  0  0  0
  129.1800  129.1880   60.2060 N   0  0  0  0  0  0  0  0  0  0  0  0
  127.1930  126.6140   61.5950 C   0  0  0  0  0  0  0  0  0  0  0  0
  126.3760  125.3780   61.1370 C   0  0  0  0  0  0  0  0  0  0  0  0
  1  2  2  0
  2  3  1  0
  3  4  1  0
  4  5  2  0
  5  6  1  0
  6  7  2  0
  7  8  1  0
  8  9  2  0
  3 10  1  0
 10 11  2  0
 11 12  1  0
 12 13  2  0
 13 14  1  0
 14 15  2  0
  2 16  1  0
 16 17  1  0
 17 18  1  0
 18 19  1  0
 19 20  1  0
 20 21  2  0
 21 22  1  0
 22 23  1  0
 22 24  2  0
 24 25  1  0
 25 26  2  0
 26 27  1  0
 27 28  1  0
 28 29  1  0
 29 30  2  0
 30 31  1  0
 31 32  2  0
 32 33  1  0
 33 34  1  0
 33 35  2  0
 27 36  1  0
 36 37  2  0
 19 38  1  0
 38 39  1  0
  9  4  1  0
 15 10  1  0
 39 16  1  0
 37 20  1  0
 36 24  1  0
 35 29  1  0
M  END
>  <Binding energies>  (78) 
[-10.63]

>  <Ligand effiencies>  (78) 
[-0.26575000000000004]

>  <Interactions>  (78) 
["V-B:TYR:539:CD1:9845, V-B:ILE:538:CD1:9837, V-B:PRO:540:CB:9857, V-B:PRO:540:CD:9859, V-B:LEU:363:CD1:8161, V-B:GLU:543:CD:9880, V-B:PRO:540:CA:9855, V-B:ILE:538:CG2:9835, V-B:TYR:539:CE2:9848, V-B:ILE:538:CA:9832, V-B:MET:535:CE:9807, V-B:TYR:539:CZ:9849, V-B:TYR:539:CE1:9847, V-B:PRO:540:N:9856, V-B:TYR:531:CE2:9765, V-A:ASP:366:CG:3213, V-A:ASP:366:CB:3212, V-A:TYR:539:CE1:4875, V-A:TYR:539:CZ:4877, V-A:PRO:540:CA:4883, V-A:PRO:540:N:4884, V-A:PRO:540:CB:4885, V-A:TYR:539:CE2:4876, V-A:LEU:363:CD1:3189, V-B:ILE:538:C:9830, V-B:ILE:538:CB:9834, V-A:GLU:543:CD:4908, H-A:ALA:541:N:4891, V-A:PRO:540:CD:4887, V-A:GLU:543:CG:4907, V-A:ILE:538:CA:4860, V-A:ILE:538:CB:4862, V-A:ILE:538:CG2:4863, V-B:PRO:540:CG:9858, V-A:TYR:539:CD2:4874, V-A:TYR:539:CG:4872, V-A:TYR:539:CD1:4873, H-B:TYR:484:OH:9320"]

$$$$
RR28_Rahimova_2017
     RDKit          3D

 46 49  0  0  0  0  0  0  0  0999 V2000
  132.5830  131.5340   61.9350 C   0  0  0  0  0  0  0  0  0  0  0  0
  132.1210  130.9930   60.5870 C   0  0  0  0  0  0  0  0  0  0  0  0
  132.7110  131.3300   59.5630 O   0  0  0  0  0  0  0  0  0  0  0  0
  131.0630  130.1560   60.6100 N   0  0  0  0  0  0  0  0  0  0  0  0
  130.3980  129.4910   59.4670 C   0  0  0  0  0  0  0  0  0  0  0  0
  131.0290  128.0800   59.2910 C   0  0  0  0  0  0  0  0  0  0  0  0
  131.1920  127.2530   60.4130 C   0  0  0  0  0  0  0  0  0  0  0  0
  131.7570  125.9880   60.2940 C   0  0  0  0  0  0  0  0  0  0  0  0
  132.1740  125.5180   59.0470 C   0  0  0  0  0  0  0  0  0  0  0  0
  132.7970  124.1270   58.9360 C   0  0  0  0  0  0  0  0  0  0  0  0
  131.9550  123.1630   59.3160 F   0  0  0  0  0  0  0  0  0  0  0  0
  133.1620  123.8830   57.6770 F   0  0  0  0  0  0  0  0  0  0  0  0
  133.8770  124.0670   59.7150 F   0  0  0  0  0  0  0  0  0  0  0  0
  132.0200  126.3320   57.9220 C   0  0  0  0  0  0  0  0  0  0  0  0
  131.4540  127.5990   58.0430 C   0  0  0  0  0  0  0  0  0  0  0  0
  130.4850  130.3880   58.1810 C   0  0  0  0  0  0  0  0  0  0  0  0
  129.6910  131.7130   58.3020 C   0  0  0  0  0  0  0  0  0  0  0  0
  128.2930  131.3380   58.5690 N   0  0  0  0  0  0  0  0  0  0  0  0
  127.4070  131.2120   57.5440 C   0  0  0  0  0  0  0  0  0  0  0  0
  127.6830  131.5630   56.3940 O   0  0  0  0  0  0  0  0  0  0  0  0
  125.9570  130.7700   57.8580 C   0  0  0  0  0  0  0  0  0  0  0  0
  125.5030  129.4290   57.2180 C   0  0  0  0  0  0  0  0  0  0  0  0
  126.6480  128.5260   56.7030 C   0  0  0  0  0  0  0  0  0  0  0  0
  127.0440  128.6970   55.5460 O   0  0  0  0  0  0  0  0  0  0  0  0
  127.2760  127.6750   57.5620 N   0  0  0  0  0  0  0  0  0  0  0  0
  126.6750  127.2040   58.8150 C   0  0  0  0  0  0  0  0  0  0  0  0
  125.8100  125.9760   58.4550 C   0  0  0  0  0  0  0  0  0  0  0  0
  126.5820  124.8200   57.7280 C   0  0  0  0  0  0  0  0  0  0  0  0
  125.6060  123.9110   57.0910 N   0  0  0  0  0  0  0  0  0  0  0  0
  125.8230  122.6810   56.5840 C   0  0  0  0  0  0  0  0  0  0  0  0
  124.6170  121.9820   55.9660 C   0  0  0  0  0  0  0  0  0  0  0  0
  126.9150  122.1140   56.5940 O   0  0  0  0  0  0  0  0  0  0  0  0
  127.3410  124.0030   58.8240 C   0  0  0  0  0  0  0  0  0  0  0  0
  128.6340  123.4890   58.6310 C   0  0  0  0  0  0  0  0  0  0  0  0
  129.2760  122.7670   59.6340 C   0  0  0  0  0  0  0  0  0  0  0  0
  128.6390  122.5370   60.8560 C   0  0  0  0  0  0  0  0  0  0  0  0
  129.3310  121.7500   61.9680 C   0  0  0  0  0  0  0  0  0  0  0  0
  129.1800  120.4380   61.7790 F   0  0  0  0  0  0  0  0  0  0  0  0
  130.6330  122.0350   61.9590 F   0  0  0  0  0  0  0  0  0  0  0  0
  128.8460  122.0500   63.1740 F   0  0  0  0  0  0  0  0  0  0  0  0
  127.3510  123.0340   61.0590 C   0  0  0  0  0  0  0  0  0  0  0  0
  126.7130  123.7560   60.0550 C   0  0  0  0  0  0  0  0  0  0  0  0
  127.5420  125.4460   56.6440 C   0  0  0  0  0  0  0  0  0  0  0  0
  128.2910  126.7390   57.0620 C   0  0  0  0  0  0  0  0  0  0  0  0
  128.1070  130.6690   59.8650 C   0  0  0  0  0  0  0  0  0  0  0  0
  128.8780  129.3250   59.7970 C   0  0  0  0  0  0  0  0  0  0  0  0
  1  2  1  0
  2  3  2  0
  2  4  1  0
  4  5  1  0
  5  6  1  0
  6  7  2  0
  7  8  1  0
  8  9  2  0
  9 10  1  0
 10 11  1  0
 10 12  1  0
 10 13  1  0
  9 14  1  0
 14 15  2  0
  5 16  1  0
 16 17  1  0
 17 18  1  0
 18 19  1  0
 19 20  2  0
 19 21  1  0
 21 22  1  0
 22 23  1  0
 23 24  2  0
 23 25  1  0
 25 26  1  0
 26 27  1  0
 27 28  1  0
 28 29  1  0
 29 30  1  0
 30 31  1  0
 30 32  2  0
 28 33  1  0
 33 34  2  0
 34 35  1  0
 35 36  2  0
 36 37  1  0
 37 38  1  0
 37 39  1  0
 37 40  1  0
 36 41  1  0
 41 42  2  0
 28 43  1  0
 43 44  1  0
 18 45  1  0
 45 46  1  0
 46  5  1  0
 15  6  1  0
 44 25  1  0
 42 33  1  0
M  END
>  <Binding energies>  (79) 
[-10.17]

>  <Ligand effiencies>  (79) 
[-0.211875]

>  <Interactions>  (79) 
["V-B:ILE:538:CD1:9837, V-B:PRO:540:CD:9859, V-B:LEU:363:CD1:8161, V-B:GLU:543:CD:9880, V-B:PRO:540:CA:9855, H-B:TYR:539:N:9842, V-B:ILE:538:CG2:9835, V-B:TYR:539:CE2:9848, V-B:TYR:539:CD2:9846, V-B:ILE:538:CA:9832, V-B:MET:535:CE:9807, V-B:ALA:541:CB:9864, V-B:TYR:539:CZ:9849, V-B:PRO:540:C:9853, V-B:PRO:540:N:9856, V-A:ASP:366:CA:3210, V-A:ASP:366:CG:3213, V-A:LEU:475:CD2:4259, V-B:TYR:531:CZ:9766, V-A:ILE:369:CD1:3239, V-A:ASP:366:CB:3212, V-A:ILE:369:CB:3236, V-A:ILE:369:CG2:3237, V-A:TYR:539:CE1:4875, V-B:TYR:531:CE1:9764, V-B:ASP:366:CG:8185, V-A:TYR:539:CZ:4877, V-A:PRO:540:CA:4883, V-A:PRO:540:CB:4885, V-B:ASP:366:CB:8184, V-B:ILE:538:CB:9834, V-A:GLU:543:CD:4908, H-A:GLU:543:OE1:4909, V-A:GLU:543:CG:4907, H-B:TYR:531:OH:9767, V-A:TYR:484:CZ:4347, V-B:PRO:540:CG:9858, V-B:ILE:538:CG1:9836, V-A:ASN:362:CB:3176, V-B:ALA:541:CA:9862, V-B:GLU:543:CG:9879, V-A:TYR:484:CE1:4345, V-A:ALA:541:C:4888"]

$$$$
RR29_Rahimova_2017
     RDKit          3D

 18 19  0  0  0  0  0  0  0  0999 V2000
  129.2960  121.3050   61.8250 C   0  0  0  0  0  0  0  0  0  0  0  0
  128.7620  122.6700   62.2330 C   0  0  0  0  0  0  0  0  0  0  0  0
  127.2270  122.7840   62.0930 C   0  0  0  0  0  0  0  0  0  0  0  0
  126.8240  123.9270   61.1380 C   0  0  0  0  0  0  0  0  0  0  0  0
  126.8030  123.4840   59.6840 C   0  0  0  0  0  0  0  0  0  0  0  0
  127.9900  123.0470   59.0630 C   0  0  0  0  0  0  0  0  0  0  0  0
  127.9930  122.6330   57.7240 C   0  0  0  0  0  0  0  0  0  0  0  0
  126.7870  122.6820   57.0340 C   0  0  0  0  0  0  0  0  0  0  0  0
  125.6320  123.1060   57.6300 C   0  0  0  0  0  0  0  0  0  0  0  0
  125.5980  123.5130   58.9590 C   0  0  0  0  0  0  0  0  0  0  0  0
  124.6090  123.0190   56.7400 O   0  0  0  0  0  0  0  0  0  0  0  0
  125.2050  122.7280   55.5040 C   0  0  0  0  0  0  0  0  0  0  0  0
  126.5230  122.3140   55.7520 O   0  0  0  0  0  0  0  0  0  0  0  0
  129.5930  123.5630   62.6270 N   0  0  0  0  0  0  0  0  0  0  0  0
  129.1220  124.8250   62.9150 N   0  0  0  0  0  0  0  0  0  0  0  0
  129.8680  125.7990   63.4620 C   0  0  0  0  0  0  0  0  0  0  0  0
  131.1570  125.6830   63.7820 N   0  0  0  0  0  0  0  0  0  0  0  0
  129.2810  126.9620   63.7040 N   0  0  0  0  0  0  0  0  0  0  0  0
  1  2  1  0
  2  3  1  0
  3  4  1  0
  4  5  1  0
  5  6  2  0
  6  7  1  0
  7  8  2  0
  8  9  1  0
  9 10  2  0
  9 11  1  0
 11 12  1  0
 12 13  1  0
  2 14  2  0
 14 15  1  0
 15 16  1  0
 16 17  1  0
 16 18  2  0
 10  5  1  0
 13  8  1  0
M  CHG  1  18   1
M  END
>  <Binding energies>  (80) 
[-8.56]

>  <Ligand effiencies>  (80) 
[-0.3721739130434783]

>  <Interactions>  (80) 
["V-B:TYR:539:CD1:9845, V-B:ILE:538:CD1:9837, V-B:PRO:540:CB:9857, V-B:PRO:540:CD:9859, V-B:LEU:363:CD1:8161, V-B:GLU:543:CD:9880, H-B:GLU:543:OE2:9882, V-B:TYR:539:C:9839, V-B:PRO:540:CA:9855, H-B:TYR:539:N:9842, V-B:ILE:538:CG2:9835, H-B:GLU:543:OE1:9881, V-B:TYR:539:CE2:9848, V-B:TYR:539:CD2:9846, V-B:ILE:538:CA:9832, V-B:ALA:541:CB:9864, V-B:TYR:539:CZ:9849, V-B:PRO:540:C:9853, V-B:PRO:540:N:9856, V-B:TYR:531:CE2:9765, H-A:TYR:484:OH:4348, V-B:TYR:539:CG:9844, V-B:TYR:531:CZ:9766, V-A:GLU:543:CD:4908, H-A:GLU:543:OE1:4909, H-A:GLU:543:OE2:4910, H-B:TYR:531:OH:9767, V-A:TYR:484:CZ:4347, V-B:GLU:543:CG:9879"]

$$$$
RR30_Rahimova_2017
     RDKit          3D

 18 19  0  0  0  0  0  0  0  0999 V2000
  133.9540  131.7050   60.3600 C   0  0  0  0  0  0  0  0  0  0  0  0
  132.6130  131.1950   59.8120 C   0  0  0  0  0  0  0  0  0  0  0  0
  131.4430  131.6270   60.6680 C   0  0  0  0  0  0  0  0  0  0  0  0
  131.3170  131.5450   61.9690 N   0  0  0  0  0  0  0  0  0  0  0  0
  130.0590  132.0650   62.2650 N   0  0  0  0  0  0  0  0  0  0  0  0
  129.5300  132.4060   61.1170 C   0  0  0  0  0  0  0  0  0  0  0  0
  127.9500  133.1380   60.8370 S   0  0  0  0  0  0  0  0  0  0  0  0
  127.1620  131.8170   59.8620 C   0  0  0  0  0  0  0  0  0  0  0  0
  127.8350  131.6240   58.5000 C   0  0  0  0  0  0  0  0  0  0  0  0
  127.5270  130.6510   57.8090 O   0  0  0  0  0  0  0  0  0  0  0  0
  128.7680  132.5440   58.1660 N   0  0  0  0  0  0  0  0  0  0  0  0
  129.5100  132.5770   56.9940 C   0  0  0  0  0  0  0  0  0  0  0  0
  129.1420  133.0150   55.8110 N   0  0  0  0  0  0  0  0  0  0  0  0
  130.1520  132.8920   54.8650 N   0  0  0  0  0  0  0  0  0  0  0  0
  131.2560  132.3680   55.3470 C   0  0  0  0  0  0  0  0  0  0  0  0
  132.4930  132.1300   54.5120 C   0  0  0  0  0  0  0  0  0  0  0  0
  131.1380  131.9780   57.0420 S   0  0  0  0  0  0  0  0  0  0  0  0
  130.3520  132.1620   60.0640 O   0  0  0  0  0  0  0  0  0  0  0  0
  1  2  1  0
  2  3  1  0
  3  4  2  0
  4  5  1  0
  5  6  2  0
  6  7  1  0
  7  8  1  0
  8  9  1  0
  9 10  2  0
  9 11  1  0
 11 12  1  0
 12 13  2  0
 13 14  1  0
 14 15  2  0
 15 16  1  0
 15 17  1  0
  6 18  1  0
 18  3  1  0
 17 12  1  0
M  END
>  <Binding energies>  (81) 
[-6.55]

>  <Ligand effiencies>  (81) 
[-0.3447368421052632]

>  <Interactions>  (81) 
["V-A:TYR:539:CE1:4875, V-A:TYR:531:CZ:4794, H-A:TYR:539:N:4870, V-A:TYR:531:CE2:4793, V-A:PRO:540:CA:4883, V-A:TYR:539:C:4867, V-A:PRO:540:N:4884, V-A:PRO:540:CB:4885, V-A:LEU:363:CD1:3189, H-A:ALA:541:N:4891, V-A:ALA:541:CB:4892, V-A:LEU:363:CA:3185, V-A:ILE:538:CB:4862, V-A:ILE:538:CG2:4863, V-A:PRO:540:C:4881, V-A:TYR:539:CA:4869, V-A:TYR:539:CD1:4873, V-A:ASN:362:CB:3176, V-A:ALA:541:CA:4890, V-A:ASN:362:C:3172, H-A:TYR:539:O:4868, V-A:ASN:362:CA:3174"]

$$$$
RR31_Rahimova_2017
     RDKit          3D

 18 19  0  0  0  0  0  0  0  0999 V2000
  124.4170  122.7220   55.8480 C   0  0  0  0  0  0  0  0  0  0  0  0
  125.6150  122.9210   56.7680 C   0  0  0  0  0  0  0  0  0  0  0  0
  125.3980  123.2550   58.1050 C   0  0  0  0  0  0  0  0  0  0  0  0
  126.4720  123.4400   58.9730 C   0  0  0  0  0  0  0  0  0  0  0  0
  127.7960  123.2880   58.5320 C   0  0  0  0  0  0  0  0  0  0  0  0
  128.8840  123.4810   59.3860 N   0  0  0  0  0  0  0  0  0  0  0  0
  129.4370  122.3850   60.2060 C   0  0  0  0  0  0  0  0  0  0  0  0
  130.3410  122.8620   61.3680 C   0  0  0  0  0  0  0  0  0  0  0  0
  131.4330  123.7020   60.8710 N   0  0  0  0  0  0  0  0  0  0  0  0
  132.3280  124.1400   61.9470 C   0  0  0  0  0  0  0  0  0  0  0  0
  131.9130  125.4910   62.5640 C   0  0  0  0  0  0  0  0  0  0  0  0
  130.5380  125.4210   63.2480 C   0  0  0  0  0  0  0  0  0  0  0  0
  130.6780  125.7430   64.7400 N   0  0  0  0  0  0  0  0  0  0  0  0
  130.8300  124.8680   60.2270 C   0  0  0  0  0  0  0  0  0  0  0  0
  129.9500  124.4390   59.0310 C   0  0  0  0  0  0  0  0  0  0  0  0
  128.0000  122.9610   57.1830 C   0  0  0  0  0  0  0  0  0  0  0  0
  126.9300  122.7730   56.3010 C   0  0  0  0  0  0  0  0  0  0  0  0
  127.2190  122.4220   54.8460 C   0  0  0  0  0  0  0  0  0  0  0  0
  1  2  1  0
  2  3  2  0
  3  4  1  0
  4  5  2  0
  5  6  1  0
  6  7  1  0
  7  8  1  0
  8  9  1  0
  9 10  1  0
 10 11  1  0
 11 12  1  0
 12 13  1  0
  9 14  1  0
 14 15  1  0
  5 16  1  0
 16 17  2  0
 17 18  1  0
 17  2  1  0
 15  6  1  0
M  CHG  1  13   1
M  END
>  <Binding energies>  (82) 
[-7.78]

>  <Ligand effiencies>  (82) 
[-0.3704761904761905]

>  <Interactions>  (82) 
["V-B:TYR:539:CD1:9845, V-B:ILE:538:CD1:9837, V-B:PRO:540:CB:9857, V-B:PRO:540:CD:9859, V-B:LEU:363:CD1:8161, V-B:GLU:543:CD:9880, H-B:GLU:543:OE2:9882, V-B:PRO:540:CA:9855, V-B:ILE:538:CG2:9835, V-B:TYR:539:CE2:9848, V-B:TYR:539:CD2:9846, V-B:ILE:538:CA:9832, V-B:MET:535:CE:9807, V-B:TYR:539:CZ:9849, V-B:TYR:539:CE1:9847, V-B:PRO:540:N:9856, V-B:TYR:531:CE2:9765, H-A:TYR:484:OH:4348, V-B:TYR:539:CG:9844, V-B:TYR:531:CZ:9766, V-B:ILE:538:C:9830, V-A:GLU:543:CD:4908, H-A:GLU:543:OE1:4909, H-A:GLU:543:OE2:4910, V-A:ARG:545:CZ:4926, V-A:TYR:484:CE2:4346, V-A:TYR:484:CZ:4347, V-B:VAL:537:C:9822"]

$$$$
RR32_Rahimova_2017
     RDKit          3D

 18 20  0  0  0  0  0  0  0  0999 V2000
  125.2540  123.8650   60.7230 C   0  0  0  0  0  0  0  0  0  0  0  0
  126.3160  123.4340   59.7170 C   0  0  0  0  0  0  0  0  0  0  0  0
  127.6220  123.2510   60.1740 C   0  0  0  0  0  0  0  0  0  0  0  0
  128.6170  122.8550   59.2860 C   0  0  0  0  0  0  0  0  0  0  0  0
  129.9110  122.6740   59.7430 N   0  0  0  0  0  0  0  0  0  0  0  0
  130.6620  123.8800   60.1370 C   0  0  0  0  0  0  0  0  0  0  0  0
  132.1490  123.5950   60.4590 C   0  0  0  0  0  0  0  0  0  0  0  0
  132.2530  122.6080   61.5330 N   0  0  0  0  0  0  0  0  0  0  0  0
  133.6540  122.3630   61.8590 C   0  0  0  0  0  0  0  0  0  0  0  0
  131.6160  121.3750   61.0760 C   0  0  0  0  0  0  0  0  0  0  0  0
  130.1230  121.6260   60.7600 C   0  0  0  0  0  0  0  0  0  0  0  0
  128.3770  122.6360   57.9670 N   0  0  0  0  0  0  0  0  0  0  0  0
  127.1140  122.8090   57.4900 C   0  0  0  0  0  0  0  0  0  0  0  0
  126.8920  122.5750   56.1110 C   0  0  0  0  0  0  0  0  0  0  0  0
  125.6230  122.7370   55.5690 C   0  0  0  0  0  0  0  0  0  0  0  0
  124.5580  123.1270   56.3710 C   0  0  0  0  0  0  0  0  0  0  0  0
  124.7410  123.3640   57.7300 C   0  0  0  0  0  0  0  0  0  0  0  0
  126.0250  123.2130   58.3300 C   0  0  0  0  0  0  0  0  0  0  0  0
  1  2  1  0
  2  3  2  0
  3  4  1  0
  4  5  1  0
  5  6  1  0
  6  7  1  0
  7  8  1  0
  8  9  1  0
  8 10  1  0
 10 11  1  0
  4 12  2  0
 12 13  1  0
 13 14  2  0
 14 15  1  0
 15 16  2  0
 16 17  1  0
 17 18  2  0
 18  2  1  0
 11  5  1  0
 18 13  1  0
M  END
>  <Binding energies>  (83) 
[-6.65]

>  <Ligand effiencies>  (83) 
[-0.36944444444444446]

>  <Interactions>  (83) 
["V-B:TYR:539:CD1:9845, V-B:ILE:538:CD1:9837, V-B:PRO:540:CB:9857, V-B:LEU:363:CD1:8161, V-B:TYR:539:C:9839, V-B:PRO:540:CA:9855, V-B:ILE:538:CG2:9835, V-B:TYR:539:CE2:9848, V-B:TYR:539:CD2:9846, V-B:ILE:538:CA:9832, V-B:TYR:539:CE1:9847, V-B:PRO:540:N:9856, V-B:TYR:531:CE2:9765, H-A:TYR:484:OH:4348, V-A:LEU:475:CD2:4259, V-B:TYR:531:CZ:9766, V-A:ILE:369:CD1:3239, V-A:GLY:454:CA:4049"]

$$$$
RR5_Rahimova_2017
     RDKit          3D

 45 50  0  0  0  0  0  0  0  0999 V2000
  130.7120  125.4210   60.0580 O   0  0  0  0  0  0  0  0  0  0  0  0
  130.5750  125.2300   58.8500 C   0  0  0  0  0  0  0  0  0  0  0  0
  131.7360  125.5520   57.8900 C   0  0  0  0  0  0  0  0  0  0  0  0
  131.4390  126.7370   56.9040 C   0  0  2  0  0  0  0  0  0  0  0  0
  130.3670  127.6560   57.3380 N   0  0  0  0  0  0  0  0  0  0  0  0
  130.6520  128.8900   57.9060 C   0  0  0  0  0  0  0  0  0  0  0  0
  131.7700  129.3830   58.0730 O   0  0  0  0  0  0  0  0  0  0  0  0
  129.4930  129.4680   58.2660 O   0  0  0  0  0  0  0  0  0  0  0  0
  129.4520  130.8030   58.7630 C   0  0  0  0  0  0  0  0  0  0  0  0
  128.6740  131.7240   57.7970 C   0  0  0  0  0  0  0  0  0  0  0  0
  129.3370  131.8820   56.4410 C   0  0  0  0  0  0  0  0  0  0  0  0
  130.6160  132.3500   56.1240 C   0  0  0  0  0  0  0  0  0  0  0  0
  131.0320  132.3900   54.7920 C   0  0  0  0  0  0  0  0  0  0  0  0
  130.1740  131.9650   53.7770 C   0  0  0  0  0  0  0  0  0  0  0  0
  128.8950  131.5000   54.0900 C   0  0  0  0  0  0  0  0  0  0  0  0
  128.4810  131.4610   55.4220 C   0  0  0  0  0  0  0  0  0  0  0  0
  127.2100  131.0350   56.0290 C   0  0  0  0  0  0  0  0  0  0  0  0
  126.0340  130.5480   55.4540 C   0  0  0  0  0  0  0  0  0  0  0  0
  124.9470  130.2320   56.2690 C   0  0  0  0  0  0  0  0  0  0  0  0
  125.0350  130.3990   57.6520 C   0  0  0  0  0  0  0  0  0  0  0  0
  126.2130  130.8820   58.2230 C   0  0  0  0  0  0  0  0  0  0  0  0
  127.3050  131.1970   57.4120 C   0  0  0  0  0  0  0  0  0  0  0  0
  131.1270  126.2060   55.4830 C   0  0  0  0  0  0  0  0  0  0  0  0
  131.7740  126.4670   54.4890 O   0  0  0  0  0  0  0  0  0  0  0  0
  130.0330  125.3900   55.5290 O   0  0  0  0  0  0  0  0  0  0  0  0
  129.4670  124.7140   58.2710 N   0  0  0  0  0  0  0  0  0  0  0  0
  128.1440  124.2670   58.8020 C   0  0  0  0  0  0  0  0  0  0  0  0
  127.4970  125.6210   59.2500 C   0  0  0  0  0  0  0  0  0  0  0  0
  127.7220  126.1530   60.5300 C   0  0  0  0  0  0  0  0  0  0  0  0
  127.1420  127.3580   60.9170 C   0  0  0  0  0  0  0  0  0  0  0  0
  126.3190  128.0460   60.0330 C   0  0  0  0  0  0  0  0  0  0  0  0
  126.0800  127.5440   58.7590 C   0  0  0  0  0  0  0  0  0  0  0  0
  126.6680  126.3450   58.3700 C   0  0  0  0  0  0  0  0  0  0  0  0
  127.3710  123.5920   57.6200 C   0  0  0  0  0  0  0  0  0  0  0  0
  127.9850  123.3460   56.3810 C   0  0  0  0  0  0  0  0  0  0  0  0
  127.2720  122.7620   55.3360 C   0  0  0  0  0  0  0  0  0  0  0  0
  125.9360  122.4190   55.5160 C   0  0  0  0  0  0  0  0  0  0  0  0
  125.3070  122.6490   56.7350 C   0  0  0  0  0  0  0  0  0  0  0  0
  126.0230  123.2240   57.7800 C   0  0  0  0  0  0  0  0  0  0  0  0
  128.4580  123.3150   60.0050 C   0  0  0  0  0  0  0  0  0  0  0  0
  129.6220  122.5260   60.0200 C   0  0  0  0  0  0  0  0  0  0  0  0
  129.9020  121.6720   61.0830 C   0  0  0  0  0  0  0  0  0  0  0  0
  129.0230  121.5960   62.1560 C   0  0  0  0  0  0  0  0  0  0  0  0
  127.8710  122.3730   62.1770 C   0  0  0  0  0  0  0  0  0  0  0  0
  127.5950  123.2260   61.1120 C   0  0  0  0  0  0  0  0  0  0  0  0
  1  2  2  0
  2  3  1  0
  4  3  1  1
  4  5  1  0
  5  6  1  0
  6  7  2  0
  6  8  1  0
  8  9  1  0
  9 10  1  0
 10 11  1  0
 11 12  2  0
 12 13  1  0
 13 14  2  0
 14 15  1  0
 15 16  2  0
 16 17  1  0
 17 18  2  0
 18 19  1  0
 19 20  2  0
 20 21  1  0
 21 22  2  0
  4 23  1  0
 23 24  2  0
 23 25  1  0
  2 26  1  0
 26 27  1  0
 27 28  1  0
 28 29  2  0
 29 30  1  0
 30 31  2  0
 31 32  1  0
 32 33  2  0
 27 34  1  0
 34 35  2  0
 35 36  1  0
 36 37  2  0
 37 38  1  0
 38 39  2  0
 27 40  1  0
 40 41  2  0
 41 42  1  0
 42 43  2  0
 43 44  1  0
 44 45  2  0
 22 10  1  0
 33 28  1  0
 39 34  1  0
 45 40  1  0
 16 11  1  0
 22 17  1  0
M  END
>  <Binding energies>  (84) 
[-11.21]

>  <Ligand effiencies>  (84) 
[-0.23354166666666668]

>  <Interactions>  (84) 
["V-B:TYR:539:CD1:9845, V-B:ILE:538:CD1:9837, V-B:PRO:540:CB:9857, V-B:PRO:540:CD:9859, V-B:LEU:363:CD1:8161, V-B:GLU:543:CD:9880, V-B:PRO:540:CA:9855, V-B:ILE:538:CG2:9835, V-B:TYR:539:CE2:9848, V-B:TYR:539:CD2:9846, V-B:ILE:538:CA:9832, V-B:MET:535:CE:9807, V-B:ALA:541:CB:9864, V-B:TYR:539:CZ:9849, V-B:PRO:540:C:9853, V-B:TYR:539:CE1:9847, V-B:PRO:540:N:9856, V-A:ASP:366:CB:3212, V-A:TYR:539:CE1:4875, V-B:TYR:531:CE1:9764, V-B:ASP:366:CG:8185, V-A:TYR:539:CZ:4877, V-A:TYR:539:C:4867, V-A:PRO:540:N:4884, V-B:ASP:366:CB:8184, V-A:TYR:539:CE2:4876, V-B:ILE:538:C:9830, V-B:ILE:538:CB:9834, H-B:TYR:539:OH:9850, V-A:ILE:538:CA:4860, V-A:ILE:538:CB:4862, V-A:ILE:538:CG2:4863, H-A:TYR:531:OH:4795, V-A:TYR:539:CD1:4873, V-B:ALA:541:CA:9862, V-B:GLU:543:CG:9879, V-A:TYR:484:CE1:4345"]

$$$$
