1a_Ghoteimi_2023
     RDKit          3D

 40 43  0  0  0  0  0  0  0  0999 V2000
  124.8970  123.8970   56.4880 C   0  0  0  0  0  0  0  0  0  0  0  0
  125.2260  122.5570   55.8220 C   0  0  0  0  0  0  0  0  0  0  0  0
  126.0600  121.7940   56.6860 O   0  0  0  0  0  0  0  0  0  0  0  0
  127.3570  122.1390   56.8920 C   0  0  0  0  0  0  0  0  0  0  0  0
  128.2150  122.1220   56.0040 O   0  0  0  0  0  0  0  0  0  0  0  0
  127.6430  122.5470   58.3080 C   0  0  0  0  0  0  0  0  0  0  0  0
  127.0840  123.7030   58.8750 C   0  0  0  0  0  0  0  0  0  0  0  0
  127.3710  124.0580   60.1900 C   0  0  0  0  0  0  0  0  0  0  0  0
  128.2220  123.2580   60.9670 C   0  0  0  0  0  0  0  0  0  0  0  0
  128.5830  123.5240   62.3020 N   0  0  0  0  0  0  0  0  0  0  0  0
  129.7520  123.3050   62.9420 C   0  0  0  0  0  0  0  0  0  0  0  0
  130.7650  122.8220   62.4380 O   0  0  0  0  0  0  0  0  0  0  0  0
  129.7800  123.7110   64.4150 C   0  0  0  0  0  0  0  0  0  0  0  0
  130.7690  125.2130   64.6800 S   0  0  0  0  0  0  0  0  0  0  0  0
  129.6970  126.3740   65.4950 C   0  0  0  0  0  0  0  0  0  0  0  0
  129.8080  126.3710   66.8450 N   0  0  0  0  0  0  0  0  0  0  0  0
  129.0460  127.2170   67.5870 C   0  0  0  0  0  0  0  0  0  0  0  0
  129.2420  127.1690   69.0750 C   0  0  0  0  0  0  0  0  0  0  0  0
  128.2930  126.5660   69.9170 C   0  0  0  0  0  0  0  0  0  0  0  0
  128.4780  126.5210   71.2950 C   0  0  0  0  0  0  0  0  0  0  0  0
  129.6140  127.0790   71.8770 C   0  0  0  0  0  0  0  0  0  0  0  0
  129.7150  126.9870   73.2520 O   0  0  0  0  0  0  0  0  0  0  0  0
  128.6090  127.3780   74.0570 C   0  0  0  0  0  0  0  0  0  0  0  0
  130.5680  127.6880   71.0510 C   0  0  0  0  0  0  0  0  0  0  0  0
  130.3800  127.7310   69.6730 C   0  0  0  0  0  0  0  0  0  0  0  0
  128.1450  128.0920   66.9680 C   0  0  0  0  0  0  0  0  0  0  0  0
  127.9940  128.0960   65.5750 C   0  0  0  0  0  0  0  0  0  0  0  0
  126.9910  129.0340   64.9870 C   0  0  0  0  0  0  0  0  0  0  0  0
  125.6250  128.8820   65.2530 C   0  0  0  0  0  0  0  0  0  0  0  0
  124.6980  129.7690   64.7130 C   0  0  0  0  0  0  0  0  0  0  0  0
  125.1150  130.8270   63.9050 C   0  0  0  0  0  0  0  0  0  0  0  0
  124.1250  131.6560   63.4160 O   0  0  0  0  0  0  0  0  0  0  0  0
  124.4930  132.8630   62.7560 C   0  0  0  0  0  0  0  0  0  0  0  0
  126.4850  130.9870   63.6440 C   0  0  0  0  0  0  0  0  0  0  0  0
  127.4110  130.0980   64.1840 C   0  0  0  0  0  0  0  0  0  0  0  0
  128.7950  127.2150   64.8090 C   0  0  0  0  0  0  0  0  0  0  0  0
  128.6930  127.1840   63.3460 C   0  0  0  0  0  0  0  0  0  0  0  0
  128.6120  127.1610   62.1920 N   0  0  0  0  0  0  0  0  0  0  0  0
  128.7830  122.1110   60.4050 C   0  0  0  0  0  0  0  0  0  0  0  0
  128.4950  121.7560   59.0890 C   0  0  0  0  0  0  0  0  0  0  0  0
  1  2  1  0
  2  3  1  0
  3  4  1  0
  4  5  2  0
  4  6  1  0
  6  7  2  0
  7  8  1  0
  8  9  2  0
  9 10  1  0
 10 11  1  0
 11 12  2  0
 11 13  1  0
 13 14  1  0
 14 15  1  0
 15 16  2  0
 16 17  1  0
 17 18  1  0
 18 19  2  0
 19 20  1  0
 20 21  2  0
 21 22  1  0
 22 23  1  0
 21 24  1  0
 24 25  2  0
 17 26  2  0
 26 27  1  0
 27 28  1  0
 28 29  2  0
 29 30  1  0
 30 31  2  0
 31 32  1  0
 32 33  1  0
 31 34  1  0
 34 35  2  0
 27 36  2  0
 36 37  1  0
 37 38  3  0
  9 39  1  0
 39 40  2  0
 40  6  1  0
 36 15  1  0
 25 18  1  0
 35 28  1  0
M  END
>  <Binding energies>  (1) 
[-11.28]

>  <Ligand effiencies>  (1) 
[-0.27512195121951216]

>  <Interactions>  (1) 
["V-A:GLU:543:CD:4905, V-B:LEU:475:CD2:9227, V-B:LYS:547:CE:9919, V-A:LYS:547:CE:4947, H-A:LYS:547:NZ:4948, V-A:GLY:544:C:4909, V-A:HIS:456:CE1:4066, V-A:GLU:543:C:4899, V-A:HIS:456:CD2:4064, V-B:HIS:456:CE1:9038, V-B:TYR:539:CE1:9844, V-B:PRO:540:CA:9852, V-B:TYR:539:CZ:9846, V-B:TYR:531:CE2:9762, V-B:PRO:540:N:9853, V-B:PRO:540:CB:9854, H-B:TYR:539:N:9839, V-B:LEU:363:CD1:8157, V-B:ALA:541:CB:9861, H-B:GLU:543:OE2:9879, V-B:GLU:543:CD:9877, V-B:GLU:543:CG:9876, V-B:TYR:539:CE2:9845, V-A:GLU:543:CG:4904, V-B:ILE:538:CG2:9832, V-B:ILE:538:CB:9831, V-B:PRO:540:CD:9856, V-B:TYR:539:C:9836, V-B:TYR:539:CD2:9843, V-B:TYR:539:CD1:9842, V-B:TYR:539:CG:9841, V-B:ARG:545:CZ:9895, H-B:GLY:454:N:9018, V-B:GLY:454:CA:9017, V-B:TYR:539:CA:9838"]

$$$$
1b_Ghoteimi_2023
     RDKit          3D

 34 37  0  0  0  0  0  0  0  0999 V2000
  128.6360  127.3590   74.0910 C   0  0  0  0  0  0  0  0  0  0  0  0
  129.7430  126.9970   73.2730 O   0  0  0  0  0  0  0  0  0  0  0  0
  129.6250  127.0910   71.9000 C   0  0  0  0  0  0  0  0  0  0  0  0
  128.4870  126.5240   71.3300 C   0  0  0  0  0  0  0  0  0  0  0  0
  128.2830  126.5690   69.9540 C   0  0  0  0  0  0  0  0  0  0  0  0
  129.2120  127.1890   69.1040 C   0  0  0  0  0  0  0  0  0  0  0  0
  128.9900  127.2340   67.6180 C   0  0  0  0  0  0  0  0  0  0  0  0
  128.0960  128.1200   67.0090 C   0  0  0  0  0  0  0  0  0  0  0  0
  127.9280  128.1250   65.6180 C   0  0  0  0  0  0  0  0  0  0  0  0
  126.9520  129.0940   65.0380 C   0  0  0  0  0  0  0  0  0  0  0  0
  125.5780  128.8880   65.1880 C   0  0  0  0  0  0  0  0  0  0  0  0
  124.6640  129.7840   64.6420 C   0  0  0  0  0  0  0  0  0  0  0  0
  125.1040  130.9000   63.9300 C   0  0  0  0  0  0  0  0  0  0  0  0
  124.1260  131.7340   63.4230 O   0  0  0  0  0  0  0  0  0  0  0  0
  124.1180  132.0280   62.0300 C   0  0  0  0  0  0  0  0  0  0  0  0
  126.4820  131.1070   63.7690 C   0  0  0  0  0  0  0  0  0  0  0  0
  127.3940  130.2090   64.3170 C   0  0  0  0  0  0  0  0  0  0  0  0
  128.6960  127.2200   64.8440 C   0  0  0  0  0  0  0  0  0  0  0  0
  128.6290  127.2510   63.3800 C   0  0  0  0  0  0  0  0  0  0  0  0
  128.5750  127.2770   62.2240 N   0  0  0  0  0  0  0  0  0  0  0  0
  129.5660  126.3380   65.5230 C   0  0  0  0  0  0  0  0  0  0  0  0
  130.5980  125.1320   64.7170 S   0  0  0  0  0  0  0  0  0  0  0  0
  132.3240  125.4440   65.2190 C   0  0  0  0  0  0  0  0  0  0  0  0
  133.3850  125.0310   64.1880 C   0  0  0  0  0  0  0  0  0  0  0  0
  134.5860  125.1490   64.4400 O   0  0  0  0  0  0  0  0  0  0  0  0
  132.8860  124.5500   63.0280 N   0  0  0  0  0  0  0  0  0  0  0  0
  133.6040  124.1030   61.9250 C   0  0  0  0  0  0  0  0  0  0  0  0
  133.0010  123.7240   60.7260 C   0  0  0  0  0  0  0  0  0  0  0  0
  134.0400  123.3520   59.9050 C   0  0  0  0  0  0  0  0  0  0  0  0
  135.2090  123.5020   60.5730 O   0  0  0  0  0  0  0  0  0  0  0  0
  134.9190  123.9780   61.8520 N   0  0  0  0  0  0  0  0  0  0  0  0
  129.7180  126.3650   66.8690 N   0  0  0  0  0  0  0  0  0  0  0  0
  130.3560  127.7550   69.6890 C   0  0  0  0  0  0  0  0  0  0  0  0
  130.5640  127.7110   71.0640 C   0  0  0  0  0  0  0  0  0  0  0  0
  1  2  1  0
  2  3  1  0
  3  4  2  0
  4  5  1  0
  5  6  2  0
  6  7  1  0
  7  8  2  0
  8  9  1  0
  9 10  1  0
 10 11  2  0
 11 12  1  0
 12 13  2  0
 13 14  1  0
 14 15  1  0
 13 16  1  0
 16 17  2  0
  9 18  2  0
 18 19  1  0
 19 20  3  0
 18 21  1  0
 21 22  1  0
 22 23  1  0
 23 24  1  0
 24 25  2  0
 24 26  1  0
 26 27  1  0
 27 28  1  0
 28 29  2  0
 29 30  1  0
 30 31  1  0
 21 32  2  0
  6 33  1  0
 33 34  2  0
 34  3  1  0
 32  7  1  0
 17 10  1  0
 31 27  2  0
M  END
>  <Binding energies>  (2) 
[-9.7]

>  <Ligand effiencies>  (2) 
[-0.27714285714285714]

>  <Interactions>  (2) 
["V-A:ASP:366:CB:3208, V-A:ASP:366:CG:3209, V-A:GLU:543:CD:4905, V-B:LYS:547:CE:9919, V-A:LYS:547:CE:4947, H-A:LYS:547:NZ:4948, V-A:GLY:544:C:4909, V-A:HIS:456:CE1:4066, V-A:GLU:543:C:4899, V-A:HIS:456:CD2:4064, V-B:HIS:456:CE1:9038, V-B:GLU:543:CD:9877, V-A:ARG:545:CZ:4923, H-A:ARG:545:NH2:4925, H-A:ARG:545:NE:4921, V-A:GLU:543:CG:4904, V-A:ILE:369:CG1:3234, V-A:ILE:369:CB:3232, V-B:ILE:369:CD1:8207, H-A:GLY:454:N:4046, H-A:ARG:545:NH1:4924, V-A:ILE:369:CG2:3233, V-B:ARG:545:CZ:9895, H-B:GLY:454:N:9018, V-A:ASP:366:CA:3206"]

$$$$
1c_Ghoteimi_2023
     RDKit          3D

 34 37  0  0  0  0  0  0  0  0999 V2000
  128.6440  127.3860   74.0560 C   0  0  0  0  0  0  0  0  0  0  0  0
  129.7170  127.0220   73.1950 O   0  0  0  0  0  0  0  0  0  0  0  0
  129.5590  127.1490   71.8280 C   0  0  0  0  0  0  0  0  0  0  0  0
  128.4000  126.6070   71.2800 C   0  0  0  0  0  0  0  0  0  0  0  0
  128.1600  126.6860   69.9110 C   0  0  0  0  0  0  0  0  0  0  0  0
  129.0750  127.3100   69.0480 C   0  0  0  0  0  0  0  0  0  0  0  0
  128.8220  127.3940   67.5710 C   0  0  0  0  0  0  0  0  0  0  0  0
  127.9800  128.3540   67.0000 C   0  0  0  0  0  0  0  0  0  0  0  0
  127.7960  128.4100   65.6140 C   0  0  0  0  0  0  0  0  0  0  0  0
  126.9370  129.5020   65.0690 C   0  0  0  0  0  0  0  0  0  0  0  0
  125.5710  129.2950   64.8590 C   0  0  0  0  0  0  0  0  0  0  0  0
  124.7760  130.3070   64.3310 C   0  0  0  0  0  0  0  0  0  0  0  0
  125.3300  131.5430   63.9990 C   0  0  0  0  0  0  0  0  0  0  0  0
  124.4660  132.4890   63.4800 O   0  0  0  0  0  0  0  0  0  0  0  0
  124.1400  132.4470   62.0950 C   0  0  0  0  0  0  0  0  0  0  0  0
  126.7030  131.7530   64.2020 C   0  0  0  0  0  0  0  0  0  0  0  0
  127.4960  130.7380   64.7300 C   0  0  0  0  0  0  0  0  0  0  0  0
  128.4590  127.4540   64.8080 C   0  0  0  0  0  0  0  0  0  0  0  0
  128.2810  127.4380   63.3520 C   0  0  0  0  0  0  0  0  0  0  0  0
  128.1410  127.4270   62.2030 N   0  0  0  0  0  0  0  0  0  0  0  0
  129.3060  126.5250   65.4460 C   0  0  0  0  0  0  0  0  0  0  0  0
  130.3290  125.3800   64.5470 S   0  0  0  0  0  0  0  0  0  0  0  0
  131.9710  125.5100   65.3270 C   0  0  0  0  0  0  0  0  0  0  0  0
  133.1020  125.1440   64.3590 C   0  0  0  0  0  0  0  0  0  0  0  0
  134.2650  125.1180   64.7640 O   0  0  0  0  0  0  0  0  0  0  0  0
  132.7070  124.8270   63.1060 N   0  0  0  0  0  0  0  0  0  0  0  0
  133.5010  124.3170   62.0910 C   0  0  0  0  0  0  0  0  0  0  0  0
  134.7970  124.0890   62.1170 N   0  0  0  0  0  0  0  0  0  0  0  0
  135.2170  123.5610   60.9840 C   0  0  0  0  0  0  0  0  0  0  0  0
  134.2490  123.3470   60.0080 C   0  0  0  0  0  0  0  0  0  0  0  0
  132.7070  123.8740   60.6150 S   0  0  0  0  0  0  0  0  0  0  0  0
  129.4870  126.5040   66.7880 N   0  0  0  0  0  0  0  0  0  0  0  0
  130.2360  127.8580   69.6130 C   0  0  0  0  0  0  0  0  0  0  0  0
  130.4800  127.7800   70.9800 C   0  0  0  0  0  0  0  0  0  0  0  0
  1  2  1  0
  2  3  1  0
  3  4  2  0
  4  5  1  0
  5  6  2  0
  6  7  1  0
  7  8  2  0
  8  9  1  0
  9 10  1  0
 10 11  2  0
 11 12  1  0
 12 13  2  0
 13 14  1  0
 14 15  1  0
 13 16  1  0
 16 17  2  0
  9 18  2  0
 18 19  1  0
 19 20  3  0
 18 21  1  0
 21 22  1  0
 22 23  1  0
 23 24  1  0
 24 25  2  0
 24 26  1  0
 26 27  1  0
 27 28  2  0
 28 29  1  0
 29 30  2  0
 30 31  1  0
 21 32  2  0
  6 33  1  0
 33 34  2  0
 34  3  1  0
 32  7  1  0
 17 10  1  0
 31 27  1  0
M  END
>  <Binding energies>  (3) 
[-9.52]

>  <Ligand effiencies>  (3) 
[-0.27199999999999996]

>  <Interactions>  (3) 
["V-A:ASP:366:CB:3208, V-A:ASP:366:CG:3209, V-A:GLU:543:CD:4905, V-B:LYS:547:CE:9919, V-A:LYS:547:CE:4947, H-A:LYS:547:NZ:4948, V-A:GLY:544:C:4909, V-A:HIS:456:CE1:4066, V-A:GLU:543:C:4899, V-A:HIS:456:CD2:4064, V-B:HIS:456:CE1:9038, V-B:HIS:456:CD2:9036, V-B:GLU:543:CD:9877, V-B:GLU:543:CG:9876, V-A:ARG:545:CZ:4923, H-A:ARG:545:NE:4921, V-A:GLU:543:CG:4904, V-A:ILE:369:CG1:3234, V-A:ILE:369:CB:3232, V-B:ILE:369:CD1:8207, H-A:GLY:454:N:4046, H-A:ARG:545:NH1:4924, V-A:ILE:369:CG2:3233, V-B:ARG:545:CZ:9895, V-A:GLY:453:C:4038, V-A:GLY:453:CA:4040, H-B:GLY:454:N:9018, V-A:ASP:366:CA:3206, V-B:GLY:454:CA:9017"]

$$$$
1d_Ghoteimi_2023
     RDKit          3D

 30 32  0  0  0  0  0  0  0  0999 V2000
  124.4850  129.9760   63.2200 C   0  0  0  0  0  0  0  0  0  0  0  0
  124.2080  130.5340   64.4950 O   0  0  0  0  0  0  0  0  0  0  0  0
  124.2800  129.7730   65.6070 C   0  0  0  0  0  0  0  0  0  0  0  0
  123.6000  129.9030   66.6250 O   0  0  0  0  0  0  0  0  0  0  0  0
  125.3380  128.6780   65.4920 C   0  0  0  0  0  0  0  0  0  0  0  0
  126.9580  129.4930   65.3720 S   0  0  0  0  0  0  0  0  0  0  0  0
  128.1720  128.3290   65.9530 C   0  0  0  0  0  0  0  0  0  0  0  0
  128.2550  128.2560   67.3030 N   0  0  0  0  0  0  0  0  0  0  0  0
  129.1440  127.4090   67.8820 C   0  0  0  0  0  0  0  0  0  0  0  0
  129.1700  127.3860   69.3830 C   0  0  0  0  0  0  0  0  0  0  0  0
  130.1390  128.0980   70.1070 C   0  0  0  0  0  0  0  0  0  0  0  0
  130.1650  128.0700   71.4980 C   0  0  0  0  0  0  0  0  0  0  0  0
  129.2250  127.3270   72.2100 C   0  0  0  0  0  0  0  0  0  0  0  0
  129.3290  127.3540   73.5870 O   0  0  0  0  0  0  0  0  0  0  0  0
  128.2300  127.8290   74.3560 C   0  0  0  0  0  0  0  0  0  0  0  0
  128.2520  126.6100   71.5020 C   0  0  0  0  0  0  0  0  0  0  0  0
  128.2280  126.6420   70.1100 C   0  0  0  0  0  0  0  0  0  0  0  0
  129.9720  126.5990   67.0970 C   0  0  0  0  0  0  0  0  0  0  0  0
  129.9170  126.6640   65.6990 C   0  0  0  0  0  0  0  0  0  0  0  0
  130.8340  125.7750   64.9220 C   0  0  0  0  0  0  0  0  0  0  0  0
  132.2200  125.9310   65.0260 C   0  0  0  0  0  0  0  0  0  0  0  0
  133.0800  125.1070   64.3050 C   0  0  0  0  0  0  0  0  0  0  0  0
  132.5750  124.1100   63.4710 C   0  0  0  0  0  0  0  0  0  0  0  0
  133.5020  123.3450   62.7900 O   0  0  0  0  0  0  0  0  0  0  0  0
  133.7670  123.6310   61.4210 C   0  0  0  0  0  0  0  0  0  0  0  0
  131.1850  123.9420   63.3730 C   0  0  0  0  0  0  0  0  0  0  0  0
  130.3270  124.7660   64.0960 C   0  0  0  0  0  0  0  0  0  0  0  0
  129.0060  127.5690   65.1010 C   0  0  0  0  0  0  0  0  0  0  0  0
  128.9790  127.7540   63.6470 C   0  0  0  0  0  0  0  0  0  0  0  0
  128.9590  127.8990   62.4990 N   0  0  0  0  0  0  0  0  0  0  0  0
  1  2  1  0
  2  3  1  0
  3  4  2  0
  3  5  1  0
  5  6  1  0
  6  7  1  0
  7  8  2  0
  8  9  1  0
  9 10  1  0
 10 11  2  0
 11 12  1  0
 12 13  2  0
 13 14  1  0
 14 15  1  0
 13 16  1  0
 16 17  2  0
  9 18  2  0
 18 19  1  0
 19 20  1  0
 20 21  2  0
 21 22  1  0
 22 23  2  0
 23 24  1  0
 24 25  1  0
 23 26  1  0
 26 27  2  0
 19 28  2  0
 28 29  1  0
 29 30  3  0
 28  7  1  0
 17 10  1  0
 27 20  1  0
M  END
>  <Binding energies>  (4) 
[-8.61]

>  <Ligand effiencies>  (4) 
[-0.287]

>  <Interactions>  (4) 
["V-A:ASP:366:CG:3209, V-A:GLU:543:CD:4905, V-B:LYS:547:CE:9919, V-A:LYS:547:CE:4947, H-A:LYS:547:NZ:4948, V-A:GLY:544:C:4909, V-A:HIS:456:CE1:4066, V-A:GLU:543:C:4899, V-B:HIS:456:CE1:9038, V-B:HIS:456:CD2:9036, V-B:ASP:366:CG:8181, V-B:GLU:543:CD:9877, V-A:ARG:545:CZ:4923, H-A:GLY:454:N:4046, V-B:ARG:545:CZ:9895, H-B:TYR:484:OH:9316, H-B:GLY:454:N:9018, V-B:ARG:545:CG:9891, V-B:ARG:545:CD:9892, H-B:HIS:456:ND1:9035, H-B:ILE:455:N:9023"]

$$$$
1j_Grossjean_2025
     RDKit          3D

 20 21  0  0  0  0  0  0  0  0999 V2000
  128.6240  122.3610   60.1230 C   0  0  0  0  0  0  0  0  0  0  0  0
  129.0360  123.3520   59.0490 C   0  0  0  0  0  0  0  0  0  0  0  0
  129.7210  124.5240   59.3630 C   0  0  0  0  0  0  0  0  0  0  0  0
  130.0870  125.3930   58.3300 C   0  0  0  0  0  0  0  0  0  0  0  0
  130.8520  126.6640   58.6970 C   0  0  0  0  0  0  0  0  0  0  0  0
  129.7470  125.0660   56.9980 C   0  0  0  0  0  0  0  0  0  0  0  0
  130.1670  125.9350   55.8960 C   0  0  0  0  0  0  0  0  0  0  0  0
  130.5010  126.6240   55.0280 N   0  0  0  0  0  0  0  0  0  0  0  0
  129.0280  123.8670   56.7750 C   0  0  0  0  0  0  0  0  0  0  0  0
  128.5170  123.3020   55.1670 S   0  0  0  0  0  0  0  0  0  0  0  0
  127.1290  122.1540   55.4000 C   0  0  0  0  0  0  0  0  0  0  0  0
  125.8720  122.8670   55.9040 C   0  0  0  0  0  0  0  0  0  0  0  0
  124.8700  122.9030   55.1900 O   0  0  0  0  0  0  0  0  0  0  0  0
  125.9680  123.4150   57.1350 N   0  0  0  0  0  0  0  0  0  0  0  0
  124.9780  124.1160   57.8090 C   0  0  0  0  0  0  0  0  0  0  0  0
  124.1940  125.0610   57.3360 N   0  0  0  0  0  0  0  0  0  0  0  0
  123.3650  125.5090   58.2580 C   0  0  0  0  0  0  0  0  0  0  0  0
  123.4660  124.9200   59.5150 C   0  0  0  0  0  0  0  0  0  0  0  0
  124.7190  123.7160   59.4760 S   0  0  0  0  0  0  0  0  0  0  0  0
  128.6970  123.0200   57.7820 N   0  0  0  0  0  0  0  0  0  0  0  0
  1  2  1  0
  2  3  2  0
  3  4  1  0
  4  5  1  0
  4  6  2  0
  6  7  1  0
  7  8  3  0
  6  9  1  0
  9 10  1  0
 10 11  1  0
 11 12  1  0
 12 13  2  0
 12 14  1  0
 14 15  1  0
 15 16  2  0
 16 17  1  0
 17 18  2  0
 18 19  1  0
  9 20  2  0
 20  2  1  0
 19 15  1  0
M  END
>  <Binding energies>  (5) 
[-6.37]

>  <Ligand effiencies>  (5) 
[-0.30333333333333334]

>  <Interactions>  (5) 
["V-A:ASP:366:CB:3208, V-A:ASP:366:CG:3209, V-B:ASP:366:CB:8180, H-A:TYR:531:OH:4792, V-B:TYR:539:CE1:9844, V-B:MET:535:CE:9804, V-B:PRO:540:CA:9852, V-B:TYR:539:CZ:9846, V-B:TYR:531:CE2:9762, V-B:ASN:362:C:8140, V-B:PRO:540:CB:9854, V-B:ASP:366:CG:8181, V-B:LEU:363:CD1:8157, V-B:LEU:363:CA:8153, H-B:TYR:531:OH:9764, V-B:ALA:541:CB:9861, V-B:TYR:539:CE2:9845, V-B:ILE:538:CG2:9832, V-B:ILE:538:CB:9831, V-B:TYR:539:CD2:9843, V-B:ILE:538:CA:9829, V-B:TYR:539:CD1:9842, V-B:ILE:538:C:9827"]

$$$$
1o_Grossjean_2025
     RDKit          3D

 26 27  0  0  0  0  0  0  0  0999 V2000
  128.3000  122.0050   58.5700 C   0  0  0  0  0  0  0  0  0  0  0  0
  127.8850  121.6710   57.2530 O   0  0  0  0  0  0  0  0  0  0  0  0
  126.8260  122.2940   56.6750 C   0  0  0  0  0  0  0  0  0  0  0  0
  126.0870  121.7520   55.8470 O   0  0  0  0  0  0  0  0  0  0  0  0
  126.6390  123.7080   57.1450 C   0  0  0  0  0  0  0  0  0  0  0  0
  127.6480  124.6740   57.0120 C   0  0  0  0  0  0  0  0  0  0  0  0
  127.4420  125.9770   57.4560 C   0  0  0  0  0  0  0  0  0  0  0  0
  126.2300  126.3410   58.0440 C   0  0  0  0  0  0  0  0  0  0  0  0
  126.1260  127.6870   58.4490 N   0  0  0  0  0  0  0  0  0  0  0  0
  126.5830  128.8090   57.8500 C   0  0  0  0  0  0  0  0  0  0  0  0
  127.1640  128.8480   56.7650 O   0  0  0  0  0  0  0  0  0  0  0  0
  126.3080  130.1190   58.6030 C   0  0  0  0  0  0  0  0  0  0  0  0
  126.8900  131.3610   57.8990 C   0  0  0  0  0  0  0  0  0  0  0  0
  127.9160  132.4060   58.9760 S   0  0  0  0  0  0  0  0  0  0  0  0
  129.6290  132.0330   58.6580 C   0  0  0  0  0  0  0  0  0  0  0  0
  130.3150  131.6580   59.7670 N   0  0  0  0  0  0  0  0  0  0  0  0
  131.6250  131.3410   59.6460 C   0  0  0  0  0  0  0  0  0  0  0  0
  132.3220  130.9170   60.9260 C   0  0  0  0  0  0  0  0  0  0  0  0
  132.3030  131.3960   58.4300 C   0  0  0  0  0  0  0  0  0  0  0  0
  131.6120  131.8060   57.2850 C   0  0  0  0  0  0  0  0  0  0  0  0
  132.3810  131.8720   55.9660 C   0  0  0  0  0  0  0  0  0  0  0  0
  130.2440  132.1460   57.3870 C   0  0  0  0  0  0  0  0  0  0  0  0
  129.5200  132.6340   56.2110 C   0  0  0  0  0  0  0  0  0  0  0  0
  128.9490  133.0180   55.2810 N   0  0  0  0  0  0  0  0  0  0  0  0
  125.2150  125.3820   58.1750 C   0  0  0  0  0  0  0  0  0  0  0  0
  125.4220  124.0800   57.7300 C   0  0  0  0  0  0  0  0  0  0  0  0
  1  2  1  0
  2  3  1  0
  3  4  2  0
  3  5  1  0
  5  6  2  0
  6  7  1  0
  7  8  2  0
  8  9  1  0
  9 10  1  0
 10 11  2  0
 10 12  1  0
 12 13  1  0
 13 14  1  0
 14 15  1  0
 15 16  2  0
 16 17  1  0
 17 18  1  0
 17 19  2  0
 19 20  1  0
 20 21  1  0
 20 22  2  0
 22 23  1  0
 23 24  3  0
  8 25  1  0
 25 26  2  0
 26  5  1  0
 22 15  1  0
M  END
>  <Binding energies>  (6) 
[-8.7]

>  <Ligand effiencies>  (6) 
[-0.3222222222222222]

>  <Interactions>  (6) 
["V-A:TYR:539:CD2:4871, V-A:PRO:540:CB:4882, V-A:PRO:540:CA:4880, V-A:PRO:540:N:4881, V-A:LEU:363:CD1:3185, V-A:TYR:539:C:4864, V-A:ASN:362:CB:3172, V-A:GLU:543:CD:4905, V-A:TYR:539:CE2:4873, V-A:ILE:538:CD1:4862, V-B:ASP:366:CB:8180, V-B:TYR:539:CE1:9844, V-B:MET:535:CE:9804, V-B:PRO:540:CA:9852, V-B:TYR:539:CZ:9846, V-A:TYR:531:CZ:4791, H-B:ASP:366:OD1:8182, V-B:PRO:540:N:9853, V-B:ASP:366:CG:8181, H-B:TYR:539:N:9839, H-B:TYR:531:OH:9764, V-A:ILE:538:CG2:4860, V-B:TYR:539:CE2:9845, V-B:ILE:538:CB:9831, V-B:PRO:540:CD:9856, V-B:TYR:539:C:9836, V-B:TYR:539:CD2:9843, V-B:TYR:539:CD1:9842, V-B:TYR:539:CG:9841, H-A:TYR:539:N:4867, V-A:TYR:539:CA:4866, V-A:TYR:531:CE2:4790"]

$$$$
1p_Grossjean_2025
     RDKit          3D

 21 22  0  0  0  0  0  0  0  0999 V2000
  124.1300  124.0440   61.3390 C   0  0  0  0  0  0  0  0  0  0  0  0
  124.9480  123.6660   60.1190 C   0  0  0  0  0  0  0  0  0  0  0  0
  124.5330  124.0030   58.8310 C   0  0  0  0  0  0  0  0  0  0  0  0
  125.3200  123.6170   57.7410 C   0  0  0  0  0  0  0  0  0  0  0  0
  124.8380  123.9840   56.3380 C   0  0  0  0  0  0  0  0  0  0  0  0
  126.5180  122.9040   57.9710 C   0  0  0  0  0  0  0  0  0  0  0  0
  127.3340  122.4470   56.8450 C   0  0  0  0  0  0  0  0  0  0  0  0
  127.9780  122.0860   55.9540 N   0  0  0  0  0  0  0  0  0  0  0  0
  126.8720  122.6250   59.3130 C   0  0  0  0  0  0  0  0  0  0  0  0
  128.3480  121.7480   59.7790 S   0  0  0  0  0  0  0  0  0  0  0  0
  129.1960  122.7690   61.0190 C   0  0  0  0  0  0  0  0  0  0  0  0
  130.6690  123.0660   60.6770 C   0  0  0  0  0  0  0  0  0  0  0  0
  131.5850  123.1270   61.9090 C   0  0  0  0  0  0  0  0  0  0  0  0
  131.9870  122.0800   62.4200 O   0  0  0  0  0  0  0  0  0  0  0  0
  131.9000  124.3690   62.3410 N   0  0  0  0  0  0  0  0  0  0  0  0
  132.7040  124.7030   63.4240 C   0  0  0  0  0  0  0  0  0  0  0  0
  132.1940  125.0220   64.6820 C   0  0  0  0  0  0  0  0  0  0  0  0
  133.2980  125.2870   65.4600 C   0  0  0  0  0  0  0  0  0  0  0  0
  134.4140  125.1370   64.7090 O   0  0  0  0  0  0  0  0  0  0  0  0
  134.0250  124.7680   63.4200 N   0  0  0  0  0  0  0  0  0  0  0  0
  126.0920  122.9860   60.3630 N   0  0  0  0  0  0  0  0  0  0  0  0
  1  2  1  0
  2  3  2  0
  3  4  1  0
  4  5  1  0
  4  6  2  0
  6  7  1  0
  7  8  3  0
  6  9  1  0
  9 10  1  0
 10 11  1  0
 11 12  1  0
 12 13  1  0
 13 14  2  0
 13 15  1  0
 15 16  1  0
 16 17  1  0
 17 18  2  0
 18 19  1  0
 19 20  1  0
  9 21  2  0
 21  2  1  0
 20 16  2  0
M  END
>  <Binding energies>  (7) 
[-7.61]

>  <Ligand effiencies>  (7) 
[-0.34590909090909094]

>  <Interactions>  (7) 
["V-A:HIS:456:CE1:4066, V-B:ASN:362:CB:8144, V-B:PRO:540:CA:9852, V-B:TYR:539:CZ:9846, V-B:TYR:531:CE2:9762, V-B:ASN:362:C:8140, V-B:PRO:540:N:9853, V-B:PRO:540:C:9850, V-B:PRO:540:CB:9854, H-B:TYR:539:N:9839, V-B:LEU:363:CD1:8157, V-B:ALA:541:CB:9861, V-B:GLU:543:CD:9877, V-A:ARG:545:CZ:4923, V-A:ARG:545:CD:4920, H-A:ARG:545:NH2:4925, V-B:TYR:539:CE2:9845, H-A:ARG:545:NE:4921, H-B:ALA:541:N:9860, V-B:TYR:539:C:9836, V-B:TYR:539:CD1:9842, H-A:GLY:454:N:4046, H-A:ARG:545:NH1:4924, V-B:ARG:545:CZ:9895"]

$$$$
2a_Ghoteimi_2023
     RDKit          3D

 48 53  0  0  0  0  0  0  0  0999 V2000
  124.9220  124.4290   56.5270 C   0  0  0  0  0  0  0  0  0  0  0  0
  125.0460  123.0770   55.8180 C   0  0  0  0  0  0  0  0  0  0  0  0
  125.7010  122.1520   56.6760 O   0  0  0  0  0  0  0  0  0  0  0  0
  127.0420  122.2130   56.8800 C   0  0  0  0  0  0  0  0  0  0  0  0
  127.8750  122.0530   55.9830 O   0  0  0  0  0  0  0  0  0  0  0  0
  127.4120  122.5020   58.3070 C   0  0  0  0  0  0  0  0  0  0  0  0
  126.5790  123.2500   59.1530 C   0  0  0  0  0  0  0  0  0  0  0  0
  126.9510  123.4990   60.4710 C   0  0  0  0  0  0  0  0  0  0  0  0
  128.1550  123.0030   60.9730 C   0  0  0  0  0  0  0  0  0  0  0  0
  128.4330  123.3180   62.3170 N   0  0  0  0  0  0  0  0  0  0  0  0
  129.5070  123.0070   63.0750 C   0  0  0  0  0  0  0  0  0  0  0  0
  130.4580  122.3170   62.7060 O   0  0  0  0  0  0  0  0  0  0  0  0
  129.4720  123.5490   64.5100 C   0  0  0  0  0  0  0  0  0  0  0  0
  130.7020  124.8470   64.8560 S   0  0  0  0  0  0  0  0  0  0  0  0
  129.7840  126.2070   65.5400 C   0  0  0  0  0  0  0  0  0  0  0  0
  129.7550  126.2230   66.8930 N   0  0  0  0  0  0  0  0  0  0  0  0
  129.0780  127.2080   67.5340 C   0  0  0  0  0  0  0  0  0  0  0  0
  129.0810  127.1570   69.0280 C   0  0  0  0  0  0  0  0  0  0  0  0
  130.0990  127.7650   69.7730 C   0  0  0  0  0  0  0  0  0  0  0  0
  130.1030  127.7030   71.1640 C   0  0  0  0  0  0  0  0  0  0  0  0
  129.0860  127.0380   71.8630 C   0  0  0  0  0  0  0  0  0  0  0  0
  129.1200  126.9590   73.2600 N   0  0  0  0  0  0  0  0  0  0  0  0
  129.7770  125.8320   73.9510 C   0  0  0  0  0  0  0  0  0  0  0  0
  130.0350  126.0870   75.4510 C   0  0  0  0  0  0  0  0  0  0  0  0
  128.8240  126.4430   76.0990 O   0  0  0  0  0  0  0  0  0  0  0  0
  128.2710  127.6280   75.5480 C   0  0  0  0  0  0  0  0  0  0  0  0
  127.9600  127.4220   74.0500 C   0  0  0  0  0  0  0  0  0  0  0  0
  128.0740  126.4200   71.1110 C   0  0  0  0  0  0  0  0  0  0  0  0
  128.0690  126.4840   69.7210 C   0  0  0  0  0  0  0  0  0  0  0  0
  128.4200  128.2150   66.8220 C   0  0  0  0  0  0  0  0  0  0  0  0
  128.4360  128.2190   65.4210 C   0  0  0  0  0  0  0  0  0  0  0  0
  127.7080  129.3210   64.7220 C   0  0  0  0  0  0  0  0  0  0  0  0
  127.8650  130.6440   65.1420 C   0  0  0  0  0  0  0  0  0  0  0  0
  127.1760  131.6750   64.5110 C   0  0  0  0  0  0  0  0  0  0  0  0
  126.3100  131.4150   63.4390 C   0  0  0  0  0  0  0  0  0  0  0  0
  125.5940  132.4330   62.8030 N   0  0  0  0  0  0  0  0  0  0  0  0
  124.1190  132.4350   62.8770 C   0  0  0  0  0  0  0  0  0  0  0  0
  123.4910  133.7900   62.4850 C   0  0  0  0  0  0  0  0  0  0  0  0
  123.9310  134.1740   61.1920 O   0  0  0  0  0  0  0  0  0  0  0  0
  125.3420  134.3130   61.1380 C   0  0  0  0  0  0  0  0  0  0  0  0
  126.0200  132.9750   61.4980 C   0  0  0  0  0  0  0  0  0  0  0  0
  126.1480  130.0830   63.0310 C   0  0  0  0  0  0  0  0  0  0  0  0
  126.8360  129.0510   63.6630 C   0  0  0  0  0  0  0  0  0  0  0  0
  129.1430  127.1890   64.7530 C   0  0  0  0  0  0  0  0  0  0  0  0
  129.2430  127.1720   63.2900 C   0  0  0  0  0  0  0  0  0  0  0  0
  129.3200  127.1600   62.1350 N   0  0  0  0  0  0  0  0  0  0  0  0
  128.9970  122.2610   60.1310 C   0  0  0  0  0  0  0  0  0  0  0  0
  128.6230  122.0110   58.8130 C   0  0  0  0  0  0  0  0  0  0  0  0
  1  2  1  0
  2  3  1  0
  3  4  1  0
  4  5  2  0
  4  6  1  0
  6  7  2  0
  7  8  1  0
  8  9  2  0
  9 10  1  0
 10 11  1  0
 11 12  2  0
 11 13  1  0
 13 14  1  0
 14 15  1  0
 15 16  2  0
 16 17  1  0
 17 18  1  0
 18 19  2  0
 19 20  1  0
 20 21  2  0
 21 22  1  0
 22 23  1  0
 23 24  1  0
 24 25  1  0
 25 26  1  0
 26 27  1  0
 21 28  1  0
 28 29  2  0
 17 30  2  0
 30 31  1  0
 31 32  1  0
 32 33  2  0
 33 34  1  0
 34 35  2  0
 35 36  1  0
 36 37  1  0
 37 38  1  0
 38 39  1  0
 39 40  1  0
 40 41  1  0
 35 42  1  0
 42 43  2  0
 31 44  2  0
 44 45  1  0
 45 46  3  0
  9 47  1  0
 47 48  2  0
 48  6  1  0
 44 15  1  0
 29 18  1  0
 43 32  1  0
 27 22  1  0
 41 36  1  0
M  END
>  <Binding energies>  (8) 
[-11.95]

>  <Ligand effiencies>  (8) 
[-0.24387755102040815]

>  <Interactions>  (8) 
["V-A:GLU:543:CD:4905, V-B:LEU:475:CD2:9227, V-B:LYS:547:CE:9919, V-A:LYS:547:CE:4947, V-A:HIS:456:CE1:4066, V-A:GLU:543:CB:4903, V-A:HIS:456:CD2:4064, V-B:GLU:543:CB:9875, V-B:HIS:456:CE1:9038, V-B:GLY:544:C:9881, V-B:HIS:456:CD2:9036, V-B:TYR:539:CE1:9844, V-B:MET:535:CE:9804, V-B:PRO:540:CA:9852, V-B:TYR:539:CZ:9846, V-B:TYR:531:CE2:9762, V-B:PRO:540:N:9853, V-B:TYR:531:CZ:9763, V-B:PRO:540:CB:9854, H-B:TYR:539:N:9839, V-B:LEU:363:CD1:8157, V-B:ALA:541:CB:9861, H-B:GLU:543:OE2:9879, V-B:GLU:543:CD:9877, V-B:GLU:543:CG:9876, V-B:TYR:539:CE2:9845, V-A:TYR:484:CE1:4341, V-A:GLU:543:CG:4904, V-B:ILE:538:CG2:9832, V-B:ILE:538:CB:9831, V-B:PRO:540:CD:9856, V-B:TYR:539:C:9836, V-B:TYR:539:CD2:9843, V-B:ILE:369:CD1:8207, V-B:TYR:539:CD1:9842, V-B:TYR:539:CG:9841, H-A:TYR:484:OH:4344, V-B:GLY:454:CA:9017, V-B:TYR:484:CE1:9313, V-B:LYS:547:CD:9918"]

$$$$
2aa_Ghoteimi_2023
     RDKit          3D

 48 53  0  0  0  0  0  0  0  0999 V2000
  129.0330  123.6560   55.5940 C   0  0  0  0  0  0  0  0  0  0  0  0
  128.1150  122.6600   54.8790 C   0  0  0  0  0  0  0  0  0  0  0  0
  127.5260  121.7910   55.8370 O   0  0  0  0  0  0  0  0  0  0  0  0
  126.4800  122.1960   56.6040 C   0  0  0  0  0  0  0  0  0  0  0  0
  125.3150  122.2450   56.1940 O   0  0  0  0  0  0  0  0  0  0  0  0
  126.8790  122.5630   58.0040 C   0  0  0  0  0  0  0  0  0  0  0  0
  128.0340  122.0430   58.6060 C   0  0  0  0  0  0  0  0  0  0  0  0
  128.3800  122.4060   59.9040 C   0  0  0  0  0  0  0  0  0  0  0  0
  127.5760  123.2870   60.6300 C   0  0  0  0  0  0  0  0  0  0  0  0
  128.0210  123.5890   61.9320 N   0  0  0  0  0  0  0  0  0  0  0  0
  129.2780  123.7010   62.4120 C   0  0  0  0  0  0  0  0  0  0  0  0
  130.3060  123.5790   61.7430 O   0  0  0  0  0  0  0  0  0  0  0  0
  129.3620  124.0310   63.9080 C   0  0  0  0  0  0  0  0  0  0  0  0
  130.0680  125.2640   64.0900 O   0  0  0  0  0  0  0  0  0  0  0  0
  129.4780  126.3070   64.7920 C   0  0  0  0  0  0  0  0  0  0  0  0
  129.5200  126.2670   66.1530 N   0  0  0  0  0  0  0  0  0  0  0  0
  128.9570  127.2730   66.8690 C   0  0  0  0  0  0  0  0  0  0  0  0
  129.0370  127.1600   68.3590 C   0  0  0  0  0  0  0  0  0  0  0  0
  128.1170  126.3800   69.0670 C   0  0  0  0  0  0  0  0  0  0  0  0
  128.1910  126.2660   70.4530 C   0  0  0  0  0  0  0  0  0  0  0  0
  129.1980  126.9170   71.1820 C   0  0  0  0  0  0  0  0  0  0  0  0
  129.2790  126.8230   72.5760 N   0  0  0  0  0  0  0  0  0  0  0  0
  128.2150  127.3630   73.4470 C   0  0  0  0  0  0  0  0  0  0  0  0
  128.6290  127.4920   74.9280 C   0  0  0  0  0  0  0  0  0  0  0  0
  129.0970  126.2430   75.4120 O   0  0  0  0  0  0  0  0  0  0  0  0
  130.2290  125.7950   74.6830 C   0  0  0  0  0  0  0  0  0  0  0  0
  129.8620  125.6150   73.1940 C   0  0  0  0  0  0  0  0  0  0  0  0
  130.1050  127.7140   70.4690 C   0  0  0  0  0  0  0  0  0  0  0  0
  130.0290  127.8300   69.0840 C   0  0  0  0  0  0  0  0  0  0  0  0
  128.3190  128.3430   66.2340 C   0  0  0  0  0  0  0  0  0  0  0  0
  128.2520  128.4010   64.8370 C   0  0  0  0  0  0  0  0  0  0  0  0
  127.5340  129.5560   64.2160 C   0  0  0  0  0  0  0  0  0  0  0  0
  127.8170  130.8630   64.6210 C   0  0  0  0  0  0  0  0  0  0  0  0
  127.1380  131.9420   64.0620 C   0  0  0  0  0  0  0  0  0  0  0  0
  126.1460  131.7440   63.0890 C   0  0  0  0  0  0  0  0  0  0  0  0
  125.4540  132.8120   62.5110 N   0  0  0  0  0  0  0  0  0  0  0  0
  123.9810  132.8230   62.4360 C   0  0  0  0  0  0  0  0  0  0  0  0
  123.3930  134.2110   62.1000 C   0  0  0  0  0  0  0  0  0  0  0  0
  123.9640  134.7000   60.8960 O   0  0  0  0  0  0  0  0  0  0  0  0
  125.3730  134.8340   61.0030 C   0  0  0  0  0  0  0  0  0  0  0  0
  126.0130  133.4640   61.3090 C   0  0  0  0  0  0  0  0  0  0  0  0
  125.8740  130.4300   62.6840 C   0  0  0  0  0  0  0  0  0  0  0  0
  126.5530  129.3510   63.2430 C   0  0  0  0  0  0  0  0  0  0  0  0
  128.8610  127.3620   64.0960 C   0  0  0  0  0  0  0  0  0  0  0  0
  128.8840  127.3660   62.6320 C   0  0  0  0  0  0  0  0  0  0  0  0
  128.9020  127.3700   61.4740 N   0  0  0  0  0  0  0  0  0  0  0  0
  126.4230  123.8170   60.0330 C   0  0  0  0  0  0  0  0  0  0  0  0
  126.0820  123.4550   58.7320 C   0  0  0  0  0  0  0  0  0  0  0  0
  1  2  1  0
  2  3  1  0
  3  4  1  0
  4  5  2  0
  4  6  1  0
  6  7  2  0
  7  8  1  0
  8  9  2  0
  9 10  1  0
 10 11  1  0
 11 12  2  0
 11 13  1  0
 13 14  1  0
 14 15  1  0
 15 16  2  0
 16 17  1  0
 17 18  1  0
 18 19  2  0
 19 20  1  0
 20 21  2  0
 21 22  1  0
 22 23  1  0
 23 24  1  0
 24 25  1  0
 25 26  1  0
 26 27  1  0
 21 28  1  0
 28 29  2  0
 17 30  2  0
 30 31  1  0
 31 32  1  0
 32 33  2  0
 33 34  1  0
 34 35  2  0
 35 36  1  0
 36 37  1  0
 37 38  1  0
 38 39  1  0
 39 40  1  0
 40 41  1  0
 35 42  1  0
 42 43  2  0
 31 44  2  0
 44 45  1  0
 45 46  3  0
  9 47  1  0
 47 48  2  0
 48  6  1  0
 44 15  1  0
 29 18  1  0
 43 32  1  0
 27 22  1  0
 41 36  1  0
M  END
>  <Binding energies>  (9) 
[-11.65]

>  <Ligand effiencies>  (9) 
[-0.23775510204081635]

>  <Interactions>  (9) 
["V-B:TRP:381:CH2:8340, V-A:GLU:543:CD:4905, V-B:LEU:475:CD2:9227, V-B:GLU:543:C:9871, V-B:LYS:547:CE:9919, V-A:LYS:547:CE:4947, V-A:HIS:456:CE1:4066, H-B:LYS:547:NZ:9920, V-A:GLU:543:C:4899, V-A:GLU:543:CB:4903, V-A:HIS:456:CD2:4064, V-B:GLU:543:CB:9875, V-B:HIS:456:CE1:9038, V-B:GLY:544:C:9881, V-B:TYR:539:CE1:9844, V-B:MET:535:CE:9804, V-B:PRO:540:CA:9852, V-B:TYR:539:CZ:9846, V-B:PRO:540:N:9853, V-B:ILE:369:CG2:8205, V-B:PRO:540:CB:9854, H-B:TYR:539:N:9839, V-B:ALA:541:CB:9861, H-B:GLU:543:OE2:9879, V-B:GLU:543:CD:9877, V-B:GLU:543:CG:9876, V-B:TYR:539:CE2:9845, V-A:GLU:543:CG:4904, V-B:ILE:538:CG2:9832, V-B:ILE:538:CB:9831, V-B:PRO:540:CD:9856, V-B:TYR:539:C:9836, V-B:TYR:539:CD2:9843, V-B:ILE:369:CD1:8207, V-B:ILE:538:CA:9829, V-B:TYR:539:CD1:9842, V-B:TYR:539:CG:9841, V-B:GLY:454:CA:9017, V-B:ILE:369:CG1:8206, V-B:SER:385:C:8373"]

$$$$
2b_Ghoteimi_2023
     RDKit          3D

 42 47  0  0  0  0  0  0  0  0999 V2000
  130.5000  122.5710   65.0840 N   0  0  0  0  0  0  0  0  0  0  0  0
  130.4810  123.4530   64.3350 C   0  0  0  0  0  0  0  0  0  0  0  0
  130.4560  124.5740   63.3910 C   0  0  0  0  0  0  0  0  0  0  0  0
  130.2790  125.9020   63.8550 C   0  0  0  0  0  0  0  0  0  0  0  0
  130.1100  126.2630   65.2940 C   0  0  0  0  0  0  0  0  0  0  0  0
  131.1140  126.9600   65.9680 C   0  0  0  0  0  0  0  0  0  0  0  0
  130.9620  127.2990   67.3100 C   0  0  0  0  0  0  0  0  0  0  0  0
  129.8070  126.9330   68.0190 C   0  0  0  0  0  0  0  0  0  0  0  0
  129.6260  127.2720   69.3610 N   0  0  0  0  0  0  0  0  0  0  0  0
  128.7800  126.4120   70.2120 C   0  0  0  0  0  0  0  0  0  0  0  0
  128.3590  127.0860   71.5350 C   0  0  0  0  0  0  0  0  0  0  0  0
  129.5050  127.5350   72.2420 O   0  0  0  0  0  0  0  0  0  0  0  0
  130.2510  128.4770   71.4870 C   0  0  0  0  0  0  0  0  0  0  0  0
  130.7280  127.8340   70.1680 C   0  0  0  0  0  0  0  0  0  0  0  0
  128.8060  126.2310   67.3350 C   0  0  0  0  0  0  0  0  0  0  0  0
  128.9560  125.8960   65.9920 C   0  0  0  0  0  0  0  0  0  0  0  0
  130.2670  126.9400   62.9160 C   0  0  0  0  0  0  0  0  0  0  0  0
  130.4580  126.6690   61.5590 C   0  0  0  0  0  0  0  0  0  0  0  0
  130.4840  127.7450   60.5190 C   0  0  0  0  0  0  0  0  0  0  0  0
  130.5200  129.0940   60.8890 C   0  0  0  0  0  0  0  0  0  0  0  0
  130.5600  130.1000   59.9280 C   0  0  0  0  0  0  0  0  0  0  0  0
  130.5540  129.7950   58.5580 C   0  0  0  0  0  0  0  0  0  0  0  0
  130.6260  130.7930   57.5800 N   0  0  0  0  0  0  0  0  0  0  0  0
  129.4950  131.7260   57.3970 C   0  0  0  0  0  0  0  0  0  0  0  0
  129.5410  132.4980   56.0610 C   0  0  0  0  0  0  0  0  0  0  0  0
  130.7830  133.1730   55.9320 O   0  0  0  0  0  0  0  0  0  0  0  0
  131.8710  132.2640   55.9420 C   0  0  0  0  0  0  0  0  0  0  0  0
  131.8950  131.4820   57.2720 C   0  0  0  0  0  0  0  0  0  0  0  0
  130.5260  128.4410   58.1910 C   0  0  0  0  0  0  0  0  0  0  0  0
  130.4890  127.4360   59.1540 C   0  0  0  0  0  0  0  0  0  0  0  0
  130.6290  125.3970   61.1160 N   0  0  0  0  0  0  0  0  0  0  0  0
  130.6110  124.3730   62.0020 C   0  0  0  0  0  0  0  0  0  0  0  0
  130.8440  122.7770   61.2490 S   0  0  0  0  0  0  0  0  0  0  0  0
  129.2030  122.1370   60.7990 C   0  0  0  0  0  0  0  0  0  0  0  0
  128.7320  122.6670   59.4440 C   0  0  0  0  0  0  0  0  0  0  0  0
  129.1500  123.7550   59.0420 O   0  0  0  0  0  0  0  0  0  0  0  0
  127.8620  121.8750   58.7800 N   0  0  0  0  0  0  0  0  0  0  0  0
  127.2900  122.1080   57.5370 C   0  0  0  0  0  0  0  0  0  0  0  0
  126.0770  122.7750   57.3710 C   0  0  0  0  0  0  0  0  0  0  0  0
  125.8650  122.7990   56.0130 C   0  0  0  0  0  0  0  0  0  0  0  0
  126.8970  122.1790   55.3920 O   0  0  0  0  0  0  0  0  0  0  0  0
  127.7960  121.7470   56.3700 N   0  0  0  0  0  0  0  0  0  0  0  0
  1  2  3  0
  2  3  1  0
  3  4  2  0
  4  5  1  0
  5  6  2  0
  6  7  1  0
  7  8  2  0
  8  9  1  0
  9 10  1  0
 10 11  1  0
 11 12  1  0
 12 13  1  0
 13 14  1  0
  8 15  1  0
 15 16  2  0
  4 17  1  0
 17 18  2  0
 18 19  1  0
 19 20  2  0
 20 21  1  0
 21 22  2  0
 22 23  1  0
 23 24  1  0
 24 25  1  0
 25 26  1  0
 26 27  1  0
 27 28  1  0
 22 29  1  0
 29 30  2  0
 18 31  1  0
 31 32  2  0
 32 33  1  0
 33 34  1  0
 34 35  1  0
 35 36  2  0
 35 37  1  0
 37 38  1  0
 38 39  1  0
 39 40  2  0
 40 41  1  0
 41 42  1  0
 32  3  1  0
 42 38  2  0
 16  5  1  0
 30 19  1  0
 14  9  1  0
 28 23  1  0
M  END
>  <Binding energies>  (10) 
[-11.73]

>  <Ligand effiencies>  (10) 
[-0.2727906976744186]

>  <Interactions>  (10) 
["V-A:PRO:540:CB:4882, V-A:PRO:540:CA:4880, V-A:PRO:540:N:4881, V-A:LEU:363:CD1:3185, V-A:TYR:539:C:4864, V-A:ASP:366:CG:3209, V-A:GLU:543:CD:4905, H-A:LYS:547:NZ:4948, V-A:GLY:544:C:4909, V-A:HIS:456:CE1:4066, V-A:GLU:543:C:4899, V-A:GLU:543:CB:4903, V-A:HIS:456:CD2:4064, V-B:GLU:543:CB:9875, V-A:GLY:544:CA:4911, V-B:HIS:456:CD2:9036, V-A:ILE:538:CD1:4862, V-B:PRO:540:CA:9852, V-B:TYR:539:CZ:9846, V-B:PRO:540:N:9853, V-B:PRO:540:CB:9854, H-B:TYR:539:N:9839, V-B:LEU:363:CD1:8157, V-B:ALA:541:CB:9861, V-A:ILE:538:CG2:4860, V-A:PRO:540:CD:4884, V-B:GLU:543:CD:9877, V-B:GLU:543:CG:9876, V-B:TYR:539:CE2:9845, V-A:TYR:484:CE1:4341, V-B:ILE:538:CG2:9832, V-B:ILE:538:CB:9831, V-B:PRO:540:CD:9856, V-B:TYR:539:C:9836, V-B:TYR:539:CD2:9843, V-B:TYR:539:CD1:9842, V-B:TYR:539:CG:9841, H-A:TYR:539:N:4867, H-A:TYR:484:OH:4344, H-B:TYR:539:O:9837, V-B:TYR:539:CA:9838"]

$$$$
2c_Ghoteimi_2023
     RDKit          3D

 42 47  0  0  0  0  0  0  0  0999 V2000
  130.4740  122.3500   65.1010 N   0  0  0  0  0  0  0  0  0  0  0  0
  130.4520  123.2440   64.3680 C   0  0  0  0  0  0  0  0  0  0  0  0
  130.4240  124.3810   63.4420 C   0  0  0  0  0  0  0  0  0  0  0  0
  130.2300  125.6990   63.9250 C   0  0  0  0  0  0  0  0  0  0  0  0
  130.0410  126.0370   65.3680 C   0  0  0  0  0  0  0  0  0  0  0  0
  130.5020  127.2560   65.8700 C   0  0  0  0  0  0  0  0  0  0  0  0
  130.3250  127.5810   67.2120 C   0  0  0  0  0  0  0  0  0  0  0  0
  129.6960  126.6890   68.0940 C   0  0  0  0  0  0  0  0  0  0  0  0
  129.4900  127.0020   69.4400 N   0  0  0  0  0  0  0  0  0  0  0  0
  128.8710  125.9990   70.3290 C   0  0  0  0  0  0  0  0  0  0  0  0
  128.3550  126.5960   71.6560 C   0  0  0  0  0  0  0  0  0  0  0  0
  129.4040  127.2830   72.3200 O   0  0  0  0  0  0  0  0  0  0  0  0
  129.9160  128.3470   71.5330 C   0  0  0  0  0  0  0  0  0  0  0  0
  130.4720  127.7970   70.2030 C   0  0  0  0  0  0  0  0  0  0  0  0
  129.2400  125.4660   67.5820 C   0  0  0  0  0  0  0  0  0  0  0  0
  129.4150  125.1430   66.2390 C   0  0  0  0  0  0  0  0  0  0  0  0
  130.2150  126.7520   63.0020 C   0  0  0  0  0  0  0  0  0  0  0  0
  130.4130  126.5030   61.6400 C   0  0  0  0  0  0  0  0  0  0  0  0
  130.4230  127.5930   60.6170 C   0  0  0  0  0  0  0  0  0  0  0  0
  130.7260  128.9090   60.9790 C   0  0  0  0  0  0  0  0  0  0  0  0
  130.7420  129.9280   60.0290 C   0  0  0  0  0  0  0  0  0  0  0  0
  130.4430  129.6700   58.6820 C   0  0  0  0  0  0  0  0  0  0  0  0
  130.4790  130.6770   57.7120 N   0  0  0  0  0  0  0  0  0  0  0  0
  129.2940  131.5320   57.4960 C   0  0  0  0  0  0  0  0  0  0  0  0
  129.3330  132.3190   56.1680 C   0  0  0  0  0  0  0  0  0  0  0  0
  130.5260  133.0800   56.0890 O   0  0  0  0  0  0  0  0  0  0  0  0
  131.6760  132.2500   56.1320 C   0  0  0  0  0  0  0  0  0  0  0  0
  131.7070  131.4570   57.4560 C   0  0  0  0  0  0  0  0  0  0  0  0
  130.1510  128.3460   58.3220 C   0  0  0  0  0  0  0  0  0  0  0  0
  130.1370  127.3280   59.2720 C   0  0  0  0  0  0  0  0  0  0  0  0
  130.6000  125.2390   61.1800 N   0  0  0  0  0  0  0  0  0  0  0  0
  130.5880  124.2010   62.0500 C   0  0  0  0  0  0  0  0  0  0  0  0
  130.8370  122.6200   61.2750 S   0  0  0  0  0  0  0  0  0  0  0  0
  129.2020  121.9820   60.7990 C   0  0  0  0  0  0  0  0  0  0  0  0
  128.6700  122.6540   59.5320 C   0  0  0  0  0  0  0  0  0  0  0  0
  129.0920  123.7680   59.2160 O   0  0  0  0  0  0  0  0  0  0  0  0
  127.7480  121.9490   58.8420 N   0  0  0  0  0  0  0  0  0  0  0  0
  127.1280  122.3280   57.6610 C   0  0  0  0  0  0  0  0  0  0  0  0
  127.4720  122.0110   56.4310 N   0  0  0  0  0  0  0  0  0  0  0  0
  126.6520  122.5430   55.5460 C   0  0  0  0  0  0  0  0  0  0  0  0
  125.6120  123.3140   56.0570 C   0  0  0  0  0  0  0  0  0  0  0  0
  125.7230  123.3360   57.7910 S   0  0  0  0  0  0  0  0  0  0  0  0
  1  2  3  0
  2  3  1  0
  3  4  2  0
  4  5  1  0
  5  6  2  0
  6  7  1  0
  7  8  2  0
  8  9  1  0
  9 10  1  0
 10 11  1  0
 11 12  1  0
 12 13  1  0
 13 14  1  0
  8 15  1  0
 15 16  2  0
  4 17  1  0
 17 18  2  0
 18 19  1  0
 19 20  2  0
 20 21  1  0
 21 22  2  0
 22 23  1  0
 23 24  1  0
 24 25  1  0
 25 26  1  0
 26 27  1  0
 27 28  1  0
 22 29  1  0
 29 30  2  0
 18 31  1  0
 31 32  2  0
 32 33  1  0
 33 34  1  0
 34 35  1  0
 35 36  2  0
 35 37  1  0
 37 38  1  0
 38 39  2  0
 39 40  1  0
 40 41  2  0
 41 42  1  0
 32  3  1  0
 42 38  1  0
 16  5  1  0
 30 19  1  0
 14  9  1  0
 28 23  1  0
M  END
>  <Binding energies>  (11) 
[-11.52]

>  <Ligand effiencies>  (11) 
[-0.267906976744186]

>  <Interactions>  (11) 
["V-A:PRO:540:CB:4882, V-A:PRO:540:CA:4880, V-A:PRO:540:N:4881, V-A:LEU:363:CD1:3185, V-A:TYR:539:C:4864, V-A:GLU:543:CD:4905, V-B:LYS:547:CE:9919, H-A:LYS:547:NZ:4948, V-A:GLY:544:C:4909, V-A:HIS:456:CE1:4066, V-A:GLU:543:C:4899, V-A:GLU:543:CB:4903, V-A:HIS:456:CD2:4064, V-B:GLU:543:CB:9875, V-B:HIS:456:CD2:9036, V-A:ILE:538:CD1:4862, V-B:MET:535:CE:9804, V-B:PRO:540:CA:9852, V-B:TYR:539:CZ:9846, V-B:PRO:540:N:9853, V-B:PRO:540:C:9850, V-B:PRO:540:CB:9854, H-B:TYR:539:N:9839, V-B:LEU:363:CD1:8157, V-B:ALA:541:CB:9861, V-A:ILE:538:CG2:4860, V-A:PRO:540:CD:4884, V-B:GLU:543:CD:9877, V-B:GLU:543:CG:9876, V-B:TYR:539:CE2:9845, V-A:TYR:484:CE1:4341, V-B:GLU:543:CA:9873, V-B:ILE:538:CG2:9832, V-B:ILE:538:CB:9831, V-B:PRO:540:CD:9856, V-B:TYR:539:C:9836, V-B:TYR:539:CD2:9843, V-B:ILE:538:CA:9829, H-A:TYR:539:N:4867, H-A:TYR:484:OH:4344, H-B:TYR:539:O:9837"]

$$$$
2j_Grossjean_2025
     RDKit          3D

 23 24  0  0  0  0  0  0  0  0999 V2000
  128.5690  122.2480   59.7520 C   0  0  0  0  0  0  0  0  0  0  0  0
  129.0050  123.3420   58.7950 C   0  0  0  0  0  0  0  0  0  0  0  0
  129.4730  124.5700   59.2540 C   0  0  0  0  0  0  0  0  0  0  0  0
  129.8670  125.5490   58.3300 C   0  0  0  0  0  0  0  0  0  0  0  0
  130.3830  126.9020   58.8550 C   0  0  0  0  0  0  0  0  0  0  0  0
  131.5390  127.2090   58.2660 F   0  0  0  0  0  0  0  0  0  0  0  0
  129.4950  127.8620   58.5950 F   0  0  0  0  0  0  0  0  0  0  0  0
  130.5930  126.8970   60.1730 F   0  0  0  0  0  0  0  0  0  0  0  0
  129.7730  125.2500   56.9470 C   0  0  0  0  0  0  0  0  0  0  0  0
  130.1700  126.2350   55.9360 C   0  0  0  0  0  0  0  0  0  0  0  0
  130.4850  127.0120   55.1390 N   0  0  0  0  0  0  0  0  0  0  0  0
  129.2850  123.9760   56.5690 C   0  0  0  0  0  0  0  0  0  0  0  0
  129.1260  123.4900   54.8570 S   0  0  0  0  0  0  0  0  0  0  0  0
  127.4920  122.7090   54.6300 C   0  0  0  0  0  0  0  0  0  0  0  0
  126.5700  122.7730   55.8570 C   0  0  0  0  0  0  0  0  0  0  0  0
  126.2460  121.7450   56.4550 O   0  0  0  0  0  0  0  0  0  0  0  0
  126.1590  124.0160   56.1920 N   0  0  0  0  0  0  0  0  0  0  0  0
  125.3280  124.3580   57.2510 C   0  0  0  0  0  0  0  0  0  0  0  0
  124.2990  125.1770   57.2380 N   0  0  0  0  0  0  0  0  0  0  0  0
  123.7340  125.2670   58.4260 C   0  0  0  0  0  0  0  0  0  0  0  0
  124.3090  124.5070   59.4400 C   0  0  0  0  0  0  0  0  0  0  0  0
  125.6630  123.6310   58.7900 S   0  0  0  0  0  0  0  0  0  0  0  0
  128.9110  123.0420   57.4800 N   0  0  0  0  0  0  0  0  0  0  0  0
  1  2  1  0
  2  3  2  0
  3  4  1  0
  4  5  1  0
  5  6  1  0
  5  7  1  0
  5  8  1  0
  4  9  2  0
  9 10  1  0
 10 11  3  0
  9 12  1  0
 12 13  1  0
 13 14  1  0
 14 15  1  0
 15 16  2  0
 15 17  1  0
 17 18  1  0
 18 19  2  0
 19 20  1  0
 20 21  2  0
 21 22  1  0
 12 23  2  0
 23  2  1  0
 22 18  1  0
M  END
>  <Binding energies>  (12) 
[-6.27]

>  <Ligand effiencies>  (12) 
[-0.26125]

>  <Interactions>  (12) 
["V-A:ASP:366:CB:3208, V-A:ASP:366:CG:3209, V-B:ASP:366:CB:8180, H-A:TYR:531:OH:4792, V-B:TYR:539:CE1:9844, V-B:MET:535:CE:9804, V-B:PRO:540:CA:9852, V-B:TYR:539:CZ:9846, V-B:PRO:540:CB:9854, V-B:ASP:366:CG:8181, H-B:TYR:539:N:9839, V-B:LEU:363:CD1:8157, V-B:LEU:363:CA:8153, H-B:TYR:531:OH:9764, H-B:TYR:539:OH:9847, V-B:TYR:539:CE2:9845, V-B:ILE:538:CG2:9832, V-B:ILE:538:CB:9831, V-B:TYR:539:CD2:9843, V-B:ILE:538:CA:9829, H-B:MET:535:SD:9803"]

$$$$
3ab_Grossjean_2025
     RDKit          3D

 33 35  0  0  0  0  0  0  0  0999 V2000
  128.0210  122.5070   54.8760 C   0  0  0  0  0  0  0  0  0  0  0  0
  127.1840  121.7890   55.7730 O   0  0  0  0  0  0  0  0  0  0  0  0
  126.3270  122.4390   56.6010 C   0  0  0  0  0  0  0  0  0  0  0  0
  125.2110  122.8340   56.2510 O   0  0  0  0  0  0  0  0  0  0  0  0
  126.8710  122.6290   57.9870 C   0  0  0  0  0  0  0  0  0  0  0  0
  128.1490  122.1770   58.3530 C   0  0  0  0  0  0  0  0  0  0  0  0
  128.6280  122.3680   59.6450 C   0  0  0  0  0  0  0  0  0  0  0  0
  127.8320  123.0170   60.6020 C   0  0  0  0  0  0  0  0  0  0  0  0
  128.2150  123.2680   61.9330 N   0  0  0  0  0  0  0  0  0  0  0  0
  129.3840  123.0180   62.5600 C   0  0  0  0  0  0  0  0  0  0  0  0
  130.3690  122.4820   62.0510 O   0  0  0  0  0  0  0  0  0  0  0  0
  129.4460  123.4480   64.0280 C   0  0  0  0  0  0  0  0  0  0  0  0
  130.5590  124.8630   64.2790 S   0  0  0  0  0  0  0  0  0  0  0  0
  129.6080  126.1640   65.0350 C   0  0  0  0  0  0  0  0  0  0  0  0
  129.6800  126.1730   66.3870 N   0  0  0  0  0  0  0  0  0  0  0  0
  129.0070  127.1160   67.0950 C   0  0  0  0  0  0  0  0  0  0  0  0
  129.1420  127.0580   68.5870 C   0  0  0  0  0  0  0  0  0  0  0  0
  130.1710  127.7530   69.2430 C   0  0  0  0  0  0  0  0  0  0  0  0
  130.3010  127.7030   70.6290 C   0  0  0  0  0  0  0  0  0  0  0  0
  129.4000  126.9550   71.3800 C   0  0  0  0  0  0  0  0  0  0  0  0
  128.3740  126.2540   70.7550 C   0  0  0  0  0  0  0  0  0  0  0  0
  128.2480  126.3060   69.3700 C   0  0  0  0  0  0  0  0  0  0  0  0
  128.2170  128.0710   66.4440 C   0  0  0  0  0  0  0  0  0  0  0  0
  128.1100  128.0710   65.0460 C   0  0  0  0  0  0  0  0  0  0  0  0
  127.2260  129.1360   64.3690 C   0  0  0  0  0  0  0  0  0  0  0  0
  126.1010  128.6270   63.8600 F   0  0  0  0  0  0  0  0  0  0  0  0
  126.8760  130.0720   65.2510 F   0  0  0  0  0  0  0  0  0  0  0  0
  127.8940  129.7130   63.3690 F   0  0  0  0  0  0  0  0  0  0  0  0
  128.8170  127.0860   64.3120 C   0  0  0  0  0  0  0  0  0  0  0  0
  128.6950  127.0060   62.8540 C   0  0  0  0  0  0  0  0  0  0  0  0
  128.5960  126.9450   61.7030 N   0  0  0  0  0  0  0  0  0  0  0  0
  126.5630  123.4730   60.2400 C   0  0  0  0  0  0  0  0  0  0  0  0
  126.0860  123.2800   58.9480 C   0  0  0  0  0  0  0  0  0  0  0  0
  1  2  1  0
  2  3  1  0
  3  4  2  0
  3  5  1  0
  5  6  2  0
  6  7  1  0
  7  8  2  0
  8  9  1  0
  9 10  1  0
 10 11  2  0
 10 12  1  0
 12 13  1  0
 13 14  1  0
 14 15  2  0
 15 16  1  0
 16 17  1  0
 17 18  2  0
 18 19  1  0
 19 20  2  0
 20 21  1  0
 21 22  2  0
 16 23  2  0
 23 24  1  0
 24 25  1  0
 25 26  1  0
 25 27  1  0
 25 28  1  0
 24 29  2  0
 29 30  1  0
 30 31  3  0
  8 32  1  0
 32 33  2  0
 33  5  1  0
 29 14  1  0
 22 17  1  0
M  END
>  <Binding energies>  (13) 
[-8.84]

>  <Ligand effiencies>  (13) 
[-0.26]

>  <Interactions>  (13) 
["V-A:GLU:543:CD:4905, V-B:GLU:543:C:9871, V-A:HIS:456:CE1:4066, V-A:HIS:456:CD2:4064, V-B:GLU:543:CB:9875, V-B:HIS:456:CE1:9038, V-B:TYR:539:CE1:9844, V-B:MET:535:CE:9804, V-B:PRO:540:CA:9852, V-B:TYR:539:CZ:9846, V-B:PRO:540:N:9853, V-B:PRO:540:CB:9854, H-B:TYR:539:N:9839, V-B:ALA:541:CB:9861, H-B:GLU:543:OE2:9879, V-B:GLU:543:CD:9877, V-B:GLU:543:CG:9876, V-B:TYR:539:CE2:9845, V-B:ILE:538:CG2:9832, V-B:ILE:538:CB:9831, V-B:PRO:540:CD:9856, V-B:TYR:539:C:9836, V-B:TYR:539:CD2:9843, V-B:ILE:538:CA:9829, V-B:TYR:539:CD1:9842, V-B:TYR:539:CG:9841, V-B:ARG:545:CZ:9895"]

$$$$
3ac_Grossjean_2025
     RDKit          3D

 31 33  0  0  0  0  0  0  0  0999 V2000
  133.4120  125.0810   64.9810 C   0  0  0  0  0  0  0  0  0  0  0  0
  133.9790  124.7570   63.7150 O   0  0  0  0  0  0  0  0  0  0  0  0
  133.1640  124.7190   62.6000 C   0  0  0  0  0  0  0  0  0  0  0  0
  133.5320  123.8300   61.5910 C   0  0  0  0  0  0  0  0  0  0  0  0
  132.7700  123.7200   60.4320 C   0  0  0  0  0  0  0  0  0  0  0  0
  131.6300  124.5070   60.2610 C   0  0  0  0  0  0  0  0  0  0  0  0
  130.9130  124.3100   59.0660 N   0  0  0  0  0  0  0  0  0  0  0  0
  130.3180  125.2240   58.2700 C   0  0  0  0  0  0  0  0  0  0  0  0
  130.3420  126.4430   58.4450 O   0  0  0  0  0  0  0  0  0  0  0  0
  129.5680  124.6590   57.0630 C   0  0  0  0  0  0  0  0  0  0  0  0
  127.7880  125.0290   57.1240 S   0  0  0  0  0  0  0  0  0  0  0  0
  127.1160  124.3560   58.6310 C   0  0  0  0  0  0  0  0  0  0  0  0
  128.0620  123.8470   59.4570 N   0  0  0  0  0  0  0  0  0  0  0  0
  127.7000  123.3040   60.6480 C   0  0  0  0  0  0  0  0  0  0  0  0
  128.8070  122.7570   61.4990 C   0  0  0  0  0  0  0  0  0  0  0  0
  129.6100  121.6990   61.0400 C   0  0  0  0  0  0  0  0  0  0  0  0
  130.6430  121.1910   61.8230 C   0  0  0  0  0  0  0  0  0  0  0  0
  130.8870  121.7330   63.0800 C   0  0  0  0  0  0  0  0  0  0  0  0
  130.1040  122.7770   63.5600 C   0  0  0  0  0  0  0  0  0  0  0  0
  129.0720  123.2830   62.7750 C   0  0  0  0  0  0  0  0  0  0  0  0
  126.3560  123.2460   61.0300 C   0  0  0  0  0  0  0  0  0  0  0  0
  125.3550  123.7460   60.1840 C   0  0  0  0  0  0  0  0  0  0  0  0
  123.8860  123.6560   60.6420 C   0  0  0  0  0  0  0  0  0  0  0  0
  123.0670  123.2380   59.6760 F   0  0  0  0  0  0  0  0  0  0  0  0
  123.7700  122.8000   61.6590 F   0  0  0  0  0  0  0  0  0  0  0  0
  123.4620  124.8570   61.0390 F   0  0  0  0  0  0  0  0  0  0  0  0
  125.7360  124.3060   58.9400 C   0  0  0  0  0  0  0  0  0  0  0  0
  124.7220  124.7690   57.9910 C   0  0  0  0  0  0  0  0  0  0  0  0
  123.9190  125.1350   57.2410 N   0  0  0  0  0  0  0  0  0  0  0  0
  131.2490  125.3990   61.2750 C   0  0  0  0  0  0  0  0  0  0  0  0
  132.0140  125.5060   62.4340 C   0  0  0  0  0  0  0  0  0  0  0  0
  1  2  1  0
  2  3  1  0
  3  4  2  0
  4  5  1  0
  5  6  2  0
  6  7  1  0
  7  8  1  0
  8  9  2  0
  8 10  1  0
 10 11  1  0
 11 12  1  0
 12 13  2  0
 13 14  1  0
 14 15  1  0
 15 16  2  0
 16 17  1  0
 17 18  2  0
 18 19  1  0
 19 20  2  0
 14 21  2  0
 21 22  1  0
 22 23  1  0
 23 24  1  0
 23 25  1  0
 23 26  1  0
 22 27  2  0
 27 28  1  0
 28 29  3  0
  6 30  1  0
 30 31  2  0
 31  3  1  0
 27 12  1  0
 20 15  1  0
M  END
>  <Binding energies>  (14) 
[-7.93]

>  <Ligand effiencies>  (14) 
[-0.2478125]

>  <Interactions>  (14) 
["V-A:ASP:366:CG:3209, V-A:HIS:456:CE1:4066, V-B:ASN:362:CB:8144, V-B:TYR:539:CE1:9844, V-B:PRO:540:CA:9852, V-B:TYR:539:CZ:9846, V-B:ASN:362:C:8140, V-B:PRO:540:C:9850, V-B:PRO:540:CB:9854, V-B:ASP:366:CG:8181, V-B:LEU:363:CD1:8157, V-B:LEU:363:CA:8153, H-B:TYR:531:OH:9764, V-B:ALA:541:CB:9861, H-B:TYR:539:OH:9847, V-B:GLU:543:CD:9877, V-B:GLU:543:CG:9876, V-A:ARG:545:CZ:4923, H-A:ARG:545:NH2:4925, V-B:TYR:539:CE2:9845, V-B:ASN:362:CG:8145, V-A:LEU:475:CD1:4254, V-B:TYR:539:CD2:9843, V-B:LEU:363:CB:8155, H-A:GLY:454:N:4046, H-A:ARG:545:NH1:4924, V-B:ARG:545:CZ:9895, V-B:ALA:541:CA:9859, V-B:ASN:362:CA:8142, V-A:LEU:475:CD2:4255, V-A:LEU:475:CG:4253, V-B:ALA:541:C:9857"]

$$$$
3af_Grossjean_2025
     RDKit          3D

 29 31  0  0  0  0  0  0  0  0999 V2000
  131.6960  123.3520   63.5510 N   0  0  0  0  0  0  0  0  0  0  0  0
  130.9870  123.2470   62.6420 C   0  0  0  0  0  0  0  0  0  0  0  0
  130.0890  123.1130   61.4920 C   0  0  0  0  0  0  0  0  0  0  0  0
  129.7050  121.8340   61.0200 C   0  0  0  0  0  0  0  0  0  0  0  0
  130.1560  120.5260   61.7010 C   0  0  0  0  0  0  0  0  0  0  0  0
  129.3900  119.4820   61.3750 F   0  0  0  0  0  0  0  0  0  0  0  0
  131.4070  120.2350   61.3440 F   0  0  0  0  0  0  0  0  0  0  0  0
  130.1030  120.6590   63.0270 F   0  0  0  0  0  0  0  0  0  0  0  0
  128.8880  121.7560   59.8820 C   0  0  0  0  0  0  0  0  0  0  0  0
  128.4680  122.9210   59.2320 C   0  0  0  0  0  0  0  0  0  0  0  0
  127.6110  122.8950   58.0020 C   0  0  0  0  0  0  0  0  0  0  0  0
  128.1910  122.8790   56.7230 C   0  0  0  0  0  0  0  0  0  0  0  0
  127.4000  122.8520   55.5770 C   0  0  0  0  0  0  0  0  0  0  0  0
  126.0150  122.8400   55.6960 C   0  0  0  0  0  0  0  0  0  0  0  0
  125.4150  122.8520   56.9510 C   0  0  0  0  0  0  0  0  0  0  0  0
  126.2090  122.8780   58.0940 C   0  0  0  0  0  0  0  0  0  0  0  0
  128.8410  124.1450   59.6850 N   0  0  0  0  0  0  0  0  0  0  0  0
  129.6110  124.2470   60.7960 C   0  0  0  0  0  0  0  0  0  0  0  0
  129.9840  125.9300   61.2440 S   0  0  0  0  0  0  0  0  0  0  0  0
  128.5400  126.6140   62.1110 C   0  0  0  0  0  0  0  0  0  0  0  0
  127.3270  126.7340   61.1900 C   0  0  0  0  0  0  0  0  0  0  0  0
  126.9920  127.8460   60.7820 O   0  0  0  0  0  0  0  0  0  0  0  0
  126.7030  125.5720   60.8990 N   0  0  0  0  0  0  0  0  0  0  0  0
  125.5680  125.3370   60.0990 C   0  0  0  0  0  0  0  0  0  0  0  0
  124.4770  124.5170   60.4410 C   0  0  0  0  0  0  0  0  0  0  0  0
  123.4140  124.3720   59.5470 C   0  0  0  0  0  0  0  0  0  0  0  0
  123.4690  125.0500   58.3290 C   0  0  0  0  0  0  0  0  0  0  0  0
  124.5080  125.8460   57.9750 N   0  0  0  0  0  0  0  0  0  0  0  0
  125.5330  125.9770   58.8560 C   0  0  0  0  0  0  0  0  0  0  0  0
  1  2  3  0
  2  3  1  0
  3  4  2  0
  4  5  1  0
  5  6  1  0
  5  7  1  0
  5  8  1  0
  4  9  1  0
  9 10  2  0
 10 11  1  0
 11 12  2  0
 12 13  1  0
 13 14  2  0
 14 15  1  0
 15 16  2  0
 10 17  1  0
 17 18  2  0
 18 19  1  0
 19 20  1  0
 20 21  1  0
 21 22  2  0
 21 23  1  0
 23 24  1  0
 24 25  2  0
 25 26  1  0
 26 27  2  0
 27 28  1  0
 28 29  2  0
 18  3  1  0
 29 24  1  0
 16 11  1  0
M  END
>  <Binding energies>  (15) 
[-7.28]

>  <Ligand effiencies>  (15) 
[-0.24266666666666667]

>  <Interactions>  (15) 
["V-B:ASP:366:CB:8180, V-B:TYR:539:CE1:9844, V-B:MET:535:CE:9804, V-B:PRO:540:CA:9852, V-B:TYR:539:CZ:9846, V-B:TYR:531:CE2:9762, V-B:ASN:362:C:8140, V-B:PRO:540:N:9853, V-B:PRO:540:CB:9854, V-B:ASP:366:CG:8181, V-B:LEU:363:CD1:8157, V-B:LEU:363:CA:8153, H-B:TYR:531:OH:9764, V-B:ALA:541:CB:9861, H-B:GLU:543:OE2:9879, V-B:GLU:543:CD:9877, V-B:TYR:539:CE2:9845, V-B:ILE:538:CG2:9832, V-B:ILE:538:CB:9831, V-A:LEU:475:CD1:4254, V-B:PRO:540:CD:9856, V-B:TYR:539:C:9836, V-B:TYR:539:CD2:9843, V-B:ILE:538:CA:9829, V-B:TYR:539:CD1:9842, V-B:TYR:539:CG:9841, V-B:LEU:363:CB:8155, H-A:TYR:484:OH:4344, V-B:ALA:541:CA:9859, V-A:PRO:482:CG:4323, V-A:LEU:475:CD2:4255, V-A:LEU:475:CG:4253, V-A:PRO:482:CB:4322"]

$$$$
3ag_Grossjean_2025
     RDKit          3D

 30 32  0  0  0  0  0  0  0  0999 V2000
  124.6510  124.0110   55.9090 N   0  0  0  0  0  0  0  0  0  0  0  0
  125.3200  123.7320   56.8120 C   0  0  0  0  0  0  0  0  0  0  0  0
  126.1640  123.3790   57.9570 C   0  0  0  0  0  0  0  0  0  0  0  0
  125.6980  123.5570   59.2820 C   0  0  0  0  0  0  0  0  0  0  0  0
  124.2790  124.0670   59.6030 C   0  0  0  0  0  0  0  0  0  0  0  0
  124.0670  125.3120   59.1740 F   0  0  0  0  0  0  0  0  0  0  0  0
  123.3730  123.2810   59.0220 F   0  0  0  0  0  0  0  0  0  0  0  0
  124.0760  124.0600   60.9210 F   0  0  0  0  0  0  0  0  0  0  0  0
  126.5630  123.2550   60.3440 C   0  0  0  0  0  0  0  0  0  0  0  0
  127.8620  122.8000   60.0910 C   0  0  0  0  0  0  0  0  0  0  0  0
  128.8290  122.4660   61.1860 C   0  0  0  0  0  0  0  0  0  0  0  0
  128.8960  123.2510   62.3480 C   0  0  0  0  0  0  0  0  0  0  0  0
  129.7910  122.9460   63.3690 C   0  0  0  0  0  0  0  0  0  0  0  0
  130.6350  121.8480   63.2420 C   0  0  0  0  0  0  0  0  0  0  0  0
  130.5910  121.0550   62.0990 C   0  0  0  0  0  0  0  0  0  0  0  0
  129.6950  121.3640   61.0800 C   0  0  0  0  0  0  0  0  0  0  0  0
  128.3010  122.6190   58.8190 N   0  0  0  0  0  0  0  0  0  0  0  0
  127.4760  122.8850   57.7780 C   0  0  0  0  0  0  0  0  0  0  0  0
  128.2170  122.5880   56.1880 S   0  0  0  0  0  0  0  0  0  0  0  0
  129.3930  123.9390   55.8770 C   0  0  0  0  0  0  0  0  0  0  0  0
  129.4710  124.9180   57.0500 C   0  0  0  0  0  0  0  0  0  0  0  0
  128.9680  126.0390   56.9490 O   0  0  0  0  0  0  0  0  0  0  0  0
  130.0990  124.4780   58.1540 N   0  0  0  0  0  0  0  0  0  0  0  0
  130.2560  125.2320   59.3980 C   0  0  0  0  0  0  0  0  0  0  0  0
  131.3700  124.7150   60.3020 C   0  0  0  0  0  0  0  0  0  0  0  0
  132.1640  123.6440   59.8820 C   0  0  0  0  0  0  0  0  0  0  0  0
  133.2010  123.1880   60.6910 C   0  0  0  0  0  0  0  0  0  0  0  0
  133.4470  123.8110   61.9130 C   0  0  0  0  0  0  0  0  0  0  0  0
  132.6700  124.8890   62.3310 C   0  0  0  0  0  0  0  0  0  0  0  0
  131.6330  125.3450   61.5220 C   0  0  0  0  0  0  0  0  0  0  0  0
  1  2  3  0
  2  3  1  0
  3  4  2  0
  4  5  1  0
  5  6  1  0
  5  7  1  0
  5  8  1  0
  4  9  1  0
  9 10  2  0
 10 11  1  0
 11 12  2  0
 12 13  1  0
 13 14  2  0
 14 15  1  0
 15 16  2  0
 10 17  1  0
 17 18  2  0
 18 19  1  0
 19 20  1  0
 20 21  1  0
 21 22  2  0
 21 23  1  0
 23 24  1  0
 24 25  1  0
 25 26  2  0
 26 27  1  0
 27 28  2  0
 28 29  1  0
 29 30  2  0
 18  3  1  0
 30 25  1  0
 16 11  1  0
M  END
>  <Binding energies>  (16) 
[-7.1]

>  <Ligand effiencies>  (16) 
[-0.22903225806451613]

>  <Interactions>  (16) 
["V-A:ASP:366:CG:3209, V-B:ASP:366:CB:8180, V-B:ASN:362:CB:8144, V-B:TYR:539:CE1:9844, V-B:MET:535:CE:9804, V-B:PRO:540:CA:9852, V-B:TYR:539:CZ:9846, V-B:ASN:362:C:8140, V-B:PRO:540:N:9853, V-B:PRO:540:CB:9854, V-B:ASP:366:CG:8181, V-B:LEU:363:CD1:8157, V-B:LEU:363:CA:8153, V-B:ALA:541:CB:9861, H-B:TYR:539:OH:9847, V-B:GLU:543:CD:9877, V-B:GLU:543:CG:9876, V-B:TYR:539:CE2:9845, V-A:LEU:475:CD1:4254, V-B:TYR:539:CD2:9843, V-B:LEU:363:CB:8155, V-B:LEU:363:CG:8156, V-A:LEU:475:CD2:4255"]

$$$$
3bc_Grossjean_2025
     RDKit          3D

 28 30  0  0  0  0  0  0  0  0999 V2000
  125.8300  122.5550   55.9090 C   0  0  0  0  0  0  0  0  0  0  0  0
  127.0090  122.1090   56.5710 O   0  0  0  0  0  0  0  0  0  0  0  0
  127.2140  122.4640   57.8910 C   0  0  0  0  0  0  0  0  0  0  0  0
  128.2540  121.8130   58.5550 C   0  0  0  0  0  0  0  0  0  0  0  0
  128.5370  122.1030   59.8870 C   0  0  0  0  0  0  0  0  0  0  0  0
  127.7740  123.0470   60.5780 C   0  0  0  0  0  0  0  0  0  0  0  0
  128.1420  123.2830   61.9160 N   0  0  0  0  0  0  0  0  0  0  0  0
  129.3570  123.1820   62.4960 C   0  0  0  0  0  0  0  0  0  0  0  0
  130.3960  122.8880   61.9010 O   0  0  0  0  0  0  0  0  0  0  0  0
  129.3810  123.5090   63.9960 C   0  0  0  0  0  0  0  0  0  0  0  0
  130.5620  124.8100   64.4880 S   0  0  0  0  0  0  0  0  0  0  0  0
  129.6350  126.1340   65.2300 C   0  0  0  0  0  0  0  0  0  0  0  0
  129.6980  126.1520   66.5840 N   0  0  0  0  0  0  0  0  0  0  0  0
  129.0370  127.1130   67.2800 C   0  0  0  0  0  0  0  0  0  0  0  0
  129.1410  127.0500   68.7750 C   0  0  0  0  0  0  0  0  0  0  0  0
  130.1500  127.7490   69.4540 C   0  0  0  0  0  0  0  0  0  0  0  0
  130.2520  127.6950   70.8420 C   0  0  0  0  0  0  0  0  0  0  0  0
  129.3430  126.9360   71.5710 C   0  0  0  0  0  0  0  0  0  0  0  0
  128.3340  126.2310   70.9220 C   0  0  0  0  0  0  0  0  0  0  0  0
  128.2370  126.2870   69.5340 C   0  0  0  0  0  0  0  0  0  0  0  0
  128.2870  128.0910   66.6190 C   0  0  0  0  0  0  0  0  0  0  0  0
  128.2300  128.1000   65.2210 C   0  0  0  0  0  0  0  0  0  0  0  0
  127.4120  129.1970   64.5400 C   0  0  0  0  0  0  0  0  0  0  0  0
  128.9250  127.1090   64.4940 C   0  0  0  0  0  0  0  0  0  0  0  0
  128.9200  127.1290   63.0300 C   0  0  0  0  0  0  0  0  0  0  0  0
  128.9140  127.1470   61.8730 N   0  0  0  0  0  0  0  0  0  0  0  0
  126.7360  123.7160   59.9140 C   0  0  0  0  0  0  0  0  0  0  0  0
  126.4560  123.4230   58.5810 C   0  0  0  0  0  0  0  0  0  0  0  0
  1  2  1  0
  2  3  1  0
  3  4  2  0
  4  5  1  0
  5  6  2  0
  6  7  1  0
  7  8  1  0
  8  9  2  0
  8 10  1  0
 10 11  1  0
 11 12  1  0
 12 13  2  0
 13 14  1  0
 14 15  1  0
 15 16  2  0
 16 17  1  0
 17 18  2  0
 18 19  1  0
 19 20  2  0
 14 21  2  0
 21 22  1  0
 22 23  1  0
 22 24  2  0
 24 25  1  0
 25 26  3  0
  6 27  1  0
 27 28  2  0
 28  3  1  0
 24 12  1  0
 20 15  1  0
M  END
>  <Binding energies>  (17) 
[-8.35]

>  <Ligand effiencies>  (17) 
[-0.2879310344827586]

>  <Interactions>  (17) 
["V-A:GLU:543:CD:4905, V-B:GLU:543:C:9871, V-A:HIS:456:CE1:4066, V-A:HIS:456:CD2:4064, V-B:HIS:456:CE1:9038, V-B:TYR:539:CE1:9844, V-B:PRO:540:CA:9852, V-B:TYR:539:CZ:9846, V-B:PRO:540:N:9853, V-B:PRO:540:CB:9854, H-B:TYR:539:N:9839, V-B:LEU:363:CD1:8157, V-B:ALA:541:CB:9861, H-B:GLU:543:OE2:9879, V-B:GLU:543:CD:9877, V-B:GLU:543:CG:9876, V-B:TYR:539:CE2:9845, V-B:ILE:538:CG2:9832, V-B:ILE:538:CB:9831, V-B:PRO:540:CD:9856, V-B:TYR:539:C:9836, V-B:TYR:539:CD2:9843, V-B:TYR:539:CD1:9842, V-B:TYR:539:CG:9841"]

$$$$
3bd_Grossjean_2025
     RDKit          3D

 26 28  0  0  0  0  0  0  0  0999 V2000
  129.3780  128.8730   60.7170 C   0  0  0  0  0  0  0  0  0  0  0  0
  130.3110  128.9470   59.5090 C   0  0  0  0  0  0  0  0  0  0  0  0
  130.3460  127.8570   58.6320 C   0  0  0  0  0  0  0  0  0  0  0  0
  131.1900  127.8850   57.5160 C   0  0  0  0  0  0  0  0  0  0  0  0
  131.2730  126.7540   56.5350 C   0  0  0  0  0  0  0  0  0  0  0  0
  132.4940  126.4200   55.9260 C   0  0  0  0  0  0  0  0  0  0  0  0
  132.5780  125.3720   55.0130 C   0  0  0  0  0  0  0  0  0  0  0  0
  131.4370  124.6420   54.6940 C   0  0  0  0  0  0  0  0  0  0  0  0
  130.2150  124.9540   55.2800 C   0  0  0  0  0  0  0  0  0  0  0  0
  130.1360  126.0030   56.1920 C   0  0  0  0  0  0  0  0  0  0  0  0
  131.9710  128.9670   57.2620 N   0  0  0  0  0  0  0  0  0  0  0  0
  131.9500  130.0330   58.1020 C   0  0  0  0  0  0  0  0  0  0  0  0
  133.0300  131.3850   57.6640 S   0  0  0  0  0  0  0  0  0  0  0  0
  132.3980  132.1380   56.1350 C   0  0  0  0  0  0  0  0  0  0  0  0
  130.8690  132.1440   56.0890 C   0  0  0  0  0  0  0  0  0  0  0  0
  130.2690  133.2000   56.2900 O   0  0  0  0  0  0  0  0  0  0  0  0
  130.2860  130.9520   55.8370 N   0  0  0  0  0  0  0  0  0  0  0  0
  128.9190  130.6450   55.7070 C   0  0  0  0  0  0  0  0  0  0  0  0
  128.0670  131.2220   56.6520 C   0  0  0  0  0  0  0  0  0  0  0  0
  126.6980  130.9690   56.6090 C   0  0  0  0  0  0  0  0  0  0  0  0
  126.1820  130.1290   55.6270 C   0  0  0  0  0  0  0  0  0  0  0  0
  127.0230  129.5360   54.6870 C   0  0  0  0  0  0  0  0  0  0  0  0
  128.3910  129.7890   54.7270 C   0  0  0  0  0  0  0  0  0  0  0  0
  131.1290  130.0670   59.2500 C   0  0  0  0  0  0  0  0  0  0  0  0
  131.1140  131.2250   60.1490 C   0  0  0  0  0  0  0  0  0  0  0  0
  131.1010  132.1390   60.8590 N   0  0  0  0  0  0  0  0  0  0  0  0
  1  2  1  0
  2  3  2  0
  3  4  1  0
  4  5  1  0
  5  6  2  0
  6  7  1  0
  7  8  2  0
  8  9  1  0
  9 10  2  0
  4 11  2  0
 11 12  1  0
 12 13  1  0
 13 14  1  0
 14 15  1  0
 15 16  2  0
 15 17  1  0
 17 18  1  0
 18 19  2  0
 19 20  1  0
 20 21  2  0
 21 22  1  0
 22 23  2  0
 12 24  2  0
 24 25  1  0
 25 26  3  0
 24  2  1  0
 10  5  1  0
 23 18  1  0
M  END
>  <Binding energies>  (18) 
[-8.14]

>  <Ligand effiencies>  (18) 
[-0.3014814814814815]

>  <Interactions>  (18) 
["V-A:PRO:540:CB:4882, V-A:PRO:540:CA:4880, V-A:PRO:540:N:4881, V-A:LEU:363:CD1:3185, V-A:ASP:366:CB:3208, V-A:ASP:366:CG:3209, V-A:TYR:539:CE2:4873, H-A:ALA:541:N:4888, V-A:ILE:538:CD1:4862, H-A:TYR:531:OH:4792, V-B:TYR:539:CE1:9844, V-B:MET:535:CE:9804, V-A:ASP:366:C:3204, V-A:TYR:531:CZ:4791, V-A:TYR:531:CE1:4789, V-B:TYR:531:CZ:9763, V-A:ILE:538:CG2:4860, V-A:TYR:539:CZ:4874, V-A:ASN:370:CG:3242, V-A:ASN:370:CB:3241, V-A:PRO:540:CD:4884, H-A:TYR:539:N:4867, V-B:TYR:531:CE1:9761"]

$$$$
3be_Grossjean_2025
     RDKit          3D

 27 29  0  0  0  0  0  0  0  0999 V2000
  126.4000  128.5250   57.6330 C   0  0  0  0  0  0  0  0  0  0  0  0
  126.9970  129.4690   56.6080 C   0  0  0  0  0  0  0  0  0  0  0  0
  126.2230  130.0250   55.5860 C   0  0  0  0  0  0  0  0  0  0  0  0
  126.8400  130.8840   54.6770 C   0  0  0  0  0  0  0  0  0  0  0  0
  128.2030  131.1650   54.8090 C   0  0  0  0  0  0  0  0  0  0  0  0
  128.9190  130.5770   55.8570 C   0  0  0  0  0  0  0  0  0  0  0  0
  130.2890  130.8910   55.9300 N   0  0  0  0  0  0  0  0  0  0  0  0
  130.8750  132.1040   56.0250 C   0  0  0  0  0  0  0  0  0  0  0  0
  130.2650  133.1750   56.0570 O   0  0  0  0  0  0  0  0  0  0  0  0
  132.4100  132.0730   56.0940 C   0  0  0  0  0  0  0  0  0  0  0  0
  133.1030  131.2990   57.5950 S   0  0  0  0  0  0  0  0  0  0  0  0
  132.0180  129.9770   58.0860 C   0  0  0  0  0  0  0  0  0  0  0  0
  132.0290  128.9220   57.2360 N   0  0  0  0  0  0  0  0  0  0  0  0
  131.2480  127.8380   57.4920 C   0  0  0  0  0  0  0  0  0  0  0  0
  131.3080  126.7190   56.4950 C   0  0  0  0  0  0  0  0  0  0  0  0
  130.1580  125.9750   56.1820 C   0  0  0  0  0  0  0  0  0  0  0  0
  130.2070  124.9340   55.2600 C   0  0  0  0  0  0  0  0  0  0  0  0
  131.4090  124.6200   54.6360 C   0  0  0  0  0  0  0  0  0  0  0  0
  132.5630  125.3390   54.9290 C   0  0  0  0  0  0  0  0  0  0  0  0
  132.5100  126.3790   55.8530 C   0  0  0  0  0  0  0  0  0  0  0  0
  130.4270  127.7970   58.6240 C   0  0  0  0  0  0  0  0  0  0  0  0
  130.4230  128.8670   59.5240 C   0  0  0  0  0  0  0  0  0  0  0  0
  129.5240  128.7700   60.7550 C   0  0  0  0  0  0  0  0  0  0  0  0
  131.2430  129.9880   59.2680 C   0  0  0  0  0  0  0  0  0  0  0  0
  131.2950  131.0960   60.2250 C   0  0  0  0  0  0  0  0  0  0  0  0
  131.3350  131.9700   60.9820 N   0  0  0  0  0  0  0  0  0  0  0  0
  128.3210  129.7330   56.7490 N   0  0  0  0  0  0  0  0  0  0  0  0
  1  2  1  0
  2  3  2  0
  3  4  1  0
  4  5  2  0
  5  6  1  0
  6  7  1  0
  7  8  1  0
  8  9  2  0
  8 10  1  0
 10 11  1  0
 11 12  1  0
 12 13  2  0
 13 14  1  0
 14 15  1  0
 15 16  2  0
 16 17  1  0
 17 18  2  0
 18 19  1  0
 19 20  2  0
 14 21  2  0
 21 22  1  0
 22 23  1  0
 22 24  2  0
 24 25  1  0
 25 26  3  0
  6 27  2  0
 27  2  1  0
 24 12  1  0
 20 15  1  0
M  END
>  <Binding energies>  (19) 
[-8.18]

>  <Ligand effiencies>  (19) 
[-0.29214285714285715]

>  <Interactions>  (19) 
["V-A:PRO:540:CB:4882, V-A:PRO:540:CA:4880, V-A:LEU:363:CD1:3185, V-A:ASP:366:CB:3208, V-A:ASP:366:CG:3209, H-A:ALA:541:N:4888, V-A:ILE:538:CD1:4862, H-A:TYR:531:OH:4792, V-B:TYR:539:CE1:9844, V-B:MET:535:CE:9804, V-A:ASP:366:C:3204, V-A:TYR:531:CZ:4791, V-A:TYR:531:CE1:4789, V-B:TYR:531:CZ:9763, V-A:ILE:538:CG2:4860, V-A:TYR:539:CZ:4874, V-A:ASN:370:CG:3242, V-A:ASN:370:CB:3241, V-A:PRO:540:CD:4884, H-A:TYR:539:N:4867, V-B:TYR:531:CE1:9761, V-A:TYR:531:CE2:4790"]

$$$$
3bf_Grossjean_2025
     RDKit          3D

 26 28  0  0  0  0  0  0  0  0999 V2000
  129.0480  129.0060   60.4940 C   0  0  0  0  0  0  0  0  0  0  0  0
  130.0970  129.0280   59.3850 C   0  0  0  0  0  0  0  0  0  0  0  0
  130.1680  127.9290   58.5230 C   0  0  0  0  0  0  0  0  0  0  0  0
  131.1050  127.9140   57.4840 C   0  0  0  0  0  0  0  0  0  0  0  0
  131.2170  126.7770   56.5130 C   0  0  0  0  0  0  0  0  0  0  0  0
  130.1400  125.9010   56.3100 C   0  0  0  0  0  0  0  0  0  0  0  0
  130.2360  124.8420   55.4100 C   0  0  0  0  0  0  0  0  0  0  0  0
  131.4160  124.6460   54.7000 C   0  0  0  0  0  0  0  0  0  0  0  0
  132.4990  125.5000   54.8850 C   0  0  0  0  0  0  0  0  0  0  0  0
  132.3980  126.5560   55.7860 C   0  0  0  0  0  0  0  0  0  0  0  0
  131.9550  128.9590   57.2970 N   0  0  0  0  0  0  0  0  0  0  0  0
  131.9150  130.0200   58.1400 C   0  0  0  0  0  0  0  0  0  0  0  0
  133.1020  131.2870   57.7470 S   0  0  0  0  0  0  0  0  0  0  0  0
  132.5380  132.1420   56.2370 C   0  0  0  0  0  0  0  0  0  0  0  0
  131.0160  132.1810   56.0390 C   0  0  0  0  0  0  0  0  0  0  0  0
  130.4030  133.2490   56.0830 O   0  0  0  0  0  0  0  0  0  0  0  0
  130.4490  130.9800   55.7920 N   0  0  0  0  0  0  0  0  0  0  0  0
  129.0930  130.6700   55.5790 C   0  0  0  0  0  0  0  0  0  0  0  0
  128.5870  129.5390   56.2280 C   0  0  0  0  0  0  0  0  0  0  0  0
  127.2450  129.1860   56.0670 C   0  0  0  0  0  0  0  0  0  0  0  0
  126.4390  129.9870   55.2580 C   0  0  0  0  0  0  0  0  0  0  0  0
  126.9000  131.0950   54.6250 N   0  0  0  0  0  0  0  0  0  0  0  0
  128.2070  131.4250   54.7910 C   0  0  0  0  0  0  0  0  0  0  0  0
  130.9830  130.1110   59.1970 C   0  0  0  0  0  0  0  0  0  0  0  0
  130.8930  131.2930   60.0580 C   0  0  0  0  0  0  0  0  0  0  0  0
  130.8210  132.2260   60.7390 N   0  0  0  0  0  0  0  0  0  0  0  0
  1  2  1  0
  2  3  2  0
  3  4  1  0
  4  5  1  0
  5  6  2  0
  6  7  1  0
  7  8  2  0
  8  9  1  0
  9 10  2  0
  4 11  2  0
 11 12  1  0
 12 13  1  0
 13 14  1  0
 14 15  1  0
 15 16  2  0
 15 17  1  0
 17 18  1  0
 18 19  2  0
 19 20  1  0
 20 21  2  0
 21 22  1  0
 22 23  2  0
 12 24  2  0
 24 25  1  0
 25 26  3  0
 24  2  1  0
 10  5  1  0
 23 18  1  0
M  END
>  <Binding energies>  (20) 
[-7.83]

>  <Ligand effiencies>  (20) 
[-0.29]

>  <Interactions>  (20) 
["V-A:PRO:540:CB:4882, V-A:PRO:540:CA:4880, V-A:PRO:540:N:4881, V-A:LEU:363:CD1:3185, V-A:ASP:366:CB:3208, H-A:ALA:541:N:4888, V-A:ILE:538:CD1:4862, H-A:TYR:531:OH:4792, V-B:TYR:539:CE1:9844, V-B:MET:535:CE:9804, V-A:ASP:366:C:3204, V-A:TYR:531:CZ:4791, V-A:TYR:531:CE1:4789, V-B:TYR:531:CZ:9763, V-A:ILE:538:CG2:4860, V-A:TYR:539:CZ:4874, V-A:ASN:370:CG:3242, V-A:ASN:370:CB:3241, V-A:PRO:540:CD:4884, H-A:TYR:539:N:4867, V-B:TYR:531:CE1:9761, H-A:TYR:539:OH:4875, V-A:TYR:531:CD1:4787"]

$$$$
3bg_Grossjean_2025
     RDKit          3D

 27 29  0  0  0  0  0  0  0  0999 V2000
  132.3630  130.7840   60.2040 C   0  0  0  0  0  0  0  0  0  0  0  0
  131.1740  131.4100   59.4790 C   0  0  0  0  0  0  0  0  0  0  0  0
  130.0730  131.8140   60.2420 C   0  0  0  0  0  0  0  0  0  0  0  0
  128.9640  132.4000   59.6180 C   0  0  0  0  0  0  0  0  0  0  0  0
  127.7540  132.8670   60.3800 C   0  0  0  0  0  0  0  0  0  0  0  0
  126.9260  133.8820   59.8730 C   0  0  0  0  0  0  0  0  0  0  0  0
  125.7950  134.3040   60.5660 C   0  0  0  0  0  0  0  0  0  0  0  0
  125.4740  133.7180   61.7850 C   0  0  0  0  0  0  0  0  0  0  0  0
  126.2810  132.7190   62.3170 C   0  0  0  0  0  0  0  0  0  0  0  0
  127.4120  132.3010   61.6210 C   0  0  0  0  0  0  0  0  0  0  0  0
  128.9530  132.5980   58.2730 N   0  0  0  0  0  0  0  0  0  0  0  0
  130.0140  132.2150   57.5180 C   0  0  0  0  0  0  0  0  0  0  0  0
  129.8880  132.5620   55.7710 S   0  0  0  0  0  0  0  0  0  0  0  0
  129.6930  130.9800   54.8860 C   0  0  0  0  0  0  0  0  0  0  0  0
  128.3660  130.2960   55.2280 C   0  0  0  0  0  0  0  0  0  0  0  0
  128.3250  129.0740   55.3710 O   0  0  0  0  0  0  0  0  0  0  0  0
  127.2900  131.0950   55.3310 N   0  0  0  0  0  0  0  0  0  0  0  0
  125.9050  130.6420   55.4680 C   0  0  0  0  0  0  0  0  0  0  0  0
  125.3940  130.8070   56.8940 C   0  0  0  0  0  0  0  0  0  0  0  0
  124.1280  131.3550   57.1250 C   0  0  0  0  0  0  0  0  0  0  0  0
  123.6640  131.5150   58.4270 C   0  0  0  0  0  0  0  0  0  0  0  0
  124.4630  131.1150   59.4970 C   0  0  0  0  0  0  0  0  0  0  0  0
  125.7160  130.5490   59.2750 C   0  0  0  0  0  0  0  0  0  0  0  0
  126.1800  130.3900   57.9710 C   0  0  0  0  0  0  0  0  0  0  0  0
  131.1530  131.6040   58.0820 C   0  0  0  0  0  0  0  0  0  0  0  0
  132.2950  131.1980   57.2580 C   0  0  0  0  0  0  0  0  0  0  0  0
  133.1970  130.8770   56.6080 N   0  0  0  0  0  0  0  0  0  0  0  0
  1  2  1  0
  2  3  2  0
  3  4  1  0
  4  5  1  0
  5  6  2  0
  6  7  1  0
  7  8  2  0
  8  9  1  0
  9 10  2  0
  4 11  2  0
 11 12  1  0
 12 13  1  0
 13 14  1  0
 14 15  1  0
 15 16  2  0
 15 17  1  0
 17 18  1  0
 18 19  1  0
 19 20  2  0
 20 21  1  0
 21 22  2  0
 22 23  1  0
 23 24  2  0
 12 25  2  0
 25 26  1  0
 26 27  3  0
 25  2  1  0
 10  5  1  0
 24 19  1  0
M  END
>  <Binding energies>  (21) 
[-7.58]

>  <Ligand effiencies>  (21) 
[-0.27071428571428574]

>  <Interactions>  (21) 
["V-A:TYR:539:CD2:4871, V-A:PRO:540:CB:4882, V-A:ALA:541:CB:4889, V-A:PRO:540:CA:4880, V-A:PRO:540:N:4881, V-A:LEU:363:CD1:3185, V-A:TYR:539:C:4864, V-A:TYR:539:CE2:4873, V-B:LEU:475:CD2:9227, V-A:ILE:538:CD1:4862, V-B:ASP:366:CA:8178, V-B:ASP:366:CB:8180, H-A:TYR:531:OH:4792, V-B:TYR:531:CZ:9763, V-B:ILE:369:CG2:8205, V-B:ASP:366:CG:8181, V-A:TYR:539:CZ:4874, H-A:TYR:539:N:4867, V-B:TYR:531:CE1:9761, V-B:ILE:369:CB:8204, V-B:ASP:366:C:8176, H-A:TYR:539:OH:4875"]

$$$$
3ca_Grossjean_2025
     RDKit          3D

 31 33  0  0  0  0  0  0  0  0999 V2000
  123.6970  124.7750   59.8160 C   0  0  0  0  0  0  0  0  0  0  0  0
  123.4590  125.2180   58.3690 C   0  0  0  0  0  0  0  0  0  0  0  0
  124.6300  124.9710   57.6000 O   0  0  0  0  0  0  0  0  0  0  0  0
  125.1280  123.7160   57.4630 C   0  0  0  0  0  0  0  0  0  0  0  0
  124.5300  122.8060   56.8800 O   0  0  0  0  0  0  0  0  0  0  0  0
  126.4840  123.5440   58.0870 C   0  0  0  0  0  0  0  0  0  0  0  0
  126.5780  123.3020   59.4630 C   0  0  0  0  0  0  0  0  0  0  0  0
  127.8200  123.1390   60.0700 C   0  0  0  0  0  0  0  0  0  0  0  0
  128.9920  123.2210   59.3160 C   0  0  0  0  0  0  0  0  0  0  0  0
  130.1930  123.0390   60.0280 N   0  0  0  0  0  0  0  0  0  0  0  0
  130.4650  122.2170   61.0640 C   0  0  0  0  0  0  0  0  0  0  0  0
  129.6700  121.4300   61.5770 O   0  0  0  0  0  0  0  0  0  0  0  0
  131.9000  122.2880   61.5980 C   0  0  0  0  0  0  0  0  0  0  0  0
  132.5680  123.9840   61.6340 S   0  0  0  0  0  0  0  0  0  0  0  0
  132.5190  124.6210   63.3040 C   0  0  0  0  0  0  0  0  0  0  0  0
  133.7050  124.6340   63.9630 N   0  0  0  0  0  0  0  0  0  0  0  0
  133.7470  125.1210   65.2220 C   0  0  0  0  0  0  0  0  0  0  0  0
  135.1100  125.1190   65.8840 C   0  0  0  0  0  0  0  0  0  0  0  0
  132.6150  125.5970   65.8790 C   0  0  0  0  0  0  0  0  0  0  0  0
  131.3750  125.5770   65.2270 C   0  0  0  0  0  0  0  0  0  0  0  0
  130.1860  126.0850   65.9760 C   0  0  0  0  0  0  0  0  0  0  0  0
  129.5010  127.2180   65.5210 C   0  0  0  0  0  0  0  0  0  0  0  0
  128.3980  127.7050   66.2180 C   0  0  0  0  0  0  0  0  0  0  0  0
  127.9770  127.0600   67.3780 C   0  0  0  0  0  0  0  0  0  0  0  0
  128.6510  125.9360   67.8480 C   0  0  0  0  0  0  0  0  0  0  0  0
  129.7550  125.4530   67.1490 C   0  0  0  0  0  0  0  0  0  0  0  0
  131.3210  125.0840   63.8980 C   0  0  0  0  0  0  0  0  0  0  0  0
  130.0620  125.0860   63.1470 C   0  0  0  0  0  0  0  0  0  0  0  0
  129.0670  125.0880   62.5550 N   0  0  0  0  0  0  0  0  0  0  0  0
  128.9070  123.4550   57.9350 C   0  0  0  0  0  0  0  0  0  0  0  0
  127.6630  123.6160   57.3300 C   0  0  0  0  0  0  0  0  0  0  0  0
  1  2  1  0
  2  3  1  0
  3  4  1  0
  4  5  2  0
  4  6  1  0
  6  7  2  0
  7  8  1  0
  8  9  2  0
  9 10  1  0
 10 11  1  0
 11 12  2  0
 11 13  1  0
 13 14  1  0
 14 15  1  0
 15 16  2  0
 16 17  1  0
 17 18  1  0
 17 19  2  0
 19 20  1  0
 20 21  1  0
 21 22  2  0
 22 23  1  0
 23 24  2  0
 24 25  1  0
 25 26  2  0
 20 27  2  0
 27 28  1  0
 28 29  3  0
  9 30  1  0
 30 31  2  0
 31  6  1  0
 27 15  1  0
 26 21  1  0
M  END
>  <Binding energies>  (22) 
[-8.73]

>  <Ligand effiencies>  (22) 
[-0.2728125]

>  <Interactions>  (22) 
["V-A:GLU:543:CD:4905, V-B:GLU:543:C:9871, V-A:HIS:456:CE1:4066, V-B:GLU:543:CB:9875, V-B:HIS:456:CE1:9038, V-B:ASP:366:CB:8180, V-B:TYR:539:CE1:9844, V-B:PRO:540:CA:9852, V-B:TYR:539:CZ:9846, V-B:TYR:531:CE2:9762, V-B:ASN:362:C:8140, V-B:PRO:540:CB:9854, V-B:ASP:366:CG:8181, V-B:LEU:363:CD1:8157, V-B:LEU:363:CA:8153, H-B:TYR:531:OH:9764, H-B:TYR:539:OH:9847, V-B:GLU:543:CD:9877, V-B:GLU:543:CG:9876, V-A:ARG:545:CZ:4923, V-A:ARG:545:CD:4920, V-B:TYR:539:CE2:9845, V-A:ARG:545:CG:4919, V-A:TYR:484:CE1:4341, V-A:LEU:475:CD1:4254, V-B:TYR:539:CD2:9843, H-A:GLY:454:N:4046, V-A:GLY:454:CA:4045, V-A:GLY:453:C:4038, V-A:GLY:453:CA:4040, V-A:GLY:454:C:4043"]

$$$$
3ce_Grossjean_2025
     RDKit          3D

 27 29  0  0  0  0  0  0  0  0999 V2000
  134.9590  125.0450   66.2420 C   0  0  0  0  0  0  0  0  0  0  0  0
  133.7370  125.2290   65.3630 C   0  0  0  0  0  0  0  0  0  0  0  0
  132.5490  125.7660   65.8660 C   0  0  0  0  0  0  0  0  0  0  0  0
  131.4680  125.9150   64.9980 C   0  0  0  0  0  0  0  0  0  0  0  0
  131.5970  125.5280   63.6620 C   0  0  0  0  0  0  0  0  0  0  0  0
  132.8120  124.9870   63.2260 C   0  0  0  0  0  0  0  0  0  0  0  0
  132.8910  124.6340   61.8680 N   0  0  0  0  0  0  0  0  0  0  0  0
  133.8640  123.9350   61.2410 C   0  0  0  0  0  0  0  0  0  0  0  0
  134.8690  123.4770   61.7880 O   0  0  0  0  0  0  0  0  0  0  0  0
  133.6590  123.7110   59.7440 C   0  0  0  0  0  0  0  0  0  0  0  0
  132.3240  124.7490   59.0780 S   0  0  0  0  0  0  0  0  0  0  0  0
  130.8140  123.8810   59.4340 C   0  0  0  0  0  0  0  0  0  0  0  0
  130.8140  123.2420   60.6290 N   0  0  0  0  0  0  0  0  0  0  0  0
  129.7030  122.5650   61.0010 C   0  0  0  0  0  0  0  0  0  0  0  0
  129.7670  121.8850   62.3540 C   0  0  0  0  0  0  0  0  0  0  0  0
  128.5680  122.4900   60.1980 C   0  0  0  0  0  0  0  0  0  0  0  0
  128.5580  123.1220   58.9480 C   0  0  0  0  0  0  0  0  0  0  0  0
  127.3260  122.9910   58.1130 C   0  0  0  0  0  0  0  0  0  0  0  0
  127.3560  122.2430   56.9290 C   0  0  0  0  0  0  0  0  0  0  0  0
  126.2140  122.1220   56.1420 C   0  0  0  0  0  0  0  0  0  0  0  0
  125.0370  122.7550   56.5320 C   0  0  0  0  0  0  0  0  0  0  0  0
  124.9940  123.5110   57.7010 C   0  0  0  0  0  0  0  0  0  0  0  0
  126.1370  123.6300   58.4860 C   0  0  0  0  0  0  0  0  0  0  0  0
  129.7100  123.8450   58.5490 C   0  0  0  0  0  0  0  0  0  0  0  0
  129.7520  124.5400   57.2580 C   0  0  0  0  0  0  0  0  0  0  0  0
  129.7840  125.0870   56.2400 N   0  0  0  0  0  0  0  0  0  0  0  0
  133.8770  124.8450   64.0690 N   0  0  0  0  0  0  0  0  0  0  0  0
  1  2  1  0
  2  3  2  0
  3  4  1  0
  4  5  2  0
  5  6  1  0
  6  7  1  0
  7  8  1  0
  8  9  2  0
  8 10  1  0
 10 11  1  0
 11 12  1  0
 12 13  2  0
 13 14  1  0
 14 15  1  0
 14 16  2  0
 16 17  1  0
 17 18  1  0
 18 19  2  0
 19 20  1  0
 20 21  2  0
 21 22  1  0
 22 23  2  0
 17 24  2  0
 24 25  1  0
 25 26  3  0
  6 27  2  0
 27  2  1  0
 24 12  1  0
 23 18  1  0
M  END
>  <Binding energies>  (23) 
[-8.31]

>  <Ligand effiencies>  (23) 
[-0.2967857142857143]

>  <Interactions>  (23) 
["V-A:ASP:366:CB:3208, V-A:ASP:366:CG:3209, H-A:ASP:366:OD1:3210, V-A:HIS:456:CE1:4066, V-B:TYR:539:CE1:9844, V-B:PRO:540:CA:9852, V-B:TYR:539:CZ:9846, V-B:PRO:540:N:9853, V-B:PRO:540:CB:9854, V-B:LEU:363:CD1:8157, V-B:ALA:541:CB:9861, H-B:TYR:539:OH:9847, V-A:ARG:545:CZ:4923, V-A:ARG:545:CD:4920, H-A:ARG:545:NH2:4925, V-B:TYR:539:CE2:9845, V-A:ARG:545:CG:4919, V-B:ILE:538:CG2:9832, V-B:ILE:538:CB:9831, V-B:PRO:540:CD:9856, V-B:TYR:539:C:9836, V-A:ILE:369:CB:3232, V-B:ILE:538:CA:9829, V-B:TYR:539:CD1:9842, V-B:PRO:540:CG:9855, H-A:GLY:454:N:4046, H-A:ASP:366:OD2:3211, H-A:ARG:545:NH1:4924, V-A:ILE:369:CG2:3233, V-A:GLY:454:CA:4045, V-A:GLY:453:C:4038, V-A:GLY:453:CA:4040, V-A:ASP:366:CA:3206, V-A:GLY:454:C:4043, V-A:ILE:455:C:4048"]

$$$$
3cj_Grossjean_2025
     RDKit          3D

 25 27  0  0  0  0  0  0  0  0999 V2000
  127.2160  134.9930   61.3960 C   0  0  0  0  0  0  0  0  0  0  0  0
  127.5870  133.6870   60.7200 C   0  0  0  0  0  0  0  0  0  0  0  0
  128.9170  133.3120   60.5410 C   0  0  0  0  0  0  0  0  0  0  0  0
  129.2140  132.0850   59.9320 C   0  0  0  0  0  0  0  0  0  0  0  0
  130.6490  131.6940   59.8200 C   0  0  0  0  0  0  0  0  0  0  0  0
  131.2330  131.4830   58.5650 C   0  0  0  0  0  0  0  0  0  0  0  0
  132.5690  131.1050   58.4620 C   0  0  0  0  0  0  0  0  0  0  0  0
  133.3260  130.9320   59.6160 C   0  0  0  0  0  0  0  0  0  0  0  0
  132.7580  131.1300   60.8720 C   0  0  0  0  0  0  0  0  0  0  0  0
  131.4210  131.5070   60.9730 C   0  0  0  0  0  0  0  0  0  0  0  0
  128.1390  131.2760   59.4860 C   0  0  0  0  0  0  0  0  0  0  0  0
  128.3860  129.9950   58.8150 C   0  0  0  0  0  0  0  0  0  0  0  0
  128.5820  128.9840   58.2870 N   0  0  0  0  0  0  0  0  0  0  0  0
  126.8220  131.7340   59.7130 C   0  0  0  0  0  0  0  0  0  0  0  0
  125.3850  130.7580   59.3240 S   0  0  0  0  0  0  0  0  0  0  0  0
  124.0060  131.6010   60.1640 C   0  0  0  0  0  0  0  0  0  0  0  0
  124.1550  131.5570   61.6880 C   0  0  0  0  0  0  0  0  0  0  0  0
  123.8170  132.5340   62.3590 O   0  0  0  0  0  0  0  0  0  0  0  0
  124.6260  130.3950   62.1900 N   0  0  0  0  0  0  0  0  0  0  0  0
  124.7260  130.0530   63.5290 C   0  0  0  0  0  0  0  0  0  0  0  0
  123.7680  130.0260   64.4300 N   0  0  0  0  0  0  0  0  0  0  0  0
  124.2170  129.6210   65.6010 C   0  0  0  0  0  0  0  0  0  0  0  0
  125.5720  129.3100   65.6680 C   0  0  0  0  0  0  0  0  0  0  0  0
  126.2890  129.5660   64.1040 S   0  0  0  0  0  0  0  0  0  0  0  0
  126.5520  132.9120   60.3280 N   0  0  0  0  0  0  0  0  0  0  0  0
  1  2  1  0
  2  3  2  0
  3  4  1  0
  4  5  1  0
  5  6  2  0
  6  7  1  0
  7  8  2  0
  8  9  1  0
  9 10  2  0
  4 11  2  0
 11 12  1  0
 12 13  3  0
 11 14  1  0
 14 15  1  0
 15 16  1  0
 16 17  1  0
 17 18  2  0
 17 19  1  0
 19 20  1  0
 20 21  2  0
 21 22  1  0
 22 23  2  0
 23 24  1  0
 14 25  2  0
 25  2  1  0
 10  5  1  0
 24 20  1  0
M  END
>  <Binding energies>  (24) 
[-7.6]

>  <Ligand effiencies>  (24) 
[-0.29230769230769227]

>  <Interactions>  (24) 
["V-A:PRO:540:CB:4882, V-A:ALA:541:CB:4889, V-A:PRO:540:CA:4880, V-A:TYR:539:C:4864, V-A:LEU:363:CA:3181, V-A:ASP:366:CG:3209, V-A:ASN:362:CB:3172, V-A:GLU:543:CD:4905, V-A:ASN:362:C:3168, V-B:LEU:475:CD2:9227, V-B:HIS:456:CE1:9038, V-B:ASP:366:CB:8180, H-B:ASP:366:OD1:8182, V-B:ILE:369:CG2:8205, V-B:ASP:366:CG:8181, V-B:ILE:369:CD1:8207, V-A:ALA:541:CA:4887, V-B:ARG:545:CZ:9895, V-A:PRO:540:C:4878, H-B:ARG:545:NH2:9897, H-B:ARG:545:NH1:9896, H-B:GLY:454:N:9018, H-B:ASP:366:OD2:8183, V-B:ARG:545:CD:9892, V-B:ILE:369:CB:8204"]

$$$$
4ba_Grossjean_2025
     RDKit          3D

 28 30  0  0  0  0  0  0  0  0999 V2000
  124.8930  123.2180   55.3760 C   0  0  0  0  0  0  0  0  0  0  0  0
  125.4320  122.1350   56.3300 C   0  0  0  0  0  0  0  0  0  0  0  0
  126.9180  122.2820   56.7140 C   0  0  0  0  0  0  0  0  0  0  0  0
  127.7840  121.7850   55.9890 O   0  0  0  0  0  0  0  0  0  0  0  0
  127.2440  123.0390   57.9680 C   0  0  0  0  0  0  0  0  0  0  0  0
  128.0660  122.4470   58.9350 C   0  0  0  0  0  0  0  0  0  0  0  0
  128.3820  123.1250   60.1080 C   0  0  0  0  0  0  0  0  0  0  0  0
  127.8880  124.4100   60.3380 C   0  0  0  0  0  0  0  0  0  0  0  0
  128.2630  125.0000   61.5600 N   0  0  0  0  0  0  0  0  0  0  0  0
  129.4960  125.2190   62.0810 C   0  0  0  0  0  0  0  0  0  0  0  0
  130.5470  124.8700   61.5410 O   0  0  0  0  0  0  0  0  0  0  0  0
  129.5150  125.8940   63.3800 C   0  0  0  0  0  0  0  0  0  0  0  0
  130.6620  125.3960   64.6220 S   0  0  0  0  0  0  0  0  0  0  0  0
  130.0210  126.5680   65.7490 C   0  0  0  0  0  0  0  0  0  0  0  0
  130.5160  126.6890   66.9800 N   0  0  0  0  0  0  0  0  0  0  0  0
  129.9390  127.6290   67.7630 C   0  0  0  0  0  0  0  0  0  0  0  0
  130.5120  127.7450   69.1640 C   0  0  0  0  0  0  0  0  0  0  0  0
  128.8910  128.4460   67.3460 C   0  0  0  0  0  0  0  0  0  0  0  0
  128.3650  128.3240   66.0500 C   0  0  0  0  0  0  0  0  0  0  0  0
  127.2140  129.2460   65.6360 C   0  0  0  0  0  0  0  0  0  0  0  0
  126.0220  128.6490   65.6860 F   0  0  0  0  0  0  0  0  0  0  0  0
  127.1660  130.3020   66.4490 F   0  0  0  0  0  0  0  0  0  0  0  0
  127.4000  129.6640   64.3830 F   0  0  0  0  0  0  0  0  0  0  0  0
  128.9490  127.3360   65.2010 C   0  0  0  0  0  0  0  0  0  0  0  0
  128.6760  126.9210   63.8460 C   0  0  0  0  0  0  0  0  0  0  0  0
  127.6840  127.4850   63.0850 N   0  0  0  0  0  0  0  0  0  0  0  0
  127.0590  125.0080   59.3780 C   0  0  0  0  0  0  0  0  0  0  0  0
  126.7430  124.3270   58.2050 C   0  0  0  0  0  0  0  0  0  0  0  0
  1  2  1  0
  2  3  1  0
  3  4  2  0
  3  5  1  0
  5  6  2  0
  6  7  1  0
  7  8  2  0
  8  9  1  0
  9 10  1  0
 10 11  2  0
 10 12  1  0
 12 13  1  0
 13 14  1  0
 14 15  2  0
 15 16  1  0
 16 17  1  0
 16 18  2  0
 18 19  1  0
 19 20  1  0
 20 21  1  0
 20 22  1  0
 20 23  1  0
 19 24  2  0
 24 25  1  0
 25 26  1  0
  8 27  1  0
 27 28  2  0
 28  5  1  0
 25 12  2  0
 24 14  1  0
M  END
>  <Binding energies>  (25) 
[-7.15]

>  <Ligand effiencies>  (25) 
[-0.2306451612903226]

>  <Interactions>  (25) 
["H-A:GLU:543:OE2:4907, V-A:GLU:543:CD:4905, V-A:HIS:456:CE1:4066, V-A:GLU:543:C:4899, V-A:GLU:543:CB:4903, V-B:HIS:456:CE1:9038, V-B:PRO:540:CA:9852, V-B:PRO:540:N:9853, V-B:PRO:540:CB:9854, H-B:TYR:539:N:9839, V-B:LEU:363:CD1:8157, H-B:GLU:543:OE2:9879, H-B:GLU:543:OE1:9878, V-B:GLU:543:CD:9877, V-B:TYR:539:CE2:9845, V-B:ILE:538:CG2:9832, V-B:ILE:538:CB:9831, V-B:PRO:540:CD:9856, V-B:TYR:539:C:9836, V-B:TYR:539:CD2:9843, V-B:PRO:540:CG:9855, V-B:TYR:484:CE1:9313, V-B:TYR:484:CZ:9315"]

$$$$
4bb_Grossjean_2025
     RDKit          3D

 27 29  0  0  0  0  0  0  0  0999 V2000
  125.2680  122.4440   56.1840 C   0  0  0  0  0  0  0  0  0  0  0  0
  126.7430  122.3360   56.5790 C   0  0  0  0  0  0  0  0  0  0  0  0
  127.5130  121.7710   55.8000 O   0  0  0  0  0  0  0  0  0  0  0  0
  127.1700  122.9140   57.8950 C   0  0  0  0  0  0  0  0  0  0  0  0
  126.8640  124.2480   58.1930 C   0  0  0  0  0  0  0  0  0  0  0  0
  127.2490  124.8080   59.4070 C   0  0  0  0  0  0  0  0  0  0  0  0
  127.9400  124.0450   60.3500 C   0  0  0  0  0  0  0  0  0  0  0  0
  128.2840  124.7120   61.5430 N   0  0  0  0  0  0  0  0  0  0  0  0
  129.5020  125.0510   62.0310 C   0  0  0  0  0  0  0  0  0  0  0  0
  130.5680  124.7820   61.4780 O   0  0  0  0  0  0  0  0  0  0  0  0
  129.4850  125.7540   63.3170 C   0  0  0  0  0  0  0  0  0  0  0  0
  130.5830  125.2700   64.6070 S   0  0  0  0  0  0  0  0  0  0  0  0
  129.9260  126.4790   65.6850 C   0  0  0  0  0  0  0  0  0  0  0  0
  130.3870  126.6300   66.9250 N   0  0  0  0  0  0  0  0  0  0  0  0
  129.7980  127.5980   67.6640 C   0  0  0  0  0  0  0  0  0  0  0  0
  130.3400  127.7550   69.0740 C   0  0  0  0  0  0  0  0  0  0  0  0
  128.7680  128.4110   67.1970 C   0  0  0  0  0  0  0  0  0  0  0  0
  128.2780  128.2570   65.8920 C   0  0  0  0  0  0  0  0  0  0  0  0
  127.1440  129.1740   65.4220 C   0  0  0  0  0  0  0  0  0  0  0  0
  125.9620  128.5560   65.3660 F   0  0  0  0  0  0  0  0  0  0  0  0
  127.0190  130.2020   66.2630 F   0  0  0  0  0  0  0  0  0  0  0  0
  127.4120  129.6350   64.2010 F   0  0  0  0  0  0  0  0  0  0  0  0
  128.8780  127.2430   65.0840 C   0  0  0  0  0  0  0  0  0  0  0  0
  128.6460  126.8020   63.7320 C   0  0  0  0  0  0  0  0  0  0  0  0
  127.6920  127.3640   62.9220 N   0  0  0  0  0  0  0  0  0  0  0  0
  128.2570  122.7100   60.0560 C   0  0  0  0  0  0  0  0  0  0  0  0
  127.8710  122.1520   58.8400 C   0  0  0  0  0  0  0  0  0  0  0  0
  1  2  1  0
  2  3  2  0
  2  4  1  0
  4  5  2  0
  5  6  1  0
  6  7  2  0
  7  8  1  0
  8  9  1  0
  9 10  2  0
  9 11  1  0
 11 12  1  0
 12 13  1  0
 13 14  2  0
 14 15  1  0
 15 16  1  0
 15 17  2  0
 17 18  1  0
 18 19  1  0
 19 20  1  0
 19 21  1  0
 19 22  1  0
 18 23  2  0
 23 24  1  0
 24 25  1  0
  7 26  1  0
 26 27  2  0
 27  4  1  0
 24 11  2  0
 23 13  1  0
M  END
>  <Binding energies>  (26) 
[-7.25]

>  <Ligand effiencies>  (26) 
[-0.24166666666666667]

>  <Interactions>  (26) 
["H-A:GLU:543:OE2:4907, V-A:GLU:543:CD:4905, V-A:HIS:456:CE1:4066, V-A:GLU:543:C:4899, V-A:GLU:543:CB:4903, V-B:HIS:456:CE1:9038, V-B:PRO:540:CA:9852, H-B:ASP:366:OD1:8182, V-B:PRO:540:N:9853, V-B:PRO:540:CB:9854, H-B:TYR:539:N:9839, V-B:LEU:363:CD1:8157, V-B:ALA:541:CB:9861, H-B:GLU:543:OE2:9879, H-B:GLU:543:OE1:9878, V-B:GLU:543:CD:9877, V-B:TYR:539:CE2:9845, V-B:ILE:538:CG2:9832, V-B:ILE:538:CB:9831, V-B:PRO:540:CD:9856, V-B:TYR:539:C:9836, V-B:TYR:539:CD2:9843, V-B:PRO:540:CG:9855, V-B:ARG:545:CZ:9895, V-B:TYR:484:CE1:9313, V-B:TYR:484:CZ:9315"]

$$$$
4bd_Grossjean_2025
     RDKit          3D

 24 26  0  0  0  0  0  0  0  0999 V2000
  124.7730  122.8840   55.1560 C   0  0  0  0  0  0  0  0  0  0  0  0
  125.3800  123.0870   56.5330 C   0  0  0  0  0  0  0  0  0  0  0  0
  124.5870  123.4340   57.6230 C   0  0  0  0  0  0  0  0  0  0  0  0
  125.1620  123.6210   58.8900 C   0  0  0  0  0  0  0  0  0  0  0  0
  124.2490  124.0050   60.0590 C   0  0  0  0  0  0  0  0  0  0  0  0
  124.2060  123.0750   61.0160 F   0  0  0  0  0  0  0  0  0  0  0  0
  124.6830  125.1340   60.6200 F   0  0  0  0  0  0  0  0  0  0  0  0
  123.0030  124.1820   59.6200 F   0  0  0  0  0  0  0  0  0  0  0  0
  126.5720  123.4400   59.0000 C   0  0  0  0  0  0  0  0  0  0  0  0
  127.4920  123.5420   60.1070 C   0  0  0  0  0  0  0  0  0  0  0  0
  127.0880  123.8640   61.3760 N   0  0  0  0  0  0  0  0  0  0  0  0
  128.8310  123.2830   59.7660 C   0  0  0  0  0  0  0  0  0  0  0  0
  130.0150  123.3150   60.6300 C   0  0  0  0  0  0  0  0  0  0  0  0
  129.9080  123.1720   61.8480 O   0  0  0  0  0  0  0  0  0  0  0  0
  131.1970  123.4960   59.9890 N   0  0  0  0  0  0  0  0  0  0  0  0
  132.4940  123.6140   60.5210 C   0  0  0  0  0  0  0  0  0  0  0  0
  132.5880  124.2210   61.7770 C   0  0  0  0  0  0  0  0  0  0  0  0
  133.8270  124.3740   62.3920 C   0  0  0  0  0  0  0  0  0  0  0  0
  134.9760  123.9120   61.7560 C   0  0  0  0  0  0  0  0  0  0  0  0
  134.8950  123.2930   60.5110 C   0  0  0  0  0  0  0  0  0  0  0  0
  133.6570  123.1380   59.8920 C   0  0  0  0  0  0  0  0  0  0  0  0
  128.9900  122.8970   58.0550 S   0  0  0  0  0  0  0  0  0  0  0  0
  127.2700  123.0860   57.8040 C   0  0  0  0  0  0  0  0  0  0  0  0
  126.7190  122.9080   56.6050 N   0  0  0  0  0  0  0  0  0  0  0  0
  1  2  1  0
  2  3  2  0
  3  4  1  0
  4  5  1  0
  5  6  1  0
  5  7  1  0
  5  8  1  0
  4  9  2  0
  9 10  1  0
 10 11  1  0
 10 12  2  0
 12 13  1  0
 13 14  2  0
 13 15  1  0
 15 16  1  0
 16 17  2  0
 17 18  1  0
 18 19  2  0
 19 20  1  0
 20 21  2  0
 12 22  1  0
 22 23  1  0
 23 24  2  0
 24  2  1  0
 23  9  1  0
 21 16  1  0
M  END
>  <Binding energies>  (27) 
[-6.67]

>  <Ligand effiencies>  (27) 
[-0.24703703703703703]

>  <Interactions>  (27) 
["V-A:ASP:366:CG:3209, V-B:ASN:362:CB:8144, V-B:TYR:539:CE1:9844, V-B:PRO:540:CA:9852, V-B:TYR:539:CZ:9846, V-B:ASN:362:C:8140, V-B:PRO:540:C:9850, V-B:PRO:540:CB:9854, V-B:ASP:366:CG:8181, V-B:LEU:363:CD1:8157, V-B:LEU:363:CA:8153, V-B:ALA:541:CB:9861, H-B:GLU:543:OE2:9879, H-B:TYR:539:OH:9847, V-B:GLU:543:CD:9877, V-B:GLU:543:CG:9876, V-B:TYR:539:CE2:9845, V-B:ILE:538:CG2:9832, V-B:ILE:538:CB:9831, V-A:ILE:369:CG1:3234, V-A:ILE:369:CB:3232, V-B:TYR:539:CD2:9843, V-B:TYR:539:CD1:9842, V-B:LEU:363:CB:8155, V-A:ILE:369:CG2:3233, V-A:GLY:454:CA:4045, V-A:GLY:453:C:4038, V-A:GLY:453:CA:4040, V-A:ASP:366:CA:3206, V-B:ILE:538:CD1:9834"]

$$$$
4be_Grossjean_2025
     RDKit          3D

 25 27  0  0  0  0  0  0  0  0999 V2000
  134.8320  120.2710   61.3690 C   0  0  0  0  0  0  0  0  0  0  0  0
  134.1710  121.6320   61.2660 C   0  0  0  0  0  0  0  0  0  0  0  0
  134.8070  122.7900   61.7220 C   0  0  0  0  0  0  0  0  0  0  0  0
  134.1380  124.0080   61.5980 C   0  0  0  0  0  0  0  0  0  0  0  0
  132.8640  124.0400   61.0260 C   0  0  0  0  0  0  0  0  0  0  0  0
  132.2870  122.8440   60.5840 C   0  0  0  0  0  0  0  0  0  0  0  0
  131.0000  122.9430   60.0250 N   0  0  0  0  0  0  0  0  0  0  0  0
  129.7960  122.7630   60.6220 C   0  0  0  0  0  0  0  0  0  0  0  0
  129.6560  122.4760   61.8120 O   0  0  0  0  0  0  0  0  0  0  0  0
  128.6310  122.9110   59.7450 C   0  0  0  0  0  0  0  0  0  0  0  0
  128.7710  122.5720   58.0210 S   0  0  0  0  0  0  0  0  0  0  0  0
  127.0960  122.9960   57.7550 C   0  0  0  0  0  0  0  0  0  0  0  0
  126.5490  122.9350   56.5420 N   0  0  0  0  0  0  0  0  0  0  0  0
  125.2440  123.2850   56.4620 C   0  0  0  0  0  0  0  0  0  0  0  0
  124.6390  123.2120   55.0720 C   0  0  0  0  0  0  0  0  0  0  0  0
  124.4820  123.6890   57.5550 C   0  0  0  0  0  0  0  0  0  0  0  0
  125.0530  123.7540   58.8350 C   0  0  0  0  0  0  0  0  0  0  0  0
  124.1740  124.2010   60.0080 C   0  0  0  0  0  0  0  0  0  0  0  0
  124.7460  125.1450   60.7590 F   0  0  0  0  0  0  0  0  0  0  0  0
  123.0270  124.6990   59.5480 F   0  0  0  0  0  0  0  0  0  0  0  0
  123.9160  123.1610   60.8010 F   0  0  0  0  0  0  0  0  0  0  0  0
  126.4290  123.3950   58.9540 C   0  0  0  0  0  0  0  0  0  0  0  0
  127.3380  123.3470   60.0740 C   0  0  0  0  0  0  0  0  0  0  0  0
  126.9620  123.6900   61.3480 N   0  0  0  0  0  0  0  0  0  0  0  0
  132.9340  121.6480   60.7070 N   0  0  0  0  0  0  0  0  0  0  0  0
  1  2  1  0
  2  3  2  0
  3  4  1  0
  4  5  2  0
  5  6  1  0
  6  7  1  0
  7  8  1  0
  8  9  2  0
  8 10  1  0
 10 11  1  0
 11 12  1  0
 12 13  2  0
 13 14  1  0
 14 15  1  0
 14 16  2  0
 16 17  1  0
 17 18  1  0
 18 19  1  0
 18 20  1  0
 18 21  1  0
 17 22  2  0
 22 23  1  0
 23 24  1  0
  6 25  2  0
 25  2  1  0
 23 10  2  0
 22 12  1  0
M  END
>  <Binding energies>  (28) 
[-6.67]

>  <Ligand effiencies>  (28) 
[-0.2382142857142857]

>  <Interactions>  (28) 
["V-A:ASP:366:CG:3209, V-B:ASP:366:CB:8180, V-B:ASN:362:CB:8144, V-B:TYR:539:CE1:9844, V-B:PRO:540:CA:9852, V-B:TYR:539:CZ:9846, V-B:ASN:362:C:8140, V-B:PRO:540:N:9853, V-B:PRO:540:C:9850, V-B:PRO:540:CB:9854, V-B:ASP:366:CG:8181, V-B:LEU:363:CD1:8157, V-B:LEU:363:CA:8153, V-B:ALA:541:CB:9861, H-B:GLU:543:OE2:9879, H-B:TYR:539:OH:9847, V-B:GLU:543:CD:9877, V-B:GLU:543:CG:9876, V-B:TYR:539:CE2:9845, V-B:ILE:538:CG2:9832, V-B:ILE:538:CB:9831, V-A:LEU:475:CD1:4254, V-A:ILE:369:CG1:3234, V-A:ILE:369:CB:3232, V-B:TYR:539:CD2:9843, V-B:TYR:539:CD1:9842, V-B:TYR:539:CG:9841, V-B:LEU:363:CB:8155, V-A:ILE:369:CG2:3233, V-A:GLY:454:CA:4045, V-A:ILE:369:CD1:3235, V-A:GLY:453:C:4038, V-A:GLY:453:CA:4040, V-A:SER:385:C:3401"]

$$$$
4bg_Grossjean_2025
     RDKit          3D

 25 27  0  0  0  0  0  0  0  0999 V2000
  124.8830  123.2250   55.1710 C   0  0  0  0  0  0  0  0  0  0  0  0
  125.3610  123.1930   56.6110 C   0  0  0  0  0  0  0  0  0  0  0  0
  124.5560  123.6660   57.6440 C   0  0  0  0  0  0  0  0  0  0  0  0
  125.0130  123.6360   58.9720 C   0  0  0  0  0  0  0  0  0  0  0  0
  124.0920  124.1670   60.0750 C   0  0  0  0  0  0  0  0  0  0  0  0
  124.6760  125.0910   60.8420 F   0  0  0  0  0  0  0  0  0  0  0  0
  123.0110  124.7250   59.5300 F   0  0  0  0  0  0  0  0  0  0  0  0
  123.7170  123.1670   60.8720 F   0  0  0  0  0  0  0  0  0  0  0  0
  126.3170  123.1050   59.2000 C   0  0  0  0  0  0  0  0  0  0  0  0
  127.1070  122.9220   60.3930 C   0  0  0  0  0  0  0  0  0  0  0  0
  126.6670  123.2890   61.6400 N   0  0  0  0  0  0  0  0  0  0  0  0
  128.3580  122.3280   60.1650 C   0  0  0  0  0  0  0  0  0  0  0  0
  129.4140  122.0280   61.1320 C   0  0  0  0  0  0  0  0  0  0  0  0
  129.8290  120.8790   61.2950 O   0  0  0  0  0  0  0  0  0  0  0  0
  129.9260  123.0850   61.7950 N   0  0  0  0  0  0  0  0  0  0  0  0
  130.9740  123.0220   62.8130 C   0  0  0  0  0  0  0  0  0  0  0  0
  132.3820  122.9540   62.2360 C   0  0  0  0  0  0  0  0  0  0  0  0
  133.2140  124.0770   62.2810 C   0  0  0  0  0  0  0  0  0  0  0  0
  134.5130  124.0000   61.7870 C   0  0  0  0  0  0  0  0  0  0  0  0
  134.9840  122.7970   61.2640 C   0  0  0  0  0  0  0  0  0  0  0  0
  134.1670  121.6700   61.2330 C   0  0  0  0  0  0  0  0  0  0  0  0
  132.8660  121.7460   61.7250 C   0  0  0  0  0  0  0  0  0  0  0  0
  128.6150  122.0100   58.4520 S   0  0  0  0  0  0  0  0  0  0  0  0
  127.0360  122.6460   58.0540 C   0  0  0  0  0  0  0  0  0  0  0  0
  126.5990  122.6800   56.7950 N   0  0  0  0  0  0  0  0  0  0  0  0
  1  2  1  0
  2  3  2  0
  3  4  1  0
  4  5  1  0
  5  6  1  0
  5  7  1  0
  5  8  1  0
  4  9  2  0
  9 10  1  0
 10 11  1  0
 10 12  2  0
 12 13  1  0
 13 14  2  0
 13 15  1  0
 15 16  1  0
 16 17  1  0
 17 18  2  0
 18 19  1  0
 19 20  2  0
 20 21  1  0
 21 22  2  0
 12 23  1  0
 23 24  1  0
 24 25  2  0
 25  2  1  0
 24  9  1  0
 22 17  1  0
M  END
>  <Binding energies>  (29) 
[-7.14]

>  <Ligand effiencies>  (29) 
[-0.255]

>  <Interactions>  (29) 
["V-A:ASP:366:CG:3209, V-B:ASP:366:CB:8180, V-B:ASN:362:CB:8144, V-B:TYR:539:CE1:9844, V-B:MET:535:CE:9804, V-B:PRO:540:CA:9852, V-B:TYR:539:CZ:9846, V-B:ASN:362:C:8140, V-B:PRO:540:N:9853, V-B:PRO:540:C:9850, V-B:PRO:540:CB:9854, V-B:ASP:366:CG:8181, V-B:LEU:363:CD1:8157, V-B:LEU:363:CA:8153, V-B:ALA:541:CB:9861, H-B:GLU:543:OE2:9879, V-B:GLU:543:CD:9877, V-B:GLU:543:CG:9876, V-B:TYR:539:CE2:9845, V-B:ILE:538:CG2:9832, V-B:ILE:538:CB:9831, V-A:LEU:475:CD1:4254, V-A:ILE:369:CG1:3234, V-B:TYR:539:C:9836, V-A:ILE:369:CB:3232, V-B:TYR:539:CD2:9843, V-B:TYR:539:CD1:9842, V-B:TYR:539:CG:9841, V-B:LEU:363:CB:8155, V-A:ILE:369:CG2:3233, V-A:GLY:454:CA:4045, V-B:ARG:545:CZ:9895, V-A:GLY:453:C:4038, V-A:GLY:453:CA:4040, V-B:ALA:541:CA:9859"]

$$$$
4ca_Grossjean_2025
     RDKit          3D

 34 37  0  0  0  0  0  0  0  0999 V2000
  124.9200  123.8790   56.4610 C   0  0  0  0  0  0  0  0  0  0  0  0
  125.0860  122.5210   55.7720 C   0  0  0  0  0  0  0  0  0  0  0  0
  126.0560  121.7520   56.4700 O   0  0  0  0  0  0  0  0  0  0  0  0
  127.3520  122.1540   56.5420 C   0  0  0  0  0  0  0  0  0  0  0  0
  128.1780  121.9490   55.6460 O   0  0  0  0  0  0  0  0  0  0  0  0
  127.6790  122.8770   57.8160 C   0  0  0  0  0  0  0  0  0  0  0  0
  126.7480  122.8710   58.8640 C   0  0  0  0  0  0  0  0  0  0  0  0
  127.0250  123.5290   60.0590 C   0  0  0  0  0  0  0  0  0  0  0  0
  128.2290  124.2100   60.2300 C   0  0  0  0  0  0  0  0  0  0  0  0
  128.4090  124.8320   61.4810 N   0  0  0  0  0  0  0  0  0  0  0  0
  129.5200  125.3800   62.0320 C   0  0  0  0  0  0  0  0  0  0  0  0
  130.6060  125.4640   61.4590 O   0  0  0  0  0  0  0  0  0  0  0  0
  129.3500  125.9060   63.3890 C   0  0  0  0  0  0  0  0  0  0  0  0
  129.9190  124.9790   64.7750 S   0  0  0  0  0  0  0  0  0  0  0  0
  129.4130  126.2350   65.8790 C   0  0  0  0  0  0  0  0  0  0  0  0
  129.5910  126.1170   67.1930 N   0  0  0  0  0  0  0  0  0  0  0  0
  129.1800  127.1520   67.9710 C   0  0  0  0  0  0  0  0  0  0  0  0
  129.4030  126.9930   69.4470 C   0  0  0  0  0  0  0  0  0  0  0  0
  128.6360  126.0870   70.1970 C   0  0  0  0  0  0  0  0  0  0  0  0
  128.8350  125.9390   71.5680 C   0  0  0  0  0  0  0  0  0  0  0  0
  129.8070  126.6990   72.2100 C   0  0  0  0  0  0  0  0  0  0  0  0
  130.5790  127.6050   71.4920 C   0  0  0  0  0  0  0  0  0  0  0  0
  130.3770  127.7500   70.1220 C   0  0  0  0  0  0  0  0  0  0  0  0
  128.5710  128.2880   67.4280 C   0  0  0  0  0  0  0  0  0  0  0  0
  128.3750  128.4210   66.0450 C   0  0  0  0  0  0  0  0  0  0  0  0
  127.7050  129.6950   65.5180 C   0  0  0  0  0  0  0  0  0  0  0  0
  127.8310  130.7340   66.3460 F   0  0  0  0  0  0  0  0  0  0  0  0
  128.2520  130.0440   64.3540 F   0  0  0  0  0  0  0  0  0  0  0  0
  126.4010  129.4800   65.3450 F   0  0  0  0  0  0  0  0  0  0  0  0
  128.8190  127.3490   65.2180 C   0  0  0  0  0  0  0  0  0  0  0  0
  128.7980  127.1340   63.7920 C   0  0  0  0  0  0  0  0  0  0  0  0
  128.2820  128.0500   62.9120 N   0  0  0  0  0  0  0  0  0  0  0  0
  129.1690  124.2170   59.1890 C   0  0  0  0  0  0  0  0  0  0  0  0
  128.8930  123.5570   57.9950 C   0  0  0  0  0  0  0  0  0  0  0  0
  1  2  1  0
  2  3  1  0
  3  4  1  0
  4  5  2  0
  4  6  1  0
  6  7  2  0
  7  8  1  0
  8  9  2  0
  9 10  1  0
 10 11  1  0
 11 12  2  0
 11 13  1  0
 13 14  1  0
 14 15  1  0
 15 16  2  0
 16 17  1  0
 17 18  1  0
 18 19  2  0
 19 20  1  0
 20 21  2  0
 21 22  1  0
 22 23  2  0
 17 24  2  0
 24 25  1  0
 25 26  1  0
 26 27  1  0
 26 28  1  0
 26 29  1  0
 25 30  2  0
 30 31  1  0
 31 32  1  0
  9 33  1  0
 33 34  2  0
 34  6  1  0
 31 13  2  0
 30 15  1  0
 23 18  1  0
M  END
>  <Binding energies>  (30) 
[-8.49]

>  <Ligand effiencies>  (30) 
[-0.22945945945945947]

>  <Interactions>  (30) 
["H-A:GLU:543:OE2:4907, V-A:GLU:543:CD:4905, V-B:LYS:547:CE:9919, V-A:GLY:544:C:4909, V-A:HIS:456:CE1:4066, V-A:GLU:543:CB:4903, V-A:HIS:456:CD2:4064, V-B:GLU:543:CB:9875, V-B:HIS:456:CE1:9038, V-B:TYR:539:CE1:9844, V-B:PRO:540:CA:9852, V-B:TYR:539:CZ:9846, V-B:PRO:540:N:9853, V-B:PRO:540:CB:9854, H-B:TYR:539:N:9839, V-B:LEU:363:CD1:8157, H-B:GLU:543:OE2:9879, H-B:GLU:543:OE1:9878, V-B:GLU:543:CD:9877, V-B:GLU:543:CG:9876, V-B:TYR:539:CE2:9845, V-A:GLU:543:CG:4904, V-B:ILE:538:CG2:9832, V-B:ILE:538:CB:9831, V-B:PRO:540:CD:9856, V-B:TYR:539:C:9836, V-B:TYR:539:CD1:9842, V-B:TYR:484:CE1:9313, V-B:TYR:539:CA:9838, V-B:TYR:484:CZ:9315, V-A:GLU:543:CA:4901, V-B:ILE:538:CD1:9834"]

$$$$
4cb_Grossjean_2025
     RDKit          3D

 33 36  0  0  0  0  0  0  0  0999 V2000
  125.0860  122.6280   55.7970 C   0  0  0  0  0  0  0  0  0  0  0  0
  126.0750  121.7410   56.3020 O   0  0  0  0  0  0  0  0  0  0  0  0
  127.3630  122.1420   56.4530 C   0  0  0  0  0  0  0  0  0  0  0  0
  128.2220  122.0220   55.5740 O   0  0  0  0  0  0  0  0  0  0  0  0
  127.6400  122.7510   57.7980 C   0  0  0  0  0  0  0  0  0  0  0  0
  127.3040  124.0920   58.0250 C   0  0  0  0  0  0  0  0  0  0  0  0
  127.5410  124.6820   59.2640 C   0  0  0  0  0  0  0  0  0  0  0  0
  128.1250  123.9470   60.2970 C   0  0  0  0  0  0  0  0  0  0  0  0
  128.3060  124.6390   61.5100 N   0  0  0  0  0  0  0  0  0  0  0  0
  129.3250  125.4330   61.9180 C   0  0  0  0  0  0  0  0  0  0  0  0
  130.2950  125.7290   61.2180 O   0  0  0  0  0  0  0  0  0  0  0  0
  129.2010  125.9600   63.2800 C   0  0  0  0  0  0  0  0  0  0  0  0
  129.7580  125.0080   64.6540 S   0  0  0  0  0  0  0  0  0  0  0  0
  129.3210  126.2780   65.7710 C   0  0  0  0  0  0  0  0  0  0  0  0
  129.5160  126.1500   67.0810 N   0  0  0  0  0  0  0  0  0  0  0  0
  129.1540  127.1950   67.8690 C   0  0  0  0  0  0  0  0  0  0  0  0
  129.3910  127.0230   69.3420 C   0  0  0  0  0  0  0  0  0  0  0  0
  130.4230  127.7210   69.9890 C   0  0  0  0  0  0  0  0  0  0  0  0
  130.6510  127.5630   71.3540 C   0  0  0  0  0  0  0  0  0  0  0  0
  129.8480  126.7010   72.0930 C   0  0  0  0  0  0  0  0  0  0  0  0
  128.8200  125.9940   71.4750 C   0  0  0  0  0  0  0  0  0  0  0  0
  128.5970  126.1550   70.1110 C   0  0  0  0  0  0  0  0  0  0  0  0
  128.5780  128.3550   67.3400 C   0  0  0  0  0  0  0  0  0  0  0  0
  128.3650  128.4990   65.9600 C   0  0  0  0  0  0  0  0  0  0  0  0
  127.7320  129.7990   65.4470 C   0  0  0  0  0  0  0  0  0  0  0  0
  128.2510  130.2110   64.2880 F   0  0  0  0  0  0  0  0  0  0  0  0
  126.4250  129.6170   65.2560 F   0  0  0  0  0  0  0  0  0  0  0  0
  127.9160  130.7730   66.3360 F   0  0  0  0  0  0  0  0  0  0  0  0
  128.7560  127.4150   65.1230 C   0  0  0  0  0  0  0  0  0  0  0  0
  128.7050  127.2070   63.6960 C   0  0  0  0  0  0  0  0  0  0  0  0
  128.2120  128.1470   62.8270 N   0  0  0  0  0  0  0  0  0  0  0  0
  128.4620  122.6030   60.0790 C   0  0  0  0  0  0  0  0  0  0  0  0
  128.2230  122.0150   58.8410 C   0  0  0  0  0  0  0  0  0  0  0  0
  1  2  1  0
  2  3  1  0
  3  4  2  0
  3  5  1  0
  5  6  2  0
  6  7  1  0
  7  8  2  0
  8  9  1  0
  9 10  1  0
 10 11  2  0
 10 12  1  0
 12 13  1  0
 13 14  1  0
 14 15  2  0
 15 16  1  0
 16 17  1  0
 17 18  2  0
 18 19  1  0
 19 20  2  0
 20 21  1  0
 21 22  2  0
 16 23  2  0
 23 24  1  0
 24 25  1  0
 25 26  1  0
 25 27  1  0
 25 28  1  0
 24 29  2  0
 29 30  1  0
 30 31  1  0
  8 32  1  0
 32 33  2  0
 33  5  1  0
 30 12  2  0
 29 14  1  0
 22 17  1  0
M  END
>  <Binding energies>  (31) 
[-8.4]

>  <Ligand effiencies>  (31) 
[-0.23333333333333334]

>  <Interactions>  (31) 
["H-A:GLU:543:OE2:4907, V-A:GLU:543:CD:4905, V-B:LYS:547:CE:9919, V-A:GLY:544:C:4909, V-A:HIS:456:CE1:4066, V-A:GLU:543:CB:4903, V-A:HIS:456:CD2:4064, V-B:GLU:543:CB:9875, V-B:HIS:456:CE1:9038, V-B:TYR:539:CE1:9844, V-B:PRO:540:CA:9852, V-B:TYR:539:CZ:9846, H-B:ASP:366:OD1:8182, V-B:PRO:540:N:9853, V-B:PRO:540:CB:9854, H-B:TYR:539:N:9839, V-B:LEU:363:CD1:8157, V-B:ALA:541:CB:9861, H-B:GLU:543:OE2:9879, V-B:GLU:543:CD:9877, V-B:GLU:543:CG:9876, V-B:TYR:539:CE2:9845, V-A:GLU:543:CG:4904, V-B:ILE:538:CG2:9832, V-B:ILE:538:CB:9831, V-B:PRO:540:CD:9856, V-B:TYR:539:C:9836, V-B:TYR:539:CD2:9843, V-B:ILE:538:CA:9829, V-B:TYR:539:CD1:9842, V-B:TYR:539:CG:9841, V-B:TYR:484:CE1:9313, V-B:TYR:539:CA:9838, V-B:TYR:484:CZ:9315, V-A:GLU:543:CA:4901"]

$$$$
4cc_Grossjean_2025
     RDKit          3D

 31 34  0  0  0  0  0  0  0  0999 V2000
  127.3590  122.4630   55.3290 C   0  0  0  0  0  0  0  0  0  0  0  0
  126.9950  121.7840   56.5260 O   0  0  0  0  0  0  0  0  0  0  0  0
  127.3440  122.3320   57.7450 C   0  0  0  0  0  0  0  0  0  0  0  0
  126.7310  123.5370   58.0840 C   0  0  0  0  0  0  0  0  0  0  0  0
  127.0200  124.1640   59.2940 C   0  0  0  0  0  0  0  0  0  0  0  0
  127.9370  123.5950   60.1790 C   0  0  0  0  0  0  0  0  0  0  0  0
  128.1530  124.2920   61.3830 N   0  0  0  0  0  0  0  0  0  0  0  0
  129.3170  124.7220   61.9270 C   0  0  0  0  0  0  0  0  0  0  0  0
  130.4180  124.5870   61.3920 O   0  0  0  0  0  0  0  0  0  0  0  0
  129.1960  125.3800   63.2320 C   0  0  0  0  0  0  0  0  0  0  0  0
  129.8160  124.5950   64.6830 S   0  0  0  0  0  0  0  0  0  0  0  0
  129.3140  125.9410   65.6790 C   0  0  0  0  0  0  0  0  0  0  0  0
  129.5240  125.9490   66.9930 N   0  0  0  0  0  0  0  0  0  0  0  0
  129.1090  127.0430   67.6820 C   0  0  0  0  0  0  0  0  0  0  0  0
  129.3560  127.0220   69.1630 C   0  0  0  0  0  0  0  0  0  0  0  0
  128.5410  126.2590   70.0160 C   0  0  0  0  0  0  0  0  0  0  0  0
  128.7640  126.2370   71.3910 C   0  0  0  0  0  0  0  0  0  0  0  0
  129.8060  126.9790   71.9340 C   0  0  0  0  0  0  0  0  0  0  0  0
  130.6260  127.7460   71.1120 C   0  0  0  0  0  0  0  0  0  0  0  0
  130.4000  127.7670   69.7380 C   0  0  0  0  0  0  0  0  0  0  0  0
  128.4700  128.1150   67.0520 C   0  0  0  0  0  0  0  0  0  0  0  0
  128.2420  128.1160   65.6660 C   0  0  0  0  0  0  0  0  0  0  0  0
  127.5420  129.3270   65.0400 C   0  0  0  0  0  0  0  0  0  0  0  0
  128.0740  129.6940   63.8710 F   0  0  0  0  0  0  0  0  0  0  0  0
  126.2580  129.0440   64.8220 F   0  0  0  0  0  0  0  0  0  0  0  0
  127.6270  130.3730   65.8620 F   0  0  0  0  0  0  0  0  0  0  0  0
  128.6820  126.9780   64.9320 C   0  0  0  0  0  0  0  0  0  0  0  0
  128.6250  126.6260   63.5340 C   0  0  0  0  0  0  0  0  0  0  0  0
  128.0630  127.4440   62.5870 N   0  0  0  0  0  0  0  0  0  0  0  0
  128.5490  122.3760   59.8500 C   0  0  0  0  0  0  0  0  0  0  0  0
  128.2570  121.7530   58.6410 C   0  0  0  0  0  0  0  0  0  0  0  0
  1  2  1  0
  2  3  1  0
  3  4  2  0
  4  5  1  0
  5  6  2  0
  6  7  1  0
  7  8  1  0
  8  9  2  0
  8 10  1  0
 10 11  1  0
 11 12  1  0
 12 13  2  0
 13 14  1  0
 14 15  1  0
 15 16  2  0
 16 17  1  0
 17 18  2  0
 18 19  1  0
 19 20  2  0
 14 21  2  0
 21 22  1  0
 22 23  1  0
 23 24  1  0
 23 25  1  0
 23 26  1  0
 22 27  2  0
 27 28  1  0
 28 29  1  0
  6 30  1  0
 30 31  2  0
 31  3  1  0
 28 10  2  0
 27 12  1  0
 20 15  1  0
M  END
>  <Binding energies>  (32) 
[-7.81]

>  <Ligand effiencies>  (32) 
[-0.22970588235294118]

>  <Interactions>  (32) 
["H-A:GLU:543:OE2:4907, V-A:GLU:543:CD:4905, V-A:GLY:544:C:4909, V-A:HIS:456:CE1:4066, V-A:GLU:543:C:4899, V-A:GLU:543:CB:4903, V-A:HIS:456:CD2:4064, V-B:GLU:543:CB:9875, V-B:HIS:456:CE1:9038, V-B:TYR:539:CE1:9844, V-B:MET:535:CE:9804, V-B:PRO:540:CA:9852, V-B:TYR:539:CZ:9846, H-B:ASP:366:OD1:8182, V-B:PRO:540:N:9853, H-B:TYR:539:N:9839, H-B:GLU:543:OE2:9879, H-B:GLU:543:OE1:9878, V-B:GLU:543:CD:9877, V-B:GLU:543:CG:9876, V-B:TYR:539:CE2:9845, V-A:GLU:543:CG:4904, V-B:ILE:538:CG2:9832, V-B:ILE:538:CB:9831, V-B:TYR:539:C:9836, V-B:TYR:539:CD2:9843, V-B:ILE:538:CA:9829, V-B:TYR:539:CD1:9842, V-B:TYR:539:CG:9841, V-B:TYR:484:CE1:9313, V-B:TYR:539:CA:9838, V-B:TYR:484:CZ:9315"]

$$$$
4ce_Grossjean_2025
     RDKit          3D

 30 33  0  0  0  0  0  0  0  0999 V2000
  128.1650  126.3120   70.5950 C   0  0  0  0  0  0  0  0  0  0  0  0
  129.0140  126.7240   69.4070 C   0  0  0  0  0  0  0  0  0  0  0  0
  129.9500  127.7570   69.5010 C   0  0  0  0  0  0  0  0  0  0  0  0
  130.7020  128.0770   68.3700 C   0  0  0  0  0  0  0  0  0  0  0  0
  130.5030  127.3640   67.1860 C   0  0  0  0  0  0  0  0  0  0  0  0
  129.5450  126.3440   67.1590 C   0  0  0  0  0  0  0  0  0  0  0  0
  129.4080  125.6470   65.9450 N   0  0  0  0  0  0  0  0  0  0  0  0
  130.3790  125.1580   65.1330 C   0  0  0  0  0  0  0  0  0  0  0  0
  131.5840  125.2510   65.3740 O   0  0  0  0  0  0  0  0  0  0  0  0
  129.9060  124.4910   63.9180 C   0  0  0  0  0  0  0  0  0  0  0  0
  128.8720  125.3510   62.7800 S   0  0  0  0  0  0  0  0  0  0  0  0
  128.8260  123.9710   61.7090 C   0  0  0  0  0  0  0  0  0  0  0  0
  128.1450  124.0020   60.5660 N   0  0  0  0  0  0  0  0  0  0  0  0
  128.1810  122.8860   59.7920 C   0  0  0  0  0  0  0  0  0  0  0  0
  127.4090  122.9550   58.5080 C   0  0  0  0  0  0  0  0  0  0  0  0
  126.1130  123.4970   58.4790 C   0  0  0  0  0  0  0  0  0  0  0  0
  125.3880  123.5580   57.2920 C   0  0  0  0  0  0  0  0  0  0  0  0
  125.9510  123.0790   56.1140 C   0  0  0  0  0  0  0  0  0  0  0  0
  127.2310  122.5370   56.1150 C   0  0  0  0  0  0  0  0  0  0  0  0
  127.9530  122.4750   57.3040 C   0  0  0  0  0  0  0  0  0  0  0  0
  128.8810  121.7380   60.1790 C   0  0  0  0  0  0  0  0  0  0  0  0
  129.5970  121.6940   61.3860 C   0  0  0  0  0  0  0  0  0  0  0  0
  130.3430  120.4050   61.7480 C   0  0  0  0  0  0  0  0  0  0  0  0
  129.9690  119.3580   61.0120 F   0  0  0  0  0  0  0  0  0  0  0  0
  131.6530  120.5760   61.5630 F   0  0  0  0  0  0  0  0  0  0  0  0
  130.1170  120.0970   63.0250 F   0  0  0  0  0  0  0  0  0  0  0  0
  129.5800  122.8640   62.1980 C   0  0  0  0  0  0  0  0  0  0  0  0
  130.1860  123.1900   63.4660 C   0  0  0  0  0  0  0  0  0  0  0  0
  130.9670  122.3060   64.1640 N   0  0  0  0  0  0  0  0  0  0  0  0
  128.8090  126.0220   68.2620 N   0  0  0  0  0  0  0  0  0  0  0  0
  1  2  1  0
  2  3  2  0
  3  4  1  0
  4  5  2  0
  5  6  1  0
  6  7  1  0
  7  8  1  0
  8  9  2  0
  8 10  1  0
 10 11  1  0
 11 12  1  0
 12 13  2  0
 13 14  1  0
 14 15  1  0
 15 16  2  0
 16 17  1  0
 17 18  2  0
 18 19  1  0
 19 20  2  0
 14 21  2  0
 21 22  1  0
 22 23  1  0
 23 24  1  0
 23 25  1  0
 23 26  1  0
 22 27  2  0
 27 28  1  0
 28 29  1  0
  6 30  2  0
 30  2  1  0
 28 10  2  0
 27 12  1  0
 20 15  1  0
M  END
>  <Binding energies>  (33) 
[-7.86]

>  <Ligand effiencies>  (33) 
[-0.2381818181818182]

>  <Interactions>  (33) 
["V-A:GLU:543:CD:4905, V-A:HIS:456:CE1:4066, V-A:GLU:543:C:4899, V-A:GLU:543:CB:4903, V-B:GLU:543:CB:9875, V-B:GLY:544:C:9881, V-B:TYR:539:CE1:9844, V-B:MET:535:CE:9804, V-B:PRO:540:CA:9852, V-B:TYR:539:CZ:9846, V-B:PRO:540:N:9853, V-B:PRO:540:CB:9854, V-B:LEU:363:CD1:8157, V-B:ALA:541:CB:9861, H-B:GLU:543:OE2:9879, H-B:GLU:543:OE1:9878, V-B:GLU:543:CD:9877, V-B:GLU:543:CG:9876, V-A:TYR:484:CZ:4343, V-B:TYR:539:CE2:9845, V-A:TYR:484:CE1:4341, V-B:ILE:538:CG2:9832, V-B:ILE:538:CB:9831, V-A:LEU:475:CD1:4254, V-B:TYR:539:C:9836, V-B:TYR:539:CD2:9843, V-B:ILE:538:CA:9829, V-B:TYR:539:CD1:9842, V-B:TYR:539:CG:9841, H-A:TYR:484:OH:4344, V-A:PRO:482:CG:4323, V-A:TRP:381:CH2:3368, V-A:LEU:475:CD2:4255, V-A:LEU:475:CG:4253, V-A:PRO:482:CB:4322"]

$$$$
4cf_Grossjean_2025
     RDKit          3D

 29 32  0  0  0  0  0  0  0  0999 V2000
  130.9940  122.2810   64.1100 N   0  0  0  0  0  0  0  0  0  0  0  0
  130.2320  123.1870   63.4180 C   0  0  0  0  0  0  0  0  0  0  0  0
  130.0080  124.5010   63.8600 C   0  0  0  0  0  0  0  0  0  0  0  0
  130.4740  125.1420   65.0930 C   0  0  0  0  0  0  0  0  0  0  0  0
  131.6640  125.1030   65.4090 O   0  0  0  0  0  0  0  0  0  0  0  0
  129.5160  125.7680   65.8200 N   0  0  0  0  0  0  0  0  0  0  0  0
  129.6170  126.4270   67.0600 C   0  0  0  0  0  0  0  0  0  0  0  0
  128.7710  126.2190   68.1660 C   0  0  0  0  0  0  0  0  0  0  0  0
  128.9730  126.9540   69.3370 C   0  0  0  0  0  0  0  0  0  0  0  0
  130.0140  127.8810   69.3730 C   0  0  0  0  0  0  0  0  0  0  0  0
  130.8380  128.1060   68.3190 N   0  0  0  0  0  0  0  0  0  0  0  0
  130.6290  127.3850   67.1870 C   0  0  0  0  0  0  0  0  0  0  0  0
  128.9920  125.3890   62.7270 S   0  0  0  0  0  0  0  0  0  0  0  0
  128.8690  123.9970   61.6770 C   0  0  0  0  0  0  0  0  0  0  0  0
  128.1600  124.0370   60.5500 N   0  0  0  0  0  0  0  0  0  0  0  0
  128.1110  122.8990   59.8080 C   0  0  0  0  0  0  0  0  0  0  0  0
  127.2990  122.9710   58.5480 C   0  0  0  0  0  0  0  0  0  0  0  0
  127.7880  122.4330   57.3480 C   0  0  0  0  0  0  0  0  0  0  0  0
  127.0410  122.4950   56.1740 C   0  0  0  0  0  0  0  0  0  0  0  0
  125.7870  123.0970   56.1870 C   0  0  0  0  0  0  0  0  0  0  0  0
  125.2760  123.6360   57.3630 C   0  0  0  0  0  0  0  0  0  0  0  0
  126.0270  123.5710   58.5330 C   0  0  0  0  0  0  0  0  0  0  0  0
  128.7900  121.7380   60.1880 C   0  0  0  0  0  0  0  0  0  0  0  0
  129.5430  121.6870   61.3710 C   0  0  0  0  0  0  0  0  0  0  0  0
  130.2600  120.3800   61.7300 C   0  0  0  0  0  0  0  0  0  0  0  0
  130.1270  120.0450   63.0150 F   0  0  0  0  0  0  0  0  0  0  0  0
  129.7620  119.3790   61.0040 F   0  0  0  0  0  0  0  0  0  0  0  0
  131.5640  120.4970   61.4820 F   0  0  0  0  0  0  0  0  0  0  0  0
  129.5890  122.8690   62.1670 C   0  0  0  0  0  0  0  0  0  0  0  0
  1  2  1  0
  2  3  2  0
  3  4  1  0
  4  5  2  0
  4  6  1  0
  6  7  1  0
  7  8  2  0
  8  9  1  0
  9 10  2  0
 10 11  1  0
 11 12  2  0
  3 13  1  0
 13 14  1  0
 14 15  2  0
 15 16  1  0
 16 17  1  0
 17 18  2  0
 18 19  1  0
 19 20  2  0
 20 21  1  0
 21 22  2  0
 16 23  2  0
 23 24  1  0
 24 25  1  0
 25 26  1  0
 25 27  1  0
 25 28  1  0
 24 29  2  0
 29  2  1  0
 12  7  1  0
 29 14  1  0
 22 17  1  0
M  END
>  <Binding energies>  (34) 
[-7.42]

>  <Ligand effiencies>  (34) 
[-0.231875]

>  <Interactions>  (34) 
["V-A:GLU:543:CD:4905, V-A:HIS:456:CE1:4066, V-A:GLU:543:C:4899, V-A:GLU:543:CB:4903, V-B:GLU:543:CB:9875, V-B:HIS:456:CE1:9038, V-B:TYR:539:CE1:9844, V-B:PRO:540:CA:9852, V-B:TYR:539:CZ:9846, V-B:PRO:540:N:9853, V-B:PRO:540:CB:9854, V-B:LEU:363:CD1:8157, V-B:ALA:541:CB:9861, H-B:GLU:543:OE2:9879, H-B:GLU:543:OE1:9878, V-B:GLU:543:CD:9877, V-B:GLU:543:CG:9876, V-A:TYR:484:CZ:4343, V-B:TYR:539:CE2:9845, V-A:TYR:484:CE1:4341, V-B:ILE:538:CB:9831, V-A:LEU:475:CD1:4254, V-B:TYR:539:C:9836, V-B:TYR:539:CD2:9843, V-B:ILE:538:CA:9829, V-B:TYR:539:CD1:9842, V-B:TYR:539:CG:9841, H-A:TYR:484:OH:4344, V-A:PRO:482:CG:4323, V-A:LEU:475:CD2:4255, V-A:LEU:475:CG:4253, V-A:PRO:482:CB:4322"]

$$$$
4ci_Grossjean_2025
     RDKit          3D

 28 31  0  0  0  0  0  0  0  0999 V2000
  131.8230  123.4470   59.8970 N   0  0  0  0  0  0  0  0  0  0  0  0
  130.7490  123.8970   60.6200 C   0  0  0  0  0  0  0  0  0  0  0  0
  129.4430  123.9530   60.1050 C   0  0  0  0  0  0  0  0  0  0  0  0
  128.9690  123.5580   58.7760 C   0  0  0  0  0  0  0  0  0  0  0  0
  129.7190  123.6130   57.7980 O   0  0  0  0  0  0  0  0  0  0  0  0
  127.6750  123.1550   58.7140 N   0  0  0  0  0  0  0  0  0  0  0  0
  126.9730  122.7340   57.5920 C   0  0  0  0  0  0  0  0  0  0  0  0
  125.7060  123.2140   57.2600 C   0  0  0  0  0  0  0  0  0  0  0  0
  125.3660  122.5570   56.1000 C   0  0  0  0  0  0  0  0  0  0  0  0
  126.3770  121.7250   55.7510 O   0  0  0  0  0  0  0  0  0  0  0  0
  127.3890  121.8460   56.7040 N   0  0  0  0  0  0  0  0  0  0  0  0
  128.3110  124.5700   61.3050 S   0  0  0  0  0  0  0  0  0  0  0  0
  129.5900  124.7560   62.4820 C   0  0  0  0  0  0  0  0  0  0  0  0
  129.3480  125.2260   63.7040 N   0  0  0  0  0  0  0  0  0  0  0  0
  130.4050  125.3320   64.5510 C   0  0  0  0  0  0  0  0  0  0  0  0
  130.1010  125.8690   65.9200 C   0  0  0  0  0  0  0  0  0  0  0  0
  130.5160  127.1570   66.2980 C   0  0  0  0  0  0  0  0  0  0  0  0
  130.2360  127.6600   67.5660 C   0  0  0  0  0  0  0  0  0  0  0  0
  129.5360  126.8790   68.4780 C   0  0  0  0  0  0  0  0  0  0  0  0
  129.1170  125.6000   68.1340 C   0  0  0  0  0  0  0  0  0  0  0  0
  129.3990  125.1000   66.8650 C   0  0  0  0  0  0  0  0  0  0  0  0
  131.7010  124.9840   64.1590 C   0  0  0  0  0  0  0  0  0  0  0  0
  131.9680  124.4870   62.8730 C   0  0  0  0  0  0  0  0  0  0  0  0
  133.4130  124.1250   62.5120 C   0  0  0  0  0  0  0  0  0  0  0  0
  133.7100  124.3670   61.2340 F   0  0  0  0  0  0  0  0  0  0  0  0
  134.2560  124.8380   63.2590 F   0  0  0  0  0  0  0  0  0  0  0  0
  133.6210  122.8260   62.7320 F   0  0  0  0  0  0  0  0  0  0  0  0
  130.8650  124.3600   61.9820 C   0  0  0  0  0  0  0  0  0  0  0  0
  1  2  1  0
  2  3  2  0
  3  4  1  0
  4  5  2  0
  4  6  1  0
  6  7  1  0
  7  8  1  0
  8  9  2  0
  9 10  1  0
 10 11  1  0
  3 12  1  0
 12 13  1  0
 13 14  2  0
 14 15  1  0
 15 16  1  0
 16 17  2  0
 17 18  1  0
 18 19  2  0
 19 20  1  0
 20 21  2  0
 15 22  2  0
 22 23  1  0
 23 24  1  0
 24 25  1  0
 24 26  1  0
 24 27  1  0
 23 28  2  0
 28  2  1  0
 11  7  2  0
 28 13  1  0
 21 16  1  0
M  END
>  <Binding energies>  (35) 
[-7.37]

>  <Ligand effiencies>  (35) 
[-0.23774193548387096]

>  <Interactions>  (35) 
["V-A:ASP:366:CB:3208, V-A:ASP:366:CG:3209, V-A:GLU:543:CD:4905, V-B:GLU:543:C:9871, V-A:HIS:456:CE1:4066, V-A:GLU:543:CB:4903, V-B:GLU:543:CB:9875, V-B:PRO:540:CA:9852, V-B:TYR:539:CZ:9846, V-B:PRO:540:N:9853, V-B:PRO:540:CB:9854, H-B:TYR:539:N:9839, V-B:LEU:363:CD1:8157, H-B:TYR:539:OH:9847, V-B:GLU:543:CD:9877, V-B:GLU:543:CG:9876, V-A:ARG:545:CZ:4923, V-B:TYR:539:CE2:9845, V-A:TYR:484:CE1:4341, V-B:GLU:543:CA:9873, V-B:ILE:538:CG2:9832, V-B:ILE:538:CB:9831, V-A:LEU:475:CD1:4254, V-B:PRO:540:CD:9856, V-B:TYR:539:C:9836, V-A:GLY:454:CA:4045, V-A:GLY:453:C:4038, V-A:GLY:453:CA:4040"]

$$$$
8a_Ghoteimi_2023
     RDKit          3D

 40 44  0  0  0  0  0  0  0  0999 V2000
  124.8360  123.2470   57.1100 C   0  0  0  0  0  0  0  0  0  0  0  0
  125.2400  122.5610   55.8030 C   0  0  0  0  0  0  0  0  0  0  0  0
  126.3770  121.7380   56.0320 O   0  0  0  0  0  0  0  0  0  0  0  0
  127.6190  122.2780   56.1590 C   0  0  0  0  0  0  0  0  0  0  0  0
  128.4930  122.1800   55.2920 O   0  0  0  0  0  0  0  0  0  0  0  0
  127.8230  122.9990   57.4600 C   0  0  0  0  0  0  0  0  0  0  0  0
  128.0100  122.2550   58.6310 C   0  0  0  0  0  0  0  0  0  0  0  0
  128.2000  122.8940   59.8530 C   0  0  0  0  0  0  0  0  0  0  0  0
  128.2070  124.2880   59.9310 C   0  0  0  0  0  0  0  0  0  0  0  0
  128.4030  124.8240   61.2190 N   0  0  0  0  0  0  0  0  0  0  0  0
  129.5450  125.1890   61.8520 C   0  0  0  0  0  0  0  0  0  0  0  0
  130.6700  125.0980   61.3610 O   0  0  0  0  0  0  0  0  0  0  0  0
  129.3650  125.7250   63.2050 C   0  0  0  0  0  0  0  0  0  0  0  0
  130.2030  124.9930   64.5720 S   0  0  0  0  0  0  0  0  0  0  0  0
  129.4790  126.1300   65.6850 C   0  0  0  0  0  0  0  0  0  0  0  0
  129.7220  126.0790   66.9950 N   0  0  0  0  0  0  0  0  0  0  0  0
  129.1030  127.0070   67.7730 C   0  0  0  0  0  0  0  0  0  0  0  0
  129.3740  126.9190   69.2410 C   0  0  0  0  0  0  0  0  0  0  0  0
  128.6510  126.0380   70.0580 C   0  0  0  0  0  0  0  0  0  0  0  0
  128.9000  125.9690   71.4260 C   0  0  0  0  0  0  0  0  0  0  0  0
  129.8750  126.7740   72.0100 C   0  0  0  0  0  0  0  0  0  0  0  0
  130.0520  126.6400   73.3750 O   0  0  0  0  0  0  0  0  0  0  0  0
  130.5320  125.4040   73.8930 C   0  0  0  0  0  0  0  0  0  0  0  0
  130.6070  127.6540   71.2010 C   0  0  0  0  0  0  0  0  0  0  0  0
  130.3550  127.7230   69.8330 C   0  0  0  0  0  0  0  0  0  0  0  0
  128.2550  127.9810   67.2420 C   0  0  0  0  0  0  0  0  0  0  0  0
  128.0100  128.0480   65.8660 C   0  0  0  0  0  0  0  0  0  0  0  0
  127.1250  129.1230   65.3500 C   0  0  0  0  0  0  0  0  0  0  0  0
  125.7440  128.9260   65.2840 C   0  0  0  0  0  0  0  0  0  0  0  0
  124.9100  129.9390   64.8210 C   0  0  0  0  0  0  0  0  0  0  0  0
  125.4380  131.1670   64.4200 C   0  0  0  0  0  0  0  0  0  0  0  0
  124.5350  132.1120   63.9750 O   0  0  0  0  0  0  0  0  0  0  0  0
  124.1260  132.0940   62.6130 C   0  0  0  0  0  0  0  0  0  0  0  0
  126.8250  131.3690   64.4920 C   0  0  0  0  0  0  0  0  0  0  0  0
  127.6580  130.3550   64.9580 C   0  0  0  0  0  0  0  0  0  0  0  0
  128.6300  127.0730   65.0340 C   0  0  0  0  0  0  0  0  0  0  0  0
  128.5690  126.8050   63.6180 C   0  0  0  0  0  0  0  0  0  0  0  0
  127.7850  127.5380   62.7630 N   0  0  0  0  0  0  0  0  0  0  0  0
  128.0250  125.0410   58.7610 C   0  0  0  0  0  0  0  0  0  0  0  0
  127.8340  124.4000   57.5400 C   0  0  0  0  0  0  0  0  0  0  0  0
  1  2  1  0
  2  3  1  0
  3  4  1  0
  4  5  2  0
  4  6  1  0
  6  7  2  0
  7  8  1  0
  8  9  2  0
  9 10  1  0
 10 11  1  0
 11 12  2  0
 11 13  1  0
 13 14  1  0
 14 15  1  0
 15 16  2  0
 16 17  1  0
 17 18  1  0
 18 19  2  0
 19 20  1  0
 20 21  2  0
 21 22  1  0
 22 23  1  0
 21 24  1  0
 24 25  2  0
 17 26  2  0
 26 27  1  0
 27 28  1  0
 28 29  2  0
 29 30  1  0
 30 31  2  0
 31 32  1  0
 32 33  1  0
 31 34  1  0
 34 35  2  0
 27 36  2  0
 36 37  1  0
 37 38  1  0
  9 39  1  0
 39 40  2  0
 40  6  1  0
 37 13  2  0
 36 15  1  0
 25 18  1  0
 35 28  1  0
M  END
>  <Binding energies>  (36) 
[-10.52]

>  <Ligand effiencies>  (36) 
[-0.24465116279069765]

>  <Interactions>  (36) 
["H-A:GLU:543:OE2:4907, V-A:GLU:543:CD:4905, V-B:GLU:543:C:9871, V-B:LYS:547:CE:9919, H-A:LYS:547:NZ:4948, V-A:GLY:544:C:4909, V-A:HIS:456:CE1:4066, V-A:HIS:456:CD2:4064, V-B:GLU:543:CB:9875, V-B:HIS:456:CE1:9038, V-B:TYR:539:CE1:9844, V-B:MET:535:CE:9804, V-B:PRO:540:CA:9852, V-B:TYR:539:CZ:9846, H-B:ASP:366:OD1:8182, V-B:PRO:540:N:9853, V-B:PRO:540:CB:9854, H-B:TYR:539:N:9839, V-B:LEU:363:CD1:8157, H-B:GLU:543:OE2:9879, H-B:GLU:543:OE1:9878, V-B:GLU:543:CD:9877, V-B:GLU:543:CG:9876, V-B:TYR:539:CE2:9845, V-A:GLU:543:CG:4904, V-B:ILE:538:CG2:9832, V-B:ILE:538:CB:9831, V-B:PRO:540:CD:9856, V-B:TYR:539:C:9836, V-B:TYR:539:CD2:9843, V-B:ILE:369:CD1:8207, V-B:ILE:538:CA:9829, V-B:TYR:539:CD1:9842, V-B:ARG:545:CZ:9895, H-B:TYR:484:OH:9316, H-B:GLY:454:N:9018, V-B:GLY:454:CA:9017"]

$$$$
8c_Ghoteimi_2023
     RDKit          3D

 34 38  0  0  0  0  0  0  0  0999 V2000
  124.0380  133.6970   62.0260 C   0  0  0  0  0  0  0  0  0  0  0  0
  124.1440  133.3610   63.4050 O   0  0  0  0  0  0  0  0  0  0  0  0
  125.0350  132.3780   63.7930 C   0  0  0  0  0  0  0  0  0  0  0  0
  124.6150  131.0590   63.6370 C   0  0  0  0  0  0  0  0  0  0  0  0
  125.4450  130.0040   64.0040 C   0  0  0  0  0  0  0  0  0  0  0  0
  126.7200  130.2420   64.5370 C   0  0  0  0  0  0  0  0  0  0  0  0
  127.6160  129.1120   64.9360 C   0  0  0  0  0  0  0  0  0  0  0  0
  127.8710  128.8130   66.2780 C   0  0  0  0  0  0  0  0  0  0  0  0
  128.7110  127.7500   66.6250 C   0  0  0  0  0  0  0  0  0  0  0  0
  128.9680  127.4650   68.0540 C   0  0  0  0  0  0  0  0  0  0  0  0
  130.0720  128.0300   68.6970 C   0  0  0  0  0  0  0  0  0  0  0  0
  130.3070  127.7690   70.0440 C   0  0  0  0  0  0  0  0  0  0  0  0
  129.4480  126.9400   70.7660 C   0  0  0  0  0  0  0  0  0  0  0  0
  129.7580  126.7400   72.0980 O   0  0  0  0  0  0  0  0  0  0  0  0
  129.7360  125.4180   72.6250 C   0  0  0  0  0  0  0  0  0  0  0  0
  128.3410  126.3690   70.1180 C   0  0  0  0  0  0  0  0  0  0  0  0
  128.1070  126.6320   68.7710 C   0  0  0  0  0  0  0  0  0  0  0  0
  129.2870  126.9840   65.5760 C   0  0  0  0  0  0  0  0  0  0  0  0
  130.1720  125.8490   65.5690 C   0  0  0  0  0  0  0  0  0  0  0  0
  130.6400  125.2750   66.7240 N   0  0  0  0  0  0  0  0  0  0  0  0
  130.5030  125.3930   64.2830 C   0  0  0  0  0  0  0  0  0  0  0  0
  131.3650  124.2710   63.9070 C   0  0  0  0  0  0  0  0  0  0  0  0
  131.4700  123.2840   64.6380 O   0  0  0  0  0  0  0  0  0  0  0  0
  132.0170  124.4090   62.7260 N   0  0  0  0  0  0  0  0  0  0  0  0
  132.8860  123.4990   62.1410 C   0  0  0  0  0  0  0  0  0  0  0  0
  134.1850  123.6170   61.9690 N   0  0  0  0  0  0  0  0  0  0  0  0
  134.6940  122.5540   61.3780 C   0  0  0  0  0  0  0  0  0  0  0  0
  133.7980  121.5400   61.0560 C   0  0  0  0  0  0  0  0  0  0  0  0
  132.2030  122.0160   61.5570 S   0  0  0  0  0  0  0  0  0  0  0  0
  129.7150  126.3670   63.0400 S   0  0  0  0  0  0  0  0  0  0  0  0
  128.9530  127.3760   64.2470 C   0  0  0  0  0  0  0  0  0  0  0  0
  128.1540  128.3910   63.9160 N   0  0  0  0  0  0  0  0  0  0  0  0
  127.1370  131.5720   64.6880 C   0  0  0  0  0  0  0  0  0  0  0  0
  126.3090  132.6290   64.3230 C   0  0  0  0  0  0  0  0  0  0  0  0
  1  2  1  0
  2  3  1  0
  3  4  2  0
  4  5  1  0
  5  6  2  0
  6  7  1  0
  7  8  2  0
  8  9  1  0
  9 10  1  0
 10 11  2  0
 11 12  1  0
 12 13  2  0
 13 14  1  0
 14 15  1  0
 13 16  1  0
 16 17  2  0
  9 18  2  0
 18 19  1  0
 19 20  1  0
 19 21  2  0
 21 22  1  0
 22 23  2  0
 22 24  1  0
 24 25  1  0
 25 26  2  0
 26 27  1  0
 27 28  2  0
 28 29  1  0
 21 30  1  0
 30 31  1  0
 31 32  2  0
  6 33  1  0
 33 34  2  0
 34  3  1  0
 32  7  1  0
 17 10  1  0
 31 18  1  0
 29 25  1  0
M  END
>  <Binding energies>  (37) 
[-8.67]

>  <Ligand effiencies>  (37) 
[-0.23432432432432432]

>  <Interactions>  (37) 
["H-A:ASP:366:OD1:3210, V-A:GLU:543:CD:4905, V-B:LEU:475:CD2:9227, V-B:LYS:547:CE:9919, H-A:LYS:547:NZ:4948, V-A:HIS:456:CE1:4066, V-A:GLU:543:C:4899, V-A:GLU:543:CB:4903, V-A:HIS:456:CD2:4064, V-B:GLU:543:CB:9875, V-B:HIS:456:CE1:9038, V-B:ILE:369:CG2:8205, V-B:GLU:543:CD:9877, V-A:TYR:484:CZ:4343, V-B:TYR:539:CE2:9845, V-A:TYR:484:CE1:4341, V-A:GLU:543:CG:4904, V-A:LEU:475:CD1:4254, V-A:ILE:369:CG1:3234, V-A:ILE:369:CB:3232, V-B:ILE:369:CD1:8207, H-A:GLY:454:N:4046, H-A:ASP:366:OD2:3211, V-A:ILE:369:CG2:3233, V-A:GLY:454:CA:4045, V-A:GLY:453:C:4038, H-A:TYR:484:OH:4344, H-B:GLY:454:N:9018, V-B:GLY:454:CA:9017, V-B:TYR:484:CE1:9313, V-B:TYR:484:CZ:9315, H-A:HIS:456:NE2:4067"]

$$$$
8d_Ghoteimi_2023
     RDKit          3D

 30 33  0  0  0  0  0  0  0  0999 V2000
  133.0260  124.8740   64.6350 C   0  0  0  0  0  0  0  0  0  0  0  0
  132.1930  123.7270   64.7320 O   0  0  0  0  0  0  0  0  0  0  0  0
  130.9310  123.7380   64.2280 C   0  0  0  0  0  0  0  0  0  0  0  0
  130.4540  122.8300   63.5440 O   0  0  0  0  0  0  0  0  0  0  0  0
  130.1790  124.9610   64.5850 C   0  0  0  0  0  0  0  0  0  0  0  0
  129.3930  125.9110   63.3230 S   0  0  0  0  0  0  0  0  0  0  0  0
  128.8010  127.0590   64.5010 C   0  0  0  0  0  0  0  0  0  0  0  0
  128.0670  128.1140   64.1480 N   0  0  0  0  0  0  0  0  0  0  0  0
  127.6560  128.9440   65.1450 C   0  0  0  0  0  0  0  0  0  0  0  0
  126.8380  130.1220   64.7210 C   0  0  0  0  0  0  0  0  0  0  0  0
  125.5260  129.9630   64.2530 C   0  0  0  0  0  0  0  0  0  0  0  0
  124.7690  131.0630   63.8600 C   0  0  0  0  0  0  0  0  0  0  0  0
  125.3030  132.3490   63.9220 C   0  0  0  0  0  0  0  0  0  0  0  0
  124.4800  133.3800   63.5120 O   0  0  0  0  0  0  0  0  0  0  0  0
  124.0920  133.4570   62.1440 C   0  0  0  0  0  0  0  0  0  0  0  0
  126.6130  132.5210   64.3900 C   0  0  0  0  0  0  0  0  0  0  0  0
  127.3670  131.4180   64.7830 C   0  0  0  0  0  0  0  0  0  0  0  0
  127.9860  128.7210   66.4850 C   0  0  0  0  0  0  0  0  0  0  0  0
  128.7540  127.6130   66.8550 C   0  0  0  0  0  0  0  0  0  0  0  0
  129.0790  127.3990   68.2850 C   0  0  0  0  0  0  0  0  0  0  0  0
  130.2300  127.9670   68.8350 C   0  0  0  0  0  0  0  0  0  0  0  0
  130.5400  127.7590   70.1760 C   0  0  0  0  0  0  0  0  0  0  0  0
  129.7070  126.9860   70.9860 C   0  0  0  0  0  0  0  0  0  0  0  0
  130.0940  126.8330   72.3020 O   0  0  0  0  0  0  0  0  0  0  0  0
  129.8580  125.5920   72.9560 C   0  0  0  0  0  0  0  0  0  0  0  0
  128.5470  126.4190   70.4300 C   0  0  0  0  0  0  0  0  0  0  0  0
  128.2390  126.6280   69.0890 C   0  0  0  0  0  0  0  0  0  0  0  0
  129.1910  126.7310   65.8310 C   0  0  0  0  0  0  0  0  0  0  0  0
  129.9770  125.5290   65.8490 C   0  0  0  0  0  0  0  0  0  0  0  0
  130.4850  124.9950   67.0060 N   0  0  0  0  0  0  0  0  0  0  0  0
  1  2  1  0
  2  3  1  0
  3  4  2  0
  3  5  1  0
  5  6  1  0
  6  7  1  0
  7  8  2  0
  8  9  1  0
  9 10  1  0
 10 11  2  0
 11 12  1  0
 12 13  2  0
 13 14  1  0
 14 15  1  0
 13 16  1  0
 16 17  2  0
  9 18  2  0
 18 19  1  0
 19 20  1  0
 20 21  2  0
 21 22  1  0
 22 23  2  0
 23 24  1  0
 24 25  1  0
 23 26  1  0
 26 27  2  0
 19 28  2  0
 28 29  1  0
 29 30  1  0
 29  5  2  0
 28  7  1  0
 17 10  1  0
 27 20  1  0
M  END
>  <Binding energies>  (38) 
[-7.41]

>  <Ligand effiencies>  (38) 
[-0.2315625]

>  <Interactions>  (38) 
["V-A:GLU:543:CD:4905, V-B:LEU:475:CD2:9227, V-B:LYS:547:CE:9919, H-A:LYS:547:NZ:4948, V-A:GLY:544:C:4909, V-A:HIS:456:CE1:4066, V-A:GLU:543:C:4899, V-A:GLU:543:CB:4903, V-A:HIS:456:CD2:4064, V-B:HIS:456:CE1:9038, V-B:GLU:543:CD:9877, V-B:GLU:543:CG:9876, V-A:ARG:545:CZ:4923, V-A:TYR:484:CZ:4343, V-A:TYR:484:CE1:4341, V-A:GLU:543:CG:4904, V-B:ILE:369:CD1:8207, H-A:TYR:484:OH:4344, H-B:GLY:454:N:9018, V-B:GLY:454:CA:9017, V-B:TYR:484:CE1:9313, V-B:TYR:484:CZ:9315, H-A:HIS:456:NE2:4067, H-B:GLU:543:O:9872"]

$$$$
9a_Ghoteimi_2023
     RDKit          3D

 48 54  0  0  0  0  0  0  0  0999 V2000
  130.8710  123.9950   54.7580 C   0  0  0  0  0  0  0  0  0  0  0  0
  129.4040  124.0630   55.1950 C   0  0  0  0  0  0  0  0  0  0  0  0
  128.8400  122.7580   55.1650 O   0  0  0  0  0  0  0  0  0  0  0  0
  127.8180  122.4170   55.9910 C   0  0  0  0  0  0  0  0  0  0  0  0
  126.8300  121.7730   55.6210 O   0  0  0  0  0  0  0  0  0  0  0  0
  128.0030  122.9060   57.3980 C   0  0  0  0  0  0  0  0  0  0  0  0
  127.6830  124.2330   57.7100 C   0  0  0  0  0  0  0  0  0  0  0  0
  127.8450  124.7170   59.0050 C   0  0  0  0  0  0  0  0  0  0  0  0
  128.3290  123.8860   60.0150 C   0  0  0  0  0  0  0  0  0  0  0  0
  128.4520  124.4820   61.2850 N   0  0  0  0  0  0  0  0  0  0  0  0
  129.5490  124.6870   62.0560 C   0  0  0  0  0  0  0  0  0  0  0  0
  130.6910  124.3590   61.7360 O   0  0  0  0  0  0  0  0  0  0  0  0
  129.2970  125.3530   63.3380 C   0  0  0  0  0  0  0  0  0  0  0  0
  129.7350  124.5630   64.8530 S   0  0  0  0  0  0  0  0  0  0  0  0
  129.1580  125.9260   65.7830 C   0  0  0  0  0  0  0  0  0  0  0  0
  129.2380  125.9480   67.1130 N   0  0  0  0  0  0  0  0  0  0  0  0
  128.7720  127.0600   67.7400 C   0  0  0  0  0  0  0  0  0  0  0  0
  128.8820  127.0680   69.2310 C   0  0  0  0  0  0  0  0  0  0  0  0
  127.9520  126.3780   70.0160 C   0  0  0  0  0  0  0  0  0  0  0  0
  128.0480  126.3800   71.4050 C   0  0  0  0  0  0  0  0  0  0  0  0
  129.0860  127.0600   72.0600 C   0  0  0  0  0  0  0  0  0  0  0  0
  129.1840  127.0860   73.4550 N   0  0  0  0  0  0  0  0  0  0  0  0
  128.1450  127.7200   74.2910 C   0  0  0  0  0  0  0  0  0  0  0  0
  128.5850  127.9750   75.7480 C   0  0  0  0  0  0  0  0  0  0  0  0
  129.0440  126.7690   76.3350 O   0  0  0  0  0  0  0  0  0  0  0  0
  130.1550  126.2370   75.6300 C   0  0  0  0  0  0  0  0  0  0  0  0
  129.7550  125.9270   74.1730 C   0  0  0  0  0  0  0  0  0  0  0  0
  130.0070  127.7620   71.2690 C   0  0  0  0  0  0  0  0  0  0  0  0
  129.9090  127.7630   69.8810 C   0  0  0  0  0  0  0  0  0  0  0  0
  128.2040  128.1280   67.0420 C   0  0  0  0  0  0  0  0  0  0  0  0
  128.0990  128.0990   65.6460 C   0  0  0  0  0  0  0  0  0  0  0  0
  127.4540  129.2450   64.9560 C   0  0  0  0  0  0  0  0  0  0  0  0
  127.8690  130.5550   65.2090 C   0  0  0  0  0  0  0  0  0  0  0  0
  127.2730  131.6260   64.5510 C   0  0  0  0  0  0  0  0  0  0  0  0
  126.2550  131.4150   63.6070 C   0  0  0  0  0  0  0  0  0  0  0  0
  125.6340  132.4750   62.9420 N   0  0  0  0  0  0  0  0  0  0  0  0
  124.1590  132.5230   62.8840 C   0  0  0  0  0  0  0  0  0  0  0  0
  123.6090  133.9040   62.4690 C   0  0  0  0  0  0  0  0  0  0  0  0
  124.1780  134.3030   61.2320 O   0  0  0  0  0  0  0  0  0  0  0  0
  125.5910  134.4020   61.3110 C   0  0  0  0  0  0  0  0  0  0  0  0
  126.1940  133.0340   61.6950 C   0  0  0  0  0  0  0  0  0  0  0  0
  125.8480  130.0960   63.3580 C   0  0  0  0  0  0  0  0  0  0  0  0
  126.4420  129.0250   64.0190 C   0  0  0  0  0  0  0  0  0  0  0  0
  128.6150  126.9600   64.9660 C   0  0  0  0  0  0  0  0  0  0  0  0
  128.7290  126.6150   63.5700 C   0  0  0  0  0  0  0  0  0  0  0  0
  128.3300  127.4600   62.5660 N   0  0  0  0  0  0  0  0  0  0  0  0
  128.6490  122.5520   59.7140 C   0  0  0  0  0  0  0  0  0  0  0  0
  128.4870  122.0710   58.4170 C   0  0  0  0  0  0  0  0  0  0  0  0
  1  2  1  0
  2  3  1  0
  3  4  1  0
  4  5  2  0
  4  6  1  0
  6  7  2  0
  7  8  1  0
  8  9  2  0
  9 10  1  0
 10 11  1  0
 11 12  2  0
 11 13  1  0
 13 14  1  0
 14 15  1  0
 15 16  2  0
 16 17  1  0
 17 18  1  0
 18 19  2  0
 19 20  1  0
 20 21  2  0
 21 22  1  0
 22 23  1  0
 23 24  1  0
 24 25  1  0
 25 26  1  0
 26 27  1  0
 21 28  1  0
 28 29  2  0
 17 30  2  0
 30 31  1  0
 31 32  1  0
 32 33  2  0
 33 34  1  0
 34 35  2  0
 35 36  1  0
 36 37  1  0
 37 38  1  0
 38 39  1  0
 39 40  1  0
 40 41  1  0
 35 42  1  0
 42 43  2  0
 31 44  2  0
 44 45  1  0
 45 46  1  0
  9 47  1  0
 47 48  2  0
 48  6  1  0
 45 13  2  0
 44 15  1  0
 29 18  1  0
 43 32  1  0
 27 22  1  0
 41 36  1  0
M  END
>  <Binding energies>  (39) 
[-10.74]

>  <Ligand effiencies>  (39) 
[-0.21058823529411766]

>  <Interactions>  (39) 
["H-A:GLU:543:OE2:4907, V-A:GLU:543:CD:4905, V-B:LEU:475:CD2:9227, V-B:GLU:543:C:9871, V-B:LYS:547:CE:9919, V-A:LYS:547:CE:4947, V-A:HIS:456:CE1:4066, V-A:GLU:543:CB:4903, V-B:GLU:543:CB:9875, V-B:HIS:456:CE1:9038, V-B:GLY:544:C:9881, V-B:TYR:539:CE1:9844, V-B:MET:535:CE:9804, V-B:PRO:540:CA:9852, V-B:TYR:539:CZ:9846, V-B:PRO:540:N:9853, H-B:TYR:539:N:9839, H-B:GLU:543:OE2:9879, V-B:GLU:543:CD:9877, V-B:GLU:543:CG:9876, V-B:TYR:539:CE2:9845, V-A:GLU:543:CG:4904, V-B:TYR:539:C:9836, V-B:TYR:539:CD2:9843, V-B:ILE:369:CD1:8207, V-B:ILE:538:CA:9829, V-B:TYR:539:CD1:9842, V-B:TYR:539:CG:9841, V-B:GLY:454:CA:9017, V-B:TYR:484:CE1:9313"]

$$$$
9b_Ghoteimi_2023
     RDKit          3D

 42 48  0  0  0  0  0  0  0  0999 V2000
  129.2380  127.8990   62.9660 N   0  0  0  0  0  0  0  0  0  0  0  0
  128.6160  128.3110   64.1170 C   0  0  0  0  0  0  0  0  0  0  0  0
  127.6330  129.3110   64.1490 C   0  0  0  0  0  0  0  0  0  0  0  0
  127.0670  130.0730   63.0330 C   0  0  0  0  0  0  0  0  0  0  0  0
  125.9230  129.8480   62.6330 O   0  0  0  0  0  0  0  0  0  0  0  0
  127.8850  131.0120   62.4940 N   0  0  0  0  0  0  0  0  0  0  0  0
  127.6140  131.8610   61.4290 C   0  0  0  0  0  0  0  0  0  0  0  0
  126.9710  131.4420   60.2660 C   0  0  0  0  0  0  0  0  0  0  0  0
  126.8930  132.5650   59.4750 C   0  0  0  0  0  0  0  0  0  0  0  0
  127.4590  133.6070   60.1300 O   0  0  0  0  0  0  0  0  0  0  0  0
  127.9120  133.1490   61.3670 N   0  0  0  0  0  0  0  0  0  0  0  0
  127.0770  129.6060   65.7970 S   0  0  0  0  0  0  0  0  0  0  0  0
  128.1750  128.4040   66.4310 C   0  0  0  0  0  0  0  0  0  0  0  0
  128.2580  128.1530   67.7360 N   0  0  0  0  0  0  0  0  0  0  0  0
  129.1560  127.2110   68.1280 C   0  0  0  0  0  0  0  0  0  0  0  0
  129.2440  126.9640   69.5990 C   0  0  0  0  0  0  0  0  0  0  0  0
  130.1250  127.6950   70.4050 C   0  0  0  0  0  0  0  0  0  0  0  0
  130.2120  127.4510   71.7720 C   0  0  0  0  0  0  0  0  0  0  0  0
  129.4330  126.4560   72.3810 C   0  0  0  0  0  0  0  0  0  0  0  0
  129.5080  126.2000   73.7550 N   0  0  0  0  0  0  0  0  0  0  0  0
  128.9950  127.1670   74.7460 C   0  0  0  0  0  0  0  0  0  0  0  0
  128.8420  126.5830   76.1660 C   0  0  0  0  0  0  0  0  0  0  0  0
  130.0720  126.0220   76.5940 O   0  0  0  0  0  0  0  0  0  0  0  0
  130.4890  124.9710   75.7390 C   0  0  0  0  0  0  0  0  0  0  0  0
  130.6900  125.5020   74.3030 C   0  0  0  0  0  0  0  0  0  0  0  0
  128.5380  125.7400   71.5730 C   0  0  0  0  0  0  0  0  0  0  0  0
  128.4470  125.9880   70.2060 C   0  0  0  0  0  0  0  0  0  0  0  0
  129.9460  126.5080   67.2150 C   0  0  0  0  0  0  0  0  0  0  0  0
  129.8480  126.7540   65.8400 C   0  0  0  0  0  0  0  0  0  0  0  0
  130.6880  125.9590   64.9090 C   0  0  0  0  0  0  0  0  0  0  0  0
  132.0780  126.0840   64.9330 C   0  0  0  0  0  0  0  0  0  0  0  0
  132.8690  125.3260   64.0750 C   0  0  0  0  0  0  0  0  0  0  0  0
  132.2910  124.4220   63.1690 C   0  0  0  0  0  0  0  0  0  0  0  0
  133.0670  123.6400   62.3100 N   0  0  0  0  0  0  0  0  0  0  0  0
  133.0170  122.1700   62.4280 C   0  0  0  0  0  0  0  0  0  0  0  0
  134.1910  121.4620   61.7180 C   0  0  0  0  0  0  0  0  0  0  0  0
  134.2410  121.8550   60.3540 O   0  0  0  0  0  0  0  0  0  0  0  0
  134.4240  123.2560   60.2170 C   0  0  0  0  0  0  0  0  0  0  0  0
  133.2600  124.0100   60.8930 C   0  0  0  0  0  0  0  0  0  0  0  0
  130.8950  124.2920   63.1670 C   0  0  0  0  0  0  0  0  0  0  0  0
  130.1030  125.0510   64.0260 C   0  0  0  0  0  0  0  0  0  0  0  0
  128.9380  127.7610   65.4110 C   0  0  0  0  0  0  0  0  0  0  0  0
  1  2  1  0
  2  3  2  0
  3  4  1  0
  4  5  2  0
  4  6  1  0
  6  7  1  0
  7  8  1  0
  8  9  2  0
  9 10  1  0
 10 11  1  0
  3 12  1  0
 12 13  1  0
 13 14  2  0
 14 15  1  0
 15 16  1  0
 16 17  2  0
 17 18  1  0
 18 19  2  0
 19 20  1  0
 20 21  1  0
 21 22  1  0
 22 23  1  0
 23 24  1  0
 24 25  1  0
 19 26  1  0
 26 27  2  0
 15 28  2  0
 28 29  1  0
 29 30  1  0
 30 31  2  0
 31 32  1  0
 32 33  2  0
 33 34  1  0
 34 35  1  0
 35 36  1  0
 36 37  1  0
 37 38  1  0
 38 39  1  0
 33 40  1  0
 40 41  2  0
 29 42  2  0
 42  2  1  0
 11  7  2  0
 42 13  1  0
 27 16  1  0
 41 30  1  0
 25 20  1  0
 39 34  1  0
M  END
>  <Binding energies>  (40) 
[-9.51]

>  <Ligand effiencies>  (40) 
[-0.21133333333333332]

>  <Interactions>  (40) 
["V-A:TYR:539:CD2:4871, H-A:GLU:543:OE1:4906, H-A:GLU:543:OE2:4907, V-A:ASP:366:CG:3209, V-A:GLU:543:CD:4905, V-A:TYR:539:CE2:4873, V-B:GLU:543:C:9871, V-B:LYS:547:CE:9919, V-A:LYS:547:CE:4947, V-A:HIS:456:CE1:4066, V-A:HIS:456:CD2:4064, V-B:HIS:456:CE1:9038, H-B:TYR:539:OH:9847, V-A:ARG:545:CZ:4923, V-A:LEU:475:CD1:4254, V-A:ILE:369:CG1:3234, V-A:ILE:369:CB:3232, V-A:ILE:369:CG2:3233, V-A:GLY:454:CA:4045, V-A:ASP:366:CA:3206, V-B:LYS:547:CD:9918"]

$$$$
9c_Ghoteimi_2023
     RDKit          3D

 42 48  0  0  0  0  0  0  0  0999 V2000
  129.2320  127.8870   62.9710 N   0  0  0  0  0  0  0  0  0  0  0  0
  128.6110  128.2900   64.1260 C   0  0  0  0  0  0  0  0  0  0  0  0
  127.6260  129.2880   64.1650 C   0  0  0  0  0  0  0  0  0  0  0  0
  127.0620  130.0600   63.0540 C   0  0  0  0  0  0  0  0  0  0  0  0
  125.9350  129.8120   62.6210 O   0  0  0  0  0  0  0  0  0  0  0  0
  127.8640  131.0340   62.5560 N   0  0  0  0  0  0  0  0  0  0  0  0
  127.5790  131.8920   61.5030 C   0  0  0  0  0  0  0  0  0  0  0  0
  127.6630  131.6440   60.2140 N   0  0  0  0  0  0  0  0  0  0  0  0
  127.3200  132.6960   59.4950 C   0  0  0  0  0  0  0  0  0  0  0  0
  126.9470  133.8320   60.2060 C   0  0  0  0  0  0  0  0  0  0  0  0
  127.0540  133.4950   61.9080 S   0  0  0  0  0  0  0  0  0  0  0  0
  127.0680  129.5690   65.8140 S   0  0  0  0  0  0  0  0  0  0  0  0
  128.1680  128.3640   66.4400 C   0  0  0  0  0  0  0  0  0  0  0  0
  128.2500  128.1030   67.7440 N   0  0  0  0  0  0  0  0  0  0  0  0
  129.1490  127.1600   68.1280 C   0  0  0  0  0  0  0  0  0  0  0  0
  129.2350  126.9020   69.5980 C   0  0  0  0  0  0  0  0  0  0  0  0
  128.4200  125.9450   70.2140 C   0  0  0  0  0  0  0  0  0  0  0  0
  128.4970  125.7150   71.5840 C   0  0  0  0  0  0  0  0  0  0  0  0
  129.3850  126.4440   72.3920 C   0  0  0  0  0  0  0  0  0  0  0  0
  129.4790  126.2190   73.7700 N   0  0  0  0  0  0  0  0  0  0  0  0
  128.9920  127.2150   74.7470 C   0  0  0  0  0  0  0  0  0  0  0  0
  128.8520  126.6640   76.1820 C   0  0  0  0  0  0  0  0  0  0  0  0
  130.0830  126.1000   76.6050 O   0  0  0  0  0  0  0  0  0  0  0  0
  130.4770  125.0250   75.7670 C   0  0  0  0  0  0  0  0  0  0  0  0
  130.6620  125.5220   74.3170 C   0  0  0  0  0  0  0  0  0  0  0  0
  130.2120  127.3870   71.7660 C   0  0  0  0  0  0  0  0  0  0  0  0
  130.1370  127.6140   70.3950 C   0  0  0  0  0  0  0  0  0  0  0  0
  129.9400  126.4650   67.2110 C   0  0  0  0  0  0  0  0  0  0  0  0
  129.8420  126.7210   65.8380 C   0  0  0  0  0  0  0  0  0  0  0  0
  130.6820  125.9340   64.9010 C   0  0  0  0  0  0  0  0  0  0  0  0
  132.0740  125.9870   64.9880 C   0  0  0  0  0  0  0  0  0  0  0  0
  132.8650  125.2370   64.1210 C   0  0  0  0  0  0  0  0  0  0  0  0
  132.2840  124.4150   63.1440 C   0  0  0  0  0  0  0  0  0  0  0  0
  133.0580  123.6440   62.2710 N   0  0  0  0  0  0  0  0  0  0  0  0
  133.0750  122.1760   62.4290 C   0  0  0  0  0  0  0  0  0  0  0  0
  134.2430  121.4970   61.6820 C   0  0  0  0  0  0  0  0  0  0  0  0
  134.2140  121.8540   60.3080 O   0  0  0  0  0  0  0  0  0  0  0  0
  134.3330  123.2570   60.1280 C   0  0  0  0  0  0  0  0  0  0  0  0
  133.1710  123.9830   60.8390 C   0  0  0  0  0  0  0  0  0  0  0  0
  130.8840  124.3530   63.0800 C   0  0  0  0  0  0  0  0  0  0  0  0
  130.0930  125.1030   63.9460 C   0  0  0  0  0  0  0  0  0  0  0  0
  128.9320  127.7310   65.4150 C   0  0  0  0  0  0  0  0  0  0  0  0
  1  2  1  0
  2  3  2  0
  3  4  1  0
  4  5  2  0
  4  6  1  0
  6  7  1  0
  7  8  2  0
  8  9  1  0
  9 10  2  0
 10 11  1  0
  3 12  1  0
 12 13  1  0
 13 14  2  0
 14 15  1  0
 15 16  1  0
 16 17  2  0
 17 18  1  0
 18 19  2  0
 19 20  1  0
 20 21  1  0
 21 22  1  0
 22 23  1  0
 23 24  1  0
 24 25  1  0
 19 26  1  0
 26 27  2  0
 15 28  2  0
 28 29  1  0
 29 30  1  0
 30 31  2  0
 31 32  1  0
 32 33  2  0
 33 34  1  0
 34 35  1  0
 35 36  1  0
 36 37  1  0
 37 38  1  0
 38 39  1  0
 33 40  1  0
 40 41  2  0
 29 42  2  0
 42  2  1  0
 11  7  1  0
 42 13  1  0
 27 16  1  0
 41 30  1  0
 25 20  1  0
 39 34  1  0
M  END
>  <Binding energies>  (41) 
[-9.74]

>  <Ligand effiencies>  (41) 
[-0.21644444444444444]

>  <Interactions>  (41) 
["V-A:TYR:539:CD2:4871, H-A:GLU:543:OE1:4906, V-A:ALA:541:CB:4889, H-A:GLU:543:OE2:4907, V-A:ASP:366:CG:3209, V-A:GLU:543:CD:4905, V-A:TYR:539:CE2:4873, V-B:LEU:475:CD2:9227, V-B:GLU:543:C:9871, V-B:LYS:547:CE:9919, V-A:LYS:547:CE:4947, V-A:HIS:456:CE1:4066, V-A:HIS:456:CD2:4064, V-B:HIS:456:CE1:9038, H-B:TYR:539:OH:9847, V-B:GLU:543:CD:9877, V-A:ARG:545:CZ:4923, V-A:LEU:475:CD1:4254, V-A:ILE:369:CG1:3234, V-A:ILE:369:CB:3232, V-A:ILE:369:CG2:3233, V-A:GLY:454:CA:4045, V-A:ASP:366:CA:3206, V-B:LYS:547:CD:9918"]

$$$$
RR11_Rahimova_2017
     RDKit          3D

 33 38  0  0  0  0  0  0  0  0999 V2000
  134.1330  121.6040   60.6490 N   0  0  0  0  0  0  0  0  0  0  0  0
  133.3870  122.4190   61.4990 C   0  0  0  0  0  0  0  0  0  0  0  0
  132.1450  121.9860   61.9610 C   0  0  0  0  0  0  0  0  0  0  0  0
  131.4030  122.8000   62.8120 C   0  0  0  0  0  0  0  0  0  0  0  0
  131.8920  124.0510   63.2080 C   0  0  0  0  0  0  0  0  0  0  0  0
  131.0930  124.9240   64.1300 C   0  0  0  0  0  0  0  0  0  0  0  0
  130.6160  126.1060   63.8060 N   0  0  0  0  0  0  0  0  0  0  0  0
  129.9480  126.5440   64.9190 C   0  0  0  0  0  0  0  0  0  0  0  0
  129.2460  127.7410   65.1180 C   0  0  0  0  0  0  0  0  0  0  0  0
  128.6250  127.9520   66.3550 C   0  0  0  0  0  0  0  0  0  0  0  0
  127.8610  129.2460   66.6010 C   0  0  0  0  0  0  0  0  0  0  0  0
  127.5190  129.9870   65.3160 C   0  0  0  0  0  0  0  0  0  0  0  0
  127.8630  131.3380   65.1890 C   0  0  0  0  0  0  0  0  0  0  0  0
  127.5800  132.0590   64.0270 C   0  0  0  0  0  0  0  0  0  0  0  0
  126.9410  131.3900   62.9740 C   0  0  0  0  0  0  0  0  0  0  0  0
  126.5520  131.8690   61.7500 N   0  0  0  0  0  0  0  0  0  0  0  0
  125.9950  130.8460   61.1380 C   0  0  0  0  0  0  0  0  0  0  0  0
  125.4010  130.9020   59.7600 C   0  0  0  0  0  0  0  0  0  0  0  0
  126.0990  130.3790   58.6640 C   0  0  0  0  0  0  0  0  0  0  0  0
  125.5530  130.4400   57.3840 C   0  0  0  0  0  0  0  0  0  0  0  0
  124.3040  131.0260   57.1920 C   0  0  0  0  0  0  0  0  0  0  0  0
  123.7580  131.0920   55.9100 N   0  0  0  0  0  0  0  0  0  0  0  0
  123.5970  131.5460   58.2730 C   0  0  0  0  0  0  0  0  0  0  0  0
  124.1440  131.4840   59.5520 C   0  0  0  0  0  0  0  0  0  0  0  0
  126.0100  129.7080   61.9170 N   0  0  0  0  0  0  0  0  0  0  0  0
  126.6110  130.0210   63.1130 C   0  0  0  0  0  0  0  0  0  0  0  0
  126.8970  129.2930   64.2710 C   0  0  0  0  0  0  0  0  0  0  0  0
  128.7270  127.0000   67.3750 C   0  0  0  0  0  0  0  0  0  0  0  0
  129.4230  125.8000   67.2110 C   0  0  0  0  0  0  0  0  0  0  0  0
  130.0240  125.5950   65.9660 C   0  0  0  0  0  0  0  0  0  0  0  0
  130.7670  124.5730   65.4240 N   0  0  0  0  0  0  0  0  0  0  0  0
  133.1420  124.4740   62.7350 C   0  0  0  0  0  0  0  0  0  0  0  0
  133.8870  123.6620   61.8840 C   0  0  0  0  0  0  0  0  0  0  0  0
  1  2  1  0
  2  3  2  0
  3  4  1  0
  4  5  2  0
  5  6  1  0
  6  7  2  0
  7  8  1  0
  8  9  2  0
  9 10  1  0
 10 11  1  0
 11 12  1  0
 12 13  2  0
 13 14  1  0
 14 15  2  0
 15 16  1  0
 16 17  2  0
 17 18  1  0
 18 19  2  0
 19 20  1  0
 20 21  2  0
 21 22  1  0
 21 23  1  0
 23 24  2  0
 17 25  1  0
 25 26  1  0
 26 27  2  0
 10 28  2  0
 28 29  1  0
 29 30  2  0
 30 31  1  0
  5 32  1  0
 32 33  2  0
 33  2  1  0
 31  6  1  0
 30  8  1  0
 27 12  1  0
 26 15  1  0
 24 18  1  0
M  END
>  <Binding energies>  (42) 
[-9.07]

>  <Ligand effiencies>  (42) 
[-0.23256410256410256]

>  <Interactions>  (42) 
["V-A:ALA:541:CB:4889, V-A:GLU:543:CD:4905, V-A:TYR:539:CE2:4873, V-A:HIS:456:CE1:4066, V-A:GLU:543:CB:4903, V-B:GLU:543:CB:9875, V-B:HIS:456:CE1:9038, V-B:ASP:366:CA:8178, V-B:ASP:366:CB:8180, H-B:ASP:366:OD1:8182, V-B:TYR:531:CZ:9763, V-B:ILE:369:CG2:8205, V-B:ASP:366:CG:8181, H-B:TYR:531:OH:9764, V-A:TYR:539:CZ:4874, H-B:TYR:539:OH:9847, V-A:TYR:484:CZ:4343, V-B:TYR:539:CE2:9845, V-A:TYR:484:CE1:4341, V-A:GLU:543:CG:4904, V-A:LEU:475:CD1:4254, V-A:ILE:369:CG1:3234, V-A:ILE:369:CB:3232, V-B:ILE:369:CD1:8207, V-A:ILE:369:CG2:3233, V-A:GLY:454:CA:4045, H-A:TYR:484:OH:4344, H-B:ASP:366:OD2:8183, V-B:TYR:484:CE1:9313, V-B:TYR:531:CE1:9761, V-B:TYR:484:CZ:9315, V-B:ILE:369:CB:8204, V-B:ASP:366:C:8176, V-B:ASN:370:CA:8211, V-B:ASN:370:CB:8213, H-A:TYR:539:OH:4875, H-B:ASP:366:O:8177, H-B:ASN:370:OD1:8215, H-A:SER:385:O:3402"]

$$$$
RR16_Rahimova_2017
     RDKit          3D

 44 49  0  0  0  0  0  0  0  0999 V2000
  125.2980  132.5950   59.6680 O   0  0  0  0  0  0  0  0  0  0  0  0
  126.2190  133.3970   60.4820 S   0  0  0  0  0  0  0  0  0  0  0  0
  125.9370  134.8080   60.7680 O   0  0  0  0  0  0  0  0  0  0  0  0
  127.8140  133.2970   59.7340 N   0  0  0  0  0  0  0  0  0  0  0  0
  128.1970  132.1270   58.9100 C   0  0  0  0  0  0  0  0  0  0  0  0
  128.5770  132.6090   57.4860 C   0  0  0  0  0  0  0  0  0  0  0  0
  129.4520  131.6700   56.6320 C   0  0  0  0  0  0  0  0  0  0  0  0
  130.9630  131.8450   56.8610 C   0  0  0  0  0  0  0  0  0  0  0  0
  131.4890  131.3910   58.2360 C   0  0  0  0  0  0  0  0  0  0  0  0
  130.7220  131.8760   59.4820 C   0  0  0  0  0  0  0  0  0  0  0  0
  129.2900  131.3340   59.6640 C   0  0  0  0  0  0  0  0  0  0  0  0
  126.4050  132.5450   62.0440 C   0  0  0  0  0  0  0  0  0  0  0  0
  127.4890  132.8300   62.8770 C   0  0  0  0  0  0  0  0  0  0  0  0
  127.6890  132.0750   64.0290 C   0  0  0  0  0  0  0  0  0  0  0  0
  126.8050  131.0410   64.3440 C   0  0  0  0  0  0  0  0  0  0  0  0
  127.1380  129.9780   65.7470 S   0  0  0  0  0  0  0  0  0  0  0  0
  125.8560  129.4100   66.1820 O   0  0  0  0  0  0  0  0  0  0  0  0
  127.9690  130.7410   66.6880 O   0  0  0  0  0  0  0  0  0  0  0  0
  128.1280  128.6680   65.0740 N   0  0  0  0  0  0  0  0  0  0  0  0
  128.6870  127.7370   66.0880 C   0  0  0  0  0  0  0  0  0  0  0  0
  129.7680  126.8370   65.4550 C   0  0  0  0  0  0  0  0  0  0  0  0
  129.2440  126.1110   64.1910 C   0  0  0  0  0  0  0  0  0  0  0  0
  130.3170  125.2480   63.5210 C   0  0  0  0  0  0  0  0  0  0  0  0
  131.6700  125.5860   63.6630 C   0  0  0  0  0  0  0  0  0  0  0  0
  132.6810  124.8230   63.0770 C   0  0  0  0  0  0  0  0  0  0  0  0
  134.0000  125.1660   63.2300 O   0  0  0  0  0  0  0  0  0  0  0  0
  132.3110  123.6930   62.3320 C   0  0  0  0  0  0  0  0  0  0  0  0
  133.0660  122.7670   61.6720 N   0  0  0  0  0  0  0  0  0  0  0  0
  132.2040  121.8420   61.1260 N   0  0  0  0  0  0  0  0  0  0  0  0
  130.9420  122.2180   61.4080 N   0  0  0  0  0  0  0  0  0  0  0  0
  129.8210  121.3700   61.0230 C   0  0  0  0  0  0  0  0  0  0  0  0
  128.7240  122.1390   60.3000 C   0  0  0  0  0  0  0  0  0  0  0  0
  127.7900  122.8820   61.0300 C   0  0  0  0  0  0  0  0  0  0  0  0
  126.7970  123.6060   60.3680 C   0  0  0  0  0  0  0  0  0  0  0  0
  126.7340  123.5910   58.9740 C   0  0  0  0  0  0  0  0  0  0  0  0
  127.6630  122.8540   58.2410 C   0  0  0  0  0  0  0  0  0  0  0  0
  127.5940  122.8420   56.5170 Cl  0  0  0  0  0  0  0  0  0  0  0  0
  128.6550  122.1260   58.9030 C   0  0  0  0  0  0  0  0  0  0  0  0
  130.9430  123.3640   62.1860 C   0  0  0  0  0  0  0  0  0  0  0  0
  129.9280  124.1300   62.7700 C   0  0  0  0  0  0  0  0  0  0  0  0
  128.5500  127.0820   63.2010 C   0  0  0  0  0  0  0  0  0  0  0  0
  127.5150  127.9820   63.9070 C   0  0  0  0  0  0  0  0  0  0  0  0
  125.6980  130.7850   63.5320 C   0  0  0  0  0  0  0  0  0  0  0  0
  125.5000  131.5370   62.3780 C   0  0  0  0  0  0  0  0  0  0  0  0
  1  2  2  0
  2  3  2  0
  2  4  1  0
  4  5  1  0
  5  6  1  0
  6  7  1  0
  7  8  1  0
  8  9  1  0
  9 10  1  0
 10 11  1  0
  2 12  1  0
 12 13  2  0
 13 14  1  0
 14 15  2  0
 15 16  1  0
 16 17  2  0
 16 18  2  0
 16 19  1  0
 19 20  1  0
 20 21  1  0
 21 22  1  0
 22 23  1  0
 23 24  2  0
 24 25  1  0
 25 26  1  0
 25 27  2  0
 27 28  1  0
 28 29  2  0
 29 30  1  0
 30 31  1  0
 31 32  1  0
 32 33  2  0
 33 34  1  0
 34 35  2  0
 35 36  1  0
 36 37  1  0
 36 38  2  0
 30 39  1  0
 39 40  2  0
 22 41  1  0
 41 42  1  0
 15 43  1  0
 43 44  2  0
 11  5  1  0
 44 12  1  0
 42 19  1  0
 40 23  1  0
 39 27  1  0
 38 32  1  0
M  END
>  <Binding energies>  (43) 
[-10.79]

>  <Ligand effiencies>  (43) 
[-0.22479166666666664]

>  <Interactions>  (43) 
["V-A:TYR:539:CD2:4871, V-A:PRO:540:CB:4882, V-A:ALA:541:CB:4889, V-A:PRO:540:CA:4880, V-A:PRO:540:N:4881, V-A:TYR:539:C:4864, H-A:ASP:366:OD1:3210, V-A:GLU:543:CD:4905, V-A:TYR:539:CE2:4873, V-B:LEU:475:CD2:9227, V-B:HIS:456:CE1:9038, V-B:TYR:539:CE1:9844, V-B:PRO:540:CA:9852, V-B:TYR:539:CZ:9846, V-B:PRO:540:N:9853, V-B:ALA:541:CB:9861, V-B:GLU:543:CD:9877, V-B:GLU:543:CG:9876, V-A:ARG:545:CZ:4923, H-A:ARG:545:NH2:4925, V-B:TYR:539:CE2:9845, H-A:ARG:545:NE:4921, V-A:GLU:543:CG:4904, V-B:TYR:539:C:9836, V-B:TYR:539:CD2:9843, V-B:TYR:539:CD1:9842, V-B:TYR:539:CG:9841, H-A:GLY:454:N:4046, H-A:ASP:366:OD2:3211, H-A:ARG:545:NH1:4924, V-A:PRO:540:C:4878, H-A:TYR:539:O:4865, H-B:TYR:484:OH:9316, V-A:TYR:539:CG:4869, H-B:HIS:456:ND1:9035"]

$$$$
RR18_Rahimova_2017
     RDKit          3D

 36 41  0  0  0  0  0  0  0  0999 V2000
  133.8140  125.1120   65.3400 C   0  0  0  0  0  0  0  0  0  0  0  0
  132.7120  125.1760   64.3120 C   0  0  0  0  0  0  0  0  0  0  0  0
  132.6610  124.9950   62.9390 C   0  0  0  0  0  0  0  0  0  0  0  0
  131.3340  125.1920   62.5570 C   0  0  0  0  0  0  0  0  0  0  0  0
  130.6230  125.4850   63.7090 C   0  0  0  0  0  0  0  0  0  0  0  0
  129.1560  125.7940   63.9980 C   0  0  1  0  0  0  0  0  0  0  0  0
  129.0050  126.7930   65.1830 C   0  0  0  0  0  0  0  0  0  0  0  0
  129.4220  126.4120   66.5290 C   0  0  0  0  0  0  0  0  0  0  0  0
  129.9350  125.3160   66.7640 O   0  0  0  0  0  0  0  0  0  0  0  0
  129.2090  127.3640   67.4670 N   0  0  0  0  0  0  0  0  0  0  0  0
  129.4600  127.3500   68.8550 C   0  0  0  0  0  0  0  0  0  0  0  0
  130.6500  127.8280   69.4330 C   0  0  0  0  0  0  0  0  0  0  0  0
  130.8390  127.7800   70.8130 C   0  0  0  0  0  0  0  0  0  0  0  0
  129.8490  127.2490   71.6350 C   0  0  0  0  0  0  0  0  0  0  0  0
  128.6710  126.7610   71.0760 C   0  0  0  0  0  0  0  0  0  0  0  0
  128.4670  126.8040   69.6930 C   0  0  0  0  0  0  0  0  0  0  0  0
  127.1600  126.2520   69.1310 C   0  0  0  0  0  0  0  0  0  0  0  0
  128.5760  128.0550   64.9160 C   0  0  0  0  0  0  0  0  0  0  0  0
  128.1490  128.4880   63.6970 N   0  0  0  0  0  0  0  0  0  0  0  0
  128.0580  127.6540   62.7280 C   0  0  0  0  0  0  0  0  0  0  0  0
  127.3890  128.0280   61.1570 S   0  0  0  0  0  0  0  0  0  0  0  0
  127.6510  126.3490   60.5880 C   0  0  0  0  0  0  0  0  0  0  0  0
  127.3440  125.8330   59.3470 C   0  0  0  0  0  0  0  0  0  0  0  0
  126.6550  126.6630   58.3480 C   0  0  0  0  0  0  0  0  0  0  0  0
  126.2920  127.8380   58.4080 O   0  0  0  0  0  0  0  0  0  0  0  0
  126.4400  125.8970   57.2740 N   0  0  0  0  0  0  0  0  0  0  0  0
  126.9370  124.6370   57.4120 C   0  0  0  0  0  0  0  0  0  0  0  0
  126.8980  123.5960   56.4840 C   0  0  0  0  0  0  0  0  0  0  0  0
  127.4970  122.3830   56.8100 C   0  0  0  0  0  0  0  0  0  0  0  0
  128.1280  122.2340   58.0430 C   0  0  0  0  0  0  0  0  0  0  0  0
  128.1530  123.2920   58.9560 C   0  0  0  0  0  0  0  0  0  0  0  0
  127.5330  124.5190   58.6550 C   0  0  0  0  0  0  0  0  0  0  0  0
  128.2470  125.5880   61.6860 C   0  0  0  0  0  0  0  0  0  0  0  0
  128.5180  124.3910   61.6810 O   0  0  0  0  0  0  0  0  0  0  0  0
  128.4660  126.3600   62.7850 N   0  0  0  0  0  0  0  0  0  0  0  0
  131.4700  125.4750   64.7730 O   0  0  0  0  0  0  0  0  0  0  0  0
  1  2  1  0
  2  3  2  0
  3  4  1  0
  4  5  2  0
  6  5  1  6
  6  7  1  0
  7  8  1  0
  8  9  2  0
  8 10  1  0
 10 11  1  0
 11 12  2  0
 12 13  1  0
 13 14  2  0
 14 15  1  0
 15 16  2  0
 16 17  1  0
  7 18  2  0
 18 19  1  0
 19 20  2  0
 20 21  1  0
 21 22  1  0
 22 23  2  0
 23 24  1  0
 24 25  2  0
 24 26  1  0
 26 27  1  0
 27 28  2  0
 28 29  1  0
 29 30  2  0
 30 31  1  0
 31 32  2  0
 22 33  1  0
 33 34  2  0
 33 35  1  0
  5 36  1  0
 36  2  1  0
 35  6  1  0
 16 11  1  0
 35 20  1  0
 32 23  1  0
 32 27  1  0
M  END
>  <Binding energies>  (44) 
[-8.84]

>  <Ligand effiencies>  (44) 
[-0.2326315789473684]

>  <Interactions>  (44) 
["V-A:GLU:543:CD:4905, V-B:GLU:543:C:9871, V-A:GLY:544:C:4909, V-A:HIS:456:CE1:4066, V-A:GLU:543:C:4899, V-A:HIS:456:CD2:4064, V-B:GLU:543:CB:9875, V-B:HIS:456:CE1:9038, V-B:GLY:544:C:9881, V-B:HIS:456:CD2:9036, V-B:TYR:539:CE1:9844, V-B:MET:535:CE:9804, V-B:PRO:540:CA:9852, V-B:TYR:539:CZ:9846, V-B:PRO:540:N:9853, H-B:TYR:531:OH:9764, V-B:GLU:543:CD:9877, H-B:HIS:456:NE2:9039, V-B:GLU:543:CG:9876, V-A:ARG:545:CZ:4923, V-A:ARG:545:CD:4920, V-B:TYR:539:CE2:9845, V-B:TYR:539:C:9836, V-B:TYR:539:CD2:9843, V-B:TYR:539:CD1:9842, V-B:TYR:539:CG:9841, V-A:GLY:454:CA:4045, H-B:MET:535:SD:9803, H-A:TYR:484:OH:4344"]

$$$$
RR20_Rahimova_2017
     RDKit          3D

 38 43  0  0  0  0  0  0  0  0999 V2000
  125.2840  130.7890   56.5810 C   0  0  0  0  0  0  0  0  0  0  0  0
  125.0760  131.0000   58.0700 C   0  0  0  0  0  0  0  0  0  0  0  0
  123.8390  131.4390   58.5430 C   0  0  0  0  0  0  0  0  0  0  0  0
  123.6430  131.6240   59.9090 C   0  0  0  0  0  0  0  0  0  0  0  0
  124.6860  131.3850   60.8120 C   0  0  0  0  0  0  0  0  0  0  0  0
  124.4460  131.5730   62.2930 C   0  0  0  0  0  0  0  0  0  0  0  0
  123.2770  131.5720   62.6870 O   0  0  0  0  0  0  0  0  0  0  0  0
  125.5140  131.7200   63.1300 N   0  0  0  0  0  0  0  0  0  0  0  0
  125.8110  133.0040   63.7850 C   0  0  0  0  0  0  0  0  0  0  0  0
  126.9600  132.7410   64.7430 C   0  0  0  0  0  0  0  0  0  0  0  0
  126.9810  131.2460   64.8370 C   0  0  0  0  0  0  0  0  0  0  0  0
  127.7740  130.4270   65.6420 C   0  0  0  0  0  0  0  0  0  0  0  0
  127.7660  129.0370   65.4710 C   0  0  0  0  0  0  0  0  0  0  0  0
  128.6130  128.1530   66.3430 C   0  0  0  0  0  0  0  0  0  0  0  0
  128.7860  128.4990   67.6090 N   0  0  0  0  0  0  0  0  0  0  0  0
  129.5230  127.6480   68.2780 C   0  0  0  0  0  0  0  0  0  0  0  0
  129.8920  127.7040   69.6130 N   0  0  0  0  0  0  0  0  0  0  0  0
  129.3700  126.9810   70.6340 C   0  0  0  0  0  0  0  0  0  0  0  0
  128.4830  126.1360   70.4970 O   0  0  0  0  0  0  0  0  0  0  0  0
  129.9400  127.2110   72.0540 C   0  0  0  0  0  0  0  0  0  0  0  0
  128.9950  127.9080   72.9470 N   0  0  0  0  0  0  0  0  0  0  0  0
  128.9980  129.3640   72.7420 C   0  0  0  0  0  0  0  0  0  0  0  0
  128.2040  130.0620   73.8700 C   0  0  0  0  0  0  0  0  0  0  0  0
  126.8650  129.3860   74.1640 C   0  0  0  0  0  0  0  0  0  0  0  0
  125.8960  130.0170   74.9510 C   0  0  0  0  0  0  0  0  0  0  0  0
  124.6910  129.3860   75.2510 C   0  0  0  0  0  0  0  0  0  0  0  0
  124.4400  128.1080   74.7610 C   0  0  0  0  0  0  0  0  0  0  0  0
  125.3920  127.4710   73.9680 C   0  0  0  0  0  0  0  0  0  0  0  0
  126.6060  128.0940   73.6600 C   0  0  0  0  0  0  0  0  0  0  0  0
  127.6260  127.4190   72.7420 C   0  0  0  0  0  0  0  0  0  0  0  0
  130.0870  126.3130   67.3520 S   0  0  0  0  0  0  0  0  0  0  0  0
  129.2680  126.9650   65.9520 C   0  0  0  0  0  0  0  0  0  0  0  0
  129.3670  126.2680   64.6130 C   0  0  0  0  0  0  0  0  0  0  0  0
  126.9870  128.4940   64.4370 C   0  0  0  0  0  0  0  0  0  0  0  0
  126.2080  129.3120   63.6200 C   0  0  0  0  0  0  0  0  0  0  0  0
  126.1590  130.6920   63.8560 C   0  0  0  0  0  0  0  0  0  0  0  0
  125.9150  130.9170   60.3320 C   0  0  0  0  0  0  0  0  0  0  0  0
  126.1120  130.7300   58.9660 C   0  0  0  0  0  0  0  0  0  0  0  0
  1  2  1  0
  2  3  2  0
  3  4  1  0
  4  5  2  0
  5  6  1  0
  6  7  2  0
  6  8  1  0
  8  9  1  0
  9 10  1  0
 10 11  1  0
 11 12  2  0
 12 13  1  0
 13 14  1  0
 14 15  1  0
 15 16  2  0
 16 17  1  0
 17 18  1  0
 18 19  2  0
 18 20  1  0
 20 21  1  0
 21 22  1  0
 22 23  1  0
 23 24  1  0
 24 25  2  0
 25 26  1  0
 26 27  2  0
 27 28  1  0
 28 29  2  0
 29 30  1  0
 16 31  1  0
 31 32  1  0
 32 33  1  0
 13 34  2  0
 34 35  1  0
 35 36  2  0
  5 37  1  0
 37 38  2  0
 38  2  1  0
 36  8  1  0
 36 11  1  0
 32 14  2  0
 30 21  1  0
 29 24  1  0
M  END
>  <Binding energies>  (45) 
[-11.16]

>  <Ligand effiencies>  (45) 
[-0.28615384615384615]

>  <Interactions>  (45) 
["V-A:ALA:541:CB:4889, V-A:GLU:543:CD:4905, V-A:TYR:539:CE2:4873, V-B:LEU:475:CD2:9227, V-B:LYS:547:CE:9919, V-B:LYS:471:CE:9188, V-B:VAL:458:CG2:9055, V-B:HIS:456:CG:9034, V-A:LYS:547:CE:4947, H-A:LYS:547:NZ:4948, V-B:HIS:456:CB:9033, V-A:HIS:456:CE1:4066, V-A:GLU:543:CB:4903, V-A:HIS:456:CD2:4064, H-A:GLU:543:O:4900, V-B:HIS:456:C:9029, V-B:HIS:456:CE1:9038, V-B:HIS:456:CD2:9036, V-B:ASP:366:CA:8178, V-B:ASP:366:CB:8180, V-B:TYR:531:CZ:9763, V-B:ILE:369:CG2:8205, V-B:ASP:366:CG:8181, V-A:TYR:539:CZ:4874, V-B:GLU:543:CD:9877, V-B:GLU:543:CG:9876, V-B:LYS:547:CG:9917, V-A:GLU:543:CG:4904, V-B:ILE:369:CD1:8207, H-B:GLY:454:N:9018, V-B:TYR:484:CE1:9313, V-B:TYR:531:CE1:9761, V-B:LYS:547:CD:9918, V-B:TYR:484:CZ:9315, H-A:HIS:456:NE2:4067, V-B:ILE:369:CB:8204, V-B:ASP:366:C:8176, V-B:VAL:457:C:9041, H-A:GLY:544:O:4910"]

$$$$
RR21_Rahimova_2017
     RDKit          3D

 40 45  0  0  0  0  0  0  0  0999 V2000
  133.6080  123.8920   61.2890 C   0  0  0  0  0  0  0  0  0  0  0  0
  133.9320  124.3510   62.5980 O   0  0  0  0  0  0  0  0  0  0  0  0
  132.9340  124.8800   63.3950 C   0  0  0  0  0  0  0  0  0  0  0  0
  131.5980  125.0370   62.9880 C   0  0  0  0  0  0  0  0  0  0  0  0
  130.6500  125.5790   63.8550 C   0  0  0  0  0  0  0  0  0  0  0  0
  131.0100  125.9720   65.1500 C   0  0  0  0  0  0  0  0  0  0  0  0
  129.9880  126.5480   66.0820 C   0  0  0  0  0  0  0  0  0  0  0  0
  130.1100  126.3640   67.3820 N   0  0  0  0  0  0  0  0  0  0  0  0
  129.0680  126.9840   67.9580 N   0  0  0  0  0  0  0  0  0  0  0  0
  128.9020  127.0000   69.3670 C   0  0  0  0  0  0  0  0  0  0  0  0
  129.7660  127.7450   70.1830 C   0  0  0  0  0  0  0  0  0  0  0  0
  129.5900  127.7570   71.5650 C   0  0  0  0  0  0  0  0  0  0  0  0
  128.5510  127.0240   72.1340 C   0  0  0  0  0  0  0  0  0  0  0  0
  127.6880  126.2780   71.3350 C   0  0  0  0  0  0  0  0  0  0  0  0
  127.8620  126.2650   69.9540 C   0  0  0  0  0  0  0  0  0  0  0  0
  128.2860  127.5840   67.0020 C   0  0  0  0  0  0  0  0  0  0  0  0
  128.8430  127.3120   65.7610 C   0  0  0  0  0  0  0  0  0  0  0  0
  128.3950  127.7720   64.4560 C   0  0  0  0  0  0  0  0  0  0  0  0
  127.3880  128.6300   64.1700 C   0  0  0  0  0  0  0  0  0  0  0  0
  126.2960  129.4500   65.3080 S   0  0  0  0  0  0  0  0  0  0  0  0
  125.5080  130.2480   63.9540 C   0  0  0  0  0  0  0  0  0  0  0  0
  124.5310  131.1000   63.9930 N   0  0  0  0  0  0  0  0  0  0  0  0
  123.9890  131.6850   62.8160 C   0  0  0  0  0  0  0  0  0  0  0  0
  123.0800  132.5130   62.7680 O   0  0  0  0  0  0  0  0  0  0  0  0
  124.6400  131.2100   61.5450 C   0  0  0  0  0  0  0  0  0  0  0  0
  124.1250  131.7580   60.2080 C   0  0  0  0  0  0  0  0  0  0  0  0
  125.0360  131.4710   59.0170 C   0  0  0  0  0  0  0  0  0  0  0  0
  124.5100  130.9060   57.8530 C   0  0  0  0  0  0  0  0  0  0  0  0
  125.3380  130.6610   56.7610 C   0  0  0  0  0  0  0  0  0  0  0  0
  126.6950  130.9810   56.8300 C   0  0  0  0  0  0  0  0  0  0  0  0
  127.5920  130.7220   55.6320 C   0  0  0  0  0  0  0  0  0  0  0  0
  127.2220  131.5560   57.9890 C   0  0  0  0  0  0  0  0  0  0  0  0
  126.3940  131.8010   59.0800 C   0  0  0  0  0  0  0  0  0  0  0  0
  125.6100  130.3550   61.5220 N   0  0  0  0  0  0  0  0  0  0  0  0
  126.0550  129.8670   62.7570 N   0  0  0  0  0  0  0  0  0  0  0  0
  127.0810  128.9820   62.7900 C   0  0  0  0  0  0  0  0  0  0  0  0
  127.6700  128.5480   61.7930 O   0  0  0  0  0  0  0  0  0  0  0  0
  132.3400  125.8220   65.5530 C   0  0  0  0  0  0  0  0  0  0  0  0
  133.2900  125.2810   64.6870 C   0  0  0  0  0  0  0  0  0  0  0  0
  134.5700  125.1480   65.1080 F   0  0  0  0  0  0  0  0  0  0  0  0
  1  2  1  0
  2  3  1  0
  3  4  2  0
  4  5  1  0
  5  6  2  0
  6  7  1  0
  7  8  2  0
  8  9  1  0
  9 10  1  0
 10 11  2  0
 11 12  1  0
 12 13  2  0
 13 14  1  0
 14 15  2  0
  9 16  1  0
 16 17  2  0
 17 18  1  0
 18 19  2  0
 19 20  1  0
 20 21  1  0
 21 22  2  0
 22 23  1  0
 23 24  2  0
 23 25  1  0
 25 26  1  0
 26 27  1  0
 27 28  2  0
 28 29  1  0
 29 30  2  0
 30 31  1  0
 30 32  1  0
 32 33  2  0
 25 34  2  0
 34 35  1  0
 35 36  1  0
 36 37  2  0
  6 38  1  0
 38 39  2  0
 39 40  1  0
 39  3  1  0
 17  7  1  0
 36 19  1  0
 15 10  1  0
 35 21  1  0
 33 27  1  0
M  END
>  <Binding energies>  (46) 
[-11.02]

>  <Ligand effiencies>  (46) 
[-0.27549999999999997]

>  <Interactions>  (46) 
["V-A:TYR:539:CD2:4871, V-A:ASP:366:CG:3209, V-A:GLU:543:CD:4905, V-A:TYR:539:CE2:4873, V-B:GLU:543:C:9871, V-B:LYS:547:CE:9919, V-A:HIS:456:CE1:4066, V-B:GLY:544:CA:9883, V-B:HIS:456:CE1:9038, V-B:GLY:544:C:9881, V-B:HIS:456:CD2:9036, V-B:ASP:366:CA:8178, V-B:ASP:366:CB:8180, V-B:TYR:531:CZ:9763, V-B:ILE:369:CG2:8205, V-B:ASP:366:CG:8181, V-A:TYR:539:CZ:4874, V-B:GLU:543:CD:9877, V-A:ARG:545:CZ:4923, V-A:ARG:545:CD:4920, V-B:ILE:369:CD1:8207, H-A:GLY:454:N:4046, V-A:GLY:454:CA:4045, V-A:GLY:453:C:4038, V-A:GLY:453:CA:4040, H-B:TYR:484:OH:9316, H-B:GLY:454:N:9018, V-B:GLY:454:CA:9017, V-B:TYR:531:CE1:9761"]

$$$$
RR23_Rahimova_2017
     RDKit          3D

 39 44  0  0  0  0  0  0  0  0999 V2000
  122.6430  125.4990   57.9800 C   0  0  0  0  0  0  0  0  0  0  0  0
  123.9590  124.7720   57.7750 C   0  0  0  0  0  0  0  0  0  0  0  0
  124.5050  124.6620   56.4960 C   0  0  0  0  0  0  0  0  0  0  0  0
  125.7180  124.0030   56.3110 C   0  0  0  0  0  0  0  0  0  0  0  0
  126.3880  123.4390   57.4020 C   0  0  0  0  0  0  0  0  0  0  0  0
  127.7140  122.7450   57.1830 C   0  0  0  0  0  0  0  0  0  0  0  0
  127.7180  121.7250   56.4910 O   0  0  0  0  0  0  0  0  0  0  0  0
  128.8460  123.2720   57.7380 N   0  0  0  0  0  0  0  0  0  0  0  0
  129.5240  124.4360   57.1450 C   0  0  0  0  0  0  0  0  0  0  0  0
  130.6380  124.8180   58.1060 C   0  0  0  0  0  0  0  0  0  0  0  0
  130.2700  124.0760   59.3550 C   0  0  0  0  0  0  0  0  0  0  0  0
  130.8800  124.1090   60.6090 C   0  0  0  0  0  0  0  0  0  0  0  0
  130.4830  123.2150   61.6140 C   0  0  0  0  0  0  0  0  0  0  0  0
  131.1280  123.2180   63.0090 C   0  0  2  0  0  0  0  0  0  0  0  0
  130.6560  124.3140   63.8260 N   0  0  0  0  0  0  0  0  0  0  0  0
  131.5530  124.7270   64.6290 C   0  0  0  0  0  0  0  0  0  0  0  0
  131.4730  125.7510   65.5210 N   0  0  0  0  0  0  0  0  0  0  0  0
  130.4800  126.6610   65.6720 C   0  0  0  0  0  0  0  0  0  0  0  0
  129.4280  126.6870   65.0290 O   0  0  0  0  0  0  0  0  0  0  0  0
  130.7250  127.7380   66.7420 C   0  0  0  0  0  0  0  0  0  0  0  0
  129.9400  127.4060   67.9520 N   0  0  0  0  0  0  0  0  0  0  0  0
  128.7110  126.8020   67.7180 N   0  0  0  0  0  0  0  0  0  0  0  0
  127.9280  126.4630   68.6930 N   0  0  0  0  0  0  0  0  0  0  0  0
  128.3170  126.7050   70.0120 C   0  0  0  0  0  0  0  0  0  0  0  0
  127.4490  126.3290   71.0400 C   0  0  0  0  0  0  0  0  0  0  0  0
  127.8090  126.5580   72.3690 C   0  0  0  0  0  0  0  0  0  0  0  0
  129.0320  127.1600   72.6710 C   0  0  0  0  0  0  0  0  0  0  0  0
  129.9020  127.5370   71.6460 C   0  0  0  0  0  0  0  0  0  0  0  0
  129.5410  127.3060   70.3130 C   0  0  0  0  0  0  0  0  0  0  0  0
  130.4660  127.7090   69.1880 C   0  0  0  0  0  0  0  0  0  0  0  0
  131.5590  128.2570   69.3620 O   0  0  0  0  0  0  0  0  0  0  0  0
  133.1280  123.8830   64.5890 S   0  0  0  0  0  0  0  0  0  0  0  0
  132.6740  123.1740   62.9960 C   0  0  2  0  0  0  0  0  0  0  0  0
  133.3790  123.9660   61.8750 C   0  0  0  0  0  0  0  0  0  0  0  0
  129.5030  122.2600   61.3210 C   0  0  0  0  0  0  0  0  0  0  0  0
  128.9070  122.2120   60.0600 C   0  0  0  0  0  0  0  0  0  0  0  0
  129.2510  123.1600   59.0870 C   0  0  0  0  0  0  0  0  0  0  0  0
  125.8480  123.5770   58.6880 C   0  0  0  0  0  0  0  0  0  0  0  0
  124.6370  124.2370   58.8720 C   0  0  0  0  0  0  0  0  0  0  0  0
  1  2  1  0
  2  3  2  0
  3  4  1  0
  4  5  2  0
  5  6  1  0
  6  7  2  0
  6  8  1  0
  8  9  1  0
  9 10  1  0
 10 11  1  0
 11 12  2  0
 12 13  1  0
 14 13  1  6
 14 15  1  0
 15 16  2  0
 16 17  1  0
 17 18  1  0
 18 19  2  0
 18 20  1  0
 20 21  1  0
 21 22  1  0
 22 23  2  0
 23 24  1  0
 24 25  2  0
 25 26  1  0
 26 27  2  0
 27 28  1  0
 28 29  2  0
 29 30  1  0
 30 31  2  0
 16 32  1  0
 32 33  1  0
 33 34  1  6
 13 35  2  0
 35 36  1  0
 36 37  2  0
  5 38  1  0
 38 39  2  0
 39  2  1  0
 37  8  1  0
 37 11  1  0
 33 14  1  0
 30 21  1  0
 29 24  1  0
M  END
>  <Binding energies>  (47) 
[-11.09]

>  <Ligand effiencies>  (47) 
[-0.27725]

>  <Interactions>  (47) 
["H-A:GLU:543:OE1:4906, V-A:ASP:366:CG:3209, V-A:GLU:543:CD:4905, V-B:LYS:547:CE:9919, V-A:HIS:456:CE1:4066, V-B:GLY:544:CA:9883, V-A:GLU:543:C:4899, V-A:GLU:543:CB:4903, V-B:HIS:456:CE1:9038, V-B:GLY:544:C:9881, V-B:HIS:456:CD2:9036, V-B:ASP:366:CB:8180, V-B:TYR:539:CE1:9844, V-B:MET:535:CE:9804, V-B:PRO:540:CA:9852, V-B:TYR:539:CZ:9846, V-B:TYR:531:CE2:9762, V-B:ASN:362:C:8140, V-B:TYR:531:CZ:9763, V-B:PRO:540:CB:9854, V-B:ASP:366:CG:8181, H-B:TYR:539:N:9839, V-B:LEU:363:CD1:8157, V-B:LEU:363:CA:8153, V-B:ALA:541:CB:9861, V-B:TYR:539:CE2:9845, V-A:GLU:543:CG:4904, V-A:LEU:475:CD1:4254, V-B:TYR:539:CD2:9843, V-B:TYR:539:CD1:9842, V-B:LEU:363:CB:8155, H-A:GLY:454:N:4046, V-A:GLY:454:CA:4045, H-A:TYR:484:OH:4344, V-B:LEU:363:CG:8156, V-B:LEU:363:C:8151, H-A:ARG:545:N:4917"]

$$$$
RR26_Rahimova_2017
     RDKit          3D

 38 44  0  0  0  0  0  0  0  0999 V2000
  127.5580  133.8110   60.7420 C   0  0  0  0  0  0  0  0  0  0  0  0
  126.1020  134.0040   61.1450 C   0  0  0  0  0  0  0  0  0  0  0  0
  125.3940  135.0700   60.5790 C   0  0  0  0  0  0  0  0  0  0  0  0
  124.0480  135.2710   60.8800 C   0  0  0  0  0  0  0  0  0  0  0  0
  123.3950  134.4000   61.7470 C   0  0  0  0  0  0  0  0  0  0  0  0
  124.0890  133.3350   62.3170 C   0  0  0  0  0  0  0  0  0  0  0  0
  125.4470  133.1220   62.0320 C   0  0  0  0  0  0  0  0  0  0  0  0
  126.1230  131.9600   62.7000 C   0  0  0  0  0  0  0  0  0  0  0  0
  126.3160  131.9090   64.0150 N   0  0  0  0  0  0  0  0  0  0  0  0
  126.9080  130.7530   64.1570 C   0  0  0  0  0  0  0  0  0  0  0  0
  127.5370  129.8400   65.4770 S   0  0  0  0  0  0  0  0  0  0  0  0
  128.0200  128.5430   64.3200 C   0  0  0  0  0  0  0  0  0  0  0  0
  128.6410  127.3750   64.5980 C   0  0  0  0  0  0  0  0  0  0  0  0
  129.0670  126.8730   65.8950 C   0  0  0  0  0  0  0  0  0  0  0  0
  128.7620  127.3740   67.1500 C   0  0  0  0  0  0  0  0  0  0  0  0
  129.3460  126.5570   68.0850 N   0  0  0  0  0  0  0  0  0  0  0  0
  129.3030  126.6700   69.4990 C   0  0  0  0  0  0  0  0  0  0  0  0
  128.4330  125.8720   70.2560 C   0  0  0  0  0  0  0  0  0  0  0  0
  128.3990  125.9950   71.6430 C   0  0  0  0  0  0  0  0  0  0  0  0
  129.2340  126.9120   72.2760 C   0  0  0  0  0  0  0  0  0  0  0  0
  130.1050  127.7080   71.5350 C   0  0  0  0  0  0  0  0  0  0  0  0
  130.1400  127.5890   70.1490 C   0  0  0  0  0  0  0  0  0  0  0  0
  129.9850  125.5440   67.4820 N   0  0  0  0  0  0  0  0  0  0  0  0
  129.8330  125.7210   66.1840 C   0  0  0  0  0  0  0  0  0  0  0  0
  130.4450  124.7500   65.2220 C   0  0  0  0  0  0  0  0  0  0  0  0
  129.7760  123.5620   64.8890 C   0  0  0  0  0  0  0  0  0  0  0  0
  130.3400  122.6490   63.9970 C   0  0  0  0  0  0  0  0  0  0  0  0
  131.5840  122.9190   63.4290 C   0  0  0  0  0  0  0  0  0  0  0  0
  132.2540  124.1110   63.7390 C   0  0  0  0  0  0  0  0  0  0  0  0
  131.6910  125.0180   64.6360 C   0  0  0  0  0  0  0  0  0  0  0  0
  133.5070  124.3990   63.2350 O   0  0  0  0  0  0  0  0  0  0  0  0
  133.8580  123.6420   62.0720 C   0  0  0  0  0  0  0  0  0  0  0  0
  133.4850  122.1510   62.2610 C   0  0  0  0  0  0  0  0  0  0  0  0
  132.0830  122.0120   62.5140 O   0  0  0  0  0  0  0  0  0  0  0  0
  127.6760  128.8740   62.9410 C   0  0  0  0  0  0  0  0  0  0  0  0
  127.8660  128.2210   61.9140 O   0  0  0  0  0  0  0  0  0  0  0  0
  127.0570  130.1340   62.9720 N   0  0  0  0  0  0  0  0  0  0  0  0
  126.5450  130.9090   62.0130 N   0  0  0  0  0  0  0  0  0  0  0  0
  1  2  1  0
  2  3  2  0
  3  4  1  0
  4  5  2  0
  5  6  1  0
  6  7  2  0
  7  8  1  0
  8  9  1  0
  9 10  2  0
 10 11  1  0
 11 12  1  0
 12 13  2  0
 13 14  1  0
 14 15  2  0
 15 16  1  0
 16 17  1  0
 17 18  2  0
 18 19  1  0
 19 20  2  0
 20 21  1  0
 21 22  2  0
 16 23  1  0
 23 24  2  0
 24 25  1  0
 25 26  2  0
 26 27  1  0
 27 28  2  0
 28 29  1  0
 29 30  2  0
 29 31  1  0
 31 32  1  0
 32 33  1  0
 33 34  1  0
 12 35  1  0
 35 36  2  0
 35 37  1  0
 37 38  1  0
  7  2  1  0
 38  8  2  0
 37 10  1  0
 24 14  1  0
 30 25  1  0
 22 17  1  0
 34 28  1  0
M  END
>  <Binding energies>  (48) 
[-10.52]

>  <Ligand effiencies>  (48) 
[-0.2768421052631579]

>  <Interactions>  (48) 
["V-A:TYR:539:CD2:4871, V-A:ALA:541:CB:4889, V-B:TRP:381:CZ2:8338, V-B:TRP:381:CH2:8340, V-A:GLU:543:CD:4905, V-B:LEU:475:CD2:9227, V-B:GLU:543:C:9871, V-B:LYS:547:CE:9919, V-A:HIS:456:CE1:4066, V-A:HIS:456:CD2:4064, V-B:GLU:543:CB:9875, V-B:HIS:456:CE1:9038, V-B:ILE:369:CG2:8205, V-B:ALA:541:CB:9861, V-B:GLU:543:CD:9877, V-B:GLU:543:CG:9876, V-A:TYR:484:CZ:4343, V-A:TYR:484:CE1:4341, V-A:GLU:543:CG:4904, V-A:LEU:475:CD1:4254, V-B:ILE:369:CD1:8207, H-A:GLY:454:N:4046, V-A:GLY:454:CA:4045, V-A:GLY:453:C:4038, H-A:TYR:484:OH:4344, H-B:TYR:484:OH:9316, V-B:GLY:454:CA:9017, V-B:ILE:369:CG1:8206, V-B:SER:385:C:8373"]

$$$$
RR2_Rahimova_2017
     RDKit          3D

 46 50  0  0  0  0  0  0  0  0999 V2000
  124.4610  129.6490   65.5910 C   0  0  0  0  0  0  0  0  0  0  0  0
  123.8230  130.2850   64.4890 O   0  0  0  0  0  0  0  0  0  0  0  0
  124.5980  130.9050   63.5260 C   0  0  0  0  0  0  0  0  0  0  0  0
  124.0900  131.7220   62.5070 C   0  0  0  0  0  0  0  0  0  0  0  0
  124.9480  132.3020   61.5780 C   0  0  0  0  0  0  0  0  0  0  0  0
  126.3310  132.0780   61.6430 C   0  0  0  0  0  0  0  0  0  0  0  0
  127.2440  132.7170   60.6140 C   0  0  0  0  0  0  0  0  0  0  0  0
  127.7090  133.8450   60.8090 O   0  0  0  0  0  0  0  0  0  0  0  0
  127.4840  131.9830   59.5020 N   0  0  0  0  0  0  0  0  0  0  0  0
  128.2400  132.5590   58.4860 N   0  0  0  0  0  0  0  0  0  0  0  0
  128.0310  132.1420   57.2220 C   0  0  0  0  0  0  0  0  0  0  0  0
  127.3500  131.1620   56.9050 O   0  0  0  0  0  0  0  0  0  0  0  0
  128.6900  132.9920   56.1270 C   0  0  0  0  0  0  0  0  0  0  0  0
  130.1470  132.2280   55.3250 S   0  0  0  0  0  0  0  0  0  0  0  0
  129.8090  130.5150   55.6000 C   0  0  0  0  0  0  0  0  0  0  0  0
  129.0420  129.8040   54.8140 N   0  0  0  0  0  0  0  0  0  0  0  0
  128.9400  128.5350   55.3660 N   0  0  0  0  0  0  0  0  0  0  0  0
  129.6760  128.5180   56.4520 C   0  0  0  0  0  0  0  0  0  0  0  0
  129.8340  127.3100   57.3190 C   0  0  0  0  0  0  0  0  0  0  0  0
  130.6790  126.2730   56.9170 C   0  0  0  0  0  0  0  0  0  0  0  0
  130.8260  125.1410   57.7140 C   0  0  0  0  0  0  0  0  0  0  0  0
  130.1410  125.0440   58.9300 C   0  0  0  0  0  0  0  0  0  0  0  0
  130.2430  123.9230   59.7680 N   0  0  0  0  0  0  0  0  0  0  0  0
  128.8790  122.8880   60.2450 S   0  0  0  0  0  0  0  0  0  0  0  0
  128.1770  123.6110   61.3110 O   0  0  0  0  0  0  0  0  0  0  0  0
  129.3930  121.5310   60.4680 O   0  0  0  0  0  0  0  0  0  0  0  0
  127.7860  122.8710   58.8260 C   0  0  0  0  0  0  0  0  0  0  0  0
  128.2410  122.4290   57.5820 C   0  0  0  0  0  0  0  0  0  0  0  0
  127.3800  122.4390   56.4880 C   0  0  0  0  0  0  0  0  0  0  0  0
  126.0640  122.8840   56.6400 C   0  0  0  0  0  0  0  0  0  0  0  0
  125.1310  122.9070   55.4430 C   0  0  0  0  0  0  0  0  0  0  0  0
  125.6130  123.3280   57.8850 C   0  0  0  0  0  0  0  0  0  0  0  0
  126.4730  123.3210   58.9780 C   0  0  0  0  0  0  0  0  0  0  0  0
  129.3000  126.0820   59.3310 C   0  0  0  0  0  0  0  0  0  0  0  0
  129.1470  127.2110   58.5330 C   0  0  0  0  0  0  0  0  0  0  0  0
  130.2590  129.7560   56.6650 N   0  0  0  0  0  0  0  0  0  0  0  0
  131.0800  130.1660   57.7360 C   0  0  0  0  0  0  0  0  0  0  0  0
  130.5170  130.4220   58.9870 C   0  0  0  0  0  0  0  0  0  0  0  0
  131.3330  130.8220   60.0410 C   0  0  0  0  0  0  0  0  0  0  0  0
  132.7090  130.9710   59.8570 C   0  0  0  0  0  0  0  0  0  0  0  0
  133.4360  131.3720   60.9610 O   0  0  0  0  0  0  0  0  0  0  0  0
  132.7460  131.8610   62.1080 C   0  0  0  0  0  0  0  0  0  0  0  0
  133.2660  130.7110   58.5950 C   0  0  0  0  0  0  0  0  0  0  0  0
  132.4550  130.3090   57.5390 C   0  0  0  0  0  0  0  0  0  0  0  0
  126.8320  131.2640   62.6690 C   0  0  0  0  0  0  0  0  0  0  0  0
  125.9720  130.6860   63.5980 C   0  0  0  0  0  0  0  0  0  0  0  0
  1  2  1  0
  2  3  1  0
  3  4  2  0
  4  5  1  0
  5  6  2  0
  6  7  1  0
  7  8  2  0
  7  9  1  0
  9 10  1  0
 10 11  1  0
 11 12  2  0
 11 13  1  0
 13 14  1  0
 14 15  1  0
 15 16  2  0
 16 17  1  0
 17 18  2  0
 18 19  1  0
 19 20  2  0
 20 21  1  0
 21 22  2  0
 22 23  1  0
 23 24  1  0
 24 25  2  0
 24 26  2  0
 24 27  1  0
 27 28  2  0
 28 29  1  0
 29 30  2  0
 30 31  1  0
 30 32  1  0
 32 33  2  0
 22 34  1  0
 34 35  2  0
 18 36  1  0
 36 37  1  0
 37 38  2  0
 38 39  1  0
 39 40  2  0
 40 41  1  0
 41 42  1  0
 40 43  1  0
 43 44  2  0
  6 45  1  0
 45 46  2  0
 46  3  1  0
 36 15  1  0
 44 37  1  0
 35 19  1  0
 33 27  1  0
M  END
>  <Binding energies>  (49) 
[-10.69]

>  <Ligand effiencies>  (49) 
[-0.21816326530612243]

>  <Interactions>  (49) 
["V-A:TYR:539:CD2:4871, V-A:PRO:540:CB:4882, V-A:PRO:540:CA:4880, V-A:TYR:539:C:4864, V-A:LEU:363:CA:3181, V-A:ASP:366:CG:3209, V-A:ASN:362:CB:3172, V-A:GLU:543:CD:4905, V-A:ASN:362:C:3168, V-A:TYR:539:CE2:4873, V-B:HIS:456:CE1:9038, H-A:TYR:531:OH:4792, V-B:TYR:539:CE1:9844, V-B:PRO:540:CA:9852, V-B:TYR:539:CZ:9846, V-B:PRO:540:N:9853, V-B:PRO:540:CB:9854, V-B:LEU:363:CD1:8157, V-A:TYR:539:CZ:4874, H-B:TYR:539:OH:9847, H-A:ARG:545:NH2:4925, V-B:TYR:539:CE2:9845, V-A:GLU:543:CG:4904, V-B:ILE:538:CG2:9832, V-B:ILE:538:CB:9831, V-B:PRO:540:CD:9856, V-B:TYR:539:C:9836, V-B:TYR:539:CD2:9843, V-A:TYR:539:CD1:4870, V-A:TYR:539:CE1:4872, V-B:ILE:369:CD1:8207, V-B:TYR:539:CD1:9842, V-B:TYR:539:CG:9841, H-A:TYR:539:N:4867, V-A:ALA:541:CA:4887, V-B:ARG:545:CZ:9895, H-A:TYR:539:O:4865, H-B:TYR:484:OH:9316, H-A:LEU:363:N:3182, H-B:GLY:454:N:9018, V-B:GLY:454:CA:9017, V-B:ARG:545:CD:9892, V-A:TYR:539:CG:4869, V-A:TYR:539:CA:4866, V-A:ASN:362:CG:3173, V-A:ALA:541:C:4885"]

$$$$
RR33_Rahimova_2017
     RDKit          3D

 18 19  0  0  0  0  0  0  0  0999 V2000
  134.9910  125.1170   66.2240 C   0  0  0  0  0  0  0  0  0  0  0  0
  133.6540  125.1610   65.4790 C   0  0  0  0  0  0  0  0  0  0  0  0
  133.8150  124.5310   64.2110 O   0  0  0  0  0  0  0  0  0  0  0  0
  132.6970  124.2120   63.4650 C   0  0  0  0  0  0  0  0  0  0  0  0
  132.6720  124.6800   62.1520 C   0  0  0  0  0  0  0  0  0  0  0  0
  131.5850  124.4120   61.3250 C   0  0  0  0  0  0  0  0  0  0  0  0
  130.5020  123.6680   61.8020 C   0  0  0  0  0  0  0  0  0  0  0  0
  129.3340  123.3810   60.9130 C   0  0  0  0  0  0  0  0  0  0  0  0
  128.0600  123.5640   61.1770 N   0  0  0  0  0  0  0  0  0  0  0  0
  127.4170  123.1680   60.0900 C   0  0  0  0  0  0  0  0  0  0  0  0
  125.9070  123.2400   60.0100 C   0  0  0  0  0  0  0  0  0  0  0  0
  125.3220  123.2560   61.3430 N   0  0  0  0  0  0  0  0  0  0  0  0
  124.1080  124.0540   61.3610 C   0  0  0  0  0  0  0  0  0  0  0  0
  128.3310  122.7310   59.1400 C   0  0  0  0  0  0  0  0  0  0  0  0
  128.2410  122.1800   57.7380 C   0  0  0  0  0  0  0  0  0  0  0  0
  129.5660  122.8700   59.6750 O   0  0  0  0  0  0  0  0  0  0  0  0
  130.5240  123.1940   63.1170 C   0  0  0  0  0  0  0  0  0  0  0  0
  131.6120  123.4630   63.9450 C   0  0  0  0  0  0  0  0  0  0  0  0
  1  2  1  0
  2  3  1  0
  3  4  1  0
  4  5  2  0
  5  6  1  0
  6  7  2  0
  7  8  1  0
  8  9  2  0
  9 10  1  0
 10 11  1  0
 11 12  1  0
 12 13  1  0
 10 14  2  0
 14 15  1  0
 14 16  1  0
  7 17  1  0
 17 18  2  0
 18  4  1  0
 16  8  1  0
M  END
>  <Binding energies>  (50) 
[-5.89]

>  <Ligand effiencies>  (50) 
[-0.31]

>  <Interactions>  (50) 
["V-A:ASP:366:CG:3209, V-A:HIS:456:CE1:4066, V-B:ASN:362:CB:8144, V-B:TYR:539:CE1:9844, V-B:PRO:540:CA:9852, V-B:TYR:539:CZ:9846, V-B:ASN:362:C:8140, V-B:PRO:540:N:9853, V-B:PRO:540:C:9850, V-B:PRO:540:CB:9854, H-B:GLU:543:OE2:9879, H-B:TYR:539:OH:9847, V-B:GLU:543:CD:9877, V-A:ARG:545:CZ:4923, V-A:ARG:545:CD:4920, V-B:TYR:539:CE2:9845, V-A:ARG:545:CG:4919, H-B:ALA:541:N:9860, V-B:TYR:539:C:9836, V-B:TYR:539:CD2:9843, V-B:TYR:539:CD1:9842, V-B:TYR:539:CG:9841, H-A:GLY:454:N:4046, V-A:GLY:454:CA:4045, V-B:ARG:545:CZ:9895, V-A:GLY:453:C:4038, V-A:GLY:453:CA:4040, H-A:TYR:484:OH:4344, V-A:GLY:454:C:4043, V-A:ILE:455:C:4048"]

$$$$
RR3_Rahimova_2017
     RDKit          3D

 38 44  0  0  0  0  0  0  0  0999 V2000
  123.9910  132.7320   62.8500 C   0  0  0  0  0  0  0  0  0  0  0  0
  123.8010  131.4510   62.3410 C   0  0  0  0  0  0  0  0  0  0  0  0
  124.7030  130.4410   62.6630 C   0  0  0  0  0  0  0  0  0  0  0  0
  125.8020  130.6960   63.4960 C   0  0  0  0  0  0  0  0  0  0  0  0
  126.7710  129.6080   63.8420 C   0  0  0  0  0  0  0  0  0  0  0  0
  127.2050  129.4230   65.1610 C   0  0  0  0  0  0  0  0  0  0  0  0
  128.1080  128.4140   65.4820 C   0  0  0  0  0  0  0  0  0  0  0  0
  128.6050  127.5680   64.4860 C   0  0  0  0  0  0  0  0  0  0  0  0
  129.5800  126.4840   64.8240 C   0  0  0  0  0  0  0  0  0  0  0  0
  130.1420  125.7710   63.8540 N   0  0  0  0  0  0  0  0  0  0  0  0
  130.9730  124.9390   64.4350 C   0  0  0  0  0  0  0  0  0  0  0  0
  131.8080  123.9620   63.7410 C   0  0  0  0  0  0  0  0  0  0  0  0
  132.3590  122.8230   64.3030 C   0  0  0  0  0  0  0  0  0  0  0  0
  133.0780  122.1320   63.3620 N   0  0  0  0  0  0  0  0  0  0  0  0
  133.0250  122.7910   62.1540 C   0  0  0  0  0  0  0  0  0  0  0  0
  133.5960  122.4770   60.9160 C   0  0  0  0  0  0  0  0  0  0  0  0
  133.3550  123.3610   59.8650 C   0  0  0  0  0  0  0  0  0  0  0  0
  132.5850  124.5070   60.0320 C   0  0  0  0  0  0  0  0  0  0  0  0
  132.0160  124.8210   61.2650 C   0  0  0  0  0  0  0  0  0  0  0  0
  132.2270  123.9610   62.3590 C   0  0  0  0  0  0  0  0  0  0  0  0
  130.9550  125.0970   65.7930 N   0  0  0  0  0  0  0  0  0  0  0  0
  130.0430  126.0780   66.0870 C   0  0  0  0  0  0  0  0  0  0  0  0
  129.7100  126.4830   67.4860 C   0  0  0  0  0  0  0  0  0  0  0  0
  128.6520  125.8690   68.1590 C   0  0  0  0  0  0  0  0  0  0  0  0
  128.3310  126.2520   69.4570 C   0  0  0  0  0  0  0  0  0  0  0  0
  129.0600  127.2530   70.1150 C   0  0  0  0  0  0  0  0  0  0  0  0
  128.6990  127.6760   71.5040 C   0  0  0  0  0  0  0  0  0  0  0  0
  129.3330  128.7720   72.1100 C   0  0  0  0  0  0  0  0  0  0  0  0
  128.9930  129.1680   73.4020 C   0  0  0  0  0  0  0  0  0  0  0  0
  128.0140  128.4710   74.1020 C   0  0  0  0  0  0  0  0  0  0  0  0
  127.3720  127.3830   73.5200 C   0  0  0  0  0  0  0  0  0  0  0  0
  127.7150  126.9880   72.2300 C   0  0  0  0  0  0  0  0  0  0  0  0
  130.1310  127.8490   69.4340 C   0  0  0  0  0  0  0  0  0  0  0  0
  130.4550  127.4690   68.1350 C   0  0  0  0  0  0  0  0  0  0  0  0
  128.1680  127.7360   63.1710 C   0  0  0  0  0  0  0  0  0  0  0  0
  127.2650  128.7470   62.8530 C   0  0  0  0  0  0  0  0  0  0  0  0
  125.9740  131.9950   63.9960 C   0  0  0  0  0  0  0  0  0  0  0  0
  125.0750  133.0080   63.6770 C   0  0  0  0  0  0  0  0  0  0  0  0
  1  2  2  0
  2  3  1  0
  3  4  2  0
  4  5  1  0
  5  6  2  0
  6  7  1  0
  7  8  2  0
  8  9  1  0
  9 10  1  0
 10 11  2  0
 11 12  1  0
 12 13  2  0
 13 14  1  0
 14 15  1  0
 15 16  2  0
 16 17  1  0
 17 18  2  0
 18 19  1  0
 19 20  2  0
 11 21  1  0
 21 22  1  0
 22 23  1  0
 23 24  2  0
 24 25  1  0
 25 26  2  0
 26 27  1  0
 27 28  2  0
 28 29  1  0
 29 30  2  0
 30 31  1  0
 31 32  2  0
 26 33  1  0
 33 34  2  0
  8 35  1  0
 35 36  2  0
  4 37  1  0
 37 38  2  0
 38  1  1  0
 36  5  1  0
 22  9  2  0
 34 23  1  0
 20 12  1  0
 32 27  1  0
 20 15  1  0
M  END
>  <Binding energies>  (51) 
[-10.22]

>  <Ligand effiencies>  (51) 
[-0.2555]

>  <Interactions>  (51) 
["V-A:ASP:366:CB:3208, V-A:ASP:366:CG:3209, V-A:GLU:543:CD:4905, V-B:LEU:475:CD2:9227, V-B:GLU:543:C:9871, V-B:LYS:547:CE:9919, V-A:LYS:547:CE:4947, V-A:HIS:456:CE1:4066, V-A:GLU:543:C:4899, V-A:GLU:543:CB:4903, V-B:GLU:543:CB:9875, V-B:HIS:456:CE1:9038, V-B:HIS:456:CD2:9036, V-B:TYR:539:CZ:9846, V-B:ASP:366:CG:8181, V-B:GLU:543:CD:9877, V-A:TYR:484:CZ:4343, V-B:TYR:539:CE2:9845, V-A:LEU:475:CD1:4254, V-A:ILE:369:CB:3232, V-B:ILE:369:CD1:8207, V-A:ILE:369:CG2:3233, V-A:GLY:454:CA:4045, H-A:TYR:484:OH:4344, V-B:GLY:454:CA:9017, V-B:LYS:547:CD:9918, H-A:HIS:456:NE2:4067, V-A:LEU:475:CG:4253"]

$$$$
RR4_Rahimova_2017
     RDKit          3D

 40 44  0  0  0  0  0  0  0  0999 V2000
  128.5700  127.3860   73.8520 C   0  0  0  0  0  0  0  0  0  0  0  0
  129.6910  127.0430   73.0450 O   0  0  0  0  0  0  0  0  0  0  0  0
  129.5830  127.1290   71.6700 C   0  0  0  0  0  0  0  0  0  0  0  0
  128.4400  126.5760   71.0970 C   0  0  0  0  0  0  0  0  0  0  0  0
  128.2460  126.6170   69.7200 C   0  0  0  0  0  0  0  0  0  0  0  0
  129.1930  127.2120   68.8730 C   0  0  0  0  0  0  0  0  0  0  0  0
  128.9800  127.2530   67.3860 C   0  0  0  0  0  0  0  0  0  0  0  0
  128.0720  128.1240   66.7750 C   0  0  0  0  0  0  0  0  0  0  0  0
  127.9130  128.1280   65.3830 C   0  0  0  0  0  0  0  0  0  0  0  0
  126.9460  129.1050   64.7990 C   0  0  0  0  0  0  0  0  0  0  0  0
  125.5700  128.8850   64.9140 C   0  0  0  0  0  0  0  0  0  0  0  0
  124.6620  129.7970   64.3830 C   0  0  0  0  0  0  0  0  0  0  0  0
  125.1090  130.9470   63.7330 C   0  0  0  0  0  0  0  0  0  0  0  0
  124.1360  131.7940   63.2390 O   0  0  0  0  0  0  0  0  0  0  0  0
  123.8230  131.7570   61.8500 C   0  0  0  0  0  0  0  0  0  0  0  0
  126.4890  131.1750   63.6210 C   0  0  0  0  0  0  0  0  0  0  0  0
  127.3960  130.2620   64.1530 C   0  0  0  0  0  0  0  0  0  0  0  0
  128.6710  127.2100   64.6150 C   0  0  0  0  0  0  0  0  0  0  0  0
  128.5440  127.1730   63.1550 C   0  0  0  0  0  0  0  0  0  0  0  0
  128.4430  127.1430   62.0020 N   0  0  0  0  0  0  0  0  0  0  0  0
  129.5480  126.3390   65.3010 C   0  0  0  0  0  0  0  0  0  0  0  0
  130.5650  125.1160   64.5000 S   0  0  0  0  0  0  0  0  0  0  0  0
  129.4780  123.7550   63.9600 C   0  0  0  0  0  0  0  0  0  0  0  0
  129.4910  123.4910   62.4480 C   0  0  0  0  0  0  0  0  0  0  0  0
  130.5470  123.2320   61.8670 O   0  0  0  0  0  0  0  0  0  0  0  0
  128.2820  123.5830   61.8460 N   0  0  0  0  0  0  0  0  0  0  0  0
  127.9670  123.3980   60.4980 C   0  0  0  0  0  0  0  0  0  0  0  0
  129.1740  123.3190   59.2430 S   0  0  0  0  0  0  0  0  0  0  0  0
  127.9650  123.1010   58.0160 C   0  0  0  0  0  0  0  0  0  0  0  0
  126.6720  123.0940   58.5610 C   0  0  0  0  0  0  0  0  0  0  0  0
  126.6760  123.2470   59.9690 C   0  0  0  0  0  0  0  0  0  0  0  0
  125.4620  123.2540   60.7800 C   0  0  0  0  0  0  0  0  0  0  0  0
  124.5000  123.2610   61.4220 N   0  0  0  0  0  0  0  0  0  0  0  0
  125.4330  122.8790   57.6840 C   0  0  0  0  0  0  0  0  0  0  0  0
  125.8320  122.2970   56.3090 C   0  0  0  0  0  0  0  0  0  0  0  0
  127.0350  123.0340   55.6940 C   0  0  0  0  0  0  0  0  0  0  0  0
  128.3100  122.8760   56.5490 C   0  0  0  0  0  0  0  0  0  0  0  0
  129.7060  126.3780   66.6440 N   0  0  0  0  0  0  0  0  0  0  0  0
  130.3390  127.7700   69.4600 C   0  0  0  0  0  0  0  0  0  0  0  0
  130.5370  127.7300   70.8370 C   0  0  0  0  0  0  0  0  0  0  0  0
  1  2  1  0
  2  3  1  0
  3  4  2  0
  4  5  1  0
  5  6  2  0
  6  7  1  0
  7  8  2  0
  8  9  1  0
  9 10  1  0
 10 11  2  0
 11 12  1  0
 12 13  2  0
 13 14  1  0
 14 15  1  0
 13 16  1  0
 16 17  2  0
  9 18  2  0
 18 19  1  0
 19 20  3  0
 18 21  1  0
 21 22  1  0
 22 23  1  0
 23 24  1  0
 24 25  2  0
 24 26  1  0
 26 27  1  0
 27 28  1  0
 28 29  1  0
 29 30  2  0
 30 31  1  0
 31 32  1  0
 32 33  3  0
 30 34  1  0
 34 35  1  0
 35 36  1  0
 36 37  1  0
 21 38  2  0
  6 39  1  0
 39 40  2  0
 40  3  1  0
 38  7  1  0
 17 10  1  0
 31 27  2  0
 37 29  1  0
M  END
>  <Binding energies>  (52) 
[-12.5]

>  <Ligand effiencies>  (52) 
[-0.3048780487804878]

>  <Interactions>  (52) 
["V-A:GLU:543:CD:4905, V-B:LYS:547:CE:9919, V-A:LYS:547:CE:4947, H-A:LYS:547:NZ:4948, V-A:GLY:544:C:4909, V-A:HIS:456:CE1:4066, V-A:GLU:543:C:4899, V-A:HIS:456:CD2:4064, V-B:HIS:456:CE1:9038, V-B:HIS:456:CD2:9036, V-B:TYR:539:CE1:9844, V-B:MET:535:CE:9804, V-B:PRO:540:CA:9852, V-B:TYR:539:CZ:9846, V-B:PRO:540:N:9853, V-B:PRO:540:C:9850, V-B:PRO:540:CB:9854, V-B:ASP:366:CG:8181, V-B:LEU:363:CD1:8157, V-B:ALA:541:CB:9861, H-B:GLU:543:OE2:9879, V-B:GLU:543:CD:9877, V-B:GLU:543:CG:9876, V-B:TYR:539:CE2:9845, V-A:GLU:543:CG:4904, H-B:ALA:541:N:9860, V-B:ILE:538:CG2:9832, V-B:ILE:538:CB:9831, V-B:PRO:540:CD:9856, V-B:ILE:369:CD1:8207, V-B:TYR:539:CD1:9842, V-B:ARG:545:CZ:9895, H-B:GLY:454:N:9018"]

$$$$
RR6_Rahimova_2017
     RDKit          3D

 38 41  0  0  0  0  0  0  0  0999 V2000
  127.9030  122.5440   55.0080 C   0  0  0  0  0  0  0  0  0  0  0  0
  127.3220  121.7620   56.0420 O   0  0  0  0  0  0  0  0  0  0  0  0
  126.4270  122.3030   56.9080 C   0  0  0  0  0  0  0  0  0  0  0  0
  125.2400  122.4970   56.6260 O   0  0  0  0  0  0  0  0  0  0  0  0
  127.0240  122.6420   58.2440 C   0  0  0  0  0  0  0  0  0  0  0  0
  128.2540  122.1160   58.6640 C   0  0  0  0  0  0  0  0  0  0  0  0
  128.7770  122.4440   59.9130 C   0  0  0  0  0  0  0  0  0  0  0  0
  128.0720  123.3040   60.7670 C   0  0  0  0  0  0  0  0  0  0  0  0
  128.4940  123.6780   62.0570 N   0  0  0  0  0  0  0  0  0  0  0  0
  129.5880  123.2860   62.7460 C   0  0  0  0  0  0  0  0  0  0  0  0
  130.4490  122.5060   62.3370 O   0  0  0  0  0  0  0  0  0  0  0  0
  129.7010  123.8320   64.1740 C   0  0  0  0  0  0  0  0  0  0  0  0
  130.5410  125.4470   64.2770 S   0  0  0  0  0  0  0  0  0  0  0  0
  129.4470  126.5400   65.1610 C   0  0  0  0  0  0  0  0  0  0  0  0
  129.5080  126.4200   66.5090 N   0  0  0  0  0  0  0  0  0  0  0  0
  128.7410  127.2200   67.2910 C   0  0  0  0  0  0  0  0  0  0  0  0
  128.9130  127.0670   68.7740 C   0  0  0  0  0  0  0  0  0  0  0  0
  129.9600  127.7120   69.4500 C   0  0  0  0  0  0  0  0  0  0  0  0
  130.1270  127.5590   70.8240 C   0  0  0  0  0  0  0  0  0  0  0  0
  129.2440  126.7590   71.5490 C   0  0  0  0  0  0  0  0  0  0  0  0
  129.4360  126.5880   73.0450 C   0  0  0  0  0  0  0  0  0  0  0  0
  128.1980  126.1120   70.8970 C   0  0  0  0  0  0  0  0  0  0  0  0
  128.0350  126.2690   69.5250 C   0  0  0  0  0  0  0  0  0  0  0  0
  127.8770  128.1610   66.7210 C   0  0  0  0  0  0  0  0  0  0  0  0
  127.7930  128.3010   65.3290 C   0  0  0  0  0  0  0  0  0  0  0  0
  126.8630  129.3380   64.7890 C   0  0  0  0  0  0  0  0  0  0  0  0
  127.3430  130.6100   64.4620 C   0  0  0  0  0  0  0  0  0  0  0  0
  126.4870  131.5780   63.9420 C   0  0  0  0  0  0  0  0  0  0  0  0
  125.1390  131.2920   63.7350 C   0  0  0  0  0  0  0  0  0  0  0  0
  124.3650  132.3120   63.2140 O   0  0  0  0  0  0  0  0  0  0  0  0
  124.1370  132.3610   61.8100 C   0  0  0  0  0  0  0  0  0  0  0  0
  124.6530  130.0150   64.0560 C   0  0  0  0  0  0  0  0  0  0  0  0
  125.5120  129.0500   64.5740 C   0  0  0  0  0  0  0  0  0  0  0  0
  128.5960  127.4620   64.5180 C   0  0  0  0  0  0  0  0  0  0  0  0
  128.5360  127.5370   63.0550 C   0  0  0  0  0  0  0  0  0  0  0  0
  128.4900  127.5970   61.9000 N   0  0  0  0  0  0  0  0  0  0  0  0
  126.8560  123.8430   60.3460 C   0  0  0  0  0  0  0  0  0  0  0  0
  126.3340  123.5120   59.0980 C   0  0  0  0  0  0  0  0  0  0  0  0
  1  2  1  0
  2  3  1  0
  3  4  2  0
  3  5  1  0
  5  6  2  0
  6  7  1  0
  7  8  2  0
  8  9  1  0
  9 10  1  0
 10 11  2  0
 10 12  1  0
 12 13  1  0
 13 14  1  0
 14 15  2  0
 15 16  1  0
 16 17  1  0
 17 18  2  0
 18 19  1  0
 19 20  2  0
 20 21  1  0
 20 22  1  0
 22 23  2  0
 16 24  2  0
 24 25  1  0
 25 26  1  0
 26 27  2  0
 27 28  1  0
 28 29  2  0
 29 30  1  0
 30 31  1  0
 29 32  1  0
 32 33  2  0
 25 34  2  0
 34 35  1  0
 35 36  3  0
  8 37  1  0
 37 38  2  0
 38  5  1  0
 34 14  1  0
 23 17  1  0
 33 26  1  0
M  END
>  <Binding energies>  (53) 
[-10.7]

>  <Ligand effiencies>  (53) 
[-0.27435897435897433]

>  <Interactions>  (53) 
["V-A:GLU:543:CD:4905, V-B:GLU:543:C:9871, V-B:LYS:547:CE:9919, V-A:HIS:456:CE1:4066, V-A:HIS:456:CD2:4064, V-B:GLU:543:CB:9875, V-B:HIS:456:CE1:9038, V-B:GLY:544:C:9881, V-B:TYR:539:CE1:9844, V-B:MET:535:CE:9804, V-B:PRO:540:CA:9852, V-B:TYR:539:CZ:9846, V-B:PRO:540:N:9853, V-B:PRO:540:CB:9854, H-B:TYR:539:N:9839, V-B:ALA:541:CB:9861, H-B:GLU:543:OE2:9879, V-B:GLU:543:CD:9877, V-B:GLU:543:CG:9876, V-B:TYR:539:CE2:9845, V-A:GLU:543:CG:4904, V-B:ILE:538:CG2:9832, V-B:ILE:538:CB:9831, V-B:PRO:540:CD:9856, V-B:TYR:539:C:9836, V-B:TYR:539:CD2:9843, V-B:ILE:369:CD1:8207, V-B:ILE:538:CA:9829, V-B:TYR:539:CD1:9842, V-B:TYR:539:CG:9841, V-B:ARG:545:CZ:9895, H-B:GLY:454:N:9018"]

$$$$
RR7_Rahimova_2017
     RDKit          3D

 47 53  0  0  0  0  0  0  0  0999 V2000
  133.5380  130.6330   58.5310 C   0  0  0  0  0  0  0  0  0  0  0  0
  132.7770  130.6230   59.7350 O   0  0  0  0  0  0  0  0  0  0  0  0
  131.4200  130.8730   59.6750 C   0  0  0  0  0  0  0  0  0  0  0  0
  130.6100  130.1230   60.5260 C   0  0  0  0  0  0  0  0  0  0  0  0
  129.2310  130.3090   60.5390 C   0  0  0  0  0  0  0  0  0  0  0  0
  128.6250  131.2460   59.6890 C   0  0  0  0  0  0  0  0  0  0  0  0
  127.0860  131.4990   59.7060 C   0  0  0  0  0  0  0  0  0  0  0  0
  126.5450  130.6470   60.7420 O   0  0  0  0  0  0  0  0  0  0  0  0
  125.1710  130.7660   61.1230 C   0  0  0  0  0  0  0  0  0  0  0  0
  125.0460  130.5070   62.6340 C   0  0  1  0  0  0  0  0  0  0  0  0
  125.6870  129.2610   62.8930 O   0  0  0  0  0  0  0  0  0  0  0  0
  126.7340  129.3930   63.8100 C   0  0  1  0  0  0  0  0  0  0  0  0
  127.7900  128.4470   63.5020 N   0  0  0  0  0  0  0  0  0  0  0  0
  128.0380  127.8070   62.3010 C   0  0  0  0  0  0  0  0  0  0  0  0
  129.0370  126.9600   62.3110 N   0  0  0  0  0  0  0  0  0  0  0  0
  129.4730  126.9860   63.6080 C   0  0  0  0  0  0  0  0  0  0  0  0
  130.5050  126.2920   64.2700 C   0  0  0  0  0  0  0  0  0  0  0  0
  131.2950  125.3920   63.5310 N   0  0  0  0  0  0  0  0  0  0  0  0
  132.4430  124.7710   63.8920 C   0  0  0  0  0  0  0  0  0  0  0  0
  133.0050  124.9270   64.9780 O   0  0  0  0  0  0  0  0  0  0  0  0
  133.0520  123.8600   62.8470 C   0  0  0  0  0  0  0  0  0  0  0  0
  134.1670  124.2930   62.1130 C   0  0  0  0  0  0  0  0  0  0  0  0
  134.7450  123.4700   61.1510 C   0  0  0  0  0  0  0  0  0  0  0  0
  134.2170  122.2040   60.9180 C   0  0  0  0  0  0  0  0  0  0  0  0
  133.1140  121.7540   61.6390 C   0  0  0  0  0  0  0  0  0  0  0  0
  132.5340  122.5770   62.6000 C   0  0  0  0  0  0  0  0  0  0  0  0
  130.7060  126.5090   65.6050 N   0  0  0  0  0  0  0  0  0  0  0  0
  129.8890  127.3940   66.2330 C   0  0  0  0  0  0  0  0  0  0  0  0
  128.8710  128.1160   65.6940 N   0  0  0  0  0  0  0  0  0  0  0  0
  128.7020  127.8880   64.3850 C   0  0  0  0  0  0  0  0  0  0  0  0
  127.1450  130.8590   63.7430 C   0  0  0  0  0  0  0  0  0  0  0  0
  125.7890  131.5100   63.5280 C   0  0  2  0  0  0  0  0  0  0  0  0
  125.1130  131.7480   64.7510 O   0  0  0  0  0  0  0  0  0  0  0  0
  126.7310  132.9600   60.0910 C   0  0  0  0  0  0  0  0  0  0  0  0
  125.4530  133.4730   59.8200 C   0  0  0  0  0  0  0  0  0  0  0  0
  125.1280  134.7850   60.1480 C   0  0  0  0  0  0  0  0  0  0  0  0
  126.0820  135.6010   60.7490 C   0  0  0  0  0  0  0  0  0  0  0  0
  127.3550  135.1140   61.0260 C   0  0  0  0  0  0  0  0  0  0  0  0
  127.6790  133.8010   60.6980 C   0  0  0  0  0  0  0  0  0  0  0  0
  126.3400  131.2260   58.3690 C   0  0  0  0  0  0  0  0  0  0  0  0
  127.0510  131.1540   57.1610 C   0  0  0  0  0  0  0  0  0  0  0  0
  126.3920  130.9210   55.9580 C   0  0  0  0  0  0  0  0  0  0  0  0
  125.0090  130.7640   55.9500 C   0  0  0  0  0  0  0  0  0  0  0  0
  124.2820  130.8440   57.1340 C   0  0  0  0  0  0  0  0  0  0  0  0
  124.9430  131.0780   58.3350 C   0  0  0  0  0  0  0  0  0  0  0  0
  129.4460  132.0080   58.8450 C   0  0  0  0  0  0  0  0  0  0  0  0
  130.8260  131.8230   58.8320 C   0  0  0  0  0  0  0  0  0  0  0  0
  1  2  1  0
  2  3  1  0
  3  4  2  0
  4  5  1  0
  5  6  2  0
  6  7  1  0
  7  8  1  0
  8  9  1  0
 10  9  1  6
 10 11  1  0
 11 12  1  0
 12 13  1  6
 13 14  1  0
 14 15  2  0
 15 16  1  0
 16 17  2  0
 17 18  1  0
 18 19  1  0
 19 20  2  0
 19 21  1  0
 21 22  2  0
 22 23  1  0
 23 24  2  0
 24 25  1  0
 25 26  2  0
 17 27  1  0
 27 28  2  0
 28 29  1  0
 29 30  2  0
 12 31  1  0
 31 32  1  0
 32 33  1  1
  7 34  1  0
 34 35  2  0
 35 36  1  0
 36 37  2  0
 37 38  1  0
 38 39  2  0
  7 40  1  0
 40 41  2  0
 41 42  1  0
 42 43  2  0
 43 44  1  0
 44 45  2  0
  6 46  1  0
 46 47  2  0
 47  3  1  0
 32 10  1  0
 39 34  1  0
 45 40  1  0
 30 13  1  0
 30 16  1  0
 26 21  1  0
M  END
>  <Binding energies>  (54) 
[-9.87]

>  <Ligand effiencies>  (54) 
[-0.2014285714285714]

>  <Interactions>  (54) 
["V-A:TYR:539:CD2:4871, V-A:PRO:540:CB:4882, V-A:ALA:541:CB:4889, V-A:PRO:540:CA:4880, V-A:PRO:540:N:4881, V-A:TYR:539:C:4864, V-B:TRP:381:CZ2:8338, V-B:TRP:381:CH2:8340, V-A:ASP:366:CB:3208, V-A:LEU:363:CA:3181, V-A:ASP:366:CG:3209, V-A:GLU:543:CD:4905, V-A:ASN:362:C:3168, V-A:TYR:539:CE2:4873, V-B:LEU:475:CD2:9227, V-A:GLU:543:CB:4903, V-B:ASP:366:CA:8178, V-B:ASP:366:CB:8180, V-B:TYR:531:CZ:9763, V-B:ILE:369:CG2:8205, V-B:ASP:366:CG:8181, V-A:TYR:539:CZ:4874, V-B:GLU:543:CD:9877, V-B:TYR:539:CE2:9845, V-A:LEU:475:CD1:4254, V-A:ILE:369:CG1:3234, V-A:ILE:369:CB:3232, H-A:GLY:454:N:4046, V-A:ILE:369:CG2:3233, V-A:GLY:454:CA:4045, V-A:GLY:453:C:4038, V-A:GLY:453:CA:4040, H-A:TYR:484:OH:4344, H-B:ARG:545:NH2:9897, H-B:TYR:484:OH:9316, H-B:GLY:454:N:9018, V-B:TYR:531:CE1:9761, V-A:LEU:363:CB:3183, V-B:TRP:381:CZ3:8339, V-B:ASP:366:C:8176"]

$$$$
RR8_A_Rahimova_2017
     RDKit          3D

 42 46  0  0  0  0  0  0  0  0999 V2000
  130.6910  127.2500   63.6350 O   0  0  0  0  0  0  0  0  0  0  0  0
  129.5920  127.1370   63.0820 C   0  0  0  0  0  0  0  0  0  0  0  0
  129.3670  126.4040   61.9480 O   0  0  0  0  0  0  0  0  0  0  0  0
  128.9500  125.0760   62.1080 C   0  0  1  0  0  0  0  0  0  0  0  0
  129.3500  124.2770   61.0320 O   0  0  0  0  0  0  0  0  0  0  0  0
  129.7470  122.9760   61.4580 C   0  0  2  0  0  0  0  0  0  0  0  0
  128.9140  121.9340   60.6930 C   0  0  0  0  0  0  0  0  0  0  0  0
  127.5730  122.3950   60.6040 O   0  0  0  0  0  0  0  0  0  0  0  0
  127.2230  122.9110   59.3260 C   0  0  0  0  0  0  0  0  0  0  0  0
  125.8710  123.6050   59.4030 C   0  0  0  0  0  0  0  0  0  0  0  0
  125.3200  124.1860   58.2580 C   0  0  0  0  0  0  0  0  0  0  0  0
  124.0790  124.8160   58.3240 C   0  0  0  0  0  0  0  0  0  0  0  0
  123.3910  124.8600   59.5350 C   0  0  0  0  0  0  0  0  0  0  0  0
  123.9300  124.2780   60.6800 C   0  0  0  0  0  0  0  0  0  0  0  0
  125.1700  123.6470   60.6130 C   0  0  0  0  0  0  0  0  0  0  0  0
  129.5320  123.0070   62.9770 C   0  0  1  0  0  0  0  0  0  0  0  0
  130.5480  122.3170   63.7020 O   0  0  0  0  0  0  0  0  0  0  0  0
  131.7300  123.0630   63.9680 C   0  0  0  0  0  0  0  0  0  0  0  0
  132.6800  122.9710   62.7820 C   0  0  0  0  0  0  0  0  0  0  0  0
  132.7530  121.7880   62.0410 C   0  0  0  0  0  0  0  0  0  0  0  0
  133.6250  121.6940   60.9610 C   0  0  0  0  0  0  0  0  0  0  0  0
  134.4270  122.7830   60.6240 C   0  0  0  0  0  0  0  0  0  0  0  0
  134.3670  123.9630   61.3610 C   0  0  0  0  0  0  0  0  0  0  0  0
  133.4950  124.0570   62.4430 C   0  0  0  0  0  0  0  0  0  0  0  0
  129.6570  124.4810   63.3180 C   0  0  2  0  0  0  0  0  0  0  0  0
  129.0120  124.7670   64.5560 O   0  0  0  0  0  0  0  0  0  0  0  0
  129.7710  124.4850   65.7260 C   0  0  0  0  0  0  0  0  0  0  0  0
  129.7910  125.7040   66.6370 C   0  0  0  0  0  0  0  0  0  0  0  0
  128.7720  125.8980   67.5750 C   0  0  0  0  0  0  0  0  0  0  0  0
  128.8000  127.0100   68.4130 C   0  0  0  0  0  0  0  0  0  0  0  0
  129.8470  127.9230   68.3130 C   0  0  0  0  0  0  0  0  0  0  0  0
  130.8690  127.7340   67.3860 C   0  0  0  0  0  0  0  0  0  0  0  0
  130.8420  126.6220   66.5470 C   0  0  0  0  0  0  0  0  0  0  0  0
  128.3450  127.7930   63.6030 C   0  0  0  0  0  0  0  0  0  0  0  0
  128.2390  128.2350   64.9310 C   0  0  0  0  0  0  0  0  0  0  0  0
  127.0690  128.8390   65.3840 C   0  0  0  0  0  0  0  0  0  0  0  0
  125.9770  129.0150   64.5250 C   0  0  0  0  0  0  0  0  0  0  0  0
  124.7320  129.6590   65.0090 N   0  0  0  0  0  0  0  0  0  0  0  0
  124.0860  130.3510   64.2280 O   0  0  0  0  0  0  0  0  0  0  0  0
  124.3900  129.4780   66.1740 O   0  0  0  0  0  0  0  0  0  0  0  0
  126.0830  128.5710   63.2010 C   0  0  0  0  0  0  0  0  0  0  0  0
  127.2510  127.9670   62.7460 C   0  0  0  0  0  0  0  0  0  0  0  0
  1  2  2  0
  2  3  1  0
  4  3  1  6
  4  5  1  0
  5  6  1  0
  6  7  1  6
  7  8  1  0
  8  9  1  0
  9 10  1  0
 10 11  2  0
 11 12  1  0
 12 13  2  0
 13 14  1  0
 14 15  2  0
  6 16  1  0
 16 17  1  1
 17 18  1  0
 18 19  1  0
 19 20  2  0
 20 21  1  0
 21 22  2  0
 22 23  1  0
 23 24  2  0
 16 25  1  0
 25 26  1  1
 26 27  1  0
 27 28  1  0
 28 29  2  0
 29 30  1  0
 30 31  2  0
 31 32  1  0
 32 33  2  0
  2 34  1  0
 34 35  2  0
 35 36  1  0
 36 37  2  0
 37 38  1  0
 38 39  2  0
 38 40  1  0
 37 41  1  0
 41 42  2  0
 25  4  1  0
 33 28  1  0
 42 34  1  0
 15 10  1  0
 24 19  1  0
M  CHG  2  38   1  40  -1
M  END
>  <Binding energies>  (55) 
[-9.88]

>  <Ligand effiencies>  (55) 
[-0.23523809523809525]

>  <Interactions>  (55) 
["V-A:ASP:366:CG:3209, V-A:GLU:543:CD:4905, V-A:HIS:456:CE1:4066, V-A:GLU:543:CB:4903, V-B:GLU:543:CB:9875, V-B:HIS:456:CE1:9038, V-B:ASP:366:CB:8180, V-B:ASN:362:CB:8144, V-B:PRO:540:CA:9852, V-B:ASN:362:C:8140, V-B:PRO:540:N:9853, V-B:PRO:540:CB:9854, V-B:ASP:366:CG:8181, V-B:LEU:363:CD1:8157, V-B:LEU:363:CA:8153, V-B:ALA:541:CB:9861, V-B:GLU:543:CD:9877, V-B:GLU:543:CG:9876, V-A:TYR:484:CZ:4343, H-A:ARG:545:NH2:4925, V-B:TYR:539:CE2:9845, V-A:TYR:484:CE1:4341, H-B:ALA:541:N:9860, V-A:LEU:475:CD1:4254, V-A:ILE:369:CG1:3234, V-A:ILE:369:CB:3232, V-B:TYR:539:CD2:9843, V-A:ILE:369:CG2:3233, V-A:GLY:454:CA:4045, V-B:ARG:545:CZ:9895, V-A:GLY:453:CA:4040, H-B:ARG:545:NE:9893, H-B:TYR:484:OH:9316, H-B:GLY:454:N:9018, H-B:HIS:456:ND1:9035"]

$$$$
RR8_B_Rahimova_2017
     RDKit          3D

 42 46  0  0  0  0  0  0  0  0999 V2000
  131.4330  124.9990   60.8360 O   0  0  0  0  0  0  0  0  0  0  0  0
  130.5910  125.4540   60.0550 C   0  0  0  0  0  0  0  0  0  0  0  0
  130.2490  126.7750   59.9710 O   0  0  0  0  0  0  0  0  0  0  0  0
  130.4860  127.5950   61.0890 C   0  0  2  0  0  0  0  0  0  0  0  0
  129.4700  127.4800   62.0450 O   0  0  0  0  0  0  0  0  0  0  0  0
  128.4460  128.4520   61.8370 C   0  0  2  0  0  0  0  0  0  0  0  0
  127.0960  127.7400   61.6350 C   0  0  0  0  0  0  0  0  0  0  0  0
  127.1620  126.9350   60.4650 O   0  0  0  0  0  0  0  0  0  0  0  0
  127.0810  125.5360   60.6970 C   0  0  0  0  0  0  0  0  0  0  0  0
  125.8980  124.9690   59.9270 C   0  0  0  0  0  0  0  0  0  0  0  0
  125.7660  125.2360   58.5610 C   0  0  0  0  0  0  0  0  0  0  0  0
  124.6720  124.7400   57.8560 C   0  0  0  0  0  0  0  0  0  0  0  0
  123.7140  123.9760   58.5200 C   0  0  0  0  0  0  0  0  0  0  0  0
  123.8420  123.7010   59.8790 C   0  0  0  0  0  0  0  0  0  0  0  0
  124.9340  124.1990   60.5850 C   0  0  0  0  0  0  0  0  0  0  0  0
  128.9420  129.2760   60.6430 C   0  0  1  0  0  0  0  0  0  0  0  0
  128.5610  130.6450   60.8060 O   0  0  0  0  0  0  0  0  0  0  0  0
  127.4880  131.1230   59.9900 C   0  0  0  0  0  0  0  0  0  0  0  0
  127.1740  132.5930   60.2520 C   0  0  0  0  0  0  0  0  0  0  0  0
  125.8930  133.0920   59.9990 C   0  0  0  0  0  0  0  0  0  0  0  0
  125.6000  134.4260   60.2690 C   0  0  0  0  0  0  0  0  0  0  0  0
  126.5910  135.2580   60.7880 C   0  0  0  0  0  0  0  0  0  0  0  0
  127.8710  134.7680   61.0390 C   0  0  0  0  0  0  0  0  0  0  0  0
  128.1630  133.4330   60.7720 C   0  0  0  0  0  0  0  0  0  0  0  0
  130.4510  129.0620   60.6630 C   0  0  2  0  0  0  0  0  0  0  0  0
  131.0040  129.2980   59.3700 O   0  0  0  0  0  0  0  0  0  0  0  0
  131.8290  130.4470   59.2570 C   0  0  0  0  0  0  0  0  0  0  0  0
  131.4200  131.2050   58.0060 C   0  0  0  0  0  0  0  0  0  0  0  0
  132.3610  131.4880   57.0120 C   0  0  0  0  0  0  0  0  0  0  0  0
  131.9790  132.2000   55.8780 C   0  0  0  0  0  0  0  0  0  0  0  0
  130.6600  132.6270   55.7420 C   0  0  0  0  0  0  0  0  0  0  0  0
  129.7160  132.3460   56.7280 C   0  0  0  0  0  0  0  0  0  0  0  0
  130.0970  131.6340   57.8610 C   0  0  0  0  0  0  0  0  0  0  0  0
  129.8000  124.5960   59.1110 C   0  0  0  0  0  0  0  0  0  0  0  0
  129.5180  125.0060   57.7990 C   0  0  0  0  0  0  0  0  0  0  0  0
  128.7750  124.1950   56.9490 C   0  0  0  0  0  0  0  0  0  0  0  0
  128.2860  122.9590   57.3900 C   0  0  0  0  0  0  0  0  0  0  0  0
  127.4700  122.1060   56.4890 N   0  0  0  0  0  0  0  0  0  0  0  0
  126.3610  121.7410   56.8690 O   0  0  0  0  0  0  0  0  0  0  0  0
  127.9320  121.8000   55.3920 O   0  0  0  0  0  0  0  0  0  0  0  0
  128.5730  122.5470   58.6970 C   0  0  0  0  0  0  0  0  0  0  0  0
  129.3220  123.3540   59.5460 C   0  0  0  0  0  0  0  0  0  0  0  0
  1  2  2  0
  2  3  1  0
  4  3  1  6
  4  5  1  0
  5  6  1  0
  6  7  1  6
  7  8  1  0
  8  9  1  0
  9 10  1  0
 10 11  2  0
 11 12  1  0
 12 13  2  0
 13 14  1  0
 14 15  2  0
  6 16  1  0
 16 17  1  1
 17 18  1  0
 18 19  1  0
 19 20  2  0
 20 21  1  0
 21 22  2  0
 22 23  1  0
 23 24  2  0
 16 25  1  0
 25 26  1  6
 26 27  1  0
 27 28  1  0
 28 29  2  0
 29 30  1  0
 30 31  2  0
 31 32  1  0
 32 33  2  0
  2 34  1  0
 34 35  2  0
 35 36  1  0
 36 37  2  0
 37 38  1  0
 38 39  2  0
 38 40  1  0
 37 41  1  0
 41 42  2  0
 25  4  1  0
 33 28  1  0
 42 34  1  0
 15 10  1  0
 24 19  1  0
M  CHG  2  38   1  40  -1
M  END
>  <Binding energies>  (56) 
[-9.48]

>  <Ligand effiencies>  (56) 
[-0.22571428571428573]

>  <Interactions>  (56) 
["V-A:TYR:539:CD2:4871, V-A:PRO:540:CB:4882, V-A:ALA:541:CB:4889, V-A:PRO:540:CA:4880, V-A:PRO:540:N:4881, V-A:LEU:363:CD1:3185, V-A:TYR:539:C:4864, V-B:TRP:381:CZ2:8338, V-B:TRP:381:CH2:8340, V-A:TYR:539:CE2:4873, V-B:LEU:475:CD2:9227, V-A:ILE:538:CD1:4862, V-B:TYR:539:CE1:9844, V-B:MET:535:CE:9804, V-B:PRO:540:CA:9852, V-B:TYR:539:CZ:9846, V-B:ASN:362:C:8140, V-B:PRO:540:N:9853, V-B:ILE:369:CG2:8205, V-B:PRO:540:CB:9854, H-B:TYR:539:N:9839, V-B:LEU:363:CD1:8157, V-B:LEU:363:CA:8153, V-A:ILE:538:CG2:4860, V-A:PRO:540:CD:4884, V-B:TYR:539:CE2:9845, V-B:TYR:539:C:9836, V-B:TYR:539:CD2:9843, V-A:ILE:538:CA:4857, V-B:ILE:538:CA:9829, V-B:TYR:539:CD1:9842, V-B:TYR:539:CG:9841, V-B:LEU:363:CB:8155, V-A:ALA:541:CA:4887, V-B:TYR:539:CA:9838"]

$$$$
RR9_Rahimova_2017
     RDKit          3D

 36 40  0  0  0  0  0  0  0  0999 V2000
  124.0960  133.3000   62.5280 C   0  0  0  0  0  0  0  0  0  0  0  0
  123.6780  131.8260   62.5180 C   0  0  0  0  0  0  0  0  0  0  0  0
  124.1540  131.2070   63.7090 O   0  0  0  0  0  0  0  0  0  0  0  0
  125.1740  130.2780   63.6300 C   0  0  0  0  0  0  0  0  0  0  0  0
  125.6190  129.9490   62.3510 C   0  0  0  0  0  0  0  0  0  0  0  0
  126.6400  129.0210   62.1730 C   0  0  0  0  0  0  0  0  0  0  0  0
  127.2470  128.3950   63.2720 C   0  0  0  0  0  0  0  0  0  0  0  0
  128.3450  127.3910   63.0850 C   0  0  0  0  0  0  0  0  0  0  0  0
  128.2330  126.3410   62.1600 C   0  0  0  0  0  0  0  0  0  0  0  0
  129.2720  125.4090   61.9800 C   0  0  0  0  0  0  0  0  0  0  0  0
  129.1330  124.3680   60.9020 C   0  0  0  0  0  0  0  0  0  0  0  0
  129.8270  124.4270   59.8870 O   0  0  0  0  0  0  0  0  0  0  0  0
  128.2040  123.4170   61.1230 N   0  0  0  0  0  0  0  0  0  0  0  0
  127.7940  122.3790   60.1710 C   0  0  0  0  0  0  0  0  0  0  0  0
  127.1080  122.9510   58.9090 C   0  0  0  0  0  0  0  0  0  0  0  0
  125.7790  123.6510   59.1680 C   0  0  0  0  0  0  0  0  0  0  0  0
  125.2250  123.6520   60.4520 C   0  0  0  0  0  0  0  0  0  0  0  0
  124.0280  124.3220   60.6920 C   0  0  0  0  0  0  0  0  0  0  0  0
  123.3860  124.9830   59.6480 C   0  0  0  0  0  0  0  0  0  0  0  0
  123.9300  124.9830   58.3650 C   0  0  0  0  0  0  0  0  0  0  0  0
  125.1280  124.3140   58.1240 C   0  0  0  0  0  0  0  0  0  0  0  0
  130.4110  125.5730   62.8050 C   0  0  0  0  0  0  0  0  0  0  0  0
  131.6760  124.9220   63.0530 C   0  0  0  0  0  0  0  0  0  0  0  0
  132.2180  123.6530   62.4820 C   0  0  0  0  0  0  0  0  0  0  0  0
  133.5650  123.5630   62.1200 C   0  0  0  0  0  0  0  0  0  0  0  0
  134.0650  122.3840   61.5720 C   0  0  0  0  0  0  0  0  0  0  0  0
  133.2190  121.2890   61.3890 C   0  0  0  0  0  0  0  0  0  0  0  0
  133.7590  120.0100   60.7750 C   0  0  0  0  0  0  0  0  0  0  0  0
  131.8730  121.3750   61.7470 C   0  0  0  0  0  0  0  0  0  0  0  0
  131.3760  122.5530   62.2970 C   0  0  0  0  0  0  0  0  0  0  0  0
  132.3780  125.5970   63.9350 N   0  0  0  0  0  0  0  0  0  0  0  0
  131.6360  126.6390   64.3430 N   0  0  0  0  0  0  0  0  0  0  0  0
  130.4210  126.6710   63.6990 C   0  0  0  0  0  0  0  0  0  0  0  0
  129.4470  127.5630   63.8680 N   0  0  0  0  0  0  0  0  0  0  0  0
  126.7920  128.7300   64.5550 C   0  0  0  0  0  0  0  0  0  0  0  0
  125.7710  129.6590   64.7360 C   0  0  0  0  0  0  0  0  0  0  0  0
  1  2  1  0
  2  3  1  0
  3  4  1  0
  4  5  2  0
  5  6  1  0
  6  7  2  0
  7  8  1  0
  8  9  2  0
  9 10  1  0
 10 11  1  0
 11 12  2  0
 11 13  1  0
 13 14  1  0
 14 15  1  0
 15 16  1  0
 16 17  2  0
 17 18  1  0
 18 19  2  0
 19 20  1  0
 20 21  2  0
 10 22  2  0
 22 23  1  0
 23 24  1  0
 24 25  2  0
 25 26  1  0
 26 27  2  0
 27 28  1  0
 27 29  1  0
 29 30  2  0
 23 31  2  0
 31 32  1  0
 32 33  1  0
 33 34  2  0
  7 35  1  0
 35 36  2  0
 36  4  1  0
 34  8  1  0
 21 16  1  0
 33 22  1  0
 30 24  1  0
M  END
>  <Binding energies>  (57) 
[-9.17]

>  <Ligand effiencies>  (57) 
[-0.2413157894736842]

>  <Interactions>  (57) 
["H-A:GLU:543:OE1:4906, V-A:GLU:543:CD:4905, V-B:LEU:475:CD2:9227, V-B:ASP:366:CB:8180, V-B:ASN:362:CB:8144, V-B:PRO:540:CA:9852, V-B:ASN:362:C:8140, V-B:PRO:540:N:9853, V-B:PRO:540:C:9850, V-B:PRO:540:CB:9854, V-B:ASP:366:CG:8181, V-B:LEU:363:CD1:8157, V-B:LEU:363:CA:8153, V-B:ALA:541:CB:9861, H-B:GLU:543:OE2:9879, V-B:GLU:543:CD:9877, V-A:ARG:545:CZ:4923, H-A:ARG:545:NH2:4925, V-B:TYR:539:CE2:9845, H-A:ARG:545:NE:4921, V-A:LEU:475:CD1:4254, V-A:ILE:369:CG1:3234, V-B:TYR:539:CD2:9843, V-B:ILE:369:CD1:8207, V-A:ILE:369:CG2:3233, V-A:GLY:454:CA:4045, H-B:GLY:454:N:9018, V-B:GLY:454:CA:9017"]

$$$$
