1a_Grossjean_2025
     RDKit          3D

 26 27  0  0  0  0  0  0  0  0999 V2000
  129.0100  123.6510   55.4690 C   0  0  0  0  0  0  0  0  0  0  0  0
  128.1050  122.5030   55.0120 C   0  0  0  0  0  0  0  0  0  0  0  0
  127.6760  121.7580   56.1450 O   0  0  0  0  0  0  0  0  0  0  0  0
  126.6190  122.1670   56.8930 C   0  0  0  0  0  0  0  0  0  0  0  0
  125.4480  122.1050   56.5080 O   0  0  0  0  0  0  0  0  0  0  0  0
  127.0180  122.7200   58.2310 C   0  0  0  0  0  0  0  0  0  0  0  0
  128.0890  122.1350   58.9210 C   0  0  0  0  0  0  0  0  0  0  0  0
  128.4800  122.6210   60.1650 C   0  0  0  0  0  0  0  0  0  0  0  0
  127.8110  123.6980   60.7460 C   0  0  0  0  0  0  0  0  0  0  0  0
  128.2890  124.1050   62.0070 N   0  0  0  0  0  0  0  0  0  0  0  0
  129.2430  125.0060   62.3240 C   0  0  0  0  0  0  0  0  0  0  0  0
  129.8970  125.6690   61.5190 O   0  0  0  0  0  0  0  0  0  0  0  0
  129.5000  125.1890   63.8210 C   0  0  0  0  0  0  0  0  0  0  0  0
  130.1100  123.6650   64.6030 S   0  0  0  0  0  0  0  0  0  0  0  0
  130.9200  122.7050   63.3420 C   0  0  0  0  0  0  0  0  0  0  0  0
  130.1550  121.7030   62.8420 N   0  0  0  0  0  0  0  0  0  0  0  0
  130.6760  120.9060   61.8790 C   0  0  0  0  0  0  0  0  0  0  0  0
  129.7680  119.7980   61.3780 C   0  0  0  0  0  0  0  0  0  0  0  0
  131.9620  121.0800   61.3730 C   0  0  0  0  0  0  0  0  0  0  0  0
  132.7510  122.1240   61.8670 C   0  0  0  0  0  0  0  0  0  0  0  0
  134.1520  122.3060   61.2860 C   0  0  0  0  0  0  0  0  0  0  0  0
  132.2270  122.9720   62.8700 C   0  0  0  0  0  0  0  0  0  0  0  0
  133.0170  124.1020   63.3680 C   0  0  0  0  0  0  0  0  0  0  0  0
  133.6420  124.9930   63.7590 N   0  0  0  0  0  0  0  0  0  0  0  0
  126.7430  124.2960   60.0590 C   0  0  0  0  0  0  0  0  0  0  0  0
  126.3520  123.8080   58.8160 C   0  0  0  0  0  0  0  0  0  0  0  0
  1  2  1  0
  2  3  1  0
  3  4  1  0
  4  5  2  0
  4  6  1  0
  6  7  2  0
  7  8  1  0
  8  9  2  0
  9 10  1  0
 10 11  1  0
 11 12  2  0
 11 13  1  0
 13 14  1  0
 14 15  1  0
 15 16  2  0
 16 17  1  0
 17 18  1  0
 17 19  2  0
 19 20  1  0
 20 21  1  0
 20 22  2  0
 22 23  1  0
 23 24  3  0
  9 25  1  0
 25 26  2  0
 26  6  1  0
 22 15  1  0
M  END
>  <Binding energies>  (1) 
[-7.77]

>  <Ligand effiencies>  (1) 
[-0.28777777777777774]

>  <Interactions>  (1) 
["V-B:TYR:539:CE1:9844, V-B:MET:535:CE:9804, V-B:PRO:540:CA:9852, V-B:TYR:539:CZ:9846, V-B:PRO:540:N:9853, V-B:PRO:540:CB:9854, H-B:TYR:539:N:9839, V-B:ALA:541:CB:9861, H-B:GLU:543:OE2:9879, V-B:GLU:543:CD:9877, V-B:GLU:543:CG:9876, H-A:ARG:545:NH2:4925, V-B:TYR:539:CE2:9845, V-B:ILE:538:CG2:9832, V-B:ILE:538:CB:9831, V-A:LEU:475:CD1:4254, V-B:PRO:540:CD:9856, V-A:ILE:369:CG1:3234, V-B:TYR:539:C:9836, V-B:TYR:539:CD2:9843, V-B:ILE:538:CA:9829, V-B:TYR:539:CD1:9842, V-B:TYR:539:CG:9841, H-A:GLY:454:N:4046, H-A:ARG:545:NH1:4924, V-A:ILE:369:CG2:3233, V-A:GLY:454:CA:4045, H-A:TYR:484:OH:4344, V-A:PRO:482:CG:4323"]

$$$$
1aa_Ghoteimi_2023
     RDKit          3D

 40 43  0  0  0  0  0  0  0  0999 V2000
  129.0020  123.6260   55.6490 C   0  0  0  0  0  0  0  0  0  0  0  0
  128.0710  122.5260   55.1320 C   0  0  0  0  0  0  0  0  0  0  0  0
  127.5450  121.7950   56.2330 O   0  0  0  0  0  0  0  0  0  0  0  0
  126.5250  122.2890   56.9790 C   0  0  0  0  0  0  0  0  0  0  0  0
  125.3560  122.3450   56.5830 O   0  0  0  0  0  0  0  0  0  0  0  0
  126.9570  122.7630   58.3370 C   0  0  0  0  0  0  0  0  0  0  0  0
  126.3140  123.8240   58.9930 C   0  0  0  0  0  0  0  0  0  0  0  0
  126.7370  124.2420   60.2520 C   0  0  0  0  0  0  0  0  0  0  0  0
  127.8140  123.6010   60.8820 C   0  0  0  0  0  0  0  0  0  0  0  0
  128.3280  123.9350   62.1480 N   0  0  0  0  0  0  0  0  0  0  0  0
  129.4950  123.5910   62.7400 C   0  0  0  0  0  0  0  0  0  0  0  0
  130.3620  122.8830   62.2270 O   0  0  0  0  0  0  0  0  0  0  0  0
  129.7520  124.1300   64.1560 C   0  0  0  0  0  0  0  0  0  0  0  0
  130.0700  125.5270   64.1120 O   0  0  0  0  0  0  0  0  0  0  0  0
  129.3690  126.4310   64.8970 C   0  0  0  0  0  0  0  0  0  0  0  0
  129.6040  126.4310   66.2380 N   0  0  0  0  0  0  0  0  0  0  0  0
  128.9270  127.2920   67.0430 C   0  0  0  0  0  0  0  0  0  0  0  0
  129.2450  127.2310   68.5090 C   0  0  0  0  0  0  0  0  0  0  0  0
  128.3740  126.6010   69.4110 C   0  0  0  0  0  0  0  0  0  0  0  0
  128.6660  126.5440   70.7710 C   0  0  0  0  0  0  0  0  0  0  0  0
  129.8340  127.1130   71.2720 C   0  0  0  0  0  0  0  0  0  0  0  0
  130.0390  127.0100   72.6340 O   0  0  0  0  0  0  0  0  0  0  0  0
  128.9130  126.9500   73.5030 C   0  0  0  0  0  0  0  0  0  0  0  0
  130.7160  127.7420   70.3830 C   0  0  0  0  0  0  0  0  0  0  0  0
  130.4230  127.7970   69.0230 C   0  0  0  0  0  0  0  0  0  0  0  0
  128.0030  128.1960   66.5040 C   0  0  0  0  0  0  0  0  0  0  0  0
  127.7510  128.2240   65.1250 C   0  0  0  0  0  0  0  0  0  0  0  0
  126.7630  129.2180   64.6110 C   0  0  0  0  0  0  0  0  0  0  0  0
  127.1940  130.3110   63.8530 C   0  0  0  0  0  0  0  0  0  0  0  0
  126.2770  131.2370   63.3620 C   0  0  0  0  0  0  0  0  0  0  0  0
  124.9140  131.0870   63.6120 C   0  0  0  0  0  0  0  0  0  0  0  0
  124.0790  132.0540   63.0860 O   0  0  0  0  0  0  0  0  0  0  0  0
  124.1460  132.3460   61.6950 C   0  0  0  0  0  0  0  0  0  0  0  0
  124.4760  129.9870   64.3660 C   0  0  0  0  0  0  0  0  0  0  0  0
  125.3940  129.0630   64.8560 C   0  0  0  0  0  0  0  0  0  0  0  0
  128.4480  127.3100   64.3020 C   0  0  0  0  0  0  0  0  0  0  0  0
  128.2190  127.2350   62.8580 C   0  0  0  0  0  0  0  0  0  0  0  0
  128.0390  127.1750   61.7160 N   0  0  0  0  0  0  0  0  0  0  0  0
  128.4570  122.5460   60.2310 C   0  0  0  0  0  0  0  0  0  0  0  0
  128.0340  122.1310   58.9730 C   0  0  0  0  0  0  0  0  0  0  0  0
  1  2  1  0
  2  3  1  0
  3  4  1  0
  4  5  2  0
  4  6  1  0
  6  7  2  0
  7  8  1  0
  8  9  2  0
  9 10  1  0
 10 11  1  0
 11 12  2  0
 11 13  1  0
 13 14  1  0
 14 15  1  0
 15 16  2  0
 16 17  1  0
 17 18  1  0
 18 19  2  0
 19 20  1  0
 20 21  2  0
 21 22  1  0
 22 23  1  0
 21 24  1  0
 24 25  2  0
 17 26  2  0
 26 27  1  0
 27 28  1  0
 28 29  2  0
 29 30  1  0
 30 31  2  0
 31 32  1  0
 32 33  1  0
 31 34  1  0
 34 35  2  0
 27 36  2  0
 36 37  1  0
 37 38  3  0
  9 39  1  0
 39 40  2  0
 40  6  1  0
 36 15  1  0
 25 18  1  0
 35 28  1  0
M  END
>  <Binding energies>  (2) 
[-10.32]

>  <Ligand effiencies>  (2) 
[-0.25170731707317073]

>  <Interactions>  (2) 
["V-A:GLU:543:CD:4905, V-B:LYS:547:CE:9919, H-A:LYS:547:NZ:4948, V-A:GLY:544:C:4909, V-A:HIS:456:CE1:4066, V-A:GLU:543:C:4899, V-A:GLU:543:CB:4903, V-A:HIS:456:CD2:4064, V-B:HIS:456:CE1:9038, V-B:TYR:539:CE1:9844, V-B:MET:535:CE:9804, V-B:PRO:540:CA:9852, V-B:TYR:539:CZ:9846, V-B:PRO:540:N:9853, V-B:PRO:540:CB:9854, H-B:TYR:539:N:9839, V-B:ALA:541:CB:9861, H-B:GLU:543:OE2:9879, H-B:GLU:543:OE1:9878, V-B:GLU:543:CD:9877, V-B:GLU:543:CG:9876, V-B:TYR:539:CE2:9845, V-B:ILE:538:CG2:9832, V-B:ILE:538:CB:9831, V-B:PRO:540:CD:9856, V-B:TYR:539:C:9836, V-B:TYR:539:CD2:9843, V-B:ILE:369:CD1:8207, V-B:ILE:538:CA:9829, V-B:TYR:539:CD1:9842, V-B:ARG:545:CZ:9895, H-B:GLY:454:N:9018"]

$$$$
1b_Grossjean_2025
     RDKit          3D

 25 26  0  0  0  0  0  0  0  0999 V2000
  124.0250  125.0610   59.4580 C   0  0  0  0  0  0  0  0  0  0  0  0
  124.6990  123.8090   59.4720 O   0  0  0  0  0  0  0  0  0  0  0  0
  125.2150  123.3080   60.6230 C   0  0  0  0  0  0  0  0  0  0  0  0
  124.5320  123.0420   61.6160 O   0  0  0  0  0  0  0  0  0  0  0  0
  126.7020  123.1000   60.5650 C   0  0  0  0  0  0  0  0  0  0  0  0
  127.5180  123.2550   61.6970 C   0  0  0  0  0  0  0  0  0  0  0  0
  128.8920  123.0560   61.6090 C   0  0  0  0  0  0  0  0  0  0  0  0
  129.4800  122.6980   60.3960 C   0  0  0  0  0  0  0  0  0  0  0  0
  130.8770  122.5250   60.4250 N   0  0  0  0  0  0  0  0  0  0  0  0
  131.6680  121.9840   61.3780 C   0  0  0  0  0  0  0  0  0  0  0  0
  131.2810  121.5160   62.4480 O   0  0  0  0  0  0  0  0  0  0  0  0
  133.1620  121.9620   61.0540 C   0  0  0  0  0  0  0  0  0  0  0  0
  133.8790  123.6320   61.0050 S   0  0  0  0  0  0  0  0  0  0  0  0
  133.1750  124.5510   62.3570 C   0  0  0  0  0  0  0  0  0  0  0  0
  133.8500  124.4080   63.5250 N   0  0  0  0  0  0  0  0  0  0  0  0
  133.4010  125.0650   64.6200 C   0  0  0  0  0  0  0  0  0  0  0  0
  134.2140  124.8690   65.8860 C   0  0  0  0  0  0  0  0  0  0  0  0
  132.2680  125.8750   64.5980 C   0  0  0  0  0  0  0  0  0  0  0  0
  131.5530  126.0110   63.4040 C   0  0  0  0  0  0  0  0  0  0  0  0
  130.3040  126.8920   63.4090 C   0  0  0  0  0  0  0  0  0  0  0  0
  132.0020  125.3340   62.2480 C   0  0  0  0  0  0  0  0  0  0  0  0
  131.2450  125.4270   60.9970 C   0  0  0  0  0  0  0  0  0  0  0  0
  130.6450  125.5030   60.0110 N   0  0  0  0  0  0  0  0  0  0  0  0
  128.6720  122.5410   59.2600 C   0  0  0  0  0  0  0  0  0  0  0  0
  127.2970  122.7400   59.3490 C   0  0  0  0  0  0  0  0  0  0  0  0
  1  2  1  0
  2  3  1  0
  3  4  2  0
  3  5  1  0
  5  6  2  0
  6  7  1  0
  7  8  2  0
  8  9  1  0
  9 10  1  0
 10 11  2  0
 10 12  1  0
 12 13  1  0
 13 14  1  0
 14 15  2  0
 15 16  1  0
 16 17  1  0
 16 18  2  0
 18 19  1  0
 19 20  1  0
 19 21  2  0
 21 22  1  0
 22 23  3  0
  8 24  1  0
 24 25  2  0
 25  5  1  0
 21 14  1  0
M  END
>  <Binding energies>  (3) 
[-7.15]

>  <Ligand effiencies>  (3) 
[-0.275]

>  <Interactions>  (3) 
["V-A:ASP:366:CG:3209, V-A:GLU:543:CD:4905, V-A:HIS:456:CE1:4066, V-B:ASP:366:CB:8180, V-B:PRO:540:CA:9852, V-B:TYR:539:CZ:9846, V-B:ASN:362:C:8140, V-B:PRO:540:N:9853, V-B:PRO:540:C:9850, V-B:PRO:540:CB:9854, V-B:ASP:366:CG:8181, V-B:LEU:363:CA:8153, V-B:ALA:541:CB:9861, H-B:TYR:539:OH:9847, V-B:GLU:543:CD:9877, V-B:GLU:543:CG:9876, V-A:ARG:545:CZ:4923, V-A:ARG:545:CD:4920, V-B:TYR:539:CE2:9845, V-A:ARG:545:CG:4919, H-B:ALA:541:N:9860, V-A:LEU:475:CD1:4254, V-B:TYR:539:CD2:9843, H-A:GLY:454:N:4046, V-A:ILE:369:CG2:3233, V-A:GLY:454:CA:4045, V-A:GLY:453:C:4038, V-A:GLY:454:C:4043"]

$$$$
1c_Grossjean_2025
     RDKit          3D

 23 24  0  0  0  0  0  0  0  0999 V2000
  132.0780  121.7790   61.6190 C   0  0  0  0  0  0  0  0  0  0  0  0
  130.8040  121.1490   61.7060 O   0  0  0  0  0  0  0  0  0  0  0  0
  129.6770  121.8540   61.3300 C   0  0  0  0  0  0  0  0  0  0  0  0
  129.3540  122.9690   62.1030 C   0  0  0  0  0  0  0  0  0  0  0  0
  128.2380  123.7440   61.8020 C   0  0  0  0  0  0  0  0  0  0  0  0
  127.4260  123.4100   60.7080 C   0  0  0  0  0  0  0  0  0  0  0  0
  126.2710  124.1170   60.3220 N   0  0  0  0  0  0  0  0  0  0  0  0
  124.9730  123.8370   60.5670 C   0  0  0  0  0  0  0  0  0  0  0  0
  124.5600  122.8760   61.2160 O   0  0  0  0  0  0  0  0  0  0  0  0
  123.9660  124.8250   59.9750 C   0  0  0  0  0  0  0  0  0  0  0  0
  123.9790  124.7980   58.1580 S   0  0  0  0  0  0  0  0  0  0  0  0
  125.6650  124.6240   57.6100 C   0  0  0  0  0  0  0  0  0  0  0  0
  126.4810  125.6130   58.0540 N   0  0  0  0  0  0  0  0  0  0  0  0
  127.7880  125.5870   57.7020 C   0  0  0  0  0  0  0  0  0  0  0  0
  128.6400  126.7190   58.2440 C   0  0  0  0  0  0  0  0  0  0  0  0
  128.3280  124.5910   56.8910 C   0  0  0  0  0  0  0  0  0  0  0  0
  127.4910  123.5810   56.4080 C   0  0  0  0  0  0  0  0  0  0  0  0
  128.1030  122.5100   55.5070 C   0  0  0  0  0  0  0  0  0  0  0  0
  126.1220  123.5880   56.7610 C   0  0  0  0  0  0  0  0  0  0  0  0
  125.2190  122.5690   56.2200 C   0  0  0  0  0  0  0  0  0  0  0  0
  124.5060  121.7650   55.7930 N   0  0  0  0  0  0  0  0  0  0  0  0
  127.7400  122.2880   59.9390 C   0  0  0  0  0  0  0  0  0  0  0  0
  128.8570  121.5150   60.2430 C   0  0  0  0  0  0  0  0  0  0  0  0
  1  2  1  0
  2  3  1  0
  3  4  2  0
  4  5  1  0
  5  6  2  0
  6  7  1  0
  7  8  1  0
  8  9  2  0
  8 10  1  0
 10 11  1  0
 11 12  1  0
 12 13  2  0
 13 14  1  0
 14 15  1  0
 14 16  2  0
 16 17  1  0
 17 18  1  0
 17 19  2  0
 19 20  1  0
 20 21  3  0
  6 22  1  0
 22 23  2  0
 23  3  1  0
 19 12  1  0
M  END
>  <Binding energies>  (4) 
[-6.6]

>  <Ligand effiencies>  (4) 
[-0.27499999999999997]

>  <Interactions>  (4) 
["V-B:TYR:539:CE1:9844, V-B:MET:535:CE:9804, V-B:PRO:540:CA:9852, V-B:ASN:362:C:8140, V-B:PRO:540:N:9853, V-B:PRO:540:C:9850, V-B:PRO:540:CB:9854, V-B:ASP:366:CG:8181, V-B:LEU:363:CD1:8157, V-B:LEU:363:CA:8153, V-B:ALA:541:CB:9861, H-B:GLU:543:OE2:9879, V-B:GLU:543:CD:9877, V-B:GLU:543:CG:9876, V-B:TYR:539:CE2:9845, H-B:ALA:541:N:9860, V-B:ILE:538:CG2:9832, V-B:ILE:538:CB:9831, V-A:LEU:475:CD1:4254, V-B:PRO:540:CD:9856, V-B:TYR:539:C:9836, V-B:TYR:539:CD2:9843, V-B:ILE:538:CA:9829, V-B:TYR:539:CD1:9842"]

$$$$
1d_Grossjean_2025
     RDKit          3D

 21 22  0  0  0  0  0  0  0  0999 V2000
  127.6650  128.1500   58.4310 C   0  0  0  0  0  0  0  0  0  0  0  0
  127.4230  126.7480   57.9090 C   0  0  0  0  0  0  0  0  0  0  0  0
  128.4190  126.0350   57.2440 C   0  0  0  0  0  0  0  0  0  0  0  0
  128.1430  124.7400   56.7930 C   0  0  0  0  0  0  0  0  0  0  0  0
  129.2550  123.9720   56.0810 C   0  0  0  0  0  0  0  0  0  0  0  0
  126.8590  124.1900   57.0140 C   0  0  0  0  0  0  0  0  0  0  0  0
  126.5620  122.8190   56.5920 C   0  0  0  0  0  0  0  0  0  0  0  0
  126.3300  121.7360   56.2590 N   0  0  0  0  0  0  0  0  0  0  0  0
  125.9020  124.9950   57.6750 C   0  0  0  0  0  0  0  0  0  0  0  0
  124.2420  124.4650   58.0340 S   0  0  0  0  0  0  0  0  0  0  0  0
  124.0120  124.5800   59.8340 C   0  0  0  0  0  0  0  0  0  0  0  0
  125.0220  123.7240   60.6000 C   0  0  0  0  0  0  0  0  0  0  0  0
  124.6120  122.8880   61.4060 O   0  0  0  0  0  0  0  0  0  0  0  0
  126.3190  123.9490   60.2960 N   0  0  0  0  0  0  0  0  0  0  0  0
  127.4840  123.3570   60.8190 C   0  0  0  0  0  0  0  0  0  0  0  0
  127.8940  122.1750   60.1970 C   0  0  0  0  0  0  0  0  0  0  0  0
  129.0370  121.5110   60.6330 C   0  0  0  0  0  0  0  0  0  0  0  0
  129.7780  122.0340   61.6900 C   0  0  0  0  0  0  0  0  0  0  0  0
  129.3850  123.2160   62.3140 C   0  0  0  0  0  0  0  0  0  0  0  0
  128.2410  123.8810   61.8810 C   0  0  0  0  0  0  0  0  0  0  0  0
  126.1870  126.2420   58.1280 N   0  0  0  0  0  0  0  0  0  0  0  0
  1  2  1  0
  2  3  2  0
  3  4  1  0
  4  5  1  0
  4  6  2  0
  6  7  1  0
  7  8  3  0
  6  9  1  0
  9 10  1  0
 10 11  1  0
 11 12  1  0
 12 13  2  0
 12 14  1  0
 14 15  1  0
 15 16  2  0
 16 17  1  0
 17 18  2  0
 18 19  1  0
 19 20  2  0
  9 21  2  0
 21  2  1  0
 20 15  1  0
M  END
>  <Binding energies>  (5) 
[-6.7]

>  <Ligand effiencies>  (5) 
[-0.30454545454545456]

>  <Interactions>  (5) 
["V-B:TYR:539:CE1:9844, V-B:MET:535:CE:9804, V-B:PRO:540:CA:9852, V-B:TYR:539:CZ:9846, V-B:ASN:362:C:8140, V-B:PRO:540:N:9853, V-B:PRO:540:C:9850, V-B:PRO:540:CB:9854, H-B:TYR:539:N:9839, V-B:LEU:363:CA:8153, H-B:TYR:531:OH:9764, V-B:ALA:541:CB:9861, V-B:GLU:543:CD:9877, V-B:GLU:543:CG:9876, V-B:TYR:539:CE2:9845, H-B:ALA:541:N:9860, V-B:TYR:539:C:9836, V-B:TYR:539:CD2:9843"]

$$$$
1e_Grossjean_2025
     RDKit          3D

 22 23  0  0  0  0  0  0  0  0999 V2000
  124.1340  123.3180   61.3710 C   0  0  0  0  0  0  0  0  0  0  0  0
  124.2730  123.8290   59.9490 C   0  0  0  0  0  0  0  0  0  0  0  0
  123.4380  124.8310   59.4470 C   0  0  0  0  0  0  0  0  0  0  0  0
  123.6230  125.2500   58.1290 C   0  0  0  0  0  0  0  0  0  0  0  0
  124.6250  124.6640   57.3530 C   0  0  0  0  0  0  0  0  0  0  0  0
  125.4310  123.6690   57.9190 C   0  0  0  0  0  0  0  0  0  0  0  0
  126.4150  123.1090   57.0860 N   0  0  0  0  0  0  0  0  0  0  0  0
  126.3150  122.7620   55.7840 C   0  0  0  0  0  0  0  0  0  0  0  0
  125.2990  122.8770   55.0970 O   0  0  0  0  0  0  0  0  0  0  0  0
  127.5740  122.1570   55.1590 C   0  0  0  0  0  0  0  0  0  0  0  0
  128.9160  123.3750   55.0150 S   0  0  0  0  0  0  0  0  0  0  0  0
  129.3360  123.9560   56.6460 C   0  0  0  0  0  0  0  0  0  0  0  0
  128.9740  123.0990   57.6340 N   0  0  0  0  0  0  0  0  0  0  0  0
  129.2390  123.4330   58.9180 C   0  0  0  0  0  0  0  0  0  0  0  0
  128.8140  122.4230   59.9660 C   0  0  0  0  0  0  0  0  0  0  0  0
  129.8590  124.6310   59.2700 C   0  0  0  0  0  0  0  0  0  0  0  0
  130.2140  125.5330   58.2620 C   0  0  0  0  0  0  0  0  0  0  0  0
  130.8750  126.8470   58.6750 C   0  0  0  0  0  0  0  0  0  0  0  0
  129.9430  125.2070   56.9130 C   0  0  0  0  0  0  0  0  0  0  0  0
  130.2550  126.1660   55.8510 C   0  0  0  0  0  0  0  0  0  0  0  0
  130.5030  126.9260   55.0140 N   0  0  0  0  0  0  0  0  0  0  0  0
  125.2520  123.2520   59.2070 N   0  0  0  0  0  0  0  0  0  0  0  0
  1  2  1  0
  2  3  2  0
  3  4  1  0
  4  5  2  0
  5  6  1  0
  6  7  1  0
  7  8  1  0
  8  9  2  0
  8 10  1  0
 10 11  1  0
 11 12  1  0
 12 13  2  0
 13 14  1  0
 14 15  1  0
 14 16  2  0
 16 17  1  0
 17 18  1  0
 17 19  2  0
 19 20  1  0
 20 21  3  0
  6 22  2  0
 22  2  1  0
 19 12  1  0
M  END
>  <Binding energies>  (6) 
[-6.9]

>  <Ligand effiencies>  (6) 
[-0.3]

>  <Interactions>  (6) 
["V-A:ASP:366:CB:3208, V-A:ASP:366:CG:3209, V-B:ASP:366:CB:8180, V-B:ASN:362:CB:8144, H-A:TYR:531:OH:4792, V-B:TYR:539:CE1:9844, V-B:MET:535:CE:9804, V-B:PRO:540:CA:9852, V-B:TYR:539:CZ:9846, V-B:TYR:531:CE2:9762, V-B:ASN:362:C:8140, V-B:PRO:540:N:9853, V-B:PRO:540:CB:9854, V-B:ASP:366:CG:8181, V-B:LEU:363:CD1:8157, V-B:LEU:363:CA:8153, H-B:TYR:539:OH:9847, V-B:TYR:539:CE2:9845, V-B:ILE:538:CG2:9832, V-B:ILE:538:CB:9831, V-B:TYR:539:CD2:9843, V-B:ILE:538:CA:9829, V-B:TYR:539:CD1:9842, V-B:ILE:538:C:9827"]

$$$$
1f_Grossjean_2025
     RDKit          3D

 21 22  0  0  0  0  0  0  0  0999 V2000
  128.6720  122.5080   59.7100 C   0  0  0  0  0  0  0  0  0  0  0  0
  129.1070  123.5880   58.7370 C   0  0  0  0  0  0  0  0  0  0  0  0
  129.5100  124.8470   59.1770 C   0  0  0  0  0  0  0  0  0  0  0  0
  129.8890  125.8070   58.2320 C   0  0  0  0  0  0  0  0  0  0  0  0
  130.3080  127.1860   58.7380 C   0  0  0  0  0  0  0  0  0  0  0  0
  129.8630  125.4730   56.8590 C   0  0  0  0  0  0  0  0  0  0  0  0
  130.2030  126.4830   55.8520 C   0  0  0  0  0  0  0  0  0  0  0  0
  130.4720  127.2810   55.0590 N   0  0  0  0  0  0  0  0  0  0  0  0
  129.4680  124.1620   56.5050 C   0  0  0  0  0  0  0  0  0  0  0  0
  129.3750  123.5620   54.8300 S   0  0  0  0  0  0  0  0  0  0  0  0
  127.9030  122.4930   54.6820 C   0  0  0  0  0  0  0  0  0  0  0  0
  126.9830  122.4850   55.9120 C   0  0  0  0  0  0  0  0  0  0  0  0
  126.7510  121.4340   56.5110 O   0  0  0  0  0  0  0  0  0  0  0  0
  126.4630  123.6890   56.2320 N   0  0  0  0  0  0  0  0  0  0  0  0
  125.6000  124.0440   57.2860 C   0  0  0  0  0  0  0  0  0  0  0  0
  125.6090  123.4820   58.5770 C   0  0  0  0  0  0  0  0  0  0  0  0
  124.6950  123.9330   59.5330 C   0  0  0  0  0  0  0  0  0  0  0  0
  123.7950  124.9370   59.1760 C   0  0  0  0  0  0  0  0  0  0  0  0
  123.7690  125.4980   57.9410 N   0  0  0  0  0  0  0  0  0  0  0  0
  124.6630  125.0500   57.0230 C   0  0  0  0  0  0  0  0  0  0  0  0
  129.0790  123.2470   57.4270 N   0  0  0  0  0  0  0  0  0  0  0  0
  1  2  1  0
  2  3  2  0
  3  4  1  0
  4  5  1  0
  4  6  2  0
  6  7  1  0
  7  8  3  0
  6  9  1  0
  9 10  1  0
 10 11  1  0
 11 12  1  0
 12 13  2  0
 12 14  1  0
 14 15  1  0
 15 16  2  0
 16 17  1  0
 17 18  2  0
 18 19  1  0
 19 20  2  0
  9 21  2  0
 21  2  1  0
 20 15  1  0
M  END
>  <Binding energies>  (7) 
[-7.04]

>  <Ligand effiencies>  (7) 
[-0.32]

>  <Interactions>  (7) 
["V-B:ASP:366:CB:8180, H-A:TYR:531:OH:4792, V-B:TYR:539:CE1:9844, V-B:MET:535:CE:9804, V-B:PRO:540:CA:9852, V-B:TYR:539:CZ:9846, V-B:TYR:531:CE2:9762, V-B:ASN:362:C:8140, V-B:TYR:531:CZ:9763, V-B:PRO:540:CB:9854, V-B:ASP:366:CG:8181, H-B:TYR:539:N:9839, V-B:LEU:363:CD1:8157, V-B:LEU:363:CA:8153, H-B:TYR:531:OH:9764, H-B:TYR:539:OH:9847, V-B:TYR:539:CE2:9845, V-B:ILE:538:CG2:9832, V-B:ILE:538:CB:9831, V-B:TYR:539:CD2:9843, V-B:ILE:538:CA:9829, V-B:TYR:539:CD1:9842, H-B:MET:535:SD:9803"]

$$$$
1g_Grossjean_2025
     RDKit          3D

 22 23  0  0  0  0  0  0  0  0999 V2000
  129.1330  131.3640   60.4340 C   0  0  0  0  0  0  0  0  0  0  0  0
  127.9730  132.3360   60.5350 C   0  0  0  0  0  0  0  0  0  0  0  0
  128.1790  133.7040   60.6990 C   0  0  0  0  0  0  0  0  0  0  0  0
  127.0710  134.5510   60.8020 C   0  0  0  0  0  0  0  0  0  0  0  0
  127.3220  136.0460   60.9980 C   0  0  0  0  0  0  0  0  0  0  0  0
  125.7710  134.0010   60.7280 C   0  0  0  0  0  0  0  0  0  0  0  0
  124.5950  134.8610   60.8860 C   0  0  0  0  0  0  0  0  0  0  0  0
  123.6690  135.5430   61.0120 N   0  0  0  0  0  0  0  0  0  0  0  0
  125.6560  132.6040   60.5340 C   0  0  0  0  0  0  0  0  0  0  0  0
  124.1010  131.7490   60.4090 S   0  0  0  0  0  0  0  0  0  0  0  0
  123.7610  131.5030   58.6400 C   0  0  0  0  0  0  0  0  0  0  0  0
  124.9420  130.8550   57.9150 C   0  0  0  0  0  0  0  0  0  0  0  0
  125.6770  130.0680   58.5140 O   0  0  0  0  0  0  0  0  0  0  0  0
  125.1120  131.2010   56.6270 N   0  0  0  0  0  0  0  0  0  0  0  0
  126.1350  130.6620   55.7320 C   0  0  0  0  0  0  0  0  0  0  0  0
  127.5190  131.2780   55.9160 C   0  0  0  0  0  0  0  0  0  0  0  0
  128.4260  131.2880   54.8520 C   0  0  0  0  0  0  0  0  0  0  0  0
  129.6880  131.8510   55.0200 C   0  0  0  0  0  0  0  0  0  0  0  0
  130.0380  132.4060   56.2500 C   0  0  0  0  0  0  0  0  0  0  0  0
  129.1370  132.4030   57.3120 C   0  0  0  0  0  0  0  0  0  0  0  0
  127.8750  131.8390   57.1460 C   0  0  0  0  0  0  0  0  0  0  0  0
  126.7370  131.7870   60.4590 N   0  0  0  0  0  0  0  0  0  0  0  0
  1  2  1  0
  2  3  2  0
  3  4  1  0
  4  5  1  0
  4  6  2  0
  6  7  1  0
  7  8  3  0
  6  9  1  0
  9 10  1  0
 10 11  1  0
 11 12  1  0
 12 13  2  0
 12 14  1  0
 14 15  1  0
 15 16  1  0
 16 17  2  0
 17 18  1  0
 18 19  2  0
 19 20  1  0
 20 21  2  0
  9 22  2  0
 22  2  1  0
 21 16  1  0
M  END
>  <Binding energies>  (8) 
[-6.74]

>  <Ligand effiencies>  (8) 
[-0.29304347826086957]

>  <Interactions>  (8) 
["V-A:TYR:539:CD2:4871, V-A:ALA:541:CB:4889, V-A:PRO:540:N:4881, V-A:TYR:539:C:4864, V-B:TRP:381:CZ2:8338, V-B:TRP:381:CH2:8340, V-B:PRO:482:CG:9295, V-B:PRO:482:CB:9294, V-A:TYR:539:CE2:4873, V-B:LEU:475:CD2:9227, V-A:ILE:538:CD1:4862, V-B:ASP:366:CA:8178, V-B:ASP:366:CB:8180, V-B:ILE:369:CG2:8205, V-B:ASP:366:CG:8181, V-A:TYR:539:CZ:4874, V-B:TYR:531:CE1:9761, V-B:ILE:369:CB:8204, V-B:ASP:366:C:8176, H-A:TYR:539:OH:4875, H-B:ASP:366:O:8177"]

$$$$
1h_Grossjean_2025
     RDKit          3D

 28 29  0  0  0  0  0  0  0  0999 V2000
  124.0150  124.8010   59.5790 C   0  0  0  0  0  0  0  0  0  0  0  0
  125.1430  124.9360   58.7210 O   0  0  0  0  0  0  0  0  0  0  0  0
  126.1760  124.0200   58.8100 C   0  0  0  0  0  0  0  0  0  0  0  0
  126.8730  123.7390   59.9950 C   0  0  0  0  0  0  0  0  0  0  0  0
  127.9160  122.8110   60.0080 C   0  0  0  0  0  0  0  0  0  0  0  0
  128.6510  122.4970   61.3070 C   0  0  0  0  0  0  0  0  0  0  0  0
  130.0900  122.7530   61.2540 N   0  0  0  0  0  0  0  0  0  0  0  0
  131.0510  121.8290   61.4300 C   0  0  0  0  0  0  0  0  0  0  0  0
  130.8220  120.6370   61.6340 O   0  0  0  0  0  0  0  0  0  0  0  0
  132.4950  122.3270   61.3720 C   0  0  0  0  0  0  0  0  0  0  0  0
  132.5860  124.1420   61.2920 S   0  0  0  0  0  0  0  0  0  0  0  0
  132.3900  124.7800   62.9480 C   0  0  0  0  0  0  0  0  0  0  0  0
  133.4890  124.7020   63.7440 N   0  0  0  0  0  0  0  0  0  0  0  0
  133.4100  125.1710   65.0110 C   0  0  0  0  0  0  0  0  0  0  0  0
  134.6780  125.0540   65.8350 C   0  0  0  0  0  0  0  0  0  0  0  0
  132.2480  125.7310   65.5350 C   0  0  0  0  0  0  0  0  0  0  0  0
  131.1090  125.8150   64.7270 C   0  0  0  0  0  0  0  0  0  0  0  0
  129.8460  126.4330   65.3200 C   0  0  0  0  0  0  0  0  0  0  0  0
  131.1690  125.3310   63.4000 C   0  0  0  0  0  0  0  0  0  0  0  0
  129.9910  125.4030   62.5310 C   0  0  0  0  0  0  0  0  0  0  0  0
  129.0600  125.4600   61.8440 N   0  0  0  0  0  0  0  0  0  0  0  0
  128.2450  122.1290   58.8360 C   0  0  0  0  0  0  0  0  0  0  0  0
  127.5600  122.3860   57.6370 C   0  0  0  0  0  0  0  0  0  0  0  0
  127.8340  121.7500   56.4400 O   0  0  0  0  0  0  0  0  0  0  0  0
  128.2390  122.5220   55.3150 C   0  0  0  0  0  0  0  0  0  0  0  0
  126.5350  123.3430   57.6350 C   0  0  0  0  0  0  0  0  0  0  0  0
  125.8520  123.6010   56.4720 O   0  0  0  0  0  0  0  0  0  0  0  0
  124.9880  122.5490   56.0620 C   0  0  0  0  0  0  0  0  0  0  0  0
  1  2  1  0
  2  3  1  0
  3  4  2  0
  4  5  1  0
  5  6  1  0
  6  7  1  0
  7  8  1  0
  8  9  2  0
  8 10  1  0
 10 11  1  0
 11 12  1  0
 12 13  2  0
 13 14  1  0
 14 15  1  0
 14 16  2  0
 16 17  1  0
 17 18  1  0
 17 19  2  0
 19 20  1  0
 20 21  3  0
  5 22  2  0
 22 23  1  0
 23 24  1  0
 24 25  1  0
 23 26  2  0
 26 27  1  0
 27 28  1  0
 26  3  1  0
 19 12  1  0
M  END
>  <Binding energies>  (9) 
[-7.24]

>  <Ligand effiencies>  (9) 
[-0.24965517241379312]

>  <Interactions>  (9) 
["V-A:HIS:456:CE1:4066, V-B:ASP:366:CB:8180, V-B:TYR:539:CE1:9844, V-B:MET:535:CE:9804, V-B:PRO:540:CA:9852, V-B:TYR:539:CZ:9846, V-B:ASN:362:C:8140, V-B:PRO:540:N:9853, V-B:PRO:540:CB:9854, V-B:ASP:366:CG:8181, H-B:TYR:539:N:9839, V-B:LEU:363:CD1:8157, V-B:LEU:363:CA:8153, V-B:ALA:541:CB:9861, V-A:ARG:545:CZ:4923, V-A:ARG:545:CD:4920, H-A:ARG:545:NH2:4925, V-B:TYR:539:CE2:9845, V-A:ARG:545:CG:4919, V-B:ILE:538:CG2:9832, V-B:ILE:538:CB:9831, V-A:LEU:475:CD1:4254, V-B:PRO:540:CD:9856, V-B:TYR:539:C:9836, V-B:TYR:539:CD2:9843, V-B:ILE:538:CA:9829, V-B:TYR:539:CD1:9842, V-B:TYR:539:CG:9841, V-B:PRO:540:CG:9855, H-A:GLY:454:N:4046, V-A:GLY:454:CA:4045, V-A:GLY:453:C:4038, V-A:GLY:453:CA:4040, V-A:GLY:454:C:4043"]

$$$$
1i_Grossjean_2025
     RDKit          3D

 20 21  0  0  0  0  0  0  0  0999 V2000
  125.7720  122.1980   55.9900 C   0  0  0  0  0  0  0  0  0  0  0  0
  127.0060  122.7300   56.6930 C   0  0  0  0  0  0  0  0  0  0  0  0
  127.8950  123.5910   56.0550 C   0  0  0  0  0  0  0  0  0  0  0  0
  129.0120  124.0580   56.7570 C   0  0  0  0  0  0  0  0  0  0  0  0
  129.9640  125.0150   56.0410 C   0  0  0  0  0  0  0  0  0  0  0  0
  129.2130  123.6410   58.0930 C   0  0  0  0  0  0  0  0  0  0  0  0
  130.3480  124.1570   58.8620 C   0  0  0  0  0  0  0  0  0  0  0  0
  131.2440  124.5680   59.4690 N   0  0  0  0  0  0  0  0  0  0  0  0
  128.2720  122.7450   58.6520 C   0  0  0  0  0  0  0  0  0  0  0  0
  128.3700  122.1180   60.3150 S   0  0  0  0  0  0  0  0  0  0  0  0
  127.4170  123.2390   61.3830 C   0  0  0  0  0  0  0  0  0  0  0  0
  126.0620  123.6020   60.7710 C   0  0  0  0  0  0  0  0  0  0  0  0
  125.0290  123.2240   61.3250 O   0  0  0  0  0  0  0  0  0  0  0  0
  126.1120  124.3360   59.6380 N   0  0  0  0  0  0  0  0  0  0  0  0
  125.0410  124.7930   58.8840 C   0  0  0  0  0  0  0  0  0  0  0  0
  123.7800  125.0400   59.4240 C   0  0  0  0  0  0  0  0  0  0  0  0
  123.0150  125.4720   58.3660 C   0  0  0  0  0  0  0  0  0  0  0  0
  123.7750  125.4830   57.2450 O   0  0  0  0  0  0  0  0  0  0  0  0
  125.0580  125.0500   57.5860 N   0  0  0  0  0  0  0  0  0  0  0  0
  127.1810  122.3140   57.9700 N   0  0  0  0  0  0  0  0  0  0  0  0
  1  2  1  0
  2  3  2  0
  3  4  1  0
  4  5  1  0
  4  6  2  0
  6  7  1  0
  7  8  3  0
  6  9  1  0
  9 10  1  0
 10 11  1  0
 11 12  1  0
 12 13  2  0
 12 14  1  0
 14 15  1  0
 15 16  1  0
 16 17  2  0
 17 18  1  0
 18 19  1  0
  9 20  2  0
 20  2  1  0
 19 15  2  0
M  END
>  <Binding energies>  (10) 
[-6.94]

>  <Ligand effiencies>  (10) 
[-0.3304761904761905]

>  <Interactions>  (10) 
["V-B:ASP:366:CB:8180, V-B:TYR:539:CE1:9844, V-B:MET:535:CE:9804, V-B:PRO:540:CA:9852, V-B:TYR:539:CZ:9846, V-B:TYR:531:CE2:9762, V-B:ASN:362:C:8140, V-B:PRO:540:N:9853, V-B:PRO:540:CB:9854, V-B:ASP:366:CG:8181, V-B:LEU:363:CD1:8157, V-B:LEU:363:CA:8153, H-B:TYR:531:OH:9764, V-B:ALA:541:CB:9861, H-B:TYR:539:OH:9847, V-B:GLU:543:CD:9877, V-B:TYR:539:CE2:9845, H-B:ALA:541:N:9860, V-B:ILE:538:CG2:9832, V-B:ILE:538:CB:9831, V-B:PRO:540:CD:9856, V-B:ILE:538:CA:9829, V-B:LEU:363:CB:8155, V-B:LEU:363:C:8151"]

$$$$
1k_Grossjean_2025
     RDKit          3D

 25 25  0  0  0  0  0  0  0  0999 V2000
  129.7570  124.2070   58.5210 C   0  0  0  0  0  0  0  0  0  0  0  0
  129.0890  123.2480   57.7160 O   0  0  0  0  0  0  0  0  0  0  0  0
  128.3130  123.8250   56.6750 C   0  0  0  0  0  0  0  0  0  0  0  0
  128.2550  122.8600   55.4830 C   0  0  0  0  0  0  0  0  0  0  0  0
  127.1890  121.9380   55.6720 O   0  0  0  0  0  0  0  0  0  0  0  0
  126.4380  122.1680   56.8570 C   0  0  0  0  0  0  0  0  0  0  0  0
  125.1680  122.9540   56.5100 C   0  0  0  0  0  0  0  0  0  0  0  0
  124.4670  123.2740   57.7060 O   0  0  0  0  0  0  0  0  0  0  0  0
  125.1580  124.1900   58.5450 C   0  0  0  0  0  0  0  0  0  0  0  0
  124.8920  123.8390   60.0210 C   0  0  0  0  0  0  0  0  0  0  0  0
  126.0990  123.7790   60.8460 N   0  0  0  0  0  0  0  0  0  0  0  0
  127.1770  123.0180   60.5870 C   0  0  0  0  0  0  0  0  0  0  0  0
  127.2600  122.2810   59.6020 O   0  0  0  0  0  0  0  0  0  0  0  0
  128.3190  123.1160   61.6110 C   0  0  0  0  0  0  0  0  0  0  0  0
  129.7180  121.9720   61.3470 S   0  0  0  0  0  0  0  0  0  0  0  0
  131.2460  122.8130   61.7390 C   0  0  0  0  0  0  0  0  0  0  0  0
  132.1430  122.9170   60.7240 N   0  0  0  0  0  0  0  0  0  0  0  0
  133.3240  123.5340   60.9560 C   0  0  0  0  0  0  0  0  0  0  0  0
  134.2750  123.6030   59.7770 C   0  0  0  0  0  0  0  0  0  0  0  0
  133.6580  124.0760   62.1950 C   0  0  0  0  0  0  0  0  0  0  0  0
  132.7400  123.9820   63.2460 C   0  0  0  0  0  0  0  0  0  0  0  0
  133.1260  124.5830   64.5970 C   0  0  0  0  0  0  0  0  0  0  0  0
  131.5030  123.3380   63.0260 C   0  0  0  0  0  0  0  0  0  0  0  0
  130.5230  123.2220   64.1110 C   0  0  0  0  0  0  0  0  0  0  0  0
  129.7510  123.1300   64.9680 N   0  0  0  0  0  0  0  0  0  0  0  0
  1  2  1  0
  2  3  1  0
  3  4  1  0
  4  5  1  0
  5  6  1  0
  6  7  1  0
  7  8  1  0
  8  9  1  0
  9 10  1  0
 10 11  1  0
 11 12  1  0
 12 13  2  0
 12 14  1  0
 14 15  1  0
 15 16  1  0
 16 17  2  0
 17 18  1  0
 18 19  1  0
 18 20  2  0
 20 21  1  0
 21 22  1  0
 21 23  2  0
 23 24  1  0
 24 25  3  0
 23 16  1  0
M  END
>  <Binding energies>  (11) 
[-6.06]

>  <Ligand effiencies>  (11) 
[-0.23307692307692307]

>  <Interactions>  (11) 
["V-A:ASP:366:CB:3208, V-A:ASP:366:CG:3209, V-B:TYR:539:CE1:9844, V-B:MET:535:CE:9804, V-B:PRO:540:CA:9852, V-B:TYR:539:CZ:9846, V-B:PRO:540:N:9853, V-B:PRO:540:CB:9854, H-B:TYR:539:N:9839, V-B:LEU:363:CD1:8157, V-B:ALA:541:CB:9861, H-B:GLU:543:OE2:9879, H-B:TYR:539:OH:9847, V-B:GLU:543:CD:9877, V-A:ARG:545:CZ:4923, V-B:TYR:539:CE2:9845, H-B:ALA:541:N:9860, V-B:ILE:538:CB:9831, V-B:PRO:540:CD:9856, V-A:ILE:369:CG1:3234, V-B:TYR:539:C:9836, V-A:ILE:369:CB:3232, V-B:TYR:539:CD1:9842, V-A:ILE:369:CG2:3233, V-A:GLY:454:CA:4045, H-A:TYR:484:OH:4344, V-A:ASP:366:CA:3206"]

$$$$
1l_Grossjean_2025
     RDKit          3D

 17 17  0  0  0  0  0  0  0  0999 V2000
  127.8930  122.3680   59.9650 C   0  0  0  0  0  0  0  0  0  0  0  0
  126.7620  122.5120   60.8130 O   0  0  0  0  0  0  0  0  0  0  0  0
  126.0230  123.6310   60.4320 N   0  0  0  0  0  0  0  0  0  0  0  0
  124.6890  123.6260   60.6160 C   0  0  0  0  0  0  0  0  0  0  0  0
  124.0970  122.7920   61.3050 O   0  0  0  0  0  0  0  0  0  0  0  0
  123.9290  124.7590   59.9110 C   0  0  0  0  0  0  0  0  0  0  0  0
  123.9990  124.7180   58.0870 S   0  0  0  0  0  0  0  0  0  0  0  0
  125.7110  124.5770   57.6000 C   0  0  0  0  0  0  0  0  0  0  0  0
  126.5500  125.5130   58.1150 N   0  0  0  0  0  0  0  0  0  0  0  0
  127.8620  125.4670   57.7850 C   0  0  0  0  0  0  0  0  0  0  0  0
  128.7350  126.5450   58.4000 C   0  0  0  0  0  0  0  0  0  0  0  0
  128.3900  124.4950   56.9390 C   0  0  0  0  0  0  0  0  0  0  0  0
  127.5370  123.5240   56.4040 C   0  0  0  0  0  0  0  0  0  0  0  0
  128.1380  122.4670   55.4780 C   0  0  0  0  0  0  0  0  0  0  0  0
  126.1640  123.5550   56.7340 C   0  0  0  0  0  0  0  0  0  0  0  0
  125.2460  122.5510   56.1870 C   0  0  0  0  0  0  0  0  0  0  0  0
  124.5240  121.7580   55.7550 N   0  0  0  0  0  0  0  0  0  0  0  0
  1  2  1  0
  2  3  1  0
  3  4  1  0
  4  5  2  0
  4  6  1  0
  6  7  1  0
  7  8  1  0
  8  9  2  0
  9 10  1  0
 10 11  1  0
 10 12  2  0
 12 13  1  0
 13 14  1  0
 13 15  2  0
 15 16  1  0
 16 17  3  0
 15  8  1  0
M  END
>  <Binding energies>  (12) 
[-5.62]

>  <Ligand effiencies>  (12) 
[-0.31222222222222223]

>  <Interactions>  (12) 
["V-B:TYR:539:CE1:9844, V-B:MET:535:CE:9804, V-B:PRO:540:CA:9852, V-B:ASN:362:C:8140, V-B:PRO:540:N:9853, V-B:PRO:540:C:9850, V-B:PRO:540:CB:9854, V-B:ASP:366:CG:8181, V-B:LEU:363:CD1:8157, V-B:LEU:363:CA:8153, V-B:ALA:541:CB:9861, H-B:ALA:541:N:9860, V-B:ILE:538:CG2:9832, V-B:ILE:538:CB:9831, V-B:PRO:540:CD:9856, V-B:ILE:538:CA:9829, V-B:TYR:539:CD1:9842"]

$$$$
1m_Grossjean_2025
     RDKit          3D

 20 20  0  0  0  0  0  0  0  0999 V2000
  124.8680  124.3480   56.7580 C   0  0  0  0  0  0  0  0  0  0  0  0
  124.4970  125.4710   57.5450 O   0  0  0  0  0  0  0  0  0  0  0  0
  123.3040  125.5040   58.1730 C   0  0  0  0  0  0  0  0  0  0  0  0
  122.2280  125.8190   57.6540 O   0  0  0  0  0  0  0  0  0  0  0  0
  123.4310  125.0830   59.6520 C   0  0  0  0  0  0  0  0  0  0  0  0
  124.8080  124.7320   60.0280 N   0  0  0  0  0  0  0  0  0  0  0  0
  125.1760  123.6520   60.7440 C   0  0  0  0  0  0  0  0  0  0  0  0
  124.3680  122.8300   61.1830 O   0  0  0  0  0  0  0  0  0  0  0  0
  126.6830  123.5040   60.9920 C   0  0  0  0  0  0  0  0  0  0  0  0
  127.5220  122.3090   59.8960 S   0  0  0  0  0  0  0  0  0  0  0  0
  128.5850  123.2230   58.7980 C   0  0  0  0  0  0  0  0  0  0  0  0
  129.4820  124.0110   59.4430 N   0  0  0  0  0  0  0  0  0  0  0  0
  130.3480  124.7480   58.7090 C   0  0  0  0  0  0  0  0  0  0  0  0
  131.3330  125.5890   59.4990 C   0  0  0  0  0  0  0  0  0  0  0  0
  130.3490  124.7400   57.3160 C   0  0  0  0  0  0  0  0  0  0  0  0
  129.4110  123.9510   56.6400 C   0  0  0  0  0  0  0  0  0  0  0  0
  129.4210  123.9710   55.1130 C   0  0  0  0  0  0  0  0  0  0  0  0
  128.4960  123.1730   57.3860 C   0  0  0  0  0  0  0  0  0  0  0  0
  127.4750  122.3790   56.6990 C   0  0  0  0  0  0  0  0  0  0  0  0
  126.6680  121.7520   56.1560 N   0  0  0  0  0  0  0  0  0  0  0  0
  1  2  1  0
  2  3  1  0
  3  4  2  0
  3  5  1  0
  5  6  1  0
  6  7  1  0
  7  8  2  0
  7  9  1  0
  9 10  1  0
 10 11  1  0
 11 12  2  0
 12 13  1  0
 13 14  1  0
 13 15  2  0
 15 16  1  0
 16 17  1  0
 16 18  2  0
 18 19  1  0
 19 20  3  0
 18 11  1  0
M  END
>  <Binding energies>  (13) 
[-6.62]

>  <Ligand effiencies>  (13) 
[-0.31523809523809526]

>  <Interactions>  (13) 
["V-A:ASP:366:CB:3208, V-A:ASP:366:CG:3209, V-B:ASP:366:CB:8180, V-B:TYR:539:CE1:9844, V-B:MET:535:CE:9804, V-B:PRO:540:CA:9852, V-B:TYR:539:CZ:9846, V-B:TYR:531:CE2:9762, H-B:ASP:366:OD1:8182, V-B:ASN:362:C:8140, V-B:PRO:540:N:9853, V-B:TYR:531:CZ:9763, V-B:PRO:540:CB:9854, V-B:ASP:366:CG:8181, H-B:TYR:539:N:9839, V-B:LEU:363:CD1:8157, V-B:LEU:363:CA:8153, H-B:TYR:531:OH:9764, V-B:ALA:541:CB:9861, H-B:GLU:543:OE2:9879, V-B:GLU:543:CD:9877, V-B:TYR:539:CE2:9845, H-B:ALA:541:N:9860, V-B:TYR:539:C:9836, V-B:TYR:539:CD1:9842"]

$$$$
1n_Grossjean_2025
     RDKit          3D

 27 28  0  0  0  0  0  0  0  0999 V2000
  127.7940  122.1460   59.8090 C   0  0  0  0  0  0  0  0  0  0  0  0
  128.5080  122.1280   58.4540 C   0  0  0  0  0  0  0  0  0  0  0  0
  127.6220  121.6250   57.4610 O   0  0  0  0  0  0  0  0  0  0  0  0
  127.0910  122.4430   56.5160 C   0  0  0  0  0  0  0  0  0  0  0  0
  126.8220  122.0730   55.3700 O   0  0  0  0  0  0  0  0  0  0  0  0
  126.8520  123.8420   57.0080 C   0  0  0  0  0  0  0  0  0  0  0  0
  127.8560  124.8230   56.9730 C   0  0  0  0  0  0  0  0  0  0  0  0
  127.6020  126.1090   57.4400 C   0  0  0  0  0  0  0  0  0  0  0  0
  126.3490  126.4400   57.9580 C   0  0  0  0  0  0  0  0  0  0  0  0
  126.2040  127.7670   58.4070 N   0  0  0  0  0  0  0  0  0  0  0  0
  126.8070  128.8960   57.9760 C   0  0  0  0  0  0  0  0  0  0  0  0
  127.6270  128.9620   57.0600 O   0  0  0  0  0  0  0  0  0  0  0  0
  126.4080  130.1830   58.7100 C   0  0  0  0  0  0  0  0  0  0  0  0
  126.9470  131.4600   58.0300 C   0  0  0  0  0  0  0  0  0  0  0  0
  127.9990  132.4940   59.0930 S   0  0  0  0  0  0  0  0  0  0  0  0
  129.6930  132.0670   58.7530 C   0  0  0  0  0  0  0  0  0  0  0  0
  130.3870  131.6820   59.8540 N   0  0  0  0  0  0  0  0  0  0  0  0
  131.6830  131.3180   59.7110 C   0  0  0  0  0  0  0  0  0  0  0  0
  132.3910  130.8890   60.9820 C   0  0  0  0  0  0  0  0  0  0  0  0
  132.3370  131.3290   58.4810 C   0  0  0  0  0  0  0  0  0  0  0  0
  131.6360  131.7450   57.3430 C   0  0  0  0  0  0  0  0  0  0  0  0
  132.3770  131.7620   56.0080 C   0  0  0  0  0  0  0  0  0  0  0  0
  130.2830  132.1340   57.4690 C   0  0  0  0  0  0  0  0  0  0  0  0
  129.5460  132.6210   56.3010 C   0  0  0  0  0  0  0  0  0  0  0  0
  128.9650  133.0070   55.3780 N   0  0  0  0  0  0  0  0  0  0  0  0
  125.3390  125.4680   57.9870 C   0  0  0  0  0  0  0  0  0  0  0  0
  125.5930  124.1830   57.5160 C   0  0  0  0  0  0  0  0  0  0  0  0
  1  2  1  0
  2  3  1  0
  3  4  1  0
  4  5  2  0
  4  6  1  0
  6  7  2  0
  7  8  1  0
  8  9  2  0
  9 10  1  0
 10 11  1  0
 11 12  2  0
 11 13  1  0
 13 14  1  0
 14 15  1  0
 15 16  1  0
 16 17  2  0
 17 18  1  0
 18 19  1  0
 18 20  2  0
 20 21  1  0
 21 22  1  0
 21 23  2  0
 23 24  1  0
 24 25  3  0
  9 26  1  0
 26 27  2  0
 27  6  1  0
 23 16  1  0
M  END
>  <Binding energies>  (14) 
[-8.65]

>  <Ligand effiencies>  (14) 
[-0.30892857142857144]

>  <Interactions>  (14) 
["V-A:TYR:539:CD2:4871, V-A:PRO:540:CB:4882, V-A:PRO:540:CA:4880, V-A:PRO:540:N:4881, V-A:LEU:363:CD1:3185, V-A:TYR:539:C:4864, V-A:ASN:362:CB:3172, V-A:GLU:543:CD:4905, V-A:TYR:539:CE2:4873, V-A:ILE:538:CD1:4862, V-B:ASP:366:CB:8180, V-B:TYR:539:CE1:9844, V-B:MET:535:CE:9804, V-B:PRO:540:CA:9852, V-B:TYR:539:CZ:9846, V-A:TYR:531:CZ:4791, H-B:ASP:366:OD1:8182, V-B:PRO:540:N:9853, V-B:PRO:540:C:9850, V-B:ASP:366:CG:8181, H-B:TYR:539:N:9839, H-B:TYR:531:OH:9764, V-B:ALA:541:CB:9861, V-A:ILE:538:CG2:4860, V-B:TYR:539:CE2:9845, V-B:TYR:539:C:9836, V-B:TYR:539:CD2:9843, V-B:TYR:539:CD1:9842, V-B:TYR:539:CG:9841, H-A:TYR:539:N:4867, V-A:TYR:539:CA:4866, V-A:TYR:531:CE2:4790"]

$$$$
1q_Grossjean_2025
     RDKit          3D

 21 21  0  0  0  0  0  0  0  0999 V2000
  134.9590  127.0530   73.8030 C   0  0  0  0  0  0  0  0  0  0  0  0
  133.9120  126.5630   74.6290 O   0  0  0  0  0  0  0  0  0  0  0  0
  133.5820  125.2480   74.6130 C   0  0  0  0  0  0  0  0  0  0  0  0
  134.3570  124.3120   74.8160 O   0  0  0  0  0  0  0  0  0  0  0  0
  132.1000  124.9760   74.2760 C   0  0  0  0  0  0  0  0  0  0  0  0
  131.8240  123.5580   74.0030 N   0  0  0  0  0  0  0  0  0  0  0  0
  130.7550  123.0750   73.3410 C   0  0  0  0  0  0  0  0  0  0  0  0
  129.8690  123.7950   72.8770 O   0  0  0  0  0  0  0  0  0  0  0  0
  130.7010  121.5500   73.1740 C   0  0  0  0  0  0  0  0  0  0  0  0
  129.3400  121.0140   72.6860 C   0  0  0  0  0  0  0  0  0  0  0  0
  128.6550  119.7010   73.7400 S   0  0  0  0  0  0  0  0  0  0  0  0
  126.8920  119.9320   73.8600 C   0  0  0  0  0  0  0  0  0  0  0  0
  126.4840  120.3350   75.0900 N   0  0  0  0  0  0  0  0  0  0  0  0
  125.1640  120.5410   75.3040 C   0  0  0  0  0  0  0  0  0  0  0  0
  124.7830  120.9740   76.7080 C   0  0  0  0  0  0  0  0  0  0  0  0
  124.2050  120.3670   74.3090 C   0  0  0  0  0  0  0  0  0  0  0  0
  124.6160  119.9770   73.0300 C   0  0  0  0  0  0  0  0  0  0  0  0
  123.5470  119.8110   71.9510 C   0  0  0  0  0  0  0  0  0  0  0  0
  125.9900  119.7580   72.7820 C   0  0  0  0  0  0  0  0  0  0  0  0
  126.4450  119.4040   71.4360 C   0  0  0  0  0  0  0  0  0  0  0  0
  126.8000  119.1250   70.3700 N   0  0  0  0  0  0  0  0  0  0  0  0
  1  2  1  0
  2  3  1  0
  3  4  2  0
  3  5  1  0
  5  6  1  0
  6  7  1  0
  7  8  2  0
  7  9  1  0
  9 10  1  0
 10 11  1  0
 11 12  1  0
 12 13  2  0
 13 14  1  0
 14 15  1  0
 14 16  2  0
 16 17  1  0
 17 18  1  0
 17 19  2  0
 19 20  1  0
 20 21  3  0
 19 12  1  0
M  END
>  <Binding energies>  (15) 
[-6.8]

>  <Ligand effiencies>  (15) 
[-0.3090909090909091]

>  <Interactions>  (15) 
["H-A:LYS:547:NZ:4948, H-B:LYS:547:NZ:9920, V-B:GLY:544:CA:9883, V-A:HIS:456:CD2:4064, V-A:TYR:484:CB:4337, V-A:TYR:484:CG:4338, V-B:VAL:542:CG1:9868, V-A:VAL:457:C:4069, V-A:VAL:458:CG2:4083, V-A:ASP:473:CB:4235, V-B:LYS:547:CG:9917, V-A:ASP:473:CG:4236, V-A:HIS:456:CB:4061, H-A:ASP:473:OD1:4237, V-B:LYS:547:CD:9918, V-A:LYS:547:CG:4945, V-B:LYS:547:CA:9914, V-A:TYR:484:CD2:4340, V-B:LYS:547:CB:9916, H-A:SER:483:OG:4330, V-A:ARG:545:C:4914, H-A:TYR:484:N:4336"]

$$$$
2a_Grossjean_2025
     RDKit          3D

 29 30  0  0  0  0  0  0  0  0999 V2000
  124.1460  123.2490   61.3950 C   0  0  0  0  0  0  0  0  0  0  0  0
  123.8710  124.3670   60.3850 C   0  0  0  0  0  0  0  0  0  0  0  0
  124.0360  123.8600   59.0660 O   0  0  0  0  0  0  0  0  0  0  0  0
  124.7050  124.5700   58.1210 C   0  0  0  0  0  0  0  0  0  0  0  0
  124.1440  125.2540   57.2600 O   0  0  0  0  0  0  0  0  0  0  0  0
  126.1980  124.4550   58.2430 C   0  0  0  0  0  0  0  0  0  0  0  0
  126.9960  125.5420   58.6270 C   0  0  0  0  0  0  0  0  0  0  0  0
  128.3770  125.4030   58.7290 C   0  0  0  0  0  0  0  0  0  0  0  0
  128.9890  124.1820   58.4420 C   0  0  0  0  0  0  0  0  0  0  0  0
  130.3900  124.1600   58.5640 N   0  0  0  0  0  0  0  0  0  0  0  0
  131.1820  124.6090   59.5620 C   0  0  0  0  0  0  0  0  0  0  0  0
  130.7920  125.1710   60.5860 O   0  0  0  0  0  0  0  0  0  0  0  0
  132.6850  124.3850   59.3640 C   0  0  0  0  0  0  0  0  0  0  0  0
  133.4080  123.2280   60.5740 S   0  0  0  0  0  0  0  0  0  0  0  0
  132.7360  123.5570   62.2000 C   0  0  0  0  0  0  0  0  0  0  0  0
  133.5070  124.3260   63.0110 N   0  0  0  0  0  0  0  0  0  0  0  0
  133.0670  124.6040   64.2590 C   0  0  0  0  0  0  0  0  0  0  0  0
  133.9960  125.4460   65.1140 C   0  0  0  0  0  0  0  0  0  0  0  0
  131.8490  124.1410   64.7460 C   0  0  0  0  0  0  0  0  0  0  0  0
  131.0310  123.3520   63.9220 C   0  0  0  0  0  0  0  0  0  0  0  0
  129.6850  122.8480   64.4760 C   0  0  0  0  0  0  0  0  0  0  0  0
  129.4130  123.4500   65.6340 F   0  0  0  0  0  0  0  0  0  0  0  0
  128.7070  123.1140   63.6090 F   0  0  0  0  0  0  0  0  0  0  0  0
  129.6790  121.5310   64.6960 F   0  0  0  0  0  0  0  0  0  0  0  0
  131.4830  123.0490   62.6120 C   0  0  0  0  0  0  0  0  0  0  0  0
  130.6700  122.2260   61.7100 C   0  0  0  0  0  0  0  0  0  0  0  0
  130.0290  121.5770   60.9980 N   0  0  0  0  0  0  0  0  0  0  0  0
  128.1970  123.0880   58.0650 C   0  0  0  0  0  0  0  0  0  0  0  0
  126.8150  123.2280   57.9680 C   0  0  0  0  0  0  0  0  0  0  0  0
  1  2  1  0
  2  3  1  0
  3  4  1  0
  4  5  2  0
  4  6  1  0
  6  7  2  0
  7  8  1  0
  8  9  2  0
  9 10  1  0
 10 11  1  0
 11 12  2  0
 11 13  1  0
 13 14  1  0
 14 15  1  0
 15 16  2  0
 16 17  1  0
 17 18  1  0
 17 19  2  0
 19 20  1  0
 20 21  1  0
 21 22  1  0
 21 23  1  0
 21 24  1  0
 20 25  2  0
 25 26  1  0
 26 27  3  0
  9 28  1  0
 28 29  2  0
 29  6  1  0
 25 15  1  0
M  END
>  <Binding energies>  (16) 
[-6.98]

>  <Ligand effiencies>  (16) 
[-0.2326666666666667]

>  <Interactions>  (16) 
["V-A:ASP:366:CB:3208, V-A:ASP:366:CG:3209, V-A:HIS:456:CE1:4066, V-B:GLU:543:CB:9875, V-B:ASN:362:CB:8144, V-B:TYR:539:CE1:9844, V-B:PRO:540:CA:9852, V-B:TYR:539:CZ:9846, V-B:ASN:362:C:8140, V-B:PRO:540:CB:9854, V-B:LEU:363:CD1:8157, V-B:LEU:363:CA:8153, H-B:TYR:531:OH:9764, V-B:ALA:541:CB:9861, H-B:TYR:539:OH:9847, V-B:GLU:543:CD:9877, V-B:GLU:543:CG:9876, V-A:ARG:545:CZ:4923, V-A:TYR:484:CZ:4343, V-A:ARG:545:CD:4920, V-B:TYR:539:CE2:9845, V-A:ARG:545:CG:4919, V-A:TYR:484:CE1:4341, V-B:GLU:543:CA:9873, V-A:LEU:475:CD1:4254, H-A:GLY:454:N:4046, V-A:GLY:454:CA:4045, V-A:GLY:453:CA:4040, V-A:ASP:366:CA:3206, V-A:LEU:475:CD2:4255, V-A:LEU:475:CG:4253"]

$$$$
2b_Grossjean_2025
     RDKit          3D

 28 29  0  0  0  0  0  0  0  0999 V2000
  128.2420  122.1110   59.2020 C   0  0  0  0  0  0  0  0  0  0  0  0
  128.1980  121.7560   57.8270 O   0  0  0  0  0  0  0  0  0  0  0  0
  127.3070  122.3370   56.9830 C   0  0  0  0  0  0  0  0  0  0  0  0
  126.7960  121.7500   56.0240 O   0  0  0  0  0  0  0  0  0  0  0  0
  127.0080  123.7670   57.3300 C   0  0  0  0  0  0  0  0  0  0  0  0
  125.7290  124.1820   57.7280 C   0  0  0  0  0  0  0  0  0  0  0  0
  125.4840  125.5160   58.0410 C   0  0  0  0  0  0  0  0  0  0  0  0
  126.5090  126.4590   57.9690 C   0  0  0  0  0  0  0  0  0  0  0  0
  126.1510  127.7800   58.3010 N   0  0  0  0  0  0  0  0  0  0  0  0
  126.4490  128.9380   57.6730 C   0  0  0  0  0  0  0  0  0  0  0  0
  127.1440  129.0410   56.6610 O   0  0  0  0  0  0  0  0  0  0  0  0
  125.8670  130.1990   58.3180 C   0  0  0  0  0  0  0  0  0  0  0  0
  126.9540  131.6530   58.1590 S   0  0  0  0  0  0  0  0  0  0  0  0
  128.6660  131.1510   58.2730 C   0  0  0  0  0  0  0  0  0  0  0  0
  128.9670  130.3130   59.2980 N   0  0  0  0  0  0  0  0  0  0  0  0
  130.2440  129.8960   59.4480 C   0  0  0  0  0  0  0  0  0  0  0  0
  130.4990  128.9720   60.6240 C   0  0  0  0  0  0  0  0  0  0  0  0
  131.2670  130.2850   58.5890 C   0  0  0  0  0  0  0  0  0  0  0  0
  130.9780  131.1450   57.5180 C   0  0  0  0  0  0  0  0  0  0  0  0
  132.1210  131.5620   56.5730 C   0  0  0  0  0  0  0  0  0  0  0  0
  132.5350  132.7940   56.8750 F   0  0  0  0  0  0  0  0  0  0  0  0
  133.1480  130.7190   56.6950 F   0  0  0  0  0  0  0  0  0  0  0  0
  131.7550  131.5650   55.2900 F   0  0  0  0  0  0  0  0  0  0  0  0
  129.6430  131.5960   57.3520 C   0  0  0  0  0  0  0  0  0  0  0  0
  129.2860  132.5000   56.2550 C   0  0  0  0  0  0  0  0  0  0  0  0
  129.0040  133.2140   55.3890 N   0  0  0  0  0  0  0  0  0  0  0  0
  127.7890  126.0540   57.5640 C   0  0  0  0  0  0  0  0  0  0  0  0
  128.0320  124.7200   57.2500 C   0  0  0  0  0  0  0  0  0  0  0  0
  1  2  1  0
  2  3  1  0
  3  4  2  0
  3  5  1  0
  5  6  2  0
  6  7  1  0
  7  8  2  0
  8  9  1  0
  9 10  1  0
 10 11  2  0
 10 12  1  0
 12 13  1  0
 13 14  1  0
 14 15  2  0
 15 16  1  0
 16 17  1  0
 16 18  2  0
 18 19  1  0
 19 20  1  0
 20 21  1  0
 20 22  1  0
 20 23  1  0
 19 24  2  0
 24 25  1  0
 25 26  3  0
  8 27  1  0
 27 28  2  0
 28  5  1  0
 24 14  1  0
M  END
>  <Binding energies>  (17) 
[-7.19]

>  <Ligand effiencies>  (17) 
[-0.24793103448275863]

>  <Interactions>  (17) 
["V-A:TYR:539:CD2:4871, V-A:PRO:540:CB:4882, V-A:PRO:540:CA:4880, V-A:PRO:540:N:4881, V-A:LEU:363:CD1:3185, V-A:TYR:539:C:4864, V-A:LEU:363:CA:3181, V-A:ILE:538:CD1:4862, V-B:ASP:366:CB:8180, V-B:MET:535:CE:9804, V-B:PRO:540:CA:9852, V-B:TYR:539:CZ:9846, V-A:TYR:531:CZ:4791, H-B:ASP:366:OD1:8182, V-B:PRO:540:N:9853, V-B:ASP:366:CG:8181, H-B:TYR:539:N:9839, H-B:TYR:531:OH:9764, V-A:ILE:538:CG2:4860, V-A:PRO:540:CD:4884, V-B:TYR:539:CE2:9845, V-B:TYR:539:C:9836, V-B:TYR:539:CD2:9843, V-B:TYR:539:CD1:9842, H-A:TYR:539:N:4867, V-A:TYR:531:CE2:4790, V-A:PRO:540:CG:4883"]

$$$$
2c_Grossjean_2025
     RDKit          3D

 26 27  0  0  0  0  0  0  0  0999 V2000
  133.1300  125.1160   64.8890 C   0  0  0  0  0  0  0  0  0  0  0  0
  133.8670  124.7980   63.7140 O   0  0  0  0  0  0  0  0  0  0  0  0
  133.1940  124.6360   62.5190 C   0  0  0  0  0  0  0  0  0  0  0  0
  132.0330  125.3900   62.3510 C   0  0  0  0  0  0  0  0  0  0  0  0
  131.2850  125.2940   61.1810 C   0  0  0  0  0  0  0  0  0  0  0  0
  131.6920  124.4230   60.1600 C   0  0  0  0  0  0  0  0  0  0  0  0
  131.0120  124.2720   58.9370 N   0  0  0  0  0  0  0  0  0  0  0  0
  130.6210  125.2280   58.0670 C   0  0  0  0  0  0  0  0  0  0  0  0
  130.7590  126.4390   58.2470 O   0  0  0  0  0  0  0  0  0  0  0  0
  129.9260  124.7040   56.8010 C   0  0  0  0  0  0  0  0  0  0  0  0
  128.1020  124.6330   56.8770 S   0  0  0  0  0  0  0  0  0  0  0  0
  127.5990  123.9680   58.4590 C   0  0  0  0  0  0  0  0  0  0  0  0
  128.5530  123.2770   59.1370 N   0  0  0  0  0  0  0  0  0  0  0  0
  128.2410  122.7380   60.3350 C   0  0  0  0  0  0  0  0  0  0  0  0
  129.3530  121.9690   61.0200 C   0  0  0  0  0  0  0  0  0  0  0  0
  126.9800  122.8690   60.9120 C   0  0  0  0  0  0  0  0  0  0  0  0
  125.9820  123.5840   60.2350 C   0  0  0  0  0  0  0  0  0  0  0  0
  124.5930  123.7220   60.8870 C   0  0  0  0  0  0  0  0  0  0  0  0
  124.6000  123.1620   62.0980 F   0  0  0  0  0  0  0  0  0  0  0  0
  124.2680  125.0090   61.0070 F   0  0  0  0  0  0  0  0  0  0  0  0
  123.6290  123.1290   60.1780 F   0  0  0  0  0  0  0  0  0  0  0  0
  126.2940  124.1510   58.9730 C   0  0  0  0  0  0  0  0  0  0  0  0
  125.2890  124.9080   58.2190 C   0  0  0  0  0  0  0  0  0  0  0  0
  124.4950  125.5050   57.6240 N   0  0  0  0  0  0  0  0  0  0  0  0
  132.8610  123.6770   60.3160 C   0  0  0  0  0  0  0  0  0  0  0  0
  133.6060  123.7770   61.4870 C   0  0  0  0  0  0  0  0  0  0  0  0
  1  2  1  0
  2  3  1  0
  3  4  2  0
  4  5  1  0
  5  6  2  0
  6  7  1  0
  7  8  1  0
  8  9  2  0
  8 10  1  0
 10 11  1  0
 11 12  1  0
 12 13  2  0
 13 14  1  0
 14 15  1  0
 14 16  2  0
 16 17  1  0
 17 18  1  0
 18 19  1  0
 18 20  1  0
 18 21  1  0
 17 22  2  0
 22 23  1  0
 23 24  3  0
  6 25  1  0
 25 26  2  0
 26  3  1  0
 22 12  1  0
M  END
>  <Binding energies>  (18) 
[-6.6]

>  <Ligand effiencies>  (18) 
[-0.24444444444444444]

>  <Interactions>  (18) 
["V-A:ASP:366:CG:3209, V-A:HIS:456:CE1:4066, V-B:ASN:362:CB:8144, V-B:TYR:539:CE1:9844, V-B:PRO:540:CA:9852, V-B:TYR:539:CZ:9846, V-B:ASN:362:C:8140, V-B:PRO:540:C:9850, V-B:PRO:540:CB:9854, V-B:ASP:366:CG:8181, V-B:LEU:363:CA:8153, H-B:TYR:531:OH:9764, V-B:ALA:541:CB:9861, H-B:TYR:539:OH:9847, V-B:GLU:543:CD:9877, V-B:GLU:543:CG:9876, V-A:ARG:545:CZ:4923, H-A:ARG:545:NH2:4925, V-B:TYR:539:CE2:9845, V-B:TYR:539:CD2:9843, V-B:LEU:363:CB:8155, H-A:GLY:454:N:4046, H-A:ARG:545:NH1:4924, V-B:ARG:545:CZ:9895, V-B:ALA:541:CA:9859, V-B:ALA:541:C:9857"]

$$$$
2d_Ghoteimi_2023
     RDKit          3D

 38 42  0  0  0  0  0  0  0  0999 V2000
  124.5950  130.3770   62.8700 C   0  0  0  0  0  0  0  0  0  0  0  0
  123.7840  130.4070   64.0340 O   0  0  0  0  0  0  0  0  0  0  0  0
  124.2130  129.8460   65.1840 C   0  0  0  0  0  0  0  0  0  0  0  0
  123.6670  129.9600   66.2850 O   0  0  0  0  0  0  0  0  0  0  0  0
  125.4900  129.0210   64.9590 C   0  0  0  0  0  0  0  0  0  0  0  0
  126.9170  129.7640   65.8220 S   0  0  0  0  0  0  0  0  0  0  0  0
  128.0890  128.4720   66.1790 C   0  0  0  0  0  0  0  0  0  0  0  0
  128.2500  128.2460   67.5060 N   0  0  0  0  0  0  0  0  0  0  0  0
  129.1190  127.2920   67.9250 C   0  0  0  0  0  0  0  0  0  0  0  0
  129.2560  127.1130   69.4020 C   0  0  0  0  0  0  0  0  0  0  0  0
  130.2920  127.7400   70.1030 C   0  0  0  0  0  0  0  0  0  0  0  0
  130.4260  127.5770   71.4800 C   0  0  0  0  0  0  0  0  0  0  0  0
  129.5200  126.7900   72.2070 C   0  0  0  0  0  0  0  0  0  0  0  0
  129.6500  126.6020   73.5880 N   0  0  0  0  0  0  0  0  0  0  0  0
  128.6390  127.1110   74.5350 C   0  0  0  0  0  0  0  0  0  0  0  0
  129.1250  127.1430   75.9990 C   0  0  0  0  0  0  0  0  0  0  0  0
  129.5770  125.8560   76.3870 O   0  0  0  0  0  0  0  0  0  0  0  0
  130.6590  125.4180   75.5810 C   0  0  0  0  0  0  0  0  0  0  0  0
  130.2210  125.3410   74.1030 C   0  0  0  0  0  0  0  0  0  0  0  0
  128.4910  126.1530   71.4990 C   0  0  0  0  0  0  0  0  0  0  0  0
  128.3590  126.3140   70.1220 C   0  0  0  0  0  0  0  0  0  0  0  0
  129.8520  126.5330   67.0080 C   0  0  0  0  0  0  0  0  0  0  0  0
  129.6800  126.7230   65.6320 C   0  0  0  0  0  0  0  0  0  0  0  0
  130.4750  125.8560   64.7110 C   0  0  0  0  0  0  0  0  0  0  0  0
  129.8300  124.9550   63.8620 C   0  0  0  0  0  0  0  0  0  0  0  0
  130.5600  124.1510   62.9920 C   0  0  0  0  0  0  0  0  0  0  0  0
  131.9620  124.2240   62.9490 C   0  0  0  0  0  0  0  0  0  0  0  0
  132.7150  123.4360   62.0740 N   0  0  0  0  0  0  0  0  0  0  0  0
  132.7970  121.9710   62.2340 C   0  0  0  0  0  0  0  0  0  0  0  0
  133.3610  121.2470   60.9930 C   0  0  0  0  0  0  0  0  0  0  0  0
  134.6250  121.7910   60.6460 O   0  0  0  0  0  0  0  0  0  0  0  0
  134.5360  123.1750   60.3460 C   0  0  0  0  0  0  0  0  0  0  0  0
  134.0050  123.9490   61.5720 C   0  0  0  0  0  0  0  0  0  0  0  0
  132.6010  125.1440   63.7920 C   0  0  0  0  0  0  0  0  0  0  0  0
  131.8690  125.9480   64.6610 C   0  0  0  0  0  0  0  0  0  0  0  0
  128.7690  127.7170   65.1960 C   0  0  0  0  0  0  0  0  0  0  0  0
  128.5400  127.9400   63.7650 C   0  0  0  0  0  0  0  0  0  0  0  0
  128.3630  128.1120   62.6340 N   0  0  0  0  0  0  0  0  0  0  0  0
  1  2  1  0
  2  3  1  0
  3  4  2  0
  3  5  1  0
  5  6  1  0
  6  7  1  0
  7  8  2  0
  8  9  1  0
  9 10  1  0
 10 11  2  0
 11 12  1  0
 12 13  2  0
 13 14  1  0
 14 15  1  0
 15 16  1  0
 16 17  1  0
 17 18  1  0
 18 19  1  0
 13 20  1  0
 20 21  2  0
  9 22  2  0
 22 23  1  0
 23 24  1  0
 24 25  2  0
 25 26  1  0
 26 27  2  0
 27 28  1  0
 28 29  1  0
 29 30  1  0
 30 31  1  0
 31 32  1  0
 32 33  1  0
 27 34  1  0
 34 35  2  0
 23 36  2  0
 36 37  1  0
 37 38  3  0
 36  7  1  0
 21 10  1  0
 35 24  1  0
 19 14  1  0
 33 28  1  0
M  END
>  <Binding energies>  (19) 
[-9.54]

>  <Ligand effiencies>  (19) 
[-0.25105263157894736]

>  <Interactions>  (19) 
["V-A:ASP:366:CG:3209, V-A:GLU:543:CD:4905, V-B:LYS:547:CE:9919, V-A:LYS:547:CE:4947, V-A:HIS:456:CE1:4066, V-A:HIS:456:CD2:4064, V-B:HIS:456:CE1:9038, V-B:ASP:366:CG:8181, V-B:GLU:543:CD:9877, V-B:GLU:543:CG:9876, V-A:ARG:545:CZ:4923, V-B:TYR:539:CE2:9845, V-A:LEU:475:CD1:4254, V-A:ILE:369:CG1:3234, V-A:ILE:369:CB:3232, V-A:ILE:369:CG2:3233, V-A:GLY:454:CA:4045, V-B:ARG:545:CZ:9895, H-B:TYR:484:OH:9316, H-B:GLY:454:N:9018, V-A:ASP:366:CA:3206, V-B:ARG:545:CD:9892, V-B:LYS:547:CD:9918, H-B:HIS:456:ND1:9035, H-B:ILE:455:N:9023"]

$$$$
2d_Grossjean_2025
     RDKit          3D

 24 25  0  0  0  0  0  0  0  0999 V2000
  127.5930  122.7600   54.8420 C   0  0  0  0  0  0  0  0  0  0  0  0
  127.0470  122.9340   56.2460 C   0  0  0  0  0  0  0  0  0  0  0  0
  125.8620  123.6250   56.4880 C   0  0  0  0  0  0  0  0  0  0  0  0
  125.3960  123.7540   57.8040 C   0  0  0  0  0  0  0  0  0  0  0  0
  124.0770  124.5130   58.0510 C   0  0  0  0  0  0  0  0  0  0  0  0
  123.6720  125.1020   56.9250 F   0  0  0  0  0  0  0  0  0  0  0  0
  123.1310  123.6650   58.4590 F   0  0  0  0  0  0  0  0  0  0  0  0
  124.1930  125.4620   58.9810 F   0  0  0  0  0  0  0  0  0  0  0  0
  126.1570  123.1800   58.8530 C   0  0  0  0  0  0  0  0  0  0  0  0
  125.6900  123.2480   60.2400 C   0  0  0  0  0  0  0  0  0  0  0  0
  125.3190  123.3000   61.3350 N   0  0  0  0  0  0  0  0  0  0  0  0
  127.3620  122.5180   58.5160 C   0  0  0  0  0  0  0  0  0  0  0  0
  128.4540  121.7690   59.7090 S   0  0  0  0  0  0  0  0  0  0  0  0
  129.4410  123.0790   60.5030 C   0  0  0  0  0  0  0  0  0  0  0  0
  130.4160  123.7630   59.5400 C   0  0  0  0  0  0  0  0  0  0  0  0
  131.5770  123.9600   59.9020 O   0  0  0  0  0  0  0  0  0  0  0  0
  129.8980  124.1300   58.3490 N   0  0  0  0  0  0  0  0  0  0  0  0
  130.5300  124.7650   57.2630 C   0  0  0  0  0  0  0  0  0  0  0  0
  130.0990  124.3790   55.9920 C   0  0  0  0  0  0  0  0  0  0  0  0
  130.6690  124.9460   54.8550 C   0  0  0  0  0  0  0  0  0  0  0  0
  131.6780  125.8970   54.9910 C   0  0  0  0  0  0  0  0  0  0  0  0
  132.1250  126.2810   56.2520 C   0  0  0  0  0  0  0  0  0  0  0  0
  131.5570  125.7160   57.3900 C   0  0  0  0  0  0  0  0  0  0  0  0
  127.7870  122.3840   57.2360 N   0  0  0  0  0  0  0  0  0  0  0  0
  1  2  1  0
  2  3  2  0
  3  4  1  0
  4  5  1  0
  5  6  1  0
  5  7  1  0
  5  8  1  0
  4  9  2  0
  9 10  1  0
 10 11  3  0
  9 12  1  0
 12 13  1  0
 13 14  1  0
 14 15  1  0
 15 16  2  0
 15 17  1  0
 17 18  1  0
 18 19  2  0
 19 20  1  0
 20 21  2  0
 21 22  1  0
 22 23  2  0
 12 24  2  0
 24  2  1  0
 23 18  1  0
M  END
>  <Binding energies>  (20) 
[-6.47]

>  <Ligand effiencies>  (20) 
[-0.2588]

>  <Interactions>  (20) 
["V-A:ASP:366:CB:3208, V-A:ASP:366:CG:3209, V-B:ASP:366:CB:8180, V-B:TYR:539:CE1:9844, V-B:MET:535:CE:9804, V-B:PRO:540:CA:9852, V-B:TYR:539:CZ:9846, V-B:TYR:531:CE2:9762, V-A:TYR:531:CZ:4791, V-B:ASN:362:C:8140, V-A:TYR:531:CE1:4789, V-B:PRO:540:N:9853, V-B:TYR:531:CZ:9763, V-B:PRO:540:C:9850, V-B:PRO:540:CB:9854, V-B:ASP:366:CG:8181, V-B:LEU:363:CD1:8157, V-B:LEU:363:CA:8153, H-B:TYR:539:OH:9847, V-B:TYR:539:CE2:9845, H-B:ALA:541:N:9860, V-B:ILE:538:CG2:9832, V-B:ILE:538:CB:9831, V-B:TYR:539:C:9836, V-B:ILE:538:CA:9829, V-B:LEU:363:CB:8155, V-B:LEU:363:CG:8156"]

$$$$
2e_Grossjean_2025
     RDKit          3D

 25 26  0  0  0  0  0  0  0  0999 V2000
  132.7450  131.4420   61.3850 C   0  0  0  0  0  0  0  0  0  0  0  0
  132.6340  131.2100   59.8900 C   0  0  0  0  0  0  0  0  0  0  0  0
  133.7210  130.7590   59.1370 C   0  0  0  0  0  0  0  0  0  0  0  0
  133.5420  130.5560   57.7680 C   0  0  0  0  0  0  0  0  0  0  0  0
  132.2950  130.8070   57.1900 C   0  0  0  0  0  0  0  0  0  0  0  0
  131.2510  131.2660   58.0010 C   0  0  0  0  0  0  0  0  0  0  0  0
  130.0070  131.4600   57.3770 N   0  0  0  0  0  0  0  0  0  0  0  0
  129.7050  132.3010   56.3630 C   0  0  0  0  0  0  0  0  0  0  0  0
  130.5200  133.0000   55.7590 O   0  0  0  0  0  0  0  0  0  0  0  0
  128.2210  132.3960   55.9950 C   0  0  0  0  0  0  0  0  0  0  0  0
  127.2220  131.1380   56.8540 S   0  0  0  0  0  0  0  0  0  0  0  0
  126.9900  131.7610   58.5040 C   0  0  0  0  0  0  0  0  0  0  0  0
  128.1370  131.9640   59.1980 N   0  0  0  0  0  0  0  0  0  0  0  0
  128.0500  132.3940   60.4770 C   0  0  0  0  0  0  0  0  0  0  0  0
  129.3710  132.6010   61.1940 C   0  0  0  0  0  0  0  0  0  0  0  0
  126.8310  132.6310   61.1110 C   0  0  0  0  0  0  0  0  0  0  0  0
  125.6350  132.4170   60.4100 C   0  0  0  0  0  0  0  0  0  0  0  0
  124.2970  132.6620   61.1300 C   0  0  0  0  0  0  0  0  0  0  0  0
  123.7990  133.8490   60.7810 F   0  0  0  0  0  0  0  0  0  0  0  0
  123.4210  131.7120   60.8000 F   0  0  0  0  0  0  0  0  0  0  0  0
  124.4180  132.6530   62.4600 F   0  0  0  0  0  0  0  0  0  0  0  0
  125.7100  131.9710   59.0670 C   0  0  0  0  0  0  0  0  0  0  0  0
  124.4960  131.7010   58.2900 C   0  0  0  0  0  0  0  0  0  0  0  0
  123.5370  131.4860   57.6770 N   0  0  0  0  0  0  0  0  0  0  0  0
  131.4160  131.4590   59.3420 N   0  0  0  0  0  0  0  0  0  0  0  0
  1  2  1  0
  2  3  2  0
  3  4  1  0
  4  5  2  0
  5  6  1  0
  6  7  1  0
  7  8  1  0
  8  9  2  0
  8 10  1  0
 10 11  1  0
 11 12  1  0
 12 13  2  0
 13 14  1  0
 14 15  1  0
 14 16  2  0
 16 17  1  0
 17 18  1  0
 18 19  1  0
 18 20  1  0
 18 21  1  0
 17 22  2  0
 22 23  1  0
 23 24  3  0
  6 25  2  0
 25  2  1  0
 22 12  1  0
M  END
>  <Binding energies>  (21) 
[-6.7]

>  <Ligand effiencies>  (21) 
[-0.2576923076923077]

>  <Interactions>  (21) 
["V-A:TYR:539:CD2:4871, V-A:PRO:540:CB:4882, V-A:ALA:541:CB:4889, V-A:PRO:540:CA:4880, V-A:LEU:363:CD1:3185, V-A:TYR:539:C:4864, V-A:ASP:366:CB:3208, V-A:LEU:363:CA:3181, V-A:ASP:366:CG:3209, V-A:ASN:362:CB:3172, V-A:GLU:543:CD:4905, V-A:ASN:362:C:3168, V-A:TYR:539:CE2:4873, V-B:ASP:366:CB:8180, V-B:ILE:369:CG2:8205, V-B:ASP:366:CG:8181, V-A:TYR:539:CZ:4874, V-A:TYR:539:CE1:4872, V-B:ILE:369:CD1:8207, H-A:TYR:539:N:4867, V-A:ALA:541:CA:4887, V-A:PRO:540:C:4878, V-B:GLY:454:CA:9017, V-A:LEU:363:CB:3183, V-A:TYR:539:CG:4869, V-B:ILE:369:CB:8204, H-A:TYR:539:OH:4875, V-B:ILE:369:CG1:8206"]

$$$$
2f_Grossjean_2025
     RDKit          3D

 24 25  0  0  0  0  0  0  0  0999 V2000
  134.2970  123.5060   59.7010 C   0  0  0  0  0  0  0  0  0  0  0  0
  133.4030  123.5110   60.9270 C   0  0  0  0  0  0  0  0  0  0  0  0
  133.7770  124.1640   62.1000 C   0  0  0  0  0  0  0  0  0  0  0  0
  132.9190  124.1330   63.2100 C   0  0  0  0  0  0  0  0  0  0  0  0
  133.3560  124.8500   64.5020 C   0  0  0  0  0  0  0  0  0  0  0  0
  132.4330  125.7430   64.8650 F   0  0  0  0  0  0  0  0  0  0  0  0
  133.5090  123.9630   65.4850 F   0  0  0  0  0  0  0  0  0  0  0  0
  134.5120  125.5030   64.3660 F   0  0  0  0  0  0  0  0  0  0  0  0
  131.6870  123.4390   63.0970 C   0  0  0  0  0  0  0  0  0  0  0  0
  130.7840  123.3300   64.2450 C   0  0  0  0  0  0  0  0  0  0  0  0
  130.0700  123.2460   65.1520 N   0  0  0  0  0  0  0  0  0  0  0  0
  131.3790  122.8280   61.8570 C   0  0  0  0  0  0  0  0  0  0  0  0
  129.8770  121.9270   61.5340 S   0  0  0  0  0  0  0  0  0  0  0  0
  128.4720  123.0710   61.7600 C   0  0  0  0  0  0  0  0  0  0  0  0
  127.3700  122.9660   60.6960 C   0  0  0  0  0  0  0  0  0  0  0  0
  126.1830  122.9160   61.0240 O   0  0  0  0  0  0  0  0  0  0  0  0
  127.8210  122.9170   59.4240 N   0  0  0  0  0  0  0  0  0  0  0  0
  127.0970  122.8320   58.2200 C   0  0  0  0  0  0  0  0  0  0  0  0
  125.8250  123.3890   57.9910 C   0  0  0  0  0  0  0  0  0  0  0  0
  125.2180  123.2350   56.7440 C   0  0  0  0  0  0  0  0  0  0  0  0
  125.9000  122.5310   55.7510 C   0  0  0  0  0  0  0  0  0  0  0  0
  127.1300  121.9910   55.9440 N   0  0  0  0  0  0  0  0  0  0  0  0
  127.7080  122.1500   57.1620 C   0  0  0  0  0  0  0  0  0  0  0  0
  132.2310  122.8490   60.8030 N   0  0  0  0  0  0  0  0  0  0  0  0
  1  2  1  0
  2  3  2  0
  3  4  1  0
  4  5  1  0
  5  6  1  0
  5  7  1  0
  5  8  1  0
  4  9  2  0
  9 10  1  0
 10 11  3  0
  9 12  1  0
 12 13  1  0
 13 14  1  0
 14 15  1  0
 15 16  2  0
 15 17  1  0
 17 18  1  0
 18 19  2  0
 19 20  1  0
 20 21  2  0
 21 22  1  0
 22 23  2  0
 12 24  2  0
 24  2  1  0
 23 18  1  0
M  END
>  <Binding energies>  (22) 
[-6.96]

>  <Ligand effiencies>  (22) 
[-0.2784]

>  <Interactions>  (22) 
["V-A:ASP:366:CB:3208, V-A:ASP:366:CG:3209, V-A:HIS:456:CE1:4066, V-B:TYR:539:CE1:9844, V-B:PRO:540:CA:9852, V-B:TYR:539:CZ:9846, V-B:PRO:540:N:9853, V-B:PRO:540:CB:9854, H-B:TYR:539:N:9839, V-B:LEU:363:CD1:8157, V-B:ALA:541:CB:9861, H-B:TYR:539:OH:9847, V-A:ARG:545:CZ:4923, V-A:TYR:484:CZ:4343, V-A:ARG:545:CD:4920, H-B:ALA:541:N:9860, V-B:ILE:538:CG2:9832, V-B:ILE:538:CB:9831, V-B:PRO:540:CD:9856, V-A:ILE:369:CG1:3234, V-B:TYR:539:C:9836, V-A:ILE:369:CB:3232, V-B:ILE:538:CA:9829, V-B:TYR:539:CD1:9842, V-B:TYR:539:CG:9841, V-A:ILE:369:CG2:3233, V-A:GLY:454:CA:4045, V-A:GLY:453:C:4038, V-A:GLY:453:CA:4040, H-A:TYR:484:OH:4344, V-A:ASP:366:CA:3206, V-A:GLY:454:C:4043, V-B:TYR:539:CA:9838"]

$$$$
2g_Grossjean_2025
     RDKit          3D

 25 26  0  0  0  0  0  0  0  0999 V2000
  129.1920  121.3900   60.6260 C   0  0  0  0  0  0  0  0  0  0  0  0
  128.1440  122.2240   59.9140 C   0  0  0  0  0  0  0  0  0  0  0  0
  127.0060  122.6830   60.5730 C   0  0  0  0  0  0  0  0  0  0  0  0
  126.0610  123.4450   59.8680 C   0  0  0  0  0  0  0  0  0  0  0  0
  124.8040  123.9370   60.6120 C   0  0  0  0  0  0  0  0  0  0  0  0
  123.7140  123.7050   59.8790 F   0  0  0  0  0  0  0  0  0  0  0  0
  124.6880  123.2970   61.7750 F   0  0  0  0  0  0  0  0  0  0  0  0
  124.8380  125.2460   60.8730 F   0  0  0  0  0  0  0  0  0  0  0  0
  126.3040  123.7300   58.5000 C   0  0  0  0  0  0  0  0  0  0  0  0
  125.3230  124.4730   57.7040 C   0  0  0  0  0  0  0  0  0  0  0  0
  124.5480  125.0590   57.0760 N   0  0  0  0  0  0  0  0  0  0  0  0
  127.5030  123.2470   57.9220 C   0  0  0  0  0  0  0  0  0  0  0  0
  127.9760  123.5330   56.2300 S   0  0  0  0  0  0  0  0  0  0  0  0
  129.6090  124.3480   56.2480 C   0  0  0  0  0  0  0  0  0  0  0  0
  129.9710  125.0300   57.5740 C   0  0  0  0  0  0  0  0  0  0  0  0
  129.8430  126.2460   57.7280 O   0  0  0  0  0  0  0  0  0  0  0  0
  130.4370  124.2130   58.5360 N   0  0  0  0  0  0  0  0  0  0  0  0
  130.8390  124.6260   59.8820 C   0  0  0  0  0  0  0  0  0  0  0  0
  132.0320  123.8610   60.4440 C   0  0  0  0  0  0  0  0  0  0  0  0
  131.8580  123.0070   61.5380 C   0  0  0  0  0  0  0  0  0  0  0  0
  132.9390  122.2780   62.0300 C   0  0  0  0  0  0  0  0  0  0  0  0
  134.1850  122.3970   61.4210 C   0  0  0  0  0  0  0  0  0  0  0  0
  134.3620  123.2370   60.3220 C   0  0  0  0  0  0  0  0  0  0  0  0
  133.2830  123.9650   59.8300 C   0  0  0  0  0  0  0  0  0  0  0  0
  128.3940  122.4930   58.6130 N   0  0  0  0  0  0  0  0  0  0  0  0
  1  2  1  0
  2  3  2  0
  3  4  1  0
  4  5  1  0
  5  6  1  0
  5  7  1  0
  5  8  1  0
  4  9  2  0
  9 10  1  0
 10 11  3  0
  9 12  1  0
 12 13  1  0
 13 14  1  0
 14 15  1  0
 15 16  2  0
 15 17  1  0
 17 18  1  0
 18 19  1  0
 19 20  2  0
 20 21  1  0
 21 22  2  0
 22 23  1  0
 23 24  2  0
 12 25  2  0
 25  2  1  0
 24 19  1  0
M  END
>  <Binding energies>  (23) 
[-6.53]

>  <Ligand effiencies>  (23) 
[-0.25115384615384617]

>  <Interactions>  (23) 
["V-A:ASP:366:CB:3208, V-A:ASP:366:CG:3209, V-B:ASN:362:CB:8144, V-B:TYR:539:CE1:9844, V-B:MET:535:CE:9804, V-B:PRO:540:CA:9852, V-B:TYR:539:CZ:9846, V-B:ASN:362:C:8140, V-B:PRO:540:C:9850, V-B:PRO:540:CB:9854, V-B:ASP:366:CG:8181, V-B:LEU:363:CA:8153, H-B:TYR:531:OH:9764, V-B:ALA:541:CB:9861, H-B:TYR:539:OH:9847, V-B:GLU:543:CD:9877, V-B:TYR:539:CE2:9845, V-A:LEU:475:CD1:4254, V-A:ILE:369:CG1:3234, V-B:TYR:539:C:9836, V-A:ILE:369:CB:3232, V-B:TYR:539:CD2:9843, V-A:ILE:369:CG2:3233, V-A:GLY:454:CA:4045, V-B:ARG:545:CZ:9895, V-B:ALA:541:CA:9859, V-A:ASP:366:CA:3206"]

$$$$
2h_Grossjean_2025
     RDKit          3D

 31 32  0  0  0  0  0  0  0  0999 V2000
  131.3030  132.5140   56.0980 C   0  0  0  0  0  0  0  0  0  0  0  0
  129.9760  132.9930   55.9090 O   0  0  0  0  0  0  0  0  0  0  0  0
  128.9070  132.1910   56.2660 C   0  0  0  0  0  0  0  0  0  0  0  0
  128.0540  131.5650   55.3430 C   0  0  0  0  0  0  0  0  0  0  0  0
  127.0010  130.7640   55.7790 C   0  0  0  0  0  0  0  0  0  0  0  0
  126.7770  130.5690   57.1420 C   0  0  0  0  0  0  0  0  0  0  0  0
  125.6290  129.6690   57.5960 C   0  0  0  0  0  0  0  0  0  0  0  0
  125.9650  128.8190   58.7390 N   0  0  0  0  0  0  0  0  0  0  0  0
  126.9390  127.8930   58.7500 C   0  0  0  0  0  0  0  0  0  0  0  0
  127.6070  127.6030   57.7550 O   0  0  0  0  0  0  0  0  0  0  0  0
  127.1860  127.2070   60.1010 C   0  0  0  0  0  0  0  0  0  0  0  0
  126.0270  125.8570   60.5030 S   0  0  0  0  0  0  0  0  0  0  0  0
  126.5330  124.4430   59.5470 C   0  0  0  0  0  0  0  0  0  0  0  0
  127.4960  123.6980   60.1420 N   0  0  0  0  0  0  0  0  0  0  0  0
  127.9680  122.6100   59.4940 C   0  0  0  0  0  0  0  0  0  0  0  0
  129.0490  121.8290   60.2160 C   0  0  0  0  0  0  0  0  0  0  0  0
  127.5000  122.2200   58.2400 C   0  0  0  0  0  0  0  0  0  0  0  0
  126.4890  122.9670   57.6170 C   0  0  0  0  0  0  0  0  0  0  0  0
  125.9790  122.5150   56.2350 C   0  0  0  0  0  0  0  0  0  0  0  0
  126.8960  121.7540   55.6380 F   0  0  0  0  0  0  0  0  0  0  0  0
  124.8530  121.8020   56.3080 F   0  0  0  0  0  0  0  0  0  0  0  0
  125.7320  123.5780   55.4680 F   0  0  0  0  0  0  0  0  0  0  0  0
  125.9790  124.1080   58.2880 C   0  0  0  0  0  0  0  0  0  0  0  0
  124.8820  124.8870   57.7070 C   0  0  0  0  0  0  0  0  0  0  0  0
  124.0140  125.4990   57.2480 N   0  0  0  0  0  0  0  0  0  0  0  0
  127.6070  131.2070   58.0770 C   0  0  0  0  0  0  0  0  0  0  0  0
  127.3900  131.0220   59.4220 O   0  0  0  0  0  0  0  0  0  0  0  0
  126.7800  132.1280   60.0750 C   0  0  0  0  0  0  0  0  0  0  0  0
  128.6800  131.9990   57.6350 C   0  0  0  0  0  0  0  0  0  0  0  0
  129.5060  132.6100   58.5480 O   0  0  0  0  0  0  0  0  0  0  0  0
  130.2750  131.7080   59.3310 C   0  0  0  0  0  0  0  0  0  0  0  0
  1  2  1  0
  2  3  1  0
  3  4  2  0
  4  5  1  0
  5  6  2  0
  6  7  1  0
  7  8  1  0
  8  9  1  0
  9 10  2  0
  9 11  1  0
 11 12  1  0
 12 13  1  0
 13 14  2  0
 14 15  1  0
 15 16  1  0
 15 17  2  0
 17 18  1  0
 18 19  1  0
 19 20  1  0
 19 21  1  0
 19 22  1  0
 18 23  2  0
 23 24  1  0
 24 25  3  0
  6 26  1  0
 26 27  1  0
 27 28  1  0
 26 29  2  0
 29 30  1  0
 30 31  1  0
 29  3  1  0
 23 13  1  0
M  END
>  <Binding energies>  (24) 
[-6.81]

>  <Ligand effiencies>  (24) 
[-0.2128125]

>  <Interactions>  (24) 
["V-A:TYR:539:CD2:4871, V-A:PRO:540:CA:4880, V-A:PRO:540:N:4881, V-A:TYR:539:C:4864, V-A:TYR:539:CE2:4873, V-A:ILE:538:CD1:4862, V-B:ASP:366:CB:8180, V-B:MET:535:CE:9804, V-B:PRO:540:CA:9852, V-B:TYR:539:CZ:9846, H-B:ASP:366:OD1:8182, V-B:PRO:540:N:9853, V-B:PRO:540:CB:9854, V-B:ASP:366:CG:8181, V-B:LEU:363:CD1:8157, H-B:TYR:531:OH:9764, V-B:ALA:541:CB:9861, V-A:ILE:538:CG2:4860, V-A:TYR:539:CZ:4874, V-A:PRO:540:CD:4884, V-B:TYR:539:CE2:9845, V-B:ILE:538:CG2:9832, V-B:ILE:538:CB:9831, V-B:PRO:540:CD:9856, V-B:TYR:539:C:9836, V-B:TYR:539:CD2:9843, V-B:ILE:538:CA:9829, V-B:TYR:539:CD1:9842, V-B:ILE:538:C:9827, V-B:PRO:540:CG:9855, H-A:TYR:539:N:4867, H-B:ARG:545:NH2:9897, V-B:TYR:539:CA:9838, V-B:ILE:538:CD1:9834"]

$$$$
2i_Grossjean_2025
     RDKit          3D

 23 24  0  0  0  0  0  0  0  0999 V2000
  133.8890  123.5330   59.9230 C   0  0  0  0  0  0  0  0  0  0  0  0
  133.1050  123.9970   61.1370 C   0  0  0  0  0  0  0  0  0  0  0  0
  133.7380  124.3330   62.3300 C   0  0  0  0  0  0  0  0  0  0  0  0
  132.9690  124.7590   63.4230 C   0  0  0  0  0  0  0  0  0  0  0  0
  133.6860  125.1260   64.7360 C   0  0  0  0  0  0  0  0  0  0  0  0
  134.9400  125.5030   64.4820 F   0  0  0  0  0  0  0  0  0  0  0  0
  133.0470  126.1280   65.3420 F   0  0  0  0  0  0  0  0  0  0  0  0
  133.7400  124.1070   65.5970 F   0  0  0  0  0  0  0  0  0  0  0  0
  131.5610  124.8320   63.2720 C   0  0  0  0  0  0  0  0  0  0  0  0
  130.7080  125.2720   64.3810 C   0  0  0  0  0  0  0  0  0  0  0  0
  130.0350  125.6190   65.2570 N   0  0  0  0  0  0  0  0  0  0  0  0
  131.0010  124.4700   62.0250 C   0  0  0  0  0  0  0  0  0  0  0  0
  129.2420  124.5150   61.7220 S   0  0  0  0  0  0  0  0  0  0  0  0
  128.6820  122.8180   61.3860 C   0  0  0  0  0  0  0  0  0  0  0  0
  127.6160  122.7650   60.2900 C   0  0  0  0  0  0  0  0  0  0  0  0
  126.4270  122.8390   60.6060 O   0  0  0  0  0  0  0  0  0  0  0  0
  128.0760  122.6110   59.0300 N   0  0  0  0  0  0  0  0  0  0  0  0
  127.3140  122.5180   57.8770 C   0  0  0  0  0  0  0  0  0  0  0  0
  126.1090  123.1500   57.5380 C   0  0  0  0  0  0  0  0  0  0  0  0
  125.8160  122.6890   56.2750 C   0  0  0  0  0  0  0  0  0  0  0  0
  126.7920  121.8380   55.8760 O   0  0  0  0  0  0  0  0  0  0  0  0
  127.7360  121.7450   56.9000 N   0  0  0  0  0  0  0  0  0  0  0  0
  131.7640  124.0620   60.9790 N   0  0  0  0  0  0  0  0  0  0  0  0
  1  2  1  0
  2  3  2  0
  3  4  1  0
  4  5  1  0
  5  6  1  0
  5  7  1  0
  5  8  1  0
  4  9  2  0
  9 10  1  0
 10 11  3  0
  9 12  1  0
 12 13  1  0
 13 14  1  0
 14 15  1  0
 15 16  2  0
 15 17  1  0
 17 18  1  0
 18 19  1  0
 19 20  2  0
 20 21  1  0
 21 22  1  0
 12 23  2  0
 23  2  1  0
 22 18  2  0
M  END
>  <Binding energies>  (25) 
[-6.59]

>  <Ligand effiencies>  (25) 
[-0.27458333333333335]

>  <Interactions>  (25) 
["V-A:ASP:366:CB:3208, V-A:ASP:366:CG:3209, V-A:HIS:456:CE1:4066, V-B:PRO:540:CA:9852, V-B:PRO:540:N:9853, V-B:PRO:540:CB:9854, H-B:TYR:539:N:9839, V-B:LEU:363:CD1:8157, V-B:ALA:541:CB:9861, H-B:TYR:539:OH:9847, V-A:ARG:545:CZ:4923, V-A:TYR:484:CZ:4343, V-A:ARG:545:CD:4920, V-B:TYR:539:CE2:9845, V-A:ARG:545:CG:4919, H-B:ALA:541:N:9860, V-B:ILE:538:CG2:9832, V-B:ILE:538:CB:9831, V-B:PRO:540:CD:9856, V-A:ILE:369:CG1:3234, V-B:TYR:539:C:9836, V-A:ILE:369:CB:3232, V-A:ILE:369:CG2:3233, V-A:GLY:454:CA:4045, V-A:GLY:453:C:4038, V-A:GLY:453:CA:4040, V-A:ASP:366:CA:3206, V-A:GLY:454:C:4043"]

$$$$
2k_Grossjean_2025
     RDKit          3D

 28 28  0  0  0  0  0  0  0  0999 V2000
  134.8270  125.0920   66.1340 C   0  0  0  0  0  0  0  0  0  0  0  0
  134.4150  125.1690   64.7780 O   0  0  0  0  0  0  0  0  0  0  0  0
  133.0190  124.9720   64.5970 C   0  0  0  0  0  0  0  0  0  0  0  0
  132.7320  124.6070   63.1350 C   0  0  0  0  0  0  0  0  0  0  0  0
  133.9130  124.0770   62.5500 O   0  0  0  0  0  0  0  0  0  0  0  0
  133.7590  123.6600   61.1980 C   0  0  0  0  0  0  0  0  0  0  0  0
  132.5760  122.6850   61.1240 C   0  0  0  0  0  0  0  0  0  0  0  0
  131.4760  123.3790   60.5580 O   0  0  0  0  0  0  0  0  0  0  0  0
  131.8180  124.4590   59.7030 C   0  0  0  0  0  0  0  0  0  0  0  0
  130.5320  125.0180   59.0650 C   0  0  0  0  0  0  0  0  0  0  0  0
  130.0610  124.2170   57.9320 N   0  0  0  0  0  0  0  0  0  0  0  0
  129.6580  124.7040   56.7420 C   0  0  0  0  0  0  0  0  0  0  0  0
  129.6700  125.9040   56.4620 O   0  0  0  0  0  0  0  0  0  0  0  0
  129.1500  123.6620   55.7340 C   0  0  0  0  0  0  0  0  0  0  0  0
  127.4570  123.0460   56.0330 S   0  0  0  0  0  0  0  0  0  0  0  0
  127.1400  123.0080   57.7920 C   0  0  0  0  0  0  0  0  0  0  0  0
  128.0750  122.3760   58.5450 N   0  0  0  0  0  0  0  0  0  0  0  0
  127.8980  122.3050   59.8830 C   0  0  0  0  0  0  0  0  0  0  0  0
  128.9800  121.5730   60.6530 C   0  0  0  0  0  0  0  0  0  0  0  0
  126.7970  122.8660   60.5260 C   0  0  0  0  0  0  0  0  0  0  0  0
  125.8220  123.5320   59.7680 C   0  0  0  0  0  0  0  0  0  0  0  0
  124.6130  124.1510   60.4950 C   0  0  0  0  0  0  0  0  0  0  0  0
  124.7080  125.4760   60.6180 F   0  0  0  0  0  0  0  0  0  0  0  0
  123.4910  123.8900   59.8220 F   0  0  0  0  0  0  0  0  0  0  0  0
  124.5080  123.6410   61.7230 F   0  0  0  0  0  0  0  0  0  0  0  0
  125.9910  123.6070   58.3620 C   0  0  0  0  0  0  0  0  0  0  0  0
  125.0010  124.2870   57.5200 C   0  0  0  0  0  0  0  0  0  0  0  0
  124.2190  124.8240   56.8570 N   0  0  0  0  0  0  0  0  0  0  0  0
  1  2  1  0
  2  3  1  0
  3  4  1  0
  4  5  1  0
  5  6  1  0
  6  7  1  0
  7  8  1  0
  8  9  1  0
  9 10  1  0
 10 11  1  0
 11 12  1  0
 12 13  2  0
 12 14  1  0
 14 15  1  0
 15 16  1  0
 16 17  2  0
 17 18  1  0
 18 19  1  0
 18 20  2  0
 20 21  1  0
 21 22  1  0
 22 23  1  0
 22 24  1  0
 22 25  1  0
 21 26  2  0
 26 27  1  0
 27 28  3  0
 26 16  1  0
M  END
>  <Binding energies>  (26) 
[-5.96]

>  <Ligand effiencies>  (26) 
[-0.20551724137931035]

>  <Interactions>  (26) 
["V-A:ASP:366:CG:3209, V-A:HIS:456:CE1:4066, V-B:ASN:362:CB:8144, V-B:TYR:539:CE1:9844, V-B:MET:535:CE:9804, V-B:PRO:540:CA:9852, V-B:TYR:539:CZ:9846, V-B:ASN:362:C:8140, V-B:PRO:540:N:9853, V-B:PRO:540:C:9850, V-B:PRO:540:CB:9854, V-B:ASP:366:CG:8181, V-B:LEU:363:CD1:8157, V-B:LEU:363:CA:8153, H-B:TYR:531:OH:9764, V-B:ALA:541:CB:9861, H-B:TYR:539:OH:9847, V-B:GLU:543:CD:9877, V-A:ARG:545:CZ:4923, V-A:ARG:545:CD:4920, V-B:TYR:539:CE2:9845, H-A:ARG:545:NE:4921, V-A:ARG:545:CG:4919, V-B:TYR:539:C:9836, V-B:TYR:539:CD2:9843, V-B:TYR:539:CD1:9842, V-B:LEU:363:CB:8155, H-A:GLY:454:N:4046, H-A:ARG:545:NH1:4924, V-A:GLY:454:CA:4045, V-B:ARG:545:CZ:9895, V-A:GLY:453:C:4038, V-A:GLY:453:CA:4040, V-A:GLY:454:C:4043"]

$$$$
3aa_Grossjean_2025
     RDKit          3D

 34 36  0  0  0  0  0  0  0  0999 V2000
  125.0890  127.7460   74.0580 C   0  0  0  0  0  0  0  0  0  0  0  0
  126.5310  128.1650   73.7560 C   0  0  0  0  0  0  0  0  0  0  0  0
  127.1420  127.1920   72.9190 O   0  0  0  0  0  0  0  0  0  0  0  0
  128.3850  127.3900   72.4090 C   0  0  0  0  0  0  0  0  0  0  0  0
  129.3470  127.7630   73.0880 O   0  0  0  0  0  0  0  0  0  0  0  0
  128.4710  127.1250   70.9330 C   0  0  0  0  0  0  0  0  0  0  0  0
  127.4490  126.4640   70.2360 C   0  0  0  0  0  0  0  0  0  0  0  0
  127.5580  126.2380   68.8660 C   0  0  0  0  0  0  0  0  0  0  0  0
  128.6850  126.6730   68.1660 C   0  0  0  0  0  0  0  0  0  0  0  0
  128.6940  126.3980   66.7840 N   0  0  0  0  0  0  0  0  0  0  0  0
  129.7390  126.1550   65.9610 C   0  0  0  0  0  0  0  0  0  0  0  0
  130.9250  126.1540   66.2940 O   0  0  0  0  0  0  0  0  0  0  0  0
  129.3770  125.8730   64.5030 C   0  0  0  0  0  0  0  0  0  0  0  0
  130.6370  126.5160   63.3590 S   0  0  0  0  0  0  0  0  0  0  0  0
  131.0850  125.1790   62.2730 C   0  0  0  0  0  0  0  0  0  0  0  0
  130.1090  124.8400   61.3980 N   0  0  0  0  0  0  0  0  0  0  0  0
  130.3190  123.8320   60.5120 C   0  0  0  0  0  0  0  0  0  0  0  0
  129.1970  123.5270   59.5670 C   0  0  0  0  0  0  0  0  0  0  0  0
  127.9340  123.1540   60.0540 C   0  0  0  0  0  0  0  0  0  0  0  0
  126.8860  122.8690   59.1820 C   0  0  0  0  0  0  0  0  0  0  0  0
  127.0880  122.9540   57.8090 C   0  0  0  0  0  0  0  0  0  0  0  0
  128.3290  123.3230   57.3010 C   0  0  0  0  0  0  0  0  0  0  0  0
  129.3740  123.6100   58.1750 C   0  0  0  0  0  0  0  0  0  0  0  0
  131.5350  123.1430   60.4850 C   0  0  0  0  0  0  0  0  0  0  0  0
  132.5550  123.4650   61.3940 C   0  0  0  0  0  0  0  0  0  0  0  0
  133.8760  122.6740   61.3390 C   0  0  0  0  0  0  0  0  0  0  0  0
  134.9510  123.4640   61.2880 F   0  0  0  0  0  0  0  0  0  0  0  0
  133.9980  121.9060   62.4230 F   0  0  0  0  0  0  0  0  0  0  0  0
  133.8960  121.8970   60.2550 F   0  0  0  0  0  0  0  0  0  0  0  0
  132.3240  124.5050   62.3260 C   0  0  0  0  0  0  0  0  0  0  0  0
  133.3310  124.8450   63.3360 C   0  0  0  0  0  0  0  0  0  0  0  0
  134.1260  125.1140   64.1340 N   0  0  0  0  0  0  0  0  0  0  0  0
  129.7170  127.3220   68.8590 C   0  0  0  0  0  0  0  0  0  0  0  0
  129.6070  127.5450   70.2280 C   0  0  0  0  0  0  0  0  0  0  0  0
  1  2  1  0
  2  3  1  0
  3  4  1  0
  4  5  2  0
  4  6  1  0
  6  7  2  0
  7  8  1  0
  8  9  2  0
  9 10  1  0
 10 11  1  0
 11 12  2  0
 11 13  1  0
 13 14  1  0
 14 15  1  0
 15 16  2  0
 16 17  1  0
 17 18  1  0
 18 19  2  0
 19 20  1  0
 20 21  2  0
 21 22  1  0
 22 23  2  0
 17 24  2  0
 24 25  1  0
 25 26  1  0
 26 27  1  0
 26 28  1  0
 26 29  1  0
 25 30  2  0
 30 31  1  0
 31 32  3  0
  9 33  1  0
 33 34  2  0
 34  6  1  0
 30 15  1  0
 23 18  1  0
M  END
>  <Binding energies>  (27) 
[-8.78]

>  <Ligand effiencies>  (27) 
[-0.25085714285714283]

>  <Interactions>  (27) 
["V-A:ASP:366:CG:3209, V-B:GLU:543:C:9871, V-B:LYS:547:CE:9919, V-B:HIS:456:CG:9034, H-A:LYS:547:NZ:4948, V-B:HIS:456:CB:9033, V-A:HIS:456:CE1:4066, V-B:GLU:543:CB:9875, V-B:HIS:456:CE1:9038, V-B:GLY:544:C:9881, V-B:HIS:456:CD2:9036, V-B:TYR:539:CE1:9844, V-B:PRO:540:CA:9852, V-B:TYR:539:CZ:9846, V-B:PRO:540:N:9853, V-B:PRO:540:CB:9854, H-B:GLU:543:OE1:9878, V-B:GLU:543:CD:9877, V-B:GLU:543:CG:9876, V-A:ARG:545:CZ:4923, H-A:ARG:545:NH2:4925, V-B:TYR:539:CE2:9845, H-A:ARG:545:NE:4921, V-A:LEU:475:CD1:4254, V-A:ILE:369:CG1:3234, V-A:ILE:369:CB:3232, H-A:GLY:454:N:4046, H-A:ARG:545:NH1:4924, V-A:ILE:369:CG2:3233, V-A:GLY:454:CA:4045, V-A:GLY:453:C:4038, V-A:GLY:453:CA:4040, V-B:LYS:547:CD:9918"]

$$$$
3ad_Grossjean_2025
     RDKit          3D

 29 31  0  0  0  0  0  0  0  0999 V2000
  128.0210  128.2670   62.4240 N   0  0  0  0  0  0  0  0  0  0  0  0
  128.2790  128.0660   63.5340 C   0  0  0  0  0  0  0  0  0  0  0  0
  128.6080  127.8080   64.9400 C   0  0  0  0  0  0  0  0  0  0  0  0
  129.4730  126.7460   65.2980 C   0  0  0  0  0  0  0  0  0  0  0  0
  130.1510  125.8360   64.2550 C   0  0  0  0  0  0  0  0  0  0  0  0
  130.9030  126.5150   63.3860 F   0  0  0  0  0  0  0  0  0  0  0  0
  130.9410  124.9530   64.8670 F   0  0  0  0  0  0  0  0  0  0  0  0
  129.2280  125.1770   63.5530 F   0  0  0  0  0  0  0  0  0  0  0  0
  129.7190  126.5120   66.6590 C   0  0  0  0  0  0  0  0  0  0  0  0
  129.1150  127.3120   67.6350 C   0  0  0  0  0  0  0  0  0  0  0  0
  129.3310  127.0960   69.1040 C   0  0  0  0  0  0  0  0  0  0  0  0
  130.3680  127.7560   69.7810 C   0  0  0  0  0  0  0  0  0  0  0  0
  130.5730  127.5610   71.1440 C   0  0  0  0  0  0  0  0  0  0  0  0
  129.7390  126.7000   71.8510 C   0  0  0  0  0  0  0  0  0  0  0  0
  128.7030  126.0360   71.2040 C   0  0  0  0  0  0  0  0  0  0  0  0
  128.5000  126.2350   69.8400 C   0  0  0  0  0  0  0  0  0  0  0  0
  128.2810  128.3240   67.2870 N   0  0  0  0  0  0  0  0  0  0  0  0
  128.0450  128.5830   65.9790 C   0  0  0  0  0  0  0  0  0  0  0  0
  126.9400  129.9510   65.7100 S   0  0  0  0  0  0  0  0  0  0  0  0
  125.3320  129.2570   65.2240 C   0  0  0  0  0  0  0  0  0  0  0  0
  124.7540  129.9480   63.9870 C   0  0  0  0  0  0  0  0  0  0  0  0
  123.5760  130.3060   63.9970 O   0  0  0  0  0  0  0  0  0  0  0  0
  125.6140  130.1100   62.9590 N   0  0  0  0  0  0  0  0  0  0  0  0
  125.4130  130.7080   61.7010 C   0  0  0  0  0  0  0  0  0  0  0  0
  124.4150  131.6860   61.6490 C   0  0  0  0  0  0  0  0  0  0  0  0
  124.1320  132.3370   60.4510 C   0  0  0  0  0  0  0  0  0  0  0  0
  124.8440  132.0090   59.3020 C   0  0  0  0  0  0  0  0  0  0  0  0
  125.8360  131.0330   59.3380 C   0  0  0  0  0  0  0  0  0  0  0  0
  126.1230  130.3780   60.5340 C   0  0  0  0  0  0  0  0  0  0  0  0
  1  2  3  0
  2  3  1  0
  3  4  2  0
  4  5  1  0
  5  6  1  0
  5  7  1  0
  5  8  1  0
  4  9  1  0
  9 10  2  0
 10 11  1  0
 11 12  2  0
 12 13  1  0
 13 14  2  0
 14 15  1  0
 15 16  2  0
 10 17  1  0
 17 18  2  0
 18 19  1  0
 19 20  1  0
 20 21  1  0
 21 22  2  0
 21 23  1  0
 23 24  1  0
 24 25  2  0
 25 26  1  0
 26 27  2  0
 27 28  1  0
 28 29  2  0
 18  3  1  0
 29 24  1  0
 16 11  1  0
M  END
>  <Binding energies>  (28) 
[-7.08]

>  <Ligand effiencies>  (28) 
[-0.23600000000000002]

>  <Interactions>  (28) 
["V-A:GLU:543:CD:4905, V-A:TYR:539:CE2:4873, V-B:GLU:543:C:9871, V-A:GLY:544:C:4909, V-A:HIS:456:CE1:4066, V-A:GLU:543:C:4899, V-A:HIS:456:CD2:4064, V-B:HIS:456:CE1:9038, V-B:ILE:369:CG2:8205, V-B:ASP:366:CG:8181, V-B:GLU:543:CD:9877, V-B:GLU:543:CG:9876, V-B:ILE:369:CD1:8207, V-B:ARG:545:CZ:9895, H-B:ARG:545:NH1:9896, H-B:TYR:484:OH:9316, H-B:GLY:454:N:9018, V-B:ILE:369:CB:8204"]

$$$$
3ai_Grossjean_2025
     RDKit          3D

 28 30  0  0  0  0  0  0  0  0999 V2000
  131.4540  123.1720   63.7770 N   0  0  0  0  0  0  0  0  0  0  0  0
  130.7920  123.0800   62.8320 C   0  0  0  0  0  0  0  0  0  0  0  0
  129.9530  122.9620   61.6360 C   0  0  0  0  0  0  0  0  0  0  0  0
  129.6420  121.6910   61.0920 C   0  0  0  0  0  0  0  0  0  0  0  0
  130.1170  120.3730   61.7330 C   0  0  0  0  0  0  0  0  0  0  0  0
  129.3720  119.3250   61.3740 F   0  0  0  0  0  0  0  0  0  0  0  0
  131.3740  120.1170   61.3690 F   0  0  0  0  0  0  0  0  0  0  0  0
  130.0620  120.4640   63.0620 F   0  0  0  0  0  0  0  0  0  0  0  0
  128.8750  121.6340   59.9180 C   0  0  0  0  0  0  0  0  0  0  0  0
  128.4330  122.8100   59.3030 C   0  0  0  0  0  0  0  0  0  0  0  0
  127.6210  122.8080   58.0440 C   0  0  0  0  0  0  0  0  0  0  0  0
  128.2460  122.7360   56.7880 C   0  0  0  0  0  0  0  0  0  0  0  0
  127.4990  122.7290   55.6140 C   0  0  0  0  0  0  0  0  0  0  0  0
  126.1100  122.7930   55.6800 C   0  0  0  0  0  0  0  0  0  0  0  0
  125.4670  122.8630   56.9110 C   0  0  0  0  0  0  0  0  0  0  0  0
  126.2180  122.8690   58.0830 C   0  0  0  0  0  0  0  0  0  0  0  0
  128.7410  124.0260   59.8240 N   0  0  0  0  0  0  0  0  0  0  0  0
  129.4590  124.1060   60.9700 C   0  0  0  0  0  0  0  0  0  0  0  0
  129.7440  125.7780   61.5120 S   0  0  0  0  0  0  0  0  0  0  0  0
  128.1210  126.5960   61.6810 C   0  0  0  0  0  0  0  0  0  0  0  0
  127.2390  126.5530   60.4240 C   0  0  0  0  0  0  0  0  0  0  0  0
  127.5420  127.2000   59.4190 O   0  0  0  0  0  0  0  0  0  0  0  0
  126.1440  125.7670   60.5310 N   0  0  0  0  0  0  0  0  0  0  0  0
  125.1780  125.5340   59.5600 C   0  0  0  0  0  0  0  0  0  0  0  0
  124.0350  124.7690   59.7900 C   0  0  0  0  0  0  0  0  0  0  0  0
  123.3510  124.7800   58.5980 C   0  0  0  0  0  0  0  0  0  0  0  0
  124.0440  125.5130   57.6950 O   0  0  0  0  0  0  0  0  0  0  0  0
  125.2010  125.9870   58.3170 N   0  0  0  0  0  0  0  0  0  0  0  0
  1  2  3  0
  2  3  1  0
  3  4  2  0
  4  5  1  0
  5  6  1  0
  5  7  1  0
  5  8  1  0
  4  9  1  0
  9 10  2  0
 10 11  1  0
 11 12  2  0
 12 13  1  0
 13 14  2  0
 14 15  1  0
 15 16  2  0
 10 17  1  0
 17 18  2  0
 18 19  1  0
 19 20  1  0
 20 21  1  0
 21 22  2  0
 21 23  1  0
 23 24  1  0
 24 25  1  0
 25 26  2  0
 26 27  1  0
 27 28  1  0
 18  3  1  0
 28 24  2  0
 16 11  1  0
M  END
>  <Binding energies>  (29) 
[-7.46]

>  <Ligand effiencies>  (29) 
[-0.25724137931034485]

>  <Interactions>  (29) 
["V-B:ASP:366:CB:8180, V-B:TYR:539:CE1:9844, V-B:MET:535:CE:9804, V-B:PRO:540:CA:9852, V-B:TYR:539:CZ:9846, H-B:ASP:366:OD1:8182, V-B:ASN:362:C:8140, V-B:PRO:540:N:9853, V-B:PRO:540:CB:9854, V-B:ASP:366:CG:8181, V-B:LEU:363:CD1:8157, V-B:LEU:363:CA:8153, H-B:TYR:531:OH:9764, V-B:ALA:541:CB:9861, H-B:GLU:543:OE2:9879, V-B:GLU:543:CD:9877, V-B:TYR:539:CE2:9845, V-B:ILE:538:CG2:9832, V-B:ILE:538:CB:9831, V-A:LEU:475:CD1:4254, V-B:PRO:540:CD:9856, V-B:TYR:539:C:9836, V-B:TYR:539:CD2:9843, V-B:ILE:538:CA:9829, V-B:TYR:539:CD1:9842, V-B:TYR:539:CG:9841, V-B:LEU:363:CB:8155, H-A:TYR:484:OH:4344, V-B:ALA:541:CA:9859, V-A:PRO:482:CG:4323, V-A:LEU:475:CD2:4255, V-A:LEU:475:CG:4253, V-A:PRO:482:CB:4322"]

$$$$
3aj_Grossjean_2025
     RDKit          3D

 28 30  0  0  0  0  0  0  0  0999 V2000
  133.5860  130.7710   57.3770 N   0  0  0  0  0  0  0  0  0  0  0  0
  132.6400  131.1460   57.9280 C   0  0  0  0  0  0  0  0  0  0  0  0
  131.4430  131.6200   58.6280 C   0  0  0  0  0  0  0  0  0  0  0  0
  131.3130  131.4600   60.0290 C   0  0  0  0  0  0  0  0  0  0  0  0
  132.4160  130.8300   60.9000 C   0  0  0  0  0  0  0  0  0  0  0  0
  133.5560  130.6390   60.2320 F   0  0  0  0  0  0  0  0  0  0  0  0
  132.6850  131.6210   61.9390 F   0  0  0  0  0  0  0  0  0  0  0  0
  132.0160  129.6410   61.3540 F   0  0  0  0  0  0  0  0  0  0  0  0
  130.1260  131.8890   60.6450 C   0  0  0  0  0  0  0  0  0  0  0  0
  129.0990  132.4560   59.8840 C   0  0  0  0  0  0  0  0  0  0  0  0
  127.8090  132.9210   60.4890 C   0  0  0  0  0  0  0  0  0  0  0  0
  127.0730  132.0800   61.3380 C   0  0  0  0  0  0  0  0  0  0  0  0
  125.8750  132.5070   61.9070 C   0  0  0  0  0  0  0  0  0  0  0  0
  125.3970  133.7850   61.6320 C   0  0  0  0  0  0  0  0  0  0  0  0
  126.1100  134.6370   60.7940 C   0  0  0  0  0  0  0  0  0  0  0  0
  127.3060  134.2070   60.2290 C   0  0  0  0  0  0  0  0  0  0  0  0
  129.2260  132.6000   58.5400 N   0  0  0  0  0  0  0  0  0  0  0  0
  130.3700  132.2170   57.9260 C   0  0  0  0  0  0  0  0  0  0  0  0
  130.3640  132.5030   56.1690 S   0  0  0  0  0  0  0  0  0  0  0  0
  129.3330  131.2100   55.3950 C   0  0  0  0  0  0  0  0  0  0  0  0
  127.8230  131.3560   55.6310 C   0  0  0  0  0  0  0  0  0  0  0  0
  127.0540  131.5570   54.6880 O   0  0  0  0  0  0  0  0  0  0  0  0
  127.4400  131.2450   56.9220 N   0  0  0  0  0  0  0  0  0  0  0  0
  126.1430  131.3280   57.4130 C   0  0  0  0  0  0  0  0  0  0  0  0
  125.7430  131.8490   58.5530 N   0  0  0  0  0  0  0  0  0  0  0  0
  124.4350  131.7610   58.6940 C   0  0  0  0  0  0  0  0  0  0  0  0
  123.7430  131.1550   57.6490 C   0  0  0  0  0  0  0  0  0  0  0  0
  124.8770  130.6770   56.4220 S   0  0  0  0  0  0  0  0  0  0  0  0
  1  2  3  0
  2  3  1  0
  3  4  2  0
  4  5  1  0
  5  6  1  0
  5  7  1  0
  5  8  1  0
  4  9  1  0
  9 10  2  0
 10 11  1  0
 11 12  2  0
 12 13  1  0
 13 14  2  0
 14 15  1  0
 15 16  2  0
 10 17  1  0
 17 18  2  0
 18 19  1  0
 19 20  1  0
 20 21  1  0
 21 22  2  0
 21 23  1  0
 23 24  1  0
 24 25  2  0
 25 26  1  0
 26 27  2  0
 27 28  1  0
 18  3  1  0
 28 24  1  0
 16 11  1  0
M  END
>  <Binding energies>  (30) 
[-7.09]

>  <Ligand effiencies>  (30) 
[-0.24448275862068966]

>  <Interactions>  (30) 
["V-A:TYR:539:CD2:4871, V-A:PRO:540:CB:4882, V-A:PRO:540:CA:4880, V-A:PRO:540:N:4881, V-A:TYR:539:C:4864, V-B:TRP:381:CH2:8340, V-A:LEU:363:CA:3181, V-A:ASP:366:CG:3209, V-A:ASN:362:CB:3172, V-A:GLU:543:CD:4905, V-A:ASN:362:C:3168, V-A:TYR:539:CE2:4873, V-B:LEU:475:CD2:9227, V-A:ILE:538:CD1:4862, V-B:ASP:366:CA:8178, V-B:ASP:366:CB:8180, H-A:TYR:531:OH:4792, V-B:TYR:531:CZ:9763, V-B:ILE:369:CG2:8205, V-B:ASP:366:CG:8181, V-A:TYR:539:CZ:4874, V-A:ARG:545:CZ:4923, V-A:GLU:543:CG:4904, H-A:TYR:539:N:4867, V-A:PRO:540:C:4878, V-A:ASN:362:CA:3170, V-B:TYR:531:CE1:9761, V-B:ILE:369:CB:8204, V-B:ASP:366:C:8176, H-A:TYR:539:OH:4875, V-A:ASN:362:CG:3173, V-A:ALA:541:C:4885"]

$$$$
3ak_Grossjean_2025
     RDKit          3D

 33 34  0  0  0  0  0  0  0  0999 V2000
  127.9560  122.5050   54.9890 C   0  0  0  0  0  0  0  0  0  0  0  0
  127.0400  121.7620   55.7780 O   0  0  0  0  0  0  0  0  0  0  0  0
  126.7680  122.3580   57.0390 C   0  0  0  0  0  0  0  0  0  0  0  0
  128.0650  122.9540   57.5990 C   0  0  0  0  0  0  0  0  0  0  0  0
  128.5660  122.0960   58.6190 O   0  0  0  0  0  0  0  0  0  0  0  0
  128.2560  122.4830   59.9550 C   0  0  0  0  0  0  0  0  0  0  0  0
  129.4070  122.2490   60.9510 C   0  0  0  0  0  0  0  0  0  0  0  0
  130.0530  123.4860   61.2180 O   0  0  0  0  0  0  0  0  0  0  0  0
  131.0890  123.8050   60.2990 C   0  0  0  0  0  0  0  0  0  0  0  0
  132.1930  124.6150   61.0030 C   0  0  0  0  0  0  0  0  0  0  0  0
  131.9660  124.7890   62.4390 N   0  0  0  0  0  0  0  0  0  0  0  0
  132.9200  124.8300   63.3900 C   0  0  0  0  0  0  0  0  0  0  0  0
  134.1210  124.7390   63.1340 O   0  0  0  0  0  0  0  0  0  0  0  0
  132.4940  124.9960   64.8580 C   0  0  0  0  0  0  0  0  0  0  0  0
  130.8220  124.3940   65.2990 S   0  0  0  0  0  0  0  0  0  0  0  0
  129.8520  125.7740   65.8860 C   0  0  0  0  0  0  0  0  0  0  0  0
  129.7530  125.8890   67.2330 N   0  0  0  0  0  0  0  0  0  0  0  0
  129.0310  126.9020   67.7760 C   0  0  0  0  0  0  0  0  0  0  0  0
  128.9750  126.9540   69.2740 C   0  0  0  0  0  0  0  0  0  0  0  0
  129.9380  127.6700   70.0040 C   0  0  0  0  0  0  0  0  0  0  0  0
  129.8890  127.7250   71.3940 C   0  0  0  0  0  0  0  0  0  0  0  0
  128.8720  127.0640   72.0750 C   0  0  0  0  0  0  0  0  0  0  0  0
  127.9050  126.3500   71.3770 C   0  0  0  0  0  0  0  0  0  0  0  0
  127.9560  126.2980   69.9860 C   0  0  0  0  0  0  0  0  0  0  0  0
  128.3970  127.8470   66.9620 C   0  0  0  0  0  0  0  0  0  0  0  0
  128.4850  127.7520   65.5660 C   0  0  0  0  0  0  0  0  0  0  0  0
  127.7710  128.8100   64.7020 C   0  0  0  0  0  0  0  0  0  0  0  0
  126.4820  128.4970   64.5700 F   0  0  0  0  0  0  0  0  0  0  0  0
  127.8680  130.0100   65.2760 F   0  0  0  0  0  0  0  0  0  0  0  0
  128.2870  128.9110   63.4750 F   0  0  0  0  0  0  0  0  0  0  0  0
  129.2310  126.6870   65.0060 C   0  0  0  0  0  0  0  0  0  0  0  0
  129.3580  126.5370   63.5530 C   0  0  0  0  0  0  0  0  0  0  0  0
  129.4570  126.4180   62.4050 N   0  0  0  0  0  0  0  0  0  0  0  0
  1  2  1  0
  2  3  1  0
  3  4  1  0
  4  5  1  0
  5  6  1  0
  6  7  1  0
  7  8  1  0
  8  9  1  0
  9 10  1  0
 10 11  1  0
 11 12  1  0
 12 13  2  0
 12 14  1  0
 14 15  1  0
 15 16  1  0
 16 17  2  0
 17 18  1  0
 18 19  1  0
 19 20  2  0
 20 21  1  0
 21 22  2  0
 22 23  1  0
 23 24  2  0
 18 25  2  0
 25 26  1  0
 26 27  1  0
 27 28  1  0
 27 29  1  0
 27 30  1  0
 26 31  2  0
 31 32  1  0
 32 33  3  0
 31 16  1  0
 24 19  1  0
M  END
>  <Binding energies>  (31) 
[-6.86]

>  <Ligand effiencies>  (31) 
[-0.20176470588235296]

>  <Interactions>  (31) 
["V-A:ASP:366:CG:3209, V-A:GLU:543:CD:4905, V-B:GLU:543:C:9871, V-B:LYS:547:CE:9919, V-A:HIS:456:CE1:4066, V-A:GLU:543:CB:4903, V-B:HIS:456:CE1:9038, V-B:GLY:544:C:9881, V-B:HIS:456:CD2:9036, V-B:TYR:539:CE1:9844, V-B:MET:535:CE:9804, V-B:PRO:540:CA:9852, V-B:TYR:539:CZ:9846, V-B:PRO:540:N:9853, V-B:PRO:540:CB:9854, H-B:TYR:539:N:9839, V-B:ALA:541:CB:9861, V-B:GLU:543:CD:9877, V-B:GLU:543:CG:9876, V-A:ARG:545:CZ:4923, H-A:ARG:545:NH2:4925, V-B:TYR:539:CE2:9845, V-A:GLU:543:CG:4904, V-B:ILE:538:CG2:9832, V-B:ILE:538:CB:9831, V-B:PRO:540:CD:9856, V-B:TYR:539:C:9836, V-B:TYR:539:CD2:9843, V-B:ILE:538:CA:9829, V-B:TYR:539:CD1:9842, H-A:GLY:454:N:4046, H-A:ARG:545:NH1:4924, H-A:TYR:484:OH:4344"]

$$$$
3bk_Grossjean_2025
     RDKit          3D

 30 31  0  0  0  0  0  0  0  0999 V2000
  125.2730  122.5010   56.1240 C   0  0  0  0  0  0  0  0  0  0  0  0
  126.4680  121.7370   56.0760 O   0  0  0  0  0  0  0  0  0  0  0  0
  127.6390  122.5280   55.9160 C   0  0  0  0  0  0  0  0  0  0  0  0
  128.2800  122.7830   57.2870 C   0  0  0  0  0  0  0  0  0  0  0  0
  127.5140  122.1350   58.2930 O   0  0  0  0  0  0  0  0  0  0  0  0
  128.0320  122.3020   59.6060 C   0  0  0  0  0  0  0  0  0  0  0  0
  129.4200  122.9510   59.5240 C   0  0  0  0  0  0  0  0  0  0  0  0
  129.5220  123.9700   60.5100 O   0  0  0  0  0  0  0  0  0  0  0  0
  128.3500  124.1290   61.2980 C   0  0  0  0  0  0  0  0  0  0  0  0
  128.6340  123.6720   62.7350 C   0  0  0  0  0  0  0  0  0  0  0  0
  130.0590  123.7300   63.0670 N   0  0  0  0  0  0  0  0  0  0  0  0
  130.6240  123.2200   64.1750 C   0  0  0  0  0  0  0  0  0  0  0  0
  129.9970  122.6170   65.0470 O   0  0  0  0  0  0  0  0  0  0  0  0
  132.1390  123.3960   64.3100 C   0  0  0  0  0  0  0  0  0  0  0  0
  132.5830  125.0740   64.8610 S   0  0  0  0  0  0  0  0  0  0  0  0
  131.0880  126.0000   65.1680 C   0  0  0  0  0  0  0  0  0  0  0  0
  130.7250  126.1270   66.4700 N   0  0  0  0  0  0  0  0  0  0  0  0
  129.5990  126.8130   66.7990 C   0  0  0  0  0  0  0  0  0  0  0  0
  129.2830  126.9230   68.2600 C   0  0  0  0  0  0  0  0  0  0  0  0
  130.0820  127.7040   69.1100 C   0  0  0  0  0  0  0  0  0  0  0  0
  129.7970  127.8060   70.4690 C   0  0  0  0  0  0  0  0  0  0  0  0
  128.7050  127.1270   70.9980 C   0  0  0  0  0  0  0  0  0  0  0  0
  127.8940  126.3490   70.1770 C   0  0  0  0  0  0  0  0  0  0  0  0
  128.1820  126.2510   68.8180 C   0  0  0  0  0  0  0  0  0  0  0  0
  128.8030  127.4010   65.8090 C   0  0  0  0  0  0  0  0  0  0  0  0
  129.1610  127.2780   64.4620 C   0  0  0  0  0  0  0  0  0  0  0  0
  128.2640  127.9350   63.4140 C   0  0  0  0  0  0  0  0  0  0  0  0
  130.3280  126.5640   64.1210 C   0  0  0  0  0  0  0  0  0  0  0  0
  130.7290  126.4210   62.7180 C   0  0  0  0  0  0  0  0  0  0  0  0
  131.0450  126.3080   61.6100 N   0  0  0  0  0  0  0  0  0  0  0  0
  1  2  1  0
  2  3  1  0
  3  4  1  0
  4  5  1  0
  5  6  1  0
  6  7  1  0
  7  8  1  0
  8  9  1  0
  9 10  1  0
 10 11  1  0
 11 12  1  0
 12 13  2  0
 12 14  1  0
 14 15  1  0
 15 16  1  0
 16 17  2  0
 17 18  1  0
 18 19  1  0
 19 20  2  0
 20 21  1  0
 21 22  2  0
 22 23  1  0
 23 24  2  0
 18 25  2  0
 25 26  1  0
 26 27  1  0
 26 28  2  0
 28 29  1  0
 29 30  3  0
 28 16  1  0
 24 19  1  0
M  END
>  <Binding energies>  (32) 
[-6.37]

>  <Ligand effiencies>  (32) 
[-0.20548387096774193]

>  <Interactions>  (32) 
["V-A:GLU:543:CD:4905, V-B:GLU:543:C:9871, V-A:HIS:456:CE1:4066, V-B:GLU:543:CB:9875, V-B:HIS:456:CE1:9038, V-B:GLY:544:C:9881, V-B:HIS:456:CD2:9036, V-B:TYR:539:CE1:9844, V-B:PRO:540:CA:9852, V-B:TYR:539:CZ:9846, V-B:PRO:540:N:9853, V-B:PRO:540:CB:9854, H-B:TYR:539:N:9839, V-B:LEU:363:CD1:8157, V-B:ALA:541:CB:9861, V-B:GLU:543:CD:9877, V-B:GLU:543:CG:9876, V-A:TYR:484:CZ:4343, H-A:ARG:545:NH2:4925, V-B:TYR:539:CE2:9845, V-B:ILE:538:CG2:9832, V-B:ILE:538:CB:9831, V-B:PRO:540:CD:9856, V-B:TYR:539:C:9836, V-B:TYR:539:CD2:9843, V-B:ILE:538:CA:9829, V-B:TYR:539:CD1:9842, V-A:GLY:454:CA:4045, H-A:TYR:484:OH:4344"]

$$$$
3cb_Grossjean_2025
     RDKit          3D

 30 32  0  0  0  0  0  0  0  0999 V2000
  127.9470  122.4990   54.9490 C   0  0  0  0  0  0  0  0  0  0  0  0
  127.0960  121.7580   55.8110 O   0  0  0  0  0  0  0  0  0  0  0  0
  125.9370  122.2890   56.2770 C   0  0  0  0  0  0  0  0  0  0  0  0
  124.8350  122.0730   55.7640 O   0  0  0  0  0  0  0  0  0  0  0  0
  126.1280  123.1710   57.4780 C   0  0  0  0  0  0  0  0  0  0  0  0
  125.1880  124.1480   57.8410 C   0  0  0  0  0  0  0  0  0  0  0  0
  125.3950  124.9460   58.9620 C   0  0  0  0  0  0  0  0  0  0  0  0
  126.5420  124.7900   59.7410 C   0  0  0  0  0  0  0  0  0  0  0  0
  126.6480  125.6490   60.8540 N   0  0  0  0  0  0  0  0  0  0  0  0
  126.9130  126.9720   60.9080 C   0  0  0  0  0  0  0  0  0  0  0  0
  127.1000  127.6940   59.9270 O   0  0  0  0  0  0  0  0  0  0  0  0
  126.9510  127.5560   62.3280 C   0  0  0  0  0  0  0  0  0  0  0  0
  128.6140  128.0120   62.9280 S   0  0  0  0  0  0  0  0  0  0  0  0
  128.9940  126.9730   64.3230 C   0  0  0  0  0  0  0  0  0  0  0  0
  129.4350  125.7400   63.9740 N   0  0  0  0  0  0  0  0  0  0  0  0
  129.7550  124.8640   64.9520 C   0  0  0  0  0  0  0  0  0  0  0  0
  130.2530  123.5090   64.4870 C   0  0  0  0  0  0  0  0  0  0  0  0
  129.6420  125.1760   66.3040 C   0  0  0  0  0  0  0  0  0  0  0  0
  129.1730  126.4390   66.6890 C   0  0  0  0  0  0  0  0  0  0  0  0
  129.0650  126.7240   68.1530 C   0  0  0  0  0  0  0  0  0  0  0  0
  130.0570  127.4700   68.8000 C   0  0  0  0  0  0  0  0  0  0  0  0
  129.9600  127.7500   70.1600 C   0  0  0  0  0  0  0  0  0  0  0  0
  128.8630  127.2860   70.8820 C   0  0  0  0  0  0  0  0  0  0  0  0
  127.8640  126.5490   70.2530 C   0  0  0  0  0  0  0  0  0  0  0  0
  127.9630  126.2720   68.8920 C   0  0  0  0  0  0  0  0  0  0  0  0
  128.8210  127.3660   65.6740 C   0  0  0  0  0  0  0  0  0  0  0  0
  128.2360  128.6660   66.0180 C   0  0  0  0  0  0  0  0  0  0  0  0
  127.7760  129.6910   66.2890 N   0  0  0  0  0  0  0  0  0  0  0  0
  127.4850  123.8130   59.3880 C   0  0  0  0  0  0  0  0  0  0  0  0
  127.2770  123.0140   58.2660 C   0  0  0  0  0  0  0  0  0  0  0  0
  1  2  1  0
  2  3  1  0
  3  4  2  0
  3  5  1  0
  5  6  2  0
  6  7  1  0
  7  8  2  0
  8  9  1  0
  9 10  1  0
 10 11  2  0
 10 12  1  0
 12 13  1  0
 13 14  1  0
 14 15  2  0
 15 16  1  0
 16 17  1  0
 16 18  2  0
 18 19  1  0
 19 20  1  0
 20 21  2  0
 21 22  1  0
 22 23  2  0
 23 24  1  0
 24 25  2  0
 19 26  2  0
 26 27  1  0
 27 28  3  0
  8 29  1  0
 29 30  2  0
 30  5  1  0
 26 14  1  0
 25 20  1  0
M  END
>  <Binding energies>  (33) 
[-8.85]

>  <Ligand effiencies>  (33) 
[-0.2854838709677419]

>  <Interactions>  (33) 
["V-A:GLU:543:CD:4905, V-B:GLU:543:C:9871, V-A:HIS:456:CE1:4066, V-A:GLU:543:CB:4903, V-B:GLU:543:CB:9875, V-B:HIS:456:CE1:9038, V-B:GLY:544:C:9881, V-B:HIS:456:CD2:9036, V-B:TYR:539:CE1:9844, V-B:MET:535:CE:9804, V-B:PRO:540:CA:9852, V-B:PRO:540:N:9853, V-B:PRO:540:CB:9854, H-B:TYR:539:N:9839, V-B:LEU:363:CD1:8157, H-B:GLU:543:OE2:9879, H-B:GLU:543:OE1:9878, V-B:GLU:543:CD:9877, V-B:GLU:543:CG:9876, V-A:TYR:484:CE1:4341, V-A:GLU:543:CG:4904, V-B:ILE:538:CG2:9832, V-B:ILE:538:CB:9831, V-B:PRO:540:CD:9856, V-B:ILE:538:CA:9829, V-B:TYR:539:CD1:9842, H-B:TYR:484:OH:9316"]

$$$$
3ch_Grossjean_2025
     RDKit          3D

 32 34  0  0  0  0  0  0  0  0999 V2000
  124.3930  124.0840   61.0040 C   0  0  0  0  0  0  0  0  0  0  0  0
  124.8240  123.8900   59.6610 O   0  0  0  0  0  0  0  0  0  0  0  0
  126.0710  123.3420   59.4160 C   0  0  0  0  0  0  0  0  0  0  0  0
  127.1010  123.2780   60.3690 C   0  0  0  0  0  0  0  0  0  0  0  0
  128.3380  122.6990   60.0520 C   0  0  0  0  0  0  0  0  0  0  0  0
  129.4250  122.5840   60.9390 N   0  0  0  0  0  0  0  0  0  0  0  0
  130.0610  121.4790   61.3870 C   0  0  0  0  0  0  0  0  0  0  0  0
  129.7900  120.3210   61.0670 O   0  0  0  0  0  0  0  0  0  0  0  0
  131.2330  121.7310   62.3340 C   0  0  0  0  0  0  0  0  0  0  0  0
  132.1490  123.2410   61.9070 S   0  0  0  0  0  0  0  0  0  0  0  0
  132.1670  124.2410   63.3790 C   0  0  0  0  0  0  0  0  0  0  0  0
  133.3880  124.3440   63.9590 N   0  0  0  0  0  0  0  0  0  0  0  0
  133.5070  125.0770   65.0890 C   0  0  0  0  0  0  0  0  0  0  0  0
  134.8990  125.1460   65.6880 C   0  0  0  0  0  0  0  0  0  0  0  0
  132.4260  125.7270   65.6790 C   0  0  0  0  0  0  0  0  0  0  0  0
  131.1570  125.6380   65.0910 C   0  0  0  0  0  0  0  0  0  0  0  0
  130.0250  126.3440   65.7650 C   0  0  0  0  0  0  0  0  0  0  0  0
  129.3840  127.4140   65.1300 C   0  0  0  0  0  0  0  0  0  0  0  0
  128.3340  128.0810   65.7550 C   0  0  0  0  0  0  0  0  0  0  0  0
  127.9230  127.6820   67.0240 C   0  0  0  0  0  0  0  0  0  0  0  0
  128.5540  126.6240   67.6730 C   0  0  0  0  0  0  0  0  0  0  0  0
  129.6040  125.9600   67.0450 C   0  0  0  0  0  0  0  0  0  0  0  0
  131.0200  124.8890   63.8940 C   0  0  0  0  0  0  0  0  0  0  0  0
  129.7380  124.8410   63.1850 C   0  0  0  0  0  0  0  0  0  0  0  0
  128.7250  124.8010   62.6250 N   0  0  0  0  0  0  0  0  0  0  0  0
  128.5450  122.2010   58.7650 C   0  0  0  0  0  0  0  0  0  0  0  0
  127.5330  122.2550   57.7950 C   0  0  0  0  0  0  0  0  0  0  0  0
  127.6710  121.7730   56.5040 O   0  0  0  0  0  0  0  0  0  0  0  0
  127.8810  122.6880   55.4340 C   0  0  0  0  0  0  0  0  0  0  0  0
  126.3010  122.8310   58.1330 C   0  0  0  0  0  0  0  0  0  0  0  0
  125.2950  122.8750   57.1970 O   0  0  0  0  0  0  0  0  0  0  0  0
  125.0140  124.1800   56.7090 C   0  0  0  0  0  0  0  0  0  0  0  0
  1  2  1  0
  2  3  1  0
  3  4  2  0
  4  5  1  0
  5  6  1  0
  6  7  1  0
  7  8  2  0
  7  9  1  0
  9 10  1  0
 10 11  1  0
 11 12  2  0
 12 13  1  0
 13 14  1  0
 13 15  2  0
 15 16  1  0
 16 17  1  0
 17 18  2  0
 18 19  1  0
 19 20  2  0
 20 21  1  0
 21 22  2  0
 16 23  2  0
 23 24  1  0
 24 25  3  0
  5 26  2  0
 26 27  1  0
 27 28  1  0
 28 29  1  0
 27 30  2  0
 30 31  1  0
 31 32  1  0
 30  3  1  0
 23 11  1  0
 22 17  1  0
M  END
>  <Binding energies>  (34) 
[-8.81]

>  <Ligand effiencies>  (34) 
[-0.26696969696969697]

>  <Interactions>  (34) 
["V-A:GLU:543:CD:4905, V-A:HIS:456:CE1:4066, V-B:GLU:543:CB:9875, V-B:HIS:456:CE1:9038, V-B:ASN:362:CB:8144, V-B:TYR:539:CE1:9844, V-B:MET:535:CE:9804, V-B:PRO:540:CA:9852, V-B:TYR:539:CZ:9846, V-B:TYR:531:CE2:9762, V-B:PRO:540:N:9853, V-B:PRO:540:CB:9854, H-B:TYR:539:N:9839, V-B:LEU:363:CD1:8157, V-B:ALA:541:CB:9861, V-B:GLU:543:CD:9877, V-B:GLU:543:CG:9876, V-A:ARG:545:CZ:4923, V-A:ARG:545:CD:4920, V-B:TYR:539:CE2:9845, V-A:ARG:545:CG:4919, V-B:ILE:538:CG2:9832, V-B:ILE:538:CB:9831, V-A:LEU:475:CD1:4254, V-B:TYR:539:C:9836, V-B:TYR:539:CD2:9843, V-B:ILE:538:CA:9829, V-B:TYR:539:CD1:9842, V-B:TYR:539:CG:9841, H-A:GLY:454:N:4046, V-A:GLY:454:CA:4045, V-A:GLY:453:C:4038, V-A:GLY:453:CA:4040, H-A:TYR:484:OH:4344, V-A:GLY:454:C:4043"]

$$$$
3ci_Grossjean_2025
     RDKit          3D

 25 27  0  0  0  0  0  0  0  0999 V2000
  126.1470  122.5860   55.6280 C   0  0  0  0  0  0  0  0  0  0  0  0
  127.3090  122.9110   56.5480 C   0  0  0  0  0  0  0  0  0  0  0  0
  128.3480  123.7440   56.1470 C   0  0  0  0  0  0  0  0  0  0  0  0
  129.3920  124.0280   57.0380 C   0  0  0  0  0  0  0  0  0  0  0  0
  130.4790  124.9400   56.5700 C   0  0  0  0  0  0  0  0  0  0  0  0
  131.2000  124.6550   55.4030 C   0  0  0  0  0  0  0  0  0  0  0  0
  132.2170  125.5040   54.9750 C   0  0  0  0  0  0  0  0  0  0  0  0
  132.5230  126.6400   55.7170 C   0  0  0  0  0  0  0  0  0  0  0  0
  131.8220  126.9340   56.8840 C   0  0  0  0  0  0  0  0  0  0  0  0
  130.8050  126.0830   57.3090 C   0  0  0  0  0  0  0  0  0  0  0  0
  129.3560  123.4390   58.3280 C   0  0  0  0  0  0  0  0  0  0  0  0
  130.4420  123.6650   59.2880 C   0  0  0  0  0  0  0  0  0  0  0  0
  131.2990  123.8450   60.0450 N   0  0  0  0  0  0  0  0  0  0  0  0
  128.2590  122.6070   58.6560 C   0  0  0  0  0  0  0  0  0  0  0  0
  128.1000  121.8310   60.2600 S   0  0  0  0  0  0  0  0  0  0  0  0
  127.1640  122.9260   61.3760 C   0  0  0  0  0  0  0  0  0  0  0  0
  125.8530  123.4360   60.7680 C   0  0  0  0  0  0  0  0  0  0  0  0
  124.7950  123.2460   61.3730 O   0  0  0  0  0  0  0  0  0  0  0  0
  125.9620  124.0600   59.5740 N   0  0  0  0  0  0  0  0  0  0  0  0
  124.9420  124.6350   58.8290 C   0  0  0  0  0  0  0  0  0  0  0  0
  123.6930  124.9470   59.3640 C   0  0  0  0  0  0  0  0  0  0  0  0
  122.9800  125.4870   58.3170 C   0  0  0  0  0  0  0  0  0  0  0  0
  123.7620  125.5000   57.2110 O   0  0  0  0  0  0  0  0  0  0  0  0
  125.0020  124.9560   57.5470 N   0  0  0  0  0  0  0  0  0  0  0  0
  127.2600  122.3460   57.7750 N   0  0  0  0  0  0  0  0  0  0  0  0
  1  2  1  0
  2  3  2  0
  3  4  1  0
  4  5  1  0
  5  6  2  0
  6  7  1  0
  7  8  2  0
  8  9  1  0
  9 10  2  0
  4 11  2  0
 11 12  1  0
 12 13  3  0
 11 14  1  0
 14 15  1  0
 15 16  1  0
 16 17  1  0
 17 18  2  0
 17 19  1  0
 19 20  1  0
 20 21  1  0
 21 22  2  0
 22 23  1  0
 23 24  1  0
 14 25  2  0
 25  2  1  0
 10  5  1  0
 24 20  2  0
M  END
>  <Binding energies>  (35) 
[-8.16]

>  <Ligand effiencies>  (35) 
[-0.31384615384615383]

>  <Interactions>  (35) 
["V-A:ASP:366:CB:3208, V-A:ASP:366:CG:3209, V-B:ASP:366:CB:8180, V-B:TYR:539:CE1:9844, V-B:MET:535:CE:9804, V-B:PRO:540:CA:9852, V-A:ASP:366:C:3204, V-B:TYR:539:CZ:9846, V-B:TYR:531:CE2:9762, V-A:TYR:531:CZ:4791, V-B:ASN:362:C:8140, V-A:TYR:531:CE1:4789, V-B:ASP:366:CG:8181, V-B:LEU:363:CD1:8157, V-B:LEU:363:CA:8153, H-B:TYR:531:OH:9764, V-B:ALA:541:CB:9861, H-B:TYR:539:OH:9847, V-A:ASN:370:CB:3241, V-B:GLU:543:CD:9877, V-B:TYR:539:CE2:9845, H-B:ALA:541:N:9860, V-B:ILE:538:CG2:9832, V-B:ILE:538:CB:9831, V-B:TYR:539:C:9836, V-B:TYR:539:CD2:9843, V-B:ILE:538:CA:9829, V-B:LEU:363:CB:8155, V-B:ALA:541:CA:9859, V-B:LEU:363:C:8151"]

$$$$
3ck_Grossjean_2025
     RDKit          3D

 30 31  0  0  0  0  0  0  0  0999 V2000
  130.2470  127.7780   71.2580 C   0  0  0  0  0  0  0  0  0  0  0  0
  129.7580  127.3550   72.5210 O   0  0  0  0  0  0  0  0  0  0  0  0
  128.7160  126.3940   72.4320 C   0  0  0  0  0  0  0  0  0  0  0  0
  129.2210  125.1570   71.6790 C   0  0  0  0  0  0  0  0  0  0  0  0
  129.2970  124.0580   72.5780 O   0  0  0  0  0  0  0  0  0  0  0  0
  130.5530  123.9340   73.2330 C   0  0  0  0  0  0  0  0  0  0  0  0
  131.0440  122.4870   73.1050 C   0  0  0  0  0  0  0  0  0  0  0  0
  129.9220  121.6230   73.2100 O   0  0  0  0  0  0  0  0  0  0  0  0
  130.2030  120.3460   73.7640 C   0  0  0  0  0  0  0  0  0  0  0  0
  130.1330  120.4240   75.3010 C   0  0  0  0  0  0  0  0  0  0  0  0
  128.7890  120.2050   75.8420 N   0  0  0  0  0  0  0  0  0  0  0  0
  128.4910  119.9780   77.1340 C   0  0  0  0  0  0  0  0  0  0  0  0
  129.3380  119.9560   78.0290 O   0  0  0  0  0  0  0  0  0  0  0  0
  127.0010  119.7490   77.4390 C   0  0  0  0  0  0  0  0  0  0  0  0
  125.8530  120.9470   76.6770 S   0  0  0  0  0  0  0  0  0  0  0  0
  125.5090  120.4420   74.9980 C   0  0  0  0  0  0  0  0  0  0  0  0
  126.5140  120.6440   74.1090 N   0  0  0  0  0  0  0  0  0  0  0  0
  126.3210  120.2890   72.8190 C   0  0  0  0  0  0  0  0  0  0  0  0
  127.4860  120.5470   71.8830 C   0  0  0  0  0  0  0  0  0  0  0  0
  125.1320  119.7240   72.3650 C   0  0  0  0  0  0  0  0  0  0  0  0
  124.0790  119.5120   73.2650 C   0  0  0  0  0  0  0  0  0  0  0  0
  122.8140  118.9250   72.7290 C   0  0  0  0  0  0  0  0  0  0  0  0
  121.5780  119.4840   73.0760 C   0  0  0  0  0  0  0  0  0  0  0  0
  120.3930  118.9350   72.5880 C   0  0  0  0  0  0  0  0  0  0  0  0
  120.4420  117.8210   71.7560 C   0  0  0  0  0  0  0  0  0  0  0  0
  121.6630  117.2490   71.4090 C   0  0  0  0  0  0  0  0  0  0  0  0
  122.8450  117.7990   71.8970 C   0  0  0  0  0  0  0  0  0  0  0  0
  124.2720  119.8680   74.6250 C   0  0  0  0  0  0  0  0  0  0  0  0
  123.2200  119.6300   75.6190 C   0  0  0  0  0  0  0  0  0  0  0  0
  122.3890  119.4420   76.4030 N   0  0  0  0  0  0  0  0  0  0  0  0
  1  2  1  0
  2  3  1  0
  3  4  1  0
  4  5  1  0
  5  6  1  0
  6  7  1  0
  7  8  1  0
  8  9  1  0
  9 10  1  0
 10 11  1  0
 11 12  1  0
 12 13  2  0
 12 14  1  0
 14 15  1  0
 15 16  1  0
 16 17  2  0
 17 18  1  0
 18 19  1  0
 18 20  2  0
 20 21  1  0
 21 22  1  0
 22 23  2  0
 23 24  1  0
 24 25  2  0
 25 26  1  0
 26 27  2  0
 21 28  2  0
 28 29  1  0
 29 30  3  0
 28 16  1  0
 27 22  1  0
M  END
>  <Binding energies>  (36) 
[-6.82]

>  <Ligand effiencies>  (36) 
[-0.22]

>  <Interactions>  (36) 
["V-B:GLU:543:C:9871, V-B:LYS:547:CE:9919, H-A:LYS:547:NZ:4948, H-B:LYS:547:NZ:9920, V-B:GLY:544:CA:9883, V-A:HIS:456:CD2:4064, V-A:TYR:484:CB:4337, V-A:TYR:484:CG:4338, V-B:VAL:542:CG1:9868, V-A:TYR:484:CD1:4339, V-A:ASP:473:CB:4235, V-B:LYS:547:CG:9917, V-A:ASP:473:CG:4236, H-B:PHE:548:N:9928, V-B:LYS:547:CA:9914, V-A:TYR:484:CD2:4340, V-B:GLU:357:CB:8102, V-B:PHE:548:CE2:9934, V-B:ARG:356:CB:8085, V-B:GLU:357:CA:8100, V-B:ARG:356:C:8081, V-B:ARG:356:CA:8083, V-B:ARG:356:CD:8087, V-B:ARG:356:CG:8086"]

$$$$
4aa_Grossjean_2025
     RDKit          3D

 26 28  0  0  0  0  0  0  0  0999 V2000
  124.9760  123.2480   57.1440 C   0  0  0  0  0  0  0  0  0  0  0  0
  125.4930  122.3830   55.9910 C   0  0  0  0  0  0  0  0  0  0  0  0
  126.7210  121.7740   56.3710 O   0  0  0  0  0  0  0  0  0  0  0  0
  127.8410  122.5170   56.5660 C   0  0  0  0  0  0  0  0  0  0  0  0
  128.6290  122.8110   55.6610 O   0  0  0  0  0  0  0  0  0  0  0  0
  128.0280  122.9440   57.9930 C   0  0  0  0  0  0  0  0  0  0  0  0
  128.1570  124.3080   58.2880 C   0  0  0  0  0  0  0  0  0  0  0  0
  128.3380  124.7350   59.6010 C   0  0  0  0  0  0  0  0  0  0  0  0
  128.3830  123.8100   60.6450 C   0  0  0  0  0  0  0  0  0  0  0  0
  128.5770  124.3500   61.9320 N   0  0  0  0  0  0  0  0  0  0  0  0
  129.7030  124.8220   62.5200 C   0  0  0  0  0  0  0  0  0  0  0  0
  130.8160  124.8090   61.9940 O   0  0  0  0  0  0  0  0  0  0  0  0
  129.5270  125.3450   63.8760 C   0  0  0  0  0  0  0  0  0  0  0  0
  129.7920  124.3000   65.2750 S   0  0  0  0  0  0  0  0  0  0  0  0
  129.3590  125.5870   66.3770 C   0  0  0  0  0  0  0  0  0  0  0  0
  129.3620  125.4150   67.6990 N   0  0  0  0  0  0  0  0  0  0  0  0
  129.0020  126.4910   68.4400 C   0  0  0  0  0  0  0  0  0  0  0  0
  129.0080  126.2720   69.9430 C   0  0  0  0  0  0  0  0  0  0  0  0
  128.6450  127.7230   67.8960 C   0  0  0  0  0  0  0  0  0  0  0  0
  128.6440  127.9010   66.5080 C   0  0  0  0  0  0  0  0  0  0  0  0
  128.2470  129.2640   65.9610 C   0  0  0  0  0  0  0  0  0  0  0  0
  129.0120  126.7940   65.6970 C   0  0  0  0  0  0  0  0  0  0  0  0
  129.1120  126.6260   64.2720 C   0  0  0  0  0  0  0  0  0  0  0  0
  128.8270  127.6420   63.3940 N   0  0  0  0  0  0  0  0  0  0  0  0
  128.2600  122.4430   60.3600 C   0  0  0  0  0  0  0  0  0  0  0  0
  128.0840  122.0170   59.0450 C   0  0  0  0  0  0  0  0  0  0  0  0
  1  2  1  0
  2  3  1  0
  3  4  1  0
  4  5  2  0
  4  6  1  0
  6  7  2  0
  7  8  1  0
  8  9  2  0
  9 10  1  0
 10 11  1  0
 11 12  2  0
 11 13  1  0
 13 14  1  0
 14 15  1  0
 15 16  2  0
 16 17  1  0
 17 18  1  0
 17 19  2  0
 19 20  1  0
 20 21  1  0
 20 22  2  0
 22 23  1  0
 23 24  1  0
  9 25  1  0
 25 26  2  0
 26  6  1  0
 23 13  2  0
 22 15  1  0
M  END
>  <Binding energies>  (37) 
[-7.45]

>  <Ligand effiencies>  (37) 
[-0.25689655172413794]

>  <Interactions>  (37) 
["H-A:GLU:543:OE1:4906, H-A:GLU:543:OE2:4907, V-A:GLU:543:CD:4905, V-A:HIS:456:CE1:4066, V-A:GLU:543:CB:4903, V-A:HIS:456:CD2:4064, V-B:GLU:543:CB:9875, V-B:HIS:456:CE1:9038, V-B:TYR:539:CE1:9844, V-B:PRO:540:CA:9852, V-B:TYR:539:CZ:9846, V-B:PRO:540:N:9853, V-B:PRO:540:CB:9854, H-B:TYR:539:N:9839, V-B:LEU:363:CD1:8157, V-B:ALA:541:CB:9861, H-B:GLU:543:OE2:9879, H-B:GLU:543:OE1:9878, V-B:GLU:543:CD:9877, V-B:GLU:543:CG:9876, V-B:TYR:539:CE2:9845, V-A:TYR:484:CE1:4341, V-A:GLU:543:CG:4904, V-B:ILE:538:CG2:9832, V-B:ILE:538:CB:9831, V-B:PRO:540:CD:9856, V-B:TYR:539:C:9836, V-B:TYR:539:CD2:9843, V-B:TYR:539:CD1:9842, V-B:TYR:539:CG:9841"]

$$$$
4ab_Grossjean_2025
     RDKit          3D

 25 27  0  0  0  0  0  0  0  0999 V2000
  128.0350  122.8190   54.7610 C   0  0  0  0  0  0  0  0  0  0  0  0
  127.9100  121.9810   55.9020 O   0  0  0  0  0  0  0  0  0  0  0  0
  126.8750  122.1300   56.7680 C   0  0  0  0  0  0  0  0  0  0  0  0
  125.7040  121.8600   56.4820 O   0  0  0  0  0  0  0  0  0  0  0  0
  127.2950  122.6630   58.1070 C   0  0  0  0  0  0  0  0  0  0  0  0
  126.5660  123.7110   58.6850 C   0  0  0  0  0  0  0  0  0  0  0  0
  126.9320  124.2280   59.9250 C   0  0  0  0  0  0  0  0  0  0  0  0
  128.0250  123.7040   60.6150 C   0  0  0  0  0  0  0  0  0  0  0  0
  128.3090  124.3070   61.8550 N   0  0  0  0  0  0  0  0  0  0  0  0
  129.4770  124.7920   62.3440 C   0  0  0  0  0  0  0  0  0  0  0  0
  130.5530  124.7380   61.7480 O   0  0  0  0  0  0  0  0  0  0  0  0
  129.3960  125.3850   63.6800 C   0  0  0  0  0  0  0  0  0  0  0  0
  129.7700  124.4160   65.1080 S   0  0  0  0  0  0  0  0  0  0  0  0
  129.4090  125.7580   66.1710 C   0  0  0  0  0  0  0  0  0  0  0  0
  129.5090  125.6550   67.4970 N   0  0  0  0  0  0  0  0  0  0  0  0
  129.1980  126.7680   68.2050 C   0  0  0  0  0  0  0  0  0  0  0  0
  129.3130  126.6280   69.7120 C   0  0  0  0  0  0  0  0  0  0  0  0
  128.7980  127.9690   67.6260 C   0  0  0  0  0  0  0  0  0  0  0  0
  128.6940  128.0740   66.2330 C   0  0  0  0  0  0  0  0  0  0  0  0
  128.2510  129.4060   65.6480 C   0  0  0  0  0  0  0  0  0  0  0  0
  129.0070  126.9260   65.4560 C   0  0  0  0  0  0  0  0  0  0  0  0
  129.0030  126.6830   64.0390 C   0  0  0  0  0  0  0  0  0  0  0  0
  128.6460  127.6500   63.1320 N   0  0  0  0  0  0  0  0  0  0  0  0
  128.7650  122.6590   60.0420 C   0  0  0  0  0  0  0  0  0  0  0  0
  128.3990  122.1440   58.8010 C   0  0  0  0  0  0  0  0  0  0  0  0
  1  2  1  0
  2  3  1  0
  3  4  2  0
  3  5  1  0
  5  6  2  0
  6  7  1  0
  7  8  2  0
  8  9  1  0
  9 10  1  0
 10 11  2  0
 10 12  1  0
 12 13  1  0
 13 14  1  0
 14 15  2  0
 15 16  1  0
 16 17  1  0
 16 18  2  0
 18 19  1  0
 19 20  1  0
 19 21  2  0
 21 22  1  0
 22 23  1  0
  8 24  1  0
 24 25  2  0
 25  5  1  0
 22 12  2  0
 21 14  1  0
M  END
>  <Binding energies>  (38) 
[-7.43]

>  <Ligand effiencies>  (38) 
[-0.26535714285714285]

>  <Interactions>  (38) 
["H-A:GLU:543:OE1:4906, H-A:GLU:543:OE2:4907, V-A:GLU:543:CD:4905, V-A:HIS:456:CE1:4066, V-A:GLU:543:CB:4903, V-A:HIS:456:CD2:4064, V-B:GLU:543:CB:9875, V-B:HIS:456:CE1:9038, V-B:TYR:539:CE1:9844, V-B:MET:535:CE:9804, V-B:PRO:540:CA:9852, V-B:TYR:539:CZ:9846, V-B:PRO:540:N:9853, H-B:TYR:539:N:9839, H-B:GLU:543:OE2:9879, H-B:GLU:543:OE1:9878, V-B:GLU:543:CD:9877, V-B:GLU:543:CG:9876, V-B:TYR:539:CE2:9845, V-A:TYR:484:CE1:4341, V-A:GLU:543:CG:4904, V-B:ILE:538:CG2:9832, V-B:ILE:538:CB:9831, V-B:PRO:540:CD:9856, V-B:TYR:539:C:9836, V-B:TYR:539:CD2:9843, V-B:ILE:538:CA:9829, V-B:TYR:539:CD1:9842, V-B:TYR:539:CG:9841"]

$$$$
4ac_Grossjean_2025
     RDKit          3D

 23 25  0  0  0  0  0  0  0  0999 V2000
  134.4530  125.1010   66.0040 C   0  0  0  0  0  0  0  0  0  0  0  0
  134.5340  125.1240   64.5830 O   0  0  0  0  0  0  0  0  0  0  0  0
  133.3990  124.8730   63.8380 C   0  0  0  0  0  0  0  0  0  0  0  0
  133.5850  124.6550   62.4740 C   0  0  0  0  0  0  0  0  0  0  0  0
  132.4990  124.3930   61.6430 C   0  0  0  0  0  0  0  0  0  0  0  0
  131.2080  124.3360   62.1710 C   0  0  0  0  0  0  0  0  0  0  0  0
  130.1720  124.0790   61.2540 N   0  0  0  0  0  0  0  0  0  0  0  0
  129.6070  122.8970   60.9080 C   0  0  0  0  0  0  0  0  0  0  0  0
  129.9660  121.8050   61.3530 O   0  0  0  0  0  0  0  0  0  0  0  0
  128.5130  122.9840   59.9380 C   0  0  0  0  0  0  0  0  0  0  0  0
  128.7640  122.4890   58.2640 S   0  0  0  0  0  0  0  0  0  0  0  0
  127.1130  122.8890   57.8470 C   0  0  0  0  0  0  0  0  0  0  0  0
  126.6360  122.7250   56.6130 N   0  0  0  0  0  0  0  0  0  0  0  0
  125.3410  123.0730   56.4240 C   0  0  0  0  0  0  0  0  0  0  0  0
  124.8180  122.8780   55.0130 C   0  0  0  0  0  0  0  0  0  0  0  0
  124.5190  123.5790   57.4300 C   0  0  0  0  0  0  0  0  0  0  0  0
  125.0230  123.7500   58.7250 C   0  0  0  0  0  0  0  0  0  0  0  0
  124.0870  124.3050   59.7880 C   0  0  0  0  0  0  0  0  0  0  0  0
  126.3770  123.3930   58.9610 C   0  0  0  0  0  0  0  0  0  0  0  0
  127.1990  123.4350   60.1410 C   0  0  0  0  0  0  0  0  0  0  0  0
  126.7230  123.8820   61.3480 N   0  0  0  0  0  0  0  0  0  0  0  0
  131.0110  124.5670   63.5400 C   0  0  0  0  0  0  0  0  0  0  0  0
  132.1000  124.8290   64.3680 C   0  0  0  0  0  0  0  0  0  0  0  0
  1  2  1  0
  2  3  1  0
  3  4  2  0
  4  5  1  0
  5  6  2  0
  6  7  1  0
  7  8  1  0
  8  9  2  0
  8 10  1  0
 10 11  1  0
 11 12  1  0
 12 13  2  0
 13 14  1  0
 14 15  1  0
 14 16  2  0
 16 17  1  0
 17 18  1  0
 17 19  2  0
 19 20  1  0
 20 21  1  0
  6 22  1  0
 22 23  2  0
 23  3  1  0
 20 10  2  0
 19 12  1  0
M  END
>  <Binding energies>  (39) 
[-7.07]

>  <Ligand effiencies>  (39) 
[-0.27192307692307693]

>  <Interactions>  (39) 
["V-A:ASP:366:CG:3209, V-A:HIS:456:CE1:4066, V-B:TYR:539:CE1:9844, V-B:PRO:540:CA:9852, V-B:TYR:539:CZ:9846, V-B:ASN:362:C:8140, V-B:PRO:540:N:9853, V-B:PRO:540:CB:9854, V-B:LEU:363:CD1:8157, V-B:LEU:363:CA:8153, V-B:ALA:541:CB:9861, H-B:GLU:543:OE2:9879, V-B:GLU:543:CD:9877, V-B:GLU:543:CG:9876, V-A:ARG:545:CZ:4923, V-A:ARG:545:CD:4920, H-A:ARG:545:NH2:4925, V-B:TYR:539:CE2:9845, H-A:ARG:545:NE:4921, V-A:ARG:545:CG:4919, V-B:ILE:538:CG2:9832, V-B:ILE:538:CB:9831, V-B:TYR:539:CD2:9843, V-B:TYR:539:CD1:9842, V-B:TYR:539:CG:9841, H-A:GLY:454:N:4046, H-A:ARG:545:NH1:4924, V-A:GLY:454:CA:4045, V-A:GLY:453:C:4038, V-A:GLY:453:CA:4040, V-A:GLY:454:C:4043, V-B:ILE:538:CD1:9834"]

$$$$
4ad_Grossjean_2025
     RDKit          3D

 21 23  0  0  0  0  0  0  0  0999 V2000
  134.6350  125.1230   65.8110 C   0  0  0  0  0  0  0  0  0  0  0  0
  133.3130  124.9460   65.0890 C   0  0  0  0  0  0  0  0  0  0  0  0
  132.1830  125.6640   65.4750 C   0  0  0  0  0  0  0  0  0  0  0  0
  130.9720  125.4820   64.7950 C   0  0  0  0  0  0  0  0  0  0  0  0
  129.7650  126.2860   65.2540 C   0  0  0  0  0  0  0  0  0  0  0  0
  130.9490  124.5550   63.7180 C   0  0  0  0  0  0  0  0  0  0  0  0
  129.9050  124.1330   62.8240 C   0  0  0  0  0  0  0  0  0  0  0  0
  128.6310  124.6370   62.8980 N   0  0  0  0  0  0  0  0  0  0  0  0
  130.3110  123.1720   61.8850 C   0  0  0  0  0  0  0  0  0  0  0  0
  129.5120  122.5170   60.8470 C   0  0  0  0  0  0  0  0  0  0  0  0
  129.5720  121.2960   60.6860 O   0  0  0  0  0  0  0  0  0  0  0  0
  128.7230  123.3410   60.1150 N   0  0  0  0  0  0  0  0  0  0  0  0
  127.8770  123.0400   59.0300 C   0  0  0  0  0  0  0  0  0  0  0  0
  126.5600  123.4960   59.1360 C   0  0  0  0  0  0  0  0  0  0  0  0
  125.6500  123.2580   58.1110 C   0  0  0  0  0  0  0  0  0  0  0  0
  126.0580  122.5690   56.9720 C   0  0  0  0  0  0  0  0  0  0  0  0
  127.3710  122.1200   56.8480 C   0  0  0  0  0  0  0  0  0  0  0  0
  128.2830  122.3570   57.8720 C   0  0  0  0  0  0  0  0  0  0  0  0
  132.0170  122.7670   62.0860 S   0  0  0  0  0  0  0  0  0  0  0  0
  132.1740  123.8830   63.4230 C   0  0  0  0  0  0  0  0  0  0  0  0
  133.3280  124.0540   64.0690 N   0  0  0  0  0  0  0  0  0  0  0  0
  1  2  1  0
  2  3  2  0
  3  4  1  0
  4  5  1  0
  4  6  2  0
  6  7  1  0
  7  8  1  0
  7  9  2  0
  9 10  1  0
 10 11  2  0
 10 12  1  0
 12 13  1  0
 13 14  2  0
 14 15  1  0
 15 16  2  0
 16 17  1  0
 17 18  2  0
  9 19  1  0
 19 20  1  0
 20 21  2  0
 21  2  1  0
 20  6  1  0
 18 13  1  0
M  END
>  <Binding energies>  (40) 
[-6.95]

>  <Ligand effiencies>  (40) 
[-0.28958333333333336]

>  <Interactions>  (40) 
["V-A:HIS:456:CE1:4066, V-B:TYR:539:CE1:9844, V-B:PRO:540:CA:9852, V-B:TYR:539:CZ:9846, V-B:PRO:540:N:9853, V-B:PRO:540:CB:9854, V-B:ALA:541:CB:9861, H-B:GLU:543:OE2:9879, H-B:GLU:543:OE1:9878, V-B:GLU:543:CD:9877, V-B:GLU:543:CG:9876, V-A:ARG:545:CZ:4923, V-A:ARG:545:CD:4920, V-B:TYR:539:CE2:9845, V-A:ARG:545:CG:4919, V-A:LEU:475:CD1:4254, V-B:PRO:540:CD:9856, V-B:TYR:539:C:9836, V-B:TYR:539:CD2:9843, V-B:TYR:539:CD1:9842, V-B:TYR:539:CG:9841, H-A:GLY:454:N:4046, V-A:GLY:454:CA:4045, V-A:GLY:453:C:4038, V-A:GLY:453:CA:4040, H-A:TYR:484:OH:4344, V-A:GLY:454:C:4043, V-B:TYR:539:CA:9838"]

$$$$
4ae_Grossjean_2025
     RDKit          3D

 22 24  0  0  0  0  0  0  0  0999 V2000
  128.9110  123.0400   54.6400 C   0  0  0  0  0  0  0  0  0  0  0  0
  128.2340  122.9400   55.9930 C   0  0  0  0  0  0  0  0  0  0  0  0
  126.8880  122.5830   56.1130 C   0  0  0  0  0  0  0  0  0  0  0  0
  126.3310  122.5180   57.3900 C   0  0  0  0  0  0  0  0  0  0  0  0
  127.1210  122.8100   58.5040 C   0  0  0  0  0  0  0  0  0  0  0  0
  128.4640  123.1520   58.3130 C   0  0  0  0  0  0  0  0  0  0  0  0
  129.2040  123.4540   59.4700 N   0  0  0  0  0  0  0  0  0  0  0  0
  129.6170  122.6180   60.4550 C   0  0  0  0  0  0  0  0  0  0  0  0
  129.3790  121.4090   60.4730 O   0  0  0  0  0  0  0  0  0  0  0  0
  130.3800  123.2480   61.5340 C   0  0  0  0  0  0  0  0  0  0  0  0
  132.0980  122.8980   61.7330 S   0  0  0  0  0  0  0  0  0  0  0  0
  132.1960  123.9320   63.1390 C   0  0  0  0  0  0  0  0  0  0  0  0
  133.3350  124.1020   63.8110 N   0  0  0  0  0  0  0  0  0  0  0  0
  133.2740  124.9250   64.8850 C   0  0  0  0  0  0  0  0  0  0  0  0
  134.5800  125.0990   65.6400 C   0  0  0  0  0  0  0  0  0  0  0  0
  132.1140  125.5780   65.2980 C   0  0  0  0  0  0  0  0  0  0  0  0
  130.9200  125.3970   64.5890 C   0  0  0  0  0  0  0  0  0  0  0  0
  129.6800  126.1270   65.0800 C   0  0  0  0  0  0  0  0  0  0  0  0
  130.9450  124.5390   63.4570 C   0  0  0  0  0  0  0  0  0  0  0  0
  129.9260  124.1340   62.5250 C   0  0  0  0  0  0  0  0  0  0  0  0
  128.6320  124.5820   62.6120 N   0  0  0  0  0  0  0  0  0  0  0  0
  129.0150  123.2240   57.0660 N   0  0  0  0  0  0  0  0  0  0  0  0
  1  2  1  0
  2  3  2  0
  3  4  1  0
  4  5  2  0
  5  6  1  0
  6  7  1  0
  7  8  1  0
  8  9  2  0
  8 10  1  0
 10 11  1  0
 11 12  1  0
 12 13  2  0
 13 14  1  0
 14 15  1  0
 14 16  2  0
 16 17  1  0
 17 18  1  0
 17 19  2  0
 19 20  1  0
 20 21  1  0
  6 22  2  0
 22  2  1  0
 20 10  2  0
 19 12  1  0
M  END
>  <Binding energies>  (41) 
[-7.05]

>  <Ligand effiencies>  (41) 
[-0.282]

>  <Interactions>  (41) 
["V-A:HIS:456:CE1:4066, V-B:TYR:539:CE1:9844, V-B:MET:535:CE:9804, V-B:PRO:540:CA:9852, V-B:TYR:539:CZ:9846, V-B:PRO:540:N:9853, V-B:PRO:540:CB:9854, H-B:GLU:543:OE2:9879, H-B:TYR:539:OH:9847, V-B:GLU:543:CD:9877, V-B:GLU:543:CG:9876, V-A:ARG:545:CZ:4923, V-A:ARG:545:CD:4920, V-B:TYR:539:CE2:9845, V-A:ARG:545:CG:4919, V-B:ILE:538:CB:9831, V-B:PRO:540:CD:9856, V-B:TYR:539:C:9836, V-B:TYR:539:CD2:9843, V-B:TYR:539:CD1:9842, H-A:GLY:454:N:4046, V-A:GLY:454:CA:4045, V-A:GLY:453:C:4038, V-A:GLY:453:CA:4040, H-A:TYR:484:OH:4344, V-A:GLY:454:C:4043"]

$$$$
4af_Grossjean_2025
     RDKit          3D

 21 23  0  0  0  0  0  0  0  0999 V2000
  134.4840  125.1030   65.6230 C   0  0  0  0  0  0  0  0  0  0  0  0
  133.1760  124.9830   64.8620 C   0  0  0  0  0  0  0  0  0  0  0  0
  132.1050  125.8300   65.1370 C   0  0  0  0  0  0  0  0  0  0  0  0
  130.9070  125.6990   64.4240 C   0  0  0  0  0  0  0  0  0  0  0  0
  129.7660  126.6450   64.7610 C   0  0  0  0  0  0  0  0  0  0  0  0
  130.8340  124.6840   63.4310 C   0  0  0  0  0  0  0  0  0  0  0  0
  129.7840  124.2780   62.5350 C   0  0  0  0  0  0  0  0  0  0  0  0
  128.5590  124.8950   62.5160 N   0  0  0  0  0  0  0  0  0  0  0  0
  130.1320  123.2080   61.6970 C   0  0  0  0  0  0  0  0  0  0  0  0
  129.3070  122.5280   60.6970 C   0  0  0  0  0  0  0  0  0  0  0  0
  129.2910  121.2980   60.6280 O   0  0  0  0  0  0  0  0  0  0  0  0
  128.5780  123.3420   59.8960 N   0  0  0  0  0  0  0  0  0  0  0  0
  127.7310  123.0160   58.8190 C   0  0  0  0  0  0  0  0  0  0  0  0
  126.4030  123.4530   58.6640 C   0  0  0  0  0  0  0  0  0  0  0  0
  125.6660  123.0400   57.5530 C   0  0  0  0  0  0  0  0  0  0  0  0
  126.2720  122.1940   56.6240 C   0  0  0  0  0  0  0  0  0  0  0  0
  127.5490  121.7520   56.7550 N   0  0  0  0  0  0  0  0  0  0  0  0
  128.2530  122.1620   57.8400 C   0  0  0  0  0  0  0  0  0  0  0  0
  131.7860  122.6700   62.0030 S   0  0  0  0  0  0  0  0  0  0  0  0
  132.0000  123.8830   63.2460 C   0  0  0  0  0  0  0  0  0  0  0  0
  133.1430  124.0060   63.9220 N   0  0  0  0  0  0  0  0  0  0  0  0
  1  2  1  0
  2  3  2  0
  3  4  1  0
  4  5  1  0
  4  6  2  0
  6  7  1  0
  7  8  1  0
  7  9  2  0
  9 10  1  0
 10 11  2  0
 10 12  1  0
 12 13  1  0
 13 14  2  0
 14 15  1  0
 15 16  2  0
 16 17  1  0
 17 18  2  0
  9 19  1  0
 19 20  1  0
 20 21  2  0
 21  2  1  0
 20  6  1  0
 18 13  1  0
M  END
>  <Binding energies>  (42) 
[-7.14]

>  <Ligand effiencies>  (42) 
[-0.2975]

>  <Interactions>  (42) 
["V-A:GLU:543:CD:4905, V-A:HIS:456:CE1:4066, V-B:TYR:539:CE1:9844, V-B:PRO:540:CA:9852, V-B:TYR:539:CZ:9846, V-B:PRO:540:N:9853, V-B:PRO:540:CB:9854, H-B:TYR:539:N:9839, V-B:ALA:541:CB:9861, H-B:GLU:543:OE2:9879, H-B:GLU:543:OE1:9878, V-B:GLU:543:CD:9877, V-B:GLU:543:CG:9876, V-A:ARG:545:CZ:4923, V-A:ARG:545:CD:4920, V-B:TYR:539:CE2:9845, V-A:ARG:545:CG:4919, V-B:ILE:538:CB:9831, V-A:LEU:475:CD1:4254, V-B:PRO:540:CD:9856, V-B:TYR:539:C:9836, V-B:TYR:539:CD2:9843, V-B:TYR:539:CD1:9842, V-B:TYR:539:CG:9841, H-A:GLY:454:N:4046, V-A:GLY:454:CA:4045, V-A:GLY:453:C:4038, V-A:GLY:453:CA:4040, H-A:TYR:484:OH:4344, V-A:GLY:454:C:4043"]

$$$$
4ag_Grossjean_2025
     RDKit          3D

 22 24  0  0  0  0  0  0  0  0999 V2000
  129.0130  126.0010   65.3640 C   0  0  0  0  0  0  0  0  0  0  0  0
  129.3040  126.5240   66.7590 C   0  0  0  0  0  0  0  0  0  0  0  0
  130.4670  127.2450   67.0260 C   0  0  0  0  0  0  0  0  0  0  0  0
  130.7150  127.7190   68.3190 C   0  0  0  0  0  0  0  0  0  0  0  0
  131.9980  128.5010   68.5600 C   0  0  0  0  0  0  0  0  0  0  0  0
  129.7520  127.4380   69.3240 C   0  0  0  0  0  0  0  0  0  0  0  0
  129.6880  127.7650   70.7230 C   0  0  0  0  0  0  0  0  0  0  0  0
  130.6730  128.4830   71.3550 N   0  0  0  0  0  0  0  0  0  0  0  0
  128.5400  127.2830   71.3680 C   0  0  0  0  0  0  0  0  0  0  0  0
  128.1520  127.4390   72.7700 C   0  0  0  0  0  0  0  0  0  0  0  0
  128.9840  127.6960   73.6420 O   0  0  0  0  0  0  0  0  0  0  0  0
  126.8420  127.2670   73.0460 N   0  0  0  0  0  0  0  0  0  0  0  0
  126.2300  127.4000   74.3670 C   0  0  0  0  0  0  0  0  0  0  0  0
  125.8000  128.8220   74.7090 C   0  0  0  0  0  0  0  0  0  0  0  0
  126.6490  129.8940   74.4180 C   0  0  0  0  0  0  0  0  0  0  0  0
  126.2480  131.1970   74.7070 C   0  0  0  0  0  0  0  0  0  0  0  0
  124.9960  131.4230   75.2750 C   0  0  0  0  0  0  0  0  0  0  0  0
  124.1390  130.3610   75.5530 C   0  0  0  0  0  0  0  0  0  0  0  0
  124.5390  129.0590   75.2640 C   0  0  0  0  0  0  0  0  0  0  0  0
  127.4930  126.4130   70.2460 S   0  0  0  0  0  0  0  0  0  0  0  0
  128.6040  126.6920   68.9230 C   0  0  0  0  0  0  0  0  0  0  0  0
  128.3630  126.2390   67.6920 N   0  0  0  0  0  0  0  0  0  0  0  0
  1  2  1  0
  2  3  2  0
  3  4  1  0
  4  5  1  0
  4  6  2  0
  6  7  1  0
  7  8  1  0
  7  9  2  0
  9 10  1  0
 10 11  2  0
 10 12  1  0
 12 13  1  0
 13 14  1  0
 14 15  2  0
 15 16  1  0
 16 17  2  0
 17 18  1  0
 18 19  2  0
  9 20  1  0
 20 21  1  0
 21 22  2  0
 22  2  1  0
 21  6  1  0
 19 14  1  0
M  END
>  <Binding energies>  (43) 
[-7.81]

>  <Ligand effiencies>  (43) 
[-0.3124]

>  <Interactions>  (43) 
["V-A:GLU:543:CD:4905, V-B:GLU:543:C:9871, V-B:LYS:547:CE:9919, V-B:LYS:471:CE:9188, V-B:VAL:458:CG2:9055, V-B:HIS:456:CG:9034, H-A:LYS:547:NZ:4948, V-A:GLY:544:C:4909, V-B:HIS:456:CB:9033, V-A:HIS:456:CE1:4066, V-A:GLU:543:C:4899, V-A:GLU:543:CB:4903, H-A:GLU:543:O:4900, V-B:GLU:543:CB:9875, V-B:HIS:456:C:9029, V-A:GLY:544:CA:4911, V-B:HIS:456:CE1:9038, V-B:GLY:544:C:9881, V-B:HIS:456:CD2:9036, V-B:GLU:543:CD:9877, V-B:GLU:543:CG:9876, V-A:ARG:545:CG:4919, V-B:LYS:547:CD:9918, V-B:VAL:457:CA:9043, V-B:ASP:473:CG:9208, V-B:ASP:473:CB:9207, V-B:VAL:457:C:9041, V-B:LYS:471:CB:9185, V-A:GLU:543:CA:4901, H-B:GLY:544:O:9882, V-A:ARG:545:CA:4916, V-B:HIS:456:CA:9031, H-A:GLY:544:O:4910, V-A:ARG:545:CB:4918"]

$$$$
4ah_Grossjean_2025
     RDKit          3D

 28 30  0  0  0  0  0  0  0  0999 V2000
  127.8480  122.7350   55.4100 C   0  0  0  0  0  0  0  0  0  0  0  0
  127.4900  121.8080   56.4280 O   0  0  0  0  0  0  0  0  0  0  0  0
  127.2250  122.2700   57.7050 C   0  0  0  0  0  0  0  0  0  0  0  0
  128.1110  122.1380   58.7850 C   0  0  0  0  0  0  0  0  0  0  0  0
  127.7760  122.6270   60.0480 C   0  0  0  0  0  0  0  0  0  0  0  0
  128.7700  122.5170   61.1990 C   0  0  0  0  0  0  0  0  0  0  0  0
  128.6720  123.6120   62.1640 N   0  0  0  0  0  0  0  0  0  0  0  0
  129.7120  124.1800   62.8100 C   0  0  0  0  0  0  0  0  0  0  0  0
  130.8730  123.7920   62.6700 O   0  0  0  0  0  0  0  0  0  0  0  0
  129.3790  125.2670   63.7290 C   0  0  0  0  0  0  0  0  0  0  0  0
  128.8280  126.8220   63.1010 S   0  0  0  0  0  0  0  0  0  0  0  0
  128.7130  127.4840   64.7160 C   0  0  0  0  0  0  0  0  0  0  0  0
  128.3100  128.7350   64.9390 N   0  0  0  0  0  0  0  0  0  0  0  0
  128.2620  129.1230   66.2360 C   0  0  0  0  0  0  0  0  0  0  0  0
  127.8040  130.5510   66.4680 C   0  0  0  0  0  0  0  0  0  0  0  0
  128.6040  128.2970   67.3050 C   0  0  0  0  0  0  0  0  0  0  0  0
  129.0280  126.9850   67.0690 C   0  0  0  0  0  0  0  0  0  0  0  0
  129.3910  126.1220   68.2680 C   0  0  0  0  0  0  0  0  0  0  0  0
  129.0930  126.5420   65.7200 C   0  0  0  0  0  0  0  0  0  0  0  0
  129.4800  125.2900   65.1280 C   0  0  0  0  0  0  0  0  0  0  0  0
  129.8990  124.2210   65.8790 N   0  0  0  0  0  0  0  0  0  0  0  0
  126.5560  123.2800   60.2320 C   0  0  0  0  0  0  0  0  0  0  0  0
  125.6480  123.4210   59.1720 C   0  0  0  0  0  0  0  0  0  0  0  0
  124.4170  124.0420   59.2860 O   0  0  0  0  0  0  0  0  0  0  0  0
  124.0230  124.5820   60.5430 C   0  0  0  0  0  0  0  0  0  0  0  0
  125.9920  122.9060   57.9140 C   0  0  0  0  0  0  0  0  0  0  0  0
  125.1200  123.0530   56.8610 O   0  0  0  0  0  0  0  0  0  0  0  0
  124.8810  124.4040   56.4930 C   0  0  0  0  0  0  0  0  0  0  0  0
  1  2  1  0
  2  3  1  0
  3  4  2  0
  4  5  1  0
  5  6  1  0
  6  7  1  0
  7  8  1  0
  8  9  2  0
  8 10  1  0
 10 11  1  0
 11 12  1  0
 12 13  2  0
 13 14  1  0
 14 15  1  0
 14 16  2  0
 16 17  1  0
 17 18  1  0
 17 19  2  0
 19 20  1  0
 20 21  1  0
  5 22  2  0
 22 23  1  0
 23 24  1  0
 24 25  1  0
 23 26  2  0
 26 27  1  0
 27 28  1  0
 26  3  1  0
 20 10  2  0
 19 12  1  0
M  END
>  <Binding energies>  (44) 
[-7.1]

>  <Ligand effiencies>  (44) 
[-0.22903225806451613]

>  <Interactions>  (44) 
["V-A:GLU:543:CD:4905, V-A:HIS:456:CE1:4066, V-A:GLU:543:CB:4903, V-B:GLU:543:CB:9875, V-B:HIS:456:CE1:9038, V-B:ASN:362:CB:8144, V-B:TYR:539:CE1:9844, V-B:MET:535:CE:9804, V-B:PRO:540:CA:9852, V-B:TYR:539:CZ:9846, V-B:TYR:531:CE2:9762, V-B:ASN:362:C:8140, V-B:PRO:540:N:9853, V-B:TYR:531:CZ:9763, V-B:PRO:540:CB:9854, H-B:TYR:539:N:9839, V-B:LEU:363:CD1:8157, V-B:ALA:541:CB:9861, H-B:GLU:543:OE2:9879, V-B:GLU:543:CD:9877, V-B:GLU:543:CG:9876, V-A:TYR:484:CZ:4343, V-B:TYR:539:CE2:9845, V-A:TYR:484:CE1:4341, V-A:GLU:543:CG:4904, V-B:ILE:538:CG2:9832, V-B:ILE:538:CB:9831, V-B:PRO:540:CD:9856, V-B:TYR:539:C:9836, V-B:TYR:539:CD2:9843, V-B:ILE:538:CA:9829, V-B:TYR:539:CD1:9842, V-B:TYR:539:CG:9841, H-A:TYR:484:OH:4344, V-B:TYR:484:CE1:9313, V-B:TYR:484:CZ:9315, H-B:GLU:543:O:9872"]

$$$$
4ai_Grossjean_2025
     RDKit          3D

 20 22  0  0  0  0  0  0  0  0999 V2000
  125.7880  122.1220   56.1100 C   0  0  0  0  0  0  0  0  0  0  0  0
  127.0150  122.5860   56.8750 C   0  0  0  0  0  0  0  0  0  0  0  0
  127.9720  123.3990   56.2700 C   0  0  0  0  0  0  0  0  0  0  0  0
  129.0920  123.8200   56.9960 C   0  0  0  0  0  0  0  0  0  0  0  0
  130.1070  124.7080   56.2930 C   0  0  0  0  0  0  0  0  0  0  0  0
  129.2070  123.3910   58.3460 C   0  0  0  0  0  0  0  0  0  0  0  0
  130.2010  123.6300   59.3570 C   0  0  0  0  0  0  0  0  0  0  0  0
  131.3150  124.3950   59.1220 N   0  0  0  0  0  0  0  0  0  0  0  0
  129.9200  123.0180   60.5890 C   0  0  0  0  0  0  0  0  0  0  0  0
  130.7120  123.0430   61.8210 C   0  0  0  0  0  0  0  0  0  0  0  0
  130.7450  122.0630   62.5670 O   0  0  0  0  0  0  0  0  0  0  0  0
  131.3950  124.1930   62.0490 N   0  0  0  0  0  0  0  0  0  0  0  0
  132.2250  124.4830   63.1240 C   0  0  0  0  0  0  0  0  0  0  0  0
  131.7500  124.9520   64.3490 C   0  0  0  0  0  0  0  0  0  0  0  0
  132.8700  125.1160   65.1290 C   0  0  0  0  0  0  0  0  0  0  0  0
  133.9640  124.7620   64.4130 O   0  0  0  0  0  0  0  0  0  0  0  0
  133.5420  124.3610   63.1450 N   0  0  0  0  0  0  0  0  0  0  0  0
  128.4130  122.1020   60.5160 S   0  0  0  0  0  0  0  0  0  0  0  0
  128.1590  122.5600   58.8470 C   0  0  0  0  0  0  0  0  0  0  0  0
  127.0910  122.1570   58.1580 N   0  0  0  0  0  0  0  0  0  0  0  0
  1  2  1  0
  2  3  2  0
  3  4  1  0
  4  5  1  0
  4  6  2  0
  6  7  1  0
  7  8  1  0
  7  9  2  0
  9 10  1  0
 10 11  2  0
 10 12  1  0
 12 13  1  0
 13 14  1  0
 14 15  2  0
 15 16  1  0
 16 17  1  0
  9 18  1  0
 18 19  1  0
 19 20  2  0
 20  2  1  0
 19  6  1  0
 17 13  2  0
M  END
>  <Binding energies>  (45) 
[-6.75]

>  <Ligand effiencies>  (45) 
[-0.29347826086956524]

>  <Interactions>  (45) 
["H-A:ASP:366:OD1:3210, V-A:HIS:456:CE1:4066, V-B:TYR:539:CE1:9844, V-B:MET:535:CE:9804, V-B:PRO:540:CA:9852, V-B:TYR:539:CZ:9846, V-B:PRO:540:N:9853, V-B:PRO:540:CB:9854, V-B:LEU:363:CD1:8157, V-B:ALA:541:CB:9861, H-B:TYR:539:OH:9847, V-A:ARG:545:CZ:4923, V-B:TYR:539:CE2:9845, V-B:ILE:538:CG2:9832, V-B:ILE:538:CB:9831, V-B:PRO:540:CD:9856, V-B:TYR:539:C:9836, V-B:TYR:539:CD2:9843, V-B:ILE:538:CA:9829, H-A:GLY:454:N:4046, H-A:ARG:545:NH1:4924"]

$$$$
4aj_Grossjean_2025
     RDKit          3D

 20 22  0  0  0  0  0  0  0  0999 V2000
  133.6970  124.9100   65.3270 C   0  0  0  0  0  0  0  0  0  0  0  0
  132.9550  124.5420   64.0550 C   0  0  0  0  0  0  0  0  0  0  0  0
  133.6330  124.3840   62.8490 C   0  0  0  0  0  0  0  0  0  0  0  0
  132.9280  124.0490   61.6880 C   0  0  0  0  0  0  0  0  0  0  0  0
  133.7140  123.8880   60.3960 C   0  0  0  0  0  0  0  0  0  0  0  0
  131.5220  123.8800   61.7910 C   0  0  0  0  0  0  0  0  0  0  0  0
  130.5110  123.5450   60.8230 C   0  0  0  0  0  0  0  0  0  0  0  0
  130.8080  123.3190   59.5040 N   0  0  0  0  0  0  0  0  0  0  0  0
  129.2150  123.4690   61.3560 C   0  0  0  0  0  0  0  0  0  0  0  0
  127.9610  123.1660   60.6620 C   0  0  0  0  0  0  0  0  0  0  0  0
  127.9470  122.4050   59.6930 O   0  0  0  0  0  0  0  0  0  0  0  0
  126.8560  123.7640   61.1710 N   0  0  0  0  0  0  0  0  0  0  0  0
  125.5530  123.6360   60.7100 C   0  0  0  0  0  0  0  0  0  0  0  0
  124.5110  123.1560   61.3560 N   0  0  0  0  0  0  0  0  0  0  0  0
  123.4230  123.1880   60.6130 C   0  0  0  0  0  0  0  0  0  0  0  0
  123.5700  123.7020   59.3270 C   0  0  0  0  0  0  0  0  0  0  0  0
  125.2280  124.1680   59.0920 S   0  0  0  0  0  0  0  0  0  0  0  0
  129.2130  123.8300   63.0830 S   0  0  0  0  0  0  0  0  0  0  0  0
  130.9460  124.0670   63.0840 C   0  0  0  0  0  0  0  0  0  0  0  0
  131.6150  124.3870   64.1930 N   0  0  0  0  0  0  0  0  0  0  0  0
  1  2  1  0
  2  3  2  0
  3  4  1  0
  4  5  1  0
  4  6  2  0
  6  7  1  0
  7  8  1  0
  7  9  2  0
  9 10  1  0
 10 11  2  0
 10 12  1  0
 12 13  1  0
 13 14  2  0
 14 15  1  0
 15 16  2  0
 16 17  1  0
  9 18  1  0
 18 19  1  0
 19 20  2  0
 20  2  1  0
 19  6  1  0
 17 13  1  0
M  END
>  <Binding energies>  (46) 
[-6.57]

>  <Ligand effiencies>  (46) 
[-0.2856521739130435]

>  <Interactions>  (46) 
["V-A:ASP:366:CB:3208, V-A:ASP:366:CG:3209, V-A:HIS:456:CE1:4066, V-B:ASN:362:CB:8144, V-B:PRO:540:CA:9852, V-B:TYR:539:CZ:9846, V-B:ASN:362:C:8140, V-B:PRO:540:CB:9854, V-B:LEU:363:CD1:8157, V-B:LEU:363:CA:8153, V-B:ALA:541:CB:9861, H-B:GLU:543:OE2:9879, H-B:TYR:539:OH:9847, V-B:GLU:543:CD:9877, V-B:GLU:543:CG:9876, V-A:ARG:545:CZ:4923, V-A:ARG:545:CD:4920, V-B:TYR:539:CE2:9845, H-B:ALA:541:N:9860, V-B:TYR:539:CD2:9843, V-B:LEU:363:CB:8155, V-A:GLY:454:CA:4045, H-A:TYR:484:OH:4344, V-A:ASP:366:CA:3206, V-B:ASN:362:CA:8142"]

$$$$
4ak_Grossjean_2025
     RDKit          3D

 25 26  0  0  0  0  0  0  0  0999 V2000
  125.5860  122.4990   56.3210 C   0  0  0  0  0  0  0  0  0  0  0  0
  126.4010  122.5110   57.4820 O   0  0  0  0  0  0  0  0  0  0  0  0
  127.7740  122.7650   57.2080 C   0  0  0  0  0  0  0  0  0  0  0  0
  128.0870  124.2400   57.4890 C   0  0  0  0  0  0  0  0  0  0  0  0
  126.9310  125.0250   57.2300 O   0  0  0  0  0  0  0  0  0  0  0  0
  126.8040  126.1580   58.0780 C   0  0  0  0  0  0  0  0  0  0  0  0
  125.3210  126.3970   58.3880 C   0  0  0  0  0  0  0  0  0  0  0  0
  124.5320  125.4940   57.6260 O   0  0  0  0  0  0  0  0  0  0  0  0
  123.3650  125.0400   58.3000 C   0  0  0  0  0  0  0  0  0  0  0  0
  123.7340  123.8610   59.2180 C   0  0  0  0  0  0  0  0  0  0  0  0
  125.1590  123.7920   59.5400 N   0  0  0  0  0  0  0  0  0  0  0  0
  125.6760  123.3400   60.7000 C   0  0  0  0  0  0  0  0  0  0  0  0
  124.9710  122.9100   61.6150 O   0  0  0  0  0  0  0  0  0  0  0  0
  127.1330  123.3790   60.8140 C   0  0  0  0  0  0  0  0  0  0  0  0
  128.0820  121.9080   60.5990 S   0  0  0  0  0  0  0  0  0  0  0  0
  129.5760  122.7790   60.8620 C   0  0  0  0  0  0  0  0  0  0  0  0
  130.7620  122.1700   60.8310 N   0  0  0  0  0  0  0  0  0  0  0  0
  131.8420  122.9590   61.0540 C   0  0  0  0  0  0  0  0  0  0  0  0
  133.1820  122.2480   61.0130 C   0  0  0  0  0  0  0  0  0  0  0  0
  131.7640  124.3280   61.3010 C   0  0  0  0  0  0  0  0  0  0  0  0
  130.5170  124.9640   61.3320 C   0  0  0  0  0  0  0  0  0  0  0  0
  130.4820  126.4590   61.6110 C   0  0  0  0  0  0  0  0  0  0  0  0
  129.3620  124.1680   61.1050 C   0  0  0  0  0  0  0  0  0  0  0  0
  127.9590  124.4850   61.0660 C   0  0  0  0  0  0  0  0  0  0  0  0
  127.4890  125.7590   61.2630 N   0  0  0  0  0  0  0  0  0  0  0  0
  1  2  1  0
  2  3  1  0
  3  4  1  0
  4  5  1  0
  5  6  1  0
  6  7  1  0
  7  8  1  0
  8  9  1  0
  9 10  1  0
 10 11  1  0
 11 12  1  0
 12 13  2  0
 12 14  1  0
 14 15  1  0
 15 16  1  0
 16 17  2  0
 17 18  1  0
 18 19  1  0
 18 20  2  0
 20 21  1  0
 21 22  1  0
 21 23  2  0
 23 24  1  0
 24 25  1  0
 24 14  2  0
 23 16  1  0
M  END
>  <Binding energies>  (47) 
[-5.07]

>  <Ligand effiencies>  (47) 
[-0.18107142857142858]

>  <Interactions>  (47) 
["V-B:ASP:366:CB:8180, V-B:TYR:539:CE1:9844, V-B:PRO:540:CA:9852, V-B:TYR:531:CE2:9762, H-B:ASP:366:OD1:8182, V-B:ASN:362:C:8140, V-B:PRO:540:N:9853, V-B:PRO:540:C:9850, V-B:PRO:540:CB:9854, V-B:ASP:366:CG:8181, V-B:LEU:363:CD1:8157, V-B:LEU:363:CA:8153, H-B:TYR:531:OH:9764, V-B:ALA:541:CB:9861, H-B:GLU:543:OE2:9879, H-B:GLU:543:OE1:9878, V-B:GLU:543:CD:9877, V-B:TYR:539:CE2:9845, H-B:ALA:541:N:9860, V-B:ILE:538:CG2:9832, V-B:ILE:538:CB:9831, V-B:PRO:540:CD:9856, V-B:TYR:539:CD1:9842, V-B:LEU:363:CB:8155, V-A:ILE:369:CG2:3233, V-B:ALA:541:CA:9859"]

$$$$
4al_Grossjean_2025
     RDKit          3D

 16 17  0  0  0  0  0  0  0  0999 V2000
  126.6990  130.7340   55.2930 C   0  0  0  0  0  0  0  0  0  0  0  0
  127.2270  131.6730   56.2180 O   0  0  0  0  0  0  0  0  0  0  0  0
  128.3930  132.3220   55.9640 C   0  0  0  0  0  0  0  0  0  0  0  0
  128.5800  133.0450   54.9830 O   0  0  0  0  0  0  0  0  0  0  0  0
  129.4270  132.0730   56.9920 C   0  0  0  0  0  0  0  0  0  0  0  0
  129.0730  132.3890   58.6930 S   0  0  0  0  0  0  0  0  0  0  0  0
  130.6760  131.8760   59.1640 C   0  0  0  0  0  0  0  0  0  0  0  0
  131.0720  131.8790   60.4380 N   0  0  0  0  0  0  0  0  0  0  0  0
  132.3400  131.4570   60.6690 C   0  0  0  0  0  0  0  0  0  0  0  0
  132.7690  131.4700   62.1250 C   0  0  0  0  0  0  0  0  0  0  0  0
  133.2110  131.0370   59.6670 C   0  0  0  0  0  0  0  0  0  0  0  0
  132.7940  131.0340   58.3320 C   0  0  0  0  0  0  0  0  0  0  0  0
  133.7800  130.5670   57.2740 C   0  0  0  0  0  0  0  0  0  0  0  0
  131.4710  131.4700   58.0510 C   0  0  0  0  0  0  0  0  0  0  0  0
  130.7310  131.5930   56.8250 C   0  0  0  0  0  0  0  0  0  0  0  0
  131.2650  131.2670   55.6050 N   0  0  0  0  0  0  0  0  0  0  0  0
  1  2  1  0
  2  3  1  0
  3  4  2  0
  3  5  1  0
  5  6  1  0
  6  7  1  0
  7  8  2  0
  8  9  1  0
  9 10  1  0
  9 11  2  0
 11 12  1  0
 12 13  1  0
 12 14  2  0
 14 15  1  0
 15 16  1  0
 15  5  2  0
 14  7  1  0
M  END
>  <Binding energies>  (48) 
[-5.75]

>  <Ligand effiencies>  (48) 
[-0.3194444444444444]

>  <Interactions>  (48) 
["V-A:TYR:539:CD2:4871, V-A:PRO:540:CB:4882, V-A:PRO:540:CA:4880, V-A:PRO:540:N:4881, V-A:LEU:363:CD1:3185, V-A:TYR:539:C:4864, V-A:ASP:366:CB:3208, V-A:LEU:363:CA:3181, V-A:ASN:362:CB:3172, V-A:GLU:543:CD:4905, V-A:ASN:362:C:3168, V-A:TYR:539:CE2:4873, H-A:ALA:541:N:4888, V-A:ILE:538:CD1:4862, H-A:TYR:531:OH:4792, V-A:TYR:531:CZ:4791, V-A:TYR:539:CZ:4874, V-A:GLU:543:CG:4904, V-A:TYR:539:CE1:4872, H-A:TYR:539:N:4867, V-A:LEU:363:CB:3183, V-A:TYR:539:CG:4869, V-A:TYR:531:CE2:4790, V-A:LEU:363:C:3179, H-A:TYR:539:OH:4875, V-A:LEU:363:CG:3184, V-A:ASN:362:CG:3173, V-A:ALA:541:C:4885"]

$$$$
4bc_Grossjean_2025
     RDKit          3D

 26 28  0  0  0  0  0  0  0  0999 V2000
  134.5380  125.0250   65.9650 C   0  0  0  0  0  0  0  0  0  0  0  0
  134.6070  125.1360   64.5470 O   0  0  0  0  0  0  0  0  0  0  0  0
  133.4640  124.9320   63.7990 C   0  0  0  0  0  0  0  0  0  0  0  0
  133.6370  124.3600   62.5400 C   0  0  0  0  0  0  0  0  0  0  0  0
  132.5430  124.1180   61.7130 C   0  0  0  0  0  0  0  0  0  0  0  0
  131.2540  124.4380   62.1420 C   0  0  0  0  0  0  0  0  0  0  0  0
  130.2130  124.1720   61.2340 N   0  0  0  0  0  0  0  0  0  0  0  0
  129.7090  122.9790   60.8340 C   0  0  0  0  0  0  0  0  0  0  0  0
  130.1430  121.8890   61.2090 O   0  0  0  0  0  0  0  0  0  0  0  0
  128.5860  123.0530   59.8950 C   0  0  0  0  0  0  0  0  0  0  0  0
  128.8000  122.5620   58.2160 S   0  0  0  0  0  0  0  0  0  0  0  0
  127.1330  122.9390   57.8460 C   0  0  0  0  0  0  0  0  0  0  0  0
  126.6360  122.7630   56.6220 N   0  0  0  0  0  0  0  0  0  0  0  0
  125.3350  123.0910   56.4560 C   0  0  0  0  0  0  0  0  0  0  0  0
  124.7870  122.8780   55.0570 C   0  0  0  0  0  0  0  0  0  0  0  0
  124.5250  123.5870   57.4760 C   0  0  0  0  0  0  0  0  0  0  0  0
  125.0440  123.7750   58.7670 C   0  0  0  0  0  0  0  0  0  0  0  0
  124.1150  124.3260   59.8550 C   0  0  0  0  0  0  0  0  0  0  0  0
  123.0000  124.8690   59.3620 F   0  0  0  0  0  0  0  0  0  0  0  0
  123.7520  123.3420   60.6770 F   0  0  0  0  0  0  0  0  0  0  0  0
  124.7460  125.2720   60.5510 F   0  0  0  0  0  0  0  0  0  0  0  0
  126.4140  123.4370   58.9750 C   0  0  0  0  0  0  0  0  0  0  0  0
  127.2730  123.4880   60.1340 C   0  0  0  0  0  0  0  0  0  0  0  0
  126.8360  123.9230   61.3590 N   0  0  0  0  0  0  0  0  0  0  0  0
  131.0720  125.0270   63.4030 C   0  0  0  0  0  0  0  0  0  0  0  0
  132.1680  125.2680   64.2260 C   0  0  0  0  0  0  0  0  0  0  0  0
  1  2  1  0
  2  3  1  0
  3  4  2  0
  4  5  1  0
  5  6  2  0
  6  7  1  0
  7  8  1  0
  8  9  2  0
  8 10  1  0
 10 11  1  0
 11 12  1  0
 12 13  2  0
 13 14  1  0
 14 15  1  0
 14 16  2  0
 16 17  1  0
 17 18  1  0
 18 19  1  0
 18 20  1  0
 18 21  1  0
 17 22  2  0
 22 23  1  0
 23 24  1  0
  6 25  1  0
 25 26  2  0
 26  3  1  0
 23 10  2  0
 22 12  1  0
M  END
>  <Binding energies>  (49) 
[-6.85]

>  <Ligand effiencies>  (49) 
[-0.23620689655172414]

>  <Interactions>  (49) 
["V-A:ASP:366:CG:3209, V-A:HIS:456:CE1:4066, V-B:ASP:366:CB:8180, V-B:ASN:362:CB:8144, V-B:TYR:539:CE1:9844, V-B:PRO:540:CA:9852, V-B:TYR:539:CZ:9846, V-B:ASN:362:C:8140, V-B:PRO:540:N:9853, V-B:PRO:540:CB:9854, V-B:ASP:366:CG:8181, V-B:LEU:363:CD1:8157, V-B:LEU:363:CA:8153, V-B:ALA:541:CB:9861, H-B:GLU:543:OE2:9879, V-B:GLU:543:CD:9877, V-B:GLU:543:CG:9876, V-A:ARG:545:CZ:4923, V-A:ARG:545:CD:4920, H-A:ARG:545:NH2:4925, V-B:TYR:539:CE2:9845, H-A:ARG:545:NE:4921, V-A:ARG:545:CG:4919, V-B:ILE:538:CG2:9832, V-B:ILE:538:CB:9831, V-B:TYR:539:CD2:9843, V-B:TYR:539:CD1:9842, V-B:TYR:539:CG:9841, V-B:LEU:363:CB:8155, H-A:GLY:454:N:4046, H-A:ARG:545:NH1:4924, V-A:GLY:454:CA:4045, V-A:GLY:453:C:4038, V-A:GLY:453:CA:4040, V-A:GLY:454:C:4043, V-B:LEU:363:C:8151, V-B:ILE:538:CD1:9834"]

$$$$
4bf_Grossjean_2025
     RDKit          3D

 24 26  0  0  0  0  0  0  0  0999 V2000
  124.7840  122.9030   55.1500 C   0  0  0  0  0  0  0  0  0  0  0  0
  125.3980  123.0980   56.5250 C   0  0  0  0  0  0  0  0  0  0  0  0
  124.6110  123.4480   57.6190 C   0  0  0  0  0  0  0  0  0  0  0  0
  125.1920  123.6290   58.8840 C   0  0  0  0  0  0  0  0  0  0  0  0
  124.2860  124.0170   60.0570 C   0  0  0  0  0  0  0  0  0  0  0  0
  124.6360  125.1720   60.6280 F   0  0  0  0  0  0  0  0  0  0  0  0
  123.0280  124.1460   59.6350 F   0  0  0  0  0  0  0  0  0  0  0  0
  124.3400  123.0750   61.0000 F   0  0  0  0  0  0  0  0  0  0  0  0
  126.6020  123.4380   58.9870 C   0  0  0  0  0  0  0  0  0  0  0  0
  127.5270  123.5340   60.0900 C   0  0  0  0  0  0  0  0  0  0  0  0
  127.1290  123.8610   61.3620 N   0  0  0  0  0  0  0  0  0  0  0  0
  128.8610  123.2610   59.7470 C   0  0  0  0  0  0  0  0  0  0  0  0
  130.0510  123.2980   60.6030 C   0  0  0  0  0  0  0  0  0  0  0  0
  129.9530  123.1370   61.8200 O   0  0  0  0  0  0  0  0  0  0  0  0
  131.2250  123.5000   59.9560 N   0  0  0  0  0  0  0  0  0  0  0  0
  132.5250  123.6360   60.4800 C   0  0  0  0  0  0  0  0  0  0  0  0
  133.7170  123.4760   59.7520 C   0  0  0  0  0  0  0  0  0  0  0  0
  134.9460  123.6230   60.3990 C   0  0  0  0  0  0  0  0  0  0  0  0
  134.9520  123.9220   61.7620 C   0  0  0  0  0  0  0  0  0  0  0  0
  133.8170  124.0740   62.4870 N   0  0  0  0  0  0  0  0  0  0  0  0
  132.6300  123.9270   61.8450 C   0  0  0  0  0  0  0  0  0  0  0  0
  129.0120  122.8790   58.0330 S   0  0  0  0  0  0  0  0  0  0  0  0
  127.2930  123.0800   57.7890 C   0  0  0  0  0  0  0  0  0  0  0  0
  126.7360  122.9090   56.5900 N   0  0  0  0  0  0  0  0  0  0  0  0
  1  2  1  0
  2  3  2  0
  3  4  1  0
  4  5  1  0
  5  6  1  0
  5  7  1  0
  5  8  1  0
  4  9  2  0
  9 10  1  0
 10 11  1  0
 10 12  2  0
 12 13  1  0
 13 14  2  0
 13 15  1  0
 15 16  1  0
 16 17  2  0
 17 18  1  0
 18 19  2  0
 19 20  1  0
 20 21  2  0
 12 22  1  0
 22 23  1  0
 23 24  2  0
 24  2  1  0
 23  9  1  0
 21 16  1  0
M  END
>  <Binding energies>  (50) 
[-6.8]

>  <Ligand effiencies>  (50) 
[-0.2518518518518518]

>  <Interactions>  (50) 
["V-A:ASP:366:CB:3208, V-A:ASP:366:CG:3209, V-B:ASN:362:CB:8144, V-B:TYR:539:CE1:9844, V-B:PRO:540:CA:9852, V-B:TYR:539:CZ:9846, V-B:ASN:362:C:8140, V-B:PRO:540:C:9850, V-B:PRO:540:CB:9854, V-B:ASP:366:CG:8181, V-B:LEU:363:CD1:8157, V-B:LEU:363:CA:8153, V-B:ALA:541:CB:9861, H-B:GLU:543:OE2:9879, H-B:TYR:539:OH:9847, V-B:GLU:543:CD:9877, V-B:GLU:543:CG:9876, V-B:TYR:539:CE2:9845, V-B:ILE:538:CG2:9832, V-B:ILE:538:CB:9831, V-A:ILE:369:CG1:3234, V-A:ILE:369:CB:3232, V-B:TYR:539:CD2:9843, V-B:TYR:539:CD1:9842, V-B:TYR:539:CG:9841, V-B:LEU:363:CB:8155, H-A:GLY:454:N:4046, V-A:ILE:369:CG2:3233, V-A:GLY:454:CA:4045, V-A:GLY:453:C:4038, V-A:GLY:453:CA:4040, V-A:ASP:366:CA:3206, V-B:ILE:538:CD1:9834"]

$$$$
4bh_Grossjean_2025
     RDKit          3D

 31 33  0  0  0  0  0  0  0  0999 V2000
  129.4400  124.3930   66.4190 C   0  0  0  0  0  0  0  0  0  0  0  0
  129.5470  124.7680   65.0500 O   0  0  0  0  0  0  0  0  0  0  0  0
  130.7070  124.4810   64.3550 C   0  0  0  0  0  0  0  0  0  0  0  0
  130.7460  123.7280   63.1710 C   0  0  0  0  0  0  0  0  0  0  0  0
  131.9550  123.4750   62.5220 C   0  0  0  0  0  0  0  0  0  0  0  0
  131.9720  122.6940   61.2140 C   0  0  0  0  0  0  0  0  0  0  0  0
  130.7370  122.8240   60.4400 N   0  0  0  0  0  0  0  0  0  0  0  0
  129.5460  122.2840   60.7710 C   0  0  0  0  0  0  0  0  0  0  0  0
  129.3940  121.5760   61.7690 O   0  0  0  0  0  0  0  0  0  0  0  0
  128.4410  122.5490   59.8500 C   0  0  0  0  0  0  0  0  0  0  0  0
  128.5940  122.1290   58.1460 S   0  0  0  0  0  0  0  0  0  0  0  0
  127.0030  122.7690   57.8020 C   0  0  0  0  0  0  0  0  0  0  0  0
  126.4930  122.7370   56.5720 N   0  0  0  0  0  0  0  0  0  0  0  0
  125.2530  123.2590   56.4300 C   0  0  0  0  0  0  0  0  0  0  0  0
  124.6920  123.2150   55.0190 C   0  0  0  0  0  0  0  0  0  0  0  0
  124.5170  123.8050   57.4780 C   0  0  0  0  0  0  0  0  0  0  0  0
  125.0500  123.8430   58.7760 C   0  0  0  0  0  0  0  0  0  0  0  0
  124.2020  124.4510   59.8980 C   0  0  0  0  0  0  0  0  0  0  0  0
  123.8930  123.5730   60.8550 F   0  0  0  0  0  0  0  0  0  0  0  0
  124.8670  125.4510   60.4750 F   0  0  0  0  0  0  0  0  0  0  0  0
  123.0570  124.9150   59.3970 F   0  0  0  0  0  0  0  0  0  0  0  0
  126.3570  123.3030   58.9600 C   0  0  0  0  0  0  0  0  0  0  0  0
  127.2120  123.1740   60.1140 C   0  0  0  0  0  0  0  0  0  0  0  0
  126.8500  123.6180   61.3600 N   0  0  0  0  0  0  0  0  0  0  0  0
  133.1380  124.0020   63.0440 C   0  0  0  0  0  0  0  0  0  0  0  0
  133.1310  124.7520   64.2300 C   0  0  0  0  0  0  0  0  0  0  0  0
  134.2650  125.2910   64.8100 O   0  0  0  0  0  0  0  0  0  0  0  0
  134.6230  124.9050   66.1330 C   0  0  0  0  0  0  0  0  0  0  0  0
  131.9090  124.9790   64.8790 C   0  0  0  0  0  0  0  0  0  0  0  0
  131.8850  125.7280   66.0320 O   0  0  0  0  0  0  0  0  0  0  0  0
  131.1850  126.9580   65.9070 C   0  0  0  0  0  0  0  0  0  0  0  0
  1  2  1  0
  2  3  1  0
  3  4  2  0
  4  5  1  0
  5  6  1  0
  6  7  1  0
  7  8  1  0
  8  9  2  0
  8 10  1  0
 10 11  1  0
 11 12  1  0
 12 13  2  0
 13 14  1  0
 14 15  1  0
 14 16  2  0
 16 17  1  0
 17 18  1  0
 18 19  1  0
 18 20  1  0
 18 21  1  0
 17 22  2  0
 22 23  1  0
 23 24  1  0
  5 25  2  0
 25 26  1  0
 26 27  1  0
 27 28  1  0
 26 29  2  0
 29 30  1  0
 30 31  1  0
 29  3  1  0
 23 10  2  0
 22 12  1  0
M  END
>  <Binding energies>  (51) 
[-6.62]

>  <Ligand effiencies>  (51) 
[-0.19470588235294117]

>  <Interactions>  (51) 
["V-A:GLU:543:CD:4905, V-A:HIS:456:CE1:4066, V-B:GLU:543:CB:9875, V-B:ASP:366:CB:8180, V-B:ASN:362:CB:8144, V-B:TYR:539:CE1:9844, V-B:PRO:540:CA:9852, V-B:TYR:539:CZ:9846, V-B:ASN:362:C:8140, V-B:PRO:540:N:9853, V-B:PRO:540:CB:9854, V-B:ASP:366:CG:8181, V-B:LEU:363:CD1:8157, V-B:LEU:363:CA:8153, V-B:ALA:541:CB:9861, H-B:GLU:543:OE2:9879, H-B:TYR:539:OH:9847, V-B:GLU:543:CD:9877, V-B:GLU:543:CG:9876, V-A:ARG:545:CZ:4923, V-A:TYR:484:CZ:4343, V-A:ARG:545:CD:4920, H-A:ARG:545:NH2:4925, V-B:TYR:539:CE2:9845, H-A:ARG:545:NE:4921, V-A:ARG:545:CG:4919, V-A:TYR:484:CE1:4341, V-B:GLU:543:CA:9873, V-B:ILE:538:CG2:9832, V-B:ILE:538:CB:9831, V-B:TYR:539:C:9836, V-B:TYR:539:CD2:9843, V-B:TYR:539:CD1:9842, V-B:TYR:539:CG:9841, V-B:LEU:363:CB:8155, H-A:GLY:454:N:4046, H-A:ARG:545:NH1:4924, V-A:GLY:454:CA:4045, V-A:GLY:453:C:4038, V-A:GLY:453:CA:4040, H-A:TYR:484:OH:4344, V-A:GLY:454:C:4043"]

$$$$
4bi_Grossjean_2025
     RDKit          3D

 23 25  0  0  0  0  0  0  0  0999 V2000
  133.5010  125.0870   65.2990 C   0  0  0  0  0  0  0  0  0  0  0  0
  132.7850  124.6720   64.0270 C   0  0  0  0  0  0  0  0  0  0  0  0
  133.4960  124.3890   62.8630 C   0  0  0  0  0  0  0  0  0  0  0  0
  132.8210  124.0010   61.6940 C   0  0  0  0  0  0  0  0  0  0  0  0
  133.6460  123.6920   60.4410 C   0  0  0  0  0  0  0  0  0  0  0  0
  134.9440  123.9650   60.5900 F   0  0  0  0  0  0  0  0  0  0  0  0
  133.5440  122.3980   60.1410 F   0  0  0  0  0  0  0  0  0  0  0  0
  133.2010  124.4190   59.4160 F   0  0  0  0  0  0  0  0  0  0  0  0
  131.3980  123.9200   61.7590 C   0  0  0  0  0  0  0  0  0  0  0  0
  130.3900  123.5710   60.7890 C   0  0  0  0  0  0  0  0  0  0  0  0
  130.6920  123.2310   59.4950 N   0  0  0  0  0  0  0  0  0  0  0  0
  129.0770  123.6050   61.2870 C   0  0  0  0  0  0  0  0  0  0  0  0
  127.8240  123.3240   60.5800 C   0  0  0  0  0  0  0  0  0  0  0  0
  127.8310  122.7420   59.4940 O   0  0  0  0  0  0  0  0  0  0  0  0
  126.6950  123.7290   61.2130 N   0  0  0  0  0  0  0  0  0  0  0  0
  125.3830  123.5810   60.7810 C   0  0  0  0  0  0  0  0  0  0  0  0
  124.8930  124.1750   59.6200 C   0  0  0  0  0  0  0  0  0  0  0  0
  123.5730  123.7900   59.5490 C   0  0  0  0  0  0  0  0  0  0  0  0
  123.2850  123.0030   60.6140 O   0  0  0  0  0  0  0  0  0  0  0  0
  124.4410  122.8790   61.3880 N   0  0  0  0  0  0  0  0  0  0  0  0
  129.0500  124.0970   62.9790 S   0  0  0  0  0  0  0  0  0  0  0  0
  130.7910  124.2370   63.0140 C   0  0  0  0  0  0  0  0  0  0  0  0
  131.4370  124.6020   64.1210 N   0  0  0  0  0  0  0  0  0  0  0  0
  1  2  1  0
  2  3  2  0
  3  4  1  0
  4  5  1  0
  5  6  1  0
  5  7  1  0
  5  8  1  0
  4  9  2  0
  9 10  1  0
 10 11  1  0
 10 12  2  0
 12 13  1  0
 13 14  2  0
 13 15  1  0
 15 16  1  0
 16 17  1  0
 17 18  2  0
 18 19  1  0
 19 20  1  0
 12 21  1  0
 21 22  1  0
 22 23  2  0
 23  2  1  0
 22  9  1  0
 20 16  2  0
M  END
>  <Binding energies>  (52) 
[-6.48]

>  <Ligand effiencies>  (52) 
[-0.24923076923076926]

>  <Interactions>  (52) 
["V-A:ASP:366:CB:3208, V-A:ASP:366:CG:3209, V-A:HIS:456:CE1:4066, V-B:PRO:540:CA:9852, V-B:TYR:539:CZ:9846, V-B:ASN:362:C:8140, V-B:PRO:540:CB:9854, V-B:LEU:363:CD1:8157, V-B:LEU:363:CA:8153, V-B:ALA:541:CB:9861, H-B:GLU:543:OE2:9879, H-B:TYR:539:OH:9847, V-B:GLU:543:CD:9877, V-B:GLU:543:CG:9876, V-A:ARG:545:CZ:4923, V-A:ARG:545:CD:4920, V-B:TYR:539:CE2:9845, H-B:ALA:541:N:9860, V-A:ILE:369:CG1:3234, V-A:ILE:369:CB:3232, V-B:TYR:539:CD2:9843, H-B:LEU:363:N:8154, V-B:LEU:363:CB:8155, V-A:ILE:369:CG2:3233, V-A:GLY:454:CA:4045, H-A:TYR:484:OH:4344, V-A:ASP:366:CA:3206"]

$$$$
4bj_Grossjean_2025
     RDKit          3D

 23 25  0  0  0  0  0  0  0  0999 V2000
  133.6120  125.1250   65.2990 C   0  0  0  0  0  0  0  0  0  0  0  0
  132.9040  124.7010   64.0260 C   0  0  0  0  0  0  0  0  0  0  0  0
  133.6240  124.3770   62.8790 C   0  0  0  0  0  0  0  0  0  0  0  0
  132.9560  123.9920   61.7050 C   0  0  0  0  0  0  0  0  0  0  0  0
  133.7910  123.6470   60.4670 C   0  0  0  0  0  0  0  0  0  0  0  0
  133.4430  124.3550   59.3900 F   0  0  0  0  0  0  0  0  0  0  0  0
  135.0780  123.8940   60.7080 F   0  0  0  0  0  0  0  0  0  0  0  0
  133.6380  122.3580   60.1650 F   0  0  0  0  0  0  0  0  0  0  0  0
  131.5310  123.9480   61.7510 C   0  0  0  0  0  0  0  0  0  0  0  0
  130.5270  123.6130   60.7700 C   0  0  0  0  0  0  0  0  0  0  0  0
  130.8400  123.2440   59.4860 N   0  0  0  0  0  0  0  0  0  0  0  0
  129.2100  123.6910   61.2480 C   0  0  0  0  0  0  0  0  0  0  0  0
  127.9610  123.4310   60.5280 C   0  0  0  0  0  0  0  0  0  0  0  0
  127.9710  122.8830   59.4230 O   0  0  0  0  0  0  0  0  0  0  0  0
  126.8290  123.8180   61.1660 N   0  0  0  0  0  0  0  0  0  0  0  0
  125.5250  123.6780   60.7110 C   0  0  0  0  0  0  0  0  0  0  0  0
  124.4960  123.1660   61.3510 N   0  0  0  0  0  0  0  0  0  0  0  0
  123.4030  123.1970   60.6150 C   0  0  0  0  0  0  0  0  0  0  0  0
  123.5330  123.7450   59.3430 C   0  0  0  0  0  0  0  0  0  0  0  0
  125.1820  124.2400   59.1060 S   0  0  0  0  0  0  0  0  0  0  0  0
  129.1710  124.2070   62.9320 S   0  0  0  0  0  0  0  0  0  0  0  0
  130.9150  124.3000   62.9910 C   0  0  0  0  0  0  0  0  0  0  0  0
  131.5540  124.6680   64.1010 N   0  0  0  0  0  0  0  0  0  0  0  0
  1  2  1  0
  2  3  2  0
  3  4  1  0
  4  5  1  0
  5  6  1  0
  5  7  1  0
  5  8  1  0
  4  9  2  0
  9 10  1  0
 10 11  1  0
 10 12  2  0
 12 13  1  0
 13 14  2  0
 13 15  1  0
 15 16  1  0
 16 17  2  0
 17 18  1  0
 18 19  2  0
 19 20  1  0
 12 21  1  0
 21 22  1  0
 22 23  2  0
 23  2  1  0
 22  9  1  0
 20 16  1  0
M  END
>  <Binding energies>  (53) 
[-6.31]

>  <Ligand effiencies>  (53) 
[-0.24269230769230768]

>  <Interactions>  (53) 
["V-A:ASP:366:CB:3208, V-A:ASP:366:CG:3209, V-A:HIS:456:CE1:4066, V-B:ASN:362:CB:8144, V-B:PRO:540:CA:9852, V-B:TYR:539:CZ:9846, V-B:ASN:362:C:8140, V-B:PRO:540:CB:9854, V-B:LEU:363:CD1:8157, V-B:LEU:363:CA:8153, V-B:ALA:541:CB:9861, H-B:GLU:543:OE2:9879, H-B:TYR:539:OH:9847, V-B:GLU:543:CD:9877, V-B:GLU:543:CG:9876, V-A:ARG:545:CZ:4923, V-A:ARG:545:CD:4920, V-B:TYR:539:CE2:9845, H-B:ALA:541:N:9860, V-A:ILE:369:CG1:3234, V-A:ILE:369:CB:3232, V-B:TYR:539:CD2:9843, V-B:LEU:363:CB:8155, V-A:ILE:369:CG2:3233, V-A:GLY:454:CA:4045, V-A:GLY:453:CA:4040, H-A:TYR:484:OH:4344, V-A:ASP:366:CA:3206, V-B:ASN:362:CA:8142"]

$$$$
4bk_Grossjean_2025
     RDKit          3D

 28 29  0  0  0  0  0  0  0  0999 V2000
  127.8900  122.5190   56.5130 C   0  0  0  0  0  0  0  0  0  0  0  0
  126.6430  121.9370   56.1640 O   0  0  0  0  0  0  0  0  0  0  0  0
  125.6350  122.8950   55.8700 C   0  0  0  0  0  0  0  0  0  0  0  0
  124.9140  123.2930   57.1640 C   0  0  0  0  0  0  0  0  0  0  0  0
  124.6940  124.6970   57.1700 O   0  0  0  0  0  0  0  0  0  0  0  0
  125.7470  125.4410   57.7690 C   0  0  0  0  0  0  0  0  0  0  0  0
  125.3410  125.8430   59.1930 C   0  0  0  0  0  0  0  0  0  0  0  0
  124.0750  125.2760   59.4980 O   0  0  0  0  0  0  0  0  0  0  0  0
  124.0930  124.3990   60.6190 C   0  0  0  0  0  0  0  0  0  0  0  0
  125.1100  123.2730   60.3690 C   0  0  0  0  0  0  0  0  0  0  0  0
  126.4330  123.5390   60.9370 N   0  0  0  0  0  0  0  0  0  0  0  0
  127.5980  123.0560   60.4580 C   0  0  0  0  0  0  0  0  0  0  0  0
  127.6550  122.3420   59.4560 O   0  0  0  0  0  0  0  0  0  0  0  0
  128.8040  123.4390   61.1950 C   0  0  0  0  0  0  0  0  0  0  0  0
  128.6870  123.9570   62.8740 S   0  0  0  0  0  0  0  0  0  0  0  0
  130.4180  124.1710   62.9740 C   0  0  0  0  0  0  0  0  0  0  0  0
  131.0040  124.5890   64.0960 N   0  0  0  0  0  0  0  0  0  0  0  0
  132.3510  124.7160   64.0520 C   0  0  0  0  0  0  0  0  0  0  0  0
  132.9960  125.1910   65.3420 C   0  0  0  0  0  0  0  0  0  0  0  0
  133.1180  124.4360   62.9250 C   0  0  0  0  0  0  0  0  0  0  0  0
  132.5080  123.9970   61.7390 C   0  0  0  0  0  0  0  0  0  0  0  0
  133.3940  123.7060   60.5240 C   0  0  0  0  0  0  0  0  0  0  0  0
  133.3290  122.4350   60.1230 F   0  0  0  0  0  0  0  0  0  0  0  0
  133.0160  124.4690   59.4980 F   0  0  0  0  0  0  0  0  0  0  0  0
  134.6660  123.9670   60.8200 F   0  0  0  0  0  0  0  0  0  0  0  0
  131.0880  123.8520   61.7520 C   0  0  0  0  0  0  0  0  0  0  0  0
  130.1360  123.4320   60.7540 C   0  0  0  0  0  0  0  0  0  0  0  0
  130.5050  123.0610   59.4860 N   0  0  0  0  0  0  0  0  0  0  0  0
  1  2  1  0
  2  3  1  0
  3  4  1  0
  4  5  1  0
  5  6  1  0
  6  7  1  0
  7  8  1  0
  8  9  1  0
  9 10  1  0
 10 11  1  0
 11 12  1  0
 12 13  2  0
 12 14  1  0
 14 15  1  0
 15 16  1  0
 16 17  2  0
 17 18  1  0
 18 19  1  0
 18 20  2  0
 20 21  1  0
 21 22  1  0
 22 23  1  0
 22 24  1  0
 22 25  1  0
 21 26  2  0
 26 27  1  0
 27 28  1  0
 27 14  2  0
 26 16  1  0
M  END
>  <Binding energies>  (54) 
[-5.74]

>  <Ligand effiencies>  (54) 
[-0.18516129032258066]

>  <Interactions>  (54) 
["V-A:ASP:366:CB:3208, V-A:ASP:366:CG:3209, V-A:HIS:456:CE1:4066, V-B:ASP:366:CB:8180, V-B:ASN:362:CB:8144, V-B:TYR:539:CE1:9844, V-B:PRO:540:CA:9852, V-B:TYR:539:CZ:9846, V-B:ASN:362:C:8140, V-B:PRO:540:C:9850, V-B:PRO:540:CB:9854, V-B:ASP:366:CG:8181, H-B:TYR:539:N:9839, V-B:LEU:363:CD1:8157, H-B:TYR:531:OH:9764, V-B:ALA:541:CB:9861, H-B:GLU:543:OE2:9879, H-B:TYR:539:OH:9847, V-B:GLU:543:CD:9877, V-B:GLU:543:CG:9876, V-A:ARG:545:CZ:4923, V-B:TYR:539:CE2:9845, V-B:ILE:538:CG2:9832, V-B:ILE:538:CB:9831, V-A:ILE:369:CG1:3234, V-A:ILE:369:CB:3232, V-B:TYR:539:CD2:9843, V-B:TYR:539:CD1:9842, V-A:ILE:369:CG2:3233, V-A:ASP:366:CA:3206"]

$$$$
4cd_Grossjean_2025
     RDKit          3D

 29 32  0  0  0  0  0  0  0  0999 V2000
  130.9990  122.3040   64.1030 N   0  0  0  0  0  0  0  0  0  0  0  0
  130.2350  123.2050   63.4040 C   0  0  0  0  0  0  0  0  0  0  0  0
  130.0130  124.5230   63.8350 C   0  0  0  0  0  0  0  0  0  0  0  0
  130.4990  125.1800   65.0520 C   0  0  0  0  0  0  0  0  0  0  0  0
  131.6880  125.1220   65.3660 O   0  0  0  0  0  0  0  0  0  0  0  0
  129.5570  125.8390   65.7700 N   0  0  0  0  0  0  0  0  0  0  0  0
  129.6780  126.5210   66.9960 C   0  0  0  0  0  0  0  0  0  0  0  0
  128.7730  126.1500   67.9940 C   0  0  0  0  0  0  0  0  0  0  0  0
  128.8220  126.7570   69.2460 C   0  0  0  0  0  0  0  0  0  0  0  0
  129.7820  127.7320   69.5040 C   0  0  0  0  0  0  0  0  0  0  0  0
  130.6980  128.1010   68.5230 C   0  0  0  0  0  0  0  0  0  0  0  0
  130.6530  127.4960   67.2690 C   0  0  0  0  0  0  0  0  0  0  0  0
  128.9980  125.4020   62.6940 S   0  0  0  0  0  0  0  0  0  0  0  0
  128.8710  124.0010   61.6580 C   0  0  0  0  0  0  0  0  0  0  0  0
  128.1650  124.0320   60.5290 N   0  0  0  0  0  0  0  0  0  0  0  0
  128.1140  122.8890   59.7970 C   0  0  0  0  0  0  0  0  0  0  0  0
  127.3080  122.9550   58.5320 C   0  0  0  0  0  0  0  0  0  0  0  0
  127.8250  122.4590   57.3240 C   0  0  0  0  0  0  0  0  0  0  0  0
  127.0830  122.5160   56.1470 C   0  0  0  0  0  0  0  0  0  0  0  0
  125.8080  123.0720   56.1620 C   0  0  0  0  0  0  0  0  0  0  0  0
  125.2710  123.5670   57.3450 C   0  0  0  0  0  0  0  0  0  0  0  0
  126.0150  123.5060   58.5190 C   0  0  0  0  0  0  0  0  0  0  0  0
  128.7860  121.7280   60.1890 C   0  0  0  0  0  0  0  0  0  0  0  0
  129.5370  121.6860   61.3750 C   0  0  0  0  0  0  0  0  0  0  0  0
  130.2460  120.3780   61.7480 C   0  0  0  0  0  0  0  0  0  0  0  0
  130.1030  120.0530   63.0350 F   0  0  0  0  0  0  0  0  0  0  0  0
  129.7520  119.3740   61.0240 F   0  0  0  0  0  0  0  0  0  0  0  0
  131.5530  120.4910   61.5090 F   0  0  0  0  0  0  0  0  0  0  0  0
  129.5880  122.8740   62.1580 C   0  0  0  0  0  0  0  0  0  0  0  0
  1  2  1  0
  2  3  2  0
  3  4  1  0
  4  5  2  0
  4  6  1  0
  6  7  1  0
  7  8  2  0
  8  9  1  0
  9 10  2  0
 10 11  1  0
 11 12  2  0
  3 13  1  0
 13 14  1  0
 14 15  2  0
 15 16  1  0
 16 17  1  0
 17 18  2  0
 18 19  1  0
 19 20  2  0
 20 21  1  0
 21 22  2  0
 16 23  2  0
 23 24  1  0
 24 25  1  0
 25 26  1  0
 25 27  1  0
 25 28  1  0
 24 29  2  0
 29  2  1  0
 12  7  1  0
 29 14  1  0
 22 17  1  0
M  END
>  <Binding energies>  (55) 
[-7.77]

>  <Ligand effiencies>  (55) 
[-0.2428125]

>  <Interactions>  (55) 
["V-A:GLU:543:CD:4905, V-A:HIS:456:CE1:4066, V-A:GLU:543:C:4899, V-A:GLU:543:CB:4903, V-B:GLU:543:CB:9875, V-B:HIS:456:CE1:9038, V-B:TYR:539:CE1:9844, V-B:PRO:540:CA:9852, V-B:TYR:539:CZ:9846, V-B:PRO:540:N:9853, V-B:PRO:540:CB:9854, V-B:LEU:363:CD1:8157, V-B:ALA:541:CB:9861, H-B:GLU:543:OE2:9879, H-B:GLU:543:OE1:9878, V-B:GLU:543:CD:9877, V-B:GLU:543:CG:9876, V-A:TYR:484:CZ:4343, V-B:TYR:539:CE2:9845, V-A:TYR:484:CE1:4341, V-B:ILE:538:CG2:9832, V-B:ILE:538:CB:9831, V-A:LEU:475:CD1:4254, V-B:TYR:539:C:9836, V-B:TYR:539:CD2:9843, V-B:ILE:538:CA:9829, V-B:TYR:539:CD1:9842, V-B:TYR:539:CG:9841, H-A:TYR:484:OH:4344, V-A:PRO:482:CG:4323, V-A:LEU:475:CD2:4255, V-A:LEU:475:CG:4253, V-A:PRO:482:CB:4322"]

$$$$
4cg_Grossjean_2025
     RDKit          3D

 30 33  0  0  0  0  0  0  0  0999 V2000
  131.1920  122.5290   63.9810 N   0  0  0  0  0  0  0  0  0  0  0  0
  130.3670  123.4010   63.3160 C   0  0  0  0  0  0  0  0  0  0  0  0
  130.1520  124.7220   63.7320 C   0  0  0  0  0  0  0  0  0  0  0  0
  130.7540  125.4330   64.8590 C   0  0  0  0  0  0  0  0  0  0  0  0
  131.8810  125.1490   65.2700 O   0  0  0  0  0  0  0  0  0  0  0  0
  129.9870  126.3810   65.4390 N   0  0  0  0  0  0  0  0  0  0  0  0
  130.3900  127.2280   66.5600 C   0  0  0  0  0  0  0  0  0  0  0  0
  129.5520  127.0120   67.8150 C   0  0  0  0  0  0  0  0  0  0  0  0
  130.0250  127.4600   69.0520 C   0  0  0  0  0  0  0  0  0  0  0  0
  129.2490  127.2920   70.1960 C   0  0  0  0  0  0  0  0  0  0  0  0
  127.9980  126.6870   70.0970 C   0  0  0  0  0  0  0  0  0  0  0  0
  127.5140  126.2530   68.8650 C   0  0  0  0  0  0  0  0  0  0  0  0
  128.2890  126.4220   67.7210 C   0  0  0  0  0  0  0  0  0  0  0  0
  129.0560  125.5680   62.6430 S   0  0  0  0  0  0  0  0  0  0  0  0
  128.8760  124.1400   61.6500 C   0  0  0  0  0  0  0  0  0  0  0  0
  128.0980  124.1390   60.5710 N   0  0  0  0  0  0  0  0  0  0  0  0
  128.0240  122.9850   59.8580 C   0  0  0  0  0  0  0  0  0  0  0  0
  127.1370  123.0160   58.6460 C   0  0  0  0  0  0  0  0  0  0  0  0
  125.8730  123.6270   58.6930 C   0  0  0  0  0  0  0  0  0  0  0  0
  125.0470  123.6580   57.5730 C   0  0  0  0  0  0  0  0  0  0  0  0
  125.4730  123.0730   56.3840 C   0  0  0  0  0  0  0  0  0  0  0  0
  126.7180  122.4580   56.3110 C   0  0  0  0  0  0  0  0  0  0  0  0
  127.5410  122.4300   57.4330 C   0  0  0  0  0  0  0  0  0  0  0  0
  128.7160  121.8320   60.2460 C   0  0  0  0  0  0  0  0  0  0  0  0
  129.5380  121.8220   61.3830 C   0  0  0  0  0  0  0  0  0  0  0  0
  130.2670  120.5240   61.7510 C   0  0  0  0  0  0  0  0  0  0  0  0
  131.5780  120.5730   61.5040 F   0  0  0  0  0  0  0  0  0  0  0  0
  130.1140  120.2750   63.0520 F   0  0  0  0  0  0  0  0  0  0  0  0
  129.7660  119.5110   61.0470 F   0  0  0  0  0  0  0  0  0  0  0  0
  129.6350  123.0320   62.1290 C   0  0  0  0  0  0  0  0  0  0  0  0
  1  2  1  0
  2  3  2  0
  3  4  1  0
  4  5  2  0
  4  6  1  0
  6  7  1  0
  7  8  1  0
  8  9  2  0
  9 10  1  0
 10 11  2  0
 11 12  1  0
 12 13  2  0
  3 14  1  0
 14 15  1  0
 15 16  2  0
 16 17  1  0
 17 18  1  0
 18 19  2  0
 19 20  1  0
 20 21  2  0
 21 22  1  0
 22 23  2  0
 17 24  2  0
 24 25  1  0
 25 26  1  0
 26 27  1  0
 26 28  1  0
 26 29  1  0
 25 30  2  0
 30  2  1  0
 13  8  1  0
 30 15  1  0
 23 18  1  0
M  END
>  <Binding energies>  (56) 
[-7.72]

>  <Ligand effiencies>  (56) 
[-0.23393939393939392]

>  <Interactions>  (56) 
["V-A:GLU:543:CD:4905, V-B:GLU:543:C:9871, V-A:HIS:456:CE1:4066, V-A:GLU:543:CB:4903, V-B:GLU:543:CB:9875, V-B:HIS:456:CE1:9038, V-B:GLY:544:C:9881, V-B:HIS:456:CD2:9036, V-B:TYR:539:CE1:9844, V-B:PRO:540:CA:9852, V-B:PRO:540:N:9853, V-B:PRO:540:CB:9854, V-B:LEU:363:CD1:8157, V-B:ALA:541:CB:9861, H-B:GLU:543:OE1:9878, V-B:GLU:543:CD:9877, V-B:TYR:539:CE2:9845, V-B:ILE:538:CB:9831, V-A:LEU:475:CD1:4254, V-B:PRO:540:CD:9856, V-B:TYR:539:C:9836, V-B:TYR:539:CD2:9843, V-B:TYR:539:CD1:9842, V-B:TYR:539:CG:9841, H-A:TYR:484:OH:4344, V-A:PRO:482:CG:4323, V-A:LEU:475:CD2:4255, V-A:LEU:475:CG:4253, V-A:PRO:482:CB:4322"]

$$$$
4ch_Grossjean_2025
     RDKit          3D

 36 39  0  0  0  0  0  0  0  0999 V2000
  124.2510  123.9750   60.8730 C   0  0  0  0  0  0  0  0  0  0  0  0
  124.7160  124.0040   59.5280 O   0  0  0  0  0  0  0  0  0  0  0  0
  125.9080  123.3810   59.2090 C   0  0  0  0  0  0  0  0  0  0  0  0
  126.9810  123.2360   60.1040 C   0  0  0  0  0  0  0  0  0  0  0  0
  128.1570  122.5930   59.7130 C   0  0  0  0  0  0  0  0  0  0  0  0
  129.3210  122.4710   60.6900 C   0  0  0  0  0  0  0  0  0  0  0  0
  129.2000  123.3150   61.8780 N   0  0  0  0  0  0  0  0  0  0  0  0
  130.1450  124.1600   62.3400 C   0  0  0  0  0  0  0  0  0  0  0  0
  131.2250  124.3240   61.7680 O   0  0  0  0  0  0  0  0  0  0  0  0
  129.8010  124.9080   63.5500 C   0  0  0  0  0  0  0  0  0  0  0  0
  130.2860  124.3010   65.1300 S   0  0  0  0  0  0  0  0  0  0  0  0
  129.5710  125.6800   65.9280 C   0  0  0  0  0  0  0  0  0  0  0  0
  129.6030  125.8110   67.2520 N   0  0  0  0  0  0  0  0  0  0  0  0
  129.0260  126.9210   67.7820 C   0  0  0  0  0  0  0  0  0  0  0  0
  129.0740  127.0360   69.2790 C   0  0  0  0  0  0  0  0  0  0  0  0
  130.1190  127.7270   69.9140 C   0  0  0  0  0  0  0  0  0  0  0  0
  130.1700  127.8360   71.3010 C   0  0  0  0  0  0  0  0  0  0  0  0
  129.1750  127.2520   72.0760 C   0  0  0  0  0  0  0  0  0  0  0  0
  128.1300  126.5580   71.4740 C   0  0  0  0  0  0  0  0  0  0  0  0
  128.0840  126.4500   70.0860 C   0  0  0  0  0  0  0  0  0  0  0  0
  128.4040  127.8840   66.9820 C   0  0  0  0  0  0  0  0  0  0  0  0
  128.3620  127.7560   65.5840 C   0  0  0  0  0  0  0  0  0  0  0  0
  127.6640  128.8480   64.7660 C   0  0  0  0  0  0  0  0  0  0  0  0
  128.2580  129.0850   63.5940 F   0  0  0  0  0  0  0  0  0  0  0  0
  126.4070  128.4880   64.5110 F   0  0  0  0  0  0  0  0  0  0  0  0
  127.6630  129.9920   65.4500 F   0  0  0  0  0  0  0  0  0  0  0  0
  128.9760  126.6020   65.0170 C   0  0  0  0  0  0  0  0  0  0  0  0
  129.1340  126.1380   63.6600 C   0  0  0  0  0  0  0  0  0  0  0  0
  128.6640  126.8360   62.5760 N   0  0  0  0  0  0  0  0  0  0  0  0
  128.2740  122.1020   58.4130 C   0  0  0  0  0  0  0  0  0  0  0  0
  127.2170  122.2340   57.4960 C   0  0  0  0  0  0  0  0  0  0  0  0
  127.2640  121.7710   56.1940 O   0  0  0  0  0  0  0  0  0  0  0  0
  127.8880  122.5650   55.1910 C   0  0  0  0  0  0  0  0  0  0  0  0
  126.0380  122.8700   57.9100 C   0  0  0  0  0  0  0  0  0  0  0  0
  125.0020  123.0180   57.0190 O   0  0  0  0  0  0  0  0  0  0  0  0
  124.8810  124.3310   56.4870 C   0  0  0  0  0  0  0  0  0  0  0  0
  1  2  1  0
  2  3  1  0
  3  4  2  0
  4  5  1  0
  5  6  1  0
  6  7  1  0
  7  8  1  0
  8  9  2  0
  8 10  1  0
 10 11  1  0
 11 12  1  0
 12 13  2  0
 13 14  1  0
 14 15  1  0
 15 16  2  0
 16 17  1  0
 17 18  2  0
 18 19  1  0
 19 20  2  0
 14 21  2  0
 21 22  1  0
 22 23  1  0
 23 24  1  0
 23 25  1  0
 23 26  1  0
 22 27  2  0
 27 28  1  0
 28 29  1  0
  5 30  2  0
 30 31  1  0
 31 32  1  0
 32 33  1  0
 31 34  2  0
 34 35  1  0
 35 36  1  0
 34  3  1  0
 28 10  2  0
 27 12  1  0
 20 15  1  0
M  END
>  <Binding energies>  (57) 
[-8.08]

>  <Ligand effiencies>  (57) 
[-0.20717948717948717]

>  <Interactions>  (57) 
["H-A:GLU:543:OE2:4907, V-A:GLU:543:CD:4905, V-B:LYS:547:CE:9919, V-A:HIS:456:CE1:4066, V-B:GLU:543:CB:9875, V-B:HIS:456:CE1:9038, V-B:GLY:544:C:9881, V-B:HIS:456:CD2:9036, V-B:ASN:362:CB:8144, V-B:TYR:539:CE1:9844, V-B:MET:535:CE:9804, V-B:PRO:540:CA:9852, V-B:TYR:539:CZ:9846, V-B:TYR:531:CE2:9762, V-B:ASN:362:C:8140, V-B:PRO:540:N:9853, V-B:PRO:540:CB:9854, H-B:TYR:539:N:9839, V-B:LEU:363:CD1:8157, V-B:ALA:541:CB:9861, H-B:GLU:543:OE2:9879, H-B:GLU:543:OE1:9878, V-B:GLU:543:CD:9877, V-B:GLU:543:CG:9876, V-A:TYR:484:CZ:4343, V-B:TYR:539:CE2:9845, V-A:TYR:484:CE1:4341, V-A:GLU:543:CG:4904, V-B:ILE:538:CG2:9832, V-B:ILE:538:CB:9831, V-B:PRO:540:CD:9856, V-B:TYR:539:C:9836, V-B:TYR:539:CD2:9843, V-B:ILE:538:CA:9829, V-B:TYR:539:CD1:9842, V-B:TYR:539:CG:9841, V-B:ARG:545:CZ:9895"]

$$$$
4cj_Grossjean_2025
     RDKit          3D

 28 31  0  0  0  0  0  0  0  0999 V2000
  131.1700  124.7500   66.2490 N   0  0  0  0  0  0  0  0  0  0  0  0
  130.7840  125.5770   65.2250 C   0  0  0  0  0  0  0  0  0  0  0  0
  131.3790  125.5540   63.9530 C   0  0  0  0  0  0  0  0  0  0  0  0
  132.4620  124.6960   63.4660 C   0  0  0  0  0  0  0  0  0  0  0  0
  133.6340  124.9220   63.7770 O   0  0  0  0  0  0  0  0  0  0  0  0
  132.0780  123.6740   62.6620 N   0  0  0  0  0  0  0  0  0  0  0  0
  132.9000  122.7230   62.0720 C   0  0  0  0  0  0  0  0  0  0  0  0
  134.2120  122.7440   61.9680 N   0  0  0  0  0  0  0  0  0  0  0  0
  134.6660  121.6730   61.3490 C   0  0  0  0  0  0  0  0  0  0  0  0
  133.7100  120.7490   60.9350 C   0  0  0  0  0  0  0  0  0  0  0  0
  132.1330  121.3260   61.3880 S   0  0  0  0  0  0  0  0  0  0  0  0
  130.6320  126.7360   62.8800 S   0  0  0  0  0  0  0  0  0  0  0  0
  129.5360  127.2520   64.1390 C   0  0  0  0  0  0  0  0  0  0  0  0
  128.6340  128.2070   63.9250 N   0  0  0  0  0  0  0  0  0  0  0  0
  127.8190  128.5360   64.9610 C   0  0  0  0  0  0  0  0  0  0  0  0
  126.8040  129.6080   64.6820 C   0  0  0  0  0  0  0  0  0  0  0  0
  127.1910  130.9530   64.5720 C   0  0  0  0  0  0  0  0  0  0  0  0
  126.2550  131.9520   64.3190 C   0  0  0  0  0  0  0  0  0  0  0  0
  124.9110  131.6180   64.1760 C   0  0  0  0  0  0  0  0  0  0  0  0
  124.5010  130.2940   64.2830 C   0  0  0  0  0  0  0  0  0  0  0  0
  125.4410  129.2990   64.5340 C   0  0  0  0  0  0  0  0  0  0  0  0
  127.9310  127.9220   66.2130 C   0  0  0  0  0  0  0  0  0  0  0  0
  128.8800  126.9160   66.4500 C   0  0  0  0  0  0  0  0  0  0  0  0
  128.9470  126.2830   67.8450 C   0  0  0  0  0  0  0  0  0  0  0  0
  127.8740  126.5490   68.5930 F   0  0  0  0  0  0  0  0  0  0  0  0
  129.0380  124.9580   67.7330 F   0  0  0  0  0  0  0  0  0  0  0  0
  130.0140  126.7430   68.4990 F   0  0  0  0  0  0  0  0  0  0  0  0
  129.7270  126.5490   65.3640 C   0  0  0  0  0  0  0  0  0  0  0  0
  1  2  1  0
  2  3  2  0
  3  4  1  0
  4  5  2  0
  4  6  1  0
  6  7  1  0
  7  8  2  0
  8  9  1  0
  9 10  2  0
 10 11  1  0
  3 12  1  0
 12 13  1  0
 13 14  2  0
 14 15  1  0
 15 16  1  0
 16 17  2  0
 17 18  1  0
 18 19  2  0
 19 20  1  0
 20 21  2  0
 15 22  2  0
 22 23  1  0
 23 24  1  0
 24 25  1  0
 24 26  1  0
 24 27  1  0
 23 28  2  0
 28  2  1  0
 11  7  1  0
 28 13  1  0
 21 16  1  0
M  END
>  <Binding energies>  (58) 
[-7.04]

>  <Ligand effiencies>  (58) 
[-0.2270967741935484]

>  <Interactions>  (58) 
["V-A:GLU:543:CD:4905, V-B:GLU:543:C:9871, V-A:HIS:456:CE1:4066, V-B:GLU:543:CB:9875, V-B:HIS:456:CE1:9038, V-B:GLU:543:CD:9877, V-B:GLU:543:CG:9876, V-A:TYR:484:CZ:4343, H-A:ARG:545:NH2:4925, V-B:TYR:539:CE2:9845, V-A:TYR:484:CE1:4341, V-A:GLU:543:CG:4904, V-B:GLU:543:CA:9873, V-A:LEU:475:CD1:4254, V-A:ILE:369:CG1:3234, V-A:ILE:369:CB:3232, V-B:TYR:539:CD2:9843, H-A:GLY:454:N:4046, H-A:ARG:545:NH1:4924, V-A:ILE:369:CG2:3233, V-A:GLY:454:CA:4045, V-A:ILE:369:CD1:3235, V-B:ARG:545:CZ:9895, H-A:TYR:484:OH:4344, V-B:GLY:454:CA:9017, V-B:TYR:484:CZ:9315, H-A:HIS:456:NE2:4067"]

$$$$
4ck_Grossjean_2025
     RDKit          3D

 33 35  0  0  0  0  0  0  0  0999 V2000
  129.1610  132.4550   56.0250 C   0  0  0  0  0  0  0  0  0  0  0  0
  130.4700  132.9900   56.1420 O   0  0  0  0  0  0  0  0  0  0  0  0
  131.4910  132.0670   55.7910 C   0  0  0  0  0  0  0  0  0  0  0  0
  132.0900  131.4710   57.0710 C   0  0  0  0  0  0  0  0  0  0  0  0
  131.3390  131.9240   58.1890 O   0  0  0  0  0  0  0  0  0  0  0  0
  130.9630  130.8820   59.0800 C   0  0  0  0  0  0  0  0  0  0  0  0
  131.3880  131.2610   60.5040 C   0  0  0  0  0  0  0  0  0  0  0  0
  130.4220  132.1490   61.0490 O   0  0  0  0  0  0  0  0  0  0  0  0
  129.3040  132.3740   60.1990 C   0  0  0  0  0  0  0  0  0  0  0  0
  128.0090  132.0260   60.9490 C   0  0  0  0  0  0  0  0  0  0  0  0
  128.2490  131.1120   62.0660 N   0  0  0  0  0  0  0  0  0  0  0  0
  127.3830  130.1860   62.5280 C   0  0  0  0  0  0  0  0  0  0  0  0
  126.2780  129.9940   62.0180 O   0  0  0  0  0  0  0  0  0  0  0  0
  127.8390  129.4020   63.6770 C   0  0  0  0  0  0  0  0  0  0  0  0
  127.5500  129.9840   65.3150 S   0  0  0  0  0  0  0  0  0  0  0  0
  128.2860  128.5540   65.9990 C   0  0  0  0  0  0  0  0  0  0  0  0
  128.3800  128.3830   67.3150 N   0  0  0  0  0  0  0  0  0  0  0  0
  128.9700  127.2400   67.7530 C   0  0  0  0  0  0  0  0  0  0  0  0
  129.0440  127.0680   69.2430 C   0  0  0  0  0  0  0  0  0  0  0  0
  130.0420  127.7110   69.9930 C   0  0  0  0  0  0  0  0  0  0  0  0
  130.1170  127.5540   71.3750 C   0  0  0  0  0  0  0  0  0  0  0  0
  129.1910  126.7490   72.0290 C   0  0  0  0  0  0  0  0  0  0  0  0
  128.1880  126.1060   71.3120 C   0  0  0  0  0  0  0  0  0  0  0  0
  128.1160  126.2660   69.9300 C   0  0  0  0  0  0  0  0  0  0  0  0
  129.4550  126.2720   66.8680 C   0  0  0  0  0  0  0  0  0  0  0  0
  129.3620  126.4430   65.4780 C   0  0  0  0  0  0  0  0  0  0  0  0
  129.9180  125.3430   64.5640 C   0  0  0  0  0  0  0  0  0  0  0  0
  129.0630  124.9740   63.6090 F   0  0  0  0  0  0  0  0  0  0  0  0
  131.0260  125.7740   63.9640 F   0  0  0  0  0  0  0  0  0  0  0  0
  130.2010  124.2600   65.2870 F   0  0  0  0  0  0  0  0  0  0  0  0
  128.7480  127.6390   65.0070 C   0  0  0  0  0  0  0  0  0  0  0  0
  128.4700  128.1490   63.6860 C   0  0  0  0  0  0  0  0  0  0  0  0
  128.8000  127.4670   62.5420 N   0  0  0  0  0  0  0  0  0  0  0  0
  1  2  1  0
  2  3  1  0
  3  4  1  0
  4  5  1  0
  5  6  1  0
  6  7  1  0
  7  8  1  0
  8  9  1  0
  9 10  1  0
 10 11  1  0
 11 12  1  0
 12 13  2  0
 12 14  1  0
 14 15  1  0
 15 16  1  0
 16 17  2  0
 17 18  1  0
 18 19  1  0
 19 20  2  0
 20 21  1  0
 21 22  2  0
 22 23  1  0
 23 24  2  0
 18 25  2  0
 25 26  1  0
 26 27  1  0
 27 28  1  0
 27 29  1  0
 27 30  1  0
 26 31  2  0
 31 32  1  0
 32 33  1  0
 32 14  2  0
 31 16  1  0
 24 19  1  0
M  END
>  <Binding energies>  (59) 
[-6.93]

>  <Ligand effiencies>  (59) 
[-0.1925]

>  <Interactions>  (59) 
["V-A:TYR:539:CD2:4871, V-A:PRO:540:CB:4882, V-A:PRO:540:CA:4880, H-A:GLU:543:OE2:4907, V-A:LEU:363:CD1:3185, V-A:TYR:539:C:4864, V-A:GLU:543:CD:4905, V-A:TYR:539:CE2:4873, H-A:ALA:541:N:4888, V-B:GLU:543:C:9871, V-B:LYS:547:CE:9919, V-A:HIS:456:CE1:4066, V-A:GLU:543:CB:4903, V-A:HIS:456:CD2:4064, V-B:GLU:543:CB:9875, V-B:HIS:456:CE1:9038, V-B:GLY:544:C:9881, V-A:ILE:538:CD1:4862, V-A:ILE:538:CG2:4860, H-B:GLU:543:OE2:9879, V-B:GLU:543:CD:9877, V-B:GLU:543:CG:9876, V-A:TYR:484:CZ:4343, V-A:TYR:484:CE1:4341, V-A:GLU:543:CG:4904, H-A:TYR:539:N:4867"]

$$$$
4dd_Grossjean_2025
     RDKit          3D

 26 29  0  0  0  0  0  0  0  0999 V2000
  130.4960  120.4190   61.8430 C   0  0  0  0  0  0  0  0  0  0  0  0
  129.7280  121.6840   61.4880 C   0  0  0  0  0  0  0  0  0  0  0  0
  128.9960  121.6990   60.2940 C   0  0  0  0  0  0  0  0  0  0  0  0
  128.2680  122.8310   59.9110 C   0  0  0  0  0  0  0  0  0  0  0  0
  127.4810  122.8780   58.6350 C   0  0  0  0  0  0  0  0  0  0  0  0
  126.1650  123.3680   58.6180 C   0  0  0  0  0  0  0  0  0  0  0  0
  125.4300  123.4170   57.4370 C   0  0  0  0  0  0  0  0  0  0  0  0
  126.0010  122.9720   56.2500 C   0  0  0  0  0  0  0  0  0  0  0  0
  127.3030  122.4820   56.2360 C   0  0  0  0  0  0  0  0  0  0  0  0
  128.0360  122.4370   57.4200 C   0  0  0  0  0  0  0  0  0  0  0  0
  128.2470  123.9630   60.6670 N   0  0  0  0  0  0  0  0  0  0  0  0
  128.9370  123.9470   61.8070 C   0  0  0  0  0  0  0  0  0  0  0  0
  128.9820  125.3250   62.8830 S   0  0  0  0  0  0  0  0  0  0  0  0
  130.0280  124.4660   64.0160 C   0  0  0  0  0  0  0  0  0  0  0  0
  130.4670  125.1110   65.2550 C   0  0  0  0  0  0  0  0  0  0  0  0
  131.6560  125.1090   65.5770 O   0  0  0  0  0  0  0  0  0  0  0  0
  129.4850  125.6950   65.9850 N   0  0  0  0  0  0  0  0  0  0  0  0
  129.5590  126.3430   67.2310 C   0  0  0  0  0  0  0  0  0  0  0  0
  130.4610  127.4080   67.3140 C   0  0  0  0  0  0  0  0  0  0  0  0
  130.5960  128.1220   68.5020 C   0  0  0  0  0  0  0  0  0  0  0  0
  129.8240  127.7760   69.6070 C   0  0  0  0  0  0  0  0  0  0  0  0
  128.9130  126.7260   69.5350 C   0  0  0  0  0  0  0  0  0  0  0  0
  128.7750  126.0090   68.3490 C   0  0  0  0  0  0  0  0  0  0  0  0
  130.3190  123.1730   63.5540 C   0  0  0  0  0  0  0  0  0  0  0  0
  131.1150  122.2820   64.2300 N   0  0  0  0  0  0  0  0  0  0  0  0
  129.7040  122.8510   62.2930 C   0  0  0  0  0  0  0  0  0  0  0  0
  1  2  1  0
  2  3  2  0
  3  4  1  0
  4  5  1  0
  5  6  2  0
  6  7  1  0
  7  8  2  0
  8  9  1  0
  9 10  2  0
  4 11  2  0
 11 12  1  0
 12 13  1  0
 13 14  1  0
 14 15  1  0
 15 16  2  0
 15 17  1  0
 17 18  1  0
 18 19  2  0
 19 20  1  0
 20 21  2  0
 21 22  1  0
 22 23  2  0
 14 24  2  0
 24 25  1  0
 24 26  1  0
 26  2  1  0
 10  5  1  0
 26 12  2  0
 23 18  1  0
M  END
>  <Binding energies>  (60) 
[-8.11]

>  <Ligand effiencies>  (60) 
[-0.27965517241379306]

>  <Interactions>  (60) 
["V-B:GLU:543:C:9871, V-A:HIS:456:CE1:4066, V-A:GLU:543:C:4899, V-A:GLU:543:CB:4903, V-B:GLU:543:CB:9875, V-B:HIS:456:CE1:9038, V-B:TYR:539:CE1:9844, V-B:PRO:540:CA:9852, V-B:TYR:539:CZ:9846, V-B:PRO:540:N:9853, V-B:PRO:540:CB:9854, V-B:LEU:363:CD1:8157, V-B:ALA:541:CB:9861, H-B:GLU:543:OE2:9879, H-B:GLU:543:OE1:9878, V-B:GLU:543:CD:9877, V-B:GLU:543:CG:9876, V-A:TYR:484:CZ:4343, V-B:TYR:539:CE2:9845, V-A:TYR:484:CE1:4341, V-B:ILE:538:CB:9831, V-A:LEU:475:CD1:4254, V-B:TYR:539:C:9836, V-B:TYR:539:CD2:9843, V-B:TYR:539:CD1:9842, V-B:TYR:539:CG:9841, H-A:TYR:484:OH:4344, V-A:LEU:475:CD2:4255, V-A:LEU:475:CG:4253"]

$$$$
4dg_Grossjean_2025
     RDKit          3D

 27 30  0  0  0  0  0  0  0  0999 V2000
  132.1280  128.5320   68.6980 C   0  0  0  0  0  0  0  0  0  0  0  0
  130.8780  127.7220   68.3890 C   0  0  0  0  0  0  0  0  0  0  0  0
  130.7060  127.2440   67.0840 C   0  0  0  0  0  0  0  0  0  0  0  0
  129.5780  126.4930   66.7350 C   0  0  0  0  0  0  0  0  0  0  0  0
  129.3670  125.9660   65.3440 C   0  0  0  0  0  0  0  0  0  0  0  0
  129.6350  124.6220   65.0330 C   0  0  0  0  0  0  0  0  0  0  0  0
  129.4450  124.1300   63.7440 C   0  0  0  0  0  0  0  0  0  0  0  0
  128.9830  124.9770   62.7430 C   0  0  0  0  0  0  0  0  0  0  0  0
  128.7130  126.3130   63.0210 C   0  0  0  0  0  0  0  0  0  0  0  0
  128.9050  126.8010   64.3110 C   0  0  0  0  0  0  0  0  0  0  0  0
  128.6150  126.1800   67.6440 N   0  0  0  0  0  0  0  0  0  0  0  0
  128.7760  126.6340   68.8870 C   0  0  0  0  0  0  0  0  0  0  0  0
  127.6110  126.3100   70.1490 S   0  0  0  0  0  0  0  0  0  0  0  0
  128.5700  127.2100   71.3240 C   0  0  0  0  0  0  0  0  0  0  0  0
  128.0880  127.3720   72.6950 C   0  0  0  0  0  0  0  0  0  0  0  0
  128.8660  127.5820   73.6280 O   0  0  0  0  0  0  0  0  0  0  0  0
  126.7570  127.2390   72.8720 N   0  0  0  0  0  0  0  0  0  0  0  0
  126.0540  127.3820   74.1460 C   0  0  0  0  0  0  0  0  0  0  0  0
  125.8370  128.8340   74.5580 C   0  0  0  0  0  0  0  0  0  0  0  0
  126.7730  129.8060   74.1950 C   0  0  0  0  0  0  0  0  0  0  0  0
  126.5630  131.1380   74.5430 C   0  0  0  0  0  0  0  0  0  0  0  0
  125.4110  131.4950   75.2410 C   0  0  0  0  0  0  0  0  0  0  0  0
  124.4650  130.5330   75.5920 C   0  0  0  0  0  0  0  0  0  0  0  0
  124.6750  129.2020   75.2430 C   0  0  0  0  0  0  0  0  0  0  0  0
  129.7280  127.7420   70.7370 C   0  0  0  0  0  0  0  0  0  0  0  0
  130.6490  128.4980   71.4160 N   0  0  0  0  0  0  0  0  0  0  0  0
  129.8750  127.4150   69.3440 C   0  0  0  0  0  0  0  0  0  0  0  0
  1  2  1  0
  2  3  2  0
  3  4  1  0
  4  5  1  0
  5  6  2  0
  6  7  1  0
  7  8  2  0
  8  9  1  0
  9 10  2  0
  4 11  2  0
 11 12  1  0
 12 13  1  0
 13 14  1  0
 14 15  1  0
 15 16  2  0
 15 17  1  0
 17 18  1  0
 18 19  1  0
 19 20  2  0
 20 21  1  0
 21 22  2  0
 22 23  1  0
 23 24  2  0
 14 25  2  0
 25 26  1  0
 25 27  1  0
 27  2  1  0
 10  5  1  0
 27 12  2  0
 24 19  1  0
M  END
>  <Binding energies>  (61) 
[-8.11]

>  <Ligand effiencies>  (61) 
[-0.2703333333333333]

>  <Interactions>  (61) 
["V-A:GLU:543:CD:4905, V-B:GLU:543:C:9871, V-B:LYS:547:CE:9919, V-B:LYS:471:CE:9188, V-B:VAL:458:CG2:9055, V-B:HIS:456:CG:9034, H-A:LYS:547:NZ:4948, V-A:GLY:544:C:4909, V-B:HIS:456:CB:9033, V-A:HIS:456:CE1:4066, V-A:GLU:543:C:4899, V-A:GLU:543:CB:4903, H-A:GLU:543:O:4900, V-B:GLU:543:CB:9875, V-B:HIS:456:C:9029, V-A:GLY:544:CA:4911, V-B:HIS:456:CE1:9038, V-B:GLY:544:C:9881, V-B:HIS:456:CD2:9036, V-B:GLU:543:CD:9877, H-B:HIS:456:NE2:9039, V-B:GLU:543:CG:9876, V-A:ARG:545:CG:4919, V-B:LYS:547:CD:9918, V-B:ASP:473:CG:9208, V-B:ASP:473:CB:9207, V-B:VAL:457:C:9041, V-B:LYS:471:CB:9185, V-A:GLU:543:CA:4901, H-B:GLY:544:O:9882, V-A:ARG:545:CA:4916, H-A:GLY:544:O:4910, V-A:ARG:545:CB:4918"]

$$$$
4dj_Grossjean_2025
     RDKit          3D

 25 28  0  0  0  0  0  0  0  0999 V2000
  130.4950  120.4060   61.8900 C   0  0  0  0  0  0  0  0  0  0  0  0
  129.7380  121.6720   61.5190 C   0  0  0  0  0  0  0  0  0  0  0  0
  129.0050  121.6780   60.3260 C   0  0  0  0  0  0  0  0  0  0  0  0
  128.2880  122.8120   59.9280 C   0  0  0  0  0  0  0  0  0  0  0  0
  127.4890  122.8450   58.6560 C   0  0  0  0  0  0  0  0  0  0  0  0
  128.0560  122.4380   57.4370 C   0  0  0  0  0  0  0  0  0  0  0  0
  127.3210  122.4660   56.2550 C   0  0  0  0  0  0  0  0  0  0  0  0
  126.0020  122.9090   56.2740 C   0  0  0  0  0  0  0  0  0  0  0  0
  125.4160  123.3220   57.4660 C   0  0  0  0  0  0  0  0  0  0  0  0
  126.1540  123.2910   58.6450 C   0  0  0  0  0  0  0  0  0  0  0  0
  128.2570  123.9450   60.6820 N   0  0  0  0  0  0  0  0  0  0  0  0
  128.9550  123.9410   61.8170 C   0  0  0  0  0  0  0  0  0  0  0  0
  129.0090  125.3320   62.8770 S   0  0  0  0  0  0  0  0  0  0  0  0
  130.0640  124.4850   64.0110 C   0  0  0  0  0  0  0  0  0  0  0  0
  130.5330  125.1530   65.2250 C   0  0  0  0  0  0  0  0  0  0  0  0
  131.6640  124.9340   65.6690 O   0  0  0  0  0  0  0  0  0  0  0  0
  129.6460  125.9970   65.8070 N   0  0  0  0  0  0  0  0  0  0  0  0
  129.8380  126.7470   66.9590 C   0  0  0  0  0  0  0  0  0  0  0  0
  130.8380  127.5550   67.2390 N   0  0  0  0  0  0  0  0  0  0  0  0
  130.6970  128.1070   68.4290 C   0  0  0  0  0  0  0  0  0  0  0  0
  129.5580  127.7480   69.1420 C   0  0  0  0  0  0  0  0  0  0  0  0
  128.6280  126.6250   68.1950 S   0  0  0  0  0  0  0  0  0  0  0  0
  130.3490  123.1860   63.5620 C   0  0  0  0  0  0  0  0  0  0  0  0
  131.1480  122.3020   64.2430 N   0  0  0  0  0  0  0  0  0  0  0  0
  129.7250  122.8500   62.3110 C   0  0  0  0  0  0  0  0  0  0  0  0
  1  2  1  0
  2  3  2  0
  3  4  1  0
  4  5  1  0
  5  6  2  0
  6  7  1  0
  7  8  2  0
  8  9  1  0
  9 10  2  0
  4 11  2  0
 11 12  1  0
 12 13  1  0
 13 14  1  0
 14 15  1  0
 15 16  2  0
 15 17  1  0
 17 18  1  0
 18 19  2  0
 19 20  1  0
 20 21  2  0
 21 22  1  0
 14 23  2  0
 23 24  1  0
 23 25  1  0
 25  2  1  0
 10  5  1  0
 25 12  2  0
 22 18  1  0
M  END
>  <Binding energies>  (62) 
[-7.34]

>  <Ligand effiencies>  (62) 
[-0.2621428571428571]

>  <Interactions>  (62) 
["V-A:HIS:456:CE1:4066, V-A:GLU:543:C:4899, V-A:GLU:543:CB:4903, V-B:GLU:543:CB:9875, V-B:HIS:456:CE1:9038, V-B:TYR:539:CE1:9844, V-B:PRO:540:CA:9852, V-B:TYR:539:CZ:9846, V-B:PRO:540:N:9853, V-B:PRO:540:CB:9854, V-B:LEU:363:CD1:8157, V-B:ALA:541:CB:9861, H-B:GLU:543:OE2:9879, H-B:GLU:543:OE1:9878, V-B:GLU:543:CD:9877, V-B:GLU:543:CG:9876, V-A:TYR:484:CZ:4343, V-B:TYR:539:CE2:9845, V-A:TYR:484:CE1:4341, V-B:ILE:538:CB:9831, V-A:LEU:475:CD1:4254, V-B:TYR:539:C:9836, V-B:TYR:539:CD2:9843, V-B:TYR:539:CD1:9842, V-B:TYR:539:CG:9841, H-A:TYR:484:OH:4344, V-A:LEU:475:CD2:4255, V-A:LEU:475:CG:4253"]

$$$$
4ea_Grossjean_2025
     RDKit          3D

 31 34  0  0  0  0  0  0  0  0999 V2000
  127.8310  122.1340   59.7040 C   0  0  0  0  0  0  0  0  0  0  0  0
  128.5880  122.0940   58.3740 C   0  0  0  0  0  0  0  0  0  0  0  0
  127.7250  121.6070   57.3540 O   0  0  0  0  0  0  0  0  0  0  0  0
  127.1440  122.4520   56.4640 C   0  0  0  0  0  0  0  0  0  0  0  0
  126.9470  122.1610   55.2800 O   0  0  0  0  0  0  0  0  0  0  0  0
  126.7660  123.7760   57.0620 C   0  0  0  0  0  0  0  0  0  0  0  0
  127.7290  124.7910   57.1380 C   0  0  0  0  0  0  0  0  0  0  0  0
  127.4100  126.0300   57.6880 C   0  0  0  0  0  0  0  0  0  0  0  0
  126.1260  126.2800   58.1720 C   0  0  0  0  0  0  0  0  0  0  0  0
  125.9190  127.5670   58.7040 N   0  0  0  0  0  0  0  0  0  0  0  0
  126.4220  128.7670   58.3230 C   0  0  0  0  0  0  0  0  0  0  0  0
  127.1970  128.9260   57.3800 O   0  0  0  0  0  0  0  0  0  0  0  0
  125.9790  129.9120   59.1230 C   0  0  0  0  0  0  0  0  0  0  0  0
  125.2900  131.3370   58.3400 S   0  0  0  0  0  0  0  0  0  0  0  0
  125.0590  132.1320   59.8800 C   0  0  0  0  0  0  0  0  0  0  0  0
  124.5280  133.3520   59.9700 N   0  0  0  0  0  0  0  0  0  0  0  0
  124.4020  133.8560   61.2230 C   0  0  0  0  0  0  0  0  0  0  0  0
  123.7960  135.2450   61.3020 C   0  0  0  0  0  0  0  0  0  0  0  0
  124.7910  133.1760   62.3740 C   0  0  0  0  0  0  0  0  0  0  0  0
  125.3480  131.8970   62.2750 C   0  0  0  0  0  0  0  0  0  0  0  0
  125.7570  131.1860   63.5080 C   0  0  0  0  0  0  0  0  0  0  0  0
  127.0140  131.4240   64.0720 C   0  0  0  0  0  0  0  0  0  0  0  0
  127.3980  130.7580   65.2330 C   0  0  0  0  0  0  0  0  0  0  0  0
  126.5250  129.8510   65.8280 C   0  0  0  0  0  0  0  0  0  0  0  0
  125.2720  129.6030   65.2720 C   0  0  0  0  0  0  0  0  0  0  0  0
  124.8900  130.2700   64.1110 C   0  0  0  0  0  0  0  0  0  0  0  0
  125.4970  131.3320   60.9780 C   0  0  0  0  0  0  0  0  0  0  0  0
  126.0170  130.0700   60.5180 C   0  0  0  0  0  0  0  0  0  0  0  0
  126.5030  129.1210   61.3800 N   0  0  0  0  0  0  0  0  0  0  0  0
  125.1550  125.2690   58.0990 C   0  0  0  0  0  0  0  0  0  0  0  0
  125.4750  124.0310   57.5500 C   0  0  0  0  0  0  0  0  0  0  0  0
  1  2  1  0
  2  3  1  0
  3  4  1  0
  4  5  2  0
  4  6  1  0
  6  7  2  0
  7  8  1  0
  8  9  2  0
  9 10  1  0
 10 11  1  0
 11 12  2  0
 11 13  1  0
 13 14  1  0
 14 15  1  0
 15 16  2  0
 16 17  1  0
 17 18  1  0
 17 19  2  0
 19 20  1  0
 20 21  1  0
 21 22  2  0
 22 23  1  0
 23 24  2  0
 24 25  1  0
 25 26  2  0
 20 27  2  0
 27 28  1  0
 28 29  1  0
  9 30  1  0
 30 31  2  0
 31  6  1  0
 28 13  2  0
 27 15  1  0
 26 21  1  0
M  END
>  <Binding energies>  (63) 
[-8.92]

>  <Ligand effiencies>  (63) 
[-0.26235294117647057]

>  <Interactions>  (63) 
["H-A:GLU:543:OE2:4907, V-B:TRP:381:CZ2:8338, V-B:TRP:381:CH2:8340, V-A:GLU:543:CD:4905, V-A:TYR:539:CE2:4873, V-B:LEU:475:CD2:9227, V-B:HIS:456:CE1:9038, V-B:ASP:366:CB:8180, V-B:TYR:539:CE1:9844, V-B:MET:535:CE:9804, V-B:PRO:540:CA:9852, V-B:TYR:539:CZ:9846, H-B:ASP:366:OD1:8182, V-B:PRO:540:N:9853, V-B:ILE:369:CG2:8205, V-B:PRO:540:C:9850, V-B:ASP:366:CG:8181, H-B:TYR:539:N:9839, H-B:TYR:531:OH:9764, V-B:ALA:541:CB:9861, V-B:TYR:539:CE2:9845, V-A:GLU:543:CG:4904, V-B:TYR:539:C:9836, V-B:TYR:539:CD2:9843, V-B:ILE:369:CD1:8207, V-B:TYR:539:CD1:9842, V-B:TYR:539:CG:9841, V-B:ARG:545:CZ:9895, V-B:TYR:484:CE1:9313, V-B:TYR:484:CZ:9315, V-B:SER:385:CA:8375, V-B:SER:385:C:8373"]

$$$$
4eb_Grossjean_2025
     RDKit          3D

 30 33  0  0  0  0  0  0  0  0999 V2000
  128.1540  122.7620   54.9560 C   0  0  0  0  0  0  0  0  0  0  0  0
  127.5030  121.7880   55.7590 O   0  0  0  0  0  0  0  0  0  0  0  0
  126.4890  122.1350   56.5930 C   0  0  0  0  0  0  0  0  0  0  0  0
  125.2980  121.9540   56.3260 O   0  0  0  0  0  0  0  0  0  0  0  0
  126.9620  122.7620   57.8730 C   0  0  0  0  0  0  0  0  0  0  0  0
  126.4170  123.9880   58.2760 C   0  0  0  0  0  0  0  0  0  0  0  0
  126.8340  124.5950   59.4560 C   0  0  0  0  0  0  0  0  0  0  0  0
  127.8030  123.9900   60.2590 C   0  0  0  0  0  0  0  0  0  0  0  0
  128.1480  124.6940   61.4290 N   0  0  0  0  0  0  0  0  0  0  0  0
  129.3400  125.1980   61.8320 C   0  0  0  0  0  0  0  0  0  0  0  0
  130.3840  125.1090   61.1860 O   0  0  0  0  0  0  0  0  0  0  0  0
  129.3240  125.8800   63.1280 C   0  0  0  0  0  0  0  0  0  0  0  0
  130.4810  125.4360   64.3850 S   0  0  0  0  0  0  0  0  0  0  0  0
  129.8200  126.6260   65.4830 C   0  0  0  0  0  0  0  0  0  0  0  0
  130.3080  126.7990   66.7120 N   0  0  0  0  0  0  0  0  0  0  0  0
  129.7070  127.7540   67.4630 C   0  0  0  0  0  0  0  0  0  0  0  0
  130.2780  127.9340   68.8580 C   0  0  0  0  0  0  0  0  0  0  0  0
  128.6400  128.5320   67.0180 C   0  0  0  0  0  0  0  0  0  0  0  0
  128.1320  128.3470   65.7280 C   0  0  0  0  0  0  0  0  0  0  0  0
  126.9970  129.1820   65.2690 C   0  0  0  0  0  0  0  0  0  0  0  0
  127.2260  130.2800   64.4350 C   0  0  0  0  0  0  0  0  0  0  0  0
  126.1600  131.0650   64.0020 C   0  0  0  0  0  0  0  0  0  0  0  0
  124.8640  130.7510   64.4070 C   0  0  0  0  0  0  0  0  0  0  0  0
  124.6270  129.6600   65.2400 C   0  0  0  0  0  0  0  0  0  0  0  0
  125.6940  128.8770   65.6720 C   0  0  0  0  0  0  0  0  0  0  0  0
  128.7350  127.3540   64.9080 C   0  0  0  0  0  0  0  0  0  0  0  0
  128.4740  126.9090   63.5650 C   0  0  0  0  0  0  0  0  0  0  0  0
  127.4780  127.4520   62.7940 N   0  0  0  0  0  0  0  0  0  0  0  0
  128.3550  122.7620   59.8640 C   0  0  0  0  0  0  0  0  0  0  0  0
  127.9360  122.1570   58.6820 C   0  0  0  0  0  0  0  0  0  0  0  0
  1  2  1  0
  2  3  1  0
  3  4  2  0
  3  5  1  0
  5  6  2  0
  6  7  1  0
  7  8  2  0
  8  9  1  0
  9 10  1  0
 10 11  2  0
 10 12  1  0
 12 13  1  0
 13 14  1  0
 14 15  2  0
 15 16  1  0
 16 17  1  0
 16 18  2  0
 18 19  1  0
 19 20  1  0
 20 21  2  0
 21 22  1  0
 22 23  2  0
 23 24  1  0
 24 25  2  0
 19 26  2  0
 26 27  1  0
 27 28  1  0
  8 29  1  0
 29 30  2  0
 30  5  1  0
 27 12  2  0
 26 14  1  0
 25 20  1  0
M  END
>  <Binding energies>  (64) 
[-8.95]

>  <Ligand effiencies>  (64) 
[-0.2712121212121212]

>  <Interactions>  (64) 
["H-A:GLU:543:OE2:4907, V-A:GLU:543:CD:4905, V-A:HIS:456:CE1:4066, V-A:GLU:543:C:4899, V-A:GLU:543:CB:4903, V-B:HIS:456:CE1:9038, V-B:TYR:539:CE1:9844, V-B:MET:535:CE:9804, V-B:PRO:540:CA:9852, H-B:ASP:366:OD1:8182, V-B:PRO:540:N:9853, V-B:PRO:540:CB:9854, H-B:TYR:539:N:9839, H-B:GLU:543:OE2:9879, H-B:GLU:543:OE1:9878, V-B:GLU:543:CD:9877, V-B:TYR:539:CE2:9845, V-A:GLU:543:CG:4904, V-B:ILE:538:CG2:9832, V-B:ILE:538:CB:9831, V-B:PRO:540:CD:9856, V-B:TYR:539:C:9836, V-B:TYR:539:CD2:9843, V-B:ILE:538:CA:9829, V-B:TYR:539:CD1:9842, V-B:TYR:539:CG:9841, V-B:ARG:545:CZ:9895, V-B:GLY:454:CA:9017, V-B:ARG:545:CD:9892"]

$$$$
8b_Ghoteimi_2023
     RDKit          3D

 34 38  0  0  0  0  0  0  0  0999 V2000
  124.0860  133.7380   61.8410 C   0  0  0  0  0  0  0  0  0  0  0  0
  123.7230  132.8900   62.9260 O   0  0  0  0  0  0  0  0  0  0  0  0
  124.5940  131.8930   63.3210 C   0  0  0  0  0  0  0  0  0  0  0  0
  125.8180  132.3060   63.8440 C   0  0  0  0  0  0  0  0  0  0  0  0
  126.7590  131.3720   64.2670 C   0  0  0  0  0  0  0  0  0  0  0  0
  126.4990  129.9970   64.1780 C   0  0  0  0  0  0  0  0  0  0  0  0
  127.5070  128.9880   64.6290 C   0  0  0  0  0  0  0  0  0  0  0  0
  127.6750  128.6680   65.9810 C   0  0  0  0  0  0  0  0  0  0  0  0
  128.6240  127.7210   66.3770 C   0  0  0  0  0  0  0  0  0  0  0  0
  128.7830  127.4120   67.8170 C   0  0  0  0  0  0  0  0  0  0  0  0
  129.8300  127.9780   68.5460 C   0  0  0  0  0  0  0  0  0  0  0  0
  129.9720  127.6940   69.9020 C   0  0  0  0  0  0  0  0  0  0  0  0
  129.0740  126.8410   70.5460 C   0  0  0  0  0  0  0  0  0  0  0  0
  129.2920  126.6180   71.8920 O   0  0  0  0  0  0  0  0  0  0  0  0
  128.3350  127.0850   72.8370 C   0  0  0  0  0  0  0  0  0  0  0  0
  128.0250  126.2700   69.8090 C   0  0  0  0  0  0  0  0  0  0  0  0
  127.8840  126.5550   68.4540 C   0  0  0  0  0  0  0  0  0  0  0  0
  129.4030  127.0930   65.3680 C   0  0  0  0  0  0  0  0  0  0  0  0
  130.4390  126.0940   65.4150 C   0  0  0  0  0  0  0  0  0  0  0  0
  130.8720  125.5400   66.5930 N   0  0  0  0  0  0  0  0  0  0  0  0
  130.9520  125.7480   64.1550 C   0  0  0  0  0  0  0  0  0  0  0  0
  131.9990  124.7760   63.8330 C   0  0  0  0  0  0  0  0  0  0  0  0
  132.4810  124.0570   64.7120 O   0  0  0  0  0  0  0  0  0  0  0  0
  132.3790  124.7390   62.5310 N   0  0  0  0  0  0  0  0  0  0  0  0
  133.3370  123.9190   61.9530 C   0  0  0  0  0  0  0  0  0  0  0  0
  133.0210  122.8640   61.0980 C   0  0  0  0  0  0  0  0  0  0  0  0
  134.2320  122.3080   60.7530 C   0  0  0  0  0  0  0  0  0  0  0  0
  135.2250  122.9940   61.3640 O   0  0  0  0  0  0  0  0  0  0  0  0
  134.6470  124.0140   62.1220 N   0  0  0  0  0  0  0  0  0  0  0  0
  130.1550  126.6580   62.8710 S   0  0  0  0  0  0  0  0  0  0  0  0
  129.1430  127.4930   64.0260 C   0  0  0  0  0  0  0  0  0  0  0  0
  128.2400  128.3980   63.6480 N   0  0  0  0  0  0  0  0  0  0  0  0
  125.2660  129.5880   63.6540 C   0  0  0  0  0  0  0  0  0  0  0  0
  124.3220  130.5200   63.2290 C   0  0  0  0  0  0  0  0  0  0  0  0
  1  2  1  0
  2  3  1  0
  3  4  2  0
  4  5  1  0
  5  6  2  0
  6  7  1  0
  7  8  2  0
  8  9  1  0
  9 10  1  0
 10 11  2  0
 11 12  1  0
 12 13  2  0
 13 14  1  0
 14 15  1  0
 13 16  1  0
 16 17  2  0
  9 18  2  0
 18 19  1  0
 19 20  1  0
 19 21  2  0
 21 22  1  0
 22 23  2  0
 22 24  1  0
 24 25  1  0
 25 26  1  0
 26 27  2  0
 27 28  1  0
 28 29  1  0
 21 30  1  0
 30 31  1  0
 31 32  2  0
  6 33  1  0
 33 34  2  0
 34  3  1  0
 32  7  1  0
 17 10  1  0
 31 18  1  0
 29 25  2  0
M  END
>  <Binding energies>  (65) 
[-8.56]

>  <Ligand effiencies>  (65) 
[-0.23135135135135138]

>  <Interactions>  (65) 
["V-A:ASP:366:CG:3209, H-A:ASP:366:OD1:3210, V-A:GLU:543:CD:4905, V-B:LEU:475:CD2:9227, V-B:GLU:543:C:9871, V-B:LYS:547:CE:9919, V-A:HIS:456:CE1:4066, V-A:GLU:543:CB:4903, V-B:GLU:543:CB:9875, V-B:HIS:456:CE1:9038, V-B:GLY:544:C:9881, V-B:HIS:456:CD2:9036, V-B:ILE:369:CG2:8205, V-B:ASP:366:CG:8181, V-B:GLU:543:CD:9877, V-A:TYR:484:CZ:4343, V-B:TYR:539:CE2:9845, V-A:ILE:369:CG1:3234, V-A:ILE:369:CB:3232, V-B:ILE:369:CD1:8207, H-A:GLY:454:N:4046, H-A:ASP:366:OD2:3211, V-A:ILE:369:CG2:3233, V-B:ARG:545:CZ:9895, H-A:TYR:484:OH:4344, H-B:GLY:454:N:9018, V-B:GLY:454:CA:9017, H-A:HIS:456:NE2:4067"]

$$$$
9d_Ghoteimi_2023
     RDKit          3D

 38 43  0  0  0  0  0  0  0  0999 V2000
  132.7710  124.3090   64.3650 C   0  0  0  0  0  0  0  0  0  0  0  0
  132.0860  123.0670   64.2950 O   0  0  0  0  0  0  0  0  0  0  0  0
  130.7430  123.0000   64.4950 C   0  0  0  0  0  0  0  0  0  0  0  0
  130.1050  121.9450   64.5390 O   0  0  0  0  0  0  0  0  0  0  0  0
  130.1170  124.3310   64.6510 C   0  0  0  0  0  0  0  0  0  0  0  0
  129.7430  125.2980   63.2250 S   0  0  0  0  0  0  0  0  0  0  0  0
  129.0670  126.5690   64.2150 C   0  0  0  0  0  0  0  0  0  0  0  0
  128.5360  127.6660   63.6760 N   0  0  0  0  0  0  0  0  0  0  0  0
  128.0200  128.5870   64.5320 C   0  0  0  0  0  0  0  0  0  0  0  0
  127.4070  129.7970   63.9040 C   0  0  0  0  0  0  0  0  0  0  0  0
  126.7720  129.7070   62.6610 C   0  0  0  0  0  0  0  0  0  0  0  0
  126.2000  130.8280   62.0660 C   0  0  0  0  0  0  0  0  0  0  0  0
  126.2310  132.0810   62.7000 C   0  0  0  0  0  0  0  0  0  0  0  0
  125.6760  133.2200   62.1070 N   0  0  0  0  0  0  0  0  0  0  0  0
  126.2770  133.8310   60.9050 C   0  0  0  0  0  0  0  0  0  0  0  0
  125.7560  135.2500   60.5990 C   0  0  0  0  0  0  0  0  0  0  0  0
  124.3410  135.2390   60.5100 O   0  0  0  0  0  0  0  0  0  0  0  0
  123.7480  134.8150   61.7260 C   0  0  0  0  0  0  0  0  0  0  0  0
  124.2070  133.3820   62.0700 C   0  0  0  0  0  0  0  0  0  0  0  0
  126.8820  132.1680   63.9400 C   0  0  0  0  0  0  0  0  0  0  0  0
  127.4560  131.0470   64.5320 C   0  0  0  0  0  0  0  0  0  0  0  0
  128.0670  128.4250   65.9190 C   0  0  0  0  0  0  0  0  0  0  0  0
  128.6410  127.2840   66.4910 C   0  0  0  0  0  0  0  0  0  0  0  0
  128.6900  127.1740   67.9730 C   0  0  0  0  0  0  0  0  0  0  0  0
  127.7460  126.4110   68.6630 C   0  0  0  0  0  0  0  0  0  0  0  0
  127.8070  126.2960   70.0490 C   0  0  0  0  0  0  0  0  0  0  0  0
  128.8250  126.9290   70.7800 C   0  0  0  0  0  0  0  0  0  0  0  0
  128.9020  126.8380   72.1720 N   0  0  0  0  0  0  0  0  0  0  0  0
  128.4480  127.9770   72.9920 C   0  0  0  0  0  0  0  0  0  0  0  0
  128.2210  127.6080   74.4740 C   0  0  0  0  0  0  0  0  0  0  0  0
  129.3980  127.0290   75.0180 O   0  0  0  0  0  0  0  0  0  0  0  0
  129.7700  125.8480   74.3220 C   0  0  0  0  0  0  0  0  0  0  0  0
  130.0400  126.1760   72.8380 C   0  0  0  0  0  0  0  0  0  0  0  0
  129.7660  127.6940   70.0760 C   0  0  0  0  0  0  0  0  0  0  0  0
  129.7040  127.8100   68.6910 C   0  0  0  0  0  0  0  0  0  0  0  0
  129.1500  126.2870   65.6110 C   0  0  0  0  0  0  0  0  0  0  0  0
  129.7380  124.9910   65.8270 C   0  0  0  0  0  0  0  0  0  0  0  0
  129.8910  124.4410   67.0730 N   0  0  0  0  0  0  0  0  0  0  0  0
  1  2  1  0
  2  3  1  0
  3  4  2  0
  3  5  1  0
  5  6  1  0
  6  7  1  0
  7  8  2  0
  8  9  1  0
  9 10  1  0
 10 11  2  0
 11 12  1  0
 12 13  2  0
 13 14  1  0
 14 15  1  0
 15 16  1  0
 16 17  1  0
 17 18  1  0
 18 19  1  0
 13 20  1  0
 20 21  2  0
  9 22  2  0
 22 23  1  0
 23 24  1  0
 24 25  2  0
 25 26  1  0
 26 27  2  0
 27 28  1  0
 28 29  1  0
 29 30  1  0
 30 31  1  0
 31 32  1  0
 32 33  1  0
 27 34  1  0
 34 35  2  0
 23 36  2  0
 36 37  1  0
 37 38  1  0
 37  5  2  0
 36  7  1  0
 21 10  1  0
 35 24  1  0
 19 14  1  0
 33 28  1  0
M  END
>  <Binding energies>  (66) 
[-9.08]

>  <Ligand effiencies>  (66) 
[-0.227]

>  <Interactions>  (66) 
["V-A:TYR:539:CD2:4871, V-B:TRP:381:CZ2:8338, V-B:TRP:381:CH2:8340, V-A:GLU:543:CD:4905, V-B:LEU:475:CD2:9227, V-B:GLU:543:C:9871, V-B:LYS:547:CE:9919, V-A:LYS:547:CE:4947, H-A:LYS:547:NZ:4948, V-A:HIS:456:CE1:4066, V-A:GLU:543:CB:4903, V-A:HIS:456:CD2:4064, V-B:GLU:543:CB:9875, V-B:HIS:456:CE1:9038, V-B:GLY:544:C:9881, V-B:HIS:456:CD2:9036, V-B:ILE:369:CG2:8205, V-B:GLU:543:CD:9877, V-B:GLU:543:CG:9876, V-A:TYR:484:CZ:4343, V-A:TYR:484:CE1:4341, V-A:GLU:543:CG:4904, V-B:GLU:543:CA:9873, V-B:ILE:369:CD1:8207, V-A:GLY:454:CA:4045, H-A:TYR:484:OH:4344, V-B:GLY:454:CA:9017, H-A:HIS:456:NE2:4067, V-B:SER:385:C:8373, H-B:GLU:543:O:9872"]

$$$$
RR10_Rahimova_2017
     RDKit          3D

 34 38  0  0  0  0  0  0  0  0999 V2000
  131.7840  124.8850   64.5680 C   0  0  0  0  0  0  0  0  0  0  0  0
  131.1680  125.3680   65.8930 C   0  0  1  0  0  0  0  0  0  0  0  0
  131.1730  126.9110   66.0020 C   0  0  0  0  0  0  0  0  0  0  0  0
  130.5820  127.3720   67.3530 C   0  0  0  0  0  0  0  0  0  0  0  0
  129.1370  126.8520   67.5680 C   0  0  1  0  0  0  0  0  0  0  0  0
  128.2080  127.4910   66.6260 N   0  0  0  0  0  0  0  0  0  0  0  0
  128.0110  128.8170   66.5040 C   0  0  0  0  0  0  0  0  0  0  0  0
  128.6230  129.6520   67.1740 O   0  0  0  0  0  0  0  0  0  0  0  0
  126.9510  129.2690   65.4780 C   0  0  1  0  0  0  0  0  0  0  0  0
  125.5580  128.7410   65.9090 C   0  0  0  0  0  0  0  0  0  0  0  0
  124.4800  129.2700   64.9330 C   0  0  0  0  0  0  0  0  0  0  0  0
  124.5430  130.8050   64.7550 C   0  0  0  0  0  0  0  0  0  0  0  0
  125.9240  131.2370   64.4060 N   0  0  0  0  0  0  0  0  0  0  0  0
  126.0550  132.9260   63.8880 S   0  0  0  0  0  0  0  0  0  0  0  0
  126.9570  133.6190   64.8160 O   0  0  0  0  0  0  0  0  0  0  0  0
  124.6960  133.4340   63.6600 O   0  0  0  0  0  0  0  0  0  0  0  0
  126.8930  132.8640   62.3050 C   0  0  0  0  0  0  0  0  0  0  0  0
  126.2710  133.4120   61.1790 C   0  0  0  0  0  0  0  0  0  0  0  0
  126.8700  133.3930   59.9160 C   0  0  0  0  0  0  0  0  0  0  0  0
  128.1320  132.7990   59.8320 C   0  0  0  0  0  0  0  0  0  0  0  0
  129.0170  132.5850   58.8020 N   0  0  0  0  0  0  0  0  0  0  0  0
  130.1210  131.9380   59.3190 C   0  0  0  0  0  0  0  0  0  0  0  0
  131.3050  131.5260   58.4920 C   0  0  0  0  0  0  0  0  0  0  0  0
  132.3180  130.7330   59.0490 C   0  0  0  0  0  0  0  0  0  0  0  0
  133.4140  130.3460   58.2820 C   0  0  0  0  0  0  0  0  0  0  0  0
  133.5040  130.7530   56.9540 C   0  0  0  0  0  0  0  0  0  0  0  0
  132.5070  131.5400   56.3850 C   0  0  0  0  0  0  0  0  0  0  0  0
  131.4110  131.9260   57.1530 C   0  0  0  0  0  0  0  0  0  0  0  0
  130.0080  131.7280   60.6120 N   0  0  0  0  0  0  0  0  0  0  0  0
  128.7880  132.2460   60.9570 C   0  0  0  0  0  0  0  0  0  0  0  0
  128.1630  132.2810   62.2120 C   0  0  0  0  0  0  0  0  0  0  0  0
  126.9440  130.8160   65.3990 C   0  0  0  0  0  0  0  0  0  0  0  0
  129.1450  125.3040   67.4380 C   0  0  0  0  0  0  0  0  0  0  0  0
  129.7280  124.8390   66.0850 C   0  0  0  0  0  0  0  0  0  0  0  0
  2  1  1  6
  2  3  1  0
  3  4  1  0
  4  5  1  0
  5  6  1  6
  6  7  1  0
  7  8  2  0
  9  7  1  1
  9 10  1  0
 10 11  1  0
 11 12  1  0
 12 13  1  0
 13 14  1  0
 14 15  2  0
 14 16  2  0
 14 17  1  0
 17 18  2  0
 18 19  1  0
 19 20  2  0
 20 21  1  0
 21 22  1  0
 22 23  1  0
 23 24  2  0
 24 25  1  0
 25 26  2  0
 26 27  1  0
 27 28  2  0
 22 29  2  0
 29 30  1  0
 30 31  2  0
 13 32  1  0
  5 33  1  0
 33 34  1  0
 34  2  1  0
 32  9  1  0
 31 17  1  0
 30 20  1  0
 28 23  1  0
M  END
>  <Binding energies>  (67) 
[-10.66]

>  <Ligand effiencies>  (67) 
[-0.2961111111111111]

>  <Interactions>  (67) 
["V-A:TYR:539:CD2:4871, V-A:PRO:540:CB:4882, V-A:ALA:541:CB:4889, V-A:PRO:540:CA:4880, V-A:PRO:540:N:4881, V-A:LEU:363:CD1:3185, V-A:TYR:539:C:4864, V-A:ASP:366:CB:3208, V-A:LEU:363:CA:3181, V-A:ASP:366:CG:3209, V-A:GLU:543:CD:4905, V-A:ASN:362:C:3168, V-A:TYR:539:CE2:4873, V-B:LEU:475:CD2:9227, H-A:ALA:541:N:4888, V-B:GLU:543:C:9871, V-A:HIS:456:CE1:4066, V-A:GLU:543:CB:4903, V-B:GLU:543:CB:9875, V-B:HIS:456:CE1:9038, V-A:TYR:531:CZ:4791, H-B:GLU:543:OE1:9878, V-B:GLU:543:CD:9877, V-B:GLU:543:CG:9876, V-A:TYR:484:CZ:4343, V-A:TYR:484:CE1:4341, V-B:GLU:543:CA:9873, V-B:ARG:545:CZ:9895, H-A:TYR:539:O:4865, H-B:TYR:484:OH:9316, H-B:GLY:454:N:9018, V-B:GLY:454:CA:9017, V-B:ARG:545:CG:9891, V-B:ARG:545:CD:9892, V-B:TYR:484:CE1:9313, V-A:LEU:363:CB:3183, V-B:TYR:484:CZ:9315, V-A:TYR:531:CE2:4790"]

$$$$
RR12_Rahimova_2017
     RDKit          3D

 26 28  0  0  0  0  0  0  0  0999 V2000
  127.6430  122.4850   55.1950 C   0  0  0  0  0  0  0  0  0  0  0  0
  127.0650  122.1600   56.5790 C   0  0  0  0  0  0  0  0  0  0  0  0
  127.8490  122.8340   57.7200 C   0  0  0  0  0  0  0  0  0  0  0  0
  127.0070  122.9910   58.9040 N   0  0  0  0  0  0  0  0  0  0  0  0
  127.2910  122.5900   60.2010 C   0  0  0  0  0  0  0  0  0  0  0  0
  128.5570  121.8520   60.6010 C   0  0  0  0  0  0  0  0  0  0  0  0
  129.6240  122.7940   61.1900 C   0  0  0  0  0  0  0  0  0  0  0  0
  129.8950  122.5260   62.6830 C   0  0  0  0  0  0  0  0  0  0  0  0
  130.5620  123.6330   63.3690 N   0  0  0  0  0  0  0  0  0  0  0  0
  131.6980  123.5270   64.0810 C   0  0  0  0  0  0  0  0  0  0  0  0
  132.3040  122.4640   64.2320 O   0  0  0  0  0  0  0  0  0  0  0  0
  132.2150  124.8300   64.7040 C   0  0  0  0  0  0  0  0  0  0  0  0
  131.1830  125.8170   64.6700 O   0  0  0  0  0  0  0  0  0  0  0  0
  130.4530  126.0720   65.8150 C   0  0  0  0  0  0  0  0  0  0  0  0
  130.0960  124.9620   66.5840 C   0  0  0  0  0  0  0  0  0  0  0  0
  129.3630  125.1200   67.7570 C   0  0  0  0  0  0  0  0  0  0  0  0
  128.9850  126.3960   68.1670 C   0  0  0  0  0  0  0  0  0  0  0  0
  129.3310  127.5140   67.4110 C   0  0  0  0  0  0  0  0  0  0  0  0
  130.0630  127.3540   66.2370 C   0  0  0  0  0  0  0  0  0  0  0  0
  126.3480  122.8940   61.0570 N   0  0  0  0  0  0  0  0  0  0  0  0
  125.4010  123.5480   60.3180 C   0  0  0  0  0  0  0  0  0  0  0  0
  124.1830  124.1050   60.7380 C   0  0  0  0  0  0  0  0  0  0  0  0
  123.3840  124.7330   59.7830 C   0  0  0  0  0  0  0  0  0  0  0  0
  123.7780  124.8110   58.4460 C   0  0  0  0  0  0  0  0  0  0  0  0
  124.9830  124.2670   57.9970 C   0  0  0  0  0  0  0  0  0  0  0  0
  125.7840  123.6340   58.9570 C   0  0  0  0  0  0  0  0  0  0  0  0
  1  2  1  0
  2  3  1  0
  3  4  1  0
  4  5  1  0
  5  6  1  0
  6  7  1  0
  7  8  1  0
  8  9  1  0
  9 10  1  0
 10 11  2  0
 10 12  1  0
 12 13  1  0
 13 14  1  0
 14 15  2  0
 15 16  1  0
 16 17  2  0
 17 18  1  0
 18 19  2  0
  5 20  2  0
 20 21  1  0
 21 22  2  0
 22 23  1  0
 23 24  2  0
 24 25  1  0
 25 26  2  0
 26  4  1  0
 19 14  1  0
 26 21  1  0
M  END
>  <Binding energies>  (68) 
[-7.13]

>  <Ligand effiencies>  (68) 
[-0.26407407407407407]

>  <Interactions>  (68) 
["V-A:GLU:543:CD:4905, V-B:GLU:543:C:9871, V-A:HIS:456:CE1:4066, V-A:GLU:543:CB:4903, V-B:GLU:543:CB:9875, V-B:ASP:366:CB:8180, V-B:ASN:362:CB:8144, V-B:TYR:539:CE1:9844, V-B:MET:535:CE:9804, V-B:PRO:540:CA:9852, V-B:ASN:362:C:8140, V-B:PRO:540:N:9853, V-B:PRO:540:C:9850, V-B:PRO:540:CB:9854, V-B:ASP:366:CG:8181, V-B:LEU:363:CD1:8157, V-B:LEU:363:CA:8153, V-B:ALA:541:CB:9861, V-B:GLU:543:CG:9876, V-A:TYR:484:CZ:4343, V-B:TYR:539:CE2:9845, V-A:TYR:484:CE1:4341, V-B:GLU:543:CA:9873, H-B:ALA:541:N:9860, V-B:ILE:538:CG2:9832, V-B:ILE:538:CB:9831, V-B:PRO:540:CD:9856, V-B:TYR:539:C:9836, V-B:TYR:539:CD2:9843, V-B:ILE:538:CA:9829, V-B:TYR:539:CD1:9842, H-A:GLY:454:N:4046, H-A:TYR:484:OH:4344"]

$$$$
RR13_Rahimova_2017
     RDKit          3D

 48 54  0  0  0  0  0  0  0  0999 V2000
  130.8330  130.1630   59.2460 Cl  0  0  0  0  0  0  0  0  0  0  0  0
  130.4660  131.0570   57.8090 C   0  0  0  0  0  0  0  0  0  0  0  0
  131.4610  131.8880   57.2880 C   0  0  0  0  0  0  0  0  0  0  0  0
  131.2210  132.6490   56.1470 C   0  0  0  0  0  0  0  0  0  0  0  0
  129.9800  132.5840   55.5190 C   0  0  0  0  0  0  0  0  0  0  0  0
  128.9830  131.7570   56.0320 C   0  0  0  0  0  0  0  0  0  0  0  0
  129.2100  130.9730   57.1750 C   0  0  0  0  0  0  0  0  0  0  0  0
  128.0800  130.0840   57.7380 C   0  0  1  0  0  0  0  0  0  0  0  0
  126.7650  130.3130   56.9760 C   0  0  0  0  0  0  0  0  0  0  0  0
  126.6000  130.2920   55.6720 N   0  0  0  0  0  0  0  0  0  0  0  0
  125.2550  130.5780   55.4540 N   0  0  0  0  0  0  0  0  0  0  0  0
  124.6150  130.7910   56.6590 N   0  0  0  0  0  0  0  0  0  0  0  0
  125.5720  130.6460   57.5810 N   0  0  0  0  0  0  0  0  0  0  0  0
  125.2550  130.7640   58.9990 C   0  0  0  0  0  0  0  0  0  0  0  0
  124.7290  132.1770   59.3130 C   0  0  0  0  0  0  0  0  0  0  0  0
  125.8090  133.0770   59.8940 C   0  0  0  0  0  0  0  0  0  0  0  0
  125.5180  134.4090   60.1980 C   0  0  0  0  0  0  0  0  0  0  0  0
  126.5100  135.2340   60.7220 C   0  0  0  0  0  0  0  0  0  0  0  0
  127.7880  134.7230   60.9420 C   0  0  0  0  0  0  0  0  0  0  0  0
  128.0830  133.3960   60.6400 C   0  0  0  0  0  0  0  0  0  0  0  0
  127.0920  132.5700   60.1150 C   0  0  0  0  0  0  0  0  0  0  0  0
  128.4430  128.6490   57.8190 N   0  0  0  0  0  0  0  0  0  0  0  0
  128.7140  128.1070   56.4740 C   0  0  0  0  0  0  0  0  0  0  0  0
  129.2220  126.6490   56.5620 C   0  0  0  0  0  0  0  0  0  0  0  0
  128.2090  125.7830   57.1860 N   0  0  0  0  0  0  0  0  0  0  0  0
  128.6200  124.3600   57.2160 C   0  0  1  0  0  0  0  0  0  0  0  0
  129.1980  123.8620   58.5590 C   0  0  0  0  0  0  0  0  0  0  0  0
  128.4370  122.9310   59.2780 C   0  0  0  0  0  0  0  0  0  0  0  0
  128.8880  122.4140   60.4910 C   0  0  0  0  0  0  0  0  0  0  0  0
  130.1120  122.8280   61.0100 C   0  0  0  0  0  0  0  0  0  0  0  0
  130.8770  123.7640   60.3190 C   0  0  0  0  0  0  0  0  0  0  0  0
  130.4310  124.2910   59.1040 C   0  0  0  0  0  0  0  0  0  0  0  0
  131.4210  125.5000   58.3580 Cl  0  0  0  0  0  0  0  0  0  0  0  0
  127.5260  123.4070   56.7300 C   0  0  0  0  0  0  0  0  0  0  0  0
  127.6810  122.1250   56.4940 N   0  0  0  0  0  0  0  0  0  0  0  0
  126.4350  121.6560   56.0920 N   0  0  0  0  0  0  0  0  0  0  0  0
  125.5160  122.6850   56.1040 N   0  0  0  0  0  0  0  0  0  0  0  0
  126.2070  123.7520   56.5220 N   0  0  0  0  0  0  0  0  0  0  0  0
  125.5480  125.0490   56.6370 C   0  0  0  0  0  0  0  0  0  0  0  0
  124.2210  124.9110   57.4050 C   0  0  0  0  0  0  0  0  0  0  0  0
  124.4220  124.3450   58.8020 C   0  0  0  0  0  0  0  0  0  0  0  0
  123.3840  123.6530   59.4310 C   0  0  0  0  0  0  0  0  0  0  0  0
  123.5700  123.1290   60.7080 C   0  0  0  0  0  0  0  0  0  0  0  0
  124.7950  123.2990   61.3510 C   0  0  0  0  0  0  0  0  0  0  0  0
  125.8350  123.9880   60.7280 C   0  0  0  0  0  0  0  0  0  0  0  0
  125.6490  124.5120   59.4520 C   0  0  0  0  0  0  0  0  0  0  0  0
  127.9440  126.3240   58.5320 C   0  0  0  0  0  0  0  0  0  0  0  0
  127.4270  127.7790   58.4370 C   0  0  0  0  0  0  0  0  0  0  0  0
  1  2  1  0
  2  3  2  0
  3  4  1  0
  4  5  2  0
  5  6  1  0
  6  7  2  0
  7  8  1  0
  8  9  1  0
  9 10  2  0
 10 11  1  0
 11 12  2  0
 12 13  1  0
 13 14  1  0
 14 15  1  0
 15 16  1  0
 16 17  2  0
 17 18  1  0
 18 19  2  0
 19 20  1  0
 20 21  2  0
  8 22  1  6
 22 23  1  0
 23 24  1  0
 24 25  1  0
 26 25  1  1
 26 27  1  0
 27 28  2  0
 28 29  1  0
 29 30  2  0
 30 31  1  0
 31 32  2  0
 32 33  1  0
 26 34  1  0
 34 35  2  0
 35 36  1  0
 36 37  2  0
 37 38  1  0
 38 39  1  0
 39 40  1  0
 40 41  1  0
 41 42  2  0
 42 43  1  0
 43 44  2  0
 44 45  1  0
 45 46  2  0
 25 47  1  0
 47 48  1  0
  7  2  1  0
 13  9  1  0
 21 16  1  0
 48 22  1  0
 32 27  1  0
 38 34  1  0
 46 41  1  0
M  END
>  <Binding energies>  (69) 
[-13.52]

>  <Ligand effiencies>  (69) 
[-0.2816666666666667]

>  <Interactions>  (69) 
["V-A:TYR:539:CD2:4871, V-A:PRO:540:CB:4882, V-A:ALA:541:CB:4889, V-A:PRO:540:CA:4880, V-A:PRO:540:N:4881, V-A:TYR:539:C:4864, V-B:TRP:381:CZ2:8338, V-B:TRP:381:CH2:8340, V-A:ASP:366:CB:3208, V-A:ASP:366:CG:3209, V-A:TYR:539:CE2:4873, V-B:LEU:475:CD2:9227, V-A:ILE:538:CD1:4862, V-B:ASP:366:CB:8180, V-B:ASN:362:CB:8144, V-B:MET:535:CE:9804, V-B:PRO:540:CA:9852, V-B:TYR:539:CZ:9846, V-B:TYR:531:CE2:9762, V-B:ASN:362:C:8140, V-B:TYR:531:CZ:9763, V-B:ILE:369:CG2:8205, V-B:PRO:540:C:9850, V-B:PRO:540:CB:9854, V-B:ASP:366:CG:8181, H-B:TYR:539:N:9839, V-B:LEU:363:CD1:8157, V-B:LEU:363:CA:8153, H-B:TYR:531:OH:9764, V-B:ALA:541:CB:9861, V-A:ILE:538:CG2:4860, V-A:PRO:540:CD:4884, V-B:GLU:543:CD:9877, V-B:TYR:539:CE2:9845, V-A:ILE:538:CA:4857, V-B:LEU:363:CB:8155, V-B:ASN:362:CA:8142, H-A:TYR:539:OH:4875"]

$$$$
RR14_Rahimova_2017
     RDKit          3D

 39 43  0  0  0  0  0  0  0  0999 V2000
  127.6610  129.7550   65.8200 C   0  0  0  0  0  0  0  0  0  0  0  0
  128.2080  128.8120   66.7350 O   0  0  0  0  0  0  0  0  0  0  0  0
  128.7690  127.6470   66.2460 C   0  0  0  0  0  0  0  0  0  0  0  0
  129.1150  126.6790   67.1900 C   0  0  0  0  0  0  0  0  0  0  0  0
  129.7070  125.4840   66.7930 C   0  0  0  0  0  0  0  0  0  0  0  0
  129.9650  125.2480   65.4410 C   0  0  0  0  0  0  0  0  0  0  0  0
  130.6730  123.9690   65.0100 C   0  0  0  0  0  0  0  0  0  0  0  0
  131.9660  124.2110   64.3690 N   0  0  0  0  0  0  0  0  0  0  0  0
  132.8050  125.1280   64.8640 N   0  0  0  0  0  0  0  0  0  0  0  0
  133.8890  125.1100   64.0090 N   0  0  0  0  0  0  0  0  0  0  0  0
  133.6840  124.1780   62.9970 N   0  0  0  0  0  0  0  0  0  0  0  0
  132.5060  123.6500   63.2330 C   0  0  0  0  0  0  0  0  0  0  0  0
  131.8330  122.5890   62.3730 C   0  0  0  0  0  0  0  0  0  0  0  0
  130.9860  123.1730   61.3190 N   0  0  0  0  0  0  0  0  0  0  0  0
  131.7840  123.7960   60.2560 C   0  0  0  0  0  0  0  0  0  0  0  0
  131.2660  125.1900   59.8380 C   0  0  0  0  0  0  0  0  0  0  0  0
  130.1210  125.1410   58.8050 C   0  0  0  0  0  0  0  0  0  0  0  0
  130.5680  125.3870   57.4300 N   0  0  0  0  0  0  0  0  0  0  0  0
  130.0280  124.3620   56.5270 C   0  0  0  0  0  0  0  0  0  0  0  0
  130.5220  124.5610   55.0790 C   0  0  0  0  0  0  0  0  0  0  0  0
  131.9450  124.6110   55.0500 O   0  0  0  0  0  0  0  0  0  0  0  0
  132.4630  125.6780   55.8370 C   0  0  0  0  0  0  0  0  0  0  0  0
  132.0280  125.5110   57.3090 C   0  0  0  0  0  0  0  0  0  0  0  0
  130.0960  122.1460   60.7600 C   0  0  0  0  0  0  0  0  0  0  0  0
  128.6980  122.6150   60.3620 C   0  0  0  0  0  0  0  0  0  0  0  0
  128.2640  122.5130   59.0820 C   0  0  0  0  0  0  0  0  0  0  0  0
  126.9320  122.9950   58.6630 C   0  0  0  0  0  0  0  0  0  0  0  0
  126.4420  122.8880   57.3500 C   0  0  0  0  0  0  0  0  0  0  0  0
  127.2680  122.2510   56.2400 C   0  0  0  0  0  0  0  0  0  0  0  0
  125.1650  123.3740   57.0590 C   0  0  0  0  0  0  0  0  0  0  0  0
  124.3830  123.9600   58.0530 C   0  0  0  0  0  0  0  0  0  0  0  0
  124.8600  124.0700   59.3620 C   0  0  0  0  0  0  0  0  0  0  0  0
  123.9800  124.7120   60.4260 C   0  0  0  0  0  0  0  0  0  0  0  0
  126.1410  123.5840   59.6660 C   0  0  0  0  0  0  0  0  0  0  0  0
  126.6660  123.6760   60.9720 N   0  0  0  0  0  0  0  0  0  0  0  0
  127.8790  123.2480   61.4010 C   0  0  0  0  0  0  0  0  0  0  0  0
  128.2180  123.4060   62.5740 O   0  0  0  0  0  0  0  0  0  0  0  0
  129.5950  126.1980   64.4870 C   0  0  0  0  0  0  0  0  0  0  0  0
  129.0040  127.3930   64.8850 C   0  0  0  0  0  0  0  0  0  0  0  0
  1  2  1  0
  2  3  1  0
  3  4  2  0
  4  5  1  0
  5  6  2  0
  6  7  1  0
  7  8  1  0
  8  9  1  0
  9 10  2  0
 10 11  1  0
 11 12  2  0
 12 13  1  0
 13 14  1  0
 14 15  1  0
 15 16  1  0
 16 17  1  0
 17 18  1  0
 18 19  1  0
 19 20  1  0
 20 21  1  0
 21 22  1  0
 22 23  1  0
 14 24  1  0
 24 25  1  0
 25 26  2  0
 26 27  1  0
 27 28  2  0
 28 29  1  0
 28 30  1  0
 30 31  2  0
 31 32  1  0
 32 33  1  0
 32 34  2  0
 34 35  1  0
 35 36  1  0
 36 37  2  0
  6 38  1  0
 38 39  2  0
 39  3  1  0
 12  8  1  0
 23 18  1  0
 36 25  1  0
 34 27  1  0
M  END
>  <Binding energies>  (70) 
[-11.24]

>  <Ligand effiencies>  (70) 
[-0.281]

>  <Interactions>  (70) 
["V-A:ASP:366:CB:3208, V-A:ASP:366:CG:3209, V-A:GLU:543:CD:4905, V-A:HIS:456:CE1:4066, V-A:GLU:543:CB:4903, V-B:GLU:543:CB:9875, V-B:HIS:456:CE1:9038, V-B:ASN:362:CB:8144, V-B:TYR:539:CE1:9844, V-B:MET:535:CE:9804, V-B:PRO:540:CA:9852, V-A:ASP:366:C:3204, V-B:TYR:539:CZ:9846, V-B:ASN:362:C:8140, V-A:TYR:531:CE1:4789, V-B:PRO:540:N:9853, V-B:PRO:540:CB:9854, V-B:ASP:366:CG:8181, V-B:LEU:363:CD1:8157, V-B:ALA:541:CB:9861, H-B:GLU:543:OE2:9879, H-B:TYR:539:OH:9847, V-B:GLU:543:CD:9877, V-B:GLU:543:CG:9876, V-A:TYR:484:CZ:4343, H-A:ARG:545:NH2:4925, V-B:TYR:539:CE2:9845, H-A:ARG:545:NE:4921, V-A:TYR:484:CE1:4341, V-A:GLU:543:CG:4904, V-B:ILE:538:CB:9831, V-A:LEU:475:CD1:4254, V-B:TYR:539:C:9836, V-B:TYR:539:CD2:9843, V-B:ILE:538:CA:9829, V-B:TYR:539:CD1:9842, H-A:GLY:454:N:4046, H-A:ARG:545:NH1:4924, V-A:GLY:454:CA:4045, H-A:TYR:484:OH:4344"]

$$$$
RR15_Rahimova_2017
     RDKit          3D

 45 49  0  0  0  0  0  0  0  0999 V2000
  130.2080  125.8080   72.8590 C   0  0  0  0  0  0  0  0  0  0  0  0
  130.1430  127.1170   72.3020 O   0  0  0  0  0  0  0  0  0  0  0  0
  129.8670  127.2720   70.9550 C   0  0  0  0  0  0  0  0  0  0  0  0
  130.7760  127.8110   70.0320 C   0  0  0  0  0  0  0  0  0  0  0  0
  130.4330  127.9420   68.6880 C   0  0  0  0  0  0  0  0  0  0  0  0
  129.1750  127.5410   68.2290 C   0  0  0  0  0  0  0  0  0  0  0  0
  128.8020  127.6880   66.7790 C   0  0  0  0  0  0  0  0  0  0  0  0
  127.9690  128.6220   66.3400 N   0  0  0  0  0  0  0  0  0  0  0  0
  127.8700  128.4350   64.9770 N   0  0  0  0  0  0  0  0  0  0  0  0
  128.7000  127.4190   64.7380 N   0  0  0  0  0  0  0  0  0  0  0  0
  128.7830  126.7790   63.4260 C   0  0  0  0  0  0  0  0  0  0  0  0
  129.4940  127.6200   62.3370 C   0  0  0  0  0  0  0  0  0  0  0  0
  130.7270  127.6150   62.3090 O   0  0  0  0  0  0  0  0  0  0  0  0
  128.7490  128.3140   61.4230 N   0  0  0  0  0  0  0  0  0  0  0  0
  129.1120  129.6870   61.0200 C   0  0  0  0  0  0  0  0  0  0  0  0
  130.3040  129.7480   60.0400 C   0  0  0  0  0  0  0  0  0  0  0  0
  130.6440  131.1650   59.5200 C   0  0  0  0  0  0  0  0  0  0  0  0
  130.3250  131.3660   58.1030 N   0  0  0  0  0  0  0  0  0  0  0  0
  129.1760  132.2570   57.8800 C   0  0  0  0  0  0  0  0  0  0  0  0
  128.9360  132.5030   56.3750 C   0  0  0  0  0  0  0  0  0  0  0  0
  130.1240  132.9930   55.7620 O   0  0  0  0  0  0  0  0  0  0  0  0
  131.2120  132.0840   55.8870 C   0  0  0  0  0  0  0  0  0  0  0  0
  131.5170  131.8290   57.3790 C   0  0  0  0  0  0  0  0  0  0  0  0
  127.6460  127.6980   60.6230 C   0  0  2  0  0  0  0  0  0  0  0  0
  127.9090  126.2160   60.2110 C   0  0  0  0  0  0  0  0  0  0  0  0
  128.7920  125.9280   59.4030 O   0  0  0  0  0  0  0  0  0  0  0  0
  127.1430  125.2970   60.8250 N   0  0  0  0  0  0  0  0  0  0  0  0
  127.2770  123.8520   60.6780 C   0  0  0  0  0  0  0  0  0  0  0  0
  125.9550  123.2150   60.2120 C   0  0  2  0  0  0  0  0  0  0  0  0
  125.1960  123.9920   59.1210 C   0  0  0  0  0  0  0  0  0  0  0  0
  124.0950  124.7100   59.8640 C   0  0  0  0  0  0  0  0  0  0  0  0
  123.7800  123.7150   60.9670 C   0  0  0  0  0  0  0  0  0  0  0  0
  125.0730  123.2520   61.3430 O   0  0  0  0  0  0  0  0  0  0  0  0
  127.1710  128.6550   59.5360 C   0  0  0  0  0  0  0  0  0  0  0  0
  127.5720  128.4070   58.2170 C   0  0  0  0  0  0  0  0  0  0  0  0
  127.1700  129.2470   57.1840 C   0  0  0  0  0  0  0  0  0  0  0  0
  126.3590  130.3440   57.4610 C   0  0  0  0  0  0  0  0  0  0  0  0
  125.9670  131.1600   56.4570 F   0  0  0  0  0  0  0  0  0  0  0  0
  125.9480  130.6060   58.7650 C   0  0  0  0  0  0  0  0  0  0  0  0
  126.3520  129.7660   59.7990 C   0  0  0  0  0  0  0  0  0  0  0  0
  129.2700  126.8980   65.8310 N   0  0  0  0  0  0  0  0  0  0  0  0
  128.2700  127.0010   69.1520 C   0  0  0  0  0  0  0  0  0  0  0  0
  128.6020  126.8590   70.5100 C   0  0  0  0  0  0  0  0  0  0  0  0
  127.7440  126.3290   71.4580 O   0  0  0  0  0  0  0  0  0  0  0  0
  127.1570  127.1860   72.4320 C   0  0  0  0  0  0  0  0  0  0  0  0
  1  2  1  0
  2  3  1  0
  3  4  2  0
  4  5  1  0
  5  6  2  0
  6  7  1  0
  7  8  1  0
  8  9  2  0
  9 10  1  0
 10 11  1  0
 11 12  1  0
 12 13  2  0
 12 14  1  0
 14 15  1  0
 15 16  1  0
 16 17  1  0
 17 18  1  0
 18 19  1  0
 19 20  1  0
 20 21  1  0
 21 22  1  0
 22 23  1  0
 24 14  1  6
 24 25  1  0
 25 26  2  0
 25 27  1  0
 27 28  1  0
 29 28  1  1
 29 30  1  0
 30 31  1  0
 31 32  1  0
 32 33  1  0
 24 34  1  0
 34 35  2  0
 35 36  1  0
 36 37  2  0
 37 38  1  0
 37 39  1  0
 39 40  2  0
 10 41  1  0
  6 42  1  0
 42 43  2  0
 43 44  1  0
 44 45  1  0
 43  3  1  0
 41  7  2  0
 23 18  1  0
 33 29  1  0
 40 34  1  0
M  END
>  <Binding energies>  (71) 
[-9.13]

>  <Ligand effiencies>  (71) 
[-0.19847826086956524]

>  <Interactions>  (71) 
["V-A:TYR:539:CD2:4871, V-A:PRO:540:CB:4882, V-A:PRO:540:CA:4880, V-A:PRO:540:N:4881, V-A:TYR:539:C:4864, V-A:GLU:543:CD:4905, V-A:TYR:539:CE2:4873, V-B:LYS:547:CE:9919, V-B:HIS:456:CG:9034, H-A:LYS:547:NZ:4948, V-A:GLY:544:C:4909, V-A:HIS:456:CE1:4066, V-A:GLU:543:C:4899, V-A:GLU:543:CB:4903, V-A:HIS:456:CD2:4064, V-B:HIS:456:CE1:9038, V-B:GLY:544:C:9881, V-B:HIS:456:CD2:9036, V-A:ILE:538:CD1:4862, V-B:ASN:362:CB:8144, V-B:PRO:540:CA:9852, H-B:ASP:366:OD1:8182, V-B:ASN:362:C:8140, V-B:PRO:540:C:9850, V-B:PRO:540:CB:9854, V-B:ASP:366:CG:8181, V-A:ILE:538:CG2:4860, V-A:TYR:539:CZ:4874, H-B:GLU:543:OE2:9879, V-B:GLU:543:CD:9877, H-A:ARG:545:NH2:4925, H-B:ALA:541:N:9860, H-A:TYR:539:N:4867, V-A:TYR:539:CG:4869, V-B:ASN:362:CA:8142"]

$$$$
RR17_Rahimova_2017
     RDKit          3D

 38 41  0  0  0  0  0  0  0  0999 V2000
  127.1070  122.9470   60.5350 C   0  0  0  0  0  0  0  0  0  0  0  0
  128.3800  122.2620   60.0280 C   0  0  0  0  0  0  0  0  0  0  0  0
  129.1060  121.7610   61.1470 O   0  0  0  0  0  0  0  0  0  0  0  0
  130.0470  122.5680   61.7600 C   0  0  0  0  0  0  0  0  0  0  0  0
  130.7000  122.0310   62.8680 C   0  0  0  0  0  0  0  0  0  0  0  0
  131.6620  122.7680   63.5510 C   0  0  0  0  0  0  0  0  0  0  0  0
  131.9910  124.0670   63.1380 C   0  0  0  0  0  0  0  0  0  0  0  0
  133.0330  124.8390   63.8940 C   0  0  0  0  0  0  0  0  0  0  0  0
  134.2350  124.7660   63.6240 O   0  0  0  0  0  0  0  0  0  0  0  0
  132.5400  125.7330   65.0540 C   0  0  0  0  0  0  0  0  0  0  0  0
  131.0820  125.0240   65.8990 S   0  0  0  0  0  0  0  0  0  0  0  0
  129.8490  126.2000   65.4170 C   0  0  0  0  0  0  0  0  0  0  0  0
  129.4230  126.3960   64.1910 N   0  0  0  0  0  0  0  0  0  0  0  0
  128.4550  127.3920   64.2310 N   0  0  0  0  0  0  0  0  0  0  0  0
  128.3290  127.7580   65.4820 C   0  0  0  0  0  0  0  0  0  0  0  0
  127.3610  128.8220   65.9770 C   0  0  0  0  0  0  0  0  0  0  0  0
  126.0970  128.8570   65.2450 N   0  0  0  0  0  0  0  0  0  0  0  0
  125.6670  129.9590   64.4840 C   0  0  0  0  0  0  0  0  0  0  0  0
  124.5430  129.7820   63.6760 C   0  0  0  0  0  0  0  0  0  0  0  0
  124.0670  130.8290   62.8930 C   0  0  0  0  0  0  0  0  0  0  0  0
  124.7080  132.0710   62.9120 C   0  0  0  0  0  0  0  0  0  0  0  0
  124.1760  133.2090   62.0420 C   0  0  0  0  0  0  0  0  0  0  0  0
  123.7840  132.7840   60.8380 F   0  0  0  0  0  0  0  0  0  0  0  0
  123.1330  133.7960   62.6300 F   0  0  0  0  0  0  0  0  0  0  0  0
  125.1380  134.1160   61.8720 F   0  0  0  0  0  0  0  0  0  0  0  0
  125.8300  132.2530   63.7270 C   0  0  0  0  0  0  0  0  0  0  0  0
  126.3050  131.2060   64.5110 C   0  0  0  0  0  0  0  0  0  0  0  0
  129.1950  127.0480   66.2880 N   0  0  0  0  0  0  0  0  0  0  0  0
  129.3500  127.1450   67.6790 C   0  0  0  0  0  0  0  0  0  0  0  0
  130.4910  127.7510   68.2030 C   0  0  0  0  0  0  0  0  0  0  0  0
  130.6460  127.8430   69.5840 C   0  0  0  0  0  0  0  0  0  0  0  0
  129.6600  127.3310   70.4430 C   0  0  0  0  0  0  0  0  0  0  0  0
  129.7290  127.3790   71.8220 O   0  0  0  0  0  0  0  0  0  0  0  0
  128.5690  127.0640   72.5860 C   0  0  0  0  0  0  0  0  0  0  0  0
  128.5250  126.7260   69.9000 C   0  0  0  0  0  0  0  0  0  0  0  0
  128.3630  126.6310   68.5200 C   0  0  0  0  0  0  0  0  0  0  0  0
  131.3330  124.6070   62.0230 C   0  0  0  0  0  0  0  0  0  0  0  0
  130.3720  123.8660   61.3400 C   0  0  0  0  0  0  0  0  0  0  0  0
  1  2  1  0
  2  3  1  0
  3  4  1  0
  4  5  2  0
  5  6  1  0
  6  7  2  0
  7  8  1  0
  8  9  2  0
  8 10  1  0
 10 11  1  0
 11 12  1  0
 12 13  2  0
 13 14  1  0
 14 15  2  0
 15 16  1  0
 16 17  1  0
 17 18  1  0
 18 19  2  0
 19 20  1  0
 20 21  2  0
 21 22  1  0
 22 23  1  0
 22 24  1  0
 22 25  1  0
 21 26  1  0
 26 27  2  0
 15 28  1  0
 28 29  1  0
 29 30  2  0
 30 31  1  0
 31 32  2  0
 32 33  1  0
 33 34  1  0
 32 35  1  0
 35 36  2  0
  7 37  1  0
 37 38  2  0
 38  4  1  0
 28 12  1  0
 36 29  1  0
 27 18  1  0
M  END
>  <Binding energies>  (72) 
[-8.6]

>  <Ligand effiencies>  (72) 
[-0.2205128205128205]

>  <Interactions>  (72) 
["V-A:GLU:543:CD:4905, V-B:LEU:475:CD2:9227, V-B:LYS:547:CE:9919, H-A:LYS:547:NZ:4948, V-A:GLY:544:C:4909, V-A:HIS:456:CE1:4066, V-A:GLU:543:C:4899, V-A:GLU:543:CB:4903, V-A:HIS:456:CD2:4064, V-B:GLU:543:CB:9875, V-B:HIS:456:CE1:9038, V-B:HIS:456:CD2:9036, V-B:PRO:540:CA:9852, V-B:ILE:369:CG2:8205, V-B:PRO:540:C:9850, V-B:ASP:366:CG:8181, V-B:ALA:541:CB:9861, H-B:GLU:543:OE1:9878, V-B:GLU:543:CD:9877, V-A:ARG:545:CZ:4923, H-A:ARG:545:NH2:4925, V-B:TYR:539:CE2:9845, V-A:LEU:475:CD1:4254, V-B:TYR:539:CD2:9843, V-B:ILE:369:CD1:8207, H-A:GLY:454:N:4046, H-A:ARG:545:NH1:4924, V-B:ARG:545:CZ:9895, H-A:TYR:484:OH:4344, V-B:GLY:454:CA:9017, V-B:ILE:369:CB:8204, V-B:ILE:369:CG1:8206, V-B:SER:385:C:8373"]

$$$$
RR19_Rahimova_2017
     RDKit          3D

 46 51  0  0  0  0  0  0  0  0999 V2000
  129.5140  121.0800   61.5650 O   0  0  0  0  0  0  0  0  0  0  0  0
  129.4970  122.3040   61.4030 C   0  0  0  0  0  0  0  0  0  0  0  0
  129.5580  123.2380   62.3860 N   0  0  0  0  0  0  0  0  0  0  0  0
  129.8610  123.1710   63.7240 C   0  0  0  0  0  0  0  0  0  0  0  0
  130.5150  121.8280   64.5200 S   0  0  0  0  0  0  0  0  0  0  0  0
  129.5460  124.3730   64.3060 N   0  0  0  0  0  0  0  0  0  0  0  0
  129.7670  124.8880   65.5420 C   0  0  0  0  0  0  0  0  0  0  0  0
  130.5030  124.4130   66.4110 O   0  0  0  0  0  0  0  0  0  0  0  0
  128.9720  126.1850   65.8350 C   0  0  2  0  0  0  0  0  0  0  0  0
  129.1370  127.3060   64.7680 C   0  0  0  0  0  0  0  0  0  0  0  0
  127.9110  128.1780   64.5510 C   0  0  0  0  0  0  0  0  0  0  0  0
  127.2420  128.1910   63.3070 C   0  0  0  0  0  0  0  0  0  0  0  0
  126.0790  128.9330   63.1510 C   0  0  0  0  0  0  0  0  0  0  0  0
  125.5570  129.6500   64.2210 C   0  0  0  0  0  0  0  0  0  0  0  0
  126.1870  129.6220   65.4590 C   0  0  0  0  0  0  0  0  0  0  0  0
  127.3500  128.8850   65.6360 C   0  0  0  0  0  0  0  0  0  0  0  0
  129.2500  126.6910   67.2070 N   0  0  0  0  0  0  0  0  0  0  0  0
  128.3140  126.6110   68.1950 C   0  0  0  0  0  0  0  0  0  0  0  0
  127.1670  126.1670   68.1040 O   0  0  0  0  0  0  0  0  0  0  0  0
  128.9670  127.1660   69.4060 C   0  0  0  0  0  0  0  0  0  0  0  0
  128.4880  127.3390   70.7050 C   0  0  0  0  0  0  0  0  0  0  0  0
  129.3420  127.8920   71.6660 C   0  0  0  0  0  0  0  0  0  0  0  0
  130.6500  128.2590   71.3200 C   0  0  0  0  0  0  0  0  0  0  0  0
  131.1110  128.0760   70.0120 C   0  0  0  0  0  0  0  0  0  0  0  0
  130.2430  127.5250   69.0690 C   0  0  0  0  0  0  0  0  0  0  0  0
  130.4420  127.2070   67.6330 C   0  0  0  0  0  0  0  0  0  0  0  0
  131.4690  127.3670   66.9710 O   0  0  0  0  0  0  0  0  0  0  0  0
  129.3810  122.8850   59.9690 C   0  0  2  0  0  0  0  0  0  0  0  0
  130.4460  123.9720   59.6420 C   0  0  0  0  0  0  0  0  0  0  0  0
  131.6650  123.9310   60.5450 C   0  0  0  0  0  0  0  0  0  0  0  0
  132.7200  123.0340   60.2700 C   0  0  0  0  0  0  0  0  0  0  0  0
  133.8780  123.0690   61.0370 C   0  0  0  0  0  0  0  0  0  0  0  0
  134.0160  124.0020   62.0550 C   0  0  0  0  0  0  0  0  0  0  0  0
  133.0030  124.9180   62.3110 C   0  0  0  0  0  0  0  0  0  0  0  0
  131.8370  124.8990   61.5580 C   0  0  0  0  0  0  0  0  0  0  0  0
  128.0060  123.3470   59.6270 N   0  0  0  0  0  0  0  0  0  0  0  0
  127.3690  124.3050   60.3580 C   0  0  0  0  0  0  0  0  0  0  0  0
  127.7930  124.8860   61.3580 O   0  0  0  0  0  0  0  0  0  0  0  0
  126.0570  124.4990   59.6930 C   0  0  0  0  0  0  0  0  0  0  0  0
  124.9910  125.3450   60.0030 C   0  0  0  0  0  0  0  0  0  0  0  0
  123.8560  125.3210   59.1840 C   0  0  0  0  0  0  0  0  0  0  0  0
  123.8020  124.4630   58.0770 C   0  0  0  0  0  0  0  0  0  0  0  0
  124.8820  123.6240   57.7820 C   0  0  0  0  0  0  0  0  0  0  0  0
  126.0040  123.6620   58.6120 C   0  0  0  0  0  0  0  0  0  0  0  0
  127.2800  122.9100   58.5560 C   0  0  0  0  0  0  0  0  0  0  0  0
  127.6150  122.0690   57.7200 O   0  0  0  0  0  0  0  0  0  0  0  0
  1  2  2  0
  2  3  1  0
  3  4  1  0
  4  5  2  0
  4  6  1  0
  6  7  1  0
  7  8  2  0
  7  9  1  0
  9 10  1  6
 10 11  1  0
 11 12  2  0
 12 13  1  0
 13 14  2  0
 14 15  1  0
 15 16  2  0
  9 17  1  0
 17 18  1  0
 18 19  2  0
 18 20  1  0
 20 21  2  0
 21 22  1  0
 22 23  2  0
 23 24  1  0
 24 25  2  0
 25 26  1  0
 26 27  2  0
  2 28  1  0
 28 29  1  1
 29 30  1  0
 30 31  2  0
 31 32  1  0
 32 33  2  0
 33 34  1  0
 34 35  2  0
 28 36  1  0
 36 37  1  0
 37 38  2  0
 37 39  1  0
 39 40  2  0
 40 41  1  0
 41 42  2  0
 42 43  1  0
 43 44  2  0
 44 45  1  0
 45 46  2  0
 16 11  1  0
 26 17  1  0
 35 30  1  0
 45 36  1  0
 25 20  1  0
 44 39  1  0
M  END
>  <Binding energies>  (73) 
[-11.29]

>  <Ligand effiencies>  (73) 
[-0.23520833333333332]

>  <Interactions>  (73) 
["V-A:ASP:366:CG:3209, V-A:GLU:543:CD:4905, V-A:GLY:544:C:4909, V-A:HIS:456:CE1:4066, V-A:GLU:543:C:4899, V-A:GLU:543:CB:4903, V-A:HIS:456:CD2:4064, V-B:GLU:543:CB:9875, V-A:GLY:544:CA:4911, V-B:HIS:456:CE1:9038, V-B:HIS:456:CD2:9036, V-B:ASP:366:CB:8180, V-B:PRO:540:CA:9852, V-B:TYR:539:CZ:9846, V-B:PRO:540:N:9853, V-B:PRO:540:CB:9854, V-B:ASP:366:CG:8181, H-B:TYR:539:N:9839, V-B:LEU:363:CD1:8157, V-B:LEU:363:CA:8153, V-B:ALA:541:CB:9861, H-B:GLU:543:OE2:9879, H-B:GLU:543:OE1:9878, V-B:GLU:543:CD:9877, V-B:GLU:543:CG:9876, V-A:ARG:545:CZ:4923, V-A:TYR:484:CZ:4343, V-B:TYR:539:CE2:9845, V-A:TYR:484:CE1:4341, V-A:LEU:475:CD1:4254, V-B:TYR:539:CD2:9843, V-B:LEU:363:CB:8155, V-A:GLY:454:CA:4045, V-B:ARG:545:CZ:9895, V-A:GLY:453:C:4038, V-A:GLY:453:CA:4040, H-A:TYR:484:OH:4344, V-A:LEU:475:CD2:4255, V-A:LEU:475:CG:4253"]

$$$$
RR1_Rahimova_2017
     RDKit          3D

 41 44  0  0  0  0  0  0  0  0999 V2000
  124.1940  130.8270   56.5210 C   0  0  0  0  0  0  0  0  0  0  0  0
  123.9520  131.6750   57.6380 O   0  0  0  0  0  0  0  0  0  0  0  0
  124.4670  131.3290   58.8720 C   0  0  0  0  0  0  0  0  0  0  0  0
  125.5740  130.4870   59.0590 C   0  0  0  0  0  0  0  0  0  0  0  0
  126.0180  130.1870   60.3440 C   0  0  0  0  0  0  0  0  0  0  0  0
  125.3720  130.7250   61.4580 C   0  0  0  0  0  0  0  0  0  0  0  0
  125.8670  130.3260   62.7140 N   0  0  0  0  0  0  0  0  0  0  0  0
  125.2180  130.2160   63.8930 C   0  0  0  0  0  0  0  0  0  0  0  0
  124.0420  130.5290   64.0790 O   0  0  0  0  0  0  0  0  0  0  0  0
  126.0720  129.6580   65.0440 C   0  0  0  0  0  0  0  0  0  0  0  0
  127.8740  129.9080   64.8750 S   0  0  0  0  0  0  0  0  0  0  0  0
  128.3970  128.6260   65.9640 C   0  0  0  0  0  0  0  0  0  0  0  0
  128.4040  128.7250   67.2690 N   0  0  0  0  0  0  0  0  0  0  0  0
  128.8520  127.5420   67.6760 C   0  0  0  0  0  0  0  0  0  0  0  0
  129.0110  127.2000   69.1300 C   0  0  0  0  0  0  0  0  0  0  0  0
  128.1440  126.3010   69.7720 C   0  0  0  0  0  0  0  0  0  0  0  0
  128.3150  126.0040   71.1260 C   0  0  0  0  0  0  0  0  0  0  0  0
  129.3590  126.6190   71.8140 C   0  0  0  0  0  0  0  0  0  0  0  0
  130.2150  127.4930   71.2260 N   0  0  0  0  0  0  0  0  0  0  0  0
  130.0330  127.7670   69.9090 C   0  0  0  0  0  0  0  0  0  0  0  0
  129.1450  126.6870   66.7150 N   0  0  0  0  0  0  0  0  0  0  0  0
  128.8540  127.3820   65.6110 N   0  0  0  0  0  0  0  0  0  0  0  0
  129.0160  126.7790   64.2880 C   0  0  0  0  0  0  0  0  0  0  0  0
  128.6760  127.7030   63.1060 C   0  0  0  0  0  0  0  0  0  0  0  0
  127.5090  128.0500   62.8890 O   0  0  0  0  0  0  0  0  0  0  0  0
  129.7300  128.0810   62.3590 N   0  0  0  0  0  0  0  0  0  0  0  0
  129.5230  129.0300   61.3670 N   0  0  0  0  0  0  0  0  0  0  0  0
  130.0720  128.8040   60.1540 C   0  0  0  0  0  0  0  0  0  0  0  0
  130.6580  127.7620   59.8420 O   0  0  0  0  0  0  0  0  0  0  0  0
  129.9080  129.9190   59.1420 C   0  0  0  0  0  0  0  0  0  0  0  0
  130.7460  129.9770   58.0230 C   0  0  0  0  0  0  0  0  0  0  0  0
  130.6210  130.9990   57.0880 C   0  0  0  0  0  0  0  0  0  0  0  0
  129.6530  132.0040   57.2480 C   0  0  0  0  0  0  0  0  0  0  0  0
  129.4850  133.0540   56.3630 O   0  0  0  0  0  0  0  0  0  0  0  0
  128.7090  132.8620   55.1860 C   0  0  0  0  0  0  0  0  0  0  0  0
  128.8090  131.9680   58.3650 C   0  0  0  0  0  0  0  0  0  0  0  0
  127.8850  132.9930   58.4870 O   0  0  0  0  0  0  0  0  0  0  0  0
  127.4290  133.3800   59.7790 C   0  0  0  0  0  0  0  0  0  0  0  0
  128.9410  130.9260   59.3000 C   0  0  0  0  0  0  0  0  0  0  0  0
  124.2660  131.5680   61.2750 C   0  0  0  0  0  0  0  0  0  0  0  0
  123.8250  131.8660   59.9880 C   0  0  0  0  0  0  0  0  0  0  0  0
  1  2  1  0
  2  3  1  0
  3  4  2  0
  4  5  1  0
  5  6  2  0
  6  7  1  0
  7  8  1  0
  8  9  2  0
  8 10  1  0
 10 11  1  0
 11 12  1  0
 12 13  2  0
 13 14  1  0
 14 15  1  0
 15 16  2  0
 16 17  1  0
 17 18  2  0
 18 19  1  0
 19 20  2  0
 14 21  2  0
 21 22  1  0
 22 23  1  0
 23 24  1  0
 24 25  2  0
 24 26  1  0
 26 27  1  0
 27 28  1  0
 28 29  2  0
 28 30  1  0
 30 31  2  0
 31 32  1  0
 32 33  2  0
 33 34  1  0
 34 35  1  0
 33 36  1  0
 36 37  1  0
 37 38  1  0
 36 39  2  0
  6 40  1  0
 40 41  2  0
 41  3  1  0
 22 12  1  0
 39 30  1  0
 20 15  1  0
M  END
>  <Binding energies>  (74) 
[-8.25]

>  <Ligand effiencies>  (74) 
[-0.1875]

>  <Interactions>  (74) 
["V-A:TYR:539:CD2:4871, H-A:GLU:543:OE1:4906, H-A:GLU:543:OE2:4907, V-A:TYR:539:C:4864, V-A:GLU:543:CD:4905, V-A:TYR:539:CE2:4873, V-B:GLU:543:C:9871, V-B:LYS:547:CE:9919, H-A:LYS:547:NZ:4948, V-A:HIS:456:CE1:4066, V-A:GLU:543:CB:4903, V-A:HIS:456:CD2:4064, V-B:HIS:456:CE1:9038, V-B:GLY:544:C:9881, V-A:ILE:538:CD1:4862, V-B:ASP:366:CB:8180, V-B:TYR:531:CZ:9763, V-B:ILE:369:CG2:8205, V-B:ASP:366:CG:8181, V-A:TYR:539:CZ:4874, V-B:GLU:543:CD:9877, V-A:GLU:543:CG:4904, V-A:TYR:539:CD1:4870, V-A:ILE:538:CA:4857, V-A:TYR:539:CE1:4872, V-B:ILE:369:CD1:8207, H-A:TYR:539:N:4867, H-B:GLY:454:N:9018, V-B:TYR:531:CE1:9761, V-A:TYR:539:CG:4869, V-B:ILE:369:CB:8204, V-B:ASP:366:C:8176, H-A:TYR:539:OH:4875"]

$$$$
RR22_Rahimova_2017
     RDKit          3D

 31 36  0  0  0  0  0  0  0  0999 V2000
  127.0940  136.1600   61.5300 O   0  0  0  0  0  0  0  0  0  0  0  0
  126.8960  134.9580   61.3710 C   0  0  0  0  0  0  0  0  0  0  0  0
  126.6270  134.2960   60.1860 N   0  0  0  0  0  0  0  0  0  0  0  0
  126.4810  132.8730   60.1630 C   0  0  1  0  0  0  0  0  0  0  0  0
  125.1970  132.6370   59.5790 O   0  0  0  0  0  0  0  0  0  0  0  0
  125.1300  131.8860   58.4040 C   0  0  0  0  0  0  0  0  0  0  0  0
  123.9480  131.9830   57.6710 C   0  0  0  0  0  0  0  0  0  0  0  0
  123.7910  131.2310   56.5060 C   0  0  0  0  0  0  0  0  0  0  0  0
  124.8120  130.3790   56.0820 C   0  0  0  0  0  0  0  0  0  0  0  0
  125.9950  130.2820   56.8170 C   0  0  0  0  0  0  0  0  0  0  0  0
  126.1760  131.0490   57.9720 C   0  0  0  0  0  0  0  0  0  0  0  0
  127.3990  130.9840   58.8590 C   0  0  1  0  0  0  0  0  0  0  0  0
  128.7840  130.6960   58.3170 C   0  0  0  0  0  0  0  0  0  0  0  0
  129.6290  131.4770   59.3270 C   0  0  0  0  0  0  0  0  0  0  0  0
  131.0740  131.2390   59.5130 C   0  0  0  0  0  0  0  0  0  0  0  0
  131.8890  130.9120   58.4200 C   0  0  0  0  0  0  0  0  0  0  0  0
  133.2520  130.6890   58.6000 C   0  0  0  0  0  0  0  0  0  0  0  0
  133.8070  130.7920   59.8720 C   0  0  0  0  0  0  0  0  0  0  0  0
  133.0110  131.1170   60.9680 C   0  0  0  0  0  0  0  0  0  0  0  0
  131.6490  131.3410   60.7890 C   0  0  0  0  0  0  0  0  0  0  0  0
  128.9230  132.3500   59.9420 N   0  0  0  0  0  0  0  0  0  0  0  0
  127.6130  132.2760   59.4380 N   0  0  0  0  0  0  0  0  0  0  0  0
  126.4030  132.4200   61.6130 C   0  0  0  0  0  0  0  0  0  0  0  0
  125.9290  131.2070   61.9820 C   0  0  0  0  0  0  0  0  0  0  0  0
  125.8170  130.6370   63.3390 C   0  0  0  0  0  0  0  0  0  0  0  0
  126.9240  130.2080   64.0850 C   0  0  0  0  0  0  0  0  0  0  0  0
  126.7410  129.6780   65.3630 C   0  0  0  0  0  0  0  0  0  0  0  0
  125.4430  129.5840   65.8640 C   0  0  0  0  0  0  0  0  0  0  0  0
  124.3530  129.9830   65.1620 N   0  0  0  0  0  0  0  0  0  0  0  0
  124.5520  130.4970   63.9210 C   0  0  0  0  0  0  0  0  0  0  0  0
  126.9110  133.7190   62.7020 S   0  0  0  0  0  0  0  0  0  0  0  0
  1  2  2  0
  2  3  1  0
  4  3  1  1
  4  5  1  0
  5  6  1  0
  6  7  2  0
  7  8  1  0
  8  9  2  0
  9 10  1  0
 10 11  2  0
 11 12  1  0
 12 13  1  6
 13 14  1  0
 14 15  1  0
 15 16  2  0
 16 17  1  0
 17 18  2  0
 18 19  1  0
 19 20  2  0
 14 21  2  0
 21 22  1  0
  4 23  1  0
 23 24  2  0
 24 25  1  0
 25 26  2  0
 26 27  1  0
 27 28  2  0
 28 29  1  0
 29 30  2  0
 23 31  1  0
 31  2  1  0
 22  4  1  0
 30 25  1  0
 11  6  1  0
 22 12  1  0
 20 15  1  0
M  END
>  <Binding energies>  (75) 
[-8.99]

>  <Ligand effiencies>  (75) 
[-0.2809375]

>  <Interactions>  (75) 
["V-A:TYR:539:CD2:4871, V-A:PRO:540:CB:4882, V-A:ALA:541:CB:4889, V-A:PRO:540:CA:4880, V-A:LEU:363:CA:3181, V-A:ASP:366:CG:3209, V-A:ASN:362:CB:3172, V-A:GLU:543:CD:4905, V-A:ASN:362:C:3168, V-A:TYR:539:CE2:4873, V-B:LEU:475:CD2:9227, V-B:HIS:456:CE1:9038, V-B:TYR:531:CZ:9763, V-B:ILE:369:CG2:8205, V-A:TYR:539:CZ:4874, H-A:TYR:539:O:4865, H-B:TYR:484:OH:9316, H-B:GLY:454:N:9018, V-A:ASN:362:CA:3170, V-B:TYR:531:CE1:9761, V-B:ILE:369:CB:8204, V-B:ASP:366:C:8176, V-B:ASN:370:CB:8213"]

$$$$
RR24_Rahimova_2017
     RDKit          3D

 43 49  0  0  0  0  0  0  0  0999 V2000
  128.0740  133.8570   60.8240 C   0  0  0  0  0  0  0  0  0  0  0  0
  127.9320  132.5870   59.9720 C   0  0  2  0  0  0  0  0  0  0  0  0
  127.1750  131.4390   60.7020 C   0  0  0  0  0  0  0  0  0  0  0  0
  125.9890  131.1840   60.4700 O   0  0  0  0  0  0  0  0  0  0  0  0
  127.9580  130.7960   61.6170 O   0  0  0  0  0  0  0  0  0  0  0  0
  128.1780  129.4430   61.4920 C   0  0  0  0  0  0  0  0  0  0  0  0
  127.2400  128.5470   62.0100 C   0  0  0  0  0  0  0  0  0  0  0  0
  127.4470  127.1760   61.8810 C   0  0  0  0  0  0  0  0  0  0  0  0
  128.5860  126.6960   61.2280 C   0  0  0  0  0  0  0  0  0  0  0  0
  128.8180  125.1850   61.1070 C   0  0  1  0  0  0  0  0  0  0  0  0
  128.1060  124.5890   59.8700 C   0  0  0  0  0  0  0  0  0  0  0  0
  128.7360  123.8120   58.9710 C   0  0  0  0  0  0  0  0  0  0  0  0
  130.0670  123.4910   59.0850 N   0  0  0  0  0  0  0  0  0  0  0  0
  130.8250  123.9540   60.1340 C   0  0  0  0  0  0  0  0  0  0  0  0
  132.1180  123.5390   60.1060 N   0  0  0  0  0  0  0  0  0  0  0  0
  133.0370  123.9600   61.0180 C   0  0  0  0  0  0  0  0  0  0  0  0
  134.2370  123.8190   60.7720 O   0  0  0  0  0  0  0  0  0  0  0  0
  132.4970  124.6690   62.0790 N   0  0  0  0  0  0  0  0  0  0  0  0
  133.4400  125.0710   63.1440 C   0  0  0  0  0  0  0  0  0  0  0  0
  131.2030  125.1420   62.2080 C   0  0  0  0  0  0  0  0  0  0  0  0
  130.8030  125.8160   63.1620 O   0  0  0  0  0  0  0  0  0  0  0  0
  130.3140  124.7530   61.1080 C   0  0  0  0  0  0  0  0  0  0  0  0
  127.8260  123.3960   57.9170 C   0  0  0  0  0  0  0  0  0  0  0  0
  127.9860  122.6080   56.7770 C   0  0  0  0  0  0  0  0  0  0  0  0
  126.8890  122.3880   55.9400 C   0  0  0  0  0  0  0  0  0  0  0  0
  125.6470  122.9510   56.2450 C   0  0  0  0  0  0  0  0  0  0  0  0
  125.4920  123.7390   57.3890 C   0  0  0  0  0  0  0  0  0  0  0  0
  126.5920  123.9570   58.2200 C   0  0  0  0  0  0  0  0  0  0  0  0
  126.7090  124.7330   59.4730 C   0  0  0  0  0  0  0  0  0  0  0  0
  125.8550  125.3730   60.0850 O   0  0  0  0  0  0  0  0  0  0  0  0
  129.5140  127.5970   60.6950 C   0  0  0  0  0  0  0  0  0  0  0  0
  129.3070  128.9670   60.8220 C   0  0  0  0  0  0  0  0  0  0  0  0
  129.2410  132.1390   59.4120 N   0  0  0  0  0  0  0  0  0  0  0  0
  129.4220  131.9680   58.0720 C   0  0  0  0  0  0  0  0  0  0  0  0
  128.5910  132.1360   57.1770 O   0  0  0  0  0  0  0  0  0  0  0  0
  130.8330  131.5360   57.9160 C   0  0  0  0  0  0  0  0  0  0  0  0
  131.5690  131.2150   56.7740 C   0  0  0  0  0  0  0  0  0  0  0  0
  132.9080  130.8350   56.9260 C   0  0  0  0  0  0  0  0  0  0  0  0
  133.4860  130.7820   58.2010 C   0  0  0  0  0  0  0  0  0  0  0  0
  132.7320  131.1080   59.3330 C   0  0  0  0  0  0  0  0  0  0  0  0
  131.3990  131.4830   59.1610 C   0  0  0  0  0  0  0  0  0  0  0  0
  130.3650  131.8810   60.1480 C   0  0  0  0  0  0  0  0  0  0  0  0
  130.4940  131.9650   61.3700 O   0  0  0  0  0  0  0  0  0  0  0  0
  2  1  1  1
  2  3  1  0
  3  4  2  0
  3  5  1  0
  5  6  1  0
  6  7  2  0
  7  8  1  0
  8  9  2  0
 10  9  1  6
 10 11  1  0
 11 12  2  0
 12 13  1  0
 13 14  1  0
 14 15  1  0
 15 16  1  0
 16 17  2  0
 16 18  1  0
 18 19  1  0
 18 20  1  0
 20 21  2  0
 20 22  1  0
 12 23  1  0
 23 24  2  0
 24 25  1  0
 25 26  2  0
 26 27  1  0
 27 28  2  0
 28 29  1  0
 29 30  2  0
  9 31  1  0
 31 32  2  0
  2 33  1  0
 33 34  1  0
 34 35  2  0
 34 36  1  0
 36 37  2  0
 37 38  1  0
 38 39  2  0
 39 40  1  0
 40 41  2  0
 41 42  1  0
 42 43  2  0
 32  6  1  0
 42 33  1  0
 22 10  1  0
 28 23  1  0
 41 36  1  0
 29 11  1  0
 22 14  2  0
M  END
>  <Binding energies>  (76) 
[-10.67]

>  <Ligand effiencies>  (76) 
[-0.2371111111111111]

>  <Interactions>  (76) 
["V-A:PRO:540:CB:4882, V-A:ALA:541:CB:4889, V-A:PRO:540:CA:4880, V-A:PRO:540:N:4881, V-A:LEU:363:CD1:3185, V-A:TYR:539:C:4864, V-A:LEU:363:CA:3181, V-A:ASP:366:CG:3209, V-A:ASN:362:C:3168, H-A:ALA:541:N:4888, V-B:TYR:539:CE1:9844, V-B:TYR:539:CZ:9846, V-A:TYR:531:CZ:4791, V-B:PRO:540:N:9853, V-B:PRO:540:CB:9854, V-B:LEU:363:CD1:8157, H-B:TYR:539:OH:9847, V-B:GLU:543:CD:9877, V-A:ARG:545:CZ:4923, V-B:TYR:539:CE2:9845, V-B:ILE:538:CG2:9832, V-B:ILE:538:CB:9831, V-B:PRO:540:CD:9856, V-B:ILE:538:CA:9829, V-B:TYR:539:CD1:9842, V-A:PRO:540:C:4878, V-A:LEU:363:CB:3183"]

$$$$
RR25_Rahimova_2017
     RDKit          3D

 39 44  0  0  0  0  0  0  0  0999 V2000
  131.6030  127.6360   67.4120 O   0  0  0  0  0  0  0  0  0  0  0  0
  130.6270  127.7040   66.6630 C   0  0  0  0  0  0  0  0  0  0  0  0
  129.5780  128.4730   67.1020 O   0  0  0  0  0  0  0  0  0  0  0  0
  128.5410  128.8300   66.2590 C   0  0  0  0  0  0  0  0  0  0  0  0
  127.8520  130.0000   66.5730 C   0  0  0  0  0  0  0  0  0  0  0  0
  126.7910  130.4140   65.7700 C   0  0  0  0  0  0  0  0  0  0  0  0
  126.4030  129.6660   64.6490 C   0  0  0  0  0  0  0  0  0  0  0  0
  125.2780  130.1140   63.7910 N   0  0  0  0  0  0  0  0  0  0  0  0
  125.4850  130.2870   62.5930 O   0  0  0  0  0  0  0  0  0  0  0  0
  124.1800  130.2950   64.3100 O   0  0  0  0  0  0  0  0  0  0  0  0
  127.1030  128.4840   64.3570 C   0  0  0  0  0  0  0  0  0  0  0  0
  128.1640  128.0500   65.1560 C   0  0  0  0  0  0  0  0  0  0  0  0
  128.9580  126.7870   64.8770 C   0  0  0  0  0  0  0  0  0  0  0  0
  130.4420  127.0000   65.2870 C   0  0  2  0  0  0  0  0  0  0  0  0
  131.2670  125.6930   65.1070 C   0  0  0  0  0  0  0  0  0  0  0  0
  131.7920  125.2370   66.1270 O   0  0  0  0  0  0  0  0  0  0  0  0
  131.3070  125.0150   63.9200 N   0  0  0  0  0  0  0  0  0  0  0  0
  130.9770  125.6470   62.6250 C   0  0  0  0  0  0  0  0  0  0  0  0
  130.2430  124.6200   61.7380 C   0  0  0  0  0  0  0  0  0  0  0  0
  131.0240  123.3890   61.5860 N   0  0  0  0  0  0  0  0  0  0  0  0
  130.3920  122.4640   60.6370 C   0  0  0  0  0  0  0  0  0  0  0  0
  128.9620  122.0420   61.0680 C   0  0  0  0  0  0  0  0  0  0  0  0
  127.8470  122.5160   60.1960 N   0  0  0  0  0  0  0  0  0  0  0  0
  126.7900  123.1020   60.8590 C   0  0  0  0  0  0  0  0  0  0  0  0
  126.7350  123.2030   62.0900 O   0  0  0  0  0  0  0  0  0  0  0  0
  125.6960  123.6360   59.9540 C   0  0  0  0  0  0  0  0  0  0  0  0
  124.5850  124.2750   60.5210 C   0  0  0  0  0  0  0  0  0  0  0  0
  123.5660  124.7850   59.7200 C   0  0  0  0  0  0  0  0  0  0  0  0
  123.6240  124.6780   58.3310 C   0  0  0  0  0  0  0  0  0  0  0  0
  124.7270  124.0400   57.7140 C   0  0  0  0  0  0  0  0  0  0  0  0
  124.8500  123.8970   56.3110 C   0  0  0  0  0  0  0  0  0  0  0  0
  125.9650  123.2610   55.7680 C   0  0  0  0  0  0  0  0  0  0  0  0
  126.9710  122.7560   56.5880 C   0  0  0  0  0  0  0  0  0  0  0  0
  126.8920  122.8740   57.9820 C   0  0  0  0  0  0  0  0  0  0  0  0
  125.7610  123.5210   58.5420 C   0  0  0  0  0  0  0  0  0  0  0  0
  128.0120  122.3180   58.8410 C   0  0  0  0  0  0  0  0  0  0  0  0
  128.9940  121.7520   58.3500 O   0  0  0  0  0  0  0  0  0  0  0  0
  131.2280  122.7660   62.8950 C   0  0  0  0  0  0  0  0  0  0  0  0
  131.9900  123.7020   63.8630 C   0  0  0  0  0  0  0  0  0  0  0  0
  1  2  2  0
  2  3  1  0
  3  4  1  0
  4  5  2  0
  5  6  1  0
  6  7  2  0
  7  8  1  0
  8  9  2  0
  8 10  1  0
  7 11  1  0
 11 12  2  0
 12 13  1  0
 13 14  1  0
 14 15  1  1
 15 16  2  0
 15 17  1  0
 17 18  1  0
 18 19  1  0
 19 20  1  0
 20 21  1  0
 21 22  1  0
 22 23  1  0
 23 24  1  0
 24 25  2  0
 24 26  1  0
 26 27  2  0
 27 28  1  0
 28 29  2  0
 29 30  1  0
 30 31  2  0
 31 32  1  0
 32 33  2  0
 33 34  1  0
 34 35  2  0
 34 36  1  0
 36 37  2  0
 20 38  1  0
 38 39  1  0
 14  2  1  0
 39 17  1  0
 12  4  1  0
 36 23  1  0
 35 26  1  0
 35 30  1  0
M  CHG  2   8   1  10  -1
M  END
>  <Binding energies>  (77) 
[-10.47]

>  <Ligand effiencies>  (77) 
[-0.2684615384615385]

>  <Interactions>  (77) 
["V-A:GLU:543:CD:4905, V-A:HIS:456:CE1:4066, V-A:GLU:543:CB:4903, V-B:HIS:456:CE1:9038, V-B:ASP:366:CB:8180, V-B:MET:535:CE:9804, V-B:PRO:540:CA:9852, V-B:TYR:539:CZ:9846, V-B:TYR:531:CE2:9762, V-B:ASN:362:C:8140, V-B:PRO:540:N:9853, V-B:PRO:540:C:9850, V-B:PRO:540:CB:9854, V-B:ASP:366:CG:8181, V-B:LEU:363:CD1:8157, V-B:LEU:363:CA:8153, V-B:ALA:541:CB:9861, H-B:TYR:539:OH:9847, V-B:GLU:543:CD:9877, V-B:GLU:543:CG:9876, V-B:TYR:539:CE2:9845, V-A:GLU:543:CG:4904, H-B:ALA:541:N:9860, V-B:ILE:538:CG2:9832, V-B:ILE:538:CB:9831, V-A:LEU:475:CD1:4254, V-B:TYR:539:C:9836, V-B:TYR:539:CD2:9843, V-B:LEU:363:CB:8155, H-A:TYR:484:OH:4344, H-B:TYR:484:OH:9316, H-B:GLY:454:N:9018, V-B:TYR:484:CE1:9313, V-B:TYR:484:CZ:9315"]

$$$$
RR27_Rahimova_2017
     RDKit          3D

 39 44  0  0  0  0  0  0  0  0999 V2000
  126.6670  126.7800   57.5800 O   0  0  0  0  0  0  0  0  0  0  0  0
  127.3790  126.1720   58.3850 C   0  0  0  0  0  0  0  0  0  0  0  0
  127.1810  124.6350   58.5330 C   0  0  0  0  0  0  0  0  0  0  0  0
  127.5000  123.8580   57.2410 C   0  0  0  0  0  0  0  0  0  0  0  0
  126.6690  122.8290   56.7730 C   0  0  0  0  0  0  0  0  0  0  0  0
  126.9850  122.1480   55.6010 C   0  0  0  0  0  0  0  0  0  0  0  0
  128.1320  122.4930   54.8920 C   0  0  0  0  0  0  0  0  0  0  0  0
  128.9670  123.5100   55.3450 C   0  0  0  0  0  0  0  0  0  0  0  0
  128.6510  124.1900   56.5170 C   0  0  0  0  0  0  0  0  0  0  0  0
  125.8260  124.2930   59.1790 C   0  0  0  0  0  0  0  0  0  0  0  0
  124.6120  124.6890   58.6010 C   0  0  0  0  0  0  0  0  0  0  0  0
  123.4040  124.3720   59.2180 C   0  0  0  0  0  0  0  0  0  0  0  0
  123.4060  123.6640   60.4160 C   0  0  0  0  0  0  0  0  0  0  0  0
  124.6040  123.2740   61.0080 C   0  0  0  0  0  0  0  0  0  0  0  0
  125.8100  123.5910   60.3910 C   0  0  0  0  0  0  0  0  0  0  0  0
  128.4170  126.7830   59.0240 N   0  0  0  0  0  0  0  0  0  0  0  0
  129.1280  126.1900   60.1670 C   0  0  0  0  0  0  0  0  0  0  0  0
  128.3520  126.5990   61.4380 C   0  0  0  0  0  0  0  0  0  0  0  0
  128.1700  128.1450   61.5620 C   0  0  0  0  0  0  0  0  0  0  0  0
  127.3060  128.6000   62.7540 C   0  0  0  0  0  0  0  0  0  0  0  0
  127.6640  128.1210   63.9810 N   0  0  0  0  0  0  0  0  0  0  0  0
  126.9500  128.5140   65.0720 C   0  0  0  0  0  0  0  0  0  0  0  0
  127.2140  128.1060   66.3520 O   0  0  0  0  0  0  0  0  0  0  0  0
  125.8690  129.3970   64.8880 C   0  0  0  0  0  0  0  0  0  0  0  0
  124.9730  129.9780   65.7380 N   0  0  0  0  0  0  0  0  0  0  0  0
  124.1250  130.7560   64.9730 N   0  0  0  0  0  0  0  0  0  0  0  0
  124.4970  130.6620   63.6780 N   0  0  0  0  0  0  0  0  0  0  0  0
  123.7510  131.3690   62.6400 C   0  0  0  0  0  0  0  0  0  0  0  0
  124.6310  131.9410   61.5360 C   0  0  0  0  0  0  0  0  0  0  0  0
  124.6890  131.3150   60.2870 C   0  0  0  0  0  0  0  0  0  0  0  0
  125.4870  131.8460   59.2720 C   0  0  0  0  0  0  0  0  0  0  0  0
  126.2260  133.0070   59.4990 C   0  0  0  0  0  0  0  0  0  0  0  0
  126.1650  133.6410   60.7410 C   0  0  0  0  0  0  0  0  0  0  0  0
  127.0590  135.0930   61.0160 Cl  0  0  0  0  0  0  0  0  0  0  0  0
  125.3740  133.1070   61.7580 C   0  0  0  0  0  0  0  0  0  0  0  0
  125.5870  129.8150   63.5700 C   0  0  0  0  0  0  0  0  0  0  0  0
  126.2660  129.4390   62.4830 N   0  0  0  0  0  0  0  0  0  0  0  0
  127.7450  128.7920   60.2080 C   0  0  0  0  0  0  0  0  0  0  0  0
  128.5430  128.2490   58.9960 C   0  0  0  0  0  0  0  0  0  0  0  0
  1  2  2  0
  2  3  1  0
  3  4  1  0
  4  5  2  0
  5  6  1  0
  6  7  2  0
  7  8  1  0
  8  9  2  0
  3 10  1  0
 10 11  2  0
 11 12  1  0
 12 13  2  0
 13 14  1  0
 14 15  2  0
  2 16  1  0
 16 17  1  0
 17 18  1  0
 18 19  1  0
 19 20  1  0
 20 21  2  0
 21 22  1  0
 22 23  1  0
 22 24  2  0
 24 25  1  0
 25 26  2  0
 26 27  1  0
 27 28  1  0
 28 29  1  0
 29 30  2  0
 30 31  1  0
 31 32  2  0
 32 33  1  0
 33 34  1  0
 33 35  2  0
 27 36  1  0
 36 37  2  0
 19 38  1  0
 38 39  1  0
  9  4  1  0
 15 10  1  0
 39 16  1  0
 37 20  1  0
 36 24  1  0
 35 29  1  0
M  END
>  <Binding energies>  (78) 
[-10.41]

>  <Ligand effiencies>  (78) 
[-0.26025]

>  <Interactions>  (78) 
["V-A:TYR:539:CD2:4871, V-A:ALA:541:CB:4889, V-A:TYR:539:CE2:4873, V-B:LEU:475:CD2:9227, V-B:ASP:366:CB:8180, V-B:ASN:362:CB:8144, V-B:TYR:539:CE1:9844, V-B:MET:535:CE:9804, V-B:PRO:540:CA:9852, V-B:TYR:539:CZ:9846, V-B:ASN:362:C:8140, V-B:PRO:540:N:9853, V-B:PRO:540:C:9850, V-B:PRO:540:CB:9854, V-B:ASP:366:CG:8181, V-B:LEU:363:CD1:8157, V-B:LEU:363:CA:8153, H-B:TYR:531:OH:9764, H-B:GLU:543:OE1:9878, V-B:GLU:543:CD:9877, V-B:ILE:538:CG2:9832, V-B:ILE:538:CB:9831, V-B:ILE:369:CD1:8207, V-B:ILE:538:CA:9829, V-B:TYR:539:CD1:9842, V-B:ILE:538:C:9827, V-B:LEU:363:CB:8155, H-B:TYR:484:OH:9316, H-B:GLY:454:N:9018, V-B:GLY:454:CA:9017, V-B:ASN:362:CA:8142"]

$$$$
RR28_Rahimova_2017
     RDKit          3D

 46 49  0  0  0  0  0  0  0  0999 V2000
  134.7220  123.3700   60.4580 C   0  0  0  0  0  0  0  0  0  0  0  0
  133.2700  123.1730   60.8770 C   0  0  0  0  0  0  0  0  0  0  0  0
  132.8000  122.0380   60.9240 O   0  0  0  0  0  0  0  0  0  0  0  0
  132.5780  124.2910   61.1750 N   0  0  0  0  0  0  0  0  0  0  0  0
  131.1640  124.4070   61.5990 C   0  0  0  0  0  0  0  0  0  0  0  0
  130.2630  123.9220   60.4280 C   0  0  0  0  0  0  0  0  0  0  0  0
  130.3270  124.5820   59.1910 C   0  0  0  0  0  0  0  0  0  0  0  0
  129.5330  124.1770   58.1230 C   0  0  0  0  0  0  0  0  0  0  0  0
  128.6540  123.1030   58.2660 C   0  0  0  0  0  0  0  0  0  0  0  0
  127.7860  122.6760   57.0830 C   0  0  0  0  0  0  0  0  0  0  0  0
  128.4120  122.8290   55.9140 F   0  0  0  0  0  0  0  0  0  0  0  0
  127.4420  121.3930   57.2010 F   0  0  0  0  0  0  0  0  0  0  0  0
  126.6780  123.4170   57.0620 F   0  0  0  0  0  0  0  0  0  0  0  0
  128.5790  122.4380   59.4930 C   0  0  0  0  0  0  0  0  0  0  0  0
  129.3740  122.8430   60.5620 C   0  0  0  0  0  0  0  0  0  0  0  0
  130.8500  125.8720   62.0730 C   0  0  0  0  0  0  0  0  0  0  0  0
  131.6170  126.2790   63.3560 C   0  0  0  0  0  0  0  0  0  0  0  0
  131.2310  125.3120   64.3970 N   0  0  0  0  0  0  0  0  0  0  0  0
  130.2030  125.5880   65.2450 C   0  0  0  0  0  0  0  0  0  0  0  0
  129.6740  126.7010   65.2910 O   0  0  0  0  0  0  0  0  0  0  0  0
  129.7940  124.5280   66.2950 C   0  0  0  0  0  0  0  0  0  0  0  0
  129.0090  125.0580   67.5260 C   0  0  0  0  0  0  0  0  0  0  0  0
  129.5750  126.3510   68.1580 C   0  0  0  0  0  0  0  0  0  0  0  0
  130.6470  126.7850   67.7270 O   0  0  0  0  0  0  0  0  0  0  0  0
  128.8270  127.0450   69.0620 N   0  0  0  0  0  0  0  0  0  0  0  0
  127.7300  126.4460   69.8310 C   0  0  0  0  0  0  0  0  0  0  0  0
  128.3700  125.7930   71.0760 C   0  0  0  0  0  0  0  0  0  0  0  0
  129.2190  126.7660   71.9650 C   0  0  0  0  0  0  0  0  0  0  0  0
  130.0840  125.9730   72.8630 N   0  0  0  0  0  0  0  0  0  0  0  0
  130.1240  124.6330   73.0090 C   0  0  0  0  0  0  0  0  0  0  0  0
  131.1160  124.0950   74.0350 C   0  0  0  0  0  0  0  0  0  0  0  0
  129.4180  123.8490   72.3760 O   0  0  0  0  0  0  0  0  0  0  0  0
  128.2220  127.5710   72.8610 C   0  0  0  0  0  0  0  0  0  0  0  0
  128.6020  128.7100   73.5900 C   0  0  0  0  0  0  0  0  0  0  0  0
  127.6830  129.3990   74.3760 C   0  0  0  0  0  0  0  0  0  0  0  0
  126.3580  128.9640   74.4570 C   0  0  0  0  0  0  0  0  0  0  0  0
  125.3360  129.7120   75.3120 C   0  0  0  0  0  0  0  0  0  0  0  0
  124.1100  129.2210   75.1160 F   0  0  0  0  0  0  0  0  0  0  0  0
  125.6520  129.5660   76.5980 F   0  0  0  0  0  0  0  0  0  0  0  0
  125.3050  131.0160   75.0340 F   0  0  0  0  0  0  0  0  0  0  0  0
  125.9660  127.8290   73.7450 C   0  0  0  0  0  0  0  0  0  0  0  0
  126.8880  127.1430   72.9600 C   0  0  0  0  0  0  0  0  0  0  0  0
  130.0930  127.6870   71.0290 C   0  0  0  0  0  0  0  0  0  0  0  0
  129.3950  128.2140   69.7460 C   0  0  0  0  0  0  0  0  0  0  0  0
  131.6780  123.9410   64.1120 C   0  0  0  0  0  0  0  0  0  0  0  0
  130.9320  123.4760   62.8340 C   0  0  0  0  0  0  0  0  0  0  0  0
  1  2  1  0
  2  3  2  0
  2  4  1  0
  4  5  1  0
  5  6  1  0
  6  7  2  0
  7  8  1  0
  8  9  2  0
  9 10  1  0
 10 11  1  0
 10 12  1  0
 10 13  1  0
  9 14  1  0
 14 15  2  0
  5 16  1  0
 16 17  1  0
 17 18  1  0
 18 19  1  0
 19 20  2  0
 19 21  1  0
 21 22  1  0
 22 23  1  0
 23 24  2  0
 23 25  1  0
 25 26  1  0
 26 27  1  0
 27 28  1  0
 28 29  1  0
 29 30  1  0
 30 31  1  0
 30 32  2  0
 28 33  1  0
 33 34  2  0
 34 35  1  0
 35 36  2  0
 36 37  1  0
 37 38  1  0
 37 39  1  0
 37 40  1  0
 36 41  1  0
 41 42  2  0
 28 43  1  0
 43 44  1  0
 18 45  1  0
 45 46  1  0
 46  5  1  0
 15  6  1  0
 44 25  1  0
 42 33  1  0
M  END
>  <Binding energies>  (79) 
[-9.59]

>  <Ligand effiencies>  (79) 
[-0.19979166666666667]

>  <Interactions>  (79) 
["V-A:ASP:366:CG:3209, H-A:ASP:366:OD1:3210, V-B:GLU:543:C:9871, V-B:LYS:547:CE:9919, V-B:LYS:471:CE:9188, V-B:VAL:458:CG2:9055, V-B:HIS:456:CG:9034, V-A:LYS:547:CE:4947, V-B:HIS:456:CB:9033, V-A:HIS:456:CE1:4066, H-B:LYS:547:NZ:9920, V-A:GLU:543:C:4899, V-A:HIS:456:CD2:4064, V-B:GLU:543:CB:9875, V-B:HIS:456:C:9029, V-B:HIS:456:CE1:9038, V-B:GLY:544:C:9881, V-B:HIS:456:CD2:9036, V-B:TYR:539:CE1:9844, V-B:MET:535:CE:9804, V-B:PRO:540:CA:9852, V-B:TYR:539:CZ:9846, V-B:PRO:540:N:9853, H-B:TYR:539:OH:9847, V-B:GLU:543:CG:9876, V-A:ARG:545:CZ:4923, V-A:TYR:484:CZ:4343, V-B:TYR:539:CE2:9845, V-A:TYR:484:CE1:4341, V-B:GLU:543:CA:9873, V-B:PRO:540:CD:9856, V-A:ILE:369:CG1:3234, V-B:TYR:539:C:9836, V-A:ILE:369:CB:3232, V-B:TYR:539:CD2:9843, V-B:TYR:539:CD1:9842, V-B:TYR:539:CG:9841, V-B:ILE:538:C:9827, H-A:ASP:366:OD2:3211, V-A:ILE:369:CG2:3233, V-A:ASP:366:CA:3206, V-B:LYS:547:CD:9918, V-B:TYR:539:CA:9838, V-B:VAL:457:CA:9043, V-B:ASP:473:CG:9208, V-B:ASP:473:CB:9207, V-B:VAL:457:C:9041, V-B:LYS:471:CD:9187, V-B:TYR:539:CB:9840, V-B:HIS:456:CA:9031"]

$$$$
RR29_Rahimova_2017
     RDKit          3D

 18 19  0  0  0  0  0  0  0  0999 V2000
  131.0660  122.7630   62.7160 C   0  0  0  0  0  0  0  0  0  0  0  0
  131.0110  124.1030   61.9960 C   0  0  0  0  0  0  0  0  0  0  0  0
  130.2160  124.0440   60.6730 C   0  0  0  0  0  0  0  0  0  0  0  0
  129.3890  122.7460   60.5620 C   0  0  0  0  0  0  0  0  0  0  0  0
  128.2260  122.8840   59.5910 C   0  0  0  0  0  0  0  0  0  0  0  0
  127.0410  123.5280   59.9990 C   0  0  0  0  0  0  0  0  0  0  0  0
  125.9580  123.6670   59.1200 C   0  0  0  0  0  0  0  0  0  0  0  0
  126.0950  123.1370   57.8420 C   0  0  0  0  0  0  0  0  0  0  0  0
  127.2410  122.5090   57.4420 C   0  0  0  0  0  0  0  0  0  0  0  0
  128.3350  122.3660   58.2880 C   0  0  0  0  0  0  0  0  0  0  0  0
  127.1120  122.1230   56.1450 O   0  0  0  0  0  0  0  0  0  0  0  0
  125.7660  122.3410   55.8160 C   0  0  0  0  0  0  0  0  0  0  0  0
  125.2130  123.1640   56.8090 O   0  0  0  0  0  0  0  0  0  0  0  0
  131.6090  125.1070   62.5210 N   0  0  0  0  0  0  0  0  0  0  0  0
  131.6330  126.2990   61.8300 N   0  0  0  0  0  0  0  0  0  0  0  0
  130.8690  127.3600   62.1350 C   0  0  0  0  0  0  0  0  0  0  0  0
  130.0050  127.4110   63.1500 N   0  0  0  0  0  0  0  0  0  0  0  0
  130.9800  128.4390   61.3740 N   0  0  0  0  0  0  0  0  0  0  0  0
  1  2  1  0
  2  3  1  0
  3  4  1  0
  4  5  1  0
  5  6  2  0
  6  7  1  0
  7  8  2  0
  8  9  1  0
  9 10  2  0
  9 11  1  0
 11 12  1  0
 12 13  1  0
  2 14  2  0
 14 15  1  0
 15 16  1  0
 16 17  1  0
 16 18  2  0
 10  5  1  0
 13  8  1  0
M  CHG  1  18   1
M  END
>  <Binding energies>  (80) 
[-7.32]

>  <Ligand effiencies>  (80) 
[-0.31826086956521743]

>  <Interactions>  (80) 
["H-A:GLU:543:OE1:4906, H-A:GLU:543:OE2:4907, V-A:ASP:366:CG:3209, H-A:ASP:366:OD1:3210, V-A:GLU:543:CD:4905, V-B:TYR:539:CE1:9844, V-B:PRO:540:CA:9852, V-B:TYR:539:CZ:9846, V-B:PRO:540:N:9853, V-B:PRO:540:CB:9854, H-B:TYR:539:N:9839, V-B:LEU:363:CD1:8157, V-A:ARG:545:CZ:4923, V-B:TYR:539:CE2:9845, V-B:ILE:538:CG2:9832, V-B:ILE:538:CB:9831, V-A:LEU:475:CD1:4254, V-B:PRO:540:CD:9856, V-B:TYR:539:C:9836, V-B:TYR:539:CD2:9843, V-B:ILE:538:CA:9829, V-B:TYR:539:CD1:9842, V-B:TYR:539:CG:9841, H-A:ASP:366:OD2:3211"]

$$$$
RR30_Rahimova_2017
     RDKit          3D

 18 19  0  0  0  0  0  0  0  0999 V2000
  129.5760  121.7640   61.0260 C   0  0  0  0  0  0  0  0  0  0  0  0
  128.2450  121.6480   60.2700 C   0  0  0  0  0  0  0  0  0  0  0  0
  127.4560  122.9380   60.2960 C   0  0  0  0  0  0  0  0  0  0  0  0
  127.8920  124.1590   60.1030 N   0  0  0  0  0  0  0  0  0  0  0  0
  126.7820  124.9870   60.2400 N   0  0  0  0  0  0  0  0  0  0  0  0
  125.7730  124.1990   60.5140 C   0  0  0  0  0  0  0  0  0  0  0  0
  124.0920  124.6580   60.7840 S   0  0  0  0  0  0  0  0  0  0  0  0
  123.3790  124.1980   59.1730 C   0  0  0  0  0  0  0  0  0  0  0  0
  124.4260  124.2040   58.0550 C   0  0  0  0  0  0  0  0  0  0  0  0
  124.4460  125.1410   57.2540 O   0  0  0  0  0  0  0  0  0  0  0  0
  125.2490  123.1320   58.0100 N   0  0  0  0  0  0  0  0  0  0  0  0
  126.2660  122.9130   57.0930 C   0  0  0  0  0  0  0  0  0  0  0  0
  126.5450  121.8100   56.4360 N   0  0  0  0  0  0  0  0  0  0  0  0
  127.6430  121.9580   55.5980 N   0  0  0  0  0  0  0  0  0  0  0  0
  128.1700  123.1600   55.6370 C   0  0  0  0  0  0  0  0  0  0  0  0
  129.3730  123.5640   54.8170 C   0  0  0  0  0  0  0  0  0  0  0  0
  127.3360  124.2310   56.7300 S   0  0  0  0  0  0  0  0  0  0  0  0
  126.1260  122.8890   60.5600 O   0  0  0  0  0  0  0  0  0  0  0  0
  1  2  1  0
  2  3  1  0
  3  4  2  0
  4  5  1  0
  5  6  2  0
  6  7  1  0
  7  8  1  0
  8  9  1  0
  9 10  2  0
  9 11  1  0
 11 12  1  0
 12 13  2  0
 13 14  1  0
 14 15  2  0
 15 16  1  0
 15 17  1  0
  6 18  1  0
 18  3  1  0
 17 12  1  0
M  END
>  <Binding energies>  (81) 
[-6.6]

>  <Ligand effiencies>  (81) 
[-0.34736842105263155]

>  <Interactions>  (81) 
["V-B:TYR:539:CE1:9844, V-B:MET:535:CE:9804, V-B:PRO:540:CA:9852, V-B:TYR:539:CZ:9846, V-B:ASN:362:C:8140, V-B:PRO:540:N:9853, V-B:PRO:540:C:9850, V-B:PRO:540:CB:9854, H-B:TYR:539:N:9839, V-B:LEU:363:CD1:8157, V-B:LEU:363:CA:8153, H-B:TYR:531:OH:9764, V-B:ALA:541:CB:9861, V-B:TYR:539:CE2:9845, H-B:ALA:541:N:9860, V-B:TYR:539:C:9836, V-B:TYR:539:CD2:9843, V-B:TYR:539:CD1:9842, V-B:LEU:363:CB:8155, H-B:ARG:545:NH2:9897"]

$$$$
RR31_Rahimova_2017
     RDKit          3D

 18 19  0  0  0  0  0  0  0  0999 V2000
  127.9090  127.0880   71.9150 C   0  0  0  0  0  0  0  0  0  0  0  0
  128.4100  126.9690   70.4820 C   0  0  0  0  0  0  0  0  0  0  0  0
  127.5970  126.3600   69.5250 C   0  0  0  0  0  0  0  0  0  0  0  0
  128.0240  126.2390   68.2040 C   0  0  0  0  0  0  0  0  0  0  0  0
  129.2750  126.7310   67.7980 C   0  0  0  0  0  0  0  0  0  0  0  0
  129.7230  126.6080   66.4810 N   0  0  0  0  0  0  0  0  0  0  0  0
  128.9570  127.1500   65.3420 C   0  0  0  0  0  0  0  0  0  0  0  0
  129.3770  126.5740   63.9690 C   0  0  0  0  0  0  0  0  0  0  0  0
  130.8100  126.7710   63.7340 N   0  0  0  0  0  0  0  0  0  0  0  0
  131.2310  126.2670   62.4240 C   0  0  0  0  0  0  0  0  0  0  0  0
  130.1030  126.3010   61.3730 C   0  0  0  0  0  0  0  0  0  0  0  0
  129.9670  127.6800   60.7090 C   0  0  0  0  0  0  0  0  0  0  0  0
  130.8630  128.6970   61.4240 N   0  0  0  0  0  0  0  0  0  0  0  0
  131.5280  126.0590   64.7910 C   0  0  0  0  0  0  0  0  0  0  0  0
  131.1680  126.6310   66.1810 C   0  0  0  0  0  0  0  0  0  0  0  0
  130.0870  127.3320   68.7720 C   0  0  0  0  0  0  0  0  0  0  0  0
  129.6690  127.4590   70.1020 C   0  0  0  0  0  0  0  0  0  0  0  0
  130.5990  128.1200   71.1130 C   0  0  0  0  0  0  0  0  0  0  0  0
  1  2  1  0
  2  3  2  0
  3  4  1  0
  4  5  2  0
  5  6  1  0
  6  7  1  0
  7  8  1  0
  8  9  1  0
  9 10  1  0
 10 11  1  0
 11 12  1  0
 12 13  1  0
  9 14  1  0
 14 15  1  0
  5 16  1  0
 16 17  2  0
 17 18  1  0
 17  2  1  0
 15  6  1  0
M  CHG  1  13   1
M  END
>  <Binding energies>  (82) 
[-6.66]

>  <Ligand effiencies>  (82) 
[-0.31714285714285717]

>  <Interactions>  (82) 
["H-A:GLU:543:OE1:4906, H-A:GLU:543:OE2:4907, H-A:ASP:366:OD1:3210, V-A:GLU:543:CD:4905, V-B:GLU:543:C:9871, V-B:LYS:547:CE:9919, V-A:GLY:544:C:4909, V-A:HIS:456:CE1:4066, V-A:GLU:543:C:4899, V-B:GLU:543:CB:9875, V-B:HIS:456:CE1:9038, V-B:GLY:544:C:9881, V-B:HIS:456:CD2:9036, V-B:GLU:543:CD:9877, V-A:ARG:545:CZ:4923, H-A:ARG:545:NH2:4925"]

$$$$
RR32_Rahimova_2017
     RDKit          3D

 18 20  0  0  0  0  0  0  0  0999 V2000
  123.9980  124.2370   59.8300 C   0  0  0  0  0  0  0  0  0  0  0  0
  125.3550  123.6240   59.5010 C   0  0  0  0  0  0  0  0  0  0  0  0
  126.2540  123.4100   60.5470 C   0  0  0  0  0  0  0  0  0  0  0  0
  127.5000  122.8500   60.2840 C   0  0  0  0  0  0  0  0  0  0  0  0
  128.3890  122.6390   61.3250 N   0  0  0  0  0  0  0  0  0  0  0  0
  129.6650  121.9770   61.0000 C   0  0  0  0  0  0  0  0  0  0  0  0
  130.5060  121.6240   62.2490 C   0  0  0  0  0  0  0  0  0  0  0  0
  130.7910  122.8320   63.0240 N   0  0  0  0  0  0  0  0  0  0  0  0
  131.6100  122.5040   64.1850 C   0  0  0  0  0  0  0  0  0  0  0  0
  129.5160  123.4060   63.4490 C   0  0  0  0  0  0  0  0  0  0  0  0
  128.6580  123.7820   62.2180 C   0  0  0  0  0  0  0  0  0  0  0  0
  127.8960  122.4960   59.0340 N   0  0  0  0  0  0  0  0  0  0  0  0
  127.0430  122.6960   57.9930 C   0  0  0  0  0  0  0  0  0  0  0  0
  127.4820  122.3200   56.7000 C   0  0  0  0  0  0  0  0  0  0  0  0
  126.6530  122.5000   55.5990 C   0  0  0  0  0  0  0  0  0  0  0  0
  125.3860  123.0490   55.7520 C   0  0  0  0  0  0  0  0  0  0  0  0
  124.9240  123.4300   57.0090 C   0  0  0  0  0  0  0  0  0  0  0  0
  125.7390  123.2640   58.1660 C   0  0  0  0  0  0  0  0  0  0  0  0
  1  2  1  0
  2  3  2  0
  3  4  1  0
  4  5  1  0
  5  6  1  0
  6  7  1  0
  7  8  1  0
  8  9  1  0
  8 10  1  0
 10 11  1  0
  4 12  2  0
 12 13  1  0
 13 14  2  0
 14 15  1  0
 15 16  2  0
 16 17  1  0
 17 18  2  0
 18  2  1  0
 11  5  1  0
 18 13  1  0
M  END
>  <Binding energies>  (83) 
[-6.52]

>  <Ligand effiencies>  (83) 
[-0.3622222222222222]

>  <Interactions>  (83) 
["V-B:TYR:539:CE1:9844, V-B:PRO:540:CA:9852, V-B:ASN:362:C:8140, V-B:PRO:540:N:9853, V-B:PRO:540:CB:9854, V-B:LEU:363:CD1:8157, V-B:LEU:363:CA:8153, V-B:ALA:541:CB:9861, V-B:GLU:543:CD:9877, V-B:GLU:543:CG:9876, V-A:TYR:484:CZ:4343, V-B:TYR:539:CE2:9845, V-A:TYR:484:CE1:4341, V-B:ILE:538:CG2:9832, V-B:ILE:538:CB:9831, V-A:LEU:475:CD1:4254, V-B:TYR:539:C:9836, V-B:TYR:539:CD2:9843, V-B:ILE:538:CA:9829, V-B:TYR:539:CD1:9842, V-A:LEU:475:CD2:4255, V-A:LEU:475:CG:4253"]

$$$$
RR5_Rahimova_2017
     RDKit          3D

 45 50  0  0  0  0  0  0  0  0999 V2000
  128.7490  132.8690   57.2720 O   0  0  0  0  0  0  0  0  0  0  0  0
  129.1120  131.8690   57.8900 C   0  0  0  0  0  0  0  0  0  0  0  0
  130.5090  131.2740   57.6280 C   0  0  0  0  0  0  0  0  0  0  0  0
  131.0400  130.3570   58.7870 C   0  0  2  0  0  0  0  0  0  0  0  0
  130.4640  128.9970   58.8190 N   0  0  0  0  0  0  0  0  0  0  0  0
  129.7370  128.4900   57.7520 C   0  0  0  0  0  0  0  0  0  0  0  0
  129.5240  129.0500   56.6730 O   0  0  0  0  0  0  0  0  0  0  0  0
  129.2800  127.2720   58.0910 O   0  0  0  0  0  0  0  0  0  0  0  0
  128.0100  126.8050   57.6460 C   0  0  0  0  0  0  0  0  0  0  0  0
  127.8040  125.3230   58.0330 C   0  0  0  0  0  0  0  0  0  0  0  0
  126.4000  125.0110   58.5200 C   0  0  0  0  0  0  0  0  0  0  0  0
  125.6850  125.5620   59.5870 C   0  0  0  0  0  0  0  0  0  0  0  0
  124.3810  125.1360   59.8440 C   0  0  0  0  0  0  0  0  0  0  0  0
  123.7910  124.1590   59.0390 C   0  0  0  0  0  0  0  0  0  0  0  0
  124.5040  123.6050   57.9750 C   0  0  0  0  0  0  0  0  0  0  0  0
  125.8080  124.0320   57.7200 C   0  0  0  0  0  0  0  0  0  0  0  0
  126.7770  123.6230   56.6910 C   0  0  0  0  0  0  0  0  0  0  0  0
  126.6860  122.6790   55.6660 C   0  0  0  0  0  0  0  0  0  0  0  0
  127.7800  122.4640   54.8260 C   0  0  0  0  0  0  0  0  0  0  0  0
  128.9570  123.1930   55.0080 C   0  0  0  0  0  0  0  0  0  0  0  0
  129.0420  124.1380   56.0310 C   0  0  0  0  0  0  0  0  0  0  0  0
  127.9500  124.3580   56.8720 C   0  0  0  0  0  0  0  0  0  0  0  0
  130.8430  131.0400   60.1630 C   0  0  0  0  0  0  0  0  0  0  0  0
  131.3360  132.1020   60.4860 O   0  0  0  0  0  0  0  0  0  0  0  0
  130.0190  130.2770   60.9400 O   0  0  0  0  0  0  0  0  0  0  0  0
  128.3800  131.2400   58.8370 N   0  0  0  0  0  0  0  0  0  0  0  0
  127.0150  131.4670   59.4000 C   0  0  0  0  0  0  0  0  0  0  0  0
  126.9370  130.3760   60.5200 C   0  0  0  0  0  0  0  0  0  0  0  0
  127.2790  129.0370   60.2630 C   0  0  0  0  0  0  0  0  0  0  0  0
  127.2070  128.0750   61.2680 C   0  0  0  0  0  0  0  0  0  0  0  0
  126.7820  128.4340   62.5420 C   0  0  0  0  0  0  0  0  0  0  0  0
  126.4390  129.7510   62.8240 C   0  0  0  0  0  0  0  0  0  0  0  0
  126.5210  130.7130   61.8230 C   0  0  0  0  0  0  0  0  0  0  0  0
  126.9830  132.9230   59.9750 C   0  0  0  0  0  0  0  0  0  0  0  0
  125.8150  133.7010   59.9510 C   0  0  0  0  0  0  0  0  0  0  0  0
  125.8140  135.0010   60.4510 C   0  0  0  0  0  0  0  0  0  0  0  0
  126.9830  135.5400   60.9780 C   0  0  0  0  0  0  0  0  0  0  0  0
  128.1520  134.7880   61.0160 C   0  0  0  0  0  0  0  0  0  0  0  0
  128.1480  133.4870   60.5250 C   0  0  0  0  0  0  0  0  0  0  0  0
  126.0120  131.2070   58.2260 C   0  0  0  0  0  0  0  0  0  0  0  0
  126.4520  130.6690   57.0030 C   0  0  0  0  0  0  0  0  0  0  0  0
  125.5660  130.4430   55.9530 C   0  0  0  0  0  0  0  0  0  0  0  0
  124.2190  130.7470   56.1090 C   0  0  0  0  0  0  0  0  0  0  0  0
  123.7510  131.2660   57.3100 C   0  0  0  0  0  0  0  0  0  0  0  0
  124.6400  131.4910   58.3580 C   0  0  0  0  0  0  0  0  0  0  0  0
  1  2  2  0
  2  3  1  0
  4  3  1  6
  4  5  1  0
  5  6  1  0
  6  7  2  0
  6  8  1  0
  8  9  1  0
  9 10  1  0
 10 11  1  0
 11 12  2  0
 12 13  1  0
 13 14  2  0
 14 15  1  0
 15 16  2  0
 16 17  1  0
 17 18  2  0
 18 19  1  0
 19 20  2  0
 20 21  1  0
 21 22  2  0
  4 23  1  0
 23 24  2  0
 23 25  1  0
  2 26  1  0
 26 27  1  0
 27 28  1  0
 28 29  2  0
 29 30  1  0
 30 31  2  0
 31 32  1  0
 32 33  2  0
 27 34  1  0
 34 35  2  0
 35 36  1  0
 36 37  2  0
 37 38  1  0
 38 39  2  0
 27 40  1  0
 40 41  2  0
 41 42  1  0
 42 43  2  0
 43 44  1  0
 44 45  2  0
 22 10  1  0
 33 28  1  0
 39 34  1  0
 45 40  1  0
 16 11  1  0
 22 17  1  0
M  END
>  <Binding energies>  (84) 
[-10.26]

>  <Ligand effiencies>  (84) 
[-0.21375]

>  <Interactions>  (84) 
["V-A:TYR:539:CD2:4871, V-A:ALA:541:CB:4889, V-A:PRO:540:CA:4880, H-A:GLU:543:OE2:4907, V-A:TYR:539:C:4864, V-B:TRP:381:CZ2:8338, V-B:TRP:381:CH2:8340, H-A:ASP:366:OD1:3210, V-A:TYR:539:CE2:4873, V-B:LEU:475:CD2:9227, H-A:ALA:541:N:4888, V-B:ASP:366:CA:8178, V-B:ASP:366:CB:8180, H-A:TYR:531:OH:4792, V-B:TYR:539:CE1:9844, V-B:MET:535:CE:9804, V-B:PRO:540:CA:9852, V-B:TYR:539:CZ:9846, V-B:TYR:531:CZ:9763, V-B:ILE:369:CG2:8205, V-B:PRO:540:CB:9854, V-B:ASP:366:CG:8181, V-B:LEU:363:CD1:8157, V-B:LEU:363:CA:8153, V-A:TYR:539:CZ:4874, V-B:ILE:538:CG2:9832, V-B:ILE:538:CB:9831, V-B:ILE:538:CA:9829, V-B:TYR:539:CD1:9842, V-B:LEU:363:CB:8155, V-A:ALA:541:CA:4887, V-A:PRO:540:C:4878, V-B:TYR:531:CE1:9761, V-B:ILE:369:CB:8204, V-B:ASP:366:C:8176, V-B:ASN:370:CB:8213"]

$$$$
