1a_Ghoteimi_2023
     RDKit          3D

 67 70  0  0  0  0  0  0  0  0999 V2000
  124.8970  123.8970   56.4880 C   0  0  0  0  0  0  0  0  0  0  0  0
  125.2260  122.5570   55.8220 C   0  0  0  0  0  0  0  0  0  0  0  0
  126.0600  121.7940   56.6860 O   0  0  0  0  0  0  0  0  0  0  0  0
  127.3570  122.1390   56.8920 C   0  0  0  0  0  0  0  0  0  0  0  0
  128.2150  122.1220   56.0040 O   0  0  0  0  0  0  0  0  0  0  0  0
  127.6430  122.5470   58.3080 C   0  0  0  0  0  0  0  0  0  0  0  0
  127.0840  123.7030   58.8750 C   0  0  0  0  0  0  0  0  0  0  0  0
  127.3710  124.0580   60.1900 C   0  0  0  0  0  0  0  0  0  0  0  0
  128.2220  123.2580   60.9670 C   0  0  0  0  0  0  0  0  0  0  0  0
  128.5830  123.5240   62.3020 N   0  0  0  0  0  0  0  0  0  0  0  0
  129.7520  123.3050   62.9420 C   0  0  0  0  0  0  0  0  0  0  0  0
  130.7650  122.8220   62.4380 O   0  0  0  0  0  0  0  0  0  0  0  0
  129.7800  123.7110   64.4150 C   0  0  0  0  0  0  0  0  0  0  0  0
  130.7690  125.2130   64.6800 S   0  0  0  0  0  0  0  0  0  0  0  0
  129.6970  126.3740   65.4950 C   0  0  0  0  0  0  0  0  0  0  0  0
  129.8080  126.3710   66.8450 N   0  0  0  0  0  0  0  0  0  0  0  0
  129.0460  127.2170   67.5870 C   0  0  0  0  0  0  0  0  0  0  0  0
  129.2420  127.1690   69.0750 C   0  0  0  0  0  0  0  0  0  0  0  0
  128.2930  126.5660   69.9170 C   0  0  0  0  0  0  0  0  0  0  0  0
  128.4780  126.5210   71.2950 C   0  0  0  0  0  0  0  0  0  0  0  0
  129.6140  127.0790   71.8770 C   0  0  0  0  0  0  0  0  0  0  0  0
  129.7150  126.9870   73.2520 O   0  0  0  0  0  0  0  0  0  0  0  0
  128.6090  127.3780   74.0570 C   0  0  0  0  0  0  0  0  0  0  0  0
  130.5680  127.6880   71.0510 C   0  0  0  0  0  0  0  0  0  0  0  0
  130.3800  127.7310   69.6730 C   0  0  0  0  0  0  0  0  0  0  0  0
  128.1450  128.0920   66.9680 C   0  0  0  0  0  0  0  0  0  0  0  0
  127.9940  128.0960   65.5750 C   0  0  0  0  0  0  0  0  0  0  0  0
  126.9910  129.0340   64.9870 C   0  0  0  0  0  0  0  0  0  0  0  0
  125.6250  128.8820   65.2530 C   0  0  0  0  0  0  0  0  0  0  0  0
  124.6980  129.7690   64.7130 C   0  0  0  0  0  0  0  0  0  0  0  0
  125.1150  130.8270   63.9050 C   0  0  0  0  0  0  0  0  0  0  0  0
  124.1250  131.6560   63.4160 O   0  0  0  0  0  0  0  0  0  0  0  0
  124.4930  132.8630   62.7560 C   0  0  0  0  0  0  0  0  0  0  0  0
  126.4850  130.9870   63.6440 C   0  0  0  0  0  0  0  0  0  0  0  0
  127.4110  130.0980   64.1840 C   0  0  0  0  0  0  0  0  0  0  0  0
  128.7950  127.2150   64.8090 C   0  0  0  0  0  0  0  0  0  0  0  0
  128.6930  127.1840   63.3460 C   0  0  0  0  0  0  0  0  0  0  0  0
  128.6120  127.1610   62.1920 N   0  0  0  0  0  0  0  0  0  0  0  0
  128.7830  122.1110   60.4050 C   0  0  0  0  0  0  0  0  0  0  0  0
  128.4950  121.7560   59.0890 C   0  0  0  0  0  0  0  0  0  0  0  0
  124.9258  123.7799   57.5814 H   0  0  0  0  0  0  0  0  0  0  0  0
  125.6368  124.6508   56.1804 H   0  0  0  0  0  0  0  0  0  0  0  0
  123.8923  124.2224   56.1804 H   0  0  0  0  0  0  0  0  0  0  0  0
  124.2947  122.0046   55.6283 H   0  0  0  0  0  0  0  0  0  0  0  0
  125.7481  122.7370   54.8707 H   0  0  0  0  0  0  0  0  0  0  0  0
  126.4127  124.3344   58.2744 H   0  0  0  0  0  0  0  0  0  0  0  0
  126.9292  124.9685   60.6211 H   0  0  0  0  0  0  0  0  0  0  0  0
  127.8590  123.9750   62.8410 H   0  0  0  0  0  0  0  0  0  0  0  0
  128.7500  123.8982   64.7528 H   0  0  0  0  0  0  0  0  0  0  0  0
  130.2401  122.8922   64.9876 H   0  0  0  0  0  0  0  0  0  0  0  0
  127.3873  126.1214   69.4788 H   0  0  0  0  0  0  0  0  0  0  0  0
  127.7201  126.0403   71.9311 H   0  0  0  0  0  0  0  0  0  0  0  0
  128.8772  127.2832   75.1196 H   0  0  0  0  0  0  0  0  0  0  0  0
  128.3467  128.4234   73.8369 H   0  0  0  0  0  0  0  0  0  0  0  0
  127.7480  126.7298   73.8369 H   0  0  0  0  0  0  0  0  0  0  0  0
  131.4703  128.1345   71.4943 H   0  0  0  0  0  0  0  0  0  0  0  0
  131.1384  128.2151   69.0401 H   0  0  0  0  0  0  0  0  0  0  0  0
  127.5494  128.7836   67.5819 H   0  0  0  0  0  0  0  0  0  0  0  0
  125.2818  128.0559   65.8932 H   0  0  0  0  0  0  0  0  0  0  0  0
  123.6271  129.6345   64.9253 H   0  0  0  0  0  0  0  0  0  0  0  0
  124.7279  133.6335   63.5050 H   0  0  0  0  0  0  0  0  0  0  0  0
  125.3768  132.6820   62.1266 H   0  0  0  0  0  0  0  0  0  0  0  0
  123.6586  133.2058   62.1266 H   0  0  0  0  0  0  0  0  0  0  0  0
  126.8285  131.8180   63.0104 H   0  0  0  0  0  0  0  0  0  0  0  0
  128.4826  130.2345   63.9767 H   0  0  0  0  0  0  0  0  0  0  0  0
  129.4574  121.4825   61.0051 H   0  0  0  0  0  0  0  0  0  0  0  0
  128.9406  120.8466   58.6596 H   0  0  0  0  0  0  0  0  0  0  0  0
  1  2  1  0
  2  3  1  0
  3  4  1  0
  4  5  2  0
  4  6  1  0
  6  7  2  0
  7  8  1  0
  8  9  2  0
  9 10  1  0
 10 11  1  0
 11 12  2  0
 11 13  1  0
 13 14  1  0
 14 15  1  0
 15 16  2  0
 16 17  1  0
 17 18  1  0
 18 19  2  0
 19 20  1  0
 20 21  2  0
 21 22  1  0
 22 23  1  0
 21 24  1  0
 24 25  2  0
 17 26  2  0
 26 27  1  0
 27 28  1  0
 28 29  2  0
 29 30  1  0
 30 31  2  0
 31 32  1  0
 32 33  1  0
 31 34  1  0
 34 35  2  0
 27 36  2  0
 36 37  1  0
 37 38  3  0
  9 39  1  0
 39 40  2  0
 40  6  1  0
 36 15  1  0
 25 18  1  0
 35 28  1  0
  1 41  1  0
  1 42  1  0
  1 43  1  0
  2 44  1  0
  2 45  1  0
  7 46  1  0
  8 47  1  0
 10 48  1  0
 13 49  1  0
 13 50  1  0
 19 51  1  0
 20 52  1  0
 23 53  1  0
 23 54  1  0
 23 55  1  0
 24 56  1  0
 25 57  1  0
 26 58  1  0
 29 59  1  0
 30 60  1  0
 33 61  1  0
 33 62  1  0
 33 63  1  0
 34 64  1  0
 35 65  1  0
 39 66  1  0
 40 67  1  0
M  END
>  <Binding energies>  (1) 
[-11.28]

>  <Ligand effiencies>  (1) 
[-0.27512195121951216]

>  <Interactions>  (1) 
["V-A:GLU:543:CD:4905, V-B:LEU:475:CD2:9227, V-B:LYS:547:CE:9919, V-A:LYS:547:CE:4947, H-A:LYS:547:NZ:4948, V-A:GLY:544:C:4909, V-A:HIS:456:CE1:4066, V-A:GLU:543:C:4899, V-A:HIS:456:CD2:4064, V-B:HIS:456:CE1:9038, V-B:TYR:539:CE1:9844, V-B:PRO:540:CA:9852, V-B:TYR:539:CZ:9846, V-B:TYR:531:CE2:9762, V-B:PRO:540:N:9853, V-B:PRO:540:CB:9854, H-B:TYR:539:N:9839, V-B:LEU:363:CD1:8157, V-B:ALA:541:CB:9861, H-B:GLU:543:OE2:9879, V-B:GLU:543:CD:9877, V-B:GLU:543:CG:9876, V-B:TYR:539:CE2:9845, V-A:GLU:543:CG:4904, V-B:ILE:538:CG2:9832, V-B:ILE:538:CB:9831, V-B:PRO:540:CD:9856, V-B:TYR:539:C:9836, V-B:TYR:539:CD2:9843, V-B:TYR:539:CD1:9842, V-B:TYR:539:CG:9841, V-B:ARG:545:CZ:9895, H-B:GLY:454:N:9018, V-B:GLY:454:CA:9017, V-B:TYR:539:CA:9838"]

$$$$
1a_Grossjean_2025
     RDKit          3D

 45 46  0  0  0  0  0  0  0  0999 V2000
  129.0100  123.6510   55.4690 C   0  0  0  0  0  0  0  0  0  0  0  0
  128.1050  122.5030   55.0120 C   0  0  0  0  0  0  0  0  0  0  0  0
  127.6760  121.7580   56.1450 O   0  0  0  0  0  0  0  0  0  0  0  0
  126.6190  122.1670   56.8930 C   0  0  0  0  0  0  0  0  0  0  0  0
  125.4480  122.1050   56.5080 O   0  0  0  0  0  0  0  0  0  0  0  0
  127.0180  122.7200   58.2310 C   0  0  0  0  0  0  0  0  0  0  0  0
  128.0890  122.1350   58.9210 C   0  0  0  0  0  0  0  0  0  0  0  0
  128.4800  122.6210   60.1650 C   0  0  0  0  0  0  0  0  0  0  0  0
  127.8110  123.6980   60.7460 C   0  0  0  0  0  0  0  0  0  0  0  0
  128.2890  124.1050   62.0070 N   0  0  0  0  0  0  0  0  0  0  0  0
  129.2430  125.0060   62.3240 C   0  0  0  0  0  0  0  0  0  0  0  0
  129.8970  125.6690   61.5190 O   0  0  0  0  0  0  0  0  0  0  0  0
  129.5000  125.1890   63.8210 C   0  0  0  0  0  0  0  0  0  0  0  0
  130.1100  123.6650   64.6030 S   0  0  0  0  0  0  0  0  0  0  0  0
  130.9200  122.7050   63.3420 C   0  0  0  0  0  0  0  0  0  0  0  0
  130.1550  121.7030   62.8420 N   0  0  0  0  0  0  0  0  0  0  0  0
  130.6760  120.9060   61.8790 C   0  0  0  0  0  0  0  0  0  0  0  0
  129.7680  119.7980   61.3780 C   0  0  0  0  0  0  0  0  0  0  0  0
  131.9620  121.0800   61.3730 C   0  0  0  0  0  0  0  0  0  0  0  0
  132.7510  122.1240   61.8670 C   0  0  0  0  0  0  0  0  0  0  0  0
  134.1520  122.3060   61.2860 C   0  0  0  0  0  0  0  0  0  0  0  0
  132.2270  122.9720   62.8700 C   0  0  0  0  0  0  0  0  0  0  0  0
  133.0170  124.1020   63.3680 C   0  0  0  0  0  0  0  0  0  0  0  0
  133.6420  124.9930   63.7590 N   0  0  0  0  0  0  0  0  0  0  0  0
  126.7430  124.2960   60.0590 C   0  0  0  0  0  0  0  0  0  0  0  0
  126.3520  123.8080   58.8160 C   0  0  0  0  0  0  0  0  0  0  0  0
  129.0351  123.6828   56.5683 H   0  0  0  0  0  0  0  0  0  0  0  0
  130.0278  123.4913   55.0835 H   0  0  0  0  0  0  0  0  0  0  0  0
  128.6171  124.6034   55.0835 H   0  0  0  0  0  0  0  0  0  0  0  0
  127.2283  122.9130   54.4893 H   0  0  0  0  0  0  0  0  0  0  0  0
  128.6635  121.8448   54.3303 H   0  0  0  0  0  0  0  0  0  0  0  0
  128.6251  121.2842   58.4751 H   0  0  0  0  0  0  0  0  0  0  0  0
  129.3229  122.1523   60.6939 H   0  0  0  0  0  0  0  0  0  0  0  0
  127.8160  123.6690   62.7840 H   0  0  0  0  0  0  0  0  0  0  0  0
  130.2498  125.9821   63.9576 H   0  0  0  0  0  0  0  0  0  0  0  0
  128.5452  125.4552   64.2980 H   0  0  0  0  0  0  0  0  0  0  0  0
  129.3316  119.2655   62.2359 H   0  0  0  0  0  0  0  0  0  0  0  0
  128.9624  120.2320   60.7675 H   0  0  0  0  0  0  0  0  0  0  0  0
  130.3518  119.0934   60.7675 H   0  0  0  0  0  0  0  0  0  0  0  0
  132.3516  120.4059   60.5959 H   0  0  0  0  0  0  0  0  0  0  0  0
  134.8794  122.4005   62.1057 H   0  0  0  0  0  0  0  0  0  0  0  0
  134.4084  121.4336   60.6670 H   0  0  0  0  0  0  0  0  0  0  0  0
  134.1770  123.2149   60.6670 H   0  0  0  0  0  0  0  0  0  0  0  0
  126.2143  125.1518   60.5040 H   0  0  0  0  0  0  0  0  0  0  0  0
  125.5116  124.2802   58.2861 H   0  0  0  0  0  0  0  0  0  0  0  0
  1  2  1  0
  2  3  1  0
  3  4  1  0
  4  5  2  0
  4  6  1  0
  6  7  2  0
  7  8  1  0
  8  9  2  0
  9 10  1  0
 10 11  1  0
 11 12  2  0
 11 13  1  0
 13 14  1  0
 14 15  1  0
 15 16  2  0
 16 17  1  0
 17 18  1  0
 17 19  2  0
 19 20  1  0
 20 21  1  0
 20 22  2  0
 22 23  1  0
 23 24  3  0
  9 25  1  0
 25 26  2  0
 26  6  1  0
 22 15  1  0
  1 27  1  0
  1 28  1  0
  1 29  1  0
  2 30  1  0
  2 31  1  0
  7 32  1  0
  8 33  1  0
 10 34  1  0
 13 35  1  0
 13 36  1  0
 18 37  1  0
 18 38  1  0
 18 39  1  0
 19 40  1  0
 21 41  1  0
 21 42  1  0
 21 43  1  0
 25 44  1  0
 26 45  1  0
M  END
>  <Binding energies>  (1) 
[-7.77]

>  <Ligand effiencies>  (1) 
[-0.28777777777777774]

>  <Interactions>  (1) 
["V-B:TYR:539:CE1:9844, V-B:MET:535:CE:9804, V-B:PRO:540:CA:9852, V-B:TYR:539:CZ:9846, V-B:PRO:540:N:9853, V-B:PRO:540:CB:9854, H-B:TYR:539:N:9839, V-B:ALA:541:CB:9861, H-B:GLU:543:OE2:9879, V-B:GLU:543:CD:9877, V-B:GLU:543:CG:9876, H-A:ARG:545:NH2:4925, V-B:TYR:539:CE2:9845, V-B:ILE:538:CG2:9832, V-B:ILE:538:CB:9831, V-A:LEU:475:CD1:4254, V-B:PRO:540:CD:9856, V-A:ILE:369:CG1:3234, V-B:TYR:539:C:9836, V-B:TYR:539:CD2:9843, V-B:ILE:538:CA:9829, V-B:TYR:539:CD1:9842, V-B:TYR:539:CG:9841, H-A:GLY:454:N:4046, H-A:ARG:545:NH1:4924, V-A:ILE:369:CG2:3233, V-A:GLY:454:CA:4045, H-A:TYR:484:OH:4344, V-A:PRO:482:CG:4323"]

$$$$
1aa_Ghoteimi_2023
     RDKit          3D

 67 70  0  0  0  0  0  0  0  0999 V2000
  129.0020  123.6260   55.6490 C   0  0  0  0  0  0  0  0  0  0  0  0
  128.0710  122.5260   55.1320 C   0  0  0  0  0  0  0  0  0  0  0  0
  127.5450  121.7950   56.2330 O   0  0  0  0  0  0  0  0  0  0  0  0
  126.5250  122.2890   56.9790 C   0  0  0  0  0  0  0  0  0  0  0  0
  125.3560  122.3450   56.5830 O   0  0  0  0  0  0  0  0  0  0  0  0
  126.9570  122.7630   58.3370 C   0  0  0  0  0  0  0  0  0  0  0  0
  126.3140  123.8240   58.9930 C   0  0  0  0  0  0  0  0  0  0  0  0
  126.7370  124.2420   60.2520 C   0  0  0  0  0  0  0  0  0  0  0  0
  127.8140  123.6010   60.8820 C   0  0  0  0  0  0  0  0  0  0  0  0
  128.3280  123.9350   62.1480 N   0  0  0  0  0  0  0  0  0  0  0  0
  129.4950  123.5910   62.7400 C   0  0  0  0  0  0  0  0  0  0  0  0
  130.3620  122.8830   62.2270 O   0  0  0  0  0  0  0  0  0  0  0  0
  129.7520  124.1300   64.1560 C   0  0  0  0  0  0  0  0  0  0  0  0
  130.0700  125.5270   64.1120 O   0  0  0  0  0  0  0  0  0  0  0  0
  129.3690  126.4310   64.8970 C   0  0  0  0  0  0  0  0  0  0  0  0
  129.6040  126.4310   66.2380 N   0  0  0  0  0  0  0  0  0  0  0  0
  128.9270  127.2920   67.0430 C   0  0  0  0  0  0  0  0  0  0  0  0
  129.2450  127.2310   68.5090 C   0  0  0  0  0  0  0  0  0  0  0  0
  128.3740  126.6010   69.4110 C   0  0  0  0  0  0  0  0  0  0  0  0
  128.6660  126.5440   70.7710 C   0  0  0  0  0  0  0  0  0  0  0  0
  129.8340  127.1130   71.2720 C   0  0  0  0  0  0  0  0  0  0  0  0
  130.0390  127.0100   72.6340 O   0  0  0  0  0  0  0  0  0  0  0  0
  128.9130  126.9500   73.5030 C   0  0  0  0  0  0  0  0  0  0  0  0
  130.7160  127.7420   70.3830 C   0  0  0  0  0  0  0  0  0  0  0  0
  130.4230  127.7970   69.0230 C   0  0  0  0  0  0  0  0  0  0  0  0
  128.0030  128.1960   66.5040 C   0  0  0  0  0  0  0  0  0  0  0  0
  127.7510  128.2240   65.1250 C   0  0  0  0  0  0  0  0  0  0  0  0
  126.7630  129.2180   64.6110 C   0  0  0  0  0  0  0  0  0  0  0  0
  127.1940  130.3110   63.8530 C   0  0  0  0  0  0  0  0  0  0  0  0
  126.2770  131.2370   63.3620 C   0  0  0  0  0  0  0  0  0  0  0  0
  124.9140  131.0870   63.6120 C   0  0  0  0  0  0  0  0  0  0  0  0
  124.0790  132.0540   63.0860 O   0  0  0  0  0  0  0  0  0  0  0  0
  124.1460  132.3460   61.6950 C   0  0  0  0  0  0  0  0  0  0  0  0
  124.4760  129.9870   64.3660 C   0  0  0  0  0  0  0  0  0  0  0  0
  125.3940  129.0630   64.8560 C   0  0  0  0  0  0  0  0  0  0  0  0
  128.4480  127.3100   64.3020 C   0  0  0  0  0  0  0  0  0  0  0  0
  128.2190  127.2350   62.8580 C   0  0  0  0  0  0  0  0  0  0  0  0
  128.0390  127.1750   61.7160 N   0  0  0  0  0  0  0  0  0  0  0  0
  128.4570  122.5460   60.2310 C   0  0  0  0  0  0  0  0  0  0  0  0
  128.0340  122.1310   58.9730 C   0  0  0  0  0  0  0  0  0  0  0  0
  128.9987  123.6221   56.7490 H   0  0  0  0  0  0  0  0  0  0  0  0
  130.0237  123.4429   55.2847 H   0  0  0  0  0  0  0  0  0  0  0  0
  128.6525  124.6033   55.2847 H   0  0  0  0  0  0  0  0  0  0  0  0
  127.2451  122.9808   54.5654 H   0  0  0  0  0  0  0  0  0  0  0  0
  128.6347  121.8464   54.4759 H   0  0  0  0  0  0  0  0  0  0  0  0
  125.4669  124.3307   58.5075 H   0  0  0  0  0  0  0  0  0  0  0  0
  126.2255  125.0767   60.7537 H   0  0  0  0  0  0  0  0  0  0  0  0
  127.7220  124.5340   62.6920 H   0  0  0  0  0  0  0  0  0  0  0  0
  128.8500  123.9833   64.7683 H   0  0  0  0  0  0  0  0  0  0  0  0
  130.6012  123.5858   64.5948 H   0  0  0  0  0  0  0  0  0  0  0  0
  127.4454  126.1448   69.0374 H   0  0  0  0  0  0  0  0  0  0  0  0
  127.9665  126.0441   71.4572 H   0  0  0  0  0  0  0  0  0  0  0  0
  129.2552  126.9682   74.5483 H   0  0  0  0  0  0  0  0  0  0  0  0
  128.2591  127.8146   73.3161 H   0  0  0  0  0  0  0  0  0  0  0  0
  128.3547  126.0208   73.3161 H   0  0  0  0  0  0  0  0  0  0  0  0
  131.6444  128.1945   70.7616 H   0  0  0  0  0  0  0  0  0  0  0  0
  131.1271  128.2929   68.3386 H   0  0  0  0  0  0  0  0  0  0  0  0
  127.4696  128.8910   67.1692 H   0  0  0  0  0  0  0  0  0  0  0  0
  128.2659  130.4405   63.6428 H   0  0  0  0  0  0  0  0  0  0  0  0
  126.6316  132.0946   62.7715 H   0  0  0  0  0  0  0  0  0  0  0  0
  124.3900  133.4094   61.5549 H   0  0  0  0  0  0  0  0  0  0  0  0
  124.9253  131.7263   61.2274 H   0  0  0  0  0  0  0  0  0  0  0  0
  123.1745  132.1280   61.2274 H   0  0  0  0  0  0  0  0  0  0  0  0
  123.4032  129.8549   64.5703 H   0  0  0  0  0  0  0  0  0  0  0  0
  125.0399  128.2020   65.4419 H   0  0  0  0  0  0  0  0  0  0  0  0
  129.3041  122.0397   60.7168 H   0  0  0  0  0  0  0  0  0  0  0  0
  128.5498  121.2985   58.4722 H   0  0  0  0  0  0  0  0  0  0  0  0
  1  2  1  0
  2  3  1  0
  3  4  1  0
  4  5  2  0
  4  6  1  0
  6  7  2  0
  7  8  1  0
  8  9  2  0
  9 10  1  0
 10 11  1  0
 11 12  2  0
 11 13  1  0
 13 14  1  0
 14 15  1  0
 15 16  2  0
 16 17  1  0
 17 18  1  0
 18 19  2  0
 19 20  1  0
 20 21  2  0
 21 22  1  0
 22 23  1  0
 21 24  1  0
 24 25  2  0
 17 26  2  0
 26 27  1  0
 27 28  1  0
 28 29  2  0
 29 30  1  0
 30 31  2  0
 31 32  1  0
 32 33  1  0
 31 34  1  0
 34 35  2  0
 27 36  2  0
 36 37  1  0
 37 38  3  0
  9 39  1  0
 39 40  2  0
 40  6  1  0
 36 15  1  0
 25 18  1  0
 35 28  1  0
  1 41  1  0
  1 42  1  0
  1 43  1  0
  2 44  1  0
  2 45  1  0
  7 46  1  0
  8 47  1  0
 10 48  1  0
 13 49  1  0
 13 50  1  0
 19 51  1  0
 20 52  1  0
 23 53  1  0
 23 54  1  0
 23 55  1  0
 24 56  1  0
 25 57  1  0
 26 58  1  0
 29 59  1  0
 30 60  1  0
 33 61  1  0
 33 62  1  0
 33 63  1  0
 34 64  1  0
 35 65  1  0
 39 66  1  0
 40 67  1  0
M  END
>  <Binding energies>  (1) 
[-10.32]

>  <Ligand effiencies>  (1) 
[-0.25170731707317073]

>  <Interactions>  (1) 
["V-A:GLU:543:CD:4905, V-B:LYS:547:CE:9919, H-A:LYS:547:NZ:4948, V-A:GLY:544:C:4909, V-A:HIS:456:CE1:4066, V-A:GLU:543:C:4899, V-A:GLU:543:CB:4903, V-A:HIS:456:CD2:4064, V-B:HIS:456:CE1:9038, V-B:TYR:539:CE1:9844, V-B:MET:535:CE:9804, V-B:PRO:540:CA:9852, V-B:TYR:539:CZ:9846, V-B:PRO:540:N:9853, V-B:PRO:540:CB:9854, H-B:TYR:539:N:9839, V-B:ALA:541:CB:9861, H-B:GLU:543:OE2:9879, H-B:GLU:543:OE1:9878, V-B:GLU:543:CD:9877, V-B:GLU:543:CG:9876, V-B:TYR:539:CE2:9845, V-B:ILE:538:CG2:9832, V-B:ILE:538:CB:9831, V-B:PRO:540:CD:9856, V-B:TYR:539:C:9836, V-B:TYR:539:CD2:9843, V-B:ILE:369:CD1:8207, V-B:ILE:538:CA:9829, V-B:TYR:539:CD1:9842, V-B:ARG:545:CZ:9895, H-B:GLY:454:N:9018"]

$$$$
1b_Ghoteimi_2023
     RDKit          3D

 54 57  0  0  0  0  0  0  0  0999 V2000
  128.6360  127.3590   74.0910 C   0  0  0  0  0  0  0  0  0  0  0  0
  129.7430  126.9970   73.2730 O   0  0  0  0  0  0  0  0  0  0  0  0
  129.6250  127.0910   71.9000 C   0  0  0  0  0  0  0  0  0  0  0  0
  128.4870  126.5240   71.3300 C   0  0  0  0  0  0  0  0  0  0  0  0
  128.2830  126.5690   69.9540 C   0  0  0  0  0  0  0  0  0  0  0  0
  129.2120  127.1890   69.1040 C   0  0  0  0  0  0  0  0  0  0  0  0
  128.9900  127.2340   67.6180 C   0  0  0  0  0  0  0  0  0  0  0  0
  128.0960  128.1200   67.0090 C   0  0  0  0  0  0  0  0  0  0  0  0
  127.9280  128.1250   65.6180 C   0  0  0  0  0  0  0  0  0  0  0  0
  126.9520  129.0940   65.0380 C   0  0  0  0  0  0  0  0  0  0  0  0
  125.5780  128.8880   65.1880 C   0  0  0  0  0  0  0  0  0  0  0  0
  124.6640  129.7840   64.6420 C   0  0  0  0  0  0  0  0  0  0  0  0
  125.1040  130.9000   63.9300 C   0  0  0  0  0  0  0  0  0  0  0  0
  124.1260  131.7340   63.4230 O   0  0  0  0  0  0  0  0  0  0  0  0
  124.1180  132.0280   62.0300 C   0  0  0  0  0  0  0  0  0  0  0  0
  126.4820  131.1070   63.7690 C   0  0  0  0  0  0  0  0  0  0  0  0
  127.3940  130.2090   64.3170 C   0  0  0  0  0  0  0  0  0  0  0  0
  128.6960  127.2200   64.8440 C   0  0  0  0  0  0  0  0  0  0  0  0
  128.6290  127.2510   63.3800 C   0  0  0  0  0  0  0  0  0  0  0  0
  128.5750  127.2770   62.2240 N   0  0  0  0  0  0  0  0  0  0  0  0
  129.5660  126.3380   65.5230 C   0  0  0  0  0  0  0  0  0  0  0  0
  130.5980  125.1320   64.7170 S   0  0  0  0  0  0  0  0  0  0  0  0
  132.3240  125.4440   65.2190 C   0  0  0  0  0  0  0  0  0  0  0  0
  133.3850  125.0310   64.1880 C   0  0  0  0  0  0  0  0  0  0  0  0
  134.5860  125.1490   64.4400 O   0  0  0  0  0  0  0  0  0  0  0  0
  132.8860  124.5500   63.0280 N   0  0  0  0  0  0  0  0  0  0  0  0
  133.6040  124.1030   61.9250 C   0  0  0  0  0  0  0  0  0  0  0  0
  133.0010  123.7240   60.7260 C   0  0  0  0  0  0  0  0  0  0  0  0
  134.0400  123.3520   59.9050 C   0  0  0  0  0  0  0  0  0  0  0  0
  135.2090  123.5020   60.5730 O   0  0  0  0  0  0  0  0  0  0  0  0
  134.9190  123.9780   61.8520 N   0  0  0  0  0  0  0  0  0  0  0  0
  129.7180  126.3650   66.8690 N   0  0  0  0  0  0  0  0  0  0  0  0
  130.3560  127.7550   69.6890 C   0  0  0  0  0  0  0  0  0  0  0  0
  130.5640  127.7110   71.0640 C   0  0  0  0  0  0  0  0  0  0  0  0
  128.9173  127.2670   75.1504 H   0  0  0  0  0  0  0  0  0  0  0  0
  128.3467  128.3986   73.8774 H   0  0  0  0  0  0  0  0  0  0  0  0
  127.7884  126.6912   73.8774 H   0  0  0  0  0  0  0  0  0  0  0  0
  127.7416  126.0354   71.9747 H   0  0  0  0  0  0  0  0  0  0  0  0
  127.3791  126.1113   69.5257 H   0  0  0  0  0  0  0  0  0  0  0  0
  127.5180  128.8211   67.6290 H   0  0  0  0  0  0  0  0  0  0  0  0
  125.2158  128.0098   65.7426 H   0  0  0  0  0  0  0  0  0  0  0  0
  123.5856  129.6109   64.7729 H   0  0  0  0  0  0  0  0  0  0  0  0
  124.0883  133.1181   61.8855 H   0  0  0  0  0  0  0  0  0  0  0  0
  125.0276  131.6210   61.5641 H   0  0  0  0  0  0  0  0  0  0  0  0
  123.2319  131.5721   61.5641 H   0  0  0  0  0  0  0  0  0  0  0  0
  126.8432  131.9816   63.2080 H   0  0  0  0  0  0  0  0  0  0  0  0
  128.4726  130.3776   64.1819 H   0  0  0  0  0  0  0  0  0  0  0  0
  132.4345  126.5218   65.4092 H   0  0  0  0  0  0  0  0  0  0  0  0
  132.5022  124.8227   66.1091 H   0  0  0  0  0  0  0  0  0  0  0  0
  131.8820  124.4930   62.9440 H   0  0  0  0  0  0  0  0  0  0  0  0
  131.9270  123.7228   60.4883 H   0  0  0  0  0  0  0  0  0  0  0  0
  133.9380  122.9904   58.8711 H   0  0  0  0  0  0  0  0  0  0  0  0
  131.1036  128.2435   69.0467 H   0  0  0  0  0  0  0  0  0  0  0  0
  131.4682  128.1642   71.4965 H   0  0  0  0  0  0  0  0  0  0  0  0
  1  2  1  0
  2  3  1  0
  3  4  2  0
  4  5  1  0
  5  6  2  0
  6  7  1  0
  7  8  2  0
  8  9  1  0
  9 10  1  0
 10 11  2  0
 11 12  1  0
 12 13  2  0
 13 14  1  0
 14 15  1  0
 13 16  1  0
 16 17  2  0
  9 18  2  0
 18 19  1  0
 19 20  3  0
 18 21  1  0
 21 22  1  0
 22 23  1  0
 23 24  1  0
 24 25  2  0
 24 26  1  0
 26 27  1  0
 27 28  1  0
 28 29  2  0
 29 30  1  0
 30 31  1  0
 21 32  2  0
  6 33  1  0
 33 34  2  0
 34  3  1  0
 32  7  1  0
 17 10  1  0
 31 27  2  0
  1 35  1  0
  1 36  1  0
  1 37  1  0
  4 38  1  0
  5 39  1  0
  8 40  1  0
 11 41  1  0
 12 42  1  0
 15 43  1  0
 15 44  1  0
 15 45  1  0
 16 46  1  0
 17 47  1  0
 23 48  1  0
 23 49  1  0
 26 50  1  0
 28 51  1  0
 29 52  1  0
 33 53  1  0
 34 54  1  0
M  END
>  <Binding energies>  (1) 
[-9.7]

>  <Ligand effiencies>  (1) 
[-0.27714285714285714]

>  <Interactions>  (1) 
["V-A:ASP:366:CB:3208, V-A:ASP:366:CG:3209, V-A:GLU:543:CD:4905, V-B:LYS:547:CE:9919, V-A:LYS:547:CE:4947, H-A:LYS:547:NZ:4948, V-A:GLY:544:C:4909, V-A:HIS:456:CE1:4066, V-A:GLU:543:C:4899, V-A:HIS:456:CD2:4064, V-B:HIS:456:CE1:9038, V-B:GLU:543:CD:9877, V-A:ARG:545:CZ:4923, H-A:ARG:545:NH2:4925, H-A:ARG:545:NE:4921, V-A:GLU:543:CG:4904, V-A:ILE:369:CG1:3234, V-A:ILE:369:CB:3232, V-B:ILE:369:CD1:8207, H-A:GLY:454:N:4046, H-A:ARG:545:NH1:4924, V-A:ILE:369:CG2:3233, V-B:ARG:545:CZ:9895, H-B:GLY:454:N:9018, V-A:ASP:366:CA:3206"]

$$$$
1b_Grossjean_2025
     RDKit          3D

 42 43  0  0  0  0  0  0  0  0999 V2000
  124.0250  125.0610   59.4580 C   0  0  0  0  0  0  0  0  0  0  0  0
  124.6990  123.8090   59.4720 O   0  0  0  0  0  0  0  0  0  0  0  0
  125.2150  123.3080   60.6230 C   0  0  0  0  0  0  0  0  0  0  0  0
  124.5320  123.0420   61.6160 O   0  0  0  0  0  0  0  0  0  0  0  0
  126.7020  123.1000   60.5650 C   0  0  0  0  0  0  0  0  0  0  0  0
  127.5180  123.2550   61.6970 C   0  0  0  0  0  0  0  0  0  0  0  0
  128.8920  123.0560   61.6090 C   0  0  0  0  0  0  0  0  0  0  0  0
  129.4800  122.6980   60.3960 C   0  0  0  0  0  0  0  0  0  0  0  0
  130.8770  122.5250   60.4250 N   0  0  0  0  0  0  0  0  0  0  0  0
  131.6680  121.9840   61.3780 C   0  0  0  0  0  0  0  0  0  0  0  0
  131.2810  121.5160   62.4480 O   0  0  0  0  0  0  0  0  0  0  0  0
  133.1620  121.9620   61.0540 C   0  0  0  0  0  0  0  0  0  0  0  0
  133.8790  123.6320   61.0050 S   0  0  0  0  0  0  0  0  0  0  0  0
  133.1750  124.5510   62.3570 C   0  0  0  0  0  0  0  0  0  0  0  0
  133.8500  124.4080   63.5250 N   0  0  0  0  0  0  0  0  0  0  0  0
  133.4010  125.0650   64.6200 C   0  0  0  0  0  0  0  0  0  0  0  0
  134.2140  124.8690   65.8860 C   0  0  0  0  0  0  0  0  0  0  0  0
  132.2680  125.8750   64.5980 C   0  0  0  0  0  0  0  0  0  0  0  0
  131.5530  126.0110   63.4040 C   0  0  0  0  0  0  0  0  0  0  0  0
  130.3040  126.8920   63.4090 C   0  0  0  0  0  0  0  0  0  0  0  0
  132.0020  125.3340   62.2480 C   0  0  0  0  0  0  0  0  0  0  0  0
  131.2450  125.4270   60.9970 C   0  0  0  0  0  0  0  0  0  0  0  0
  130.6450  125.5030   60.0110 N   0  0  0  0  0  0  0  0  0  0  0  0
  128.6720  122.5410   59.2600 C   0  0  0  0  0  0  0  0  0  0  0  0
  127.2970  122.7400   59.3490 C   0  0  0  0  0  0  0  0  0  0  0  0
  123.8464  125.3928   60.4914 H   0  0  0  0  0  0  0  0  0  0  0  0
  124.6445  125.8051   58.9359 H   0  0  0  0  0  0  0  0  0  0  0  0
  123.0628  124.9536   58.9359 H   0  0  0  0  0  0  0  0  0  0  0  0
  127.0676  123.5358   62.6605 H   0  0  0  0  0  0  0  0  0  0  0  0
  129.5198  123.1820   62.5034 H   0  0  0  0  0  0  0  0  0  0  0  0
  131.3500  122.8740   59.6040 H   0  0  0  0  0  0  0  0  0  0  0  0
  133.6830  121.3753   61.8249 H   0  0  0  0  0  0  0  0  0  0  0  0
  133.2848  121.5125   60.0576 H   0  0  0  0  0  0  0  0  0  0  0  0
  133.5692  125.0244   66.7636 H   0  0  0  0  0  0  0  0  0  0  0  0
  134.6206  123.8471   65.9061 H   0  0  0  0  0  0  0  0  0  0  0  0
  135.0416  125.5934   65.9061 H   0  0  0  0  0  0  0  0  0  0  0  0
  131.9403  126.4003   65.5072 H   0  0  0  0  0  0  0  0  0  0  0  0
  130.0071  127.1014   64.4473 H   0  0  0  0  0  0  0  0  0  0  0  0
  130.5207  127.8383   62.8917 H   0  0  0  0  0  0  0  0  0  0  0  0
  129.4853  126.3704   62.8917 H   0  0  0  0  0  0  0  0  0  0  0  0
  129.1254  122.2603   58.2979 H   0  0  0  0  0  0  0  0  0  0  0  0
  126.6704  122.6130   58.4539 H   0  0  0  0  0  0  0  0  0  0  0  0
  1  2  1  0
  2  3  1  0
  3  4  2  0
  3  5  1  0
  5  6  2  0
  6  7  1  0
  7  8  2  0
  8  9  1  0
  9 10  1  0
 10 11  2  0
 10 12  1  0
 12 13  1  0
 13 14  1  0
 14 15  2  0
 15 16  1  0
 16 17  1  0
 16 18  2  0
 18 19  1  0
 19 20  1  0
 19 21  2  0
 21 22  1  0
 22 23  3  0
  8 24  1  0
 24 25  2  0
 25  5  1  0
 21 14  1  0
  1 26  1  0
  1 27  1  0
  1 28  1  0
  6 29  1  0
  7 30  1  0
  9 31  1  0
 12 32  1  0
 12 33  1  0
 17 34  1  0
 17 35  1  0
 17 36  1  0
 18 37  1  0
 20 38  1  0
 20 39  1  0
 20 40  1  0
 24 41  1  0
 25 42  1  0
M  END
>  <Binding energies>  (1) 
[-7.15]

>  <Ligand effiencies>  (1) 
[-0.275]

>  <Interactions>  (1) 
["V-A:ASP:366:CG:3209, V-A:GLU:543:CD:4905, V-A:HIS:456:CE1:4066, V-B:ASP:366:CB:8180, V-B:PRO:540:CA:9852, V-B:TYR:539:CZ:9846, V-B:ASN:362:C:8140, V-B:PRO:540:N:9853, V-B:PRO:540:C:9850, V-B:PRO:540:CB:9854, V-B:ASP:366:CG:8181, V-B:LEU:363:CA:8153, V-B:ALA:541:CB:9861, H-B:TYR:539:OH:9847, V-B:GLU:543:CD:9877, V-B:GLU:543:CG:9876, V-A:ARG:545:CZ:4923, V-A:ARG:545:CD:4920, V-B:TYR:539:CE2:9845, V-A:ARG:545:CG:4919, H-B:ALA:541:N:9860, V-A:LEU:475:CD1:4254, V-B:TYR:539:CD2:9843, H-A:GLY:454:N:4046, V-A:ILE:369:CG2:3233, V-A:GLY:454:CA:4045, V-A:GLY:453:C:4038, V-A:GLY:454:C:4043"]

$$$$
1c_Ghoteimi_2023
     RDKit          3D

 54 57  0  0  0  0  0  0  0  0999 V2000
  128.6440  127.3860   74.0560 C   0  0  0  0  0  0  0  0  0  0  0  0
  129.7170  127.0220   73.1950 O   0  0  0  0  0  0  0  0  0  0  0  0
  129.5590  127.1490   71.8280 C   0  0  0  0  0  0  0  0  0  0  0  0
  128.4000  126.6070   71.2800 C   0  0  0  0  0  0  0  0  0  0  0  0
  128.1600  126.6860   69.9110 C   0  0  0  0  0  0  0  0  0  0  0  0
  129.0750  127.3100   69.0480 C   0  0  0  0  0  0  0  0  0  0  0  0
  128.8220  127.3940   67.5710 C   0  0  0  0  0  0  0  0  0  0  0  0
  127.9800  128.3540   67.0000 C   0  0  0  0  0  0  0  0  0  0  0  0
  127.7960  128.4100   65.6140 C   0  0  0  0  0  0  0  0  0  0  0  0
  126.9370  129.5020   65.0690 C   0  0  0  0  0  0  0  0  0  0  0  0
  125.5710  129.2950   64.8590 C   0  0  0  0  0  0  0  0  0  0  0  0
  124.7760  130.3070   64.3310 C   0  0  0  0  0  0  0  0  0  0  0  0
  125.3300  131.5430   63.9990 C   0  0  0  0  0  0  0  0  0  0  0  0
  124.4660  132.4890   63.4800 O   0  0  0  0  0  0  0  0  0  0  0  0
  124.1400  132.4470   62.0950 C   0  0  0  0  0  0  0  0  0  0  0  0
  126.7030  131.7530   64.2020 C   0  0  0  0  0  0  0  0  0  0  0  0
  127.4960  130.7380   64.7300 C   0  0  0  0  0  0  0  0  0  0  0  0
  128.4590  127.4540   64.8080 C   0  0  0  0  0  0  0  0  0  0  0  0
  128.2810  127.4380   63.3520 C   0  0  0  0  0  0  0  0  0  0  0  0
  128.1410  127.4270   62.2030 N   0  0  0  0  0  0  0  0  0  0  0  0
  129.3060  126.5250   65.4460 C   0  0  0  0  0  0  0  0  0  0  0  0
  130.3290  125.3800   64.5470 S   0  0  0  0  0  0  0  0  0  0  0  0
  131.9710  125.5100   65.3270 C   0  0  0  0  0  0  0  0  0  0  0  0
  133.1020  125.1440   64.3590 C   0  0  0  0  0  0  0  0  0  0  0  0
  134.2650  125.1180   64.7640 O   0  0  0  0  0  0  0  0  0  0  0  0
  132.7070  124.8270   63.1060 N   0  0  0  0  0  0  0  0  0  0  0  0
  133.5010  124.3170   62.0910 C   0  0  0  0  0  0  0  0  0  0  0  0
  134.7970  124.0890   62.1170 N   0  0  0  0  0  0  0  0  0  0  0  0
  135.2170  123.5610   60.9840 C   0  0  0  0  0  0  0  0  0  0  0  0
  134.2490  123.3470   60.0080 C   0  0  0  0  0  0  0  0  0  0  0  0
  132.7070  123.8740   60.6150 S   0  0  0  0  0  0  0  0  0  0  0  0
  129.4870  126.5040   66.7880 N   0  0  0  0  0  0  0  0  0  0  0  0
  130.2360  127.8580   69.6130 C   0  0  0  0  0  0  0  0  0  0  0  0
  130.4800  127.7800   70.9800 C   0  0  0  0  0  0  0  0  0  0  0  0
  128.9617  127.2782   75.1036 H   0  0  0  0  0  0  0  0  0  0  0  0
  128.3590  128.4311   73.8650 H   0  0  0  0  0  0  0  0  0  0  0  0
  127.7819  126.7300   73.8650 H   0  0  0  0  0  0  0  0  0  0  0  0
  127.6673  126.1119   71.9343 H   0  0  0  0  0  0  0  0  0  0  0  0
  127.2374  126.2520   69.4982 H   0  0  0  0  0  0  0  0  0  0  0  0
  127.4567  129.0728   67.6477 H   0  0  0  0  0  0  0  0  0  0  0  0
  125.1209  128.3241   65.1133 H   0  0  0  0  0  0  0  0  0  0  0  0
  123.7016  130.1309   64.1741 H   0  0  0  0  0  0  0  0  0  0  0  0
  123.0552  132.3072   61.9777 H   0  0  0  0  0  0  0  0  0  0  0  0
  124.4417  133.3914   61.6185 H   0  0  0  0  0  0  0  0  0  0  0  0
  124.6712  131.6099   61.6185 H   0  0  0  0  0  0  0  0  0  0  0  0
  127.1536  132.7225   63.9431 H   0  0  0  0  0  0  0  0  0  0  0  0
  128.5718  130.9098   64.8819 H   0  0  0  0  0  0  0  0  0  0  0  0
  132.1193  126.5445   65.6703 H   0  0  0  0  0  0  0  0  0  0  0  0
  132.0029  124.8011   66.1675 H   0  0  0  0  0  0  0  0  0  0  0  0
  131.7220  124.8950   62.8980 H   0  0  0  0  0  0  0  0  0  0  0  0
  136.2739  123.3041   60.8197 H   0  0  0  0  0  0  0  0  0  0  0  0
  134.4298  122.9143   59.0130 H   0  0  0  0  0  0  0  0  0  0  0  0
  130.9677  128.3592   68.9623 H   0  0  0  0  0  0  0  0  0  0  0  0
  131.3998  128.2154   71.3977 H   0  0  0  0  0  0  0  0  0  0  0  0
  1  2  1  0
  2  3  1  0
  3  4  2  0
  4  5  1  0
  5  6  2  0
  6  7  1  0
  7  8  2  0
  8  9  1  0
  9 10  1  0
 10 11  2  0
 11 12  1  0
 12 13  2  0
 13 14  1  0
 14 15  1  0
 13 16  1  0
 16 17  2  0
  9 18  2  0
 18 19  1  0
 19 20  3  0
 18 21  1  0
 21 22  1  0
 22 23  1  0
 23 24  1  0
 24 25  2  0
 24 26  1  0
 26 27  1  0
 27 28  2  0
 28 29  1  0
 29 30  2  0
 30 31  1  0
 21 32  2  0
  6 33  1  0
 33 34  2  0
 34  3  1  0
 32  7  1  0
 17 10  1  0
 31 27  1  0
  1 35  1  0
  1 36  1  0
  1 37  1  0
  4 38  1  0
  5 39  1  0
  8 40  1  0
 11 41  1  0
 12 42  1  0
 15 43  1  0
 15 44  1  0
 15 45  1  0
 16 46  1  0
 17 47  1  0
 23 48  1  0
 23 49  1  0
 26 50  1  0
 29 51  1  0
 30 52  1  0
 33 53  1  0
 34 54  1  0
M  END
>  <Binding energies>  (1) 
[-9.52]

>  <Ligand effiencies>  (1) 
[-0.27199999999999996]

>  <Interactions>  (1) 
["V-A:ASP:366:CB:3208, V-A:ASP:366:CG:3209, V-A:GLU:543:CD:4905, V-B:LYS:547:CE:9919, V-A:LYS:547:CE:4947, H-A:LYS:547:NZ:4948, V-A:GLY:544:C:4909, V-A:HIS:456:CE1:4066, V-A:GLU:543:C:4899, V-A:HIS:456:CD2:4064, V-B:HIS:456:CE1:9038, V-B:HIS:456:CD2:9036, V-B:GLU:543:CD:9877, V-B:GLU:543:CG:9876, V-A:ARG:545:CZ:4923, H-A:ARG:545:NE:4921, V-A:GLU:543:CG:4904, V-A:ILE:369:CG1:3234, V-A:ILE:369:CB:3232, V-B:ILE:369:CD1:8207, H-A:GLY:454:N:4046, H-A:ARG:545:NH1:4924, V-A:ILE:369:CG2:3233, V-B:ARG:545:CZ:9895, V-A:GLY:453:C:4038, V-A:GLY:453:CA:4040, H-B:GLY:454:N:9018, V-A:ASP:366:CA:3206, V-B:GLY:454:CA:9017"]

$$$$
1c_Grossjean_2025
     RDKit          3D

 40 41  0  0  0  0  0  0  0  0999 V2000
  132.0780  121.7790   61.6190 C   0  0  0  0  0  0  0  0  0  0  0  0
  130.8040  121.1490   61.7060 O   0  0  0  0  0  0  0  0  0  0  0  0
  129.6770  121.8540   61.3300 C   0  0  0  0  0  0  0  0  0  0  0  0
  129.3540  122.9690   62.1030 C   0  0  0  0  0  0  0  0  0  0  0  0
  128.2380  123.7440   61.8020 C   0  0  0  0  0  0  0  0  0  0  0  0
  127.4260  123.4100   60.7080 C   0  0  0  0  0  0  0  0  0  0  0  0
  126.2710  124.1170   60.3220 N   0  0  0  0  0  0  0  0  0  0  0  0
  124.9730  123.8370   60.5670 C   0  0  0  0  0  0  0  0  0  0  0  0
  124.5600  122.8760   61.2160 O   0  0  0  0  0  0  0  0  0  0  0  0
  123.9660  124.8250   59.9750 C   0  0  0  0  0  0  0  0  0  0  0  0
  123.9790  124.7980   58.1580 S   0  0  0  0  0  0  0  0  0  0  0  0
  125.6650  124.6240   57.6100 C   0  0  0  0  0  0  0  0  0  0  0  0
  126.4810  125.6130   58.0540 N   0  0  0  0  0  0  0  0  0  0  0  0
  127.7880  125.5870   57.7020 C   0  0  0  0  0  0  0  0  0  0  0  0
  128.6400  126.7190   58.2440 C   0  0  0  0  0  0  0  0  0  0  0  0
  128.3280  124.5910   56.8910 C   0  0  0  0  0  0  0  0  0  0  0  0
  127.4910  123.5810   56.4080 C   0  0  0  0  0  0  0  0  0  0  0  0
  128.1030  122.5100   55.5070 C   0  0  0  0  0  0  0  0  0  0  0  0
  126.1220  123.5880   56.7610 C   0  0  0  0  0  0  0  0  0  0  0  0
  125.2190  122.5690   56.2200 C   0  0  0  0  0  0  0  0  0  0  0  0
  124.5060  121.7650   55.7930 N   0  0  0  0  0  0  0  0  0  0  0  0
  127.7400  122.2880   59.9390 C   0  0  0  0  0  0  0  0  0  0  0  0
  128.8570  121.5150   60.2430 C   0  0  0  0  0  0  0  0  0  0  0  0
  132.4629  121.9693   62.6318 H   0  0  0  0  0  0  0  0  0  0  0  0
  132.7758  121.1221   61.0790 H   0  0  0  0  0  0  0  0  0  0  0  0
  131.9795  122.7323   61.0790 H   0  0  0  0  0  0  0  0  0  0  0  0
  129.9884  123.2388   62.9601 H   0  0  0  0  0  0  0  0  0  0  0  0
  127.9926  124.6187   62.4221 H   0  0  0  0  0  0  0  0  0  0  0  0
  126.4550  124.9800   59.8340 H   0  0  0  0  0  0  0  0  0  0  0  0
  122.9583  124.5599   60.3275 H   0  0  0  0  0  0  0  0  0  0  0  0
  124.2473  125.8365   60.3031 H   0  0  0  0  0  0  0  0  0  0  0  0
  128.6231  126.6966   59.3436 H   0  0  0  0  0  0  0  0  0  0  0  0
  129.6750  126.6006   57.8907 H   0  0  0  0  0  0  0  0  0  0  0  0
  128.2398  127.6808   57.8907 H   0  0  0  0  0  0  0  0  0  0  0  0
  129.3976  124.5994   56.6345 H   0  0  0  0  0  0  0  0  0  0  0  0
  128.5534  121.7218   56.1282 H   0  0  0  0  0  0  0  0  0  0  0  0
  127.3183  122.0729   54.8720 H   0  0  0  0  0  0  0  0  0  0  0  0
  128.8780  122.9641   54.8720 H   0  0  0  0  0  0  0  0  0  0  0  0
  127.1005  122.0130   59.0873 H   0  0  0  0  0  0  0  0  0  0  0  0
  129.0978  120.6349   59.6287 H   0  0  0  0  0  0  0  0  0  0  0  0
  1  2  1  0
  2  3  1  0
  3  4  2  0
  4  5  1  0
  5  6  2  0
  6  7  1  0
  7  8  1  0
  8  9  2  0
  8 10  1  0
 10 11  1  0
 11 12  1  0
 12 13  2  0
 13 14  1  0
 14 15  1  0
 14 16  2  0
 16 17  1  0
 17 18  1  0
 17 19  2  0
 19 20  1  0
 20 21  3  0
  6 22  1  0
 22 23  2  0
 23  3  1  0
 19 12  1  0
  1 24  1  0
  1 25  1  0
  1 26  1  0
  4 27  1  0
  5 28  1  0
  7 29  1  0
 10 30  1  0
 10 31  1  0
 15 32  1  0
 15 33  1  0
 15 34  1  0
 16 35  1  0
 18 36  1  0
 18 37  1  0
 18 38  1  0
 22 39  1  0
 23 40  1  0
M  END
>  <Binding energies>  (1) 
[-6.6]

>  <Ligand effiencies>  (1) 
[-0.27499999999999997]

>  <Interactions>  (1) 
["V-B:TYR:539:CE1:9844, V-B:MET:535:CE:9804, V-B:PRO:540:CA:9852, V-B:ASN:362:C:8140, V-B:PRO:540:N:9853, V-B:PRO:540:C:9850, V-B:PRO:540:CB:9854, V-B:ASP:366:CG:8181, V-B:LEU:363:CD1:8157, V-B:LEU:363:CA:8153, V-B:ALA:541:CB:9861, H-B:GLU:543:OE2:9879, V-B:GLU:543:CD:9877, V-B:GLU:543:CG:9876, V-B:TYR:539:CE2:9845, H-B:ALA:541:N:9860, V-B:ILE:538:CG2:9832, V-B:ILE:538:CB:9831, V-A:LEU:475:CD1:4254, V-B:PRO:540:CD:9856, V-B:TYR:539:C:9836, V-B:TYR:539:CD2:9843, V-B:ILE:538:CA:9829, V-B:TYR:539:CD1:9842"]

$$$$
1d_Ghoteimi_2023
     RDKit          3D

 50 52  0  0  0  0  0  0  0  0999 V2000
  124.4850  129.9760   63.2200 C   0  0  0  0  0  0  0  0  0  0  0  0
  124.2080  130.5340   64.4950 O   0  0  0  0  0  0  0  0  0  0  0  0
  124.2800  129.7730   65.6070 C   0  0  0  0  0  0  0  0  0  0  0  0
  123.6000  129.9030   66.6250 O   0  0  0  0  0  0  0  0  0  0  0  0
  125.3380  128.6780   65.4920 C   0  0  0  0  0  0  0  0  0  0  0  0
  126.9580  129.4930   65.3720 S   0  0  0  0  0  0  0  0  0  0  0  0
  128.1720  128.3290   65.9530 C   0  0  0  0  0  0  0  0  0  0  0  0
  128.2550  128.2560   67.3030 N   0  0  0  0  0  0  0  0  0  0  0  0
  129.1440  127.4090   67.8820 C   0  0  0  0  0  0  0  0  0  0  0  0
  129.1700  127.3860   69.3830 C   0  0  0  0  0  0  0  0  0  0  0  0
  130.1390  128.0980   70.1070 C   0  0  0  0  0  0  0  0  0  0  0  0
  130.1650  128.0700   71.4980 C   0  0  0  0  0  0  0  0  0  0  0  0
  129.2250  127.3270   72.2100 C   0  0  0  0  0  0  0  0  0  0  0  0
  129.3290  127.3540   73.5870 O   0  0  0  0  0  0  0  0  0  0  0  0
  128.2300  127.8290   74.3560 C   0  0  0  0  0  0  0  0  0  0  0  0
  128.2520  126.6100   71.5020 C   0  0  0  0  0  0  0  0  0  0  0  0
  128.2280  126.6420   70.1100 C   0  0  0  0  0  0  0  0  0  0  0  0
  129.9720  126.5990   67.0970 C   0  0  0  0  0  0  0  0  0  0  0  0
  129.9170  126.6640   65.6990 C   0  0  0  0  0  0  0  0  0  0  0  0
  130.8340  125.7750   64.9220 C   0  0  0  0  0  0  0  0  0  0  0  0
  132.2200  125.9310   65.0260 C   0  0  0  0  0  0  0  0  0  0  0  0
  133.0800  125.1070   64.3050 C   0  0  0  0  0  0  0  0  0  0  0  0
  132.5750  124.1100   63.4710 C   0  0  0  0  0  0  0  0  0  0  0  0
  133.5020  123.3450   62.7900 O   0  0  0  0  0  0  0  0  0  0  0  0
  133.7670  123.6310   61.4210 C   0  0  0  0  0  0  0  0  0  0  0  0
  131.1850  123.9420   63.3730 C   0  0  0  0  0  0  0  0  0  0  0  0
  130.3270  124.7660   64.0960 C   0  0  0  0  0  0  0  0  0  0  0  0
  129.0060  127.5690   65.1010 C   0  0  0  0  0  0  0  0  0  0  0  0
  128.9790  127.7540   63.6470 C   0  0  0  0  0  0  0  0  0  0  0  0
  128.9590  127.8990   62.4990 N   0  0  0  0  0  0  0  0  0  0  0  0
  124.9709  128.9972   63.3458 H   0  0  0  0  0  0  0  0  0  0  0  0
  123.5449  129.8498   62.6629 H   0  0  0  0  0  0  0  0  0  0  0  0
  125.1539  130.6485   62.6629 H   0  0  0  0  0  0  0  0  0  0  0  0
  125.3078  128.0318   66.3817 H   0  0  0  0  0  0  0  0  0  0  0  0
  125.1529  128.0522   64.6065 H   0  0  0  0  0  0  0  0  0  0  0  0
  130.8918  128.6891   69.5648 H   0  0  0  0  0  0  0  0  0  0  0  0
  130.9342  128.6393   72.0404 H   0  0  0  0  0  0  0  0  0  0  0  0
  128.4613  127.7290   75.4268 H   0  0  0  0  0  0  0  0  0  0  0  0
  128.0459  128.8870   74.1179 H   0  0  0  0  0  0  0  0  0  0  0  0
  127.3332  127.2381   74.1179 H   0  0  0  0  0  0  0  0  0  0  0  0
  127.5028  126.0184   72.0485 H   0  0  0  0  0  0  0  0  0  0  0  0
  127.4563  126.0735   69.5703 H   0  0  0  0  0  0  0  0  0  0  0  0
  130.6731  125.9043   67.5827 H   0  0  0  0  0  0  0  0  0  0  0  0
  132.6338  126.7107   65.6824 H   0  0  0  0  0  0  0  0  0  0  0  0
  134.1678  125.2437   64.3941 H   0  0  0  0  0  0  0  0  0  0  0  0
  134.5132  124.4363   61.3524 H   0  0  0  0  0  0  0  0  0  0  0  0
  134.1551  122.7284   60.9263 H   0  0  0  0  0  0  0  0  0  0  0  0
  132.8375  123.9493   60.9263 H   0  0  0  0  0  0  0  0  0  0  0  0
  130.7722  123.1566   62.7227 H   0  0  0  0  0  0  0  0  0  0  0  0
  129.2393  124.6223   64.0171 H   0  0  0  0  0  0  0  0  0  0  0  0
  1  2  1  0
  2  3  1  0
  3  4  2  0
  3  5  1  0
  5  6  1  0
  6  7  1  0
  7  8  2  0
  8  9  1  0
  9 10  1  0
 10 11  2  0
 11 12  1  0
 12 13  2  0
 13 14  1  0
 14 15  1  0
 13 16  1  0
 16 17  2  0
  9 18  2  0
 18 19  1  0
 19 20  1  0
 20 21  2  0
 21 22  1  0
 22 23  2  0
 23 24  1  0
 24 25  1  0
 23 26  1  0
 26 27  2  0
 19 28  2  0
 28 29  1  0
 29 30  3  0
 28  7  1  0
 17 10  1  0
 27 20  1  0
  1 31  1  0
  1 32  1  0
  1 33  1  0
  5 34  1  0
  5 35  1  0
 11 36  1  0
 12 37  1  0
 15 38  1  0
 15 39  1  0
 15 40  1  0
 16 41  1  0
 17 42  1  0
 18 43  1  0
 21 44  1  0
 22 45  1  0
 25 46  1  0
 25 47  1  0
 25 48  1  0
 26 49  1  0
 27 50  1  0
M  END
>  <Binding energies>  (1) 
[-8.61]

>  <Ligand effiencies>  (1) 
[-0.287]

>  <Interactions>  (1) 
["V-A:ASP:366:CG:3209, V-A:GLU:543:CD:4905, V-B:LYS:547:CE:9919, V-A:LYS:547:CE:4947, H-A:LYS:547:NZ:4948, V-A:GLY:544:C:4909, V-A:HIS:456:CE1:4066, V-A:GLU:543:C:4899, V-B:HIS:456:CE1:9038, V-B:HIS:456:CD2:9036, V-B:ASP:366:CG:8181, V-B:GLU:543:CD:9877, V-A:ARG:545:CZ:4923, H-A:GLY:454:N:4046, V-B:ARG:545:CZ:9895, H-B:TYR:484:OH:9316, H-B:GLY:454:N:9018, V-B:ARG:545:CG:9891, V-B:ARG:545:CD:9892, H-B:HIS:456:ND1:9035, H-B:ILE:455:N:9023"]

$$$$
1d_Grossjean_2025
     RDKit          3D

 36 37  0  0  0  0  0  0  0  0999 V2000
  127.6650  128.1500   58.4310 C   0  0  0  0  0  0  0  0  0  0  0  0
  127.4230  126.7480   57.9090 C   0  0  0  0  0  0  0  0  0  0  0  0
  128.4190  126.0350   57.2440 C   0  0  0  0  0  0  0  0  0  0  0  0
  128.1430  124.7400   56.7930 C   0  0  0  0  0  0  0  0  0  0  0  0
  129.2550  123.9720   56.0810 C   0  0  0  0  0  0  0  0  0  0  0  0
  126.8590  124.1900   57.0140 C   0  0  0  0  0  0  0  0  0  0  0  0
  126.5620  122.8190   56.5920 C   0  0  0  0  0  0  0  0  0  0  0  0
  126.3300  121.7360   56.2590 N   0  0  0  0  0  0  0  0  0  0  0  0
  125.9020  124.9950   57.6750 C   0  0  0  0  0  0  0  0  0  0  0  0
  124.2420  124.4650   58.0340 S   0  0  0  0  0  0  0  0  0  0  0  0
  124.0120  124.5800   59.8340 C   0  0  0  0  0  0  0  0  0  0  0  0
  125.0220  123.7240   60.6000 C   0  0  0  0  0  0  0  0  0  0  0  0
  124.6120  122.8880   61.4060 O   0  0  0  0  0  0  0  0  0  0  0  0
  126.3190  123.9490   60.2960 N   0  0  0  0  0  0  0  0  0  0  0  0
  127.4840  123.3570   60.8190 C   0  0  0  0  0  0  0  0  0  0  0  0
  127.8940  122.1750   60.1970 C   0  0  0  0  0  0  0  0  0  0  0  0
  129.0370  121.5110   60.6330 C   0  0  0  0  0  0  0  0  0  0  0  0
  129.7780  122.0340   61.6900 C   0  0  0  0  0  0  0  0  0  0  0  0
  129.3850  123.2160   62.3140 C   0  0  0  0  0  0  0  0  0  0  0  0
  128.2410  123.8810   61.8810 C   0  0  0  0  0  0  0  0  0  0  0  0
  126.1870  126.2420   58.1280 N   0  0  0  0  0  0  0  0  0  0  0  0
  127.6628  128.1372   59.5309 H   0  0  0  0  0  0  0  0  0  0  0  0
  128.6390  128.5125   58.0705 H   0  0  0  0  0  0  0  0  0  0  0  0
  126.8689  128.8180   58.0705 H   0  0  0  0  0  0  0  0  0  0  0  0
  129.4088  126.4846   57.0761 H   0  0  0  0  0  0  0  0  0  0  0  0
  129.9197  123.5129   56.8276 H   0  0  0  0  0  0  0  0  0  0  0  0
  128.8126  123.1860   55.4513 H   0  0  0  0  0  0  0  0  0  0  0  0
  129.8335  124.6640   55.4513 H   0  0  0  0  0  0  0  0  0  0  0  0
  124.1323  125.6296   60.1404 H   0  0  0  0  0  0  0  0  0  0  0  0
  123.0044  124.2075   60.0708 H   0  0  0  0  0  0  0  0  0  0  0  0
  126.4940  124.6350   59.5770 H   0  0  0  0  0  0  0  0  0  0  0  0
  127.3105  121.7671   59.3585 H   0  0  0  0  0  0  0  0  0  0  0  0
  129.3536  120.5774   60.1450 H   0  0  0  0  0  0  0  0  0  0  0  0
  130.6812  121.5094   62.0350 H   0  0  0  0  0  0  0  0  0  0  0  0
  129.9772  123.6229   63.1469 H   0  0  0  0  0  0  0  0  0  0  0  0
  127.9298  124.8160   62.3698 H   0  0  0  0  0  0  0  0  0  0  0  0
  1  2  1  0
  2  3  2  0
  3  4  1  0
  4  5  1  0
  4  6  2  0
  6  7  1  0
  7  8  3  0
  6  9  1  0
  9 10  1  0
 10 11  1  0
 11 12  1  0
 12 13  2  0
 12 14  1  0
 14 15  1  0
 15 16  2  0
 16 17  1  0
 17 18  2  0
 18 19  1  0
 19 20  2  0
  9 21  2  0
 21  2  1  0
 20 15  1  0
  1 22  1  0
  1 23  1  0
  1 24  1  0
  3 25  1  0
  5 26  1  0
  5 27  1  0
  5 28  1  0
 11 29  1  0
 11 30  1  0
 14 31  1  0
 16 32  1  0
 17 33  1  0
 18 34  1  0
 19 35  1  0
 20 36  1  0
M  END
>  <Binding energies>  (1) 
[-6.7]

>  <Ligand effiencies>  (1) 
[-0.30454545454545456]

>  <Interactions>  (1) 
["V-B:TYR:539:CE1:9844, V-B:MET:535:CE:9804, V-B:PRO:540:CA:9852, V-B:TYR:539:CZ:9846, V-B:ASN:362:C:8140, V-B:PRO:540:N:9853, V-B:PRO:540:C:9850, V-B:PRO:540:CB:9854, H-B:TYR:539:N:9839, V-B:LEU:363:CA:8153, H-B:TYR:531:OH:9764, V-B:ALA:541:CB:9861, V-B:GLU:543:CD:9877, V-B:GLU:543:CG:9876, V-B:TYR:539:CE2:9845, H-B:ALA:541:N:9860, V-B:TYR:539:C:9836, V-B:TYR:539:CD2:9843"]

$$$$
1e_Grossjean_2025
     RDKit          3D

 38 39  0  0  0  0  0  0  0  0999 V2000
  124.1340  123.3180   61.3710 C   0  0  0  0  0  0  0  0  0  0  0  0
  124.2730  123.8290   59.9490 C   0  0  0  0  0  0  0  0  0  0  0  0
  123.4380  124.8310   59.4470 C   0  0  0  0  0  0  0  0  0  0  0  0
  123.6230  125.2500   58.1290 C   0  0  0  0  0  0  0  0  0  0  0  0
  124.6250  124.6640   57.3530 C   0  0  0  0  0  0  0  0  0  0  0  0
  125.4310  123.6690   57.9190 C   0  0  0  0  0  0  0  0  0  0  0  0
  126.4150  123.1090   57.0860 N   0  0  0  0  0  0  0  0  0  0  0  0
  126.3150  122.7620   55.7840 C   0  0  0  0  0  0  0  0  0  0  0  0
  125.2990  122.8770   55.0970 O   0  0  0  0  0  0  0  0  0  0  0  0
  127.5740  122.1570   55.1590 C   0  0  0  0  0  0  0  0  0  0  0  0
  128.9160  123.3750   55.0150 S   0  0  0  0  0  0  0  0  0  0  0  0
  129.3360  123.9560   56.6460 C   0  0  0  0  0  0  0  0  0  0  0  0
  128.9740  123.0990   57.6340 N   0  0  0  0  0  0  0  0  0  0  0  0
  129.2390  123.4330   58.9180 C   0  0  0  0  0  0  0  0  0  0  0  0
  128.8140  122.4230   59.9660 C   0  0  0  0  0  0  0  0  0  0  0  0
  129.8590  124.6310   59.2700 C   0  0  0  0  0  0  0  0  0  0  0  0
  130.2140  125.5330   58.2620 C   0  0  0  0  0  0  0  0  0  0  0  0
  130.8750  126.8470   58.6750 C   0  0  0  0  0  0  0  0  0  0  0  0
  129.9430  125.2070   56.9130 C   0  0  0  0  0  0  0  0  0  0  0  0
  130.2550  126.1660   55.8510 C   0  0  0  0  0  0  0  0  0  0  0  0
  130.5030  126.9260   55.0140 N   0  0  0  0  0  0  0  0  0  0  0  0
  125.2520  123.2520   59.2070 N   0  0  0  0  0  0  0  0  0  0  0  0
  124.3555  124.1323   62.0765 H   0  0  0  0  0  0  0  0  0  0  0  0
  123.1062  122.9614   61.5336 H   0  0  0  0  0  0  0  0  0  0  0  0
  124.8395  122.4899   61.5336 H   0  0  0  0  0  0  0  0  0  0  0  0
  122.6540  125.2784   60.0756 H   0  0  0  0  0  0  0  0  0  0  0  0
  122.9832  126.0373   57.7038 H   0  0  0  0  0  0  0  0  0  0  0  0
  124.7791  124.9800   56.3107 H   0  0  0  0  0  0  0  0  0  0  0  0
  127.2880  122.8970   57.5460 H   0  0  0  0  0  0  0  0  0  0  0  0
  127.9174  121.3230   55.7887 H   0  0  0  0  0  0  0  0  0  0  0  0
  127.3183  121.8120   54.1463 H   0  0  0  0  0  0  0  0  0  0  0  0
  128.9892  122.8395   60.9689 H   0  0  0  0  0  0  0  0  0  0  0  0
  127.7444  122.1968   59.8447 H   0  0  0  0  0  0  0  0  0  0  0  0
  129.4001  121.5001   59.8447 H   0  0  0  0  0  0  0  0  0  0  0  0
  130.0659  124.8634   60.3251 H   0  0  0  0  0  0  0  0  0  0  0  0
  130.9077  126.9119   59.7726 H   0  0  0  0  0  0  0  0  0  0  0  0
  131.8990  126.8840   58.2749 H   0  0  0  0  0  0  0  0  0  0  0  0
  130.2943  127.6912   58.2749 H   0  0  0  0  0  0  0  0  0  0  0  0
  1  2  1  0
  2  3  2  0
  3  4  1  0
  4  5  2  0
  5  6  1  0
  6  7  1  0
  7  8  1  0
  8  9  2  0
  8 10  1  0
 10 11  1  0
 11 12  1  0
 12 13  2  0
 13 14  1  0
 14 15  1  0
 14 16  2  0
 16 17  1  0
 17 18  1  0
 17 19  2  0
 19 20  1  0
 20 21  3  0
  6 22  2  0
 22  2  1  0
 19 12  1  0
  1 23  1  0
  1 24  1  0
  1 25  1  0
  3 26  1  0
  4 27  1  0
  5 28  1  0
  7 29  1  0
 10 30  1  0
 10 31  1  0
 15 32  1  0
 15 33  1  0
 15 34  1  0
 16 35  1  0
 18 36  1  0
 18 37  1  0
 18 38  1  0
M  END
>  <Binding energies>  (1) 
[-6.9]

>  <Ligand effiencies>  (1) 
[-0.3]

>  <Interactions>  (1) 
["V-A:ASP:366:CB:3208, V-A:ASP:366:CG:3209, V-B:ASP:366:CB:8180, V-B:ASN:362:CB:8144, H-A:TYR:531:OH:4792, V-B:TYR:539:CE1:9844, V-B:MET:535:CE:9804, V-B:PRO:540:CA:9852, V-B:TYR:539:CZ:9846, V-B:TYR:531:CE2:9762, V-B:ASN:362:C:8140, V-B:PRO:540:N:9853, V-B:PRO:540:CB:9854, V-B:ASP:366:CG:8181, V-B:LEU:363:CD1:8157, V-B:LEU:363:CA:8153, H-B:TYR:539:OH:9847, V-B:TYR:539:CE2:9845, V-B:ILE:538:CG2:9832, V-B:ILE:538:CB:9831, V-B:TYR:539:CD2:9843, V-B:ILE:538:CA:9829, V-B:TYR:539:CD1:9842, V-B:ILE:538:C:9827"]

$$$$
1f_Grossjean_2025
     RDKit          3D

 35 36  0  0  0  0  0  0  0  0999 V2000
  128.6720  122.5080   59.7100 C   0  0  0  0  0  0  0  0  0  0  0  0
  129.1070  123.5880   58.7370 C   0  0  0  0  0  0  0  0  0  0  0  0
  129.5100  124.8470   59.1770 C   0  0  0  0  0  0  0  0  0  0  0  0
  129.8890  125.8070   58.2320 C   0  0  0  0  0  0  0  0  0  0  0  0
  130.3080  127.1860   58.7380 C   0  0  0  0  0  0  0  0  0  0  0  0
  129.8630  125.4730   56.8590 C   0  0  0  0  0  0  0  0  0  0  0  0
  130.2030  126.4830   55.8520 C   0  0  0  0  0  0  0  0  0  0  0  0
  130.4720  127.2810   55.0590 N   0  0  0  0  0  0  0  0  0  0  0  0
  129.4680  124.1620   56.5050 C   0  0  0  0  0  0  0  0  0  0  0  0
  129.3750  123.5620   54.8300 S   0  0  0  0  0  0  0  0  0  0  0  0
  127.9030  122.4930   54.6820 C   0  0  0  0  0  0  0  0  0  0  0  0
  126.9830  122.4850   55.9120 C   0  0  0  0  0  0  0  0  0  0  0  0
  126.7510  121.4340   56.5110 O   0  0  0  0  0  0  0  0  0  0  0  0
  126.4630  123.6890   56.2320 N   0  0  0  0  0  0  0  0  0  0  0  0
  125.6000  124.0440   57.2860 C   0  0  0  0  0  0  0  0  0  0  0  0
  125.6090  123.4820   58.5770 C   0  0  0  0  0  0  0  0  0  0  0  0
  124.6950  123.9330   59.5330 C   0  0  0  0  0  0  0  0  0  0  0  0
  123.7950  124.9370   59.1760 C   0  0  0  0  0  0  0  0  0  0  0  0
  123.7690  125.4980   57.9410 N   0  0  0  0  0  0  0  0  0  0  0  0
  124.6630  125.0500   57.0230 C   0  0  0  0  0  0  0  0  0  0  0  0
  129.0790  123.2470   57.4270 N   0  0  0  0  0  0  0  0  0  0  0  0
  128.8153  122.8639   60.7409 H   0  0  0  0  0  0  0  0  0  0  0  0
  127.6095  122.2741   59.5472 H   0  0  0  0  0  0  0  0  0  0  0  0
  129.2758  121.6030   59.5472 H   0  0  0  0  0  0  0  0  0  0  0  0
  129.5300  125.0829   60.2512 H   0  0  0  0  0  0  0  0  0  0  0  0
  130.3087  127.1883   59.8380 H   0  0  0  0  0  0  0  0  0  0  0  0
  131.3179  127.4203   58.3702 H   0  0  0  0  0  0  0  0  0  0  0  0
  129.5992  127.9425   58.3702 H   0  0  0  0  0  0  0  0  0  0  0  0
  127.3157  122.8380   53.8183 H   0  0  0  0  0  0  0  0  0  0  0  0
  128.2783  121.4650   54.5709 H   0  0  0  0  0  0  0  0  0  0  0  0
  126.7100  124.4560   55.6220 H   0  0  0  0  0  0  0  0  0  0  0  0
  126.3314  122.6925   58.8316 H   0  0  0  0  0  0  0  0  0  0  0  0
  124.6855  123.5050   60.5463 H   0  0  0  0  0  0  0  0  0  0  0  0
  123.0746  125.2894   59.9289 H   0  0  0  0  0  0  0  0  0  0  0  0
  124.6504  125.5012   56.0199 H   0  0  0  0  0  0  0  0  0  0  0  0
  1  2  1  0
  2  3  2  0
  3  4  1  0
  4  5  1  0
  4  6  2  0
  6  7  1  0
  7  8  3  0
  6  9  1  0
  9 10  1  0
 10 11  1  0
 11 12  1  0
 12 13  2  0
 12 14  1  0
 14 15  1  0
 15 16  2  0
 16 17  1  0
 17 18  2  0
 18 19  1  0
 19 20  2  0
  9 21  2  0
 21  2  1  0
 20 15  1  0
  1 22  1  0
  1 23  1  0
  1 24  1  0
  3 25  1  0
  5 26  1  0
  5 27  1  0
  5 28  1  0
 11 29  1  0
 11 30  1  0
 14 31  1  0
 16 32  1  0
 17 33  1  0
 18 34  1  0
 20 35  1  0
M  END
>  <Binding energies>  (1) 
[-7.04]

>  <Ligand effiencies>  (1) 
[-0.32]

>  <Interactions>  (1) 
["V-B:ASP:366:CB:8180, H-A:TYR:531:OH:4792, V-B:TYR:539:CE1:9844, V-B:MET:535:CE:9804, V-B:PRO:540:CA:9852, V-B:TYR:539:CZ:9846, V-B:TYR:531:CE2:9762, V-B:ASN:362:C:8140, V-B:TYR:531:CZ:9763, V-B:PRO:540:CB:9854, V-B:ASP:366:CG:8181, H-B:TYR:539:N:9839, V-B:LEU:363:CD1:8157, V-B:LEU:363:CA:8153, H-B:TYR:531:OH:9764, H-B:TYR:539:OH:9847, V-B:TYR:539:CE2:9845, V-B:ILE:538:CG2:9832, V-B:ILE:538:CB:9831, V-B:TYR:539:CD2:9843, V-B:ILE:538:CA:9829, V-B:TYR:539:CD1:9842, H-B:MET:535:SD:9803"]

$$$$
1g_Grossjean_2025
     RDKit          3D

 39 40  0  0  0  0  0  0  0  0999 V2000
  129.1330  131.3640   60.4340 C   0  0  0  0  0  0  0  0  0  0  0  0
  127.9730  132.3360   60.5350 C   0  0  0  0  0  0  0  0  0  0  0  0
  128.1790  133.7040   60.6990 C   0  0  0  0  0  0  0  0  0  0  0  0
  127.0710  134.5510   60.8020 C   0  0  0  0  0  0  0  0  0  0  0  0
  127.3220  136.0460   60.9980 C   0  0  0  0  0  0  0  0  0  0  0  0
  125.7710  134.0010   60.7280 C   0  0  0  0  0  0  0  0  0  0  0  0
  124.5950  134.8610   60.8860 C   0  0  0  0  0  0  0  0  0  0  0  0
  123.6690  135.5430   61.0120 N   0  0  0  0  0  0  0  0  0  0  0  0
  125.6560  132.6040   60.5340 C   0  0  0  0  0  0  0  0  0  0  0  0
  124.1010  131.7490   60.4090 S   0  0  0  0  0  0  0  0  0  0  0  0
  123.7610  131.5030   58.6400 C   0  0  0  0  0  0  0  0  0  0  0  0
  124.9420  130.8550   57.9150 C   0  0  0  0  0  0  0  0  0  0  0  0
  125.6770  130.0680   58.5140 O   0  0  0  0  0  0  0  0  0  0  0  0
  125.1120  131.2010   56.6270 N   0  0  0  0  0  0  0  0  0  0  0  0
  126.1350  130.6620   55.7320 C   0  0  0  0  0  0  0  0  0  0  0  0
  127.5190  131.2780   55.9160 C   0  0  0  0  0  0  0  0  0  0  0  0
  128.4260  131.2880   54.8520 C   0  0  0  0  0  0  0  0  0  0  0  0
  129.6880  131.8510   55.0200 C   0  0  0  0  0  0  0  0  0  0  0  0
  130.0380  132.4060   56.2500 C   0  0  0  0  0  0  0  0  0  0  0  0
  129.1370  132.4030   57.3120 C   0  0  0  0  0  0  0  0  0  0  0  0
  127.8750  131.8390   57.1460 C   0  0  0  0  0  0  0  0  0  0  0  0
  126.7370  131.7870   60.4590 N   0  0  0  0  0  0  0  0  0  0  0  0
  129.4664  131.0847   61.4444 H   0  0  0  0  0  0  0  0  0  0  0  0
  128.8101  130.4628   59.8922 H   0  0  0  0  0  0  0  0  0  0  0  0
  129.9638  131.8396   59.8922 H   0  0  0  0  0  0  0  0  0  0  0  0
  129.1993  134.1124   60.7468 H   0  0  0  0  0  0  0  0  0  0  0  0
  127.3602  136.2735   62.0735 H   0  0  0  0  0  0  0  0  0  0  0  0
  128.2790  136.3215   60.5308 H   0  0  0  0  0  0  0  0  0  0  0  0
  126.5075  136.6189   60.5308 H   0  0  0  0  0  0  0  0  0  0  0  0
  122.8796  130.8533   58.5346 H   0  0  0  0  0  0  0  0  0  0  0  0
  123.5839  132.4897   58.1873 H   0  0  0  0  0  0  0  0  0  0  0  0
  124.4490  131.8380   56.2100 H   0  0  0  0  0  0  0  0  0  0  0  0
  126.2133  129.5795   55.9108 H   0  0  0  0  0  0  0  0  0  0  0  0
  125.8163  130.9044   54.7075 H   0  0  0  0  0  0  0  0  0  0  0  0
  128.1426  130.8514   53.8830 H   0  0  0  0  0  0  0  0  0  0  0  0
  130.4055  131.8579   54.1863 H   0  0  0  0  0  0  0  0  0  0  0  0
  131.0353  132.8505   56.3830 H   0  0  0  0  0  0  0  0  0  0  0  0
  129.4214  132.8447   58.2785 H   0  0  0  0  0  0  0  0  0  0  0  0
  127.1592  131.8348   57.9813 H   0  0  0  0  0  0  0  0  0  0  0  0
  1  2  1  0
  2  3  2  0
  3  4  1  0
  4  5  1  0
  4  6  2  0
  6  7  1  0
  7  8  3  0
  6  9  1  0
  9 10  1  0
 10 11  1  0
 11 12  1  0
 12 13  2  0
 12 14  1  0
 14 15  1  0
 15 16  1  0
 16 17  2  0
 17 18  1  0
 18 19  2  0
 19 20  1  0
 20 21  2  0
  9 22  2  0
 22  2  1  0
 21 16  1  0
  1 23  1  0
  1 24  1  0
  1 25  1  0
  3 26  1  0
  5 27  1  0
  5 28  1  0
  5 29  1  0
 11 30  1  0
 11 31  1  0
 14 32  1  0
 15 33  1  0
 15 34  1  0
 17 35  1  0
 18 36  1  0
 19 37  1  0
 20 38  1  0
 21 39  1  0
M  END
>  <Binding energies>  (1) 
[-6.74]

>  <Ligand effiencies>  (1) 
[-0.29304347826086957]

>  <Interactions>  (1) 
["V-A:TYR:539:CD2:4871, V-A:ALA:541:CB:4889, V-A:PRO:540:N:4881, V-A:TYR:539:C:4864, V-B:TRP:381:CZ2:8338, V-B:TRP:381:CH2:8340, V-B:PRO:482:CG:9295, V-B:PRO:482:CB:9294, V-A:TYR:539:CE2:4873, V-B:LEU:475:CD2:9227, V-A:ILE:538:CD1:4862, V-B:ASP:366:CA:8178, V-B:ASP:366:CB:8180, V-B:ILE:369:CG2:8205, V-B:ASP:366:CG:8181, V-A:TYR:539:CZ:4874, V-B:TYR:531:CE1:9761, V-B:ILE:369:CB:8204, V-B:ASP:366:C:8176, H-A:TYR:539:OH:4875, H-B:ASP:366:O:8177"]

$$$$
1h_Grossjean_2025
     RDKit          3D

 51 52  0  0  0  0  0  0  0  0999 V2000
  124.0150  124.8010   59.5790 C   0  0  0  0  0  0  0  0  0  0  0  0
  125.1430  124.9360   58.7210 O   0  0  0  0  0  0  0  0  0  0  0  0
  126.1760  124.0200   58.8100 C   0  0  0  0  0  0  0  0  0  0  0  0
  126.8730  123.7390   59.9950 C   0  0  0  0  0  0  0  0  0  0  0  0
  127.9160  122.8110   60.0080 C   0  0  0  0  0  0  0  0  0  0  0  0
  128.6510  122.4970   61.3070 C   0  0  0  0  0  0  0  0  0  0  0  0
  130.0900  122.7530   61.2540 N   0  0  0  0  0  0  0  0  0  0  0  0
  131.0510  121.8290   61.4300 C   0  0  0  0  0  0  0  0  0  0  0  0
  130.8220  120.6370   61.6340 O   0  0  0  0  0  0  0  0  0  0  0  0
  132.4950  122.3270   61.3720 C   0  0  0  0  0  0  0  0  0  0  0  0
  132.5860  124.1420   61.2920 S   0  0  0  0  0  0  0  0  0  0  0  0
  132.3900  124.7800   62.9480 C   0  0  0  0  0  0  0  0  0  0  0  0
  133.4890  124.7020   63.7440 N   0  0  0  0  0  0  0  0  0  0  0  0
  133.4100  125.1710   65.0110 C   0  0  0  0  0  0  0  0  0  0  0  0
  134.6780  125.0540   65.8350 C   0  0  0  0  0  0  0  0  0  0  0  0
  132.2480  125.7310   65.5350 C   0  0  0  0  0  0  0  0  0  0  0  0
  131.1090  125.8150   64.7270 C   0  0  0  0  0  0  0  0  0  0  0  0
  129.8460  126.4330   65.3200 C   0  0  0  0  0  0  0  0  0  0  0  0
  131.1690  125.3310   63.4000 C   0  0  0  0  0  0  0  0  0  0  0  0
  129.9910  125.4030   62.5310 C   0  0  0  0  0  0  0  0  0  0  0  0
  129.0600  125.4600   61.8440 N   0  0  0  0  0  0  0  0  0  0  0  0
  128.2450  122.1290   58.8360 C   0  0  0  0  0  0  0  0  0  0  0  0
  127.5600  122.3860   57.6370 C   0  0  0  0  0  0  0  0  0  0  0  0
  127.8340  121.7500   56.4400 O   0  0  0  0  0  0  0  0  0  0  0  0
  128.2390  122.5220   55.3150 C   0  0  0  0  0  0  0  0  0  0  0  0
  126.5350  123.3430   57.6350 C   0  0  0  0  0  0  0  0  0  0  0  0
  125.8520  123.6010   56.4720 O   0  0  0  0  0  0  0  0  0  0  0  0
  124.9880  122.5490   56.0620 C   0  0  0  0  0  0  0  0  0  0  0  0
  124.3451  124.8405   60.6276 H   0  0  0  0  0  0  0  0  0  0  0  0
  123.3074  125.6209   59.3862 H   0  0  0  0  0  0  0  0  0  0  0  0
  123.5209  123.8373   59.3862 H   0  0  0  0  0  0  0  0  0  0  0  0
  126.5942  124.2561   60.9250 H   0  0  0  0  0  0  0  0  0  0  0  0
  128.2189  123.1160   62.1071 H   0  0  0  0  0  0  0  0  0  0  0  0
  128.5263  121.4196   61.4904 H   0  0  0  0  0  0  0  0  0  0  0  0
  130.3660  123.7130   61.1040 H   0  0  0  0  0  0  0  0  0  0  0  0
  133.0256  121.9840   62.2725 H   0  0  0  0  0  0  0  0  0  0  0  0
  132.9579  121.9227   60.4597 H   0  0  0  0  0  0  0  0  0  0  0  0
  134.4235  125.0775   66.9049 H   0  0  0  0  0  0  0  0  0  0  0  0
  135.1825  124.1055   65.5989 H   0  0  0  0  0  0  0  0  0  0  0  0
  135.3476  125.8942   65.5989 H   0  0  0  0  0  0  0  0  0  0  0  0
  132.2258  126.1023   66.5702 H   0  0  0  0  0  0  0  0  0  0  0  0
  129.9045  126.4044   66.4181 H   0  0  0  0  0  0  0  0  0  0  0  0
  129.7563  127.4768   64.9847 H   0  0  0  0  0  0  0  0  0  0  0  0
  128.9668  125.8633   64.9847 H   0  0  0  0  0  0  0  0  0  0  0  0
  129.0510  121.3806   58.8512 H   0  0  0  0  0  0  0  0  0  0  0  0
  128.7242  123.4468   55.6604 H   0  0  0  0  0  0  0  0  0  0  0  0
  128.9483  121.9407   54.7075 H   0  0  0  0  0  0  0  0  0  0  0  0
  127.3576  122.7752   54.7075 H   0  0  0  0  0  0  0  0  0  0  0  0
  124.5754  122.0466   56.9493 H   0  0  0  0  0  0  0  0  0  0  0  0
  124.1660  122.9633   55.4597 H   0  0  0  0  0  0  0  0  0  0  0  0
  125.5541  121.8232   55.4597 H   0  0  0  0  0  0  0  0  0  0  0  0
  1  2  1  0
  2  3  1  0
  3  4  2  0
  4  5  1  0
  5  6  1  0
  6  7  1  0
  7  8  1  0
  8  9  2  0
  8 10  1  0
 10 11  1  0
 11 12  1  0
 12 13  2  0
 13 14  1  0
 14 15  1  0
 14 16  2  0
 16 17  1  0
 17 18  1  0
 17 19  2  0
 19 20  1  0
 20 21  3  0
  5 22  2  0
 22 23  1  0
 23 24  1  0
 24 25  1  0
 23 26  2  0
 26 27  1  0
 27 28  1  0
 26  3  1  0
 19 12  1  0
  1 29  1  0
  1 30  1  0
  1 31  1  0
  4 32  1  0
  6 33  1  0
  6 34  1  0
  7 35  1  0
 10 36  1  0
 10 37  1  0
 15 38  1  0
 15 39  1  0
 15 40  1  0
 16 41  1  0
 18 42  1  0
 18 43  1  0
 18 44  1  0
 22 45  1  0
 25 46  1  0
 25 47  1  0
 25 48  1  0
 28 49  1  0
 28 50  1  0
 28 51  1  0
M  END
>  <Binding energies>  (1) 
[-7.24]

>  <Ligand effiencies>  (1) 
[-0.24965517241379312]

>  <Interactions>  (1) 
["V-A:HIS:456:CE1:4066, V-B:ASP:366:CB:8180, V-B:TYR:539:CE1:9844, V-B:MET:535:CE:9804, V-B:PRO:540:CA:9852, V-B:TYR:539:CZ:9846, V-B:ASN:362:C:8140, V-B:PRO:540:N:9853, V-B:PRO:540:CB:9854, V-B:ASP:366:CG:8181, H-B:TYR:539:N:9839, V-B:LEU:363:CD1:8157, V-B:LEU:363:CA:8153, V-B:ALA:541:CB:9861, V-A:ARG:545:CZ:4923, V-A:ARG:545:CD:4920, H-A:ARG:545:NH2:4925, V-B:TYR:539:CE2:9845, V-A:ARG:545:CG:4919, V-B:ILE:538:CG2:9832, V-B:ILE:538:CB:9831, V-A:LEU:475:CD1:4254, V-B:PRO:540:CD:9856, V-B:TYR:539:C:9836, V-B:TYR:539:CD2:9843, V-B:ILE:538:CA:9829, V-B:TYR:539:CD1:9842, V-B:TYR:539:CG:9841, V-B:PRO:540:CG:9855, H-A:GLY:454:N:4046, V-A:GLY:454:CA:4045, V-A:GLY:453:C:4038, V-A:GLY:453:CA:4040, V-A:GLY:454:C:4043"]

$$$$
1i_Grossjean_2025
     RDKit          3D

 32 33  0  0  0  0  0  0  0  0999 V2000
  125.7720  122.1980   55.9900 C   0  0  0  0  0  0  0  0  0  0  0  0
  127.0060  122.7300   56.6930 C   0  0  0  0  0  0  0  0  0  0  0  0
  127.8950  123.5910   56.0550 C   0  0  0  0  0  0  0  0  0  0  0  0
  129.0120  124.0580   56.7570 C   0  0  0  0  0  0  0  0  0  0  0  0
  129.9640  125.0150   56.0410 C   0  0  0  0  0  0  0  0  0  0  0  0
  129.2130  123.6410   58.0930 C   0  0  0  0  0  0  0  0  0  0  0  0
  130.3480  124.1570   58.8620 C   0  0  0  0  0  0  0  0  0  0  0  0
  131.2440  124.5680   59.4690 N   0  0  0  0  0  0  0  0  0  0  0  0
  128.2720  122.7450   58.6520 C   0  0  0  0  0  0  0  0  0  0  0  0
  128.3700  122.1180   60.3150 S   0  0  0  0  0  0  0  0  0  0  0  0
  127.4170  123.2390   61.3830 C   0  0  0  0  0  0  0  0  0  0  0  0
  126.0620  123.6020   60.7710 C   0  0  0  0  0  0  0  0  0  0  0  0
  125.0290  123.2240   61.3250 O   0  0  0  0  0  0  0  0  0  0  0  0
  126.1120  124.3360   59.6380 N   0  0  0  0  0  0  0  0  0  0  0  0
  125.0410  124.7930   58.8840 C   0  0  0  0  0  0  0  0  0  0  0  0
  123.7800  125.0400   59.4240 C   0  0  0  0  0  0  0  0  0  0  0  0
  123.0150  125.4720   58.3660 C   0  0  0  0  0  0  0  0  0  0  0  0
  123.7750  125.4830   57.2450 O   0  0  0  0  0  0  0  0  0  0  0  0
  125.0580  125.0500   57.5860 N   0  0  0  0  0  0  0  0  0  0  0  0
  127.1810  122.3140   57.9700 N   0  0  0  0  0  0  0  0  0  0  0  0
  125.0322  121.8791   56.7390 H   0  0  0  0  0  0  0  0  0  0  0  0
  125.3388  122.9893   55.3606 H   0  0  0  0  0  0  0  0  0  0  0  0
  126.0500  121.3398   55.3606 H   0  0  0  0  0  0  0  0  0  0  0  0
  127.7218  123.8999   55.0136 H   0  0  0  0  0  0  0  0  0  0  0  0
  130.5352  125.5892   56.7854 H   0  0  0  0  0  0  0  0  0  0  0  0
  130.6578  124.4390   55.4111 H   0  0  0  0  0  0  0  0  0  0  0  0
  129.3843  125.7058   55.4111 H   0  0  0  0  0  0  0  0  0  0  0  0
  127.2483  122.7475   62.3525 H   0  0  0  0  0  0  0  0  0  0  0  0
  127.9951  124.1673   61.5020 H   0  0  0  0  0  0  0  0  0  0  0  0
  127.0270  124.5570   59.2690 H   0  0  0  0  0  0  0  0  0  0  0  0
  123.4648  124.9161   60.4706 H   0  0  0  0  0  0  0  0  0  0  0  0
  121.9554  125.7622   58.4213 H   0  0  0  0  0  0  0  0  0  0  0  0
  1  2  1  0
  2  3  2  0
  3  4  1  0
  4  5  1  0
  4  6  2  0
  6  7  1  0
  7  8  3  0
  6  9  1  0
  9 10  1  0
 10 11  1  0
 11 12  1  0
 12 13  2  0
 12 14  1  0
 14 15  1  0
 15 16  1  0
 16 17  2  0
 17 18  1  0
 18 19  1  0
  9 20  2  0
 20  2  1  0
 19 15  2  0
  1 21  1  0
  1 22  1  0
  1 23  1  0
  3 24  1  0
  5 25  1  0
  5 26  1  0
  5 27  1  0
 11 28  1  0
 11 29  1  0
 14 30  1  0
 16 31  1  0
 17 32  1  0
M  END
>  <Binding energies>  (1) 
[-6.94]

>  <Ligand effiencies>  (1) 
[-0.3304761904761905]

>  <Interactions>  (1) 
["V-B:ASP:366:CB:8180, V-B:TYR:539:CE1:9844, V-B:MET:535:CE:9804, V-B:PRO:540:CA:9852, V-B:TYR:539:CZ:9846, V-B:TYR:531:CE2:9762, V-B:ASN:362:C:8140, V-B:PRO:540:N:9853, V-B:PRO:540:CB:9854, V-B:ASP:366:CG:8181, V-B:LEU:363:CD1:8157, V-B:LEU:363:CA:8153, H-B:TYR:531:OH:9764, V-B:ALA:541:CB:9861, H-B:TYR:539:OH:9847, V-B:GLU:543:CD:9877, V-B:TYR:539:CE2:9845, H-B:ALA:541:N:9860, V-B:ILE:538:CG2:9832, V-B:ILE:538:CB:9831, V-B:PRO:540:CD:9856, V-B:ILE:538:CA:9829, V-B:LEU:363:CB:8155, V-B:LEU:363:C:8151"]

$$$$
1j_Grossjean_2025
     RDKit          3D

 32 33  0  0  0  0  0  0  0  0999 V2000
  128.6240  122.3610   60.1230 C   0  0  0  0  0  0  0  0  0  0  0  0
  129.0360  123.3520   59.0490 C   0  0  0  0  0  0  0  0  0  0  0  0
  129.7210  124.5240   59.3630 C   0  0  0  0  0  0  0  0  0  0  0  0
  130.0870  125.3930   58.3300 C   0  0  0  0  0  0  0  0  0  0  0  0
  130.8520  126.6640   58.6970 C   0  0  0  0  0  0  0  0  0  0  0  0
  129.7470  125.0660   56.9980 C   0  0  0  0  0  0  0  0  0  0  0  0
  130.1670  125.9350   55.8960 C   0  0  0  0  0  0  0  0  0  0  0  0
  130.5010  126.6240   55.0280 N   0  0  0  0  0  0  0  0  0  0  0  0
  129.0280  123.8670   56.7750 C   0  0  0  0  0  0  0  0  0  0  0  0
  128.5170  123.3020   55.1670 S   0  0  0  0  0  0  0  0  0  0  0  0
  127.1290  122.1540   55.4000 C   0  0  0  0  0  0  0  0  0  0  0  0
  125.8720  122.8670   55.9040 C   0  0  0  0  0  0  0  0  0  0  0  0
  124.8700  122.9030   55.1900 O   0  0  0  0  0  0  0  0  0  0  0  0
  125.9680  123.4150   57.1350 N   0  0  0  0  0  0  0  0  0  0  0  0
  124.9780  124.1160   57.8090 C   0  0  0  0  0  0  0  0  0  0  0  0
  124.1940  125.0610   57.3360 N   0  0  0  0  0  0  0  0  0  0  0  0
  123.3650  125.5090   58.2580 C   0  0  0  0  0  0  0  0  0  0  0  0
  123.4660  124.9200   59.5150 C   0  0  0  0  0  0  0  0  0  0  0  0
  124.7190  123.7160   59.4760 S   0  0  0  0  0  0  0  0  0  0  0  0
  128.6970  123.0200   57.7820 N   0  0  0  0  0  0  0  0  0  0  0  0
  128.8061  122.7991   61.1154 H   0  0  0  0  0  0  0  0  0  0  0  0
  127.5544  122.1278   60.0158 H   0  0  0  0  0  0  0  0  0  0  0  0
  129.2130  121.4382   60.0158 H   0  0  0  0  0  0  0  0  0  0  0  0
  129.9702  124.7622   60.4076 H   0  0  0  0  0  0  0  0  0  0  0  0
  130.9071  126.7556   59.7918 H   0  0  0  0  0  0  0  0  0  0  0  0
  131.8693  126.6125   58.2817 H   0  0  0  0  0  0  0  0  0  0  0  0
  130.3303  127.5388   58.2817 H   0  0  0  0  0  0  0  0  0  0  0  0
  126.9018  121.6719   54.4377 H   0  0  0  0  0  0  0  0  0  0  0  0
  127.4252  121.4129   56.1570 H   0  0  0  0  0  0  0  0  0  0  0  0
  126.8550  123.3400   57.6130 H   0  0  0  0  0  0  0  0  0  0  0  0
  122.6346  126.3036   58.0458 H   0  0  0  0  0  0  0  0  0  0  0  0
  122.8521  125.1752   60.3914 H   0  0  0  0  0  0  0  0  0  0  0  0
  1  2  1  0
  2  3  2  0
  3  4  1  0
  4  5  1  0
  4  6  2  0
  6  7  1  0
  7  8  3  0
  6  9  1  0
  9 10  1  0
 10 11  1  0
 11 12  1  0
 12 13  2  0
 12 14  1  0
 14 15  1  0
 15 16  2  0
 16 17  1  0
 17 18  2  0
 18 19  1  0
  9 20  2  0
 20  2  1  0
 19 15  1  0
  1 21  1  0
  1 22  1  0
  1 23  1  0
  3 24  1  0
  5 25  1  0
  5 26  1  0
  5 27  1  0
 11 28  1  0
 11 29  1  0
 14 30  1  0
 17 31  1  0
 18 32  1  0
M  END
>  <Binding energies>  (1) 
[-6.37]

>  <Ligand effiencies>  (1) 
[-0.30333333333333334]

>  <Interactions>  (1) 
["V-A:ASP:366:CB:3208, V-A:ASP:366:CG:3209, V-B:ASP:366:CB:8180, H-A:TYR:531:OH:4792, V-B:TYR:539:CE1:9844, V-B:MET:535:CE:9804, V-B:PRO:540:CA:9852, V-B:TYR:539:CZ:9846, V-B:TYR:531:CE2:9762, V-B:ASN:362:C:8140, V-B:PRO:540:CB:9854, V-B:ASP:366:CG:8181, V-B:LEU:363:CD1:8157, V-B:LEU:363:CA:8153, H-B:TYR:531:OH:9764, V-B:ALA:541:CB:9861, V-B:TYR:539:CE2:9845, V-B:ILE:538:CG2:9832, V-B:ILE:538:CB:9831, V-B:TYR:539:CD2:9843, V-B:ILE:538:CA:9829, V-B:TYR:539:CD1:9842, V-B:ILE:538:C:9827"]

$$$$
1k_Grossjean_2025
     RDKit          3D

 50 50  0  0  0  0  0  0  0  0999 V2000
  129.7570  124.2070   58.5210 C   0  0  0  0  0  0  0  0  0  0  0  0
  129.0890  123.2480   57.7160 O   0  0  0  0  0  0  0  0  0  0  0  0
  128.3130  123.8250   56.6750 C   0  0  0  0  0  0  0  0  0  0  0  0
  128.2550  122.8600   55.4830 C   0  0  0  0  0  0  0  0  0  0  0  0
  127.1890  121.9380   55.6720 O   0  0  0  0  0  0  0  0  0  0  0  0
  126.4380  122.1680   56.8570 C   0  0  0  0  0  0  0  0  0  0  0  0
  125.1680  122.9540   56.5100 C   0  0  0  0  0  0  0  0  0  0  0  0
  124.4670  123.2740   57.7060 O   0  0  0  0  0  0  0  0  0  0  0  0
  125.1580  124.1900   58.5450 C   0  0  0  0  0  0  0  0  0  0  0  0
  124.8920  123.8390   60.0210 C   0  0  0  0  0  0  0  0  0  0  0  0
  126.0990  123.7790   60.8460 N   0  0  0  0  0  0  0  0  0  0  0  0
  127.1770  123.0180   60.5870 C   0  0  0  0  0  0  0  0  0  0  0  0
  127.2600  122.2810   59.6020 O   0  0  0  0  0  0  0  0  0  0  0  0
  128.3190  123.1160   61.6110 C   0  0  0  0  0  0  0  0  0  0  0  0
  129.7180  121.9720   61.3470 S   0  0  0  0  0  0  0  0  0  0  0  0
  131.2460  122.8130   61.7390 C   0  0  0  0  0  0  0  0  0  0  0  0
  132.1430  122.9170   60.7240 N   0  0  0  0  0  0  0  0  0  0  0  0
  133.3240  123.5340   60.9560 C   0  0  0  0  0  0  0  0  0  0  0  0
  134.2750  123.6030   59.7770 C   0  0  0  0  0  0  0  0  0  0  0  0
  133.6580  124.0760   62.1950 C   0  0  0  0  0  0  0  0  0  0  0  0
  132.7400  123.9820   63.2460 C   0  0  0  0  0  0  0  0  0  0  0  0
  133.1260  124.5830   64.5970 C   0  0  0  0  0  0  0  0  0  0  0  0
  131.5030  123.3380   63.0260 C   0  0  0  0  0  0  0  0  0  0  0  0
  130.5230  123.2220   64.1110 C   0  0  0  0  0  0  0  0  0  0  0  0
  129.7510  123.1300   64.9680 N   0  0  0  0  0  0  0  0  0  0  0  0
  129.5933  123.9721   59.5831 H   0  0  0  0  0  0  0  0  0  0  0  0
  130.8347  124.1828   58.3019 H   0  0  0  0  0  0  0  0  0  0  0  0
  129.3607  125.2095   58.3019 H   0  0  0  0  0  0  0  0  0  0  0  0
  127.2936  124.0168   57.0411 H   0  0  0  0  0  0  0  0  0  0  0  0
  128.7734  124.7721   56.3571 H   0  0  0  0  0  0  0  0  0  0  0  0
  128.0871  123.4301   54.5574 H   0  0  0  0  0  0  0  0  0  0  0  0
  129.2056  122.3116   55.4081 H   0  0  0  0  0  0  0  0  0  0  0  0
  126.1612  121.2041   57.3090 H   0  0  0  0  0  0  0  0  0  0  0  0
  127.0444  122.7455   57.5703 H   0  0  0  0  0  0  0  0  0  0  0  0
  125.4424  123.8817   55.9864 H   0  0  0  0  0  0  0  0  0  0  0  0
  124.5245  122.3429   55.8600 H   0  0  0  0  0  0  0  0  0  0  0  0
  126.2376  124.1291   58.3429 H   0  0  0  0  0  0  0  0  0  0  0  0
  124.8029  125.2112   58.3422 H   0  0  0  0  0  0  0  0  0  0  0  0
  124.2225  124.6030   60.4429 H   0  0  0  0  0  0  0  0  0  0  0  0
  124.4480  122.8327   60.0335 H   0  0  0  0  0  0  0  0  0  0  0  0
  126.1030  124.3560   61.6740 H   0  0  0  0  0  0  0  0  0  0  0  0
  128.7119  124.1430   61.5821 H   0  0  0  0  0  0  0  0  0  0  0  0
  127.8793  122.8343   62.5791 H   0  0  0  0  0  0  0  0  0  0  0  0
  135.3092  123.6780   60.1441 H   0  0  0  0  0  0  0  0  0  0  0  0
  134.1678  122.6947   59.1658 H   0  0  0  0  0  0  0  0  0  0  0  0
  134.0378  124.4863   59.1658 H   0  0  0  0  0  0  0  0  0  0  0  0
  134.6291  124.5705   62.3445 H   0  0  0  0  0  0  0  0  0  0  0  0
  132.7232  123.9558   65.4059 H   0  0  0  0  0  0  0  0  0  0  0  0
  134.2221  124.6276   64.6788 H   0  0  0  0  0  0  0  0  0  0  0  0
  132.7106  125.5983   64.6788 H   0  0  0  0  0  0  0  0  0  0  0  0
  1  2  1  0
  2  3  1  0
  3  4  1  0
  4  5  1  0
  5  6  1  0
  6  7  1  0
  7  8  1  0
  8  9  1  0
  9 10  1  0
 10 11  1  0
 11 12  1  0
 12 13  2  0
 12 14  1  0
 14 15  1  0
 15 16  1  0
 16 17  2  0
 17 18  1  0
 18 19  1  0
 18 20  2  0
 20 21  1  0
 21 22  1  0
 21 23  2  0
 23 24  1  0
 24 25  3  0
 23 16  1  0
  1 26  1  0
  1 27  1  0
  1 28  1  0
  3 29  1  0
  3 30  1  0
  4 31  1  0
  4 32  1  0
  6 33  1  0
  6 34  1  0
  7 35  1  0
  7 36  1  0
  9 37  1  0
  9 38  1  0
 10 39  1  0
 10 40  1  0
 11 41  1  0
 14 42  1  0
 14 43  1  0
 19 44  1  0
 19 45  1  0
 19 46  1  0
 20 47  1  0
 22 48  1  0
 22 49  1  0
 22 50  1  0
M  END
>  <Binding energies>  (1) 
[-6.06]

>  <Ligand effiencies>  (1) 
[-0.23307692307692307]

>  <Interactions>  (1) 
["V-A:ASP:366:CB:3208, V-A:ASP:366:CG:3209, V-B:TYR:539:CE1:9844, V-B:MET:535:CE:9804, V-B:PRO:540:CA:9852, V-B:TYR:539:CZ:9846, V-B:PRO:540:N:9853, V-B:PRO:540:CB:9854, H-B:TYR:539:N:9839, V-B:LEU:363:CD1:8157, V-B:ALA:541:CB:9861, H-B:GLU:543:OE2:9879, H-B:TYR:539:OH:9847, V-B:GLU:543:CD:9877, V-A:ARG:545:CZ:4923, V-B:TYR:539:CE2:9845, H-B:ALA:541:N:9860, V-B:ILE:538:CB:9831, V-B:PRO:540:CD:9856, V-A:ILE:369:CG1:3234, V-B:TYR:539:C:9836, V-A:ILE:369:CB:3232, V-B:TYR:539:CD1:9842, V-A:ILE:369:CG2:3233, V-A:GLY:454:CA:4045, H-A:TYR:484:OH:4344, V-A:ASP:366:CA:3206"]

$$$$
1l_Grossjean_2025
     RDKit          3D

 30 30  0  0  0  0  0  0  0  0999 V2000
  127.8930  122.3680   59.9650 C   0  0  0  0  0  0  0  0  0  0  0  0
  126.7620  122.5120   60.8130 O   0  0  0  0  0  0  0  0  0  0  0  0
  126.0230  123.6310   60.4320 N   0  0  0  0  0  0  0  0  0  0  0  0
  124.6890  123.6260   60.6160 C   0  0  0  0  0  0  0  0  0  0  0  0
  124.0970  122.7920   61.3050 O   0  0  0  0  0  0  0  0  0  0  0  0
  123.9290  124.7590   59.9110 C   0  0  0  0  0  0  0  0  0  0  0  0
  123.9990  124.7180   58.0870 S   0  0  0  0  0  0  0  0  0  0  0  0
  125.7110  124.5770   57.6000 C   0  0  0  0  0  0  0  0  0  0  0  0
  126.5500  125.5130   58.1150 N   0  0  0  0  0  0  0  0  0  0  0  0
  127.8620  125.4670   57.7850 C   0  0  0  0  0  0  0  0  0  0  0  0
  128.7350  126.5450   58.4000 C   0  0  0  0  0  0  0  0  0  0  0  0
  128.3900  124.4950   56.9390 C   0  0  0  0  0  0  0  0  0  0  0  0
  127.5370  123.5240   56.4040 C   0  0  0  0  0  0  0  0  0  0  0  0
  128.1380  122.4670   55.4780 C   0  0  0  0  0  0  0  0  0  0  0  0
  126.1640  123.5550   56.7340 C   0  0  0  0  0  0  0  0  0  0  0  0
  125.2460  122.5510   56.1870 C   0  0  0  0  0  0  0  0  0  0  0  0
  124.5240  121.7580   55.7550 N   0  0  0  0  0  0  0  0  0  0  0  0
  128.7988  122.2527   60.5783 H   0  0  0  0  0  0  0  0  0  0  0  0
  127.7644  121.4790   59.3301 H   0  0  0  0  0  0  0  0  0  0  0  0
  127.9913  123.2609   59.3301 H   0  0  0  0  0  0  0  0  0  0  0  0
  126.4900  124.1730   59.7180 H   0  0  0  0  0  0  0  0  0  0  0  0
  122.8729  124.7010   60.2132 H   0  0  0  0  0  0  0  0  0  0  0  0
  124.4203  125.6947   60.2162 H   0  0  0  0  0  0  0  0  0  0  0  0
  128.6814  126.4788   59.4967 H   0  0  0  0  0  0  0  0  0  0  0  0
  129.7762  126.4036   58.0746 H   0  0  0  0  0  0  0  0  0  0  0  0
  128.3803  127.5341   58.0746 H   0  0  0  0  0  0  0  0  0  0  0  0
  129.4626  124.4909   56.6949 H   0  0  0  0  0  0  0  0  0  0  0  0
  128.5928  121.6672   56.0809 H   0  0  0  0  0  0  0  0  0  0  0  0
  127.3461  122.0426   54.8433 H   0  0  0  0  0  0  0  0  0  0  0  0
  128.9077  122.9305   54.8433 H   0  0  0  0  0  0  0  0  0  0  0  0
  1  2  1  0
  2  3  1  0
  3  4  1  0
  4  5  2  0
  4  6  1  0
  6  7  1  0
  7  8  1  0
  8  9  2  0
  9 10  1  0
 10 11  1  0
 10 12  2  0
 12 13  1  0
 13 14  1  0
 13 15  2  0
 15 16  1  0
 16 17  3  0
 15  8  1  0
  1 18  1  0
  1 19  1  0
  1 20  1  0
  3 21  1  0
  6 22  1  0
  6 23  1  0
 11 24  1  0
 11 25  1  0
 11 26  1  0
 12 27  1  0
 14 28  1  0
 14 29  1  0
 14 30  1  0
M  END
>  <Binding energies>  (1) 
[-5.62]

>  <Ligand effiencies>  (1) 
[-0.31222222222222223]

>  <Interactions>  (1) 
["V-B:TYR:539:CE1:9844, V-B:MET:535:CE:9804, V-B:PRO:540:CA:9852, V-B:ASN:362:C:8140, V-B:PRO:540:N:9853, V-B:PRO:540:C:9850, V-B:PRO:540:CB:9854, V-B:ASP:366:CG:8181, V-B:LEU:363:CD1:8157, V-B:LEU:363:CA:8153, V-B:ALA:541:CB:9861, H-B:ALA:541:N:9860, V-B:ILE:538:CG2:9832, V-B:ILE:538:CB:9831, V-B:PRO:540:CD:9856, V-B:ILE:538:CA:9829, V-B:TYR:539:CD1:9842"]

$$$$
1m_Grossjean_2025
     RDKit          3D

 35 35  0  0  0  0  0  0  0  0999 V2000
  124.8680  124.3480   56.7580 C   0  0  0  0  0  0  0  0  0  0  0  0
  124.4970  125.4710   57.5450 O   0  0  0  0  0  0  0  0  0  0  0  0
  123.3040  125.5040   58.1730 C   0  0  0  0  0  0  0  0  0  0  0  0
  122.2280  125.8190   57.6540 O   0  0  0  0  0  0  0  0  0  0  0  0
  123.4310  125.0830   59.6520 C   0  0  0  0  0  0  0  0  0  0  0  0
  124.8080  124.7320   60.0280 N   0  0  0  0  0  0  0  0  0  0  0  0
  125.1760  123.6520   60.7440 C   0  0  0  0  0  0  0  0  0  0  0  0
  124.3680  122.8300   61.1830 O   0  0  0  0  0  0  0  0  0  0  0  0
  126.6830  123.5040   60.9920 C   0  0  0  0  0  0  0  0  0  0  0  0
  127.5220  122.3090   59.8960 S   0  0  0  0  0  0  0  0  0  0  0  0
  128.5850  123.2230   58.7980 C   0  0  0  0  0  0  0  0  0  0  0  0
  129.4820  124.0110   59.4430 N   0  0  0  0  0  0  0  0  0  0  0  0
  130.3480  124.7480   58.7090 C   0  0  0  0  0  0  0  0  0  0  0  0
  131.3330  125.5890   59.4990 C   0  0  0  0  0  0  0  0  0  0  0  0
  130.3490  124.7400   57.3160 C   0  0  0  0  0  0  0  0  0  0  0  0
  129.4110  123.9510   56.6400 C   0  0  0  0  0  0  0  0  0  0  0  0
  129.4210  123.9710   55.1130 C   0  0  0  0  0  0  0  0  0  0  0  0
  128.4960  123.1730   57.3860 C   0  0  0  0  0  0  0  0  0  0  0  0
  127.4750  122.3790   56.6990 C   0  0  0  0  0  0  0  0  0  0  0  0
  126.6680  121.7520   56.1560 N   0  0  0  0  0  0  0  0  0  0  0  0
  125.1440  123.5126   57.4183 H   0  0  0  0  0  0  0  0  0  0  0  0
  124.0208  124.0492   56.1232 H   0  0  0  0  0  0  0  0  0  0  0  0
  125.7265  124.6127   56.1232 H   0  0  0  0  0  0  0  0  0  0  0  0
  123.0957  125.9177   60.2851 H   0  0  0  0  0  0  0  0  0  0  0  0
  122.8097  124.1867   59.7958 H   0  0  0  0  0  0  0  0  0  0  0  0
  125.5270  125.3730   59.7260 H   0  0  0  0  0  0  0  0  0  0  0  0
  127.1523  124.4885   60.8487 H   0  0  0  0  0  0  0  0  0  0  0  0
  126.7931  123.1173   62.0159 H   0  0  0  0  0  0  0  0  0  0  0  0
  131.1604  125.4416   60.5753 H   0  0  0  0  0  0  0  0  0  0  0  0
  132.3596  125.2845   59.2472 H   0  0  0  0  0  0  0  0  0  0  0  0
  131.1932  126.6506   59.2472 H   0  0  0  0  0  0  0  0  0  0  0  0
  131.0766  125.3451   56.7552 H   0  0  0  0  0  0  0  0  0  0  0  0
  129.8872  124.9033   54.7616 H   0  0  0  0  0  0  0  0  0  0  0  0
  129.9949  123.1104   54.7388 H   0  0  0  0  0  0  0  0  0  0  0  0
  128.3882  123.9137   54.7388 H   0  0  0  0  0  0  0  0  0  0  0  0
  1  2  1  0
  2  3  1  0
  3  4  2  0
  3  5  1  0
  5  6  1  0
  6  7  1  0
  7  8  2  0
  7  9  1  0
  9 10  1  0
 10 11  1  0
 11 12  2  0
 12 13  1  0
 13 14  1  0
 13 15  2  0
 15 16  1  0
 16 17  1  0
 16 18  2  0
 18 19  1  0
 19 20  3  0
 18 11  1  0
  1 21  1  0
  1 22  1  0
  1 23  1  0
  5 24  1  0
  5 25  1  0
  6 26  1  0
  9 27  1  0
  9 28  1  0
 14 29  1  0
 14 30  1  0
 14 31  1  0
 15 32  1  0
 17 33  1  0
 17 34  1  0
 17 35  1  0
M  END
>  <Binding energies>  (1) 
[-6.62]

>  <Ligand effiencies>  (1) 
[-0.31523809523809526]

>  <Interactions>  (1) 
["V-A:ASP:366:CB:3208, V-A:ASP:366:CG:3209, V-B:ASP:366:CB:8180, V-B:TYR:539:CE1:9844, V-B:MET:535:CE:9804, V-B:PRO:540:CA:9852, V-B:TYR:539:CZ:9846, V-B:TYR:531:CE2:9762, H-B:ASP:366:OD1:8182, V-B:ASN:362:C:8140, V-B:PRO:540:N:9853, V-B:TYR:531:CZ:9763, V-B:PRO:540:CB:9854, V-B:ASP:366:CG:8181, H-B:TYR:539:N:9839, V-B:LEU:363:CD1:8157, V-B:LEU:363:CA:8153, H-B:TYR:531:OH:9764, V-B:ALA:541:CB:9861, H-B:GLU:543:OE2:9879, V-B:GLU:543:CD:9877, V-B:TYR:539:CE2:9845, H-B:ALA:541:N:9860, V-B:TYR:539:C:9836, V-B:TYR:539:CD1:9842"]

$$$$
1n_Grossjean_2025
     RDKit          3D

 48 49  0  0  0  0  0  0  0  0999 V2000
  127.7940  122.1460   59.8090 C   0  0  0  0  0  0  0  0  0  0  0  0
  128.5080  122.1280   58.4540 C   0  0  0  0  0  0  0  0  0  0  0  0
  127.6220  121.6250   57.4610 O   0  0  0  0  0  0  0  0  0  0  0  0
  127.0910  122.4430   56.5160 C   0  0  0  0  0  0  0  0  0  0  0  0
  126.8220  122.0730   55.3700 O   0  0  0  0  0  0  0  0  0  0  0  0
  126.8520  123.8420   57.0080 C   0  0  0  0  0  0  0  0  0  0  0  0
  127.8560  124.8230   56.9730 C   0  0  0  0  0  0  0  0  0  0  0  0
  127.6020  126.1090   57.4400 C   0  0  0  0  0  0  0  0  0  0  0  0
  126.3490  126.4400   57.9580 C   0  0  0  0  0  0  0  0  0  0  0  0
  126.2040  127.7670   58.4070 N   0  0  0  0  0  0  0  0  0  0  0  0
  126.8070  128.8960   57.9760 C   0  0  0  0  0  0  0  0  0  0  0  0
  127.6270  128.9620   57.0600 O   0  0  0  0  0  0  0  0  0  0  0  0
  126.4080  130.1830   58.7100 C   0  0  0  0  0  0  0  0  0  0  0  0
  126.9470  131.4600   58.0300 C   0  0  0  0  0  0  0  0  0  0  0  0
  127.9990  132.4940   59.0930 S   0  0  0  0  0  0  0  0  0  0  0  0
  129.6930  132.0670   58.7530 C   0  0  0  0  0  0  0  0  0  0  0  0
  130.3870  131.6820   59.8540 N   0  0  0  0  0  0  0  0  0  0  0  0
  131.6830  131.3180   59.7110 C   0  0  0  0  0  0  0  0  0  0  0  0
  132.3910  130.8890   60.9820 C   0  0  0  0  0  0  0  0  0  0  0  0
  132.3370  131.3290   58.4810 C   0  0  0  0  0  0  0  0  0  0  0  0
  131.6360  131.7450   57.3430 C   0  0  0  0  0  0  0  0  0  0  0  0
  132.3770  131.7620   56.0080 C   0  0  0  0  0  0  0  0  0  0  0  0
  130.2830  132.1340   57.4690 C   0  0  0  0  0  0  0  0  0  0  0  0
  129.5460  132.6210   56.3010 C   0  0  0  0  0  0  0  0  0  0  0  0
  128.9650  133.0070   55.3780 N   0  0  0  0  0  0  0  0  0  0  0  0
  125.3390  125.4680   57.9870 C   0  0  0  0  0  0  0  0  0  0  0  0
  125.5930  124.1830   57.5160 C   0  0  0  0  0  0  0  0  0  0  0  0
  128.5402  122.1272   60.6169 H   0  0  0  0  0  0  0  0  0  0  0  0
  127.1871  123.0597   59.8916 H   0  0  0  0  0  0  0  0  0  0  0  0
  127.1419  121.2640   59.8916 H   0  0  0  0  0  0  0  0  0  0  0  0
  128.8161  123.1498   58.1876 H   0  0  0  0  0  0  0  0  0  0  0  0
  129.3968  121.4828   58.5150 H   0  0  0  0  0  0  0  0  0  0  0  0
  128.8501  124.5732   56.5737 H   0  0  0  0  0  0  0  0  0  0  0  0
  128.3948  126.8705   57.4006 H   0  0  0  0  0  0  0  0  0  0  0  0
  125.5150  127.8830   59.1360 H   0  0  0  0  0  0  0  0  0  0  0  0
  125.3100  130.2409   58.7434 H   0  0  0  0  0  0  0  0  0  0  0  0
  126.8488  130.1365   59.7168 H   0  0  0  0  0  0  0  0  0  0  0  0
  127.5369  131.1587   57.1518 H   0  0  0  0  0  0  0  0  0  0  0  0
  126.0694  132.0701   57.7702 H   0  0  0  0  0  0  0  0  0  0  0  0
  131.8189  131.2356   61.8553 H   0  0  0  0  0  0  0  0  0  0  0  0
  132.4683  129.7920   61.0062 H   0  0  0  0  0  0  0  0  0  0  0  0
  133.3992  131.3283   61.0062 H   0  0  0  0  0  0  0  0  0  0  0  0
  133.3886  131.0154   58.4052 H   0  0  0  0  0  0  0  0  0  0  0  0
  133.4614  131.7869   56.1908 H   0  0  0  0  0  0  0  0  0  0  0  0
  132.1223  130.8578   55.4357 H   0  0  0  0  0  0  0  0  0  0  0  0
  132.0811  132.6536   55.4357 H   0  0  0  0  0  0  0  0  0  0  0  0
  124.3443  125.7213   58.3826 H   0  0  0  0  0  0  0  0  0  0  0  0
  124.7949  123.4265   57.5433 H   0  0  0  0  0  0  0  0  0  0  0  0
  1  2  1  0
  2  3  1  0
  3  4  1  0
  4  5  2  0
  4  6  1  0
  6  7  2  0
  7  8  1  0
  8  9  2  0
  9 10  1  0
 10 11  1  0
 11 12  2  0
 11 13  1  0
 13 14  1  0
 14 15  1  0
 15 16  1  0
 16 17  2  0
 17 18  1  0
 18 19  1  0
 18 20  2  0
 20 21  1  0
 21 22  1  0
 21 23  2  0
 23 24  1  0
 24 25  3  0
  9 26  1  0
 26 27  2  0
 27  6  1  0
 23 16  1  0
  1 28  1  0
  1 29  1  0
  1 30  1  0
  2 31  1  0
  2 32  1  0
  7 33  1  0
  8 34  1  0
 10 35  1  0
 13 36  1  0
 13 37  1  0
 14 38  1  0
 14 39  1  0
 19 40  1  0
 19 41  1  0
 19 42  1  0
 20 43  1  0
 22 44  1  0
 22 45  1  0
 22 46  1  0
 26 47  1  0
 27 48  1  0
M  END
>  <Binding energies>  (1) 
[-8.65]

>  <Ligand effiencies>  (1) 
[-0.30892857142857144]

>  <Interactions>  (1) 
["V-A:TYR:539:CD2:4871, V-A:PRO:540:CB:4882, V-A:PRO:540:CA:4880, V-A:PRO:540:N:4881, V-A:LEU:363:CD1:3185, V-A:TYR:539:C:4864, V-A:ASN:362:CB:3172, V-A:GLU:543:CD:4905, V-A:TYR:539:CE2:4873, V-A:ILE:538:CD1:4862, V-B:ASP:366:CB:8180, V-B:TYR:539:CE1:9844, V-B:MET:535:CE:9804, V-B:PRO:540:CA:9852, V-B:TYR:539:CZ:9846, V-A:TYR:531:CZ:4791, H-B:ASP:366:OD1:8182, V-B:PRO:540:N:9853, V-B:PRO:540:C:9850, V-B:ASP:366:CG:8181, H-B:TYR:539:N:9839, H-B:TYR:531:OH:9764, V-B:ALA:541:CB:9861, V-A:ILE:538:CG2:4860, V-B:TYR:539:CE2:9845, V-B:TYR:539:C:9836, V-B:TYR:539:CD2:9843, V-B:TYR:539:CD1:9842, V-B:TYR:539:CG:9841, H-A:TYR:539:N:4867, V-A:TYR:539:CA:4866, V-A:TYR:531:CE2:4790"]

$$$$
1o_Grossjean_2025
     RDKit          3D

 45 46  0  0  0  0  0  0  0  0999 V2000
  128.3000  122.0050   58.5700 C   0  0  0  0  0  0  0  0  0  0  0  0
  127.8850  121.6710   57.2530 O   0  0  0  0  0  0  0  0  0  0  0  0
  126.8260  122.2940   56.6750 C   0  0  0  0  0  0  0  0  0  0  0  0
  126.0870  121.7520   55.8470 O   0  0  0  0  0  0  0  0  0  0  0  0
  126.6390  123.7080   57.1450 C   0  0  0  0  0  0  0  0  0  0  0  0
  127.6480  124.6740   57.0120 C   0  0  0  0  0  0  0  0  0  0  0  0
  127.4420  125.9770   57.4560 C   0  0  0  0  0  0  0  0  0  0  0  0
  126.2300  126.3410   58.0440 C   0  0  0  0  0  0  0  0  0  0  0  0
  126.1260  127.6870   58.4490 N   0  0  0  0  0  0  0  0  0  0  0  0
  126.5830  128.8090   57.8500 C   0  0  0  0  0  0  0  0  0  0  0  0
  127.1640  128.8480   56.7650 O   0  0  0  0  0  0  0  0  0  0  0  0
  126.3080  130.1190   58.6030 C   0  0  0  0  0  0  0  0  0  0  0  0
  126.8900  131.3610   57.8990 C   0  0  0  0  0  0  0  0  0  0  0  0
  127.9160  132.4060   58.9760 S   0  0  0  0  0  0  0  0  0  0  0  0
  129.6290  132.0330   58.6580 C   0  0  0  0  0  0  0  0  0  0  0  0
  130.3150  131.6580   59.7670 N   0  0  0  0  0  0  0  0  0  0  0  0
  131.6250  131.3410   59.6460 C   0  0  0  0  0  0  0  0  0  0  0  0
  132.3220  130.9170   60.9260 C   0  0  0  0  0  0  0  0  0  0  0  0
  132.3030  131.3960   58.4300 C   0  0  0  0  0  0  0  0  0  0  0  0
  131.6120  131.8060   57.2850 C   0  0  0  0  0  0  0  0  0  0  0  0
  132.3810  131.8720   55.9660 C   0  0  0  0  0  0  0  0  0  0  0  0
  130.2440  132.1460   57.3870 C   0  0  0  0  0  0  0  0  0  0  0  0
  129.5200  132.6340   56.2110 C   0  0  0  0  0  0  0  0  0  0  0  0
  128.9490  133.0180   55.2810 N   0  0  0  0  0  0  0  0  0  0  0  0
  125.2150  125.3820   58.1750 C   0  0  0  0  0  0  0  0  0  0  0  0
  125.4220  124.0800   57.7300 C   0  0  0  0  0  0  0  0  0  0  0  0
  127.6581  121.4884   59.2988 H   0  0  0  0  0  0  0  0  0  0  0  0
  129.3447  121.6929   58.7155 H   0  0  0  0  0  0  0  0  0  0  0  0
  128.2185  123.0923   58.7155 H   0  0  0  0  0  0  0  0  0  0  0  0
  128.6093  124.3994   56.5533 H   0  0  0  0  0  0  0  0  0  0  0  0
  128.2403  126.7252   57.3426 H   0  0  0  0  0  0  0  0  0  0  0  0
  125.6090  127.8210   59.3060 H   0  0  0  0  0  0  0  0  0  0  0  0
  125.2193  130.2474   58.6940 H   0  0  0  0  0  0  0  0  0  0  0  0
  126.7996  130.0403   59.5839 H   0  0  0  0  0  0  0  0  0  0  0  0
  127.5080  131.0224   57.0544 H   0  0  0  0  0  0  0  0  0  0  0  0
  126.0358  131.9754   57.5782 H   0  0  0  0  0  0  0  0  0  0  0  0
  131.7432  131.2691   61.7926 H   0  0  0  0  0  0  0  0  0  0  0  0
  132.3972  129.8200   60.9565 H   0  0  0  0  0  0  0  0  0  0  0  0
  133.3307  131.3546   60.9565 H   0  0  0  0  0  0  0  0  0  0  0  0
  133.3664  131.1209   58.3713 H   0  0  0  0  0  0  0  0  0  0  0  0
  133.4573  131.9644   56.1733 H   0  0  0  0  0  0  0  0  0  0  0  0
  132.1964  130.9547   55.3876 H   0  0  0  0  0  0  0  0  0  0  0  0
  132.0428  132.7444   55.3876 H   0  0  0  0  0  0  0  0  0  0  0  0
  124.2531  125.6598   58.6306 H   0  0  0  0  0  0  0  0  0  0  0  0
  124.6207  123.3343   57.8389 H   0  0  0  0  0  0  0  0  0  0  0  0
  1  2  1  0
  2  3  1  0
  3  4  2  0
  3  5  1  0
  5  6  2  0
  6  7  1  0
  7  8  2  0
  8  9  1  0
  9 10  1  0
 10 11  2  0
 10 12  1  0
 12 13  1  0
 13 14  1  0
 14 15  1  0
 15 16  2  0
 16 17  1  0
 17 18  1  0
 17 19  2  0
 19 20  1  0
 20 21  1  0
 20 22  2  0
 22 23  1  0
 23 24  3  0
  8 25  1  0
 25 26  2  0
 26  5  1  0
 22 15  1  0
  1 27  1  0
  1 28  1  0
  1 29  1  0
  6 30  1  0
  7 31  1  0
  9 32  1  0
 12 33  1  0
 12 34  1  0
 13 35  1  0
 13 36  1  0
 18 37  1  0
 18 38  1  0
 18 39  1  0
 19 40  1  0
 21 41  1  0
 21 42  1  0
 21 43  1  0
 25 44  1  0
 26 45  1  0
M  END
>  <Binding energies>  (1) 
[-8.7]

>  <Ligand effiencies>  (1) 
[-0.3222222222222222]

>  <Interactions>  (1) 
["V-A:TYR:539:CD2:4871, V-A:PRO:540:CB:4882, V-A:PRO:540:CA:4880, V-A:PRO:540:N:4881, V-A:LEU:363:CD1:3185, V-A:TYR:539:C:4864, V-A:ASN:362:CB:3172, V-A:GLU:543:CD:4905, V-A:TYR:539:CE2:4873, V-A:ILE:538:CD1:4862, V-B:ASP:366:CB:8180, V-B:TYR:539:CE1:9844, V-B:MET:535:CE:9804, V-B:PRO:540:CA:9852, V-B:TYR:539:CZ:9846, V-A:TYR:531:CZ:4791, H-B:ASP:366:OD1:8182, V-B:PRO:540:N:9853, V-B:ASP:366:CG:8181, H-B:TYR:539:N:9839, H-B:TYR:531:OH:9764, V-A:ILE:538:CG2:4860, V-B:TYR:539:CE2:9845, V-B:ILE:538:CB:9831, V-B:PRO:540:CD:9856, V-B:TYR:539:C:9836, V-B:TYR:539:CD2:9843, V-B:TYR:539:CD1:9842, V-B:TYR:539:CG:9841, H-A:TYR:539:N:4867, V-A:TYR:539:CA:4866, V-A:TYR:531:CE2:4790"]

$$$$
1p_Grossjean_2025
     RDKit          3D

 35 36  0  0  0  0  0  0  0  0999 V2000
  124.1300  124.0440   61.3390 C   0  0  0  0  0  0  0  0  0  0  0  0
  124.9480  123.6660   60.1190 C   0  0  0  0  0  0  0  0  0  0  0  0
  124.5330  124.0030   58.8310 C   0  0  0  0  0  0  0  0  0  0  0  0
  125.3200  123.6170   57.7410 C   0  0  0  0  0  0  0  0  0  0  0  0
  124.8380  123.9840   56.3380 C   0  0  0  0  0  0  0  0  0  0  0  0
  126.5180  122.9040   57.9710 C   0  0  0  0  0  0  0  0  0  0  0  0
  127.3340  122.4470   56.8450 C   0  0  0  0  0  0  0  0  0  0  0  0
  127.9780  122.0860   55.9540 N   0  0  0  0  0  0  0  0  0  0  0  0
  126.8720  122.6250   59.3130 C   0  0  0  0  0  0  0  0  0  0  0  0
  128.3480  121.7480   59.7790 S   0  0  0  0  0  0  0  0  0  0  0  0
  129.1960  122.7690   61.0190 C   0  0  0  0  0  0  0  0  0  0  0  0
  130.6690  123.0660   60.6770 C   0  0  0  0  0  0  0  0  0  0  0  0
  131.5850  123.1270   61.9090 C   0  0  0  0  0  0  0  0  0  0  0  0
  131.9870  122.0800   62.4200 O   0  0  0  0  0  0  0  0  0  0  0  0
  131.9000  124.3690   62.3410 N   0  0  0  0  0  0  0  0  0  0  0  0
  132.7040  124.7030   63.4240 C   0  0  0  0  0  0  0  0  0  0  0  0
  132.1940  125.0220   64.6820 C   0  0  0  0  0  0  0  0  0  0  0  0
  133.2980  125.2870   65.4600 C   0  0  0  0  0  0  0  0  0  0  0  0
  134.4140  125.1370   64.7090 O   0  0  0  0  0  0  0  0  0  0  0  0
  134.0250  124.7680   63.4200 N   0  0  0  0  0  0  0  0  0  0  0  0
  126.0920  122.9860   60.3630 N   0  0  0  0  0  0  0  0  0  0  0  0
  124.6895  123.7854   62.2501 H   0  0  0  0  0  0  0  0  0  0  0  0
  123.9304  125.1257   61.3259 H   0  0  0  0  0  0  0  0  0  0  0  0
  123.1769  123.4950   61.3259 H   0  0  0  0  0  0  0  0  0  0  0  0
  123.6001  124.5644   58.6745 H   0  0  0  0  0  0  0  0  0  0  0  0
  123.9648  124.6488   56.4125 H   0  0  0  0  0  0  0  0  0  0  0  0
  125.6452  124.4982   55.7958 H   0  0  0  0  0  0  0  0  0  0  0  0
  124.5570  123.0691   55.7958 H   0  0  0  0  0  0  0  0  0  0  0  0
  128.6602  123.7258   61.1058 H   0  0  0  0  0  0  0  0  0  0  0  0
  129.1938  122.1989   61.9597 H   0  0  0  0  0  0  0  0  0  0  0  0
  131.0375  122.2741   60.0083 H   0  0  0  0  0  0  0  0  0  0  0  0
  130.6971  124.0587   60.2040 H   0  0  0  0  0  0  0  0  0  0  0  0
  131.5050  125.1490   61.8370 H   0  0  0  0  0  0  0  0  0  0  0  0
  131.1376  125.0548   64.9868 H   0  0  0  0  0  0  0  0  0  0  0  0
  133.2768  125.5745   66.5216 H   0  0  0  0  0  0  0  0  0  0  0  0
  1  2  1  0
  2  3  2  0
  3  4  1  0
  4  5  1  0
  4  6  2  0
  6  7  1  0
  7  8  3  0
  6  9  1  0
  9 10  1  0
 10 11  1  0
 11 12  1  0
 12 13  1  0
 13 14  2  0
 13 15  1  0
 15 16  1  0
 16 17  1  0
 17 18  2  0
 18 19  1  0
 19 20  1  0
  9 21  2  0
 21  2  1  0
 20 16  2  0
  1 22  1  0
  1 23  1  0
  1 24  1  0
  3 25  1  0
  5 26  1  0
  5 27  1  0
  5 28  1  0
 11 29  1  0
 11 30  1  0
 12 31  1  0
 12 32  1  0
 15 33  1  0
 17 34  1  0
 18 35  1  0
M  END
>  <Binding energies>  (1) 
[-7.61]

>  <Ligand effiencies>  (1) 
[-0.34590909090909094]

>  <Interactions>  (1) 
["V-A:HIS:456:CE1:4066, V-B:ASN:362:CB:8144, V-B:PRO:540:CA:9852, V-B:TYR:539:CZ:9846, V-B:TYR:531:CE2:9762, V-B:ASN:362:C:8140, V-B:PRO:540:N:9853, V-B:PRO:540:C:9850, V-B:PRO:540:CB:9854, H-B:TYR:539:N:9839, V-B:LEU:363:CD1:8157, V-B:ALA:541:CB:9861, V-B:GLU:543:CD:9877, V-A:ARG:545:CZ:4923, V-A:ARG:545:CD:4920, H-A:ARG:545:NH2:4925, V-B:TYR:539:CE2:9845, H-A:ARG:545:NE:4921, H-B:ALA:541:N:9860, V-B:TYR:539:C:9836, V-B:TYR:539:CD1:9842, H-A:GLY:454:N:4046, H-A:ARG:545:NH1:4924, V-B:ARG:545:CZ:9895"]

$$$$
1q_Grossjean_2025
     RDKit          3D

 38 38  0  0  0  0  0  0  0  0999 V2000
  134.9590  127.0530   73.8030 C   0  0  0  0  0  0  0  0  0  0  0  0
  133.9120  126.5630   74.6290 O   0  0  0  0  0  0  0  0  0  0  0  0
  133.5820  125.2480   74.6130 C   0  0  0  0  0  0  0  0  0  0  0  0
  134.3570  124.3120   74.8160 O   0  0  0  0  0  0  0  0  0  0  0  0
  132.1000  124.9760   74.2760 C   0  0  0  0  0  0  0  0  0  0  0  0
  131.8240  123.5580   74.0030 N   0  0  0  0  0  0  0  0  0  0  0  0
  130.7550  123.0750   73.3410 C   0  0  0  0  0  0  0  0  0  0  0  0
  129.8690  123.7950   72.8770 O   0  0  0  0  0  0  0  0  0  0  0  0
  130.7010  121.5500   73.1740 C   0  0  0  0  0  0  0  0  0  0  0  0
  129.3400  121.0140   72.6860 C   0  0  0  0  0  0  0  0  0  0  0  0
  128.6550  119.7010   73.7400 S   0  0  0  0  0  0  0  0  0  0  0  0
  126.8920  119.9320   73.8600 C   0  0  0  0  0  0  0  0  0  0  0  0
  126.4840  120.3350   75.0900 N   0  0  0  0  0  0  0  0  0  0  0  0
  125.1640  120.5410   75.3040 C   0  0  0  0  0  0  0  0  0  0  0  0
  124.7830  120.9740   76.7080 C   0  0  0  0  0  0  0  0  0  0  0  0
  124.2050  120.3670   74.3090 C   0  0  0  0  0  0  0  0  0  0  0  0
  124.6160  119.9770   73.0300 C   0  0  0  0  0  0  0  0  0  0  0  0
  123.5470  119.8110   71.9510 C   0  0  0  0  0  0  0  0  0  0  0  0
  125.9900  119.7580   72.7820 C   0  0  0  0  0  0  0  0  0  0  0  0
  126.4450  119.4040   71.4360 C   0  0  0  0  0  0  0  0  0  0  0  0
  126.8000  119.1250   70.3700 N   0  0  0  0  0  0  0  0  0  0  0  0
  135.7753  127.4350   74.4336 H   0  0  0  0  0  0  0  0  0  0  0  0
  135.3369  126.2382   73.1679 H   0  0  0  0  0  0  0  0  0  0  0  0
  134.5755  127.8651   73.1679 H   0  0  0  0  0  0  0  0  0  0  0  0
  131.4823  125.2956   75.1283 H   0  0  0  0  0  0  0  0  0  0  0  0
  131.8616  125.5396   73.3619 H   0  0  0  0  0  0  0  0  0  0  0  0
  132.4920  122.8980   74.3750 H   0  0  0  0  0  0  0  0  0  0  0  0
  131.4693  121.2558   72.4438 H   0  0  0  0  0  0  0  0  0  0  0  0
  130.8715  121.1172   74.1708 H   0  0  0  0  0  0  0  0  0  0  0  0
  128.6252  121.8497   72.6627 H   0  0  0  0  0  0  0  0  0  0  0  0
  129.5039  120.5760   71.6904 H   0  0  0  0  0  0  0  0  0  0  0  0
  125.3247  120.3584   77.4412 H   0  0  0  0  0  0  0  0  0  0  0  0
  125.0484  122.0320   76.8501 H   0  0  0  0  0  0  0  0  0  0  0  0
  123.6998  120.8454   76.8501 H   0  0  0  0  0  0  0  0  0  0  0  0
  123.1396  120.5339   74.5258 H   0  0  0  0  0  0  0  0  0  0  0  0
  122.5668  119.6588   72.4264 H   0  0  0  0  0  0  0  0  0  0  0  0
  123.5145  120.7149   71.3249 H   0  0  0  0  0  0  0  0  0  0  0  0
  123.7901  118.9398   71.3249 H   0  0  0  0  0  0  0  0  0  0  0  0
  1  2  1  0
  2  3  1  0
  3  4  2  0
  3  5  1  0
  5  6  1  0
  6  7  1  0
  7  8  2  0
  7  9  1  0
  9 10  1  0
 10 11  1  0
 11 12  1  0
 12 13  2  0
 13 14  1  0
 14 15  1  0
 14 16  2  0
 16 17  1  0
 17 18  1  0
 17 19  2  0
 19 20  1  0
 20 21  3  0
 19 12  1  0
  1 22  1  0
  1 23  1  0
  1 24  1  0
  5 25  1  0
  5 26  1  0
  6 27  1  0
  9 28  1  0
  9 29  1  0
 10 30  1  0
 10 31  1  0
 15 32  1  0
 15 33  1  0
 15 34  1  0
 16 35  1  0
 18 36  1  0
 18 37  1  0
 18 38  1  0
M  END
>  <Binding energies>  (1) 
[-6.8]

>  <Ligand effiencies>  (1) 
[-0.3090909090909091]

>  <Interactions>  (1) 
["H-A:LYS:547:NZ:4948, H-B:LYS:547:NZ:9920, V-B:GLY:544:CA:9883, V-A:HIS:456:CD2:4064, V-A:TYR:484:CB:4337, V-A:TYR:484:CG:4338, V-B:VAL:542:CG1:9868, V-A:VAL:457:C:4069, V-A:VAL:458:CG2:4083, V-A:ASP:473:CB:4235, V-B:LYS:547:CG:9917, V-A:ASP:473:CG:4236, V-A:HIS:456:CB:4061, H-A:ASP:473:OD1:4237, V-B:LYS:547:CD:9918, V-A:LYS:547:CG:4945, V-B:LYS:547:CA:9914, V-A:TYR:484:CD2:4340, V-B:LYS:547:CB:9916, H-A:SER:483:OG:4330, V-A:ARG:545:C:4914, H-A:TYR:484:N:4336"]

$$$$
2a_Ghoteimi_2023
     RDKit          3D

 85 90  0  0  0  0  0  0  0  0999 V2000
  124.9220  124.4290   56.5270 C   0  0  0  0  0  0  0  0  0  0  0  0
  125.0460  123.0770   55.8180 C   0  0  0  0  0  0  0  0  0  0  0  0
  125.7010  122.1520   56.6760 O   0  0  0  0  0  0  0  0  0  0  0  0
  127.0420  122.2130   56.8800 C   0  0  0  0  0  0  0  0  0  0  0  0
  127.8750  122.0530   55.9830 O   0  0  0  0  0  0  0  0  0  0  0  0
  127.4120  122.5020   58.3070 C   0  0  0  0  0  0  0  0  0  0  0  0
  126.5790  123.2500   59.1530 C   0  0  0  0  0  0  0  0  0  0  0  0
  126.9510  123.4990   60.4710 C   0  0  0  0  0  0  0  0  0  0  0  0
  128.1550  123.0030   60.9730 C   0  0  0  0  0  0  0  0  0  0  0  0
  128.4330  123.3180   62.3170 N   0  0  0  0  0  0  0  0  0  0  0  0
  129.5070  123.0070   63.0750 C   0  0  0  0  0  0  0  0  0  0  0  0
  130.4580  122.3170   62.7060 O   0  0  0  0  0  0  0  0  0  0  0  0
  129.4720  123.5490   64.5100 C   0  0  0  0  0  0  0  0  0  0  0  0
  130.7020  124.8470   64.8560 S   0  0  0  0  0  0  0  0  0  0  0  0
  129.7840  126.2070   65.5400 C   0  0  0  0  0  0  0  0  0  0  0  0
  129.7550  126.2230   66.8930 N   0  0  0  0  0  0  0  0  0  0  0  0
  129.0780  127.2080   67.5340 C   0  0  0  0  0  0  0  0  0  0  0  0
  129.0810  127.1570   69.0280 C   0  0  0  0  0  0  0  0  0  0  0  0
  130.0990  127.7650   69.7730 C   0  0  0  0  0  0  0  0  0  0  0  0
  130.1030  127.7030   71.1640 C   0  0  0  0  0  0  0  0  0  0  0  0
  129.0860  127.0380   71.8630 C   0  0  0  0  0  0  0  0  0  0  0  0
  129.1200  126.9590   73.2600 N   0  0  0  0  0  0  0  0  0  0  0  0
  129.7770  125.8320   73.9510 C   0  0  0  0  0  0  0  0  0  0  0  0
  130.0350  126.0870   75.4510 C   0  0  0  0  0  0  0  0  0  0  0  0
  128.8240  126.4430   76.0990 O   0  0  0  0  0  0  0  0  0  0  0  0
  128.2710  127.6280   75.5480 C   0  0  0  0  0  0  0  0  0  0  0  0
  127.9600  127.4220   74.0500 C   0  0  0  0  0  0  0  0  0  0  0  0
  128.0740  126.4200   71.1110 C   0  0  0  0  0  0  0  0  0  0  0  0
  128.0690  126.4840   69.7210 C   0  0  0  0  0  0  0  0  0  0  0  0
  128.4200  128.2150   66.8220 C   0  0  0  0  0  0  0  0  0  0  0  0
  128.4360  128.2190   65.4210 C   0  0  0  0  0  0  0  0  0  0  0  0
  127.7080  129.3210   64.7220 C   0  0  0  0  0  0  0  0  0  0  0  0
  127.8650  130.6440   65.1420 C   0  0  0  0  0  0  0  0  0  0  0  0
  127.1760  131.6750   64.5110 C   0  0  0  0  0  0  0  0  0  0  0  0
  126.3100  131.4150   63.4390 C   0  0  0  0  0  0  0  0  0  0  0  0
  125.5940  132.4330   62.8030 N   0  0  0  0  0  0  0  0  0  0  0  0
  124.1190  132.4350   62.8770 C   0  0  0  0  0  0  0  0  0  0  0  0
  123.4910  133.7900   62.4850 C   0  0  0  0  0  0  0  0  0  0  0  0
  123.9310  134.1740   61.1920 O   0  0  0  0  0  0  0  0  0  0  0  0
  125.3420  134.3130   61.1380 C   0  0  0  0  0  0  0  0  0  0  0  0
  126.0200  132.9750   61.4980 C   0  0  0  0  0  0  0  0  0  0  0  0
  126.1480  130.0830   63.0310 C   0  0  0  0  0  0  0  0  0  0  0  0
  126.8360  129.0510   63.6630 C   0  0  0  0  0  0  0  0  0  0  0  0
  129.1430  127.1890   64.7530 C   0  0  0  0  0  0  0  0  0  0  0  0
  129.2430  127.1720   63.2900 C   0  0  0  0  0  0  0  0  0  0  0  0
  129.3200  127.1600   62.1350 N   0  0  0  0  0  0  0  0  0  0  0  0
  128.9970  122.2610   60.1310 C   0  0  0  0  0  0  0  0  0  0  0  0
  128.6230  122.0110   58.8130 C   0  0  0  0  0  0  0  0  0  0  0  0
  124.9362  124.2746   57.6160 H   0  0  0  0  0  0  0  0  0  0  0  0
  125.7648  125.0737   56.2371 H   0  0  0  0  0  0  0  0  0  0  0  0
  123.9760  124.9097   56.2371 H   0  0  0  0  0  0  0  0  0  0  0  0
  124.0431  122.6999   55.5690 H   0  0  0  0  0  0  0  0  0  0  0  0
  125.6308  123.1989   54.8943 H   0  0  0  0  0  0  0  0  0  0  0  0
  125.6248  123.6426   58.7717 H   0  0  0  0  0  0  0  0  0  0  0  0
  126.2910  124.0912   61.1218 H   0  0  0  0  0  0  0  0  0  0  0  0
  127.6980  123.8320   62.7790 H   0  0  0  0  0  0  0  0  0  0  0  0
  128.4710  123.9656   64.6958 H   0  0  0  0  0  0  0  0  0  0  0  0
  129.7147  122.7034   65.1703 H   0  0  0  0  0  0  0  0  0  0  0  0
  130.9071  128.2992   69.2518 H   0  0  0  0  0  0  0  0  0  0  0  0
  130.9183  128.1842   71.7241 H   0  0  0  0  0  0  0  0  0  0  0  0
  129.1343  124.9444   73.8555 H   0  0  0  0  0  0  0  0  0  0  0  0
  130.7593  125.6933   73.4758 H   0  0  0  0  0  0  0  0  0  0  0  0
  130.4393  125.1734   75.9113 H   0  0  0  0  0  0  0  0  0  0  0  0
  130.7568  126.9102   75.5580 H   0  0  0  0  0  0  0  0  0  0  0  0
  127.3420  127.8781   76.0813 H   0  0  0  0  0  0  0  0  0  0  0  0
  128.9967  128.4476   75.6555 H   0  0  0  0  0  0  0  0  0  0  0  0
  127.1587  126.6736   73.9615 H   0  0  0  0  0  0  0  0  0  0  0  0
  127.6662  128.4017   73.6453 H   0  0  0  0  0  0  0  0  0  0  0  0
  127.2711  125.8757   71.6298 H   0  0  0  0  0  0  0  0  0  0  0  0
  127.2576  125.9984   69.1589 H   0  0  0  0  0  0  0  0  0  0  0  0
  127.8864  129.0091   67.3649 H   0  0  0  0  0  0  0  0  0  0  0  0
  128.5400  130.8729   65.9798 H   0  0  0  0  0  0  0  0  0  0  0  0
  127.3126  132.7098   64.8582 H   0  0  0  0  0  0  0  0  0  0  0  0
  123.7340  131.6615   62.1963 H   0  0  0  0  0  0  0  0  0  0  0  0
  123.8445  132.2387   63.9240 H   0  0  0  0  0  0  0  0  0  0  0  0
  122.3950  133.6965   62.4838 H   0  0  0  0  0  0  0  0  0  0  0  0
  123.7999  134.5547   63.2129 H   0  0  0  0  0  0  0  0  0  0  0  0
  125.6398  134.6100   60.1216 H   0  0  0  0  0  0  0  0  0  0  0  0
  125.6562  135.0817   61.8594 H   0  0  0  0  0  0  0  0  0  0  0  0
  125.7745  132.2391   60.7182 H   0  0  0  0  0  0  0  0  0  0  0  0
  127.1011  133.1669   61.5640 H   0  0  0  0  0  0  0  0  0  0  0  0
  125.4670  129.8503   62.1991 H   0  0  0  0  0  0  0  0  0  0  0  0
  126.6923  128.0137   63.3262 H   0  0  0  0  0  0  0  0  0  0  0  0
  129.9542  121.8761   60.5125 H   0  0  0  0  0  0  0  0  0  0  0  0
  129.2855  121.4216   58.1620 H   0  0  0  0  0  0  0  0  0  0  0  0
  1  2  1  0
  2  3  1  0
  3  4  1  0
  4  5  2  0
  4  6  1  0
  6  7  2  0
  7  8  1  0
  8  9  2  0
  9 10  1  0
 10 11  1  0
 11 12  2  0
 11 13  1  0
 13 14  1  0
 14 15  1  0
 15 16  2  0
 16 17  1  0
 17 18  1  0
 18 19  2  0
 19 20  1  0
 20 21  2  0
 21 22  1  0
 22 23  1  0
 23 24  1  0
 24 25  1  0
 25 26  1  0
 26 27  1  0
 21 28  1  0
 28 29  2  0
 17 30  2  0
 30 31  1  0
 31 32  1  0
 32 33  2  0
 33 34  1  0
 34 35  2  0
 35 36  1  0
 36 37  1  0
 37 38  1  0
 38 39  1  0
 39 40  1  0
 40 41  1  0
 35 42  1  0
 42 43  2  0
 31 44  2  0
 44 45  1  0
 45 46  3  0
  9 47  1  0
 47 48  2  0
 48  6  1  0
 44 15  1  0
 29 18  1  0
 43 32  1  0
 27 22  1  0
 41 36  1  0
  1 49  1  0
  1 50  1  0
  1 51  1  0
  2 52  1  0
  2 53  1  0
  7 54  1  0
  8 55  1  0
 10 56  1  0
 13 57  1  0
 13 58  1  0
 19 59  1  0
 20 60  1  0
 23 61  1  0
 23 62  1  0
 24 63  1  0
 24 64  1  0
 26 65  1  0
 26 66  1  0
 27 67  1  0
 27 68  1  0
 28 69  1  0
 29 70  1  0
 30 71  1  0
 33 72  1  0
 34 73  1  0
 37 74  1  0
 37 75  1  0
 38 76  1  0
 38 77  1  0
 40 78  1  0
 40 79  1  0
 41 80  1  0
 41 81  1  0
 42 82  1  0
 43 83  1  0
 47 84  1  0
 48 85  1  0
M  END
>  <Binding energies>  (1) 
[-11.95]

>  <Ligand effiencies>  (1) 
[-0.24387755102040815]

>  <Interactions>  (1) 
["V-A:GLU:543:CD:4905, V-B:LEU:475:CD2:9227, V-B:LYS:547:CE:9919, V-A:LYS:547:CE:4947, V-A:HIS:456:CE1:4066, V-A:GLU:543:CB:4903, V-A:HIS:456:CD2:4064, V-B:GLU:543:CB:9875, V-B:HIS:456:CE1:9038, V-B:GLY:544:C:9881, V-B:HIS:456:CD2:9036, V-B:TYR:539:CE1:9844, V-B:MET:535:CE:9804, V-B:PRO:540:CA:9852, V-B:TYR:539:CZ:9846, V-B:TYR:531:CE2:9762, V-B:PRO:540:N:9853, V-B:TYR:531:CZ:9763, V-B:PRO:540:CB:9854, H-B:TYR:539:N:9839, V-B:LEU:363:CD1:8157, V-B:ALA:541:CB:9861, H-B:GLU:543:OE2:9879, V-B:GLU:543:CD:9877, V-B:GLU:543:CG:9876, V-B:TYR:539:CE2:9845, V-A:TYR:484:CE1:4341, V-A:GLU:543:CG:4904, V-B:ILE:538:CG2:9832, V-B:ILE:538:CB:9831, V-B:PRO:540:CD:9856, V-B:TYR:539:C:9836, V-B:TYR:539:CD2:9843, V-B:ILE:369:CD1:8207, V-B:TYR:539:CD1:9842, V-B:TYR:539:CG:9841, H-A:TYR:484:OH:4344, V-B:GLY:454:CA:9017, V-B:TYR:484:CE1:9313, V-B:LYS:547:CD:9918"]

$$$$
2a_Grossjean_2025
     RDKit          3D

 45 46  0  0  0  0  0  0  0  0999 V2000
  124.1460  123.2490   61.3950 C   0  0  0  0  0  0  0  0  0  0  0  0
  123.8710  124.3670   60.3850 C   0  0  0  0  0  0  0  0  0  0  0  0
  124.0360  123.8600   59.0660 O   0  0  0  0  0  0  0  0  0  0  0  0
  124.7050  124.5700   58.1210 C   0  0  0  0  0  0  0  0  0  0  0  0
  124.1440  125.2540   57.2600 O   0  0  0  0  0  0  0  0  0  0  0  0
  126.1980  124.4550   58.2430 C   0  0  0  0  0  0  0  0  0  0  0  0
  126.9960  125.5420   58.6270 C   0  0  0  0  0  0  0  0  0  0  0  0
  128.3770  125.4030   58.7290 C   0  0  0  0  0  0  0  0  0  0  0  0
  128.9890  124.1820   58.4420 C   0  0  0  0  0  0  0  0  0  0  0  0
  130.3900  124.1600   58.5640 N   0  0  0  0  0  0  0  0  0  0  0  0
  131.1820  124.6090   59.5620 C   0  0  0  0  0  0  0  0  0  0  0  0
  130.7920  125.1710   60.5860 O   0  0  0  0  0  0  0  0  0  0  0  0
  132.6850  124.3850   59.3640 C   0  0  0  0  0  0  0  0  0  0  0  0
  133.4080  123.2280   60.5740 S   0  0  0  0  0  0  0  0  0  0  0  0
  132.7360  123.5570   62.2000 C   0  0  0  0  0  0  0  0  0  0  0  0
  133.5070  124.3260   63.0110 N   0  0  0  0  0  0  0  0  0  0  0  0
  133.0670  124.6040   64.2590 C   0  0  0  0  0  0  0  0  0  0  0  0
  133.9960  125.4460   65.1140 C   0  0  0  0  0  0  0  0  0  0  0  0
  131.8490  124.1410   64.7460 C   0  0  0  0  0  0  0  0  0  0  0  0
  131.0310  123.3520   63.9220 C   0  0  0  0  0  0  0  0  0  0  0  0
  129.6850  122.8480   64.4760 C   0  0  0  0  0  0  0  0  0  0  0  0
  129.4130  123.4500   65.6340 F   0  0  0  0  0  0  0  0  0  0  0  0
  128.7070  123.1140   63.6090 F   0  0  0  0  0  0  0  0  0  0  0  0
  129.6790  121.5310   64.6960 F   0  0  0  0  0  0  0  0  0  0  0  0
  131.4830  123.0490   62.6120 C   0  0  0  0  0  0  0  0  0  0  0  0
  130.6700  122.2260   61.7100 C   0  0  0  0  0  0  0  0  0  0  0  0
  130.0290  121.5770   60.9980 N   0  0  0  0  0  0  0  0  0  0  0  0
  128.1970  123.0880   58.0650 C   0  0  0  0  0  0  0  0  0  0  0  0
  126.8150  123.2280   57.9680 C   0  0  0  0  0  0  0  0  0  0  0  0
  124.0485  123.6455   62.4164 H   0  0  0  0  0  0  0  0  0  0  0  0
  123.4214  122.4347   61.2470 H   0  0  0  0  0  0  0  0  0  0  0  0
  125.1657  122.8638   61.2470 H   0  0  0  0  0  0  0  0  0  0  0  0
  122.8412  124.7320   60.5122 H   0  0  0  0  0  0  0  0  0  0  0  0
  124.5747  125.1958   60.5520 H   0  0  0  0  0  0  0  0  0  0  0  0
  126.5271  126.5119   58.8493 H   0  0  0  0  0  0  0  0  0  0  0  0
  128.9907  126.2619   59.0381 H   0  0  0  0  0  0  0  0  0  0  0  0
  130.8620  123.6960   57.8030 H   0  0  0  0  0  0  0  0  0  0  0  0
  132.8476  123.9805   58.3541 H   0  0  0  0  0  0  0  0  0  0  0  0
  133.1805  125.3567   59.5063 H   0  0  0  0  0  0  0  0  0  0  0  0
  133.7875  125.2570   66.1774 H   0  0  0  0  0  0  0  0  0  0  0  0
  135.0401  125.1802   64.8922 H   0  0  0  0  0  0  0  0  0  0  0  0
  133.8338  126.5111   64.8922 H   0  0  0  0  0  0  0  0  0  0  0  0
  131.5294  124.3911   65.7684 H   0  0  0  0  0  0  0  0  0  0  0  0
  128.6678  122.1184   57.8457 H   0  0  0  0  0  0  0  0  0  0  0  0
  126.2007  122.3649   57.6719 H   0  0  0  0  0  0  0  0  0  0  0  0
  1  2  1  0
  2  3  1  0
  3  4  1  0
  4  5  2  0
  4  6  1  0
  6  7  2  0
  7  8  1  0
  8  9  2  0
  9 10  1  0
 10 11  1  0
 11 12  2  0
 11 13  1  0
 13 14  1  0
 14 15  1  0
 15 16  2  0
 16 17  1  0
 17 18  1  0
 17 19  2  0
 19 20  1  0
 20 21  1  0
 21 22  1  0
 21 23  1  0
 21 24  1  0
 20 25  2  0
 25 26  1  0
 26 27  3  0
  9 28  1  0
 28 29  2  0
 29  6  1  0
 25 15  1  0
  1 30  1  0
  1 31  1  0
  1 32  1  0
  2 33  1  0
  2 34  1  0
  7 35  1  0
  8 36  1  0
 10 37  1  0
 13 38  1  0
 13 39  1  0
 18 40  1  0
 18 41  1  0
 18 42  1  0
 19 43  1  0
 28 44  1  0
 29 45  1  0
M  END
>  <Binding energies>  (1) 
[-6.98]

>  <Ligand effiencies>  (1) 
[-0.2326666666666667]

>  <Interactions>  (1) 
["V-A:ASP:366:CB:3208, V-A:ASP:366:CG:3209, V-A:HIS:456:CE1:4066, V-B:GLU:543:CB:9875, V-B:ASN:362:CB:8144, V-B:TYR:539:CE1:9844, V-B:PRO:540:CA:9852, V-B:TYR:539:CZ:9846, V-B:ASN:362:C:8140, V-B:PRO:540:CB:9854, V-B:LEU:363:CD1:8157, V-B:LEU:363:CA:8153, H-B:TYR:531:OH:9764, V-B:ALA:541:CB:9861, H-B:TYR:539:OH:9847, V-B:GLU:543:CD:9877, V-B:GLU:543:CG:9876, V-A:ARG:545:CZ:4923, V-A:TYR:484:CZ:4343, V-A:ARG:545:CD:4920, V-B:TYR:539:CE2:9845, V-A:ARG:545:CG:4919, V-A:TYR:484:CE1:4341, V-B:GLU:543:CA:9873, V-A:LEU:475:CD1:4254, H-A:GLY:454:N:4046, V-A:GLY:454:CA:4045, V-A:GLY:453:CA:4040, V-A:ASP:366:CA:3206, V-A:LEU:475:CD2:4255, V-A:LEU:475:CG:4253"]

$$$$
2aa_Ghoteimi_2023
     RDKit          3D

 85 90  0  0  0  0  0  0  0  0999 V2000
  129.0330  123.6560   55.5940 C   0  0  0  0  0  0  0  0  0  0  0  0
  128.1150  122.6600   54.8790 C   0  0  0  0  0  0  0  0  0  0  0  0
  127.5260  121.7910   55.8370 O   0  0  0  0  0  0  0  0  0  0  0  0
  126.4800  122.1960   56.6040 C   0  0  0  0  0  0  0  0  0  0  0  0
  125.3150  122.2450   56.1940 O   0  0  0  0  0  0  0  0  0  0  0  0
  126.8790  122.5630   58.0040 C   0  0  0  0  0  0  0  0  0  0  0  0
  128.0340  122.0430   58.6060 C   0  0  0  0  0  0  0  0  0  0  0  0
  128.3800  122.4060   59.9040 C   0  0  0  0  0  0  0  0  0  0  0  0
  127.5760  123.2870   60.6300 C   0  0  0  0  0  0  0  0  0  0  0  0
  128.0210  123.5890   61.9320 N   0  0  0  0  0  0  0  0  0  0  0  0
  129.2780  123.7010   62.4120 C   0  0  0  0  0  0  0  0  0  0  0  0
  130.3060  123.5790   61.7430 O   0  0  0  0  0  0  0  0  0  0  0  0
  129.3620  124.0310   63.9080 C   0  0  0  0  0  0  0  0  0  0  0  0
  130.0680  125.2640   64.0900 O   0  0  0  0  0  0  0  0  0  0  0  0
  129.4780  126.3070   64.7920 C   0  0  0  0  0  0  0  0  0  0  0  0
  129.5200  126.2670   66.1530 N   0  0  0  0  0  0  0  0  0  0  0  0
  128.9570  127.2730   66.8690 C   0  0  0  0  0  0  0  0  0  0  0  0
  129.0370  127.1600   68.3590 C   0  0  0  0  0  0  0  0  0  0  0  0
  128.1170  126.3800   69.0670 C   0  0  0  0  0  0  0  0  0  0  0  0
  128.1910  126.2660   70.4530 C   0  0  0  0  0  0  0  0  0  0  0  0
  129.1980  126.9170   71.1820 C   0  0  0  0  0  0  0  0  0  0  0  0
  129.2790  126.8230   72.5760 N   0  0  0  0  0  0  0  0  0  0  0  0
  128.2150  127.3630   73.4470 C   0  0  0  0  0  0  0  0  0  0  0  0
  128.6290  127.4920   74.9280 C   0  0  0  0  0  0  0  0  0  0  0  0
  129.0970  126.2430   75.4120 O   0  0  0  0  0  0  0  0  0  0  0  0
  130.2290  125.7950   74.6830 C   0  0  0  0  0  0  0  0  0  0  0  0
  129.8620  125.6150   73.1940 C   0  0  0  0  0  0  0  0  0  0  0  0
  130.1050  127.7140   70.4690 C   0  0  0  0  0  0  0  0  0  0  0  0
  130.0290  127.8300   69.0840 C   0  0  0  0  0  0  0  0  0  0  0  0
  128.3190  128.3430   66.2340 C   0  0  0  0  0  0  0  0  0  0  0  0
  128.2520  128.4010   64.8370 C   0  0  0  0  0  0  0  0  0  0  0  0
  127.5340  129.5560   64.2160 C   0  0  0  0  0  0  0  0  0  0  0  0
  127.8170  130.8630   64.6210 C   0  0  0  0  0  0  0  0  0  0  0  0
  127.1380  131.9420   64.0620 C   0  0  0  0  0  0  0  0  0  0  0  0
  126.1460  131.7440   63.0890 C   0  0  0  0  0  0  0  0  0  0  0  0
  125.4540  132.8120   62.5110 N   0  0  0  0  0  0  0  0  0  0  0  0
  123.9810  132.8230   62.4360 C   0  0  0  0  0  0  0  0  0  0  0  0
  123.3930  134.2110   62.1000 C   0  0  0  0  0  0  0  0  0  0  0  0
  123.9640  134.7000   60.8960 O   0  0  0  0  0  0  0  0  0  0  0  0
  125.3730  134.8340   61.0030 C   0  0  0  0  0  0  0  0  0  0  0  0
  126.0130  133.4640   61.3090 C   0  0  0  0  0  0  0  0  0  0  0  0
  125.8740  130.4300   62.6840 C   0  0  0  0  0  0  0  0  0  0  0  0
  126.5530  129.3510   63.2430 C   0  0  0  0  0  0  0  0  0  0  0  0
  128.8610  127.3620   64.0960 C   0  0  0  0  0  0  0  0  0  0  0  0
  128.8840  127.3660   62.6320 C   0  0  0  0  0  0  0  0  0  0  0  0
  128.9020  127.3700   61.4740 N   0  0  0  0  0  0  0  0  0  0  0  0
  126.4230  123.8170   60.0330 C   0  0  0  0  0  0  0  0  0  0  0  0
  126.0820  123.4550   58.7320 C   0  0  0  0  0  0  0  0  0  0  0  0
  128.9247  123.5384   56.6823 H   0  0  0  0  0  0  0  0  0  0  0  0
  130.0772  123.4637   55.3066 H   0  0  0  0  0  0  0  0  0  0  0  0
  128.7564  124.6811   55.3066 H   0  0  0  0  0  0  0  0  0  0  0  0
  127.3245  123.2074   54.3448 H   0  0  0  0  0  0  0  0  0  0  0  0
  128.7015  122.0705   54.1590 H   0  0  0  0  0  0  0  0  0  0  0  0
  128.6718  121.3422   58.0473 H   0  0  0  0  0  0  0  0  0  0  0  0
  129.2928  121.9963   60.3611 H   0  0  0  0  0  0  0  0  0  0  0  0
  127.2770  123.7850   62.5860 H   0  0  0  0  0  0  0  0  0  0  0  0
  128.3463  124.1268   64.3192 H   0  0  0  0  0  0  0  0  0  0  0  0
  129.8965  123.2239   64.4303 H   0  0  0  0  0  0  0  0  0  0  0  0
  127.3234  125.8488   68.5211 H   0  0  0  0  0  0  0  0  0  0  0  0
  127.4472  125.6551   70.9855 H   0  0  0  0  0  0  0  0  0  0  0  0
  127.9363  128.3605   73.0765 H   0  0  0  0  0  0  0  0  0  0  0  0
  127.3774  126.6510   73.4090 H   0  0  0  0  0  0  0  0  0  0  0  0
  129.4297  128.2408   75.0184 H   0  0  0  0  0  0  0  0  0  0  0  0
  127.7567  127.8048   75.5207 H   0  0  0  0  0  0  0  0  0  0  0  0
  131.0363  126.5369   74.7719 H   0  0  0  0  0  0  0  0  0  0  0  0
  130.5622  124.8296   75.0916 H   0  0  0  0  0  0  0  0  0  0  0  0
  130.7748  125.3481   72.6412 H   0  0  0  0  0  0  0  0  0  0  0  0
  129.0960  124.8271   73.1447 H   0  0  0  0  0  0  0  0  0  0  0  0
  130.8908  128.2574   71.0141 H   0  0  0  0  0  0  0  0  0  0  0  0
  130.7591  128.4573   68.5517 H   0  0  0  0  0  0  0  0  0  0  0  0
  127.8667  129.1446   66.8363 H   0  0  0  0  0  0  0  0  0  0  0  0
  128.5839  131.0411   65.3892 H   0  0  0  0  0  0  0  0  0  0  0  0
  127.3823  132.9640   64.3873 H   0  0  0  0  0  0  0  0  0  0  0  0
  123.6665  132.1134   61.6566 H   0  0  0  0  0  0  0  0  0  0  0  0
  123.6037  132.5433   63.4307 H   0  0  0  0  0  0  0  0  0  0  0  0
  122.3031  134.1254   61.9782 H   0  0  0  0  0  0  0  0  0  0  0  0
  123.6225  134.9089   62.9187 H   0  0  0  0  0  0  0  0  0  0  0  0
  125.7750  135.2199   60.0546 H   0  0  0  0  0  0  0  0  0  0  0  0
  125.6077  135.5321   61.8200 H   0  0  0  0  0  0  0  0  0  0  0  0
  125.8503  132.8022   60.4455 H   0  0  0  0  0  0  0  0  0  0  0  0
  127.0816  133.6399   61.5016 H   0  0  0  0  0  0  0  0  0  0  0  0
  125.1117  130.2485   61.9120 H   0  0  0  0  0  0  0  0  0  0  0  0
  126.3150  128.3282   62.9157 H   0  0  0  0  0  0  0  0  0  0  0  0
  125.7875  124.5191   60.5926 H   0  0  0  0  0  0  0  0  0  0  0  0
  125.1758  123.8748   58.2709 H   0  0  0  0  0  0  0  0  0  0  0  0
  1  2  1  0
  2  3  1  0
  3  4  1  0
  4  5  2  0
  4  6  1  0
  6  7  2  0
  7  8  1  0
  8  9  2  0
  9 10  1  0
 10 11  1  0
 11 12  2  0
 11 13  1  0
 13 14  1  0
 14 15  1  0
 15 16  2  0
 16 17  1  0
 17 18  1  0
 18 19  2  0
 19 20  1  0
 20 21  2  0
 21 22  1  0
 22 23  1  0
 23 24  1  0
 24 25  1  0
 25 26  1  0
 26 27  1  0
 21 28  1  0
 28 29  2  0
 17 30  2  0
 30 31  1  0
 31 32  1  0
 32 33  2  0
 33 34  1  0
 34 35  2  0
 35 36  1  0
 36 37  1  0
 37 38  1  0
 38 39  1  0
 39 40  1  0
 40 41  1  0
 35 42  1  0
 42 43  2  0
 31 44  2  0
 44 45  1  0
 45 46  3  0
  9 47  1  0
 47 48  2  0
 48  6  1  0
 44 15  1  0
 29 18  1  0
 43 32  1  0
 27 22  1  0
 41 36  1  0
  1 49  1  0
  1 50  1  0
  1 51  1  0
  2 52  1  0
  2 53  1  0
  7 54  1  0
  8 55  1  0
 10 56  1  0
 13 57  1  0
 13 58  1  0
 19 59  1  0
 20 60  1  0
 23 61  1  0
 23 62  1  0
 24 63  1  0
 24 64  1  0
 26 65  1  0
 26 66  1  0
 27 67  1  0
 27 68  1  0
 28 69  1  0
 29 70  1  0
 30 71  1  0
 33 72  1  0
 34 73  1  0
 37 74  1  0
 37 75  1  0
 38 76  1  0
 38 77  1  0
 40 78  1  0
 40 79  1  0
 41 80  1  0
 41 81  1  0
 42 82  1  0
 43 83  1  0
 47 84  1  0
 48 85  1  0
M  END
>  <Binding energies>  (1) 
[-11.65]

>  <Ligand effiencies>  (1) 
[-0.23775510204081635]

>  <Interactions>  (1) 
["V-B:TRP:381:CH2:8340, V-A:GLU:543:CD:4905, V-B:LEU:475:CD2:9227, V-B:GLU:543:C:9871, V-B:LYS:547:CE:9919, V-A:LYS:547:CE:4947, V-A:HIS:456:CE1:4066, H-B:LYS:547:NZ:9920, V-A:GLU:543:C:4899, V-A:GLU:543:CB:4903, V-A:HIS:456:CD2:4064, V-B:GLU:543:CB:9875, V-B:HIS:456:CE1:9038, V-B:GLY:544:C:9881, V-B:TYR:539:CE1:9844, V-B:MET:535:CE:9804, V-B:PRO:540:CA:9852, V-B:TYR:539:CZ:9846, V-B:PRO:540:N:9853, V-B:ILE:369:CG2:8205, V-B:PRO:540:CB:9854, H-B:TYR:539:N:9839, V-B:ALA:541:CB:9861, H-B:GLU:543:OE2:9879, V-B:GLU:543:CD:9877, V-B:GLU:543:CG:9876, V-B:TYR:539:CE2:9845, V-A:GLU:543:CG:4904, V-B:ILE:538:CG2:9832, V-B:ILE:538:CB:9831, V-B:PRO:540:CD:9856, V-B:TYR:539:C:9836, V-B:TYR:539:CD2:9843, V-B:ILE:369:CD1:8207, V-B:ILE:538:CA:9829, V-B:TYR:539:CD1:9842, V-B:TYR:539:CG:9841, V-B:GLY:454:CA:9017, V-B:ILE:369:CG1:8206, V-B:SER:385:C:8373"]

$$$$
2b_Ghoteimi_2023
     RDKit          3D

 72 77  0  0  0  0  0  0  0  0999 V2000
  130.5000  122.5710   65.0840 N   0  0  0  0  0  0  0  0  0  0  0  0
  130.4810  123.4530   64.3350 C   0  0  0  0  0  0  0  0  0  0  0  0
  130.4560  124.5740   63.3910 C   0  0  0  0  0  0  0  0  0  0  0  0
  130.2790  125.9020   63.8550 C   0  0  0  0  0  0  0  0  0  0  0  0
  130.1100  126.2630   65.2940 C   0  0  0  0  0  0  0  0  0  0  0  0
  131.1140  126.9600   65.9680 C   0  0  0  0  0  0  0  0  0  0  0  0
  130.9620  127.2990   67.3100 C   0  0  0  0  0  0  0  0  0  0  0  0
  129.8070  126.9330   68.0190 C   0  0  0  0  0  0  0  0  0  0  0  0
  129.6260  127.2720   69.3610 N   0  0  0  0  0  0  0  0  0  0  0  0
  128.7800  126.4120   70.2120 C   0  0  0  0  0  0  0  0  0  0  0  0
  128.3590  127.0860   71.5350 C   0  0  0  0  0  0  0  0  0  0  0  0
  129.5050  127.5350   72.2420 O   0  0  0  0  0  0  0  0  0  0  0  0
  130.2510  128.4770   71.4870 C   0  0  0  0  0  0  0  0  0  0  0  0
  130.7280  127.8340   70.1680 C   0  0  0  0  0  0  0  0  0  0  0  0
  128.8060  126.2310   67.3350 C   0  0  0  0  0  0  0  0  0  0  0  0
  128.9560  125.8960   65.9920 C   0  0  0  0  0  0  0  0  0  0  0  0
  130.2670  126.9400   62.9160 C   0  0  0  0  0  0  0  0  0  0  0  0
  130.4580  126.6690   61.5590 C   0  0  0  0  0  0  0  0  0  0  0  0
  130.4840  127.7450   60.5190 C   0  0  0  0  0  0  0  0  0  0  0  0
  130.5200  129.0940   60.8890 C   0  0  0  0  0  0  0  0  0  0  0  0
  130.5600  130.1000   59.9280 C   0  0  0  0  0  0  0  0  0  0  0  0
  130.5540  129.7950   58.5580 C   0  0  0  0  0  0  0  0  0  0  0  0
  130.6260  130.7930   57.5800 N   0  0  0  0  0  0  0  0  0  0  0  0
  129.4950  131.7260   57.3970 C   0  0  0  0  0  0  0  0  0  0  0  0
  129.5410  132.4980   56.0610 C   0  0  0  0  0  0  0  0  0  0  0  0
  130.7830  133.1730   55.9320 O   0  0  0  0  0  0  0  0  0  0  0  0
  131.8710  132.2640   55.9420 C   0  0  0  0  0  0  0  0  0  0  0  0
  131.8950  131.4820   57.2720 C   0  0  0  0  0  0  0  0  0  0  0  0
  130.5260  128.4410   58.1910 C   0  0  0  0  0  0  0  0  0  0  0  0
  130.4890  127.4360   59.1540 C   0  0  0  0  0  0  0  0  0  0  0  0
  130.6290  125.3970   61.1160 N   0  0  0  0  0  0  0  0  0  0  0  0
  130.6110  124.3730   62.0020 C   0  0  0  0  0  0  0  0  0  0  0  0
  130.8440  122.7770   61.2490 S   0  0  0  0  0  0  0  0  0  0  0  0
  129.2030  122.1370   60.7990 C   0  0  0  0  0  0  0  0  0  0  0  0
  128.7320  122.6670   59.4440 C   0  0  0  0  0  0  0  0  0  0  0  0
  129.1500  123.7550   59.0420 O   0  0  0  0  0  0  0  0  0  0  0  0
  127.8620  121.8750   58.7800 N   0  0  0  0  0  0  0  0  0  0  0  0
  127.2900  122.1080   57.5370 C   0  0  0  0  0  0  0  0  0  0  0  0
  126.0770  122.7750   57.3710 C   0  0  0  0  0  0  0  0  0  0  0  0
  125.8650  122.7990   56.0130 C   0  0  0  0  0  0  0  0  0  0  0  0
  126.8970  122.1790   55.3920 O   0  0  0  0  0  0  0  0  0  0  0  0
  127.7960  121.7470   56.3700 N   0  0  0  0  0  0  0  0  0  0  0  0
  132.0331  127.2439   65.4345 H   0  0  0  0  0  0  0  0  0  0  0  0
  131.7574  127.8610   67.8213 H   0  0  0  0  0  0  0  0  0  0  0  0
  127.8718  126.1497   69.6495 H   0  0  0  0  0  0  0  0  0  0  0  0
  129.3764  125.5256   70.4737 H   0  0  0  0  0  0  0  0  0  0  0  0
  127.7084  127.9451   71.3143 H   0  0  0  0  0  0  0  0  0  0  0  0
  127.8183  126.3552   72.1543 H   0  0  0  0  0  0  0  0  0  0  0  0
  129.6169  129.3468   71.2602 H   0  0  0  0  0  0  0  0  0  0  0  0
  131.1265  128.7970   72.0710 H   0  0  0  0  0  0  0  0  0  0  0  0
  131.2418  128.6018   69.5709 H   0  0  0  0  0  0  0  0  0  0  0  0
  131.3953  127.0009   70.4339 H   0  0  0  0  0  0  0  0  0  0  0  0
  127.8881  125.9402   67.8668 H   0  0  0  0  0  0  0  0  0  0  0  0
  128.1603  125.3383   65.4764 H   0  0  0  0  0  0  0  0  0  0  0  0
  130.1061  127.9760   63.2489 H   0  0  0  0  0  0  0  0  0  0  0  0
  130.5166  129.3635   61.9555 H   0  0  0  0  0  0  0  0  0  0  0  0
  130.5969  131.1519   60.2476 H   0  0  0  0  0  0  0  0  0  0  0  0
  128.5590  131.1493   57.4334 H   0  0  0  0  0  0  0  0  0  0  0  0
  129.5583  132.4719   58.2030 H   0  0  0  0  0  0  0  0  0  0  0  0
  129.4229  131.7903   55.2272 H   0  0  0  0  0  0  0  0  0  0  0  0
  128.7256  133.2362   56.0426 H   0  0  0  0  0  0  0  0  0  0  0  0
  131.7626  131.5573   55.1061 H   0  0  0  0  0  0  0  0  0  0  0  0
  132.8110  132.8257   55.8370 H   0  0  0  0  0  0  0  0  0  0  0  0
  132.6945  130.7285   57.2171 H   0  0  0  0  0  0  0  0  0  0  0  0
  132.0638  132.2166   58.0731 H   0  0  0  0  0  0  0  0  0  0  0  0
  130.5334  128.1691   57.1252 H   0  0  0  0  0  0  0  0  0  0  0  0
  130.4633  126.3830   58.8370 H   0  0  0  0  0  0  0  0  0  0  0  0
  129.2505  121.0390   60.7536 H   0  0  0  0  0  0  0  0  0  0  0  0
  128.4864  122.4736   61.5627 H   0  0  0  0  0  0  0  0  0  0  0  0
  127.6100  120.9990   59.2140 H   0  0  0  0  0  0  0  0  0  0  0  0
  125.4297  123.1918   58.1567 H   0  0  0  0  0  0  0  0  0  0  0  0
  124.9962  123.2496   55.5109 H   0  0  0  0  0  0  0  0  0  0  0  0
  1  2  3  0
  2  3  1  0
  3  4  2  0
  4  5  1  0
  5  6  2  0
  6  7  1  0
  7  8  2  0
  8  9  1  0
  9 10  1  0
 10 11  1  0
 11 12  1  0
 12 13  1  0
 13 14  1  0
  8 15  1  0
 15 16  2  0
  4 17  1  0
 17 18  2  0
 18 19  1  0
 19 20  2  0
 20 21  1  0
 21 22  2  0
 22 23  1  0
 23 24  1  0
 24 25  1  0
 25 26  1  0
 26 27  1  0
 27 28  1  0
 22 29  1  0
 29 30  2  0
 18 31  1  0
 31 32  2  0
 32 33  1  0
 33 34  1  0
 34 35  1  0
 35 36  2  0
 35 37  1  0
 37 38  1  0
 38 39  1  0
 39 40  2  0
 40 41  1  0
 41 42  1  0
 32  3  1  0
 42 38  2  0
 16  5  1  0
 30 19  1  0
 14  9  1  0
 28 23  1  0
  6 43  1  0
  7 44  1  0
 10 45  1  0
 10 46  1  0
 11 47  1  0
 11 48  1  0
 13 49  1  0
 13 50  1  0
 14 51  1  0
 14 52  1  0
 15 53  1  0
 16 54  1  0
 17 55  1  0
 20 56  1  0
 21 57  1  0
 24 58  1  0
 24 59  1  0
 25 60  1  0
 25 61  1  0
 27 62  1  0
 27 63  1  0
 28 64  1  0
 28 65  1  0
 29 66  1  0
 30 67  1  0
 34 68  1  0
 34 69  1  0
 37 70  1  0
 39 71  1  0
 40 72  1  0
M  END
>  <Binding energies>  (1) 
[-11.73]

>  <Ligand effiencies>  (1) 
[-0.2727906976744186]

>  <Interactions>  (1) 
["V-A:PRO:540:CB:4882, V-A:PRO:540:CA:4880, V-A:PRO:540:N:4881, V-A:LEU:363:CD1:3185, V-A:TYR:539:C:4864, V-A:ASP:366:CG:3209, V-A:GLU:543:CD:4905, H-A:LYS:547:NZ:4948, V-A:GLY:544:C:4909, V-A:HIS:456:CE1:4066, V-A:GLU:543:C:4899, V-A:GLU:543:CB:4903, V-A:HIS:456:CD2:4064, V-B:GLU:543:CB:9875, V-A:GLY:544:CA:4911, V-B:HIS:456:CD2:9036, V-A:ILE:538:CD1:4862, V-B:PRO:540:CA:9852, V-B:TYR:539:CZ:9846, V-B:PRO:540:N:9853, V-B:PRO:540:CB:9854, H-B:TYR:539:N:9839, V-B:LEU:363:CD1:8157, V-B:ALA:541:CB:9861, V-A:ILE:538:CG2:4860, V-A:PRO:540:CD:4884, V-B:GLU:543:CD:9877, V-B:GLU:543:CG:9876, V-B:TYR:539:CE2:9845, V-A:TYR:484:CE1:4341, V-B:ILE:538:CG2:9832, V-B:ILE:538:CB:9831, V-B:PRO:540:CD:9856, V-B:TYR:539:C:9836, V-B:TYR:539:CD2:9843, V-B:TYR:539:CD1:9842, V-B:TYR:539:CG:9841, H-A:TYR:539:N:4867, H-A:TYR:484:OH:4344, H-B:TYR:539:O:9837, V-B:TYR:539:CA:9838"]

$$$$
2b_Grossjean_2025
     RDKit          3D

 42 43  0  0  0  0  0  0  0  0999 V2000
  128.2420  122.1110   59.2020 C   0  0  0  0  0  0  0  0  0  0  0  0
  128.1980  121.7560   57.8270 O   0  0  0  0  0  0  0  0  0  0  0  0
  127.3070  122.3370   56.9830 C   0  0  0  0  0  0  0  0  0  0  0  0
  126.7960  121.7500   56.0240 O   0  0  0  0  0  0  0  0  0  0  0  0
  127.0080  123.7670   57.3300 C   0  0  0  0  0  0  0  0  0  0  0  0
  125.7290  124.1820   57.7280 C   0  0  0  0  0  0  0  0  0  0  0  0
  125.4840  125.5160   58.0410 C   0  0  0  0  0  0  0  0  0  0  0  0
  126.5090  126.4590   57.9690 C   0  0  0  0  0  0  0  0  0  0  0  0
  126.1510  127.7800   58.3010 N   0  0  0  0  0  0  0  0  0  0  0  0
  126.4490  128.9380   57.6730 C   0  0  0  0  0  0  0  0  0  0  0  0
  127.1440  129.0410   56.6610 O   0  0  0  0  0  0  0  0  0  0  0  0
  125.8670  130.1990   58.3180 C   0  0  0  0  0  0  0  0  0  0  0  0
  126.9540  131.6530   58.1590 S   0  0  0  0  0  0  0  0  0  0  0  0
  128.6660  131.1510   58.2730 C   0  0  0  0  0  0  0  0  0  0  0  0
  128.9670  130.3130   59.2980 N   0  0  0  0  0  0  0  0  0  0  0  0
  130.2440  129.8960   59.4480 C   0  0  0  0  0  0  0  0  0  0  0  0
  130.4990  128.9720   60.6240 C   0  0  0  0  0  0  0  0  0  0  0  0
  131.2670  130.2850   58.5890 C   0  0  0  0  0  0  0  0  0  0  0  0
  130.9780  131.1450   57.5180 C   0  0  0  0  0  0  0  0  0  0  0  0
  132.1210  131.5620   56.5730 C   0  0  0  0  0  0  0  0  0  0  0  0
  132.5350  132.7940   56.8750 F   0  0  0  0  0  0  0  0  0  0  0  0
  133.1480  130.7190   56.6950 F   0  0  0  0  0  0  0  0  0  0  0  0
  131.7550  131.5650   55.2900 F   0  0  0  0  0  0  0  0  0  0  0  0
  129.6430  131.5960   57.3520 C   0  0  0  0  0  0  0  0  0  0  0  0
  129.2860  132.5000   56.2550 C   0  0  0  0  0  0  0  0  0  0  0  0
  129.0040  133.2140   55.3890 N   0  0  0  0  0  0  0  0  0  0  0  0
  127.7890  126.0540   57.5640 C   0  0  0  0  0  0  0  0  0  0  0  0
  128.0320  124.7200   57.2500 C   0  0  0  0  0  0  0  0  0  0  0  0
  128.1299  121.2066   59.8180 H   0  0  0  0  0  0  0  0  0  0  0  0
  129.2064  122.5902   59.4263 H   0  0  0  0  0  0  0  0  0  0  0  0
  127.4238  122.8111   59.4263 H   0  0  0  0  0  0  0  0  0  0  0  0
  124.9128  123.4475   57.7934 H   0  0  0  0  0  0  0  0  0  0  0  0
  124.4748  125.8286   58.3473 H   0  0  0  0  0  0  0  0  0  0  0  0
  125.6350  127.8640   59.1640 H   0  0  0  0  0  0  0  0  0  0  0  0
  124.9053  130.4268   57.8351 H   0  0  0  0  0  0  0  0  0  0  0  0
  125.7510  129.9932   59.3923 H   0  0  0  0  0  0  0  0  0  0  0  0
  130.3468  129.5236   61.5634 H   0  0  0  0  0  0  0  0  0  0  0  0
  129.8018  128.1223   60.5806 H   0  0  0  0  0  0  0  0  0  0  0  0
  131.5333  128.6002   60.5806 H   0  0  0  0  0  0  0  0  0  0  0  0
  132.2931  129.9218   58.7478 H   0  0  0  0  0  0  0  0  0  0  0  0
  128.6021  126.7916   57.4944 H   0  0  0  0  0  0  0  0  0  0  0  0
  129.0395  124.4103   56.9354 H   0  0  0  0  0  0  0  0  0  0  0  0
  1  2  1  0
  2  3  1  0
  3  4  2  0
  3  5  1  0
  5  6  2  0
  6  7  1  0
  7  8  2  0
  8  9  1  0
  9 10  1  0
 10 11  2  0
 10 12  1  0
 12 13  1  0
 13 14  1  0
 14 15  2  0
 15 16  1  0
 16 17  1  0
 16 18  2  0
 18 19  1  0
 19 20  1  0
 20 21  1  0
 20 22  1  0
 20 23  1  0
 19 24  2  0
 24 25  1  0
 25 26  3  0
  8 27  1  0
 27 28  2  0
 28  5  1  0
 24 14  1  0
  1 29  1  0
  1 30  1  0
  1 31  1  0
  6 32  1  0
  7 33  1  0
  9 34  1  0
 12 35  1  0
 12 36  1  0
 17 37  1  0
 17 38  1  0
 17 39  1  0
 18 40  1  0
 27 41  1  0
 28 42  1  0
M  END
>  <Binding energies>  (1) 
[-7.19]

>  <Ligand effiencies>  (1) 
[-0.24793103448275863]

>  <Interactions>  (1) 
["V-A:TYR:539:CD2:4871, V-A:PRO:540:CB:4882, V-A:PRO:540:CA:4880, V-A:PRO:540:N:4881, V-A:LEU:363:CD1:3185, V-A:TYR:539:C:4864, V-A:LEU:363:CA:3181, V-A:ILE:538:CD1:4862, V-B:ASP:366:CB:8180, V-B:MET:535:CE:9804, V-B:PRO:540:CA:9852, V-B:TYR:539:CZ:9846, V-A:TYR:531:CZ:4791, H-B:ASP:366:OD1:8182, V-B:PRO:540:N:9853, V-B:ASP:366:CG:8181, H-B:TYR:539:N:9839, H-B:TYR:531:OH:9764, V-A:ILE:538:CG2:4860, V-A:PRO:540:CD:4884, V-B:TYR:539:CE2:9845, V-B:TYR:539:C:9836, V-B:TYR:539:CD2:9843, V-B:TYR:539:CD1:9842, H-A:TYR:539:N:4867, V-A:TYR:531:CE2:4790, V-A:PRO:540:CG:4883"]

$$$$
2c_Ghoteimi_2023
     RDKit          3D

 72 77  0  0  0  0  0  0  0  0999 V2000
  130.4740  122.3500   65.1010 N   0  0  0  0  0  0  0  0  0  0  0  0
  130.4520  123.2440   64.3680 C   0  0  0  0  0  0  0  0  0  0  0  0
  130.4240  124.3810   63.4420 C   0  0  0  0  0  0  0  0  0  0  0  0
  130.2300  125.6990   63.9250 C   0  0  0  0  0  0  0  0  0  0  0  0
  130.0410  126.0370   65.3680 C   0  0  0  0  0  0  0  0  0  0  0  0
  130.5020  127.2560   65.8700 C   0  0  0  0  0  0  0  0  0  0  0  0
  130.3250  127.5810   67.2120 C   0  0  0  0  0  0  0  0  0  0  0  0
  129.6960  126.6890   68.0940 C   0  0  0  0  0  0  0  0  0  0  0  0
  129.4900  127.0020   69.4400 N   0  0  0  0  0  0  0  0  0  0  0  0
  128.8710  125.9990   70.3290 C   0  0  0  0  0  0  0  0  0  0  0  0
  128.3550  126.5960   71.6560 C   0  0  0  0  0  0  0  0  0  0  0  0
  129.4040  127.2830   72.3200 O   0  0  0  0  0  0  0  0  0  0  0  0
  129.9160  128.3470   71.5330 C   0  0  0  0  0  0  0  0  0  0  0  0
  130.4720  127.7970   70.2030 C   0  0  0  0  0  0  0  0  0  0  0  0
  129.2400  125.4660   67.5820 C   0  0  0  0  0  0  0  0  0  0  0  0
  129.4150  125.1430   66.2390 C   0  0  0  0  0  0  0  0  0  0  0  0
  130.2150  126.7520   63.0020 C   0  0  0  0  0  0  0  0  0  0  0  0
  130.4130  126.5030   61.6400 C   0  0  0  0  0  0  0  0  0  0  0  0
  130.4230  127.5930   60.6170 C   0  0  0  0  0  0  0  0  0  0  0  0
  130.7260  128.9090   60.9790 C   0  0  0  0  0  0  0  0  0  0  0  0
  130.7420  129.9280   60.0290 C   0  0  0  0  0  0  0  0  0  0  0  0
  130.4430  129.6700   58.6820 C   0  0  0  0  0  0  0  0  0  0  0  0
  130.4790  130.6770   57.7120 N   0  0  0  0  0  0  0  0  0  0  0  0
  129.2940  131.5320   57.4960 C   0  0  0  0  0  0  0  0  0  0  0  0
  129.3330  132.3190   56.1680 C   0  0  0  0  0  0  0  0  0  0  0  0
  130.5260  133.0800   56.0890 O   0  0  0  0  0  0  0  0  0  0  0  0
  131.6760  132.2500   56.1320 C   0  0  0  0  0  0  0  0  0  0  0  0
  131.7070  131.4570   57.4560 C   0  0  0  0  0  0  0  0  0  0  0  0
  130.1510  128.3460   58.3220 C   0  0  0  0  0  0  0  0  0  0  0  0
  130.1370  127.3280   59.2720 C   0  0  0  0  0  0  0  0  0  0  0  0
  130.6000  125.2390   61.1800 N   0  0  0  0  0  0  0  0  0  0  0  0
  130.5880  124.2010   62.0500 C   0  0  0  0  0  0  0  0  0  0  0  0
  130.8370  122.6200   61.2750 S   0  0  0  0  0  0  0  0  0  0  0  0
  129.2020  121.9820   60.7990 C   0  0  0  0  0  0  0  0  0  0  0  0
  128.6700  122.6540   59.5320 C   0  0  0  0  0  0  0  0  0  0  0  0
  129.0920  123.7680   59.2160 O   0  0  0  0  0  0  0  0  0  0  0  0
  127.7480  121.9490   58.8420 N   0  0  0  0  0  0  0  0  0  0  0  0
  127.1280  122.3280   57.6610 C   0  0  0  0  0  0  0  0  0  0  0  0
  127.4720  122.0110   56.4310 N   0  0  0  0  0  0  0  0  0  0  0  0
  126.6520  122.5430   55.5460 C   0  0  0  0  0  0  0  0  0  0  0  0
  125.6120  123.3140   56.0570 C   0  0  0  0  0  0  0  0  0  0  0  0
  125.7230  123.3360   57.7910 S   0  0  0  0  0  0  0  0  0  0  0  0
  131.0092  127.9652   65.1994 H   0  0  0  0  0  0  0  0  0  0  0  0
  130.6834  128.5512   67.5865 H   0  0  0  0  0  0  0  0  0  0  0  0
  128.0233  125.5391   69.7999 H   0  0  0  0  0  0  0  0  0  0  0  0
  129.6489  125.2638   70.5828 H   0  0  0  0  0  0  0  0  0  0  0  0
  127.5357  127.2990   71.4449 H   0  0  0  0  0  0  0  0  0  0  0  0
  127.9918  125.7821   72.3008 H   0  0  0  0  0  0  0  0  0  0  0  0
  129.1099  129.0651   71.3220 H   0  0  0  0  0  0  0  0  0  0  0  0
  130.7256  128.8477   72.0842 H   0  0  0  0  0  0  0  0  0  0  0  0
  130.7914  128.6462   69.5811 H   0  0  0  0  0  0  0  0  0  0  0  0
  131.3075  127.1267   70.4533 H   0  0  0  0  0  0  0  0  0  0  0  0
  128.7370  124.7518   68.2506 H   0  0  0  0  0  0  0  0  0  0  0  0
  129.0567  124.1743   65.8605 H   0  0  0  0  0  0  0  0  0  0  0  0
  130.0464  127.7817   63.3504 H   0  0  0  0  0  0  0  0  0  0  0  0
  130.9551  129.1433   62.0291 H   0  0  0  0  0  0  0  0  0  0  0  0
  130.9934  130.9527   60.3400 H   0  0  0  0  0  0  0  0  0  0  0  0
  128.3992  130.8922   57.4949 H   0  0  0  0  0  0  0  0  0  0  0  0
  129.2781  132.2725   58.3093 H   0  0  0  0  0  0  0  0  0  0  0  0
  129.2950  131.6131   55.3252 H   0  0  0  0  0  0  0  0  0  0  0  0
  128.4687  132.9981   56.1259 H   0  0  0  0  0  0  0  0  0  0  0  0
  131.6490  131.5465   55.2868 H   0  0  0  0  0  0  0  0  0  0  0  0
  132.5767  132.8781   56.0667 H   0  0  0  0  0  0  0  0  0  0  0  0
  132.5591  130.7621   57.4243 H   0  0  0  0  0  0  0  0  0  0  0  0
  131.7945  132.1931   58.2687 H   0  0  0  0  0  0  0  0  0  0  0  0
  129.9293  128.1079   57.2712 H   0  0  0  0  0  0  0  0  0  0  0  0
  129.8977  126.3003   58.9613 H   0  0  0  0  0  0  0  0  0  0  0  0
  129.2818  120.8996   60.6199 H   0  0  0  0  0  0  0  0  0  0  0  0
  128.5011  122.1998   61.6184 H   0  0  0  0  0  0  0  0  0  0  0  0
  127.4900  121.0400   59.2000 H   0  0  0  0  0  0  0  0  0  0  0  0
  126.7825  122.3863   54.4651 H   0  0  0  0  0  0  0  0  0  0  0  0
  124.8437  123.8267   55.4596 H   0  0  0  0  0  0  0  0  0  0  0  0
  1  2  3  0
  2  3  1  0
  3  4  2  0
  4  5  1  0
  5  6  2  0
  6  7  1  0
  7  8  2  0
  8  9  1  0
  9 10  1  0
 10 11  1  0
 11 12  1  0
 12 13  1  0
 13 14  1  0
  8 15  1  0
 15 16  2  0
  4 17  1  0
 17 18  2  0
 18 19  1  0
 19 20  2  0
 20 21  1  0
 21 22  2  0
 22 23  1  0
 23 24  1  0
 24 25  1  0
 25 26  1  0
 26 27  1  0
 27 28  1  0
 22 29  1  0
 29 30  2  0
 18 31  1  0
 31 32  2  0
 32 33  1  0
 33 34  1  0
 34 35  1  0
 35 36  2  0
 35 37  1  0
 37 38  1  0
 38 39  2  0
 39 40  1  0
 40 41  2  0
 41 42  1  0
 32  3  1  0
 42 38  1  0
 16  5  1  0
 30 19  1  0
 14  9  1  0
 28 23  1  0
  6 43  1  0
  7 44  1  0
 10 45  1  0
 10 46  1  0
 11 47  1  0
 11 48  1  0
 13 49  1  0
 13 50  1  0
 14 51  1  0
 14 52  1  0
 15 53  1  0
 16 54  1  0
 17 55  1  0
 20 56  1  0
 21 57  1  0
 24 58  1  0
 24 59  1  0
 25 60  1  0
 25 61  1  0
 27 62  1  0
 27 63  1  0
 28 64  1  0
 28 65  1  0
 29 66  1  0
 30 67  1  0
 34 68  1  0
 34 69  1  0
 37 70  1  0
 40 71  1  0
 41 72  1  0
M  END
>  <Binding energies>  (1) 
[-11.52]

>  <Ligand effiencies>  (1) 
[-0.267906976744186]

>  <Interactions>  (1) 
["V-A:PRO:540:CB:4882, V-A:PRO:540:CA:4880, V-A:PRO:540:N:4881, V-A:LEU:363:CD1:3185, V-A:TYR:539:C:4864, V-A:GLU:543:CD:4905, V-B:LYS:547:CE:9919, H-A:LYS:547:NZ:4948, V-A:GLY:544:C:4909, V-A:HIS:456:CE1:4066, V-A:GLU:543:C:4899, V-A:GLU:543:CB:4903, V-A:HIS:456:CD2:4064, V-B:GLU:543:CB:9875, V-B:HIS:456:CD2:9036, V-A:ILE:538:CD1:4862, V-B:MET:535:CE:9804, V-B:PRO:540:CA:9852, V-B:TYR:539:CZ:9846, V-B:PRO:540:N:9853, V-B:PRO:540:C:9850, V-B:PRO:540:CB:9854, H-B:TYR:539:N:9839, V-B:LEU:363:CD1:8157, V-B:ALA:541:CB:9861, V-A:ILE:538:CG2:4860, V-A:PRO:540:CD:4884, V-B:GLU:543:CD:9877, V-B:GLU:543:CG:9876, V-B:TYR:539:CE2:9845, V-A:TYR:484:CE1:4341, V-B:GLU:543:CA:9873, V-B:ILE:538:CG2:9832, V-B:ILE:538:CB:9831, V-B:PRO:540:CD:9856, V-B:TYR:539:C:9836, V-B:TYR:539:CD2:9843, V-B:ILE:538:CA:9829, H-A:TYR:539:N:4867, H-A:TYR:484:OH:4344, H-B:TYR:539:O:9837"]

$$$$
2c_Grossjean_2025
     RDKit          3D

 40 41  0  0  0  0  0  0  0  0999 V2000
  133.1300  125.1160   64.8890 C   0  0  0  0  0  0  0  0  0  0  0  0
  133.8670  124.7980   63.7140 O   0  0  0  0  0  0  0  0  0  0  0  0
  133.1940  124.6360   62.5190 C   0  0  0  0  0  0  0  0  0  0  0  0
  132.0330  125.3900   62.3510 C   0  0  0  0  0  0  0  0  0  0  0  0
  131.2850  125.2940   61.1810 C   0  0  0  0  0  0  0  0  0  0  0  0
  131.6920  124.4230   60.1600 C   0  0  0  0  0  0  0  0  0  0  0  0
  131.0120  124.2720   58.9370 N   0  0  0  0  0  0  0  0  0  0  0  0
  130.6210  125.2280   58.0670 C   0  0  0  0  0  0  0  0  0  0  0  0
  130.7590  126.4390   58.2470 O   0  0  0  0  0  0  0  0  0  0  0  0
  129.9260  124.7040   56.8010 C   0  0  0  0  0  0  0  0  0  0  0  0
  128.1020  124.6330   56.8770 S   0  0  0  0  0  0  0  0  0  0  0  0
  127.5990  123.9680   58.4590 C   0  0  0  0  0  0  0  0  0  0  0  0
  128.5530  123.2770   59.1370 N   0  0  0  0  0  0  0  0  0  0  0  0
  128.2410  122.7380   60.3350 C   0  0  0  0  0  0  0  0  0  0  0  0
  129.3530  121.9690   61.0200 C   0  0  0  0  0  0  0  0  0  0  0  0
  126.9800  122.8690   60.9120 C   0  0  0  0  0  0  0  0  0  0  0  0
  125.9820  123.5840   60.2350 C   0  0  0  0  0  0  0  0  0  0  0  0
  124.5930  123.7220   60.8870 C   0  0  0  0  0  0  0  0  0  0  0  0
  124.6000  123.1620   62.0980 F   0  0  0  0  0  0  0  0  0  0  0  0
  124.2680  125.0090   61.0070 F   0  0  0  0  0  0  0  0  0  0  0  0
  123.6290  123.1290   60.1780 F   0  0  0  0  0  0  0  0  0  0  0  0
  126.2940  124.1510   58.9730 C   0  0  0  0  0  0  0  0  0  0  0  0
  125.2890  124.9080   58.2190 C   0  0  0  0  0  0  0  0  0  0  0  0
  124.4950  125.5050   57.6240 N   0  0  0  0  0  0  0  0  0  0  0  0
  132.8610  123.6770   60.3160 C   0  0  0  0  0  0  0  0  0  0  0  0
  133.6060  123.7770   61.4870 C   0  0  0  0  0  0  0  0  0  0  0  0
  133.7264  124.8587   65.7768 H   0  0  0  0  0  0  0  0  0  0  0  0
  132.9028  126.1922   64.8993 H   0  0  0  0  0  0  0  0  0  0  0  0
  132.1911  124.5429   64.8993 H   0  0  0  0  0  0  0  0  0  0  0  0
  131.7045  126.0684   63.1522 H   0  0  0  0  0  0  0  0  0  0  0  0
  130.3757  125.9006   61.0574 H   0  0  0  0  0  0  0  0  0  0  0  0
  130.7330  123.3260   58.7240 H   0  0  0  0  0  0  0  0  0  0  0  0
  130.2050  125.3616   55.9645 H   0  0  0  0  0  0  0  0  0  0  0  0
  130.2638  123.6642   56.6795 H   0  0  0  0  0  0  0  0  0  0  0  0
  129.2365  122.0496   62.1108 H   0  0  0  0  0  0  0  0  0  0  0  0
  129.3039  120.9109   60.7232 H   0  0  0  0  0  0  0  0  0  0  0  0
  130.3256  122.3884   60.7232 H   0  0  0  0  0  0  0  0  0  0  0  0
  126.7688  122.4149   61.8914 H   0  0  0  0  0  0  0  0  0  0  0  0
  133.1949  123.0071   59.5099 H   0  0  0  0  0  0  0  0  0  0  0  0
  134.5224  123.1802   61.6051 H   0  0  0  0  0  0  0  0  0  0  0  0
  1  2  1  0
  2  3  1  0
  3  4  2  0
  4  5  1  0
  5  6  2  0
  6  7  1  0
  7  8  1  0
  8  9  2  0
  8 10  1  0
 10 11  1  0
 11 12  1  0
 12 13  2  0
 13 14  1  0
 14 15  1  0
 14 16  2  0
 16 17  1  0
 17 18  1  0
 18 19  1  0
 18 20  1  0
 18 21  1  0
 17 22  2  0
 22 23  1  0
 23 24  3  0
  6 25  1  0
 25 26  2  0
 26  3  1  0
 22 12  1  0
  1 27  1  0
  1 28  1  0
  1 29  1  0
  4 30  1  0
  5 31  1  0
  7 32  1  0
 10 33  1  0
 10 34  1  0
 15 35  1  0
 15 36  1  0
 15 37  1  0
 16 38  1  0
 25 39  1  0
 26 40  1  0
M  END
>  <Binding energies>  (1) 
[-6.6]

>  <Ligand effiencies>  (1) 
[-0.24444444444444444]

>  <Interactions>  (1) 
["V-A:ASP:366:CG:3209, V-A:HIS:456:CE1:4066, V-B:ASN:362:CB:8144, V-B:TYR:539:CE1:9844, V-B:PRO:540:CA:9852, V-B:TYR:539:CZ:9846, V-B:ASN:362:C:8140, V-B:PRO:540:C:9850, V-B:PRO:540:CB:9854, V-B:ASP:366:CG:8181, V-B:LEU:363:CA:8153, H-B:TYR:531:OH:9764, V-B:ALA:541:CB:9861, H-B:TYR:539:OH:9847, V-B:GLU:543:CD:9877, V-B:GLU:543:CG:9876, V-A:ARG:545:CZ:4923, H-A:ARG:545:NH2:4925, V-B:TYR:539:CE2:9845, V-B:TYR:539:CD2:9843, V-B:LEU:363:CB:8155, H-A:GLY:454:N:4046, H-A:ARG:545:NH1:4924, V-B:ARG:545:CZ:9895, V-B:ALA:541:CA:9859, V-B:ALA:541:C:9857"]

$$$$
2d_Ghoteimi_2023
     RDKit          3D

 68 72  0  0  0  0  0  0  0  0999 V2000
  124.5950  130.3770   62.8700 C   0  0  0  0  0  0  0  0  0  0  0  0
  123.7840  130.4070   64.0340 O   0  0  0  0  0  0  0  0  0  0  0  0
  124.2130  129.8460   65.1840 C   0  0  0  0  0  0  0  0  0  0  0  0
  123.6670  129.9600   66.2850 O   0  0  0  0  0  0  0  0  0  0  0  0
  125.4900  129.0210   64.9590 C   0  0  0  0  0  0  0  0  0  0  0  0
  126.9170  129.7640   65.8220 S   0  0  0  0  0  0  0  0  0  0  0  0
  128.0890  128.4720   66.1790 C   0  0  0  0  0  0  0  0  0  0  0  0
  128.2500  128.2460   67.5060 N   0  0  0  0  0  0  0  0  0  0  0  0
  129.1190  127.2920   67.9250 C   0  0  0  0  0  0  0  0  0  0  0  0
  129.2560  127.1130   69.4020 C   0  0  0  0  0  0  0  0  0  0  0  0
  130.2920  127.7400   70.1030 C   0  0  0  0  0  0  0  0  0  0  0  0
  130.4260  127.5770   71.4800 C   0  0  0  0  0  0  0  0  0  0  0  0
  129.5200  126.7900   72.2070 C   0  0  0  0  0  0  0  0  0  0  0  0
  129.6500  126.6020   73.5880 N   0  0  0  0  0  0  0  0  0  0  0  0
  128.6390  127.1110   74.5350 C   0  0  0  0  0  0  0  0  0  0  0  0
  129.1250  127.1430   75.9990 C   0  0  0  0  0  0  0  0  0  0  0  0
  129.5770  125.8560   76.3870 O   0  0  0  0  0  0  0  0  0  0  0  0
  130.6590  125.4180   75.5810 C   0  0  0  0  0  0  0  0  0  0  0  0
  130.2210  125.3410   74.1030 C   0  0  0  0  0  0  0  0  0  0  0  0
  128.4910  126.1530   71.4990 C   0  0  0  0  0  0  0  0  0  0  0  0
  128.3590  126.3140   70.1220 C   0  0  0  0  0  0  0  0  0  0  0  0
  129.8520  126.5330   67.0080 C   0  0  0  0  0  0  0  0  0  0  0  0
  129.6800  126.7230   65.6320 C   0  0  0  0  0  0  0  0  0  0  0  0
  130.4750  125.8560   64.7110 C   0  0  0  0  0  0  0  0  0  0  0  0
  129.8300  124.9550   63.8620 C   0  0  0  0  0  0  0  0  0  0  0  0
  130.5600  124.1510   62.9920 C   0  0  0  0  0  0  0  0  0  0  0  0
  131.9620  124.2240   62.9490 C   0  0  0  0  0  0  0  0  0  0  0  0
  132.7150  123.4360   62.0740 N   0  0  0  0  0  0  0  0  0  0  0  0
  132.7970  121.9710   62.2340 C   0  0  0  0  0  0  0  0  0  0  0  0
  133.3610  121.2470   60.9930 C   0  0  0  0  0  0  0  0  0  0  0  0
  134.6250  121.7910   60.6460 O   0  0  0  0  0  0  0  0  0  0  0  0
  134.5360  123.1750   60.3460 C   0  0  0  0  0  0  0  0  0  0  0  0
  134.0050  123.9490   61.5720 C   0  0  0  0  0  0  0  0  0  0  0  0
  132.6010  125.1440   63.7920 C   0  0  0  0  0  0  0  0  0  0  0  0
  131.8690  125.9480   64.6610 C   0  0  0  0  0  0  0  0  0  0  0  0
  128.7690  127.7170   65.1960 C   0  0  0  0  0  0  0  0  0  0  0  0
  128.5400  127.9400   63.7650 C   0  0  0  0  0  0  0  0  0  0  0  0
  128.3630  128.1120   62.6340 N   0  0  0  0  0  0  0  0  0  0  0  0
  125.6547  130.3378   63.1624 H   0  0  0  0  0  0  0  0  0  0  0  0
  124.3463  129.4874   62.2726 H   0  0  0  0  0  0  0  0  0  0  0  0
  124.4127  131.2825   62.2726 H   0  0  0  0  0  0  0  0  0  0  0  0
  125.3306  128.0018   65.3410 H   0  0  0  0  0  0  0  0  0  0  0  0
  125.7066  129.0017   63.8807 H   0  0  0  0  0  0  0  0  0  0  0  0
  131.0108  128.3705   69.5591 H   0  0  0  0  0  0  0  0  0  0  0  0
  131.2552  128.0731   72.0057 H   0  0  0  0  0  0  0  0  0  0  0  0
  128.3668  128.1341   74.2365 H   0  0  0  0  0  0  0  0  0  0  0  0
  127.7828  126.4216   74.4943 H   0  0  0  0  0  0  0  0  0  0  0  0
  129.9511  127.8632   76.0932 H   0  0  0  0  0  0  0  0  0  0  0  0
  128.2915  127.4451   76.6502 H   0  0  0  0  0  0  0  0  0  0  0  0
  131.4945  126.1271   75.6766 H   0  0  0  0  0  0  0  0  0  0  0  0
  130.9763  124.4192   75.9154 H   0  0  0  0  0  0  0  0  0  0  0  0
  131.0993  125.0826   73.4932 H   0  0  0  0  0  0  0  0  0  0  0  0
  129.4293  124.5799   74.0409 H   0  0  0  0  0  0  0  0  0  0  0  0
  127.7762  125.5156   72.0401 H   0  0  0  0  0  0  0  0  0  0  0  0
  127.5390  125.8067   69.5926 H   0  0  0  0  0  0  0  0  0  0  0  0
  130.5688  125.7814   67.3703 H   0  0  0  0  0  0  0  0  0  0  0  0
  128.7327  124.8798   63.8809 H   0  0  0  0  0  0  0  0  0  0  0  0
  130.0323  123.4492   62.3294 H   0  0  0  0  0  0  0  0  0  0  0  0
  133.4489  121.7504   63.0921 H   0  0  0  0  0  0  0  0  0  0  0  0
  131.7710  121.6039   62.3844 H   0  0  0  0  0  0  0  0  0  0  0  0
  133.4744  120.1759   61.2164 H   0  0  0  0  0  0  0  0  0  0  0  0
  132.6667  121.3811   60.1504 H   0  0  0  0  0  0  0  0  0  0  0  0
  135.5335  123.5547   60.0797 H   0  0  0  0  0  0  0  0  0  0  0  0
  133.8446  123.3175   59.5024 H   0  0  0  0  0  0  0  0  0  0  0  0
  134.7480  123.8752   62.3798 H   0  0  0  0  0  0  0  0  0  0  0  0
  133.8398  124.9889   61.2536 H   0  0  0  0  0  0  0  0  0  0  0  0
  133.6972  125.2318   63.7663 H   0  0  0  0  0  0  0  0  0  0  0  0
  132.3920  126.6620   65.3141 H   0  0  0  0  0  0  0  0  0  0  0  0
  1  2  1  0
  2  3  1  0
  3  4  2  0
  3  5  1  0
  5  6  1  0
  6  7  1  0
  7  8  2  0
  8  9  1  0
  9 10  1  0
 10 11  2  0
 11 12  1  0
 12 13  2  0
 13 14  1  0
 14 15  1  0
 15 16  1  0
 16 17  1  0
 17 18  1  0
 18 19  1  0
 13 20  1  0
 20 21  2  0
  9 22  2  0
 22 23  1  0
 23 24  1  0
 24 25  2  0
 25 26  1  0
 26 27  2  0
 27 28  1  0
 28 29  1  0
 29 30  1  0
 30 31  1  0
 31 32  1  0
 32 33  1  0
 27 34  1  0
 34 35  2  0
 23 36  2  0
 36 37  1  0
 37 38  3  0
 36  7  1  0
 21 10  1  0
 35 24  1  0
 19 14  1  0
 33 28  1  0
  1 39  1  0
  1 40  1  0
  1 41  1  0
  5 42  1  0
  5 43  1  0
 11 44  1  0
 12 45  1  0
 15 46  1  0
 15 47  1  0
 16 48  1  0
 16 49  1  0
 18 50  1  0
 18 51  1  0
 19 52  1  0
 19 53  1  0
 20 54  1  0
 21 55  1  0
 22 56  1  0
 25 57  1  0
 26 58  1  0
 29 59  1  0
 29 60  1  0
 30 61  1  0
 30 62  1  0
 32 63  1  0
 32 64  1  0
 33 65  1  0
 33 66  1  0
 34 67  1  0
 35 68  1  0
M  END
>  <Binding energies>  (1) 
[-9.54]

>  <Ligand effiencies>  (1) 
[-0.25105263157894736]

>  <Interactions>  (1) 
["V-A:ASP:366:CG:3209, V-A:GLU:543:CD:4905, V-B:LYS:547:CE:9919, V-A:LYS:547:CE:4947, V-A:HIS:456:CE1:4066, V-A:HIS:456:CD2:4064, V-B:HIS:456:CE1:9038, V-B:ASP:366:CG:8181, V-B:GLU:543:CD:9877, V-B:GLU:543:CG:9876, V-A:ARG:545:CZ:4923, V-B:TYR:539:CE2:9845, V-A:LEU:475:CD1:4254, V-A:ILE:369:CG1:3234, V-A:ILE:369:CB:3232, V-A:ILE:369:CG2:3233, V-A:GLY:454:CA:4045, V-B:ARG:545:CZ:9895, H-B:TYR:484:OH:9316, H-B:GLY:454:N:9018, V-A:ASP:366:CA:3206, V-B:ARG:545:CD:9892, V-B:LYS:547:CD:9918, H-B:HIS:456:ND1:9035, H-B:ILE:455:N:9023"]

$$$$
2d_Grossjean_2025
     RDKit          3D

 36 37  0  0  0  0  0  0  0  0999 V2000
  127.5930  122.7600   54.8420 C   0  0  0  0  0  0  0  0  0  0  0  0
  127.0470  122.9340   56.2460 C   0  0  0  0  0  0  0  0  0  0  0  0
  125.8620  123.6250   56.4880 C   0  0  0  0  0  0  0  0  0  0  0  0
  125.3960  123.7540   57.8040 C   0  0  0  0  0  0  0  0  0  0  0  0
  124.0770  124.5130   58.0510 C   0  0  0  0  0  0  0  0  0  0  0  0
  123.6720  125.1020   56.9250 F   0  0  0  0  0  0  0  0  0  0  0  0
  123.1310  123.6650   58.4590 F   0  0  0  0  0  0  0  0  0  0  0  0
  124.1930  125.4620   58.9810 F   0  0  0  0  0  0  0  0  0  0  0  0
  126.1570  123.1800   58.8530 C   0  0  0  0  0  0  0  0  0  0  0  0
  125.6900  123.2480   60.2400 C   0  0  0  0  0  0  0  0  0  0  0  0
  125.3190  123.3000   61.3350 N   0  0  0  0  0  0  0  0  0  0  0  0
  127.3620  122.5180   58.5160 C   0  0  0  0  0  0  0  0  0  0  0  0
  128.4540  121.7690   59.7090 S   0  0  0  0  0  0  0  0  0  0  0  0
  129.4410  123.0790   60.5030 C   0  0  0  0  0  0  0  0  0  0  0  0
  130.4160  123.7630   59.5400 C   0  0  0  0  0  0  0  0  0  0  0  0
  131.5770  123.9600   59.9020 O   0  0  0  0  0  0  0  0  0  0  0  0
  129.8980  124.1300   58.3490 N   0  0  0  0  0  0  0  0  0  0  0  0
  130.5300  124.7650   57.2630 C   0  0  0  0  0  0  0  0  0  0  0  0
  130.0990  124.3790   55.9920 C   0  0  0  0  0  0  0  0  0  0  0  0
  130.6690  124.9460   54.8550 C   0  0  0  0  0  0  0  0  0  0  0  0
  131.6780  125.8970   54.9910 C   0  0  0  0  0  0  0  0  0  0  0  0
  132.1250  126.2810   56.2520 C   0  0  0  0  0  0  0  0  0  0  0  0
  131.5570  125.7160   57.3900 C   0  0  0  0  0  0  0  0  0  0  0  0
  127.7870  122.3840   57.2360 N   0  0  0  0  0  0  0  0  0  0  0  0
  128.6399  122.4264   54.8944 H   0  0  0  0  0  0  0  0  0  0  0  0
  126.9949  122.0080   54.3066 H   0  0  0  0  0  0  0  0  0  0  0  0
  127.5403  123.7194   54.3066 H   0  0  0  0  0  0  0  0  0  0  0  0
  125.2966  124.0657   55.6537 H   0  0  0  0  0  0  0  0  0  0  0  0
  128.7551  123.8390   60.9054 H   0  0  0  0  0  0  0  0  0  0  0  0
  130.0398  122.6047   61.2945 H   0  0  0  0  0  0  0  0  0  0  0  0
  128.9060  123.9840   58.2280 H   0  0  0  0  0  0  0  0  0  0  0  0
  129.3059  123.6239   55.8886 H   0  0  0  0  0  0  0  0  0  0  0  0
  130.3244  124.6446   53.8548 H   0  0  0  0  0  0  0  0  0  0  0  0
  132.1256  126.3486   54.0934 H   0  0  0  0  0  0  0  0  0  0  0  0
  132.9254  127.0293   56.3489 H   0  0  0  0  0  0  0  0  0  0  0  0
  131.9115  126.0135   58.3879 H   0  0  0  0  0  0  0  0  0  0  0  0
  1  2  1  0
  2  3  2  0
  3  4  1  0
  4  5  1  0
  5  6  1  0
  5  7  1  0
  5  8  1  0
  4  9  2  0
  9 10  1  0
 10 11  3  0
  9 12  1  0
 12 13  1  0
 13 14  1  0
 14 15  1  0
 15 16  2  0
 15 17  1  0
 17 18  1  0
 18 19  2  0
 19 20  1  0
 20 21  2  0
 21 22  1  0
 22 23  2  0
 12 24  2  0
 24  2  1  0
 23 18  1  0
  1 25  1  0
  1 26  1  0
  1 27  1  0
  3 28  1  0
 14 29  1  0
 14 30  1  0
 17 31  1  0
 19 32  1  0
 20 33  1  0
 21 34  1  0
 22 35  1  0
 23 36  1  0
M  END
>  <Binding energies>  (1) 
[-6.47]

>  <Ligand effiencies>  (1) 
[-0.2588]

>  <Interactions>  (1) 
["V-A:ASP:366:CB:3208, V-A:ASP:366:CG:3209, V-B:ASP:366:CB:8180, V-B:TYR:539:CE1:9844, V-B:MET:535:CE:9804, V-B:PRO:540:CA:9852, V-B:TYR:539:CZ:9846, V-B:TYR:531:CE2:9762, V-A:TYR:531:CZ:4791, V-B:ASN:362:C:8140, V-A:TYR:531:CE1:4789, V-B:PRO:540:N:9853, V-B:TYR:531:CZ:9763, V-B:PRO:540:C:9850, V-B:PRO:540:CB:9854, V-B:ASP:366:CG:8181, V-B:LEU:363:CD1:8157, V-B:LEU:363:CA:8153, H-B:TYR:539:OH:9847, V-B:TYR:539:CE2:9845, H-B:ALA:541:N:9860, V-B:ILE:538:CG2:9832, V-B:ILE:538:CB:9831, V-B:TYR:539:C:9836, V-B:ILE:538:CA:9829, V-B:LEU:363:CB:8155, V-B:LEU:363:CG:8156"]

$$$$
2e_Grossjean_2025
     RDKit          3D

 38 39  0  0  0  0  0  0  0  0999 V2000
  132.7450  131.4420   61.3850 C   0  0  0  0  0  0  0  0  0  0  0  0
  132.6340  131.2100   59.8900 C   0  0  0  0  0  0  0  0  0  0  0  0
  133.7210  130.7590   59.1370 C   0  0  0  0  0  0  0  0  0  0  0  0
  133.5420  130.5560   57.7680 C   0  0  0  0  0  0  0  0  0  0  0  0
  132.2950  130.8070   57.1900 C   0  0  0  0  0  0  0  0  0  0  0  0
  131.2510  131.2660   58.0010 C   0  0  0  0  0  0  0  0  0  0  0  0
  130.0070  131.4600   57.3770 N   0  0  0  0  0  0  0  0  0  0  0  0
  129.7050  132.3010   56.3630 C   0  0  0  0  0  0  0  0  0  0  0  0
  130.5200  133.0000   55.7590 O   0  0  0  0  0  0  0  0  0  0  0  0
  128.2210  132.3960   55.9950 C   0  0  0  0  0  0  0  0  0  0  0  0
  127.2220  131.1380   56.8540 S   0  0  0  0  0  0  0  0  0  0  0  0
  126.9900  131.7610   58.5040 C   0  0  0  0  0  0  0  0  0  0  0  0
  128.1370  131.9640   59.1980 N   0  0  0  0  0  0  0  0  0  0  0  0
  128.0500  132.3940   60.4770 C   0  0  0  0  0  0  0  0  0  0  0  0
  129.3710  132.6010   61.1940 C   0  0  0  0  0  0  0  0  0  0  0  0
  126.8310  132.6310   61.1110 C   0  0  0  0  0  0  0  0  0  0  0  0
  125.6350  132.4170   60.4100 C   0  0  0  0  0  0  0  0  0  0  0  0
  124.2970  132.6620   61.1300 C   0  0  0  0  0  0  0  0  0  0  0  0
  123.7990  133.8490   60.7810 F   0  0  0  0  0  0  0  0  0  0  0  0
  123.4210  131.7120   60.8000 F   0  0  0  0  0  0  0  0  0  0  0  0
  124.4180  132.6530   62.4600 F   0  0  0  0  0  0  0  0  0  0  0  0
  125.7100  131.9710   59.0670 C   0  0  0  0  0  0  0  0  0  0  0  0
  124.4960  131.7010   58.2900 C   0  0  0  0  0  0  0  0  0  0  0  0
  123.5370  131.4860   57.6770 N   0  0  0  0  0  0  0  0  0  0  0  0
  131.4160  131.4590   59.3420 N   0  0  0  0  0  0  0  0  0  0  0  0
  132.3307  130.5761   61.9222 H   0  0  0  0  0  0  0  0  0  0  0  0
  133.8026  131.5714   61.6584 H   0  0  0  0  0  0  0  0  0  0  0  0
  132.1822  132.3467   61.6584 H   0  0  0  0  0  0  0  0  0  0  0  0
  134.6947  130.5685   59.6119 H   0  0  0  0  0  0  0  0  0  0  0  0
  134.3778  130.2004   57.1475 H   0  0  0  0  0  0  0  0  0  0  0  0
  132.1362  130.6462   56.1135 H   0  0  0  0  0  0  0  0  0  0  0  0
  129.2640  130.8650   57.7130 H   0  0  0  0  0  0  0  0  0  0  0  0
  127.8498  133.3938   56.2718 H   0  0  0  0  0  0  0  0  0  0  0  0
  128.1279  132.2224   54.9128 H   0  0  0  0  0  0  0  0  0  0  0  0
  129.2060  132.5752   62.2813 H   0  0  0  0  0  0  0  0  0  0  0  0
  130.0714  131.8016   60.9103 H   0  0  0  0  0  0  0  0  0  0  0  0
  129.7933  133.5763   60.9103 H   0  0  0  0  0  0  0  0  0  0  0  0
  126.8074  132.9831   62.1529 H   0  0  0  0  0  0  0  0  0  0  0  0
  1  2  1  0
  2  3  2  0
  3  4  1  0
  4  5  2  0
  5  6  1  0
  6  7  1  0
  7  8  1  0
  8  9  2  0
  8 10  1  0
 10 11  1  0
 11 12  1  0
 12 13  2  0
 13 14  1  0
 14 15  1  0
 14 16  2  0
 16 17  1  0
 17 18  1  0
 18 19  1  0
 18 20  1  0
 18 21  1  0
 17 22  2  0
 22 23  1  0
 23 24  3  0
  6 25  2  0
 25  2  1  0
 22 12  1  0
  1 26  1  0
  1 27  1  0
  1 28  1  0
  3 29  1  0
  4 30  1  0
  5 31  1  0
  7 32  1  0
 10 33  1  0
 10 34  1  0
 15 35  1  0
 15 36  1  0
 15 37  1  0
 16 38  1  0
M  END
>  <Binding energies>  (1) 
[-6.7]

>  <Ligand effiencies>  (1) 
[-0.2576923076923077]

>  <Interactions>  (1) 
["V-A:TYR:539:CD2:4871, V-A:PRO:540:CB:4882, V-A:ALA:541:CB:4889, V-A:PRO:540:CA:4880, V-A:LEU:363:CD1:3185, V-A:TYR:539:C:4864, V-A:ASP:366:CB:3208, V-A:LEU:363:CA:3181, V-A:ASP:366:CG:3209, V-A:ASN:362:CB:3172, V-A:GLU:543:CD:4905, V-A:ASN:362:C:3168, V-A:TYR:539:CE2:4873, V-B:ASP:366:CB:8180, V-B:ILE:369:CG2:8205, V-B:ASP:366:CG:8181, V-A:TYR:539:CZ:4874, V-A:TYR:539:CE1:4872, V-B:ILE:369:CD1:8207, H-A:TYR:539:N:4867, V-A:ALA:541:CA:4887, V-A:PRO:540:C:4878, V-B:GLY:454:CA:9017, V-A:LEU:363:CB:3183, V-A:TYR:539:CG:4869, V-B:ILE:369:CB:8204, H-A:TYR:539:OH:4875, V-B:ILE:369:CG1:8206"]

$$$$
2f_Grossjean_2025
     RDKit          3D

 35 36  0  0  0  0  0  0  0  0999 V2000
  134.2970  123.5060   59.7010 C   0  0  0  0  0  0  0  0  0  0  0  0
  133.4030  123.5110   60.9270 C   0  0  0  0  0  0  0  0  0  0  0  0
  133.7770  124.1640   62.1000 C   0  0  0  0  0  0  0  0  0  0  0  0
  132.9190  124.1330   63.2100 C   0  0  0  0  0  0  0  0  0  0  0  0
  133.3560  124.8500   64.5020 C   0  0  0  0  0  0  0  0  0  0  0  0
  132.4330  125.7430   64.8650 F   0  0  0  0  0  0  0  0  0  0  0  0
  133.5090  123.9630   65.4850 F   0  0  0  0  0  0  0  0  0  0  0  0
  134.5120  125.5030   64.3660 F   0  0  0  0  0  0  0  0  0  0  0  0
  131.6870  123.4390   63.0970 C   0  0  0  0  0  0  0  0  0  0  0  0
  130.7840  123.3300   64.2450 C   0  0  0  0  0  0  0  0  0  0  0  0
  130.0700  123.2460   65.1520 N   0  0  0  0  0  0  0  0  0  0  0  0
  131.3790  122.8280   61.8570 C   0  0  0  0  0  0  0  0  0  0  0  0
  129.8770  121.9270   61.5340 S   0  0  0  0  0  0  0  0  0  0  0  0
  128.4720  123.0710   61.7600 C   0  0  0  0  0  0  0  0  0  0  0  0
  127.3700  122.9660   60.6960 C   0  0  0  0  0  0  0  0  0  0  0  0
  126.1830  122.9160   61.0240 O   0  0  0  0  0  0  0  0  0  0  0  0
  127.8210  122.9170   59.4240 N   0  0  0  0  0  0  0  0  0  0  0  0
  127.0970  122.8320   58.2200 C   0  0  0  0  0  0  0  0  0  0  0  0
  125.8250  123.3890   57.9910 C   0  0  0  0  0  0  0  0  0  0  0  0
  125.2180  123.2350   56.7440 C   0  0  0  0  0  0  0  0  0  0  0  0
  125.9000  122.5310   55.7510 C   0  0  0  0  0  0  0  0  0  0  0  0
  127.1300  121.9910   55.9440 N   0  0  0  0  0  0  0  0  0  0  0  0
  127.7080  122.1500   57.1620 C   0  0  0  0  0  0  0  0  0  0  0  0
  132.2310  122.8490   60.8030 N   0  0  0  0  0  0  0  0  0  0  0  0
  135.3510  123.5001   60.0158 H   0  0  0  0  0  0  0  0  0  0  0  0
  134.0890  122.6090   59.0992 H   0  0  0  0  0  0  0  0  0  0  0  0
  134.0991  124.4053   59.0992 H   0  0  0  0  0  0  0  0  0  0  0  0
  134.7365  124.6991   62.1553 H   0  0  0  0  0  0  0  0  0  0  0  0
  128.0193  122.8653   62.7412 H   0  0  0  0  0  0  0  0  0  0  0  0
  128.8862  124.0863   61.6734 H   0  0  0  0  0  0  0  0  0  0  0  0
  128.8250  122.9080   59.3070 H   0  0  0  0  0  0  0  0  0  0  0  0
  125.3119  123.9429   58.7909 H   0  0  0  0  0  0  0  0  0  0  0  0
  124.2225  123.6598   56.5479 H   0  0  0  0  0  0  0  0  0  0  0  0
  125.4198  122.4083   54.7690 H   0  0  0  0  0  0  0  0  0  0  0  0
  128.7075  121.7208   57.3255 H   0  0  0  0  0  0  0  0  0  0  0  0
  1  2  1  0
  2  3  2  0
  3  4  1  0
  4  5  1  0
  5  6  1  0
  5  7  1  0
  5  8  1  0
  4  9  2  0
  9 10  1  0
 10 11  3  0
  9 12  1  0
 12 13  1  0
 13 14  1  0
 14 15  1  0
 15 16  2  0
 15 17  1  0
 17 18  1  0
 18 19  2  0
 19 20  1  0
 20 21  2  0
 21 22  1  0
 22 23  2  0
 12 24  2  0
 24  2  1  0
 23 18  1  0
  1 25  1  0
  1 26  1  0
  1 27  1  0
  3 28  1  0
 14 29  1  0
 14 30  1  0
 17 31  1  0
 19 32  1  0
 20 33  1  0
 21 34  1  0
 23 35  1  0
M  END
>  <Binding energies>  (1) 
[-6.96]

>  <Ligand effiencies>  (1) 
[-0.2784]

>  <Interactions>  (1) 
["V-A:ASP:366:CB:3208, V-A:ASP:366:CG:3209, V-A:HIS:456:CE1:4066, V-B:TYR:539:CE1:9844, V-B:PRO:540:CA:9852, V-B:TYR:539:CZ:9846, V-B:PRO:540:N:9853, V-B:PRO:540:CB:9854, H-B:TYR:539:N:9839, V-B:LEU:363:CD1:8157, V-B:ALA:541:CB:9861, H-B:TYR:539:OH:9847, V-A:ARG:545:CZ:4923, V-A:TYR:484:CZ:4343, V-A:ARG:545:CD:4920, H-B:ALA:541:N:9860, V-B:ILE:538:CG2:9832, V-B:ILE:538:CB:9831, V-B:PRO:540:CD:9856, V-A:ILE:369:CG1:3234, V-B:TYR:539:C:9836, V-A:ILE:369:CB:3232, V-B:ILE:538:CA:9829, V-B:TYR:539:CD1:9842, V-B:TYR:539:CG:9841, V-A:ILE:369:CG2:3233, V-A:GLY:454:CA:4045, V-A:GLY:453:C:4038, V-A:GLY:453:CA:4040, H-A:TYR:484:OH:4344, V-A:ASP:366:CA:3206, V-A:GLY:454:C:4043, V-B:TYR:539:CA:9838"]

$$$$
2g_Grossjean_2025
     RDKit          3D

 39 40  0  0  0  0  0  0  0  0999 V2000
  129.1920  121.3900   60.6260 C   0  0  0  0  0  0  0  0  0  0  0  0
  128.1440  122.2240   59.9140 C   0  0  0  0  0  0  0  0  0  0  0  0
  127.0060  122.6830   60.5730 C   0  0  0  0  0  0  0  0  0  0  0  0
  126.0610  123.4450   59.8680 C   0  0  0  0  0  0  0  0  0  0  0  0
  124.8040  123.9370   60.6120 C   0  0  0  0  0  0  0  0  0  0  0  0
  123.7140  123.7050   59.8790 F   0  0  0  0  0  0  0  0  0  0  0  0
  124.6880  123.2970   61.7750 F   0  0  0  0  0  0  0  0  0  0  0  0
  124.8380  125.2460   60.8730 F   0  0  0  0  0  0  0  0  0  0  0  0
  126.3040  123.7300   58.5000 C   0  0  0  0  0  0  0  0  0  0  0  0
  125.3230  124.4730   57.7040 C   0  0  0  0  0  0  0  0  0  0  0  0
  124.5480  125.0590   57.0760 N   0  0  0  0  0  0  0  0  0  0  0  0
  127.5030  123.2470   57.9220 C   0  0  0  0  0  0  0  0  0  0  0  0
  127.9760  123.5330   56.2300 S   0  0  0  0  0  0  0  0  0  0  0  0
  129.6090  124.3480   56.2480 C   0  0  0  0  0  0  0  0  0  0  0  0
  129.9710  125.0300   57.5740 C   0  0  0  0  0  0  0  0  0  0  0  0
  129.8430  126.2460   57.7280 O   0  0  0  0  0  0  0  0  0  0  0  0
  130.4370  124.2130   58.5360 N   0  0  0  0  0  0  0  0  0  0  0  0
  130.8390  124.6260   59.8820 C   0  0  0  0  0  0  0  0  0  0  0  0
  132.0320  123.8610   60.4440 C   0  0  0  0  0  0  0  0  0  0  0  0
  131.8580  123.0070   61.5380 C   0  0  0  0  0  0  0  0  0  0  0  0
  132.9390  122.2780   62.0300 C   0  0  0  0  0  0  0  0  0  0  0  0
  134.1850  122.3970   61.4210 C   0  0  0  0  0  0  0  0  0  0  0  0
  134.3620  123.2370   60.3220 C   0  0  0  0  0  0  0  0  0  0  0  0
  133.2830  123.9650   59.8300 C   0  0  0  0  0  0  0  0  0  0  0  0
  128.3940  122.4930   58.6130 N   0  0  0  0  0  0  0  0  0  0  0  0
  129.0644  121.4915   61.7138 H   0  0  0  0  0  0  0  0  0  0  0  0
  129.0765  120.3341   60.3402 H   0  0  0  0  0  0  0  0  0  0  0  0
  130.1951  121.7396   60.3402 H   0  0  0  0  0  0  0  0  0  0  0  0
  126.8491  122.4504   61.6366 H   0  0  0  0  0  0  0  0  0  0  0  0
  130.3740  123.5871   56.0341 H   0  0  0  0  0  0  0  0  0  0  0  0
  129.5669  125.1445   55.4905 H   0  0  0  0  0  0  0  0  0  0  0  0
  130.4900  123.2230   58.3420 H   0  0  0  0  0  0  0  0  0  0  0  0
  131.0987  125.6945   59.8511 H   0  0  0  0  0  0  0  0  0  0  0  0
  129.9874  124.4114   60.5444 H   0  0  0  0  0  0  0  0  0  0  0  0
  130.8689  122.9109   62.0095 H   0  0  0  0  0  0  0  0  0  0  0  0
  132.8082  121.6117   62.8955 H   0  0  0  0  0  0  0  0  0  0  0  0
  135.0385  121.8227   61.8105 H   0  0  0  0  0  0  0  0  0  0  0  0
  135.3500  123.3237   59.8463 H   0  0  0  0  0  0  0  0  0  0  0  0
  133.4148  124.6223   58.9579 H   0  0  0  0  0  0  0  0  0  0  0  0
  1  2  1  0
  2  3  2  0
  3  4  1  0
  4  5  1  0
  5  6  1  0
  5  7  1  0
  5  8  1  0
  4  9  2  0
  9 10  1  0
 10 11  3  0
  9 12  1  0
 12 13  1  0
 13 14  1  0
 14 15  1  0
 15 16  2  0
 15 17  1  0
 17 18  1  0
 18 19  1  0
 19 20  2  0
 20 21  1  0
 21 22  2  0
 22 23  1  0
 23 24  2  0
 12 25  2  0
 25  2  1  0
 24 19  1  0
  1 26  1  0
  1 27  1  0
  1 28  1  0
  3 29  1  0
 14 30  1  0
 14 31  1  0
 17 32  1  0
 18 33  1  0
 18 34  1  0
 20 35  1  0
 21 36  1  0
 22 37  1  0
 23 38  1  0
 24 39  1  0
M  END
>  <Binding energies>  (1) 
[-6.53]

>  <Ligand effiencies>  (1) 
[-0.25115384615384617]

>  <Interactions>  (1) 
["V-A:ASP:366:CB:3208, V-A:ASP:366:CG:3209, V-B:ASN:362:CB:8144, V-B:TYR:539:CE1:9844, V-B:MET:535:CE:9804, V-B:PRO:540:CA:9852, V-B:TYR:539:CZ:9846, V-B:ASN:362:C:8140, V-B:PRO:540:C:9850, V-B:PRO:540:CB:9854, V-B:ASP:366:CG:8181, V-B:LEU:363:CA:8153, H-B:TYR:531:OH:9764, V-B:ALA:541:CB:9861, H-B:TYR:539:OH:9847, V-B:GLU:543:CD:9877, V-B:TYR:539:CE2:9845, V-A:LEU:475:CD1:4254, V-A:ILE:369:CG1:3234, V-B:TYR:539:C:9836, V-A:ILE:369:CB:3232, V-B:TYR:539:CD2:9843, V-A:ILE:369:CG2:3233, V-A:GLY:454:CA:4045, V-B:ARG:545:CZ:9895, V-B:ALA:541:CA:9859, V-A:ASP:366:CA:3206"]

$$$$
2h_Grossjean_2025
     RDKit          3D

 51 52  0  0  0  0  0  0  0  0999 V2000
  131.3030  132.5140   56.0980 C   0  0  0  0  0  0  0  0  0  0  0  0
  129.9760  132.9930   55.9090 O   0  0  0  0  0  0  0  0  0  0  0  0
  128.9070  132.1910   56.2660 C   0  0  0  0  0  0  0  0  0  0  0  0
  128.0540  131.5650   55.3430 C   0  0  0  0  0  0  0  0  0  0  0  0
  127.0010  130.7640   55.7790 C   0  0  0  0  0  0  0  0  0  0  0  0
  126.7770  130.5690   57.1420 C   0  0  0  0  0  0  0  0  0  0  0  0
  125.6290  129.6690   57.5960 C   0  0  0  0  0  0  0  0  0  0  0  0
  125.9650  128.8190   58.7390 N   0  0  0  0  0  0  0  0  0  0  0  0
  126.9390  127.8930   58.7500 C   0  0  0  0  0  0  0  0  0  0  0  0
  127.6070  127.6030   57.7550 O   0  0  0  0  0  0  0  0  0  0  0  0
  127.1860  127.2070   60.1010 C   0  0  0  0  0  0  0  0  0  0  0  0
  126.0270  125.8570   60.5030 S   0  0  0  0  0  0  0  0  0  0  0  0
  126.5330  124.4430   59.5470 C   0  0  0  0  0  0  0  0  0  0  0  0
  127.4960  123.6980   60.1420 N   0  0  0  0  0  0  0  0  0  0  0  0
  127.9680  122.6100   59.4940 C   0  0  0  0  0  0  0  0  0  0  0  0
  129.0490  121.8290   60.2160 C   0  0  0  0  0  0  0  0  0  0  0  0
  127.5000  122.2200   58.2400 C   0  0  0  0  0  0  0  0  0  0  0  0
  126.4890  122.9670   57.6170 C   0  0  0  0  0  0  0  0  0  0  0  0
  125.9790  122.5150   56.2350 C   0  0  0  0  0  0  0  0  0  0  0  0
  126.8960  121.7540   55.6380 F   0  0  0  0  0  0  0  0  0  0  0  0
  124.8530  121.8020   56.3080 F   0  0  0  0  0  0  0  0  0  0  0  0
  125.7320  123.5780   55.4680 F   0  0  0  0  0  0  0  0  0  0  0  0
  125.9790  124.1080   58.2880 C   0  0  0  0  0  0  0  0  0  0  0  0
  124.8820  124.8870   57.7070 C   0  0  0  0  0  0  0  0  0  0  0  0
  124.0140  125.4990   57.2480 N   0  0  0  0  0  0  0  0  0  0  0  0
  127.6070  131.2070   58.0770 C   0  0  0  0  0  0  0  0  0  0  0  0
  127.3900  131.0220   59.4220 O   0  0  0  0  0  0  0  0  0  0  0  0
  126.7800  132.1280   60.0750 C   0  0  0  0  0  0  0  0  0  0  0  0
  128.6800  131.9990   57.6350 C   0  0  0  0  0  0  0  0  0  0  0  0
  129.5060  132.6100   58.5480 O   0  0  0  0  0  0  0  0  0  0  0  0
  130.2750  131.7080   59.3310 C   0  0  0  0  0  0  0  0  0  0  0  0
  131.5153  132.4374   57.1746 H   0  0  0  0  0  0  0  0  0  0  0  0
  131.4047  131.5224   55.6327 H   0  0  0  0  0  0  0  0  0  0  0  0
  132.0145  133.2120   55.6327 H   0  0  0  0  0  0  0  0  0  0  0  0
  128.2189  131.7085   54.2649 H   0  0  0  0  0  0  0  0  0  0  0  0
  126.3411  130.2816   55.0429 H   0  0  0  0  0  0  0  0  0  0  0  0
  124.7775  130.3067   57.8758 H   0  0  0  0  0  0  0  0  0  0  0  0
  125.3934  128.9995   56.7556 H   0  0  0  0  0  0  0  0  0  0  0  0
  125.4830  129.0240   59.6020 H   0  0  0  0  0  0  0  0  0  0  0  0
  128.2043  126.7911   60.0915 H   0  0  0  0  0  0  0  0  0  0  0  0
  127.0371  127.9794   60.8699 H   0  0  0  0  0  0  0  0  0  0  0  0
  128.9101  121.9293   61.3026 H   0  0  0  0  0  0  0  0  0  0  0  0
  128.9845  120.7676   59.9346 H   0  0  0  0  0  0  0  0  0  0  0  0
  130.0365  122.2236   59.9346 H   0  0  0  0  0  0  0  0  0  0  0  0
  127.9202  121.3333   57.7428 H   0  0  0  0  0  0  0  0  0  0  0  0
  126.8527  131.9961   61.1646 H   0  0  0  0  0  0  0  0  0  0  0  0
  127.2941  133.0555   59.7828 H   0  0  0  0  0  0  0  0  0  0  0  0
  125.7212  132.1880   59.7828 H   0  0  0  0  0  0  0  0  0  0  0  0
  130.1026  131.9102   60.3984 H   0  0  0  0  0  0  0  0  0  0  0  0
  129.9754  130.6750   59.1004 H   0  0  0  0  0  0  0  0  0  0  0  0
  131.3424  131.8404   59.1004 H   0  0  0  0  0  0  0  0  0  0  0  0
  1  2  1  0
  2  3  1  0
  3  4  2  0
  4  5  1  0
  5  6  2  0
  6  7  1  0
  7  8  1  0
  8  9  1  0
  9 10  2  0
  9 11  1  0
 11 12  1  0
 12 13  1  0
 13 14  2  0
 14 15  1  0
 15 16  1  0
 15 17  2  0
 17 18  1  0
 18 19  1  0
 19 20  1  0
 19 21  1  0
 19 22  1  0
 18 23  2  0
 23 24  1  0
 24 25  3  0
  6 26  1  0
 26 27  1  0
 27 28  1  0
 26 29  2  0
 29 30  1  0
 30 31  1  0
 29  3  1  0
 23 13  1  0
  1 32  1  0
  1 33  1  0
  1 34  1  0
  4 35  1  0
  5 36  1  0
  7 37  1  0
  7 38  1  0
  8 39  1  0
 11 40  1  0
 11 41  1  0
 16 42  1  0
 16 43  1  0
 16 44  1  0
 17 45  1  0
 28 46  1  0
 28 47  1  0
 28 48  1  0
 31 49  1  0
 31 50  1  0
 31 51  1  0
M  END
>  <Binding energies>  (1) 
[-6.81]

>  <Ligand effiencies>  (1) 
[-0.2128125]

>  <Interactions>  (1) 
["V-A:TYR:539:CD2:4871, V-A:PRO:540:CA:4880, V-A:PRO:540:N:4881, V-A:TYR:539:C:4864, V-A:TYR:539:CE2:4873, V-A:ILE:538:CD1:4862, V-B:ASP:366:CB:8180, V-B:MET:535:CE:9804, V-B:PRO:540:CA:9852, V-B:TYR:539:CZ:9846, H-B:ASP:366:OD1:8182, V-B:PRO:540:N:9853, V-B:PRO:540:CB:9854, V-B:ASP:366:CG:8181, V-B:LEU:363:CD1:8157, H-B:TYR:531:OH:9764, V-B:ALA:541:CB:9861, V-A:ILE:538:CG2:4860, V-A:TYR:539:CZ:4874, V-A:PRO:540:CD:4884, V-B:TYR:539:CE2:9845, V-B:ILE:538:CG2:9832, V-B:ILE:538:CB:9831, V-B:PRO:540:CD:9856, V-B:TYR:539:C:9836, V-B:TYR:539:CD2:9843, V-B:ILE:538:CA:9829, V-B:TYR:539:CD1:9842, V-B:ILE:538:C:9827, V-B:PRO:540:CG:9855, H-A:TYR:539:N:4867, H-B:ARG:545:NH2:9897, V-B:TYR:539:CA:9838, V-B:ILE:538:CD1:9834"]

$$$$
2i_Grossjean_2025
     RDKit          3D

 32 33  0  0  0  0  0  0  0  0999 V2000
  133.8890  123.5330   59.9230 C   0  0  0  0  0  0  0  0  0  0  0  0
  133.1050  123.9970   61.1370 C   0  0  0  0  0  0  0  0  0  0  0  0
  133.7380  124.3330   62.3300 C   0  0  0  0  0  0  0  0  0  0  0  0
  132.9690  124.7590   63.4230 C   0  0  0  0  0  0  0  0  0  0  0  0
  133.6860  125.1260   64.7360 C   0  0  0  0  0  0  0  0  0  0  0  0
  134.9400  125.5030   64.4820 F   0  0  0  0  0  0  0  0  0  0  0  0
  133.0470  126.1280   65.3420 F   0  0  0  0  0  0  0  0  0  0  0  0
  133.7400  124.1070   65.5970 F   0  0  0  0  0  0  0  0  0  0  0  0
  131.5610  124.8320   63.2720 C   0  0  0  0  0  0  0  0  0  0  0  0
  130.7080  125.2720   64.3810 C   0  0  0  0  0  0  0  0  0  0  0  0
  130.0350  125.6190   65.2570 N   0  0  0  0  0  0  0  0  0  0  0  0
  131.0010  124.4700   62.0250 C   0  0  0  0  0  0  0  0  0  0  0  0
  129.2420  124.5150   61.7220 S   0  0  0  0  0  0  0  0  0  0  0  0
  128.6820  122.8180   61.3860 C   0  0  0  0  0  0  0  0  0  0  0  0
  127.6160  122.7650   60.2900 C   0  0  0  0  0  0  0  0  0  0  0  0
  126.4270  122.8390   60.6060 O   0  0  0  0  0  0  0  0  0  0  0  0
  128.0760  122.6110   59.0300 N   0  0  0  0  0  0  0  0  0  0  0  0
  127.3140  122.5180   57.8770 C   0  0  0  0  0  0  0  0  0  0  0  0
  126.1090  123.1500   57.5380 C   0  0  0  0  0  0  0  0  0  0  0  0
  125.8160  122.6890   56.2750 C   0  0  0  0  0  0  0  0  0  0  0  0
  126.7920  121.8380   55.8760 O   0  0  0  0  0  0  0  0  0  0  0  0
  127.7360  121.7450   56.9000 N   0  0  0  0  0  0  0  0  0  0  0  0
  131.7640  124.0620   60.9790 N   0  0  0  0  0  0  0  0  0  0  0  0
  134.7922  122.9984   60.2522 H   0  0  0  0  0  0  0  0  0  0  0  0
  133.2640  122.8592   59.3185 H   0  0  0  0  0  0  0  0  0  0  0  0
  134.1789  124.4051   59.3185 H   0  0  0  0  0  0  0  0  0  0  0  0
  134.8326  124.2650   62.4151 H   0  0  0  0  0  0  0  0  0  0  0  0
  129.5464  122.2166   61.0681 H   0  0  0  0  0  0  0  0  0  0  0  0
  128.2351  122.4219   62.3098 H   0  0  0  0  0  0  0  0  0  0  0  0
  129.0730  122.5220   58.9020 H   0  0  0  0  0  0  0  0  0  0  0  0
  125.5269  123.8575   58.1468 H   0  0  0  0  0  0  0  0  0  0  0  0
  124.9310  122.9669   55.6838 H   0  0  0  0  0  0  0  0  0  0  0  0
  1  2  1  0
  2  3  2  0
  3  4  1  0
  4  5  1  0
  5  6  1  0
  5  7  1  0
  5  8  1  0
  4  9  2  0
  9 10  1  0
 10 11  3  0
  9 12  1  0
 12 13  1  0
 13 14  1  0
 14 15  1  0
 15 16  2  0
 15 17  1  0
 17 18  1  0
 18 19  1  0
 19 20  2  0
 20 21  1  0
 21 22  1  0
 12 23  2  0
 23  2  1  0
 22 18  2  0
  1 24  1  0
  1 25  1  0
  1 26  1  0
  3 27  1  0
 14 28  1  0
 14 29  1  0
 17 30  1  0
 19 31  1  0
 20 32  1  0
M  END
>  <Binding energies>  (1) 
[-6.59]

>  <Ligand effiencies>  (1) 
[-0.27458333333333335]

>  <Interactions>  (1) 
["V-A:ASP:366:CB:3208, V-A:ASP:366:CG:3209, V-A:HIS:456:CE1:4066, V-B:PRO:540:CA:9852, V-B:PRO:540:N:9853, V-B:PRO:540:CB:9854, H-B:TYR:539:N:9839, V-B:LEU:363:CD1:8157, V-B:ALA:541:CB:9861, H-B:TYR:539:OH:9847, V-A:ARG:545:CZ:4923, V-A:TYR:484:CZ:4343, V-A:ARG:545:CD:4920, V-B:TYR:539:CE2:9845, V-A:ARG:545:CG:4919, H-B:ALA:541:N:9860, V-B:ILE:538:CG2:9832, V-B:ILE:538:CB:9831, V-B:PRO:540:CD:9856, V-A:ILE:369:CG1:3234, V-B:TYR:539:C:9836, V-A:ILE:369:CB:3232, V-A:ILE:369:CG2:3233, V-A:GLY:454:CA:4045, V-A:GLY:453:C:4038, V-A:GLY:453:CA:4040, V-A:ASP:366:CA:3206, V-A:GLY:454:C:4043"]

$$$$
2j_Grossjean_2025
     RDKit          3D

 32 33  0  0  0  0  0  0  0  0999 V2000
  128.5690  122.2480   59.7520 C   0  0  0  0  0  0  0  0  0  0  0  0
  129.0050  123.3420   58.7950 C   0  0  0  0  0  0  0  0  0  0  0  0
  129.4730  124.5700   59.2540 C   0  0  0  0  0  0  0  0  0  0  0  0
  129.8670  125.5490   58.3300 C   0  0  0  0  0  0  0  0  0  0  0  0
  130.3830  126.9020   58.8550 C   0  0  0  0  0  0  0  0  0  0  0  0
  131.5390  127.2090   58.2660 F   0  0  0  0  0  0  0  0  0  0  0  0
  129.4950  127.8620   58.5950 F   0  0  0  0  0  0  0  0  0  0  0  0
  130.5930  126.8970   60.1730 F   0  0  0  0  0  0  0  0  0  0  0  0
  129.7730  125.2500   56.9470 C   0  0  0  0  0  0  0  0  0  0  0  0
  130.1700  126.2350   55.9360 C   0  0  0  0  0  0  0  0  0  0  0  0
  130.4850  127.0120   55.1390 N   0  0  0  0  0  0  0  0  0  0  0  0
  129.2850  123.9760   56.5690 C   0  0  0  0  0  0  0  0  0  0  0  0
  129.1260  123.4900   54.8570 S   0  0  0  0  0  0  0  0  0  0  0  0
  127.4920  122.7090   54.6300 C   0  0  0  0  0  0  0  0  0  0  0  0
  126.5700  122.7730   55.8570 C   0  0  0  0  0  0  0  0  0  0  0  0
  126.2460  121.7450   56.4550 O   0  0  0  0  0  0  0  0  0  0  0  0
  126.1590  124.0160   56.1920 N   0  0  0  0  0  0  0  0  0  0  0  0
  125.3280  124.3580   57.2510 C   0  0  0  0  0  0  0  0  0  0  0  0
  124.2990  125.1770   57.2380 N   0  0  0  0  0  0  0  0  0  0  0  0
  123.7340  125.2670   58.4260 C   0  0  0  0  0  0  0  0  0  0  0  0
  124.3090  124.5070   59.4400 C   0  0  0  0  0  0  0  0  0  0  0  0
  125.6630  123.6310   58.7900 S   0  0  0  0  0  0  0  0  0  0  0  0
  128.9110  123.0420   57.4800 N   0  0  0  0  0  0  0  0  0  0  0  0
  128.7058  122.5912   60.7881 H   0  0  0  0  0  0  0  0  0  0  0  0
  127.5083  122.0124   59.5808 H   0  0  0  0  0  0  0  0  0  0  0  0
  129.1769  121.3474   59.5808 H   0  0  0  0  0  0  0  0  0  0  0  0
  129.5334  124.7712   60.3337 H   0  0  0  0  0  0  0  0  0  0  0  0
  126.9849  123.2137   53.7945 H   0  0  0  0  0  0  0  0  0  0  0  0
  127.6828  121.6421   54.4420 H   0  0  0  0  0  0  0  0  0  0  0  0
  126.4810  124.7840   55.6210 H   0  0  0  0  0  0  0  0  0  0  0  0
  122.8574  125.9069   58.6054 H   0  0  0  0  0  0  0  0  0  0  0  0
  123.9631  124.4669   60.4834 H   0  0  0  0  0  0  0  0  0  0  0  0
  1  2  1  0
  2  3  2  0
  3  4  1  0
  4  5  1  0
  5  6  1  0
  5  7  1  0
  5  8  1  0
  4  9  2  0
  9 10  1  0
 10 11  3  0
  9 12  1  0
 12 13  1  0
 13 14  1  0
 14 15  1  0
 15 16  2  0
 15 17  1  0
 17 18  1  0
 18 19  2  0
 19 20  1  0
 20 21  2  0
 21 22  1  0
 12 23  2  0
 23  2  1  0
 22 18  1  0
  1 24  1  0
  1 25  1  0
  1 26  1  0
  3 27  1  0
 14 28  1  0
 14 29  1  0
 17 30  1  0
 20 31  1  0
 21 32  1  0
M  END
>  <Binding energies>  (1) 
[-6.27]

>  <Ligand effiencies>  (1) 
[-0.26125]

>  <Interactions>  (1) 
["V-A:ASP:366:CB:3208, V-A:ASP:366:CG:3209, V-B:ASP:366:CB:8180, H-A:TYR:531:OH:4792, V-B:TYR:539:CE1:9844, V-B:MET:535:CE:9804, V-B:PRO:540:CA:9852, V-B:TYR:539:CZ:9846, V-B:PRO:540:CB:9854, V-B:ASP:366:CG:8181, H-B:TYR:539:N:9839, V-B:LEU:363:CD1:8157, V-B:LEU:363:CA:8153, H-B:TYR:531:OH:9764, H-B:TYR:539:OH:9847, V-B:TYR:539:CE2:9845, V-B:ILE:538:CG2:9832, V-B:ILE:538:CB:9831, V-B:TYR:539:CD2:9843, V-B:ILE:538:CA:9829, H-B:MET:535:SD:9803"]

$$$$
2k_Grossjean_2025
     RDKit          3D

 50 50  0  0  0  0  0  0  0  0999 V2000
  134.8270  125.0920   66.1340 C   0  0  0  0  0  0  0  0  0  0  0  0
  134.4150  125.1690   64.7780 O   0  0  0  0  0  0  0  0  0  0  0  0
  133.0190  124.9720   64.5970 C   0  0  0  0  0  0  0  0  0  0  0  0
  132.7320  124.6070   63.1350 C   0  0  0  0  0  0  0  0  0  0  0  0
  133.9130  124.0770   62.5500 O   0  0  0  0  0  0  0  0  0  0  0  0
  133.7590  123.6600   61.1980 C   0  0  0  0  0  0  0  0  0  0  0  0
  132.5760  122.6850   61.1240 C   0  0  0  0  0  0  0  0  0  0  0  0
  131.4760  123.3790   60.5580 O   0  0  0  0  0  0  0  0  0  0  0  0
  131.8180  124.4590   59.7030 C   0  0  0  0  0  0  0  0  0  0  0  0
  130.5320  125.0180   59.0650 C   0  0  0  0  0  0  0  0  0  0  0  0
  130.0610  124.2170   57.9320 N   0  0  0  0  0  0  0  0  0  0  0  0
  129.6580  124.7040   56.7420 C   0  0  0  0  0  0  0  0  0  0  0  0
  129.6700  125.9040   56.4620 O   0  0  0  0  0  0  0  0  0  0  0  0
  129.1500  123.6620   55.7340 C   0  0  0  0  0  0  0  0  0  0  0  0
  127.4570  123.0460   56.0330 S   0  0  0  0  0  0  0  0  0  0  0  0
  127.1400  123.0080   57.7920 C   0  0  0  0  0  0  0  0  0  0  0  0
  128.0750  122.3760   58.5450 N   0  0  0  0  0  0  0  0  0  0  0  0
  127.8980  122.3050   59.8830 C   0  0  0  0  0  0  0  0  0  0  0  0
  128.9800  121.5730   60.6530 C   0  0  0  0  0  0  0  0  0  0  0  0
  126.7970  122.8660   60.5260 C   0  0  0  0  0  0  0  0  0  0  0  0
  125.8220  123.5320   59.7680 C   0  0  0  0  0  0  0  0  0  0  0  0
  124.6130  124.1510   60.4950 C   0  0  0  0  0  0  0  0  0  0  0  0
  124.7080  125.4760   60.6180 F   0  0  0  0  0  0  0  0  0  0  0  0
  123.4910  123.8900   59.8220 F   0  0  0  0  0  0  0  0  0  0  0  0
  124.5080  123.6410   61.7230 F   0  0  0  0  0  0  0  0  0  0  0  0
  125.9910  123.6070   58.3620 C   0  0  0  0  0  0  0  0  0  0  0  0
  125.0010  124.2870   57.5200 C   0  0  0  0  0  0  0  0  0  0  0  0
  124.2190  124.8240   56.8570 N   0  0  0  0  0  0  0  0  0  0  0  0
  133.9595  125.2541   66.7906 H   0  0  0  0  0  0  0  0  0  0  0  0
  135.2554  124.0982   66.3312 H   0  0  0  0  0  0  0  0  0  0  0  0
  135.5854  125.8640   66.3312 H   0  0  0  0  0  0  0  0  0  0  0  0
  132.6773  124.1563   65.2511 H   0  0  0  0  0  0  0  0  0  0  0  0
  132.4849  125.8992   64.8519 H   0  0  0  0  0  0  0  0  0  0  0  0
  131.9303  123.8550   63.0932 H   0  0  0  0  0  0  0  0  0  0  0  0
  132.4146  125.5043   62.5835 H   0  0  0  0  0  0  0  0  0  0  0  0
  133.5608  124.5338   60.5599 H   0  0  0  0  0  0  0  0  0  0  0  0
  134.6777  123.1671   60.8473 H   0  0  0  0  0  0  0  0  0  0  0  0
  132.8399  121.8238   60.4925 H   0  0  0  0  0  0  0  0  0  0  0  0
  132.3207  122.3142   62.1277 H   0  0  0  0  0  0  0  0  0  0  0  0
  132.3141  125.2487   60.2863 H   0  0  0  0  0  0  0  0  0  0  0  0
  132.5022  124.1087   58.9161 H   0  0  0  0  0  0  0  0  0  0  0  0
  129.7423  125.0413   59.8304 H   0  0  0  0  0  0  0  0  0  0  0  0
  130.7636  126.0235   58.6839 H   0  0  0  0  0  0  0  0  0  0  0  0
  130.0340  123.2180   58.0740 H   0  0  0  0  0  0  0  0  0  0  0  0
  129.1738  124.1178   54.7332 H   0  0  0  0  0  0  0  0  0  0  0  0
  129.8131  122.7905   55.8378 H   0  0  0  0  0  0  0  0  0  0  0  0
  128.8054  121.6911   61.7326 H   0  0  0  0  0  0  0  0  0  0  0  0
  128.9565  120.5046   60.3925 H   0  0  0  0  0  0  0  0  0  0  0  0
  129.9630  121.9924   60.3925 H   0  0  0  0  0  0  0  0  0  0  0  0
  126.6929  122.7876   61.6182 H   0  0  0  0  0  0  0  0  0  0  0  0
  1  2  1  0
  2  3  1  0
  3  4  1  0
  4  5  1  0
  5  6  1  0
  6  7  1  0
  7  8  1  0
  8  9  1  0
  9 10  1  0
 10 11  1  0
 11 12  1  0
 12 13  2  0
 12 14  1  0
 14 15  1  0
 15 16  1  0
 16 17  2  0
 17 18  1  0
 18 19  1  0
 18 20  2  0
 20 21  1  0
 21 22  1  0
 22 23  1  0
 22 24  1  0
 22 25  1  0
 21 26  2  0
 26 27  1  0
 27 28  3  0
 26 16  1  0
  1 29  1  0
  1 30  1  0
  1 31  1  0
  3 32  1  0
  3 33  1  0
  4 34  1  0
  4 35  1  0
  6 36  1  0
  6 37  1  0
  7 38  1  0
  7 39  1  0
  9 40  1  0
  9 41  1  0
 10 42  1  0
 10 43  1  0
 11 44  1  0
 14 45  1  0
 14 46  1  0
 19 47  1  0
 19 48  1  0
 19 49  1  0
 20 50  1  0
M  END
>  <Binding energies>  (1) 
[-5.96]

>  <Ligand effiencies>  (1) 
[-0.20551724137931035]

>  <Interactions>  (1) 
["V-A:ASP:366:CG:3209, V-A:HIS:456:CE1:4066, V-B:ASN:362:CB:8144, V-B:TYR:539:CE1:9844, V-B:MET:535:CE:9804, V-B:PRO:540:CA:9852, V-B:TYR:539:CZ:9846, V-B:ASN:362:C:8140, V-B:PRO:540:N:9853, V-B:PRO:540:C:9850, V-B:PRO:540:CB:9854, V-B:ASP:366:CG:8181, V-B:LEU:363:CD1:8157, V-B:LEU:363:CA:8153, H-B:TYR:531:OH:9764, V-B:ALA:541:CB:9861, H-B:TYR:539:OH:9847, V-B:GLU:543:CD:9877, V-A:ARG:545:CZ:4923, V-A:ARG:545:CD:4920, V-B:TYR:539:CE2:9845, H-A:ARG:545:NE:4921, V-A:ARG:545:CG:4919, V-B:TYR:539:C:9836, V-B:TYR:539:CD2:9843, V-B:TYR:539:CD1:9842, V-B:LEU:363:CB:8155, H-A:GLY:454:N:4046, H-A:ARG:545:NH1:4924, V-A:GLY:454:CA:4045, V-B:ARG:545:CZ:9895, V-A:GLY:453:C:4038, V-A:GLY:453:CA:4040, V-A:GLY:454:C:4043"]

$$$$
3aa_Grossjean_2025
     RDKit          3D

 52 54  0  0  0  0  0  0  0  0999 V2000
  125.0890  127.7460   74.0580 C   0  0  0  0  0  0  0  0  0  0  0  0
  126.5310  128.1650   73.7560 C   0  0  0  0  0  0  0  0  0  0  0  0
  127.1420  127.1920   72.9190 O   0  0  0  0  0  0  0  0  0  0  0  0
  128.3850  127.3900   72.4090 C   0  0  0  0  0  0  0  0  0  0  0  0
  129.3470  127.7630   73.0880 O   0  0  0  0  0  0  0  0  0  0  0  0
  128.4710  127.1250   70.9330 C   0  0  0  0  0  0  0  0  0  0  0  0
  127.4490  126.4640   70.2360 C   0  0  0  0  0  0  0  0  0  0  0  0
  127.5580  126.2380   68.8660 C   0  0  0  0  0  0  0  0  0  0  0  0
  128.6850  126.6730   68.1660 C   0  0  0  0  0  0  0  0  0  0  0  0
  128.6940  126.3980   66.7840 N   0  0  0  0  0  0  0  0  0  0  0  0
  129.7390  126.1550   65.9610 C   0  0  0  0  0  0  0  0  0  0  0  0
  130.9250  126.1540   66.2940 O   0  0  0  0  0  0  0  0  0  0  0  0
  129.3770  125.8730   64.5030 C   0  0  0  0  0  0  0  0  0  0  0  0
  130.6370  126.5160   63.3590 S   0  0  0  0  0  0  0  0  0  0  0  0
  131.0850  125.1790   62.2730 C   0  0  0  0  0  0  0  0  0  0  0  0
  130.1090  124.8400   61.3980 N   0  0  0  0  0  0  0  0  0  0  0  0
  130.3190  123.8320   60.5120 C   0  0  0  0  0  0  0  0  0  0  0  0
  129.1970  123.5270   59.5670 C   0  0  0  0  0  0  0  0  0  0  0  0
  127.9340  123.1540   60.0540 C   0  0  0  0  0  0  0  0  0  0  0  0
  126.8860  122.8690   59.1820 C   0  0  0  0  0  0  0  0  0  0  0  0
  127.0880  122.9540   57.8090 C   0  0  0  0  0  0  0  0  0  0  0  0
  128.3290  123.3230   57.3010 C   0  0  0  0  0  0  0  0  0  0  0  0
  129.3740  123.6100   58.1750 C   0  0  0  0  0  0  0  0  0  0  0  0
  131.5350  123.1430   60.4850 C   0  0  0  0  0  0  0  0  0  0  0  0
  132.5550  123.4650   61.3940 C   0  0  0  0  0  0  0  0  0  0  0  0
  133.8760  122.6740   61.3390 C   0  0  0  0  0  0  0  0  0  0  0  0
  134.9510  123.4640   61.2880 F   0  0  0  0  0  0  0  0  0  0  0  0
  133.9980  121.9060   62.4230 F   0  0  0  0  0  0  0  0  0  0  0  0
  133.8960  121.8970   60.2550 F   0  0  0  0  0  0  0  0  0  0  0  0
  132.3240  124.5050   62.3260 C   0  0  0  0  0  0  0  0  0  0  0  0
  133.3310  124.8450   63.3360 C   0  0  0  0  0  0  0  0  0  0  0  0
  134.1260  125.1140   64.1340 N   0  0  0  0  0  0  0  0  0  0  0  0
  129.7170  127.3220   68.8590 C   0  0  0  0  0  0  0  0  0  0  0  0
  129.6070  127.5450   70.2280 C   0  0  0  0  0  0  0  0  0  0  0  0
  124.9402  127.7028   75.1470 H   0  0  0  0  0  0  0  0  0  0  0  0
  124.3950  128.4796   73.6219 H   0  0  0  0  0  0  0  0  0  0  0  0
  124.8962  126.7547   73.6219 H   0  0  0  0  0  0  0  0  0  0  0  0
  126.5304  129.1394   73.2455 H   0  0  0  0  0  0  0  0  0  0  0  0
  127.0944  128.2445   74.6974 H   0  0  0  0  0  0  0  0  0  0  0  0
  126.5540  126.1212   70.7758 H   0  0  0  0  0  0  0  0  0  0  0  0
  126.7515  125.7138   68.3324 H   0  0  0  0  0  0  0  0  0  0  0  0
  127.7840  126.4370   66.3480 H   0  0  0  0  0  0  0  0  0  0  0  0
  129.2891  124.7857   64.3616 H   0  0  0  0  0  0  0  0  0  0  0  0
  128.4249  126.3780   64.2827 H   0  0  0  0  0  0  0  0  0  0  0  0
  127.7699  123.0859   61.1396 H   0  0  0  0  0  0  0  0  0  0  0  0
  125.9020  122.5777   59.5782 H   0  0  0  0  0  0  0  0  0  0  0  0
  126.2609  122.7279   57.1200 H   0  0  0  0  0  0  0  0  0  0  0  0
  128.4841  123.3878   56.2139 H   0  0  0  0  0  0  0  0  0  0  0  0
  130.3530  123.9062   57.7701 H   0  0  0  0  0  0  0  0  0  0  0  0
  131.6936  122.3433   59.7466 H   0  0  0  0  0  0  0  0  0  0  0  0
  130.6155  127.6555   68.3191 H   0  0  0  0  0  0  0  0  0  0  0  0
  130.4207  128.0566   70.7628 H   0  0  0  0  0  0  0  0  0  0  0  0
  1  2  1  0
  2  3  1  0
  3  4  1  0
  4  5  2  0
  4  6  1  0
  6  7  2  0
  7  8  1  0
  8  9  2  0
  9 10  1  0
 10 11  1  0
 11 12  2  0
 11 13  1  0
 13 14  1  0
 14 15  1  0
 15 16  2  0
 16 17  1  0
 17 18  1  0
 18 19  2  0
 19 20  1  0
 20 21  2  0
 21 22  1  0
 22 23  2  0
 17 24  2  0
 24 25  1  0
 25 26  1  0
 26 27  1  0
 26 28  1  0
 26 29  1  0
 25 30  2  0
 30 31  1  0
 31 32  3  0
  9 33  1  0
 33 34  2  0
 34  6  1  0
 30 15  1  0
 23 18  1  0
  1 35  1  0
  1 36  1  0
  1 37  1  0
  2 38  1  0
  2 39  1  0
  7 40  1  0
  8 41  1  0
 10 42  1  0
 13 43  1  0
 13 44  1  0
 19 45  1  0
 20 46  1  0
 21 47  1  0
 22 48  1  0
 23 49  1  0
 24 50  1  0
 33 51  1  0
 34 52  1  0
M  END
>  <Binding energies>  (1) 
[-8.78]

>  <Ligand effiencies>  (1) 
[-0.25085714285714283]

>  <Interactions>  (1) 
["V-A:ASP:366:CG:3209, V-B:GLU:543:C:9871, V-B:LYS:547:CE:9919, V-B:HIS:456:CG:9034, H-A:LYS:547:NZ:4948, V-B:HIS:456:CB:9033, V-A:HIS:456:CE1:4066, V-B:GLU:543:CB:9875, V-B:HIS:456:CE1:9038, V-B:GLY:544:C:9881, V-B:HIS:456:CD2:9036, V-B:TYR:539:CE1:9844, V-B:PRO:540:CA:9852, V-B:TYR:539:CZ:9846, V-B:PRO:540:N:9853, V-B:PRO:540:CB:9854, H-B:GLU:543:OE1:9878, V-B:GLU:543:CD:9877, V-B:GLU:543:CG:9876, V-A:ARG:545:CZ:4923, H-A:ARG:545:NH2:4925, V-B:TYR:539:CE2:9845, H-A:ARG:545:NE:4921, V-A:LEU:475:CD1:4254, V-A:ILE:369:CG1:3234, V-A:ILE:369:CB:3232, H-A:GLY:454:N:4046, H-A:ARG:545:NH1:4924, V-A:ILE:369:CG2:3233, V-A:GLY:454:CA:4045, V-A:GLY:453:C:4038, V-A:GLY:453:CA:4040, V-B:LYS:547:CD:9918"]

$$$$
3ab_Grossjean_2025
     RDKit          3D

 49 51  0  0  0  0  0  0  0  0999 V2000
  128.0210  122.5070   54.8760 C   0  0  0  0  0  0  0  0  0  0  0  0
  127.1840  121.7890   55.7730 O   0  0  0  0  0  0  0  0  0  0  0  0
  126.3270  122.4390   56.6010 C   0  0  0  0  0  0  0  0  0  0  0  0
  125.2110  122.8340   56.2510 O   0  0  0  0  0  0  0  0  0  0  0  0
  126.8710  122.6290   57.9870 C   0  0  0  0  0  0  0  0  0  0  0  0
  128.1490  122.1770   58.3530 C   0  0  0  0  0  0  0  0  0  0  0  0
  128.6280  122.3680   59.6450 C   0  0  0  0  0  0  0  0  0  0  0  0
  127.8320  123.0170   60.6020 C   0  0  0  0  0  0  0  0  0  0  0  0
  128.2150  123.2680   61.9330 N   0  0  0  0  0  0  0  0  0  0  0  0
  129.3840  123.0180   62.5600 C   0  0  0  0  0  0  0  0  0  0  0  0
  130.3690  122.4820   62.0510 O   0  0  0  0  0  0  0  0  0  0  0  0
  129.4460  123.4480   64.0280 C   0  0  0  0  0  0  0  0  0  0  0  0
  130.5590  124.8630   64.2790 S   0  0  0  0  0  0  0  0  0  0  0  0
  129.6080  126.1640   65.0350 C   0  0  0  0  0  0  0  0  0  0  0  0
  129.6800  126.1730   66.3870 N   0  0  0  0  0  0  0  0  0  0  0  0
  129.0070  127.1160   67.0950 C   0  0  0  0  0  0  0  0  0  0  0  0
  129.1420  127.0580   68.5870 C   0  0  0  0  0  0  0  0  0  0  0  0
  130.1710  127.7530   69.2430 C   0  0  0  0  0  0  0  0  0  0  0  0
  130.3010  127.7030   70.6290 C   0  0  0  0  0  0  0  0  0  0  0  0
  129.4000  126.9550   71.3800 C   0  0  0  0  0  0  0  0  0  0  0  0
  128.3740  126.2540   70.7550 C   0  0  0  0  0  0  0  0  0  0  0  0
  128.2480  126.3060   69.3700 C   0  0  0  0  0  0  0  0  0  0  0  0
  128.2170  128.0710   66.4440 C   0  0  0  0  0  0  0  0  0  0  0  0
  128.1100  128.0710   65.0460 C   0  0  0  0  0  0  0  0  0  0  0  0
  127.2260  129.1360   64.3690 C   0  0  0  0  0  0  0  0  0  0  0  0
  126.1010  128.6270   63.8600 F   0  0  0  0  0  0  0  0  0  0  0  0
  126.8760  130.0720   65.2510 F   0  0  0  0  0  0  0  0  0  0  0  0
  127.8940  129.7130   63.3690 F   0  0  0  0  0  0  0  0  0  0  0  0
  128.8170  127.0860   64.3120 C   0  0  0  0  0  0  0  0  0  0  0  0
  128.6950  127.0060   62.8540 C   0  0  0  0  0  0  0  0  0  0  0  0
  128.5960  126.9450   61.7030 N   0  0  0  0  0  0  0  0  0  0  0  0
  126.5630  123.4730   60.2400 C   0  0  0  0  0  0  0  0  0  0  0  0
  126.0860  123.2800   58.9480 C   0  0  0  0  0  0  0  0  0  0  0  0
  128.7336  123.1183   55.4492 H   0  0  0  0  0  0  0  0  0  0  0  0
  128.5733  121.7975   54.2424 H   0  0  0  0  0  0  0  0  0  0  0  0
  127.4038  123.1609   54.2424 H   0  0  0  0  0  0  0  0  0  0  0  0
  128.7786  121.6661   57.6097 H   0  0  0  0  0  0  0  0  0  0  0  0
  129.6319  122.0100   59.9171 H   0  0  0  0  0  0  0  0  0  0  0  0
  127.4830  123.6670   62.5020 H   0  0  0  0  0  0  0  0  0  0  0  0
  128.4351  123.7288   64.3584 H   0  0  0  0  0  0  0  0  0  0  0  0
  129.8362  122.6020   64.6128 H   0  0  0  0  0  0  0  0  0  0  0  0
  130.8854  128.3461   68.6532 H   0  0  0  0  0  0  0  0  0  0  0  0
  131.1128  128.2528   71.1277 H   0  0  0  0  0  0  0  0  0  0  0  0
  129.4996  126.9177   72.4748 H   0  0  0  0  0  0  0  0  0  0  0  0
  127.6656  125.6614   71.3525 H   0  0  0  0  0  0  0  0  0  0  0  0
  127.4356  125.7497   68.8796 H   0  0  0  0  0  0  0  0  0  0  0  0
  127.6766  128.8265   67.0333 H   0  0  0  0  0  0  0  0  0  0  0  0
  125.9359  123.9887   60.9822 H   0  0  0  0  0  0  0  0  0  0  0  0
  125.0829  123.6418   58.6779 H   0  0  0  0  0  0  0  0  0  0  0  0
  1  2  1  0
  2  3  1  0
  3  4  2  0
  3  5  1  0
  5  6  2  0
  6  7  1  0
  7  8  2  0
  8  9  1  0
  9 10  1  0
 10 11  2  0
 10 12  1  0
 12 13  1  0
 13 14  1  0
 14 15  2  0
 15 16  1  0
 16 17  1  0
 17 18  2  0
 18 19  1  0
 19 20  2  0
 20 21  1  0
 21 22  2  0
 16 23  2  0
 23 24  1  0
 24 25  1  0
 25 26  1  0
 25 27  1  0
 25 28  1  0
 24 29  2  0
 29 30  1  0
 30 31  3  0
  8 32  1  0
 32 33  2  0
 33  5  1  0
 29 14  1  0
 22 17  1  0
  1 34  1  0
  1 35  1  0
  1 36  1  0
  6 37  1  0
  7 38  1  0
  9 39  1  0
 12 40  1  0
 12 41  1  0
 18 42  1  0
 19 43  1  0
 20 44  1  0
 21 45  1  0
 22 46  1  0
 23 47  1  0
 32 48  1  0
 33 49  1  0
M  END
>  <Binding energies>  (1) 
[-8.84]

>  <Ligand effiencies>  (1) 
[-0.26]

>  <Interactions>  (1) 
["V-A:GLU:543:CD:4905, V-B:GLU:543:C:9871, V-A:HIS:456:CE1:4066, V-A:HIS:456:CD2:4064, V-B:GLU:543:CB:9875, V-B:HIS:456:CE1:9038, V-B:TYR:539:CE1:9844, V-B:MET:535:CE:9804, V-B:PRO:540:CA:9852, V-B:TYR:539:CZ:9846, V-B:PRO:540:N:9853, V-B:PRO:540:CB:9854, H-B:TYR:539:N:9839, V-B:ALA:541:CB:9861, H-B:GLU:543:OE2:9879, V-B:GLU:543:CD:9877, V-B:GLU:543:CG:9876, V-B:TYR:539:CE2:9845, V-B:ILE:538:CG2:9832, V-B:ILE:538:CB:9831, V-B:PRO:540:CD:9856, V-B:TYR:539:C:9836, V-B:TYR:539:CD2:9843, V-B:ILE:538:CA:9829, V-B:TYR:539:CD1:9842, V-B:TYR:539:CG:9841, V-B:ARG:545:CZ:9895"]

$$$$
3ac_Grossjean_2025
     RDKit          3D

 47 49  0  0  0  0  0  0  0  0999 V2000
  133.4120  125.0810   64.9810 C   0  0  0  0  0  0  0  0  0  0  0  0
  133.9790  124.7570   63.7150 O   0  0  0  0  0  0  0  0  0  0  0  0
  133.1640  124.7190   62.6000 C   0  0  0  0  0  0  0  0  0  0  0  0
  133.5320  123.8300   61.5910 C   0  0  0  0  0  0  0  0  0  0  0  0
  132.7700  123.7200   60.4320 C   0  0  0  0  0  0  0  0  0  0  0  0
  131.6300  124.5070   60.2610 C   0  0  0  0  0  0  0  0  0  0  0  0
  130.9130  124.3100   59.0660 N   0  0  0  0  0  0  0  0  0  0  0  0
  130.3180  125.2240   58.2700 C   0  0  0  0  0  0  0  0  0  0  0  0
  130.3420  126.4430   58.4450 O   0  0  0  0  0  0  0  0  0  0  0  0
  129.5680  124.6590   57.0630 C   0  0  0  0  0  0  0  0  0  0  0  0
  127.7880  125.0290   57.1240 S   0  0  0  0  0  0  0  0  0  0  0  0
  127.1160  124.3560   58.6310 C   0  0  0  0  0  0  0  0  0  0  0  0
  128.0620  123.8470   59.4570 N   0  0  0  0  0  0  0  0  0  0  0  0
  127.7000  123.3040   60.6480 C   0  0  0  0  0  0  0  0  0  0  0  0
  128.8070  122.7570   61.4990 C   0  0  0  0  0  0  0  0  0  0  0  0
  129.6100  121.6990   61.0400 C   0  0  0  0  0  0  0  0  0  0  0  0
  130.6430  121.1910   61.8230 C   0  0  0  0  0  0  0  0  0  0  0  0
  130.8870  121.7330   63.0800 C   0  0  0  0  0  0  0  0  0  0  0  0
  130.1040  122.7770   63.5600 C   0  0  0  0  0  0  0  0  0  0  0  0
  129.0720  123.2830   62.7750 C   0  0  0  0  0  0  0  0  0  0  0  0
  126.3560  123.2460   61.0300 C   0  0  0  0  0  0  0  0  0  0  0  0
  125.3550  123.7460   60.1840 C   0  0  0  0  0  0  0  0  0  0  0  0
  123.8860  123.6560   60.6420 C   0  0  0  0  0  0  0  0  0  0  0  0
  123.0670  123.2380   59.6760 F   0  0  0  0  0  0  0  0  0  0  0  0
  123.7700  122.8000   61.6590 F   0  0  0  0  0  0  0  0  0  0  0  0
  123.4620  124.8570   61.0390 F   0  0  0  0  0  0  0  0  0  0  0  0
  125.7360  124.3060   58.9400 C   0  0  0  0  0  0  0  0  0  0  0  0
  124.7220  124.7690   57.9910 C   0  0  0  0  0  0  0  0  0  0  0  0
  123.9190  125.1350   57.2410 N   0  0  0  0  0  0  0  0  0  0  0  0
  131.2490  125.3990   61.2750 C   0  0  0  0  0  0  0  0  0  0  0  0
  132.0140  125.5060   62.4340 C   0  0  0  0  0  0  0  0  0  0  0  0
  134.0663  124.7071   65.7823 H   0  0  0  0  0  0  0  0  0  0  0  0
  133.3115  126.1728   65.0691 H   0  0  0  0  0  0  0  0  0  0  0  0
  132.4203  124.6132   65.0691 H   0  0  0  0  0  0  0  0  0  0  0  0
  134.4326  123.2102   61.7122 H   0  0  0  0  0  0  0  0  0  0  0  0
  133.0674  123.0094   59.6468 H   0  0  0  0  0  0  0  0  0  0  0  0
  130.8890  123.3530   58.7460 H   0  0  0  0  0  0  0  0  0  0  0  0
  129.9897  125.0980   56.1468 H   0  0  0  0  0  0  0  0  0  0  0  0
  129.6858  123.5654   57.0743 H   0  0  0  0  0  0  0  0  0  0  0  0
  129.4195  121.2657   60.0471 H   0  0  0  0  0  0  0  0  0  0  0  0
  131.2639  120.3638   61.4486 H   0  0  0  0  0  0  0  0  0  0  0  0
  131.7043  121.3335   63.6984 H   0  0  0  0  0  0  0  0  0  0  0  0
  130.2993  123.2012   64.5559 H   0  0  0  0  0  0  0  0  0  0  0  0
  128.4540  124.1078   63.1595 H   0  0  0  0  0  0  0  0  0  0  0  0
  126.0820  122.8055   62.0000 H   0  0  0  0  0  0  0  0  0  0  0  0
  130.3452  126.0144   61.1544 H   0  0  0  0  0  0  0  0  0  0  0  0
  131.7151  126.2112   63.2235 H   0  0  0  0  0  0  0  0  0  0  0  0
  1  2  1  0
  2  3  1  0
  3  4  2  0
  4  5  1  0
  5  6  2  0
  6  7  1  0
  7  8  1  0
  8  9  2  0
  8 10  1  0
 10 11  1  0
 11 12  1  0
 12 13  2  0
 13 14  1  0
 14 15  1  0
 15 16  2  0
 16 17  1  0
 17 18  2  0
 18 19  1  0
 19 20  2  0
 14 21  2  0
 21 22  1  0
 22 23  1  0
 23 24  1  0
 23 25  1  0
 23 26  1  0
 22 27  2  0
 27 28  1  0
 28 29  3  0
  6 30  1  0
 30 31  2  0
 31  3  1  0
 27 12  1  0
 20 15  1  0
  1 32  1  0
  1 33  1  0
  1 34  1  0
  4 35  1  0
  5 36  1  0
  7 37  1  0
 10 38  1  0
 10 39  1  0
 16 40  1  0
 17 41  1  0
 18 42  1  0
 19 43  1  0
 20 44  1  0
 21 45  1  0
 30 46  1  0
 31 47  1  0
M  END
>  <Binding energies>  (1) 
[-7.93]

>  <Ligand effiencies>  (1) 
[-0.2478125]

>  <Interactions>  (1) 
["V-A:ASP:366:CG:3209, V-A:HIS:456:CE1:4066, V-B:ASN:362:CB:8144, V-B:TYR:539:CE1:9844, V-B:PRO:540:CA:9852, V-B:TYR:539:CZ:9846, V-B:ASN:362:C:8140, V-B:PRO:540:C:9850, V-B:PRO:540:CB:9854, V-B:ASP:366:CG:8181, V-B:LEU:363:CD1:8157, V-B:LEU:363:CA:8153, H-B:TYR:531:OH:9764, V-B:ALA:541:CB:9861, H-B:TYR:539:OH:9847, V-B:GLU:543:CD:9877, V-B:GLU:543:CG:9876, V-A:ARG:545:CZ:4923, H-A:ARG:545:NH2:4925, V-B:TYR:539:CE2:9845, V-B:ASN:362:CG:8145, V-A:LEU:475:CD1:4254, V-B:TYR:539:CD2:9843, V-B:LEU:363:CB:8155, H-A:GLY:454:N:4046, H-A:ARG:545:NH1:4924, V-B:ARG:545:CZ:9895, V-B:ALA:541:CA:9859, V-B:ASN:362:CA:8142, V-A:LEU:475:CD2:4255, V-A:LEU:475:CG:4253, V-B:ALA:541:C:9857"]

$$$$
3ad_Grossjean_2025
     RDKit          3D

 43 45  0  0  0  0  0  0  0  0999 V2000
  128.0210  128.2670   62.4240 N   0  0  0  0  0  0  0  0  0  0  0  0
  128.2790  128.0660   63.5340 C   0  0  0  0  0  0  0  0  0  0  0  0
  128.6080  127.8080   64.9400 C   0  0  0  0  0  0  0  0  0  0  0  0
  129.4730  126.7460   65.2980 C   0  0  0  0  0  0  0  0  0  0  0  0
  130.1510  125.8360   64.2550 C   0  0  0  0  0  0  0  0  0  0  0  0
  130.9030  126.5150   63.3860 F   0  0  0  0  0  0  0  0  0  0  0  0
  130.9410  124.9530   64.8670 F   0  0  0  0  0  0  0  0  0  0  0  0
  129.2280  125.1770   63.5530 F   0  0  0  0  0  0  0  0  0  0  0  0
  129.7190  126.5120   66.6590 C   0  0  0  0  0  0  0  0  0  0  0  0
  129.1150  127.3120   67.6350 C   0  0  0  0  0  0  0  0  0  0  0  0
  129.3310  127.0960   69.1040 C   0  0  0  0  0  0  0  0  0  0  0  0
  130.3680  127.7560   69.7810 C   0  0  0  0  0  0  0  0  0  0  0  0
  130.5730  127.5610   71.1440 C   0  0  0  0  0  0  0  0  0  0  0  0
  129.7390  126.7000   71.8510 C   0  0  0  0  0  0  0  0  0  0  0  0
  128.7030  126.0360   71.2040 C   0  0  0  0  0  0  0  0  0  0  0  0
  128.5000  126.2350   69.8400 C   0  0  0  0  0  0  0  0  0  0  0  0
  128.2810  128.3240   67.2870 N   0  0  0  0  0  0  0  0  0  0  0  0
  128.0450  128.5830   65.9790 C   0  0  0  0  0  0  0  0  0  0  0  0
  126.9400  129.9510   65.7100 S   0  0  0  0  0  0  0  0  0  0  0  0
  125.3320  129.2570   65.2240 C   0  0  0  0  0  0  0  0  0  0  0  0
  124.7540  129.9480   63.9870 C   0  0  0  0  0  0  0  0  0  0  0  0
  123.5760  130.3060   63.9970 O   0  0  0  0  0  0  0  0  0  0  0  0
  125.6140  130.1100   62.9590 N   0  0  0  0  0  0  0  0  0  0  0  0
  125.4130  130.7080   61.7010 C   0  0  0  0  0  0  0  0  0  0  0  0
  124.4150  131.6860   61.6490 C   0  0  0  0  0  0  0  0  0  0  0  0
  124.1320  132.3370   60.4510 C   0  0  0  0  0  0  0  0  0  0  0  0
  124.8440  132.0090   59.3020 C   0  0  0  0  0  0  0  0  0  0  0  0
  125.8360  131.0330   59.3380 C   0  0  0  0  0  0  0  0  0  0  0  0
  126.1230  130.3780   60.5340 C   0  0  0  0  0  0  0  0  0  0  0  0
  130.3907  125.6948   66.9607 H   0  0  0  0  0  0  0  0  0  0  0  0
  131.0291  128.4379   69.2261 H   0  0  0  0  0  0  0  0  0  0  0  0
  131.3908  128.0853   71.6601 H   0  0  0  0  0  0  0  0  0  0  0  0
  129.9004  126.5439   72.9278 H   0  0  0  0  0  0  0  0  0  0  0  0
  128.0462  125.3563   71.7667 H   0  0  0  0  0  0  0  0  0  0  0  0
  127.6773  125.7104   69.3321 H   0  0  0  0  0  0  0  0  0  0  0  0
  125.4599  128.1867   65.0046 H   0  0  0  0  0  0  0  0  0  0  0  0
  124.6309  129.4140   66.0569 H   0  0  0  0  0  0  0  0  0  0  0  0
  126.5350  129.7140   63.0840 H   0  0  0  0  0  0  0  0  0  0  0  0
  123.8512  131.9422   62.5581 H   0  0  0  0  0  0  0  0  0  0  0  0
  123.3482  133.1079   60.4135 H   0  0  0  0  0  0  0  0  0  0  0  0
  124.6213  132.5253   58.3566 H   0  0  0  0  0  0  0  0  0  0  0  0
  126.3925  130.7792   58.4237 H   0  0  0  0  0  0  0  0  0  0  0  0
  126.9040  129.6040   60.5646 H   0  0  0  0  0  0  0  0  0  0  0  0
  1  2  3  0
  2  3  1  0
  3  4  2  0
  4  5  1  0
  5  6  1  0
  5  7  1  0
  5  8  1  0
  4  9  1  0
  9 10  2  0
 10 11  1  0
 11 12  2  0
 12 13  1  0
 13 14  2  0
 14 15  1  0
 15 16  2  0
 10 17  1  0
 17 18  2  0
 18 19  1  0
 19 20  1  0
 20 21  1  0
 21 22  2  0
 21 23  1  0
 23 24  1  0
 24 25  2  0
 25 26  1  0
 26 27  2  0
 27 28  1  0
 28 29  2  0
 18  3  1  0
 29 24  1  0
 16 11  1  0
  9 30  1  0
 12 31  1  0
 13 32  1  0
 14 33  1  0
 15 34  1  0
 16 35  1  0
 20 36  1  0
 20 37  1  0
 23 38  1  0
 25 39  1  0
 26 40  1  0
 27 41  1  0
 28 42  1  0
 29 43  1  0
M  END
>  <Binding energies>  (1) 
[-7.08]

>  <Ligand effiencies>  (1) 
[-0.23600000000000002]

>  <Interactions>  (1) 
["V-A:GLU:543:CD:4905, V-A:TYR:539:CE2:4873, V-B:GLU:543:C:9871, V-A:GLY:544:C:4909, V-A:HIS:456:CE1:4066, V-A:GLU:543:C:4899, V-A:HIS:456:CD2:4064, V-B:HIS:456:CE1:9038, V-B:ILE:369:CG2:8205, V-B:ASP:366:CG:8181, V-B:GLU:543:CD:9877, V-B:GLU:543:CG:9876, V-B:ILE:369:CD1:8207, V-B:ARG:545:CZ:9895, H-B:ARG:545:NH1:9896, H-B:TYR:484:OH:9316, H-B:GLY:454:N:9018, V-B:ILE:369:CB:8204"]

$$$$
3af_Grossjean_2025
     RDKit          3D

 42 44  0  0  0  0  0  0  0  0999 V2000
  131.6960  123.3520   63.5510 N   0  0  0  0  0  0  0  0  0  0  0  0
  130.9870  123.2470   62.6420 C   0  0  0  0  0  0  0  0  0  0  0  0
  130.0890  123.1130   61.4920 C   0  0  0  0  0  0  0  0  0  0  0  0
  129.7050  121.8340   61.0200 C   0  0  0  0  0  0  0  0  0  0  0  0
  130.1560  120.5260   61.7010 C   0  0  0  0  0  0  0  0  0  0  0  0
  129.3900  119.4820   61.3750 F   0  0  0  0  0  0  0  0  0  0  0  0
  131.4070  120.2350   61.3440 F   0  0  0  0  0  0  0  0  0  0  0  0
  130.1030  120.6590   63.0270 F   0  0  0  0  0  0  0  0  0  0  0  0
  128.8880  121.7560   59.8820 C   0  0  0  0  0  0  0  0  0  0  0  0
  128.4680  122.9210   59.2320 C   0  0  0  0  0  0  0  0  0  0  0  0
  127.6110  122.8950   58.0020 C   0  0  0  0  0  0  0  0  0  0  0  0
  128.1910  122.8790   56.7230 C   0  0  0  0  0  0  0  0  0  0  0  0
  127.4000  122.8520   55.5770 C   0  0  0  0  0  0  0  0  0  0  0  0
  126.0150  122.8400   55.6960 C   0  0  0  0  0  0  0  0  0  0  0  0
  125.4150  122.8520   56.9510 C   0  0  0  0  0  0  0  0  0  0  0  0
  126.2090  122.8780   58.0940 C   0  0  0  0  0  0  0  0  0  0  0  0
  128.8410  124.1450   59.6850 N   0  0  0  0  0  0  0  0  0  0  0  0
  129.6110  124.2470   60.7960 C   0  0  0  0  0  0  0  0  0  0  0  0
  129.9840  125.9300   61.2440 S   0  0  0  0  0  0  0  0  0  0  0  0
  128.5400  126.6140   62.1110 C   0  0  0  0  0  0  0  0  0  0  0  0
  127.3270  126.7340   61.1900 C   0  0  0  0  0  0  0  0  0  0  0  0
  126.9920  127.8460   60.7820 O   0  0  0  0  0  0  0  0  0  0  0  0
  126.7030  125.5720   60.8990 N   0  0  0  0  0  0  0  0  0  0  0  0
  125.5680  125.3370   60.0990 C   0  0  0  0  0  0  0  0  0  0  0  0
  124.4770  124.5170   60.4410 C   0  0  0  0  0  0  0  0  0  0  0  0
  123.4140  124.3720   59.5470 C   0  0  0  0  0  0  0  0  0  0  0  0
  123.4690  125.0500   58.3290 C   0  0  0  0  0  0  0  0  0  0  0  0
  124.5080  125.8460   57.9750 N   0  0  0  0  0  0  0  0  0  0  0  0
  125.5330  125.9770   58.8560 C   0  0  0  0  0  0  0  0  0  0  0  0
  128.5761  120.7732   59.4989 H   0  0  0  0  0  0  0  0  0  0  0  0
  129.2866  122.8879   56.6249 H   0  0  0  0  0  0  0  0  0  0  0  0
  127.8691  122.8402   54.5821 H   0  0  0  0  0  0  0  0  0  0  0  0
  125.3892  122.8209   54.7916 H   0  0  0  0  0  0  0  0  0  0  0  0
  124.3186  122.8410   57.0397 H   0  0  0  0  0  0  0  0  0  0  0  0
  125.7314  122.8854   59.0849 H   0  0  0  0  0  0  0  0  0  0  0  0
  128.2840  125.9528   62.9520 H   0  0  0  0  0  0  0  0  0  0  0  0
  128.8007  127.6224   62.4647 H   0  0  0  0  0  0  0  0  0  0  0  0
  127.1040  124.7390   61.3050 H   0  0  0  0  0  0  0  0  0  0  0  0
  124.4614  123.9927   61.4079 H   0  0  0  0  0  0  0  0  0  0  0  0
  122.5517  123.7367   59.7978 H   0  0  0  0  0  0  0  0  0  0  0  0
  122.6323  124.9337   57.6245 H   0  0  0  0  0  0  0  0  0  0  0  0
  126.3805  126.6205   58.5773 H   0  0  0  0  0  0  0  0  0  0  0  0
  1  2  3  0
  2  3  1  0
  3  4  2  0
  4  5  1  0
  5  6  1  0
  5  7  1  0
  5  8  1  0
  4  9  1  0
  9 10  2  0
 10 11  1  0
 11 12  2  0
 12 13  1  0
 13 14  2  0
 14 15  1  0
 15 16  2  0
 10 17  1  0
 17 18  2  0
 18 19  1  0
 19 20  1  0
 20 21  1  0
 21 22  2  0
 21 23  1  0
 23 24  1  0
 24 25  2  0
 25 26  1  0
 26 27  2  0
 27 28  1  0
 28 29  2  0
 18  3  1  0
 29 24  1  0
 16 11  1  0
  9 30  1  0
 12 31  1  0
 13 32  1  0
 14 33  1  0
 15 34  1  0
 16 35  1  0
 20 36  1  0
 20 37  1  0
 23 38  1  0
 25 39  1  0
 26 40  1  0
 27 41  1  0
 29 42  1  0
M  END
>  <Binding energies>  (1) 
[-7.28]

>  <Ligand effiencies>  (1) 
[-0.24266666666666667]

>  <Interactions>  (1) 
["V-B:ASP:366:CB:8180, V-B:TYR:539:CE1:9844, V-B:MET:535:CE:9804, V-B:PRO:540:CA:9852, V-B:TYR:539:CZ:9846, V-B:TYR:531:CE2:9762, V-B:ASN:362:C:8140, V-B:PRO:540:N:9853, V-B:PRO:540:CB:9854, V-B:ASP:366:CG:8181, V-B:LEU:363:CD1:8157, V-B:LEU:363:CA:8153, H-B:TYR:531:OH:9764, V-B:ALA:541:CB:9861, H-B:GLU:543:OE2:9879, V-B:GLU:543:CD:9877, V-B:TYR:539:CE2:9845, V-B:ILE:538:CG2:9832, V-B:ILE:538:CB:9831, V-A:LEU:475:CD1:4254, V-B:PRO:540:CD:9856, V-B:TYR:539:C:9836, V-B:TYR:539:CD2:9843, V-B:ILE:538:CA:9829, V-B:TYR:539:CD1:9842, V-B:TYR:539:CG:9841, V-B:LEU:363:CB:8155, H-A:TYR:484:OH:4344, V-B:ALA:541:CA:9859, V-A:PRO:482:CG:4323, V-A:LEU:475:CD2:4255, V-A:LEU:475:CG:4253, V-A:PRO:482:CB:4322"]

$$$$
3ag_Grossjean_2025
     RDKit          3D

 46 48  0  0  0  0  0  0  0  0999 V2000
  124.6510  124.0110   55.9090 N   0  0  0  0  0  0  0  0  0  0  0  0
  125.3200  123.7320   56.8120 C   0  0  0  0  0  0  0  0  0  0  0  0
  126.1640  123.3790   57.9570 C   0  0  0  0  0  0  0  0  0  0  0  0
  125.6980  123.5570   59.2820 C   0  0  0  0  0  0  0  0  0  0  0  0
  124.2790  124.0670   59.6030 C   0  0  0  0  0  0  0  0  0  0  0  0
  124.0670  125.3120   59.1740 F   0  0  0  0  0  0  0  0  0  0  0  0
  123.3730  123.2810   59.0220 F   0  0  0  0  0  0  0  0  0  0  0  0
  124.0760  124.0600   60.9210 F   0  0  0  0  0  0  0  0  0  0  0  0
  126.5630  123.2550   60.3440 C   0  0  0  0  0  0  0  0  0  0  0  0
  127.8620  122.8000   60.0910 C   0  0  0  0  0  0  0  0  0  0  0  0
  128.8290  122.4660   61.1860 C   0  0  0  0  0  0  0  0  0  0  0  0
  128.8960  123.2510   62.3480 C   0  0  0  0  0  0  0  0  0  0  0  0
  129.7910  122.9460   63.3690 C   0  0  0  0  0  0  0  0  0  0  0  0
  130.6350  121.8480   63.2420 C   0  0  0  0  0  0  0  0  0  0  0  0
  130.5910  121.0550   62.0990 C   0  0  0  0  0  0  0  0  0  0  0  0
  129.6950  121.3640   61.0800 C   0  0  0  0  0  0  0  0  0  0  0  0
  128.3010  122.6190   58.8190 N   0  0  0  0  0  0  0  0  0  0  0  0
  127.4760  122.8850   57.7780 C   0  0  0  0  0  0  0  0  0  0  0  0
  128.2170  122.5880   56.1880 S   0  0  0  0  0  0  0  0  0  0  0  0
  129.3930  123.9390   55.8770 C   0  0  0  0  0  0  0  0  0  0  0  0
  129.4710  124.9180   57.0500 C   0  0  0  0  0  0  0  0  0  0  0  0
  128.9680  126.0390   56.9490 O   0  0  0  0  0  0  0  0  0  0  0  0
  130.0990  124.4780   58.1540 N   0  0  0  0  0  0  0  0  0  0  0  0
  130.2560  125.2320   59.3980 C   0  0  0  0  0  0  0  0  0  0  0  0
  131.3700  124.7150   60.3020 C   0  0  0  0  0  0  0  0  0  0  0  0
  132.1640  123.6440   59.8820 C   0  0  0  0  0  0  0  0  0  0  0  0
  133.2010  123.1880   60.6910 C   0  0  0  0  0  0  0  0  0  0  0  0
  133.4470  123.8110   61.9130 C   0  0  0  0  0  0  0  0  0  0  0  0
  132.6700  124.8890   62.3310 C   0  0  0  0  0  0  0  0  0  0  0  0
  131.6330  125.3450   61.5220 C   0  0  0  0  0  0  0  0  0  0  0  0
  126.2184  123.3765   61.3815 H   0  0  0  0  0  0  0  0  0  0  0  0
  128.2307  124.1207   62.4530 H   0  0  0  0  0  0  0  0  0  0  0  0
  129.8308  123.5711   64.2732 H   0  0  0  0  0  0  0  0  0  0  0  0
  131.3413  121.6049   64.0494 H   0  0  0  0  0  0  0  0  0  0  0  0
  131.2612  120.1882   62.0016 H   0  0  0  0  0  0  0  0  0  0  0  0
  129.6640  120.7360   60.1774 H   0  0  0  0  0  0  0  0  0  0  0  0
  130.3909  123.5082   55.7080 H   0  0  0  0  0  0  0  0  0  0  0  0
  129.0429  124.4955   54.9951 H   0  0  0  0  0  0  0  0  0  0  0  0
  130.4740  123.5410   58.1530 H   0  0  0  0  0  0  0  0  0  0  0  0
  130.4764  126.2789   59.1421 H   0  0  0  0  0  0  0  0  0  0  0  0
  129.3155  125.1208   59.9576 H   0  0  0  0  0  0  0  0  0  0  0  0
  131.9695  123.1617   58.9127 H   0  0  0  0  0  0  0  0  0  0  0  0
  133.8230  122.3404   60.3674 H   0  0  0  0  0  0  0  0  0  0  0  0
  134.2635  123.4477   62.5544 H   0  0  0  0  0  0  0  0  0  0  0  0
  132.8748  125.3773   63.2952 H   0  0  0  0  0  0  0  0  0  0  0  0
  131.0207  126.2008   61.8425 H   0  0  0  0  0  0  0  0  0  0  0  0
  1  2  3  0
  2  3  1  0
  3  4  2  0
  4  5  1  0
  5  6  1  0
  5  7  1  0
  5  8  1  0
  4  9  1  0
  9 10  2  0
 10 11  1  0
 11 12  2  0
 12 13  1  0
 13 14  2  0
 14 15  1  0
 15 16  2  0
 10 17  1  0
 17 18  2  0
 18 19  1  0
 19 20  1  0
 20 21  1  0
 21 22  2  0
 21 23  1  0
 23 24  1  0
 24 25  1  0
 25 26  2  0
 26 27  1  0
 27 28  2  0
 28 29  1  0
 29 30  2  0
 18  3  1  0
 30 25  1  0
 16 11  1  0
  9 31  1  0
 12 32  1  0
 13 33  1  0
 14 34  1  0
 15 35  1  0
 16 36  1  0
 20 37  1  0
 20 38  1  0
 23 39  1  0
 24 40  1  0
 24 41  1  0
 26 42  1  0
 27 43  1  0
 28 44  1  0
 29 45  1  0
 30 46  1  0
M  END
>  <Binding energies>  (1) 
[-7.1]

>  <Ligand effiencies>  (1) 
[-0.22903225806451613]

>  <Interactions>  (1) 
["V-A:ASP:366:CG:3209, V-B:ASP:366:CB:8180, V-B:ASN:362:CB:8144, V-B:TYR:539:CE1:9844, V-B:MET:535:CE:9804, V-B:PRO:540:CA:9852, V-B:TYR:539:CZ:9846, V-B:ASN:362:C:8140, V-B:PRO:540:N:9853, V-B:PRO:540:CB:9854, V-B:ASP:366:CG:8181, V-B:LEU:363:CD1:8157, V-B:LEU:363:CA:8153, V-B:ALA:541:CB:9861, H-B:TYR:539:OH:9847, V-B:GLU:543:CD:9877, V-B:GLU:543:CG:9876, V-B:TYR:539:CE2:9845, V-A:LEU:475:CD1:4254, V-B:TYR:539:CD2:9843, V-B:LEU:363:CB:8155, V-B:LEU:363:CG:8156, V-A:LEU:475:CD2:4255"]

$$$$
3ai_Grossjean_2025
     RDKit          3D

 39 41  0  0  0  0  0  0  0  0999 V2000
  131.4540  123.1720   63.7770 N   0  0  0  0  0  0  0  0  0  0  0  0
  130.7920  123.0800   62.8320 C   0  0  0  0  0  0  0  0  0  0  0  0
  129.9530  122.9620   61.6360 C   0  0  0  0  0  0  0  0  0  0  0  0
  129.6420  121.6910   61.0920 C   0  0  0  0  0  0  0  0  0  0  0  0
  130.1170  120.3730   61.7330 C   0  0  0  0  0  0  0  0  0  0  0  0
  129.3720  119.3250   61.3740 F   0  0  0  0  0  0  0  0  0  0  0  0
  131.3740  120.1170   61.3690 F   0  0  0  0  0  0  0  0  0  0  0  0
  130.0620  120.4640   63.0620 F   0  0  0  0  0  0  0  0  0  0  0  0
  128.8750  121.6340   59.9180 C   0  0  0  0  0  0  0  0  0  0  0  0
  128.4330  122.8100   59.3030 C   0  0  0  0  0  0  0  0  0  0  0  0
  127.6210  122.8080   58.0440 C   0  0  0  0  0  0  0  0  0  0  0  0
  128.2460  122.7360   56.7880 C   0  0  0  0  0  0  0  0  0  0  0  0
  127.4990  122.7290   55.6140 C   0  0  0  0  0  0  0  0  0  0  0  0
  126.1100  122.7930   55.6800 C   0  0  0  0  0  0  0  0  0  0  0  0
  125.4670  122.8630   56.9110 C   0  0  0  0  0  0  0  0  0  0  0  0
  126.2180  122.8690   58.0830 C   0  0  0  0  0  0  0  0  0  0  0  0
  128.7410  124.0260   59.8240 N   0  0  0  0  0  0  0  0  0  0  0  0
  129.4590  124.1060   60.9700 C   0  0  0  0  0  0  0  0  0  0  0  0
  129.7440  125.7780   61.5120 S   0  0  0  0  0  0  0  0  0  0  0  0
  128.1210  126.5960   61.6810 C   0  0  0  0  0  0  0  0  0  0  0  0
  127.2390  126.5530   60.4240 C   0  0  0  0  0  0  0  0  0  0  0  0
  127.5420  127.2000   59.4190 O   0  0  0  0  0  0  0  0  0  0  0  0
  126.1440  125.7670   60.5310 N   0  0  0  0  0  0  0  0  0  0  0  0
  125.1780  125.5340   59.5600 C   0  0  0  0  0  0  0  0  0  0  0  0
  124.0350  124.7690   59.7900 C   0  0  0  0  0  0  0  0  0  0  0  0
  123.3510  124.7800   58.5980 C   0  0  0  0  0  0  0  0  0  0  0  0
  124.0440  125.5130   57.6950 O   0  0  0  0  0  0  0  0  0  0  0  0
  125.2010  125.9870   58.3170 N   0  0  0  0  0  0  0  0  0  0  0  0
  128.6198  120.6583   59.4787 H   0  0  0  0  0  0  0  0  0  0  0  0
  129.3433  122.6843   56.7316 H   0  0  0  0  0  0  0  0  0  0  0  0
  128.0038  122.6731   54.6383 H   0  0  0  0  0  0  0  0  0  0  0  0
  125.5177  122.7882   54.7531 H   0  0  0  0  0  0  0  0  0  0  0  0
  124.3692  122.9134   56.9584 H   0  0  0  0  0  0  0  0  0  0  0  0
  125.7051  122.9223   59.0546 H   0  0  0  0  0  0  0  0  0  0  0  0
  127.5741  126.1038   62.4987 H   0  0  0  0  0  0  0  0  0  0  0  0
  128.3305  127.6585   61.8737 H   0  0  0  0  0  0  0  0  0  0  0  0
  126.0020  125.2870   61.4080 H   0  0  0  0  0  0  0  0  0  0  0  0
  123.7438  124.2656   60.7237 H   0  0  0  0  0  0  0  0  0  0  0  0
  122.3930  124.2739   58.4079 H   0  0  0  0  0  0  0  0  0  0  0  0
  1  2  3  0
  2  3  1  0
  3  4  2  0
  4  5  1  0
  5  6  1  0
  5  7  1  0
  5  8  1  0
  4  9  1  0
  9 10  2  0
 10 11  1  0
 11 12  2  0
 12 13  1  0
 13 14  2  0
 14 15  1  0
 15 16  2  0
 10 17  1  0
 17 18  2  0
 18 19  1  0
 19 20  1  0
 20 21  1  0
 21 22  2  0
 21 23  1  0
 23 24  1  0
 24 25  1  0
 25 26  2  0
 26 27  1  0
 27 28  1  0
 18  3  1  0
 28 24  2  0
 16 11  1  0
  9 29  1  0
 12 30  1  0
 13 31  1  0
 14 32  1  0
 15 33  1  0
 16 34  1  0
 20 35  1  0
 20 36  1  0
 23 37  1  0
 25 38  1  0
 26 39  1  0
M  END
>  <Binding energies>  (1) 
[-7.46]

>  <Ligand effiencies>  (1) 
[-0.25724137931034485]

>  <Interactions>  (1) 
["V-B:ASP:366:CB:8180, V-B:TYR:539:CE1:9844, V-B:MET:535:CE:9804, V-B:PRO:540:CA:9852, V-B:TYR:539:CZ:9846, H-B:ASP:366:OD1:8182, V-B:ASN:362:C:8140, V-B:PRO:540:N:9853, V-B:PRO:540:CB:9854, V-B:ASP:366:CG:8181, V-B:LEU:363:CD1:8157, V-B:LEU:363:CA:8153, H-B:TYR:531:OH:9764, V-B:ALA:541:CB:9861, H-B:GLU:543:OE2:9879, V-B:GLU:543:CD:9877, V-B:TYR:539:CE2:9845, V-B:ILE:538:CG2:9832, V-B:ILE:538:CB:9831, V-A:LEU:475:CD1:4254, V-B:PRO:540:CD:9856, V-B:TYR:539:C:9836, V-B:TYR:539:CD2:9843, V-B:ILE:538:CA:9829, V-B:TYR:539:CD1:9842, V-B:TYR:539:CG:9841, V-B:LEU:363:CB:8155, H-A:TYR:484:OH:4344, V-B:ALA:541:CA:9859, V-A:PRO:482:CG:4323, V-A:LEU:475:CD2:4255, V-A:LEU:475:CG:4253, V-A:PRO:482:CB:4322"]

$$$$
3aj_Grossjean_2025
     RDKit          3D

 39 41  0  0  0  0  0  0  0  0999 V2000
  133.5860  130.7710   57.3770 N   0  0  0  0  0  0  0  0  0  0  0  0
  132.6400  131.1460   57.9280 C   0  0  0  0  0  0  0  0  0  0  0  0
  131.4430  131.6200   58.6280 C   0  0  0  0  0  0  0  0  0  0  0  0
  131.3130  131.4600   60.0290 C   0  0  0  0  0  0  0  0  0  0  0  0
  132.4160  130.8300   60.9000 C   0  0  0  0  0  0  0  0  0  0  0  0
  133.5560  130.6390   60.2320 F   0  0  0  0  0  0  0  0  0  0  0  0
  132.6850  131.6210   61.9390 F   0  0  0  0  0  0  0  0  0  0  0  0
  132.0160  129.6410   61.3540 F   0  0  0  0  0  0  0  0  0  0  0  0
  130.1260  131.8890   60.6450 C   0  0  0  0  0  0  0  0  0  0  0  0
  129.0990  132.4560   59.8840 C   0  0  0  0  0  0  0  0  0  0  0  0
  127.8090  132.9210   60.4890 C   0  0  0  0  0  0  0  0  0  0  0  0
  127.0730  132.0800   61.3380 C   0  0  0  0  0  0  0  0  0  0  0  0
  125.8750  132.5070   61.9070 C   0  0  0  0  0  0  0  0  0  0  0  0
  125.3970  133.7850   61.6320 C   0  0  0  0  0  0  0  0  0  0  0  0
  126.1100  134.6370   60.7940 C   0  0  0  0  0  0  0  0  0  0  0  0
  127.3060  134.2070   60.2290 C   0  0  0  0  0  0  0  0  0  0  0  0
  129.2260  132.6000   58.5400 N   0  0  0  0  0  0  0  0  0  0  0  0
  130.3700  132.2170   57.9260 C   0  0  0  0  0  0  0  0  0  0  0  0
  130.3640  132.5030   56.1690 S   0  0  0  0  0  0  0  0  0  0  0  0
  129.3330  131.2100   55.3950 C   0  0  0  0  0  0  0  0  0  0  0  0
  127.8230  131.3560   55.6310 C   0  0  0  0  0  0  0  0  0  0  0  0
  127.0540  131.5570   54.6880 O   0  0  0  0  0  0  0  0  0  0  0  0
  127.4400  131.2450   56.9220 N   0  0  0  0  0  0  0  0  0  0  0  0
  126.1430  131.3280   57.4130 C   0  0  0  0  0  0  0  0  0  0  0  0
  125.7430  131.8490   58.5530 N   0  0  0  0  0  0  0  0  0  0  0  0
  124.4350  131.7610   58.6940 C   0  0  0  0  0  0  0  0  0  0  0  0
  123.7430  131.1550   57.6490 C   0  0  0  0  0  0  0  0  0  0  0  0
  124.8770  130.6770   56.4220 S   0  0  0  0  0  0  0  0  0  0  0  0
  130.0035  131.7783   61.7325 H   0  0  0  0  0  0  0  0  0  0  0  0
  127.4474  131.0692   61.5574 H   0  0  0  0  0  0  0  0  0  0  0  0
  125.3092  131.8368   62.5709 H   0  0  0  0  0  0  0  0  0  0  0  0
  124.4507  134.1233   62.0794 H   0  0  0  0  0  0  0  0  0  0  0  0
  125.7293  135.6464   60.5793 H   0  0  0  0  0  0  0  0  0  0  0  0
  127.8669  134.8843   59.5682 H   0  0  0  0  0  0  0  0  0  0  0  0
  129.5127  131.2344   54.3100 H   0  0  0  0  0  0  0  0  0  0  0  0
  129.6271  130.2601   55.8653 H   0  0  0  0  0  0  0  0  0  0  0  0
  128.1600  131.0740   57.6090 H   0  0  0  0  0  0  0  0  0  0  0  0
  123.9197  132.1447   59.5869 H   0  0  0  0  0  0  0  0  0  0  0  0
  122.6543  131.0033   57.6068 H   0  0  0  0  0  0  0  0  0  0  0  0
  1  2  3  0
  2  3  1  0
  3  4  2  0
  4  5  1  0
  5  6  1  0
  5  7  1  0
  5  8  1  0
  4  9  1  0
  9 10  2  0
 10 11  1  0
 11 12  2  0
 12 13  1  0
 13 14  2  0
 14 15  1  0
 15 16  2  0
 10 17  1  0
 17 18  2  0
 18 19  1  0
 19 20  1  0
 20 21  1  0
 21 22  2  0
 21 23  1  0
 23 24  1  0
 24 25  2  0
 25 26  1  0
 26 27  2  0
 27 28  1  0
 18  3  1  0
 28 24  1  0
 16 11  1  0
  9 29  1  0
 12 30  1  0
 13 31  1  0
 14 32  1  0
 15 33  1  0
 16 34  1  0
 20 35  1  0
 20 36  1  0
 23 37  1  0
 26 38  1  0
 27 39  1  0
M  END
>  <Binding energies>  (1) 
[-7.09]

>  <Ligand effiencies>  (1) 
[-0.24448275862068966]

>  <Interactions>  (1) 
["V-A:TYR:539:CD2:4871, V-A:PRO:540:CB:4882, V-A:PRO:540:CA:4880, V-A:PRO:540:N:4881, V-A:TYR:539:C:4864, V-B:TRP:381:CH2:8340, V-A:LEU:363:CA:3181, V-A:ASP:366:CG:3209, V-A:ASN:362:CB:3172, V-A:GLU:543:CD:4905, V-A:ASN:362:C:3168, V-A:TYR:539:CE2:4873, V-B:LEU:475:CD2:9227, V-A:ILE:538:CD1:4862, V-B:ASP:366:CA:8178, V-B:ASP:366:CB:8180, H-A:TYR:531:OH:4792, V-B:TYR:531:CZ:9763, V-B:ILE:369:CG2:8205, V-B:ASP:366:CG:8181, V-A:TYR:539:CZ:4874, V-A:ARG:545:CZ:4923, V-A:GLU:543:CG:4904, H-A:TYR:539:N:4867, V-A:PRO:540:C:4878, V-A:ASN:362:CA:3170, V-B:TYR:531:CE1:9761, V-B:ILE:369:CB:8204, V-B:ASP:366:C:8176, H-A:TYR:539:OH:4875, V-A:ASN:362:CG:3173, V-A:ALA:541:C:4885"]

$$$$
3ak_Grossjean_2025
     RDKit          3D

 57 58  0  0  0  0  0  0  0  0999 V2000
  127.9560  122.5050   54.9890 C   0  0  0  0  0  0  0  0  0  0  0  0
  127.0400  121.7620   55.7780 O   0  0  0  0  0  0  0  0  0  0  0  0
  126.7680  122.3580   57.0390 C   0  0  0  0  0  0  0  0  0  0  0  0
  128.0650  122.9540   57.5990 C   0  0  0  0  0  0  0  0  0  0  0  0
  128.5660  122.0960   58.6190 O   0  0  0  0  0  0  0  0  0  0  0  0
  128.2560  122.4830   59.9550 C   0  0  0  0  0  0  0  0  0  0  0  0
  129.4070  122.2490   60.9510 C   0  0  0  0  0  0  0  0  0  0  0  0
  130.0530  123.4860   61.2180 O   0  0  0  0  0  0  0  0  0  0  0  0
  131.0890  123.8050   60.2990 C   0  0  0  0  0  0  0  0  0  0  0  0
  132.1930  124.6150   61.0030 C   0  0  0  0  0  0  0  0  0  0  0  0
  131.9660  124.7890   62.4390 N   0  0  0  0  0  0  0  0  0  0  0  0
  132.9200  124.8300   63.3900 C   0  0  0  0  0  0  0  0  0  0  0  0
  134.1210  124.7390   63.1340 O   0  0  0  0  0  0  0  0  0  0  0  0
  132.4940  124.9960   64.8580 C   0  0  0  0  0  0  0  0  0  0  0  0
  130.8220  124.3940   65.2990 S   0  0  0  0  0  0  0  0  0  0  0  0
  129.8520  125.7740   65.8860 C   0  0  0  0  0  0  0  0  0  0  0  0
  129.7530  125.8890   67.2330 N   0  0  0  0  0  0  0  0  0  0  0  0
  129.0310  126.9020   67.7760 C   0  0  0  0  0  0  0  0  0  0  0  0
  128.9750  126.9540   69.2740 C   0  0  0  0  0  0  0  0  0  0  0  0
  129.9380  127.6700   70.0040 C   0  0  0  0  0  0  0  0  0  0  0  0
  129.8890  127.7250   71.3940 C   0  0  0  0  0  0  0  0  0  0  0  0
  128.8720  127.0640   72.0750 C   0  0  0  0  0  0  0  0  0  0  0  0
  127.9050  126.3500   71.3770 C   0  0  0  0  0  0  0  0  0  0  0  0
  127.9560  126.2980   69.9860 C   0  0  0  0  0  0  0  0  0  0  0  0
  128.3970  127.8470   66.9620 C   0  0  0  0  0  0  0  0  0  0  0  0
  128.4850  127.7520   65.5660 C   0  0  0  0  0  0  0  0  0  0  0  0
  127.7710  128.8100   64.7020 C   0  0  0  0  0  0  0  0  0  0  0  0
  126.4820  128.4970   64.5700 F   0  0  0  0  0  0  0  0  0  0  0  0
  127.8680  130.0100   65.2760 F   0  0  0  0  0  0  0  0  0  0  0  0
  128.2870  128.9110   63.4750 F   0  0  0  0  0  0  0  0  0  0  0  0
  129.2310  126.6870   65.0060 C   0  0  0  0  0  0  0  0  0  0  0  0
  129.3580  126.5370   63.5530 C   0  0  0  0  0  0  0  0  0  0  0  0
  129.4570  126.4180   62.4050 N   0  0  0  0  0  0  0  0  0  0  0  0
  128.6405  123.0602   55.6471 H   0  0  0  0  0  0  0  0  0  0  0  0
  128.5346  121.8178   54.3541 H   0  0  0  0  0  0  0  0  0  0  0  0
  127.4030  123.2129   54.3541 H   0  0  0  0  0  0  0  0  0  0  0  0
  126.0188  123.1541   56.9168 H   0  0  0  0  0  0  0  0  0  0  0  0
  126.3777  121.5988   57.7327 H   0  0  0  0  0  0  0  0  0  0  0  0
  128.8085  123.0424   56.7931 H   0  0  0  0  0  0  0  0  0  0  0  0
  127.8658  123.9518   58.0169 H   0  0  0  0  0  0  0  0  0  0  0  0
  128.0075  123.5546   59.9572 H   0  0  0  0  0  0  0  0  0  0  0  0
  127.4143  121.8558   60.2839 H   0  0  0  0  0  0  0  0  0  0  0  0
  129.0048  121.8345   61.8872 H   0  0  0  0  0  0  0  0  0  0  0  0
  130.1297  121.5402   60.5205 H   0  0  0  0  0  0  0  0  0  0  0  0
  131.5194  122.8749   59.8994 H   0  0  0  0  0  0  0  0  0  0  0  0
  130.6693  124.4068   59.4795 H   0  0  0  0  0  0  0  0  0  0  0  0
  133.1508  124.0925   60.8630 H   0  0  0  0  0  0  0  0  0  0  0  0
  132.1945  125.6185   60.5524 H   0  0  0  0  0  0  0  0  0  0  0  0
  131.0040  124.8900   62.7270 H   0  0  0  0  0  0  0  0  0  0  0  0
  133.2197  124.4513   65.4798 H   0  0  0  0  0  0  0  0  0  0  0  0
  132.4665  126.0819   65.0312 H   0  0  0  0  0  0  0  0  0  0  0  0
  130.7430  128.1952   69.4691 H   0  0  0  0  0  0  0  0  0  0  0  0
  130.6513  128.2888   71.9516 H   0  0  0  0  0  0  0  0  0  0  0  0
  128.8328  127.1066   73.1735 H   0  0  0  0  0  0  0  0  0  0  0  0
  127.1033  125.8285   71.9205 H   0  0  0  0  0  0  0  0  0  0  0  0
  127.1872  125.7351   69.4364 H   0  0  0  0  0  0  0  0  0  0  0  0
  127.8266  128.6687   67.4197 H   0  0  0  0  0  0  0  0  0  0  0  0
  1  2  1  0
  2  3  1  0
  3  4  1  0
  4  5  1  0
  5  6  1  0
  6  7  1  0
  7  8  1  0
  8  9  1  0
  9 10  1  0
 10 11  1  0
 11 12  1  0
 12 13  2  0
 12 14  1  0
 14 15  1  0
 15 16  1  0
 16 17  2  0
 17 18  1  0
 18 19  1  0
 19 20  2  0
 20 21  1  0
 21 22  2  0
 22 23  1  0
 23 24  2  0
 18 25  2  0
 25 26  1  0
 26 27  1  0
 27 28  1  0
 27 29  1  0
 27 30  1  0
 26 31  2  0
 31 32  1  0
 32 33  3  0
 31 16  1  0
 24 19  1  0
  1 34  1  0
  1 35  1  0
  1 36  1  0
  3 37  1  0
  3 38  1  0
  4 39  1  0
  4 40  1  0
  6 41  1  0
  6 42  1  0
  7 43  1  0
  7 44  1  0
  9 45  1  0
  9 46  1  0
 10 47  1  0
 10 48  1  0
 11 49  1  0
 14 50  1  0
 14 51  1  0
 20 52  1  0
 21 53  1  0
 22 54  1  0
 23 55  1  0
 24 56  1  0
 25 57  1  0
M  END
>  <Binding energies>  (1) 
[-6.86]

>  <Ligand effiencies>  (1) 
[-0.20176470588235296]

>  <Interactions>  (1) 
["V-A:ASP:366:CG:3209, V-A:GLU:543:CD:4905, V-B:GLU:543:C:9871, V-B:LYS:547:CE:9919, V-A:HIS:456:CE1:4066, V-A:GLU:543:CB:4903, V-B:HIS:456:CE1:9038, V-B:GLY:544:C:9881, V-B:HIS:456:CD2:9036, V-B:TYR:539:CE1:9844, V-B:MET:535:CE:9804, V-B:PRO:540:CA:9852, V-B:TYR:539:CZ:9846, V-B:PRO:540:N:9853, V-B:PRO:540:CB:9854, H-B:TYR:539:N:9839, V-B:ALA:541:CB:9861, V-B:GLU:543:CD:9877, V-B:GLU:543:CG:9876, V-A:ARG:545:CZ:4923, H-A:ARG:545:NH2:4925, V-B:TYR:539:CE2:9845, V-A:GLU:543:CG:4904, V-B:ILE:538:CG2:9832, V-B:ILE:538:CB:9831, V-B:PRO:540:CD:9856, V-B:TYR:539:C:9836, V-B:TYR:539:CD2:9843, V-B:ILE:538:CA:9829, V-B:TYR:539:CD1:9842, H-A:GLY:454:N:4046, H-A:ARG:545:NH1:4924, H-A:TYR:484:OH:4344"]

$$$$
3bc_Grossjean_2025
     RDKit          3D

 47 49  0  0  0  0  0  0  0  0999 V2000
  125.8300  122.5550   55.9090 C   0  0  0  0  0  0  0  0  0  0  0  0
  127.0090  122.1090   56.5710 O   0  0  0  0  0  0  0  0  0  0  0  0
  127.2140  122.4640   57.8910 C   0  0  0  0  0  0  0  0  0  0  0  0
  128.2540  121.8130   58.5550 C   0  0  0  0  0  0  0  0  0  0  0  0
  128.5370  122.1030   59.8870 C   0  0  0  0  0  0  0  0  0  0  0  0
  127.7740  123.0470   60.5780 C   0  0  0  0  0  0  0  0  0  0  0  0
  128.1420  123.2830   61.9160 N   0  0  0  0  0  0  0  0  0  0  0  0
  129.3570  123.1820   62.4960 C   0  0  0  0  0  0  0  0  0  0  0  0
  130.3960  122.8880   61.9010 O   0  0  0  0  0  0  0  0  0  0  0  0
  129.3810  123.5090   63.9960 C   0  0  0  0  0  0  0  0  0  0  0  0
  130.5620  124.8100   64.4880 S   0  0  0  0  0  0  0  0  0  0  0  0
  129.6350  126.1340   65.2300 C   0  0  0  0  0  0  0  0  0  0  0  0
  129.6980  126.1520   66.5840 N   0  0  0  0  0  0  0  0  0  0  0  0
  129.0370  127.1130   67.2800 C   0  0  0  0  0  0  0  0  0  0  0  0
  129.1410  127.0500   68.7750 C   0  0  0  0  0  0  0  0  0  0  0  0
  130.1500  127.7490   69.4540 C   0  0  0  0  0  0  0  0  0  0  0  0
  130.2520  127.6950   70.8420 C   0  0  0  0  0  0  0  0  0  0  0  0
  129.3430  126.9360   71.5710 C   0  0  0  0  0  0  0  0  0  0  0  0
  128.3340  126.2310   70.9220 C   0  0  0  0  0  0  0  0  0  0  0  0
  128.2370  126.2870   69.5340 C   0  0  0  0  0  0  0  0  0  0  0  0
  128.2870  128.0910   66.6190 C   0  0  0  0  0  0  0  0  0  0  0  0
  128.2300  128.1000   65.2210 C   0  0  0  0  0  0  0  0  0  0  0  0
  127.4120  129.1970   64.5400 C   0  0  0  0  0  0  0  0  0  0  0  0
  128.9250  127.1090   64.4940 C   0  0  0  0  0  0  0  0  0  0  0  0
  128.9200  127.1290   63.0300 C   0  0  0  0  0  0  0  0  0  0  0  0
  128.9140  127.1470   61.8730 N   0  0  0  0  0  0  0  0  0  0  0  0
  126.7360  123.7160   59.9140 C   0  0  0  0  0  0  0  0  0  0  0  0
  126.4560  123.4230   58.5810 C   0  0  0  0  0  0  0  0  0  0  0  0
  125.0754  122.8405   56.6567 H   0  0  0  0  0  0  0  0  0  0  0  0
  126.0697  123.4246   55.2794 H   0  0  0  0  0  0  0  0  0  0  0  0
  125.4341  121.7445   55.2794 H   0  0  0  0  0  0  0  0  0  0  0  0
  128.8563  121.0633   58.0210 H   0  0  0  0  0  0  0  0  0  0  0  0
  129.3640  121.5871   60.3967 H   0  0  0  0  0  0  0  0  0  0  0  0
  127.3950  123.6310   62.4990 H   0  0  0  0  0  0  0  0  0  0  0  0
  128.3725  123.8361   64.2893 H   0  0  0  0  0  0  0  0  0  0  0  0
  129.7096  122.5902   64.5038 H   0  0  0  0  0  0  0  0  0  0  0  0
  130.8721  128.3493   68.8811 H   0  0  0  0  0  0  0  0  0  0  0  0
  131.0482  128.2504   71.3594 H   0  0  0  0  0  0  0  0  0  0  0  0
  129.4221  126.8927   72.6673 H   0  0  0  0  0  0  0  0  0  0  0  0
  127.6166  125.6324   71.5025 H   0  0  0  0  0  0  0  0  0  0  0  0
  127.4406  125.7254   69.0237 H   0  0  0  0  0  0  0  0  0  0  0  0
  127.7427  128.8521   67.1973 H   0  0  0  0  0  0  0  0  0  0  0  0
  126.9396  129.8306   65.3051 H   0  0  0  0  0  0  0  0  0  0  0  0
  128.0739  129.8118   63.9124 H   0  0  0  0  0  0  0  0  0  0  0  0
  126.6339  128.7381   63.9124 H   0  0  0  0  0  0  0  0  0  0  0  0
  126.1418  124.4733   60.4463 H   0  0  0  0  0  0  0  0  0  0  0  0
  125.6364  123.9461   58.0665 H   0  0  0  0  0  0  0  0  0  0  0  0
  1  2  1  0
  2  3  1  0
  3  4  2  0
  4  5  1  0
  5  6  2  0
  6  7  1  0
  7  8  1  0
  8  9  2  0
  8 10  1  0
 10 11  1  0
 11 12  1  0
 12 13  2  0
 13 14  1  0
 14 15  1  0
 15 16  2  0
 16 17  1  0
 17 18  2  0
 18 19  1  0
 19 20  2  0
 14 21  2  0
 21 22  1  0
 22 23  1  0
 22 24  2  0
 24 25  1  0
 25 26  3  0
  6 27  1  0
 27 28  2  0
 28  3  1  0
 24 12  1  0
 20 15  1  0
  1 29  1  0
  1 30  1  0
  1 31  1  0
  4 32  1  0
  5 33  1  0
  7 34  1  0
 10 35  1  0
 10 36  1  0
 16 37  1  0
 17 38  1  0
 18 39  1  0
 19 40  1  0
 20 41  1  0
 21 42  1  0
 23 43  1  0
 23 44  1  0
 23 45  1  0
 27 46  1  0
 28 47  1  0
M  END
>  <Binding energies>  (1) 
[-8.35]

>  <Ligand effiencies>  (1) 
[-0.2879310344827586]

>  <Interactions>  (1) 
["V-A:GLU:543:CD:4905, V-B:GLU:543:C:9871, V-A:HIS:456:CE1:4066, V-A:HIS:456:CD2:4064, V-B:HIS:456:CE1:9038, V-B:TYR:539:CE1:9844, V-B:PRO:540:CA:9852, V-B:TYR:539:CZ:9846, V-B:PRO:540:N:9853, V-B:PRO:540:CB:9854, H-B:TYR:539:N:9839, V-B:LEU:363:CD1:8157, V-B:ALA:541:CB:9861, H-B:GLU:543:OE2:9879, V-B:GLU:543:CD:9877, V-B:GLU:543:CG:9876, V-B:TYR:539:CE2:9845, V-B:ILE:538:CG2:9832, V-B:ILE:538:CB:9831, V-B:PRO:540:CD:9856, V-B:TYR:539:C:9836, V-B:TYR:539:CD2:9843, V-B:TYR:539:CD1:9842, V-B:TYR:539:CG:9841"]

$$$$
3bd_Grossjean_2025
     RDKit          3D

 43 45  0  0  0  0  0  0  0  0999 V2000
  129.3780  128.8730   60.7170 C   0  0  0  0  0  0  0  0  0  0  0  0
  130.3110  128.9470   59.5090 C   0  0  0  0  0  0  0  0  0  0  0  0
  130.3460  127.8570   58.6320 C   0  0  0  0  0  0  0  0  0  0  0  0
  131.1900  127.8850   57.5160 C   0  0  0  0  0  0  0  0  0  0  0  0
  131.2730  126.7540   56.5350 C   0  0  0  0  0  0  0  0  0  0  0  0
  132.4940  126.4200   55.9260 C   0  0  0  0  0  0  0  0  0  0  0  0
  132.5780  125.3720   55.0130 C   0  0  0  0  0  0  0  0  0  0  0  0
  131.4370  124.6420   54.6940 C   0  0  0  0  0  0  0  0  0  0  0  0
  130.2150  124.9540   55.2800 C   0  0  0  0  0  0  0  0  0  0  0  0
  130.1360  126.0030   56.1920 C   0  0  0  0  0  0  0  0  0  0  0  0
  131.9710  128.9670   57.2620 N   0  0  0  0  0  0  0  0  0  0  0  0
  131.9500  130.0330   58.1020 C   0  0  0  0  0  0  0  0  0  0  0  0
  133.0300  131.3850   57.6640 S   0  0  0  0  0  0  0  0  0  0  0  0
  132.3980  132.1380   56.1350 C   0  0  0  0  0  0  0  0  0  0  0  0
  130.8690  132.1440   56.0890 C   0  0  0  0  0  0  0  0  0  0  0  0
  130.2690  133.2000   56.2900 O   0  0  0  0  0  0  0  0  0  0  0  0
  130.2860  130.9520   55.8370 N   0  0  0  0  0  0  0  0  0  0  0  0
  128.9190  130.6450   55.7070 C   0  0  0  0  0  0  0  0  0  0  0  0
  128.0670  131.2220   56.6520 C   0  0  0  0  0  0  0  0  0  0  0  0
  126.6980  130.9690   56.6090 C   0  0  0  0  0  0  0  0  0  0  0  0
  126.1820  130.1290   55.6270 C   0  0  0  0  0  0  0  0  0  0  0  0
  127.0230  129.5360   54.6870 C   0  0  0  0  0  0  0  0  0  0  0  0
  128.3910  129.7890   54.7270 C   0  0  0  0  0  0  0  0  0  0  0  0
  131.1290  130.0670   59.2500 C   0  0  0  0  0  0  0  0  0  0  0  0
  131.1140  131.2250   60.1490 C   0  0  0  0  0  0  0  0  0  0  0  0
  131.1010  132.1390   60.8590 N   0  0  0  0  0  0  0  0  0  0  0  0
  129.9714  128.9201   61.6420 H   0  0  0  0  0  0  0  0  0  0  0  0
  128.6745  129.7182   60.6893 H   0  0  0  0  0  0  0  0  0  0  0  0
  128.8165  127.9275   60.6893 H   0  0  0  0  0  0  0  0  0  0  0  0
  129.7106  126.9789   58.8197 H   0  0  0  0  0  0  0  0  0  0  0  0
  133.3980  126.9954   56.1743 H   0  0  0  0  0  0  0  0  0  0  0  0
  133.5421  125.1222   54.5459 H   0  0  0  0  0  0  0  0  0  0  0  0
  131.5021  123.8130   53.9739 H   0  0  0  0  0  0  0  0  0  0  0  0
  129.3154  124.3749   55.0243 H   0  0  0  0  0  0  0  0  0  0  0  0
  129.1672  126.2480   56.6518 H   0  0  0  0  0  0  0  0  0  0  0  0
  132.7592  133.1752   56.0742 H   0  0  0  0  0  0  0  0  0  0  0  0
  132.7612  131.5399   55.2863 H   0  0  0  0  0  0  0  0  0  0  0  0
  130.9020  130.1540   55.7850 H   0  0  0  0  0  0  0  0  0  0  0  0
  128.4788  131.8784   57.4327 H   0  0  0  0  0  0  0  0  0  0  0  0
  126.0275  131.4314   57.3483 H   0  0  0  0  0  0  0  0  0  0  0  0
  125.1005  129.9312   55.5923 H   0  0  0  0  0  0  0  0  0  0  0  0
  126.6070  128.8704   53.9163 H   0  0  0  0  0  0  0  0  0  0  0  0
  129.0589  129.3182   53.9906 H   0  0  0  0  0  0  0  0  0  0  0  0
  1  2  1  0
  2  3  2  0
  3  4  1  0
  4  5  1  0
  5  6  2  0
  6  7  1  0
  7  8  2  0
  8  9  1  0
  9 10  2  0
  4 11  2  0
 11 12  1  0
 12 13  1  0
 13 14  1  0
 14 15  1  0
 15 16  2  0
 15 17  1  0
 17 18  1  0
 18 19  2  0
 19 20  1  0
 20 21  2  0
 21 22  1  0
 22 23  2  0
 12 24  2  0
 24 25  1  0
 25 26  3  0
 24  2  1  0
 10  5  1  0
 23 18  1  0
  1 27  1  0
  1 28  1  0
  1 29  1  0
  3 30  1  0
  6 31  1  0
  7 32  1  0
  8 33  1  0
  9 34  1  0
 10 35  1  0
 14 36  1  0
 14 37  1  0
 17 38  1  0
 19 39  1  0
 20 40  1  0
 21 41  1  0
 22 42  1  0
 23 43  1  0
M  END
>  <Binding energies>  (1) 
[-8.14]

>  <Ligand effiencies>  (1) 
[-0.3014814814814815]

>  <Interactions>  (1) 
["V-A:PRO:540:CB:4882, V-A:PRO:540:CA:4880, V-A:PRO:540:N:4881, V-A:LEU:363:CD1:3185, V-A:ASP:366:CB:3208, V-A:ASP:366:CG:3209, V-A:TYR:539:CE2:4873, H-A:ALA:541:N:4888, V-A:ILE:538:CD1:4862, H-A:TYR:531:OH:4792, V-B:TYR:539:CE1:9844, V-B:MET:535:CE:9804, V-A:ASP:366:C:3204, V-A:TYR:531:CZ:4791, V-A:TYR:531:CE1:4789, V-B:TYR:531:CZ:9763, V-A:ILE:538:CG2:4860, V-A:TYR:539:CZ:4874, V-A:ASN:370:CG:3242, V-A:ASN:370:CB:3241, V-A:PRO:540:CD:4884, H-A:TYR:539:N:4867, V-B:TYR:531:CE1:9761"]

$$$$
3be_Grossjean_2025
     RDKit          3D

 45 47  0  0  0  0  0  0  0  0999 V2000
  126.4000  128.5250   57.6330 C   0  0  0  0  0  0  0  0  0  0  0  0
  126.9970  129.4690   56.6080 C   0  0  0  0  0  0  0  0  0  0  0  0
  126.2230  130.0250   55.5860 C   0  0  0  0  0  0  0  0  0  0  0  0
  126.8400  130.8840   54.6770 C   0  0  0  0  0  0  0  0  0  0  0  0
  128.2030  131.1650   54.8090 C   0  0  0  0  0  0  0  0  0  0  0  0
  128.9190  130.5770   55.8570 C   0  0  0  0  0  0  0  0  0  0  0  0
  130.2890  130.8910   55.9300 N   0  0  0  0  0  0  0  0  0  0  0  0
  130.8750  132.1040   56.0250 C   0  0  0  0  0  0  0  0  0  0  0  0
  130.2650  133.1750   56.0570 O   0  0  0  0  0  0  0  0  0  0  0  0
  132.4100  132.0730   56.0940 C   0  0  0  0  0  0  0  0  0  0  0  0
  133.1030  131.2990   57.5950 S   0  0  0  0  0  0  0  0  0  0  0  0
  132.0180  129.9770   58.0860 C   0  0  0  0  0  0  0  0  0  0  0  0
  132.0290  128.9220   57.2360 N   0  0  0  0  0  0  0  0  0  0  0  0
  131.2480  127.8380   57.4920 C   0  0  0  0  0  0  0  0  0  0  0  0
  131.3080  126.7190   56.4950 C   0  0  0  0  0  0  0  0  0  0  0  0
  130.1580  125.9750   56.1820 C   0  0  0  0  0  0  0  0  0  0  0  0
  130.2070  124.9340   55.2600 C   0  0  0  0  0  0  0  0  0  0  0  0
  131.4090  124.6200   54.6360 C   0  0  0  0  0  0  0  0  0  0  0  0
  132.5630  125.3390   54.9290 C   0  0  0  0  0  0  0  0  0  0  0  0
  132.5100  126.3790   55.8530 C   0  0  0  0  0  0  0  0  0  0  0  0
  130.4270  127.7970   58.6240 C   0  0  0  0  0  0  0  0  0  0  0  0
  130.4230  128.8670   59.5240 C   0  0  0  0  0  0  0  0  0  0  0  0
  129.5240  128.7700   60.7550 C   0  0  0  0  0  0  0  0  0  0  0  0
  131.2430  129.9880   59.2680 C   0  0  0  0  0  0  0  0  0  0  0  0
  131.2950  131.0960   60.2250 C   0  0  0  0  0  0  0  0  0  0  0  0
  131.3350  131.9700   60.9820 N   0  0  0  0  0  0  0  0  0  0  0  0
  128.3210  129.7330   56.7490 N   0  0  0  0  0  0  0  0  0  0  0  0
  126.6304  128.8893   58.6450 H   0  0  0  0  0  0  0  0  0  0  0  0
  125.3091  128.4804   57.4989 H   0  0  0  0  0  0  0  0  0  0  0  0
  126.8273  127.5203   57.4989 H   0  0  0  0  0  0  0  0  0  0  0  0
  125.1517  129.7905   55.5005 H   0  0  0  0  0  0  0  0  0  0  0  0
  126.2578  131.3376   53.8613 H   0  0  0  0  0  0  0  0  0  0  0  0
  128.7052  131.8387   54.0991 H   0  0  0  0  0  0  0  0  0  0  0  0
  130.9060  130.0940   55.8770 H   0  0  0  0  0  0  0  0  0  0  0  0
  132.7790  131.5143   55.2213 H   0  0  0  0  0  0  0  0  0  0  0  0
  132.7368  133.1232   56.1125 H   0  0  0  0  0  0  0  0  0  0  0  0
  129.2045  126.2191   56.6732 H   0  0  0  0  0  0  0  0  0  0  0  0
  129.2976  124.3613   55.0256 H   0  0  0  0  0  0  0  0  0  0  0  0
  131.4476  123.7979   53.9061 H   0  0  0  0  0  0  0  0  0  0  0  0
  133.5122  125.0873   54.4334 H   0  0  0  0  0  0  0  0  0  0  0  0
  133.4250  126.9440   56.0842 H   0  0  0  0  0  0  0  0  0  0  0  0
  129.7845  126.9229   58.8060 H   0  0  0  0  0  0  0  0  0  0  0  0
  130.1392  128.8364   61.6645 H   0  0  0  0  0  0  0  0  0  0  0  0
  128.7963  129.5948   60.7435 H   0  0  0  0  0  0  0  0  0  0  0  0
  128.9890  127.8089   60.7435 H   0  0  0  0  0  0  0  0  0  0  0  0
  1  2  1  0
  2  3  2  0
  3  4  1  0
  4  5  2  0
  5  6  1  0
  6  7  1  0
  7  8  1  0
  8  9  2  0
  8 10  1  0
 10 11  1  0
 11 12  1  0
 12 13  2  0
 13 14  1  0
 14 15  1  0
 15 16  2  0
 16 17  1  0
 17 18  2  0
 18 19  1  0
 19 20  2  0
 14 21  2  0
 21 22  1  0
 22 23  1  0
 22 24  2  0
 24 25  1  0
 25 26  3  0
  6 27  2  0
 27  2  1  0
 24 12  1  0
 20 15  1  0
  1 28  1  0
  1 29  1  0
  1 30  1  0
  3 31  1  0
  4 32  1  0
  5 33  1  0
  7 34  1  0
 10 35  1  0
 10 36  1  0
 16 37  1  0
 17 38  1  0
 18 39  1  0
 19 40  1  0
 20 41  1  0
 21 42  1  0
 23 43  1  0
 23 44  1  0
 23 45  1  0
M  END
>  <Binding energies>  (1) 
[-8.18]

>  <Ligand effiencies>  (1) 
[-0.29214285714285715]

>  <Interactions>  (1) 
["V-A:PRO:540:CB:4882, V-A:PRO:540:CA:4880, V-A:LEU:363:CD1:3185, V-A:ASP:366:CB:3208, V-A:ASP:366:CG:3209, H-A:ALA:541:N:4888, V-A:ILE:538:CD1:4862, H-A:TYR:531:OH:4792, V-B:TYR:539:CE1:9844, V-B:MET:535:CE:9804, V-A:ASP:366:C:3204, V-A:TYR:531:CZ:4791, V-A:TYR:531:CE1:4789, V-B:TYR:531:CZ:9763, V-A:ILE:538:CG2:4860, V-A:TYR:539:CZ:4874, V-A:ASN:370:CG:3242, V-A:ASN:370:CB:3241, V-A:PRO:540:CD:4884, H-A:TYR:539:N:4867, V-B:TYR:531:CE1:9761, V-A:TYR:531:CE2:4790"]

$$$$
3bf_Grossjean_2025
     RDKit          3D

 42 44  0  0  0  0  0  0  0  0999 V2000
  129.0480  129.0060   60.4940 C   0  0  0  0  0  0  0  0  0  0  0  0
  130.0970  129.0280   59.3850 C   0  0  0  0  0  0  0  0  0  0  0  0
  130.1680  127.9290   58.5230 C   0  0  0  0  0  0  0  0  0  0  0  0
  131.1050  127.9140   57.4840 C   0  0  0  0  0  0  0  0  0  0  0  0
  131.2170  126.7770   56.5130 C   0  0  0  0  0  0  0  0  0  0  0  0
  130.1400  125.9010   56.3100 C   0  0  0  0  0  0  0  0  0  0  0  0
  130.2360  124.8420   55.4100 C   0  0  0  0  0  0  0  0  0  0  0  0
  131.4160  124.6460   54.7000 C   0  0  0  0  0  0  0  0  0  0  0  0
  132.4990  125.5000   54.8850 C   0  0  0  0  0  0  0  0  0  0  0  0
  132.3980  126.5560   55.7860 C   0  0  0  0  0  0  0  0  0  0  0  0
  131.9550  128.9590   57.2970 N   0  0  0  0  0  0  0  0  0  0  0  0
  131.9150  130.0200   58.1400 C   0  0  0  0  0  0  0  0  0  0  0  0
  133.1020  131.2870   57.7470 S   0  0  0  0  0  0  0  0  0  0  0  0
  132.5380  132.1420   56.2370 C   0  0  0  0  0  0  0  0  0  0  0  0
  131.0160  132.1810   56.0390 C   0  0  0  0  0  0  0  0  0  0  0  0
  130.4030  133.2490   56.0830 O   0  0  0  0  0  0  0  0  0  0  0  0
  130.4490  130.9800   55.7920 N   0  0  0  0  0  0  0  0  0  0  0  0
  129.0930  130.6700   55.5790 C   0  0  0  0  0  0  0  0  0  0  0  0
  128.5870  129.5390   56.2280 C   0  0  0  0  0  0  0  0  0  0  0  0
  127.2450  129.1860   56.0670 C   0  0  0  0  0  0  0  0  0  0  0  0
  126.4390  129.9870   55.2580 C   0  0  0  0  0  0  0  0  0  0  0  0
  126.9000  131.0950   54.6250 N   0  0  0  0  0  0  0  0  0  0  0  0
  128.2070  131.4250   54.7910 C   0  0  0  0  0  0  0  0  0  0  0  0
  130.9830  130.1110   59.1970 C   0  0  0  0  0  0  0  0  0  0  0  0
  130.8930  131.2930   60.0580 C   0  0  0  0  0  0  0  0  0  0  0  0
  130.8210  132.2260   60.7390 N   0  0  0  0  0  0  0  0  0  0  0  0
  129.5493  129.0165   61.4731 H   0  0  0  0  0  0  0  0  0  0  0  0
  128.4006  129.8908   60.4040 H   0  0  0  0  0  0  0  0  0  0  0  0
  128.4383  128.0949   60.4040 H   0  0  0  0  0  0  0  0  0  0  0  0
  129.4871  127.0763   58.6619 H   0  0  0  0  0  0  0  0  0  0  0  0
  129.2055  126.0527   56.8701 H   0  0  0  0  0  0  0  0  0  0  0  0
  129.3826  124.1640   55.2615 H   0  0  0  0  0  0  0  0  0  0  0  0
  131.4935  123.8110   53.9881 H   0  0  0  0  0  0  0  0  0  0  0  0
  133.4305  125.3412   54.3218 H   0  0  0  0  0  0  0  0  0  0  0  0
  133.2567  127.2280   55.9309 H   0  0  0  0  0  0  0  0  0  0  0  0
  132.9029  133.1790   56.2764 H   0  0  0  0  0  0  0  0  0  0  0  0
  132.9417  131.5666   55.3909 H   0  0  0  0  0  0  0  0  0  0  0  0
  131.0780  130.1950   55.7010 H   0  0  0  0  0  0  0  0  0  0  0  0
  129.2447  128.9285   56.8641 H   0  0  0  0  0  0  0  0  0  0  0  0
  126.8333  128.2967   56.5667 H   0  0  0  0  0  0  0  0  0  0  0  0
  125.3830  129.7080   55.1275 H   0  0  0  0  0  0  0  0  0  0  0  0
  128.5897  132.3241   54.2858 H   0  0  0  0  0  0  0  0  0  0  0  0
  1  2  1  0
  2  3  2  0
  3  4  1  0
  4  5  1  0
  5  6  2  0
  6  7  1  0
  7  8  2  0
  8  9  1  0
  9 10  2  0
  4 11  2  0
 11 12  1  0
 12 13  1  0
 13 14  1  0
 14 15  1  0
 15 16  2  0
 15 17  1  0
 17 18  1  0
 18 19  2  0
 19 20  1  0
 20 21  2  0
 21 22  1  0
 22 23  2  0
 12 24  2  0
 24 25  1  0
 25 26  3  0
 24  2  1  0
 10  5  1  0
 23 18  1  0
  1 27  1  0
  1 28  1  0
  1 29  1  0
  3 30  1  0
  6 31  1  0
  7 32  1  0
  8 33  1  0
  9 34  1  0
 10 35  1  0
 14 36  1  0
 14 37  1  0
 17 38  1  0
 19 39  1  0
 20 40  1  0
 21 41  1  0
 23 42  1  0
M  END
>  <Binding energies>  (1) 
[-7.83]

>  <Ligand effiencies>  (1) 
[-0.29]

>  <Interactions>  (1) 
["V-A:PRO:540:CB:4882, V-A:PRO:540:CA:4880, V-A:PRO:540:N:4881, V-A:LEU:363:CD1:3185, V-A:ASP:366:CB:3208, H-A:ALA:541:N:4888, V-A:ILE:538:CD1:4862, H-A:TYR:531:OH:4792, V-B:TYR:539:CE1:9844, V-B:MET:535:CE:9804, V-A:ASP:366:C:3204, V-A:TYR:531:CZ:4791, V-A:TYR:531:CE1:4789, V-B:TYR:531:CZ:9763, V-A:ILE:538:CG2:4860, V-A:TYR:539:CZ:4874, V-A:ASN:370:CG:3242, V-A:ASN:370:CB:3241, V-A:PRO:540:CD:4884, H-A:TYR:539:N:4867, V-B:TYR:531:CE1:9761, H-A:TYR:539:OH:4875, V-A:TYR:531:CD1:4787"]

$$$$
3bg_Grossjean_2025
     RDKit          3D

 46 48  0  0  0  0  0  0  0  0999 V2000
  132.3630  130.7840   60.2040 C   0  0  0  0  0  0  0  0  0  0  0  0
  131.1740  131.4100   59.4790 C   0  0  0  0  0  0  0  0  0  0  0  0
  130.0730  131.8140   60.2420 C   0  0  0  0  0  0  0  0  0  0  0  0
  128.9640  132.4000   59.6180 C   0  0  0  0  0  0  0  0  0  0  0  0
  127.7540  132.8670   60.3800 C   0  0  0  0  0  0  0  0  0  0  0  0
  126.9260  133.8820   59.8730 C   0  0  0  0  0  0  0  0  0  0  0  0
  125.7950  134.3040   60.5660 C   0  0  0  0  0  0  0  0  0  0  0  0
  125.4740  133.7180   61.7850 C   0  0  0  0  0  0  0  0  0  0  0  0
  126.2810  132.7190   62.3170 C   0  0  0  0  0  0  0  0  0  0  0  0
  127.4120  132.3010   61.6210 C   0  0  0  0  0  0  0  0  0  0  0  0
  128.9530  132.5980   58.2730 N   0  0  0  0  0  0  0  0  0  0  0  0
  130.0140  132.2150   57.5180 C   0  0  0  0  0  0  0  0  0  0  0  0
  129.8880  132.5620   55.7710 S   0  0  0  0  0  0  0  0  0  0  0  0
  129.6930  130.9800   54.8860 C   0  0  0  0  0  0  0  0  0  0  0  0
  128.3660  130.2960   55.2280 C   0  0  0  0  0  0  0  0  0  0  0  0
  128.3250  129.0740   55.3710 O   0  0  0  0  0  0  0  0  0  0  0  0
  127.2900  131.0950   55.3310 N   0  0  0  0  0  0  0  0  0  0  0  0
  125.9050  130.6420   55.4680 C   0  0  0  0  0  0  0  0  0  0  0  0
  125.3940  130.8070   56.8940 C   0  0  0  0  0  0  0  0  0  0  0  0
  124.1280  131.3550   57.1250 C   0  0  0  0  0  0  0  0  0  0  0  0
  123.6640  131.5150   58.4270 C   0  0  0  0  0  0  0  0  0  0  0  0
  124.4630  131.1150   59.4970 C   0  0  0  0  0  0  0  0  0  0  0  0
  125.7160  130.5490   59.2750 C   0  0  0  0  0  0  0  0  0  0  0  0
  126.1800  130.3900   57.9710 C   0  0  0  0  0  0  0  0  0  0  0  0
  131.1530  131.6040   58.0820 C   0  0  0  0  0  0  0  0  0  0  0  0
  132.2950  131.1980   57.2580 C   0  0  0  0  0  0  0  0  0  0  0  0
  133.1970  130.8770   56.6080 N   0  0  0  0  0  0  0  0  0  0  0  0
  132.2128  130.8631   61.2908 H   0  0  0  0  0  0  0  0  0  0  0  0
  132.4480  129.7242   59.9218 H   0  0  0  0  0  0  0  0  0  0  0  0
  133.2848  131.3137   59.9218 H   0  0  0  0  0  0  0  0  0  0  0  0
  130.0782  131.6714   61.3327 H   0  0  0  0  0  0  0  0  0  0  0  0
  127.1760  134.3521   58.9105 H   0  0  0  0  0  0  0  0  0  0  0  0
  125.1575  135.0984   60.1505 H   0  0  0  0  0  0  0  0  0  0  0  0
  124.5773  134.0463   62.3311 H   0  0  0  0  0  0  0  0  0  0  0  0
  126.0270  132.2605   63.2841 H   0  0  0  0  0  0  0  0  0  0  0  0
  128.0496  131.5138   62.0496 H   0  0  0  0  0  0  0  0  0  0  0  0
  129.7261  131.1714   53.8033 H   0  0  0  0  0  0  0  0  0  0  0  0
  130.5110  130.3126   55.1950 H   0  0  0  0  0  0  0  0  0  0  0  0
  127.4180  132.0860   55.1930 H   0  0  0  0  0  0  0  0  0  0  0  0
  125.2690  131.2316   54.7914 H   0  0  0  0  0  0  0  0  0  0  0  0
  125.8683  129.5725   55.2133 H   0  0  0  0  0  0  0  0  0  0  0  0
  123.4983  131.6599   56.2762 H   0  0  0  0  0  0  0  0  0  0  0  0
  122.6725  131.9545   58.6109 H   0  0  0  0  0  0  0  0  0  0  0  0
  124.1002  131.2477   60.5269 H   0  0  0  0  0  0  0  0  0  0  0  0
  126.3363  130.2290   60.1252 H   0  0  0  0  0  0  0  0  0  0  0  0
  127.1654  129.9361   57.7894 H   0  0  0  0  0  0  0  0  0  0  0  0
  1  2  1  0
  2  3  2  0
  3  4  1  0
  4  5  1  0
  5  6  2  0
  6  7  1  0
  7  8  2  0
  8  9  1  0
  9 10  2  0
  4 11  2  0
 11 12  1  0
 12 13  1  0
 13 14  1  0
 14 15  1  0
 15 16  2  0
 15 17  1  0
 17 18  1  0
 18 19  1  0
 19 20  2  0
 20 21  1  0
 21 22  2  0
 22 23  1  0
 23 24  2  0
 12 25  2  0
 25 26  1  0
 26 27  3  0
 25  2  1  0
 10  5  1  0
 24 19  1  0
  1 28  1  0
  1 29  1  0
  1 30  1  0
  3 31  1  0
  6 32  1  0
  7 33  1  0
  8 34  1  0
  9 35  1  0
 10 36  1  0
 14 37  1  0
 14 38  1  0
 17 39  1  0
 18 40  1  0
 18 41  1  0
 20 42  1  0
 21 43  1  0
 22 44  1  0
 23 45  1  0
 24 46  1  0
M  END
>  <Binding energies>  (1) 
[-7.58]

>  <Ligand effiencies>  (1) 
[-0.27071428571428574]

>  <Interactions>  (1) 
["V-A:TYR:539:CD2:4871, V-A:PRO:540:CB:4882, V-A:ALA:541:CB:4889, V-A:PRO:540:CA:4880, V-A:PRO:540:N:4881, V-A:LEU:363:CD1:3185, V-A:TYR:539:C:4864, V-A:TYR:539:CE2:4873, V-B:LEU:475:CD2:9227, V-A:ILE:538:CD1:4862, V-B:ASP:366:CA:8178, V-B:ASP:366:CB:8180, H-A:TYR:531:OH:4792, V-B:TYR:531:CZ:9763, V-B:ILE:369:CG2:8205, V-B:ASP:366:CG:8181, V-A:TYR:539:CZ:4874, H-A:TYR:539:N:4867, V-B:TYR:531:CE1:9761, V-B:ILE:369:CB:8204, V-B:ASP:366:C:8176, H-A:TYR:539:OH:4875"]

$$$$
3bk_Grossjean_2025
     RDKit          3D

 57 58  0  0  0  0  0  0  0  0999 V2000
  125.2730  122.5010   56.1240 C   0  0  0  0  0  0  0  0  0  0  0  0
  126.4680  121.7370   56.0760 O   0  0  0  0  0  0  0  0  0  0  0  0
  127.6390  122.5280   55.9160 C   0  0  0  0  0  0  0  0  0  0  0  0
  128.2800  122.7830   57.2870 C   0  0  0  0  0  0  0  0  0  0  0  0
  127.5140  122.1350   58.2930 O   0  0  0  0  0  0  0  0  0  0  0  0
  128.0320  122.3020   59.6060 C   0  0  0  0  0  0  0  0  0  0  0  0
  129.4200  122.9510   59.5240 C   0  0  0  0  0  0  0  0  0  0  0  0
  129.5220  123.9700   60.5100 O   0  0  0  0  0  0  0  0  0  0  0  0
  128.3500  124.1290   61.2980 C   0  0  0  0  0  0  0  0  0  0  0  0
  128.6340  123.6720   62.7350 C   0  0  0  0  0  0  0  0  0  0  0  0
  130.0590  123.7300   63.0670 N   0  0  0  0  0  0  0  0  0  0  0  0
  130.6240  123.2200   64.1750 C   0  0  0  0  0  0  0  0  0  0  0  0
  129.9970  122.6170   65.0470 O   0  0  0  0  0  0  0  0  0  0  0  0
  132.1390  123.3960   64.3100 C   0  0  0  0  0  0  0  0  0  0  0  0
  132.5830  125.0740   64.8610 S   0  0  0  0  0  0  0  0  0  0  0  0
  131.0880  126.0000   65.1680 C   0  0  0  0  0  0  0  0  0  0  0  0
  130.7250  126.1270   66.4700 N   0  0  0  0  0  0  0  0  0  0  0  0
  129.5990  126.8130   66.7990 C   0  0  0  0  0  0  0  0  0  0  0  0
  129.2830  126.9230   68.2600 C   0  0  0  0  0  0  0  0  0  0  0  0
  130.0820  127.7040   69.1100 C   0  0  0  0  0  0  0  0  0  0  0  0
  129.7970  127.8060   70.4690 C   0  0  0  0  0  0  0  0  0  0  0  0
  128.7050  127.1270   70.9980 C   0  0  0  0  0  0  0  0  0  0  0  0
  127.8940  126.3490   70.1770 C   0  0  0  0  0  0  0  0  0  0  0  0
  128.1820  126.2510   68.8180 C   0  0  0  0  0  0  0  0  0  0  0  0
  128.8030  127.4010   65.8090 C   0  0  0  0  0  0  0  0  0  0  0  0
  129.1610  127.2780   64.4620 C   0  0  0  0  0  0  0  0  0  0  0  0
  128.2640  127.9350   63.4140 C   0  0  0  0  0  0  0  0  0  0  0  0
  130.3280  126.5640   64.1210 C   0  0  0  0  0  0  0  0  0  0  0  0
  130.7290  126.4210   62.7180 C   0  0  0  0  0  0  0  0  0  0  0  0
  131.0450  126.3080   61.6100 N   0  0  0  0  0  0  0  0  0  0  0  0
  124.9938  122.6795   57.1729 H   0  0  0  0  0  0  0  0  0  0  0  0
  125.4333  123.4646   55.6182 H   0  0  0  0  0  0  0  0  0  0  0  0
  124.4657  121.9511   55.6182 H   0  0  0  0  0  0  0  0  0  0  0  0
  128.3541  121.9968   55.2707 H   0  0  0  0  0  0  0  0  0  0  0  0
  127.3698  123.4895   55.4543 H   0  0  0  0  0  0  0  0  0  0  0  0
  129.3054  122.3848   57.2927 H   0  0  0  0  0  0  0  0  0  0  0  0
  128.3071  123.8647   57.4849 H   0  0  0  0  0  0  0  0  0  0  0  0
  127.3579  122.9480   60.1877 H   0  0  0  0  0  0  0  0  0  0  0  0
  128.1118  121.3216   60.0985 H   0  0  0  0  0  0  0  0  0  0  0  0
  130.1929  122.1889   59.7021 H   0  0  0  0  0  0  0  0  0  0  0  0
  129.5630  123.3894   58.5253 H   0  0  0  0  0  0  0  0  0  0  0  0
  128.0518  125.1878   61.3021 H   0  0  0  0  0  0  0  0  0  0  0  0
  127.5375  123.5209   60.8736 H   0  0  0  0  0  0  0  0  0  0  0  0
  128.0827  124.3239   63.4286 H   0  0  0  0  0  0  0  0  0  0  0  0
  128.3108  122.6243   62.8242 H   0  0  0  0  0  0  0  0  0  0  0  0
  130.6560  124.1570   62.3740 H   0  0  0  0  0  0  0  0  0  0  0  0
  132.5172  122.6692   65.0440 H   0  0  0  0  0  0  0  0  0  0  0  0
  132.5901  123.2323   63.3202 H   0  0  0  0  0  0  0  0  0  0  0  0
  130.9465  128.2437   68.6960 H   0  0  0  0  0  0  0  0  0  0  0  0
  130.4334  128.4215   71.1218 H   0  0  0  0  0  0  0  0  0  0  0  0
  128.4807  127.2052   72.0720 H   0  0  0  0  0  0  0  0  0  0  0  0
  127.0303  125.8145   70.5992 H   0  0  0  0  0  0  0  0  0  0  0  0
  127.5375  125.6378   68.1710 H   0  0  0  0  0  0  0  0  0  0  0  0
  127.8974  127.9589   66.0896 H   0  0  0  0  0  0  0  0  0  0  0  0
  127.4749  128.5130   63.9172 H   0  0  0  0  0  0  0  0  0  0  0  0
  128.8664  128.6071   62.7852 H   0  0  0  0  0  0  0  0  0  0  0  0
  127.8050  127.1579   62.7852 H   0  0  0  0  0  0  0  0  0  0  0  0
  1  2  1  0
  2  3  1  0
  3  4  1  0
  4  5  1  0
  5  6  1  0
  6  7  1  0
  7  8  1  0
  8  9  1  0
  9 10  1  0
 10 11  1  0
 11 12  1  0
 12 13  2  0
 12 14  1  0
 14 15  1  0
 15 16  1  0
 16 17  2  0
 17 18  1  0
 18 19  1  0
 19 20  2  0
 20 21  1  0
 21 22  2  0
 22 23  1  0
 23 24  2  0
 18 25  2  0
 25 26  1  0
 26 27  1  0
 26 28  2  0
 28 29  1  0
 29 30  3  0
 28 16  1  0
 24 19  1  0
  1 31  1  0
  1 32  1  0
  1 33  1  0
  3 34  1  0
  3 35  1  0
  4 36  1  0
  4 37  1  0
  6 38  1  0
  6 39  1  0
  7 40  1  0
  7 41  1  0
  9 42  1  0
  9 43  1  0
 10 44  1  0
 10 45  1  0
 11 46  1  0
 14 47  1  0
 14 48  1  0
 20 49  1  0
 21 50  1  0
 22 51  1  0
 23 52  1  0
 24 53  1  0
 25 54  1  0
 27 55  1  0
 27 56  1  0
 27 57  1  0
M  END
>  <Binding energies>  (1) 
[-6.37]

>  <Ligand effiencies>  (1) 
[-0.20548387096774193]

>  <Interactions>  (1) 
["V-A:GLU:543:CD:4905, V-B:GLU:543:C:9871, V-A:HIS:456:CE1:4066, V-B:GLU:543:CB:9875, V-B:HIS:456:CE1:9038, V-B:GLY:544:C:9881, V-B:HIS:456:CD2:9036, V-B:TYR:539:CE1:9844, V-B:PRO:540:CA:9852, V-B:TYR:539:CZ:9846, V-B:PRO:540:N:9853, V-B:PRO:540:CB:9854, H-B:TYR:539:N:9839, V-B:LEU:363:CD1:8157, V-B:ALA:541:CB:9861, V-B:GLU:543:CD:9877, V-B:GLU:543:CG:9876, V-A:TYR:484:CZ:4343, H-A:ARG:545:NH2:4925, V-B:TYR:539:CE2:9845, V-B:ILE:538:CG2:9832, V-B:ILE:538:CB:9831, V-B:PRO:540:CD:9856, V-B:TYR:539:C:9836, V-B:TYR:539:CD2:9843, V-B:ILE:538:CA:9829, V-B:TYR:539:CD1:9842, V-A:GLY:454:CA:4045, H-A:TYR:484:OH:4344"]

$$$$
3ca_Grossjean_2025
     RDKit          3D

 52 54  0  0  0  0  0  0  0  0999 V2000
  123.6970  124.7750   59.8160 C   0  0  0  0  0  0  0  0  0  0  0  0
  123.4590  125.2180   58.3690 C   0  0  0  0  0  0  0  0  0  0  0  0
  124.6300  124.9710   57.6000 O   0  0  0  0  0  0  0  0  0  0  0  0
  125.1280  123.7160   57.4630 C   0  0  0  0  0  0  0  0  0  0  0  0
  124.5300  122.8060   56.8800 O   0  0  0  0  0  0  0  0  0  0  0  0
  126.4840  123.5440   58.0870 C   0  0  0  0  0  0  0  0  0  0  0  0
  126.5780  123.3020   59.4630 C   0  0  0  0  0  0  0  0  0  0  0  0
  127.8200  123.1390   60.0700 C   0  0  0  0  0  0  0  0  0  0  0  0
  128.9920  123.2210   59.3160 C   0  0  0  0  0  0  0  0  0  0  0  0
  130.1930  123.0390   60.0280 N   0  0  0  0  0  0  0  0  0  0  0  0
  130.4650  122.2170   61.0640 C   0  0  0  0  0  0  0  0  0  0  0  0
  129.6700  121.4300   61.5770 O   0  0  0  0  0  0  0  0  0  0  0  0
  131.9000  122.2880   61.5980 C   0  0  0  0  0  0  0  0  0  0  0  0
  132.5680  123.9840   61.6340 S   0  0  0  0  0  0  0  0  0  0  0  0
  132.5190  124.6210   63.3040 C   0  0  0  0  0  0  0  0  0  0  0  0
  133.7050  124.6340   63.9630 N   0  0  0  0  0  0  0  0  0  0  0  0
  133.7470  125.1210   65.2220 C   0  0  0  0  0  0  0  0  0  0  0  0
  135.1100  125.1190   65.8840 C   0  0  0  0  0  0  0  0  0  0  0  0
  132.6150  125.5970   65.8790 C   0  0  0  0  0  0  0  0  0  0  0  0
  131.3750  125.5770   65.2270 C   0  0  0  0  0  0  0  0  0  0  0  0
  130.1860  126.0850   65.9760 C   0  0  0  0  0  0  0  0  0  0  0  0
  129.5010  127.2180   65.5210 C   0  0  0  0  0  0  0  0  0  0  0  0
  128.3980  127.7050   66.2180 C   0  0  0  0  0  0  0  0  0  0  0  0
  127.9770  127.0600   67.3780 C   0  0  0  0  0  0  0  0  0  0  0  0
  128.6510  125.9360   67.8480 C   0  0  0  0  0  0  0  0  0  0  0  0
  129.7550  125.4530   67.1490 C   0  0  0  0  0  0  0  0  0  0  0  0
  131.3210  125.0840   63.8980 C   0  0  0  0  0  0  0  0  0  0  0  0
  130.0620  125.0860   63.1470 C   0  0  0  0  0  0  0  0  0  0  0  0
  129.0670  125.0880   62.5550 N   0  0  0  0  0  0  0  0  0  0  0  0
  128.9070  123.4550   57.9350 C   0  0  0  0  0  0  0  0  0  0  0  0
  127.6630  123.6160   57.3300 C   0  0  0  0  0  0  0  0  0  0  0  0
  123.2903  125.5319   60.5028 H   0  0  0  0  0  0  0  0  0  0  0  0
  123.1946  123.8124   59.9921 H   0  0  0  0  0  0  0  0  0  0  0  0
  124.7770  124.6625   59.9921 H   0  0  0  0  0  0  0  0  0  0  0  0
  122.6161  124.6519   57.9459 H   0  0  0  0  0  0  0  0  0  0  0  0
  123.2256  126.2928   58.3477 H   0  0  0  0  0  0  0  0  0  0  0  0
  125.6624  123.2402   60.0695 H   0  0  0  0  0  0  0  0  0  0  0  0
  127.8784  122.9443   61.1511 H   0  0  0  0  0  0  0  0  0  0  0  0
  130.9710  123.5740   59.6700 H   0  0  0  0  0  0  0  0  0  0  0  0
  131.9128  121.8851   62.6215 H   0  0  0  0  0  0  0  0  0  0  0  0
  132.5327  121.7012   60.9158 H   0  0  0  0  0  0  0  0  0  0  0  0
  134.9867  125.1192   66.9771 H   0  0  0  0  0  0  0  0  0  0  0  0
  135.6651  124.2200   65.5778 H   0  0  0  0  0  0  0  0  0  0  0  0
  135.6677  126.0163   65.5778 H   0  0  0  0  0  0  0  0  0  0  0  0
  132.6940  125.9867   66.9046 H   0  0  0  0  0  0  0  0  0  0  0  0
  129.8366  127.7276   64.6058 H   0  0  0  0  0  0  0  0  0  0  0  0
  127.8624  128.5942   65.8542 H   0  0  0  0  0  0  0  0  0  0  0  0
  127.1042  127.4419   67.9279 H   0  0  0  0  0  0  0  0  0  0  0  0
  128.3137  125.4323   68.7659 H   0  0  0  0  0  0  0  0  0  0  0  0
  130.2923  124.5683   67.5213 H   0  0  0  0  0  0  0  0  0  0  0  0
  129.8238  123.5113   57.3298 H   0  0  0  0  0  0  0  0  0  0  0  0
  127.6042  123.8015   56.2474 H   0  0  0  0  0  0  0  0  0  0  0  0
  1  2  1  0
  2  3  1  0
  3  4  1  0
  4  5  2  0
  4  6  1  0
  6  7  2  0
  7  8  1  0
  8  9  2  0
  9 10  1  0
 10 11  1  0
 11 12  2  0
 11 13  1  0
 13 14  1  0
 14 15  1  0
 15 16  2  0
 16 17  1  0
 17 18  1  0
 17 19  2  0
 19 20  1  0
 20 21  1  0
 21 22  2  0
 22 23  1  0
 23 24  2  0
 24 25  1  0
 25 26  2  0
 20 27  2  0
 27 28  1  0
 28 29  3  0
  9 30  1  0
 30 31  2  0
 31  6  1  0
 27 15  1  0
 26 21  1  0
  1 32  1  0
  1 33  1  0
  1 34  1  0
  2 35  1  0
  2 36  1  0
  7 37  1  0
  8 38  1  0
 10 39  1  0
 13 40  1  0
 13 41  1  0
 18 42  1  0
 18 43  1  0
 18 44  1  0
 19 45  1  0
 22 46  1  0
 23 47  1  0
 24 48  1  0
 25 49  1  0
 26 50  1  0
 30 51  1  0
 31 52  1  0
M  END
>  <Binding energies>  (1) 
[-8.73]

>  <Ligand effiencies>  (1) 
[-0.2728125]

>  <Interactions>  (1) 
["V-A:GLU:543:CD:4905, V-B:GLU:543:C:9871, V-A:HIS:456:CE1:4066, V-B:GLU:543:CB:9875, V-B:HIS:456:CE1:9038, V-B:ASP:366:CB:8180, V-B:TYR:539:CE1:9844, V-B:PRO:540:CA:9852, V-B:TYR:539:CZ:9846, V-B:TYR:531:CE2:9762, V-B:ASN:362:C:8140, V-B:PRO:540:CB:9854, V-B:ASP:366:CG:8181, V-B:LEU:363:CD1:8157, V-B:LEU:363:CA:8153, H-B:TYR:531:OH:9764, H-B:TYR:539:OH:9847, V-B:GLU:543:CD:9877, V-B:GLU:543:CG:9876, V-A:ARG:545:CZ:4923, V-A:ARG:545:CD:4920, V-B:TYR:539:CE2:9845, V-A:ARG:545:CG:4919, V-A:TYR:484:CE1:4341, V-A:LEU:475:CD1:4254, V-B:TYR:539:CD2:9843, H-A:GLY:454:N:4046, V-A:GLY:454:CA:4045, V-A:GLY:453:C:4038, V-A:GLY:453:CA:4040, V-A:GLY:454:C:4043"]

$$$$
3cb_Grossjean_2025
     RDKit          3D

 49 51  0  0  0  0  0  0  0  0999 V2000
  127.9470  122.4990   54.9490 C   0  0  0  0  0  0  0  0  0  0  0  0
  127.0960  121.7580   55.8110 O   0  0  0  0  0  0  0  0  0  0  0  0
  125.9370  122.2890   56.2770 C   0  0  0  0  0  0  0  0  0  0  0  0
  124.8350  122.0730   55.7640 O   0  0  0  0  0  0  0  0  0  0  0  0
  126.1280  123.1710   57.4780 C   0  0  0  0  0  0  0  0  0  0  0  0
  125.1880  124.1480   57.8410 C   0  0  0  0  0  0  0  0  0  0  0  0
  125.3950  124.9460   58.9620 C   0  0  0  0  0  0  0  0  0  0  0  0
  126.5420  124.7900   59.7410 C   0  0  0  0  0  0  0  0  0  0  0  0
  126.6480  125.6490   60.8540 N   0  0  0  0  0  0  0  0  0  0  0  0
  126.9130  126.9720   60.9080 C   0  0  0  0  0  0  0  0  0  0  0  0
  127.1000  127.6940   59.9270 O   0  0  0  0  0  0  0  0  0  0  0  0
  126.9510  127.5560   62.3280 C   0  0  0  0  0  0  0  0  0  0  0  0
  128.6140  128.0120   62.9280 S   0  0  0  0  0  0  0  0  0  0  0  0
  128.9940  126.9730   64.3230 C   0  0  0  0  0  0  0  0  0  0  0  0
  129.4350  125.7400   63.9740 N   0  0  0  0  0  0  0  0  0  0  0  0
  129.7550  124.8640   64.9520 C   0  0  0  0  0  0  0  0  0  0  0  0
  130.2530  123.5090   64.4870 C   0  0  0  0  0  0  0  0  0  0  0  0
  129.6420  125.1760   66.3040 C   0  0  0  0  0  0  0  0  0  0  0  0
  129.1730  126.4390   66.6890 C   0  0  0  0  0  0  0  0  0  0  0  0
  129.0650  126.7240   68.1530 C   0  0  0  0  0  0  0  0  0  0  0  0
  130.0570  127.4700   68.8000 C   0  0  0  0  0  0  0  0  0  0  0  0
  129.9600  127.7500   70.1600 C   0  0  0  0  0  0  0  0  0  0  0  0
  128.8630  127.2860   70.8820 C   0  0  0  0  0  0  0  0  0  0  0  0
  127.8640  126.5490   70.2530 C   0  0  0  0  0  0  0  0  0  0  0  0
  127.9630  126.2720   68.8920 C   0  0  0  0  0  0  0  0  0  0  0  0
  128.8210  127.3660   65.6740 C   0  0  0  0  0  0  0  0  0  0  0  0
  128.2360  128.6660   66.0180 C   0  0  0  0  0  0  0  0  0  0  0  0
  127.7760  129.6910   66.2890 N   0  0  0  0  0  0  0  0  0  0  0  0
  127.4850  123.8130   59.3880 C   0  0  0  0  0  0  0  0  0  0  0  0
  127.2770  123.0140   58.2660 C   0  0  0  0  0  0  0  0  0  0  0  0
  128.6415  123.1038   55.5506 H   0  0  0  0  0  0  0  0  0  0  0  0
  128.5191  121.8063   54.3143 H   0  0  0  0  0  0  0  0  0  0  0  0
  127.3396  123.1610   54.3143 H   0  0  0  0  0  0  0  0  0  0  0  0
  124.2804  124.2840   57.2345 H   0  0  0  0  0  0  0  0  0  0  0  0
  124.6484  125.7059   59.2362 H   0  0  0  0  0  0  0  0  0  0  0  0
  126.4710  125.1960   61.7400 H   0  0  0  0  0  0  0  0  0  0  0  0
  126.3230  128.4590   62.3429 H   0  0  0  0  0  0  0  0  0  0  0  0
  126.5886  126.7621   62.9976 H   0  0  0  0  0  0  0  0  0  0  0  0
  130.4831  122.8830   65.3617 H   0  0  0  0  0  0  0  0  0  0  0  0
  129.4755  123.0208   63.8810 H   0  0  0  0  0  0  0  0  0  0  0  0
  131.1616  123.6405   63.8810 H   0  0  0  0  0  0  0  0  0  0  0  0
  129.9198  124.4340   67.0670 H   0  0  0  0  0  0  0  0  0  0  0  0
  130.9215  127.8385   68.2282 H   0  0  0  0  0  0  0  0  0  0  0  0
  130.7453  128.3344   70.6618 H   0  0  0  0  0  0  0  0  0  0  0  0
  128.7857  127.5037   71.9575 H   0  0  0  0  0  0  0  0  0  0  0  0
  126.9996  126.1867   70.8288 H   0  0  0  0  0  0  0  0  0  0  0  0
  127.1708  125.6944   68.3932 H   0  0  0  0  0  0  0  0  0  0  0  0
  128.3901  123.6777   59.9983 H   0  0  0  0  0  0  0  0  0  0  0  0
  128.0223  122.2516   57.9953 H   0  0  0  0  0  0  0  0  0  0  0  0
  1  2  1  0
  2  3  1  0
  3  4  2  0
  3  5  1  0
  5  6  2  0
  6  7  1  0
  7  8  2  0
  8  9  1  0
  9 10  1  0
 10 11  2  0
 10 12  1  0
 12 13  1  0
 13 14  1  0
 14 15  2  0
 15 16  1  0
 16 17  1  0
 16 18  2  0
 18 19  1  0
 19 20  1  0
 20 21  2  0
 21 22  1  0
 22 23  2  0
 23 24  1  0
 24 25  2  0
 19 26  2  0
 26 27  1  0
 27 28  3  0
  8 29  1  0
 29 30  2  0
 30  5  1  0
 26 14  1  0
 25 20  1  0
  1 31  1  0
  1 32  1  0
  1 33  1  0
  6 34  1  0
  7 35  1  0
  9 36  1  0
 12 37  1  0
 12 38  1  0
 17 39  1  0
 17 40  1  0
 17 41  1  0
 18 42  1  0
 21 43  1  0
 22 44  1  0
 23 45  1  0
 24 46  1  0
 25 47  1  0
 29 48  1  0
 30 49  1  0
M  END
>  <Binding energies>  (1) 
[-8.85]

>  <Ligand effiencies>  (1) 
[-0.2854838709677419]

>  <Interactions>  (1) 
["V-A:GLU:543:CD:4905, V-B:GLU:543:C:9871, V-A:HIS:456:CE1:4066, V-A:GLU:543:CB:4903, V-B:GLU:543:CB:9875, V-B:HIS:456:CE1:9038, V-B:GLY:544:C:9881, V-B:HIS:456:CD2:9036, V-B:TYR:539:CE1:9844, V-B:MET:535:CE:9804, V-B:PRO:540:CA:9852, V-B:PRO:540:N:9853, V-B:PRO:540:CB:9854, H-B:TYR:539:N:9839, V-B:LEU:363:CD1:8157, H-B:GLU:543:OE2:9879, H-B:GLU:543:OE1:9878, V-B:GLU:543:CD:9877, V-B:GLU:543:CG:9876, V-A:TYR:484:CE1:4341, V-A:GLU:543:CG:4904, V-B:ILE:538:CG2:9832, V-B:ILE:538:CB:9831, V-B:PRO:540:CD:9856, V-B:ILE:538:CA:9829, V-B:TYR:539:CD1:9842, H-B:TYR:484:OH:9316"]

$$$$
3ce_Grossjean_2025
     RDKit          3D

 45 47  0  0  0  0  0  0  0  0999 V2000
  134.9590  125.0450   66.2420 C   0  0  0  0  0  0  0  0  0  0  0  0
  133.7370  125.2290   65.3630 C   0  0  0  0  0  0  0  0  0  0  0  0
  132.5490  125.7660   65.8660 C   0  0  0  0  0  0  0  0  0  0  0  0
  131.4680  125.9150   64.9980 C   0  0  0  0  0  0  0  0  0  0  0  0
  131.5970  125.5280   63.6620 C   0  0  0  0  0  0  0  0  0  0  0  0
  132.8120  124.9870   63.2260 C   0  0  0  0  0  0  0  0  0  0  0  0
  132.8910  124.6340   61.8680 N   0  0  0  0  0  0  0  0  0  0  0  0
  133.8640  123.9350   61.2410 C   0  0  0  0  0  0  0  0  0  0  0  0
  134.8690  123.4770   61.7880 O   0  0  0  0  0  0  0  0  0  0  0  0
  133.6590  123.7110   59.7440 C   0  0  0  0  0  0  0  0  0  0  0  0
  132.3240  124.7490   59.0780 S   0  0  0  0  0  0  0  0  0  0  0  0
  130.8140  123.8810   59.4340 C   0  0  0  0  0  0  0  0  0  0  0  0
  130.8140  123.2420   60.6290 N   0  0  0  0  0  0  0  0  0  0  0  0
  129.7030  122.5650   61.0010 C   0  0  0  0  0  0  0  0  0  0  0  0
  129.7670  121.8850   62.3540 C   0  0  0  0  0  0  0  0  0  0  0  0
  128.5680  122.4900   60.1980 C   0  0  0  0  0  0  0  0  0  0  0  0
  128.5580  123.1220   58.9480 C   0  0  0  0  0  0  0  0  0  0  0  0
  127.3260  122.9910   58.1130 C   0  0  0  0  0  0  0  0  0  0  0  0
  127.3560  122.2430   56.9290 C   0  0  0  0  0  0  0  0  0  0  0  0
  126.2140  122.1220   56.1420 C   0  0  0  0  0  0  0  0  0  0  0  0
  125.0370  122.7550   56.5320 C   0  0  0  0  0  0  0  0  0  0  0  0
  124.9940  123.5110   57.7010 C   0  0  0  0  0  0  0  0  0  0  0  0
  126.1370  123.6300   58.4860 C   0  0  0  0  0  0  0  0  0  0  0  0
  129.7100  123.8450   58.5490 C   0  0  0  0  0  0  0  0  0  0  0  0
  129.7520  124.5400   57.2580 C   0  0  0  0  0  0  0  0  0  0  0  0
  129.7840  125.0870   56.2400 N   0  0  0  0  0  0  0  0  0  0  0  0
  133.8770  124.8450   64.0690 N   0  0  0  0  0  0  0  0  0  0  0  0
  134.6600  125.0900   67.2996 H   0  0  0  0  0  0  0  0  0  0  0  0
  135.4179  124.0676   66.0320 H   0  0  0  0  0  0  0  0  0  0  0  0
  135.6854  125.8439   66.0320 H   0  0  0  0  0  0  0  0  0  0  0  0
  132.4685  126.0641   66.9218 H   0  0  0  0  0  0  0  0  0  0  0  0
  130.5191  126.3349   65.3632 H   0  0  0  0  0  0  0  0  0  0  0  0
  130.7561  125.6467   62.9629 H   0  0  0  0  0  0  0  0  0  0  0  0
  132.0730  124.8600   61.3220 H   0  0  0  0  0  0  0  0  0  0  0  0
  134.5938  123.9531   59.2172 H   0  0  0  0  0  0  0  0  0  0  0  0
  133.3789  122.6581   59.5928 H   0  0  0  0  0  0  0  0  0  0  0  0
  129.6957  122.6422   63.1487 H   0  0  0  0  0  0  0  0  0  0  0  0
  128.9317  121.1755   62.4476 H   0  0  0  0  0  0  0  0  0  0  0  0
  130.7201  121.3438   62.4476 H   0  0  0  0  0  0  0  0  0  0  0  0
  127.6825  121.9365   60.5439 H   0  0  0  0  0  0  0  0  0  0  0  0
  128.2881  121.7479   56.6190 H   0  0  0  0  0  0  0  0  0  0  0  0
  126.2415  121.5288   55.2161 H   0  0  0  0  0  0  0  0  0  0  0  0
  124.1337  122.6573   55.9119 H   0  0  0  0  0  0  0  0  0  0  0  0
  124.0618  124.0112   58.0021 H   0  0  0  0  0  0  0  0  0  0  0  0
  126.1062  124.2308   59.4069 H   0  0  0  0  0  0  0  0  0  0  0  0
  1  2  1  0
  2  3  2  0
  3  4  1  0
  4  5  2  0
  5  6  1  0
  6  7  1  0
  7  8  1  0
  8  9  2  0
  8 10  1  0
 10 11  1  0
 11 12  1  0
 12 13  2  0
 13 14  1  0
 14 15  1  0
 14 16  2  0
 16 17  1  0
 17 18  1  0
 18 19  2  0
 19 20  1  0
 20 21  2  0
 21 22  1  0
 22 23  2  0
 17 24  2  0
 24 25  1  0
 25 26  3  0
  6 27  2  0
 27  2  1  0
 24 12  1  0
 23 18  1  0
  1 28  1  0
  1 29  1  0
  1 30  1  0
  3 31  1  0
  4 32  1  0
  5 33  1  0
  7 34  1  0
 10 35  1  0
 10 36  1  0
 15 37  1  0
 15 38  1  0
 15 39  1  0
 16 40  1  0
 19 41  1  0
 20 42  1  0
 21 43  1  0
 22 44  1  0
 23 45  1  0
M  END
>  <Binding energies>  (1) 
[-8.31]

>  <Ligand effiencies>  (1) 
[-0.2967857142857143]

>  <Interactions>  (1) 
["V-A:ASP:366:CB:3208, V-A:ASP:366:CG:3209, H-A:ASP:366:OD1:3210, V-A:HIS:456:CE1:4066, V-B:TYR:539:CE1:9844, V-B:PRO:540:CA:9852, V-B:TYR:539:CZ:9846, V-B:PRO:540:N:9853, V-B:PRO:540:CB:9854, V-B:LEU:363:CD1:8157, V-B:ALA:541:CB:9861, H-B:TYR:539:OH:9847, V-A:ARG:545:CZ:4923, V-A:ARG:545:CD:4920, H-A:ARG:545:NH2:4925, V-B:TYR:539:CE2:9845, V-A:ARG:545:CG:4919, V-B:ILE:538:CG2:9832, V-B:ILE:538:CB:9831, V-B:PRO:540:CD:9856, V-B:TYR:539:C:9836, V-A:ILE:369:CB:3232, V-B:ILE:538:CA:9829, V-B:TYR:539:CD1:9842, V-B:PRO:540:CG:9855, H-A:GLY:454:N:4046, H-A:ASP:366:OD2:3211, H-A:ARG:545:NH1:4924, V-A:ILE:369:CG2:3233, V-A:GLY:454:CA:4045, V-A:GLY:453:C:4038, V-A:GLY:453:CA:4040, V-A:ASP:366:CA:3206, V-A:GLY:454:C:4043, V-A:ILE:455:C:4048"]

$$$$
3ch_Grossjean_2025
     RDKit          3D

 55 57  0  0  0  0  0  0  0  0999 V2000
  124.3930  124.0840   61.0040 C   0  0  0  0  0  0  0  0  0  0  0  0
  124.8240  123.8900   59.6610 O   0  0  0  0  0  0  0  0  0  0  0  0
  126.0710  123.3420   59.4160 C   0  0  0  0  0  0  0  0  0  0  0  0
  127.1010  123.2780   60.3690 C   0  0  0  0  0  0  0  0  0  0  0  0
  128.3380  122.6990   60.0520 C   0  0  0  0  0  0  0  0  0  0  0  0
  129.4250  122.5840   60.9390 N   0  0  0  0  0  0  0  0  0  0  0  0
  130.0610  121.4790   61.3870 C   0  0  0  0  0  0  0  0  0  0  0  0
  129.7900  120.3210   61.0670 O   0  0  0  0  0  0  0  0  0  0  0  0
  131.2330  121.7310   62.3340 C   0  0  0  0  0  0  0  0  0  0  0  0
  132.1490  123.2410   61.9070 S   0  0  0  0  0  0  0  0  0  0  0  0
  132.1670  124.2410   63.3790 C   0  0  0  0  0  0  0  0  0  0  0  0
  133.3880  124.3440   63.9590 N   0  0  0  0  0  0  0  0  0  0  0  0
  133.5070  125.0770   65.0890 C   0  0  0  0  0  0  0  0  0  0  0  0
  134.8990  125.1460   65.6880 C   0  0  0  0  0  0  0  0  0  0  0  0
  132.4260  125.7270   65.6790 C   0  0  0  0  0  0  0  0  0  0  0  0
  131.1570  125.6380   65.0910 C   0  0  0  0  0  0  0  0  0  0  0  0
  130.0250  126.3440   65.7650 C   0  0  0  0  0  0  0  0  0  0  0  0
  129.3840  127.4140   65.1300 C   0  0  0  0  0  0  0  0  0  0  0  0
  128.3340  128.0810   65.7550 C   0  0  0  0  0  0  0  0  0  0  0  0
  127.9230  127.6820   67.0240 C   0  0  0  0  0  0  0  0  0  0  0  0
  128.5540  126.6240   67.6730 C   0  0  0  0  0  0  0  0  0  0  0  0
  129.6040  125.9600   67.0450 C   0  0  0  0  0  0  0  0  0  0  0  0
  131.0200  124.8890   63.8940 C   0  0  0  0  0  0  0  0  0  0  0  0
  129.7380  124.8410   63.1850 C   0  0  0  0  0  0  0  0  0  0  0  0
  128.7250  124.8010   62.6250 N   0  0  0  0  0  0  0  0  0  0  0  0
  128.5450  122.2010   58.7650 C   0  0  0  0  0  0  0  0  0  0  0  0
  127.5330  122.2550   57.7950 C   0  0  0  0  0  0  0  0  0  0  0  0
  127.6710  121.7730   56.5040 O   0  0  0  0  0  0  0  0  0  0  0  0
  127.8810  122.6880   55.4340 C   0  0  0  0  0  0  0  0  0  0  0  0
  126.3010  122.8310   58.1330 C   0  0  0  0  0  0  0  0  0  0  0  0
  125.2950  122.8750   57.1970 O   0  0  0  0  0  0  0  0  0  0  0  0
  125.0140  124.1800   56.7090 C   0  0  0  0  0  0  0  0  0  0  0  0
  125.1741  123.7324   61.6942 H   0  0  0  0  0  0  0  0  0  0  0  0
  124.2046  125.1537   61.1777 H   0  0  0  0  0  0  0  0  0  0  0  0
  123.4673  123.5157   61.1777 H   0  0  0  0  0  0  0  0  0  0  0  0
  126.9350  123.6872   61.3765 H   0  0  0  0  0  0  0  0  0  0  0  0
  129.8020  123.4680   61.2490 H   0  0  0  0  0  0  0  0  0  0  0  0
  130.8454  121.8298   63.3587 H   0  0  0  0  0  0  0  0  0  0  0  0
  131.9254  120.8806   62.2478 H   0  0  0  0  0  0  0  0  0  0  0  0
  134.8264  125.1424   66.7856 H   0  0  0  0  0  0  0  0  0  0  0  0
  135.4844  124.2758   65.3564 H   0  0  0  0  0  0  0  0  0  0  0  0
  135.3955  126.0699   65.3564 H   0  0  0  0  0  0  0  0  0  0  0  0
  132.5675  126.3077   66.6024 H   0  0  0  0  0  0  0  0  0  0  0  0
  129.7125  127.7304   64.1290 H   0  0  0  0  0  0  0  0  0  0  0  0
  127.8318  128.9187   65.2490 H   0  0  0  0  0  0  0  0  0  0  0  0
  127.0924  128.2072   67.5182 H   0  0  0  0  0  0  0  0  0  0  0  0
  128.2248  126.3147   68.6760 H   0  0  0  0  0  0  0  0  0  0  0  0
  130.1073  125.1271   67.5578 H   0  0  0  0  0  0  0  0  0  0  0  0
  129.5184  121.7585   58.5066 H   0  0  0  0  0  0  0  0  0  0  0  0
  128.1095  123.6835   55.8424 H   0  0  0  0  0  0  0  0  0  0  0  0
  128.7233  122.3429   54.8164 H   0  0  0  0  0  0  0  0  0  0  0  0
  126.9725  122.7447   54.8164 H   0  0  0  0  0  0  0  0  0  0  0  0
  124.8666  124.8648   57.5572 H   0  0  0  0  0  0  0  0  0  0  0  0
  125.8570  124.5317   56.0961 H   0  0  0  0  0  0  0  0  0  0  0  0
  124.1010  124.1536   56.0961 H   0  0  0  0  0  0  0  0  0  0  0  0
  1  2  1  0
  2  3  1  0
  3  4  2  0
  4  5  1  0
  5  6  1  0
  6  7  1  0
  7  8  2  0
  7  9  1  0
  9 10  1  0
 10 11  1  0
 11 12  2  0
 12 13  1  0
 13 14  1  0
 13 15  2  0
 15 16  1  0
 16 17  1  0
 17 18  2  0
 18 19  1  0
 19 20  2  0
 20 21  1  0
 21 22  2  0
 16 23  2  0
 23 24  1  0
 24 25  3  0
  5 26  2  0
 26 27  1  0
 27 28  1  0
 28 29  1  0
 27 30  2  0
 30 31  1  0
 31 32  1  0
 30  3  1  0
 23 11  1  0
 22 17  1  0
  1 33  1  0
  1 34  1  0
  1 35  1  0
  4 36  1  0
  6 37  1  0
  9 38  1  0
  9 39  1  0
 14 40  1  0
 14 41  1  0
 14 42  1  0
 15 43  1  0
 18 44  1  0
 19 45  1  0
 20 46  1  0
 21 47  1  0
 22 48  1  0
 26 49  1  0
 29 50  1  0
 29 51  1  0
 29 52  1  0
 32 53  1  0
 32 54  1  0
 32 55  1  0
M  END
>  <Binding energies>  (1) 
[-8.81]

>  <Ligand effiencies>  (1) 
[-0.26696969696969697]

>  <Interactions>  (1) 
["V-A:GLU:543:CD:4905, V-A:HIS:456:CE1:4066, V-B:GLU:543:CB:9875, V-B:HIS:456:CE1:9038, V-B:ASN:362:CB:8144, V-B:TYR:539:CE1:9844, V-B:MET:535:CE:9804, V-B:PRO:540:CA:9852, V-B:TYR:539:CZ:9846, V-B:TYR:531:CE2:9762, V-B:PRO:540:N:9853, V-B:PRO:540:CB:9854, H-B:TYR:539:N:9839, V-B:LEU:363:CD1:8157, V-B:ALA:541:CB:9861, V-B:GLU:543:CD:9877, V-B:GLU:543:CG:9876, V-A:ARG:545:CZ:4923, V-A:ARG:545:CD:4920, V-B:TYR:539:CE2:9845, V-A:ARG:545:CG:4919, V-B:ILE:538:CG2:9832, V-B:ILE:538:CB:9831, V-A:LEU:475:CD1:4254, V-B:TYR:539:C:9836, V-B:TYR:539:CD2:9843, V-B:ILE:538:CA:9829, V-B:TYR:539:CD1:9842, V-B:TYR:539:CG:9841, H-A:GLY:454:N:4046, V-A:GLY:454:CA:4045, V-A:GLY:453:C:4038, V-A:GLY:453:CA:4040, H-A:TYR:484:OH:4344, V-A:GLY:454:C:4043"]

$$$$
3ci_Grossjean_2025
     RDKit          3D

 39 41  0  0  0  0  0  0  0  0999 V2000
  126.1470  122.5860   55.6280 C   0  0  0  0  0  0  0  0  0  0  0  0
  127.3090  122.9110   56.5480 C   0  0  0  0  0  0  0  0  0  0  0  0
  128.3480  123.7440   56.1470 C   0  0  0  0  0  0  0  0  0  0  0  0
  129.3920  124.0280   57.0380 C   0  0  0  0  0  0  0  0  0  0  0  0
  130.4790  124.9400   56.5700 C   0  0  0  0  0  0  0  0  0  0  0  0
  131.2000  124.6550   55.4030 C   0  0  0  0  0  0  0  0  0  0  0  0
  132.2170  125.5040   54.9750 C   0  0  0  0  0  0  0  0  0  0  0  0
  132.5230  126.6400   55.7170 C   0  0  0  0  0  0  0  0  0  0  0  0
  131.8220  126.9340   56.8840 C   0  0  0  0  0  0  0  0  0  0  0  0
  130.8050  126.0830   57.3090 C   0  0  0  0  0  0  0  0  0  0  0  0
  129.3560  123.4390   58.3280 C   0  0  0  0  0  0  0  0  0  0  0  0
  130.4420  123.6650   59.2880 C   0  0  0  0  0  0  0  0  0  0  0  0
  131.2990  123.8450   60.0450 N   0  0  0  0  0  0  0  0  0  0  0  0
  128.2590  122.6070   58.6560 C   0  0  0  0  0  0  0  0  0  0  0  0
  128.1000  121.8310   60.2600 S   0  0  0  0  0  0  0  0  0  0  0  0
  127.1640  122.9260   61.3760 C   0  0  0  0  0  0  0  0  0  0  0  0
  125.8530  123.4360   60.7680 C   0  0  0  0  0  0  0  0  0  0  0  0
  124.7950  123.2460   61.3730 O   0  0  0  0  0  0  0  0  0  0  0  0
  125.9620  124.0600   59.5740 N   0  0  0  0  0  0  0  0  0  0  0  0
  124.9420  124.6350   58.8290 C   0  0  0  0  0  0  0  0  0  0  0  0
  123.6930  124.9470   59.3640 C   0  0  0  0  0  0  0  0  0  0  0  0
  122.9800  125.4870   58.3170 C   0  0  0  0  0  0  0  0  0  0  0  0
  123.7620  125.5000   57.2110 O   0  0  0  0  0  0  0  0  0  0  0  0
  125.0020  124.9560   57.5470 N   0  0  0  0  0  0  0  0  0  0  0  0
  127.2600  122.3460   57.7750 N   0  0  0  0  0  0  0  0  0  0  0  0
  125.2606  122.3381   56.2304 H   0  0  0  0  0  0  0  0  0  0  0  0
  125.9271  123.4571   54.9933 H   0  0  0  0  0  0  0  0  0  0  0  0
  126.4109  121.7272   54.9933 H   0  0  0  0  0  0  0  0  0  0  0  0
  128.3504  124.1776   55.1361 H   0  0  0  0  0  0  0  0  0  0  0  0
  130.9606  123.7533   54.8203 H   0  0  0  0  0  0  0  0  0  0  0  0
  132.7756  125.2776   54.0548 H   0  0  0  0  0  0  0  0  0  0  0  0
  133.3256  127.3120   55.3792 H   0  0  0  0  0  0  0  0  0  0  0  0
  132.0703  127.8333   57.4667 H   0  0  0  0  0  0  0  0  0  0  0  0
  130.2534  126.3109   58.2330 H   0  0  0  0  0  0  0  0  0  0  0  0
  126.9290  122.3691   62.2950 H   0  0  0  0  0  0  0  0  0  0  0  0
  127.7948  123.8053   61.5732 H   0  0  0  0  0  0  0  0  0  0  0  0
  126.8880  124.1450   59.1810 H   0  0  0  0  0  0  0  0  0  0  0  0
  123.3511  124.7948   60.3984 H   0  0  0  0  0  0  0  0  0  0  0  0
  121.9428  125.8494   58.3702 H   0  0  0  0  0  0  0  0  0  0  0  0
  1  2  1  0
  2  3  2  0
  3  4  1  0
  4  5  1  0
  5  6  2  0
  6  7  1  0
  7  8  2  0
  8  9  1  0
  9 10  2  0
  4 11  2  0
 11 12  1  0
 12 13  3  0
 11 14  1  0
 14 15  1  0
 15 16  1  0
 16 17  1  0
 17 18  2  0
 17 19  1  0
 19 20  1  0
 20 21  1  0
 21 22  2  0
 22 23  1  0
 23 24  1  0
 14 25  2  0
 25  2  1  0
 10  5  1  0
 24 20  2  0
  1 26  1  0
  1 27  1  0
  1 28  1  0
  3 29  1  0
  6 30  1  0
  7 31  1  0
  8 32  1  0
  9 33  1  0
 10 34  1  0
 16 35  1  0
 16 36  1  0
 19 37  1  0
 21 38  1  0
 22 39  1  0
M  END
>  <Binding energies>  (1) 
[-8.16]

>  <Ligand effiencies>  (1) 
[-0.31384615384615383]

>  <Interactions>  (1) 
["V-A:ASP:366:CB:3208, V-A:ASP:366:CG:3209, V-B:ASP:366:CB:8180, V-B:TYR:539:CE1:9844, V-B:MET:535:CE:9804, V-B:PRO:540:CA:9852, V-A:ASP:366:C:3204, V-B:TYR:539:CZ:9846, V-B:TYR:531:CE2:9762, V-A:TYR:531:CZ:4791, V-B:ASN:362:C:8140, V-A:TYR:531:CE1:4789, V-B:ASP:366:CG:8181, V-B:LEU:363:CD1:8157, V-B:LEU:363:CA:8153, H-B:TYR:531:OH:9764, V-B:ALA:541:CB:9861, H-B:TYR:539:OH:9847, V-A:ASN:370:CB:3241, V-B:GLU:543:CD:9877, V-B:TYR:539:CE2:9845, H-B:ALA:541:N:9860, V-B:ILE:538:CG2:9832, V-B:ILE:538:CB:9831, V-B:TYR:539:C:9836, V-B:TYR:539:CD2:9843, V-B:ILE:538:CA:9829, V-B:LEU:363:CB:8155, V-B:ALA:541:CA:9859, V-B:LEU:363:C:8151"]

$$$$
3cj_Grossjean_2025
     RDKit          3D

 39 41  0  0  0  0  0  0  0  0999 V2000
  127.2160  134.9930   61.3960 C   0  0  0  0  0  0  0  0  0  0  0  0
  127.5870  133.6870   60.7200 C   0  0  0  0  0  0  0  0  0  0  0  0
  128.9170  133.3120   60.5410 C   0  0  0  0  0  0  0  0  0  0  0  0
  129.2140  132.0850   59.9320 C   0  0  0  0  0  0  0  0  0  0  0  0
  130.6490  131.6940   59.8200 C   0  0  0  0  0  0  0  0  0  0  0  0
  131.2330  131.4830   58.5650 C   0  0  0  0  0  0  0  0  0  0  0  0
  132.5690  131.1050   58.4620 C   0  0  0  0  0  0  0  0  0  0  0  0
  133.3260  130.9320   59.6160 C   0  0  0  0  0  0  0  0  0  0  0  0
  132.7580  131.1300   60.8720 C   0  0  0  0  0  0  0  0  0  0  0  0
  131.4210  131.5070   60.9730 C   0  0  0  0  0  0  0  0  0  0  0  0
  128.1390  131.2760   59.4860 C   0  0  0  0  0  0  0  0  0  0  0  0
  128.3860  129.9950   58.8150 C   0  0  0  0  0  0  0  0  0  0  0  0
  128.5820  128.9840   58.2870 N   0  0  0  0  0  0  0  0  0  0  0  0
  126.8220  131.7340   59.7130 C   0  0  0  0  0  0  0  0  0  0  0  0
  125.3850  130.7580   59.3240 S   0  0  0  0  0  0  0  0  0  0  0  0
  124.0060  131.6010   60.1640 C   0  0  0  0  0  0  0  0  0  0  0  0
  124.1550  131.5570   61.6880 C   0  0  0  0  0  0  0  0  0  0  0  0
  123.8170  132.5340   62.3590 O   0  0  0  0  0  0  0  0  0  0  0  0
  124.6260  130.3950   62.1900 N   0  0  0  0  0  0  0  0  0  0  0  0
  124.7260  130.0530   63.5290 C   0  0  0  0  0  0  0  0  0  0  0  0
  123.7680  130.0260   64.4300 N   0  0  0  0  0  0  0  0  0  0  0  0
  124.2170  129.6210   65.6010 C   0  0  0  0  0  0  0  0  0  0  0  0
  125.5720  129.3100   65.6680 C   0  0  0  0  0  0  0  0  0  0  0  0
  126.2890  129.5660   64.1040 S   0  0  0  0  0  0  0  0  0  0  0  0
  126.5520  132.9120   60.3280 N   0  0  0  0  0  0  0  0  0  0  0  0
  127.2526  134.8641   62.4878 H   0  0  0  0  0  0  0  0  0  0  0  0
  127.9271  135.7765   61.0952 H   0  0  0  0  0  0  0  0  0  0  0  0
  126.1992  135.2856   61.0952 H   0  0  0  0  0  0  0  0  0  0  0  0
  129.7287  133.9747   60.8755 H   0  0  0  0  0  0  0  0  0  0  0  0
  130.6317  131.6169   57.6536 H   0  0  0  0  0  0  0  0  0  0  0  0
  133.0235  130.9440   57.4733 H   0  0  0  0  0  0  0  0  0  0  0  0
  134.3825  130.6362   59.5358 H   0  0  0  0  0  0  0  0  0  0  0  0
  133.3625  130.9893   61.7802 H   0  0  0  0  0  0  0  0  0  0  0  0
  130.9690  131.6587   61.9643 H   0  0  0  0  0  0  0  0  0  0  0  0
  123.9802  132.6516   59.8391 H   0  0  0  0  0  0  0  0  0  0  0  0
  123.0742  131.0811   59.8967 H   0  0  0  0  0  0  0  0  0  0  0  0
  124.8510  129.6630   61.5320 H   0  0  0  0  0  0  0  0  0  0  0  0
  123.5574  129.5336   66.4769 H   0  0  0  0  0  0  0  0  0  0  0  0
  126.1035  128.9591   66.5649 H   0  0  0  0  0  0  0  0  0  0  0  0
  1  2  1  0
  2  3  2  0
  3  4  1  0
  4  5  1  0
  5  6  2  0
  6  7  1  0
  7  8  2  0
  8  9  1  0
  9 10  2  0
  4 11  2  0
 11 12  1  0
 12 13  3  0
 11 14  1  0
 14 15  1  0
 15 16  1  0
 16 17  1  0
 17 18  2  0
 17 19  1  0
 19 20  1  0
 20 21  2  0
 21 22  1  0
 22 23  2  0
 23 24  1  0
 14 25  2  0
 25  2  1  0
 10  5  1  0
 24 20  1  0
  1 26  1  0
  1 27  1  0
  1 28  1  0
  3 29  1  0
  6 30  1  0
  7 31  1  0
  8 32  1  0
  9 33  1  0
 10 34  1  0
 16 35  1  0
 16 36  1  0
 19 37  1  0
 22 38  1  0
 23 39  1  0
M  END
>  <Binding energies>  (1) 
[-7.6]

>  <Ligand effiencies>  (1) 
[-0.29230769230769227]

>  <Interactions>  (1) 
["V-A:PRO:540:CB:4882, V-A:ALA:541:CB:4889, V-A:PRO:540:CA:4880, V-A:TYR:539:C:4864, V-A:LEU:363:CA:3181, V-A:ASP:366:CG:3209, V-A:ASN:362:CB:3172, V-A:GLU:543:CD:4905, V-A:ASN:362:C:3168, V-B:LEU:475:CD2:9227, V-B:HIS:456:CE1:9038, V-B:ASP:366:CB:8180, H-B:ASP:366:OD1:8182, V-B:ILE:369:CG2:8205, V-B:ASP:366:CG:8181, V-B:ILE:369:CD1:8207, V-A:ALA:541:CA:4887, V-B:ARG:545:CZ:9895, V-A:PRO:540:C:4878, H-B:ARG:545:NH2:9897, H-B:ARG:545:NH1:9896, H-B:GLY:454:N:9018, H-B:ASP:366:OD2:8183, V-B:ARG:545:CD:9892, V-B:ILE:369:CB:8204"]

$$$$
3ck_Grossjean_2025
     RDKit          3D

 57 58  0  0  0  0  0  0  0  0999 V2000
  130.2470  127.7780   71.2580 C   0  0  0  0  0  0  0  0  0  0  0  0
  129.7580  127.3550   72.5210 O   0  0  0  0  0  0  0  0  0  0  0  0
  128.7160  126.3940   72.4320 C   0  0  0  0  0  0  0  0  0  0  0  0
  129.2210  125.1570   71.6790 C   0  0  0  0  0  0  0  0  0  0  0  0
  129.2970  124.0580   72.5780 O   0  0  0  0  0  0  0  0  0  0  0  0
  130.5530  123.9340   73.2330 C   0  0  0  0  0  0  0  0  0  0  0  0
  131.0440  122.4870   73.1050 C   0  0  0  0  0  0  0  0  0  0  0  0
  129.9220  121.6230   73.2100 O   0  0  0  0  0  0  0  0  0  0  0  0
  130.2030  120.3460   73.7640 C   0  0  0  0  0  0  0  0  0  0  0  0
  130.1330  120.4240   75.3010 C   0  0  0  0  0  0  0  0  0  0  0  0
  128.7890  120.2050   75.8420 N   0  0  0  0  0  0  0  0  0  0  0  0
  128.4910  119.9780   77.1340 C   0  0  0  0  0  0  0  0  0  0  0  0
  129.3380  119.9560   78.0290 O   0  0  0  0  0  0  0  0  0  0  0  0
  127.0010  119.7490   77.4390 C   0  0  0  0  0  0  0  0  0  0  0  0
  125.8530  120.9470   76.6770 S   0  0  0  0  0  0  0  0  0  0  0  0
  125.5090  120.4420   74.9980 C   0  0  0  0  0  0  0  0  0  0  0  0
  126.5140  120.6440   74.1090 N   0  0  0  0  0  0  0  0  0  0  0  0
  126.3210  120.2890   72.8190 C   0  0  0  0  0  0  0  0  0  0  0  0
  127.4860  120.5470   71.8830 C   0  0  0  0  0  0  0  0  0  0  0  0
  125.1320  119.7240   72.3650 C   0  0  0  0  0  0  0  0  0  0  0  0
  124.0790  119.5120   73.2650 C   0  0  0  0  0  0  0  0  0  0  0  0
  122.8140  118.9250   72.7290 C   0  0  0  0  0  0  0  0  0  0  0  0
  121.5780  119.4840   73.0760 C   0  0  0  0  0  0  0  0  0  0  0  0
  120.3930  118.9350   72.5880 C   0  0  0  0  0  0  0  0  0  0  0  0
  120.4420  117.8210   71.7560 C   0  0  0  0  0  0  0  0  0  0  0  0
  121.6630  117.2490   71.4090 C   0  0  0  0  0  0  0  0  0  0  0  0
  122.8450  117.7990   71.8970 C   0  0  0  0  0  0  0  0  0  0  0  0
  124.2720  119.8680   74.6250 C   0  0  0  0  0  0  0  0  0  0  0  0
  123.2200  119.6300   75.6190 C   0  0  0  0  0  0  0  0  0  0  0  0
  122.3890  119.4420   76.4030 N   0  0  0  0  0  0  0  0  0  0  0  0
  131.0715  128.4913   71.4042 H   0  0  0  0  0  0  0  0  0  0  0  0
  130.6119  126.9061   70.6953 H   0  0  0  0  0  0  0  0  0  0  0  0
  129.4367  128.2646   70.6953 H   0  0  0  0  0  0  0  0  0  0  0  0
  128.3992  126.1025   73.4443 H   0  0  0  0  0  0  0  0  0  0  0  0
  127.8629  126.8287   71.8905 H   0  0  0  0  0  0  0  0  0  0  0  0
  128.5260  124.9154   70.8613 H   0  0  0  0  0  0  0  0  0  0  0  0
  130.2181  125.3613   71.2617 H   0  0  0  0  0  0  0  0  0  0  0  0
  131.2812  124.6130   72.7652 H   0  0  0  0  0  0  0  0  0  0  0  0
  130.4446  124.1963   74.2958 H   0  0  0  0  0  0  0  0  0  0  0  0
  131.5324  122.3451   72.1296 H   0  0  0  0  0  0  0  0  0  0  0  0
  131.7703  122.2622   73.8999 H   0  0  0  0  0  0  0  0  0  0  0  0
  129.4630  119.6180   73.4001 H   0  0  0  0  0  0  0  0  0  0  0  0
  131.2113  120.0289   73.4594 H   0  0  0  0  0  0  0  0  0  0  0  0
  130.8041  119.6589   75.7183 H   0  0  0  0  0  0  0  0  0  0  0  0
  130.4311  121.4441   75.5847 H   0  0  0  0  0  0  0  0  0  0  0  0
  128.0330  120.2230   75.1730 H   0  0  0  0  0  0  0  0  0  0  0  0
  126.7314  118.7449   77.0798 H   0  0  0  0  0  0  0  0  0  0  0  0
  126.8914  119.8735   78.5264 H   0  0  0  0  0  0  0  0  0  0  0  0
  128.3926  120.7478   72.4727 H   0  0  0  0  0  0  0  0  0  0  0  0
  127.6494  119.6633   71.2487 H   0  0  0  0  0  0  0  0  0  0  0  0
  127.2610  121.4171   71.2487 H   0  0  0  0  0  0  0  0  0  0  0  0
  125.0200  119.4459   71.3066 H   0  0  0  0  0  0  0  0  0  0  0  0
  121.5417  120.3619   73.7378 H   0  0  0  0  0  0  0  0  0  0  0  0
  119.4244  119.3803   72.8594 H   0  0  0  0  0  0  0  0  0  0  0  0
  119.5077  117.3883   71.3689 H   0  0  0  0  0  0  0  0  0  0  0  0
  121.6935  116.3669   70.7525 H   0  0  0  0  0  0  0  0  0  0  0  0
  123.8103  117.3459   71.6271 H   0  0  0  0  0  0  0  0  0  0  0  0
  1  2  1  0
  2  3  1  0
  3  4  1  0
  4  5  1  0
  5  6  1  0
  6  7  1  0
  7  8  1  0
  8  9  1  0
  9 10  1  0
 10 11  1  0
 11 12  1  0
 12 13  2  0
 12 14  1  0
 14 15  1  0
 15 16  1  0
 16 17  2  0
 17 18  1  0
 18 19  1  0
 18 20  2  0
 20 21  1  0
 21 22  1  0
 22 23  2  0
 23 24  1  0
 24 25  2  0
 25 26  1  0
 26 27  2  0
 21 28  2  0
 28 29  1  0
 29 30  3  0
 28 16  1  0
 27 22  1  0
  1 31  1  0
  1 32  1  0
  1 33  1  0
  3 34  1  0
  3 35  1  0
  4 36  1  0
  4 37  1  0
  6 38  1  0
  6 39  1  0
  7 40  1  0
  7 41  1  0
  9 42  1  0
  9 43  1  0
 10 44  1  0
 10 45  1  0
 11 46  1  0
 14 47  1  0
 14 48  1  0
 19 49  1  0
 19 50  1  0
 19 51  1  0
 20 52  1  0
 23 53  1  0
 24 54  1  0
 25 55  1  0
 26 56  1  0
 27 57  1  0
M  END
>  <Binding energies>  (1) 
[-6.82]

>  <Ligand effiencies>  (1) 
[-0.22]

>  <Interactions>  (1) 
["V-B:GLU:543:C:9871, V-B:LYS:547:CE:9919, H-A:LYS:547:NZ:4948, H-B:LYS:547:NZ:9920, V-B:GLY:544:CA:9883, V-A:HIS:456:CD2:4064, V-A:TYR:484:CB:4337, V-A:TYR:484:CG:4338, V-B:VAL:542:CG1:9868, V-A:TYR:484:CD1:4339, V-A:ASP:473:CB:4235, V-B:LYS:547:CG:9917, V-A:ASP:473:CG:4236, H-B:PHE:548:N:9928, V-B:LYS:547:CA:9914, V-A:TYR:484:CD2:4340, V-B:GLU:357:CB:8102, V-B:PHE:548:CE2:9934, V-B:ARG:356:CB:8085, V-B:GLU:357:CA:8100, V-B:ARG:356:C:8081, V-B:ARG:356:CA:8083, V-B:ARG:356:CD:8087, V-B:ARG:356:CG:8086"]

$$$$
4aa_Grossjean_2025
     RDKit          3D

 45 47  0  0  0  0  0  0  0  0999 V2000
  124.9760  123.2480   57.1440 C   0  0  0  0  0  0  0  0  0  0  0  0
  125.4930  122.3830   55.9910 C   0  0  0  0  0  0  0  0  0  0  0  0
  126.7210  121.7740   56.3710 O   0  0  0  0  0  0  0  0  0  0  0  0
  127.8410  122.5170   56.5660 C   0  0  0  0  0  0  0  0  0  0  0  0
  128.6290  122.8110   55.6610 O   0  0  0  0  0  0  0  0  0  0  0  0
  128.0280  122.9440   57.9930 C   0  0  0  0  0  0  0  0  0  0  0  0
  128.1570  124.3080   58.2880 C   0  0  0  0  0  0  0  0  0  0  0  0
  128.3380  124.7350   59.6010 C   0  0  0  0  0  0  0  0  0  0  0  0
  128.3830  123.8100   60.6450 C   0  0  0  0  0  0  0  0  0  0  0  0
  128.5770  124.3500   61.9320 N   0  0  0  0  0  0  0  0  0  0  0  0
  129.7030  124.8220   62.5200 C   0  0  0  0  0  0  0  0  0  0  0  0
  130.8160  124.8090   61.9940 O   0  0  0  0  0  0  0  0  0  0  0  0
  129.5270  125.3450   63.8760 C   0  0  0  0  0  0  0  0  0  0  0  0
  129.7920  124.3000   65.2750 S   0  0  0  0  0  0  0  0  0  0  0  0
  129.3590  125.5870   66.3770 C   0  0  0  0  0  0  0  0  0  0  0  0
  129.3620  125.4150   67.6990 N   0  0  0  0  0  0  0  0  0  0  0  0
  129.0020  126.4910   68.4400 C   0  0  0  0  0  0  0  0  0  0  0  0
  129.0080  126.2720   69.9430 C   0  0  0  0  0  0  0  0  0  0  0  0
  128.6450  127.7230   67.8960 C   0  0  0  0  0  0  0  0  0  0  0  0
  128.6440  127.9010   66.5080 C   0  0  0  0  0  0  0  0  0  0  0  0
  128.2470  129.2640   65.9610 C   0  0  0  0  0  0  0  0  0  0  0  0
  129.0120  126.7940   65.6970 C   0  0  0  0  0  0  0  0  0  0  0  0
  129.1120  126.6260   64.2720 C   0  0  0  0  0  0  0  0  0  0  0  0
  128.8270  127.6420   63.3940 N   0  0  0  0  0  0  0  0  0  0  0  0
  128.2600  122.4430   60.3600 C   0  0  0  0  0  0  0  0  0  0  0  0
  128.0840  122.0170   59.0450 C   0  0  0  0  0  0  0  0  0  0  0  0
  125.2528  122.7848   58.1026 H   0  0  0  0  0  0  0  0  0  0  0  0
  125.4228  124.2510   57.0788 H   0  0  0  0  0  0  0  0  0  0  0  0
  123.8810  123.3295   57.0788 H   0  0  0  0  0  0  0  0  0  0  0  0
  124.7535  121.6030   55.7572 H   0  0  0  0  0  0  0  0  0  0  0  0
  125.6542  123.0122   55.1033 H   0  0  0  0  0  0  0  0  0  0  0  0
  128.1149  125.0479   57.4751 H   0  0  0  0  0  0  0  0  0  0  0  0
  128.4462  125.8082   59.8167 H   0  0  0  0  0  0  0  0  0  0  0  0
  127.7420  124.3720   62.5000 H   0  0  0  0  0  0  0  0  0  0  0  0
  128.9813  127.2450   70.4554 H   0  0  0  0  0  0  0  0  0  0  0  0
  128.1257  125.6816   70.2310 H   0  0  0  0  0  0  0  0  0  0  0  0
  129.9213  125.7308   70.2310 H   0  0  0  0  0  0  0  0  0  0  0  0
  128.3639  128.5557   68.5575 H   0  0  0  0  0  0  0  0  0  0  0  0
  128.0470  129.9505   66.7969 H   0  0  0  0  0  0  0  0  0  0  0  0
  129.0658  129.6647   65.3453 H   0  0  0  0  0  0  0  0  0  0  0  0
  127.3411  129.1623   65.3453 H   0  0  0  0  0  0  0  0  0  0  0  0
  127.9790  127.6500   62.8460 H   0  0  0  0  0  0  0  0  0  0  0  0
  129.4600  128.4190   63.2660 H   0  0  0  0  0  0  0  0  0  0  0  0
  128.3025  121.7058   61.1753 H   0  0  0  0  0  0  0  0  0  0  0  0
  127.9879  120.9426   58.8293 H   0  0  0  0  0  0  0  0  0  0  0  0
  1  2  1  0
  2  3  1  0
  3  4  1  0
  4  5  2  0
  4  6  1  0
  6  7  2  0
  7  8  1  0
  8  9  2  0
  9 10  1  0
 10 11  1  0
 11 12  2  0
 11 13  1  0
 13 14  1  0
 14 15  1  0
 15 16  2  0
 16 17  1  0
 17 18  1  0
 17 19  2  0
 19 20  1  0
 20 21  1  0
 20 22  2  0
 22 23  1  0
 23 24  1  0
  9 25  1  0
 25 26  2  0
 26  6  1  0
 23 13  2  0
 22 15  1  0
  1 27  1  0
  1 28  1  0
  1 29  1  0
  2 30  1  0
  2 31  1  0
  7 32  1  0
  8 33  1  0
 10 34  1  0
 18 35  1  0
 18 36  1  0
 18 37  1  0
 19 38  1  0
 21 39  1  0
 21 40  1  0
 21 41  1  0
 24 42  1  0
 24 43  1  0
 25 44  1  0
 26 45  1  0
M  END
>  <Binding energies>  (1) 
[-7.45]

>  <Ligand effiencies>  (1) 
[-0.25689655172413794]

>  <Interactions>  (1) 
["H-A:GLU:543:OE1:4906, H-A:GLU:543:OE2:4907, V-A:GLU:543:CD:4905, V-A:HIS:456:CE1:4066, V-A:GLU:543:CB:4903, V-A:HIS:456:CD2:4064, V-B:GLU:543:CB:9875, V-B:HIS:456:CE1:9038, V-B:TYR:539:CE1:9844, V-B:PRO:540:CA:9852, V-B:TYR:539:CZ:9846, V-B:PRO:540:N:9853, V-B:PRO:540:CB:9854, H-B:TYR:539:N:9839, V-B:LEU:363:CD1:8157, V-B:ALA:541:CB:9861, H-B:GLU:543:OE2:9879, H-B:GLU:543:OE1:9878, V-B:GLU:543:CD:9877, V-B:GLU:543:CG:9876, V-B:TYR:539:CE2:9845, V-A:TYR:484:CE1:4341, V-A:GLU:543:CG:4904, V-B:ILE:538:CG2:9832, V-B:ILE:538:CB:9831, V-B:PRO:540:CD:9856, V-B:TYR:539:C:9836, V-B:TYR:539:CD2:9843, V-B:TYR:539:CD1:9842, V-B:TYR:539:CG:9841"]

$$$$
4ab_Grossjean_2025
     RDKit          3D

 42 44  0  0  0  0  0  0  0  0999 V2000
  128.0350  122.8190   54.7610 C   0  0  0  0  0  0  0  0  0  0  0  0
  127.9100  121.9810   55.9020 O   0  0  0  0  0  0  0  0  0  0  0  0
  126.8750  122.1300   56.7680 C   0  0  0  0  0  0  0  0  0  0  0  0
  125.7040  121.8600   56.4820 O   0  0  0  0  0  0  0  0  0  0  0  0
  127.2950  122.6630   58.1070 C   0  0  0  0  0  0  0  0  0  0  0  0
  126.5660  123.7110   58.6850 C   0  0  0  0  0  0  0  0  0  0  0  0
  126.9320  124.2280   59.9250 C   0  0  0  0  0  0  0  0  0  0  0  0
  128.0250  123.7040   60.6150 C   0  0  0  0  0  0  0  0  0  0  0  0
  128.3090  124.3070   61.8550 N   0  0  0  0  0  0  0  0  0  0  0  0
  129.4770  124.7920   62.3440 C   0  0  0  0  0  0  0  0  0  0  0  0
  130.5530  124.7380   61.7480 O   0  0  0  0  0  0  0  0  0  0  0  0
  129.3960  125.3850   63.6800 C   0  0  0  0  0  0  0  0  0  0  0  0
  129.7700  124.4160   65.1080 S   0  0  0  0  0  0  0  0  0  0  0  0
  129.4090  125.7580   66.1710 C   0  0  0  0  0  0  0  0  0  0  0  0
  129.5090  125.6550   67.4970 N   0  0  0  0  0  0  0  0  0  0  0  0
  129.1980  126.7680   68.2050 C   0  0  0  0  0  0  0  0  0  0  0  0
  129.3130  126.6280   69.7120 C   0  0  0  0  0  0  0  0  0  0  0  0
  128.7980  127.9690   67.6260 C   0  0  0  0  0  0  0  0  0  0  0  0
  128.6940  128.0740   66.2330 C   0  0  0  0  0  0  0  0  0  0  0  0
  128.2510  129.4060   65.6480 C   0  0  0  0  0  0  0  0  0  0  0  0
  129.0070  126.9260   65.4560 C   0  0  0  0  0  0  0  0  0  0  0  0
  129.0030  126.6830   64.0390 C   0  0  0  0  0  0  0  0  0  0  0  0
  128.6460  127.6500   63.1320 N   0  0  0  0  0  0  0  0  0  0  0  0
  128.7650  122.6590   60.0420 C   0  0  0  0  0  0  0  0  0  0  0  0
  128.3990  122.1440   58.8010 C   0  0  0  0  0  0  0  0  0  0  0  0
  128.1901  123.8587   55.0849 H   0  0  0  0  0  0  0  0  0  0  0  0
  128.8941  122.4909   54.1575 H   0  0  0  0  0  0  0  0  0  0  0  0
  127.1175  122.7560   54.1575 H   0  0  0  0  0  0  0  0  0  0  0  0
  125.6975  124.1287   58.1547 H   0  0  0  0  0  0  0  0  0  0  0  0
  126.3550  125.0555   60.3635 H   0  0  0  0  0  0  0  0  0  0  0  0
  127.5140  124.3710   62.4730 H   0  0  0  0  0  0  0  0  0  0  0  0
  128.6872  127.3898   70.1998 H   0  0  0  0  0  0  0  0  0  0  0  0
  128.9735  125.6263   70.0142 H   0  0  0  0  0  0  0  0  0  0  0  0
  130.3616  126.7664   70.0142 H   0  0  0  0  0  0  0  0  0  0  0  0
  128.5637  128.8353   68.2621 H   0  0  0  0  0  0  0  0  0  0  0  0
  128.0183  130.1057   66.4642 H   0  0  0  0  0  0  0  0  0  0  0  0
  129.0594  129.8213   65.0283 H   0  0  0  0  0  0  0  0  0  0  0  0
  127.3549  129.2544   65.0283 H   0  0  0  0  0  0  0  0  0  0  0  0
  127.7800  127.6040   62.6150 H   0  0  0  0  0  0  0  0  0  0  0  0
  129.2460  128.4430   62.9480 H   0  0  0  0  0  0  0  0  0  0  0  0
  129.6351  122.2460   60.5734 H   0  0  0  0  0  0  0  0  0  0  0  0
  128.9814  121.3216   58.3599 H   0  0  0  0  0  0  0  0  0  0  0  0
  1  2  1  0
  2  3  1  0
  3  4  2  0
  3  5  1  0
  5  6  2  0
  6  7  1  0
  7  8  2  0
  8  9  1  0
  9 10  1  0
 10 11  2  0
 10 12  1  0
 12 13  1  0
 13 14  1  0
 14 15  2  0
 15 16  1  0
 16 17  1  0
 16 18  2  0
 18 19  1  0
 19 20  1  0
 19 21  2  0
 21 22  1  0
 22 23  1  0
  8 24  1  0
 24 25  2  0
 25  5  1  0
 22 12  2  0
 21 14  1  0
  1 26  1  0
  1 27  1  0
  1 28  1  0
  6 29  1  0
  7 30  1  0
  9 31  1  0
 17 32  1  0
 17 33  1  0
 17 34  1  0
 18 35  1  0
 20 36  1  0
 20 37  1  0
 20 38  1  0
 23 39  1  0
 23 40  1  0
 24 41  1  0
 25 42  1  0
M  END
>  <Binding energies>  (1) 
[-7.43]

>  <Ligand effiencies>  (1) 
[-0.26535714285714285]

>  <Interactions>  (1) 
["H-A:GLU:543:OE1:4906, H-A:GLU:543:OE2:4907, V-A:GLU:543:CD:4905, V-A:HIS:456:CE1:4066, V-A:GLU:543:CB:4903, V-A:HIS:456:CD2:4064, V-B:GLU:543:CB:9875, V-B:HIS:456:CE1:9038, V-B:TYR:539:CE1:9844, V-B:MET:535:CE:9804, V-B:PRO:540:CA:9852, V-B:TYR:539:CZ:9846, V-B:PRO:540:N:9853, H-B:TYR:539:N:9839, H-B:GLU:543:OE2:9879, H-B:GLU:543:OE1:9878, V-B:GLU:543:CD:9877, V-B:GLU:543:CG:9876, V-B:TYR:539:CE2:9845, V-A:TYR:484:CE1:4341, V-A:GLU:543:CG:4904, V-B:ILE:538:CG2:9832, V-B:ILE:538:CB:9831, V-B:PRO:540:CD:9856, V-B:TYR:539:C:9836, V-B:TYR:539:CD2:9843, V-B:ILE:538:CA:9829, V-B:TYR:539:CD1:9842, V-B:TYR:539:CG:9841"]

$$$$
4ac_Grossjean_2025
     RDKit          3D

 40 42  0  0  0  0  0  0  0  0999 V2000
  134.4530  125.1010   66.0040 C   0  0  0  0  0  0  0  0  0  0  0  0
  134.5340  125.1240   64.5830 O   0  0  0  0  0  0  0  0  0  0  0  0
  133.3990  124.8730   63.8380 C   0  0  0  0  0  0  0  0  0  0  0  0
  133.5850  124.6550   62.4740 C   0  0  0  0  0  0  0  0  0  0  0  0
  132.4990  124.3930   61.6430 C   0  0  0  0  0  0  0  0  0  0  0  0
  131.2080  124.3360   62.1710 C   0  0  0  0  0  0  0  0  0  0  0  0
  130.1720  124.0790   61.2540 N   0  0  0  0  0  0  0  0  0  0  0  0
  129.6070  122.8970   60.9080 C   0  0  0  0  0  0  0  0  0  0  0  0
  129.9660  121.8050   61.3530 O   0  0  0  0  0  0  0  0  0  0  0  0
  128.5130  122.9840   59.9380 C   0  0  0  0  0  0  0  0  0  0  0  0
  128.7640  122.4890   58.2640 S   0  0  0  0  0  0  0  0  0  0  0  0
  127.1130  122.8890   57.8470 C   0  0  0  0  0  0  0  0  0  0  0  0
  126.6360  122.7250   56.6130 N   0  0  0  0  0  0  0  0  0  0  0  0
  125.3410  123.0730   56.4240 C   0  0  0  0  0  0  0  0  0  0  0  0
  124.8180  122.8780   55.0130 C   0  0  0  0  0  0  0  0  0  0  0  0
  124.5190  123.5790   57.4300 C   0  0  0  0  0  0  0  0  0  0  0  0
  125.0230  123.7500   58.7250 C   0  0  0  0  0  0  0  0  0  0  0  0
  124.0870  124.3050   59.7880 C   0  0  0  0  0  0  0  0  0  0  0  0
  126.3770  123.3930   58.9610 C   0  0  0  0  0  0  0  0  0  0  0  0
  127.1990  123.4350   60.1410 C   0  0  0  0  0  0  0  0  0  0  0  0
  126.7230  123.8820   61.3480 N   0  0  0  0  0  0  0  0  0  0  0  0
  131.0110  124.5670   63.5400 C   0  0  0  0  0  0  0  0  0  0  0  0
  132.1000  124.8290   64.3680 C   0  0  0  0  0  0  0  0  0  0  0  0
  135.4280  125.3779   66.4314 H   0  0  0  0  0  0  0  0  0  0  0  0
  133.6889  125.8177   66.3394 H   0  0  0  0  0  0  0  0  0  0  0  0
  134.1795  124.0897   66.3394 H   0  0  0  0  0  0  0  0  0  0  0  0
  134.5994  124.6903   62.0500 H   0  0  0  0  0  0  0  0  0  0  0  0
  132.6588  124.2304   60.5669 H   0  0  0  0  0  0  0  0  0  0  0  0
  129.8320  124.8960   60.7660 H   0  0  0  0  0  0  0  0  0  0  0  0
  123.7880  122.4940   55.0535 H   0  0  0  0  0  0  0  0  0  0  0  0
  124.8297  123.8409   54.4813 H   0  0  0  0  0  0  0  0  0  0  0  0
  125.4572  122.1578   54.4813 H   0  0  0  0  0  0  0  0  0  0  0  0
  123.4750  123.8437   57.2064 H   0  0  0  0  0  0  0  0  0  0  0  0
  124.4848  124.0692   60.7861 H   0  0  0  0  0  0  0  0  0  0  0  0
  124.0078  125.3961   59.6733 H   0  0  0  0  0  0  0  0  0  0  0  0
  123.0916  123.8510   59.6733 H   0  0  0  0  0  0  0  0  0  0  0  0
  126.6220  123.2670   62.1420 H   0  0  0  0  0  0  0  0  0  0  0  0
  126.4580  124.8480   61.4820 H   0  0  0  0  0  0  0  0  0  0  0  0
  129.9949  124.5413   63.9606 H   0  0  0  0  0  0  0  0  0  0  0  0
  131.9412  125.0023   65.4426 H   0  0  0  0  0  0  0  0  0  0  0  0
  1  2  1  0
  2  3  1  0
  3  4  2  0
  4  5  1  0
  5  6  2  0
  6  7  1  0
  7  8  1  0
  8  9  2  0
  8 10  1  0
 10 11  1  0
 11 12  1  0
 12 13  2  0
 13 14  1  0
 14 15  1  0
 14 16  2  0
 16 17  1  0
 17 18  1  0
 17 19  2  0
 19 20  1  0
 20 21  1  0
  6 22  1  0
 22 23  2  0
 23  3  1  0
 20 10  2  0
 19 12  1  0
  1 24  1  0
  1 25  1  0
  1 26  1  0
  4 27  1  0
  5 28  1  0
  7 29  1  0
 15 30  1  0
 15 31  1  0
 15 32  1  0
 16 33  1  0
 18 34  1  0
 18 35  1  0
 18 36  1  0
 21 37  1  0
 21 38  1  0
 22 39  1  0
 23 40  1  0
M  END
>  <Binding energies>  (1) 
[-7.07]

>  <Ligand effiencies>  (1) 
[-0.27192307692307693]

>  <Interactions>  (1) 
["V-A:ASP:366:CG:3209, V-A:HIS:456:CE1:4066, V-B:TYR:539:CE1:9844, V-B:PRO:540:CA:9852, V-B:TYR:539:CZ:9846, V-B:ASN:362:C:8140, V-B:PRO:540:N:9853, V-B:PRO:540:CB:9854, V-B:LEU:363:CD1:8157, V-B:LEU:363:CA:8153, V-B:ALA:541:CB:9861, H-B:GLU:543:OE2:9879, V-B:GLU:543:CD:9877, V-B:GLU:543:CG:9876, V-A:ARG:545:CZ:4923, V-A:ARG:545:CD:4920, H-A:ARG:545:NH2:4925, V-B:TYR:539:CE2:9845, H-A:ARG:545:NE:4921, V-A:ARG:545:CG:4919, V-B:ILE:538:CG2:9832, V-B:ILE:538:CB:9831, V-B:TYR:539:CD2:9843, V-B:TYR:539:CD1:9842, V-B:TYR:539:CG:9841, H-A:GLY:454:N:4046, H-A:ARG:545:NH1:4924, V-A:GLY:454:CA:4045, V-A:GLY:453:C:4038, V-A:GLY:453:CA:4040, V-A:GLY:454:C:4043, V-B:ILE:538:CD1:9834"]

$$$$
4ad_Grossjean_2025
     RDKit          3D

 36 38  0  0  0  0  0  0  0  0999 V2000
  134.6350  125.1230   65.8110 C   0  0  0  0  0  0  0  0  0  0  0  0
  133.3130  124.9460   65.0890 C   0  0  0  0  0  0  0  0  0  0  0  0
  132.1830  125.6640   65.4750 C   0  0  0  0  0  0  0  0  0  0  0  0
  130.9720  125.4820   64.7950 C   0  0  0  0  0  0  0  0  0  0  0  0
  129.7650  126.2860   65.2540 C   0  0  0  0  0  0  0  0  0  0  0  0
  130.9490  124.5550   63.7180 C   0  0  0  0  0  0  0  0  0  0  0  0
  129.9050  124.1330   62.8240 C   0  0  0  0  0  0  0  0  0  0  0  0
  128.6310  124.6370   62.8980 N   0  0  0  0  0  0  0  0  0  0  0  0
  130.3110  123.1720   61.8850 C   0  0  0  0  0  0  0  0  0  0  0  0
  129.5120  122.5170   60.8470 C   0  0  0  0  0  0  0  0  0  0  0  0
  129.5720  121.2960   60.6860 O   0  0  0  0  0  0  0  0  0  0  0  0
  128.7230  123.3410   60.1150 N   0  0  0  0  0  0  0  0  0  0  0  0
  127.8770  123.0400   59.0300 C   0  0  0  0  0  0  0  0  0  0  0  0
  126.5600  123.4960   59.1360 C   0  0  0  0  0  0  0  0  0  0  0  0
  125.6500  123.2580   58.1110 C   0  0  0  0  0  0  0  0  0  0  0  0
  126.0580  122.5690   56.9720 C   0  0  0  0  0  0  0  0  0  0  0  0
  127.3710  122.1200   56.8480 C   0  0  0  0  0  0  0  0  0  0  0  0
  128.2830  122.3570   57.8720 C   0  0  0  0  0  0  0  0  0  0  0  0
  132.0170  122.7670   62.0860 S   0  0  0  0  0  0  0  0  0  0  0  0
  132.1740  123.8830   63.4230 C   0  0  0  0  0  0  0  0  0  0  0  0
  133.3280  124.0540   64.0690 N   0  0  0  0  0  0  0  0  0  0  0  0
  134.4653  125.1003   66.8976 H   0  0  0  0  0  0  0  0  0  0  0  0
  135.3185  124.3083   65.5295 H   0  0  0  0  0  0  0  0  0  0  0  0
  135.0801  126.0888   65.5295 H   0  0  0  0  0  0  0  0  0  0  0  0
  132.2419  126.3736   66.3135 H   0  0  0  0  0  0  0  0  0  0  0  0
  129.7345  126.3063   66.3534 H   0  0  0  0  0  0  0  0  0  0  0  0
  129.8418  127.3140   64.8703 H   0  0  0  0  0  0  0  0  0  0  0  0
  128.8459  125.8190   64.8703 H   0  0  0  0  0  0  0  0  0  0  0  0
  128.4510  125.6280   62.9750 H   0  0  0  0  0  0  0  0  0  0  0  0
  127.8230  124.0290   62.8730 H   0  0  0  0  0  0  0  0  0  0  0  0
  128.7200  124.3120   60.3890 H   0  0  0  0  0  0  0  0  0  0  0  0
  126.2416  124.0456   60.0341 H   0  0  0  0  0  0  0  0  0  0  0  0
  124.6126  123.6126   58.2000 H   0  0  0  0  0  0  0  0  0  0  0  0
  125.3375  122.3775   56.1631 H   0  0  0  0  0  0  0  0  0  0  0  0
  127.6859  121.5796   55.9431 H   0  0  0  0  0  0  0  0  0  0  0  0
  129.3220  122.0093   57.7744 H   0  0  0  0  0  0  0  0  0  0  0  0
  1  2  1  0
  2  3  2  0
  3  4  1  0
  4  5  1  0
  4  6  2  0
  6  7  1  0
  7  8  1  0
  7  9  2  0
  9 10  1  0
 10 11  2  0
 10 12  1  0
 12 13  1  0
 13 14  2  0
 14 15  1  0
 15 16  2  0
 16 17  1  0
 17 18  2  0
  9 19  1  0
 19 20  1  0
 20 21  2  0
 21  2  1  0
 20  6  1  0
 18 13  1  0
  1 22  1  0
  1 23  1  0
  1 24  1  0
  3 25  1  0
  5 26  1  0
  5 27  1  0
  5 28  1  0
  8 29  1  0
  8 30  1  0
 12 31  1  0
 14 32  1  0
 15 33  1  0
 16 34  1  0
 17 35  1  0
 18 36  1  0
M  END
>  <Binding energies>  (1) 
[-6.95]

>  <Ligand effiencies>  (1) 
[-0.28958333333333336]

>  <Interactions>  (1) 
["V-A:HIS:456:CE1:4066, V-B:TYR:539:CE1:9844, V-B:PRO:540:CA:9852, V-B:TYR:539:CZ:9846, V-B:PRO:540:N:9853, V-B:PRO:540:CB:9854, V-B:ALA:541:CB:9861, H-B:GLU:543:OE2:9879, H-B:GLU:543:OE1:9878, V-B:GLU:543:CD:9877, V-B:GLU:543:CG:9876, V-A:ARG:545:CZ:4923, V-A:ARG:545:CD:4920, V-B:TYR:539:CE2:9845, V-A:ARG:545:CG:4919, V-A:LEU:475:CD1:4254, V-B:PRO:540:CD:9856, V-B:TYR:539:C:9836, V-B:TYR:539:CD2:9843, V-B:TYR:539:CD1:9842, V-B:TYR:539:CG:9841, H-A:GLY:454:N:4046, V-A:GLY:454:CA:4045, V-A:GLY:453:C:4038, V-A:GLY:453:CA:4040, H-A:TYR:484:OH:4344, V-A:GLY:454:C:4043, V-B:TYR:539:CA:9838"]

$$$$
4ae_Grossjean_2025
     RDKit          3D

 38 40  0  0  0  0  0  0  0  0999 V2000
  128.9110  123.0400   54.6400 C   0  0  0  0  0  0  0  0  0  0  0  0
  128.2340  122.9400   55.9930 C   0  0  0  0  0  0  0  0  0  0  0  0
  126.8880  122.5830   56.1130 C   0  0  0  0  0  0  0  0  0  0  0  0
  126.3310  122.5180   57.3900 C   0  0  0  0  0  0  0  0  0  0  0  0
  127.1210  122.8100   58.5040 C   0  0  0  0  0  0  0  0  0  0  0  0
  128.4640  123.1520   58.3130 C   0  0  0  0  0  0  0  0  0  0  0  0
  129.2040  123.4540   59.4700 N   0  0  0  0  0  0  0  0  0  0  0  0
  129.6170  122.6180   60.4550 C   0  0  0  0  0  0  0  0  0  0  0  0
  129.3790  121.4090   60.4730 O   0  0  0  0  0  0  0  0  0  0  0  0
  130.3800  123.2480   61.5340 C   0  0  0  0  0  0  0  0  0  0  0  0
  132.0980  122.8980   61.7330 S   0  0  0  0  0  0  0  0  0  0  0  0
  132.1960  123.9320   63.1390 C   0  0  0  0  0  0  0  0  0  0  0  0
  133.3350  124.1020   63.8110 N   0  0  0  0  0  0  0  0  0  0  0  0
  133.2740  124.9250   64.8850 C   0  0  0  0  0  0  0  0  0  0  0  0
  134.5800  125.0990   65.6400 C   0  0  0  0  0  0  0  0  0  0  0  0
  132.1140  125.5780   65.2980 C   0  0  0  0  0  0  0  0  0  0  0  0
  130.9200  125.3970   64.5890 C   0  0  0  0  0  0  0  0  0  0  0  0
  129.6800  126.1270   65.0800 C   0  0  0  0  0  0  0  0  0  0  0  0
  130.9450  124.5390   63.4570 C   0  0  0  0  0  0  0  0  0  0  0  0
  129.9260  124.1340   62.5250 C   0  0  0  0  0  0  0  0  0  0  0  0
  128.6320  124.5820   62.6120 N   0  0  0  0  0  0  0  0  0  0  0  0
  129.0150  123.2240   57.0660 N   0  0  0  0  0  0  0  0  0  0  0  0
  129.9902  123.1994   54.7809 H   0  0  0  0  0  0  0  0  0  0  0  0
  128.7482  122.1081   54.0788 H   0  0  0  0  0  0  0  0  0  0  0  0
  128.4857  123.8851   54.0788 H   0  0  0  0  0  0  0  0  0  0  0  0
  126.2829  122.3588   55.2222 H   0  0  0  0  0  0  0  0  0  0  0  0
  125.2750  122.2382   57.5190 H   0  0  0  0  0  0  0  0  0  0  0  0
  126.6935  122.7716   59.5168 H   0  0  0  0  0  0  0  0  0  0  0  0
  129.4060  124.4350   59.5990 H   0  0  0  0  0  0  0  0  0  0  0  0
  134.3842  125.0729   66.7221 H   0  0  0  0  0  0  0  0  0  0  0  0
  135.2695  124.2848   65.3724 H   0  0  0  0  0  0  0  0  0  0  0  0
  135.0323  126.0653   65.3724 H   0  0  0  0  0  0  0  0  0  0  0  0
  132.1364  126.2349   66.1800 H   0  0  0  0  0  0  0  0  0  0  0  0
  129.6696  126.1331   66.1799 H   0  0  0  0  0  0  0  0  0  0  0  0
  129.6923  127.1620   64.7077 H   0  0  0  0  0  0  0  0  0  0  0  0
  128.7810  125.6140   64.7077 H   0  0  0  0  0  0  0  0  0  0  0  0
  127.8670  123.9630   62.8400 H   0  0  0  0  0  0  0  0  0  0  0  0
  128.4010  125.5530   62.4520 H   0  0  0  0  0  0  0  0  0  0  0  0
  1  2  1  0
  2  3  2  0
  3  4  1  0
  4  5  2  0
  5  6  1  0
  6  7  1  0
  7  8  1  0
  8  9  2  0
  8 10  1  0
 10 11  1  0
 11 12  1  0
 12 13  2  0
 13 14  1  0
 14 15  1  0
 14 16  2  0
 16 17  1  0
 17 18  1  0
 17 19  2  0
 19 20  1  0
 20 21  1  0
  6 22  2  0
 22  2  1  0
 20 10  2  0
 19 12  1  0
  1 23  1  0
  1 24  1  0
  1 25  1  0
  3 26  1  0
  4 27  1  0
  5 28  1  0
  7 29  1  0
 15 30  1  0
 15 31  1  0
 15 32  1  0
 16 33  1  0
 18 34  1  0
 18 35  1  0
 18 36  1  0
 21 37  1  0
 21 38  1  0
M  END
>  <Binding energies>  (1) 
[-7.05]

>  <Ligand effiencies>  (1) 
[-0.282]

>  <Interactions>  (1) 
["V-A:HIS:456:CE1:4066, V-B:TYR:539:CE1:9844, V-B:MET:535:CE:9804, V-B:PRO:540:CA:9852, V-B:TYR:539:CZ:9846, V-B:PRO:540:N:9853, V-B:PRO:540:CB:9854, H-B:GLU:543:OE2:9879, H-B:TYR:539:OH:9847, V-B:GLU:543:CD:9877, V-B:GLU:543:CG:9876, V-A:ARG:545:CZ:4923, V-A:ARG:545:CD:4920, V-B:TYR:539:CE2:9845, V-A:ARG:545:CG:4919, V-B:ILE:538:CB:9831, V-B:PRO:540:CD:9856, V-B:TYR:539:C:9836, V-B:TYR:539:CD2:9843, V-B:TYR:539:CD1:9842, H-A:GLY:454:N:4046, V-A:GLY:454:CA:4045, V-A:GLY:453:C:4038, V-A:GLY:453:CA:4040, H-A:TYR:484:OH:4344, V-A:GLY:454:C:4043"]

$$$$
4af_Grossjean_2025
     RDKit          3D

 35 37  0  0  0  0  0  0  0  0999 V2000
  134.4840  125.1030   65.6230 C   0  0  0  0  0  0  0  0  0  0  0  0
  133.1760  124.9830   64.8620 C   0  0  0  0  0  0  0  0  0  0  0  0
  132.1050  125.8300   65.1370 C   0  0  0  0  0  0  0  0  0  0  0  0
  130.9070  125.6990   64.4240 C   0  0  0  0  0  0  0  0  0  0  0  0
  129.7660  126.6450   64.7610 C   0  0  0  0  0  0  0  0  0  0  0  0
  130.8340  124.6840   63.4310 C   0  0  0  0  0  0  0  0  0  0  0  0
  129.7840  124.2780   62.5350 C   0  0  0  0  0  0  0  0  0  0  0  0
  128.5590  124.8950   62.5160 N   0  0  0  0  0  0  0  0  0  0  0  0
  130.1320  123.2080   61.6970 C   0  0  0  0  0  0  0  0  0  0  0  0
  129.3070  122.5280   60.6970 C   0  0  0  0  0  0  0  0  0  0  0  0
  129.2910  121.2980   60.6280 O   0  0  0  0  0  0  0  0  0  0  0  0
  128.5780  123.3420   59.8960 N   0  0  0  0  0  0  0  0  0  0  0  0
  127.7310  123.0160   58.8190 C   0  0  0  0  0  0  0  0  0  0  0  0
  126.4030  123.4530   58.6640 C   0  0  0  0  0  0  0  0  0  0  0  0
  125.6660  123.0400   57.5530 C   0  0  0  0  0  0  0  0  0  0  0  0
  126.2720  122.1940   56.6240 C   0  0  0  0  0  0  0  0  0  0  0  0
  127.5490  121.7520   56.7550 N   0  0  0  0  0  0  0  0  0  0  0  0
  128.2530  122.1620   57.8400 C   0  0  0  0  0  0  0  0  0  0  0  0
  131.7860  122.6700   62.0030 S   0  0  0  0  0  0  0  0  0  0  0  0
  132.0000  123.8830   63.2460 C   0  0  0  0  0  0  0  0  0  0  0  0
  133.1430  124.0060   63.9220 N   0  0  0  0  0  0  0  0  0  0  0  0
  134.2822  125.0845   66.7042 H   0  0  0  0  0  0  0  0  0  0  0  0
  135.1409  124.2613   65.3581 H   0  0  0  0  0  0  0  0  0  0  0  0
  134.9768  126.0501   65.3581 H   0  0  0  0  0  0  0  0  0  0  0  0
  132.2003  126.6021   65.9146 H   0  0  0  0  0  0  0  0  0  0  0  0
  129.6678  126.7264   65.8536 H   0  0  0  0  0  0  0  0  0  0  0  0
  129.9755  127.6380   64.3367 H   0  0  0  0  0  0  0  0  0  0  0  0
  128.8290  126.2552   64.3367 H   0  0  0  0  0  0  0  0  0  0  0  0
  127.6960  124.3700   62.5260 H   0  0  0  0  0  0  0  0  0  0  0  0
  128.4790  125.9030   62.4960 H   0  0  0  0  0  0  0  0  0  0  0  0
  128.6370  124.3300   60.0940 H   0  0  0  0  0  0  0  0  0  0  0  0
  125.9479  124.1165   59.4141 H   0  0  0  0  0  0  0  0  0  0  0  0
  124.6277  123.3750   57.4127 H   0  0  0  0  0  0  0  0  0  0  0  0
  125.6904  121.8712   55.7479 H   0  0  0  0  0  0  0  0  0  0  0  0
  129.2870  121.8051   57.9564 H   0  0  0  0  0  0  0  0  0  0  0  0
  1  2  1  0
  2  3  2  0
  3  4  1  0
  4  5  1  0
  4  6  2  0
  6  7  1  0
  7  8  1  0
  7  9  2  0
  9 10  1  0
 10 11  2  0
 10 12  1  0
 12 13  1  0
 13 14  2  0
 14 15  1  0
 15 16  2  0
 16 17  1  0
 17 18  2  0
  9 19  1  0
 19 20  1  0
 20 21  2  0
 21  2  1  0
 20  6  1  0
 18 13  1  0
  1 22  1  0
  1 23  1  0
  1 24  1  0
  3 25  1  0
  5 26  1  0
  5 27  1  0
  5 28  1  0
  8 29  1  0
  8 30  1  0
 12 31  1  0
 14 32  1  0
 15 33  1  0
 16 34  1  0
 18 35  1  0
M  END
>  <Binding energies>  (1) 
[-7.14]

>  <Ligand effiencies>  (1) 
[-0.2975]

>  <Interactions>  (1) 
["V-A:GLU:543:CD:4905, V-A:HIS:456:CE1:4066, V-B:TYR:539:CE1:9844, V-B:PRO:540:CA:9852, V-B:TYR:539:CZ:9846, V-B:PRO:540:N:9853, V-B:PRO:540:CB:9854, H-B:TYR:539:N:9839, V-B:ALA:541:CB:9861, H-B:GLU:543:OE2:9879, H-B:GLU:543:OE1:9878, V-B:GLU:543:CD:9877, V-B:GLU:543:CG:9876, V-A:ARG:545:CZ:4923, V-A:ARG:545:CD:4920, V-B:TYR:539:CE2:9845, V-A:ARG:545:CG:4919, V-B:ILE:538:CB:9831, V-A:LEU:475:CD1:4254, V-B:PRO:540:CD:9856, V-B:TYR:539:C:9836, V-B:TYR:539:CD2:9843, V-B:TYR:539:CD1:9842, V-B:TYR:539:CG:9841, H-A:GLY:454:N:4046, V-A:GLY:454:CA:4045, V-A:GLY:453:C:4038, V-A:GLY:453:CA:4040, H-A:TYR:484:OH:4344, V-A:GLY:454:C:4043"]

$$$$
4ag_Grossjean_2025
     RDKit          3D

 39 41  0  0  0  0  0  0  0  0999 V2000
  129.0130  126.0010   65.3640 C   0  0  0  0  0  0  0  0  0  0  0  0
  129.3040  126.5240   66.7590 C   0  0  0  0  0  0  0  0  0  0  0  0
  130.4670  127.2450   67.0260 C   0  0  0  0  0  0  0  0  0  0  0  0
  130.7150  127.7190   68.3190 C   0  0  0  0  0  0  0  0  0  0  0  0
  131.9980  128.5010   68.5600 C   0  0  0  0  0  0  0  0  0  0  0  0
  129.7520  127.4380   69.3240 C   0  0  0  0  0  0  0  0  0  0  0  0
  129.6880  127.7650   70.7230 C   0  0  0  0  0  0  0  0  0  0  0  0
  130.6730  128.4830   71.3550 N   0  0  0  0  0  0  0  0  0  0  0  0
  128.5400  127.2830   71.3680 C   0  0  0  0  0  0  0  0  0  0  0  0
  128.1520  127.4390   72.7700 C   0  0  0  0  0  0  0  0  0  0  0  0
  128.9840  127.6960   73.6420 O   0  0  0  0  0  0  0  0  0  0  0  0
  126.8420  127.2670   73.0460 N   0  0  0  0  0  0  0  0  0  0  0  0
  126.2300  127.4000   74.3670 C   0  0  0  0  0  0  0  0  0  0  0  0
  125.8000  128.8220   74.7090 C   0  0  0  0  0  0  0  0  0  0  0  0
  126.6490  129.8940   74.4180 C   0  0  0  0  0  0  0  0  0  0  0  0
  126.2480  131.1970   74.7070 C   0  0  0  0  0  0  0  0  0  0  0  0
  124.9960  131.4230   75.2750 C   0  0  0  0  0  0  0  0  0  0  0  0
  124.1390  130.3610   75.5530 C   0  0  0  0  0  0  0  0  0  0  0  0
  124.5390  129.0590   75.2640 C   0  0  0  0  0  0  0  0  0  0  0  0
  127.4930  126.4130   70.2460 S   0  0  0  0  0  0  0  0  0  0  0  0
  128.6040  126.6920   68.9230 C   0  0  0  0  0  0  0  0  0  0  0  0
  128.3630  126.2390   67.6920 N   0  0  0  0  0  0  0  0  0  0  0  0
  128.4793  125.0418   65.4359 H   0  0  0  0  0  0  0  0  0  0  0  0
  128.3896  126.7278   64.8226 H   0  0  0  0  0  0  0  0  0  0  0  0
  129.9592  125.8544   64.8226 H   0  0  0  0  0  0  0  0  0  0  0  0
  131.1896  127.4413   66.2202 H   0  0  0  0  0  0  0  0  0  0  0  0
  132.1669  128.6039   69.6421 H   0  0  0  0  0  0  0  0  0  0  0  0
  132.8447  127.9652   68.1061 H   0  0  0  0  0  0  0  0  0  0  0  0
  131.9098  129.4991   68.1061 H   0  0  0  0  0  0  0  0  0  0  0  0
  130.6660  129.4920   71.3760 H   0  0  0  0  0  0  0  0  0  0  0  0
  131.4390  128.0210   71.8260 H   0  0  0  0  0  0  0  0  0  0  0  0
  126.2080  127.1150   72.2750 H   0  0  0  0  0  0  0  0  0  0  0  0
  125.3423  126.7515   74.4042 H   0  0  0  0  0  0  0  0  0  0  0  0
  126.9949  127.1122   75.1033 H   0  0  0  0  0  0  0  0  0  0  0  0
  127.6325  129.7091   73.9614 H   0  0  0  0  0  0  0  0  0  0  0  0
  126.9165  132.0426   74.4878 H   0  0  0  0  0  0  0  0  0  0  0  0
  124.6811  132.4512   75.5063 H   0  0  0  0  0  0  0  0  0  0  0  0
  123.1512  130.5498   75.9986 H   0  0  0  0  0  0  0  0  0  0  0  0
  123.8627  128.2168   75.4724 H   0  0  0  0  0  0  0  0  0  0  0  0
  1  2  1  0
  2  3  2  0
  3  4  1  0
  4  5  1  0
  4  6  2  0
  6  7  1  0
  7  8  1  0
  7  9  2  0
  9 10  1  0
 10 11  2  0
 10 12  1  0
 12 13  1  0
 13 14  1  0
 14 15  2  0
 15 16  1  0
 16 17  2  0
 17 18  1  0
 18 19  2  0
  9 20  1  0
 20 21  1  0
 21 22  2  0
 22  2  1  0
 21  6  1  0
 19 14  1  0
  1 23  1  0
  1 24  1  0
  1 25  1  0
  3 26  1  0
  5 27  1  0
  5 28  1  0
  5 29  1  0
  8 30  1  0
  8 31  1  0
 12 32  1  0
 13 33  1  0
 13 34  1  0
 15 35  1  0
 16 36  1  0
 17 37  1  0
 18 38  1  0
 19 39  1  0
M  END
>  <Binding energies>  (1) 
[-7.81]

>  <Ligand effiencies>  (1) 
[-0.3124]

>  <Interactions>  (1) 
["V-A:GLU:543:CD:4905, V-B:GLU:543:C:9871, V-B:LYS:547:CE:9919, V-B:LYS:471:CE:9188, V-B:VAL:458:CG2:9055, V-B:HIS:456:CG:9034, H-A:LYS:547:NZ:4948, V-A:GLY:544:C:4909, V-B:HIS:456:CB:9033, V-A:HIS:456:CE1:4066, V-A:GLU:543:C:4899, V-A:GLU:543:CB:4903, H-A:GLU:543:O:4900, V-B:GLU:543:CB:9875, V-B:HIS:456:C:9029, V-A:GLY:544:CA:4911, V-B:HIS:456:CE1:9038, V-B:GLY:544:C:9881, V-B:HIS:456:CD2:9036, V-B:GLU:543:CD:9877, V-B:GLU:543:CG:9876, V-A:ARG:545:CG:4919, V-B:LYS:547:CD:9918, V-B:VAL:457:CA:9043, V-B:ASP:473:CG:9208, V-B:ASP:473:CB:9207, V-B:VAL:457:C:9041, V-B:LYS:471:CB:9185, V-A:GLU:543:CA:4901, H-B:GLY:544:O:9882, V-A:ARG:545:CA:4916, V-B:HIS:456:CA:9031, H-A:GLY:544:O:4910, V-A:ARG:545:CB:4918"]

$$$$
4ah_Grossjean_2025
     RDKit          3D

 51 53  0  0  0  0  0  0  0  0999 V2000
  127.8480  122.7350   55.4100 C   0  0  0  0  0  0  0  0  0  0  0  0
  127.4900  121.8080   56.4280 O   0  0  0  0  0  0  0  0  0  0  0  0
  127.2250  122.2700   57.7050 C   0  0  0  0  0  0  0  0  0  0  0  0
  128.1110  122.1380   58.7850 C   0  0  0  0  0  0  0  0  0  0  0  0
  127.7760  122.6270   60.0480 C   0  0  0  0  0  0  0  0  0  0  0  0
  128.7700  122.5170   61.1990 C   0  0  0  0  0  0  0  0  0  0  0  0
  128.6720  123.6120   62.1640 N   0  0  0  0  0  0  0  0  0  0  0  0
  129.7120  124.1800   62.8100 C   0  0  0  0  0  0  0  0  0  0  0  0
  130.8730  123.7920   62.6700 O   0  0  0  0  0  0  0  0  0  0  0  0
  129.3790  125.2670   63.7290 C   0  0  0  0  0  0  0  0  0  0  0  0
  128.8280  126.8220   63.1010 S   0  0  0  0  0  0  0  0  0  0  0  0
  128.7130  127.4840   64.7160 C   0  0  0  0  0  0  0  0  0  0  0  0
  128.3100  128.7350   64.9390 N   0  0  0  0  0  0  0  0  0  0  0  0
  128.2620  129.1230   66.2360 C   0  0  0  0  0  0  0  0  0  0  0  0
  127.8040  130.5510   66.4680 C   0  0  0  0  0  0  0  0  0  0  0  0
  128.6040  128.2970   67.3050 C   0  0  0  0  0  0  0  0  0  0  0  0
  129.0280  126.9850   67.0690 C   0  0  0  0  0  0  0  0  0  0  0  0
  129.3910  126.1220   68.2680 C   0  0  0  0  0  0  0  0  0  0  0  0
  129.0930  126.5420   65.7200 C   0  0  0  0  0  0  0  0  0  0  0  0
  129.4800  125.2900   65.1280 C   0  0  0  0  0  0  0  0  0  0  0  0
  129.8990  124.2210   65.8790 N   0  0  0  0  0  0  0  0  0  0  0  0
  126.5560  123.2800   60.2320 C   0  0  0  0  0  0  0  0  0  0  0  0
  125.6480  123.4210   59.1720 C   0  0  0  0  0  0  0  0  0  0  0  0
  124.4170  124.0420   59.2860 O   0  0  0  0  0  0  0  0  0  0  0  0
  124.0230  124.5820   60.5430 C   0  0  0  0  0  0  0  0  0  0  0  0
  125.9920  122.9060   57.9140 C   0  0  0  0  0  0  0  0  0  0  0  0
  125.1200  123.0530   56.8610 O   0  0  0  0  0  0  0  0  0  0  0  0
  124.8810  124.4040   56.4930 C   0  0  0  0  0  0  0  0  0  0  0  0
  128.2076  123.6662   55.8721 H   0  0  0  0  0  0  0  0  0  0  0  0
  128.6444  122.3042   54.7854 H   0  0  0  0  0  0  0  0  0  0  0  0
  126.9688  122.9513   54.7854 H   0  0  0  0  0  0  0  0  0  0  0  0
  129.0816  121.6429   58.6340 H   0  0  0  0  0  0  0  0  0  0  0  0
  128.5864  121.5700   61.7277 H   0  0  0  0  0  0  0  0  0  0  0  0
  129.7778  122.5627   60.7604 H   0  0  0  0  0  0  0  0  0  0  0  0
  127.7610  124.0340   62.2640 H   0  0  0  0  0  0  0  0  0  0  0  0
  127.7418  130.7451   67.5490 H   0  0  0  0  0  0  0  0  0  0  0  0
  128.5244  131.2458   66.0116 H   0  0  0  0  0  0  0  0  0  0  0  0
  126.8139  130.6972   66.0116 H   0  0  0  0  0  0  0  0  0  0  0  0
  128.5405  128.6770   68.3353 H   0  0  0  0  0  0  0  0  0  0  0  0
  129.1616  126.6675   69.1953 H   0  0  0  0  0  0  0  0  0  0  0  0
  128.8091  125.1890   68.2379 H   0  0  0  0  0  0  0  0  0  0  0  0
  130.4648  125.8855   68.2379 H   0  0  0  0  0  0  0  0  0  0  0  0
  130.8730  123.9670   65.9500 H   0  0  0  0  0  0  0  0  0  0  0  0
  129.2390  123.6450   66.3850 H   0  0  0  0  0  0  0  0  0  0  0  0
  126.3033  123.6894   61.2212 H   0  0  0  0  0  0  0  0  0  0  0  0
  124.4612  123.9814   61.3537 H   0  0  0  0  0  0  0  0  0  0  0  0
  124.3772  125.6203   60.6233 H   0  0  0  0  0  0  0  0  0  0  0  0
  122.9261  124.5615   60.6233 H   0  0  0  0  0  0  0  0  0  0  0  0
  124.7725  125.0173   57.3997 H   0  0  0  0  0  0  0  0  0  0  0  0
  125.7271  124.7769   55.8972 H   0  0  0  0  0  0  0  0  0  0  0  0
  123.9583  124.4640   55.8972 H   0  0  0  0  0  0  0  0  0  0  0  0
  1  2  1  0
  2  3  1  0
  3  4  2  0
  4  5  1  0
  5  6  1  0
  6  7  1  0
  7  8  1  0
  8  9  2  0
  8 10  1  0
 10 11  1  0
 11 12  1  0
 12 13  2  0
 13 14  1  0
 14 15  1  0
 14 16  2  0
 16 17  1  0
 17 18  1  0
 17 19  2  0
 19 20  1  0
 20 21  1  0
  5 22  2  0
 22 23  1  0
 23 24  1  0
 24 25  1  0
 23 26  2  0
 26 27  1  0
 27 28  1  0
 26  3  1  0
 20 10  2  0
 19 12  1  0
  1 29  1  0
  1 30  1  0
  1 31  1  0
  4 32  1  0
  6 33  1  0
  6 34  1  0
  7 35  1  0
 15 36  1  0
 15 37  1  0
 15 38  1  0
 16 39  1  0
 18 40  1  0
 18 41  1  0
 18 42  1  0
 21 43  1  0
 21 44  1  0
 22 45  1  0
 25 46  1  0
 25 47  1  0
 25 48  1  0
 28 49  1  0
 28 50  1  0
 28 51  1  0
M  END
>  <Binding energies>  (1) 
[-7.1]

>  <Ligand effiencies>  (1) 
[-0.22903225806451613]

>  <Interactions>  (1) 
["V-A:GLU:543:CD:4905, V-A:HIS:456:CE1:4066, V-A:GLU:543:CB:4903, V-B:GLU:543:CB:9875, V-B:HIS:456:CE1:9038, V-B:ASN:362:CB:8144, V-B:TYR:539:CE1:9844, V-B:MET:535:CE:9804, V-B:PRO:540:CA:9852, V-B:TYR:539:CZ:9846, V-B:TYR:531:CE2:9762, V-B:ASN:362:C:8140, V-B:PRO:540:N:9853, V-B:TYR:531:CZ:9763, V-B:PRO:540:CB:9854, H-B:TYR:539:N:9839, V-B:LEU:363:CD1:8157, V-B:ALA:541:CB:9861, H-B:GLU:543:OE2:9879, V-B:GLU:543:CD:9877, V-B:GLU:543:CG:9876, V-A:TYR:484:CZ:4343, V-B:TYR:539:CE2:9845, V-A:TYR:484:CE1:4341, V-A:GLU:543:CG:4904, V-B:ILE:538:CG2:9832, V-B:ILE:538:CB:9831, V-B:PRO:540:CD:9856, V-B:TYR:539:C:9836, V-B:TYR:539:CD2:9843, V-B:ILE:538:CA:9829, V-B:TYR:539:CD1:9842, V-B:TYR:539:CG:9841, H-A:TYR:484:OH:4344, V-B:TYR:484:CE1:9313, V-B:TYR:484:CZ:9315, H-B:GLU:543:O:9872"]

$$$$
4ai_Grossjean_2025
     RDKit          3D

 32 34  0  0  0  0  0  0  0  0999 V2000
  125.7880  122.1220   56.1100 C   0  0  0  0  0  0  0  0  0  0  0  0
  127.0150  122.5860   56.8750 C   0  0  0  0  0  0  0  0  0  0  0  0
  127.9720  123.3990   56.2700 C   0  0  0  0  0  0  0  0  0  0  0  0
  129.0920  123.8200   56.9960 C   0  0  0  0  0  0  0  0  0  0  0  0
  130.1070  124.7080   56.2930 C   0  0  0  0  0  0  0  0  0  0  0  0
  129.2070  123.3910   58.3460 C   0  0  0  0  0  0  0  0  0  0  0  0
  130.2010  123.6300   59.3570 C   0  0  0  0  0  0  0  0  0  0  0  0
  131.3150  124.3950   59.1220 N   0  0  0  0  0  0  0  0  0  0  0  0
  129.9200  123.0180   60.5890 C   0  0  0  0  0  0  0  0  0  0  0  0
  130.7120  123.0430   61.8210 C   0  0  0  0  0  0  0  0  0  0  0  0
  130.7450  122.0630   62.5670 O   0  0  0  0  0  0  0  0  0  0  0  0
  131.3950  124.1930   62.0490 N   0  0  0  0  0  0  0  0  0  0  0  0
  132.2250  124.4830   63.1240 C   0  0  0  0  0  0  0  0  0  0  0  0
  131.7500  124.9520   64.3490 C   0  0  0  0  0  0  0  0  0  0  0  0
  132.8700  125.1160   65.1290 C   0  0  0  0  0  0  0  0  0  0  0  0
  133.9640  124.7620   64.4130 O   0  0  0  0  0  0  0  0  0  0  0  0
  133.5420  124.3610   63.1450 N   0  0  0  0  0  0  0  0  0  0  0  0
  128.4130  122.1020   60.5160 S   0  0  0  0  0  0  0  0  0  0  0  0
  128.1590  122.5600   58.8470 C   0  0  0  0  0  0  0  0  0  0  0  0
  127.0910  122.1570   58.1580 N   0  0  0  0  0  0  0  0  0  0  0  0
  125.0031  121.8252   56.8212 H   0  0  0  0  0  0  0  0  0  0  0  0
  125.4184  122.9424   55.4773 H   0  0  0  0  0  0  0  0  0  0  0  0
  126.0538  121.2623   55.4773 H   0  0  0  0  0  0  0  0  0  0  0  0
  127.8470  123.7096   55.2222 H   0  0  0  0  0  0  0  0  0  0  0  0
  130.7125  125.2377   57.0432 H   0  0  0  0  0  0  0  0  0  0  0  0
  130.7627  124.0883   55.6637 H   0  0  0  0  0  0  0  0  0  0  0  0
  129.5799  125.4402   55.6637 H   0  0  0  0  0  0  0  0  0  0  0  0
  132.1480  124.0090   58.7020 H   0  0  0  0  0  0  0  0  0  0  0  0
  131.3410  125.3750   59.3690 H   0  0  0  0  0  0  0  0  0  0  0  0
  131.3040  124.9260   61.3620 H   0  0  0  0  0  0  0  0  0  0  0  0
  130.7048  125.1482   64.6301 H   0  0  0  0  0  0  0  0  0  0  0  0
  132.8767  125.4769   66.1681 H   0  0  0  0  0  0  0  0  0  0  0  0
  1  2  1  0
  2  3  2  0
  3  4  1  0
  4  5  1  0
  4  6  2  0
  6  7  1  0
  7  8  1  0
  7  9  2  0
  9 10  1  0
 10 11  2  0
 10 12  1  0
 12 13  1  0
 13 14  1  0
 14 15  2  0
 15 16  1  0
 16 17  1  0
  9 18  1  0
 18 19  1  0
 19 20  2  0
 20  2  1  0
 19  6  1  0
 17 13  2  0
  1 21  1  0
  1 22  1  0
  1 23  1  0
  3 24  1  0
  5 25  1  0
  5 26  1  0
  5 27  1  0
  8 28  1  0
  8 29  1  0
 12 30  1  0
 14 31  1  0
 15 32  1  0
M  END
>  <Binding energies>  (1) 
[-6.75]

>  <Ligand effiencies>  (1) 
[-0.29347826086956524]

>  <Interactions>  (1) 
["H-A:ASP:366:OD1:3210, V-A:HIS:456:CE1:4066, V-B:TYR:539:CE1:9844, V-B:MET:535:CE:9804, V-B:PRO:540:CA:9852, V-B:TYR:539:CZ:9846, V-B:PRO:540:N:9853, V-B:PRO:540:CB:9854, V-B:LEU:363:CD1:8157, V-B:ALA:541:CB:9861, H-B:TYR:539:OH:9847, V-A:ARG:545:CZ:4923, V-B:TYR:539:CE2:9845, V-B:ILE:538:CG2:9832, V-B:ILE:538:CB:9831, V-B:PRO:540:CD:9856, V-B:TYR:539:C:9836, V-B:TYR:539:CD2:9843, V-B:ILE:538:CA:9829, H-A:GLY:454:N:4046, H-A:ARG:545:NH1:4924"]

$$$$
4aj_Grossjean_2025
     RDKit          3D

 32 34  0  0  0  0  0  0  0  0999 V2000
  133.6970  124.9100   65.3270 C   0  0  0  0  0  0  0  0  0  0  0  0
  132.9550  124.5420   64.0550 C   0  0  0  0  0  0  0  0  0  0  0  0
  133.6330  124.3840   62.8490 C   0  0  0  0  0  0  0  0  0  0  0  0
  132.9280  124.0490   61.6880 C   0  0  0  0  0  0  0  0  0  0  0  0
  133.7140  123.8880   60.3960 C   0  0  0  0  0  0  0  0  0  0  0  0
  131.5220  123.8800   61.7910 C   0  0  0  0  0  0  0  0  0  0  0  0
  130.5110  123.5450   60.8230 C   0  0  0  0  0  0  0  0  0  0  0  0
  130.8080  123.3190   59.5040 N   0  0  0  0  0  0  0  0  0  0  0  0
  129.2150  123.4690   61.3560 C   0  0  0  0  0  0  0  0  0  0  0  0
  127.9610  123.1660   60.6620 C   0  0  0  0  0  0  0  0  0  0  0  0
  127.9470  122.4050   59.6930 O   0  0  0  0  0  0  0  0  0  0  0  0
  126.8560  123.7640   61.1710 N   0  0  0  0  0  0  0  0  0  0  0  0
  125.5530  123.6360   60.7100 C   0  0  0  0  0  0  0  0  0  0  0  0
  124.5110  123.1560   61.3560 N   0  0  0  0  0  0  0  0  0  0  0  0
  123.4230  123.1880   60.6130 C   0  0  0  0  0  0  0  0  0  0  0  0
  123.5700  123.7020   59.3270 C   0  0  0  0  0  0  0  0  0  0  0  0
  125.2280  124.1680   59.0920 S   0  0  0  0  0  0  0  0  0  0  0  0
  129.2130  123.8300   63.0830 S   0  0  0  0  0  0  0  0  0  0  0  0
  130.9460  124.0670   63.0840 C   0  0  0  0  0  0  0  0  0  0  0  0
  131.6150  124.3870   64.1930 N   0  0  0  0  0  0  0  0  0  0  0  0
  133.0976  124.6127   66.2002 H   0  0  0  0  0  0  0  0  0  0  0  0
  134.6646  124.3873   65.3513 H   0  0  0  0  0  0  0  0  0  0  0  0
  133.8665  125.9966   65.3513 H   0  0  0  0  0  0  0  0  0  0  0  0
  134.7235  124.5227   62.8092 H   0  0  0  0  0  0  0  0  0  0  0  0
  134.7666  123.6724   60.6316 H   0  0  0  0  0  0  0  0  0  0  0  0
  133.2917  123.0577   59.8109 H   0  0  0  0  0  0  0  0  0  0  0  0
  133.6522  124.8175   59.8109 H   0  0  0  0  0  0  0  0  0  0  0  0
  130.1450  122.8930   58.8730 H   0  0  0  0  0  0  0  0  0  0  0  0
  131.7070  123.5720   59.1170 H   0  0  0  0  0  0  0  0  0  0  0  0
  126.9810  124.3650   61.9720 H   0  0  0  0  0  0  0  0  0  0  0  0
  122.4531  122.8289   60.9876 H   0  0  0  0  0  0  0  0  0  0  0  0
  122.7672  123.7976   58.5811 H   0  0  0  0  0  0  0  0  0  0  0  0
  1  2  1  0
  2  3  2  0
  3  4  1  0
  4  5  1  0
  4  6  2  0
  6  7  1  0
  7  8  1  0
  7  9  2  0
  9 10  1  0
 10 11  2  0
 10 12  1  0
 12 13  1  0
 13 14  2  0
 14 15  1  0
 15 16  2  0
 16 17  1  0
  9 18  1  0
 18 19  1  0
 19 20  2  0
 20  2  1  0
 19  6  1  0
 17 13  1  0
  1 21  1  0
  1 22  1  0
  1 23  1  0
  3 24  1  0
  5 25  1  0
  5 26  1  0
  5 27  1  0
  8 28  1  0
  8 29  1  0
 12 30  1  0
 15 31  1  0
 16 32  1  0
M  END
>  <Binding energies>  (1) 
[-6.57]

>  <Ligand effiencies>  (1) 
[-0.2856521739130435]

>  <Interactions>  (1) 
["V-A:ASP:366:CB:3208, V-A:ASP:366:CG:3209, V-A:HIS:456:CE1:4066, V-B:ASN:362:CB:8144, V-B:PRO:540:CA:9852, V-B:TYR:539:CZ:9846, V-B:ASN:362:C:8140, V-B:PRO:540:CB:9854, V-B:LEU:363:CD1:8157, V-B:LEU:363:CA:8153, V-B:ALA:541:CB:9861, H-B:GLU:543:OE2:9879, H-B:TYR:539:OH:9847, V-B:GLU:543:CD:9877, V-B:GLU:543:CG:9876, V-A:ARG:545:CZ:4923, V-A:ARG:545:CD:4920, V-B:TYR:539:CE2:9845, H-B:ALA:541:N:9860, V-B:TYR:539:CD2:9843, V-B:LEU:363:CB:8155, V-A:GLY:454:CA:4045, H-A:TYR:484:OH:4344, V-A:ASP:366:CA:3206, V-B:ASN:362:CA:8142"]

$$$$
4ak_Grossjean_2025
     RDKit          3D

 50 51  0  0  0  0  0  0  0  0999 V2000
  125.5860  122.4990   56.3210 C   0  0  0  0  0  0  0  0  0  0  0  0
  126.4010  122.5110   57.4820 O   0  0  0  0  0  0  0  0  0  0  0  0
  127.7740  122.7650   57.2080 C   0  0  0  0  0  0  0  0  0  0  0  0
  128.0870  124.2400   57.4890 C   0  0  0  0  0  0  0  0  0  0  0  0
  126.9310  125.0250   57.2300 O   0  0  0  0  0  0  0  0  0  0  0  0
  126.8040  126.1580   58.0780 C   0  0  0  0  0  0  0  0  0  0  0  0
  125.3210  126.3970   58.3880 C   0  0  0  0  0  0  0  0  0  0  0  0
  124.5320  125.4940   57.6260 O   0  0  0  0  0  0  0  0  0  0  0  0
  123.3650  125.0400   58.3000 C   0  0  0  0  0  0  0  0  0  0  0  0
  123.7340  123.8610   59.2180 C   0  0  0  0  0  0  0  0  0  0  0  0
  125.1590  123.7920   59.5400 N   0  0  0  0  0  0  0  0  0  0  0  0
  125.6760  123.3400   60.7000 C   0  0  0  0  0  0  0  0  0  0  0  0
  124.9710  122.9100   61.6150 O   0  0  0  0  0  0  0  0  0  0  0  0
  127.1330  123.3790   60.8140 C   0  0  0  0  0  0  0  0  0  0  0  0
  128.0820  121.9080   60.5990 S   0  0  0  0  0  0  0  0  0  0  0  0
  129.5760  122.7790   60.8620 C   0  0  0  0  0  0  0  0  0  0  0  0
  130.7620  122.1700   60.8310 N   0  0  0  0  0  0  0  0  0  0  0  0
  131.8420  122.9590   61.0540 C   0  0  0  0  0  0  0  0  0  0  0  0
  133.1820  122.2480   61.0130 C   0  0  0  0  0  0  0  0  0  0  0  0
  131.7640  124.3280   61.3010 C   0  0  0  0  0  0  0  0  0  0  0  0
  130.5170  124.9640   61.3320 C   0  0  0  0  0  0  0  0  0  0  0  0
  130.4820  126.4590   61.6110 C   0  0  0  0  0  0  0  0  0  0  0  0
  129.3620  124.1680   61.1050 C   0  0  0  0  0  0  0  0  0  0  0  0
  127.9590  124.4850   61.0660 C   0  0  0  0  0  0  0  0  0  0  0  0
  127.4890  125.7590   61.2630 N   0  0  0  0  0  0  0  0  0  0  0  0
  124.5266  122.4834   56.6168 H   0  0  0  0  0  0  0  0  0  0  0  0
  125.7865  123.4002   55.7230 H   0  0  0  0  0  0  0  0  0  0  0  0
  125.8129  121.6041   55.7230 H   0  0  0  0  0  0  0  0  0  0  0  0
  128.4000  122.1284   57.8506 H   0  0  0  0  0  0  0  0  0  0  0  0
  127.9849  122.5401   56.1521 H   0  0  0  0  0  0  0  0  0  0  0  0
  128.3828  124.3584   58.5419 H   0  0  0  0  0  0  0  0  0  0  0  0
  128.9098  124.5716   56.8386 H   0  0  0  0  0  0  0  0  0  0  0  0
  127.3508  125.9782   59.0154 H   0  0  0  0  0  0  0  0  0  0  0  0
  127.2220  127.0426   57.5753 H   0  0  0  0  0  0  0  0  0  0  0  0
  125.1380  126.2310   59.4599 H   0  0  0  0  0  0  0  0  0  0  0  0
  125.0518  127.4316   58.1289 H   0  0  0  0  0  0  0  0  0  0  0  0
  122.9473  125.8591   58.9038 H   0  0  0  0  0  0  0  0  0  0  0  0
  122.6173  124.7128   57.5625 H   0  0  0  0  0  0  0  0  0  0  0  0
  123.1700  123.9619   60.1570 H   0  0  0  0  0  0  0  0  0  0  0  0
  123.4815  122.9385   58.6747 H   0  0  0  0  0  0  0  0  0  0  0  0
  125.7940  124.1260   58.8280 H   0  0  0  0  0  0  0  0  0  0  0  0
  133.5305  122.0631   62.0398 H   0  0  0  0  0  0  0  0  0  0  0  0
  133.0724  121.2894   60.4847 H   0  0  0  0  0  0  0  0  0  0  0  0
  133.9144  122.8762   60.4847 H   0  0  0  0  0  0  0  0  0  0  0  0
  132.6822  124.9092   61.4717 H   0  0  0  0  0  0  0  0  0  0  0  0
  130.4780  126.6292   62.6977 H   0  0  0  0  0  0  0  0  0  0  0  0
  131.3692  126.9354   61.1685 H   0  0  0  0  0  0  0  0  0  0  0  0
  129.5734  126.8934   61.1685 H   0  0  0  0  0  0  0  0  0  0  0  0
  127.9440  126.5640   60.8570 H   0  0  0  0  0  0  0  0  0  0  0  0
  126.6650  125.9330   61.8210 H   0  0  0  0  0  0  0  0  0  0  0  0
  1  2  1  0
  2  3  1  0
  3  4  1  0
  4  5  1  0
  5  6  1  0
  6  7  1  0
  7  8  1  0
  8  9  1  0
  9 10  1  0
 10 11  1  0
 11 12  1  0
 12 13  2  0
 12 14  1  0
 14 15  1  0
 15 16  1  0
 16 17  2  0
 17 18  1  0
 18 19  1  0
 18 20  2  0
 20 21  1  0
 21 22  1  0
 21 23  2  0
 23 24  1  0
 24 25  1  0
 24 14  2  0
 23 16  1  0
  1 26  1  0
  1 27  1  0
  1 28  1  0
  3 29  1  0
  3 30  1  0
  4 31  1  0
  4 32  1  0
  6 33  1  0
  6 34  1  0
  7 35  1  0
  7 36  1  0
  9 37  1  0
  9 38  1  0
 10 39  1  0
 10 40  1  0
 11 41  1  0
 19 42  1  0
 19 43  1  0
 19 44  1  0
 20 45  1  0
 22 46  1  0
 22 47  1  0
 22 48  1  0
 25 49  1  0
 25 50  1  0
M  END
>  <Binding energies>  (1) 
[-5.07]

>  <Ligand effiencies>  (1) 
[-0.18107142857142858]

>  <Interactions>  (1) 
["V-B:ASP:366:CB:8180, V-B:TYR:539:CE1:9844, V-B:PRO:540:CA:9852, V-B:TYR:531:CE2:9762, H-B:ASP:366:OD1:8182, V-B:ASN:362:C:8140, V-B:PRO:540:N:9853, V-B:PRO:540:C:9850, V-B:PRO:540:CB:9854, V-B:ASP:366:CG:8181, V-B:LEU:363:CD1:8157, V-B:LEU:363:CA:8153, H-B:TYR:531:OH:9764, V-B:ALA:541:CB:9861, H-B:GLU:543:OE2:9879, H-B:GLU:543:OE1:9878, V-B:GLU:543:CD:9877, V-B:TYR:539:CE2:9845, H-B:ALA:541:N:9860, V-B:ILE:538:CG2:9832, V-B:ILE:538:CB:9831, V-B:PRO:540:CD:9856, V-B:TYR:539:CD1:9842, V-B:LEU:363:CB:8155, V-A:ILE:369:CG2:3233, V-B:ALA:541:CA:9859"]

$$$$
4al_Grossjean_2025
     RDKit          3D

 28 29  0  0  0  0  0  0  0  0999 V2000
  126.6990  130.7340   55.2930 C   0  0  0  0  0  0  0  0  0  0  0  0
  127.2270  131.6730   56.2180 O   0  0  0  0  0  0  0  0  0  0  0  0
  128.3930  132.3220   55.9640 C   0  0  0  0  0  0  0  0  0  0  0  0
  128.5800  133.0450   54.9830 O   0  0  0  0  0  0  0  0  0  0  0  0
  129.4270  132.0730   56.9920 C   0  0  0  0  0  0  0  0  0  0  0  0
  129.0730  132.3890   58.6930 S   0  0  0  0  0  0  0  0  0  0  0  0
  130.6760  131.8760   59.1640 C   0  0  0  0  0  0  0  0  0  0  0  0
  131.0720  131.8790   60.4380 N   0  0  0  0  0  0  0  0  0  0  0  0
  132.3400  131.4570   60.6690 C   0  0  0  0  0  0  0  0  0  0  0  0
  132.7690  131.4700   62.1250 C   0  0  0  0  0  0  0  0  0  0  0  0
  133.2110  131.0370   59.6670 C   0  0  0  0  0  0  0  0  0  0  0  0
  132.7940  131.0340   58.3320 C   0  0  0  0  0  0  0  0  0  0  0  0
  133.7800  130.5670   57.2740 C   0  0  0  0  0  0  0  0  0  0  0  0
  131.4710  131.4700   58.0510 C   0  0  0  0  0  0  0  0  0  0  0  0
  130.7310  131.5930   56.8250 C   0  0  0  0  0  0  0  0  0  0  0  0
  131.2650  131.2670   55.6050 N   0  0  0  0  0  0  0  0  0  0  0  0
  126.2315  129.9026   55.8410 H   0  0  0  0  0  0  0  0  0  0  0  0
  125.9454  131.2262   54.6607 H   0  0  0  0  0  0  0  0  0  0  0  0
  127.5111  130.3458   54.6607 H   0  0  0  0  0  0  0  0  0  0  0  0
  131.8783  131.4430   62.7699 H   0  0  0  0  0  0  0  0  0  0  0  0
  133.3970  130.5905   62.3301 H   0  0  0  0  0  0  0  0  0  0  0  0
  133.3426  132.3859   62.3301 H   0  0  0  0  0  0  0  0  0  0  0  0
  134.2280  130.7073   59.9257 H   0  0  0  0  0  0  0  0  0  0  0  0
  134.6704  130.1453   57.7633 H   0  0  0  0  0  0  0  0  0  0  0  0
  133.3072  129.7971   56.6465 H   0  0  0  0  0  0  0  0  0  0  0  0
  134.0761  131.4206   56.6465 H   0  0  0  0  0  0  0  0  0  0  0  0
  130.6900  131.1630   54.7810 H   0  0  0  0  0  0  0  0  0  0  0  0
  132.2590  131.1190   55.4880 H   0  0  0  0  0  0  0  0  0  0  0  0
  1  2  1  0
  2  3  1  0
  3  4  2  0
  3  5  1  0
  5  6  1  0
  6  7  1  0
  7  8  2  0
  8  9  1  0
  9 10  1  0
  9 11  2  0
 11 12  1  0
 12 13  1  0
 12 14  2  0
 14 15  1  0
 15 16  1  0
 15  5  2  0
 14  7  1  0
  1 17  1  0
  1 18  1  0
  1 19  1  0
 10 20  1  0
 10 21  1  0
 10 22  1  0
 11 23  1  0
 13 24  1  0
 13 25  1  0
 13 26  1  0
 16 27  1  0
 16 28  1  0
M  END
>  <Binding energies>  (1) 
[-5.75]

>  <Ligand effiencies>  (1) 
[-0.3194444444444444]

>  <Interactions>  (1) 
["V-A:TYR:539:CD2:4871, V-A:PRO:540:CB:4882, V-A:PRO:540:CA:4880, V-A:PRO:540:N:4881, V-A:LEU:363:CD1:3185, V-A:TYR:539:C:4864, V-A:ASP:366:CB:3208, V-A:LEU:363:CA:3181, V-A:ASN:362:CB:3172, V-A:GLU:543:CD:4905, V-A:ASN:362:C:3168, V-A:TYR:539:CE2:4873, H-A:ALA:541:N:4888, V-A:ILE:538:CD1:4862, H-A:TYR:531:OH:4792, V-A:TYR:531:CZ:4791, V-A:TYR:539:CZ:4874, V-A:GLU:543:CG:4904, V-A:TYR:539:CE1:4872, H-A:TYR:539:N:4867, V-A:LEU:363:CB:3183, V-A:TYR:539:CG:4869, V-A:TYR:531:CE2:4790, V-A:LEU:363:C:3179, H-A:TYR:539:OH:4875, V-A:LEU:363:CG:3184, V-A:ASN:362:CG:3173, V-A:ALA:541:C:4885"]

$$$$
4ba_Grossjean_2025
     RDKit          3D

 44 46  0  0  0  0  0  0  0  0999 V2000
  124.8930  123.2180   55.3760 C   0  0  0  0  0  0  0  0  0  0  0  0
  125.4320  122.1350   56.3300 C   0  0  0  0  0  0  0  0  0  0  0  0
  126.9180  122.2820   56.7140 C   0  0  0  0  0  0  0  0  0  0  0  0
  127.7840  121.7850   55.9890 O   0  0  0  0  0  0  0  0  0  0  0  0
  127.2440  123.0390   57.9680 C   0  0  0  0  0  0  0  0  0  0  0  0
  128.0660  122.4470   58.9350 C   0  0  0  0  0  0  0  0  0  0  0  0
  128.3820  123.1250   60.1080 C   0  0  0  0  0  0  0  0  0  0  0  0
  127.8880  124.4100   60.3380 C   0  0  0  0  0  0  0  0  0  0  0  0
  128.2630  125.0000   61.5600 N   0  0  0  0  0  0  0  0  0  0  0  0
  129.4960  125.2190   62.0810 C   0  0  0  0  0  0  0  0  0  0  0  0
  130.5470  124.8700   61.5410 O   0  0  0  0  0  0  0  0  0  0  0  0
  129.5150  125.8940   63.3800 C   0  0  0  0  0  0  0  0  0  0  0  0
  130.6620  125.3960   64.6220 S   0  0  0  0  0  0  0  0  0  0  0  0
  130.0210  126.5680   65.7490 C   0  0  0  0  0  0  0  0  0  0  0  0
  130.5160  126.6890   66.9800 N   0  0  0  0  0  0  0  0  0  0  0  0
  129.9390  127.6290   67.7630 C   0  0  0  0  0  0  0  0  0  0  0  0
  130.5120  127.7450   69.1640 C   0  0  0  0  0  0  0  0  0  0  0  0
  128.8910  128.4460   67.3460 C   0  0  0  0  0  0  0  0  0  0  0  0
  128.3650  128.3240   66.0500 C   0  0  0  0  0  0  0  0  0  0  0  0
  127.2140  129.2460   65.6360 C   0  0  0  0  0  0  0  0  0  0  0  0
  126.0220  128.6490   65.6860 F   0  0  0  0  0  0  0  0  0  0  0  0
  127.1660  130.3020   66.4490 F   0  0  0  0  0  0  0  0  0  0  0  0
  127.4000  129.6640   64.3830 F   0  0  0  0  0  0  0  0  0  0  0  0
  128.9490  127.3360   65.2010 C   0  0  0  0  0  0  0  0  0  0  0  0
  128.6760  126.9210   63.8460 C   0  0  0  0  0  0  0  0  0  0  0  0
  127.6840  127.4850   63.0850 N   0  0  0  0  0  0  0  0  0  0  0  0
  127.0590  125.0080   59.3780 C   0  0  0  0  0  0  0  0  0  0  0  0
  126.7430  124.3270   58.2050 C   0  0  0  0  0  0  0  0  0  0  0  0
  124.4786  124.0507   55.9633 H   0  0  0  0  0  0  0  0  0  0  0  0
  125.7119  123.5885   54.7418 H   0  0  0  0  0  0  0  0  0  0  0  0
  124.1037  122.7881   54.7418 H   0  0  0  0  0  0  0  0  0  0  0  0
  124.8364  122.1680   57.2542 H   0  0  0  0  0  0  0  0  0  0  0  0
  125.3485  121.1810   55.7887 H   0  0  0  0  0  0  0  0  0  0  0  0
  128.4656  121.4363   58.7655 H   0  0  0  0  0  0  0  0  0  0  0  0
  129.0258  122.6449   60.8596 H   0  0  0  0  0  0  0  0  0  0  0  0
  127.4850  125.2890   62.1340 H   0  0  0  0  0  0  0  0  0  0  0  0
  129.7123  127.5831   69.9018 H   0  0  0  0  0  0  0  0  0  0  0  0
  131.2976  126.9877   69.3027 H   0  0  0  0  0  0  0  0  0  0  0  0
  130.9412  128.7483   69.3027 H   0  0  0  0  0  0  0  0  0  0  0  0
  128.4723  129.1924   68.0371 H   0  0  0  0  0  0  0  0  0  0  0  0
  127.8000  128.3810   62.6350 H   0  0  0  0  0  0  0  0  0  0  0  0
  126.7950  127.0230   62.9540 H   0  0  0  0  0  0  0  0  0  0  0  0
  126.6574  126.0172   59.5518 H   0  0  0  0  0  0  0  0  0  0  0  0
  126.0936  124.8046   57.4566 H   0  0  0  0  0  0  0  0  0  0  0  0
  1  2  1  0
  2  3  1  0
  3  4  2  0
  3  5  1  0
  5  6  2  0
  6  7  1  0
  7  8  2  0
  8  9  1  0
  9 10  1  0
 10 11  2  0
 10 12  1  0
 12 13  1  0
 13 14  1  0
 14 15  2  0
 15 16  1  0
 16 17  1  0
 16 18  2  0
 18 19  1  0
 19 20  1  0
 20 21  1  0
 20 22  1  0
 20 23  1  0
 19 24  2  0
 24 25  1  0
 25 26  1  0
  8 27  1  0
 27 28  2  0
 28  5  1  0
 25 12  2  0
 24 14  1  0
  1 29  1  0
  1 30  1  0
  1 31  1  0
  2 32  1  0
  2 33  1  0
  6 34  1  0
  7 35  1  0
  9 36  1  0
 17 37  1  0
 17 38  1  0
 17 39  1  0
 18 40  1  0
 26 41  1  0
 26 42  1  0
 27 43  1  0
 28 44  1  0
M  END
>  <Binding energies>  (1) 
[-7.15]

>  <Ligand effiencies>  (1) 
[-0.2306451612903226]

>  <Interactions>  (1) 
["H-A:GLU:543:OE2:4907, V-A:GLU:543:CD:4905, V-A:HIS:456:CE1:4066, V-A:GLU:543:C:4899, V-A:GLU:543:CB:4903, V-B:HIS:456:CE1:9038, V-B:PRO:540:CA:9852, V-B:PRO:540:N:9853, V-B:PRO:540:CB:9854, H-B:TYR:539:N:9839, V-B:LEU:363:CD1:8157, H-B:GLU:543:OE2:9879, H-B:GLU:543:OE1:9878, V-B:GLU:543:CD:9877, V-B:TYR:539:CE2:9845, V-B:ILE:538:CG2:9832, V-B:ILE:538:CB:9831, V-B:PRO:540:CD:9856, V-B:TYR:539:C:9836, V-B:TYR:539:CD2:9843, V-B:PRO:540:CG:9855, V-B:TYR:484:CE1:9313, V-B:TYR:484:CZ:9315"]

$$$$
4bb_Grossjean_2025
     RDKit          3D

 41 43  0  0  0  0  0  0  0  0999 V2000
  125.2680  122.4440   56.1840 C   0  0  0  0  0  0  0  0  0  0  0  0
  126.7430  122.3360   56.5790 C   0  0  0  0  0  0  0  0  0  0  0  0
  127.5130  121.7710   55.8000 O   0  0  0  0  0  0  0  0  0  0  0  0
  127.1700  122.9140   57.8950 C   0  0  0  0  0  0  0  0  0  0  0  0
  126.8640  124.2480   58.1930 C   0  0  0  0  0  0  0  0  0  0  0  0
  127.2490  124.8080   59.4070 C   0  0  0  0  0  0  0  0  0  0  0  0
  127.9400  124.0450   60.3500 C   0  0  0  0  0  0  0  0  0  0  0  0
  128.2840  124.7120   61.5430 N   0  0  0  0  0  0  0  0  0  0  0  0
  129.5020  125.0510   62.0310 C   0  0  0  0  0  0  0  0  0  0  0  0
  130.5680  124.7820   61.4780 O   0  0  0  0  0  0  0  0  0  0  0  0
  129.4850  125.7540   63.3170 C   0  0  0  0  0  0  0  0  0  0  0  0
  130.5830  125.2700   64.6070 S   0  0  0  0  0  0  0  0  0  0  0  0
  129.9260  126.4790   65.6850 C   0  0  0  0  0  0  0  0  0  0  0  0
  130.3870  126.6300   66.9250 N   0  0  0  0  0  0  0  0  0  0  0  0
  129.7980  127.5980   67.6640 C   0  0  0  0  0  0  0  0  0  0  0  0
  130.3400  127.7550   69.0740 C   0  0  0  0  0  0  0  0  0  0  0  0
  128.7680  128.4110   67.1970 C   0  0  0  0  0  0  0  0  0  0  0  0
  128.2780  128.2570   65.8920 C   0  0  0  0  0  0  0  0  0  0  0  0
  127.1440  129.1740   65.4220 C   0  0  0  0  0  0  0  0  0  0  0  0
  125.9620  128.5560   65.3660 F   0  0  0  0  0  0  0  0  0  0  0  0
  127.0190  130.2020   66.2630 F   0  0  0  0  0  0  0  0  0  0  0  0
  127.4120  129.6350   64.2010 F   0  0  0  0  0  0  0  0  0  0  0  0
  128.8780  127.2430   65.0840 C   0  0  0  0  0  0  0  0  0  0  0  0
  128.6460  126.8020   63.7320 C   0  0  0  0  0  0  0  0  0  0  0  0
  127.6920  127.3640   62.9220 N   0  0  0  0  0  0  0  0  0  0  0  0
  128.2570  122.7100   60.0560 C   0  0  0  0  0  0  0  0  0  0  0  0
  127.8710  122.1520   58.8400 C   0  0  0  0  0  0  0  0  0  0  0  0
  124.6478  122.4894   57.0914 H   0  0  0  0  0  0  0  0  0  0  0  0
  125.1137  123.3558   55.5884 H   0  0  0  0  0  0  0  0  0  0  0  0
  124.9826  121.5644   55.5884 H   0  0  0  0  0  0  0  0  0  0  0  0
  126.3146  124.8581   57.4609 H   0  0  0  0  0  0  0  0  0  0  0  0
  127.0074  125.8587   59.6252 H   0  0  0  0  0  0  0  0  0  0  0  0
  127.4930  124.9500   62.1240 H   0  0  0  0  0  0  0  0  0  0  0  0
  129.5460  127.5250   69.7997 H   0  0  0  0  0  0  0  0  0  0  0  0
  131.1832  127.0642   69.2218 H   0  0  0  0  0  0  0  0  0  0  0  0
  130.6834  128.7895   69.2218 H   0  0  0  0  0  0  0  0  0  0  0  0
  128.3362  129.1787   67.8559 H   0  0  0  0  0  0  0  0  0  0  0  0
  127.8870  128.1720   62.3480 H   0  0  0  0  0  0  0  0  0  0  0  0
  126.7560  126.9870   62.8720 H   0  0  0  0  0  0  0  0  0  0  0  0
  128.8113  122.1034   60.7873 H   0  0  0  0  0  0  0  0  0  0  0  0
  128.1185  121.1033   58.6188 H   0  0  0  0  0  0  0  0  0  0  0  0
  1  2  1  0
  2  3  2  0
  2  4  1  0
  4  5  2  0
  5  6  1  0
  6  7  2  0
  7  8  1  0
  8  9  1  0
  9 10  2  0
  9 11  1  0
 11 12  1  0
 12 13  1  0
 13 14  2  0
 14 15  1  0
 15 16  1  0
 15 17  2  0
 17 18  1  0
 18 19  1  0
 19 20  1  0
 19 21  1  0
 19 22  1  0
 18 23  2  0
 23 24  1  0
 24 25  1  0
  7 26  1  0
 26 27  2  0
 27  4  1  0
 24 11  2  0
 23 13  1  0
  1 28  1  0
  1 29  1  0
  1 30  1  0
  5 31  1  0
  6 32  1  0
  8 33  1  0
 16 34  1  0
 16 35  1  0
 16 36  1  0
 17 37  1  0
 25 38  1  0
 25 39  1  0
 26 40  1  0
 27 41  1  0
M  END
>  <Binding energies>  (1) 
[-7.25]

>  <Ligand effiencies>  (1) 
[-0.24166666666666667]

>  <Interactions>  (1) 
["H-A:GLU:543:OE2:4907, V-A:GLU:543:CD:4905, V-A:HIS:456:CE1:4066, V-A:GLU:543:C:4899, V-A:GLU:543:CB:4903, V-B:HIS:456:CE1:9038, V-B:PRO:540:CA:9852, H-B:ASP:366:OD1:8182, V-B:PRO:540:N:9853, V-B:PRO:540:CB:9854, H-B:TYR:539:N:9839, V-B:LEU:363:CD1:8157, V-B:ALA:541:CB:9861, H-B:GLU:543:OE2:9879, H-B:GLU:543:OE1:9878, V-B:GLU:543:CD:9877, V-B:TYR:539:CE2:9845, V-B:ILE:538:CG2:9832, V-B:ILE:538:CB:9831, V-B:PRO:540:CD:9856, V-B:TYR:539:C:9836, V-B:TYR:539:CD2:9843, V-B:PRO:540:CG:9855, V-B:ARG:545:CZ:9895, V-B:TYR:484:CE1:9313, V-B:TYR:484:CZ:9315"]

$$$$
4bc_Grossjean_2025
     RDKit          3D

 40 42  0  0  0  0  0  0  0  0999 V2000
  134.5380  125.0250   65.9650 C   0  0  0  0  0  0  0  0  0  0  0  0
  134.6070  125.1360   64.5470 O   0  0  0  0  0  0  0  0  0  0  0  0
  133.4640  124.9320   63.7990 C   0  0  0  0  0  0  0  0  0  0  0  0
  133.6370  124.3600   62.5400 C   0  0  0  0  0  0  0  0  0  0  0  0
  132.5430  124.1180   61.7130 C   0  0  0  0  0  0  0  0  0  0  0  0
  131.2540  124.4380   62.1420 C   0  0  0  0  0  0  0  0  0  0  0  0
  130.2130  124.1720   61.2340 N   0  0  0  0  0  0  0  0  0  0  0  0
  129.7090  122.9790   60.8340 C   0  0  0  0  0  0  0  0  0  0  0  0
  130.1430  121.8890   61.2090 O   0  0  0  0  0  0  0  0  0  0  0  0
  128.5860  123.0530   59.8950 C   0  0  0  0  0  0  0  0  0  0  0  0
  128.8000  122.5620   58.2160 S   0  0  0  0  0  0  0  0  0  0  0  0
  127.1330  122.9390   57.8460 C   0  0  0  0  0  0  0  0  0  0  0  0
  126.6360  122.7630   56.6220 N   0  0  0  0  0  0  0  0  0  0  0  0
  125.3350  123.0910   56.4560 C   0  0  0  0  0  0  0  0  0  0  0  0
  124.7870  122.8780   55.0570 C   0  0  0  0  0  0  0  0  0  0  0  0
  124.5250  123.5870   57.4760 C   0  0  0  0  0  0  0  0  0  0  0  0
  125.0440  123.7750   58.7670 C   0  0  0  0  0  0  0  0  0  0  0  0
  124.1150  124.3260   59.8550 C   0  0  0  0  0  0  0  0  0  0  0  0
  123.0000  124.8690   59.3620 F   0  0  0  0  0  0  0  0  0  0  0  0
  123.7520  123.3420   60.6770 F   0  0  0  0  0  0  0  0  0  0  0  0
  124.7460  125.2720   60.5510 F   0  0  0  0  0  0  0  0  0  0  0  0
  126.4140  123.4370   58.9750 C   0  0  0  0  0  0  0  0  0  0  0  0
  127.2730  123.4880   60.1340 C   0  0  0  0  0  0  0  0  0  0  0  0
  126.8360  123.9230   61.3590 N   0  0  0  0  0  0  0  0  0  0  0  0
  131.0720  125.0270   63.4030 C   0  0  0  0  0  0  0  0  0  0  0  0
  132.1680  125.2680   64.2260 C   0  0  0  0  0  0  0  0  0  0  0  0
  135.0654  125.8735   66.4253 H   0  0  0  0  0  0  0  0  0  0  0  0
  133.4848  125.0320   66.2825 H   0  0  0  0  0  0  0  0  0  0  0  0
  135.0104  124.0837   66.2825 H   0  0  0  0  0  0  0  0  0  0  0  0
  134.6482  124.0969   62.1959 H   0  0  0  0  0  0  0  0  0  0  0  0
  132.6953  123.6732   60.7185 H   0  0  0  0  0  0  0  0  0  0  0  0
  129.8130  124.9930   60.8040 H   0  0  0  0  0  0  0  0  0  0  0  0
  123.7634  122.4802   55.1208 H   0  0  0  0  0  0  0  0  0  0  0  0
  124.7748  123.8369   54.5181 H   0  0  0  0  0  0  0  0  0  0  0  0
  125.4255  122.1626   54.5181 H   0  0  0  0  0  0  0  0  0  0  0  0
  123.4731  123.8326   57.2684 H   0  0  0  0  0  0  0  0  0  0  0  0
  126.6170  124.8930   61.5360 H   0  0  0  0  0  0  0  0  0  0  0  0
  126.7160  123.2820   62.1310 H   0  0  0  0  0  0  0  0  0  0  0  0
  130.0612  125.2986   63.7413 H   0  0  0  0  0  0  0  0  0  0  0  0
  132.0191  125.7239   65.2159 H   0  0  0  0  0  0  0  0  0  0  0  0
  1  2  1  0
  2  3  1  0
  3  4  2  0
  4  5  1  0
  5  6  2  0
  6  7  1  0
  7  8  1  0
  8  9  2  0
  8 10  1  0
 10 11  1  0
 11 12  1  0
 12 13  2  0
 13 14  1  0
 14 15  1  0
 14 16  2  0
 16 17  1  0
 17 18  1  0
 18 19  1  0
 18 20  1  0
 18 21  1  0
 17 22  2  0
 22 23  1  0
 23 24  1  0
  6 25  1  0
 25 26  2  0
 26  3  1  0
 23 10  2  0
 22 12  1  0
  1 27  1  0
  1 28  1  0
  1 29  1  0
  4 30  1  0
  5 31  1  0
  7 32  1  0
 15 33  1  0
 15 34  1  0
 15 35  1  0
 16 36  1  0
 24 37  1  0
 24 38  1  0
 25 39  1  0
 26 40  1  0
M  END
>  <Binding energies>  (1) 
[-6.85]

>  <Ligand effiencies>  (1) 
[-0.23620689655172414]

>  <Interactions>  (1) 
["V-A:ASP:366:CG:3209, V-A:HIS:456:CE1:4066, V-B:ASP:366:CB:8180, V-B:ASN:362:CB:8144, V-B:TYR:539:CE1:9844, V-B:PRO:540:CA:9852, V-B:TYR:539:CZ:9846, V-B:ASN:362:C:8140, V-B:PRO:540:N:9853, V-B:PRO:540:CB:9854, V-B:ASP:366:CG:8181, V-B:LEU:363:CD1:8157, V-B:LEU:363:CA:8153, V-B:ALA:541:CB:9861, H-B:GLU:543:OE2:9879, V-B:GLU:543:CD:9877, V-B:GLU:543:CG:9876, V-A:ARG:545:CZ:4923, V-A:ARG:545:CD:4920, H-A:ARG:545:NH2:4925, V-B:TYR:539:CE2:9845, H-A:ARG:545:NE:4921, V-A:ARG:545:CG:4919, V-B:ILE:538:CG2:9832, V-B:ILE:538:CB:9831, V-B:TYR:539:CD2:9843, V-B:TYR:539:CD1:9842, V-B:TYR:539:CG:9841, V-B:LEU:363:CB:8155, H-A:GLY:454:N:4046, H-A:ARG:545:NH1:4924, V-A:GLY:454:CA:4045, V-A:GLY:453:C:4038, V-A:GLY:453:CA:4040, V-A:GLY:454:C:4043, V-B:LEU:363:C:8151, V-B:ILE:538:CD1:9834"]

$$$$
4bd_Grossjean_2025
     RDKit          3D

 36 38  0  0  0  0  0  0  0  0999 V2000
  124.7730  122.8840   55.1560 C   0  0  0  0  0  0  0  0  0  0  0  0
  125.3800  123.0870   56.5330 C   0  0  0  0  0  0  0  0  0  0  0  0
  124.5870  123.4340   57.6230 C   0  0  0  0  0  0  0  0  0  0  0  0
  125.1620  123.6210   58.8900 C   0  0  0  0  0  0  0  0  0  0  0  0
  124.2490  124.0050   60.0590 C   0  0  0  0  0  0  0  0  0  0  0  0
  124.2060  123.0750   61.0160 F   0  0  0  0  0  0  0  0  0  0  0  0
  124.6830  125.1340   60.6200 F   0  0  0  0  0  0  0  0  0  0  0  0
  123.0030  124.1820   59.6200 F   0  0  0  0  0  0  0  0  0  0  0  0
  126.5720  123.4400   59.0000 C   0  0  0  0  0  0  0  0  0  0  0  0
  127.4920  123.5420   60.1070 C   0  0  0  0  0  0  0  0  0  0  0  0
  127.0880  123.8640   61.3760 N   0  0  0  0  0  0  0  0  0  0  0  0
  128.8310  123.2830   59.7660 C   0  0  0  0  0  0  0  0  0  0  0  0
  130.0150  123.3150   60.6300 C   0  0  0  0  0  0  0  0  0  0  0  0
  129.9080  123.1720   61.8480 O   0  0  0  0  0  0  0  0  0  0  0  0
  131.1970  123.4960   59.9890 N   0  0  0  0  0  0  0  0  0  0  0  0
  132.4940  123.6140   60.5210 C   0  0  0  0  0  0  0  0  0  0  0  0
  132.5880  124.2210   61.7770 C   0  0  0  0  0  0  0  0  0  0  0  0
  133.8270  124.3740   62.3920 C   0  0  0  0  0  0  0  0  0  0  0  0
  134.9760  123.9120   61.7560 C   0  0  0  0  0  0  0  0  0  0  0  0
  134.8950  123.2930   60.5110 C   0  0  0  0  0  0  0  0  0  0  0  0
  133.6570  123.1380   59.8920 C   0  0  0  0  0  0  0  0  0  0  0  0
  128.9900  122.8970   58.0550 S   0  0  0  0  0  0  0  0  0  0  0  0
  127.2700  123.0860   57.8040 C   0  0  0  0  0  0  0  0  0  0  0  0
  126.7190  122.9080   56.6050 N   0  0  0  0  0  0  0  0  0  0  0  0
  123.7345  122.5367   55.2606 H   0  0  0  0  0  0  0  0  0  0  0  0
  124.7875  123.8359   54.6049 H   0  0  0  0  0  0  0  0  0  0  0  0
  125.3572  122.1323   54.6049 H   0  0  0  0  0  0  0  0  0  0  0  0
  123.5026  123.5626   57.4908 H   0  0  0  0  0  0  0  0  0  0  0  0
  127.7270  123.8590   62.1590 H   0  0  0  0  0  0  0  0  0  0  0  0
  126.1320  124.1250   61.5730 H   0  0  0  0  0  0  0  0  0  0  0  0
  131.1550  123.5370   58.9810 H   0  0  0  0  0  0  0  0  0  0  0  0
  131.6785  124.5793   62.2814 H   0  0  0  0  0  0  0  0  0  0  0  0
  133.8982  124.8582   63.3771 H   0  0  0  0  0  0  0  0  0  0  0  0
  135.9556  124.0368   62.2406 H   0  0  0  0  0  0  0  0  0  0  0  0
  135.8074  122.9271   60.0173 H   0  0  0  0  0  0  0  0  0  0  0  0
  133.5897  122.6435   58.9117 H   0  0  0  0  0  0  0  0  0  0  0  0
  1  2  1  0
  2  3  2  0
  3  4  1  0
  4  5  1  0
  5  6  1  0
  5  7  1  0
  5  8  1  0
  4  9  2  0
  9 10  1  0
 10 11  1  0
 10 12  2  0
 12 13  1  0
 13 14  2  0
 13 15  1  0
 15 16  1  0
 16 17  2  0
 17 18  1  0
 18 19  2  0
 19 20  1  0
 20 21  2  0
 12 22  1  0
 22 23  1  0
 23 24  2  0
 24  2  1  0
 23  9  1  0
 21 16  1  0
  1 25  1  0
  1 26  1  0
  1 27  1  0
  3 28  1  0
 11 29  1  0
 11 30  1  0
 15 31  1  0
 17 32  1  0
 18 33  1  0
 19 34  1  0
 20 35  1  0
 21 36  1  0
M  END
>  <Binding energies>  (1) 
[-6.67]

>  <Ligand effiencies>  (1) 
[-0.24703703703703703]

>  <Interactions>  (1) 
["V-A:ASP:366:CG:3209, V-B:ASN:362:CB:8144, V-B:TYR:539:CE1:9844, V-B:PRO:540:CA:9852, V-B:TYR:539:CZ:9846, V-B:ASN:362:C:8140, V-B:PRO:540:C:9850, V-B:PRO:540:CB:9854, V-B:ASP:366:CG:8181, V-B:LEU:363:CD1:8157, V-B:LEU:363:CA:8153, V-B:ALA:541:CB:9861, H-B:GLU:543:OE2:9879, H-B:TYR:539:OH:9847, V-B:GLU:543:CD:9877, V-B:GLU:543:CG:9876, V-B:TYR:539:CE2:9845, V-B:ILE:538:CG2:9832, V-B:ILE:538:CB:9831, V-A:ILE:369:CG1:3234, V-A:ILE:369:CB:3232, V-B:TYR:539:CD2:9843, V-B:TYR:539:CD1:9842, V-B:LEU:363:CB:8155, V-A:ILE:369:CG2:3233, V-A:GLY:454:CA:4045, V-A:GLY:453:C:4038, V-A:GLY:453:CA:4040, V-A:ASP:366:CA:3206, V-B:ILE:538:CD1:9834"]

$$$$
4be_Grossjean_2025
     RDKit          3D

 38 40  0  0  0  0  0  0  0  0999 V2000
  134.8320  120.2710   61.3690 C   0  0  0  0  0  0  0  0  0  0  0  0
  134.1710  121.6320   61.2660 C   0  0  0  0  0  0  0  0  0  0  0  0
  134.8070  122.7900   61.7220 C   0  0  0  0  0  0  0  0  0  0  0  0
  134.1380  124.0080   61.5980 C   0  0  0  0  0  0  0  0  0  0  0  0
  132.8640  124.0400   61.0260 C   0  0  0  0  0  0  0  0  0  0  0  0
  132.2870  122.8440   60.5840 C   0  0  0  0  0  0  0  0  0  0  0  0
  131.0000  122.9430   60.0250 N   0  0  0  0  0  0  0  0  0  0  0  0
  129.7960  122.7630   60.6220 C   0  0  0  0  0  0  0  0  0  0  0  0
  129.6560  122.4760   61.8120 O   0  0  0  0  0  0  0  0  0  0  0  0
  128.6310  122.9110   59.7450 C   0  0  0  0  0  0  0  0  0  0  0  0
  128.7710  122.5720   58.0210 S   0  0  0  0  0  0  0  0  0  0  0  0
  127.0960  122.9960   57.7550 C   0  0  0  0  0  0  0  0  0  0  0  0
  126.5490  122.9350   56.5420 N   0  0  0  0  0  0  0  0  0  0  0  0
  125.2440  123.2850   56.4620 C   0  0  0  0  0  0  0  0  0  0  0  0
  124.6390  123.2120   55.0720 C   0  0  0  0  0  0  0  0  0  0  0  0
  124.4820  123.6890   57.5550 C   0  0  0  0  0  0  0  0  0  0  0  0
  125.0530  123.7540   58.8350 C   0  0  0  0  0  0  0  0  0  0  0  0
  124.1740  124.2010   60.0080 C   0  0  0  0  0  0  0  0  0  0  0  0
  124.7460  125.1450   60.7590 F   0  0  0  0  0  0  0  0  0  0  0  0
  123.0270  124.6990   59.5480 F   0  0  0  0  0  0  0  0  0  0  0  0
  123.9160  123.1610   60.8010 F   0  0  0  0  0  0  0  0  0  0  0  0
  126.4290  123.3950   58.9540 C   0  0  0  0  0  0  0  0  0  0  0  0
  127.3380  123.3470   60.0740 C   0  0  0  0  0  0  0  0  0  0  0  0
  126.9620  123.6900   61.3480 N   0  0  0  0  0  0  0  0  0  0  0  0
  132.9340  121.6480   60.7070 N   0  0  0  0  0  0  0  0  0  0  0  0
  134.9610  120.0053   62.4286 H   0  0  0  0  0  0  0  0  0  0  0  0
  134.1993  119.5179   60.8766 H   0  0  0  0  0  0  0  0  0  0  0  0
  135.8151  120.3026   60.8766 H   0  0  0  0  0  0  0  0  0  0  0  0
  135.8113  122.7422   62.1681 H   0  0  0  0  0  0  0  0  0  0  0  0
  134.6108  124.9373   61.9485 H   0  0  0  0  0  0  0  0  0  0  0  0
  132.3219  124.9918   60.9244 H   0  0  0  0  0  0  0  0  0  0  0  0
  130.9860  123.1370   59.0340 H   0  0  0  0  0  0  0  0  0  0  0  0
  123.5499  123.0806   55.1526 H   0  0  0  0  0  0  0  0  0  0  0  0
  124.8567  124.1429   54.5280 H   0  0  0  0  0  0  0  0  0  0  0  0
  125.0719  122.3596   54.5280 H   0  0  0  0  0  0  0  0  0  0  0  0
  123.4250  123.9591   57.4141 H   0  0  0  0  0  0  0  0  0  0  0  0
  127.6020  123.6350   62.1270 H   0  0  0  0  0  0  0  0  0  0  0  0
  126.0240  124.0050   61.5510 H   0  0  0  0  0  0  0  0  0  0  0  0
  1  2  1  0
  2  3  2  0
  3  4  1  0
  4  5  2  0
  5  6  1  0
  6  7  1  0
  7  8  1  0
  8  9  2  0
  8 10  1  0
 10 11  1  0
 11 12  1  0
 12 13  2  0
 13 14  1  0
 14 15  1  0
 14 16  2  0
 16 17  1  0
 17 18  1  0
 18 19  1  0
 18 20  1  0
 18 21  1  0
 17 22  2  0
 22 23  1  0
 23 24  1  0
  6 25  2  0
 25  2  1  0
 23 10  2  0
 22 12  1  0
  1 26  1  0
  1 27  1  0
  1 28  1  0
  3 29  1  0
  4 30  1  0
  5 31  1  0
  7 32  1  0
 15 33  1  0
 15 34  1  0
 15 35  1  0
 16 36  1  0
 24 37  1  0
 24 38  1  0
M  END
>  <Binding energies>  (1) 
[-6.67]

>  <Ligand effiencies>  (1) 
[-0.2382142857142857]

>  <Interactions>  (1) 
["V-A:ASP:366:CG:3209, V-B:ASP:366:CB:8180, V-B:ASN:362:CB:8144, V-B:TYR:539:CE1:9844, V-B:PRO:540:CA:9852, V-B:TYR:539:CZ:9846, V-B:ASN:362:C:8140, V-B:PRO:540:N:9853, V-B:PRO:540:C:9850, V-B:PRO:540:CB:9854, V-B:ASP:366:CG:8181, V-B:LEU:363:CD1:8157, V-B:LEU:363:CA:8153, V-B:ALA:541:CB:9861, H-B:GLU:543:OE2:9879, H-B:TYR:539:OH:9847, V-B:GLU:543:CD:9877, V-B:GLU:543:CG:9876, V-B:TYR:539:CE2:9845, V-B:ILE:538:CG2:9832, V-B:ILE:538:CB:9831, V-A:LEU:475:CD1:4254, V-A:ILE:369:CG1:3234, V-A:ILE:369:CB:3232, V-B:TYR:539:CD2:9843, V-B:TYR:539:CD1:9842, V-B:TYR:539:CG:9841, V-B:LEU:363:CB:8155, V-A:ILE:369:CG2:3233, V-A:GLY:454:CA:4045, V-A:ILE:369:CD1:3235, V-A:GLY:453:C:4038, V-A:GLY:453:CA:4040, V-A:SER:385:C:3401"]

$$$$
4bf_Grossjean_2025
     RDKit          3D

 35 37  0  0  0  0  0  0  0  0999 V2000
  124.7840  122.9030   55.1500 C   0  0  0  0  0  0  0  0  0  0  0  0
  125.3980  123.0980   56.5250 C   0  0  0  0  0  0  0  0  0  0  0  0
  124.6110  123.4480   57.6190 C   0  0  0  0  0  0  0  0  0  0  0  0
  125.1920  123.6290   58.8840 C   0  0  0  0  0  0  0  0  0  0  0  0
  124.2860  124.0170   60.0570 C   0  0  0  0  0  0  0  0  0  0  0  0
  124.6360  125.1720   60.6280 F   0  0  0  0  0  0  0  0  0  0  0  0
  123.0280  124.1460   59.6350 F   0  0  0  0  0  0  0  0  0  0  0  0
  124.3400  123.0750   61.0000 F   0  0  0  0  0  0  0  0  0  0  0  0
  126.6020  123.4380   58.9870 C   0  0  0  0  0  0  0  0  0  0  0  0
  127.5270  123.5340   60.0900 C   0  0  0  0  0  0  0  0  0  0  0  0
  127.1290  123.8610   61.3620 N   0  0  0  0  0  0  0  0  0  0  0  0
  128.8610  123.2610   59.7470 C   0  0  0  0  0  0  0  0  0  0  0  0
  130.0510  123.2980   60.6030 C   0  0  0  0  0  0  0  0  0  0  0  0
  129.9530  123.1370   61.8200 O   0  0  0  0  0  0  0  0  0  0  0  0
  131.2250  123.5000   59.9560 N   0  0  0  0  0  0  0  0  0  0  0  0
  132.5250  123.6360   60.4800 C   0  0  0  0  0  0  0  0  0  0  0  0
  133.7170  123.4760   59.7520 C   0  0  0  0  0  0  0  0  0  0  0  0
  134.9460  123.6230   60.3990 C   0  0  0  0  0  0  0  0  0  0  0  0
  134.9520  123.9220   61.7620 C   0  0  0  0  0  0  0  0  0  0  0  0
  133.8170  124.0740   62.4870 N   0  0  0  0  0  0  0  0  0  0  0  0
  132.6300  123.9270   61.8450 C   0  0  0  0  0  0  0  0  0  0  0  0
  129.0120  122.8790   58.0330 S   0  0  0  0  0  0  0  0  0  0  0  0
  127.2930  123.0800   57.7890 C   0  0  0  0  0  0  0  0  0  0  0  0
  126.7360  122.9090   56.5900 N   0  0  0  0  0  0  0  0  0  0  0  0
  123.7407  122.5716   55.2580 H   0  0  0  0  0  0  0  0  0  0  0  0
  124.8114  123.8541   54.5980 H   0  0  0  0  0  0  0  0  0  0  0  0
  125.3551  122.1420   54.5980 H   0  0  0  0  0  0  0  0  0  0  0  0
  123.5269  123.5836   57.4912 H   0  0  0  0  0  0  0  0  0  0  0  0
  127.7660  123.8250   62.1450 H   0  0  0  0  0  0  0  0  0  0  0  0
  126.1810  124.1500   61.5580 H   0  0  0  0  0  0  0  0  0  0  0  0
  131.1740  123.5570   58.9490 H   0  0  0  0  0  0  0  0  0  0  0  0
  133.6819  123.2364   58.6790 H   0  0  0  0  0  0  0  0  0  0  0  0
  135.8894  123.5055   59.8457 H   0  0  0  0  0  0  0  0  0  0  0  0
  135.9204  124.0395   62.2703 H   0  0  0  0  0  0  0  0  0  0  0  0
  131.7038  124.0424   62.4270 H   0  0  0  0  0  0  0  0  0  0  0  0
  1  2  1  0
  2  3  2  0
  3  4  1  0
  4  5  1  0
  5  6  1  0
  5  7  1  0
  5  8  1  0
  4  9  2  0
  9 10  1  0
 10 11  1  0
 10 12  2  0
 12 13  1  0
 13 14  2  0
 13 15  1  0
 15 16  1  0
 16 17  2  0
 17 18  1  0
 18 19  2  0
 19 20  1  0
 20 21  2  0
 12 22  1  0
 22 23  1  0
 23 24  2  0
 24  2  1  0
 23  9  1  0
 21 16  1  0
  1 25  1  0
  1 26  1  0
  1 27  1  0
  3 28  1  0
 11 29  1  0
 11 30  1  0
 15 31  1  0
 17 32  1  0
 18 33  1  0
 19 34  1  0
 21 35  1  0
M  END
>  <Binding energies>  (1) 
[-6.8]

>  <Ligand effiencies>  (1) 
[-0.2518518518518518]

>  <Interactions>  (1) 
["V-A:ASP:366:CB:3208, V-A:ASP:366:CG:3209, V-B:ASN:362:CB:8144, V-B:TYR:539:CE1:9844, V-B:PRO:540:CA:9852, V-B:TYR:539:CZ:9846, V-B:ASN:362:C:8140, V-B:PRO:540:C:9850, V-B:PRO:540:CB:9854, V-B:ASP:366:CG:8181, V-B:LEU:363:CD1:8157, V-B:LEU:363:CA:8153, V-B:ALA:541:CB:9861, H-B:GLU:543:OE2:9879, H-B:TYR:539:OH:9847, V-B:GLU:543:CD:9877, V-B:GLU:543:CG:9876, V-B:TYR:539:CE2:9845, V-B:ILE:538:CG2:9832, V-B:ILE:538:CB:9831, V-A:ILE:369:CG1:3234, V-A:ILE:369:CB:3232, V-B:TYR:539:CD2:9843, V-B:TYR:539:CD1:9842, V-B:TYR:539:CG:9841, V-B:LEU:363:CB:8155, H-A:GLY:454:N:4046, V-A:ILE:369:CG2:3233, V-A:GLY:454:CA:4045, V-A:GLY:453:C:4038, V-A:GLY:453:CA:4040, V-A:ASP:366:CA:3206, V-B:ILE:538:CD1:9834"]

$$$$
4bg_Grossjean_2025
     RDKit          3D

 39 41  0  0  0  0  0  0  0  0999 V2000
  124.8830  123.2250   55.1710 C   0  0  0  0  0  0  0  0  0  0  0  0
  125.3610  123.1930   56.6110 C   0  0  0  0  0  0  0  0  0  0  0  0
  124.5560  123.6660   57.6440 C   0  0  0  0  0  0  0  0  0  0  0  0
  125.0130  123.6360   58.9720 C   0  0  0  0  0  0  0  0  0  0  0  0
  124.0920  124.1670   60.0750 C   0  0  0  0  0  0  0  0  0  0  0  0
  124.6760  125.0910   60.8420 F   0  0  0  0  0  0  0  0  0  0  0  0
  123.0110  124.7250   59.5300 F   0  0  0  0  0  0  0  0  0  0  0  0
  123.7170  123.1670   60.8720 F   0  0  0  0  0  0  0  0  0  0  0  0
  126.3170  123.1050   59.2000 C   0  0  0  0  0  0  0  0  0  0  0  0
  127.1070  122.9220   60.3930 C   0  0  0  0  0  0  0  0  0  0  0  0
  126.6670  123.2890   61.6400 N   0  0  0  0  0  0  0  0  0  0  0  0
  128.3580  122.3280   60.1650 C   0  0  0  0  0  0  0  0  0  0  0  0
  129.4140  122.0280   61.1320 C   0  0  0  0  0  0  0  0  0  0  0  0
  129.8290  120.8790   61.2950 O   0  0  0  0  0  0  0  0  0  0  0  0
  129.9260  123.0850   61.7950 N   0  0  0  0  0  0  0  0  0  0  0  0
  130.9740  123.0220   62.8130 C   0  0  0  0  0  0  0  0  0  0  0  0
  132.3820  122.9540   62.2360 C   0  0  0  0  0  0  0  0  0  0  0  0
  133.2140  124.0770   62.2810 C   0  0  0  0  0  0  0  0  0  0  0  0
  134.5130  124.0000   61.7870 C   0  0  0  0  0  0  0  0  0  0  0  0
  134.9840  122.7970   61.2640 C   0  0  0  0  0  0  0  0  0  0  0  0
  134.1670  121.6700   61.2330 C   0  0  0  0  0  0  0  0  0  0  0  0
  132.8660  121.7460   61.7250 C   0  0  0  0  0  0  0  0  0  0  0  0
  128.6150  122.0100   58.4520 S   0  0  0  0  0  0  0  0  0  0  0  0
  127.0360  122.6460   58.0540 C   0  0  0  0  0  0  0  0  0  0  0  0
  126.5990  122.6800   56.7950 N   0  0  0  0  0  0  0  0  0  0  0  0
  123.7856  123.2985   55.1505 H   0  0  0  0  0  0  0  0  0  0  0  0
  125.3184  124.0960   54.6594 H   0  0  0  0  0  0  0  0  0  0  0  0
  125.1984  122.3037   54.6594 H   0  0  0  0  0  0  0  0  0  0  0  0
  123.5562  124.0656   57.4188 H   0  0  0  0  0  0  0  0  0  0  0  0
  125.7230  123.6100   61.8000 H   0  0  0  0  0  0  0  0  0  0  0  0
  127.2800  123.2600   62.4430 H   0  0  0  0  0  0  0  0  0  0  0  0
  129.4850  123.9850   61.6690 H   0  0  0  0  0  0  0  0  0  0  0  0
  130.8999  123.9198   63.4442 H   0  0  0  0  0  0  0  0  0  0  0  0
  130.8142  122.0950   63.3832 H   0  0  0  0  0  0  0  0  0  0  0  0
  132.8421  125.0207   62.7066 H   0  0  0  0  0  0  0  0  0  0  0  0
  135.1655  124.8853   61.8093 H   0  0  0  0  0  0  0  0  0  0  0  0
  136.0102  122.7374   60.8723 H   0  0  0  0  0  0  0  0  0  0  0  0
  134.5474  120.7234   60.8216 H   0  0  0  0  0  0  0  0  0  0  0  0
  132.2197  120.8560   61.7115 H   0  0  0  0  0  0  0  0  0  0  0  0
  1  2  1  0
  2  3  2  0
  3  4  1  0
  4  5  1  0
  5  6  1  0
  5  7  1  0
  5  8  1  0
  4  9  2  0
  9 10  1  0
 10 11  1  0
 10 12  2  0
 12 13  1  0
 13 14  2  0
 13 15  1  0
 15 16  1  0
 16 17  1  0
 17 18  2  0
 18 19  1  0
 19 20  2  0
 20 21  1  0
 21 22  2  0
 12 23  1  0
 23 24  1  0
 24 25  2  0
 25  2  1  0
 24  9  1  0
 22 17  1  0
  1 26  1  0
  1 27  1  0
  1 28  1  0
  3 29  1  0
 11 30  1  0
 11 31  1  0
 15 32  1  0
 16 33  1  0
 16 34  1  0
 18 35  1  0
 19 36  1  0
 20 37  1  0
 21 38  1  0
 22 39  1  0
M  END
>  <Binding energies>  (1) 
[-7.14]

>  <Ligand effiencies>  (1) 
[-0.255]

>  <Interactions>  (1) 
["V-A:ASP:366:CG:3209, V-B:ASP:366:CB:8180, V-B:ASN:362:CB:8144, V-B:TYR:539:CE1:9844, V-B:MET:535:CE:9804, V-B:PRO:540:CA:9852, V-B:TYR:539:CZ:9846, V-B:ASN:362:C:8140, V-B:PRO:540:N:9853, V-B:PRO:540:C:9850, V-B:PRO:540:CB:9854, V-B:ASP:366:CG:8181, V-B:LEU:363:CD1:8157, V-B:LEU:363:CA:8153, V-B:ALA:541:CB:9861, H-B:GLU:543:OE2:9879, V-B:GLU:543:CD:9877, V-B:GLU:543:CG:9876, V-B:TYR:539:CE2:9845, V-B:ILE:538:CG2:9832, V-B:ILE:538:CB:9831, V-A:LEU:475:CD1:4254, V-A:ILE:369:CG1:3234, V-B:TYR:539:C:9836, V-A:ILE:369:CB:3232, V-B:TYR:539:CD2:9843, V-B:TYR:539:CD1:9842, V-B:TYR:539:CG:9841, V-B:LEU:363:CB:8155, V-A:ILE:369:CG2:3233, V-A:GLY:454:CA:4045, V-B:ARG:545:CZ:9895, V-A:GLY:453:C:4038, V-A:GLY:453:CA:4040, V-B:ALA:541:CA:9859"]

$$$$
4bh_Grossjean_2025
     RDKit          3D

 51 53  0  0  0  0  0  0  0  0999 V2000
  129.4400  124.3930   66.4190 C   0  0  0  0  0  0  0  0  0  0  0  0
  129.5470  124.7680   65.0500 O   0  0  0  0  0  0  0  0  0  0  0  0
  130.7070  124.4810   64.3550 C   0  0  0  0  0  0  0  0  0  0  0  0
  130.7460  123.7280   63.1710 C   0  0  0  0  0  0  0  0  0  0  0  0
  131.9550  123.4750   62.5220 C   0  0  0  0  0  0  0  0  0  0  0  0
  131.9720  122.6940   61.2140 C   0  0  0  0  0  0  0  0  0  0  0  0
  130.7370  122.8240   60.4400 N   0  0  0  0  0  0  0  0  0  0  0  0
  129.5460  122.2840   60.7710 C   0  0  0  0  0  0  0  0  0  0  0  0
  129.3940  121.5760   61.7690 O   0  0  0  0  0  0  0  0  0  0  0  0
  128.4410  122.5490   59.8500 C   0  0  0  0  0  0  0  0  0  0  0  0
  128.5940  122.1290   58.1460 S   0  0  0  0  0  0  0  0  0  0  0  0
  127.0030  122.7690   57.8020 C   0  0  0  0  0  0  0  0  0  0  0  0
  126.4930  122.7370   56.5720 N   0  0  0  0  0  0  0  0  0  0  0  0
  125.2530  123.2590   56.4300 C   0  0  0  0  0  0  0  0  0  0  0  0
  124.6920  123.2150   55.0190 C   0  0  0  0  0  0  0  0  0  0  0  0
  124.5170  123.8050   57.4780 C   0  0  0  0  0  0  0  0  0  0  0  0
  125.0500  123.8430   58.7760 C   0  0  0  0  0  0  0  0  0  0  0  0
  124.2020  124.4510   59.8980 C   0  0  0  0  0  0  0  0  0  0  0  0
  123.8930  123.5730   60.8550 F   0  0  0  0  0  0  0  0  0  0  0  0
  124.8670  125.4510   60.4750 F   0  0  0  0  0  0  0  0  0  0  0  0
  123.0570  124.9150   59.3970 F   0  0  0  0  0  0  0  0  0  0  0  0
  126.3570  123.3030   58.9600 C   0  0  0  0  0  0  0  0  0  0  0  0
  127.2120  123.1740   60.1140 C   0  0  0  0  0  0  0  0  0  0  0  0
  126.8500  123.6180   61.3600 N   0  0  0  0  0  0  0  0  0  0  0  0
  133.1380  124.0020   63.0440 C   0  0  0  0  0  0  0  0  0  0  0  0
  133.1310  124.7520   64.2300 C   0  0  0  0  0  0  0  0  0  0  0  0
  134.2650  125.2910   64.8100 O   0  0  0  0  0  0  0  0  0  0  0  0
  134.6230  124.9050   66.1330 C   0  0  0  0  0  0  0  0  0  0  0  0
  131.9090  124.9790   64.8790 C   0  0  0  0  0  0  0  0  0  0  0  0
  131.8850  125.7280   66.0320 O   0  0  0  0  0  0  0  0  0  0  0  0
  131.1850  126.9580   65.9070 C   0  0  0  0  0  0  0  0  0  0  0  0
  129.6861  125.2555   67.0558 H   0  0  0  0  0  0  0  0  0  0  0  0
  128.4119  124.0633   66.6296 H   0  0  0  0  0  0  0  0  0  0  0  0
  130.1393  123.5704   66.6296 H   0  0  0  0  0  0  0  0  0  0  0  0
  129.8106  123.3319   62.7490 H   0  0  0  0  0  0  0  0  0  0  0  0
  132.8078  123.0611   60.6002 H   0  0  0  0  0  0  0  0  0  0  0  0
  132.0804  121.6306   61.4737 H   0  0  0  0  0  0  0  0  0  0  0  0
  130.7700  123.4610   59.6560 H   0  0  0  0  0  0  0  0  0  0  0  0
  123.5962  123.1291   55.0626 H   0  0  0  0  0  0  0  0  0  0  0  0
  124.9665  124.1374   54.4863 H   0  0  0  0  0  0  0  0  0  0  0  0
  125.1070  122.3466   54.4863 H   0  0  0  0  0  0  0  0  0  0  0  0
  123.5117  124.2091   57.2877 H   0  0  0  0  0  0  0  0  0  0  0  0
  126.0310  124.1930   61.5060 H   0  0  0  0  0  0  0  0  0  0  0  0
  127.3960  123.3900   62.1790 H   0  0  0  0  0  0  0  0  0  0  0  0
  134.0883  123.8269   62.5184 H   0  0  0  0  0  0  0  0  0  0  0  0
  134.0599  125.5121   66.8571 H   0  0  0  0  0  0  0  0  0  0  0  0
  134.3843  123.8416   66.2820 H   0  0  0  0  0  0  0  0  0  0  0  0
  135.7013  125.0631   66.2820 H   0  0  0  0  0  0  0  0  0  0  0  0
  130.9592  127.3547   66.9078 H   0  0  0  0  0  0  0  0  0  0  0  0
  131.8075  127.6800   65.3582 H   0  0  0  0  0  0  0  0  0  0  0  0
  130.2463  126.7916   65.3582 H   0  0  0  0  0  0  0  0  0  0  0  0
  1  2  1  0
  2  3  1  0
  3  4  2  0
  4  5  1  0
  5  6  1  0
  6  7  1  0
  7  8  1  0
  8  9  2  0
  8 10  1  0
 10 11  1  0
 11 12  1  0
 12 13  2  0
 13 14  1  0
 14 15  1  0
 14 16  2  0
 16 17  1  0
 17 18  1  0
 18 19  1  0
 18 20  1  0
 18 21  1  0
 17 22  2  0
 22 23  1  0
 23 24  1  0
  5 25  2  0
 25 26  1  0
 26 27  1  0
 27 28  1  0
 26 29  2  0
 29 30  1  0
 30 31  1  0
 29  3  1  0
 23 10  2  0
 22 12  1  0
  1 32  1  0
  1 33  1  0
  1 34  1  0
  4 35  1  0
  6 36  1  0
  6 37  1  0
  7 38  1  0
 15 39  1  0
 15 40  1  0
 15 41  1  0
 16 42  1  0
 24 43  1  0
 24 44  1  0
 25 45  1  0
 28 46  1  0
 28 47  1  0
 28 48  1  0
 31 49  1  0
 31 50  1  0
 31 51  1  0
M  END
>  <Binding energies>  (1) 
[-6.62]

>  <Ligand effiencies>  (1) 
[-0.19470588235294117]

>  <Interactions>  (1) 
["V-A:GLU:543:CD:4905, V-A:HIS:456:CE1:4066, V-B:GLU:543:CB:9875, V-B:ASP:366:CB:8180, V-B:ASN:362:CB:8144, V-B:TYR:539:CE1:9844, V-B:PRO:540:CA:9852, V-B:TYR:539:CZ:9846, V-B:ASN:362:C:8140, V-B:PRO:540:N:9853, V-B:PRO:540:CB:9854, V-B:ASP:366:CG:8181, V-B:LEU:363:CD1:8157, V-B:LEU:363:CA:8153, V-B:ALA:541:CB:9861, H-B:GLU:543:OE2:9879, H-B:TYR:539:OH:9847, V-B:GLU:543:CD:9877, V-B:GLU:543:CG:9876, V-A:ARG:545:CZ:4923, V-A:TYR:484:CZ:4343, V-A:ARG:545:CD:4920, H-A:ARG:545:NH2:4925, V-B:TYR:539:CE2:9845, H-A:ARG:545:NE:4921, V-A:ARG:545:CG:4919, V-A:TYR:484:CE1:4341, V-B:GLU:543:CA:9873, V-B:ILE:538:CG2:9832, V-B:ILE:538:CB:9831, V-B:TYR:539:C:9836, V-B:TYR:539:CD2:9843, V-B:TYR:539:CD1:9842, V-B:TYR:539:CG:9841, V-B:LEU:363:CB:8155, H-A:GLY:454:N:4046, H-A:ARG:545:NH1:4924, V-A:GLY:454:CA:4045, V-A:GLY:453:C:4038, V-A:GLY:453:CA:4040, H-A:TYR:484:OH:4344, V-A:GLY:454:C:4043"]

$$$$
4bi_Grossjean_2025
     RDKit          3D

 32 34  0  0  0  0  0  0  0  0999 V2000
  133.5010  125.0870   65.2990 C   0  0  0  0  0  0  0  0  0  0  0  0
  132.7850  124.6720   64.0270 C   0  0  0  0  0  0  0  0  0  0  0  0
  133.4960  124.3890   62.8630 C   0  0  0  0  0  0  0  0  0  0  0  0
  132.8210  124.0010   61.6940 C   0  0  0  0  0  0  0  0  0  0  0  0
  133.6460  123.6920   60.4410 C   0  0  0  0  0  0  0  0  0  0  0  0
  134.9440  123.9650   60.5900 F   0  0  0  0  0  0  0  0  0  0  0  0
  133.5440  122.3980   60.1410 F   0  0  0  0  0  0  0  0  0  0  0  0
  133.2010  124.4190   59.4160 F   0  0  0  0  0  0  0  0  0  0  0  0
  131.3980  123.9200   61.7590 C   0  0  0  0  0  0  0  0  0  0  0  0
  130.3900  123.5710   60.7890 C   0  0  0  0  0  0  0  0  0  0  0  0
  130.6920  123.2310   59.4950 N   0  0  0  0  0  0  0  0  0  0  0  0
  129.0770  123.6050   61.2870 C   0  0  0  0  0  0  0  0  0  0  0  0
  127.8240  123.3240   60.5800 C   0  0  0  0  0  0  0  0  0  0  0  0
  127.8310  122.7420   59.4940 O   0  0  0  0  0  0  0  0  0  0  0  0
  126.6950  123.7290   61.2130 N   0  0  0  0  0  0  0  0  0  0  0  0
  125.3830  123.5810   60.7810 C   0  0  0  0  0  0  0  0  0  0  0  0
  124.8930  124.1750   59.6200 C   0  0  0  0  0  0  0  0  0  0  0  0
  123.5730  123.7900   59.5490 C   0  0  0  0  0  0  0  0  0  0  0  0
  123.2850  123.0030   60.6140 O   0  0  0  0  0  0  0  0  0  0  0  0
  124.4410  122.8790   61.3880 N   0  0  0  0  0  0  0  0  0  0  0  0
  129.0500  124.0970   62.9790 S   0  0  0  0  0  0  0  0  0  0  0  0
  130.7910  124.2370   63.0140 C   0  0  0  0  0  0  0  0  0  0  0  0
  131.4370  124.6020   64.1210 N   0  0  0  0  0  0  0  0  0  0  0  0
  132.9219  124.7513   66.1719 H   0  0  0  0  0  0  0  0  0  0  0  0
  134.5004  124.6282   65.3236 H   0  0  0  0  0  0  0  0  0  0  0  0
  133.5997  126.1823   65.3236 H   0  0  0  0  0  0  0  0  0  0  0  0
  134.5930  124.4699   62.8594 H   0  0  0  0  0  0  0  0  0  0  0  0
  131.6290  123.3150   59.1260 H   0  0  0  0  0  0  0  0  0  0  0  0
  129.9840  122.8870   58.8620 H   0  0  0  0  0  0  0  0  0  0  0  0
  126.8080  124.1850   62.1070 H   0  0  0  0  0  0  0  0  0  0  0  0
  125.4422  124.8138   58.9126 H   0  0  0  0  0  0  0  0  0  0  0  0
  122.8662  124.0752   58.7558 H   0  0  0  0  0  0  0  0  0  0  0  0
  1  2  1  0
  2  3  2  0
  3  4  1  0
  4  5  1  0
  5  6  1  0
  5  7  1  0
  5  8  1  0
  4  9  2  0
  9 10  1  0
 10 11  1  0
 10 12  2  0
 12 13  1  0
 13 14  2  0
 13 15  1  0
 15 16  1  0
 16 17  1  0
 17 18  2  0
 18 19  1  0
 19 20  1  0
 12 21  1  0
 21 22  1  0
 22 23  2  0
 23  2  1  0
 22  9  1  0
 20 16  2  0
  1 24  1  0
  1 25  1  0
  1 26  1  0
  3 27  1  0
 11 28  1  0
 11 29  1  0
 15 30  1  0
 17 31  1  0
 18 32  1  0
M  END
>  <Binding energies>  (1) 
[-6.48]

>  <Ligand effiencies>  (1) 
[-0.24923076923076926]

>  <Interactions>  (1) 
["V-A:ASP:366:CB:3208, V-A:ASP:366:CG:3209, V-A:HIS:456:CE1:4066, V-B:PRO:540:CA:9852, V-B:TYR:539:CZ:9846, V-B:ASN:362:C:8140, V-B:PRO:540:CB:9854, V-B:LEU:363:CD1:8157, V-B:LEU:363:CA:8153, V-B:ALA:541:CB:9861, H-B:GLU:543:OE2:9879, H-B:TYR:539:OH:9847, V-B:GLU:543:CD:9877, V-B:GLU:543:CG:9876, V-A:ARG:545:CZ:4923, V-A:ARG:545:CD:4920, V-B:TYR:539:CE2:9845, H-B:ALA:541:N:9860, V-A:ILE:369:CG1:3234, V-A:ILE:369:CB:3232, V-B:TYR:539:CD2:9843, H-B:LEU:363:N:8154, V-B:LEU:363:CB:8155, V-A:ILE:369:CG2:3233, V-A:GLY:454:CA:4045, H-A:TYR:484:OH:4344, V-A:ASP:366:CA:3206"]

$$$$
4bj_Grossjean_2025
     RDKit          3D

 32 34  0  0  0  0  0  0  0  0999 V2000
  133.6120  125.1250   65.2990 C   0  0  0  0  0  0  0  0  0  0  0  0
  132.9040  124.7010   64.0260 C   0  0  0  0  0  0  0  0  0  0  0  0
  133.6240  124.3770   62.8790 C   0  0  0  0  0  0  0  0  0  0  0  0
  132.9560  123.9920   61.7050 C   0  0  0  0  0  0  0  0  0  0  0  0
  133.7910  123.6470   60.4670 C   0  0  0  0  0  0  0  0  0  0  0  0
  133.4430  124.3550   59.3900 F   0  0  0  0  0  0  0  0  0  0  0  0
  135.0780  123.8940   60.7080 F   0  0  0  0  0  0  0  0  0  0  0  0
  133.6380  122.3580   60.1650 F   0  0  0  0  0  0  0  0  0  0  0  0
  131.5310  123.9480   61.7510 C   0  0  0  0  0  0  0  0  0  0  0  0
  130.5270  123.6130   60.7700 C   0  0  0  0  0  0  0  0  0  0  0  0
  130.8400  123.2440   59.4860 N   0  0  0  0  0  0  0  0  0  0  0  0
  129.2100  123.6910   61.2480 C   0  0  0  0  0  0  0  0  0  0  0  0
  127.9610  123.4310   60.5280 C   0  0  0  0  0  0  0  0  0  0  0  0
  127.9710  122.8830   59.4230 O   0  0  0  0  0  0  0  0  0  0  0  0
  126.8290  123.8180   61.1660 N   0  0  0  0  0  0  0  0  0  0  0  0
  125.5250  123.6780   60.7110 C   0  0  0  0  0  0  0  0  0  0  0  0
  124.4960  123.1660   61.3510 N   0  0  0  0  0  0  0  0  0  0  0  0
  123.4030  123.1970   60.6150 C   0  0  0  0  0  0  0  0  0  0  0  0
  123.5330  123.7450   59.3430 C   0  0  0  0  0  0  0  0  0  0  0  0
  125.1820  124.2400   59.1060 S   0  0  0  0  0  0  0  0  0  0  0  0
  129.1710  124.2070   62.9320 S   0  0  0  0  0  0  0  0  0  0  0  0
  130.9150  124.3000   62.9910 C   0  0  0  0  0  0  0  0  0  0  0  0
  131.5540  124.6680   64.1010 N   0  0  0  0  0  0  0  0  0  0  0  0
  133.0365  124.7804   66.1708 H   0  0  0  0  0  0  0  0  0  0  0  0
  134.6179  124.6805   65.3246 H   0  0  0  0  0  0  0  0  0  0  0  0
  133.6950  126.2216   65.3246 H   0  0  0  0  0  0  0  0  0  0  0  0
  134.7230  124.4229   62.8924 H   0  0  0  0  0  0  0  0  0  0  0  0
  131.7800  123.3090   59.1250 H   0  0  0  0  0  0  0  0  0  0  0  0
  130.1320  122.8980   58.8530 H   0  0  0  0  0  0  0  0  0  0  0  0
  126.9320  124.2500   62.0730 H   0  0  0  0  0  0  0  0  0  0  0  0
  122.4419  122.8112   60.9858 H   0  0  0  0  0  0  0  0  0  0  0  0
  122.7228  123.8483   58.6061 H   0  0  0  0  0  0  0  0  0  0  0  0
  1  2  1  0
  2  3  2  0
  3  4  1  0
  4  5  1  0
  5  6  1  0
  5  7  1  0
  5  8  1  0
  4  9  2  0
  9 10  1  0
 10 11  1  0
 10 12  2  0
 12 13  1  0
 13 14  2  0
 13 15  1  0
 15 16  1  0
 16 17  2  0
 17 18  1  0
 18 19  2  0
 19 20  1  0
 12 21  1  0
 21 22  1  0
 22 23  2  0
 23  2  1  0
 22  9  1  0
 20 16  1  0
  1 24  1  0
  1 25  1  0
  1 26  1  0
  3 27  1  0
 11 28  1  0
 11 29  1  0
 15 30  1  0
 18 31  1  0
 19 32  1  0
M  END
>  <Binding energies>  (1) 
[-6.31]

>  <Ligand effiencies>  (1) 
[-0.24269230769230768]

>  <Interactions>  (1) 
["V-A:ASP:366:CB:3208, V-A:ASP:366:CG:3209, V-A:HIS:456:CE1:4066, V-B:ASN:362:CB:8144, V-B:PRO:540:CA:9852, V-B:TYR:539:CZ:9846, V-B:ASN:362:C:8140, V-B:PRO:540:CB:9854, V-B:LEU:363:CD1:8157, V-B:LEU:363:CA:8153, V-B:ALA:541:CB:9861, H-B:GLU:543:OE2:9879, H-B:TYR:539:OH:9847, V-B:GLU:543:CD:9877, V-B:GLU:543:CG:9876, V-A:ARG:545:CZ:4923, V-A:ARG:545:CD:4920, V-B:TYR:539:CE2:9845, H-B:ALA:541:N:9860, V-A:ILE:369:CG1:3234, V-A:ILE:369:CB:3232, V-B:TYR:539:CD2:9843, V-B:LEU:363:CB:8155, V-A:ILE:369:CG2:3233, V-A:GLY:454:CA:4045, V-A:GLY:453:CA:4040, H-A:TYR:484:OH:4344, V-A:ASP:366:CA:3206, V-B:ASN:362:CA:8142"]

$$$$
4bk_Grossjean_2025
     RDKit          3D

 50 51  0  0  0  0  0  0  0  0999 V2000
  127.8900  122.5190   56.5130 C   0  0  0  0  0  0  0  0  0  0  0  0
  126.6430  121.9370   56.1640 O   0  0  0  0  0  0  0  0  0  0  0  0
  125.6350  122.8950   55.8700 C   0  0  0  0  0  0  0  0  0  0  0  0
  124.9140  123.2930   57.1640 C   0  0  0  0  0  0  0  0  0  0  0  0
  124.6940  124.6970   57.1700 O   0  0  0  0  0  0  0  0  0  0  0  0
  125.7470  125.4410   57.7690 C   0  0  0  0  0  0  0  0  0  0  0  0
  125.3410  125.8430   59.1930 C   0  0  0  0  0  0  0  0  0  0  0  0
  124.0750  125.2760   59.4980 O   0  0  0  0  0  0  0  0  0  0  0  0
  124.0930  124.3990   60.6190 C   0  0  0  0  0  0  0  0  0  0  0  0
  125.1100  123.2730   60.3690 C   0  0  0  0  0  0  0  0  0  0  0  0
  126.4330  123.5390   60.9370 N   0  0  0  0  0  0  0  0  0  0  0  0
  127.5980  123.0560   60.4580 C   0  0  0  0  0  0  0  0  0  0  0  0
  127.6550  122.3420   59.4560 O   0  0  0  0  0  0  0  0  0  0  0  0
  128.8040  123.4390   61.1950 C   0  0  0  0  0  0  0  0  0  0  0  0
  128.6870  123.9570   62.8740 S   0  0  0  0  0  0  0  0  0  0  0  0
  130.4180  124.1710   62.9740 C   0  0  0  0  0  0  0  0  0  0  0  0
  131.0040  124.5890   64.0960 N   0  0  0  0  0  0  0  0  0  0  0  0
  132.3510  124.7160   64.0520 C   0  0  0  0  0  0  0  0  0  0  0  0
  132.9960  125.1910   65.3420 C   0  0  0  0  0  0  0  0  0  0  0  0
  133.1180  124.4360   62.9250 C   0  0  0  0  0  0  0  0  0  0  0  0
  132.5080  123.9970   61.7390 C   0  0  0  0  0  0  0  0  0  0  0  0
  133.3940  123.7060   60.5240 C   0  0  0  0  0  0  0  0  0  0  0  0
  133.3290  122.4350   60.1230 F   0  0  0  0  0  0  0  0  0  0  0  0
  133.0160  124.4690   59.4980 F   0  0  0  0  0  0  0  0  0  0  0  0
  134.6660  123.9670   60.8200 F   0  0  0  0  0  0  0  0  0  0  0  0
  131.0880  123.8520   61.7520 C   0  0  0  0  0  0  0  0  0  0  0  0
  130.1360  123.4320   60.7540 C   0  0  0  0  0  0  0  0  0  0  0  0
  130.5050  123.0610   59.4860 N   0  0  0  0  0  0  0  0  0  0  0  0
  127.9810  122.5615   57.6084 H   0  0  0  0  0  0  0  0  0  0  0  0
  128.7074  121.9094   56.1005 H   0  0  0  0  0  0  0  0  0  0  0  0
  127.9477  123.5371   56.1005 H   0  0  0  0  0  0  0  0  0  0  0  0
  126.0963  123.7857   55.4186 H   0  0  0  0  0  0  0  0  0  0  0  0
  124.9105  122.4602   55.1657 H   0  0  0  0  0  0  0  0  0  0  0  0
  123.9480  122.7701   57.2214 H   0  0  0  0  0  0  0  0  0  0  0  0
  125.5331  123.0147   58.0296 H   0  0  0  0  0  0  0  0  0  0  0  0
  126.6568  124.8239   57.8072 H   0  0  0  0  0  0  0  0  0  0  0  0
  125.9429  126.3450   57.1738 H   0  0  0  0  0  0  0  0  0  0  0  0
  126.0911  125.4727   59.9073 H   0  0  0  0  0  0  0  0  0  0  0  0
  125.2804  126.9391   59.2633 H   0  0  0  0  0  0  0  0  0  0  0  0
  124.3810  124.9606   61.5199 H   0  0  0  0  0  0  0  0  0  0  0  0
  123.0923  123.9656   60.7631 H   0  0  0  0  0  0  0  0  0  0  0  0
  124.7198  122.3468   60.8161 H   0  0  0  0  0  0  0  0  0  0  0  0
  125.2381  123.1911   59.2796 H   0  0  0  0  0  0  0  0  0  0  0  0
  126.4540  124.1200   61.7620 H   0  0  0  0  0  0  0  0  0  0  0  0
  132.4423  124.7832   66.2006 H   0  0  0  0  0  0  0  0  0  0  0  0
  134.0391  124.8437   65.3800 H   0  0  0  0  0  0  0  0  0  0  0  0
  132.9739  126.2901   65.3800 H   0  0  0  0  0  0  0  0  0  0  0  0
  134.2104  124.5595   62.9637 H   0  0  0  0  0  0  0  0  0  0  0  0
  129.8570  122.6180   58.8480 H   0  0  0  0  0  0  0  0  0  0  0  0
  131.4410  123.2250   59.1420 H   0  0  0  0  0  0  0  0  0  0  0  0
  1  2  1  0
  2  3  1  0
  3  4  1  0
  4  5  1  0
  5  6  1  0
  6  7  1  0
  7  8  1  0
  8  9  1  0
  9 10  1  0
 10 11  1  0
 11 12  1  0
 12 13  2  0
 12 14  1  0
 14 15  1  0
 15 16  1  0
 16 17  2  0
 17 18  1  0
 18 19  1  0
 18 20  2  0
 20 21  1  0
 21 22  1  0
 22 23  1  0
 22 24  1  0
 22 25  1  0
 21 26  2  0
 26 27  1  0
 27 28  1  0
 27 14  2  0
 26 16  1  0
  1 29  1  0
  1 30  1  0
  1 31  1  0
  3 32  1  0
  3 33  1  0
  4 34  1  0
  4 35  1  0
  6 36  1  0
  6 37  1  0
  7 38  1  0
  7 39  1  0
  9 40  1  0
  9 41  1  0
 10 42  1  0
 10 43  1  0
 11 44  1  0
 19 45  1  0
 19 46  1  0
 19 47  1  0
 20 48  1  0
 28 49  1  0
 28 50  1  0
M  END
>  <Binding energies>  (1) 
[-5.74]

>  <Ligand effiencies>  (1) 
[-0.18516129032258066]

>  <Interactions>  (1) 
["V-A:ASP:366:CB:3208, V-A:ASP:366:CG:3209, V-A:HIS:456:CE1:4066, V-B:ASP:366:CB:8180, V-B:ASN:362:CB:8144, V-B:TYR:539:CE1:9844, V-B:PRO:540:CA:9852, V-B:TYR:539:CZ:9846, V-B:ASN:362:C:8140, V-B:PRO:540:C:9850, V-B:PRO:540:CB:9854, V-B:ASP:366:CG:8181, H-B:TYR:539:N:9839, V-B:LEU:363:CD1:8157, H-B:TYR:531:OH:9764, V-B:ALA:541:CB:9861, H-B:GLU:543:OE2:9879, H-B:TYR:539:OH:9847, V-B:GLU:543:CD:9877, V-B:GLU:543:CG:9876, V-A:ARG:545:CZ:4923, V-B:TYR:539:CE2:9845, V-B:ILE:538:CG2:9832, V-B:ILE:538:CB:9831, V-A:ILE:369:CG1:3234, V-A:ILE:369:CB:3232, V-B:TYR:539:CD2:9843, V-B:TYR:539:CD1:9842, V-A:ILE:369:CG2:3233, V-A:ASP:366:CA:3206"]

$$$$
4ca_Grossjean_2025
     RDKit          3D

 52 55  0  0  0  0  0  0  0  0999 V2000
  124.9200  123.8790   56.4610 C   0  0  0  0  0  0  0  0  0  0  0  0
  125.0860  122.5210   55.7720 C   0  0  0  0  0  0  0  0  0  0  0  0
  126.0560  121.7520   56.4700 O   0  0  0  0  0  0  0  0  0  0  0  0
  127.3520  122.1540   56.5420 C   0  0  0  0  0  0  0  0  0  0  0  0
  128.1780  121.9490   55.6460 O   0  0  0  0  0  0  0  0  0  0  0  0
  127.6790  122.8770   57.8160 C   0  0  0  0  0  0  0  0  0  0  0  0
  126.7480  122.8710   58.8640 C   0  0  0  0  0  0  0  0  0  0  0  0
  127.0250  123.5290   60.0590 C   0  0  0  0  0  0  0  0  0  0  0  0
  128.2290  124.2100   60.2300 C   0  0  0  0  0  0  0  0  0  0  0  0
  128.4090  124.8320   61.4810 N   0  0  0  0  0  0  0  0  0  0  0  0
  129.5200  125.3800   62.0320 C   0  0  0  0  0  0  0  0  0  0  0  0
  130.6060  125.4640   61.4590 O   0  0  0  0  0  0  0  0  0  0  0  0
  129.3500  125.9060   63.3890 C   0  0  0  0  0  0  0  0  0  0  0  0
  129.9190  124.9790   64.7750 S   0  0  0  0  0  0  0  0  0  0  0  0
  129.4130  126.2350   65.8790 C   0  0  0  0  0  0  0  0  0  0  0  0
  129.5910  126.1170   67.1930 N   0  0  0  0  0  0  0  0  0  0  0  0
  129.1800  127.1520   67.9710 C   0  0  0  0  0  0  0  0  0  0  0  0
  129.4030  126.9930   69.4470 C   0  0  0  0  0  0  0  0  0  0  0  0
  128.6360  126.0870   70.1970 C   0  0  0  0  0  0  0  0  0  0  0  0
  128.8350  125.9390   71.5680 C   0  0  0  0  0  0  0  0  0  0  0  0
  129.8070  126.6990   72.2100 C   0  0  0  0  0  0  0  0  0  0  0  0
  130.5790  127.6050   71.4920 C   0  0  0  0  0  0  0  0  0  0  0  0
  130.3770  127.7500   70.1220 C   0  0  0  0  0  0  0  0  0  0  0  0
  128.5710  128.2880   67.4280 C   0  0  0  0  0  0  0  0  0  0  0  0
  128.3750  128.4210   66.0450 C   0  0  0  0  0  0  0  0  0  0  0  0
  127.7050  129.6950   65.5180 C   0  0  0  0  0  0  0  0  0  0  0  0
  127.8310  130.7340   66.3460 F   0  0  0  0  0  0  0  0  0  0  0  0
  128.2520  130.0440   64.3540 F   0  0  0  0  0  0  0  0  0  0  0  0
  126.4010  129.4800   65.3450 F   0  0  0  0  0  0  0  0  0  0  0  0
  128.8190  127.3490   65.2180 C   0  0  0  0  0  0  0  0  0  0  0  0
  128.7980  127.1340   63.7920 C   0  0  0  0  0  0  0  0  0  0  0  0
  128.2820  128.0500   62.9120 N   0  0  0  0  0  0  0  0  0  0  0  0
  129.1690  124.2170   59.1890 C   0  0  0  0  0  0  0  0  0  0  0  0
  128.8930  123.5570   57.9950 C   0  0  0  0  0  0  0  0  0  0  0  0
  124.9369  123.7410   57.5522 H   0  0  0  0  0  0  0  0  0  0  0  0
  125.7435  124.5446   56.1628 H   0  0  0  0  0  0  0  0  0  0  0  0
  123.9605  124.3266   56.1628 H   0  0  0  0  0  0  0  0  0  0  0  0
  124.1238  121.9880   55.7752 H   0  0  0  0  0  0  0  0  0  0  0  0
  125.4165  122.6740   54.7340 H   0  0  0  0  0  0  0  0  0  0  0  0
  125.7913  122.3423   58.7411 H   0  0  0  0  0  0  0  0  0  0  0  0
  126.2876  123.5114   60.8751 H   0  0  0  0  0  0  0  0  0  0  0  0
  127.5700  124.8810   62.0410 H   0  0  0  0  0  0  0  0  0  0  0  0
  127.8655  125.4843   69.6939 H   0  0  0  0  0  0  0  0  0  0  0  0
  128.2258  125.2240   72.1404 H   0  0  0  0  0  0  0  0  0  0  0  0
  129.9658  126.5824   73.2922 H   0  0  0  0  0  0  0  0  0  0  0  0
  131.3460  128.2047   72.0039 H   0  0  0  0  0  0  0  0  0  0  0  0
  130.9897  128.4689   69.5582 H   0  0  0  0  0  0  0  0  0  0  0  0
  128.2388  129.0938   68.0990 H   0  0  0  0  0  0  0  0  0  0  0  0
  127.3540  127.9530   62.5220 H   0  0  0  0  0  0  0  0  0  0  0  0
  128.8130  128.8600   62.6220 H   0  0  0  0  0  0  0  0  0  0  0  0
  130.1257  124.7448   59.3164 H   0  0  0  0  0  0  0  0  0  0  0  0
  129.6348  123.5687   57.1829 H   0  0  0  0  0  0  0  0  0  0  0  0
  1  2  1  0
  2  3  1  0
  3  4  1  0
  4  5  2  0
  4  6  1  0
  6  7  2  0
  7  8  1  0
  8  9  2  0
  9 10  1  0
 10 11  1  0
 11 12  2  0
 11 13  1  0
 13 14  1  0
 14 15  1  0
 15 16  2  0
 16 17  1  0
 17 18  1  0
 18 19  2  0
 19 20  1  0
 20 21  2  0
 21 22  1  0
 22 23  2  0
 17 24  2  0
 24 25  1  0
 25 26  1  0
 26 27  1  0
 26 28  1  0
 26 29  1  0
 25 30  2  0
 30 31  1  0
 31 32  1  0
  9 33  1  0
 33 34  2  0
 34  6  1  0
 31 13  2  0
 30 15  1  0
 23 18  1  0
  1 35  1  0
  1 36  1  0
  1 37  1  0
  2 38  1  0
  2 39  1  0
  7 40  1  0
  8 41  1  0
 10 42  1  0
 19 43  1  0
 20 44  1  0
 21 45  1  0
 22 46  1  0
 23 47  1  0
 24 48  1  0
 32 49  1  0
 32 50  1  0
 33 51  1  0
 34 52  1  0
M  END
>  <Binding energies>  (1) 
[-8.49]

>  <Ligand effiencies>  (1) 
[-0.22945945945945947]

>  <Interactions>  (1) 
["H-A:GLU:543:OE2:4907, V-A:GLU:543:CD:4905, V-B:LYS:547:CE:9919, V-A:GLY:544:C:4909, V-A:HIS:456:CE1:4066, V-A:GLU:543:CB:4903, V-A:HIS:456:CD2:4064, V-B:GLU:543:CB:9875, V-B:HIS:456:CE1:9038, V-B:TYR:539:CE1:9844, V-B:PRO:540:CA:9852, V-B:TYR:539:CZ:9846, V-B:PRO:540:N:9853, V-B:PRO:540:CB:9854, H-B:TYR:539:N:9839, V-B:LEU:363:CD1:8157, H-B:GLU:543:OE2:9879, H-B:GLU:543:OE1:9878, V-B:GLU:543:CD:9877, V-B:GLU:543:CG:9876, V-B:TYR:539:CE2:9845, V-A:GLU:543:CG:4904, V-B:ILE:538:CG2:9832, V-B:ILE:538:CB:9831, V-B:PRO:540:CD:9856, V-B:TYR:539:C:9836, V-B:TYR:539:CD1:9842, V-B:TYR:484:CE1:9313, V-B:TYR:539:CA:9838, V-B:TYR:484:CZ:9315, V-A:GLU:543:CA:4901, V-B:ILE:538:CD1:9834"]

$$$$
4cb_Grossjean_2025
     RDKit          3D

 49 52  0  0  0  0  0  0  0  0999 V2000
  125.0860  122.6280   55.7970 C   0  0  0  0  0  0  0  0  0  0  0  0
  126.0750  121.7410   56.3020 O   0  0  0  0  0  0  0  0  0  0  0  0
  127.3630  122.1420   56.4530 C   0  0  0  0  0  0  0  0  0  0  0  0
  128.2220  122.0220   55.5740 O   0  0  0  0  0  0  0  0  0  0  0  0
  127.6400  122.7510   57.7980 C   0  0  0  0  0  0  0  0  0  0  0  0
  127.3040  124.0920   58.0250 C   0  0  0  0  0  0  0  0  0  0  0  0
  127.5410  124.6820   59.2640 C   0  0  0  0  0  0  0  0  0  0  0  0
  128.1250  123.9470   60.2970 C   0  0  0  0  0  0  0  0  0  0  0  0
  128.3060  124.6390   61.5100 N   0  0  0  0  0  0  0  0  0  0  0  0
  129.3250  125.4330   61.9180 C   0  0  0  0  0  0  0  0  0  0  0  0
  130.2950  125.7290   61.2180 O   0  0  0  0  0  0  0  0  0  0  0  0
  129.2010  125.9600   63.2800 C   0  0  0  0  0  0  0  0  0  0  0  0
  129.7580  125.0080   64.6540 S   0  0  0  0  0  0  0  0  0  0  0  0
  129.3210  126.2780   65.7710 C   0  0  0  0  0  0  0  0  0  0  0  0
  129.5160  126.1500   67.0810 N   0  0  0  0  0  0  0  0  0  0  0  0
  129.1540  127.1950   67.8690 C   0  0  0  0  0  0  0  0  0  0  0  0
  129.3910  127.0230   69.3420 C   0  0  0  0  0  0  0  0  0  0  0  0
  130.4230  127.7210   69.9890 C   0  0  0  0  0  0  0  0  0  0  0  0
  130.6510  127.5630   71.3540 C   0  0  0  0  0  0  0  0  0  0  0  0
  129.8480  126.7010   72.0930 C   0  0  0  0  0  0  0  0  0  0  0  0
  128.8200  125.9940   71.4750 C   0  0  0  0  0  0  0  0  0  0  0  0
  128.5970  126.1550   70.1110 C   0  0  0  0  0  0  0  0  0  0  0  0
  128.5780  128.3550   67.3400 C   0  0  0  0  0  0  0  0  0  0  0  0
  128.3650  128.4990   65.9600 C   0  0  0  0  0  0  0  0  0  0  0  0
  127.7320  129.7990   65.4470 C   0  0  0  0  0  0  0  0  0  0  0  0
  128.2510  130.2110   64.2880 F   0  0  0  0  0  0  0  0  0  0  0  0
  126.4250  129.6170   65.2560 F   0  0  0  0  0  0  0  0  0  0  0  0
  127.9160  130.7730   66.3360 F   0  0  0  0  0  0  0  0  0  0  0  0
  128.7560  127.4150   65.1230 C   0  0  0  0  0  0  0  0  0  0  0  0
  128.7050  127.2070   63.6960 C   0  0  0  0  0  0  0  0  0  0  0  0
  128.2120  128.1470   62.8270 N   0  0  0  0  0  0  0  0  0  0  0  0
  128.4620  122.6030   60.0790 C   0  0  0  0  0  0  0  0  0  0  0  0
  128.2230  122.0150   58.8410 C   0  0  0  0  0  0  0  0  0  0  0  0
  124.5565  123.1029   56.6361 H   0  0  0  0  0  0  0  0  0  0  0  0
  125.5677  123.4024   55.1820 H   0  0  0  0  0  0  0  0  0  0  0  0
  124.3683  122.0652   55.1820 H   0  0  0  0  0  0  0  0  0  0  0  0
  126.8489  124.6842   57.2174 H   0  0  0  0  0  0  0  0  0  0  0  0
  127.2662  125.7341   59.4297 H   0  0  0  0  0  0  0  0  0  0  0  0
  127.5480  124.5230   62.1670 H   0  0  0  0  0  0  0  0  0  0  0  0
  131.0616  128.4034   69.4089 H   0  0  0  0  0  0  0  0  0  0  0  0
  131.4634  128.1181   71.8457 H   0  0  0  0  0  0  0  0  0  0  0  0
  130.0259  126.5771   73.1714 H   0  0  0  0  0  0  0  0  0  0  0  0
  128.1875  125.3118   72.0619 H   0  0  0  0  0  0  0  0  0  0  0  0
  127.7851  125.5931   69.6261 H   0  0  0  0  0  0  0  0  0  0  0  0
  128.2863  129.1701   68.0187 H   0  0  0  0  0  0  0  0  0  0  0  0
  128.7470  128.9630   62.5640 H   0  0  0  0  0  0  0  0  0  0  0  0
  127.2940  128.0530   62.4160 H   0  0  0  0  0  0  0  0  0  0  0  0
  128.9162  122.0127   60.8885 H   0  0  0  0  0  0  0  0  0  0  0  0
  128.4940  120.9615   58.6779 H   0  0  0  0  0  0  0  0  0  0  0  0
  1  2  1  0
  2  3  1  0
  3  4  2  0
  3  5  1  0
  5  6  2  0
  6  7  1  0
  7  8  2  0
  8  9  1  0
  9 10  1  0
 10 11  2  0
 10 12  1  0
 12 13  1  0
 13 14  1  0
 14 15  2  0
 15 16  1  0
 16 17  1  0
 17 18  2  0
 18 19  1  0
 19 20  2  0
 20 21  1  0
 21 22  2  0
 16 23  2  0
 23 24  1  0
 24 25  1  0
 25 26  1  0
 25 27  1  0
 25 28  1  0
 24 29  2  0
 29 30  1  0
 30 31  1  0
  8 32  1  0
 32 33  2  0
 33  5  1  0
 30 12  2  0
 29 14  1  0
 22 17  1  0
  1 34  1  0
  1 35  1  0
  1 36  1  0
  6 37  1  0
  7 38  1  0
  9 39  1  0
 18 40  1  0
 19 41  1  0
 20 42  1  0
 21 43  1  0
 22 44  1  0
 23 45  1  0
 31 46  1  0
 31 47  1  0
 32 48  1  0
 33 49  1  0
M  END
>  <Binding energies>  (1) 
[-8.4]

>  <Ligand effiencies>  (1) 
[-0.23333333333333334]

>  <Interactions>  (1) 
["H-A:GLU:543:OE2:4907, V-A:GLU:543:CD:4905, V-B:LYS:547:CE:9919, V-A:GLY:544:C:4909, V-A:HIS:456:CE1:4066, V-A:GLU:543:CB:4903, V-A:HIS:456:CD2:4064, V-B:GLU:543:CB:9875, V-B:HIS:456:CE1:9038, V-B:TYR:539:CE1:9844, V-B:PRO:540:CA:9852, V-B:TYR:539:CZ:9846, H-B:ASP:366:OD1:8182, V-B:PRO:540:N:9853, V-B:PRO:540:CB:9854, H-B:TYR:539:N:9839, V-B:LEU:363:CD1:8157, V-B:ALA:541:CB:9861, H-B:GLU:543:OE2:9879, V-B:GLU:543:CD:9877, V-B:GLU:543:CG:9876, V-B:TYR:539:CE2:9845, V-A:GLU:543:CG:4904, V-B:ILE:538:CG2:9832, V-B:ILE:538:CB:9831, V-B:PRO:540:CD:9856, V-B:TYR:539:C:9836, V-B:TYR:539:CD2:9843, V-B:ILE:538:CA:9829, V-B:TYR:539:CD1:9842, V-B:TYR:539:CG:9841, V-B:TYR:484:CE1:9313, V-B:TYR:539:CA:9838, V-B:TYR:484:CZ:9315, V-A:GLU:543:CA:4901"]

$$$$
4cc_Grossjean_2025
     RDKit          3D

 47 50  0  0  0  0  0  0  0  0999 V2000
  127.3590  122.4630   55.3290 C   0  0  0  0  0  0  0  0  0  0  0  0
  126.9950  121.7840   56.5260 O   0  0  0  0  0  0  0  0  0  0  0  0
  127.3440  122.3320   57.7450 C   0  0  0  0  0  0  0  0  0  0  0  0
  126.7310  123.5370   58.0840 C   0  0  0  0  0  0  0  0  0  0  0  0
  127.0200  124.1640   59.2940 C   0  0  0  0  0  0  0  0  0  0  0  0
  127.9370  123.5950   60.1790 C   0  0  0  0  0  0  0  0  0  0  0  0
  128.1530  124.2920   61.3830 N   0  0  0  0  0  0  0  0  0  0  0  0
  129.3170  124.7220   61.9270 C   0  0  0  0  0  0  0  0  0  0  0  0
  130.4180  124.5870   61.3920 O   0  0  0  0  0  0  0  0  0  0  0  0
  129.1960  125.3800   63.2320 C   0  0  0  0  0  0  0  0  0  0  0  0
  129.8160  124.5950   64.6830 S   0  0  0  0  0  0  0  0  0  0  0  0
  129.3140  125.9410   65.6790 C   0  0  0  0  0  0  0  0  0  0  0  0
  129.5240  125.9490   66.9930 N   0  0  0  0  0  0  0  0  0  0  0  0
  129.1090  127.0430   67.6820 C   0  0  0  0  0  0  0  0  0  0  0  0
  129.3560  127.0220   69.1630 C   0  0  0  0  0  0  0  0  0  0  0  0
  128.5410  126.2590   70.0160 C   0  0  0  0  0  0  0  0  0  0  0  0
  128.7640  126.2370   71.3910 C   0  0  0  0  0  0  0  0  0  0  0  0
  129.8060  126.9790   71.9340 C   0  0  0  0  0  0  0  0  0  0  0  0
  130.6260  127.7460   71.1120 C   0  0  0  0  0  0  0  0  0  0  0  0
  130.4000  127.7670   69.7380 C   0  0  0  0  0  0  0  0  0  0  0  0
  128.4700  128.1150   67.0520 C   0  0  0  0  0  0  0  0  0  0  0  0
  128.2420  128.1160   65.6660 C   0  0  0  0  0  0  0  0  0  0  0  0
  127.5420  129.3270   65.0400 C   0  0  0  0  0  0  0  0  0  0  0  0
  128.0740  129.6940   63.8710 F   0  0  0  0  0  0  0  0  0  0  0  0
  126.2580  129.0440   64.8220 F   0  0  0  0  0  0  0  0  0  0  0  0
  127.6270  130.3730   65.8620 F   0  0  0  0  0  0  0  0  0  0  0  0
  128.6820  126.9780   64.9320 C   0  0  0  0  0  0  0  0  0  0  0  0
  128.6250  126.6260   63.5340 C   0  0  0  0  0  0  0  0  0  0  0  0
  128.0630  127.4440   62.5870 N   0  0  0  0  0  0  0  0  0  0  0  0
  128.5490  122.3760   59.8500 C   0  0  0  0  0  0  0  0  0  0  0  0
  128.2570  121.7530   58.6410 C   0  0  0  0  0  0  0  0  0  0  0  0
  127.8648  123.4065   55.5820 H   0  0  0  0  0  0  0  0  0  0  0  0
  128.0383  121.8292   54.7400 H   0  0  0  0  0  0  0  0  0  0  0  0
  126.4552  122.6779   54.7400 H   0  0  0  0  0  0  0  0  0  0  0  0
  126.0124  123.9971   57.3898 H   0  0  0  0  0  0  0  0  0  0  0  0
  126.5237  125.1109   59.5528 H   0  0  0  0  0  0  0  0  0  0  0  0
  127.3110  124.5230   61.8890 H   0  0  0  0  0  0  0  0  0  0  0  0
  127.7144  125.6701   69.5918 H   0  0  0  0  0  0  0  0  0  0  0  0
  128.1171  125.6340   72.0451 H   0  0  0  0  0  0  0  0  0  0  0  0
  129.9835  126.9599   73.0194 H   0  0  0  0  0  0  0  0  0  0  0  0
  131.4490  128.3331   71.5456 H   0  0  0  0  0  0  0  0  0  0  0  0
  131.0491  128.3766   69.0922 H   0  0  0  0  0  0  0  0  0  0  0  0
  128.1393  128.9746   67.6535 H   0  0  0  0  0  0  0  0  0  0  0  0
  128.5110  128.2980   62.2840 H   0  0  0  0  0  0  0  0  0  0  0  0
  127.1750  127.2200   62.1600 H   0  0  0  0  0  0  0  0  0  0  0  0
  129.2606  121.9124   60.5490 H   0  0  0  0  0  0  0  0  0  0  0  0
  128.7445  120.8007   58.3853 H   0  0  0  0  0  0  0  0  0  0  0  0
  1  2  1  0
  2  3  1  0
  3  4  2  0
  4  5  1  0
  5  6  2  0
  6  7  1  0
  7  8  1  0
  8  9  2  0
  8 10  1  0
 10 11  1  0
 11 12  1  0
 12 13  2  0
 13 14  1  0
 14 15  1  0
 15 16  2  0
 16 17  1  0
 17 18  2  0
 18 19  1  0
 19 20  2  0
 14 21  2  0
 21 22  1  0
 22 23  1  0
 23 24  1  0
 23 25  1  0
 23 26  1  0
 22 27  2  0
 27 28  1  0
 28 29  1  0
  6 30  1  0
 30 31  2  0
 31  3  1  0
 28 10  2  0
 27 12  1  0
 20 15  1  0
  1 32  1  0
  1 33  1  0
  1 34  1  0
  4 35  1  0
  5 36  1  0
  7 37  1  0
 16 38  1  0
 17 39  1  0
 18 40  1  0
 19 41  1  0
 20 42  1  0
 21 43  1  0
 29 44  1  0
 29 45  1  0
 30 46  1  0
 31 47  1  0
M  END
>  <Binding energies>  (1) 
[-7.81]

>  <Ligand effiencies>  (1) 
[-0.22970588235294118]

>  <Interactions>  (1) 
["H-A:GLU:543:OE2:4907, V-A:GLU:543:CD:4905, V-A:GLY:544:C:4909, V-A:HIS:456:CE1:4066, V-A:GLU:543:C:4899, V-A:GLU:543:CB:4903, V-A:HIS:456:CD2:4064, V-B:GLU:543:CB:9875, V-B:HIS:456:CE1:9038, V-B:TYR:539:CE1:9844, V-B:MET:535:CE:9804, V-B:PRO:540:CA:9852, V-B:TYR:539:CZ:9846, H-B:ASP:366:OD1:8182, V-B:PRO:540:N:9853, H-B:TYR:539:N:9839, H-B:GLU:543:OE2:9879, H-B:GLU:543:OE1:9878, V-B:GLU:543:CD:9877, V-B:GLU:543:CG:9876, V-B:TYR:539:CE2:9845, V-A:GLU:543:CG:4904, V-B:ILE:538:CG2:9832, V-B:ILE:538:CB:9831, V-B:TYR:539:C:9836, V-B:TYR:539:CD2:9843, V-B:ILE:538:CA:9829, V-B:TYR:539:CD1:9842, V-B:TYR:539:CG:9841, V-B:TYR:484:CE1:9313, V-B:TYR:539:CA:9838, V-B:TYR:484:CZ:9315"]

$$$$
4cd_Grossjean_2025
     RDKit          3D

 43 46  0  0  0  0  0  0  0  0999 V2000
  130.9990  122.3040   64.1030 N   0  0  0  0  0  0  0  0  0  0  0  0
  130.2350  123.2050   63.4040 C   0  0  0  0  0  0  0  0  0  0  0  0
  130.0130  124.5230   63.8350 C   0  0  0  0  0  0  0  0  0  0  0  0
  130.4990  125.1800   65.0520 C   0  0  0  0  0  0  0  0  0  0  0  0
  131.6880  125.1220   65.3660 O   0  0  0  0  0  0  0  0  0  0  0  0
  129.5570  125.8390   65.7700 N   0  0  0  0  0  0  0  0  0  0  0  0
  129.6780  126.5210   66.9960 C   0  0  0  0  0  0  0  0  0  0  0  0
  128.7730  126.1500   67.9940 C   0  0  0  0  0  0  0  0  0  0  0  0
  128.8220  126.7570   69.2460 C   0  0  0  0  0  0  0  0  0  0  0  0
  129.7820  127.7320   69.5040 C   0  0  0  0  0  0  0  0  0  0  0  0
  130.6980  128.1010   68.5230 C   0  0  0  0  0  0  0  0  0  0  0  0
  130.6530  127.4960   67.2690 C   0  0  0  0  0  0  0  0  0  0  0  0
  128.9980  125.4020   62.6940 S   0  0  0  0  0  0  0  0  0  0  0  0
  128.8710  124.0010   61.6580 C   0  0  0  0  0  0  0  0  0  0  0  0
  128.1650  124.0320   60.5290 N   0  0  0  0  0  0  0  0  0  0  0  0
  128.1140  122.8890   59.7970 C   0  0  0  0  0  0  0  0  0  0  0  0
  127.3080  122.9550   58.5320 C   0  0  0  0  0  0  0  0  0  0  0  0
  127.8250  122.4590   57.3240 C   0  0  0  0  0  0  0  0  0  0  0  0
  127.0830  122.5160   56.1470 C   0  0  0  0  0  0  0  0  0  0  0  0
  125.8080  123.0720   56.1620 C   0  0  0  0  0  0  0  0  0  0  0  0
  125.2710  123.5670   57.3450 C   0  0  0  0  0  0  0  0  0  0  0  0
  126.0150  123.5060   58.5190 C   0  0  0  0  0  0  0  0  0  0  0  0
  128.7860  121.7280   60.1890 C   0  0  0  0  0  0  0  0  0  0  0  0
  129.5370  121.6860   61.3750 C   0  0  0  0  0  0  0  0  0  0  0  0
  130.2460  120.3780   61.7480 C   0  0  0  0  0  0  0  0  0  0  0  0
  130.1030  120.0530   63.0350 F   0  0  0  0  0  0  0  0  0  0  0  0
  129.7520  119.3740   61.0240 F   0  0  0  0  0  0  0  0  0  0  0  0
  131.5530  120.4910   61.5090 F   0  0  0  0  0  0  0  0  0  0  0  0
  129.5880  122.8740   62.1580 C   0  0  0  0  0  0  0  0  0  0  0  0
  131.3580  122.5100   65.0240 H   0  0  0  0  0  0  0  0  0  0  0  0
  131.2270  121.3980   63.7180 H   0  0  0  0  0  0  0  0  0  0  0  0
  128.6300  125.8650   65.3710 H   0  0  0  0  0  0  0  0  0  0  0  0
  128.0191  125.3755   67.7897 H   0  0  0  0  0  0  0  0  0  0  0  0
  128.1050  126.4674   70.0284 H   0  0  0  0  0  0  0  0  0  0  0  0
  129.8168  128.2149   70.4917 H   0  0  0  0  0  0  0  0  0  0  0  0
  131.4559  128.8688   68.7376 H   0  0  0  0  0  0  0  0  0  0  0  0
  131.3794  127.7808   66.4936 H   0  0  0  0  0  0  0  0  0  0  0  0
  128.8327  122.0182   57.3074 H   0  0  0  0  0  0  0  0  0  0  0  0
  127.5033  122.1231   55.2095 H   0  0  0  0  0  0  0  0  0  0  0  0
  125.2214  123.1203   55.2327 H   0  0  0  0  0  0  0  0  0  0  0  0
  124.2620  124.0051   57.3527 H   0  0  0  0  0  0  0  0  0  0  0  0
  125.5840  123.8956   59.4530 H   0  0  0  0  0  0  0  0  0  0  0  0
  128.7256  120.8300   59.5566 H   0  0  0  0  0  0  0  0  0  0  0  0
  1  2  1  0
  2  3  2  0
  3  4  1  0
  4  5  2  0
  4  6  1  0
  6  7  1  0
  7  8  2  0
  8  9  1  0
  9 10  2  0
 10 11  1  0
 11 12  2  0
  3 13  1  0
 13 14  1  0
 14 15  2  0
 15 16  1  0
 16 17  1  0
 17 18  2  0
 18 19  1  0
 19 20  2  0
 20 21  1  0
 21 22  2  0
 16 23  2  0
 23 24  1  0
 24 25  1  0
 25 26  1  0
 25 27  1  0
 25 28  1  0
 24 29  2  0
 29  2  1  0
 12  7  1  0
 29 14  1  0
 22 17  1  0
  1 30  1  0
  1 31  1  0
  6 32  1  0
  8 33  1  0
  9 34  1  0
 10 35  1  0
 11 36  1  0
 12 37  1  0
 18 38  1  0
 19 39  1  0
 20 40  1  0
 21 41  1  0
 22 42  1  0
 23 43  1  0
M  END
>  <Binding energies>  (1) 
[-7.77]

>  <Ligand effiencies>  (1) 
[-0.2428125]

>  <Interactions>  (1) 
["V-A:GLU:543:CD:4905, V-A:HIS:456:CE1:4066, V-A:GLU:543:C:4899, V-A:GLU:543:CB:4903, V-B:GLU:543:CB:9875, V-B:HIS:456:CE1:9038, V-B:TYR:539:CE1:9844, V-B:PRO:540:CA:9852, V-B:TYR:539:CZ:9846, V-B:PRO:540:N:9853, V-B:PRO:540:CB:9854, V-B:LEU:363:CD1:8157, V-B:ALA:541:CB:9861, H-B:GLU:543:OE2:9879, H-B:GLU:543:OE1:9878, V-B:GLU:543:CD:9877, V-B:GLU:543:CG:9876, V-A:TYR:484:CZ:4343, V-B:TYR:539:CE2:9845, V-A:TYR:484:CE1:4341, V-B:ILE:538:CG2:9832, V-B:ILE:538:CB:9831, V-A:LEU:475:CD1:4254, V-B:TYR:539:C:9836, V-B:TYR:539:CD2:9843, V-B:ILE:538:CA:9829, V-B:TYR:539:CD1:9842, V-B:TYR:539:CG:9841, H-A:TYR:484:OH:4344, V-A:PRO:482:CG:4323, V-A:LEU:475:CD2:4255, V-A:LEU:475:CG:4253, V-A:PRO:482:CB:4322"]

$$$$
4ce_Grossjean_2025
     RDKit          3D

 45 48  0  0  0  0  0  0  0  0999 V2000
  128.1650  126.3120   70.5950 C   0  0  0  0  0  0  0  0  0  0  0  0
  129.0140  126.7240   69.4070 C   0  0  0  0  0  0  0  0  0  0  0  0
  129.9500  127.7570   69.5010 C   0  0  0  0  0  0  0  0  0  0  0  0
  130.7020  128.0770   68.3700 C   0  0  0  0  0  0  0  0  0  0  0  0
  130.5030  127.3640   67.1860 C   0  0  0  0  0  0  0  0  0  0  0  0
  129.5450  126.3440   67.1590 C   0  0  0  0  0  0  0  0  0  0  0  0
  129.4080  125.6470   65.9450 N   0  0  0  0  0  0  0  0  0  0  0  0
  130.3790  125.1580   65.1330 C   0  0  0  0  0  0  0  0  0  0  0  0
  131.5840  125.2510   65.3740 O   0  0  0  0  0  0  0  0  0  0  0  0
  129.9060  124.4910   63.9180 C   0  0  0  0  0  0  0  0  0  0  0  0
  128.8720  125.3510   62.7800 S   0  0  0  0  0  0  0  0  0  0  0  0
  128.8260  123.9710   61.7090 C   0  0  0  0  0  0  0  0  0  0  0  0
  128.1450  124.0020   60.5660 N   0  0  0  0  0  0  0  0  0  0  0  0
  128.1810  122.8860   59.7920 C   0  0  0  0  0  0  0  0  0  0  0  0
  127.4090  122.9550   58.5080 C   0  0  0  0  0  0  0  0  0  0  0  0
  126.1130  123.4970   58.4790 C   0  0  0  0  0  0  0  0  0  0  0  0
  125.3880  123.5580   57.2920 C   0  0  0  0  0  0  0  0  0  0  0  0
  125.9510  123.0790   56.1140 C   0  0  0  0  0  0  0  0  0  0  0  0
  127.2310  122.5370   56.1150 C   0  0  0  0  0  0  0  0  0  0  0  0
  127.9530  122.4750   57.3040 C   0  0  0  0  0  0  0  0  0  0  0  0
  128.8810  121.7380   60.1790 C   0  0  0  0  0  0  0  0  0  0  0  0
  129.5970  121.6940   61.3860 C   0  0  0  0  0  0  0  0  0  0  0  0
  130.3430  120.4050   61.7480 C   0  0  0  0  0  0  0  0  0  0  0  0
  129.9690  119.3580   61.0120 F   0  0  0  0  0  0  0  0  0  0  0  0
  131.6530  120.5760   61.5630 F   0  0  0  0  0  0  0  0  0  0  0  0
  130.1170  120.0970   63.0250 F   0  0  0  0  0  0  0  0  0  0  0  0
  129.5800  122.8640   62.1980 C   0  0  0  0  0  0  0  0  0  0  0  0
  130.1860  123.1900   63.4660 C   0  0  0  0  0  0  0  0  0  0  0  0
  130.9670  122.3060   64.1640 N   0  0  0  0  0  0  0  0  0  0  0  0
  128.8090  126.0220   68.2620 N   0  0  0  0  0  0  0  0  0  0  0  0
  128.6904  126.5670   71.5272 H   0  0  0  0  0  0  0  0  0  0  0  0
  127.2024  126.8432   70.5596 H   0  0  0  0  0  0  0  0  0  0  0  0
  127.9866  125.2271   70.5596 H   0  0  0  0  0  0  0  0  0  0  0  0
  130.0908  128.3051   70.4443 H   0  0  0  0  0  0  0  0  0  0  0  0
  131.4467  128.8856   68.4108 H   0  0  0  0  0  0  0  0  0  0  0  0
  131.0910  127.6007   66.2870 H   0  0  0  0  0  0  0  0  0  0  0  0
  128.4550  125.4580   65.6720 H   0  0  0  0  0  0  0  0  0  0  0  0
  125.6645  123.8788   59.4080 H   0  0  0  0  0  0  0  0  0  0  0  0
  124.3736  123.9835   57.2859 H   0  0  0  0  0  0  0  0  0  0  0  0
  125.3797  123.1294   55.1754 H   0  0  0  0  0  0  0  0  0  0  0  0
  127.6716  122.1588   55.1807 H   0  0  0  0  0  0  0  0  0  0  0  0
  128.9649  122.0437   57.3011 H   0  0  0  0  0  0  0  0  0  0  0  0
  128.8702  120.8533   59.5254 H   0  0  0  0  0  0  0  0  0  0  0  0
  131.2240  121.4040   63.7860 H   0  0  0  0  0  0  0  0  0  0  0  0
  131.3130  122.5260   65.0880 H   0  0  0  0  0  0  0  0  0  0  0  0
  1  2  1  0
  2  3  2  0
  3  4  1  0
  4  5  2  0
  5  6  1  0
  6  7  1  0
  7  8  1  0
  8  9  2  0
  8 10  1  0
 10 11  1  0
 11 12  1  0
 12 13  2  0
 13 14  1  0
 14 15  1  0
 15 16  2  0
 16 17  1  0
 17 18  2  0
 18 19  1  0
 19 20  2  0
 14 21  2  0
 21 22  1  0
 22 23  1  0
 23 24  1  0
 23 25  1  0
 23 26  1  0
 22 27  2  0
 27 28  1  0
 28 29  1  0
  6 30  2  0
 30  2  1  0
 28 10  2  0
 27 12  1  0
 20 15  1  0
  1 31  1  0
  1 32  1  0
  1 33  1  0
  3 34  1  0
  4 35  1  0
  5 36  1  0
  7 37  1  0
 16 38  1  0
 17 39  1  0
 18 40  1  0
 19 41  1  0
 20 42  1  0
 21 43  1  0
 29 44  1  0
 29 45  1  0
M  END
>  <Binding energies>  (1) 
[-7.86]

>  <Ligand effiencies>  (1) 
[-0.2381818181818182]

>  <Interactions>  (1) 
["V-A:GLU:543:CD:4905, V-A:HIS:456:CE1:4066, V-A:GLU:543:C:4899, V-A:GLU:543:CB:4903, V-B:GLU:543:CB:9875, V-B:GLY:544:C:9881, V-B:TYR:539:CE1:9844, V-B:MET:535:CE:9804, V-B:PRO:540:CA:9852, V-B:TYR:539:CZ:9846, V-B:PRO:540:N:9853, V-B:PRO:540:CB:9854, V-B:LEU:363:CD1:8157, V-B:ALA:541:CB:9861, H-B:GLU:543:OE2:9879, H-B:GLU:543:OE1:9878, V-B:GLU:543:CD:9877, V-B:GLU:543:CG:9876, V-A:TYR:484:CZ:4343, V-B:TYR:539:CE2:9845, V-A:TYR:484:CE1:4341, V-B:ILE:538:CG2:9832, V-B:ILE:538:CB:9831, V-A:LEU:475:CD1:4254, V-B:TYR:539:C:9836, V-B:TYR:539:CD2:9843, V-B:ILE:538:CA:9829, V-B:TYR:539:CD1:9842, V-B:TYR:539:CG:9841, H-A:TYR:484:OH:4344, V-A:PRO:482:CG:4323, V-A:TRP:381:CH2:3368, V-A:LEU:475:CD2:4255, V-A:LEU:475:CG:4253, V-A:PRO:482:CB:4322"]

$$$$
4cf_Grossjean_2025
     RDKit          3D

 42 45  0  0  0  0  0  0  0  0999 V2000
  130.9940  122.2810   64.1100 N   0  0  0  0  0  0  0  0  0  0  0  0
  130.2320  123.1870   63.4180 C   0  0  0  0  0  0  0  0  0  0  0  0
  130.0080  124.5010   63.8600 C   0  0  0  0  0  0  0  0  0  0  0  0
  130.4740  125.1420   65.0930 C   0  0  0  0  0  0  0  0  0  0  0  0
  131.6640  125.1030   65.4090 O   0  0  0  0  0  0  0  0  0  0  0  0
  129.5160  125.7680   65.8200 N   0  0  0  0  0  0  0  0  0  0  0  0
  129.6170  126.4270   67.0600 C   0  0  0  0  0  0  0  0  0  0  0  0
  128.7710  126.2190   68.1660 C   0  0  0  0  0  0  0  0  0  0  0  0
  128.9730  126.9540   69.3370 C   0  0  0  0  0  0  0  0  0  0  0  0
  130.0140  127.8810   69.3730 C   0  0  0  0  0  0  0  0  0  0  0  0
  130.8380  128.1060   68.3190 N   0  0  0  0  0  0  0  0  0  0  0  0
  130.6290  127.3850   67.1870 C   0  0  0  0  0  0  0  0  0  0  0  0
  128.9920  125.3890   62.7270 S   0  0  0  0  0  0  0  0  0  0  0  0
  128.8690  123.9970   61.6770 C   0  0  0  0  0  0  0  0  0  0  0  0
  128.1600  124.0370   60.5500 N   0  0  0  0  0  0  0  0  0  0  0  0
  128.1110  122.8990   59.8080 C   0  0  0  0  0  0  0  0  0  0  0  0
  127.2990  122.9710   58.5480 C   0  0  0  0  0  0  0  0  0  0  0  0
  127.7880  122.4330   57.3480 C   0  0  0  0  0  0  0  0  0  0  0  0
  127.0410  122.4950   56.1740 C   0  0  0  0  0  0  0  0  0  0  0  0
  125.7870  123.0970   56.1870 C   0  0  0  0  0  0  0  0  0  0  0  0
  125.2760  123.6360   57.3630 C   0  0  0  0  0  0  0  0  0  0  0  0
  126.0270  123.5710   58.5330 C   0  0  0  0  0  0  0  0  0  0  0  0
  128.7900  121.7380   60.1880 C   0  0  0  0  0  0  0  0  0  0  0  0
  129.5430  121.6870   61.3710 C   0  0  0  0  0  0  0  0  0  0  0  0
  130.2600  120.3800   61.7300 C   0  0  0  0  0  0  0  0  0  0  0  0
  130.1270  120.0450   63.0150 F   0  0  0  0  0  0  0  0  0  0  0  0
  129.7620  119.3790   61.0040 F   0  0  0  0  0  0  0  0  0  0  0  0
  131.5640  120.4970   61.4820 F   0  0  0  0  0  0  0  0  0  0  0  0
  129.5890  122.8690   62.1670 C   0  0  0  0  0  0  0  0  0  0  0  0
  131.2140  121.3700   63.7330 H   0  0  0  0  0  0  0  0  0  0  0  0
  131.3650  122.4960   65.0260 H   0  0  0  0  0  0  0  0  0  0  0  0
  128.5880  125.7710   65.4220 H   0  0  0  0  0  0  0  0  0  0  0  0
  127.9560  125.4824   68.1086 H   0  0  0  0  0  0  0  0  0  0  0  0
  128.3241  126.8044   70.2125 H   0  0  0  0  0  0  0  0  0  0  0  0
  130.1743  128.4555   70.2973 H   0  0  0  0  0  0  0  0  0  0  0  0
  131.2894  127.5634   66.3256 H   0  0  0  0  0  0  0  0  0  0  0  0
  128.7782  121.9541   57.3341 H   0  0  0  0  0  0  0  0  0  0  0  0
  127.4406  122.0701   55.2414 H   0  0  0  0  0  0  0  0  0  0  0  0
  125.1955  123.1471   55.2609 H   0  0  0  0  0  0  0  0  0  0  0  0
  124.2839  124.1110   57.3683 H   0  0  0  0  0  0  0  0  0  0  0  0
  125.6188  123.9961   59.4618 H   0  0  0  0  0  0  0  0  0  0  0  0
  128.7330  120.8461   59.5467 H   0  0  0  0  0  0  0  0  0  0  0  0
  1  2  1  0
  2  3  2  0
  3  4  1  0
  4  5  2  0
  4  6  1  0
  6  7  1  0
  7  8  2  0
  8  9  1  0
  9 10  2  0
 10 11  1  0
 11 12  2  0
  3 13  1  0
 13 14  1  0
 14 15  2  0
 15 16  1  0
 16 17  1  0
 17 18  2  0
 18 19  1  0
 19 20  2  0
 20 21  1  0
 21 22  2  0
 16 23  2  0
 23 24  1  0
 24 25  1  0
 25 26  1  0
 25 27  1  0
 25 28  1  0
 24 29  2  0
 29  2  1  0
 12  7  1  0
 29 14  1  0
 22 17  1  0
  1 30  1  0
  1 31  1  0
  6 32  1  0
  8 33  1  0
  9 34  1  0
 10 35  1  0
 12 36  1  0
 18 37  1  0
 19 38  1  0
 20 39  1  0
 21 40  1  0
 22 41  1  0
 23 42  1  0
M  END
>  <Binding energies>  (1) 
[-7.42]

>  <Ligand effiencies>  (1) 
[-0.231875]

>  <Interactions>  (1) 
["V-A:GLU:543:CD:4905, V-A:HIS:456:CE1:4066, V-A:GLU:543:C:4899, V-A:GLU:543:CB:4903, V-B:GLU:543:CB:9875, V-B:HIS:456:CE1:9038, V-B:TYR:539:CE1:9844, V-B:PRO:540:CA:9852, V-B:TYR:539:CZ:9846, V-B:PRO:540:N:9853, V-B:PRO:540:CB:9854, V-B:LEU:363:CD1:8157, V-B:ALA:541:CB:9861, H-B:GLU:543:OE2:9879, H-B:GLU:543:OE1:9878, V-B:GLU:543:CD:9877, V-B:GLU:543:CG:9876, V-A:TYR:484:CZ:4343, V-B:TYR:539:CE2:9845, V-A:TYR:484:CE1:4341, V-B:ILE:538:CB:9831, V-A:LEU:475:CD1:4254, V-B:TYR:539:C:9836, V-B:TYR:539:CD2:9843, V-B:ILE:538:CA:9829, V-B:TYR:539:CD1:9842, V-B:TYR:539:CG:9841, H-A:TYR:484:OH:4344, V-A:PRO:482:CG:4323, V-A:LEU:475:CD2:4255, V-A:LEU:475:CG:4253, V-A:PRO:482:CB:4322"]

$$$$
4cg_Grossjean_2025
     RDKit          3D

 46 49  0  0  0  0  0  0  0  0999 V2000
  131.1920  122.5290   63.9810 N   0  0  0  0  0  0  0  0  0  0  0  0
  130.3670  123.4010   63.3160 C   0  0  0  0  0  0  0  0  0  0  0  0
  130.1520  124.7220   63.7320 C   0  0  0  0  0  0  0  0  0  0  0  0
  130.7540  125.4330   64.8590 C   0  0  0  0  0  0  0  0  0  0  0  0
  131.8810  125.1490   65.2700 O   0  0  0  0  0  0  0  0  0  0  0  0
  129.9870  126.3810   65.4390 N   0  0  0  0  0  0  0  0  0  0  0  0
  130.3900  127.2280   66.5600 C   0  0  0  0  0  0  0  0  0  0  0  0
  129.5520  127.0120   67.8150 C   0  0  0  0  0  0  0  0  0  0  0  0
  130.0250  127.4600   69.0520 C   0  0  0  0  0  0  0  0  0  0  0  0
  129.2490  127.2920   70.1960 C   0  0  0  0  0  0  0  0  0  0  0  0
  127.9980  126.6870   70.0970 C   0  0  0  0  0  0  0  0  0  0  0  0
  127.5140  126.2530   68.8650 C   0  0  0  0  0  0  0  0  0  0  0  0
  128.2890  126.4220   67.7210 C   0  0  0  0  0  0  0  0  0  0  0  0
  129.0560  125.5680   62.6430 S   0  0  0  0  0  0  0  0  0  0  0  0
  128.8760  124.1400   61.6500 C   0  0  0  0  0  0  0  0  0  0  0  0
  128.0980  124.1390   60.5710 N   0  0  0  0  0  0  0  0  0  0  0  0
  128.0240  122.9850   59.8580 C   0  0  0  0  0  0  0  0  0  0  0  0
  127.1370  123.0160   58.6460 C   0  0  0  0  0  0  0  0  0  0  0  0
  125.8730  123.6270   58.6930 C   0  0  0  0  0  0  0  0  0  0  0  0
  125.0470  123.6580   57.5730 C   0  0  0  0  0  0  0  0  0  0  0  0
  125.4730  123.0730   56.3840 C   0  0  0  0  0  0  0  0  0  0  0  0
  126.7180  122.4580   56.3110 C   0  0  0  0  0  0  0  0  0  0  0  0
  127.5410  122.4300   57.4330 C   0  0  0  0  0  0  0  0  0  0  0  0
  128.7160  121.8320   60.2460 C   0  0  0  0  0  0  0  0  0  0  0  0
  129.5380  121.8220   61.3830 C   0  0  0  0  0  0  0  0  0  0  0  0
  130.2670  120.5240   61.7510 C   0  0  0  0  0  0  0  0  0  0  0  0
  131.5780  120.5730   61.5040 F   0  0  0  0  0  0  0  0  0  0  0  0
  130.1140  120.2750   63.0520 F   0  0  0  0  0  0  0  0  0  0  0  0
  129.7660  119.5110   61.0470 F   0  0  0  0  0  0  0  0  0  0  0  0
  129.6350  123.0320   62.1290 C   0  0  0  0  0  0  0  0  0  0  0  0
  131.6570  122.7830   64.8410 H   0  0  0  0  0  0  0  0  0  0  0  0
  131.3560  121.5940   63.6350 H   0  0  0  0  0  0  0  0  0  0  0  0
  129.1060  126.6100   65.0040 H   0  0  0  0  0  0  0  0  0  0  0  0
  131.4410  127.0104   66.8010 H   0  0  0  0  0  0  0  0  0  0  0  0
  130.2423  128.2722   66.2471 H   0  0  0  0  0  0  0  0  0  0  0  0
  131.0098  127.9450   69.1216 H   0  0  0  0  0  0  0  0  0  0  0  0
  129.6217  127.6351   71.1724 H   0  0  0  0  0  0  0  0  0  0  0  0
  127.3862  126.5506   71.0009 H   0  0  0  0  0  0  0  0  0  0  0  0
  126.5238  125.7789   68.7964 H   0  0  0  0  0  0  0  0  0  0  0  0
  127.9073  126.0913   66.7438 H   0  0  0  0  0  0  0  0  0  0  0  0
  125.5301  124.0887   59.6307 H   0  0  0  0  0  0  0  0  0  0  0  0
  124.0612  124.1430   57.6274 H   0  0  0  0  0  0  0  0  0  0  0  0
  124.8217  123.0973   55.4979 H   0  0  0  0  0  0  0  0  0  0  0  0
  127.0511  121.9955   55.3702 H   0  0  0  0  0  0  0  0  0  0  0  0
  128.5244  121.9411   57.3700 H   0  0  0  0  0  0  0  0  0  0  0  0
  128.6133  120.9149   59.6473 H   0  0  0  0  0  0  0  0  0  0  0  0
  1  2  1  0
  2  3  2  0
  3  4  1  0
  4  5  2  0
  4  6  1  0
  6  7  1  0
  7  8  1  0
  8  9  2  0
  9 10  1  0
 10 11  2  0
 11 12  1  0
 12 13  2  0
  3 14  1  0
 14 15  1  0
 15 16  2  0
 16 17  1  0
 17 18  1  0
 18 19  2  0
 19 20  1  0
 20 21  2  0
 21 22  1  0
 22 23  2  0
 17 24  2  0
 24 25  1  0
 25 26  1  0
 26 27  1  0
 26 28  1  0
 26 29  1  0
 25 30  2  0
 30  2  1  0
 13  8  1  0
 30 15  1  0
 23 18  1  0
  1 31  1  0
  1 32  1  0
  6 33  1  0
  7 34  1  0
  7 35  1  0
  9 36  1  0
 10 37  1  0
 11 38  1  0
 12 39  1  0
 13 40  1  0
 19 41  1  0
 20 42  1  0
 21 43  1  0
 22 44  1  0
 23 45  1  0
 24 46  1  0
M  END
>  <Binding energies>  (1) 
[-7.72]

>  <Ligand effiencies>  (1) 
[-0.23393939393939392]

>  <Interactions>  (1) 
["V-A:GLU:543:CD:4905, V-B:GLU:543:C:9871, V-A:HIS:456:CE1:4066, V-A:GLU:543:CB:4903, V-B:GLU:543:CB:9875, V-B:HIS:456:CE1:9038, V-B:GLY:544:C:9881, V-B:HIS:456:CD2:9036, V-B:TYR:539:CE1:9844, V-B:PRO:540:CA:9852, V-B:PRO:540:N:9853, V-B:PRO:540:CB:9854, V-B:LEU:363:CD1:8157, V-B:ALA:541:CB:9861, H-B:GLU:543:OE1:9878, V-B:GLU:543:CD:9877, V-B:TYR:539:CE2:9845, V-B:ILE:538:CB:9831, V-A:LEU:475:CD1:4254, V-B:PRO:540:CD:9856, V-B:TYR:539:C:9836, V-B:TYR:539:CD2:9843, V-B:TYR:539:CD1:9842, V-B:TYR:539:CG:9841, H-A:TYR:484:OH:4344, V-A:PRO:482:CG:4323, V-A:LEU:475:CD2:4255, V-A:LEU:475:CG:4253, V-A:PRO:482:CB:4322"]

$$$$
4ch_Grossjean_2025
     RDKit          3D

 58 61  0  0  0  0  0  0  0  0999 V2000
  124.2510  123.9750   60.8730 C   0  0  0  0  0  0  0  0  0  0  0  0
  124.7160  124.0040   59.5280 O   0  0  0  0  0  0  0  0  0  0  0  0
  125.9080  123.3810   59.2090 C   0  0  0  0  0  0  0  0  0  0  0  0
  126.9810  123.2360   60.1040 C   0  0  0  0  0  0  0  0  0  0  0  0
  128.1570  122.5930   59.7130 C   0  0  0  0  0  0  0  0  0  0  0  0
  129.3210  122.4710   60.6900 C   0  0  0  0  0  0  0  0  0  0  0  0
  129.2000  123.3150   61.8780 N   0  0  0  0  0  0  0  0  0  0  0  0
  130.1450  124.1600   62.3400 C   0  0  0  0  0  0  0  0  0  0  0  0
  131.2250  124.3240   61.7680 O   0  0  0  0  0  0  0  0  0  0  0  0
  129.8010  124.9080   63.5500 C   0  0  0  0  0  0  0  0  0  0  0  0
  130.2860  124.3010   65.1300 S   0  0  0  0  0  0  0  0  0  0  0  0
  129.5710  125.6800   65.9280 C   0  0  0  0  0  0  0  0  0  0  0  0
  129.6030  125.8110   67.2520 N   0  0  0  0  0  0  0  0  0  0  0  0
  129.0260  126.9210   67.7820 C   0  0  0  0  0  0  0  0  0  0  0  0
  129.0740  127.0360   69.2790 C   0  0  0  0  0  0  0  0  0  0  0  0
  130.1190  127.7270   69.9140 C   0  0  0  0  0  0  0  0  0  0  0  0
  130.1700  127.8360   71.3010 C   0  0  0  0  0  0  0  0  0  0  0  0
  129.1750  127.2520   72.0760 C   0  0  0  0  0  0  0  0  0  0  0  0
  128.1300  126.5580   71.4740 C   0  0  0  0  0  0  0  0  0  0  0  0
  128.0840  126.4500   70.0860 C   0  0  0  0  0  0  0  0  0  0  0  0
  128.4040  127.8840   66.9820 C   0  0  0  0  0  0  0  0  0  0  0  0
  128.3620  127.7560   65.5840 C   0  0  0  0  0  0  0  0  0  0  0  0
  127.6640  128.8480   64.7660 C   0  0  0  0  0  0  0  0  0  0  0  0
  128.2580  129.0850   63.5940 F   0  0  0  0  0  0  0  0  0  0  0  0
  126.4070  128.4880   64.5110 F   0  0  0  0  0  0  0  0  0  0  0  0
  127.6630  129.9920   65.4500 F   0  0  0  0  0  0  0  0  0  0  0  0
  128.9760  126.6020   65.0170 C   0  0  0  0  0  0  0  0  0  0  0  0
  129.1340  126.1380   63.6600 C   0  0  0  0  0  0  0  0  0  0  0  0
  128.6640  126.8360   62.5760 N   0  0  0  0  0  0  0  0  0  0  0  0
  128.2740  122.1020   58.4130 C   0  0  0  0  0  0  0  0  0  0  0  0
  127.2170  122.2340   57.4960 C   0  0  0  0  0  0  0  0  0  0  0  0
  127.2640  121.7710   56.1940 O   0  0  0  0  0  0  0  0  0  0  0  0
  127.8880  122.5650   55.1910 C   0  0  0  0  0  0  0  0  0  0  0  0
  126.0380  122.8700   57.9100 C   0  0  0  0  0  0  0  0  0  0  0  0
  125.0020  123.0180   57.0190 O   0  0  0  0  0  0  0  0  0  0  0  0
  124.8810  124.3310   56.4870 C   0  0  0  0  0  0  0  0  0  0  0  0
  125.1093  124.0285   61.5589 H   0  0  0  0  0  0  0  0  0  0  0  0
  123.5863  124.8334   61.0497 H   0  0  0  0  0  0  0  0  0  0  0  0
  123.6981  123.0406   61.0497 H   0  0  0  0  0  0  0  0  0  0  0  0
  126.8936  123.6341   61.1257 H   0  0  0  0  0  0  0  0  0  0  0  0
  129.3878  121.4229   61.0173 H   0  0  0  0  0  0  0  0  0  0  0  0
  130.2197  122.8092   60.1533 H   0  0  0  0  0  0  0  0  0  0  0  0
  128.3610  123.1920   62.4270 H   0  0  0  0  0  0  0  0  0  0  0  0
  130.9100  128.1896   69.3055 H   0  0  0  0  0  0  0  0  0  0  0  0
  130.9948  128.3824   71.7818 H   0  0  0  0  0  0  0  0  0  0  0  0
  129.2139  127.3390   73.1719 H   0  0  0  0  0  0  0  0  0  0  0  0
  127.3444  126.0971   72.0908 H   0  0  0  0  0  0  0  0  0  0  0  0
  127.2589  125.8967   69.6137 H   0  0  0  0  0  0  0  0  0  0  0  0
  127.9380  128.7598   67.4571 H   0  0  0  0  0  0  0  0  0  0  0  0
  127.7400  126.6780   62.1990 H   0  0  0  0  0  0  0  0  0  0  0  0
  129.2290  127.5380   62.1180 H   0  0  0  0  0  0  0  0  0  0  0  0
  129.2048  121.6054   58.1015 H   0  0  0  0  0  0  0  0  0  0  0  0
  128.5003  123.3442   55.6684 H   0  0  0  0  0  0  0  0  0  0  0  0
  128.5291  121.9273   54.5647 H   0  0  0  0  0  0  0  0  0  0  0  0
  127.1168  123.0372   54.5647 H   0  0  0  0  0  0  0  0  0  0  0  0
  124.8142  125.0560   57.3116 H   0  0  0  0  0  0  0  0  0  0  0  0
  125.7620  124.5588   55.8689 H   0  0  0  0  0  0  0  0  0  0  0  0
  123.9732  124.3940   55.8689 H   0  0  0  0  0  0  0  0  0  0  0  0
  1  2  1  0
  2  3  1  0
  3  4  2  0
  4  5  1  0
  5  6  1  0
  6  7  1  0
  7  8  1  0
  8  9  2  0
  8 10  1  0
 10 11  1  0
 11 12  1  0
 12 13  2  0
 13 14  1  0
 14 15  1  0
 15 16  2  0
 16 17  1  0
 17 18  2  0
 18 19  1  0
 19 20  2  0
 14 21  2  0
 21 22  1  0
 22 23  1  0
 23 24  1  0
 23 25  1  0
 23 26  1  0
 22 27  2  0
 27 28  1  0
 28 29  1  0
  5 30  2  0
 30 31  1  0
 31 32  1  0
 32 33  1  0
 31 34  2  0
 34 35  1  0
 35 36  1  0
 34  3  1  0
 28 10  2  0
 27 12  1  0
 20 15  1  0
  1 37  1  0
  1 38  1  0
  1 39  1  0
  4 40  1  0
  6 41  1  0
  6 42  1  0
  7 43  1  0
 16 44  1  0
 17 45  1  0
 18 46  1  0
 19 47  1  0
 20 48  1  0
 21 49  1  0
 29 50  1  0
 29 51  1  0
 30 52  1  0
 33 53  1  0
 33 54  1  0
 33 55  1  0
 36 56  1  0
 36 57  1  0
 36 58  1  0
M  END
>  <Binding energies>  (1) 
[-8.08]

>  <Ligand effiencies>  (1) 
[-0.20717948717948717]

>  <Interactions>  (1) 
["H-A:GLU:543:OE2:4907, V-A:GLU:543:CD:4905, V-B:LYS:547:CE:9919, V-A:HIS:456:CE1:4066, V-B:GLU:543:CB:9875, V-B:HIS:456:CE1:9038, V-B:GLY:544:C:9881, V-B:HIS:456:CD2:9036, V-B:ASN:362:CB:8144, V-B:TYR:539:CE1:9844, V-B:MET:535:CE:9804, V-B:PRO:540:CA:9852, V-B:TYR:539:CZ:9846, V-B:TYR:531:CE2:9762, V-B:ASN:362:C:8140, V-B:PRO:540:N:9853, V-B:PRO:540:CB:9854, H-B:TYR:539:N:9839, V-B:LEU:363:CD1:8157, V-B:ALA:541:CB:9861, H-B:GLU:543:OE2:9879, H-B:GLU:543:OE1:9878, V-B:GLU:543:CD:9877, V-B:GLU:543:CG:9876, V-A:TYR:484:CZ:4343, V-B:TYR:539:CE2:9845, V-A:TYR:484:CE1:4341, V-A:GLU:543:CG:4904, V-B:ILE:538:CG2:9832, V-B:ILE:538:CB:9831, V-B:PRO:540:CD:9856, V-B:TYR:539:C:9836, V-B:TYR:539:CD2:9843, V-B:ILE:538:CA:9829, V-B:TYR:539:CD1:9842, V-B:TYR:539:CG:9841, V-B:ARG:545:CZ:9895"]

$$$$
4ci_Grossjean_2025
     RDKit          3D

 39 42  0  0  0  0  0  0  0  0999 V2000
  131.8230  123.4470   59.8970 N   0  0  0  0  0  0  0  0  0  0  0  0
  130.7490  123.8970   60.6200 C   0  0  0  0  0  0  0  0  0  0  0  0
  129.4430  123.9530   60.1050 C   0  0  0  0  0  0  0  0  0  0  0  0
  128.9690  123.5580   58.7760 C   0  0  0  0  0  0  0  0  0  0  0  0
  129.7190  123.6130   57.7980 O   0  0  0  0  0  0  0  0  0  0  0  0
  127.6750  123.1550   58.7140 N   0  0  0  0  0  0  0  0  0  0  0  0
  126.9730  122.7340   57.5920 C   0  0  0  0  0  0  0  0  0  0  0  0
  125.7060  123.2140   57.2600 C   0  0  0  0  0  0  0  0  0  0  0  0
  125.3660  122.5570   56.1000 C   0  0  0  0  0  0  0  0  0  0  0  0
  126.3770  121.7250   55.7510 O   0  0  0  0  0  0  0  0  0  0  0  0
  127.3890  121.8460   56.7040 N   0  0  0  0  0  0  0  0  0  0  0  0
  128.3110  124.5700   61.3050 S   0  0  0  0  0  0  0  0  0  0  0  0
  129.5900  124.7560   62.4820 C   0  0  0  0  0  0  0  0  0  0  0  0
  129.3480  125.2260   63.7040 N   0  0  0  0  0  0  0  0  0  0  0  0
  130.4050  125.3320   64.5510 C   0  0  0  0  0  0  0  0  0  0  0  0
  130.1010  125.8690   65.9200 C   0  0  0  0  0  0  0  0  0  0  0  0
  130.5160  127.1570   66.2980 C   0  0  0  0  0  0  0  0  0  0  0  0
  130.2360  127.6600   67.5660 C   0  0  0  0  0  0  0  0  0  0  0  0
  129.5360  126.8790   68.4780 C   0  0  0  0  0  0  0  0  0  0  0  0
  129.1170  125.6000   68.1340 C   0  0  0  0  0  0  0  0  0  0  0  0
  129.3990  125.1000   66.8650 C   0  0  0  0  0  0  0  0  0  0  0  0
  131.7010  124.9840   64.1590 C   0  0  0  0  0  0  0  0  0  0  0  0
  131.9680  124.4870   62.8730 C   0  0  0  0  0  0  0  0  0  0  0  0
  133.4130  124.1250   62.5120 C   0  0  0  0  0  0  0  0  0  0  0  0
  133.7100  124.3670   61.2340 F   0  0  0  0  0  0  0  0  0  0  0  0
  134.2560  124.8380   63.2590 F   0  0  0  0  0  0  0  0  0  0  0  0
  133.6210  122.8260   62.7320 F   0  0  0  0  0  0  0  0  0  0  0  0
  130.8650  124.3600   61.9820 C   0  0  0  0  0  0  0  0  0  0  0  0
  132.6730  123.1310   60.3420 H   0  0  0  0  0  0  0  0  0  0  0  0
  131.7980  123.4100   58.8870 H   0  0  0  0  0  0  0  0  0  0  0  0
  127.1510  123.1590   59.5760 H   0  0  0  0  0  0  0  0  0  0  0  0
  125.1079  123.9573   57.8075 H   0  0  0  0  0  0  0  0  0  0  0  0
  124.4250  122.6863   55.5452 H   0  0  0  0  0  0  0  0  0  0  0  0
  131.0714  127.7785   65.5802 H   0  0  0  0  0  0  0  0  0  0  0  0
  130.5674  128.6712   67.8446 H   0  0  0  0  0  0  0  0  0  0  0  0
  129.3122  127.2764   69.4790 H   0  0  0  0  0  0  0  0  0  0  0  0
  128.5652  124.9851   68.8603 H   0  0  0  0  0  0  0  0  0  0  0  0
  129.0668  124.0861   66.5974 H   0  0  0  0  0  0  0  0  0  0  0  0
  132.5293  125.1020   64.8731 H   0  0  0  0  0  0  0  0  0  0  0  0
  1  2  1  0
  2  3  2  0
  3  4  1  0
  4  5  2  0
  4  6  1  0
  6  7  1  0
  7  8  1  0
  8  9  2  0
  9 10  1  0
 10 11  1  0
  3 12  1  0
 12 13  1  0
 13 14  2  0
 14 15  1  0
 15 16  1  0
 16 17  2  0
 17 18  1  0
 18 19  2  0
 19 20  1  0
 20 21  2  0
 15 22  2  0
 22 23  1  0
 23 24  1  0
 24 25  1  0
 24 26  1  0
 24 27  1  0
 23 28  2  0
 28  2  1  0
 11  7  2  0
 28 13  1  0
 21 16  1  0
  1 29  1  0
  1 30  1  0
  6 31  1  0
  8 32  1  0
  9 33  1  0
 17 34  1  0
 18 35  1  0
 19 36  1  0
 20 37  1  0
 21 38  1  0
 22 39  1  0
M  END
>  <Binding energies>  (1) 
[-7.37]

>  <Ligand effiencies>  (1) 
[-0.23774193548387096]

>  <Interactions>  (1) 
["V-A:ASP:366:CB:3208, V-A:ASP:366:CG:3209, V-A:GLU:543:CD:4905, V-B:GLU:543:C:9871, V-A:HIS:456:CE1:4066, V-A:GLU:543:CB:4903, V-B:GLU:543:CB:9875, V-B:PRO:540:CA:9852, V-B:TYR:539:CZ:9846, V-B:PRO:540:N:9853, V-B:PRO:540:CB:9854, H-B:TYR:539:N:9839, V-B:LEU:363:CD1:8157, H-B:TYR:539:OH:9847, V-B:GLU:543:CD:9877, V-B:GLU:543:CG:9876, V-A:ARG:545:CZ:4923, V-B:TYR:539:CE2:9845, V-A:TYR:484:CE1:4341, V-B:GLU:543:CA:9873, V-B:ILE:538:CG2:9832, V-B:ILE:538:CB:9831, V-A:LEU:475:CD1:4254, V-B:PRO:540:CD:9856, V-B:TYR:539:C:9836, V-A:GLY:454:CA:4045, V-A:GLY:453:C:4038, V-A:GLY:453:CA:4040"]

$$$$
4cj_Grossjean_2025
     RDKit          3D

 39 42  0  0  0  0  0  0  0  0999 V2000
  131.1700  124.7500   66.2490 N   0  0  0  0  0  0  0  0  0  0  0  0
  130.7840  125.5770   65.2250 C   0  0  0  0  0  0  0  0  0  0  0  0
  131.3790  125.5540   63.9530 C   0  0  0  0  0  0  0  0  0  0  0  0
  132.4620  124.6960   63.4660 C   0  0  0  0  0  0  0  0  0  0  0  0
  133.6340  124.9220   63.7770 O   0  0  0  0  0  0  0  0  0  0  0  0
  132.0780  123.6740   62.6620 N   0  0  0  0  0  0  0  0  0  0  0  0
  132.9000  122.7230   62.0720 C   0  0  0  0  0  0  0  0  0  0  0  0
  134.2120  122.7440   61.9680 N   0  0  0  0  0  0  0  0  0  0  0  0
  134.6660  121.6730   61.3490 C   0  0  0  0  0  0  0  0  0  0  0  0
  133.7100  120.7490   60.9350 C   0  0  0  0  0  0  0  0  0  0  0  0
  132.1330  121.3260   61.3880 S   0  0  0  0  0  0  0  0  0  0  0  0
  130.6320  126.7360   62.8800 S   0  0  0  0  0  0  0  0  0  0  0  0
  129.5360  127.2520   64.1390 C   0  0  0  0  0  0  0  0  0  0  0  0
  128.6340  128.2070   63.9250 N   0  0  0  0  0  0  0  0  0  0  0  0
  127.8190  128.5360   64.9610 C   0  0  0  0  0  0  0  0  0  0  0  0
  126.8040  129.6080   64.6820 C   0  0  0  0  0  0  0  0  0  0  0  0
  127.1910  130.9530   64.5720 C   0  0  0  0  0  0  0  0  0  0  0  0
  126.2550  131.9520   64.3190 C   0  0  0  0  0  0  0  0  0  0  0  0
  124.9110  131.6180   64.1760 C   0  0  0  0  0  0  0  0  0  0  0  0
  124.5010  130.2940   64.2830 C   0  0  0  0  0  0  0  0  0  0  0  0
  125.4410  129.2990   64.5340 C   0  0  0  0  0  0  0  0  0  0  0  0
  127.9310  127.9220   66.2130 C   0  0  0  0  0  0  0  0  0  0  0  0
  128.8800  126.9160   66.4500 C   0  0  0  0  0  0  0  0  0  0  0  0
  128.9470  126.2830   67.8450 C   0  0  0  0  0  0  0  0  0  0  0  0
  127.8740  126.5490   68.5930 F   0  0  0  0  0  0  0  0  0  0  0  0
  129.0380  124.9580   67.7330 F   0  0  0  0  0  0  0  0  0  0  0  0
  130.0140  126.7430   68.4990 F   0  0  0  0  0  0  0  0  0  0  0  0
  129.7270  126.5490   65.3640 C   0  0  0  0  0  0  0  0  0  0  0  0
  132.1170  124.7420   66.6030 H   0  0  0  0  0  0  0  0  0  0  0  0
  130.5140  124.1210   66.6910 H   0  0  0  0  0  0  0  0  0  0  0  0
  131.0930  123.5900   62.4550 H   0  0  0  0  0  0  0  0  0  0  0  0
  135.7400  121.5175   61.1694 H   0  0  0  0  0  0  0  0  0  0  0  0
  133.9184  119.8068   60.4070 H   0  0  0  0  0  0  0  0  0  0  0  0
  128.2513  131.2220   64.6876 H   0  0  0  0  0  0  0  0  0  0  0  0
  126.5759  133.0006   64.2325 H   0  0  0  0  0  0  0  0  0  0  0  0
  124.1696  132.4059   63.9773 H   0  0  0  0  0  0  0  0  0  0  0  0
  123.4382  130.0340   64.1698 H   0  0  0  0  0  0  0  0  0  0  0  0
  125.1116  128.2528   64.6180 H   0  0  0  0  0  0  0  0  0  0  0  0
  127.2616  128.2342   67.0281 H   0  0  0  0  0  0  0  0  0  0  0  0
  1  2  1  0
  2  3  2  0
  3  4  1  0
  4  5  2  0
  4  6  1  0
  6  7  1  0
  7  8  2  0
  8  9  1  0
  9 10  2  0
 10 11  1  0
  3 12  1  0
 12 13  1  0
 13 14  2  0
 14 15  1  0
 15 16  1  0
 16 17  2  0
 17 18  1  0
 18 19  2  0
 19 20  1  0
 20 21  2  0
 15 22  2  0
 22 23  1  0
 23 24  1  0
 24 25  1  0
 24 26  1  0
 24 27  1  0
 23 28  2  0
 28  2  1  0
 11  7  1  0
 28 13  1  0
 21 16  1  0
  1 29  1  0
  1 30  1  0
  6 31  1  0
  9 32  1  0
 10 33  1  0
 17 34  1  0
 18 35  1  0
 19 36  1  0
 20 37  1  0
 21 38  1  0
 22 39  1  0
M  END
>  <Binding energies>  (1) 
[-7.04]

>  <Ligand effiencies>  (1) 
[-0.2270967741935484]

>  <Interactions>  (1) 
["V-A:GLU:543:CD:4905, V-B:GLU:543:C:9871, V-A:HIS:456:CE1:4066, V-B:GLU:543:CB:9875, V-B:HIS:456:CE1:9038, V-B:GLU:543:CD:9877, V-B:GLU:543:CG:9876, V-A:TYR:484:CZ:4343, H-A:ARG:545:NH2:4925, V-B:TYR:539:CE2:9845, V-A:TYR:484:CE1:4341, V-A:GLU:543:CG:4904, V-B:GLU:543:CA:9873, V-A:LEU:475:CD1:4254, V-A:ILE:369:CG1:3234, V-A:ILE:369:CB:3232, V-B:TYR:539:CD2:9843, H-A:GLY:454:N:4046, H-A:ARG:545:NH1:4924, V-A:ILE:369:CG2:3233, V-A:GLY:454:CA:4045, V-A:ILE:369:CD1:3235, V-B:ARG:545:CZ:9895, H-A:TYR:484:OH:4344, V-B:GLY:454:CA:9017, V-B:TYR:484:CZ:9315, H-A:HIS:456:NE2:4067"]

$$$$
4ck_Grossjean_2025
     RDKit          3D

 57 59  0  0  0  0  0  0  0  0999 V2000
  129.1610  132.4550   56.0250 C   0  0  0  0  0  0  0  0  0  0  0  0
  130.4700  132.9900   56.1420 O   0  0  0  0  0  0  0  0  0  0  0  0
  131.4910  132.0670   55.7910 C   0  0  0  0  0  0  0  0  0  0  0  0
  132.0900  131.4710   57.0710 C   0  0  0  0  0  0  0  0  0  0  0  0
  131.3390  131.9240   58.1890 O   0  0  0  0  0  0  0  0  0  0  0  0
  130.9630  130.8820   59.0800 C   0  0  0  0  0  0  0  0  0  0  0  0
  131.3880  131.2610   60.5040 C   0  0  0  0  0  0  0  0  0  0  0  0
  130.4220  132.1490   61.0490 O   0  0  0  0  0  0  0  0  0  0  0  0
  129.3040  132.3740   60.1990 C   0  0  0  0  0  0  0  0  0  0  0  0
  128.0090  132.0260   60.9490 C   0  0  0  0  0  0  0  0  0  0  0  0
  128.2490  131.1120   62.0660 N   0  0  0  0  0  0  0  0  0  0  0  0
  127.3830  130.1860   62.5280 C   0  0  0  0  0  0  0  0  0  0  0  0
  126.2780  129.9940   62.0180 O   0  0  0  0  0  0  0  0  0  0  0  0
  127.8390  129.4020   63.6770 C   0  0  0  0  0  0  0  0  0  0  0  0
  127.5500  129.9840   65.3150 S   0  0  0  0  0  0  0  0  0  0  0  0
  128.2860  128.5540   65.9990 C   0  0  0  0  0  0  0  0  0  0  0  0
  128.3800  128.3830   67.3150 N   0  0  0  0  0  0  0  0  0  0  0  0
  128.9700  127.2400   67.7530 C   0  0  0  0  0  0  0  0  0  0  0  0
  129.0440  127.0680   69.2430 C   0  0  0  0  0  0  0  0  0  0  0  0
  130.0420  127.7110   69.9930 C   0  0  0  0  0  0  0  0  0  0  0  0
  130.1170  127.5540   71.3750 C   0  0  0  0  0  0  0  0  0  0  0  0
  129.1910  126.7490   72.0290 C   0  0  0  0  0  0  0  0  0  0  0  0
  128.1880  126.1060   71.3120 C   0  0  0  0  0  0  0  0  0  0  0  0
  128.1160  126.2660   69.9300 C   0  0  0  0  0  0  0  0  0  0  0  0
  129.4550  126.2720   66.8680 C   0  0  0  0  0  0  0  0  0  0  0  0
  129.3620  126.4430   65.4780 C   0  0  0  0  0  0  0  0  0  0  0  0
  129.9180  125.3430   64.5640 C   0  0  0  0  0  0  0  0  0  0  0  0
  129.0630  124.9740   63.6090 F   0  0  0  0  0  0  0  0  0  0  0  0
  131.0260  125.7740   63.9640 F   0  0  0  0  0  0  0  0  0  0  0  0
  130.2010  124.2600   65.2870 F   0  0  0  0  0  0  0  0  0  0  0  0
  128.7480  127.6390   65.0070 C   0  0  0  0  0  0  0  0  0  0  0  0
  128.4700  128.1490   63.6860 C   0  0  0  0  0  0  0  0  0  0  0  0
  128.8000  127.4670   62.5420 N   0  0  0  0  0  0  0  0  0  0  0  0
  128.7436  132.2844   57.0283 H   0  0  0  0  0  0  0  0  0  0  0  0
  128.5225  133.1643   55.4780 H   0  0  0  0  0  0  0  0  0  0  0  0
  129.2021  131.5015   55.4780 H   0  0  0  0  0  0  0  0  0  0  0  0
  131.0640  131.2622   55.1746 H   0  0  0  0  0  0  0  0  0  0  0  0
  132.2766  132.5829   55.2194 H   0  0  0  0  0  0  0  0  0  0  0  0
  132.0496  130.3729   57.0203 H   0  0  0  0  0  0  0  0  0  0  0  0
  133.1377  131.7898   57.1739 H   0  0  0  0  0  0  0  0  0  0  0  0
  129.8723  130.7438   59.0457 H   0  0  0  0  0  0  0  0  0  0  0  0
  131.4565  129.9448   58.7832 H   0  0  0  0  0  0  0  0  0  0  0  0
  131.4494  130.3551   61.1250 H   0  0  0  0  0  0  0  0  0  0  0  0
  132.3738  131.7485   60.4826 H   0  0  0  0  0  0  0  0  0  0  0  0
  129.2799  133.4317   59.8979 H   0  0  0  0  0  0  0  0  0  0  0  0
  129.3907  131.7389   59.3050 H   0  0  0  0  0  0  0  0  0  0  0  0
  127.5646  132.9536   61.3388 H   0  0  0  0  0  0  0  0  0  0  0  0
  127.3315  131.5258   60.2413 H   0  0  0  0  0  0  0  0  0  0  0  0
  129.1690  131.1500   62.4790 H   0  0  0  0  0  0  0  0  0  0  0  0
  130.7768  128.3493   69.4806 H   0  0  0  0  0  0  0  0  0  0  0  0
  130.9057  128.0649   71.9467 H   0  0  0  0  0  0  0  0  0  0  0  0
  129.2522  126.6201   73.1197 H   0  0  0  0  0  0  0  0  0  0  0  0
  127.4546  125.4737   71.8338 H   0  0  0  0  0  0  0  0  0  0  0  0
  127.3200  125.7565   69.3671 H   0  0  0  0  0  0  0  0  0  0  0  0
  129.9185  125.3586   67.2691 H   0  0  0  0  0  0  0  0  0  0  0  0
  129.6920  127.5890   62.0840 H   0  0  0  0  0  0  0  0  0  0  0  0
  128.1580  126.8100   62.1180 H   0  0  0  0  0  0  0  0  0  0  0  0
  1  2  1  0
  2  3  1  0
  3  4  1  0
  4  5  1  0
  5  6  1  0
  6  7  1  0
  7  8  1  0
  8  9  1  0
  9 10  1  0
 10 11  1  0
 11 12  1  0
 12 13  2  0
 12 14  1  0
 14 15  1  0
 15 16  1  0
 16 17  2  0
 17 18  1  0
 18 19  1  0
 19 20  2  0
 20 21  1  0
 21 22  2  0
 22 23  1  0
 23 24  2  0
 18 25  2  0
 25 26  1  0
 26 27  1  0
 27 28  1  0
 27 29  1  0
 27 30  1  0
 26 31  2  0
 31 32  1  0
 32 33  1  0
 32 14  2  0
 31 16  1  0
 24 19  1  0
  1 34  1  0
  1 35  1  0
  1 36  1  0
  3 37  1  0
  3 38  1  0
  4 39  1  0
  4 40  1  0
  6 41  1  0
  6 42  1  0
  7 43  1  0
  7 44  1  0
  9 45  1  0
  9 46  1  0
 10 47  1  0
 10 48  1  0
 11 49  1  0
 20 50  1  0
 21 51  1  0
 22 52  1  0
 23 53  1  0
 24 54  1  0
 25 55  1  0
 33 56  1  0
 33 57  1  0
M  END
>  <Binding energies>  (1) 
[-6.93]

>  <Ligand effiencies>  (1) 
[-0.1925]

>  <Interactions>  (1) 
["V-A:TYR:539:CD2:4871, V-A:PRO:540:CB:4882, V-A:PRO:540:CA:4880, H-A:GLU:543:OE2:4907, V-A:LEU:363:CD1:3185, V-A:TYR:539:C:4864, V-A:GLU:543:CD:4905, V-A:TYR:539:CE2:4873, H-A:ALA:541:N:4888, V-B:GLU:543:C:9871, V-B:LYS:547:CE:9919, V-A:HIS:456:CE1:4066, V-A:GLU:543:CB:4903, V-A:HIS:456:CD2:4064, V-B:GLU:543:CB:9875, V-B:HIS:456:CE1:9038, V-B:GLY:544:C:9881, V-A:ILE:538:CD1:4862, V-A:ILE:538:CG2:4860, H-B:GLU:543:OE2:9879, V-B:GLU:543:CD:9877, V-B:GLU:543:CG:9876, V-A:TYR:484:CZ:4343, V-A:TYR:484:CE1:4341, V-A:GLU:543:CG:4904, H-A:TYR:539:N:4867"]

$$$$
4dd_Grossjean_2025
     RDKit          3D

 43 46  0  0  0  0  0  0  0  0999 V2000
  130.4960  120.4190   61.8430 C   0  0  0  0  0  0  0  0  0  0  0  0
  129.7280  121.6840   61.4880 C   0  0  0  0  0  0  0  0  0  0  0  0
  128.9960  121.6990   60.2940 C   0  0  0  0  0  0  0  0  0  0  0  0
  128.2680  122.8310   59.9110 C   0  0  0  0  0  0  0  0  0  0  0  0
  127.4810  122.8780   58.6350 C   0  0  0  0  0  0  0  0  0  0  0  0
  126.1650  123.3680   58.6180 C   0  0  0  0  0  0  0  0  0  0  0  0
  125.4300  123.4170   57.4370 C   0  0  0  0  0  0  0  0  0  0  0  0
  126.0010  122.9720   56.2500 C   0  0  0  0  0  0  0  0  0  0  0  0
  127.3030  122.4820   56.2360 C   0  0  0  0  0  0  0  0  0  0  0  0
  128.0360  122.4370   57.4200 C   0  0  0  0  0  0  0  0  0  0  0  0
  128.2470  123.9630   60.6670 N   0  0  0  0  0  0  0  0  0  0  0  0
  128.9370  123.9470   61.8070 C   0  0  0  0  0  0  0  0  0  0  0  0
  128.9820  125.3250   62.8830 S   0  0  0  0  0  0  0  0  0  0  0  0
  130.0280  124.4660   64.0160 C   0  0  0  0  0  0  0  0  0  0  0  0
  130.4670  125.1110   65.2550 C   0  0  0  0  0  0  0  0  0  0  0  0
  131.6560  125.1090   65.5770 O   0  0  0  0  0  0  0  0  0  0  0  0
  129.4850  125.6950   65.9850 N   0  0  0  0  0  0  0  0  0  0  0  0
  129.5590  126.3430   67.2310 C   0  0  0  0  0  0  0  0  0  0  0  0
  130.4610  127.4080   67.3140 C   0  0  0  0  0  0  0  0  0  0  0  0
  130.5960  128.1220   68.5020 C   0  0  0  0  0  0  0  0  0  0  0  0
  129.8240  127.7760   69.6070 C   0  0  0  0  0  0  0  0  0  0  0  0
  128.9130  126.7260   69.5350 C   0  0  0  0  0  0  0  0  0  0  0  0
  128.7750  126.0090   68.3490 C   0  0  0  0  0  0  0  0  0  0  0  0
  130.3190  123.1730   63.5540 C   0  0  0  0  0  0  0  0  0  0  0  0
  131.1150  122.2820   64.2300 N   0  0  0  0  0  0  0  0  0  0  0  0
  129.7040  122.8510   62.2930 C   0  0  0  0  0  0  0  0  0  0  0  0
  130.5555  120.3210   62.9370 H   0  0  0  0  0  0  0  0  0  0  0  0
  129.9761  119.5447   61.4243 H   0  0  0  0  0  0  0  0  0  0  0  0
  131.5115  120.4769   61.4243 H   0  0  0  0  0  0  0  0  0  0  0  0
  128.9933  120.8085   59.6483 H   0  0  0  0  0  0  0  0  0  0  0  0
  125.7070  123.7192   59.5544 H   0  0  0  0  0  0  0  0  0  0  0  0
  124.4012  123.8063   57.4428 H   0  0  0  0  0  0  0  0  0  0  0  0
  125.4200  123.0076   55.3166 H   0  0  0  0  0  0  0  0  0  0  0  0
  127.7516  122.1318   55.2947 H   0  0  0  0  0  0  0  0  0  0  0  0
  129.0657  122.0503   57.4044 H   0  0  0  0  0  0  0  0  0  0  0  0
  128.5620  125.6810   65.5770 H   0  0  0  0  0  0  0  0  0  0  0  0
  131.0663  127.6830   66.4376 H   0  0  0  0  0  0  0  0  0  0  0  0
  131.3101  128.9562   68.5667 H   0  0  0  0  0  0  0  0  0  0  0  0
  129.9348  128.3376   70.5463 H   0  0  0  0  0  0  0  0  0  0  0  0
  128.3038  126.4633   70.4124 H   0  0  0  0  0  0  0  0  0  0  0  0
  128.0528  125.1816   68.2871 H   0  0  0  0  0  0  0  0  0  0  0  0
  131.3090  121.3590   63.8680 H   0  0  0  0  0  0  0  0  0  0  0  0
  131.5380  122.5230   65.1150 H   0  0  0  0  0  0  0  0  0  0  0  0
  1  2  1  0
  2  3  2  0
  3  4  1  0
  4  5  1  0
  5  6  2  0
  6  7  1  0
  7  8  2  0
  8  9  1  0
  9 10  2  0
  4 11  2  0
 11 12  1  0
 12 13  1  0
 13 14  1  0
 14 15  1  0
 15 16  2  0
 15 17  1  0
 17 18  1  0
 18 19  2  0
 19 20  1  0
 20 21  2  0
 21 22  1  0
 22 23  2  0
 14 24  2  0
 24 25  1  0
 24 26  1  0
 26  2  1  0
 10  5  1  0
 26 12  2  0
 23 18  1  0
  1 27  1  0
  1 28  1  0
  1 29  1  0
  3 30  1  0
  6 31  1  0
  7 32  1  0
  8 33  1  0
  9 34  1  0
 10 35  1  0
 17 36  1  0
 19 37  1  0
 20 38  1  0
 21 39  1  0
 22 40  1  0
 23 41  1  0
 25 42  1  0
 25 43  1  0
M  END
>  <Binding energies>  (1) 
[-8.11]

>  <Ligand effiencies>  (1) 
[-0.27965517241379306]

>  <Interactions>  (1) 
["V-B:GLU:543:C:9871, V-A:HIS:456:CE1:4066, V-A:GLU:543:C:4899, V-A:GLU:543:CB:4903, V-B:GLU:543:CB:9875, V-B:HIS:456:CE1:9038, V-B:TYR:539:CE1:9844, V-B:PRO:540:CA:9852, V-B:TYR:539:CZ:9846, V-B:PRO:540:N:9853, V-B:PRO:540:CB:9854, V-B:LEU:363:CD1:8157, V-B:ALA:541:CB:9861, H-B:GLU:543:OE2:9879, H-B:GLU:543:OE1:9878, V-B:GLU:543:CD:9877, V-B:GLU:543:CG:9876, V-A:TYR:484:CZ:4343, V-B:TYR:539:CE2:9845, V-A:TYR:484:CE1:4341, V-B:ILE:538:CB:9831, V-A:LEU:475:CD1:4254, V-B:TYR:539:C:9836, V-B:TYR:539:CD2:9843, V-B:TYR:539:CD1:9842, V-B:TYR:539:CG:9841, H-A:TYR:484:OH:4344, V-A:LEU:475:CD2:4255, V-A:LEU:475:CG:4253"]

$$$$
4dg_Grossjean_2025
     RDKit          3D

 46 49  0  0  0  0  0  0  0  0999 V2000
  132.1280  128.5320   68.6980 C   0  0  0  0  0  0  0  0  0  0  0  0
  130.8780  127.7220   68.3890 C   0  0  0  0  0  0  0  0  0  0  0  0
  130.7060  127.2440   67.0840 C   0  0  0  0  0  0  0  0  0  0  0  0
  129.5780  126.4930   66.7350 C   0  0  0  0  0  0  0  0  0  0  0  0
  129.3670  125.9660   65.3440 C   0  0  0  0  0  0  0  0  0  0  0  0
  129.6350  124.6220   65.0330 C   0  0  0  0  0  0  0  0  0  0  0  0
  129.4450  124.1300   63.7440 C   0  0  0  0  0  0  0  0  0  0  0  0
  128.9830  124.9770   62.7430 C   0  0  0  0  0  0  0  0  0  0  0  0
  128.7130  126.3130   63.0210 C   0  0  0  0  0  0  0  0  0  0  0  0
  128.9050  126.8010   64.3110 C   0  0  0  0  0  0  0  0  0  0  0  0
  128.6150  126.1800   67.6440 N   0  0  0  0  0  0  0  0  0  0  0  0
  128.7760  126.6340   68.8870 C   0  0  0  0  0  0  0  0  0  0  0  0
  127.6110  126.3100   70.1490 S   0  0  0  0  0  0  0  0  0  0  0  0
  128.5700  127.2100   71.3240 C   0  0  0  0  0  0  0  0  0  0  0  0
  128.0880  127.3720   72.6950 C   0  0  0  0  0  0  0  0  0  0  0  0
  128.8660  127.5820   73.6280 O   0  0  0  0  0  0  0  0  0  0  0  0
  126.7570  127.2390   72.8720 N   0  0  0  0  0  0  0  0  0  0  0  0
  126.0540  127.3820   74.1460 C   0  0  0  0  0  0  0  0  0  0  0  0
  125.8370  128.8340   74.5580 C   0  0  0  0  0  0  0  0  0  0  0  0
  126.7730  129.8060   74.1950 C   0  0  0  0  0  0  0  0  0  0  0  0
  126.5630  131.1380   74.5430 C   0  0  0  0  0  0  0  0  0  0  0  0
  125.4110  131.4950   75.2410 C   0  0  0  0  0  0  0  0  0  0  0  0
  124.4650  130.5330   75.5920 C   0  0  0  0  0  0  0  0  0  0  0  0
  124.6750  129.2020   75.2430 C   0  0  0  0  0  0  0  0  0  0  0  0
  129.7280  127.7420   70.7370 C   0  0  0  0  0  0  0  0  0  0  0  0
  130.6490  128.4980   71.4160 N   0  0  0  0  0  0  0  0  0  0  0  0
  129.8750  127.4150   69.3440 C   0  0  0  0  0  0  0  0  0  0  0  0
  132.2525  128.6127   69.7879 H   0  0  0  0  0  0  0  0  0  0  0  0
  133.0061  128.0308   68.2647 H   0  0  0  0  0  0  0  0  0  0  0  0
  132.0293  129.5383   68.2647 H   0  0  0  0  0  0  0  0  0  0  0  0
  131.4688  127.4621   66.3221 H   0  0  0  0  0  0  0  0  0  0  0  0
  130.0010  123.9472   65.8209 H   0  0  0  0  0  0  0  0  0  0  0  0
  129.6597  123.0749   63.5187 H   0  0  0  0  0  0  0  0  0  0  0  0
  128.8301  124.5885   61.7253 H   0  0  0  0  0  0  0  0  0  0  0  0
  128.3497  126.9806   62.2258 H   0  0  0  0  0  0  0  0  0  0  0  0
  128.6915  127.8585   64.5259 H   0  0  0  0  0  0  0  0  0  0  0  0
  126.1750  127.1470   72.0520 H   0  0  0  0  0  0  0  0  0  0  0  0
  125.0722  126.8937   74.0592 H   0  0  0  0  0  0  0  0  0  0  0  0
  126.6833  126.9158   74.9184 H   0  0  0  0  0  0  0  0  0  0  0  0
  127.6751  129.5192   73.6347 H   0  0  0  0  0  0  0  0  0  0  0  0
  127.3027  131.9044   74.2683 H   0  0  0  0  0  0  0  0  0  0  0  0
  125.2463  132.5468   75.5179 H   0  0  0  0  0  0  0  0  0  0  0  0
  123.5577  130.8242   76.1416 H   0  0  0  0  0  0  0  0  0  0  0  0
  123.9268  128.4397   75.5061 H   0  0  0  0  0  0  0  0  0  0  0  0
  130.5680  129.5020   71.4870 H   0  0  0  0  0  0  0  0  0  0  0  0
  131.4410  128.0710   71.8760 H   0  0  0  0  0  0  0  0  0  0  0  0
  1  2  1  0
  2  3  2  0
  3  4  1  0
  4  5  1  0
  5  6  2  0
  6  7  1  0
  7  8  2  0
  8  9  1  0
  9 10  2  0
  4 11  2  0
 11 12  1  0
 12 13  1  0
 13 14  1  0
 14 15  1  0
 15 16  2  0
 15 17  1  0
 17 18  1  0
 18 19  1  0
 19 20  2  0
 20 21  1  0
 21 22  2  0
 22 23  1  0
 23 24  2  0
 14 25  2  0
 25 26  1  0
 25 27  1  0
 27  2  1  0
 10  5  1  0
 27 12  2  0
 24 19  1  0
  1 28  1  0
  1 29  1  0
  1 30  1  0
  3 31  1  0
  6 32  1  0
  7 33  1  0
  8 34  1  0
  9 35  1  0
 10 36  1  0
 17 37  1  0
 18 38  1  0
 18 39  1  0
 20 40  1  0
 21 41  1  0
 22 42  1  0
 23 43  1  0
 24 44  1  0
 26 45  1  0
 26 46  1  0
M  END
>  <Binding energies>  (1) 
[-8.11]

>  <Ligand effiencies>  (1) 
[-0.2703333333333333]

>  <Interactions>  (1) 
["V-A:GLU:543:CD:4905, V-B:GLU:543:C:9871, V-B:LYS:547:CE:9919, V-B:LYS:471:CE:9188, V-B:VAL:458:CG2:9055, V-B:HIS:456:CG:9034, H-A:LYS:547:NZ:4948, V-A:GLY:544:C:4909, V-B:HIS:456:CB:9033, V-A:HIS:456:CE1:4066, V-A:GLU:543:C:4899, V-A:GLU:543:CB:4903, H-A:GLU:543:O:4900, V-B:GLU:543:CB:9875, V-B:HIS:456:C:9029, V-A:GLY:544:CA:4911, V-B:HIS:456:CE1:9038, V-B:GLY:544:C:9881, V-B:HIS:456:CD2:9036, V-B:GLU:543:CD:9877, H-B:HIS:456:NE2:9039, V-B:GLU:543:CG:9876, V-A:ARG:545:CG:4919, V-B:LYS:547:CD:9918, V-B:ASP:473:CG:9208, V-B:ASP:473:CB:9207, V-B:VAL:457:C:9041, V-B:LYS:471:CB:9185, V-A:GLU:543:CA:4901, H-B:GLY:544:O:9882, V-A:ARG:545:CA:4916, H-A:GLY:544:O:4910, V-A:ARG:545:CB:4918"]

$$$$
4dj_Grossjean_2025
     RDKit          3D

 39 42  0  0  0  0  0  0  0  0999 V2000
  130.4950  120.4060   61.8900 C   0  0  0  0  0  0  0  0  0  0  0  0
  129.7380  121.6720   61.5190 C   0  0  0  0  0  0  0  0  0  0  0  0
  129.0050  121.6780   60.3260 C   0  0  0  0  0  0  0  0  0  0  0  0
  128.2880  122.8120   59.9280 C   0  0  0  0  0  0  0  0  0  0  0  0
  127.4890  122.8450   58.6560 C   0  0  0  0  0  0  0  0  0  0  0  0
  128.0560  122.4380   57.4370 C   0  0  0  0  0  0  0  0  0  0  0  0
  127.3210  122.4660   56.2550 C   0  0  0  0  0  0  0  0  0  0  0  0
  126.0020  122.9090   56.2740 C   0  0  0  0  0  0  0  0  0  0  0  0
  125.4160  123.3220   57.4660 C   0  0  0  0  0  0  0  0  0  0  0  0
  126.1540  123.2910   58.6450 C   0  0  0  0  0  0  0  0  0  0  0  0
  128.2570  123.9450   60.6820 N   0  0  0  0  0  0  0  0  0  0  0  0
  128.9550  123.9410   61.8170 C   0  0  0  0  0  0  0  0  0  0  0  0
  129.0090  125.3320   62.8770 S   0  0  0  0  0  0  0  0  0  0  0  0
  130.0640  124.4850   64.0110 C   0  0  0  0  0  0  0  0  0  0  0  0
  130.5330  125.1530   65.2250 C   0  0  0  0  0  0  0  0  0  0  0  0
  131.6640  124.9340   65.6690 O   0  0  0  0  0  0  0  0  0  0  0  0
  129.6460  125.9970   65.8070 N   0  0  0  0  0  0  0  0  0  0  0  0
  129.8380  126.7470   66.9590 C   0  0  0  0  0  0  0  0  0  0  0  0
  130.8380  127.5550   67.2390 N   0  0  0  0  0  0  0  0  0  0  0  0
  130.6970  128.1070   68.4290 C   0  0  0  0  0  0  0  0  0  0  0  0
  129.5580  127.7480   69.1420 C   0  0  0  0  0  0  0  0  0  0  0  0
  128.6280  126.6250   68.1950 S   0  0  0  0  0  0  0  0  0  0  0  0
  130.3490  123.1860   63.5620 C   0  0  0  0  0  0  0  0  0  0  0  0
  131.1480  122.3020   64.2430 N   0  0  0  0  0  0  0  0  0  0  0  0
  129.7250  122.8500   62.3110 C   0  0  0  0  0  0  0  0  0  0  0  0
  130.5477  120.3179   62.9852 H   0  0  0  0  0  0  0  0  0  0  0  0
  129.9716  119.5313   61.4766 H   0  0  0  0  0  0  0  0  0  0  0  0
  131.5133  120.4532   61.4766 H   0  0  0  0  0  0  0  0  0  0  0  0
  128.9926  120.7787   59.6927 H   0  0  0  0  0  0  0  0  0  0  0  0
  129.0996  122.0909   57.4160 H   0  0  0  0  0  0  0  0  0  0  0  0
  127.7807  122.1395   55.3105 H   0  0  0  0  0  0  0  0  0  0  0  0
  125.4195  122.9327   55.3412 H   0  0  0  0  0  0  0  0  0  0  0  0
  124.3731  123.6718   57.4764 H   0  0  0  0  0  0  0  0  0  0  0  0
  125.6863  123.6206   59.5845 H   0  0  0  0  0  0  0  0  0  0  0  0
  128.7430  126.0960   65.3660 H   0  0  0  0  0  0  0  0  0  0  0  0
  131.4383  128.8113   68.8344 H   0  0  0  0  0  0  0  0  0  0  0  0
  129.2890  128.1153   70.1434 H   0  0  0  0  0  0  0  0  0  0  0  0
  131.5850  122.5430   65.1200 H   0  0  0  0  0  0  0  0  0  0  0  0
  131.3260  121.3730   63.8840 H   0  0  0  0  0  0  0  0  0  0  0  0
  1  2  1  0
  2  3  2  0
  3  4  1  0
  4  5  1  0
  5  6  2  0
  6  7  1  0
  7  8  2  0
  8  9  1  0
  9 10  2  0
  4 11  2  0
 11 12  1  0
 12 13  1  0
 13 14  1  0
 14 15  1  0
 15 16  2  0
 15 17  1  0
 17 18  1  0
 18 19  2  0
 19 20  1  0
 20 21  2  0
 21 22  1  0
 14 23  2  0
 23 24  1  0
 23 25  1  0
 25  2  1  0
 10  5  1  0
 25 12  2  0
 22 18  1  0
  1 26  1  0
  1 27  1  0
  1 28  1  0
  3 29  1  0
  6 30  1  0
  7 31  1  0
  8 32  1  0
  9 33  1  0
 10 34  1  0
 17 35  1  0
 20 36  1  0
 21 37  1  0
 24 38  1  0
 24 39  1  0
M  END
>  <Binding energies>  (1) 
[-7.34]

>  <Ligand effiencies>  (1) 
[-0.2621428571428571]

>  <Interactions>  (1) 
["V-A:HIS:456:CE1:4066, V-A:GLU:543:C:4899, V-A:GLU:543:CB:4903, V-B:GLU:543:CB:9875, V-B:HIS:456:CE1:9038, V-B:TYR:539:CE1:9844, V-B:PRO:540:CA:9852, V-B:TYR:539:CZ:9846, V-B:PRO:540:N:9853, V-B:PRO:540:CB:9854, V-B:LEU:363:CD1:8157, V-B:ALA:541:CB:9861, H-B:GLU:543:OE2:9879, H-B:GLU:543:OE1:9878, V-B:GLU:543:CD:9877, V-B:GLU:543:CG:9876, V-A:TYR:484:CZ:4343, V-B:TYR:539:CE2:9845, V-A:TYR:484:CE1:4341, V-B:ILE:538:CB:9831, V-A:LEU:475:CD1:4254, V-B:TYR:539:C:9836, V-B:TYR:539:CD2:9843, V-B:TYR:539:CD1:9842, V-B:TYR:539:CG:9841, H-A:TYR:484:OH:4344, V-A:LEU:475:CD2:4255, V-A:LEU:475:CG:4253"]

$$$$
4ea_Grossjean_2025
     RDKit          3D

 52 55  0  0  0  0  0  0  0  0999 V2000
  127.8310  122.1340   59.7040 C   0  0  0  0  0  0  0  0  0  0  0  0
  128.5880  122.0940   58.3740 C   0  0  0  0  0  0  0  0  0  0  0  0
  127.7250  121.6070   57.3540 O   0  0  0  0  0  0  0  0  0  0  0  0
  127.1440  122.4520   56.4640 C   0  0  0  0  0  0  0  0  0  0  0  0
  126.9470  122.1610   55.2800 O   0  0  0  0  0  0  0  0  0  0  0  0
  126.7660  123.7760   57.0620 C   0  0  0  0  0  0  0  0  0  0  0  0
  127.7290  124.7910   57.1380 C   0  0  0  0  0  0  0  0  0  0  0  0
  127.4100  126.0300   57.6880 C   0  0  0  0  0  0  0  0  0  0  0  0
  126.1260  126.2800   58.1720 C   0  0  0  0  0  0  0  0  0  0  0  0
  125.9190  127.5670   58.7040 N   0  0  0  0  0  0  0  0  0  0  0  0
  126.4220  128.7670   58.3230 C   0  0  0  0  0  0  0  0  0  0  0  0
  127.1970  128.9260   57.3800 O   0  0  0  0  0  0  0  0  0  0  0  0
  125.9790  129.9120   59.1230 C   0  0  0  0  0  0  0  0  0  0  0  0
  125.2900  131.3370   58.3400 S   0  0  0  0  0  0  0  0  0  0  0  0
  125.0590  132.1320   59.8800 C   0  0  0  0  0  0  0  0  0  0  0  0
  124.5280  133.3520   59.9700 N   0  0  0  0  0  0  0  0  0  0  0  0
  124.4020  133.8560   61.2230 C   0  0  0  0  0  0  0  0  0  0  0  0
  123.7960  135.2450   61.3020 C   0  0  0  0  0  0  0  0  0  0  0  0
  124.7910  133.1760   62.3740 C   0  0  0  0  0  0  0  0  0  0  0  0
  125.3480  131.8970   62.2750 C   0  0  0  0  0  0  0  0  0  0  0  0
  125.7570  131.1860   63.5080 C   0  0  0  0  0  0  0  0  0  0  0  0
  127.0140  131.4240   64.0720 C   0  0  0  0  0  0  0  0  0  0  0  0
  127.3980  130.7580   65.2330 C   0  0  0  0  0  0  0  0  0  0  0  0
  126.5250  129.8510   65.8280 C   0  0  0  0  0  0  0  0  0  0  0  0
  125.2720  129.6030   65.2720 C   0  0  0  0  0  0  0  0  0  0  0  0
  124.8900  130.2700   64.1110 C   0  0  0  0  0  0  0  0  0  0  0  0
  125.4970  131.3320   60.9780 C   0  0  0  0  0  0  0  0  0  0  0  0
  126.0170  130.0700   60.5180 C   0  0  0  0  0  0  0  0  0  0  0  0
  126.5030  129.1210   61.3800 N   0  0  0  0  0  0  0  0  0  0  0  0
  125.1550  125.2690   58.0990 C   0  0  0  0  0  0  0  0  0  0  0  0
  125.4750  124.0310   57.5500 C   0  0  0  0  0  0  0  0  0  0  0  0
  128.5494  122.0960   60.5361 H   0  0  0  0  0  0  0  0  0  0  0  0
  127.2472  123.0642   59.7658 H   0  0  0  0  0  0  0  0  0  0  0  0
  127.1524  121.2705   59.7658 H   0  0  0  0  0  0  0  0  0  0  0  0
  128.9277  123.1075   58.1144 H   0  0  0  0  0  0  0  0  0  0  0  0
  129.4592  121.4289   58.4668 H   0  0  0  0  0  0  0  0  0  0  0  0
  128.7456  124.6076   56.7600 H   0  0  0  0  0  0  0  0  0  0  0  0
  128.1763  126.8173   57.7411 H   0  0  0  0  0  0  0  0  0  0  0  0
  125.2930  127.5860   59.4960 H   0  0  0  0  0  0  0  0  0  0  0  0
  123.6712  135.5311   62.3568 H   0  0  0  0  0  0  0  0  0  0  0  0
  124.4620  135.9645   60.8032 H   0  0  0  0  0  0  0  0  0  0  0  0
  122.8156  135.2462   60.8032 H   0  0  0  0  0  0  0  0  0  0  0  0
  124.6603  133.6445   63.3606 H   0  0  0  0  0  0  0  0  0  0  0  0
  127.7016  132.1394   63.5972 H   0  0  0  0  0  0  0  0  0  0  0  0
  128.3860  130.9475   65.6779 H   0  0  0  0  0  0  0  0  0  0  0  0
  126.8276  129.3254   66.7457 H   0  0  0  0  0  0  0  0  0  0  0  0
  124.5883  128.8843   65.7475 H   0  0  0  0  0  0  0  0  0  0  0  0
  123.9027  130.0755   63.6668 H   0  0  0  0  0  0  0  0  0  0  0  0
  127.4190  129.2000   61.8000 H   0  0  0  0  0  0  0  0  0  0  0  0
  125.9580  128.3060   61.6270 H   0  0  0  0  0  0  0  0  0  0  0  0
  124.1389  125.4557   58.4766 H   0  0  0  0  0  0  0  0  0  0  0  0
  124.7082  123.2441   57.4980 H   0  0  0  0  0  0  0  0  0  0  0  0
  1  2  1  0
  2  3  1  0
  3  4  1  0
  4  5  2  0
  4  6  1  0
  6  7  2  0
  7  8  1  0
  8  9  2  0
  9 10  1  0
 10 11  1  0
 11 12  2  0
 11 13  1  0
 13 14  1  0
 14 15  1  0
 15 16  2  0
 16 17  1  0
 17 18  1  0
 17 19  2  0
 19 20  1  0
 20 21  1  0
 21 22  2  0
 22 23  1  0
 23 24  2  0
 24 25  1  0
 25 26  2  0
 20 27  2  0
 27 28  1  0
 28 29  1  0
  9 30  1  0
 30 31  2  0
 31  6  1  0
 28 13  2  0
 27 15  1  0
 26 21  1  0
  1 32  1  0
  1 33  1  0
  1 34  1  0
  2 35  1  0
  2 36  1  0
  7 37  1  0
  8 38  1  0
 10 39  1  0
 18 40  1  0
 18 41  1  0
 18 42  1  0
 19 43  1  0
 22 44  1  0
 23 45  1  0
 24 46  1  0
 25 47  1  0
 26 48  1  0
 29 49  1  0
 29 50  1  0
 30 51  1  0
 31 52  1  0
M  END
>  <Binding energies>  (1) 
[-8.92]

>  <Ligand effiencies>  (1) 
[-0.26235294117647057]

>  <Interactions>  (1) 
["H-A:GLU:543:OE2:4907, V-B:TRP:381:CZ2:8338, V-B:TRP:381:CH2:8340, V-A:GLU:543:CD:4905, V-A:TYR:539:CE2:4873, V-B:LEU:475:CD2:9227, V-B:HIS:456:CE1:9038, V-B:ASP:366:CB:8180, V-B:TYR:539:CE1:9844, V-B:MET:535:CE:9804, V-B:PRO:540:CA:9852, V-B:TYR:539:CZ:9846, H-B:ASP:366:OD1:8182, V-B:PRO:540:N:9853, V-B:ILE:369:CG2:8205, V-B:PRO:540:C:9850, V-B:ASP:366:CG:8181, H-B:TYR:539:N:9839, H-B:TYR:531:OH:9764, V-B:ALA:541:CB:9861, V-B:TYR:539:CE2:9845, V-A:GLU:543:CG:4904, V-B:TYR:539:C:9836, V-B:TYR:539:CD2:9843, V-B:ILE:369:CD1:8207, V-B:TYR:539:CD1:9842, V-B:TYR:539:CG:9841, V-B:ARG:545:CZ:9895, V-B:TYR:484:CE1:9313, V-B:TYR:484:CZ:9315, V-B:SER:385:CA:8375, V-B:SER:385:C:8373"]

$$$$
4eb_Grossjean_2025
     RDKit          3D

 49 52  0  0  0  0  0  0  0  0999 V2000
  128.1540  122.7620   54.9560 C   0  0  0  0  0  0  0  0  0  0  0  0
  127.5030  121.7880   55.7590 O   0  0  0  0  0  0  0  0  0  0  0  0
  126.4890  122.1350   56.5930 C   0  0  0  0  0  0  0  0  0  0  0  0
  125.2980  121.9540   56.3260 O   0  0  0  0  0  0  0  0  0  0  0  0
  126.9620  122.7620   57.8730 C   0  0  0  0  0  0  0  0  0  0  0  0
  126.4170  123.9880   58.2760 C   0  0  0  0  0  0  0  0  0  0  0  0
  126.8340  124.5950   59.4560 C   0  0  0  0  0  0  0  0  0  0  0  0
  127.8030  123.9900   60.2590 C   0  0  0  0  0  0  0  0  0  0  0  0
  128.1480  124.6940   61.4290 N   0  0  0  0  0  0  0  0  0  0  0  0
  129.3400  125.1980   61.8320 C   0  0  0  0  0  0  0  0  0  0  0  0
  130.3840  125.1090   61.1860 O   0  0  0  0  0  0  0  0  0  0  0  0
  129.3240  125.8800   63.1280 C   0  0  0  0  0  0  0  0  0  0  0  0
  130.4810  125.4360   64.3850 S   0  0  0  0  0  0  0  0  0  0  0  0
  129.8200  126.6260   65.4830 C   0  0  0  0  0  0  0  0  0  0  0  0
  130.3080  126.7990   66.7120 N   0  0  0  0  0  0  0  0  0  0  0  0
  129.7070  127.7540   67.4630 C   0  0  0  0  0  0  0  0  0  0  0  0
  130.2780  127.9340   68.8580 C   0  0  0  0  0  0  0  0  0  0  0  0
  128.6400  128.5320   67.0180 C   0  0  0  0  0  0  0  0  0  0  0  0
  128.1320  128.3470   65.7280 C   0  0  0  0  0  0  0  0  0  0  0  0
  126.9970  129.1820   65.2690 C   0  0  0  0  0  0  0  0  0  0  0  0
  127.2260  130.2800   64.4350 C   0  0  0  0  0  0  0  0  0  0  0  0
  126.1600  131.0650   64.0020 C   0  0  0  0  0  0  0  0  0  0  0  0
  124.8640  130.7510   64.4070 C   0  0  0  0  0  0  0  0  0  0  0  0
  124.6270  129.6600   65.2400 C   0  0  0  0  0  0  0  0  0  0  0  0
  125.6940  128.8770   65.6720 C   0  0  0  0  0  0  0  0  0  0  0  0
  128.7350  127.3540   64.9080 C   0  0  0  0  0  0  0  0  0  0  0  0
  128.4740  126.9090   63.5650 C   0  0  0  0  0  0  0  0  0  0  0  0
  127.4780  127.4520   62.7940 N   0  0  0  0  0  0  0  0  0  0  0  0
  128.3550  122.7620   59.8640 C   0  0  0  0  0  0  0  0  0  0  0  0
  127.9360  122.1570   58.6820 C   0  0  0  0  0  0  0  0  0  0  0  0
  128.6479  123.5009   55.6041 H   0  0  0  0  0  0  0  0  0  0  0  0
  128.9059  122.2706   54.3210 H   0  0  0  0  0  0  0  0  0  0  0  0
  127.4124  123.2688   54.3210 H   0  0  0  0  0  0  0  0  0  0  0  0
  125.6521  124.4752   57.6534 H   0  0  0  0  0  0  0  0  0  0  0  0
  126.3974  125.5582   59.7587 H   0  0  0  0  0  0  0  0  0  0  0  0
  127.3750  124.8410   62.0610 H   0  0  0  0  0  0  0  0  0  0  0  0
  129.5070  127.6909   69.6040 H   0  0  0  0  0  0  0  0  0  0  0  0
  131.1404  127.2642   68.9904 H   0  0  0  0  0  0  0  0  0  0  0  0
  130.6004  128.9773   68.9904 H   0  0  0  0  0  0  0  0  0  0  0  0
  128.1978  129.2907   67.6804 H   0  0  0  0  0  0  0  0  0  0  0  0
  128.2510  130.5249   64.1197 H   0  0  0  0  0  0  0  0  0  0  0  0
  126.3401  131.9280   63.3441 H   0  0  0  0  0  0  0  0  0  0  0  0
  124.0211  131.3700   64.0660 H   0  0  0  0  0  0  0  0  0  0  0  0
  123.6012  129.4182   65.5551 H   0  0  0  0  0  0  0  0  0  0  0  0
  125.5111  128.0163   66.3321 H   0  0  0  0  0  0  0  0  0  0  0  0
  126.5820  126.9970   62.6850 H   0  0  0  0  0  0  0  0  0  0  0  0
  127.6060  128.3290   62.3070 H   0  0  0  0  0  0  0  0  0  0  0  0
  129.1194  122.2768   60.4887 H   0  0  0  0  0  0  0  0  0  0  0  0
  128.3733  121.1942   58.3790 H   0  0  0  0  0  0  0  0  0  0  0  0
  1  2  1  0
  2  3  1  0
  3  4  2  0
  3  5  1  0
  5  6  2  0
  6  7  1  0
  7  8  2  0
  8  9  1  0
  9 10  1  0
 10 11  2  0
 10 12  1  0
 12 13  1  0
 13 14  1  0
 14 15  2  0
 15 16  1  0
 16 17  1  0
 16 18  2  0
 18 19  1  0
 19 20  1  0
 20 21  2  0
 21 22  1  0
 22 23  2  0
 23 24  1  0
 24 25  2  0
 19 26  2  0
 26 27  1  0
 27 28  1  0
  8 29  1  0
 29 30  2  0
 30  5  1  0
 27 12  2  0
 26 14  1  0
 25 20  1  0
  1 31  1  0
  1 32  1  0
  1 33  1  0
  6 34  1  0
  7 35  1  0
  9 36  1  0
 17 37  1  0
 17 38  1  0
 17 39  1  0
 18 40  1  0
 21 41  1  0
 22 42  1  0
 23 43  1  0
 24 44  1  0
 25 45  1  0
 28 46  1  0
 28 47  1  0
 29 48  1  0
 30 49  1  0
M  END
>  <Binding energies>  (1) 
[-8.95]

>  <Ligand effiencies>  (1) 
[-0.2712121212121212]

>  <Interactions>  (1) 
["H-A:GLU:543:OE2:4907, V-A:GLU:543:CD:4905, V-A:HIS:456:CE1:4066, V-A:GLU:543:C:4899, V-A:GLU:543:CB:4903, V-B:HIS:456:CE1:9038, V-B:TYR:539:CE1:9844, V-B:MET:535:CE:9804, V-B:PRO:540:CA:9852, H-B:ASP:366:OD1:8182, V-B:PRO:540:N:9853, V-B:PRO:540:CB:9854, H-B:TYR:539:N:9839, H-B:GLU:543:OE2:9879, H-B:GLU:543:OE1:9878, V-B:GLU:543:CD:9877, V-B:TYR:539:CE2:9845, V-A:GLU:543:CG:4904, V-B:ILE:538:CG2:9832, V-B:ILE:538:CB:9831, V-B:PRO:540:CD:9856, V-B:TYR:539:C:9836, V-B:TYR:539:CD2:9843, V-B:ILE:538:CA:9829, V-B:TYR:539:CD1:9842, V-B:TYR:539:CG:9841, V-B:ARG:545:CZ:9895, V-B:GLY:454:CA:9017, V-B:ARG:545:CD:9892"]

$$$$
8a_Ghoteimi_2023
     RDKit          3D

 67 71  0  0  0  0  0  0  0  0999 V2000
  124.8360  123.2470   57.1100 C   0  0  0  0  0  0  0  0  0  0  0  0
  125.2400  122.5610   55.8030 C   0  0  0  0  0  0  0  0  0  0  0  0
  126.3770  121.7380   56.0320 O   0  0  0  0  0  0  0  0  0  0  0  0
  127.6190  122.2780   56.1590 C   0  0  0  0  0  0  0  0  0  0  0  0
  128.4930  122.1800   55.2920 O   0  0  0  0  0  0  0  0  0  0  0  0
  127.8230  122.9990   57.4600 C   0  0  0  0  0  0  0  0  0  0  0  0
  128.0100  122.2550   58.6310 C   0  0  0  0  0  0  0  0  0  0  0  0
  128.2000  122.8940   59.8530 C   0  0  0  0  0  0  0  0  0  0  0  0
  128.2070  124.2880   59.9310 C   0  0  0  0  0  0  0  0  0  0  0  0
  128.4030  124.8240   61.2190 N   0  0  0  0  0  0  0  0  0  0  0  0
  129.5450  125.1890   61.8520 C   0  0  0  0  0  0  0  0  0  0  0  0
  130.6700  125.0980   61.3610 O   0  0  0  0  0  0  0  0  0  0  0  0
  129.3650  125.7250   63.2050 C   0  0  0  0  0  0  0  0  0  0  0  0
  130.2030  124.9930   64.5720 S   0  0  0  0  0  0  0  0  0  0  0  0
  129.4790  126.1300   65.6850 C   0  0  0  0  0  0  0  0  0  0  0  0
  129.7220  126.0790   66.9950 N   0  0  0  0  0  0  0  0  0  0  0  0
  129.1030  127.0070   67.7730 C   0  0  0  0  0  0  0  0  0  0  0  0
  129.3740  126.9190   69.2410 C   0  0  0  0  0  0  0  0  0  0  0  0
  128.6510  126.0380   70.0580 C   0  0  0  0  0  0  0  0  0  0  0  0
  128.9000  125.9690   71.4260 C   0  0  0  0  0  0  0  0  0  0  0  0
  129.8750  126.7740   72.0100 C   0  0  0  0  0  0  0  0  0  0  0  0
  130.0520  126.6400   73.3750 O   0  0  0  0  0  0  0  0  0  0  0  0
  130.5320  125.4040   73.8930 C   0  0  0  0  0  0  0  0  0  0  0  0
  130.6070  127.6540   71.2010 C   0  0  0  0  0  0  0  0  0  0  0  0
  130.3550  127.7230   69.8330 C   0  0  0  0  0  0  0  0  0  0  0  0
  128.2550  127.9810   67.2420 C   0  0  0  0  0  0  0  0  0  0  0  0
  128.0100  128.0480   65.8660 C   0  0  0  0  0  0  0  0  0  0  0  0
  127.1250  129.1230   65.3500 C   0  0  0  0  0  0  0  0  0  0  0  0
  125.7440  128.9260   65.2840 C   0  0  0  0  0  0  0  0  0  0  0  0
  124.9100  129.9390   64.8210 C   0  0  0  0  0  0  0  0  0  0  0  0
  125.4380  131.1670   64.4200 C   0  0  0  0  0  0  0  0  0  0  0  0
  124.5350  132.1120   63.9750 O   0  0  0  0  0  0  0  0  0  0  0  0
  124.1260  132.0940   62.6130 C   0  0  0  0  0  0  0  0  0  0  0  0
  126.8250  131.3690   64.4920 C   0  0  0  0  0  0  0  0  0  0  0  0
  127.6580  130.3550   64.9580 C   0  0  0  0  0  0  0  0  0  0  0  0
  128.6300  127.0730   65.0340 C   0  0  0  0  0  0  0  0  0  0  0  0
  128.5690  126.8050   63.6180 C   0  0  0  0  0  0  0  0  0  0  0  0
  127.7850  127.5380   62.7630 N   0  0  0  0  0  0  0  0  0  0  0  0
  128.0250  125.0410   58.7610 C   0  0  0  0  0  0  0  0  0  0  0  0
  127.8340  124.4000   57.5400 C   0  0  0  0  0  0  0  0  0  0  0  0
  125.1887  122.6482   57.9627 H   0  0  0  0  0  0  0  0  0  0  0  0
  125.2884  124.2487   57.1534 H   0  0  0  0  0  0  0  0  0  0  0  0
  123.7406  123.3372   57.1534 H   0  0  0  0  0  0  0  0  0  0  0  0
  124.4061  121.9419   55.4407 H   0  0  0  0  0  0  0  0  0  0  0  0
  125.4848  123.3235   55.0489 H   0  0  0  0  0  0  0  0  0  0  0  0
  128.0068  121.1560   58.5851 H   0  0  0  0  0  0  0  0  0  0  0  0
  128.3458  122.2958   60.7646 H   0  0  0  0  0  0  0  0  0  0  0  0
  127.5500  124.9630   61.7400 H   0  0  0  0  0  0  0  0  0  0  0  0
  127.8782  125.3940   69.6129 H   0  0  0  0  0  0  0  0  0  0  0  0
  128.3217  125.2727   72.0510 H   0  0  0  0  0  0  0  0  0  0  0  0
  130.5190  125.4374   74.9924 H   0  0  0  0  0  0  0  0  0  0  0  0
  129.8867  124.5846   73.5434 H   0  0  0  0  0  0  0  0  0  0  0  0
  131.5612  125.2349   73.5434 H   0  0  0  0  0  0  0  0  0  0  0  0
  131.3832  128.2924   71.6482 H   0  0  0  0  0  0  0  0  0  0  0  0
  130.9350  128.4190   69.2091 H   0  0  0  0  0  0  0  0  0  0  0  0
  127.7729  128.7056   67.9147 H   0  0  0  0  0  0  0  0  0  0  0  0
  125.3131  127.9645   65.5999 H   0  0  0  0  0  0  0  0  0  0  0  0
  123.8242  129.7703   64.7706 H   0  0  0  0  0  0  0  0  0  0  0  0
  123.0283  132.0457   62.5604 H   0  0  0  0  0  0  0  0  0  0  0  0
  124.4772  133.0085   62.1126 H   0  0  0  0  0  0  0  0  0  0  0  0
  124.5562  131.2139   62.1126 H   0  0  0  0  0  0  0  0  0  0  0  0
  127.2556  132.3317   64.1792 H   0  0  0  0  0  0  0  0  0  0  0  0
  128.7432  130.5244   65.0182 H   0  0  0  0  0  0  0  0  0  0  0  0
  128.1090  128.4120   62.3700 H   0  0  0  0  0  0  0  0  0  0  0  0
  126.8630  127.2310   62.4920 H   0  0  0  0  0  0  0  0  0  0  0  0
  128.0333  126.1399   58.8087 H   0  0  0  0  0  0  0  0  0  0  0  0
  127.6902  124.9982   56.6281 H   0  0  0  0  0  0  0  0  0  0  0  0
  1  2  1  0
  2  3  1  0
  3  4  1  0
  4  5  2  0
  4  6  1  0
  6  7  2  0
  7  8  1  0
  8  9  2  0
  9 10  1  0
 10 11  1  0
 11 12  2  0
 11 13  1  0
 13 14  1  0
 14 15  1  0
 15 16  2  0
 16 17  1  0
 17 18  1  0
 18 19  2  0
 19 20  1  0
 20 21  2  0
 21 22  1  0
 22 23  1  0
 21 24  1  0
 24 25  2  0
 17 26  2  0
 26 27  1  0
 27 28  1  0
 28 29  2  0
 29 30  1  0
 30 31  2  0
 31 32  1  0
 32 33  1  0
 31 34  1  0
 34 35  2  0
 27 36  2  0
 36 37  1  0
 37 38  1  0
  9 39  1  0
 39 40  2  0
 40  6  1  0
 37 13  2  0
 36 15  1  0
 25 18  1  0
 35 28  1  0
  1 41  1  0
  1 42  1  0
  1 43  1  0
  2 44  1  0
  2 45  1  0
  7 46  1  0
  8 47  1  0
 10 48  1  0
 19 49  1  0
 20 50  1  0
 23 51  1  0
 23 52  1  0
 23 53  1  0
 24 54  1  0
 25 55  1  0
 26 56  1  0
 29 57  1  0
 30 58  1  0
 33 59  1  0
 33 60  1  0
 33 61  1  0
 34 62  1  0
 35 63  1  0
 38 64  1  0
 38 65  1  0
 39 66  1  0
 40 67  1  0
M  END
>  <Binding energies>  (1) 
[-10.52]

>  <Ligand effiencies>  (1) 
[-0.24465116279069765]

>  <Interactions>  (1) 
["H-A:GLU:543:OE2:4907, V-A:GLU:543:CD:4905, V-B:GLU:543:C:9871, V-B:LYS:547:CE:9919, H-A:LYS:547:NZ:4948, V-A:GLY:544:C:4909, V-A:HIS:456:CE1:4066, V-A:HIS:456:CD2:4064, V-B:GLU:543:CB:9875, V-B:HIS:456:CE1:9038, V-B:TYR:539:CE1:9844, V-B:MET:535:CE:9804, V-B:PRO:540:CA:9852, V-B:TYR:539:CZ:9846, H-B:ASP:366:OD1:8182, V-B:PRO:540:N:9853, V-B:PRO:540:CB:9854, H-B:TYR:539:N:9839, V-B:LEU:363:CD1:8157, H-B:GLU:543:OE2:9879, H-B:GLU:543:OE1:9878, V-B:GLU:543:CD:9877, V-B:GLU:543:CG:9876, V-B:TYR:539:CE2:9845, V-A:GLU:543:CG:4904, V-B:ILE:538:CG2:9832, V-B:ILE:538:CB:9831, V-B:PRO:540:CD:9856, V-B:TYR:539:C:9836, V-B:TYR:539:CD2:9843, V-B:ILE:369:CD1:8207, V-B:ILE:538:CA:9829, V-B:TYR:539:CD1:9842, V-B:ARG:545:CZ:9895, H-B:TYR:484:OH:9316, H-B:GLY:454:N:9018, V-B:GLY:454:CA:9017"]

$$$$
8b_Ghoteimi_2023
     RDKit          3D

 54 58  0  0  0  0  0  0  0  0999 V2000
  124.0860  133.7380   61.8410 C   0  0  0  0  0  0  0  0  0  0  0  0
  123.7230  132.8900   62.9260 O   0  0  0  0  0  0  0  0  0  0  0  0
  124.5940  131.8930   63.3210 C   0  0  0  0  0  0  0  0  0  0  0  0
  125.8180  132.3060   63.8440 C   0  0  0  0  0  0  0  0  0  0  0  0
  126.7590  131.3720   64.2670 C   0  0  0  0  0  0  0  0  0  0  0  0
  126.4990  129.9970   64.1780 C   0  0  0  0  0  0  0  0  0  0  0  0
  127.5070  128.9880   64.6290 C   0  0  0  0  0  0  0  0  0  0  0  0
  127.6750  128.6680   65.9810 C   0  0  0  0  0  0  0  0  0  0  0  0
  128.6240  127.7210   66.3770 C   0  0  0  0  0  0  0  0  0  0  0  0
  128.7830  127.4120   67.8170 C   0  0  0  0  0  0  0  0  0  0  0  0
  129.8300  127.9780   68.5460 C   0  0  0  0  0  0  0  0  0  0  0  0
  129.9720  127.6940   69.9020 C   0  0  0  0  0  0  0  0  0  0  0  0
  129.0740  126.8410   70.5460 C   0  0  0  0  0  0  0  0  0  0  0  0
  129.2920  126.6180   71.8920 O   0  0  0  0  0  0  0  0  0  0  0  0
  128.3350  127.0850   72.8370 C   0  0  0  0  0  0  0  0  0  0  0  0
  128.0250  126.2700   69.8090 C   0  0  0  0  0  0  0  0  0  0  0  0
  127.8840  126.5550   68.4540 C   0  0  0  0  0  0  0  0  0  0  0  0
  129.4030  127.0930   65.3680 C   0  0  0  0  0  0  0  0  0  0  0  0
  130.4390  126.0940   65.4150 C   0  0  0  0  0  0  0  0  0  0  0  0
  130.8720  125.5400   66.5930 N   0  0  0  0  0  0  0  0  0  0  0  0
  130.9520  125.7480   64.1550 C   0  0  0  0  0  0  0  0  0  0  0  0
  131.9990  124.7760   63.8330 C   0  0  0  0  0  0  0  0  0  0  0  0
  132.4810  124.0570   64.7120 O   0  0  0  0  0  0  0  0  0  0  0  0
  132.3790  124.7390   62.5310 N   0  0  0  0  0  0  0  0  0  0  0  0
  133.3370  123.9190   61.9530 C   0  0  0  0  0  0  0  0  0  0  0  0
  133.0210  122.8640   61.0980 C   0  0  0  0  0  0  0  0  0  0  0  0
  134.2320  122.3080   60.7530 C   0  0  0  0  0  0  0  0  0  0  0  0
  135.2250  122.9940   61.3640 O   0  0  0  0  0  0  0  0  0  0  0  0
  134.6470  124.0140   62.1220 N   0  0  0  0  0  0  0  0  0  0  0  0
  130.1550  126.6580   62.8710 S   0  0  0  0  0  0  0  0  0  0  0  0
  129.1430  127.4930   64.0260 C   0  0  0  0  0  0  0  0  0  0  0  0
  128.2400  128.3980   63.6480 N   0  0  0  0  0  0  0  0  0  0  0  0
  125.2660  129.5880   63.6540 C   0  0  0  0  0  0  0  0  0  0  0  0
  124.3220  130.5200   63.2290 C   0  0  0  0  0  0  0  0  0  0  0  0
  124.4904  134.6827   62.2334 H   0  0  0  0  0  0  0  0  0  0  0  0
  124.8497  133.2397   61.2258 H   0  0  0  0  0  0  0  0  0  0  0  0
  123.1983  133.9466   61.2258 H   0  0  0  0  0  0  0  0  0  0  0  0
  126.0423  133.3800   63.9232 H   0  0  0  0  0  0  0  0  0  0  0  0
  127.7198  131.7171   64.6767 H   0  0  0  0  0  0  0  0  0  0  0  0
  127.0540  129.1667   66.7398 H   0  0  0  0  0  0  0  0  0  0  0  0
  130.5447  128.6500   68.0483 H   0  0  0  0  0  0  0  0  0  0  0  0
  130.7986  128.1455   70.4702 H   0  0  0  0  0  0  0  0  0  0  0  0
  128.7072  126.9034   73.8561 H   0  0  0  0  0  0  0  0  0  0  0  0
  128.1731  128.1634   72.6925 H   0  0  0  0  0  0  0  0  0  0  0  0
  127.3853  126.5491   72.6925 H   0  0  0  0  0  0  0  0  0  0  0  0
  127.3116  125.5947   70.3041 H   0  0  0  0  0  0  0  0  0  0  0  0
  127.0602  126.1027   67.8824 H   0  0  0  0  0  0  0  0  0  0  0  0
  130.5810  125.9110   67.4870 H   0  0  0  0  0  0  0  0  0  0  0  0
  131.4970  124.7470   66.6090 H   0  0  0  0  0  0  0  0  0  0  0  0
  131.9140  125.3760   61.9010 H   0  0  0  0  0  0  0  0  0  0  0  0
  132.0206  122.5451   60.7702 H   0  0  0  0  0  0  0  0  0  0  0  0
  134.3703  121.4437   60.0867 H   0  0  0  0  0  0  0  0  0  0  0  0
  125.0397  128.5143   63.5769 H   0  0  0  0  0  0  0  0  0  0  0  0
  123.3599  130.1781   62.8198 H   0  0  0  0  0  0  0  0  0  0  0  0
  1  2  1  0
  2  3  1  0
  3  4  2  0
  4  5  1  0
  5  6  2  0
  6  7  1  0
  7  8  2  0
  8  9  1  0
  9 10  1  0
 10 11  2  0
 11 12  1  0
 12 13  2  0
 13 14  1  0
 14 15  1  0
 13 16  1  0
 16 17  2  0
  9 18  2  0
 18 19  1  0
 19 20  1  0
 19 21  2  0
 21 22  1  0
 22 23  2  0
 22 24  1  0
 24 25  1  0
 25 26  1  0
 26 27  2  0
 27 28  1  0
 28 29  1  0
 21 30  1  0
 30 31  1  0
 31 32  2  0
  6 33  1  0
 33 34  2  0
 34  3  1  0
 32  7  1  0
 17 10  1  0
 31 18  1  0
 29 25  2  0
  1 35  1  0
  1 36  1  0
  1 37  1  0
  4 38  1  0
  5 39  1  0
  8 40  1  0
 11 41  1  0
 12 42  1  0
 15 43  1  0
 15 44  1  0
 15 45  1  0
 16 46  1  0
 17 47  1  0
 20 48  1  0
 20 49  1  0
 24 50  1  0
 26 51  1  0
 27 52  1  0
 33 53  1  0
 34 54  1  0
M  END
>  <Binding energies>  (1) 
[-8.56]

>  <Ligand effiencies>  (1) 
[-0.23135135135135138]

>  <Interactions>  (1) 
["V-A:ASP:366:CG:3209, H-A:ASP:366:OD1:3210, V-A:GLU:543:CD:4905, V-B:LEU:475:CD2:9227, V-B:GLU:543:C:9871, V-B:LYS:547:CE:9919, V-A:HIS:456:CE1:4066, V-A:GLU:543:CB:4903, V-B:GLU:543:CB:9875, V-B:HIS:456:CE1:9038, V-B:GLY:544:C:9881, V-B:HIS:456:CD2:9036, V-B:ILE:369:CG2:8205, V-B:ASP:366:CG:8181, V-B:GLU:543:CD:9877, V-A:TYR:484:CZ:4343, V-B:TYR:539:CE2:9845, V-A:ILE:369:CG1:3234, V-A:ILE:369:CB:3232, V-B:ILE:369:CD1:8207, H-A:GLY:454:N:4046, H-A:ASP:366:OD2:3211, V-A:ILE:369:CG2:3233, V-B:ARG:545:CZ:9895, H-A:TYR:484:OH:4344, H-B:GLY:454:N:9018, V-B:GLY:454:CA:9017, H-A:HIS:456:NE2:4067"]

$$$$
8c_Ghoteimi_2023
     RDKit          3D

 54 58  0  0  0  0  0  0  0  0999 V2000
  124.0380  133.6970   62.0260 C   0  0  0  0  0  0  0  0  0  0  0  0
  124.1440  133.3610   63.4050 O   0  0  0  0  0  0  0  0  0  0  0  0
  125.0350  132.3780   63.7930 C   0  0  0  0  0  0  0  0  0  0  0  0
  124.6150  131.0590   63.6370 C   0  0  0  0  0  0  0  0  0  0  0  0
  125.4450  130.0040   64.0040 C   0  0  0  0  0  0  0  0  0  0  0  0
  126.7200  130.2420   64.5370 C   0  0  0  0  0  0  0  0  0  0  0  0
  127.6160  129.1120   64.9360 C   0  0  0  0  0  0  0  0  0  0  0  0
  127.8710  128.8130   66.2780 C   0  0  0  0  0  0  0  0  0  0  0  0
  128.7110  127.7500   66.6250 C   0  0  0  0  0  0  0  0  0  0  0  0
  128.9680  127.4650   68.0540 C   0  0  0  0  0  0  0  0  0  0  0  0
  130.0720  128.0300   68.6970 C   0  0  0  0  0  0  0  0  0  0  0  0
  130.3070  127.7690   70.0440 C   0  0  0  0  0  0  0  0  0  0  0  0
  129.4480  126.9400   70.7660 C   0  0  0  0  0  0  0  0  0  0  0  0
  129.7580  126.7400   72.0980 O   0  0  0  0  0  0  0  0  0  0  0  0
  129.7360  125.4180   72.6250 C   0  0  0  0  0  0  0  0  0  0  0  0
  128.3410  126.3690   70.1180 C   0  0  0  0  0  0  0  0  0  0  0  0
  128.1070  126.6320   68.7710 C   0  0  0  0  0  0  0  0  0  0  0  0
  129.2870  126.9840   65.5760 C   0  0  0  0  0  0  0  0  0  0  0  0
  130.1720  125.8490   65.5690 C   0  0  0  0  0  0  0  0  0  0  0  0
  130.6400  125.2750   66.7240 N   0  0  0  0  0  0  0  0  0  0  0  0
  130.5030  125.3930   64.2830 C   0  0  0  0  0  0  0  0  0  0  0  0
  131.3650  124.2710   63.9070 C   0  0  0  0  0  0  0  0  0  0  0  0
  131.4700  123.2840   64.6380 O   0  0  0  0  0  0  0  0  0  0  0  0
  132.0170  124.4090   62.7260 N   0  0  0  0  0  0  0  0  0  0  0  0
  132.8860  123.4990   62.1410 C   0  0  0  0  0  0  0  0  0  0  0  0
  134.1850  123.6170   61.9690 N   0  0  0  0  0  0  0  0  0  0  0  0
  134.6940  122.5540   61.3780 C   0  0  0  0  0  0  0  0  0  0  0  0
  133.7980  121.5400   61.0560 C   0  0  0  0  0  0  0  0  0  0  0  0
  132.2030  122.0160   61.5570 S   0  0  0  0  0  0  0  0  0  0  0  0
  129.7150  126.3670   63.0400 S   0  0  0  0  0  0  0  0  0  0  0  0
  128.9530  127.3760   64.2470 C   0  0  0  0  0  0  0  0  0  0  0  0
  128.1540  128.3910   63.9160 N   0  0  0  0  0  0  0  0  0  0  0  0
  127.1370  131.5720   64.6880 C   0  0  0  0  0  0  0  0  0  0  0  0
  126.3090  132.6290   64.3230 C   0  0  0  0  0  0  0  0  0  0  0  0
  123.7084  134.7418   61.9275 H   0  0  0  0  0  0  0  0  0  0  0  0
  125.0184  133.5746   61.5424 H   0  0  0  0  0  0  0  0  0  0  0  0
  123.3053  133.0342   61.5424 H   0  0  0  0  0  0  0  0  0  0  0  0
  123.6188  130.8496   63.2202 H   0  0  0  0  0  0  0  0  0  0  0  0
  125.0960  128.9689   63.8742 H   0  0  0  0  0  0  0  0  0  0  0  0
  127.4062  129.4201   67.0688 H   0  0  0  0  0  0  0  0  0  0  0  0
  130.7577  128.6831   68.1372 H   0  0  0  0  0  0  0  0  0  0  0  0
  131.1772  128.2201   70.5433 H   0  0  0  0  0  0  0  0  0  0  0  0
  129.7367  125.4614   73.7241 H   0  0  0  0  0  0  0  0  0  0  0  0
  128.8291  124.9004   72.2791 H   0  0  0  0  0  0  0  0  0  0  0  0
  130.6252  124.8705   72.2791 H   0  0  0  0  0  0  0  0  0  0  0  0
  127.6571  125.7124   70.6758 H   0  0  0  0  0  0  0  0  0  0  0  0
  127.2386  126.1808   68.2687 H   0  0  0  0  0  0  0  0  0  0  0  0
  131.1350  124.3930   66.7110 H   0  0  0  0  0  0  0  0  0  0  0  0
  130.5070  125.7100   67.6250 H   0  0  0  0  0  0  0  0  0  0  0  0
  131.8570  125.2600   62.2050 H   0  0  0  0  0  0  0  0  0  0  0  0
  135.7675  122.4735   61.1521 H   0  0  0  0  0  0  0  0  0  0  0  0
  134.0568  120.5908   60.5641 H   0  0  0  0  0  0  0  0  0  0  0  0
  128.1342  131.7832   65.1014 H   0  0  0  0  0  0  0  0  0  0  0  0
  126.6549  133.6654   64.4506 H   0  0  0  0  0  0  0  0  0  0  0  0
  1  2  1  0
  2  3  1  0
  3  4  2  0
  4  5  1  0
  5  6  2  0
  6  7  1  0
  7  8  2  0
  8  9  1  0
  9 10  1  0
 10 11  2  0
 11 12  1  0
 12 13  2  0
 13 14  1  0
 14 15  1  0
 13 16  1  0
 16 17  2  0
  9 18  2  0
 18 19  1  0
 19 20  1  0
 19 21  2  0
 21 22  1  0
 22 23  2  0
 22 24  1  0
 24 25  1  0
 25 26  2  0
 26 27  1  0
 27 28  2  0
 28 29  1  0
 21 30  1  0
 30 31  1  0
 31 32  2  0
  6 33  1  0
 33 34  2  0
 34  3  1  0
 32  7  1  0
 17 10  1  0
 31 18  1  0
 29 25  1  0
  1 35  1  0
  1 36  1  0
  1 37  1  0
  4 38  1  0
  5 39  1  0
  8 40  1  0
 11 41  1  0
 12 42  1  0
 15 43  1  0
 15 44  1  0
 15 45  1  0
 16 46  1  0
 17 47  1  0
 20 48  1  0
 20 49  1  0
 24 50  1  0
 27 51  1  0
 28 52  1  0
 33 53  1  0
 34 54  1  0
M  END
>  <Binding energies>  (1) 
[-8.67]

>  <Ligand effiencies>  (1) 
[-0.23432432432432432]

>  <Interactions>  (1) 
["H-A:ASP:366:OD1:3210, V-A:GLU:543:CD:4905, V-B:LEU:475:CD2:9227, V-B:LYS:547:CE:9919, H-A:LYS:547:NZ:4948, V-A:HIS:456:CE1:4066, V-A:GLU:543:C:4899, V-A:GLU:543:CB:4903, V-A:HIS:456:CD2:4064, V-B:GLU:543:CB:9875, V-B:HIS:456:CE1:9038, V-B:ILE:369:CG2:8205, V-B:GLU:543:CD:9877, V-A:TYR:484:CZ:4343, V-B:TYR:539:CE2:9845, V-A:TYR:484:CE1:4341, V-A:GLU:543:CG:4904, V-A:LEU:475:CD1:4254, V-A:ILE:369:CG1:3234, V-A:ILE:369:CB:3232, V-B:ILE:369:CD1:8207, H-A:GLY:454:N:4046, H-A:ASP:366:OD2:3211, V-A:ILE:369:CG2:3233, V-A:GLY:454:CA:4045, V-A:GLY:453:C:4038, H-A:TYR:484:OH:4344, H-B:GLY:454:N:9018, V-B:GLY:454:CA:9017, V-B:TYR:484:CE1:9313, V-B:TYR:484:CZ:9315, H-A:HIS:456:NE2:4067"]

$$$$
8d_Ghoteimi_2023
     RDKit          3D

 50 53  0  0  0  0  0  0  0  0999 V2000
  133.0260  124.8740   64.6350 C   0  0  0  0  0  0  0  0  0  0  0  0
  132.1930  123.7270   64.7320 O   0  0  0  0  0  0  0  0  0  0  0  0
  130.9310  123.7380   64.2280 C   0  0  0  0  0  0  0  0  0  0  0  0
  130.4540  122.8300   63.5440 O   0  0  0  0  0  0  0  0  0  0  0  0
  130.1790  124.9610   64.5850 C   0  0  0  0  0  0  0  0  0  0  0  0
  129.3930  125.9110   63.3230 S   0  0  0  0  0  0  0  0  0  0  0  0
  128.8010  127.0590   64.5010 C   0  0  0  0  0  0  0  0  0  0  0  0
  128.0670  128.1140   64.1480 N   0  0  0  0  0  0  0  0  0  0  0  0
  127.6560  128.9440   65.1450 C   0  0  0  0  0  0  0  0  0  0  0  0
  126.8380  130.1220   64.7210 C   0  0  0  0  0  0  0  0  0  0  0  0
  125.5260  129.9630   64.2530 C   0  0  0  0  0  0  0  0  0  0  0  0
  124.7690  131.0630   63.8600 C   0  0  0  0  0  0  0  0  0  0  0  0
  125.3030  132.3490   63.9220 C   0  0  0  0  0  0  0  0  0  0  0  0
  124.4800  133.3800   63.5120 O   0  0  0  0  0  0  0  0  0  0  0  0
  124.0920  133.4570   62.1440 C   0  0  0  0  0  0  0  0  0  0  0  0
  126.6130  132.5210   64.3900 C   0  0  0  0  0  0  0  0  0  0  0  0
  127.3670  131.4180   64.7830 C   0  0  0  0  0  0  0  0  0  0  0  0
  127.9860  128.7210   66.4850 C   0  0  0  0  0  0  0  0  0  0  0  0
  128.7540  127.6130   66.8550 C   0  0  0  0  0  0  0  0  0  0  0  0
  129.0790  127.3990   68.2850 C   0  0  0  0  0  0  0  0  0  0  0  0
  130.2300  127.9670   68.8350 C   0  0  0  0  0  0  0  0  0  0  0  0
  130.5400  127.7590   70.1760 C   0  0  0  0  0  0  0  0  0  0  0  0
  129.7070  126.9860   70.9860 C   0  0  0  0  0  0  0  0  0  0  0  0
  130.0940  126.8330   72.3020 O   0  0  0  0  0  0  0  0  0  0  0  0
  129.8580  125.5920   72.9560 C   0  0  0  0  0  0  0  0  0  0  0  0
  128.5470  126.4190   70.4300 C   0  0  0  0  0  0  0  0  0  0  0  0
  128.2390  126.6280   69.0890 C   0  0  0  0  0  0  0  0  0  0  0  0
  129.1910  126.7310   65.8310 C   0  0  0  0  0  0  0  0  0  0  0  0
  129.9770  125.5290   65.8490 C   0  0  0  0  0  0  0  0  0  0  0  0
  130.4850  124.9950   67.0060 N   0  0  0  0  0  0  0  0  0  0  0  0
  133.2826  125.2273   65.6446 H   0  0  0  0  0  0  0  0  0  0  0  0
  133.9469  124.6136   64.0926 H   0  0  0  0  0  0  0  0  0  0  0  0
  132.4934  125.6691   64.0926 H   0  0  0  0  0  0  0  0  0  0  0  0
  125.0889  128.9552   64.1956 H   0  0  0  0  0  0  0  0  0  0  0  0
  123.7409  130.9162   63.4975 H   0  0  0  0  0  0  0  0  0  0  0  0
  123.0149  133.6708   62.0798 H   0  0  0  0  0  0  0  0  0  0  0  0
  124.6555  134.2608   61.6477 H   0  0  0  0  0  0  0  0  0  0  0  0
  124.3059  132.4989   61.6477 H   0  0  0  0  0  0  0  0  0  0  0  0
  127.0468  133.5302   64.4470 H   0  0  0  0  0  0  0  0  0  0  0  0
  128.3940  131.5666   65.1478 H   0  0  0  0  0  0  0  0  0  0  0  0
  127.6379  129.4243   67.2559 H   0  0  0  0  0  0  0  0  0  0  0  0
  130.8932  128.5802   68.2072 H   0  0  0  0  0  0  0  0  0  0  0  0
  131.4498  128.2080   70.6011 H   0  0  0  0  0  0  0  0  0  0  0  0
  129.8862  125.7405   74.0456 H   0  0  0  0  0  0  0  0  0  0  0  0
  128.8703  125.2057   72.6641 H   0  0  0  0  0  0  0  0  0  0  0  0
  130.6350  124.8701   72.6641 H   0  0  0  0  0  0  0  0  0  0  0  0
  127.8807  125.8082   71.0568 H   0  0  0  0  0  0  0  0  0  0  0  0
  127.3287  126.1831   68.6608 H   0  0  0  0  0  0  0  0  0  0  0  0
  130.1200  125.2540   67.9110 H   0  0  0  0  0  0  0  0  0  0  0  0
  131.2380  124.3210   66.9930 H   0  0  0  0  0  0  0  0  0  0  0  0
  1  2  1  0
  2  3  1  0
  3  4  2  0
  3  5  1  0
  5  6  1  0
  6  7  1  0
  7  8  2  0
  8  9  1  0
  9 10  1  0
 10 11  2  0
 11 12  1  0
 12 13  2  0
 13 14  1  0
 14 15  1  0
 13 16  1  0
 16 17  2  0
  9 18  2  0
 18 19  1  0
 19 20  1  0
 20 21  2  0
 21 22  1  0
 22 23  2  0
 23 24  1  0
 24 25  1  0
 23 26  1  0
 26 27  2  0
 19 28  2  0
 28 29  1  0
 29 30  1  0
 29  5  2  0
 28  7  1  0
 17 10  1  0
 27 20  1  0
  1 31  1  0
  1 32  1  0
  1 33  1  0
 11 34  1  0
 12 35  1  0
 15 36  1  0
 15 37  1  0
 15 38  1  0
 16 39  1  0
 17 40  1  0
 18 41  1  0
 21 42  1  0
 22 43  1  0
 25 44  1  0
 25 45  1  0
 25 46  1  0
 26 47  1  0
 27 48  1  0
 30 49  1  0
 30 50  1  0
M  END
>  <Binding energies>  (1) 
[-7.41]

>  <Ligand effiencies>  (1) 
[-0.2315625]

>  <Interactions>  (1) 
["V-A:GLU:543:CD:4905, V-B:LEU:475:CD2:9227, V-B:LYS:547:CE:9919, H-A:LYS:547:NZ:4948, V-A:GLY:544:C:4909, V-A:HIS:456:CE1:4066, V-A:GLU:543:C:4899, V-A:GLU:543:CB:4903, V-A:HIS:456:CD2:4064, V-B:HIS:456:CE1:9038, V-B:GLU:543:CD:9877, V-B:GLU:543:CG:9876, V-A:ARG:545:CZ:4923, V-A:TYR:484:CZ:4343, V-A:TYR:484:CE1:4341, V-A:GLU:543:CG:4904, V-B:ILE:369:CD1:8207, H-A:TYR:484:OH:4344, H-B:GLY:454:N:9018, V-B:GLY:454:CA:9017, V-B:TYR:484:CE1:9313, V-B:TYR:484:CZ:9315, H-A:HIS:456:NE2:4067, H-B:GLU:543:O:9872"]

$$$$
9a_Ghoteimi_2023
     RDKit          3D

 85 91  0  0  0  0  0  0  0  0999 V2000
  130.8710  123.9950   54.7580 C   0  0  0  0  0  0  0  0  0  0  0  0
  129.4040  124.0630   55.1950 C   0  0  0  0  0  0  0  0  0  0  0  0
  128.8400  122.7580   55.1650 O   0  0  0  0  0  0  0  0  0  0  0  0
  127.8180  122.4170   55.9910 C   0  0  0  0  0  0  0  0  0  0  0  0
  126.8300  121.7730   55.6210 O   0  0  0  0  0  0  0  0  0  0  0  0
  128.0030  122.9060   57.3980 C   0  0  0  0  0  0  0  0  0  0  0  0
  127.6830  124.2330   57.7100 C   0  0  0  0  0  0  0  0  0  0  0  0
  127.8450  124.7170   59.0050 C   0  0  0  0  0  0  0  0  0  0  0  0
  128.3290  123.8860   60.0150 C   0  0  0  0  0  0  0  0  0  0  0  0
  128.4520  124.4820   61.2850 N   0  0  0  0  0  0  0  0  0  0  0  0
  129.5490  124.6870   62.0560 C   0  0  0  0  0  0  0  0  0  0  0  0
  130.6910  124.3590   61.7360 O   0  0  0  0  0  0  0  0  0  0  0  0
  129.2970  125.3530   63.3380 C   0  0  0  0  0  0  0  0  0  0  0  0
  129.7350  124.5630   64.8530 S   0  0  0  0  0  0  0  0  0  0  0  0
  129.1580  125.9260   65.7830 C   0  0  0  0  0  0  0  0  0  0  0  0
  129.2380  125.9480   67.1130 N   0  0  0  0  0  0  0  0  0  0  0  0
  128.7720  127.0600   67.7400 C   0  0  0  0  0  0  0  0  0  0  0  0
  128.8820  127.0680   69.2310 C   0  0  0  0  0  0  0  0  0  0  0  0
  127.9520  126.3780   70.0160 C   0  0  0  0  0  0  0  0  0  0  0  0
  128.0480  126.3800   71.4050 C   0  0  0  0  0  0  0  0  0  0  0  0
  129.0860  127.0600   72.0600 C   0  0  0  0  0  0  0  0  0  0  0  0
  129.1840  127.0860   73.4550 N   0  0  0  0  0  0  0  0  0  0  0  0
  128.1450  127.7200   74.2910 C   0  0  0  0  0  0  0  0  0  0  0  0
  128.5850  127.9750   75.7480 C   0  0  0  0  0  0  0  0  0  0  0  0
  129.0440  126.7690   76.3350 O   0  0  0  0  0  0  0  0  0  0  0  0
  130.1550  126.2370   75.6300 C   0  0  0  0  0  0  0  0  0  0  0  0
  129.7550  125.9270   74.1730 C   0  0  0  0  0  0  0  0  0  0  0  0
  130.0070  127.7620   71.2690 C   0  0  0  0  0  0  0  0  0  0  0  0
  129.9090  127.7630   69.8810 C   0  0  0  0  0  0  0  0  0  0  0  0
  128.2040  128.1280   67.0420 C   0  0  0  0  0  0  0  0  0  0  0  0
  128.0990  128.0990   65.6460 C   0  0  0  0  0  0  0  0  0  0  0  0
  127.4540  129.2450   64.9560 C   0  0  0  0  0  0  0  0  0  0  0  0
  127.8690  130.5550   65.2090 C   0  0  0  0  0  0  0  0  0  0  0  0
  127.2730  131.6260   64.5510 C   0  0  0  0  0  0  0  0  0  0  0  0
  126.2550  131.4150   63.6070 C   0  0  0  0  0  0  0  0  0  0  0  0
  125.6340  132.4750   62.9420 N   0  0  0  0  0  0  0  0  0  0  0  0
  124.1590  132.5230   62.8840 C   0  0  0  0  0  0  0  0  0  0  0  0
  123.6090  133.9040   62.4690 C   0  0  0  0  0  0  0  0  0  0  0  0
  124.1780  134.3030   61.2320 O   0  0  0  0  0  0  0  0  0  0  0  0
  125.5910  134.4020   61.3110 C   0  0  0  0  0  0  0  0  0  0  0  0
  126.1940  133.0340   61.6950 C   0  0  0  0  0  0  0  0  0  0  0  0
  125.8480  130.0960   63.3580 C   0  0  0  0  0  0  0  0  0  0  0  0
  126.4420  129.0250   64.0190 C   0  0  0  0  0  0  0  0  0  0  0  0
  128.6150  126.9600   64.9660 C   0  0  0  0  0  0  0  0  0  0  0  0
  128.7290  126.6150   63.5700 C   0  0  0  0  0  0  0  0  0  0  0  0
  128.3300  127.4600   62.5660 N   0  0  0  0  0  0  0  0  0  0  0  0
  128.6490  122.5520   59.7140 C   0  0  0  0  0  0  0  0  0  0  0  0
  128.4870  122.0710   58.4170 C   0  0  0  0  0  0  0  0  0  0  0  0
  131.5175  123.9650   55.6474 H   0  0  0  0  0  0  0  0  0  0  0  0
  131.0327  123.0884   54.1564 H   0  0  0  0  0  0  0  0  0  0  0  0
  131.1159  124.8828   54.1564 H   0  0  0  0  0  0  0  0  0  0  0  0
  129.3441  124.4650   56.2171 H   0  0  0  0  0  0  0  0  0  0  0  0
  128.8471  124.7192   54.5099 H   0  0  0  0  0  0  0  0  0  0  0  0
  127.2997  124.8998   56.9236 H   0  0  0  0  0  0  0  0  0  0  0  0
  127.5895  125.7623   59.2333 H   0  0  0  0  0  0  0  0  0  0  0  0
  127.5790  124.8080   61.6720 H   0  0  0  0  0  0  0  0  0  0  0  0
  127.1340  125.8265   69.5294 H   0  0  0  0  0  0  0  0  0  0  0  0
  127.2969  125.8390   71.9993 H   0  0  0  0  0  0  0  0  0  0  0  0
  127.8757  128.6848   73.8365 H   0  0  0  0  0  0  0  0  0  0  0  0
  127.2966  127.0210   74.3311 H   0  0  0  0  0  0  0  0  0  0  0  0
  129.3969  128.7171   75.7586 H   0  0  0  0  0  0  0  0  0  0  0  0
  127.7266  128.3522   76.3232 H   0  0  0  0  0  0  0  0  0  0  0  0
  130.9747  126.9705   75.6346 H   0  0  0  0  0  0  0  0  0  0  0  0
  130.4830  125.3084   76.1201 H   0  0  0  0  0  0  0  0  0  0  0  0
  130.6508  125.5895   73.6311 H   0  0  0  0  0  0  0  0  0  0  0  0
  128.9725  125.1549   74.2114 H   0  0  0  0  0  0  0  0  0  0  0  0
  130.8206  128.3213   71.7540 H   0  0  0  0  0  0  0  0  0  0  0  0
  130.6491  128.3179   69.2858 H   0  0  0  0  0  0  0  0  0  0  0  0
  127.8343  129.0034   67.5961 H   0  0  0  0  0  0  0  0  0  0  0  0
  128.6742  130.7411   65.9350 H   0  0  0  0  0  0  0  0  0  0  0  0
  127.6034  132.6514   64.7730 H   0  0  0  0  0  0  0  0  0  0  0  0
  123.8138  131.7760   62.1541 H   0  0  0  0  0  0  0  0  0  0  0  0
  123.7861  132.3151   63.8978 H   0  0  0  0  0  0  0  0  0  0  0  0
  122.5157  133.8438   62.3641 H   0  0  0  0  0  0  0  0  0  0  0  0
  123.8705  134.6428   63.2409 H   0  0  0  0  0  0  0  0  0  0  0  0
  125.9896  134.7150   60.3347 H   0  0  0  0  0  0  0  0  0  0  0  0
  125.8593  135.1436   62.0779 H   0  0  0  0  0  0  0  0  0  0  0  0
  125.9991  132.3251   60.8768 H   0  0  0  0  0  0  0  0  0  0  0  0
  127.2699  133.1893   61.8634 H   0  0  0  0  0  0  0  0  0  0  0  0
  125.0468  129.9051   62.6289 H   0  0  0  0  0  0  0  0  0  0  0  0
  126.1122  127.9983   63.8020 H   0  0  0  0  0  0  0  0  0  0  0  0
  128.8210  128.3210   62.3670 H   0  0  0  0  0  0  0  0  0  0  0  0
  127.5260  127.2500   61.9910 H   0  0  0  0  0  0  0  0  0  0  0  0
  129.0280  121.8864   60.5035 H   0  0  0  0  0  0  0  0  0  0  0  0
  128.7411  121.0254   58.1888 H   0  0  0  0  0  0  0  0  0  0  0  0
  1  2  1  0
  2  3  1  0
  3  4  1  0
  4  5  2  0
  4  6  1  0
  6  7  2  0
  7  8  1  0
  8  9  2  0
  9 10  1  0
 10 11  1  0
 11 12  2  0
 11 13  1  0
 13 14  1  0
 14 15  1  0
 15 16  2  0
 16 17  1  0
 17 18  1  0
 18 19  2  0
 19 20  1  0
 20 21  2  0
 21 22  1  0
 22 23  1  0
 23 24  1  0
 24 25  1  0
 25 26  1  0
 26 27  1  0
 21 28  1  0
 28 29  2  0
 17 30  2  0
 30 31  1  0
 31 32  1  0
 32 33  2  0
 33 34  1  0
 34 35  2  0
 35 36  1  0
 36 37  1  0
 37 38  1  0
 38 39  1  0
 39 40  1  0
 40 41  1  0
 35 42  1  0
 42 43  2  0
 31 44  2  0
 44 45  1  0
 45 46  1  0
  9 47  1  0
 47 48  2  0
 48  6  1  0
 45 13  2  0
 44 15  1  0
 29 18  1  0
 43 32  1  0
 27 22  1  0
 41 36  1  0
  1 49  1  0
  1 50  1  0
  1 51  1  0
  2 52  1  0
  2 53  1  0
  7 54  1  0
  8 55  1  0
 10 56  1  0
 19 57  1  0
 20 58  1  0
 23 59  1  0
 23 60  1  0
 24 61  1  0
 24 62  1  0
 26 63  1  0
 26 64  1  0
 27 65  1  0
 27 66  1  0
 28 67  1  0
 29 68  1  0
 30 69  1  0
 33 70  1  0
 34 71  1  0
 37 72  1  0
 37 73  1  0
 38 74  1  0
 38 75  1  0
 40 76  1  0
 40 77  1  0
 41 78  1  0
 41 79  1  0
 42 80  1  0
 43 81  1  0
 46 82  1  0
 46 83  1  0
 47 84  1  0
 48 85  1  0
M  END
>  <Binding energies>  (1) 
[-10.74]

>  <Ligand effiencies>  (1) 
[-0.21058823529411766]

>  <Interactions>  (1) 
["H-A:GLU:543:OE2:4907, V-A:GLU:543:CD:4905, V-B:LEU:475:CD2:9227, V-B:GLU:543:C:9871, V-B:LYS:547:CE:9919, V-A:LYS:547:CE:4947, V-A:HIS:456:CE1:4066, V-A:GLU:543:CB:4903, V-B:GLU:543:CB:9875, V-B:HIS:456:CE1:9038, V-B:GLY:544:C:9881, V-B:TYR:539:CE1:9844, V-B:MET:535:CE:9804, V-B:PRO:540:CA:9852, V-B:TYR:539:CZ:9846, V-B:PRO:540:N:9853, H-B:TYR:539:N:9839, H-B:GLU:543:OE2:9879, V-B:GLU:543:CD:9877, V-B:GLU:543:CG:9876, V-B:TYR:539:CE2:9845, V-A:GLU:543:CG:4904, V-B:TYR:539:C:9836, V-B:TYR:539:CD2:9843, V-B:ILE:369:CD1:8207, V-B:ILE:538:CA:9829, V-B:TYR:539:CD1:9842, V-B:TYR:539:CG:9841, V-B:GLY:454:CA:9017, V-B:TYR:484:CE1:9313"]

$$$$
9b_Ghoteimi_2023
     RDKit          3D

 72 78  0  0  0  0  0  0  0  0999 V2000
  129.2380  127.8990   62.9660 N   0  0  0  0  0  0  0  0  0  0  0  0
  128.6160  128.3110   64.1170 C   0  0  0  0  0  0  0  0  0  0  0  0
  127.6330  129.3110   64.1490 C   0  0  0  0  0  0  0  0  0  0  0  0
  127.0670  130.0730   63.0330 C   0  0  0  0  0  0  0  0  0  0  0  0
  125.9230  129.8480   62.6330 O   0  0  0  0  0  0  0  0  0  0  0  0
  127.8850  131.0120   62.4940 N   0  0  0  0  0  0  0  0  0  0  0  0
  127.6140  131.8610   61.4290 C   0  0  0  0  0  0  0  0  0  0  0  0
  126.9710  131.4420   60.2660 C   0  0  0  0  0  0  0  0  0  0  0  0
  126.8930  132.5650   59.4750 C   0  0  0  0  0  0  0  0  0  0  0  0
  127.4590  133.6070   60.1300 O   0  0  0  0  0  0  0  0  0  0  0  0
  127.9120  133.1490   61.3670 N   0  0  0  0  0  0  0  0  0  0  0  0
  127.0770  129.6060   65.7970 S   0  0  0  0  0  0  0  0  0  0  0  0
  128.1750  128.4040   66.4310 C   0  0  0  0  0  0  0  0  0  0  0  0
  128.2580  128.1530   67.7360 N   0  0  0  0  0  0  0  0  0  0  0  0
  129.1560  127.2110   68.1280 C   0  0  0  0  0  0  0  0  0  0  0  0
  129.2440  126.9640   69.5990 C   0  0  0  0  0  0  0  0  0  0  0  0
  130.1250  127.6950   70.4050 C   0  0  0  0  0  0  0  0  0  0  0  0
  130.2120  127.4510   71.7720 C   0  0  0  0  0  0  0  0  0  0  0  0
  129.4330  126.4560   72.3810 C   0  0  0  0  0  0  0  0  0  0  0  0
  129.5080  126.2000   73.7550 N   0  0  0  0  0  0  0  0  0  0  0  0
  128.9950  127.1670   74.7460 C   0  0  0  0  0  0  0  0  0  0  0  0
  128.8420  126.5830   76.1660 C   0  0  0  0  0  0  0  0  0  0  0  0
  130.0720  126.0220   76.5940 O   0  0  0  0  0  0  0  0  0  0  0  0
  130.4890  124.9710   75.7390 C   0  0  0  0  0  0  0  0  0  0  0  0
  130.6900  125.5020   74.3030 C   0  0  0  0  0  0  0  0  0  0  0  0
  128.5380  125.7400   71.5730 C   0  0  0  0  0  0  0  0  0  0  0  0
  128.4470  125.9880   70.2060 C   0  0  0  0  0  0  0  0  0  0  0  0
  129.9460  126.5080   67.2150 C   0  0  0  0  0  0  0  0  0  0  0  0
  129.8480  126.7540   65.8400 C   0  0  0  0  0  0  0  0  0  0  0  0
  130.6880  125.9590   64.9090 C   0  0  0  0  0  0  0  0  0  0  0  0
  132.0780  126.0840   64.9330 C   0  0  0  0  0  0  0  0  0  0  0  0
  132.8690  125.3260   64.0750 C   0  0  0  0  0  0  0  0  0  0  0  0
  132.2910  124.4220   63.1690 C   0  0  0  0  0  0  0  0  0  0  0  0
  133.0670  123.6400   62.3100 N   0  0  0  0  0  0  0  0  0  0  0  0
  133.0170  122.1700   62.4280 C   0  0  0  0  0  0  0  0  0  0  0  0
  134.1910  121.4620   61.7180 C   0  0  0  0  0  0  0  0  0  0  0  0
  134.2410  121.8550   60.3540 O   0  0  0  0  0  0  0  0  0  0  0  0
  134.4240  123.2560   60.2170 C   0  0  0  0  0  0  0  0  0  0  0  0
  133.2600  124.0100   60.8930 C   0  0  0  0  0  0  0  0  0  0  0  0
  130.8950  124.2920   63.1670 C   0  0  0  0  0  0  0  0  0  0  0  0
  130.1030  125.0510   64.0260 C   0  0  0  0  0  0  0  0  0  0  0  0
  128.9380  127.7610   65.4110 C   0  0  0  0  0  0  0  0  0  0  0  0
  129.8940  128.4900   62.4740 H   0  0  0  0  0  0  0  0  0  0  0  0
  129.0610  126.9870   62.5680 H   0  0  0  0  0  0  0  0  0  0  0  0
  128.8000  131.1160   62.9090 H   0  0  0  0  0  0  0  0  0  0  0  0
  126.6049  130.4317   60.0311 H   0  0  0  0  0  0  0  0  0  0  0  0
  126.4434  132.6096   58.4721 H   0  0  0  0  0  0  0  0  0  0  0  0
  130.7569  128.4727   69.9514 H   0  0  0  0  0  0  0  0  0  0  0  0
  130.9029  128.0481   72.3852 H   0  0  0  0  0  0  0  0  0  0  0  0
  129.6918  128.0168   74.7939 H   0  0  0  0  0  0  0  0  0  0  0  0
  127.9899  127.4643   74.4123 H   0  0  0  0  0  0  0  0  0  0  0  0
  128.5459  127.3839   76.8595 H   0  0  0  0  0  0  0  0  0  0  0  0
  128.0718  125.7978   76.1528 H   0  0  0  0  0  0  0  0  0  0  0  0
  131.4379  124.5557   76.1093 H   0  0  0  0  0  0  0  0  0  0  0  0
  129.7163  124.1882   75.7281 H   0  0  0  0  0  0  0  0  0  0  0  0
  131.5364  126.2046   74.3082 H   0  0  0  0  0  0  0  0  0  0  0  0
  130.8728  124.6280   73.6605 H   0  0  0  0  0  0  0  0  0  0  0  0
  127.8972  124.9696   72.0268 H   0  0  0  0  0  0  0  0  0  0  0  0
  127.7389  125.4087   69.5953 H   0  0  0  0  0  0  0  0  0  0  0  0
  130.6548  125.7508   67.5814 H   0  0  0  0  0  0  0  0  0  0  0  0
  132.5513  126.7864   65.6349 H   0  0  0  0  0  0  0  0  0  0  0  0
  133.9630  125.4365   64.1069 H   0  0  0  0  0  0  0  0  0  0  0  0
  133.0423  121.9040   63.4950 H   0  0  0  0  0  0  0  0  0  0  0  0
  132.0900  121.8345   61.9400 H   0  0  0  0  0  0  0  0  0  0  0  0
  135.1347  121.7374   62.2114 H   0  0  0  0  0  0  0  0  0  0  0  0
  134.0444  120.3733   61.7753 H   0  0  0  0  0  0  0  0  0  0  0  0
  135.3719  123.5476   60.6930 H   0  0  0  0  0  0  0  0  0  0  0  0
  134.4480  123.5137   59.1479 H   0  0  0  0  0  0  0  0  0  0  0  0
  133.4654  125.0893   60.8391 H   0  0  0  0  0  0  0  0  0  0  0  0
  132.3396  123.7352   60.3569 H   0  0  0  0  0  0  0  0  0  0  0  0
  130.4180  123.5803   62.4771 H   0  0  0  0  0  0  0  0  0  0  0  0
  129.0094  124.9336   64.0079 H   0  0  0  0  0  0  0  0  0  0  0  0
  1  2  1  0
  2  3  2  0
  3  4  1  0
  4  5  2  0
  4  6  1  0
  6  7  1  0
  7  8  1  0
  8  9  2  0
  9 10  1  0
 10 11  1  0
  3 12  1  0
 12 13  1  0
 13 14  2  0
 14 15  1  0
 15 16  1  0
 16 17  2  0
 17 18  1  0
 18 19  2  0
 19 20  1  0
 20 21  1  0
 21 22  1  0
 22 23  1  0
 23 24  1  0
 24 25  1  0
 19 26  1  0
 26 27  2  0
 15 28  2  0
 28 29  1  0
 29 30  1  0
 30 31  2  0
 31 32  1  0
 32 33  2  0
 33 34  1  0
 34 35  1  0
 35 36  1  0
 36 37  1  0
 37 38  1  0
 38 39  1  0
 33 40  1  0
 40 41  2  0
 29 42  2  0
 42  2  1  0
 11  7  2  0
 42 13  1  0
 27 16  1  0
 41 30  1  0
 25 20  1  0
 39 34  1  0
  1 43  1  0
  1 44  1  0
  6 45  1  0
  8 46  1  0
  9 47  1  0
 17 48  1  0
 18 49  1  0
 21 50  1  0
 21 51  1  0
 22 52  1  0
 22 53  1  0
 24 54  1  0
 24 55  1  0
 25 56  1  0
 25 57  1  0
 26 58  1  0
 27 59  1  0
 28 60  1  0
 31 61  1  0
 32 62  1  0
 35 63  1  0
 35 64  1  0
 36 65  1  0
 36 66  1  0
 38 67  1  0
 38 68  1  0
 39 69  1  0
 39 70  1  0
 40 71  1  0
 41 72  1  0
M  END
>  <Binding energies>  (1) 
[-9.51]

>  <Ligand effiencies>  (1) 
[-0.21133333333333332]

>  <Interactions>  (1) 
["V-A:TYR:539:CD2:4871, H-A:GLU:543:OE1:4906, H-A:GLU:543:OE2:4907, V-A:ASP:366:CG:3209, V-A:GLU:543:CD:4905, V-A:TYR:539:CE2:4873, V-B:GLU:543:C:9871, V-B:LYS:547:CE:9919, V-A:LYS:547:CE:4947, V-A:HIS:456:CE1:4066, V-A:HIS:456:CD2:4064, V-B:HIS:456:CE1:9038, H-B:TYR:539:OH:9847, V-A:ARG:545:CZ:4923, V-A:LEU:475:CD1:4254, V-A:ILE:369:CG1:3234, V-A:ILE:369:CB:3232, V-A:ILE:369:CG2:3233, V-A:GLY:454:CA:4045, V-A:ASP:366:CA:3206, V-B:LYS:547:CD:9918"]

$$$$
9c_Ghoteimi_2023
     RDKit          3D

 72 78  0  0  0  0  0  0  0  0999 V2000
  129.2320  127.8870   62.9710 N   0  0  0  0  0  0  0  0  0  0  0  0
  128.6110  128.2900   64.1260 C   0  0  0  0  0  0  0  0  0  0  0  0
  127.6260  129.2880   64.1650 C   0  0  0  0  0  0  0  0  0  0  0  0
  127.0620  130.0600   63.0540 C   0  0  0  0  0  0  0  0  0  0  0  0
  125.9350  129.8120   62.6210 O   0  0  0  0  0  0  0  0  0  0  0  0
  127.8640  131.0340   62.5560 N   0  0  0  0  0  0  0  0  0  0  0  0
  127.5790  131.8920   61.5030 C   0  0  0  0  0  0  0  0  0  0  0  0
  127.6630  131.6440   60.2140 N   0  0  0  0  0  0  0  0  0  0  0  0
  127.3200  132.6960   59.4950 C   0  0  0  0  0  0  0  0  0  0  0  0
  126.9470  133.8320   60.2060 C   0  0  0  0  0  0  0  0  0  0  0  0
  127.0540  133.4950   61.9080 S   0  0  0  0  0  0  0  0  0  0  0  0
  127.0680  129.5690   65.8140 S   0  0  0  0  0  0  0  0  0  0  0  0
  128.1680  128.3640   66.4400 C   0  0  0  0  0  0  0  0  0  0  0  0
  128.2500  128.1030   67.7440 N   0  0  0  0  0  0  0  0  0  0  0  0
  129.1490  127.1600   68.1280 C   0  0  0  0  0  0  0  0  0  0  0  0
  129.2350  126.9020   69.5980 C   0  0  0  0  0  0  0  0  0  0  0  0
  128.4200  125.9450   70.2140 C   0  0  0  0  0  0  0  0  0  0  0  0
  128.4970  125.7150   71.5840 C   0  0  0  0  0  0  0  0  0  0  0  0
  129.3850  126.4440   72.3920 C   0  0  0  0  0  0  0  0  0  0  0  0
  129.4790  126.2190   73.7700 N   0  0  0  0  0  0  0  0  0  0  0  0
  128.9920  127.2150   74.7470 C   0  0  0  0  0  0  0  0  0  0  0  0
  128.8520  126.6640   76.1820 C   0  0  0  0  0  0  0  0  0  0  0  0
  130.0830  126.1000   76.6050 O   0  0  0  0  0  0  0  0  0  0  0  0
  130.4770  125.0250   75.7670 C   0  0  0  0  0  0  0  0  0  0  0  0
  130.6620  125.5220   74.3170 C   0  0  0  0  0  0  0  0  0  0  0  0
  130.2120  127.3870   71.7660 C   0  0  0  0  0  0  0  0  0  0  0  0
  130.1370  127.6140   70.3950 C   0  0  0  0  0  0  0  0  0  0  0  0
  129.9400  126.4650   67.2110 C   0  0  0  0  0  0  0  0  0  0  0  0
  129.8420  126.7210   65.8380 C   0  0  0  0  0  0  0  0  0  0  0  0
  130.6820  125.9340   64.9010 C   0  0  0  0  0  0  0  0  0  0  0  0
  132.0740  125.9870   64.9880 C   0  0  0  0  0  0  0  0  0  0  0  0
  132.8650  125.2370   64.1210 C   0  0  0  0  0  0  0  0  0  0  0  0
  132.2840  124.4150   63.1440 C   0  0  0  0  0  0  0  0  0  0  0  0
  133.0580  123.6440   62.2710 N   0  0  0  0  0  0  0  0  0  0  0  0
  133.0750  122.1760   62.4290 C   0  0  0  0  0  0  0  0  0  0  0  0
  134.2430  121.4970   61.6820 C   0  0  0  0  0  0  0  0  0  0  0  0
  134.2140  121.8540   60.3080 O   0  0  0  0  0  0  0  0  0  0  0  0
  134.3330  123.2570   60.1280 C   0  0  0  0  0  0  0  0  0  0  0  0
  133.1710  123.9830   60.8390 C   0  0  0  0  0  0  0  0  0  0  0  0
  130.8840  124.3530   63.0800 C   0  0  0  0  0  0  0  0  0  0  0  0
  130.0930  125.1030   63.9460 C   0  0  0  0  0  0  0  0  0  0  0  0
  128.9320  127.7310   65.4150 C   0  0  0  0  0  0  0  0  0  0  0  0
  129.0550  126.9820   62.5580 H   0  0  0  0  0  0  0  0  0  0  0  0
  129.8920  128.4840   62.4930 H   0  0  0  0  0  0  0  0  0  0  0  0
  128.7660  131.1590   62.9910 H   0  0  0  0  0  0  0  0  0  0  0  0
  127.3285  132.6758   58.3952 H   0  0  0  0  0  0  0  0  0  0  0  0
  126.6347  134.7891   59.7627 H   0  0  0  0  0  0  0  0  0  0  0  0
  127.7086  125.3666   69.6063 H   0  0  0  0  0  0  0  0  0  0  0  0
  127.8523  124.9502   72.0416 H   0  0  0  0  0  0  0  0  0  0  0  0
  129.7000  128.0566   74.7663 H   0  0  0  0  0  0  0  0  0  0  0  0
  127.9861  127.5180   74.4209 H   0  0  0  0  0  0  0  0  0  0  0  0
  128.5734  127.4829   76.8615 H   0  0  0  0  0  0  0  0  0  0  0  0
  128.0735  125.8870   76.1972 H   0  0  0  0  0  0  0  0  0  0  0  0
  131.4270  124.6082   76.1326 H   0  0  0  0  0  0  0  0  0  0  0  0
  129.6964  124.2502   75.7849 H   0  0  0  0  0  0  0  0  0  0  0  0
  131.5148  126.2164   74.2945 H   0  0  0  0  0  0  0  0  0  0  0  0
  130.8271  124.6321   73.6918 H   0  0  0  0  0  0  0  0  0  0  0  0
  130.9332  127.9578   72.3693 H   0  0  0  0  0  0  0  0  0  0  0  0
  130.7959  128.3634   69.9321 H   0  0  0  0  0  0  0  0  0  0  0  0
  130.6497  125.7061   67.5722 H   0  0  0  0  0  0  0  0  0  0  0  0
  132.5498  126.6257   65.7468 H   0  0  0  0  0  0  0  0  0  0  0  0
  133.9606  125.2900   64.2035 H   0  0  0  0  0  0  0  0  0  0  0  0
  133.1612  121.9407   63.5001 H   0  0  0  0  0  0  0  0  0  0  0  0
  132.1410  121.7898   61.9948 H   0  0  0  0  0  0  0  0  0  0  0  0
  135.1963  121.8235   62.1231 H   0  0  0  0  0  0  0  0  0  0  0  0
  134.1439  120.4053   61.7735 H   0  0  0  0  0  0  0  0  0  0  0  0
  135.2890  123.5985   60.5517 H   0  0  0  0  0  0  0  0  0  0  0  0
  134.2971  123.4866   59.0528 H   0  0  0  0  0  0  0  0  0  0  0  0
  133.3300  125.0677   60.7488 H   0  0  0  0  0  0  0  0  0  0  0  0
  132.2390  123.6581   60.3534 H   0  0  0  0  0  0  0  0  0  0  0  0
  130.4040  123.7021   62.3344 H   0  0  0  0  0  0  0  0  0  0  0  0
  128.9969  125.0405   63.8774 H   0  0  0  0  0  0  0  0  0  0  0  0
  1  2  1  0
  2  3  2  0
  3  4  1  0
  4  5  2  0
  4  6  1  0
  6  7  1  0
  7  8  2  0
  8  9  1  0
  9 10  2  0
 10 11  1  0
  3 12  1  0
 12 13  1  0
 13 14  2  0
 14 15  1  0
 15 16  1  0
 16 17  2  0
 17 18  1  0
 18 19  2  0
 19 20  1  0
 20 21  1  0
 21 22  1  0
 22 23  1  0
 23 24  1  0
 24 25  1  0
 19 26  1  0
 26 27  2  0
 15 28  2  0
 28 29  1  0
 29 30  1  0
 30 31  2  0
 31 32  1  0
 32 33  2  0
 33 34  1  0
 34 35  1  0
 35 36  1  0
 36 37  1  0
 37 38  1  0
 38 39  1  0
 33 40  1  0
 40 41  2  0
 29 42  2  0
 42  2  1  0
 11  7  1  0
 42 13  1  0
 27 16  1  0
 41 30  1  0
 25 20  1  0
 39 34  1  0
  1 43  1  0
  1 44  1  0
  6 45  1  0
  9 46  1  0
 10 47  1  0
 17 48  1  0
 18 49  1  0
 21 50  1  0
 21 51  1  0
 22 52  1  0
 22 53  1  0
 24 54  1  0
 24 55  1  0
 25 56  1  0
 25 57  1  0
 26 58  1  0
 27 59  1  0
 28 60  1  0
 31 61  1  0
 32 62  1  0
 35 63  1  0
 35 64  1  0
 36 65  1  0
 36 66  1  0
 38 67  1  0
 38 68  1  0
 39 69  1  0
 39 70  1  0
 40 71  1  0
 41 72  1  0
M  END
>  <Binding energies>  (1) 
[-9.74]

>  <Ligand effiencies>  (1) 
[-0.21644444444444444]

>  <Interactions>  (1) 
["V-A:TYR:539:CD2:4871, H-A:GLU:543:OE1:4906, V-A:ALA:541:CB:4889, H-A:GLU:543:OE2:4907, V-A:ASP:366:CG:3209, V-A:GLU:543:CD:4905, V-A:TYR:539:CE2:4873, V-B:LEU:475:CD2:9227, V-B:GLU:543:C:9871, V-B:LYS:547:CE:9919, V-A:LYS:547:CE:4947, V-A:HIS:456:CE1:4066, V-A:HIS:456:CD2:4064, V-B:HIS:456:CE1:9038, H-B:TYR:539:OH:9847, V-B:GLU:543:CD:9877, V-A:ARG:545:CZ:4923, V-A:LEU:475:CD1:4254, V-A:ILE:369:CG1:3234, V-A:ILE:369:CB:3232, V-A:ILE:369:CG2:3233, V-A:GLY:454:CA:4045, V-A:ASP:366:CA:3206, V-B:LYS:547:CD:9918"]

$$$$
9d_Ghoteimi_2023
     RDKit          3D

 68 73  0  0  0  0  0  0  0  0999 V2000
  132.7710  124.3090   64.3650 C   0  0  0  0  0  0  0  0  0  0  0  0
  132.0860  123.0670   64.2950 O   0  0  0  0  0  0  0  0  0  0  0  0
  130.7430  123.0000   64.4950 C   0  0  0  0  0  0  0  0  0  0  0  0
  130.1050  121.9450   64.5390 O   0  0  0  0  0  0  0  0  0  0  0  0
  130.1170  124.3310   64.6510 C   0  0  0  0  0  0  0  0  0  0  0  0
  129.7430  125.2980   63.2250 S   0  0  0  0  0  0  0  0  0  0  0  0
  129.0670  126.5690   64.2150 C   0  0  0  0  0  0  0  0  0  0  0  0
  128.5360  127.6660   63.6760 N   0  0  0  0  0  0  0  0  0  0  0  0
  128.0200  128.5870   64.5320 C   0  0  0  0  0  0  0  0  0  0  0  0
  127.4070  129.7970   63.9040 C   0  0  0  0  0  0  0  0  0  0  0  0
  126.7720  129.7070   62.6610 C   0  0  0  0  0  0  0  0  0  0  0  0
  126.2000  130.8280   62.0660 C   0  0  0  0  0  0  0  0  0  0  0  0
  126.2310  132.0810   62.7000 C   0  0  0  0  0  0  0  0  0  0  0  0
  125.6760  133.2200   62.1070 N   0  0  0  0  0  0  0  0  0  0  0  0
  126.2770  133.8310   60.9050 C   0  0  0  0  0  0  0  0  0  0  0  0
  125.7560  135.2500   60.5990 C   0  0  0  0  0  0  0  0  0  0  0  0
  124.3410  135.2390   60.5100 O   0  0  0  0  0  0  0  0  0  0  0  0
  123.7480  134.8150   61.7260 C   0  0  0  0  0  0  0  0  0  0  0  0
  124.2070  133.3820   62.0700 C   0  0  0  0  0  0  0  0  0  0  0  0
  126.8820  132.1680   63.9400 C   0  0  0  0  0  0  0  0  0  0  0  0
  127.4560  131.0470   64.5320 C   0  0  0  0  0  0  0  0  0  0  0  0
  128.0670  128.4250   65.9190 C   0  0  0  0  0  0  0  0  0  0  0  0
  128.6410  127.2840   66.4910 C   0  0  0  0  0  0  0  0  0  0  0  0
  128.6900  127.1740   67.9730 C   0  0  0  0  0  0  0  0  0  0  0  0
  127.7460  126.4110   68.6630 C   0  0  0  0  0  0  0  0  0  0  0  0
  127.8070  126.2960   70.0490 C   0  0  0  0  0  0  0  0  0  0  0  0
  128.8250  126.9290   70.7800 C   0  0  0  0  0  0  0  0  0  0  0  0
  128.9020  126.8380   72.1720 N   0  0  0  0  0  0  0  0  0  0  0  0
  128.4480  127.9770   72.9920 C   0  0  0  0  0  0  0  0  0  0  0  0
  128.2210  127.6080   74.4740 C   0  0  0  0  0  0  0  0  0  0  0  0
  129.3980  127.0290   75.0180 O   0  0  0  0  0  0  0  0  0  0  0  0
  129.7700  125.8480   74.3220 C   0  0  0  0  0  0  0  0  0  0  0  0
  130.0400  126.1760   72.8380 C   0  0  0  0  0  0  0  0  0  0  0  0
  129.7660  127.6940   70.0760 C   0  0  0  0  0  0  0  0  0  0  0  0
  129.7040  127.8100   68.6910 C   0  0  0  0  0  0  0  0  0  0  0  0
  129.1500  126.2870   65.6110 C   0  0  0  0  0  0  0  0  0  0  0  0
  129.7380  124.9910   65.8270 C   0  0  0  0  0  0  0  0  0  0  0  0
  129.8910  124.4410   67.0730 N   0  0  0  0  0  0  0  0  0  0  0  0
  132.9232  124.5849   65.4189 H   0  0  0  0  0  0  0  0  0  0  0  0
  133.7467  124.2183   63.8652 H   0  0  0  0  0  0  0  0  0  0  0  0
  132.1738  125.0858   63.8652 H   0  0  0  0  0  0  0  0  0  0  0  0
  126.7239  128.7362   62.1461 H   0  0  0  0  0  0  0  0  0  0  0  0
  125.7157  130.7309   61.0831 H   0  0  0  0  0  0  0  0  0  0  0  0
  127.3658  133.8859   61.0518 H   0  0  0  0  0  0  0  0  0  0  0  0
  125.9978  133.1969   60.0506 H   0  0  0  0  0  0  0  0  0  0  0  0
  126.0649  135.9328   61.4042 H   0  0  0  0  0  0  0  0  0  0  0  0
  126.1752  135.5893   59.6403 H   0  0  0  0  0  0  0  0  0  0  0  0
  124.0491  135.4972   62.5347 H   0  0  0  0  0  0  0  0  0  0  0  0
  122.6537  134.8251   61.6150 H   0  0  0  0  0  0  0  0  0  0  0  0
  123.8035  133.1162   63.0582 H   0  0  0  0  0  0  0  0  0  0  0  0
  123.8316  132.7245   61.2720 H   0  0  0  0  0  0  0  0  0  0  0  0
  126.9396  133.1393   64.4531 H   0  0  0  0  0  0  0  0  0  0  0  0
  127.9553  131.1446   65.5073 H   0  0  0  0  0  0  0  0  0  0  0  0
  127.6469  129.2053   66.5706 H   0  0  0  0  0  0  0  0  0  0  0  0
  126.9480  125.8968   68.1072 H   0  0  0  0  0  0  0  0  0  0  0  0
  127.0478  125.7015   70.5783 H   0  0  0  0  0  0  0  0  0  0  0  0
  129.2094  128.7693   72.9418 H   0  0  0  0  0  0  0  0  0  0  0  0
  127.4805  128.3069   72.5856 H   0  0  0  0  0  0  0  0  0  0  0  0
  127.9669  128.5161   75.0403 H   0  0  0  0  0  0  0  0  0  0  0  0
  127.3975  126.8819   74.5424 H   0  0  0  0  0  0  0  0  0  0  0  0
  130.6810  125.4295   74.7747 H   0  0  0  0  0  0  0  0  0  0  0  0
  128.9519  125.1157   74.3881 H   0  0  0  0  0  0  0  0  0  0  0  0
  130.9139  126.8416   72.7806 H   0  0  0  0  0  0  0  0  0  0  0  0
  130.2122  125.2217   72.3187 H   0  0  0  0  0  0  0  0  0  0  0  0
  130.5656  128.2104   70.6274 H   0  0  0  0  0  0  0  0  0  0  0  0
  130.4590  128.4068   68.1583 H   0  0  0  0  0  0  0  0  0  0  0  0
  129.1010  124.2530   67.6730 H   0  0  0  0  0  0  0  0  0  0  0  0
  130.8040  124.1990   67.4340 H   0  0  0  0  0  0  0  0  0  0  0  0
  1  2  1  0
  2  3  1  0
  3  4  2  0
  3  5  1  0
  5  6  1  0
  6  7  1  0
  7  8  2  0
  8  9  1  0
  9 10  1  0
 10 11  2  0
 11 12  1  0
 12 13  2  0
 13 14  1  0
 14 15  1  0
 15 16  1  0
 16 17  1  0
 17 18  1  0
 18 19  1  0
 13 20  1  0
 20 21  2  0
  9 22  2  0
 22 23  1  0
 23 24  1  0
 24 25  2  0
 25 26  1  0
 26 27  2  0
 27 28  1  0
 28 29  1  0
 29 30  1  0
 30 31  1  0
 31 32  1  0
 32 33  1  0
 27 34  1  0
 34 35  2  0
 23 36  2  0
 36 37  1  0
 37 38  1  0
 37  5  2  0
 36  7  1  0
 21 10  1  0
 35 24  1  0
 19 14  1  0
 33 28  1  0
  1 39  1  0
  1 40  1  0
  1 41  1  0
 11 42  1  0
 12 43  1  0
 15 44  1  0
 15 45  1  0
 16 46  1  0
 16 47  1  0
 18 48  1  0
 18 49  1  0
 19 50  1  0
 19 51  1  0
 20 52  1  0
 21 53  1  0
 22 54  1  0
 25 55  1  0
 26 56  1  0
 29 57  1  0
 29 58  1  0
 30 59  1  0
 30 60  1  0
 32 61  1  0
 32 62  1  0
 33 63  1  0
 33 64  1  0
 34 65  1  0
 35 66  1  0
 38 67  1  0
 38 68  1  0
M  END
>  <Binding energies>  (1) 
[-9.08]

>  <Ligand effiencies>  (1) 
[-0.227]

>  <Interactions>  (1) 
["V-A:TYR:539:CD2:4871, V-B:TRP:381:CZ2:8338, V-B:TRP:381:CH2:8340, V-A:GLU:543:CD:4905, V-B:LEU:475:CD2:9227, V-B:GLU:543:C:9871, V-B:LYS:547:CE:9919, V-A:LYS:547:CE:4947, H-A:LYS:547:NZ:4948, V-A:HIS:456:CE1:4066, V-A:GLU:543:CB:4903, V-A:HIS:456:CD2:4064, V-B:GLU:543:CB:9875, V-B:HIS:456:CE1:9038, V-B:GLY:544:C:9881, V-B:HIS:456:CD2:9036, V-B:ILE:369:CG2:8205, V-B:GLU:543:CD:9877, V-B:GLU:543:CG:9876, V-A:TYR:484:CZ:4343, V-A:TYR:484:CE1:4341, V-A:GLU:543:CG:4904, V-B:GLU:543:CA:9873, V-B:ILE:369:CD1:8207, V-A:GLY:454:CA:4045, H-A:TYR:484:OH:4344, V-B:GLY:454:CA:9017, H-A:HIS:456:NE2:4067, V-B:SER:385:C:8373, H-B:GLU:543:O:9872"]

$$$$
RR10_Rahimova_2017
     RDKit          3D

 66 70  0  0  0  0  0  0  0  0999 V2000
  131.7840  124.8850   64.5680 C   0  0  0  0  0  0  0  0  0  0  0  0
  131.1680  125.3680   65.8930 C   0  0  1  0  0  0  0  0  0  0  0  0
  131.1730  126.9110   66.0020 C   0  0  0  0  0  0  0  0  0  0  0  0
  130.5820  127.3720   67.3530 C   0  0  0  0  0  0  0  0  0  0  0  0
  129.1370  126.8520   67.5680 C   0  0  1  0  0  0  0  0  0  0  0  0
  128.2080  127.4910   66.6260 N   0  0  0  0  0  0  0  0  0  0  0  0
  128.0110  128.8170   66.5040 C   0  0  0  0  0  0  0  0  0  0  0  0
  128.6230  129.6520   67.1740 O   0  0  0  0  0  0  0  0  0  0  0  0
  126.9510  129.2690   65.4780 C   0  0  1  0  0  0  0  0  0  0  0  0
  125.5580  128.7410   65.9090 C   0  0  0  0  0  0  0  0  0  0  0  0
  124.4800  129.2700   64.9330 C   0  0  0  0  0  0  0  0  0  0  0  0
  124.5430  130.8050   64.7550 C   0  0  0  0  0  0  0  0  0  0  0  0
  125.9240  131.2370   64.4060 N   0  0  0  0  0  0  0  0  0  0  0  0
  126.0550  132.9260   63.8880 S   0  0  0  0  0  0  0  0  0  0  0  0
  126.9570  133.6190   64.8160 O   0  0  0  0  0  0  0  0  0  0  0  0
  124.6960  133.4340   63.6600 O   0  0  0  0  0  0  0  0  0  0  0  0
  126.8930  132.8640   62.3050 C   0  0  0  0  0  0  0  0  0  0  0  0
  126.2710  133.4120   61.1790 C   0  0  0  0  0  0  0  0  0  0  0  0
  126.8700  133.3930   59.9160 C   0  0  0  0  0  0  0  0  0  0  0  0
  128.1320  132.7990   59.8320 C   0  0  0  0  0  0  0  0  0  0  0  0
  129.0170  132.5850   58.8020 N   0  0  0  0  0  0  0  0  0  0  0  0
  130.1210  131.9380   59.3190 C   0  0  0  0  0  0  0  0  0  0  0  0
  131.3050  131.5260   58.4920 C   0  0  0  0  0  0  0  0  0  0  0  0
  132.3180  130.7330   59.0490 C   0  0  0  0  0  0  0  0  0  0  0  0
  133.4140  130.3460   58.2820 C   0  0  0  0  0  0  0  0  0  0  0  0
  133.5040  130.7530   56.9540 C   0  0  0  0  0  0  0  0  0  0  0  0
  132.5070  131.5400   56.3850 C   0  0  0  0  0  0  0  0  0  0  0  0
  131.4110  131.9260   57.1530 C   0  0  0  0  0  0  0  0  0  0  0  0
  130.0080  131.7280   60.6120 N   0  0  0  0  0  0  0  0  0  0  0  0
  128.7880  132.2460   60.9570 C   0  0  0  0  0  0  0  0  0  0  0  0
  128.1630  132.2810   62.2120 C   0  0  0  0  0  0  0  0  0  0  0  0
  126.9440  130.8160   65.3990 C   0  0  0  0  0  0  0  0  0  0  0  0
  129.1450  125.3040   67.4380 C   0  0  0  0  0  0  0  0  0  0  0  0
  129.7280  124.8390   66.0850 C   0  0  0  0  0  0  0  0  0  0  0  0
  132.6334  124.2190   64.7798 H   0  0  0  0  0  0  0  0  0  0  0  0
  131.0253  124.3386   63.9886 H   0  0  0  0  0  0  0  0  0  0  0  0
  132.1336  125.7522   63.9886 H   0  0  0  0  0  0  0  0  0  0  0  0
  131.8018  124.9580   66.6931 H   0  0  0  0  0  0  0  0  0  0  0  0
  132.2080  127.2742   65.9194 H   0  0  0  0  0  0  0  0  0  0  0  0
  130.5547  127.3219   65.1903 H   0  0  0  0  0  0  0  0  0  0  0  0
  131.2192  126.9938   68.1660 H   0  0  0  0  0  0  0  0  0  0  0  0
  130.5483  128.4715   67.3493 H   0  0  0  0  0  0  0  0  0  0  0  0
  128.7816  127.1158   68.5750 H   0  0  0  0  0  0  0  0  0  0  0  0
  127.5950  126.8690   66.1200 H   0  0  0  0  0  0  0  0  0  0  0  0
  127.1913  128.8622   64.4846 H   0  0  0  0  0  0  0  0  0  0  0  0
  125.5612  127.6412   65.8904 H   0  0  0  0  0  0  0  0  0  0  0  0
  125.3330  129.0904   66.9275 H   0  0  0  0  0  0  0  0  0  0  0  0
  124.6288  128.7949   63.9521 H   0  0  0  0  0  0  0  0  0  0  0  0
  123.4956  129.0232   65.3573 H   0  0  0  0  0  0  0  0  0  0  0  0
  123.8565  131.1037   63.9491 H   0  0  0  0  0  0  0  0  0  0  0  0
  124.2509  131.2835   65.7014 H   0  0  0  0  0  0  0  0  0  0  0  0
  125.2785  133.8729   61.2905 H   0  0  0  0  0  0  0  0  0  0  0  0
  126.3735  133.8234   59.0339 H   0  0  0  0  0  0  0  0  0  0  0  0
  128.9230  132.8310   57.8270 H   0  0  0  0  0  0  0  0  0  0  0  0
  132.2466  130.4142   60.0994 H   0  0  0  0  0  0  0  0  0  0  0  0
  134.2048  129.7217   58.7235 H   0  0  0  0  0  0  0  0  0  0  0  0
  134.3710  130.4499   56.3487 H   0  0  0  0  0  0  0  0  0  0  0  0
  132.5842  131.8556   55.3341 H   0  0  0  0  0  0  0  0  0  0  0  0
  130.6229  132.5493   56.7053 H   0  0  0  0  0  0  0  0  0  0  0  0
  128.6575  131.8614   63.1004 H   0  0  0  0  0  0  0  0  0  0  0  0
  127.9355  131.1752   65.0862 H   0  0  0  0  0  0  0  0  0  0  0  0
  126.7049  131.2407   66.3851 H   0  0  0  0  0  0  0  0  0  0  0  0
  129.7547  124.8827   68.2509 H   0  0  0  0  0  0  0  0  0  0  0  0
  128.1042  124.9530   67.4977 H   0  0  0  0  0  0  0  0  0  0  0  0
  129.7418  123.7394   66.0577 H   0  0  0  0  0  0  0  0  0  0  0  0
  129.0973  125.2358   65.2759 H   0  0  0  0  0  0  0  0  0  0  0  0
  1  2  1  0
  2  3  1  0
  3  4  1  0
  4  5  1  0
  5  6  1  0
  6  7  1  0
  7  8  2  0
  7  9  1  0
  9 10  1  0
 10 11  1  0
 11 12  1  0
 12 13  1  0
 13 14  1  0
 14 15  2  0
 14 16  2  0
 14 17  1  0
 17 18  2  0
 18 19  1  0
 19 20  2  0
 20 21  1  0
 21 22  1  0
 22 23  1  0
 23 24  2  0
 24 25  1  0
 25 26  2  0
 26 27  1  0
 27 28  2  0
 22 29  2  0
 29 30  1  0
 30 31  2  0
 13 32  1  0
  5 33  1  0
 33 34  1  0
 34  2  1  0
 32  9  1  0
 31 17  1  0
 30 20  1  0
 28 23  1  0
  1 35  1  0
  1 36  1  0
  1 37  1  0
  2 38  1  1
  3 39  1  0
  3 40  1  0
  4 41  1  0
  4 42  1  0
  5 43  1  1
  6 44  1  0
  9 45  1  6
 10 46  1  0
 10 47  1  0
 11 48  1  0
 11 49  1  0
 12 50  1  0
 12 51  1  0
 18 52  1  0
 19 53  1  0
 21 54  1  0
 24 55  1  0
 25 56  1  0
 26 57  1  0
 27 58  1  0
 28 59  1  0
 31 60  1  0
 32 61  1  0
 32 62  1  0
 33 63  1  0
 33 64  1  0
 34 65  1  0
 34 66  1  0
M  END
>  <Binding energies>  (1) 
[-10.66]

>  <Ligand effiencies>  (1) 
[-0.2961111111111111]

>  <Interactions>  (1) 
["V-A:TYR:539:CD2:4871, V-A:PRO:540:CB:4882, V-A:ALA:541:CB:4889, V-A:PRO:540:CA:4880, V-A:PRO:540:N:4881, V-A:LEU:363:CD1:3185, V-A:TYR:539:C:4864, V-A:ASP:366:CB:3208, V-A:LEU:363:CA:3181, V-A:ASP:366:CG:3209, V-A:GLU:543:CD:4905, V-A:ASN:362:C:3168, V-A:TYR:539:CE2:4873, V-B:LEU:475:CD2:9227, H-A:ALA:541:N:4888, V-B:GLU:543:C:9871, V-A:HIS:456:CE1:4066, V-A:GLU:543:CB:4903, V-B:GLU:543:CB:9875, V-B:HIS:456:CE1:9038, V-A:TYR:531:CZ:4791, H-B:GLU:543:OE1:9878, V-B:GLU:543:CD:9877, V-B:GLU:543:CG:9876, V-A:TYR:484:CZ:4343, V-A:TYR:484:CE1:4341, V-B:GLU:543:CA:9873, V-B:ARG:545:CZ:9895, H-A:TYR:539:O:4865, H-B:TYR:484:OH:9316, H-B:GLY:454:N:9018, V-B:GLY:454:CA:9017, V-B:ARG:545:CG:9891, V-B:ARG:545:CD:9892, V-B:TYR:484:CE1:9313, V-A:LEU:363:CB:3183, V-B:TYR:484:CZ:9315, V-A:TYR:531:CE2:4790"]

$$$$
RR11_Rahimova_2017
     RDKit          3D

 55 60  0  0  0  0  0  0  0  0999 V2000
  134.1330  121.6040   60.6490 N   0  0  0  0  0  0  0  0  0  0  0  0
  133.3870  122.4190   61.4990 C   0  0  0  0  0  0  0  0  0  0  0  0
  132.1450  121.9860   61.9610 C   0  0  0  0  0  0  0  0  0  0  0  0
  131.4030  122.8000   62.8120 C   0  0  0  0  0  0  0  0  0  0  0  0
  131.8920  124.0510   63.2080 C   0  0  0  0  0  0  0  0  0  0  0  0
  131.0930  124.9240   64.1300 C   0  0  0  0  0  0  0  0  0  0  0  0
  130.6160  126.1060   63.8060 N   0  0  0  0  0  0  0  0  0  0  0  0
  129.9480  126.5440   64.9190 C   0  0  0  0  0  0  0  0  0  0  0  0
  129.2460  127.7410   65.1180 C   0  0  0  0  0  0  0  0  0  0  0  0
  128.6250  127.9520   66.3550 C   0  0  0  0  0  0  0  0  0  0  0  0
  127.8610  129.2460   66.6010 C   0  0  0  0  0  0  0  0  0  0  0  0
  127.5190  129.9870   65.3160 C   0  0  0  0  0  0  0  0  0  0  0  0
  127.8630  131.3380   65.1890 C   0  0  0  0  0  0  0  0  0  0  0  0
  127.5800  132.0590   64.0270 C   0  0  0  0  0  0  0  0  0  0  0  0
  126.9410  131.3900   62.9740 C   0  0  0  0  0  0  0  0  0  0  0  0
  126.5520  131.8690   61.7500 N   0  0  0  0  0  0  0  0  0  0  0  0
  125.9950  130.8460   61.1380 C   0  0  0  0  0  0  0  0  0  0  0  0
  125.4010  130.9020   59.7600 C   0  0  0  0  0  0  0  0  0  0  0  0
  126.0990  130.3790   58.6640 C   0  0  0  0  0  0  0  0  0  0  0  0
  125.5530  130.4400   57.3840 C   0  0  0  0  0  0  0  0  0  0  0  0
  124.3040  131.0260   57.1920 C   0  0  0  0  0  0  0  0  0  0  0  0
  123.7580  131.0920   55.9100 N   0  0  0  0  0  0  0  0  0  0  0  0
  123.5970  131.5460   58.2730 C   0  0  0  0  0  0  0  0  0  0  0  0
  124.1440  131.4840   59.5520 C   0  0  0  0  0  0  0  0  0  0  0  0
  126.0100  129.7080   61.9170 N   0  0  0  0  0  0  0  0  0  0  0  0
  126.6110  130.0210   63.1130 C   0  0  0  0  0  0  0  0  0  0  0  0
  126.8970  129.2930   64.2710 C   0  0  0  0  0  0  0  0  0  0  0  0
  128.7270  127.0000   67.3750 C   0  0  0  0  0  0  0  0  0  0  0  0
  129.4230  125.8000   67.2110 C   0  0  0  0  0  0  0  0  0  0  0  0
  130.0240  125.5950   65.9660 C   0  0  0  0  0  0  0  0  0  0  0  0
  130.7670  124.5730   65.4240 N   0  0  0  0  0  0  0  0  0  0  0  0
  133.1420  124.4740   62.7350 C   0  0  0  0  0  0  0  0  0  0  0  0
  133.8870  123.6620   61.8840 C   0  0  0  0  0  0  0  0  0  0  0  0
  134.8250  120.9810   61.0400 H   0  0  0  0  0  0  0  0  0  0  0  0
  133.9450  121.6170   59.6580 H   0  0  0  0  0  0  0  0  0  0  0  0
  131.7530  121.0051   61.6543 H   0  0  0  0  0  0  0  0  0  0  0  0
  130.4234  122.4574   63.1768 H   0  0  0  0  0  0  0  0  0  0  0  0
  129.1845  128.4967   64.3210 H   0  0  0  0  0  0  0  0  0  0  0  0
  126.9253  129.0062   67.1273 H   0  0  0  0  0  0  0  0  0  0  0  0
  128.5102  129.9036   67.1978 H   0  0  0  0  0  0  0  0  0  0  0  0
  128.3685  131.8439   66.0248 H   0  0  0  0  0  0  0  0  0  0  0  0
  127.8508  133.1216   63.9405 H   0  0  0  0  0  0  0  0  0  0  0  0
  127.0856  129.9167   58.8152 H   0  0  0  0  0  0  0  0  0  0  0  0
  126.1063  130.0268   56.5277 H   0  0  0  0  0  0  0  0  0  0  0  0
  124.3320  131.4070   55.1410 H   0  0  0  0  0  0  0  0  0  0  0  0
  122.8050  130.7920   55.7600 H   0  0  0  0  0  0  0  0  0  0  0  0
  122.6093  132.0044   58.1171 H   0  0  0  0  0  0  0  0  0  0  0  0
  123.5848  131.8951   60.4054 H   0  0  0  0  0  0  0  0  0  0  0  0
  125.6270  128.8240   61.6150 H   0  0  0  0  0  0  0  0  0  0  0  0
  126.6455  128.2256   64.3575 H   0  0  0  0  0  0  0  0  0  0  0  0
  128.2417  127.2037   68.3409 H   0  0  0  0  0  0  0  0  0  0  0  0
  129.4942  125.0563   68.0184 H   0  0  0  0  0  0  0  0  0  0  0  0
  131.0480  123.7020   65.8500 H   0  0  0  0  0  0  0  0  0  0  0  0
  133.5372  125.4547   63.0384 H   0  0  0  0  0  0  0  0  0  0  0  0
  134.8671  124.0003   61.5166 H   0  0  0  0  0  0  0  0  0  0  0  0
  1  2  1  0
  2  3  2  0
  3  4  1  0
  4  5  2  0
  5  6  1  0
  6  7  2  0
  7  8  1  0
  8  9  2  0
  9 10  1  0
 10 11  1  0
 11 12  1  0
 12 13  2  0
 13 14  1  0
 14 15  2  0
 15 16  1  0
 16 17  2  0
 17 18  1  0
 18 19  2  0
 19 20  1  0
 20 21  2  0
 21 22  1  0
 21 23  1  0
 23 24  2  0
 17 25  1  0
 25 26  1  0
 26 27  2  0
 10 28  2  0
 28 29  1  0
 29 30  2  0
 30 31  1  0
  5 32  1  0
 32 33  2  0
 33  2  1  0
 31  6  1  0
 30  8  1  0
 27 12  1  0
 26 15  1  0
 24 18  1  0
  1 34  1  0
  1 35  1  0
  3 36  1  0
  4 37  1  0
  9 38  1  0
 11 39  1  0
 11 40  1  0
 13 41  1  0
 14 42  1  0
 19 43  1  0
 20 44  1  0
 22 45  1  0
 22 46  1  0
 23 47  1  0
 24 48  1  0
 25 49  1  0
 27 50  1  0
 28 51  1  0
 29 52  1  0
 31 53  1  0
 32 54  1  0
 33 55  1  0
M  END
>  <Binding energies>  (1) 
[-9.07]

>  <Ligand effiencies>  (1) 
[-0.23256410256410256]

>  <Interactions>  (1) 
["V-A:ALA:541:CB:4889, V-A:GLU:543:CD:4905, V-A:TYR:539:CE2:4873, V-A:HIS:456:CE1:4066, V-A:GLU:543:CB:4903, V-B:GLU:543:CB:9875, V-B:HIS:456:CE1:9038, V-B:ASP:366:CA:8178, V-B:ASP:366:CB:8180, H-B:ASP:366:OD1:8182, V-B:TYR:531:CZ:9763, V-B:ILE:369:CG2:8205, V-B:ASP:366:CG:8181, H-B:TYR:531:OH:9764, V-A:TYR:539:CZ:4874, H-B:TYR:539:OH:9847, V-A:TYR:484:CZ:4343, V-B:TYR:539:CE2:9845, V-A:TYR:484:CE1:4341, V-A:GLU:543:CG:4904, V-A:LEU:475:CD1:4254, V-A:ILE:369:CG1:3234, V-A:ILE:369:CB:3232, V-B:ILE:369:CD1:8207, V-A:ILE:369:CG2:3233, V-A:GLY:454:CA:4045, H-A:TYR:484:OH:4344, H-B:ASP:366:OD2:8183, V-B:TYR:484:CE1:9313, V-B:TYR:531:CE1:9761, V-B:TYR:484:CZ:9315, V-B:ILE:369:CB:8204, V-B:ASP:366:C:8176, V-B:ASN:370:CA:8211, V-B:ASN:370:CB:8213, H-A:TYR:539:OH:4875, H-B:ASP:366:O:8177, H-B:ASN:370:OD1:8215, H-A:SER:385:O:3402"]

$$$$
RR11_Rahimova_2017-again1
     RDKit          3D

 56 61  0  0  0  0  0  0  0  0999 V2000
  123.7450  131.1170   55.9050 N   0  0  0  0  0  0  0  0  0  0  0  0
  124.2730  131.0780   57.1950 C   0  0  0  0  0  0  0  0  0  0  0  0
  123.5180  131.5450   58.2680 C   0  0  0  0  0  0  0  0  0  0  0  0
  124.0470  131.5080   59.5560 C   0  0  0  0  0  0  0  0  0  0  0  0
  125.3350  131.0060   59.7800 C   0  0  0  0  0  0  0  0  0  0  0  0
  125.9090  130.9740   61.1670 C   0  0  0  0  0  0  0  0  0  0  0  0
  126.5010  131.9930   61.7490 N   0  0  0  0  0  0  0  0  0  0  0  0
  126.8880  131.5330   62.9810 C   0  0  0  0  0  0  0  0  0  0  0  0
  127.5660  132.2050   64.0060 C   0  0  0  0  0  0  0  0  0  0  0  0
  127.8580  131.4990   65.1750 C   0  0  0  0  0  0  0  0  0  0  0  0
  127.4940  130.1570   65.3310 C   0  0  0  0  0  0  0  0  0  0  0  0
  127.8420  129.4340   66.6240 C   0  0  0  0  0  0  0  0  0  0  0  0
  128.6570  128.1700   66.3880 C   0  0  0  0  0  0  0  0  0  0  0  0
  128.9370  127.3170   67.4620 C   0  0  0  0  0  0  0  0  0  0  0  0
  129.6820  126.1460   67.3080 C   0  0  0  0  0  0  0  0  0  0  0  0
  130.1360  125.8590   66.0170 C   0  0  0  0  0  0  0  0  0  0  0  0
  130.8960  124.8100   65.5150 N   0  0  0  0  0  0  0  0  0  0  0  0
  131.0910  124.9740   64.1630 C   0  0  0  0  0  0  0  0  0  0  0  0
  131.8670  124.0780   63.2520 C   0  0  0  0  0  0  0  0  0  0  0  0
  133.1090  124.4890   62.7530 C   0  0  0  0  0  0  0  0  0  0  0  0
  133.8400  123.6550   61.9120 C   0  0  0  0  0  0  0  0  0  0  0  0
  133.3310  122.4040   61.5640 C   0  0  0  0  0  0  0  0  0  0  0  0
  134.0660  121.5680   60.7240 N   0  0  0  0  0  0  0  0  0  0  0  0
  132.0950  121.9860   62.0540 C   0  0  0  0  0  0  0  0  0  0  0  0
  131.3650  122.8210   62.8950 C   0  0  0  0  0  0  0  0  0  0  0  0
  130.4390  126.1340   63.8140 N   0  0  0  0  0  0  0  0  0  0  0  0
  129.8460  126.7030   64.9320 C   0  0  0  0  0  0  0  0  0  0  0  0
  129.0950  127.8700   65.0920 C   0  0  0  0  0  0  0  0  0  0  0  0
  126.7940  129.4710   64.3290 C   0  0  0  0  0  0  0  0  0  0  0  0
  126.5120  130.1810   63.1600 C   0  0  0  0  0  0  0  0  0  0  0  0
  125.8820  129.8600   61.9800 N   0  0  0  0  0  0  0  0  0  0  0  0
  126.0840  130.5380   58.6920 C   0  0  0  0  0  0  0  0  0  0  0  0
  125.5550  130.5730   57.4040 C   0  0  0  0  0  0  0  0  0  0  0  0
  124.3490  131.3440   55.1290 H   0  0  0  0  0  0  0  0  0  0  0  0
  122.7580  130.9570   55.7680 H   0  0  0  0  0  0  0  0  0  0  0  0
  122.5063  131.9422   58.0988 H   0  0  0  0  0  0  0  0  0  0  0  0
  123.4490  131.8756   60.4029 H   0  0  0  0  0  0  0  0  0  0  0  0
  127.8601  133.2590   63.8934 H   0  0  0  0  0  0  0  0  0  0  0  0
  128.3869  132.0102   65.9929 H   0  0  0  0  0  0  0  0  0  0  0  0
  128.4247  130.1146   67.2622 H   0  0  0  0  0  0  0  0  0  0  0  0
  126.8977  129.1364   67.1033 H   0  0  0  0  0  0  0  0  0  0  0  0
  128.5574  127.5779   68.4609 H   0  0  0  0  0  0  0  0  0  0  0  0
  129.9005  125.4835   68.1585 H   0  0  0  0  0  0  0  0  0  0  0  0
  131.2760  124.0270   66.0260 H   0  0  0  0  0  0  0  0  0  0  0  0
  133.5091  125.4763   63.0271 H   0  0  0  0  0  0  0  0  0  0  0  0
  134.8158  123.9814   61.5231 H   0  0  0  0  0  0  0  0  0  0  0  0
  133.8540  121.5440   59.7370 H   0  0  0  0  0  0  0  0  0  0  0  0
  134.7820  120.9750   61.1160 H   0  0  0  0  0  0  0  0  0  0  0  0
  131.6974  120.9986   61.7768 H   0  0  0  0  0  0  0  0  0  0  0  0
  130.3890  122.4916   63.2809 H   0  0  0  0  0  0  0  0  0  0  0  0
  130.4290  126.4830   62.8680 H   0  0  0  0  0  0  0  0  0  0  0  0
  128.8585  128.5233   64.2392 H   0  0  0  0  0  0  0  0  0  0  0  0
  126.4819  128.4240   64.4572 H   0  0  0  0  0  0  0  0  0  0  0  0
  125.4680  128.9820   61.7040 H   0  0  0  0  0  0  0  0  0  0  0  0
  127.0964  130.1404   58.8562 H   0  0  0  0  0  0  0  0  0  0  0  0
  126.1474  130.2031   56.5542 H   0  0  0  0  0  0  0  0  0  0  0  0
  1  2  1  0
  2  3  2  0
  3  4  1  0
  4  5  2  0
  5  6  1  0
  6  7  2  0
  7  8  1  0
  8  9  2  0
  9 10  1  0
 10 11  2  0
 11 12  1  0
 12 13  1  0
 13 14  2  0
 14 15  1  0
 15 16  2  0
 16 17  1  0
 17 18  1  0
 18 19  1  0
 19 20  2  0
 20 21  1  0
 21 22  2  0
 22 23  1  0
 22 24  1  0
 24 25  2  0
 18 26  2  0
 26 27  1  0
 27 28  2  0
 11 29  1  0
 29 30  2  0
 30 31  1  0
  5 32  1  0
 32 33  2  0
 33  2  1  0
 31  6  1  0
 30  8  1  0
 28 13  1  0
 27 16  1  0
 25 19  1  0
  1 34  1  0
  1 35  1  0
  3 36  1  0
  4 37  1  0
  9 38  1  0
 10 39  1  0
 12 40  1  0
 12 41  1  0
 14 42  1  0
 15 43  1  0
 17 44  1  0
 20 45  1  0
 21 46  1  0
 23 47  1  0
 23 48  1  0
 24 49  1  0
 25 50  1  0
 26 51  1  0
 28 52  1  0
 29 53  1  0
 31 54  1  0
 32 55  1  0
 33 56  1  0
M  CHG  1  26   1
M  END
>  <Binding energies>  (1) 
[-9.81]

>  <Ligand effiencies>  (1) 
[-0.24525000000000002]

>  <Interactions>  (1) 
["H-A:GLU:543:OE1:4906, V-A:ALA:541:CB:4889, V-A:GLU:543:CD:4905, V-A:TYR:539:CE2:4873, V-A:HIS:456:CE1:4066, V-A:GLU:543:CB:4903, V-B:HIS:456:CE1:9038, V-B:ASP:366:CA:8178, V-B:ASP:366:CB:8180, H-B:ASP:366:OD1:8182, V-B:TYR:531:CZ:9763, V-B:ILE:369:CG2:8205, V-B:ASP:366:CG:8181, H-B:TYR:531:OH:9764, V-A:TYR:539:CZ:4874, H-B:TYR:539:OH:9847, V-A:TYR:484:CZ:4343, V-B:TYR:539:CE2:9845, V-A:TYR:484:CE1:4341, V-A:GLU:543:CG:4904, V-A:LEU:475:CD1:4254, V-A:ILE:369:CG1:3234, V-A:ILE:369:CB:3232, V-B:ILE:369:CD1:8207, V-A:ILE:369:CG2:3233, V-A:GLY:454:CA:4045, H-A:TYR:484:OH:4344, H-B:ASP:366:OD2:8183, V-B:TYR:484:CE1:9313, V-B:TYR:531:CE1:9761, V-B:TYR:484:CZ:9315, V-B:ILE:369:CB:8204, V-B:ASP:366:C:8176, V-B:ASN:370:CA:8211, V-B:ASN:370:CB:8213, H-A:TYR:539:OH:4875, H-B:ASP:366:O:8177, H-B:ASN:370:OD1:8215, H-A:SER:385:O:3402"]

$$$$
RR11_Rahimova_2017-again2
     RDKit          3D

 57 62  0  0  0  0  0  0  0  0999 V2000
  123.6840  131.1150   55.8650 N   0  0  0  0  0  0  0  0  0  0  0  0
  124.2240  131.0810   57.1500 C   0  0  0  0  0  0  0  0  0  0  0  0
  125.5130  130.5920   57.3480 C   0  0  0  0  0  0  0  0  0  0  0  0
  126.0500  130.5520   58.6320 C   0  0  0  0  0  0  0  0  0  0  0  0
  125.2990  131.0010   59.7260 C   0  0  0  0  0  0  0  0  0  0  0  0
  125.8710  130.9490   61.1050 C   0  0  0  0  0  0  0  0  0  0  0  0
  125.8620  129.8700   61.9600 N   0  0  0  0  0  0  0  0  0  0  0  0
  126.5060  130.1970   63.1460 C   0  0  0  0  0  0  0  0  0  0  0  0
  126.7620  129.4520   64.3010 C   0  0  0  0  0  0  0  0  0  0  0  0
  127.4680  130.0930   65.3260 C   0  0  0  0  0  0  0  0  0  0  0  0
  127.7810  129.3310   66.6070 C   0  0  0  0  0  0  0  0  0  0  0  0
  128.6100  128.0790   66.3600 C   0  0  0  0  0  0  0  0  0  0  0  0
  128.8690  127.2020   67.4210 C   0  0  0  0  0  0  0  0  0  0  0  0
  129.6240  126.0380   67.2550 C   0  0  0  0  0  0  0  0  0  0  0  0
  130.1090  125.7830   65.9700 C   0  0  0  0  0  0  0  0  0  0  0  0
  130.8850  124.7490   65.4640 N   0  0  0  0  0  0  0  0  0  0  0  0
  131.1110  124.9420   64.1200 C   0  0  0  0  0  0  0  0  0  0  0  0
  131.9120  124.0670   63.2110 C   0  0  0  0  0  0  0  0  0  0  0  0
  131.4400  122.7980   62.8570 C   0  0  0  0  0  0  0  0  0  0  0  0
  132.1810  121.9870   62.0010 C   0  0  0  0  0  0  0  0  0  0  0  0
  133.3970  122.4410   61.4950 C   0  0  0  0  0  0  0  0  0  0  0  0
  134.1360  121.6320   60.6330 N   0  0  0  0  0  0  0  0  0  0  0  0
  133.8780  123.7020   61.8450 C   0  0  0  0  0  0  0  0  0  0  0  0
  133.1370  124.5130   62.7000 C   0  0  0  0  0  0  0  0  0  0  0  0
  130.4630  126.1070   63.7820 N   0  0  0  0  0  0  0  0  0  0  0  0
  129.8420  126.6500   64.8990 C   0  0  0  0  0  0  0  0  0  0  0  0
  129.0810  127.8110   65.0680 C   0  0  0  0  0  0  0  0  0  0  0  0
  127.8700  131.4290   65.2040 C   0  0  0  0  0  0  0  0  0  0  0  0
  127.6110  132.1800   64.0550 C   0  0  0  0  0  0  0  0  0  0  0  0
  126.9240  131.5320   63.0250 C   0  0  0  0  0  0  0  0  0  0  0  0
  126.5200  131.9650   61.7680 N   0  0  0  0  0  0  0  0  0  0  0  0
  124.0060  131.4940   59.5150 C   0  0  0  0  0  0  0  0  0  0  0  0
  123.4690  131.5340   58.2310 C   0  0  0  0  0  0  0  0  0  0  0  0
  122.7150  130.8660   55.7260 H   0  0  0  0  0  0  0  0  0  0  0  0
  124.2820  131.3250   55.0790 H   0  0  0  0  0  0  0  0  0  0  0  0
  126.1057  130.2381   56.4916 H   0  0  0  0  0  0  0  0  0  0  0  0
  127.0682  130.1662   58.7880 H   0  0  0  0  0  0  0  0  0  0  0  0
  125.4410  128.9870   61.7120 H   0  0  0  0  0  0  0  0  0  0  0  0
  126.4242  128.4098   64.3999 H   0  0  0  0  0  0  0  0  0  0  0  0
  128.3396  129.9947   67.2834 H   0  0  0  0  0  0  0  0  0  0  0  0
  126.8237  129.0134   67.0461 H   0  0  0  0  0  0  0  0  0  0  0  0
  128.4651  127.4371   68.4168 H   0  0  0  0  0  0  0  0  0  0  0  0
  129.8264  125.3564   68.0943 H   0  0  0  0  0  0  0  0  0  0  0  0
  131.2560  123.9550   65.9650 H   0  0  0  0  0  0  0  0  0  0  0  0
  130.4798  122.4396   63.2565 H   0  0  0  0  0  0  0  0  0  0  0  0
  131.8069  120.9901   61.7250 H   0  0  0  0  0  0  0  0  0  0  0  0
  133.8940  121.5940   59.6550 H   0  0  0  0  0  0  0  0  0  0  0  0
  134.8640  121.0420   61.0100 H   0  0  0  0  0  0  0  0  0  0  0  0
  134.8406  124.0551   61.4465 H   0  0  0  0  0  0  0  0  0  0  0  0
  133.5154  125.5085   62.9754 H   0  0  0  0  0  0  0  0  0  0  0  0
  130.4730  126.4780   62.8420 H   0  0  0  0  0  0  0  0  0  0  0  0
  128.8622  128.4831   64.2251 H   0  0  0  0  0  0  0  0  0  0  0  0
  128.4068  131.9020   66.0396 H   0  0  0  0  0  0  0  0  0  0  0  0
  127.9316  133.2284   63.9655 H   0  0  0  0  0  0  0  0  0  0  0  0
  126.6620  132.8740   61.3560 H   0  0  0  0  0  0  0  0  0  0  0  0
  123.4110  131.8517   60.3682 H   0  0  0  0  0  0  0  0  0  0  0  0
  122.4523  131.9218   58.0700 H   0  0  0  0  0  0  0  0  0  0  0  0
  1  2  1  0
  2  3  2  0
  3  4  1  0
  4  5  2  0
  5  6  1  0
  6  7  1  0
  7  8  1  0
  8  9  2  0
  9 10  1  0
 10 11  1  0
 11 12  1  0
 12 13  2  0
 13 14  1  0
 14 15  2  0
 15 16  1  0
 16 17  1  0
 17 18  1  0
 18 19  2  0
 19 20  1  0
 20 21  2  0
 21 22  1  0
 21 23  1  0
 23 24  2  0
 17 25  2  0
 25 26  1  0
 26 27  2  0
 10 28  2  0
 28 29  1  0
 29 30  2  0
 30 31  1  0
  5 32  1  0
 32 33  2  0
 33  2  1  0
 31  6  2  0
 30  8  1  0
 27 12  1  0
 26 15  1  0
 24 18  1  0
  1 34  1  0
  1 35  1  0
  3 36  1  0
  4 37  1  0
  7 38  1  0
  9 39  1  0
 11 40  1  0
 11 41  1  0
 13 42  1  0
 14 43  1  0
 16 44  1  0
 19 45  1  0
 20 46  1  0
 22 47  1  0
 22 48  1  0
 23 49  1  0
 24 50  1  0
 25 51  1  0
 27 52  1  0
 28 53  1  0
 29 54  1  0
 31 55  1  0
 32 56  1  0
 33 57  1  0
M  CHG  2  25   1  31   1
M  END
>  <Binding energies>  (1) 
[-10.42]

>  <Ligand effiencies>  (1) 
[-0.25414634146341464]

>  <Interactions>  (1) 
["H-A:GLU:543:OE1:4906, V-A:ALA:541:CB:4889, V-A:GLU:543:CD:4905, V-A:TYR:539:CE2:4873, V-A:HIS:456:CE1:4066, V-A:GLU:543:CB:4903, V-B:GLU:543:CB:9875, V-B:HIS:456:CE1:9038, V-B:ASP:366:CA:8178, V-B:ASP:366:CB:8180, H-B:ASP:366:OD1:8182, V-B:TYR:531:CZ:9763, V-B:ILE:369:CG2:8205, V-B:ASP:366:CG:8181, H-B:TYR:531:OH:9764, V-A:TYR:539:CZ:4874, H-B:TYR:539:OH:9847, V-A:TYR:484:CZ:4343, V-B:TYR:539:CE2:9845, V-A:TYR:484:CE1:4341, V-A:GLU:543:CG:4904, V-A:LEU:475:CD1:4254, V-A:ILE:369:CG1:3234, V-A:ILE:369:CB:3232, V-B:ILE:369:CD1:8207, V-A:ILE:369:CG2:3233, H-A:TYR:484:OH:4344, H-B:ASP:366:OD2:8183, V-B:TYR:484:CE1:9313, V-B:TYR:531:CE1:9761, V-B:TYR:484:CZ:9315, V-B:ILE:369:CB:8204, V-B:ASP:366:C:8176, V-B:ASN:370:CA:8211, V-B:ASN:370:CB:8213, H-A:TYR:539:OH:4875, H-B:ASP:366:O:8177, H-B:ASN:370:OD1:8215, H-A:SER:385:O:3402"]

$$$$
RR12_Rahimova_2017
     RDKit          3D

 51 53  0  0  0  0  0  0  0  0999 V2000
  127.6430  122.4850   55.1950 C   0  0  0  0  0  0  0  0  0  0  0  0
  127.0650  122.1600   56.5790 C   0  0  0  0  0  0  0  0  0  0  0  0
  127.8490  122.8340   57.7200 C   0  0  0  0  0  0  0  0  0  0  0  0
  127.0070  122.9910   58.9040 N   0  0  0  0  0  0  0  0  0  0  0  0
  127.2910  122.5900   60.2010 C   0  0  0  0  0  0  0  0  0  0  0  0
  128.5570  121.8520   60.6010 C   0  0  0  0  0  0  0  0  0  0  0  0
  129.6240  122.7940   61.1900 C   0  0  0  0  0  0  0  0  0  0  0  0
  129.8950  122.5260   62.6830 C   0  0  0  0  0  0  0  0  0  0  0  0
  130.5620  123.6330   63.3690 N   0  0  0  0  0  0  0  0  0  0  0  0
  131.6980  123.5270   64.0810 C   0  0  0  0  0  0  0  0  0  0  0  0
  132.3040  122.4640   64.2320 O   0  0  0  0  0  0  0  0  0  0  0  0
  132.2150  124.8300   64.7040 C   0  0  0  0  0  0  0  0  0  0  0  0
  131.1830  125.8170   64.6700 O   0  0  0  0  0  0  0  0  0  0  0  0
  130.4530  126.0720   65.8150 C   0  0  0  0  0  0  0  0  0  0  0  0
  130.0960  124.9620   66.5840 C   0  0  0  0  0  0  0  0  0  0  0  0
  129.3630  125.1200   67.7570 C   0  0  0  0  0  0  0  0  0  0  0  0
  128.9850  126.3960   68.1670 C   0  0  0  0  0  0  0  0  0  0  0  0
  129.3310  127.5140   67.4110 C   0  0  0  0  0  0  0  0  0  0  0  0
  130.0630  127.3540   66.2370 C   0  0  0  0  0  0  0  0  0  0  0  0
  126.3480  122.8940   61.0570 N   0  0  0  0  0  0  0  0  0  0  0  0
  125.4010  123.5480   60.3180 C   0  0  0  0  0  0  0  0  0  0  0  0
  124.1830  124.1050   60.7380 C   0  0  0  0  0  0  0  0  0  0  0  0
  123.3840  124.7330   59.7830 C   0  0  0  0  0  0  0  0  0  0  0  0
  123.7780  124.8110   58.4460 C   0  0  0  0  0  0  0  0  0  0  0  0
  124.9830  124.2670   57.9970 C   0  0  0  0  0  0  0  0  0  0  0  0
  125.7840  123.6340   58.9570 C   0  0  0  0  0  0  0  0  0  0  0  0
  128.5963  123.0210   55.3124 H   0  0  0  0  0  0  0  0  0  0  0  0
  127.8137  121.5506   54.6403 H   0  0  0  0  0  0  0  0  0  0  0  0
  126.9333  123.1163   54.6403 H   0  0  0  0  0  0  0  0  0  0  0  0
  126.0216  122.5065   56.6155 H   0  0  0  0  0  0  0  0  0  0  0  0
  127.1357  121.0718   56.7230 H   0  0  0  0  0  0  0  0  0  0  0  0
  128.7196  122.2123   57.9761 H   0  0  0  0  0  0  0  0  0  0  0  0
  128.1757  123.8293   57.3843 H   0  0  0  0  0  0  0  0  0  0  0  0
  128.3005  121.0933   61.3550 H   0  0  0  0  0  0  0  0  0  0  0  0
  128.9783  121.3927   59.6946 H   0  0  0  0  0  0  0  0  0  0  0  0
  130.5618  122.6562   60.6319 H   0  0  0  0  0  0  0  0  0  0  0  0
  129.2448  123.8227   61.1006 H   0  0  0  0  0  0  0  0  0  0  0  0
  128.9329  122.3378   63.1820 H   0  0  0  0  0  0  0  0  0  0  0  0
  130.5724  121.6609   62.7359 H   0  0  0  0  0  0  0  0  0  0  0  0
  130.1230  124.5390   63.2870 H   0  0  0  0  0  0  0  0  0  0  0  0
  132.5113  124.6452   65.7471 H   0  0  0  0  0  0  0  0  0  0  0  0
  133.0844  125.1891   64.1337 H   0  0  0  0  0  0  0  0  0  0  0  0
  130.3965  123.9546   66.2601 H   0  0  0  0  0  0  0  0  0  0  0  0
  129.0838  124.2413   68.3569 H   0  0  0  0  0  0  0  0  0  0  0  0
  128.4085  126.5223   69.0953 H   0  0  0  0  0  0  0  0  0  0  0  0
  129.0273  128.5188   67.7400 H   0  0  0  0  0  0  0  0  0  0  0  0
  130.3369  128.2349   65.6378 H   0  0  0  0  0  0  0  0  0  0  0  0
  123.8677  124.0478   61.7903 H   0  0  0  0  0  0  0  0  0  0  0  0
  122.4246  125.1755   60.0892 H   0  0  0  0  0  0  0  0  0  0  0  0
  123.1192  125.3163   57.7244 H   0  0  0  0  0  0  0  0  0  0  0  0
  125.2884  124.3321   56.9422 H   0  0  0  0  0  0  0  0  0  0  0  0
  1  2  1  0
  2  3  1  0
  3  4  1  0
  4  5  1  0
  5  6  1  0
  6  7  1  0
  7  8  1  0
  8  9  1  0
  9 10  1  0
 10 11  2  0
 10 12  1  0
 12 13  1  0
 13 14  1  0
 14 15  2  0
 15 16  1  0
 16 17  2  0
 17 18  1  0
 18 19  2  0
  5 20  2  0
 20 21  1  0
 21 22  2  0
 22 23  1  0
 23 24  2  0
 24 25  1  0
 25 26  2  0
 26  4  1  0
 19 14  1  0
 26 21  1  0
  1 27  1  0
  1 28  1  0
  1 29  1  0
  2 30  1  0
  2 31  1  0
  3 32  1  0
  3 33  1  0
  6 34  1  0
  6 35  1  0
  7 36  1  0
  7 37  1  0
  8 38  1  0
  8 39  1  0
  9 40  1  0
 12 41  1  0
 12 42  1  0
 15 43  1  0
 16 44  1  0
 17 45  1  0
 18 46  1  0
 19 47  1  0
 22 48  1  0
 23 49  1  0
 24 50  1  0
 25 51  1  0
M  END
>  <Binding energies>  (1) 
[-7.13]

>  <Ligand effiencies>  (1) 
[-0.26407407407407407]

>  <Interactions>  (1) 
["V-A:GLU:543:CD:4905, V-B:GLU:543:C:9871, V-A:HIS:456:CE1:4066, V-A:GLU:543:CB:4903, V-B:GLU:543:CB:9875, V-B:ASP:366:CB:8180, V-B:ASN:362:CB:8144, V-B:TYR:539:CE1:9844, V-B:MET:535:CE:9804, V-B:PRO:540:CA:9852, V-B:ASN:362:C:8140, V-B:PRO:540:N:9853, V-B:PRO:540:C:9850, V-B:PRO:540:CB:9854, V-B:ASP:366:CG:8181, V-B:LEU:363:CD1:8157, V-B:LEU:363:CA:8153, V-B:ALA:541:CB:9861, V-B:GLU:543:CG:9876, V-A:TYR:484:CZ:4343, V-B:TYR:539:CE2:9845, V-A:TYR:484:CE1:4341, V-B:GLU:543:CA:9873, H-B:ALA:541:N:9860, V-B:ILE:538:CG2:9832, V-B:ILE:538:CB:9831, V-B:PRO:540:CD:9856, V-B:TYR:539:C:9836, V-B:TYR:539:CD2:9843, V-B:ILE:538:CA:9829, V-B:TYR:539:CD1:9842, H-A:GLY:454:N:4046, H-A:TYR:484:OH:4344"]

$$$$
RR13_Rahimova_2017
     RDKit          3D

 84 90  0  0  0  0  0  0  0  0999 V2000
  130.8330  130.1630   59.2460 Cl  0  0  0  0  0  0  0  0  0  0  0  0
  130.4660  131.0570   57.8090 C   0  0  0  0  0  0  0  0  0  0  0  0
  131.4610  131.8880   57.2880 C   0  0  0  0  0  0  0  0  0  0  0  0
  131.2210  132.6490   56.1470 C   0  0  0  0  0  0  0  0  0  0  0  0
  129.9800  132.5840   55.5190 C   0  0  0  0  0  0  0  0  0  0  0  0
  128.9830  131.7570   56.0320 C   0  0  0  0  0  0  0  0  0  0  0  0
  129.2100  130.9730   57.1750 C   0  0  0  0  0  0  0  0  0  0  0  0
  128.0800  130.0840   57.7380 C   0  0  1  0  0  0  0  0  0  0  0  0
  126.7650  130.3130   56.9760 C   0  0  0  0  0  0  0  0  0  0  0  0
  126.6000  130.2920   55.6720 N   0  0  0  0  0  0  0  0  0  0  0  0
  125.2550  130.5780   55.4540 N   0  0  0  0  0  0  0  0  0  0  0  0
  124.6150  130.7910   56.6590 N   0  0  0  0  0  0  0  0  0  0  0  0
  125.5720  130.6460   57.5810 N   0  0  0  0  0  0  0  0  0  0  0  0
  125.2550  130.7640   58.9990 C   0  0  0  0  0  0  0  0  0  0  0  0
  124.7290  132.1770   59.3130 C   0  0  0  0  0  0  0  0  0  0  0  0
  125.8090  133.0770   59.8940 C   0  0  0  0  0  0  0  0  0  0  0  0
  125.5180  134.4090   60.1980 C   0  0  0  0  0  0  0  0  0  0  0  0
  126.5100  135.2340   60.7220 C   0  0  0  0  0  0  0  0  0  0  0  0
  127.7880  134.7230   60.9420 C   0  0  0  0  0  0  0  0  0  0  0  0
  128.0830  133.3960   60.6400 C   0  0  0  0  0  0  0  0  0  0  0  0
  127.0920  132.5700   60.1150 C   0  0  0  0  0  0  0  0  0  0  0  0
  128.4430  128.6490   57.8190 N   0  0  0  0  0  0  0  0  0  0  0  0
  128.7140  128.1070   56.4740 C   0  0  0  0  0  0  0  0  0  0  0  0
  129.2220  126.6490   56.5620 C   0  0  0  0  0  0  0  0  0  0  0  0
  128.2090  125.7830   57.1860 N   0  0  0  0  0  0  0  0  0  0  0  0
  128.6200  124.3600   57.2160 C   0  0  1  0  0  0  0  0  0  0  0  0
  129.1980  123.8620   58.5590 C   0  0  0  0  0  0  0  0  0  0  0  0
  128.4370  122.9310   59.2780 C   0  0  0  0  0  0  0  0  0  0  0  0
  128.8880  122.4140   60.4910 C   0  0  0  0  0  0  0  0  0  0  0  0
  130.1120  122.8280   61.0100 C   0  0  0  0  0  0  0  0  0  0  0  0
  130.8770  123.7640   60.3190 C   0  0  0  0  0  0  0  0  0  0  0  0
  130.4310  124.2910   59.1040 C   0  0  0  0  0  0  0  0  0  0  0  0
  131.4210  125.5000   58.3580 Cl  0  0  0  0  0  0  0  0  0  0  0  0
  127.5260  123.4070   56.7300 C   0  0  0  0  0  0  0  0  0  0  0  0
  127.6810  122.1250   56.4940 N   0  0  0  0  0  0  0  0  0  0  0  0
  126.4350  121.6560   56.0920 N   0  0  0  0  0  0  0  0  0  0  0  0
  125.5160  122.6850   56.1040 N   0  0  0  0  0  0  0  0  0  0  0  0
  126.2070  123.7520   56.5220 N   0  0  0  0  0  0  0  0  0  0  0  0
  125.5480  125.0490   56.6370 C   0  0  0  0  0  0  0  0  0  0  0  0
  124.2210  124.9110   57.4050 C   0  0  0  0  0  0  0  0  0  0  0  0
  124.4220  124.3450   58.8020 C   0  0  0  0  0  0  0  0  0  0  0  0
  123.3840  123.6530   59.4310 C   0  0  0  0  0  0  0  0  0  0  0  0
  123.5700  123.1290   60.7080 C   0  0  0  0  0  0  0  0  0  0  0  0
  124.7950  123.2990   61.3510 C   0  0  0  0  0  0  0  0  0  0  0  0
  125.8350  123.9880   60.7280 C   0  0  0  0  0  0  0  0  0  0  0  0
  125.6490  124.5120   59.4520 C   0  0  0  0  0  0  0  0  0  0  0  0
  127.9440  126.3240   58.5320 C   0  0  0  0  0  0  0  0  0  0  0  0
  127.4270  127.7790   58.4370 C   0  0  0  0  0  0  0  0  0  0  0  0
  132.4418  131.9415   57.7832 H   0  0  0  0  0  0  0  0  0  0  0  0
  132.0100  133.3001   55.7426 H   0  0  0  0  0  0  0  0  0  0  0  0
  129.7869  133.1853   54.6183 H   0  0  0  0  0  0  0  0  0  0  0  0
  128.0029  131.7175   55.5341 H   0  0  0  0  0  0  0  0  0  0  0  0
  127.9233  130.3987   58.7803 H   0  0  0  0  0  0  0  0  0  0  0  0
  124.4852  130.0235   59.2616 H   0  0  0  0  0  0  0  0  0  0  0  0
  126.1675  130.5831   59.5860 H   0  0  0  0  0  0  0  0  0  0  0  0
  124.3531  132.6296   58.3835 H   0  0  0  0  0  0  0  0  0  0  0  0
  123.9304  132.0807   60.0633 H   0  0  0  0  0  0  0  0  0  0  0  0
  124.5069  134.8056   60.0238 H   0  0  0  0  0  0  0  0  0  0  0  0
  126.2860  136.2841   60.9612 H   0  0  0  0  0  0  0  0  0  0  0  0
  128.5709  135.3741   61.3581 H   0  0  0  0  0  0  0  0  0  0  0  0
  129.0948  133.0016   60.8154 H   0  0  0  0  0  0  0  0  0  0  0  0
  127.3190  131.5208   59.8749 H   0  0  0  0  0  0  0  0  0  0  0  0
  127.7872  128.1309   55.8820 H   0  0  0  0  0  0  0  0  0  0  0  0
  129.4899  128.7226   55.9954 H   0  0  0  0  0  0  0  0  0  0  0  0
  129.4380  126.2799   55.5485 H   0  0  0  0  0  0  0  0  0  0  0  0
  130.1334  126.6281   57.1776 H   0  0  0  0  0  0  0  0  0  0  0  0
  129.4539  124.3394   56.4989 H   0  0  0  0  0  0  0  0  0  0  0  0
  127.4664  122.6023   58.8780 H   0  0  0  0  0  0  0  0  0  0  0  0
  128.2779  121.6799   61.0377 H   0  0  0  0  0  0  0  0  0  0  0  0
  130.4738  122.4165   61.9638 H   0  0  0  0  0  0  0  0  0  0  0  0
  131.8418  124.0918   60.7335 H   0  0  0  0  0  0  0  0  0  0  0  0
  126.2081  125.7443   57.1762 H   0  0  0  0  0  0  0  0  0  0  0  0
  125.3377  125.4329   55.6278 H   0  0  0  0  0  0  0  0  0  0  0  0
  123.7552  125.9040   57.4887 H   0  0  0  0  0  0  0  0  0  0  0  0
  123.5790  124.2134   56.8472 H   0  0  0  0  0  0  0  0  0  0  0  0
  122.4199  123.5220   58.9177 H   0  0  0  0  0  0  0  0  0  0  0  0
  122.7547  122.5840   61.2063 H   0  0  0  0  0  0  0  0  0  0  0  0
  124.9427  122.8856   62.3596 H   0  0  0  0  0  0  0  0  0  0  0  0
  126.7985  124.1169   61.2429 H   0  0  0  0  0  0  0  0  0  0  0  0
  126.4657  125.0566   58.9556 H   0  0  0  0  0  0  0  0  0  0  0  0
  127.1856  125.7018   59.0297 H   0  0  0  0  0  0  0  0  0  0  0  0
  128.8796  126.3151   59.1104 H   0  0  0  0  0  0  0  0  0  0  0  0
  126.5130  127.7991   57.8253 H   0  0  0  0  0  0  0  0  0  0  0  0
  127.2131  128.1472   59.4512 H   0  0  0  0  0  0  0  0  0  0  0  0
  1  2  1  0
  2  3  2  0
  3  4  1  0
  4  5  2  0
  5  6  1  0
  6  7  2  0
  7  8  1  0
  8  9  1  0
  9 10  2  0
 10 11  1  0
 11 12  2  0
 12 13  1  0
 13 14  1  0
 14 15  1  0
 15 16  1  0
 16 17  2  0
 17 18  1  0
 18 19  2  0
 19 20  1  0
 20 21  2  0
  8 22  1  0
 22 23  1  0
 23 24  1  0
 24 25  1  0
 25 26  1  0
 26 27  1  0
 27 28  2  0
 28 29  1  0
 29 30  2  0
 30 31  1  0
 31 32  2  0
 32 33  1  0
 26 34  1  0
 34 35  2  0
 35 36  1  0
 36 37  2  0
 37 38  1  0
 38 39  1  0
 39 40  1  0
 40 41  1  0
 41 42  2  0
 42 43  1  0
 43 44  2  0
 44 45  1  0
 45 46  2  0
 25 47  1  0
 47 48  1  0
  7  2  1  0
 13  9  1  0
 21 16  1  0
 48 22  1  0
 32 27  1  0
 38 34  1  0
 46 41  1  0
  3 49  1  0
  4 50  1  0
  5 51  1  0
  6 52  1  0
  8 53  1  1
 14 54  1  0
 14 55  1  0
 15 56  1  0
 15 57  1  0
 17 58  1  0
 18 59  1  0
 19 60  1  0
 20 61  1  0
 21 62  1  0
 23 63  1  0
 23 64  1  0
 24 65  1  0
 24 66  1  0
 26 67  1  6
 28 68  1  0
 29 69  1  0
 30 70  1  0
 31 71  1  0
 39 72  1  0
 39 73  1  0
 40 74  1  0
 40 75  1  0
 42 76  1  0
 43 77  1  0
 44 78  1  0
 45 79  1  0
 46 80  1  0
 47 81  1  0
 47 82  1  0
 48 83  1  0
 48 84  1  0
M  END
>  <Binding energies>  (1) 
[-13.52]

>  <Ligand effiencies>  (1) 
[-0.2816666666666667]

>  <Interactions>  (1) 
["V-A:TYR:539:CD2:4871, V-A:PRO:540:CB:4882, V-A:ALA:541:CB:4889, V-A:PRO:540:CA:4880, V-A:PRO:540:N:4881, V-A:TYR:539:C:4864, V-B:TRP:381:CZ2:8338, V-B:TRP:381:CH2:8340, V-A:ASP:366:CB:3208, V-A:ASP:366:CG:3209, V-A:TYR:539:CE2:4873, V-B:LEU:475:CD2:9227, V-A:ILE:538:CD1:4862, V-B:ASP:366:CB:8180, V-B:ASN:362:CB:8144, V-B:MET:535:CE:9804, V-B:PRO:540:CA:9852, V-B:TYR:539:CZ:9846, V-B:TYR:531:CE2:9762, V-B:ASN:362:C:8140, V-B:TYR:531:CZ:9763, V-B:ILE:369:CG2:8205, V-B:PRO:540:C:9850, V-B:PRO:540:CB:9854, V-B:ASP:366:CG:8181, H-B:TYR:539:N:9839, V-B:LEU:363:CD1:8157, V-B:LEU:363:CA:8153, H-B:TYR:531:OH:9764, V-B:ALA:541:CB:9861, V-A:ILE:538:CG2:4860, V-A:PRO:540:CD:4884, V-B:GLU:543:CD:9877, V-B:TYR:539:CE2:9845, V-A:ILE:538:CA:4857, V-B:LEU:363:CB:8155, V-B:ASN:362:CA:8142, H-A:TYR:539:OH:4875"]

$$$$
RR14_Rahimova_2017
     RDKit          3D

 76 80  0  0  0  0  0  0  0  0999 V2000
  127.6610  129.7550   65.8200 C   0  0  0  0  0  0  0  0  0  0  0  0
  128.2080  128.8120   66.7350 O   0  0  0  0  0  0  0  0  0  0  0  0
  128.7690  127.6470   66.2460 C   0  0  0  0  0  0  0  0  0  0  0  0
  129.1150  126.6790   67.1900 C   0  0  0  0  0  0  0  0  0  0  0  0
  129.7070  125.4840   66.7930 C   0  0  0  0  0  0  0  0  0  0  0  0
  129.9650  125.2480   65.4410 C   0  0  0  0  0  0  0  0  0  0  0  0
  130.6730  123.9690   65.0100 C   0  0  0  0  0  0  0  0  0  0  0  0
  131.9660  124.2110   64.3690 N   0  0  0  0  0  0  0  0  0  0  0  0
  132.8050  125.1280   64.8640 N   0  0  0  0  0  0  0  0  0  0  0  0
  133.8890  125.1100   64.0090 N   0  0  0  0  0  0  0  0  0  0  0  0
  133.6840  124.1780   62.9970 N   0  0  0  0  0  0  0  0  0  0  0  0
  132.5060  123.6500   63.2330 C   0  0  0  0  0  0  0  0  0  0  0  0
  131.8330  122.5890   62.3730 C   0  0  0  0  0  0  0  0  0  0  0  0
  130.9860  123.1730   61.3190 N   0  0  0  0  0  0  0  0  0  0  0  0
  131.7840  123.7960   60.2560 C   0  0  0  0  0  0  0  0  0  0  0  0
  131.2660  125.1900   59.8380 C   0  0  0  0  0  0  0  0  0  0  0  0
  130.1210  125.1410   58.8050 C   0  0  0  0  0  0  0  0  0  0  0  0
  130.5680  125.3870   57.4300 N   0  0  0  0  0  0  0  0  0  0  0  0
  130.0280  124.3620   56.5270 C   0  0  0  0  0  0  0  0  0  0  0  0
  130.5220  124.5610   55.0790 C   0  0  0  0  0  0  0  0  0  0  0  0
  131.9450  124.6110   55.0500 O   0  0  0  0  0  0  0  0  0  0  0  0
  132.4630  125.6780   55.8370 C   0  0  0  0  0  0  0  0  0  0  0  0
  132.0280  125.5110   57.3090 C   0  0  0  0  0  0  0  0  0  0  0  0
  130.0960  122.1460   60.7600 C   0  0  0  0  0  0  0  0  0  0  0  0
  128.6980  122.6150   60.3620 C   0  0  0  0  0  0  0  0  0  0  0  0
  128.2640  122.5130   59.0820 C   0  0  0  0  0  0  0  0  0  0  0  0
  126.9320  122.9950   58.6630 C   0  0  0  0  0  0  0  0  0  0  0  0
  126.4420  122.8880   57.3500 C   0  0  0  0  0  0  0  0  0  0  0  0
  127.2680  122.2510   56.2400 C   0  0  0  0  0  0  0  0  0  0  0  0
  125.1650  123.3740   57.0590 C   0  0  0  0  0  0  0  0  0  0  0  0
  124.3830  123.9600   58.0530 C   0  0  0  0  0  0  0  0  0  0  0  0
  124.8600  124.0700   59.3620 C   0  0  0  0  0  0  0  0  0  0  0  0
  123.9800  124.7120   60.4260 C   0  0  0  0  0  0  0  0  0  0  0  0
  126.1410  123.5840   59.6660 C   0  0  0  0  0  0  0  0  0  0  0  0
  126.6660  123.6760   60.9720 N   0  0  0  0  0  0  0  0  0  0  0  0
  127.8790  123.2480   61.4010 C   0  0  0  0  0  0  0  0  0  0  0  0
  128.2180  123.4060   62.5740 O   0  0  0  0  0  0  0  0  0  0  0  0
  129.5950  126.1980   64.4870 C   0  0  0  0  0  0  0  0  0  0  0  0
  129.0040  127.3930   64.8850 C   0  0  0  0  0  0  0  0  0  0  0  0
  127.1855  130.5747   66.3786 H   0  0  0  0  0  0  0  0  0  0  0  0
  128.4643  130.1602   65.1871 H   0  0  0  0  0  0  0  0  0  0  0  0
  126.9104  129.2589   65.1871 H   0  0  0  0  0  0  0  0  0  0  0  0
  128.9181  126.8623   68.2566 H   0  0  0  0  0  0  0  0  0  0  0  0
  129.9718  124.7252   67.5441 H   0  0  0  0  0  0  0  0  0  0  0  0
  130.8361  123.3434   65.8999 H   0  0  0  0  0  0  0  0  0  0  0  0
  130.0290  123.4743   64.2680 H   0  0  0  0  0  0  0  0  0  0  0  0
  132.6113  121.9727   61.8993 H   0  0  0  0  0  0  0  0  0  0  0  0
  131.1854  121.9881   63.0284 H   0  0  0  0  0  0  0  0  0  0  0  0
  132.8191  123.9011   60.6130 H   0  0  0  0  0  0  0  0  0  0  0  0
  131.7135  123.1446   59.3724 H   0  0  0  0  0  0  0  0  0  0  0  0
  130.9012  125.7090   60.7367 H   0  0  0  0  0  0  0  0  0  0  0  0
  132.1065  125.7163   59.3621 H   0  0  0  0  0  0  0  0  0  0  0  0
  129.6550  124.1455   58.8476 H   0  0  0  0  0  0  0  0  0  0  0  0
  129.4134  125.9420   59.0653 H   0  0  0  0  0  0  0  0  0  0  0  0
  130.3486  123.3708   56.8802 H   0  0  0  0  0  0  0  0  0  0  0  0
  128.9312  124.4452   56.5300 H   0  0  0  0  0  0  0  0  0  0  0  0
  130.1747  123.7224   54.4576 H   0  0  0  0  0  0  0  0  0  0  0  0
  130.1204  125.5077   54.6884 H   0  0  0  0  0  0  0  0  0  0  0  0
  133.5615  125.6726   55.7794 H   0  0  0  0  0  0  0  0  0  0  0  0
  132.0728  126.6317   55.4522 H   0  0  0  0  0  0  0  0  0  0  0  0
  132.4986  124.6057   57.7200 H   0  0  0  0  0  0  0  0  0  0  0  0
  132.3451  126.4052   57.8656 H   0  0  0  0  0  0  0  0  0  0  0  0
  130.5804  121.7332   59.8628 H   0  0  0  0  0  0  0  0  0  0  0  0
  129.9443  121.4143   61.5672 H   0  0  0  0  0  0  0  0  0  0  0  0
  128.9252  122.0564   58.3308 H   0  0  0  0  0  0  0  0  0  0  0  0
  128.0653  121.6361   56.6830 H   0  0  0  0  0  0  0  0  0  0  0  0
  126.6191  121.6172   55.6177 H   0  0  0  0  0  0  0  0  0  0  0  0
  127.7161  123.0396   55.6177 H   0  0  0  0  0  0  0  0  0  0  0  0
  124.7724  123.2934   56.0346 H   0  0  0  0  0  0  0  0  0  0  0  0
  123.3808  124.3395   57.8047 H   0  0  0  0  0  0  0  0  0  0  0  0
  124.3535  124.4395   61.4241 H   0  0  0  0  0  0  0  0  0  0  0  0
  124.0047  125.8057   60.3113 H   0  0  0  0  0  0  0  0  0  0  0  0
  122.9460  124.3546   60.3113 H   0  0  0  0  0  0  0  0  0  0  0  0
  126.0980  124.1080   61.6850 H   0  0  0  0  0  0  0  0  0  0  0  0
  129.7710  126.0013   63.4191 H   0  0  0  0  0  0  0  0  0  0  0  0
  128.7198  128.1416   64.1308 H   0  0  0  0  0  0  0  0  0  0  0  0
  1  2  1  0
  2  3  1  0
  3  4  2  0
  4  5  1  0
  5  6  2  0
  6  7  1  0
  7  8  1  0
  8  9  1  0
  9 10  2  0
 10 11  1  0
 11 12  2  0
 12 13  1  0
 13 14  1  0
 14 15  1  0
 15 16  1  0
 16 17  1  0
 17 18  1  0
 18 19  1  0
 19 20  1  0
 20 21  1  0
 21 22  1  0
 22 23  1  0
 14 24  1  0
 24 25  1  0
 25 26  2  0
 26 27  1  0
 27 28  2  0
 28 29  1  0
 28 30  1  0
 30 31  2  0
 31 32  1  0
 32 33  1  0
 32 34  2  0
 34 35  1  0
 35 36  1  0
 36 37  2  0
  6 38  1  0
 38 39  2  0
 39  3  1  0
 12  8  1  0
 23 18  1  0
 36 25  1  0
 34 27  1  0
  1 40  1  0
  1 41  1  0
  1 42  1  0
  4 43  1  0
  5 44  1  0
  7 45  1  0
  7 46  1  0
 13 47  1  0
 13 48  1  0
 15 49  1  0
 15 50  1  0
 16 51  1  0
 16 52  1  0
 17 53  1  0
 17 54  1  0
 19 55  1  0
 19 56  1  0
 20 57  1  0
 20 58  1  0
 22 59  1  0
 22 60  1  0
 23 61  1  0
 23 62  1  0
 24 63  1  0
 24 64  1  0
 26 65  1  0
 29 66  1  0
 29 67  1  0
 29 68  1  0
 30 69  1  0
 31 70  1  0
 33 71  1  0
 33 72  1  0
 33 73  1  0
 35 74  1  0
 38 75  1  0
 39 76  1  0
M  END
>  <Binding energies>  (1) 
[-11.24]

>  <Ligand effiencies>  (1) 
[-0.281]

>  <Interactions>  (1) 
["V-A:ASP:366:CB:3208, V-A:ASP:366:CG:3209, V-A:GLU:543:CD:4905, V-A:HIS:456:CE1:4066, V-A:GLU:543:CB:4903, V-B:GLU:543:CB:9875, V-B:HIS:456:CE1:9038, V-B:ASN:362:CB:8144, V-B:TYR:539:CE1:9844, V-B:MET:535:CE:9804, V-B:PRO:540:CA:9852, V-A:ASP:366:C:3204, V-B:TYR:539:CZ:9846, V-B:ASN:362:C:8140, V-A:TYR:531:CE1:4789, V-B:PRO:540:N:9853, V-B:PRO:540:CB:9854, V-B:ASP:366:CG:8181, V-B:LEU:363:CD1:8157, V-B:ALA:541:CB:9861, H-B:GLU:543:OE2:9879, H-B:TYR:539:OH:9847, V-B:GLU:543:CD:9877, V-B:GLU:543:CG:9876, V-A:TYR:484:CZ:4343, H-A:ARG:545:NH2:4925, V-B:TYR:539:CE2:9845, H-A:ARG:545:NE:4921, V-A:TYR:484:CE1:4341, V-A:GLU:543:CG:4904, V-B:ILE:538:CB:9831, V-A:LEU:475:CD1:4254, V-B:TYR:539:C:9836, V-B:TYR:539:CD2:9843, V-B:ILE:538:CA:9829, V-B:TYR:539:CD1:9842, H-A:GLY:454:N:4046, H-A:ARG:545:NH1:4924, V-A:GLY:454:CA:4045, H-A:TYR:484:OH:4344"]

$$$$
RR15_Rahimova_2017
     RDKit          3D

 85 89  0  0  0  0  0  0  0  0999 V2000
  130.2080  125.8080   72.8590 C   0  0  0  0  0  0  0  0  0  0  0  0
  130.1430  127.1170   72.3020 O   0  0  0  0  0  0  0  0  0  0  0  0
  129.8670  127.2720   70.9550 C   0  0  0  0  0  0  0  0  0  0  0  0
  130.7760  127.8110   70.0320 C   0  0  0  0  0  0  0  0  0  0  0  0
  130.4330  127.9420   68.6880 C   0  0  0  0  0  0  0  0  0  0  0  0
  129.1750  127.5410   68.2290 C   0  0  0  0  0  0  0  0  0  0  0  0
  128.8020  127.6880   66.7790 C   0  0  0  0  0  0  0  0  0  0  0  0
  127.9690  128.6220   66.3400 N   0  0  0  0  0  0  0  0  0  0  0  0
  127.8700  128.4350   64.9770 N   0  0  0  0  0  0  0  0  0  0  0  0
  128.7000  127.4190   64.7380 N   0  0  0  0  0  0  0  0  0  0  0  0
  128.7830  126.7790   63.4260 C   0  0  0  0  0  0  0  0  0  0  0  0
  129.4940  127.6200   62.3370 C   0  0  0  0  0  0  0  0  0  0  0  0
  130.7270  127.6150   62.3090 O   0  0  0  0  0  0  0  0  0  0  0  0
  128.7490  128.3140   61.4230 N   0  0  0  0  0  0  0  0  0  0  0  0
  129.1120  129.6870   61.0200 C   0  0  0  0  0  0  0  0  0  0  0  0
  130.3040  129.7480   60.0400 C   0  0  0  0  0  0  0  0  0  0  0  0
  130.6440  131.1650   59.5200 C   0  0  0  0  0  0  0  0  0  0  0  0
  130.3250  131.3660   58.1030 N   0  0  0  0  0  0  0  0  0  0  0  0
  129.1760  132.2570   57.8800 C   0  0  0  0  0  0  0  0  0  0  0  0
  128.9360  132.5030   56.3750 C   0  0  0  0  0  0  0  0  0  0  0  0
  130.1240  132.9930   55.7620 O   0  0  0  0  0  0  0  0  0  0  0  0
  131.2120  132.0840   55.8870 C   0  0  0  0  0  0  0  0  0  0  0  0
  131.5170  131.8290   57.3790 C   0  0  0  0  0  0  0  0  0  0  0  0
  127.6460  127.6980   60.6230 C   0  0  2  0  0  0  0  0  0  0  0  0
  127.9090  126.2160   60.2110 C   0  0  0  0  0  0  0  0  0  0  0  0
  128.7920  125.9280   59.4030 O   0  0  0  0  0  0  0  0  0  0  0  0
  127.1430  125.2970   60.8250 N   0  0  0  0  0  0  0  0  0  0  0  0
  127.2770  123.8520   60.6780 C   0  0  0  0  0  0  0  0  0  0  0  0
  125.9550  123.2150   60.2120 C   0  0  2  0  0  0  0  0  0  0  0  0
  125.1960  123.9920   59.1210 C   0  0  0  0  0  0  0  0  0  0  0  0
  124.0950  124.7100   59.8640 C   0  0  0  0  0  0  0  0  0  0  0  0
  123.7800  123.7150   60.9670 C   0  0  0  0  0  0  0  0  0  0  0  0
  125.0730  123.2520   61.3430 O   0  0  0  0  0  0  0  0  0  0  0  0
  127.1710  128.6550   59.5360 C   0  0  0  0  0  0  0  0  0  0  0  0
  127.5720  128.4070   58.2170 C   0  0  0  0  0  0  0  0  0  0  0  0
  127.1700  129.2470   57.1840 C   0  0  0  0  0  0  0  0  0  0  0  0
  126.3590  130.3440   57.4610 C   0  0  0  0  0  0  0  0  0  0  0  0
  125.9670  131.1600   56.4570 F   0  0  0  0  0  0  0  0  0  0  0  0
  125.9480  130.6060   58.7650 C   0  0  0  0  0  0  0  0  0  0  0  0
  126.3520  129.7660   59.7990 C   0  0  0  0  0  0  0  0  0  0  0  0
  129.2700  126.8980   65.8310 N   0  0  0  0  0  0  0  0  0  0  0  0
  128.2700  127.0010   69.1520 C   0  0  0  0  0  0  0  0  0  0  0  0
  128.6020  126.8590   70.5100 C   0  0  0  0  0  0  0  0  0  0  0  0
  127.7440  126.3290   71.4580 O   0  0  0  0  0  0  0  0  0  0  0  0
  127.1570  127.1860   72.4320 C   0  0  0  0  0  0  0  0  0  0  0  0
  130.2046  125.8761   73.9569 H   0  0  0  0  0  0  0  0  0  0  0  0
  129.3378  125.2238   72.5252 H   0  0  0  0  0  0  0  0  0  0  0  0
  131.1318  125.3129   72.5252 H   0  0  0  0  0  0  0  0  0  0  0  0
  131.7706  128.1338   70.3734 H   0  0  0  0  0  0  0  0  0  0  0  0
  131.1604  128.3658   67.9800 H   0  0  0  0  0  0  0  0  0  0  0  0
  129.3324  125.8330   63.5409 H   0  0  0  0  0  0  0  0  0  0  0  0
  127.7471  126.6403   63.0830 H   0  0  0  0  0  0  0  0  0  0  0  0
  128.2394  130.1496   60.5357 H   0  0  0  0  0  0  0  0  0  0  0  0
  129.4160  130.2216   61.9320 H   0  0  0  0  0  0  0  0  0  0  0  0
  131.1910  129.3503   60.5548 H   0  0  0  0  0  0  0  0  0  0  0  0
  130.0119  129.1567   59.1596 H   0  0  0  0  0  0  0  0  0  0  0  0
  130.0749  131.8975   60.1112 H   0  0  0  0  0  0  0  0  0  0  0  0
  131.7313  131.2935   59.6257 H   0  0  0  0  0  0  0  0  0  0  0  0
  128.2767  131.7966   58.3150 H   0  0  0  0  0  0  0  0  0  0  0  0
  129.3906  133.2240   58.3584 H   0  0  0  0  0  0  0  0  0  0  0  0
  128.6422  131.5581   55.8946 H   0  0  0  0  0  0  0  0  0  0  0  0
  128.1364  133.2489   56.2560 H   0  0  0  0  0  0  0  0  0  0  0  0
  130.9498  131.1327   55.4008 H   0  0  0  0  0  0  0  0  0  0  0  0
  132.1013  132.5161   55.4049 H   0  0  0  0  0  0  0  0  0  0  0  0
  132.3022  131.0626   57.4570 H   0  0  0  0  0  0  0  0  0  0  0  0
  131.8470  132.7766   57.8297 H   0  0  0  0  0  0  0  0  0  0  0  0
  126.7698  127.5651   61.2747 H   0  0  0  0  0  0  0  0  0  0  0  0
  126.4580  125.6130   61.4970 H   0  0  0  0  0  0  0  0  0  0  0  0
  128.0598  123.6379   59.9355 H   0  0  0  0  0  0  0  0  0  0  0  0
  127.5434  123.4255   61.6563 H   0  0  0  0  0  0  0  0  0  0  0  0
  126.2163  122.2246   59.8110 H   0  0  0  0  0  0  0  0  0  0  0  0
  125.8616  124.7117   58.6220 H   0  0  0  0  0  0  0  0  0  0  0  0
  124.8064  123.3319   58.3320 H   0  0  0  0  0  0  0  0  0  0  0  0
  124.4453  125.6684   60.2747 H   0  0  0  0  0  0  0  0  0  0  0  0
  123.2303  124.9770   59.2387 H   0  0  0  0  0  0  0  0  0  0  0  0
  123.2722  124.2047   61.8110 H   0  0  0  0  0  0  0  0  0  0  0  0
  123.1009  122.9097   60.6503 H   0  0  0  0  0  0  0  0  0  0  0  0
  128.2111  127.5394   57.9960 H   0  0  0  0  0  0  0  0  0  0  0  0
  127.4918  129.0452   56.1517 H   0  0  0  0  0  0  0  0  0  0  0  0
  125.3063  131.4737   58.9776 H   0  0  0  0  0  0  0  0  0  0  0  0
  126.0277  129.9735   60.8294 H   0  0  0  0  0  0  0  0  0  0  0  0
  127.2763  126.6807   68.8056 H   0  0  0  0  0  0  0  0  0  0  0  0
  127.4067  126.8214   73.4393 H   0  0  0  0  0  0  0  0  0  0  0  0
  127.5464  128.2068   72.3045 H   0  0  0  0  0  0  0  0  0  0  0  0
  126.0644  127.1918   72.3045 H   0  0  0  0  0  0  0  0  0  0  0  0
  1  2  1  0
  2  3  1  0
  3  4  2  0
  4  5  1  0
  5  6  2  0
  6  7  1  0
  7  8  1  0
  8  9  2  0
  9 10  1  0
 10 11  1  0
 11 12  1  0
 12 13  2  0
 12 14  1  0
 14 15  1  0
 15 16  1  0
 16 17  1  0
 17 18  1  0
 18 19  1  0
 19 20  1  0
 20 21  1  0
 21 22  1  0
 22 23  1  0
 14 24  1  0
 24 25  1  0
 25 26  2  0
 25 27  1  0
 27 28  1  0
 28 29  1  0
 29 30  1  0
 30 31  1  0
 31 32  1  0
 32 33  1  0
 24 34  1  0
 34 35  2  0
 35 36  1  0
 36 37  2  0
 37 38  1  0
 37 39  1  0
 39 40  2  0
 10 41  1  0
  6 42  1  0
 42 43  2  0
 43 44  1  0
 44 45  1  0
 43  3  1  0
 41  7  2  0
 23 18  1  0
 33 29  1  0
 40 34  1  0
  1 46  1  0
  1 47  1  0
  1 48  1  0
  4 49  1  0
  5 50  1  0
 11 51  1  0
 11 52  1  0
 15 53  1  0
 15 54  1  0
 16 55  1  0
 16 56  1  0
 17 57  1  0
 17 58  1  0
 19 59  1  0
 19 60  1  0
 20 61  1  0
 20 62  1  0
 22 63  1  0
 22 64  1  0
 23 65  1  0
 23 66  1  0
 24 67  1  1
 27 68  1  0
 28 69  1  0
 28 70  1  0
 29 71  1  6
 30 72  1  0
 30 73  1  0
 31 74  1  0
 31 75  1  0
 32 76  1  0
 32 77  1  0
 35 78  1  0
 36 79  1  0
 39 80  1  0
 40 81  1  0
 42 82  1  0
 45 83  1  0
 45 84  1  0
 45 85  1  0
M  END
>  <Binding energies>  (1) 
[-9.13]

>  <Ligand effiencies>  (1) 
[-0.19847826086956524]

>  <Interactions>  (1) 
["V-A:TYR:539:CD2:4871, V-A:PRO:540:CB:4882, V-A:PRO:540:CA:4880, V-A:PRO:540:N:4881, V-A:TYR:539:C:4864, V-A:GLU:543:CD:4905, V-A:TYR:539:CE2:4873, V-B:LYS:547:CE:9919, V-B:HIS:456:CG:9034, H-A:LYS:547:NZ:4948, V-A:GLY:544:C:4909, V-A:HIS:456:CE1:4066, V-A:GLU:543:C:4899, V-A:GLU:543:CB:4903, V-A:HIS:456:CD2:4064, V-B:HIS:456:CE1:9038, V-B:GLY:544:C:9881, V-B:HIS:456:CD2:9036, V-A:ILE:538:CD1:4862, V-B:ASN:362:CB:8144, V-B:PRO:540:CA:9852, H-B:ASP:366:OD1:8182, V-B:ASN:362:C:8140, V-B:PRO:540:C:9850, V-B:PRO:540:CB:9854, V-B:ASP:366:CG:8181, V-A:ILE:538:CG2:4860, V-A:TYR:539:CZ:4874, H-B:GLU:543:OE2:9879, V-B:GLU:543:CD:9877, H-A:ARG:545:NH2:4925, H-B:ALA:541:N:9860, H-A:TYR:539:N:4867, V-A:TYR:539:CG:4869, V-B:ASN:362:CA:8142"]

$$$$
RR16_Rahimova_2017
     RDKit          3D

 80 85  0  0  0  0  0  0  0  0999 V2000
  125.2980  132.5950   59.6680 O   0  0  0  0  0  0  0  0  0  0  0  0
  126.2190  133.3970   60.4820 S   0  0  0  0  0  0  0  0  0  0  0  0
  125.9370  134.8080   60.7680 O   0  0  0  0  0  0  0  0  0  0  0  0
  127.8140  133.2970   59.7340 N   0  0  0  0  0  0  0  0  0  0  0  0
  128.1970  132.1270   58.9100 C   0  0  0  0  0  0  0  0  0  0  0  0
  128.5770  132.6090   57.4860 C   0  0  0  0  0  0  0  0  0  0  0  0
  129.4520  131.6700   56.6320 C   0  0  0  0  0  0  0  0  0  0  0  0
  130.9630  131.8450   56.8610 C   0  0  0  0  0  0  0  0  0  0  0  0
  131.4890  131.3910   58.2360 C   0  0  0  0  0  0  0  0  0  0  0  0
  130.7220  131.8760   59.4820 C   0  0  0  0  0  0  0  0  0  0  0  0
  129.2900  131.3340   59.6640 C   0  0  0  0  0  0  0  0  0  0  0  0
  126.4050  132.5450   62.0440 C   0  0  0  0  0  0  0  0  0  0  0  0
  127.4890  132.8300   62.8770 C   0  0  0  0  0  0  0  0  0  0  0  0
  127.6890  132.0750   64.0290 C   0  0  0  0  0  0  0  0  0  0  0  0
  126.8050  131.0410   64.3440 C   0  0  0  0  0  0  0  0  0  0  0  0
  127.1380  129.9780   65.7470 S   0  0  0  0  0  0  0  0  0  0  0  0
  125.8560  129.4100   66.1820 O   0  0  0  0  0  0  0  0  0  0  0  0
  127.9690  130.7410   66.6880 O   0  0  0  0  0  0  0  0  0  0  0  0
  128.1280  128.6680   65.0740 N   0  0  0  0  0  0  0  0  0  0  0  0
  128.6870  127.7370   66.0880 C   0  0  0  0  0  0  0  0  0  0  0  0
  129.7680  126.8370   65.4550 C   0  0  0  0  0  0  0  0  0  0  0  0
  129.2440  126.1110   64.1910 C   0  0  0  0  0  0  0  0  0  0  0  0
  130.3170  125.2480   63.5210 C   0  0  0  0  0  0  0  0  0  0  0  0
  131.6700  125.5860   63.6630 C   0  0  0  0  0  0  0  0  0  0  0  0
  132.6810  124.8230   63.0770 C   0  0  0  0  0  0  0  0  0  0  0  0
  134.0000  125.1660   63.2300 O   0  0  0  0  0  0  0  0  0  0  0  0
  132.3110  123.6930   62.3320 C   0  0  0  0  0  0  0  0  0  0  0  0
  133.0660  122.7670   61.6720 N   0  0  0  0  0  0  0  0  0  0  0  0
  132.2040  121.8420   61.1260 N   0  0  0  0  0  0  0  0  0  0  0  0
  130.9420  122.2180   61.4080 N   0  0  0  0  0  0  0  0  0  0  0  0
  129.8210  121.3700   61.0230 C   0  0  0  0  0  0  0  0  0  0  0  0
  128.7240  122.1390   60.3000 C   0  0  0  0  0  0  0  0  0  0  0  0
  127.7900  122.8820   61.0300 C   0  0  0  0  0  0  0  0  0  0  0  0
  126.7970  123.6060   60.3680 C   0  0  0  0  0  0  0  0  0  0  0  0
  126.7340  123.5910   58.9740 C   0  0  0  0  0  0  0  0  0  0  0  0
  127.6630  122.8540   58.2410 C   0  0  0  0  0  0  0  0  0  0  0  0
  127.5940  122.8420   56.5170 Cl  0  0  0  0  0  0  0  0  0  0  0  0
  128.6550  122.1260   58.9030 C   0  0  0  0  0  0  0  0  0  0  0  0
  130.9430  123.3640   62.1860 C   0  0  0  0  0  0  0  0  0  0  0  0
  129.9280  124.1300   62.7700 C   0  0  0  0  0  0  0  0  0  0  0  0
  128.5500  127.0820   63.2010 C   0  0  0  0  0  0  0  0  0  0  0  0
  127.5150  127.9820   63.9070 C   0  0  0  0  0  0  0  0  0  0  0  0
  125.6980  130.7850   63.5320 C   0  0  0  0  0  0  0  0  0  0  0  0
  125.5000  131.5370   62.3780 C   0  0  0  0  0  0  0  0  0  0  0  0
  128.2830  134.1810   59.5180 H   0  0  0  0  0  0  0  0  0  0  0  0
  127.3659  131.4222   58.7596 H   0  0  0  0  0  0  0  0  0  0  0  0
  127.6409  132.7808   56.9345 H   0  0  0  0  0  0  0  0  0  0  0  0
  129.1962  133.5039   57.6465 H   0  0  0  0  0  0  0  0  0  0  0  0
  129.1832  130.6311   56.8740 H   0  0  0  0  0  0  0  0  0  0  0  0
  129.2576  131.9228   55.5792 H   0  0  0  0  0  0  0  0  0  0  0  0
  131.4908  131.2653   56.0894 H   0  0  0  0  0  0  0  0  0  0  0  0
  131.1494  132.9280   56.8122 H   0  0  0  0  0  0  0  0  0  0  0  0
  131.4765  130.2911   58.2478 H   0  0  0  0  0  0  0  0  0  0  0  0
  132.4855  131.8487   58.3221 H   0  0  0  0  0  0  0  0  0  0  0  0
  131.3049  131.5835   60.3678 H   0  0  0  0  0  0  0  0  0  0  0  0
  130.6069  132.9617   59.3480 H   0  0  0  0  0  0  0  0  0  0  0  0
  129.2689  130.2948   59.3040 H   0  0  0  0  0  0  0  0  0  0  0  0
  129.0571  131.4264   60.7351 H   0  0  0  0  0  0  0  0  0  0  0  0
  128.1810  133.6468   62.6240 H   0  0  0  0  0  0  0  0  0  0  0  0
  128.5413  132.2923   64.6896 H   0  0  0  0  0  0  0  0  0  0  0  0
  129.1345  128.3194   66.9069 H   0  0  0  0  0  0  0  0  0  0  0  0
  127.8761  127.1021   66.4743 H   0  0  0  0  0  0  0  0  0  0  0  0
  130.6310  127.4594   65.1761 H   0  0  0  0  0  0  0  0  0  0  0  0
  130.0534  126.0739   66.1941 H   0  0  0  0  0  0  0  0  0  0  0  0
  128.4662  125.4123   64.5328 H   0  0  0  0  0  0  0  0  0  0  0  0
  131.9417  126.4750   64.2511 H   0  0  0  0  0  0  0  0  0  0  0  0
  134.3790  125.5730   62.4480 H   0  0  0  0  0  0  0  0  0  0  0  0
  130.1921  120.5768   60.3573 H   0  0  0  0  0  0  0  0  0  0  0  0
  129.3851  120.9567   61.9445 H   0  0  0  0  0  0  0  0  0  0  0  0
  127.8383  122.8957   62.1289 H   0  0  0  0  0  0  0  0  0  0  0  0
  126.0639  124.1885   60.9453 H   0  0  0  0  0  0  0  0  0  0  0  0
  125.9507  124.1612   58.4531 H   0  0  0  0  0  0  0  0  0  0  0  0
  129.3842  121.5407   58.3236 H   0  0  0  0  0  0  0  0  0  0  0  0
  128.8676  123.8656   62.6448 H   0  0  0  0  0  0  0  0  0  0  0  0
  129.3148  127.7193   62.7331 H   0  0  0  0  0  0  0  0  0  0  0  0
  128.0203  126.4797   62.4482 H   0  0  0  0  0  0  0  0  0  0  0  0
  127.1475  128.7367   63.1961 H   0  0  0  0  0  0  0  0  0  0  0  0
  126.6830  127.3555   64.2608 H   0  0  0  0  0  0  0  0  0  0  0  0
  124.9855  129.9922   63.8035 H   0  0  0  0  0  0  0  0  0  0  0  0
  124.6329  131.3374   61.7313 H   0  0  0  0  0  0  0  0  0  0  0  0
  1  2  2  0
  2  3  2  0
  2  4  1  0
  4  5  1  0
  5  6  1  0
  6  7  1  0
  7  8  1  0
  8  9  1  0
  9 10  1  0
 10 11  1  0
  2 12  1  0
 12 13  2  0
 13 14  1  0
 14 15  2  0
 15 16  1  0
 16 17  2  0
 16 18  2  0
 16 19  1  0
 19 20  1  0
 20 21  1  0
 21 22  1  0
 22 23  1  0
 23 24  2  0
 24 25  1  0
 25 26  1  0
 25 27  2  0
 27 28  1  0
 28 29  2  0
 29 30  1  0
 30 31  1  0
 31 32  1  0
 32 33  2  0
 33 34  1  0
 34 35  2  0
 35 36  1  0
 36 37  1  0
 36 38  2  0
 30 39  1  0
 39 40  2  0
 22 41  1  0
 41 42  1  0
 15 43  1  0
 43 44  2  0
 11  5  1  0
 44 12  1  0
 42 19  1  0
 40 23  1  0
 39 27  1  0
 38 32  1  0
  4 45  1  0
  5 46  1  0
  6 47  1  0
  6 48  1  0
  7 49  1  0
  7 50  1  0
  8 51  1  0
  8 52  1  0
  9 53  1  0
  9 54  1  0
 10 55  1  0
 10 56  1  0
 11 57  1  0
 11 58  1  0
 13 59  1  0
 14 60  1  0
 20 61  1  0
 20 62  1  0
 21 63  1  0
 21 64  1  0
 22 65  1  0
 24 66  1  0
 26 67  1  0
 31 68  1  0
 31 69  1  0
 33 70  1  0
 34 71  1  0
 35 72  1  0
 38 73  1  0
 40 74  1  0
 41 75  1  0
 41 76  1  0
 42 77  1  0
 42 78  1  0
 43 79  1  0
 44 80  1  0
M  END
>  <Binding energies>  (1) 
[-10.79]

>  <Ligand effiencies>  (1) 
[-0.22479166666666664]

>  <Interactions>  (1) 
["V-A:TYR:539:CD2:4871, V-A:PRO:540:CB:4882, V-A:ALA:541:CB:4889, V-A:PRO:540:CA:4880, V-A:PRO:540:N:4881, V-A:TYR:539:C:4864, H-A:ASP:366:OD1:3210, V-A:GLU:543:CD:4905, V-A:TYR:539:CE2:4873, V-B:LEU:475:CD2:9227, V-B:HIS:456:CE1:9038, V-B:TYR:539:CE1:9844, V-B:PRO:540:CA:9852, V-B:TYR:539:CZ:9846, V-B:PRO:540:N:9853, V-B:ALA:541:CB:9861, V-B:GLU:543:CD:9877, V-B:GLU:543:CG:9876, V-A:ARG:545:CZ:4923, H-A:ARG:545:NH2:4925, V-B:TYR:539:CE2:9845, H-A:ARG:545:NE:4921, V-A:GLU:543:CG:4904, V-B:TYR:539:C:9836, V-B:TYR:539:CD2:9843, V-B:TYR:539:CD1:9842, V-B:TYR:539:CG:9841, H-A:GLY:454:N:4046, H-A:ASP:366:OD2:3211, H-A:ARG:545:NH1:4924, V-A:PRO:540:C:4878, H-A:TYR:539:O:4865, H-B:TYR:484:OH:9316, V-A:TYR:539:CG:4869, H-B:HIS:456:ND1:9035"]

$$$$
RR17_Rahimova_2017
     RDKit          3D

 63 66  0  0  0  0  0  0  0  0999 V2000
  127.1070  122.9470   60.5350 C   0  0  0  0  0  0  0  0  0  0  0  0
  128.3800  122.2620   60.0280 C   0  0  0  0  0  0  0  0  0  0  0  0
  129.1060  121.7610   61.1470 O   0  0  0  0  0  0  0  0  0  0  0  0
  130.0470  122.5680   61.7600 C   0  0  0  0  0  0  0  0  0  0  0  0
  130.7000  122.0310   62.8680 C   0  0  0  0  0  0  0  0  0  0  0  0
  131.6620  122.7680   63.5510 C   0  0  0  0  0  0  0  0  0  0  0  0
  131.9910  124.0670   63.1380 C   0  0  0  0  0  0  0  0  0  0  0  0
  133.0330  124.8390   63.8940 C   0  0  0  0  0  0  0  0  0  0  0  0
  134.2350  124.7660   63.6240 O   0  0  0  0  0  0  0  0  0  0  0  0
  132.5400  125.7330   65.0540 C   0  0  0  0  0  0  0  0  0  0  0  0
  131.0820  125.0240   65.8990 S   0  0  0  0  0  0  0  0  0  0  0  0
  129.8490  126.2000   65.4170 C   0  0  0  0  0  0  0  0  0  0  0  0
  129.4230  126.3960   64.1910 N   0  0  0  0  0  0  0  0  0  0  0  0
  128.4550  127.3920   64.2310 N   0  0  0  0  0  0  0  0  0  0  0  0
  128.3290  127.7580   65.4820 C   0  0  0  0  0  0  0  0  0  0  0  0
  127.3610  128.8220   65.9770 C   0  0  0  0  0  0  0  0  0  0  0  0
  126.0970  128.8570   65.2450 N   0  0  0  0  0  0  0  0  0  0  0  0
  125.6670  129.9590   64.4840 C   0  0  0  0  0  0  0  0  0  0  0  0
  124.5430  129.7820   63.6760 C   0  0  0  0  0  0  0  0  0  0  0  0
  124.0670  130.8290   62.8930 C   0  0  0  0  0  0  0  0  0  0  0  0
  124.7080  132.0710   62.9120 C   0  0  0  0  0  0  0  0  0  0  0  0
  124.1760  133.2090   62.0420 C   0  0  0  0  0  0  0  0  0  0  0  0
  123.7840  132.7840   60.8380 F   0  0  0  0  0  0  0  0  0  0  0  0
  123.1330  133.7960   62.6300 F   0  0  0  0  0  0  0  0  0  0  0  0
  125.1380  134.1160   61.8720 F   0  0  0  0  0  0  0  0  0  0  0  0
  125.8300  132.2530   63.7270 C   0  0  0  0  0  0  0  0  0  0  0  0
  126.3050  131.2060   64.5110 C   0  0  0  0  0  0  0  0  0  0  0  0
  129.1950  127.0480   66.2880 N   0  0  0  0  0  0  0  0  0  0  0  0
  129.3500  127.1450   67.6790 C   0  0  0  0  0  0  0  0  0  0  0  0
  130.4910  127.7510   68.2030 C   0  0  0  0  0  0  0  0  0  0  0  0
  130.6460  127.8430   69.5840 C   0  0  0  0  0  0  0  0  0  0  0  0
  129.6600  127.3310   70.4430 C   0  0  0  0  0  0  0  0  0  0  0  0
  129.7290  127.3790   71.8220 O   0  0  0  0  0  0  0  0  0  0  0  0
  128.5690  127.0640   72.5860 C   0  0  0  0  0  0  0  0  0  0  0  0
  128.5250  126.7260   69.9000 C   0  0  0  0  0  0  0  0  0  0  0  0
  128.3630  126.6310   68.5200 C   0  0  0  0  0  0  0  0  0  0  0  0
  131.3330  124.6070   62.0230 C   0  0  0  0  0  0  0  0  0  0  0  0
  130.3720  123.8660   61.3400 C   0  0  0  0  0  0  0  0  0  0  0  0
  127.1046  122.9483   61.6350 H   0  0  0  0  0  0  0  0  0  0  0  0
  127.0768  123.9832   60.1670 H   0  0  0  0  0  0  0  0  0  0  0  0
  126.2256  122.4014   60.1670 H   0  0  0  0  0  0  0  0  0  0  0  0
  128.1118  121.4312   59.3587 H   0  0  0  0  0  0  0  0  0  0  0  0
  128.9979  122.9831   59.4728 H   0  0  0  0  0  0  0  0  0  0  0  0
  130.4521  121.0139   63.2059 H   0  0  0  0  0  0  0  0  0  0  0  0
  132.1689  122.3280   64.4225 H   0  0  0  0  0  0  0  0  0  0  0  0
  133.3538  125.8453   65.7855 H   0  0  0  0  0  0  0  0  0  0  0  0
  132.2461  126.7048   64.6306 H   0  0  0  0  0  0  0  0  0  0  0  0
  127.1424  128.6255   67.0370 H   0  0  0  0  0  0  0  0  0  0  0  0
  127.8484  129.7956   65.8205 H   0  0  0  0  0  0  0  0  0  0  0  0
  125.4160  128.1450   65.4620 H   0  0  0  0  0  0  0  0  0  0  0  0
  124.0303  128.8089   63.6580 H   0  0  0  0  0  0  0  0  0  0  0  0
  123.1826  130.6787   62.2564 H   0  0  0  0  0  0  0  0  0  0  0  0
  126.3391  133.2279   63.7483 H   0  0  0  0  0  0  0  0  0  0  0  0
  127.1844  131.3580   65.1541 H   0  0  0  0  0  0  0  0  0  0  0  0
  131.2631  128.1535   67.5307 H   0  0  0  0  0  0  0  0  0  0  0  0
  131.5446  128.3188   70.0037 H   0  0  0  0  0  0  0  0  0  0  0  0
  128.8072  127.1287   73.6579 H   0  0  0  0  0  0  0  0  0  0  0  0
  127.7666  127.7768   72.3451 H   0  0  0  0  0  0  0  0  0  0  0  0
  128.2373  126.0433   72.3451 H   0  0  0  0  0  0  0  0  0  0  0  0
  127.7513  126.3205   70.5685 H   0  0  0  0  0  0  0  0  0  0  0  0
  127.4656  126.1554   68.0975 H   0  0  0  0  0  0  0  0  0  0  0  0
  131.5783  125.6247   61.6852 H   0  0  0  0  0  0  0  0  0  0  0  0
  129.8650  124.3012   60.4662 H   0  0  0  0  0  0  0  0  0  0  0  0
  1  2  1  0
  2  3  1  0
  3  4  1  0
  4  5  2  0
  5  6  1  0
  6  7  2  0
  7  8  1  0
  8  9  2  0
  8 10  1  0
 10 11  1  0
 11 12  1  0
 12 13  2  0
 13 14  1  0
 14 15  2  0
 15 16  1  0
 16 17  1  0
 17 18  1  0
 18 19  2  0
 19 20  1  0
 20 21  2  0
 21 22  1  0
 22 23  1  0
 22 24  1  0
 22 25  1  0
 21 26  1  0
 26 27  2  0
 15 28  1  0
 28 29  1  0
 29 30  2  0
 30 31  1  0
 31 32  2  0
 32 33  1  0
 33 34  1  0
 32 35  1  0
 35 36  2  0
  7 37  1  0
 37 38  2  0
 38  4  1  0
 28 12  1  0
 36 29  1  0
 27 18  1  0
  1 39  1  0
  1 40  1  0
  1 41  1  0
  2 42  1  0
  2 43  1  0
  5 44  1  0
  6 45  1  0
 10 46  1  0
 10 47  1  0
 16 48  1  0
 16 49  1  0
 17 50  1  0
 19 51  1  0
 20 52  1  0
 26 53  1  0
 27 54  1  0
 30 55  1  0
 31 56  1  0
 34 57  1  0
 34 58  1  0
 34 59  1  0
 35 60  1  0
 36 61  1  0
 37 62  1  0
 38 63  1  0
M  END
>  <Binding energies>  (1) 
[-8.6]

>  <Ligand effiencies>  (1) 
[-0.2205128205128205]

>  <Interactions>  (1) 
["V-A:GLU:543:CD:4905, V-B:LEU:475:CD2:9227, V-B:LYS:547:CE:9919, H-A:LYS:547:NZ:4948, V-A:GLY:544:C:4909, V-A:HIS:456:CE1:4066, V-A:GLU:543:C:4899, V-A:GLU:543:CB:4903, V-A:HIS:456:CD2:4064, V-B:GLU:543:CB:9875, V-B:HIS:456:CE1:9038, V-B:HIS:456:CD2:9036, V-B:PRO:540:CA:9852, V-B:ILE:369:CG2:8205, V-B:PRO:540:C:9850, V-B:ASP:366:CG:8181, V-B:ALA:541:CB:9861, H-B:GLU:543:OE1:9878, V-B:GLU:543:CD:9877, V-A:ARG:545:CZ:4923, H-A:ARG:545:NH2:4925, V-B:TYR:539:CE2:9845, V-A:LEU:475:CD1:4254, V-B:TYR:539:CD2:9843, V-B:ILE:369:CD1:8207, H-A:GLY:454:N:4046, H-A:ARG:545:NH1:4924, V-B:ARG:545:CZ:9895, H-A:TYR:484:OH:4344, V-B:GLY:454:CA:9017, V-B:ILE:369:CB:8204, V-B:ILE:369:CG1:8206, V-B:SER:385:C:8373"]

$$$$
RR18_Rahimova_2017
     RDKit          3D

 56 61  0  0  0  0  0  0  0  0999 V2000
  133.8140  125.1120   65.3400 C   0  0  0  0  0  0  0  0  0  0  0  0
  132.7120  125.1760   64.3120 C   0  0  0  0  0  0  0  0  0  0  0  0
  132.6610  124.9950   62.9390 C   0  0  0  0  0  0  0  0  0  0  0  0
  131.3340  125.1920   62.5570 C   0  0  0  0  0  0  0  0  0  0  0  0
  130.6230  125.4850   63.7090 C   0  0  0  0  0  0  0  0  0  0  0  0
  129.1560  125.7940   63.9980 C   0  0  1  0  0  0  0  0  0  0  0  0
  129.0050  126.7930   65.1830 C   0  0  0  0  0  0  0  0  0  0  0  0
  129.4220  126.4120   66.5290 C   0  0  0  0  0  0  0  0  0  0  0  0
  129.9350  125.3160   66.7640 O   0  0  0  0  0  0  0  0  0  0  0  0
  129.2090  127.3640   67.4670 N   0  0  0  0  0  0  0  0  0  0  0  0
  129.4600  127.3500   68.8550 C   0  0  0  0  0  0  0  0  0  0  0  0
  130.6500  127.8280   69.4330 C   0  0  0  0  0  0  0  0  0  0  0  0
  130.8390  127.7800   70.8130 C   0  0  0  0  0  0  0  0  0  0  0  0
  129.8490  127.2490   71.6350 C   0  0  0  0  0  0  0  0  0  0  0  0
  128.6710  126.7610   71.0760 C   0  0  0  0  0  0  0  0  0  0  0  0
  128.4670  126.8040   69.6930 C   0  0  0  0  0  0  0  0  0  0  0  0
  127.1600  126.2520   69.1310 C   0  0  0  0  0  0  0  0  0  0  0  0
  128.5760  128.0550   64.9160 C   0  0  0  0  0  0  0  0  0  0  0  0
  128.1490  128.4880   63.6970 N   0  0  0  0  0  0  0  0  0  0  0  0
  128.0580  127.6540   62.7280 C   0  0  0  0  0  0  0  0  0  0  0  0
  127.3890  128.0280   61.1570 S   0  0  0  0  0  0  0  0  0  0  0  0
  127.6510  126.3490   60.5880 C   0  0  0  0  0  0  0  0  0  0  0  0
  127.3440  125.8330   59.3470 C   0  0  0  0  0  0  0  0  0  0  0  0
  126.6550  126.6630   58.3480 C   0  0  0  0  0  0  0  0  0  0  0  0
  126.2920  127.8380   58.4080 O   0  0  0  0  0  0  0  0  0  0  0  0
  126.4400  125.8970   57.2740 N   0  0  0  0  0  0  0  0  0  0  0  0
  126.9370  124.6370   57.4120 C   0  0  0  0  0  0  0  0  0  0  0  0
  126.8980  123.5960   56.4840 C   0  0  0  0  0  0  0  0  0  0  0  0
  127.4970  122.3830   56.8100 C   0  0  0  0  0  0  0  0  0  0  0  0
  128.1280  122.2340   58.0430 C   0  0  0  0  0  0  0  0  0  0  0  0
  128.1530  123.2920   58.9560 C   0  0  0  0  0  0  0  0  0  0  0  0
  127.5330  124.5190   58.6550 C   0  0  0  0  0  0  0  0  0  0  0  0
  128.2470  125.5880   61.6860 C   0  0  0  0  0  0  0  0  0  0  0  0
  128.5180  124.3910   61.6810 O   0  0  0  0  0  0  0  0  0  0  0  0
  128.4660  126.3600   62.7850 N   0  0  0  0  0  0  0  0  0  0  0  0
  131.4700  125.4750   64.7730 O   0  0  0  0  0  0  0  0  0  0  0  0
  133.3763  125.1374   66.3488 H   0  0  0  0  0  0  0  0  0  0  0  0
  134.3826  124.1793   65.2104 H   0  0  0  0  0  0  0  0  0  0  0  0
  134.4868  125.9726   65.2104 H   0  0  0  0  0  0  0  0  0  0  0  0
  133.5040  124.7444   62.2782 H   0  0  0  0  0  0  0  0  0  0  0  0
  130.9295  125.1271   61.5361 H   0  0  0  0  0  0  0  0  0  0  0  0
  128.6812  124.8402   64.2716 H   0  0  0  0  0  0  0  0  0  0  0  0
  128.8600  128.2460   67.1240 H   0  0  0  0  0  0  0  0  0  0  0  0
  131.4392  128.2438   68.7894 H   0  0  0  0  0  0  0  0  0  0  0  0
  131.7718  128.1623   71.2532 H   0  0  0  0  0  0  0  0  0  0  0  0
  129.9972  127.2150   72.7244 H   0  0  0  0  0  0  0  0  0  0  0  0
  127.8932  126.3375   71.7284 H   0  0  0  0  0  0  0  0  0  0  0  0
  126.4941  125.9708   69.9602 H   0  0  0  0  0  0  0  0  0  0  0  0
  126.6724  127.0210   68.5139 H   0  0  0  0  0  0  0  0  0  0  0  0
  127.3713  125.3663   68.5139 H   0  0  0  0  0  0  0  0  0  0  0  0
  128.5735  128.7789   65.7442 H   0  0  0  0  0  0  0  0  0  0  0  0
  125.9750  126.2320   56.4420 H   0  0  0  0  0  0  0  0  0  0  0  0
  126.4023  123.7317   55.5114 H   0  0  0  0  0  0  0  0  0  0  0  0
  127.4724  121.5455   56.0973 H   0  0  0  0  0  0  0  0  0  0  0  0
  128.6091  121.2786   58.2994 H   0  0  0  0  0  0  0  0  0  0  0  0
  128.6636  123.1640   59.9218 H   0  0  0  0  0  0  0  0  0  0  0  0
  1  2  1  0
  2  3  2  0
  3  4  1  0
  4  5  2  0
  5  6  1  0
  6  7  1  0
  7  8  1  0
  8  9  2  0
  8 10  1  0
 10 11  1  0
 11 12  2  0
 12 13  1  0
 13 14  2  0
 14 15  1  0
 15 16  2  0
 16 17  1  0
  7 18  2  0
 18 19  1  0
 19 20  2  0
 20 21  1  0
 21 22  1  0
 22 23  2  0
 23 24  1  0
 24 25  2  0
 24 26  1  0
 26 27  1  0
 27 28  2  0
 28 29  1  0
 29 30  2  0
 30 31  1  0
 31 32  2  0
 22 33  1  0
 33 34  2  0
 33 35  1  0
  5 36  1  0
 36  2  1  0
 35  6  1  0
 16 11  1  0
 35 20  1  0
 32 23  1  0
 32 27  1  0
  1 37  1  0
  1 38  1  0
  1 39  1  0
  3 40  1  0
  4 41  1  0
  6 42  1  1
 10 43  1  0
 12 44  1  0
 13 45  1  0
 14 46  1  0
 15 47  1  0
 17 48  1  0
 17 49  1  0
 17 50  1  0
 18 51  1  0
 26 52  1  0
 28 53  1  0
 29 54  1  0
 30 55  1  0
 31 56  1  0
M  END
>  <Binding energies>  (1) 
[-8.84]

>  <Ligand effiencies>  (1) 
[-0.2326315789473684]

>  <Interactions>  (1) 
["V-A:GLU:543:CD:4905, V-B:GLU:543:C:9871, V-A:GLY:544:C:4909, V-A:HIS:456:CE1:4066, V-A:GLU:543:C:4899, V-A:HIS:456:CD2:4064, V-B:GLU:543:CB:9875, V-B:HIS:456:CE1:9038, V-B:GLY:544:C:9881, V-B:HIS:456:CD2:9036, V-B:TYR:539:CE1:9844, V-B:MET:535:CE:9804, V-B:PRO:540:CA:9852, V-B:TYR:539:CZ:9846, V-B:PRO:540:N:9853, H-B:TYR:531:OH:9764, V-B:GLU:543:CD:9877, H-B:HIS:456:NE2:9039, V-B:GLU:543:CG:9876, V-A:ARG:545:CZ:4923, V-A:ARG:545:CD:4920, V-B:TYR:539:CE2:9845, V-B:TYR:539:C:9836, V-B:TYR:539:CD2:9843, V-B:TYR:539:CD1:9842, V-B:TYR:539:CG:9841, V-A:GLY:454:CA:4045, H-B:MET:535:SD:9803, H-A:TYR:484:OH:4344"]

$$$$
RR19_Rahimova_2017
     RDKit          3D

 72 77  0  0  0  0  0  0  0  0999 V2000
  129.5140  121.0800   61.5650 O   0  0  0  0  0  0  0  0  0  0  0  0
  129.4970  122.3040   61.4030 C   0  0  0  0  0  0  0  0  0  0  0  0
  129.5580  123.2380   62.3860 N   0  0  0  0  0  0  0  0  0  0  0  0
  129.8610  123.1710   63.7240 C   0  0  0  0  0  0  0  0  0  0  0  0
  130.5150  121.8280   64.5200 S   0  0  0  0  0  0  0  0  0  0  0  0
  129.5460  124.3730   64.3060 N   0  0  0  0  0  0  0  0  0  0  0  0
  129.7670  124.8880   65.5420 C   0  0  0  0  0  0  0  0  0  0  0  0
  130.5030  124.4130   66.4110 O   0  0  0  0  0  0  0  0  0  0  0  0
  128.9720  126.1850   65.8350 C   0  0  2  0  0  0  0  0  0  0  0  0
  129.1370  127.3060   64.7680 C   0  0  0  0  0  0  0  0  0  0  0  0
  127.9110  128.1780   64.5510 C   0  0  0  0  0  0  0  0  0  0  0  0
  127.2420  128.1910   63.3070 C   0  0  0  0  0  0  0  0  0  0  0  0
  126.0790  128.9330   63.1510 C   0  0  0  0  0  0  0  0  0  0  0  0
  125.5570  129.6500   64.2210 C   0  0  0  0  0  0  0  0  0  0  0  0
  126.1870  129.6220   65.4590 C   0  0  0  0  0  0  0  0  0  0  0  0
  127.3500  128.8850   65.6360 C   0  0  0  0  0  0  0  0  0  0  0  0
  129.2500  126.6910   67.2070 N   0  0  0  0  0  0  0  0  0  0  0  0
  128.3140  126.6110   68.1950 C   0  0  0  0  0  0  0  0  0  0  0  0
  127.1670  126.1670   68.1040 O   0  0  0  0  0  0  0  0  0  0  0  0
  128.9670  127.1660   69.4060 C   0  0  0  0  0  0  0  0  0  0  0  0
  128.4880  127.3390   70.7050 C   0  0  0  0  0  0  0  0  0  0  0  0
  129.3420  127.8920   71.6660 C   0  0  0  0  0  0  0  0  0  0  0  0
  130.6500  128.2590   71.3200 C   0  0  0  0  0  0  0  0  0  0  0  0
  131.1110  128.0760   70.0120 C   0  0  0  0  0  0  0  0  0  0  0  0
  130.2430  127.5250   69.0690 C   0  0  0  0  0  0  0  0  0  0  0  0
  130.4420  127.2070   67.6330 C   0  0  0  0  0  0  0  0  0  0  0  0
  131.4690  127.3670   66.9710 O   0  0  0  0  0  0  0  0  0  0  0  0
  129.3810  122.8850   59.9690 C   0  0  2  0  0  0  0  0  0  0  0  0
  130.4460  123.9720   59.6420 C   0  0  0  0  0  0  0  0  0  0  0  0
  131.6650  123.9310   60.5450 C   0  0  0  0  0  0  0  0  0  0  0  0
  132.7200  123.0340   60.2700 C   0  0  0  0  0  0  0  0  0  0  0  0
  133.8780  123.0690   61.0370 C   0  0  0  0  0  0  0  0  0  0  0  0
  134.0160  124.0020   62.0550 C   0  0  0  0  0  0  0  0  0  0  0  0
  133.0030  124.9180   62.3110 C   0  0  0  0  0  0  0  0  0  0  0  0
  131.8370  124.8990   61.5580 C   0  0  0  0  0  0  0  0  0  0  0  0
  128.0060  123.3470   59.6270 N   0  0  0  0  0  0  0  0  0  0  0  0
  127.3690  124.3050   60.3580 C   0  0  0  0  0  0  0  0  0  0  0  0
  127.7930  124.8860   61.3580 O   0  0  0  0  0  0  0  0  0  0  0  0
  126.0570  124.4990   59.6930 C   0  0  0  0  0  0  0  0  0  0  0  0
  124.9910  125.3450   60.0030 C   0  0  0  0  0  0  0  0  0  0  0  0
  123.8560  125.3210   59.1840 C   0  0  0  0  0  0  0  0  0  0  0  0
  123.8020  124.4630   58.0770 C   0  0  0  0  0  0  0  0  0  0  0  0
  124.8820  123.6240   57.7820 C   0  0  0  0  0  0  0  0  0  0  0  0
  126.0040  123.6620   58.6120 C   0  0  0  0  0  0  0  0  0  0  0  0
  127.2800  122.9100   58.5560 C   0  0  0  0  0  0  0  0  0  0  0  0
  127.6150  122.0690   57.7200 O   0  0  0  0  0  0  0  0  0  0  0  0
  129.4520  124.1820   62.0450 H   0  0  0  0  0  0  0  0  0  0  0  0
  128.9520  124.9560   63.7340 H   0  0  0  0  0  0  0  0  0  0  0  0
  127.9135  125.8921   65.7732 H   0  0  0  0  0  0  0  0  0  0  0  0
  129.9660  127.9567   65.0833 H   0  0  0  0  0  0  0  0  0  0  0  0
  129.3202  126.7933   63.8122 H   0  0  0  0  0  0  0  0  0  0  0  0
  127.6427  127.6129   62.4613 H   0  0  0  0  0  0  0  0  0  0  0  0
  125.5687  128.9535   62.1767 H   0  0  0  0  0  0  0  0  0  0  0  0
  124.6402  130.2428   64.0870 H   0  0  0  0  0  0  0  0  0  0  0  0
  125.7624  130.1862   66.3025 H   0  0  0  0  0  0  0  0  0  0  0  0
  127.8348  128.8520   66.6229 H   0  0  0  0  0  0  0  0  0  0  0  0
  127.4607  127.0469   70.9682 H   0  0  0  0  0  0  0  0  0  0  0  0
  128.9857  128.0392   72.6962 H   0  0  0  0  0  0  0  0  0  0  0  0
  131.3165  128.6926   72.0801 H   0  0  0  0  0  0  0  0  0  0  0  0
  132.1362  128.3605   69.7329 H   0  0  0  0  0  0  0  0  0  0  0  0
  129.6020  122.0290   59.3145 H   0  0  0  0  0  0  0  0  0  0  0  0
  130.7794  123.8287   58.6036 H   0  0  0  0  0  0  0  0  0  0  0  0
  129.9644  124.9482   59.8005 H   0  0  0  0  0  0  0  0  0  0  0  0
  132.6253  122.3079   59.4491 H   0  0  0  0  0  0  0  0  0  0  0  0
  134.6893  122.3538   60.8364 H   0  0  0  0  0  0  0  0  0  0  0  0
  134.9327  124.0165   62.6628 H   0  0  0  0  0  0  0  0  0  0  0  0
  133.1255  125.6607   63.1131 H   0  0  0  0  0  0  0  0  0  0  0  0
  131.0463  125.6390   61.7508 H   0  0  0  0  0  0  0  0  0  0  0  0
  125.0417  126.0166   60.8727 H   0  0  0  0  0  0  0  0  0  0  0  0
  123.0032  125.9780   59.4101 H   0  0  0  0  0  0  0  0  0  0  0  0
  122.9070  124.4492   57.4377 H   0  0  0  0  0  0  0  0  0  0  0  0
  124.8479  122.9486   56.9144 H   0  0  0  0  0  0  0  0  0  0  0  0
  1  2  2  0
  2  3  1  0
  3  4  1  0
  4  5  2  0
  4  6  1  0
  6  7  1  0
  7  8  2  0
  7  9  1  0
  9 10  1  0
 10 11  1  0
 11 12  2  0
 12 13  1  0
 13 14  2  0
 14 15  1  0
 15 16  2  0
  9 17  1  0
 17 18  1  0
 18 19  2  0
 18 20  1  0
 20 21  2  0
 21 22  1  0
 22 23  2  0
 23 24  1  0
 24 25  2  0
 25 26  1  0
 26 27  2  0
  2 28  1  0
 28 29  1  0
 29 30  1  0
 30 31  2  0
 31 32  1  0
 32 33  2  0
 33 34  1  0
 34 35  2  0
 28 36  1  0
 36 37  1  0
 37 38  2  0
 37 39  1  0
 39 40  2  0
 40 41  1  0
 41 42  2  0
 42 43  1  0
 43 44  2  0
 44 45  1  0
 45 46  2  0
 16 11  1  0
 26 17  1  0
 35 30  1  0
 45 36  1  0
 25 20  1  0
 44 39  1  0
  3 47  1  0
  6 48  1  0
  9 49  1  1
 10 50  1  0
 10 51  1  0
 12 52  1  0
 13 53  1  0
 14 54  1  0
 15 55  1  0
 16 56  1  0
 21 57  1  0
 22 58  1  0
 23 59  1  0
 24 60  1  0
 28 61  1  6
 29 62  1  0
 29 63  1  0
 31 64  1  0
 32 65  1  0
 33 66  1  0
 34 67  1  0
 35 68  1  0
 40 69  1  0
 41 70  1  0
 42 71  1  0
 43 72  1  0
M  END
>  <Binding energies>  (1) 
[-11.29]

>  <Ligand effiencies>  (1) 
[-0.23520833333333332]

>  <Interactions>  (1) 
["V-A:ASP:366:CG:3209, V-A:GLU:543:CD:4905, V-A:GLY:544:C:4909, V-A:HIS:456:CE1:4066, V-A:GLU:543:C:4899, V-A:GLU:543:CB:4903, V-A:HIS:456:CD2:4064, V-B:GLU:543:CB:9875, V-A:GLY:544:CA:4911, V-B:HIS:456:CE1:9038, V-B:HIS:456:CD2:9036, V-B:ASP:366:CB:8180, V-B:PRO:540:CA:9852, V-B:TYR:539:CZ:9846, V-B:PRO:540:N:9853, V-B:PRO:540:CB:9854, V-B:ASP:366:CG:8181, H-B:TYR:539:N:9839, V-B:LEU:363:CD1:8157, V-B:LEU:363:CA:8153, V-B:ALA:541:CB:9861, H-B:GLU:543:OE2:9879, H-B:GLU:543:OE1:9878, V-B:GLU:543:CD:9877, V-B:GLU:543:CG:9876, V-A:ARG:545:CZ:4923, V-A:TYR:484:CZ:4343, V-B:TYR:539:CE2:9845, V-A:TYR:484:CE1:4341, V-A:LEU:475:CD1:4254, V-B:TYR:539:CD2:9843, V-B:LEU:363:CB:8155, V-A:GLY:454:CA:4045, V-B:ARG:545:CZ:9895, V-A:GLY:453:C:4038, V-A:GLY:453:CA:4040, H-A:TYR:484:OH:4344, V-A:LEU:475:CD2:4255, V-A:LEU:475:CG:4253"]

$$$$
RR19_Rahimova_2017-again1
     RDKit          3D

 71 76  0  0  0  0  0  0  0  0999 V2000
  127.8620  121.6230   58.1820 O   0  0  0  0  0  0  0  0  0  0  0  0
  128.2730  122.6960   58.6320 C   0  0  0  0  0  0  0  0  0  0  0  0
  128.5020  123.8200   57.9140 N   0  0  0  0  0  0  0  0  0  0  0  0
  128.2410  124.1630   56.6170 C   0  0  0  0  0  0  0  0  0  0  0  0
  127.6170  123.2430   55.3560 S   0  0  0  0  0  0  0  0  0  0  0  0
  128.5160  125.5140   56.5000 N   0  0  0  0  0  0  0  0  0  0  0  0
  128.5790  126.4170   57.4240 C   0  0  0  0  0  0  0  0  0  0  0  0
  128.4940  126.3130   58.6640 O   0  0  0  0  0  0  0  0  0  0  0  0
  128.7780  127.8850   56.9140 C   0  0  2  0  0  0  0  0  0  0  0  0
  130.1390  128.4800   57.4060 C   0  0  0  0  0  0  0  0  0  0  0  0
  130.4100  129.9100   56.9440 C   0  0  0  0  0  0  0  0  0  0  0  0
  131.3870  130.6760   57.5840 C   0  0  0  0  0  0  0  0  0  0  0  0
  131.6460  131.9750   57.1540 C   0  0  0  0  0  0  0  0  0  0  0  0
  130.9220  132.5050   56.0870 C   0  0  0  0  0  0  0  0  0  0  0  0
  129.9420  131.7480   55.4470 C   0  0  0  0  0  0  0  0  0  0  0  0
  129.6840  130.4500   55.8780 C   0  0  0  0  0  0  0  0  0  0  0  0
  127.5890  128.7680   57.1500 N   0  0  0  0  0  0  0  0  0  0  0  0
  127.2640  129.2110   58.3980 C   0  0  0  0  0  0  0  0  0  0  0  0
  127.8460  128.9620   59.4550 O   0  0  0  0  0  0  0  0  0  0  0  0
  126.0570  130.0560   58.2150 C   0  0  0  0  0  0  0  0  0  0  0  0
  125.2870  130.7630   59.1400 C   0  0  0  0  0  0  0  0  0  0  0  0
  124.1830  131.4870   58.6770 C   0  0  0  0  0  0  0  0  0  0  0  0
  123.8670  131.4990   57.3120 C   0  0  0  0  0  0  0  0  0  0  0  0
  124.6520  130.7840   56.4010 C   0  0  0  0  0  0  0  0  0  0  0  0
  125.7470  130.0660   56.8830 C   0  0  0  0  0  0  0  0  0  0  0  0
  126.7470  129.2310   56.1760 C   0  0  0  0  0  0  0  0  0  0  0  0
  126.8030  129.0050   54.9680 O   0  0  0  0  0  0  0  0  0  0  0  0
  128.5740  122.8270   60.1540 C   0  0  2  0  0  0  0  0  0  0  0  0
  127.7780  123.9660   60.8540 C   0  0  0  0  0  0  0  0  0  0  0  0
  126.3550  124.1250   60.3490 C   0  0  0  0  0  0  0  0  0  0  0  0
  125.3180  123.3430   60.9000 C   0  0  0  0  0  0  0  0  0  0  0  0
  124.0030  123.5570   60.5090 C   0  0  0  0  0  0  0  0  0  0  0  0
  123.6980  124.5600   59.5960 C   0  0  0  0  0  0  0  0  0  0  0  0
  124.7050  125.3620   59.0740 C   0  0  0  0  0  0  0  0  0  0  0  0
  126.0260  125.1640   59.4530 C   0  0  0  0  0  0  0  0  0  0  0  0
  130.0310  122.8760   60.4850 N   0  0  0  0  0  0  0  0  0  0  0  0
  130.6410  121.8700   61.1740 C   0  0  0  0  0  0  0  0  0  0  0  0
  130.1110  120.8760   61.6710 O   0  0  0  0  0  0  0  0  0  0  0  0
  132.0820  122.2220   61.1930 C   0  0  0  0  0  0  0  0  0  0  0  0
  133.1790  121.5560   61.7440 C   0  0  0  0  0  0  0  0  0  0  0  0
  134.4500  122.1190   61.5890 C   0  0  0  0  0  0  0  0  0  0  0  0
  134.6080  123.3270   60.8960 C   0  0  0  0  0  0  0  0  0  0  0  0
  133.4960  123.9810   60.3530 C   0  0  0  0  0  0  0  0  0  0  0  0
  132.2370  123.4010   60.5160 C   0  0  0  0  0  0  0  0  0  0  0  0
  130.9000  123.8320   60.0400 C   0  0  0  0  0  0  0  0  0  0  0  0
  130.6330  124.8330   59.3740 O   0  0  0  0  0  0  0  0  0  0  0  0
  128.8590  124.5880   58.4620 H   0  0  0  0  0  0  0  0  0  0  0  0
  128.8469  127.8409   55.8170 H   0  0  0  0  0  0  0  0  0  0  0  0
  130.1413  128.4683   58.5059 H   0  0  0  0  0  0  0  0  0  0  0  0
  130.9303  127.8546   56.9670 H   0  0  0  0  0  0  0  0  0  0  0  0
  131.9519  130.2531   58.4278 H   0  0  0  0  0  0  0  0  0  0  0  0
  132.4175  132.5795   57.6534 H   0  0  0  0  0  0  0  0  0  0  0  0
  131.1262  133.5309   55.7467 H   0  0  0  0  0  0  0  0  0  0  0  0
  129.3756  132.1742   54.6058 H   0  0  0  0  0  0  0  0  0  0  0  0
  128.9089  129.8490   55.3800 H   0  0  0  0  0  0  0  0  0  0  0  0
  125.5427  130.7512   60.2098 H   0  0  0  0  0  0  0  0  0  0  0  0
  123.5601  132.0495   59.3880 H   0  0  0  0  0  0  0  0  0  0  0  0
  122.9987  132.0726   56.9554 H   0  0  0  0  0  0  0  0  0  0  0  0
  124.4111  130.7878   55.3277 H   0  0  0  0  0  0  0  0  0  0  0  0
  128.2002  121.8835   60.5784 H   0  0  0  0  0  0  0  0  0  0  0  0
  127.7405  123.7499   61.9319 H   0  0  0  0  0  0  0  0  0  0  0  0
  128.3027  124.9062   60.6287 H   0  0  0  0  0  0  0  0  0  0  0  0
  125.5514  122.5632   61.6399 H   0  0  0  0  0  0  0  0  0  0  0  0
  123.1994  122.9304   60.9233 H   0  0  0  0  0  0  0  0  0  0  0  0
  122.6548  124.7193   59.2856 H   0  0  0  0  0  0  0  0  0  0  0  0
  124.4547  126.1577   58.3570 H   0  0  0  0  0  0  0  0  0  0  0  0
  126.8162  125.8173   59.0546 H   0  0  0  0  0  0  0  0  0  0  0  0
  133.0463  120.6092   62.2881 H   0  0  0  0  0  0  0  0  0  0  0  0
  135.3292  121.6116   62.0127 H   0  0  0  0  0  0  0  0  0  0  0  0
  135.6109  123.7633   60.7783 H   0  0  0  0  0  0  0  0  0  0  0  0
  133.6117  124.9306   59.8101 H   0  0  0  0  0  0  0  0  0  0  0  0
  1  2  2  0
  2  3  1  0
  3  4  1  0
  4  5  2  0
  4  6  1  0
  6  7  2  0
  7  8  1  0
  7  9  1  0
  9 10  1  0
 10 11  1  0
 11 12  2  0
 12 13  1  0
 13 14  2  0
 14 15  1  0
 15 16  2  0
  9 17  1  0
 17 18  1  0
 18 19  2  0
 18 20  1  0
 20 21  2  0
 21 22  1  0
 22 23  2  0
 23 24  1  0
 24 25  2  0
 25 26  1  0
 26 27  2  0
  2 28  1  0
 28 29  1  0
 29 30  1  0
 30 31  2  0
 31 32  1  0
 32 33  2  0
 33 34  1  0
 34 35  2  0
 28 36  1  0
 36 37  1  0
 37 38  2  0
 37 39  1  0
 39 40  2  0
 40 41  1  0
 41 42  2  0
 42 43  1  0
 43 44  2  0
 44 45  1  0
 45 46  2  0
 16 11  1  0
 26 17  1  0
 35 30  1  0
 45 36  1  0
 25 20  1  0
 44 39  1  0
  3 47  1  0
  9 48  1  6
 10 49  1  0
 10 50  1  0
 12 51  1  0
 13 52  1  0
 14 53  1  0
 15 54  1  0
 16 55  1  0
 21 56  1  0
 22 57  1  0
 23 58  1  0
 24 59  1  0
 28 60  1  1
 29 61  1  0
 29 62  1  0
 31 63  1  0
 32 64  1  0
 33 65  1  0
 34 66  1  0
 35 67  1  0
 40 68  1  0
 41 69  1  0
 42 70  1  0
 43 71  1  0
M  CHG  1   8  -1
M  END
>  <Binding energies>  (1) 
[-10.26]

>  <Ligand effiencies>  (1) 
[-0.21829787234042553]

>  <Interactions>  (1) 
["V-A:PRO:540:CB:4882, V-A:PRO:540:CA:4880, V-A:PRO:540:N:4881, V-A:TYR:539:C:4864, V-A:ASP:366:CB:3208, V-A:ASP:366:CG:3209, V-A:TYR:539:CE2:4873, V-A:ILE:538:CD1:4862, V-B:ASP:366:CA:8178, V-B:ASP:366:CB:8180, V-B:ASN:362:CB:8144, V-B:MET:535:CE:9804, V-B:PRO:540:CA:9852, V-B:TYR:539:CZ:9846, V-B:ASN:362:C:8140, V-B:TYR:531:CZ:9763, V-B:ILE:369:CG2:8205, V-B:PRO:540:C:9850, V-B:PRO:540:CB:9854, V-B:ASP:366:CG:8181, H-B:TYR:539:N:9839, V-B:LEU:363:CA:8153, H-B:TYR:531:OH:9764, V-A:ILE:538:CG2:4860, V-A:TYR:539:CZ:4874, H-B:TYR:539:OH:9847, V-A:PRO:540:CD:4884, V-B:TYR:539:CE2:9845, V-B:ILE:538:CG2:9832, V-A:LEU:475:CD1:4254, V-A:ILE:369:CG1:3234, V-A:ILE:369:CB:3232, V-B:TYR:539:CD2:9843, V-A:ILE:369:CG2:3233, V-A:GLY:454:CA:4045, V-A:GLY:453:C:4038, V-A:ASP:366:CA:3206, V-B:TYR:531:CE1:9761, V-B:ILE:369:CB:8204, V-B:ASP:366:C:8176"]

$$$$
RR1_Rahimova_2017
     RDKit          3D

 68 71  0  0  0  0  0  0  0  0999 V2000
  124.1940  130.8270   56.5210 C   0  0  0  0  0  0  0  0  0  0  0  0
  123.9520  131.6750   57.6380 O   0  0  0  0  0  0  0  0  0  0  0  0
  124.4670  131.3290   58.8720 C   0  0  0  0  0  0  0  0  0  0  0  0
  125.5740  130.4870   59.0590 C   0  0  0  0  0  0  0  0  0  0  0  0
  126.0180  130.1870   60.3440 C   0  0  0  0  0  0  0  0  0  0  0  0
  125.3720  130.7250   61.4580 C   0  0  0  0  0  0  0  0  0  0  0  0
  125.8670  130.3260   62.7140 N   0  0  0  0  0  0  0  0  0  0  0  0
  125.2180  130.2160   63.8930 C   0  0  0  0  0  0  0  0  0  0  0  0
  124.0420  130.5290   64.0790 O   0  0  0  0  0  0  0  0  0  0  0  0
  126.0720  129.6580   65.0440 C   0  0  0  0  0  0  0  0  0  0  0  0
  127.8740  129.9080   64.8750 S   0  0  0  0  0  0  0  0  0  0  0  0
  128.3970  128.6260   65.9640 C   0  0  0  0  0  0  0  0  0  0  0  0
  128.4040  128.7250   67.2690 N   0  0  0  0  0  0  0  0  0  0  0  0
  128.8520  127.5420   67.6760 C   0  0  0  0  0  0  0  0  0  0  0  0
  129.0110  127.2000   69.1300 C   0  0  0  0  0  0  0  0  0  0  0  0
  128.1440  126.3010   69.7720 C   0  0  0  0  0  0  0  0  0  0  0  0
  128.3150  126.0040   71.1260 C   0  0  0  0  0  0  0  0  0  0  0  0
  129.3590  126.6190   71.8140 C   0  0  0  0  0  0  0  0  0  0  0  0
  130.2150  127.4930   71.2260 N   0  0  0  0  0  0  0  0  0  0  0  0
  130.0330  127.7670   69.9090 C   0  0  0  0  0  0  0  0  0  0  0  0
  129.1450  126.6870   66.7150 N   0  0  0  0  0  0  0  0  0  0  0  0
  128.8540  127.3820   65.6110 N   0  0  0  0  0  0  0  0  0  0  0  0
  129.0160  126.7790   64.2880 C   0  0  0  0  0  0  0  0  0  0  0  0
  128.6760  127.7030   63.1060 C   0  0  0  0  0  0  0  0  0  0  0  0
  127.5090  128.0500   62.8890 O   0  0  0  0  0  0  0  0  0  0  0  0
  129.7300  128.0810   62.3590 N   0  0  0  0  0  0  0  0  0  0  0  0
  129.5230  129.0300   61.3670 N   0  0  0  0  0  0  0  0  0  0  0  0
  130.0720  128.8040   60.1540 C   0  0  0  0  0  0  0  0  0  0  0  0
  130.6580  127.7620   59.8420 O   0  0  0  0  0  0  0  0  0  0  0  0
  129.9080  129.9190   59.1420 C   0  0  0  0  0  0  0  0  0  0  0  0
  130.7460  129.9770   58.0230 C   0  0  0  0  0  0  0  0  0  0  0  0
  130.6210  130.9990   57.0880 C   0  0  0  0  0  0  0  0  0  0  0  0
  129.6530  132.0040   57.2480 C   0  0  0  0  0  0  0  0  0  0  0  0
  129.4850  133.0540   56.3630 O   0  0  0  0  0  0  0  0  0  0  0  0
  128.7090  132.8620   55.1860 C   0  0  0  0  0  0  0  0  0  0  0  0
  128.8090  131.9680   58.3650 C   0  0  0  0  0  0  0  0  0  0  0  0
  127.8850  132.9930   58.4870 O   0  0  0  0  0  0  0  0  0  0  0  0
  127.4290  133.3800   59.7790 C   0  0  0  0  0  0  0  0  0  0  0  0
  128.9410  130.9260   59.3000 C   0  0  0  0  0  0  0  0  0  0  0  0
  124.2660  131.5680   61.2750 C   0  0  0  0  0  0  0  0  0  0  0  0
  123.8250  131.8660   59.9880 C   0  0  0  0  0  0  0  0  0  0  0  0
  124.4797  129.8258   56.8758 H   0  0  0  0  0  0  0  0  0  0  0  0
  123.2810  130.7534   55.9119 H   0  0  0  0  0  0  0  0  0  0  0  0
  125.0083  131.2464   55.9119 H   0  0  0  0  0  0  0  0  0  0  0  0
  126.0929  130.0624   58.1870 H   0  0  0  0  0  0  0  0  0  0  0  0
  126.8832  129.5219   60.4821 H   0  0  0  0  0  0  0  0  0  0  0  0
  126.8580  130.1290   62.7290 H   0  0  0  0  0  0  0  0  0  0  0  0
  125.7475  130.1460   65.9749 H   0  0  0  0  0  0  0  0  0  0  0  0
  125.9151  128.5693   65.0378 H   0  0  0  0  0  0  0  0  0  0  0  0
  127.3271  125.8289   69.2064 H   0  0  0  0  0  0  0  0  0  0  0  0
  127.6411  125.3009   71.6374 H   0  0  0  0  0  0  0  0  0  0  0  0
  129.4954  126.3860   72.8803 H   0  0  0  0  0  0  0  0  0  0  0  0
  130.7244  128.4724   69.4249 H   0  0  0  0  0  0  0  0  0  0  0  0
  130.0643  126.4627   64.1833 H   0  0  0  0  0  0  0  0  0  0  0  0
  128.3011  125.9443   64.2411 H   0  0  0  0  0  0  0  0  0  0  0  0
  130.6980  127.9850   62.6340 H   0  0  0  0  0  0  0  0  0  0  0  0
  129.4690  129.9610   61.7530 H   0  0  0  0  0  0  0  0  0  0  0  0
  131.5147  129.2032   57.8807 H   0  0  0  0  0  0  0  0  0  0  0  0
  131.2878  131.0204   56.2134 H   0  0  0  0  0  0  0  0  0  0  0  0
  127.6762  132.6065   55.4654 H   0  0  0  0  0  0  0  0  0  0  0  0
  128.7097  133.7874   54.5913 H   0  0  0  0  0  0  0  0  0  0  0  0
  129.1411  132.0437   54.5913 H   0  0  0  0  0  0  0  0  0  0  0  0
  128.0291  132.8707   60.5474 H   0  0  0  0  0  0  0  0  0  0  0  0
  127.5339  134.4689   59.8939 H   0  0  0  0  0  0  0  0  0  0  0  0
  126.3716  133.0994   59.8939 H   0  0  0  0  0  0  0  0  0  0  0  0
  128.2731  130.8987   60.1736 H   0  0  0  0  0  0  0  0  0  0  0  0
  123.7475  131.9933   62.1470 H   0  0  0  0  0  0  0  0  0  0  0  0
  122.9607  132.5323   59.8500 H   0  0  0  0  0  0  0  0  0  0  0  0
  1  2  1  0
  2  3  1  0
  3  4  2  0
  4  5  1  0
  5  6  2  0
  6  7  1  0
  7  8  1  0
  8  9  2  0
  8 10  1  0
 10 11  1  0
 11 12  1  0
 12 13  2  0
 13 14  1  0
 14 15  1  0
 15 16  2  0
 16 17  1  0
 17 18  2  0
 18 19  1  0
 19 20  2  0
 14 21  2  0
 21 22  1  0
 22 23  1  0
 23 24  1  0
 24 25  2  0
 24 26  1  0
 26 27  1  0
 27 28  1  0
 28 29  2  0
 28 30  1  0
 30 31  2  0
 31 32  1  0
 32 33  2  0
 33 34  1  0
 34 35  1  0
 33 36  1  0
 36 37  1  0
 37 38  1  0
 36 39  2  0
  6 40  1  0
 40 41  2  0
 41  3  1  0
 22 12  1  0
 39 30  1  0
 20 15  1  0
  1 42  1  0
  1 43  1  0
  1 44  1  0
  4 45  1  0
  5 46  1  0
  7 47  1  0
 10 48  1  0
 10 49  1  0
 16 50  1  0
 17 51  1  0
 18 52  1  0
 20 53  1  0
 23 54  1  0
 23 55  1  0
 26 56  1  0
 27 57  1  0
 31 58  1  0
 32 59  1  0
 35 60  1  0
 35 61  1  0
 35 62  1  0
 38 63  1  0
 38 64  1  0
 38 65  1  0
 39 66  1  0
 40 67  1  0
 41 68  1  0
M  END
>  <Binding energies>  (1) 
[-8.25]

>  <Ligand effiencies>  (1) 
[-0.1875]

>  <Interactions>  (1) 
["V-A:TYR:539:CD2:4871, H-A:GLU:543:OE1:4906, H-A:GLU:543:OE2:4907, V-A:TYR:539:C:4864, V-A:GLU:543:CD:4905, V-A:TYR:539:CE2:4873, V-B:GLU:543:C:9871, V-B:LYS:547:CE:9919, H-A:LYS:547:NZ:4948, V-A:HIS:456:CE1:4066, V-A:GLU:543:CB:4903, V-A:HIS:456:CD2:4064, V-B:HIS:456:CE1:9038, V-B:GLY:544:C:9881, V-A:ILE:538:CD1:4862, V-B:ASP:366:CB:8180, V-B:TYR:531:CZ:9763, V-B:ILE:369:CG2:8205, V-B:ASP:366:CG:8181, V-A:TYR:539:CZ:4874, V-B:GLU:543:CD:9877, V-A:GLU:543:CG:4904, V-A:TYR:539:CD1:4870, V-A:ILE:538:CA:4857, V-A:TYR:539:CE1:4872, V-B:ILE:369:CD1:8207, H-A:TYR:539:N:4867, H-B:GLY:454:N:9018, V-B:TYR:531:CE1:9761, V-A:TYR:539:CG:4869, V-B:ILE:369:CB:8204, V-B:ASP:366:C:8176, H-A:TYR:539:OH:4875"]

$$$$
RR20_Rahimova_2017
     RDKit          3D

 68 73  0  0  0  0  0  0  0  0999 V2000
  125.2840  130.7890   56.5810 C   0  0  0  0  0  0  0  0  0  0  0  0
  125.0760  131.0000   58.0700 C   0  0  0  0  0  0  0  0  0  0  0  0
  123.8390  131.4390   58.5430 C   0  0  0  0  0  0  0  0  0  0  0  0
  123.6430  131.6240   59.9090 C   0  0  0  0  0  0  0  0  0  0  0  0
  124.6860  131.3850   60.8120 C   0  0  0  0  0  0  0  0  0  0  0  0
  124.4460  131.5730   62.2930 C   0  0  0  0  0  0  0  0  0  0  0  0
  123.2770  131.5720   62.6870 O   0  0  0  0  0  0  0  0  0  0  0  0
  125.5140  131.7200   63.1300 N   0  0  0  0  0  0  0  0  0  0  0  0
  125.8110  133.0040   63.7850 C   0  0  0  0  0  0  0  0  0  0  0  0
  126.9600  132.7410   64.7430 C   0  0  0  0  0  0  0  0  0  0  0  0
  126.9810  131.2460   64.8370 C   0  0  0  0  0  0  0  0  0  0  0  0
  127.7740  130.4270   65.6420 C   0  0  0  0  0  0  0  0  0  0  0  0
  127.7660  129.0370   65.4710 C   0  0  0  0  0  0  0  0  0  0  0  0
  128.6130  128.1530   66.3430 C   0  0  0  0  0  0  0  0  0  0  0  0
  128.7860  128.4990   67.6090 N   0  0  0  0  0  0  0  0  0  0  0  0
  129.5230  127.6480   68.2780 C   0  0  0  0  0  0  0  0  0  0  0  0
  129.8920  127.7040   69.6130 N   0  0  0  0  0  0  0  0  0  0  0  0
  129.3700  126.9810   70.6340 C   0  0  0  0  0  0  0  0  0  0  0  0
  128.4830  126.1360   70.4970 O   0  0  0  0  0  0  0  0  0  0  0  0
  129.9400  127.2110   72.0540 C   0  0  0  0  0  0  0  0  0  0  0  0
  128.9950  127.9080   72.9470 N   0  0  0  0  0  0  0  0  0  0  0  0
  128.9980  129.3640   72.7420 C   0  0  0  0  0  0  0  0  0  0  0  0
  128.2040  130.0620   73.8700 C   0  0  0  0  0  0  0  0  0  0  0  0
  126.8650  129.3860   74.1640 C   0  0  0  0  0  0  0  0  0  0  0  0
  125.8960  130.0170   74.9510 C   0  0  0  0  0  0  0  0  0  0  0  0
  124.6910  129.3860   75.2510 C   0  0  0  0  0  0  0  0  0  0  0  0
  124.4400  128.1080   74.7610 C   0  0  0  0  0  0  0  0  0  0  0  0
  125.3920  127.4710   73.9680 C   0  0  0  0  0  0  0  0  0  0  0  0
  126.6060  128.0940   73.6600 C   0  0  0  0  0  0  0  0  0  0  0  0
  127.6260  127.4190   72.7420 C   0  0  0  0  0  0  0  0  0  0  0  0
  130.0870  126.3130   67.3520 S   0  0  0  0  0  0  0  0  0  0  0  0
  129.2680  126.9650   65.9520 C   0  0  0  0  0  0  0  0  0  0  0  0
  129.3670  126.2680   64.6130 C   0  0  0  0  0  0  0  0  0  0  0  0
  126.9870  128.4940   64.4370 C   0  0  0  0  0  0  0  0  0  0  0  0
  126.2080  129.3120   63.6200 C   0  0  0  0  0  0  0  0  0  0  0  0
  126.1590  130.6920   63.8560 C   0  0  0  0  0  0  0  0  0  0  0  0
  125.9150  130.9170   60.3320 C   0  0  0  0  0  0  0  0  0  0  0  0
  126.1120  130.7300   58.9660 C   0  0  0  0  0  0  0  0  0  0  0  0
  126.0483  130.0137   56.4238 H   0  0  0  0  0  0  0  0  0  0  0  0
  124.3376  130.4697   56.1202 H   0  0  0  0  0  0  0  0  0  0  0  0
  125.6168  131.7307   56.1202 H   0  0  0  0  0  0  0  0  0  0  0  0
  123.0192  131.6388   57.8373 H   0  0  0  0  0  0  0  0  0  0  0  0
  122.6636  131.9597   60.2807 H   0  0  0  0  0  0  0  0  0  0  0  0
  126.1043  133.7543   63.0360 H   0  0  0  0  0  0  0  0  0  0  0  0
  124.9302  133.3939   64.3162 H   0  0  0  0  0  0  0  0  0  0  0  0
  127.9081  133.1256   64.3391 H   0  0  0  0  0  0  0  0  0  0  0  0
  126.8355  133.2361   65.7174 H   0  0  0  0  0  0  0  0  0  0  0  0
  128.4109  130.8772   66.4177 H   0  0  0  0  0  0  0  0  0  0  0  0
  130.6230  128.3620   69.8440 H   0  0  0  0  0  0  0  0  0  0  0  0
  130.1849  126.2340   72.4962 H   0  0  0  0  0  0  0  0  0  0  0  0
  130.8299  127.8496   71.9526 H   0  0  0  0  0  0  0  0  0  0  0  0
  130.0354  129.7299   72.7474 H   0  0  0  0  0  0  0  0  0  0  0  0
  128.5252  129.5920   71.7753 H   0  0  0  0  0  0  0  0  0  0  0  0
  128.8120  130.0489   74.7866 H   0  0  0  0  0  0  0  0  0  0  0  0
  127.9885  131.0873   73.5349 H   0  0  0  0  0  0  0  0  0  0  0  0
  126.0887  131.0280   75.3393 H   0  0  0  0  0  0  0  0  0  0  0  0
  123.9406  129.8960   75.8729 H   0  0  0  0  0  0  0  0  0  0  0  0
  123.4927  127.6022   74.9991 H   0  0  0  0  0  0  0  0  0  0  0  0
  125.1860  126.4632   73.5783 H   0  0  0  0  0  0  0  0  0  0  0  0
  127.6082  126.3361   72.9346 H   0  0  0  0  0  0  0  0  0  0  0  0
  127.3437  127.6568   71.7058 H   0  0  0  0  0  0  0  0  0  0  0  0
  129.5201  125.1902   64.7711 H   0  0  0  0  0  0  0  0  0  0  0  0
  128.4372  126.4272   64.0471 H   0  0  0  0  0  0  0  0  0  0  0  0
  130.2157  126.6798   64.0471 H   0  0  0  0  0  0  0  0  0  0  0  0
  126.9914  127.4069   64.2690 H   0  0  0  0  0  0  0  0  0  0  0  0
  125.6325  128.8744   62.7910 H   0  0  0  0  0  0  0  0  0  0  0  0
  126.7294  130.6958   61.0375 H   0  0  0  0  0  0  0  0  0  0  0  0
  127.0825  130.3701   58.5936 H   0  0  0  0  0  0  0  0  0  0  0  0
  1  2  1  0
  2  3  2  0
  3  4  1  0
  4  5  2  0
  5  6  1  0
  6  7  2  0
  6  8  1  0
  8  9  1  0
  9 10  1  0
 10 11  1  0
 11 12  2  0
 12 13  1  0
 13 14  1  0
 14 15  1  0
 15 16  2  0
 16 17  1  0
 17 18  1  0
 18 19  2  0
 18 20  1  0
 20 21  1  0
 21 22  1  0
 22 23  1  0
 23 24  1  0
 24 25  2  0
 25 26  1  0
 26 27  2  0
 27 28  1  0
 28 29  2  0
 29 30  1  0
 16 31  1  0
 31 32  1  0
 32 33  1  0
 13 34  2  0
 34 35  1  0
 35 36  2  0
  5 37  1  0
 37 38  2  0
 38  2  1  0
 36  8  1  0
 36 11  1  0
 32 14  2  0
 30 21  1  0
 29 24  1  0
  1 39  1  0
  1 40  1  0
  1 41  1  0
  3 42  1  0
  4 43  1  0
  9 44  1  0
  9 45  1  0
 10 46  1  0
 10 47  1  0
 12 48  1  0
 17 49  1  0
 20 50  1  0
 20 51  1  0
 22 52  1  0
 22 53  1  0
 23 54  1  0
 23 55  1  0
 25 56  1  0
 26 57  1  0
 27 58  1  0
 28 59  1  0
 30 60  1  0
 30 61  1  0
 33 62  1  0
 33 63  1  0
 33 64  1  0
 34 65  1  0
 35 66  1  0
 37 67  1  0
 38 68  1  0
M  END
>  <Binding energies>  (1) 
[-11.16]

>  <Ligand effiencies>  (1) 
[-0.28615384615384615]

>  <Interactions>  (1) 
["V-A:ALA:541:CB:4889, V-A:GLU:543:CD:4905, V-A:TYR:539:CE2:4873, V-B:LEU:475:CD2:9227, V-B:LYS:547:CE:9919, V-B:LYS:471:CE:9188, V-B:VAL:458:CG2:9055, V-B:HIS:456:CG:9034, V-A:LYS:547:CE:4947, H-A:LYS:547:NZ:4948, V-B:HIS:456:CB:9033, V-A:HIS:456:CE1:4066, V-A:GLU:543:CB:4903, V-A:HIS:456:CD2:4064, H-A:GLU:543:O:4900, V-B:HIS:456:C:9029, V-B:HIS:456:CE1:9038, V-B:HIS:456:CD2:9036, V-B:ASP:366:CA:8178, V-B:ASP:366:CB:8180, V-B:TYR:531:CZ:9763, V-B:ILE:369:CG2:8205, V-B:ASP:366:CG:8181, V-A:TYR:539:CZ:4874, V-B:GLU:543:CD:9877, V-B:GLU:543:CG:9876, V-B:LYS:547:CG:9917, V-A:GLU:543:CG:4904, V-B:ILE:369:CD1:8207, H-B:GLY:454:N:9018, V-B:TYR:484:CE1:9313, V-B:TYR:531:CE1:9761, V-B:LYS:547:CD:9918, V-B:TYR:484:CZ:9315, H-A:HIS:456:NE2:4067, V-B:ILE:369:CB:8204, V-B:ASP:366:C:8176, V-B:VAL:457:C:9041, H-A:GLY:544:O:4910"]

$$$$
RR20_Rahimova_2017-again1
     RDKit          3D

 68 73  0  0  0  0  0  0  0  0999 V2000
  133.9030  130.0360   57.6190 C   0  0  0  0  0  0  0  0  0  0  0  0
  132.5690  130.6180   57.1870 C   0  0  0  0  0  0  0  0  0  0  0  0
  132.5130  131.9020   56.6430 C   0  0  0  0  0  0  0  0  0  0  0  0
  131.2910  132.4340   56.2390 C   0  0  0  0  0  0  0  0  0  0  0  0
  130.1140  131.6910   56.3870 C   0  0  0  0  0  0  0  0  0  0  0  0
  128.7980  132.2780   55.9260 C   0  0  0  0  0  0  0  0  0  0  0  0
  128.8110  132.9990   54.9270 O   0  0  0  0  0  0  0  0  0  0  0  0
  127.6560  131.9700   56.6080 N   0  0  0  0  0  0  0  0  0  0  0  0
  126.6130  131.1180   56.0140 C   0  0  0  0  0  0  0  0  0  0  0  0
  125.5830  130.8750   57.1050 C   0  0  0  0  0  0  0  0  0  0  0  0
  126.3100  131.2990   58.3460 C   0  0  0  0  0  0  0  0  0  0  0  0
  125.8930  131.2260   59.6760 C   0  0  0  0  0  0  0  0  0  0  0  0
  126.6460  131.8290   60.6960 C   0  0  0  0  0  0  0  0  0  0  0  0
  126.1940  131.7560   62.1260 C   0  0  0  0  0  0  0  0  0  0  0  0
  127.0280  131.2480   63.0200 N   0  0  0  0  0  0  0  0  0  0  0  0
  126.5490  131.2150   64.2400 C   0  0  0  0  0  0  0  0  0  0  0  0
  127.1250  130.7190   65.3800 N   0  0  0  0  0  0  0  0  0  0  0  0
  127.7990  129.6210   65.4510 C   0  0  0  0  0  0  0  0  0  0  0  0
  128.1550  128.8110   64.5730 O   0  0  0  0  0  0  0  0  0  0  0  0
  128.2520  129.2570   66.8800 C   0  0  0  0  0  0  0  0  0  0  0  0
  129.1300  127.9720   66.8470 N   0  0  2  0  0  0  0  0  0  0  0  0
  128.2880  126.6790   66.8960 C   0  0  0  0  0  0  0  0  0  0  0  0
  127.5650  126.5740   68.2500 C   0  0  0  0  0  0  0  0  0  0  0  0
  128.4860  126.8070   69.4440 C   0  0  0  0  0  0  0  0  0  0  0  0
  128.1090  126.3490   70.7120 C   0  0  0  0  0  0  0  0  0  0  0  0
  128.9020  126.5860   71.8320 C   0  0  0  0  0  0  0  0  0  0  0  0
  130.0930  127.2870   71.6950 C   0  0  0  0  0  0  0  0  0  0  0  0
  130.4880  127.7380   70.4390 C   0  0  0  0  0  0  0  0  0  0  0  0
  129.7090  127.5030   69.3000 C   0  0  0  0  0  0  0  0  0  0  0  0
  130.2280  127.9790   67.9370 C   0  0  0  0  0  0  0  0  0  0  0  0
  124.9390  131.8210   64.3550 S   0  0  0  0  0  0  0  0  0  0  0  0
  124.9530  132.1760   62.6450 C   0  0  0  0  0  0  0  0  0  0  0  0
  123.7630  132.8440   61.9890 C   0  0  0  0  0  0  0  0  0  0  0  0
  127.7970  132.5440   60.3410 C   0  0  0  0  0  0  0  0  0  0  0  0
  128.2060  132.6350   59.0100 C   0  0  0  0  0  0  0  0  0  0  0  0
  127.4900  131.9620   58.0110 C   0  0  0  0  0  0  0  0  0  0  0  0
  130.1820  130.3910   56.9050 C   0  0  0  0  0  0  0  0  0  0  0  0
  131.4040  129.8590   57.3080 C   0  0  0  0  0  0  0  0  0  0  0  0
  133.9547  130.0134   58.7176 H   0  0  0  0  0  0  0  0  0  0  0  0
  134.0013  129.0132   57.2262 H   0  0  0  0  0  0  0  0  0  0  0  0
  134.7196  130.6596   57.2262 H   0  0  0  0  0  0  0  0  0  0  0  0
  133.4338  132.4937   56.5334 H   0  0  0  0  0  0  0  0  0  0  0  0
  131.2506  133.4425   55.8017 H   0  0  0  0  0  0  0  0  0  0  0  0
  126.1471  131.6282   55.1580 H   0  0  0  0  0  0  0  0  0  0  0  0
  127.0342  130.1709   55.6458 H   0  0  0  0  0  0  0  0  0  0  0  0
  124.6831  131.4867   56.9441 H   0  0  0  0  0  0  0  0  0  0  0  0
  125.2246  129.8357   57.1429 H   0  0  0  0  0  0  0  0  0  0  0  0
  124.9654  130.6908   59.9274 H   0  0  0  0  0  0  0  0  0  0  0  0
  128.8377  130.0881   67.2996 H   0  0  0  0  0  0  0  0  0  0  0  0
  127.3655  129.0737   67.5050 H   0  0  0  0  0  0  0  0  0  0  0  0
  129.5950  127.9760   65.9480 H   0  0  0  0  0  0  0  0  0  0  0  0
  127.5439  126.6977   66.0860 H   0  0  0  0  0  0  0  0  0  0  0  0
  128.9517  125.8105   66.7723 H   0  0  0  0  0  0  0  0  0  0  0  0
  126.7618  127.3252   68.2764 H   0  0  0  0  0  0  0  0  0  0  0  0
  127.1754  125.5487   68.3334 H   0  0  0  0  0  0  0  0  0  0  0  0
  127.1679  125.7910   70.8259 H   0  0  0  0  0  0  0  0  0  0  0  0
  128.5866  126.2198   72.8201 H   0  0  0  0  0  0  0  0  0  0  0  0
  130.7217  127.4850   72.5757 H   0  0  0  0  0  0  0  0  0  0  0  0
  131.4334  128.2914   70.3391 H   0  0  0  0  0  0  0  0  0  0  0  0
  130.6113  129.0045   68.0445 H   0  0  0  0  0  0  0  0  0  0  0  0
  131.0175  127.2821   67.6192 H   0  0  0  0  0  0  0  0  0  0  0  0
  123.0830  133.2257   62.7649 H   0  0  0  0  0  0  0  0  0  0  0  0
  124.1104  133.6790   61.3628 H   0  0  0  0  0  0  0  0  0  0  0  0
  123.2311  132.1126   61.3628 H   0  0  0  0  0  0  0  0  0  0  0  0
  128.3879  133.0417   61.1240 H   0  0  0  0  0  0  0  0  0  0  0  0
  129.0895  133.2344   58.7453 H   0  0  0  0  0  0  0  0  0  0  0  0
  129.2662  129.7881   56.9937 H   0  0  0  0  0  0  0  0  0  0  0  0
  131.4512  128.8408   57.7216 H   0  0  0  0  0  0  0  0  0  0  0  0
  1  2  1  0
  2  3  2  0
  3  4  1  0
  4  5  2  0
  5  6  1  0
  6  7  2  0
  6  8  1  0
  8  9  1  0
  9 10  1  0
 10 11  1  0
 11 12  2  0
 12 13  1  0
 13 14  1  0
 14 15  1  0
 15 16  2  0
 16 17  1  0
 17 18  2  0
 18 19  1  0
 18 20  1  0
 20 21  1  0
 21 22  1  0
 22 23  1  0
 23 24  1  0
 24 25  2  0
 25 26  1  0
 26 27  2  0
 27 28  1  0
 28 29  2  0
 29 30  1  0
 16 31  1  0
 31 32  1  0
 32 33  1  0
 13 34  2  0
 34 35  1  0
 35 36  2  0
  5 37  1  0
 37 38  2  0
 38  2  1  0
 36  8  1  0
 36 11  1  0
 32 14  2  0
 30 21  1  0
 29 24  1  0
  1 39  1  0
  1 40  1  0
  1 41  1  0
  3 42  1  0
  4 43  1  0
  9 44  1  0
  9 45  1  0
 10 46  1  0
 10 47  1  0
 12 48  1  0
 20 49  1  0
 20 50  1  0
 21 51  1  6
 22 52  1  0
 22 53  1  0
 23 54  1  0
 23 55  1  0
 25 56  1  0
 26 57  1  0
 27 58  1  0
 28 59  1  0
 30 60  1  0
 30 61  1  0
 33 62  1  0
 33 63  1  0
 33 64  1  0
 34 65  1  0
 35 66  1  0
 37 67  1  0
 38 68  1  0
M  CHG  2  19  -1  21   1
M  END
>  <Binding energies>  (1) 
[-9.9]

>  <Ligand effiencies>  (1) 
[-0.25384615384615383]

>  <Interactions>  (1) 
["V-A:TYR:539:CD2:4871, V-A:PRO:540:CB:4882, H-A:GLU:543:OE1:4906, V-A:PRO:540:CA:4880, V-A:PRO:540:N:4881, H-A:GLU:543:OE2:4907, V-A:LEU:363:CD1:3185, V-A:TYR:539:C:4864, V-A:ASP:366:CB:3208, V-A:LEU:363:CA:3181, V-A:ASP:366:CG:3209, V-A:GLU:543:CD:4905, V-A:TYR:539:CE2:4873, V-B:GLU:543:C:9871, V-B:LYS:547:CE:9919, V-A:GLY:544:C:4909, V-A:HIS:456:CE1:4066, V-A:GLU:543:CB:4903, V-A:HIS:456:CD2:4064, V-B:GLU:543:CB:9875, V-B:HIS:456:CE1:9038, V-B:GLY:544:C:9881, V-A:ILE:538:CD1:4862, V-B:ILE:369:CG2:8205, V-A:ILE:538:CG2:4860, V-A:TYR:539:CZ:4874, V-A:PRO:540:CD:4884, V-B:GLU:543:CD:9877, V-B:GLU:543:CG:9876, V-A:GLU:543:CG:4904, V-B:ILE:369:CD1:8207, H-A:TYR:539:N:4867, H-B:TYR:484:OH:9316, V-B:GLY:454:CA:9017, V-A:LEU:363:CB:3183, V-A:LEU:363:C:3179"]

$$$$
RR21_Rahimova_2017
     RDKit          3D

 62 67  0  0  0  0  0  0  0  0999 V2000
  133.6080  123.8920   61.2890 C   0  0  0  0  0  0  0  0  0  0  0  0
  133.9320  124.3510   62.5980 O   0  0  0  0  0  0  0  0  0  0  0  0
  132.9340  124.8800   63.3950 C   0  0  0  0  0  0  0  0  0  0  0  0
  131.5980  125.0370   62.9880 C   0  0  0  0  0  0  0  0  0  0  0  0
  130.6500  125.5790   63.8550 C   0  0  0  0  0  0  0  0  0  0  0  0
  131.0100  125.9720   65.1500 C   0  0  0  0  0  0  0  0  0  0  0  0
  129.9880  126.5480   66.0820 C   0  0  0  0  0  0  0  0  0  0  0  0
  130.1100  126.3640   67.3820 N   0  0  0  0  0  0  0  0  0  0  0  0
  129.0680  126.9840   67.9580 N   0  0  0  0  0  0  0  0  0  0  0  0
  128.9020  127.0000   69.3670 C   0  0  0  0  0  0  0  0  0  0  0  0
  129.7660  127.7450   70.1830 C   0  0  0  0  0  0  0  0  0  0  0  0
  129.5900  127.7570   71.5650 C   0  0  0  0  0  0  0  0  0  0  0  0
  128.5510  127.0240   72.1340 C   0  0  0  0  0  0  0  0  0  0  0  0
  127.6880  126.2780   71.3350 C   0  0  0  0  0  0  0  0  0  0  0  0
  127.8620  126.2650   69.9540 C   0  0  0  0  0  0  0  0  0  0  0  0
  128.2860  127.5840   67.0020 C   0  0  0  0  0  0  0  0  0  0  0  0
  128.8430  127.3120   65.7610 C   0  0  0  0  0  0  0  0  0  0  0  0
  128.3950  127.7720   64.4560 C   0  0  0  0  0  0  0  0  0  0  0  0
  127.3880  128.6300   64.1700 C   0  0  0  0  0  0  0  0  0  0  0  0
  126.2960  129.4500   65.3080 S   0  0  0  0  0  0  0  0  0  0  0  0
  125.5080  130.2480   63.9540 C   0  0  0  0  0  0  0  0  0  0  0  0
  124.5310  131.1000   63.9930 N   0  0  0  0  0  0  0  0  0  0  0  0
  123.9890  131.6850   62.8160 C   0  0  0  0  0  0  0  0  0  0  0  0
  123.0800  132.5130   62.7680 O   0  0  0  0  0  0  0  0  0  0  0  0
  124.6400  131.2100   61.5450 C   0  0  0  0  0  0  0  0  0  0  0  0
  124.1250  131.7580   60.2080 C   0  0  0  0  0  0  0  0  0  0  0  0
  125.0360  131.4710   59.0170 C   0  0  0  0  0  0  0  0  0  0  0  0
  124.5100  130.9060   57.8530 C   0  0  0  0  0  0  0  0  0  0  0  0
  125.3380  130.6610   56.7610 C   0  0  0  0  0  0  0  0  0  0  0  0
  126.6950  130.9810   56.8300 C   0  0  0  0  0  0  0  0  0  0  0  0
  127.5920  130.7220   55.6320 C   0  0  0  0  0  0  0  0  0  0  0  0
  127.2220  131.5560   57.9890 C   0  0  0  0  0  0  0  0  0  0  0  0
  126.3940  131.8010   59.0800 C   0  0  0  0  0  0  0  0  0  0  0  0
  125.6100  130.3550   61.5220 N   0  0  0  0  0  0  0  0  0  0  0  0
  126.0550  129.8670   62.7570 N   0  0  0  0  0  0  0  0  0  0  0  0
  127.0810  128.9820   62.7900 C   0  0  0  0  0  0  0  0  0  0  0  0
  127.6700  128.5480   61.7930 O   0  0  0  0  0  0  0  0  0  0  0  0
  132.3400  125.8220   65.5530 C   0  0  0  0  0  0  0  0  0  0  0  0
  133.2900  125.2810   64.6870 C   0  0  0  0  0  0  0  0  0  0  0  0
  134.5700  125.1480   65.1080 F   0  0  0  0  0  0  0  0  0  0  0  0
  132.9750  122.9953   61.3611 H   0  0  0  0  0  0  0  0  0  0  0  0
  133.0656  124.6811   60.7475 H   0  0  0  0  0  0  0  0  0  0  0  0
  134.5332  123.6452   60.7475 H   0  0  0  0  0  0  0  0  0  0  0  0
  131.2973  124.7293   61.9756 H   0  0  0  0  0  0  0  0  0  0  0  0
  129.6096  125.6990   63.5186 H   0  0  0  0  0  0  0  0  0  0  0  0
  130.5857  128.3220   69.7301 H   0  0  0  0  0  0  0  0  0  0  0  0
  130.2680  128.3423   72.2036 H   0  0  0  0  0  0  0  0  0  0  0  0
  128.4108  127.0345   73.2250 H   0  0  0  0  0  0  0  0  0  0  0  0
  126.8716  125.7010   71.7938 H   0  0  0  0  0  0  0  0  0  0  0  0
  127.1816  125.6763   69.3212 H   0  0  0  0  0  0  0  0  0  0  0  0
  127.3777  128.1761   67.1876 H   0  0  0  0  0  0  0  0  0  0  0  0
  128.9445  127.3716   63.5913 H   0  0  0  0  0  0  0  0  0  0  0  0
  123.1424  131.3064   60.0065 H   0  0  0  0  0  0  0  0  0  0  0  0
  124.0801  132.8521   60.3130 H   0  0  0  0  0  0  0  0  0  0  0  0
  123.4405  130.6544   57.7991 H   0  0  0  0  0  0  0  0  0  0  0  0
  124.9233  130.2157   55.8446 H   0  0  0  0  0  0  0  0  0  0  0  0
  128.5945  130.4326   55.9803 H   0  0  0  0  0  0  0  0  0  0  0  0
  127.1664  129.9100   55.0240 H   0  0  0  0  0  0  0  0  0  0  0  0
  127.6647  131.6358   55.0240 H   0  0  0  0  0  0  0  0  0  0  0  0
  128.2900  131.8147   58.0390 H   0  0  0  0  0  0  0  0  0  0  0  0
  126.8075  132.2546   59.9928 H   0  0  0  0  0  0  0  0  0  0  0  0
  132.6406  126.1340   66.5641 H   0  0  0  0  0  0  0  0  0  0  0  0
  1  2  1  0
  2  3  1  0
  3  4  2  0
  4  5  1  0
  5  6  2  0
  6  7  1  0
  7  8  2  0
  8  9  1  0
  9 10  1  0
 10 11  2  0
 11 12  1  0
 12 13  2  0
 13 14  1  0
 14 15  2  0
  9 16  1  0
 16 17  2  0
 17 18  1  0
 18 19  2  0
 19 20  1  0
 20 21  1  0
 21 22  2  0
 22 23  1  0
 23 24  2  0
 23 25  1  0
 25 26  1  0
 26 27  1  0
 27 28  2  0
 28 29  1  0
 29 30  2  0
 30 31  1  0
 30 32  1  0
 32 33  2  0
 25 34  2  0
 34 35  1  0
 35 36  1  0
 36 37  2  0
  6 38  1  0
 38 39  2  0
 39 40  1  0
 39  3  1  0
 17  7  1  0
 36 19  1  0
 15 10  1  0
 35 21  1  0
 33 27  1  0
  1 41  1  0
  1 42  1  0
  1 43  1  0
  4 44  1  0
  5 45  1  0
 11 46  1  0
 12 47  1  0
 13 48  1  0
 14 49  1  0
 15 50  1  0
 16 51  1  0
 18 52  1  0
 26 53  1  0
 26 54  1  0
 28 55  1  0
 29 56  1  0
 31 57  1  0
 31 58  1  0
 31 59  1  0
 32 60  1  0
 33 61  1  0
 38 62  1  0
M  END
>  <Binding energies>  (1) 
[-11.02]

>  <Ligand effiencies>  (1) 
[-0.27549999999999997]

>  <Interactions>  (1) 
["V-A:TYR:539:CD2:4871, V-A:ASP:366:CG:3209, V-A:GLU:543:CD:4905, V-A:TYR:539:CE2:4873, V-B:GLU:543:C:9871, V-B:LYS:547:CE:9919, V-A:HIS:456:CE1:4066, V-B:GLY:544:CA:9883, V-B:HIS:456:CE1:9038, V-B:GLY:544:C:9881, V-B:HIS:456:CD2:9036, V-B:ASP:366:CA:8178, V-B:ASP:366:CB:8180, V-B:TYR:531:CZ:9763, V-B:ILE:369:CG2:8205, V-B:ASP:366:CG:8181, V-A:TYR:539:CZ:4874, V-B:GLU:543:CD:9877, V-A:ARG:545:CZ:4923, V-A:ARG:545:CD:4920, V-B:ILE:369:CD1:8207, H-A:GLY:454:N:4046, V-A:GLY:454:CA:4045, V-A:GLY:453:C:4038, V-A:GLY:453:CA:4040, H-B:TYR:484:OH:9316, H-B:GLY:454:N:9018, V-B:GLY:454:CA:9017, V-B:TYR:531:CE1:9761"]

$$$$
RR22_Rahimova_2017
     RDKit          3D

 49 54  0  0  0  0  0  0  0  0999 V2000
  127.0940  136.1600   61.5300 O   0  0  0  0  0  0  0  0  0  0  0  0
  126.8960  134.9580   61.3710 C   0  0  0  0  0  0  0  0  0  0  0  0
  126.6270  134.2960   60.1860 N   0  0  0  0  0  0  0  0  0  0  0  0
  126.4810  132.8730   60.1630 C   0  0  1  0  0  0  0  0  0  0  0  0
  125.1970  132.6370   59.5790 O   0  0  0  0  0  0  0  0  0  0  0  0
  125.1300  131.8860   58.4040 C   0  0  0  0  0  0  0  0  0  0  0  0
  123.9480  131.9830   57.6710 C   0  0  0  0  0  0  0  0  0  0  0  0
  123.7910  131.2310   56.5060 C   0  0  0  0  0  0  0  0  0  0  0  0
  124.8120  130.3790   56.0820 C   0  0  0  0  0  0  0  0  0  0  0  0
  125.9950  130.2820   56.8170 C   0  0  0  0  0  0  0  0  0  0  0  0
  126.1760  131.0490   57.9720 C   0  0  0  0  0  0  0  0  0  0  0  0
  127.3990  130.9840   58.8590 C   0  0  1  0  0  0  0  0  0  0  0  0
  128.7840  130.6960   58.3170 C   0  0  0  0  0  0  0  0  0  0  0  0
  129.6290  131.4770   59.3270 C   0  0  0  0  0  0  0  0  0  0  0  0
  131.0740  131.2390   59.5130 C   0  0  0  0  0  0  0  0  0  0  0  0
  131.8890  130.9120   58.4200 C   0  0  0  0  0  0  0  0  0  0  0  0
  133.2520  130.6890   58.6000 C   0  0  0  0  0  0  0  0  0  0  0  0
  133.8070  130.7920   59.8720 C   0  0  0  0  0  0  0  0  0  0  0  0
  133.0110  131.1170   60.9680 C   0  0  0  0  0  0  0  0  0  0  0  0
  131.6490  131.3410   60.7890 C   0  0  0  0  0  0  0  0  0  0  0  0
  128.9230  132.3500   59.9420 N   0  0  0  0  0  0  0  0  0  0  0  0
  127.6130  132.2760   59.4380 N   0  0  0  0  0  0  0  0  0  0  0  0
  126.4030  132.4200   61.6130 C   0  0  0  0  0  0  0  0  0  0  0  0
  125.9290  131.2070   61.9820 C   0  0  0  0  0  0  0  0  0  0  0  0
  125.8170  130.6370   63.3390 C   0  0  0  0  0  0  0  0  0  0  0  0
  126.9240  130.2080   64.0850 C   0  0  0  0  0  0  0  0  0  0  0  0
  126.7410  129.6780   65.3630 C   0  0  0  0  0  0  0  0  0  0  0  0
  125.4430  129.5840   65.8640 C   0  0  0  0  0  0  0  0  0  0  0  0
  124.3530  129.9830   65.1620 N   0  0  0  0  0  0  0  0  0  0  0  0
  124.5520  130.4970   63.9210 C   0  0  0  0  0  0  0  0  0  0  0  0
  126.9110  133.7190   62.7020 S   0  0  0  0  0  0  0  0  0  0  0  0
  126.4850  134.8090   59.3280 H   0  0  0  0  0  0  0  0  0  0  0  0
  123.1418  132.6502   58.0099 H   0  0  0  0  0  0  0  0  0  0  0  0
  122.8624  131.3097   55.9217 H   0  0  0  0  0  0  0  0  0  0  0  0
  124.6843  129.7826   55.1666 H   0  0  0  0  0  0  0  0  0  0  0  0
  126.7898  129.5977   56.4853 H   0  0  0  0  0  0  0  0  0  0  0  0
  127.1077  130.1212   59.4760 H   0  0  0  0  0  0  0  0  0  0  0  0
  129.0148  129.6207   58.3358 H   0  0  0  0  0  0  0  0  0  0  0  0
  128.9390  130.9780   57.2651 H   0  0  0  0  0  0  0  0  0  0  0  0
  131.4496  130.8311   57.4148 H   0  0  0  0  0  0  0  0  0  0  0  0
  133.8876  130.4323   57.7397 H   0  0  0  0  0  0  0  0  0  0  0  0
  134.8835  130.6153   60.0132 H   0  0  0  0  0  0  0  0  0  0  0  0
  133.4568  131.1963   61.9705 H   0  0  0  0  0  0  0  0  0  0  0  0
  131.0194  131.5996   61.6531 H   0  0  0  0  0  0  0  0  0  0  0  0
  125.5814  130.5608   61.1625 H   0  0  0  0  0  0  0  0  0  0  0  0
  127.9366  130.2892   63.6630 H   0  0  0  0  0  0  0  0  0  0  0  0
  127.6008  129.3422   65.9613 H   0  0  0  0  0  0  0  0  0  0  0  0
  125.2967  129.1684   66.8719 H   0  0  0  0  0  0  0  0  0  0  0  0
  123.6735  130.8201   63.3433 H   0  0  0  0  0  0  0  0  0  0  0  0
  1  2  2  0
  2  3  1  0
  3  4  1  0
  4  5  1  6
  5  6  1  0
  6  7  2  0
  7  8  1  0
  8  9  2  0
  9 10  1  0
 10 11  2  0
 11 12  1  0
 12 13  1  0
 13 14  1  0
 14 15  1  0
 15 16  2  0
 16 17  1  0
 17 18  2  0
 18 19  1  0
 19 20  2  0
 14 21  2  0
 21 22  1  0
  4 23  1  0
 23 24  2  0
 24 25  1  0
 25 26  2  0
 26 27  1  0
 27 28  2  0
 28 29  1  0
 29 30  2  0
 23 31  1  0
 31  2  1  0
 22  4  1  0
 30 25  1  0
 11  6  1  0
 22 12  1  0
 20 15  1  0
  3 32  1  0
  7 33  1  0
  8 34  1  0
  9 35  1  0
 10 36  1  0
 12 37  1  1
 13 38  1  0
 13 39  1  0
 16 40  1  0
 17 41  1  0
 18 42  1  0
 19 43  1  0
 20 44  1  0
 24 45  1  0
 26 46  1  0
 27 47  1  0
 28 48  1  0
 30 49  1  0
M  END
>  <Binding energies>  (1) 
[-8.99]

>  <Ligand effiencies>  (1) 
[-0.2809375]

>  <Interactions>  (1) 
["V-A:TYR:539:CD2:4871, V-A:PRO:540:CB:4882, V-A:ALA:541:CB:4889, V-A:PRO:540:CA:4880, V-A:LEU:363:CA:3181, V-A:ASP:366:CG:3209, V-A:ASN:362:CB:3172, V-A:GLU:543:CD:4905, V-A:ASN:362:C:3168, V-A:TYR:539:CE2:4873, V-B:LEU:475:CD2:9227, V-B:HIS:456:CE1:9038, V-B:TYR:531:CZ:9763, V-B:ILE:369:CG2:8205, V-A:TYR:539:CZ:4874, H-A:TYR:539:O:4865, H-B:TYR:484:OH:9316, H-B:GLY:454:N:9018, V-A:ASN:362:CA:3170, V-B:TYR:531:CE1:9761, V-B:ILE:369:CB:8204, V-B:ASP:366:C:8176, V-B:ASN:370:CB:8213"]

$$$$
RR23_Rahimova_2017
     RDKit          3D

 65 70  0  0  0  0  0  0  0  0999 V2000
  122.6430  125.4990   57.9800 C   0  0  0  0  0  0  0  0  0  0  0  0
  123.9590  124.7720   57.7750 C   0  0  0  0  0  0  0  0  0  0  0  0
  124.5050  124.6620   56.4960 C   0  0  0  0  0  0  0  0  0  0  0  0
  125.7180  124.0030   56.3110 C   0  0  0  0  0  0  0  0  0  0  0  0
  126.3880  123.4390   57.4020 C   0  0  0  0  0  0  0  0  0  0  0  0
  127.7140  122.7450   57.1830 C   0  0  0  0  0  0  0  0  0  0  0  0
  127.7180  121.7250   56.4910 O   0  0  0  0  0  0  0  0  0  0  0  0
  128.8460  123.2720   57.7380 N   0  0  0  0  0  0  0  0  0  0  0  0
  129.5240  124.4360   57.1450 C   0  0  0  0  0  0  0  0  0  0  0  0
  130.6380  124.8180   58.1060 C   0  0  0  0  0  0  0  0  0  0  0  0
  130.2700  124.0760   59.3550 C   0  0  0  0  0  0  0  0  0  0  0  0
  130.8800  124.1090   60.6090 C   0  0  0  0  0  0  0  0  0  0  0  0
  130.4830  123.2150   61.6140 C   0  0  0  0  0  0  0  0  0  0  0  0
  131.1280  123.2180   63.0090 C   0  0  2  0  0  0  0  0  0  0  0  0
  130.6560  124.3140   63.8260 N   0  0  0  0  0  0  0  0  0  0  0  0
  131.5530  124.7270   64.6290 C   0  0  0  0  0  0  0  0  0  0  0  0
  131.4730  125.7510   65.5210 N   0  0  0  0  0  0  0  0  0  0  0  0
  130.4800  126.6610   65.6720 C   0  0  0  0  0  0  0  0  0  0  0  0
  129.4280  126.6870   65.0290 O   0  0  0  0  0  0  0  0  0  0  0  0
  130.7250  127.7380   66.7420 C   0  0  0  0  0  0  0  0  0  0  0  0
  129.9400  127.4060   67.9520 N   0  0  0  0  0  0  0  0  0  0  0  0
  128.7110  126.8020   67.7180 N   0  0  0  0  0  0  0  0  0  0  0  0
  127.9280  126.4630   68.6930 N   0  0  0  0  0  0  0  0  0  0  0  0
  128.3170  126.7050   70.0120 C   0  0  0  0  0  0  0  0  0  0  0  0
  127.4490  126.3290   71.0400 C   0  0  0  0  0  0  0  0  0  0  0  0
  127.8090  126.5580   72.3690 C   0  0  0  0  0  0  0  0  0  0  0  0
  129.0320  127.1600   72.6710 C   0  0  0  0  0  0  0  0  0  0  0  0
  129.9020  127.5370   71.6460 C   0  0  0  0  0  0  0  0  0  0  0  0
  129.5410  127.3060   70.3130 C   0  0  0  0  0  0  0  0  0  0  0  0
  130.4660  127.7090   69.1880 C   0  0  0  0  0  0  0  0  0  0  0  0
  131.5590  128.2570   69.3620 O   0  0  0  0  0  0  0  0  0  0  0  0
  133.1280  123.8830   64.5890 S   0  0  0  0  0  0  0  0  0  0  0  0
  132.6740  123.1740   62.9960 C   0  0  2  0  0  0  0  0  0  0  0  0
  133.3790  123.9660   61.8750 C   0  0  0  0  0  0  0  0  0  0  0  0
  129.5030  122.2600   61.3210 C   0  0  0  0  0  0  0  0  0  0  0  0
  128.9070  122.2120   60.0600 C   0  0  0  0  0  0  0  0  0  0  0  0
  129.2510  123.1600   59.0870 C   0  0  0  0  0  0  0  0  0  0  0  0
  125.8480  123.5770   58.6880 C   0  0  0  0  0  0  0  0  0  0  0  0
  124.6370  124.2370   58.8720 C   0  0  0  0  0  0  0  0  0  0  0  0
  122.4476  125.6069   59.0571 H   0  0  0  0  0  0  0  0  0  0  0  0
  122.6980  126.4947   57.5157 H   0  0  0  0  0  0  0  0  0  0  0  0
  121.8294  124.9224   57.5157 H   0  0  0  0  0  0  0  0  0  0  0  0
  123.9776  125.0957   55.6336 H   0  0  0  0  0  0  0  0  0  0  0  0
  126.1511  123.9257   55.3028 H   0  0  0  0  0  0  0  0  0  0  0  0
  129.9426  124.1729   56.1624 H   0  0  0  0  0  0  0  0  0  0  0  0
  128.8242  125.2709   56.9929 H   0  0  0  0  0  0  0  0  0  0  0  0
  131.6176  124.4924   57.7261 H   0  0  0  0  0  0  0  0  0  0  0  0
  130.7295  125.9038   58.2562 H   0  0  0  0  0  0  0  0  0  0  0  0
  131.6767  124.8401   60.8107 H   0  0  0  0  0  0  0  0  0  0  0  0
  130.7986  122.2728   63.4652 H   0  0  0  0  0  0  0  0  0  0  0  0
  132.2760  125.8810   66.1180 H   0  0  0  0  0  0  0  0  0  0  0  0
  131.7952  127.7697   66.9944 H   0  0  0  0  0  0  0  0  0  0  0  0
  130.4144  128.7204   66.3568 H   0  0  0  0  0  0  0  0  0  0  0  0
  126.4854  125.8542   70.8030 H   0  0  0  0  0  0  0  0  0  0  0  0
  127.1274  126.2634   73.1805 H   0  0  0  0  0  0  0  0  0  0  0  0
  129.3111  127.3379   73.7200 H   0  0  0  0  0  0  0  0  0  0  0  0
  130.8649  128.0125   71.8842 H   0  0  0  0  0  0  0  0  0  0  0  0
  132.9959  122.1384   62.8121 H   0  0  0  0  0  0  0  0  0  0  0  0
  134.0475  124.7170   62.3213 H   0  0  0  0  0  0  0  0  0  0  0  0
  133.9669  123.2756   61.2523 H   0  0  0  0  0  0  0  0  0  0  0  0
  132.6252  124.4700   61.2523 H   0  0  0  0  0  0  0  0  0  0  0  0
  129.1988  121.5386   62.0937 H   0  0  0  0  0  0  0  0  0  0  0  0
  128.1677  121.4306   59.8300 H   0  0  0  0  0  0  0  0  0  0  0  0
  126.3834  123.1621   59.5547 H   0  0  0  0  0  0  0  0  0  0  0  0
  124.2136  124.3373   59.8823 H   0  0  0  0  0  0  0  0  0  0  0  0
  1  2  1  0
  2  3  2  0
  3  4  1  0
  4  5  2  0
  5  6  1  0
  6  7  2  0
  6  8  1  0
  8  9  1  0
  9 10  1  0
 10 11  1  0
 11 12  2  0
 12 13  1  0
 13 14  1  0
 14 15  1  0
 15 16  2  0
 16 17  1  0
 17 18  1  0
 18 19  2  0
 18 20  1  0
 20 21  1  0
 21 22  1  0
 22 23  2  0
 23 24  1  0
 24 25  2  0
 25 26  1  0
 26 27  2  0
 27 28  1  0
 28 29  2  0
 29 30  1  0
 30 31  2  0
 16 32  1  0
 32 33  1  0
 33 34  1  0
 13 35  2  0
 35 36  1  0
 36 37  2  0
  5 38  1  0
 38 39  2  0
 39  2  1  0
 37  8  1  0
 37 11  1  0
 33 14  1  0
 30 21  1  0
 29 24  1  0
  1 40  1  0
  1 41  1  0
  1 42  1  0
  3 43  1  0
  4 44  1  0
  9 45  1  0
  9 46  1  0
 10 47  1  0
 10 48  1  0
 12 49  1  0
 14 50  1  1
 17 51  1  0
 20 52  1  0
 20 53  1  0
 25 54  1  0
 26 55  1  0
 27 56  1  0
 28 57  1  0
 33 58  1  1
 34 59  1  0
 34 60  1  0
 34 61  1  0
 35 62  1  0
 36 63  1  0
 38 64  1  0
 39 65  1  0
M  END
>  <Binding energies>  (1) 
[-11.09]

>  <Ligand effiencies>  (1) 
[-0.27725]

>  <Interactions>  (1) 
["H-A:GLU:543:OE1:4906, V-A:ASP:366:CG:3209, V-A:GLU:543:CD:4905, V-B:LYS:547:CE:9919, V-A:HIS:456:CE1:4066, V-B:GLY:544:CA:9883, V-A:GLU:543:C:4899, V-A:GLU:543:CB:4903, V-B:HIS:456:CE1:9038, V-B:GLY:544:C:9881, V-B:HIS:456:CD2:9036, V-B:ASP:366:CB:8180, V-B:TYR:539:CE1:9844, V-B:MET:535:CE:9804, V-B:PRO:540:CA:9852, V-B:TYR:539:CZ:9846, V-B:TYR:531:CE2:9762, V-B:ASN:362:C:8140, V-B:TYR:531:CZ:9763, V-B:PRO:540:CB:9854, V-B:ASP:366:CG:8181, H-B:TYR:539:N:9839, V-B:LEU:363:CD1:8157, V-B:LEU:363:CA:8153, V-B:ALA:541:CB:9861, V-B:TYR:539:CE2:9845, V-A:GLU:543:CG:4904, V-A:LEU:475:CD1:4254, V-B:TYR:539:CD2:9843, V-B:TYR:539:CD1:9842, V-B:LEU:363:CB:8155, H-A:GLY:454:N:4046, V-A:GLY:454:CA:4045, H-A:TYR:484:OH:4344, V-B:LEU:363:CG:8156, V-B:LEU:363:C:8151, H-A:ARG:545:N:4917"]

$$$$
RR24_Rahimova_2017
     RDKit          3D

 65 71  0  0  0  0  0  0  0  0999 V2000
  128.0740  133.8570   60.8240 C   0  0  0  0  0  0  0  0  0  0  0  0
  127.9320  132.5870   59.9720 C   0  0  2  0  0  0  0  0  0  0  0  0
  127.1750  131.4390   60.7020 C   0  0  0  0  0  0  0  0  0  0  0  0
  125.9890  131.1840   60.4700 O   0  0  0  0  0  0  0  0  0  0  0  0
  127.9580  130.7960   61.6170 O   0  0  0  0  0  0  0  0  0  0  0  0
  128.1780  129.4430   61.4920 C   0  0  0  0  0  0  0  0  0  0  0  0
  127.2400  128.5470   62.0100 C   0  0  0  0  0  0  0  0  0  0  0  0
  127.4470  127.1760   61.8810 C   0  0  0  0  0  0  0  0  0  0  0  0
  128.5860  126.6960   61.2280 C   0  0  0  0  0  0  0  0  0  0  0  0
  128.8180  125.1850   61.1070 C   0  0  1  0  0  0  0  0  0  0  0  0
  128.1060  124.5890   59.8700 C   0  0  0  0  0  0  0  0  0  0  0  0
  128.7360  123.8120   58.9710 C   0  0  0  0  0  0  0  0  0  0  0  0
  130.0670  123.4910   59.0850 N   0  0  0  0  0  0  0  0  0  0  0  0
  130.8250  123.9540   60.1340 C   0  0  0  0  0  0  0  0  0  0  0  0
  132.1180  123.5390   60.1060 N   0  0  0  0  0  0  0  0  0  0  0  0
  133.0370  123.9600   61.0180 C   0  0  0  0  0  0  0  0  0  0  0  0
  134.2370  123.8190   60.7720 O   0  0  0  0  0  0  0  0  0  0  0  0
  132.4970  124.6690   62.0790 N   0  0  0  0  0  0  0  0  0  0  0  0
  133.4400  125.0710   63.1440 C   0  0  0  0  0  0  0  0  0  0  0  0
  131.2030  125.1420   62.2080 C   0  0  0  0  0  0  0  0  0  0  0  0
  130.8030  125.8160   63.1620 O   0  0  0  0  0  0  0  0  0  0  0  0
  130.3140  124.7530   61.1080 C   0  0  0  0  0  0  0  0  0  0  0  0
  127.8260  123.3960   57.9170 C   0  0  0  0  0  0  0  0  0  0  0  0
  127.9860  122.6080   56.7770 C   0  0  0  0  0  0  0  0  0  0  0  0
  126.8890  122.3880   55.9400 C   0  0  0  0  0  0  0  0  0  0  0  0
  125.6470  122.9510   56.2450 C   0  0  0  0  0  0  0  0  0  0  0  0
  125.4920  123.7390   57.3890 C   0  0  0  0  0  0  0  0  0  0  0  0
  126.5920  123.9570   58.2200 C   0  0  0  0  0  0  0  0  0  0  0  0
  126.7090  124.7330   59.4730 C   0  0  0  0  0  0  0  0  0  0  0  0
  125.8550  125.3730   60.0850 O   0  0  0  0  0  0  0  0  0  0  0  0
  129.5140  127.5970   60.6950 C   0  0  0  0  0  0  0  0  0  0  0  0
  129.3070  128.9670   60.8220 C   0  0  0  0  0  0  0  0  0  0  0  0
  129.2410  132.1390   59.4120 N   0  0  0  0  0  0  0  0  0  0  0  0
  129.4220  131.9680   58.0720 C   0  0  0  0  0  0  0  0  0  0  0  0
  128.5910  132.1360   57.1770 O   0  0  0  0  0  0  0  0  0  0  0  0
  130.8330  131.5360   57.9160 C   0  0  0  0  0  0  0  0  0  0  0  0
  131.5690  131.2150   56.7740 C   0  0  0  0  0  0  0  0  0  0  0  0
  132.9080  130.8350   56.9260 C   0  0  0  0  0  0  0  0  0  0  0  0
  133.4860  130.7820   58.2010 C   0  0  0  0  0  0  0  0  0  0  0  0
  132.7320  131.1080   59.3330 C   0  0  0  0  0  0  0  0  0  0  0  0
  131.3990  131.4830   59.1610 C   0  0  0  0  0  0  0  0  0  0  0  0
  130.3650  131.8810   60.1480 C   0  0  0  0  0  0  0  0  0  0  0  0
  130.4940  131.9650   61.3700 O   0  0  0  0  0  0  0  0  0  0  0  0
  128.0440  133.5884   61.8903 H   0  0  0  0  0  0  0  0  0  0  0  0
  129.0324  134.3463   60.5960 H   0  0  0  0  0  0  0  0  0  0  0  0
  127.2473  134.5459   60.5960 H   0  0  0  0  0  0  0  0  0  0  0  0
  127.2959  132.8643   59.1185 H   0  0  0  0  0  0  0  0  0  0  0  0
  126.3401  128.9234   62.5185 H   0  0  0  0  0  0  0  0  0  0  0  0
  126.7124  126.4690   62.2940 H   0  0  0  0  0  0  0  0  0  0  0  0
  128.3730  124.7738   62.0251 H   0  0  0  0  0  0  0  0  0  0  0  0
  130.5000  122.9010   58.3880 H   0  0  0  0  0  0  0  0  0  0  0  0
  132.4470  122.9180   59.3820 H   0  0  0  0  0  0  0  0  0  0  0  0
  132.9866  124.8777   64.1274 H   0  0  0  0  0  0  0  0  0  0  0  0
  134.3698  124.4910   63.0486 H   0  0  0  0  0  0  0  0  0  0  0  0
  133.6654  126.1434   63.0486 H   0  0  0  0  0  0  0  0  0  0  0  0
  128.9645  122.1650   56.5398 H   0  0  0  0  0  0  0  0  0  0  0  0
  127.0035  121.7694   55.0377 H   0  0  0  0  0  0  0  0  0  0  0  0
  124.7875  122.7733   55.5819 H   0  0  0  0  0  0  0  0  0  0  0  0
  124.5148  124.1820   57.6315 H   0  0  0  0  0  0  0  0  0  0  0  0
  130.4080  127.2221   60.1751 H   0  0  0  0  0  0  0  0  0  0  0  0
  130.0324  129.6750   60.3948 H   0  0  0  0  0  0  0  0  0  0  0  0
  131.1071  131.2596   55.7767 H   0  0  0  0  0  0  0  0  0  0  0  0
  133.5083  130.5771   56.0410 H   0  0  0  0  0  0  0  0  0  0  0  0
  134.5385  130.4824   58.3125 H   0  0  0  0  0  0  0  0  0  0  0  0
  133.1800  131.0696   60.3369 H   0  0  0  0  0  0  0  0  0  0  0  0
  1  2  1  0
  2  3  1  0
  3  4  2  0
  3  5  1  0
  5  6  1  0
  6  7  2  0
  7  8  1  0
  8  9  2  0
  9 10  1  0
 10 11  1  0
 11 12  2  0
 12 13  1  0
 13 14  1  0
 14 15  1  0
 15 16  1  0
 16 17  2  0
 16 18  1  0
 18 19  1  0
 18 20  1  0
 20 21  2  0
 20 22  1  0
 12 23  1  0
 23 24  2  0
 24 25  1  0
 25 26  2  0
 26 27  1  0
 27 28  2  0
 28 29  1  0
 29 30  2  0
  9 31  1  0
 31 32  2  0
  2 33  1  0
 33 34  1  0
 34 35  2  0
 34 36  1  0
 36 37  2  0
 37 38  1  0
 38 39  2  0
 39 40  1  0
 40 41  2  0
 41 42  1  0
 42 43  2  0
 32  6  1  0
 42 33  1  0
 22 10  1  0
 28 23  1  0
 41 36  1  0
 29 11  1  0
 22 14  2  0
  1 44  1  0
  1 45  1  0
  1 46  1  0
  2 47  1  6
  7 48  1  0
  8 49  1  0
 10 50  1  1
 13 51  1  0
 15 52  1  0
 19 53  1  0
 19 54  1  0
 19 55  1  0
 24 56  1  0
 25 57  1  0
 26 58  1  0
 27 59  1  0
 31 60  1  0
 32 61  1  0
 37 62  1  0
 38 63  1  0
 39 64  1  0
 40 65  1  0
M  END
>  <Binding energies>  (1) 
[-10.67]

>  <Ligand effiencies>  (1) 
[-0.2371111111111111]

>  <Interactions>  (1) 
["V-A:PRO:540:CB:4882, V-A:ALA:541:CB:4889, V-A:PRO:540:CA:4880, V-A:PRO:540:N:4881, V-A:LEU:363:CD1:3185, V-A:TYR:539:C:4864, V-A:LEU:363:CA:3181, V-A:ASP:366:CG:3209, V-A:ASN:362:C:3168, H-A:ALA:541:N:4888, V-B:TYR:539:CE1:9844, V-B:TYR:539:CZ:9846, V-A:TYR:531:CZ:4791, V-B:PRO:540:N:9853, V-B:PRO:540:CB:9854, V-B:LEU:363:CD1:8157, H-B:TYR:539:OH:9847, V-B:GLU:543:CD:9877, V-A:ARG:545:CZ:4923, V-B:TYR:539:CE2:9845, V-B:ILE:538:CG2:9832, V-B:ILE:538:CB:9831, V-B:PRO:540:CD:9856, V-B:ILE:538:CA:9829, V-B:TYR:539:CD1:9842, V-A:PRO:540:C:4878, V-A:LEU:363:CB:3183"]

$$$$
RR24_Rahimova_2017-again1
     RDKit          3D

 63 69  0  0  0  0  0  0  0  0999 V2000
  128.6480  121.4160   60.2540 C   0  0  0  0  0  0  0  0  0  0  0  0
  128.5930  122.3920   59.0710 C   0  0  2  0  0  0  0  0  0  0  0  0
  129.7860  123.3910   59.0400 C   0  0  0  0  0  0  0  0  0  0  0  0
  130.4730  123.6230   60.0420 O   0  0  0  0  0  0  0  0  0  0  0  0
  129.9520  123.9760   57.8170 O   0  0  0  0  0  0  0  0  0  0  0  0
  129.8820  125.3450   57.7020 C   0  0  0  0  0  0  0  0  0  0  0  0
  129.4460  126.1050   58.7890 C   0  0  0  0  0  0  0  0  0  0  0  0
  129.3900  127.4920   58.6880 C   0  0  0  0  0  0  0  0  0  0  0  0
  129.7770  128.1270   57.5030 C   0  0  0  0  0  0  0  0  0  0  0  0
  129.7180  129.6570   57.3870 C   0  0  1  0  0  0  0  0  0  0  0  0
  128.2570  130.1590   57.3200 C   0  0  0  0  0  0  0  0  0  0  0  0
  127.2720  129.9740   56.4130 C   0  0  0  0  0  0  0  0  0  0  0  0
  127.3960  129.3090   55.3150 O   0  0  0  0  0  0  0  0  0  0  0  0
  126.0370  130.6120   56.8670 C   0  0  0  0  0  0  0  0  0  0  0  0
  124.7560  130.6960   56.3070 C   0  0  0  0  0  0  0  0  0  0  0  0
  123.7500  131.3810   56.9890 C   0  0  0  0  0  0  0  0  0  0  0  0
  124.0210  131.9800   58.2210 C   0  0  0  0  0  0  0  0  0  0  0  0
  125.3000  131.8950   58.7740 C   0  0  0  0  0  0  0  0  0  0  0  0
  126.3050  131.2050   58.0920 C   0  0  0  0  0  0  0  0  0  0  0  0
  127.7050  130.9650   58.3970 C   0  0  0  0  0  0  0  0  0  0  0  0
  128.4090  131.3570   59.3920 N   0  0  0  0  0  0  0  0  0  0  0  0
  129.7530  131.1340   59.4490 C   0  0  0  0  0  0  0  0  0  0  0  0
  130.3550  131.7640   60.4990 N   0  0  0  0  0  0  0  0  0  0  0  0
  131.6200  131.6220   60.6780 C   0  0  0  0  0  0  0  0  0  0  0  0
  132.0590  132.2350   61.6650 O   0  0  0  0  0  0  0  0  0  0  0  0
  132.4110  130.8490   59.8280 N   0  0  0  0  0  0  0  0  0  0  0  0
  133.8710  130.6650   60.0090 C   0  0  0  0  0  0  0  0  0  0  0  0
  131.8910  130.1910   58.7310 C   0  0  0  0  0  0  0  0  0  0  0  0
  132.5600  129.5170   57.9400 O   0  0  0  0  0  0  0  0  0  0  0  0
  130.4450  130.3590   58.5570 C   0  0  0  0  0  0  0  0  0  0  0  0
  130.2250  127.3630   56.4210 C   0  0  0  0  0  0  0  0  0  0  0  0
  130.2830  125.9760   56.5220 C   0  0  0  0  0  0  0  0  0  0  0  0
  127.2730  123.0830   58.9760 N   0  0  0  0  0  0  0  0  0  0  0  0
  126.7900  123.5370   57.7850 C   0  0  0  0  0  0  0  0  0  0  0  0
  127.3290  123.4590   56.6800 O   0  0  0  0  0  0  0  0  0  0  0  0
  125.4750  124.1480   58.1010 C   0  0  0  0  0  0  0  0  0  0  0  0
  124.5370  124.7740   57.2780 C   0  0  0  0  0  0  0  0  0  0  0  0
  123.3630  125.2670   57.8570 C   0  0  0  0  0  0  0  0  0  0  0  0
  123.1410  125.1290   59.2330 C   0  0  0  0  0  0  0  0  0  0  0  0
  124.0930  124.4980   60.0410 C   0  0  0  0  0  0  0  0  0  0  0  0
  125.2590  124.0150   59.4450 C   0  0  0  0  0  0  0  0  0  0  0  0
  126.4290  123.3110   60.0280 C   0  0  0  0  0  0  0  0  0  0  0  0
  126.6000  122.9980   61.2060 O   0  0  0  0  0  0  0  0  0  0  0  0
  128.6162  121.9810   61.1973 H   0  0  0  0  0  0  0  0  0  0  0  0
  127.7869  120.7332   60.2063 H   0  0  0  0  0  0  0  0  0  0  0  0
  129.5804  120.8342   60.2063 H   0  0  0  0  0  0  0  0  0  0  0  0
  128.7006  121.7752   58.1666 H   0  0  0  0  0  0  0  0  0  0  0  0
  129.1472  125.6083   59.7239 H   0  0  0  0  0  0  0  0  0  0  0  0
  129.0405  128.0905   59.5422 H   0  0  0  0  0  0  0  0  0  0  0  0
  130.2353  129.9152   56.4512 H   0  0  0  0  0  0  0  0  0  0  0  0
  124.5445  130.2249   55.3357 H   0  0  0  0  0  0  0  0  0  0  0  0
  122.7414  131.4494   56.5554 H   0  0  0  0  0  0  0  0  0  0  0  0
  123.2258  132.5194   58.7563 H   0  0  0  0  0  0  0  0  0  0  0  0
  125.5155  132.3694   59.7428 H   0  0  0  0  0  0  0  0  0  0  0  0
  134.1064  130.6353   61.0831 H   0  0  0  0  0  0  0  0  0  0  0  0
  134.1826  129.7205   59.5391 H   0  0  0  0  0  0  0  0  0  0  0  0
  134.4072  131.5027   59.5391 H   0  0  0  0  0  0  0  0  0  0  0  0
  130.5321  127.8589   55.4884 H   0  0  0  0  0  0  0  0  0  0  0  0
  130.6444  125.3771   55.6731 H   0  0  0  0  0  0  0  0  0  0  0  0
  124.7172  124.8773   56.1978 H   0  0  0  0  0  0  0  0  0  0  0  0
  122.6104  125.7656   57.2285 H   0  0  0  0  0  0  0  0  0  0  0  0
  122.2144  125.5183   59.6802 H   0  0  0  0  0  0  0  0  0  0  0  0
  123.9262  124.3850   61.1224 H   0  0  0  0  0  0  0  0  0  0  0  0
  1  2  1  0
  2  3  1  0
  3  4  2  0
  3  5  1  0
  5  6  1  0
  6  7  2  0
  7  8  1  0
  8  9  2  0
  9 10  1  0
 10 11  1  0
 11 12  2  0
 12 13  1  0
 12 14  1  0
 14 15  2  0
 15 16  1  0
 16 17  2  0
 17 18  1  0
 18 19  2  0
 19 20  1  0
 20 21  2  0
 21 22  1  0
 22 23  1  0
 23 24  2  0
 24 25  1  0
 24 26  1  0
 26 27  1  0
 26 28  1  0
 28 29  2  0
 28 30  1  0
  9 31  1  0
 31 32  2  0
  2 33  1  0
 33 34  1  0
 34 35  2  0
 34 36  1  0
 36 37  2  0
 37 38  1  0
 38 39  2  0
 39 40  1  0
 40 41  2  0
 41 42  1  0
 42 43  2  0
 32  6  1  0
 42 33  1  0
 30 10  1  0
 41 36  1  0
 20 11  1  0
 30 22  2  0
 19 14  1  0
  1 44  1  0
  1 45  1  0
  1 46  1  0
  2 47  1  6
  7 48  1  0
  8 49  1  0
 10 50  1  6
 15 51  1  0
 16 52  1  0
 17 53  1  0
 18 54  1  0
 27 55  1  0
 27 56  1  0
 27 57  1  0
 31 58  1  0
 32 59  1  0
 37 60  1  0
 38 61  1  0
 39 62  1  0
 40 63  1  0
M  CHG  2  13  -1  25  -1
M  END
>  <Binding energies>  (1) 
[-8.65]

>  <Ligand effiencies>  (1) 
[-0.20116279069767443]

>  <Interactions>  (1) 
["V-A:TYR:539:CD2:4871, V-A:PRO:540:CB:4882, V-A:PRO:540:CA:4880, V-A:LEU:363:CA:3181, V-A:ASP:366:CG:3209, V-A:ASN:362:CB:3172, V-A:ASN:362:C:3168, V-A:TYR:539:CE2:4873, H-A:ALA:541:N:4888, V-B:ASP:366:CA:8178, V-B:ASP:366:CB:8180, H-A:TYR:531:OH:4792, V-B:TYR:539:CE1:9844, V-B:MET:535:CE:9804, V-B:PRO:540:CA:9852, V-B:TYR:539:CZ:9846, V-B:TYR:531:CE2:9762, V-B:ASN:362:C:8140, V-B:TYR:531:CZ:9763, V-B:ILE:369:CG2:8205, V-B:PRO:540:C:9850, V-B:PRO:540:CB:9854, V-B:ASP:366:CG:8181, V-B:LEU:363:CD1:8157, V-B:LEU:363:CA:8153, H-B:TYR:531:OH:9764, V-B:ALA:541:CB:9861, V-A:TYR:539:CZ:4874, H-B:TYR:539:OH:9847, V-B:TYR:539:CE2:9845, H-B:ALA:541:N:9860, V-B:TYR:539:C:9836, V-B:TYR:539:CD2:9843, V-B:LEU:363:CB:8155, V-A:PRO:540:C:4878, V-A:ASN:362:CA:3170, V-B:TYR:531:CE1:9761, V-B:ILE:369:CB:8204, V-B:ASP:366:C:8176"]

$$$$
RR25_Rahimova_2017
     RDKit          3D

 63 68  0  0  0  0  0  0  0  0999 V2000
  131.6030  127.6360   67.4120 O   0  0  0  0  0  0  0  0  0  0  0  0
  130.6270  127.7040   66.6630 C   0  0  0  0  0  0  0  0  0  0  0  0
  129.5780  128.4730   67.1020 O   0  0  0  0  0  0  0  0  0  0  0  0
  128.5410  128.8300   66.2590 C   0  0  0  0  0  0  0  0  0  0  0  0
  127.8520  130.0000   66.5730 C   0  0  0  0  0  0  0  0  0  0  0  0
  126.7910  130.4140   65.7700 C   0  0  0  0  0  0  0  0  0  0  0  0
  126.4030  129.6660   64.6490 C   0  0  0  0  0  0  0  0  0  0  0  0
  125.2780  130.1140   63.7910 N   0  0  0  0  0  0  0  0  0  0  0  0
  125.4850  130.2870   62.5930 O   0  0  0  0  0  0  0  0  0  0  0  0
  124.1800  130.2950   64.3100 O   0  0  0  0  0  0  0  0  0  0  0  0
  127.1030  128.4840   64.3570 C   0  0  0  0  0  0  0  0  0  0  0  0
  128.1640  128.0500   65.1560 C   0  0  0  0  0  0  0  0  0  0  0  0
  128.9580  126.7870   64.8770 C   0  0  0  0  0  0  0  0  0  0  0  0
  130.4420  127.0000   65.2870 C   0  0  2  0  0  0  0  0  0  0  0  0
  131.2670  125.6930   65.1070 C   0  0  0  0  0  0  0  0  0  0  0  0
  131.7920  125.2370   66.1270 O   0  0  0  0  0  0  0  0  0  0  0  0
  131.3070  125.0150   63.9200 N   0  0  0  0  0  0  0  0  0  0  0  0
  130.9770  125.6470   62.6250 C   0  0  0  0  0  0  0  0  0  0  0  0
  130.2430  124.6200   61.7380 C   0  0  0  0  0  0  0  0  0  0  0  0
  131.0240  123.3890   61.5860 N   0  0  0  0  0  0  0  0  0  0  0  0
  130.3920  122.4640   60.6370 C   0  0  0  0  0  0  0  0  0  0  0  0
  128.9620  122.0420   61.0680 C   0  0  0  0  0  0  0  0  0  0  0  0
  127.8470  122.5160   60.1960 N   0  0  0  0  0  0  0  0  0  0  0  0
  126.7900  123.1020   60.8590 C   0  0  0  0  0  0  0  0  0  0  0  0
  126.7350  123.2030   62.0900 O   0  0  0  0  0  0  0  0  0  0  0  0
  125.6960  123.6360   59.9540 C   0  0  0  0  0  0  0  0  0  0  0  0
  124.5850  124.2750   60.5210 C   0  0  0  0  0  0  0  0  0  0  0  0
  123.5660  124.7850   59.7200 C   0  0  0  0  0  0  0  0  0  0  0  0
  123.6240  124.6780   58.3310 C   0  0  0  0  0  0  0  0  0  0  0  0
  124.7270  124.0400   57.7140 C   0  0  0  0  0  0  0  0  0  0  0  0
  124.8500  123.8970   56.3110 C   0  0  0  0  0  0  0  0  0  0  0  0
  125.9650  123.2610   55.7680 C   0  0  0  0  0  0  0  0  0  0  0  0
  126.9710  122.7560   56.5880 C   0  0  0  0  0  0  0  0  0  0  0  0
  126.8920  122.8740   57.9820 C   0  0  0  0  0  0  0  0  0  0  0  0
  125.7610  123.5210   58.5420 C   0  0  0  0  0  0  0  0  0  0  0  0
  128.0120  122.3180   58.8410 C   0  0  0  0  0  0  0  0  0  0  0  0
  128.9940  121.7520   58.3500 O   0  0  0  0  0  0  0  0  0  0  0  0
  131.2280  122.7660   62.8950 C   0  0  0  0  0  0  0  0  0  0  0  0
  131.9900  123.7020   63.8630 C   0  0  0  0  0  0  0  0  0  0  0  0
  128.1445  130.5943   67.4512 H   0  0  0  0  0  0  0  0  0  0  0  0
  126.2509  131.3394   66.0186 H   0  0  0  0  0  0  0  0  0  0  0  0
  126.8098  127.8872   63.4807 H   0  0  0  0  0  0  0  0  0  0  0  0
  128.5346  125.9534   65.4565 H   0  0  0  0  0  0  0  0  0  0  0  0
  128.9065  126.5540   63.8032 H   0  0  0  0  0  0  0  0  0  0  0  0
  130.8680  127.7311   64.5841 H   0  0  0  0  0  0  0  0  0  0  0  0
  130.3278  126.5186   62.7947 H   0  0  0  0  0  0  0  0  0  0  0  0
  131.9003  125.9766   62.1261 H   0  0  0  0  0  0  0  0  0  0  0  0
  129.2753  124.3750   62.2001 H   0  0  0  0  0  0  0  0  0  0  0  0
  130.0990  125.0636   60.7418 H   0  0  0  0  0  0  0  0  0  0  0  0
  130.3321  122.9553   59.6547 H   0  0  0  0  0  0  0  0  0  0  0  0
  131.0088  121.5539   60.6019 H   0  0  0  0  0  0  0  0  0  0  0  0
  128.9280  120.9427   61.0894 H   0  0  0  0  0  0  0  0  0  0  0  0
  128.7954  122.5177   62.0457 H   0  0  0  0  0  0  0  0  0  0  0  0
  124.5168  124.3752   61.6143 H   0  0  0  0  0  0  0  0  0  0  0  0
  122.7030  125.2793   60.1900 H   0  0  0  0  0  0  0  0  0  0  0  0
  122.8118  125.0898   57.7139 H   0  0  0  0  0  0  0  0  0  0  0  0
  124.0642  124.2885   55.6482 H   0  0  0  0  0  0  0  0  0  0  0  0
  126.0516  123.1565   54.6764 H   0  0  0  0  0  0  0  0  0  0  0  0
  127.8403  122.2572   56.1347 H   0  0  0  0  0  0  0  0  0  0  0  0
  130.2475  122.5242   63.3312 H   0  0  0  0  0  0  0  0  0  0  0  0
  131.8312  121.8574   62.7515 H   0  0  0  0  0  0  0  0  0  0  0  0
  132.0083  123.2543   64.8676 H   0  0  0  0  0  0  0  0  0  0  0  0
  133.0207  123.8400   63.5043 H   0  0  0  0  0  0  0  0  0  0  0  0
  1  2  2  0
  2  3  1  0
  3  4  1  0
  4  5  2  0
  5  6  1  0
  6  7  2  0
  7  8  1  0
  8  9  2  0
  8 10  1  0
  7 11  1  0
 11 12  2  0
 12 13  1  0
 13 14  1  0
 14 15  1  0
 15 16  2  0
 15 17  1  0
 17 18  1  0
 18 19  1  0
 19 20  1  0
 20 21  1  0
 21 22  1  0
 22 23  1  0
 23 24  1  0
 24 25  2  0
 24 26  1  0
 26 27  2  0
 27 28  1  0
 28 29  2  0
 29 30  1  0
 30 31  2  0
 31 32  1  0
 32 33  2  0
 33 34  1  0
 34 35  2  0
 34 36  1  0
 36 37  2  0
 20 38  1  0
 38 39  1  0
 14  2  1  0
 39 17  1  0
 12  4  1  0
 36 23  1  0
 35 26  1  0
 35 30  1  0
  5 40  1  0
  6 41  1  0
 11 42  1  0
 13 43  1  0
 13 44  1  0
 14 45  1  6
 18 46  1  0
 18 47  1  0
 19 48  1  0
 19 49  1  0
 21 50  1  0
 21 51  1  0
 22 52  1  0
 22 53  1  0
 27 54  1  0
 28 55  1  0
 29 56  1  0
 31 57  1  0
 32 58  1  0
 33 59  1  0
 38 60  1  0
 38 61  1  0
 39 62  1  0
 39 63  1  0
M  CHG  2   8   1  10  -1
M  END
>  <Binding energies>  (1) 
[-10.47]

>  <Ligand effiencies>  (1) 
[-0.2684615384615385]

>  <Interactions>  (1) 
["V-A:GLU:543:CD:4905, V-A:HIS:456:CE1:4066, V-A:GLU:543:CB:4903, V-B:HIS:456:CE1:9038, V-B:ASP:366:CB:8180, V-B:MET:535:CE:9804, V-B:PRO:540:CA:9852, V-B:TYR:539:CZ:9846, V-B:TYR:531:CE2:9762, V-B:ASN:362:C:8140, V-B:PRO:540:N:9853, V-B:PRO:540:C:9850, V-B:PRO:540:CB:9854, V-B:ASP:366:CG:8181, V-B:LEU:363:CD1:8157, V-B:LEU:363:CA:8153, V-B:ALA:541:CB:9861, H-B:TYR:539:OH:9847, V-B:GLU:543:CD:9877, V-B:GLU:543:CG:9876, V-B:TYR:539:CE2:9845, V-A:GLU:543:CG:4904, H-B:ALA:541:N:9860, V-B:ILE:538:CG2:9832, V-B:ILE:538:CB:9831, V-A:LEU:475:CD1:4254, V-B:TYR:539:C:9836, V-B:TYR:539:CD2:9843, V-B:LEU:363:CB:8155, H-A:TYR:484:OH:4344, H-B:TYR:484:OH:9316, H-B:GLY:454:N:9018, V-B:TYR:484:CE1:9313, V-B:TYR:484:CZ:9315"]

$$$$
RR26_Rahimova_2017
     RDKit          3D

 59 65  0  0  0  0  0  0  0  0999 V2000
  127.5580  133.8110   60.7420 C   0  0  0  0  0  0  0  0  0  0  0  0
  126.1020  134.0040   61.1450 C   0  0  0  0  0  0  0  0  0  0  0  0
  125.3940  135.0700   60.5790 C   0  0  0  0  0  0  0  0  0  0  0  0
  124.0480  135.2710   60.8800 C   0  0  0  0  0  0  0  0  0  0  0  0
  123.3950  134.4000   61.7470 C   0  0  0  0  0  0  0  0  0  0  0  0
  124.0890  133.3350   62.3170 C   0  0  0  0  0  0  0  0  0  0  0  0
  125.4470  133.1220   62.0320 C   0  0  0  0  0  0  0  0  0  0  0  0
  126.1230  131.9600   62.7000 C   0  0  0  0  0  0  0  0  0  0  0  0
  126.3160  131.9090   64.0150 N   0  0  0  0  0  0  0  0  0  0  0  0
  126.9080  130.7530   64.1570 C   0  0  0  0  0  0  0  0  0  0  0  0
  127.5370  129.8400   65.4770 S   0  0  0  0  0  0  0  0  0  0  0  0
  128.0200  128.5430   64.3200 C   0  0  0  0  0  0  0  0  0  0  0  0
  128.6410  127.3750   64.5980 C   0  0  0  0  0  0  0  0  0  0  0  0
  129.0670  126.8730   65.8950 C   0  0  0  0  0  0  0  0  0  0  0  0
  128.7620  127.3740   67.1500 C   0  0  0  0  0  0  0  0  0  0  0  0
  129.3460  126.5570   68.0850 N   0  0  0  0  0  0  0  0  0  0  0  0
  129.3030  126.6700   69.4990 C   0  0  0  0  0  0  0  0  0  0  0  0
  128.4330  125.8720   70.2560 C   0  0  0  0  0  0  0  0  0  0  0  0
  128.3990  125.9950   71.6430 C   0  0  0  0  0  0  0  0  0  0  0  0
  129.2340  126.9120   72.2760 C   0  0  0  0  0  0  0  0  0  0  0  0
  130.1050  127.7080   71.5350 C   0  0  0  0  0  0  0  0  0  0  0  0
  130.1400  127.5890   70.1490 C   0  0  0  0  0  0  0  0  0  0  0  0
  129.9850  125.5440   67.4820 N   0  0  0  0  0  0  0  0  0  0  0  0
  129.8330  125.7210   66.1840 C   0  0  0  0  0  0  0  0  0  0  0  0
  130.4450  124.7500   65.2220 C   0  0  0  0  0  0  0  0  0  0  0  0
  129.7760  123.5620   64.8890 C   0  0  0  0  0  0  0  0  0  0  0  0
  130.3400  122.6490   63.9970 C   0  0  0  0  0  0  0  0  0  0  0  0
  131.5840  122.9190   63.4290 C   0  0  0  0  0  0  0  0  0  0  0  0
  132.2540  124.1110   63.7390 C   0  0  0  0  0  0  0  0  0  0  0  0
  131.6910  125.0180   64.6360 C   0  0  0  0  0  0  0  0  0  0  0  0
  133.5070  124.3990   63.2350 O   0  0  0  0  0  0  0  0  0  0  0  0
  133.8580  123.6420   62.0720 C   0  0  0  0  0  0  0  0  0  0  0  0
  133.4850  122.1510   62.2610 C   0  0  0  0  0  0  0  0  0  0  0  0
  132.0830  122.0120   62.5140 O   0  0  0  0  0  0  0  0  0  0  0  0
  127.6760  128.8740   62.9410 C   0  0  0  0  0  0  0  0  0  0  0  0
  127.8660  128.2210   61.9140 O   0  0  0  0  0  0  0  0  0  0  0  0
  127.0570  130.1340   62.9720 N   0  0  0  0  0  0  0  0  0  0  0  0
  126.5450  130.9090   62.0130 N   0  0  0  0  0  0  0  0  0  0  0  0
  128.1806  133.7285   61.6451 H   0  0  0  0  0  0  0  0  0  0  0  0
  127.6545  132.8922   60.1449 H   0  0  0  0  0  0  0  0  0  0  0  0
  127.8905  134.6729   60.1449 H   0  0  0  0  0  0  0  0  0  0  0  0
  125.9054  135.7571   59.8888 H   0  0  0  0  0  0  0  0  0  0  0  0
  123.5033  136.1159   60.4334 H   0  0  0  0  0  0  0  0  0  0  0  0
  122.3313  134.5524   61.9821 H   0  0  0  0  0  0  0  0  0  0  0  0
  123.5651  132.6508   63.0006 H   0  0  0  0  0  0  0  0  0  0  0  0
  128.8501  126.7235   63.7367 H   0  0  0  0  0  0  0  0  0  0  0  0
  128.1581  128.2691   67.3600 H   0  0  0  0  0  0  0  0  0  0  0  0
  127.7759  125.1472   69.7532 H   0  0  0  0  0  0  0  0  0  0  0  0
  127.7151  125.3701   72.2361 H   0  0  0  0  0  0  0  0  0  0  0  0
  129.2057  127.0089   73.3714 H   0  0  0  0  0  0  0  0  0  0  0  0
  130.7627  128.4280   72.0439 H   0  0  0  0  0  0  0  0  0  0  0  0
  130.8258  128.2172   69.5616 H   0  0  0  0  0  0  0  0  0  0  0  0
  128.7944  123.3478   65.3369 H   0  0  0  0  0  0  0  0  0  0  0  0
  129.8059  121.7214   63.7435 H   0  0  0  0  0  0  0  0  0  0  0  0
  132.2256  125.9466   64.8849 H   0  0  0  0  0  0  0  0  0  0  0  0
  133.3167  124.0429   61.2024 H   0  0  0  0  0  0  0  0  0  0  0  0
  134.9436  123.7191   61.9122 H   0  0  0  0  0  0  0  0  0  0  0  0
  133.7448  121.5946   61.3484 H   0  0  0  0  0  0  0  0  0  0  0  0
  134.0425  121.7516   63.1210 H   0  0  0  0  0  0  0  0  0  0  0  0
  1  2  1  0
  2  3  2  0
  3  4  1  0
  4  5  2  0
  5  6  1  0
  6  7  2  0
  7  8  1  0
  8  9  1  0
  9 10  2  0
 10 11  1  0
 11 12  1  0
 12 13  2  0
 13 14  1  0
 14 15  2  0
 15 16  1  0
 16 17  1  0
 17 18  2  0
 18 19  1  0
 19 20  2  0
 20 21  1  0
 21 22  2  0
 16 23  1  0
 23 24  2  0
 24 25  1  0
 25 26  2  0
 26 27  1  0
 27 28  2  0
 28 29  1  0
 29 30  2  0
 29 31  1  0
 31 32  1  0
 32 33  1  0
 33 34  1  0
 12 35  1  0
 35 36  2  0
 35 37  1  0
 37 38  1  0
  7  2  1  0
 38  8  2  0
 37 10  1  0
 24 14  1  0
 30 25  1  0
 22 17  1  0
 34 28  1  0
  1 39  1  0
  1 40  1  0
  1 41  1  0
  3 42  1  0
  4 43  1  0
  5 44  1  0
  6 45  1  0
 13 46  1  0
 15 47  1  0
 18 48  1  0
 19 49  1  0
 20 50  1  0
 21 51  1  0
 22 52  1  0
 26 53  1  0
 27 54  1  0
 30 55  1  0
 32 56  1  0
 32 57  1  0
 33 58  1  0
 33 59  1  0
M  END
>  <Binding energies>  (1) 
[-10.52]

>  <Ligand effiencies>  (1) 
[-0.2768421052631579]

>  <Interactions>  (1) 
["V-A:TYR:539:CD2:4871, V-A:ALA:541:CB:4889, V-B:TRP:381:CZ2:8338, V-B:TRP:381:CH2:8340, V-A:GLU:543:CD:4905, V-B:LEU:475:CD2:9227, V-B:GLU:543:C:9871, V-B:LYS:547:CE:9919, V-A:HIS:456:CE1:4066, V-A:HIS:456:CD2:4064, V-B:GLU:543:CB:9875, V-B:HIS:456:CE1:9038, V-B:ILE:369:CG2:8205, V-B:ALA:541:CB:9861, V-B:GLU:543:CD:9877, V-B:GLU:543:CG:9876, V-A:TYR:484:CZ:4343, V-A:TYR:484:CE1:4341, V-A:GLU:543:CG:4904, V-A:LEU:475:CD1:4254, V-B:ILE:369:CD1:8207, H-A:GLY:454:N:4046, V-A:GLY:454:CA:4045, V-A:GLY:453:C:4038, H-A:TYR:484:OH:4344, H-B:TYR:484:OH:9316, V-B:GLY:454:CA:9017, V-B:ILE:369:CG1:8206, V-B:SER:385:C:8373"]

$$$$
RR27_Rahimova_2017
     RDKit          3D

 66 71  0  0  0  0  0  0  0  0999 V2000
  126.6670  126.7800   57.5800 O   0  0  0  0  0  0  0  0  0  0  0  0
  127.3790  126.1720   58.3850 C   0  0  0  0  0  0  0  0  0  0  0  0
  127.1810  124.6350   58.5330 C   0  0  0  0  0  0  0  0  0  0  0  0
  127.5000  123.8580   57.2410 C   0  0  0  0  0  0  0  0  0  0  0  0
  126.6690  122.8290   56.7730 C   0  0  0  0  0  0  0  0  0  0  0  0
  126.9850  122.1480   55.6010 C   0  0  0  0  0  0  0  0  0  0  0  0
  128.1320  122.4930   54.8920 C   0  0  0  0  0  0  0  0  0  0  0  0
  128.9670  123.5100   55.3450 C   0  0  0  0  0  0  0  0  0  0  0  0
  128.6510  124.1900   56.5170 C   0  0  0  0  0  0  0  0  0  0  0  0
  125.8260  124.2930   59.1790 C   0  0  0  0  0  0  0  0  0  0  0  0
  124.6120  124.6890   58.6010 C   0  0  0  0  0  0  0  0  0  0  0  0
  123.4040  124.3720   59.2180 C   0  0  0  0  0  0  0  0  0  0  0  0
  123.4060  123.6640   60.4160 C   0  0  0  0  0  0  0  0  0  0  0  0
  124.6040  123.2740   61.0080 C   0  0  0  0  0  0  0  0  0  0  0  0
  125.8100  123.5910   60.3910 C   0  0  0  0  0  0  0  0  0  0  0  0
  128.4170  126.7830   59.0240 N   0  0  0  0  0  0  0  0  0  0  0  0
  129.1280  126.1900   60.1670 C   0  0  0  0  0  0  0  0  0  0  0  0
  128.3520  126.5990   61.4380 C   0  0  0  0  0  0  0  0  0  0  0  0
  128.1700  128.1450   61.5620 C   0  0  0  0  0  0  0  0  0  0  0  0
  127.3060  128.6000   62.7540 C   0  0  0  0  0  0  0  0  0  0  0  0
  127.6640  128.1210   63.9810 N   0  0  0  0  0  0  0  0  0  0  0  0
  126.9500  128.5140   65.0720 C   0  0  0  0  0  0  0  0  0  0  0  0
  127.2140  128.1060   66.3520 O   0  0  0  0  0  0  0  0  0  0  0  0
  125.8690  129.3970   64.8880 C   0  0  0  0  0  0  0  0  0  0  0  0
  124.9730  129.9780   65.7380 N   0  0  0  0  0  0  0  0  0  0  0  0
  124.1250  130.7560   64.9730 N   0  0  0  0  0  0  0  0  0  0  0  0
  124.4970  130.6620   63.6780 N   0  0  0  0  0  0  0  0  0  0  0  0
  123.7510  131.3690   62.6400 C   0  0  0  0  0  0  0  0  0  0  0  0
  124.6310  131.9410   61.5360 C   0  0  0  0  0  0  0  0  0  0  0  0
  124.6890  131.3150   60.2870 C   0  0  0  0  0  0  0  0  0  0  0  0
  125.4870  131.8460   59.2720 C   0  0  0  0  0  0  0  0  0  0  0  0
  126.2260  133.0070   59.4990 C   0  0  0  0  0  0  0  0  0  0  0  0
  126.1650  133.6410   60.7410 C   0  0  0  0  0  0  0  0  0  0  0  0
  127.0590  135.0930   61.0160 Cl  0  0  0  0  0  0  0  0  0  0  0  0
  125.3740  133.1070   61.7580 C   0  0  0  0  0  0  0  0  0  0  0  0
  125.5870  129.8150   63.5700 C   0  0  0  0  0  0  0  0  0  0  0  0
  126.2660  129.4390   62.4830 N   0  0  0  0  0  0  0  0  0  0  0  0
  127.7450  128.7920   60.2080 C   0  0  0  0  0  0  0  0  0  0  0  0
  128.5430  128.2490   58.9960 C   0  0  0  0  0  0  0  0  0  0  0  0
  127.9375  124.2734   59.2451 H   0  0  0  0  0  0  0  0  0  0  0  0
  125.7629  122.5590   57.3353 H   0  0  0  0  0  0  0  0  0  0  0  0
  126.3317  121.3414   55.2370 H   0  0  0  0  0  0  0  0  0  0  0  0
  128.3809  121.9565   53.9645 H   0  0  0  0  0  0  0  0  0  0  0  0
  129.8724  123.7749   54.7793 H   0  0  0  0  0  0  0  0  0  0  0  0
  129.3100  124.9938   56.8770 H   0  0  0  0  0  0  0  0  0  0  0  0
  124.6132  125.2524   57.6563 H   0  0  0  0  0  0  0  0  0  0  0  0
  122.4524  124.6801   58.7601 H   0  0  0  0  0  0  0  0  0  0  0  0
  122.4514  123.4100   60.9000 H   0  0  0  0  0  0  0  0  0  0  0  0
  124.5972  122.7187   61.9575 H   0  0  0  0  0  0  0  0  0  0  0  0
  126.7584  123.2880   60.8586 H   0  0  0  0  0  0  0  0  0  0  0  0
  129.1489  125.0943   60.0725 H   0  0  0  0  0  0  0  0  0  0  0  0
  130.1689  126.5432   60.2100 H   0  0  0  0  0  0  0  0  0  0  0  0
  127.3579  126.1288   61.4099 H   0  0  0  0  0  0  0  0  0  0  0  0
  128.9368  126.2627   62.3068 H   0  0  0  0  0  0  0  0  0  0  0  0
  129.1694  128.5353   61.8046 H   0  0  0  0  0  0  0  0  0  0  0  0
  126.7600  127.2930   66.5840 H   0  0  0  0  0  0  0  0  0  0  0  0
  123.0368  130.6664   62.1859 H   0  0  0  0  0  0  0  0  0  0  0  0
  123.2511  132.2198   63.1261 H   0  0  0  0  0  0  0  0  0  0  0  0
  124.1042  130.4015   60.1037 H   0  0  0  0  0  0  0  0  0  0  0  0
  125.5330  131.3482   58.2921 H   0  0  0  0  0  0  0  0  0  0  0  0
  126.8567  133.4228   58.6994 H   0  0  0  0  0  0  0  0  0  0  0  0
  125.3336  133.6038   62.7386 H   0  0  0  0  0  0  0  0  0  0  0  0
  126.6767  128.5882   60.0430 H   0  0  0  0  0  0  0  0  0  0  0  0
  127.9532  129.8697   60.2806 H   0  0  0  0  0  0  0  0  0  0  0  0
  128.1256  128.6468   58.0592 H   0  0  0  0  0  0  0  0  0  0  0  0
  129.5982  128.5548   59.0502 H   0  0  0  0  0  0  0  0  0  0  0  0
  1  2  2  0
  2  3  1  0
  3  4  1  0
  4  5  2  0
  5  6  1  0
  6  7  2  0
  7  8  1  0
  8  9  2  0
  3 10  1  0
 10 11  2  0
 11 12  1  0
 12 13  2  0
 13 14  1  0
 14 15  2  0
  2 16  1  0
 16 17  1  0
 17 18  1  0
 18 19  1  0
 19 20  1  0
 20 21  2  0
 21 22  1  0
 22 23  1  0
 22 24  2  0
 24 25  1  0
 25 26  2  0
 26 27  1  0
 27 28  1  0
 28 29  1  0
 29 30  2  0
 30 31  1  0
 31 32  2  0
 32 33  1  0
 33 34  1  0
 33 35  2  0
 27 36  1  0
 36 37  2  0
 19 38  1  0
 38 39  1  0
  9  4  1  0
 15 10  1  0
 39 16  1  0
 37 20  1  0
 36 24  1  0
 35 29  1  0
  3 40  1  0
  5 41  1  0
  6 42  1  0
  7 43  1  0
  8 44  1  0
  9 45  1  0
 11 46  1  0
 12 47  1  0
 13 48  1  0
 14 49  1  0
 15 50  1  0
 17 51  1  0
 17 52  1  0
 18 53  1  0
 18 54  1  0
 19 55  1  0
 23 56  1  0
 28 57  1  0
 28 58  1  0
 30 59  1  0
 31 60  1  0
 32 61  1  0
 35 62  1  0
 38 63  1  0
 38 64  1  0
 39 65  1  0
 39 66  1  0
M  END
>  <Binding energies>  (1) 
[-10.41]

>  <Ligand effiencies>  (1) 
[-0.26025]

>  <Interactions>  (1) 
["V-A:TYR:539:CD2:4871, V-A:ALA:541:CB:4889, V-A:TYR:539:CE2:4873, V-B:LEU:475:CD2:9227, V-B:ASP:366:CB:8180, V-B:ASN:362:CB:8144, V-B:TYR:539:CE1:9844, V-B:MET:535:CE:9804, V-B:PRO:540:CA:9852, V-B:TYR:539:CZ:9846, V-B:ASN:362:C:8140, V-B:PRO:540:N:9853, V-B:PRO:540:C:9850, V-B:PRO:540:CB:9854, V-B:ASP:366:CG:8181, V-B:LEU:363:CD1:8157, V-B:LEU:363:CA:8153, H-B:TYR:531:OH:9764, H-B:GLU:543:OE1:9878, V-B:GLU:543:CD:9877, V-B:ILE:538:CG2:9832, V-B:ILE:538:CB:9831, V-B:ILE:369:CD1:8207, V-B:ILE:538:CA:9829, V-B:TYR:539:CD1:9842, V-B:ILE:538:C:9827, V-B:LEU:363:CB:8155, H-B:TYR:484:OH:9316, H-B:GLY:454:N:9018, V-B:GLY:454:CA:9017, V-B:ASN:362:CA:8142"]

$$$$
RR27_Rahimova_2017-again1
     RDKit          3D

 66 71  0  0  0  0  0  0  0  0999 V2000
  127.6750  124.0300   56.8290 O   0  0  0  0  0  0  0  0  0  0  0  0
  128.3950  124.4840   57.7240 C   0  0  0  0  0  0  0  0  0  0  0  0
  127.7980  124.6070   59.1580 C   0  0  0  0  0  0  0  0  0  0  0  0
  128.4810  123.6610   60.1650 C   0  0  0  0  0  0  0  0  0  0  0  0
  128.6660  122.2960   59.8970 C   0  0  0  0  0  0  0  0  0  0  0  0
  129.2890  121.4740   60.8320 C   0  0  0  0  0  0  0  0  0  0  0  0
  129.7300  122.0100   62.0380 C   0  0  0  0  0  0  0  0  0  0  0  0
  129.5550  123.3620   62.3180 C   0  0  0  0  0  0  0  0  0  0  0  0
  128.9320  124.1850   61.3840 C   0  0  0  0  0  0  0  0  0  0  0  0
  126.2610  124.5030   59.1560 C   0  0  0  0  0  0  0  0  0  0  0  0
  125.4820  125.2010   58.2210 C   0  0  0  0  0  0  0  0  0  0  0  0
  124.0930  125.1080   58.2510 C   0  0  0  0  0  0  0  0  0  0  0  0
  123.4760  124.3140   59.2140 C   0  0  0  0  0  0  0  0  0  0  0  0
  124.2350  123.6160   60.1480 C   0  0  0  0  0  0  0  0  0  0  0  0
  125.6240  123.7150   60.1230 C   0  0  0  0  0  0  0  0  0  0  0  0
  129.7230  124.7180   57.5120 N   0  0  0  0  0  0  0  0  0  0  0  0
  130.5680  125.5050   58.4220 C   0  0  0  0  0  0  0  0  0  0  0  0
  130.4050  126.9960   58.0430 C   0  0  0  0  0  0  0  0  0  0  0  0
  130.4360  127.3140   56.5120 C   0  0  0  0  0  0  0  0  0  0  0  0
  129.6890  128.5990   56.1410 C   0  0  0  0  0  0  0  0  0  0  0  0
  130.2830  129.7490   56.2080 N   0  0  0  0  0  0  0  0  0  0  0  0
  129.5220  130.8240   55.8620 C   0  0  0  0  0  0  0  0  0  0  0  0
  128.1970  130.7950   55.4550 C   0  0  0  0  0  0  0  0  0  0  0  0
  127.7650  132.0190   55.2060 N   0  0  0  0  0  0  0  0  0  0  0  0
  128.8220  132.8910   55.4470 N   0  0  0  0  0  0  0  0  0  0  0  0
  129.8760  132.1480   55.8250 N   0  0  0  0  0  0  0  0  0  0  0  0
  131.1460  132.7710   56.1730 C   0  0  0  0  0  0  0  0  0  0  0  0
  132.0140  131.9080   57.0770 C   0  0  0  0  0  0  0  0  0  0  0  0
  133.0500  131.1430   56.5310 C   0  0  0  0  0  0  0  0  0  0  0  0
  133.8420  130.3430   57.3560 C   0  0  0  0  0  0  0  0  0  0  0  0
  133.6050  130.3070   58.7290 C   0  0  0  0  0  0  0  0  0  0  0  0
  132.5770  131.0720   59.2800 C   0  0  0  0  0  0  0  0  0  0  0  0
  132.2810  131.0230   60.9790 Cl  0  0  0  0  0  0  0  0  0  0  0  0
  131.7850  131.8730   58.4570 C   0  0  0  0  0  0  0  0  0  0  0  0
  127.5050  129.5090   55.3640 C   0  0  0  0  0  0  0  0  0  0  0  0
  126.3460  129.2850   55.0240 O   0  0  0  0  0  0  0  0  0  0  0  0
  128.3640  128.4940   55.7310 N   0  0  0  0  0  0  0  0  0  0  0  0
  130.0820  126.1290   55.5590 C   0  0  0  0  0  0  0  0  0  0  0  0
  130.2610  124.7060   56.1440 C   0  0  0  0  0  0  0  0  0  0  0  0
  128.0268  125.6216   59.5160 H   0  0  0  0  0  0  0  0  0  0  0  0
  128.3170  121.8734   58.9433 H   0  0  0  0  0  0  0  0  0  0  0  0
  129.4321  120.4045   60.6182 H   0  0  0  0  0  0  0  0  0  0  0  0
  130.2212  121.3594   62.7765 H   0  0  0  0  0  0  0  0  0  0  0  0
  129.9074  123.7784   63.2732 H   0  0  0  0  0  0  0  0  0  0  0  0
  128.7928  125.2537   61.6042 H   0  0  0  0  0  0  0  0  0  0  0  0
  125.9716  125.8257   57.4594 H   0  0  0  0  0  0  0  0  0  0  0  0
  123.4862  125.6591   57.5175 H   0  0  0  0  0  0  0  0  0  0  0  0
  122.3789  124.2379   59.2366 H   0  0  0  0  0  0  0  0  0  0  0  0
  123.7399  122.9882   60.9035 H   0  0  0  0  0  0  0  0  0  0  0  0
  126.2244  123.1711   60.8671 H   0  0  0  0  0  0  0  0  0  0  0  0
  130.2480  125.3457   59.4623 H   0  0  0  0  0  0  0  0  0  0  0  0
  131.6204  125.1976   58.3334 H   0  0  0  0  0  0  0  0  0  0  0  0
  129.4395  127.3422   58.4406 H   0  0  0  0  0  0  0  0  0  0  0  0
  131.2757  127.5118   58.4740 H   0  0  0  0  0  0  0  0  0  0  0  0
  131.5055  127.4939   56.3279 H   0  0  0  0  0  0  0  0  0  0  0  0
  131.7014  132.9727   55.2452 H   0  0  0  0  0  0  0  0  0  0  0  0
  130.9149  133.6925   56.7275 H   0  0  0  0  0  0  0  0  0  0  0  0
  133.2411  131.1720   55.4481 H   0  0  0  0  0  0  0  0  0  0  0  0
  134.6538  129.7405   56.9224 H   0  0  0  0  0  0  0  0  0  0  0  0
  134.2288  129.6751   59.3783 H   0  0  0  0  0  0  0  0  0  0  0  0
  130.9779  132.4790   58.8943 H   0  0  0  0  0  0  0  0  0  0  0  0
  127.9620  127.5690   55.6980 H   0  0  0  0  0  0  0  0  0  0  0  0
  129.0287  126.2400   55.2619 H   0  0  0  0  0  0  0  0  0  0  0  0
  130.7964  126.1973   54.7253 H   0  0  0  0  0  0  0  0  0  0  0  0
  129.7115  123.9764   55.5310 H   0  0  0  0  0  0  0  0  0  0  0  0
  131.3233  124.4206   56.1487 H   0  0  0  0  0  0  0  0  0  0  0  0
  1  2  2  0
  2  3  1  0
  3  4  1  0
  4  5  2  0
  5  6  1  0
  6  7  2  0
  7  8  1  0
  8  9  2  0
  3 10  1  0
 10 11  2  0
 11 12  1  0
 12 13  2  0
 13 14  1  0
 14 15  2  0
  2 16  1  0
 16 17  1  0
 17 18  1  0
 18 19  1  0
 19 20  1  0
 20 21  2  0
 21 22  1  0
 22 23  2  0
 23 24  1  0
 24 25  2  0
 25 26  1  0
 26 27  1  0
 27 28  1  0
 28 29  2  0
 29 30  1  0
 30 31  2  0
 31 32  1  0
 32 33  1  0
 32 34  2  0
 23 35  1  0
 35 36  2  0
 35 37  1  0
 19 38  1  0
 38 39  1  0
  9  4  1  0
 15 10  1  0
 39 16  1  0
 37 20  1  0
 26 22  1  0
 34 28  1  0
  3 40  1  0
  5 41  1  0
  6 42  1  0
  7 43  1  0
  8 44  1  0
  9 45  1  0
 11 46  1  0
 12 47  1  0
 13 48  1  0
 14 49  1  0
 15 50  1  0
 17 51  1  0
 17 52  1  0
 18 53  1  0
 18 54  1  0
 19 55  1  0
 27 56  1  0
 27 57  1  0
 29 58  1  0
 30 59  1  0
 31 60  1  0
 34 61  1  0
 37 62  1  0
 38 63  1  0
 38 64  1  0
 39 65  1  0
 39 66  1  0
M  END
>  <Binding energies>  (1) 
[-10.41]

>  <Ligand effiencies>  (1) 
[-0.26025]

>  <Interactions>  (1) 
["V-A:PRO:540:CB:4882, V-A:PRO:540:CA:4880, V-A:PRO:540:N:4881, V-A:LEU:363:CD1:3185, V-A:TYR:539:C:4864, V-A:ASP:366:CB:3208, V-A:LEU:363:CA:3181, V-A:ASP:366:CG:3209, V-A:ASN:362:CB:3172, V-A:GLU:543:CD:4905, V-A:ASN:362:C:3168, V-A:ILE:538:CD1:4862, V-B:ASP:366:CB:8180, H-A:TYR:531:OH:4792, V-B:TYR:539:CE1:9844, V-B:MET:535:CE:9804, V-B:PRO:540:CA:9852, V-B:TYR:539:CZ:9846, V-A:TYR:531:CZ:4791, V-B:ASN:362:C:8140, V-B:PRO:540:CB:9854, V-B:LEU:363:CD1:8157, V-B:LEU:363:CA:8153, H-B:TYR:531:OH:9764, V-B:ALA:541:CB:9861, V-A:ILE:538:CG2:4860, V-A:PRO:540:CD:4884, V-B:TYR:539:CE2:9845, V-B:TYR:539:CD2:9843, V-B:LEU:363:CB:8155, H-A:TYR:539:N:4867, H-B:MET:535:SD:9803, V-A:LEU:363:CB:3183, V-A:TYR:531:CE2:4790, V-A:LEU:363:C:3179, H-A:TYR:539:OH:4875"]

$$$$
RR28_Rahimova_2017
     RDKit          3D

 82 85  0  0  0  0  0  0  0  0999 V2000
  134.7220  123.3700   60.4580 C   0  0  0  0  0  0  0  0  0  0  0  0
  133.2700  123.1730   60.8770 C   0  0  0  0  0  0  0  0  0  0  0  0
  132.8000  122.0380   60.9240 O   0  0  0  0  0  0  0  0  0  0  0  0
  132.5780  124.2910   61.1750 N   0  0  0  0  0  0  0  0  0  0  0  0
  131.1640  124.4070   61.5990 C   0  0  0  0  0  0  0  0  0  0  0  0
  130.2630  123.9220   60.4280 C   0  0  0  0  0  0  0  0  0  0  0  0
  130.3270  124.5820   59.1910 C   0  0  0  0  0  0  0  0  0  0  0  0
  129.5330  124.1770   58.1230 C   0  0  0  0  0  0  0  0  0  0  0  0
  128.6540  123.1030   58.2660 C   0  0  0  0  0  0  0  0  0  0  0  0
  127.7860  122.6760   57.0830 C   0  0  0  0  0  0  0  0  0  0  0  0
  128.4120  122.8290   55.9140 F   0  0  0  0  0  0  0  0  0  0  0  0
  127.4420  121.3930   57.2010 F   0  0  0  0  0  0  0  0  0  0  0  0
  126.6780  123.4170   57.0620 F   0  0  0  0  0  0  0  0  0  0  0  0
  128.5790  122.4380   59.4930 C   0  0  0  0  0  0  0  0  0  0  0  0
  129.3740  122.8430   60.5620 C   0  0  0  0  0  0  0  0  0  0  0  0
  130.8500  125.8720   62.0730 C   0  0  0  0  0  0  0  0  0  0  0  0
  131.6170  126.2790   63.3560 C   0  0  0  0  0  0  0  0  0  0  0  0
  131.2310  125.3120   64.3970 N   0  0  0  0  0  0  0  0  0  0  0  0
  130.2030  125.5880   65.2450 C   0  0  0  0  0  0  0  0  0  0  0  0
  129.6740  126.7010   65.2910 O   0  0  0  0  0  0  0  0  0  0  0  0
  129.7940  124.5280   66.2950 C   0  0  0  0  0  0  0  0  0  0  0  0
  129.0090  125.0580   67.5260 C   0  0  0  0  0  0  0  0  0  0  0  0
  129.5750  126.3510   68.1580 C   0  0  0  0  0  0  0  0  0  0  0  0
  130.6470  126.7850   67.7270 O   0  0  0  0  0  0  0  0  0  0  0  0
  128.8270  127.0450   69.0620 N   0  0  0  0  0  0  0  0  0  0  0  0
  127.7300  126.4460   69.8310 C   0  0  0  0  0  0  0  0  0  0  0  0
  128.3700  125.7930   71.0760 C   0  0  0  0  0  0  0  0  0  0  0  0
  129.2190  126.7660   71.9650 C   0  0  0  0  0  0  0  0  0  0  0  0
  130.0840  125.9730   72.8630 N   0  0  0  0  0  0  0  0  0  0  0  0
  130.1240  124.6330   73.0090 C   0  0  0  0  0  0  0  0  0  0  0  0
  131.1160  124.0950   74.0350 C   0  0  0  0  0  0  0  0  0  0  0  0
  129.4180  123.8490   72.3760 O   0  0  0  0  0  0  0  0  0  0  0  0
  128.2220  127.5710   72.8610 C   0  0  0  0  0  0  0  0  0  0  0  0
  128.6020  128.7100   73.5900 C   0  0  0  0  0  0  0  0  0  0  0  0
  127.6830  129.3990   74.3760 C   0  0  0  0  0  0  0  0  0  0  0  0
  126.3580  128.9640   74.4570 C   0  0  0  0  0  0  0  0  0  0  0  0
  125.3360  129.7120   75.3120 C   0  0  0  0  0  0  0  0  0  0  0  0
  124.1100  129.2210   75.1160 F   0  0  0  0  0  0  0  0  0  0  0  0
  125.6520  129.5660   76.5980 F   0  0  0  0  0  0  0  0  0  0  0  0
  125.3050  131.0160   75.0340 F   0  0  0  0  0  0  0  0  0  0  0  0
  125.9660  127.8290   73.7450 C   0  0  0  0  0  0  0  0  0  0  0  0
  126.8880  127.1430   72.9600 C   0  0  0  0  0  0  0  0  0  0  0  0
  130.0930  127.6870   71.0290 C   0  0  0  0  0  0  0  0  0  0  0  0
  129.3950  128.2140   69.7460 C   0  0  0  0  0  0  0  0  0  0  0  0
  131.6780  123.9410   64.1120 C   0  0  0  0  0  0  0  0  0  0  0  0
  130.9320  123.4760   62.8340 C   0  0  0  0  0  0  0  0  0  0  0  0
  135.3539  123.4557   61.3543 H   0  0  0  0  0  0  0  0  0  0  0  0
  135.0508  122.5082   59.8586 H   0  0  0  0  0  0  0  0  0  0  0  0
  134.8093  124.2882   59.8586 H   0  0  0  0  0  0  0  0  0  0  0  0
  133.0630  125.1710   61.0790 H   0  0  0  0  0  0  0  0  0  0  0  0
  131.0145  125.4313   59.0643 H   0  0  0  0  0  0  0  0  0  0  0  0
  129.5985  124.7062   57.1609 H   0  0  0  0  0  0  0  0  0  0  0  0
  127.8885  121.5904   59.6148 H   0  0  0  0  0  0  0  0  0  0  0  0
  129.3050  122.3117   61.5227 H   0  0  0  0  0  0  0  0  0  0  0  0
  131.1261  126.5667   61.2661 H   0  0  0  0  0  0  0  0  0  0  0  0
  129.7763  125.9151   62.3080 H   0  0  0  0  0  0  0  0  0  0  0  0
  132.7020  126.2356   63.1802 H   0  0  0  0  0  0  0  0  0  0  0  0
  131.3712  127.3079   63.6574 H   0  0  0  0  0  0  0  0  0  0  0  0
  129.1646  123.7800   65.7908 H   0  0  0  0  0  0  0  0  0  0  0  0
  130.7369  124.1264   66.6945 H   0  0  0  0  0  0  0  0  0  0  0  0
  127.9744  125.2577   67.2102 H   0  0  0  0  0  0  0  0  0  0  0  0
  129.0886  124.2791   68.2986 H   0  0  0  0  0  0  0  0  0  0  0  0
  127.0122  127.2218   70.1358 H   0  0  0  0  0  0  0  0  0  0  0  0
  127.1830  125.7042   69.2305 H   0  0  0  0  0  0  0  0  0  0  0  0
  127.5631  125.3776   71.6976 H   0  0  0  0  0  0  0  0  0  0  0  0
  129.0664  125.0283   70.7014 H   0  0  0  0  0  0  0  0  0  0  0  0
  130.6880  126.5180   73.4600 H   0  0  0  0  0  0  0  0  0  0  0  0
  130.7412  124.2983   75.0490 H   0  0  0  0  0  0  0  0  0  0  0  0
  131.2329  123.0098   73.8980 H   0  0  0  0  0  0  0  0  0  0  0  0
  132.0893  124.5889   73.8980 H   0  0  0  0  0  0  0  0  0  0  0  0
  129.6426  129.0630   73.5388 H   0  0  0  0  0  0  0  0  0  0  0  0
  128.0016  130.2905   74.9362 H   0  0  0  0  0  0  0  0  0  0  0  0
  124.9259  127.4760   73.8046 H   0  0  0  0  0  0  0  0  0  0  0  0
  126.5658  126.2486   72.4066 H   0  0  0  0  0  0  0  0  0  0  0  0
  130.4139  128.5581   71.6191 H   0  0  0  0  0  0  0  0  0  0  0  0
  130.9191  127.0518   70.6767 H   0  0  0  0  0  0  0  0  0  0  0  0
  128.5964  128.9218   70.0128 H   0  0  0  0  0  0  0  0  0  0  0  0
  130.1085  128.7431   69.0972 H   0  0  0  0  0  0  0  0  0  0  0  0
  132.7646  123.9259   63.9415 H   0  0  0  0  0  0  0  0  0  0  0  0
  131.4594  123.2734   64.9584 H   0  0  0  0  0  0  0  0  0  0  0  0
  131.2798  122.4646   62.5771 H   0  0  0  0  0  0  0  0  0  0  0  0
  129.8560  123.5038   63.0609 H   0  0  0  0  0  0  0  0  0  0  0  0
  1  2  1  0
  2  3  2  0
  2  4  1  0
  4  5  1  0
  5  6  1  0
  6  7  2  0
  7  8  1  0
  8  9  2  0
  9 10  1  0
 10 11  1  0
 10 12  1  0
 10 13  1  0
  9 14  1  0
 14 15  2  0
  5 16  1  0
 16 17  1  0
 17 18  1  0
 18 19  1  0
 19 20  2  0
 19 21  1  0
 21 22  1  0
 22 23  1  0
 23 24  2  0
 23 25  1  0
 25 26  1  0
 26 27  1  0
 27 28  1  0
 28 29  1  0
 29 30  1  0
 30 31  1  0
 30 32  2  0
 28 33  1  0
 33 34  2  0
 34 35  1  0
 35 36  2  0
 36 37  1  0
 37 38  1  0
 37 39  1  0
 37 40  1  0
 36 41  1  0
 41 42  2  0
 28 43  1  0
 43 44  1  0
 18 45  1  0
 45 46  1  0
 46  5  1  0
 15  6  1  0
 44 25  1  0
 42 33  1  0
  1 47  1  0
  1 48  1  0
  1 49  1  0
  4 50  1  0
  7 51  1  0
  8 52  1  0
 14 53  1  0
 15 54  1  0
 16 55  1  0
 16 56  1  0
 17 57  1  0
 17 58  1  0
 21 59  1  0
 21 60  1  0
 22 61  1  0
 22 62  1  0
 26 63  1  0
 26 64  1  0
 27 65  1  0
 27 66  1  0
 29 67  1  0
 31 68  1  0
 31 69  1  0
 31 70  1  0
 34 71  1  0
 35 72  1  0
 41 73  1  0
 42 74  1  0
 43 75  1  0
 43 76  1  0
 44 77  1  0
 44 78  1  0
 45 79  1  0
 45 80  1  0
 46 81  1  0
 46 82  1  0
M  END
>  <Binding energies>  (1) 
[-9.59]

>  <Ligand effiencies>  (1) 
[-0.19979166666666667]

>  <Interactions>  (1) 
["V-A:ASP:366:CG:3209, H-A:ASP:366:OD1:3210, V-B:GLU:543:C:9871, V-B:LYS:547:CE:9919, V-B:LYS:471:CE:9188, V-B:VAL:458:CG2:9055, V-B:HIS:456:CG:9034, V-A:LYS:547:CE:4947, V-B:HIS:456:CB:9033, V-A:HIS:456:CE1:4066, H-B:LYS:547:NZ:9920, V-A:GLU:543:C:4899, V-A:HIS:456:CD2:4064, V-B:GLU:543:CB:9875, V-B:HIS:456:C:9029, V-B:HIS:456:CE1:9038, V-B:GLY:544:C:9881, V-B:HIS:456:CD2:9036, V-B:TYR:539:CE1:9844, V-B:MET:535:CE:9804, V-B:PRO:540:CA:9852, V-B:TYR:539:CZ:9846, V-B:PRO:540:N:9853, H-B:TYR:539:OH:9847, V-B:GLU:543:CG:9876, V-A:ARG:545:CZ:4923, V-A:TYR:484:CZ:4343, V-B:TYR:539:CE2:9845, V-A:TYR:484:CE1:4341, V-B:GLU:543:CA:9873, V-B:PRO:540:CD:9856, V-A:ILE:369:CG1:3234, V-B:TYR:539:C:9836, V-A:ILE:369:CB:3232, V-B:TYR:539:CD2:9843, V-B:TYR:539:CD1:9842, V-B:TYR:539:CG:9841, V-B:ILE:538:C:9827, H-A:ASP:366:OD2:3211, V-A:ILE:369:CG2:3233, V-A:ASP:366:CA:3206, V-B:LYS:547:CD:9918, V-B:TYR:539:CA:9838, V-B:VAL:457:CA:9043, V-B:ASP:473:CG:9208, V-B:ASP:473:CB:9207, V-B:VAL:457:C:9041, V-B:LYS:471:CD:9187, V-B:TYR:539:CB:9840, V-B:HIS:456:CA:9031"]

$$$$
RR29_Rahimova_2017
     RDKit          3D

 35 36  0  0  0  0  0  0  0  0999 V2000
  131.0660  122.7630   62.7160 C   0  0  0  0  0  0  0  0  0  0  0  0
  131.0110  124.1030   61.9960 C   0  0  0  0  0  0  0  0  0  0  0  0
  130.2160  124.0440   60.6730 C   0  0  0  0  0  0  0  0  0  0  0  0
  129.3890  122.7460   60.5620 C   0  0  0  0  0  0  0  0  0  0  0  0
  128.2260  122.8840   59.5910 C   0  0  0  0  0  0  0  0  0  0  0  0
  127.0410  123.5280   59.9990 C   0  0  0  0  0  0  0  0  0  0  0  0
  125.9580  123.6670   59.1200 C   0  0  0  0  0  0  0  0  0  0  0  0
  126.0950  123.1370   57.8420 C   0  0  0  0  0  0  0  0  0  0  0  0
  127.2410  122.5090   57.4420 C   0  0  0  0  0  0  0  0  0  0  0  0
  128.3350  122.3660   58.2880 C   0  0  0  0  0  0  0  0  0  0  0  0
  127.1120  122.1230   56.1450 O   0  0  0  0  0  0  0  0  0  0  0  0
  125.7660  122.3410   55.8160 C   0  0  0  0  0  0  0  0  0  0  0  0
  125.2130  123.1640   56.8090 O   0  0  0  0  0  0  0  0  0  0  0  0
  131.6090  125.1070   62.5210 N   0  0  0  0  0  0  0  0  0  0  0  0
  131.6330  126.2990   61.8300 N   0  0  0  0  0  0  0  0  0  0  0  0
  130.8690  127.3600   62.1350 C   0  0  0  0  0  0  0  0  0  0  0  0
  130.0050  127.4110   63.1500 N   0  0  0  0  0  0  0  0  0  0  0  0
  130.9800  128.4390   61.3740 N   0  0  0  0  0  0  0  0  0  0  0  0
  131.0591  122.9304   63.8032 H   0  0  0  0  0  0  0  0  0  0  0  0
  130.1919  122.1583   62.4326 H   0  0  0  0  0  0  0  0  0  0  0  0
  131.9867  122.2320   62.4326 H   0  0  0  0  0  0  0  0  0  0  0  0
  129.5343  124.9061   60.6279 H   0  0  0  0  0  0  0  0  0  0  0  0
  130.9341  124.0656   59.8400 H   0  0  0  0  0  0  0  0  0  0  0  0
  130.0467  121.9361   60.2134 H   0  0  0  0  0  0  0  0  0  0  0  0
  128.9731  122.5257   61.5562 H   0  0  0  0  0  0  0  0  0  0  0  0
  126.9647  123.9271   61.0212 H   0  0  0  0  0  0  0  0  0  0  0  0
  125.0338  124.1766   59.4299 H   0  0  0  0  0  0  0  0  0  0  0  0
  129.2541  121.8650   57.9499 H   0  0  0  0  0  0  0  0  0  0  0  0
  125.6951  122.8362   54.8363 H   0  0  0  0  0  0  0  0  0  0  0  0
  125.2230  121.3860   55.7601 H   0  0  0  0  0  0  0  0  0  0  0  0
  132.2500  126.3470   61.0320 H   0  0  0  0  0  0  0  0  0  0  0  0
  129.7030  128.3020   63.5160 H   0  0  0  0  0  0  0  0  0  0  0  0
  129.6640  126.5510   63.5560 H   0  0  0  0  0  0  0  0  0  0  0  0
  131.3530  128.3610   60.4380 H   0  0  0  0  0  0  0  0  0  0  0  0
  130.6850  129.3370   61.7280 H   0  0  0  0  0  0  0  0  0  0  0  0
  1  2  1  0
  2  3  1  0
  3  4  1  0
  4  5  1  0
  5  6  2  0
  6  7  1  0
  7  8  2  0
  8  9  1  0
  9 10  2  0
  9 11  1  0
 11 12  1  0
 12 13  1  0
  2 14  2  0
 14 15  1  0
 15 16  1  0
 16 17  1  0
 16 18  2  0
 10  5  1  0
 13  8  1  0
  1 19  1  0
  1 20  1  0
  1 21  1  0
  3 22  1  0
  3 23  1  0
  4 24  1  0
  4 25  1  0
  6 26  1  0
  7 27  1  0
 10 28  1  0
 12 29  1  0
 12 30  1  0
 15 31  1  0
 17 32  1  0
 17 33  1  0
 18 34  1  0
 18 35  1  0
M  CHG  1  18   1
M  END
>  <Binding energies>  (1) 
[-7.32]

>  <Ligand effiencies>  (1) 
[-0.31826086956521743]

>  <Interactions>  (1) 
["H-A:GLU:543:OE1:4906, H-A:GLU:543:OE2:4907, V-A:ASP:366:CG:3209, H-A:ASP:366:OD1:3210, V-A:GLU:543:CD:4905, V-B:TYR:539:CE1:9844, V-B:PRO:540:CA:9852, V-B:TYR:539:CZ:9846, V-B:PRO:540:N:9853, V-B:PRO:540:CB:9854, H-B:TYR:539:N:9839, V-B:LEU:363:CD1:8157, V-A:ARG:545:CZ:4923, V-B:TYR:539:CE2:9845, V-B:ILE:538:CG2:9832, V-B:ILE:538:CB:9831, V-A:LEU:475:CD1:4254, V-B:PRO:540:CD:9856, V-B:TYR:539:C:9836, V-B:TYR:539:CD2:9843, V-B:ILE:538:CA:9829, V-B:TYR:539:CD1:9842, V-B:TYR:539:CG:9841, H-A:ASP:366:OD2:3211"]

$$$$
RR29_Rahimova_2017-again1
     RDKit          3D

 34 35  0  0  0  0  0  0  0  0999 V2000
  133.6600  122.1330   61.2060 C   0  0  0  0  0  0  0  0  0  0  0  0
  133.1720  123.5110   61.6280 C   0  0  0  0  0  0  0  0  0  0  0  0
  132.2940  124.2020   60.5670 C   0  0  0  0  0  0  0  0  0  0  0  0
  130.8170  124.2650   61.0090 C   0  0  0  0  0  0  0  0  0  0  0  0
  129.8940  123.5430   60.0380 C   0  0  0  0  0  0  0  0  0  0  0  0
  129.1570  122.4230   60.4710 C   0  0  0  0  0  0  0  0  0  0  0  0
  128.2990  121.7430   59.5940 C   0  0  0  0  0  0  0  0  0  0  0  0
  128.2140  122.2100   58.2870 C   0  0  0  0  0  0  0  0  0  0  0  0
  128.9290  123.2950   57.8620 C   0  0  0  0  0  0  0  0  0  0  0  0
  129.7790  123.9930   58.7120 C   0  0  0  0  0  0  0  0  0  0  0  0
  128.6300  123.5460   56.5600 O   0  0  0  0  0  0  0  0  0  0  0  0
  127.8690  122.4510   56.1280 C   0  0  0  0  0  0  0  0  0  0  0  0
  127.4450  121.7500   57.2660 O   0  0  0  0  0  0  0  0  0  0  0  0
  133.5260  123.9790   62.7730 N   0  0  0  0  0  0  0  0  0  0  0  0
  133.1130  125.1660   63.0810 N   0  0  0  0  0  0  0  0  0  0  0  0
  132.4550  125.2960   64.1750 C   0  0  0  0  0  0  0  0  0  0  0  0
  132.1080  124.2850   65.1150 N   0  0  0  0  0  0  0  0  0  0  0  0
  131.9710  126.5530   64.5930 N   0  0  0  0  0  0  0  0  0  0  0  0
  133.8736  121.5298   62.1007 H   0  0  0  0  0  0  0  0  0  0  0  0
  132.8830  121.6367   60.6061 H   0  0  0  0  0  0  0  0  0  0  0  0
  134.5762  122.2363   60.6061 H   0  0  0  0  0  0  0  0  0  0  0  0
  132.6637  125.2259   60.4088 H   0  0  0  0  0  0  0  0  0  0  0  0
  132.3514  123.6169   59.6373 H   0  0  0  0  0  0  0  0  0  0  0  0
  130.7238  123.7973   62.0003 H   0  0  0  0  0  0  0  0  0  0  0  0
  130.5177  125.3232   61.0353 H   0  0  0  0  0  0  0  0  0  0  0  0
  129.2557  122.0772   61.5106 H   0  0  0  0  0  0  0  0  0  0  0  0
  127.7151  120.8726   59.9278 H   0  0  0  0  0  0  0  0  0  0  0  0
  130.3429  124.8687   58.3582 H   0  0  0  0  0  0  0  0  0  0  0  0
  126.9964  122.8029   55.5582 H   0  0  0  0  0  0  0  0  0  0  0  0
  128.4684  121.7991   55.4755 H   0  0  0  0  0  0  0  0  0  0  0  0
  132.3650  123.3170   64.9800 H   0  0  0  0  0  0  0  0  0  0  0  0
  131.5810  124.4800   65.9520 H   0  0  0  0  0  0  0  0  0  0  0  0
  132.1170  127.3920   64.0510 H   0  0  0  0  0  0  0  0  0  0  0  0
  131.4490  126.6770   65.4480 H   0  0  0  0  0  0  0  0  0  0  0  0
  1  2  1  0
  2  3  1  0
  3  4  1  0
  4  5  1  0
  5  6  2  0
  6  7  1  0
  7  8  2  0
  8  9  1  0
  9 10  2  0
  9 11  1  0
 11 12  1  0
 12 13  1  0
  2 14  2  0
 14 15  1  0
 15 16  2  0
 16 17  1  0
 16 18  1  0
 10  5  1  0
 13  8  1  0
  1 19  1  0
  1 20  1  0
  1 21  1  0
  3 22  1  0
  3 23  1  0
  4 24  1  0
  4 25  1  0
  6 26  1  0
  7 27  1  0
 10 28  1  0
 12 29  1  0
 12 30  1  0
 17 31  1  0
 17 32  1  0
 18 33  1  0
 18 34  1  0
M  END
>  <Binding energies>  (1) 
[-6.13]

>  <Ligand effiencies>  (1) 
[-0.2786363636363636]

>  <Interactions>  (1) 
["H-A:GLU:543:OE1:4906, H-A:GLU:543:OE2:4907, V-A:ASP:366:CG:3209, V-A:GLU:543:CD:4905, V-A:HIS:456:CE1:4066, V-B:TYR:539:CE1:9844, V-B:PRO:540:CA:9852, V-B:TYR:539:CZ:9846, V-B:PRO:540:N:9853, V-B:PRO:540:C:9850, H-B:TYR:539:N:9839, V-B:ALA:541:CB:9861, V-A:ARG:545:CZ:4923, V-A:TYR:484:CZ:4343, H-A:ARG:545:NH2:4925, V-B:TYR:539:CE2:9845, V-B:TYR:539:C:9836, V-B:TYR:539:CD2:9843, V-B:TYR:539:CD1:9842, V-B:TYR:539:CG:9841, H-A:GLY:454:N:4046, H-A:ARG:545:NH1:4924, V-A:ILE:369:CG2:3233, H-A:TYR:484:OH:4344"]

$$$$
RR2_Rahimova_2017
     RDKit          3D

 76 80  0  0  0  0  0  0  0  0999 V2000
  124.4610  129.6490   65.5910 C   0  0  0  0  0  0  0  0  0  0  0  0
  123.8230  130.2850   64.4890 O   0  0  0  0  0  0  0  0  0  0  0  0
  124.5980  130.9050   63.5260 C   0  0  0  0  0  0  0  0  0  0  0  0
  124.0900  131.7220   62.5070 C   0  0  0  0  0  0  0  0  0  0  0  0
  124.9480  132.3020   61.5780 C   0  0  0  0  0  0  0  0  0  0  0  0
  126.3310  132.0780   61.6430 C   0  0  0  0  0  0  0  0  0  0  0  0
  127.2440  132.7170   60.6140 C   0  0  0  0  0  0  0  0  0  0  0  0
  127.7090  133.8450   60.8090 O   0  0  0  0  0  0  0  0  0  0  0  0
  127.4840  131.9830   59.5020 N   0  0  0  0  0  0  0  0  0  0  0  0
  128.2400  132.5590   58.4860 N   0  0  0  0  0  0  0  0  0  0  0  0
  128.0310  132.1420   57.2220 C   0  0  0  0  0  0  0  0  0  0  0  0
  127.3500  131.1620   56.9050 O   0  0  0  0  0  0  0  0  0  0  0  0
  128.6900  132.9920   56.1270 C   0  0  0  0  0  0  0  0  0  0  0  0
  130.1470  132.2280   55.3250 S   0  0  0  0  0  0  0  0  0  0  0  0
  129.8090  130.5150   55.6000 C   0  0  0  0  0  0  0  0  0  0  0  0
  129.0420  129.8040   54.8140 N   0  0  0  0  0  0  0  0  0  0  0  0
  128.9400  128.5350   55.3660 N   0  0  0  0  0  0  0  0  0  0  0  0
  129.6760  128.5180   56.4520 C   0  0  0  0  0  0  0  0  0  0  0  0
  129.8340  127.3100   57.3190 C   0  0  0  0  0  0  0  0  0  0  0  0
  130.6790  126.2730   56.9170 C   0  0  0  0  0  0  0  0  0  0  0  0
  130.8260  125.1410   57.7140 C   0  0  0  0  0  0  0  0  0  0  0  0
  130.1410  125.0440   58.9300 C   0  0  0  0  0  0  0  0  0  0  0  0
  130.2430  123.9230   59.7680 N   0  0  0  0  0  0  0  0  0  0  0  0
  128.8790  122.8880   60.2450 S   0  0  0  0  0  0  0  0  0  0  0  0
  128.1770  123.6110   61.3110 O   0  0  0  0  0  0  0  0  0  0  0  0
  129.3930  121.5310   60.4680 O   0  0  0  0  0  0  0  0  0  0  0  0
  127.7860  122.8710   58.8260 C   0  0  0  0  0  0  0  0  0  0  0  0
  128.2410  122.4290   57.5820 C   0  0  0  0  0  0  0  0  0  0  0  0
  127.3800  122.4390   56.4880 C   0  0  0  0  0  0  0  0  0  0  0  0
  126.0640  122.8840   56.6400 C   0  0  0  0  0  0  0  0  0  0  0  0
  125.1310  122.9070   55.4430 C   0  0  0  0  0  0  0  0  0  0  0  0
  125.6130  123.3280   57.8850 C   0  0  0  0  0  0  0  0  0  0  0  0
  126.4730  123.3210   58.9780 C   0  0  0  0  0  0  0  0  0  0  0  0
  129.3000  126.0820   59.3310 C   0  0  0  0  0  0  0  0  0  0  0  0
  129.1470  127.2110   58.5330 C   0  0  0  0  0  0  0  0  0  0  0  0
  130.2590  129.7560   56.6650 N   0  0  0  0  0  0  0  0  0  0  0  0
  131.0800  130.1660   57.7360 C   0  0  0  0  0  0  0  0  0  0  0  0
  130.5170  130.4220   58.9870 C   0  0  0  0  0  0  0  0  0  0  0  0
  131.3330  130.8220   60.0410 C   0  0  0  0  0  0  0  0  0  0  0  0
  132.7090  130.9710   59.8570 C   0  0  0  0  0  0  0  0  0  0  0  0
  133.4360  131.3720   60.9610 O   0  0  0  0  0  0  0  0  0  0  0  0
  132.7460  131.8610   62.1080 C   0  0  0  0  0  0  0  0  0  0  0  0
  133.2660  130.7110   58.5950 C   0  0  0  0  0  0  0  0  0  0  0  0
  132.4550  130.3090   57.5390 C   0  0  0  0  0  0  0  0  0  0  0  0
  126.8320  131.2640   62.6690 C   0  0  0  0  0  0  0  0  0  0  0  0
  125.9720  130.6860   63.5980 C   0  0  0  0  0  0  0  0  0  0  0  0
  124.0567  130.0520   66.5313 H   0  0  0  0  0  0  0  0  0  0  0  0
  124.2756  128.5656   65.5467 H   0  0  0  0  0  0  0  0  0  0  0  0
  125.5438  129.8378   65.5467 H   0  0  0  0  0  0  0  0  0  0  0  0
  123.0074  131.9056   62.4413 H   0  0  0  0  0  0  0  0  0  0  0  0
  124.5373  132.9431   60.7841 H   0  0  0  0  0  0  0  0  0  0  0  0
  126.8000  131.3360   59.1380 H   0  0  0  0  0  0  0  0  0  0  0  0
  128.5860  133.4800   58.7190 H   0  0  0  0  0  0  0  0  0  0  0  0
  127.9374  133.1898   55.3496 H   0  0  0  0  0  0  0  0  0  0  0  0
  129.0554  133.9029   56.6237 H   0  0  0  0  0  0  0  0  0  0  0  0
  131.2298  126.3510   55.9681 H   0  0  0  0  0  0  0  0  0  0  0  0
  131.4822  124.3210   57.3869 H   0  0  0  0  0  0  0  0  0  0  0  0
  131.1620  123.6710   60.1050 H   0  0  0  0  0  0  0  0  0  0  0  0
  129.2758  122.0742   57.4669 H   0  0  0  0  0  0  0  0  0  0  0  0
  127.7353  122.0969   55.5048 H   0  0  0  0  0  0  0  0  0  0  0  0
  124.0880  122.9327   55.7915 H   0  0  0  0  0  0  0  0  0  0  0  0
  125.3366  123.8004   54.8350 H   0  0  0  0  0  0  0  0  0  0  0  0
  125.2923  122.0046   54.8350 H   0  0  0  0  0  0  0  0  0  0  0  0
  124.5783  123.6830   58.0010 H   0  0  0  0  0  0  0  0  0  0  0  0
  126.1197  123.6691   59.9598 H   0  0  0  0  0  0  0  0  0  0  0  0
  128.7548  126.0074   60.2835 H   0  0  0  0  0  0  0  0  0  0  0  0
  128.4846  128.0271   58.8574 H   0  0  0  0  0  0  0  0  0  0  0  0
  129.4335  130.3082   59.1392 H   0  0  0  0  0  0  0  0  0  0  0  0
  130.8900  131.0225   61.0277 H   0  0  0  0  0  0  0  0  0  0  0  0
  133.2495  131.5042   63.0186 H   0  0  0  0  0  0  0  0  0  0  0  0
  132.7473  132.9609   62.0954 H   0  0  0  0  0  0  0  0  0  0  0  0
  131.7086  131.4954   62.0954 H   0  0  0  0  0  0  0  0  0  0  0  0
  134.3490  130.8257   58.4405 H   0  0  0  0  0  0  0  0  0  0  0  0
  132.8953  130.1044   56.5519 H   0  0  0  0  0  0  0  0  0  0  0  0
  127.9143  131.0807   62.7402 H   0  0  0  0  0  0  0  0  0  0  0  0
  126.3810  130.0501   64.3969 H   0  0  0  0  0  0  0  0  0  0  0  0
  1  2  1  0
  2  3  1  0
  3  4  2  0
  4  5  1  0
  5  6  2  0
  6  7  1  0
  7  8  2  0
  7  9  1  0
  9 10  1  0
 10 11  1  0
 11 12  2  0
 11 13  1  0
 13 14  1  0
 14 15  1  0
 15 16  2  0
 16 17  1  0
 17 18  2  0
 18 19  1  0
 19 20  2  0
 20 21  1  0
 21 22  2  0
 22 23  1  0
 23 24  1  0
 24 25  2  0
 24 26  2  0
 24 27  1  0
 27 28  2  0
 28 29  1  0
 29 30  2  0
 30 31  1  0
 30 32  1  0
 32 33  2  0
 22 34  1  0
 34 35  2  0
 18 36  1  0
 36 37  1  0
 37 38  2  0
 38 39  1  0
 39 40  2  0
 40 41  1  0
 41 42  1  0
 40 43  1  0
 43 44  2  0
  6 45  1  0
 45 46  2  0
 46  3  1  0
 36 15  1  0
 44 37  1  0
 35 19  1  0
 33 27  1  0
  1 47  1  0
  1 48  1  0
  1 49  1  0
  4 50  1  0
  5 51  1  0
  9 52  1  0
 10 53  1  0
 13 54  1  0
 13 55  1  0
 20 56  1  0
 21 57  1  0
 23 58  1  0
 28 59  1  0
 29 60  1  0
 31 61  1  0
 31 62  1  0
 31 63  1  0
 32 64  1  0
 33 65  1  0
 34 66  1  0
 35 67  1  0
 38 68  1  0
 39 69  1  0
 42 70  1  0
 42 71  1  0
 42 72  1  0
 43 73  1  0
 44 74  1  0
 45 75  1  0
 46 76  1  0
M  END
>  <Binding energies>  (1) 
[-10.69]

>  <Ligand effiencies>  (1) 
[-0.21816326530612243]

>  <Interactions>  (1) 
["V-A:TYR:539:CD2:4871, V-A:PRO:540:CB:4882, V-A:PRO:540:CA:4880, V-A:TYR:539:C:4864, V-A:LEU:363:CA:3181, V-A:ASP:366:CG:3209, V-A:ASN:362:CB:3172, V-A:GLU:543:CD:4905, V-A:ASN:362:C:3168, V-A:TYR:539:CE2:4873, V-B:HIS:456:CE1:9038, H-A:TYR:531:OH:4792, V-B:TYR:539:CE1:9844, V-B:PRO:540:CA:9852, V-B:TYR:539:CZ:9846, V-B:PRO:540:N:9853, V-B:PRO:540:CB:9854, V-B:LEU:363:CD1:8157, V-A:TYR:539:CZ:4874, H-B:TYR:539:OH:9847, H-A:ARG:545:NH2:4925, V-B:TYR:539:CE2:9845, V-A:GLU:543:CG:4904, V-B:ILE:538:CG2:9832, V-B:ILE:538:CB:9831, V-B:PRO:540:CD:9856, V-B:TYR:539:C:9836, V-B:TYR:539:CD2:9843, V-A:TYR:539:CD1:4870, V-A:TYR:539:CE1:4872, V-B:ILE:369:CD1:8207, V-B:TYR:539:CD1:9842, V-B:TYR:539:CG:9841, H-A:TYR:539:N:4867, V-A:ALA:541:CA:4887, V-B:ARG:545:CZ:9895, H-A:TYR:539:O:4865, H-B:TYR:484:OH:9316, H-A:LEU:363:N:3182, H-B:GLY:454:N:9018, V-B:GLY:454:CA:9017, V-B:ARG:545:CD:9892, V-A:TYR:539:CG:4869, V-A:TYR:539:CA:4866, V-A:ASN:362:CG:3173, V-A:ALA:541:C:4885"]

$$$$
RR30_Rahimova_2017
     RDKit          3D

 29 30  0  0  0  0  0  0  0  0999 V2000
  129.5760  121.7640   61.0260 C   0  0  0  0  0  0  0  0  0  0  0  0
  128.2450  121.6480   60.2700 C   0  0  0  0  0  0  0  0  0  0  0  0
  127.4560  122.9380   60.2960 C   0  0  0  0  0  0  0  0  0  0  0  0
  127.8920  124.1590   60.1030 N   0  0  0  0  0  0  0  0  0  0  0  0
  126.7820  124.9870   60.2400 N   0  0  0  0  0  0  0  0  0  0  0  0
  125.7730  124.1990   60.5140 C   0  0  0  0  0  0  0  0  0  0  0  0
  124.0920  124.6580   60.7840 S   0  0  0  0  0  0  0  0  0  0  0  0
  123.3790  124.1980   59.1730 C   0  0  0  0  0  0  0  0  0  0  0  0
  124.4260  124.2040   58.0550 C   0  0  0  0  0  0  0  0  0  0  0  0
  124.4460  125.1410   57.2540 O   0  0  0  0  0  0  0  0  0  0  0  0
  125.2490  123.1320   58.0100 N   0  0  0  0  0  0  0  0  0  0  0  0
  126.2660  122.9130   57.0930 C   0  0  0  0  0  0  0  0  0  0  0  0
  126.5450  121.8100   56.4360 N   0  0  0  0  0  0  0  0  0  0  0  0
  127.6430  121.9580   55.5980 N   0  0  0  0  0  0  0  0  0  0  0  0
  128.1700  123.1600   55.6370 C   0  0  0  0  0  0  0  0  0  0  0  0
  129.3730  123.5640   54.8170 C   0  0  0  0  0  0  0  0  0  0  0  0
  127.3360  124.2310   56.7300 S   0  0  0  0  0  0  0  0  0  0  0  0
  126.1260  122.8890   60.5600 O   0  0  0  0  0  0  0  0  0  0  0  0
  129.3851  121.7474   62.1092 H   0  0  0  0  0  0  0  0  0  0  0  0
  130.2263  120.9191   60.7553 H   0  0  0  0  0  0  0  0  0  0  0  0
  130.0703  122.7086   60.7553 H   0  0  0  0  0  0  0  0  0  0  0  0
  128.4546  121.3826   59.2233 H   0  0  0  0  0  0  0  0  0  0  0  0
  127.6417  120.8744   60.7675 H   0  0  0  0  0  0  0  0  0  0  0  0
  122.9494  123.1883   59.2508 H   0  0  0  0  0  0  0  0  0  0  0  0
  122.6092  124.9416   58.9193 H   0  0  0  0  0  0  0  0  0  0  0  0
  125.1170  122.4110   58.7040 H   0  0  0  0  0  0  0  0  0  0  0  0
  130.1985  123.8412   55.4891 H   0  0  0  0  0  0  0  0  0  0  0  0
  129.6841  122.7210   54.1825 H   0  0  0  0  0  0  0  0  0  0  0  0
  129.1122  124.4239   54.1825 H   0  0  0  0  0  0  0  0  0  0  0  0
  1  2  1  0
  2  3  1  0
  3  4  2  0
  4  5  1  0
  5  6  2  0
  6  7  1  0
  7  8  1  0
  8  9  1  0
  9 10  2  0
  9 11  1  0
 11 12  1  0
 12 13  2  0
 13 14  1  0
 14 15  2  0
 15 16  1  0
 15 17  1  0
  6 18  1  0
 18  3  1  0
 17 12  1  0
  1 19  1  0
  1 20  1  0
  1 21  1  0
  2 22  1  0
  2 23  1  0
  8 24  1  0
  8 25  1  0
 11 26  1  0
 16 27  1  0
 16 28  1  0
 16 29  1  0
M  END
>  <Binding energies>  (1) 
[-6.6]

>  <Ligand effiencies>  (1) 
[-0.34736842105263155]

>  <Interactions>  (1) 
["V-B:TYR:539:CE1:9844, V-B:MET:535:CE:9804, V-B:PRO:540:CA:9852, V-B:TYR:539:CZ:9846, V-B:ASN:362:C:8140, V-B:PRO:540:N:9853, V-B:PRO:540:C:9850, V-B:PRO:540:CB:9854, H-B:TYR:539:N:9839, V-B:LEU:363:CD1:8157, V-B:LEU:363:CA:8153, H-B:TYR:531:OH:9764, V-B:ALA:541:CB:9861, V-B:TYR:539:CE2:9845, H-B:ALA:541:N:9860, V-B:TYR:539:C:9836, V-B:TYR:539:CD2:9843, V-B:TYR:539:CD1:9842, V-B:LEU:363:CB:8155, H-B:ARG:545:NH2:9897"]

$$$$
RR31_Rahimova_2017
     RDKit          3D

 44 45  0  0  0  0  0  0  0  0999 V2000
  127.9090  127.0880   71.9150 C   0  0  0  0  0  0  0  0  0  0  0  0
  128.4100  126.9690   70.4820 C   0  0  0  0  0  0  0  0  0  0  0  0
  127.5970  126.3600   69.5250 C   0  0  0  0  0  0  0  0  0  0  0  0
  128.0240  126.2390   68.2040 C   0  0  0  0  0  0  0  0  0  0  0  0
  129.2750  126.7310   67.7980 C   0  0  0  0  0  0  0  0  0  0  0  0
  129.7230  126.6080   66.4810 N   0  0  0  0  0  0  0  0  0  0  0  0
  128.9570  127.1500   65.3420 C   0  0  0  0  0  0  0  0  0  0  0  0
  129.3770  126.5740   63.9690 C   0  0  0  0  0  0  0  0  0  0  0  0
  130.8100  126.7710   63.7340 N   0  0  0  0  0  0  0  0  0  0  0  0
  131.2310  126.2670   62.4240 C   0  0  0  0  0  0  0  0  0  0  0  0
  130.1030  126.3010   61.3730 C   0  0  0  0  0  0  0  0  0  0  0  0
  129.9670  127.6800   60.7090 C   0  0  0  0  0  0  0  0  0  0  0  0
  130.8630  128.6970   61.4240 N   0  0  0  0  0  0  0  0  0  0  0  0
  131.5280  126.0590   64.7910 C   0  0  0  0  0  0  0  0  0  0  0  0
  131.1680  126.6310   66.1810 C   0  0  0  0  0  0  0  0  0  0  0  0
  130.0870  127.3320   68.7720 C   0  0  0  0  0  0  0  0  0  0  0  0
  129.6690  127.4590   70.1020 C   0  0  0  0  0  0  0  0  0  0  0  0
  130.5990  128.1200   71.1130 C   0  0  0  0  0  0  0  0  0  0  0  0
  128.7379  126.8911   72.6108 H   0  0  0  0  0  0  0  0  0  0  0  0
  127.5211  128.1033   72.0847 H   0  0  0  0  0  0  0  0  0  0  0  0
  127.1060  126.3556   72.0847 H   0  0  0  0  0  0  0  0  0  0  0  0
  126.6098  125.9718   69.8162 H   0  0  0  0  0  0  0  0  0  0  0  0
  127.3701  125.7499   67.4670 H   0  0  0  0  0  0  0  0  0  0  0  0
  127.8927  126.9223   65.5015 H   0  0  0  0  0  0  0  0  0  0  0  0
  129.1591  128.2308   65.3086 H   0  0  0  0  0  0  0  0  0  0  0  0
  129.1534  125.4972   63.9468 H   0  0  0  0  0  0  0  0  0  0  0  0
  128.8168  127.0998   63.1817 H   0  0  0  0  0  0  0  0  0  0  0  0
  132.0655  126.8857   62.0623 H   0  0  0  0  0  0  0  0  0  0  0  0
  131.5256  125.2154   62.5558 H   0  0  0  0  0  0  0  0  0  0  0  0
  130.3210  125.5539   60.5956 H   0  0  0  0  0  0  0  0  0  0  0  0
  129.1563  126.0802   61.8877 H   0  0  0  0  0  0  0  0  0  0  0  0
  130.2686  127.6074   59.6537 H   0  0  0  0  0  0  0  0  0  0  0  0
  128.9202  128.0112   60.7761 H   0  0  0  0  0  0  0  0  0  0  0  0
  131.8010  128.6580   61.0500 H   0  0  0  0  0  0  0  0  0  0  0  0
  130.8990  128.4950   62.4130 H   0  0  0  0  0  0  0  0  0  0  0  0
  130.5020  129.6320   61.2960 H   0  0  0  0  0  0  0  0  0  0  0  0
  131.2553  124.9939   64.7578 H   0  0  0  0  0  0  0  0  0  0  0  0
  132.6088  126.1830   64.6280 H   0  0  0  0  0  0  0  0  0  0  0  0
  131.6900  126.0372   66.9457 H   0  0  0  0  0  0  0  0  0  0  0  0
  131.4776  127.6865   66.1820 H   0  0  0  0  0  0  0  0  0  0  0  0
  131.0775  127.7132   68.4830 H   0  0  0  0  0  0  0  0  0  0  0  0
  130.2621  127.8805   72.1324 H   0  0  0  0  0  0  0  0  0  0  0  0
  131.6233  127.7461   70.9681 H   0  0  0  0  0  0  0  0  0  0  0  0
  130.5827  129.2103   70.9681 H   0  0  0  0  0  0  0  0  0  0  0  0
  1  2  1  0
  2  3  2  0
  3  4  1  0
  4  5  2  0
  5  6  1  0
  6  7  1  0
  7  8  1  0
  8  9  1  0
  9 10  1  0
 10 11  1  0
 11 12  1  0
 12 13  1  0
  9 14  1  0
 14 15  1  0
  5 16  1  0
 16 17  2  0
 17 18  1  0
 17  2  1  0
 15  6  1  0
  1 19  1  0
  1 20  1  0
  1 21  1  0
  3 22  1  0
  4 23  1  0
  7 24  1  0
  7 25  1  0
  8 26  1  0
  8 27  1  0
 10 28  1  0
 10 29  1  0
 11 30  1  0
 11 31  1  0
 12 32  1  0
 12 33  1  0
 13 34  1  0
 13 35  1  0
 13 36  1  0
 14 37  1  0
 14 38  1  0
 15 39  1  0
 15 40  1  0
 16 41  1  0
 18 42  1  0
 18 43  1  0
 18 44  1  0
M  CHG  1  13   1
M  END
>  <Binding energies>  (1) 
[-6.66]

>  <Ligand effiencies>  (1) 
[-0.31714285714285717]

>  <Interactions>  (1) 
["H-A:GLU:543:OE1:4906, H-A:GLU:543:OE2:4907, H-A:ASP:366:OD1:3210, V-A:GLU:543:CD:4905, V-B:GLU:543:C:9871, V-B:LYS:547:CE:9919, V-A:GLY:544:C:4909, V-A:HIS:456:CE1:4066, V-A:GLU:543:C:4899, V-B:GLU:543:CB:9875, V-B:HIS:456:CE1:9038, V-B:GLY:544:C:9881, V-B:HIS:456:CD2:9036, V-B:GLU:543:CD:9877, V-A:ARG:545:CZ:4923, H-A:ARG:545:NH2:4925"]

$$$$
RR32_Rahimova_2017
     RDKit          3D

 37 39  0  0  0  0  0  0  0  0999 V2000
  123.9980  124.2370   59.8300 C   0  0  0  0  0  0  0  0  0  0  0  0
  125.3550  123.6240   59.5010 C   0  0  0  0  0  0  0  0  0  0  0  0
  126.2540  123.4100   60.5470 C   0  0  0  0  0  0  0  0  0  0  0  0
  127.5000  122.8500   60.2840 C   0  0  0  0  0  0  0  0  0  0  0  0
  128.3890  122.6390   61.3250 N   0  0  0  0  0  0  0  0  0  0  0  0
  129.6650  121.9770   61.0000 C   0  0  0  0  0  0  0  0  0  0  0  0
  130.5060  121.6240   62.2490 C   0  0  0  0  0  0  0  0  0  0  0  0
  130.7910  122.8320   63.0240 N   0  0  0  0  0  0  0  0  0  0  0  0
  131.6100  122.5040   64.1850 C   0  0  0  0  0  0  0  0  0  0  0  0
  129.5160  123.4060   63.4490 C   0  0  0  0  0  0  0  0  0  0  0  0
  128.6580  123.7820   62.2180 C   0  0  0  0  0  0  0  0  0  0  0  0
  127.8960  122.4960   59.0340 N   0  0  0  0  0  0  0  0  0  0  0  0
  127.0430  122.6960   57.9930 C   0  0  0  0  0  0  0  0  0  0  0  0
  127.4820  122.3200   56.7000 C   0  0  0  0  0  0  0  0  0  0  0  0
  126.6530  122.5000   55.5990 C   0  0  0  0  0  0  0  0  0  0  0  0
  125.3860  123.0490   55.7520 C   0  0  0  0  0  0  0  0  0  0  0  0
  124.9240  123.4300   57.0090 C   0  0  0  0  0  0  0  0  0  0  0  0
  125.7390  123.2640   58.1660 C   0  0  0  0  0  0  0  0  0  0  0  0
  123.8756  124.2923   60.9218 H   0  0  0  0  0  0  0  0  0  0  0  0
  123.9395  125.2490   59.4028 H   0  0  0  0  0  0  0  0  0  0  0  0
  123.2000  123.6119   59.4028 H   0  0  0  0  0  0  0  0  0  0  0  0
  125.9781  123.6833   61.5762 H   0  0  0  0  0  0  0  0  0  0  0  0
  129.4471  121.0485   60.4519 H   0  0  0  0  0  0  0  0  0  0  0  0
  130.2553  122.6841   60.3987 H   0  0  0  0  0  0  0  0  0  0  0  0
  129.9460  120.9141   62.8754 H   0  0  0  0  0  0  0  0  0  0  0  0
  131.4556  121.1721   61.9264 H   0  0  0  0  0  0  0  0  0  0  0  0
  131.0494  122.7285   65.1044 H   0  0  0  0  0  0  0  0  0  0  0  0
  131.8653  121.4343   64.1632 H   0  0  0  0  0  0  0  0  0  0  0  0
  132.5331  123.1018   64.1632 H   0  0  0  0  0  0  0  0  0  0  0  0
  128.9721  122.6696   64.0588 H   0  0  0  0  0  0  0  0  0  0  0  0
  129.7117  124.3137   64.0387 H   0  0  0  0  0  0  0  0  0  0  0  0
  127.6967  124.1831   62.5715 H   0  0  0  0  0  0  0  0  0  0  0  0
  129.2271  124.5230   61.6374 H   0  0  0  0  0  0  0  0  0  0  0  0
  128.4830  121.8838   56.5666 H   0  0  0  0  0  0  0  0  0  0  0  0
  127.0029  122.2054   54.5986 H   0  0  0  0  0  0  0  0  0  0  0  0
  124.7412  123.1841   54.8711 H   0  0  0  0  0  0  0  0  0  0  0  0
  123.9183  123.8641   57.1101 H   0  0  0  0  0  0  0  0  0  0  0  0
  1  2  1  0
  2  3  2  0
  3  4  1  0
  4  5  1  0
  5  6  1  0
  6  7  1  0
  7  8  1  0
  8  9  1  0
  8 10  1  0
 10 11  1  0
  4 12  2  0
 12 13  1  0
 13 14  2  0
 14 15  1  0
 15 16  2  0
 16 17  1  0
 17 18  2  0
 18  2  1  0
 11  5  1  0
 18 13  1  0
  1 19  1  0
  1 20  1  0
  1 21  1  0
  3 22  1  0
  6 23  1  0
  6 24  1  0
  7 25  1  0
  7 26  1  0
  9 27  1  0
  9 28  1  0
  9 29  1  0
 10 30  1  0
 10 31  1  0
 11 32  1  0
 11 33  1  0
 14 34  1  0
 15 35  1  0
 16 36  1  0
 17 37  1  0
M  END
>  <Binding energies>  (1) 
[-6.52]

>  <Ligand effiencies>  (1) 
[-0.3622222222222222]

>  <Interactions>  (1) 
["V-B:TYR:539:CE1:9844, V-B:PRO:540:CA:9852, V-B:ASN:362:C:8140, V-B:PRO:540:N:9853, V-B:PRO:540:CB:9854, V-B:LEU:363:CD1:8157, V-B:LEU:363:CA:8153, V-B:ALA:541:CB:9861, V-B:GLU:543:CD:9877, V-B:GLU:543:CG:9876, V-A:TYR:484:CZ:4343, V-B:TYR:539:CE2:9845, V-A:TYR:484:CE1:4341, V-B:ILE:538:CG2:9832, V-B:ILE:538:CB:9831, V-A:LEU:475:CD1:4254, V-B:TYR:539:C:9836, V-B:TYR:539:CD2:9843, V-B:ILE:538:CA:9829, V-B:TYR:539:CD1:9842, V-A:LEU:475:CD2:4255, V-A:LEU:475:CG:4253"]

$$$$
RR32_Rahimova_2017-again1
     RDKit          3D

 38 40  0  0  0  0  0  0  0  0999 V2000
  124.0430  124.2210   59.7450 C   0  0  0  0  0  0  0  0  0  0  0  0
  125.4180  123.6210   59.4830 C   0  0  0  0  0  0  0  0  0  0  0  0
  126.3130  123.4270   60.5350 C   0  0  0  0  0  0  0  0  0  0  0  0
  127.5740  122.8720   60.2920 C   0  0  0  0  0  0  0  0  0  0  0  0
  128.4910  122.6770   61.3300 N   0  0  0  0  0  0  0  0  0  0  0  0
  129.8380  122.1450   61.0460 C   0  0  0  0  0  0  0  0  0  0  0  0
  130.8460  123.2550   60.6600 C   0  0  0  0  0  0  0  0  0  0  0  0
  130.9720  124.2350   61.8430 N   0  0  0  0  0  0  0  0  0  0  0  0
  131.9530  125.3750   61.5060 C   0  0  0  0  0  0  0  0  0  0  0  0
  129.5730  124.7990   62.1680 C   0  0  0  0  0  0  0  0  0  0  0  0
  128.6220  123.6160   62.4650 C   0  0  0  0  0  0  0  0  0  0  0  0
  127.9690  122.5350   59.0330 N   0  0  0  0  0  0  0  0  0  0  0  0
  127.1170  122.7110   57.9870 C   0  0  0  0  0  0  0  0  0  0  0  0
  127.5560  122.3360   56.6950 C   0  0  0  0  0  0  0  0  0  0  0  0
  126.7150  122.4960   55.5960 C   0  0  0  0  0  0  0  0  0  0  0  0
  125.4390  123.0250   55.7540 C   0  0  0  0  0  0  0  0  0  0  0  0
  124.9790  123.4050   57.0130 C   0  0  0  0  0  0  0  0  0  0  0  0
  125.8080  123.2560   58.1590 C   0  0  0  0  0  0  0  0  0  0  0  0
  123.8755  124.2941   60.8297 H   0  0  0  0  0  0  0  0  0  0  0  0
  123.9894  125.2243   59.2973 H   0  0  0  0  0  0  0  0  0  0  0  0
  123.2710  123.5780   59.2973 H   0  0  0  0  0  0  0  0  0  0  0  0
  126.0266  123.7111   61.5584 H   0  0  0  0  0  0  0  0  0  0  0  0
  130.2093  121.6281   61.9432 H   0  0  0  0  0  0  0  0  0  0  0  0
  129.7524  121.4596   60.1899 H   0  0  0  0  0  0  0  0  0  0  0  0
  131.8269  122.8065   60.4438 H   0  0  0  0  0  0  0  0  0  0  0  0
  130.4941  123.7886   59.7647 H   0  0  0  0  0  0  0  0  0  0  0  0
  131.3070  123.7260   62.6470 H   0  0  0  0  0  0  0  0  0  0  0  0
  132.3343  125.8181   62.4378 H   0  0  0  0  0  0  0  0  0  0  0  0
  132.7932  124.9744   60.9198 H   0  0  0  0  0  0  0  0  0  0  0  0
  131.4316  126.1461   60.9198 H   0  0  0  0  0  0  0  0  0  0  0  0
  129.6334  125.4561   63.0481 H   0  0  0  0  0  0  0  0  0  0  0  0
  129.1945  125.3810   61.3148 H   0  0  0  0  0  0  0  0  0  0  0  0
  129.0111  123.0636   63.3330 H   0  0  0  0  0  0  0  0  0  0  0  0
  127.6246  124.0378   62.6581 H   0  0  0  0  0  0  0  0  0  0  0  0
  128.5639  121.9171   56.5582 H   0  0  0  0  0  0  0  0  0  0  0  0
  127.0633  122.2014   54.5951 H   0  0  0  0  0  0  0  0  0  0  0  0
  124.7864  123.1447   54.8766 H   0  0  0  0  0  0  0  0  0  0  0  0
  123.9674  123.8233   57.1214 H   0  0  0  0  0  0  0  0  0  0  0  0
  1  2  1  0
  2  3  2  0
  3  4  1  0
  4  5  1  0
  5  6  1  0
  6  7  1  0
  7  8  1  0
  8  9  1  0
  8 10  1  0
 10 11  1  0
  4 12  2  0
 12 13  1  0
 13 14  2  0
 14 15  1  0
 15 16  2  0
 16 17  1  0
 17 18  2  0
 18  2  1  0
 11  5  1  0
 18 13  1  0
  1 19  1  0
  1 20  1  0
  1 21  1  0
  3 22  1  0
  6 23  1  0
  6 24  1  0
  7 25  1  0
  7 26  1  0
  8 27  1  0
  9 28  1  0
  9 29  1  0
  9 30  1  0
 10 31  1  0
 10 32  1  0
 11 33  1  0
 11 34  1  0
 14 35  1  0
 15 36  1  0
 16 37  1  0
 17 38  1  0
M  CHG  1   8   1
M  END
>  <Binding energies>  (1) 
[-6.45]

>  <Ligand effiencies>  (1) 
[-0.3394736842105263]

>  <Interactions>  (1) 
["V-A:ASP:366:CG:3209, V-B:TYR:539:CE1:9844, V-B:MET:535:CE:9804, V-B:PRO:540:CA:9852, V-B:TYR:539:CZ:9846, V-B:ASN:362:C:8140, V-B:PRO:540:N:9853, V-B:PRO:540:CB:9854, V-B:LEU:363:CD1:8157, V-B:LEU:363:CA:8153, V-B:ALA:541:CB:9861, V-B:GLU:543:CD:9877, V-B:GLU:543:CG:9876, V-B:TYR:539:CE2:9845, V-B:ILE:538:CG2:9832, V-B:ILE:538:CB:9831, V-B:TYR:539:C:9836, V-B:TYR:539:CD2:9843, V-B:ILE:538:CA:9829, V-B:TYR:539:CD1:9842"]

$$$$
RR32_Rahimova_2017-again2
     RDKit          3D

 39 41  0  0  0  0  0  0  0  0999 V2000
  128.1620  122.5730   60.0920 C   0  0  0  0  0  0  0  0  0  0  0  0
  127.5230  123.9540   60.1430 C   0  0  0  0  0  0  0  0  0  0  0  0
  128.1040  124.9680   60.9100 C   0  0  0  0  0  0  0  0  0  0  0  0
  127.5280  126.2440   60.9740 C   0  0  0  0  0  0  0  0  0  0  0  0
  128.0950  127.3270   61.7370 N   0  0  0  0  0  0  0  0  0  0  0  0
  127.9270  127.3890   63.2140 C   0  0  0  0  0  0  0  0  0  0  0  0
  129.0220  126.5510   63.9270 C   0  0  0  0  0  0  0  0  0  0  0  0
  130.4190  127.0970   63.5460 N   0  0  0  0  0  0  0  0  0  0  0  0
  131.5360  126.2530   64.1910 C   0  0  0  0  0  0  0  0  0  0  0  0
  130.5750  127.1380   62.0070 C   0  0  0  0  0  0  0  0  0  0  0  0
  129.4000  127.9480   61.3960 C   0  0  0  0  0  0  0  0  0  0  0  0
  126.4010  126.4630   60.2670 N   0  0  0  0  0  0  0  0  0  0  0  0
  125.7600  125.5300   59.4860 C   0  0  0  0  0  0  0  0  0  0  0  0
  124.5790  125.8650   58.7850 C   0  0  0  0  0  0  0  0  0  0  0  0
  123.9590  124.8960   58.0010 C   0  0  0  0  0  0  0  0  0  0  0  0
  124.4910  123.6120   57.9070 C   0  0  0  0  0  0  0  0  0  0  0  0
  125.6550  123.2670   58.5940 C   0  0  0  0  0  0  0  0  0  0  0  0
  126.3260  124.2230   59.4080 C   0  0  0  0  0  0  0  0  0  0  0  0
  128.3305  122.2089   61.1162 H   0  0  0  0  0  0  0  0  0  0  0  0
  127.4935  121.8790   59.5615 H   0  0  0  0  0  0  0  0  0  0  0  0
  129.1237  122.6333   59.5615 H   0  0  0  0  0  0  0  0  0  0  0  0
  129.0270  124.7613   61.4716 H   0  0  0  0  0  0  0  0  0  0  0  0
  128.0028  128.4361   63.5423 H   0  0  0  0  0  0  0  0  0  0  0  0
  126.9409  126.9773   63.4751 H   0  0  0  0  0  0  0  0  0  0  0  0
  128.8857  126.6205   65.0163 H   0  0  0  0  0  0  0  0  0  0  0  0
  128.9412  125.4996   63.6138 H   0  0  0  0  0  0  0  0  0  0  0  0
  130.4830  128.0470   63.8870 H   0  0  0  0  0  0  0  0  0  0  0  0
  131.4555  126.3139   65.2864 H   0  0  0  0  0  0  0  0  0  0  0  0
  131.4334  125.2048   63.8735 H   0  0  0  0  0  0  0  0  0  0  0  0
  132.5163  126.6380   63.8735 H   0  0  0  0  0  0  0  0  0  0  0  0
  131.5288  127.6202   61.7466 H   0  0  0  0  0  0  0  0  0  0  0  0
  130.5647  126.1133   61.6072 H   0  0  0  0  0  0  0  0  0  0  0  0
  129.4252  128.9739   61.7922 H   0  0  0  0  0  0  0  0  0  0  0  0
  129.5102  127.9562   60.3016 H   0  0  0  0  0  0  0  0  0  0  0  0
  126.0000  127.3880   60.3100 H   0  0  0  0  0  0  0  0  0  0  0  0
  124.1557  126.8776   58.8580 H   0  0  0  0  0  0  0  0  0  0  0  0
  123.0402  125.1466   57.4505 H   0  0  0  0  0  0  0  0  0  0  0  0
  123.9864  122.8600   57.2826 H   0  0  0  0  0  0  0  0  0  0  0  0
  126.0580  122.2473   58.5060 H   0  0  0  0  0  0  0  0  0  0  0  0
  1  2  1  0
  2  3  2  0
  3  4  1  0
  4  5  1  0
  5  6  1  0
  6  7  1  0
  7  8  1  0
  8  9  1  0
  8 10  1  0
 10 11  1  0
  4 12  2  0
 12 13  1  0
 13 14  2  0
 14 15  1  0
 15 16  2  0
 16 17  1  0
 17 18  2  0
 18  2  1  0
 11  5  1  0
 18 13  1  0
  1 19  1  0
  1 20  1  0
  1 21  1  0
  3 22  1  0
  6 23  1  0
  6 24  1  0
  7 25  1  0
  7 26  1  0
  8 27  1  0
  9 28  1  0
  9 29  1  0
  9 30  1  0
 10 31  1  0
 10 32  1  0
 11 33  1  0
 11 34  1  0
 12 35  1  0
 14 36  1  0
 15 37  1  0
 16 38  1  0
 17 39  1  0
M  CHG  2   8   1  12   1
M  END
>  <Binding energies>  (1) 
[-7.32]

>  <Ligand effiencies>  (1) 
[-0.366]

>  <Interactions>  (1) 
["H-A:GLU:543:OE1:4906, H-A:GLU:543:OE2:4907, V-A:GLU:543:CD:4905, V-B:ASP:366:CB:8180, V-B:PRO:540:CA:9852, V-B:TYR:531:CE2:9762, H-B:ASP:366:OD1:8182, V-B:PRO:540:N:9853, V-B:PRO:540:CB:9854, V-B:ASP:366:CG:8181, V-B:LEU:363:CD1:8157, V-B:LEU:363:CA:8153, V-B:ALA:541:CB:9861, V-B:GLU:543:CD:9877, V-A:ARG:545:CZ:4923"]

$$$$
RR33_Rahimova_2017
     RDKit          3D

 36 37  0  0  0  0  0  0  0  0999 V2000
  134.9910  125.1170   66.2240 C   0  0  0  0  0  0  0  0  0  0  0  0
  133.6540  125.1610   65.4790 C   0  0  0  0  0  0  0  0  0  0  0  0
  133.8150  124.5310   64.2110 O   0  0  0  0  0  0  0  0  0  0  0  0
  132.6970  124.2120   63.4650 C   0  0  0  0  0  0  0  0  0  0  0  0
  132.6720  124.6800   62.1520 C   0  0  0  0  0  0  0  0  0  0  0  0
  131.5850  124.4120   61.3250 C   0  0  0  0  0  0  0  0  0  0  0  0
  130.5020  123.6680   61.8020 C   0  0  0  0  0  0  0  0  0  0  0  0
  129.3340  123.3810   60.9130 C   0  0  0  0  0  0  0  0  0  0  0  0
  128.0600  123.5640   61.1770 N   0  0  0  0  0  0  0  0  0  0  0  0
  127.4170  123.1680   60.0900 C   0  0  0  0  0  0  0  0  0  0  0  0
  125.9070  123.2400   60.0100 C   0  0  0  0  0  0  0  0  0  0  0  0
  125.3220  123.2560   61.3430 N   0  0  0  0  0  0  0  0  0  0  0  0
  124.1080  124.0540   61.3610 C   0  0  0  0  0  0  0  0  0  0  0  0
  128.3310  122.7310   59.1400 C   0  0  0  0  0  0  0  0  0  0  0  0
  128.2410  122.1800   57.7380 C   0  0  0  0  0  0  0  0  0  0  0  0
  129.5660  122.8700   59.6750 O   0  0  0  0  0  0  0  0  0  0  0  0
  130.5240  123.1940   63.1170 C   0  0  0  0  0  0  0  0  0  0  0  0
  131.6120  123.4630   63.9450 C   0  0  0  0  0  0  0  0  0  0  0  0
  134.8068  125.1231   67.3085 H   0  0  0  0  0  0  0  0  0  0  0  0
  135.5338  124.2005   65.9494 H   0  0  0  0  0  0  0  0  0  0  0  0
  135.5929  125.9958   65.9494 H   0  0  0  0  0  0  0  0  0  0  0  0
  132.8880  124.6286   66.0620 H   0  0  0  0  0  0  0  0  0  0  0  0
  133.3370  126.2052   65.3405 H   0  0  0  0  0  0  0  0  0  0  0  0
  133.5189  125.2663   61.7661 H   0  0  0  0  0  0  0  0  0  0  0  0
  131.5782  124.7875   60.2911 H   0  0  0  0  0  0  0  0  0  0  0  0
  125.6168  124.1575   59.4771 H   0  0  0  0  0  0  0  0  0  0  0  0
  125.5384  122.3540   59.4723 H   0  0  0  0  0  0  0  0  0  0  0  0
  125.9860  123.6550   61.9930 H   0  0  0  0  0  0  0  0  0  0  0  0
  123.8124  124.2483   62.4026 H   0  0  0  0  0  0  0  0  0  0  0  0
  124.2896  125.0094   60.8470 H   0  0  0  0  0  0  0  0  0  0  0  0
  123.3029  123.5084   60.8470 H   0  0  0  0  0  0  0  0  0  0  0  0
  128.0638  121.0952   57.7810 H   0  0  0  0  0  0  0  0  0  0  0  0
  127.4104  122.6664   57.2055 H   0  0  0  0  0  0  0  0  0  0  0  0
  129.1832  122.3768   57.2055 H   0  0  0  0  0  0  0  0  0  0  0  0
  129.6775  122.6053   63.5003 H   0  0  0  0  0  0  0  0  0  0  0  0
  131.6203  123.0868   64.9786 H   0  0  0  0  0  0  0  0  0  0  0  0
  1  2  1  0
  2  3  1  0
  3  4  1  0
  4  5  2  0
  5  6  1  0
  6  7  2  0
  7  8  1  0
  8  9  2  0
  9 10  1  0
 10 11  1  0
 11 12  1  0
 12 13  1  0
 10 14  2  0
 14 15  1  0
 14 16  1  0
  7 17  1  0
 17 18  2  0
 18  4  1  0
 16  8  1  0
  1 19  1  0
  1 20  1  0
  1 21  1  0
  2 22  1  0
  2 23  1  0
  5 24  1  0
  6 25  1  0
 11 26  1  0
 11 27  1  0
 12 28  1  0
 13 29  1  0
 13 30  1  0
 13 31  1  0
 15 32  1  0
 15 33  1  0
 15 34  1  0
 17 35  1  0
 18 36  1  0
M  END
>  <Binding energies>  (1) 
[-5.89]

>  <Ligand effiencies>  (1) 
[-0.31]

>  <Interactions>  (1) 
["V-A:ASP:366:CG:3209, V-A:HIS:456:CE1:4066, V-B:ASN:362:CB:8144, V-B:TYR:539:CE1:9844, V-B:PRO:540:CA:9852, V-B:TYR:539:CZ:9846, V-B:ASN:362:C:8140, V-B:PRO:540:N:9853, V-B:PRO:540:C:9850, V-B:PRO:540:CB:9854, H-B:GLU:543:OE2:9879, H-B:TYR:539:OH:9847, V-B:GLU:543:CD:9877, V-A:ARG:545:CZ:4923, V-A:ARG:545:CD:4920, V-B:TYR:539:CE2:9845, V-A:ARG:545:CG:4919, H-B:ALA:541:N:9860, V-B:TYR:539:C:9836, V-B:TYR:539:CD2:9843, V-B:TYR:539:CD1:9842, V-B:TYR:539:CG:9841, H-A:GLY:454:N:4046, V-A:GLY:454:CA:4045, V-B:ARG:545:CZ:9895, V-A:GLY:453:C:4038, V-A:GLY:453:CA:4040, H-A:TYR:484:OH:4344, V-A:GLY:454:C:4043, V-A:ILE:455:C:4048"]

$$$$
RR33_Rahimova_2017-again1
     RDKit          3D

 37 38  0  0  0  0  0  0  0  0999 V2000
  128.2470  129.3120   73.7610 C   0  0  0  0  0  0  0  0  0  0  0  0
  128.2350  127.7820   73.7040 C   0  0  0  0  0  0  0  0  0  0  0  0
  129.3850  127.3400   72.9900 O   0  0  0  0  0  0  0  0  0  0  0  0
  129.3320  127.2400   71.6130 C   0  0  0  0  0  0  0  0  0  0  0  0
  130.3880  127.8170   70.9060 C   0  0  0  0  0  0  0  0  0  0  0  0
  130.4220  127.7660   69.5150 C   0  0  0  0  0  0  0  0  0  0  0  0
  129.3940  127.1360   68.8080 C   0  0  0  0  0  0  0  0  0  0  0  0
  129.4270  127.0780   67.3140 C   0  0  0  0  0  0  0  0  0  0  0  0
  128.5950  127.6480   66.4700 N   0  0  0  0  0  0  0  0  0  0  0  0
  129.0320  127.3150   65.2650 C   0  0  0  0  0  0  0  0  0  0  0  0
  128.3130  127.7810   64.0130 C   0  0  0  0  0  0  0  0  0  0  0  0
  126.8600  128.1360   64.3700 N   0  0  0  0  0  0  0  0  0  0  0  0
  126.4460  129.5460   63.9270 C   0  0  0  0  0  0  0  0  0  0  0  0
  130.1600  126.5120   65.3860 C   0  0  0  0  0  0  0  0  0  0  0  0
  131.0950  125.8200   64.4260 C   0  0  0  0  0  0  0  0  0  0  0  0
  130.4110  126.3650   66.7090 O   0  0  0  0  0  0  0  0  0  0  0  0
  128.3330  126.5560   69.5130 C   0  0  0  0  0  0  0  0  0  0  0  0
  128.3000  126.6070   70.9030 C   0  0  0  0  0  0  0  0  0  0  0  0
  128.2496  129.6398   74.8110 H   0  0  0  0  0  0  0  0  0  0  0  0
  129.1481  129.6907   73.2565 H   0  0  0  0  0  0  0  0  0  0  0  0
  127.3519  129.7048   73.2565 H   0  0  0  0  0  0  0  0  0  0  0  0
  128.2546  127.3739   74.7253 H   0  0  0  0  0  0  0  0  0  0  0  0
  127.3234  127.4342   73.1961 H   0  0  0  0  0  0  0  0  0  0  0  0
  131.2011  128.3168   71.4529 H   0  0  0  0  0  0  0  0  0  0  0  0
  131.2612  128.2233   68.9704 H   0  0  0  0  0  0  0  0  0  0  0  0
  128.8197  128.6685   63.6060 H   0  0  0  0  0  0  0  0  0  0  0  0
  128.3243  126.9800   63.2592 H   0  0  0  0  0  0  0  0  0  0  0  0
  126.2450  127.4620   63.9380 H   0  0  0  0  0  0  0  0  0  0  0  0
  126.7480  128.0620   65.3720 H   0  0  0  0  0  0  0  0  0  0  0  0
  126.2628  130.1700   64.8141 H   0  0  0  0  0  0  0  0  0  0  0  0
  127.2510  129.9923   63.3247 H   0  0  0  0  0  0  0  0  0  0  0  0
  125.5275  129.4862   63.3247 H   0  0  0  0  0  0  0  0  0  0  0  0
  131.8529  125.2591   64.9925 H   0  0  0  0  0  0  0  0  0  0  0  0
  130.5227  125.1262   63.7927 H   0  0  0  0  0  0  0  0  0  0  0  0
  131.5913  126.5700   63.7927 H   0  0  0  0  0  0  0  0  0  0  0  0
  127.5204  126.0569   68.9648 H   0  0  0  0  0  0  0  0  0  0  0  0
  127.4613  126.1491   71.4479 H   0  0  0  0  0  0  0  0  0  0  0  0
  1  2  1  0
  2  3  1  0
  3  4  1  0
  4  5  2  0
  5  6  1  0
  6  7  2  0
  7  8  1  0
  8  9  2  0
  9 10  1  0
 10 11  1  0
 11 12  1  0
 12 13  1  0
 10 14  2  0
 14 15  1  0
 14 16  1  0
  7 17  1  0
 17 18  2  0
 18  4  1  0
 16  8  1  0
  1 19  1  0
  1 20  1  0
  1 21  1  0
  2 22  1  0
  2 23  1  0
  5 24  1  0
  6 25  1  0
 11 26  1  0
 11 27  1  0
 12 28  1  0
 12 29  1  0
 13 30  1  0
 13 31  1  0
 13 32  1  0
 15 33  1  0
 15 34  1  0
 15 35  1  0
 17 36  1  0
 18 37  1  0
M  CHG  1  12   1
M  END
>  <Binding energies>  (1) 
[-6.39]

>  <Ligand effiencies>  (1) 
[-0.3195]

>  <Interactions>  (1) 
["V-A:GLU:543:CD:4905, V-B:LYS:547:CE:9919, V-A:LYS:547:CE:4947, H-A:LYS:547:NZ:4948, V-A:GLY:544:C:4909, V-A:HIS:456:CE1:4066, V-A:GLU:543:C:4899, V-A:HIS:456:CD2:4064, V-B:HIS:456:CE1:9038, V-B:HIS:456:CD2:9036, H-B:GLU:543:OE2:9879, H-B:GLU:543:OE1:9878, V-B:GLU:543:CD:9877"]

$$$$
RR3_Rahimova_2017
     RDKit          3D

 63 69  0  0  0  0  0  0  0  0999 V2000
  123.9910  132.7320   62.8500 C   0  0  0  0  0  0  0  0  0  0  0  0
  123.8010  131.4510   62.3410 C   0  0  0  0  0  0  0  0  0  0  0  0
  124.7030  130.4410   62.6630 C   0  0  0  0  0  0  0  0  0  0  0  0
  125.8020  130.6960   63.4960 C   0  0  0  0  0  0  0  0  0  0  0  0
  126.7710  129.6080   63.8420 C   0  0  0  0  0  0  0  0  0  0  0  0
  127.2050  129.4230   65.1610 C   0  0  0  0  0  0  0  0  0  0  0  0
  128.1080  128.4140   65.4820 C   0  0  0  0  0  0  0  0  0  0  0  0
  128.6050  127.5680   64.4860 C   0  0  0  0  0  0  0  0  0  0  0  0
  129.5800  126.4840   64.8240 C   0  0  0  0  0  0  0  0  0  0  0  0
  130.1420  125.7710   63.8540 N   0  0  0  0  0  0  0  0  0  0  0  0
  130.9730  124.9390   64.4350 C   0  0  0  0  0  0  0  0  0  0  0  0
  131.8080  123.9620   63.7410 C   0  0  0  0  0  0  0  0  0  0  0  0
  132.3590  122.8230   64.3030 C   0  0  0  0  0  0  0  0  0  0  0  0
  133.0780  122.1320   63.3620 N   0  0  0  0  0  0  0  0  0  0  0  0
  133.0250  122.7910   62.1540 C   0  0  0  0  0  0  0  0  0  0  0  0
  133.5960  122.4770   60.9160 C   0  0  0  0  0  0  0  0  0  0  0  0
  133.3550  123.3610   59.8650 C   0  0  0  0  0  0  0  0  0  0  0  0
  132.5850  124.5070   60.0320 C   0  0  0  0  0  0  0  0  0  0  0  0
  132.0160  124.8210   61.2650 C   0  0  0  0  0  0  0  0  0  0  0  0
  132.2270  123.9610   62.3590 C   0  0  0  0  0  0  0  0  0  0  0  0
  130.9550  125.0970   65.7930 N   0  0  0  0  0  0  0  0  0  0  0  0
  130.0430  126.0780   66.0870 C   0  0  0  0  0  0  0  0  0  0  0  0
  129.7100  126.4830   67.4860 C   0  0  0  0  0  0  0  0  0  0  0  0
  128.6520  125.8690   68.1590 C   0  0  0  0  0  0  0  0  0  0  0  0
  128.3310  126.2520   69.4570 C   0  0  0  0  0  0  0  0  0  0  0  0
  129.0600  127.2530   70.1150 C   0  0  0  0  0  0  0  0  0  0  0  0
  128.6990  127.6760   71.5040 C   0  0  0  0  0  0  0  0  0  0  0  0
  129.3330  128.7720   72.1100 C   0  0  0  0  0  0  0  0  0  0  0  0
  128.9930  129.1680   73.4020 C   0  0  0  0  0  0  0  0  0  0  0  0
  128.0140  128.4710   74.1020 C   0  0  0  0  0  0  0  0  0  0  0  0
  127.3720  127.3830   73.5200 C   0  0  0  0  0  0  0  0  0  0  0  0
  127.7150  126.9880   72.2300 C   0  0  0  0  0  0  0  0  0  0  0  0
  130.1310  127.8490   69.4340 C   0  0  0  0  0  0  0  0  0  0  0  0
  130.4550  127.4690   68.1350 C   0  0  0  0  0  0  0  0  0  0  0  0
  128.1680  127.7360   63.1710 C   0  0  0  0  0  0  0  0  0  0  0  0
  127.2650  128.7470   62.8530 C   0  0  0  0  0  0  0  0  0  0  0  0
  125.9740  131.9950   63.9960 C   0  0  0  0  0  0  0  0  0  0  0  0
  125.0750  133.0080   63.6770 C   0  0  0  0  0  0  0  0  0  0  0  0
  123.2794  133.5317   62.5968 H   0  0  0  0  0  0  0  0  0  0  0  0
  122.9423  131.2376   61.6875 H   0  0  0  0  0  0  0  0  0  0  0  0
  124.5518  129.4292   62.2587 H   0  0  0  0  0  0  0  0  0  0  0  0
  126.8267  130.0846   65.9542 H   0  0  0  0  0  0  0  0  0  0  0  0
  128.4324  128.2814   66.5247 H   0  0  0  0  0  0  0  0  0  0  0  0
  132.2375  122.5167   65.3525 H   0  0  0  0  0  0  0  0  0  0  0  0
  133.5570  121.2690   63.5720 H   0  0  0  0  0  0  0  0  0  0  0  0
  134.2077  121.5732   60.7779 H   0  0  0  0  0  0  0  0  0  0  0  0
  133.7860  123.1459   58.8761 H   0  0  0  0  0  0  0  0  0  0  0  0
  132.4221  125.1777   59.1755 H   0  0  0  0  0  0  0  0  0  0  0  0
  131.4088  125.7308   61.3818 H   0  0  0  0  0  0  0  0  0  0  0  0
  131.4940  124.5670   66.4620 H   0  0  0  0  0  0  0  0  0  0  0  0
  128.0702  125.0795   67.6609 H   0  0  0  0  0  0  0  0  0  0  0  0
  127.4931  125.7625   69.9749 H   0  0  0  0  0  0  0  0  0  0  0  0
  130.1076  129.3249   71.5583 H   0  0  0  0  0  0  0  0  0  0  0  0
  129.4969  130.0285   73.8664 H   0  0  0  0  0  0  0  0  0  0  0  0
  127.7457  128.7821   75.1224 H   0  0  0  0  0  0  0  0  0  0  0  0
  126.5963  126.8369   74.0769 H   0  0  0  0  0  0  0  0  0  0  0  0
  127.2079  126.1251   71.7738 H   0  0  0  0  0  0  0  0  0  0  0  0
  130.7241  128.6288   69.9341 H   0  0  0  0  0  0  0  0  0  0  0  0
  131.3004  127.9469   67.6184 H   0  0  0  0  0  0  0  0  0  0  0  0
  128.5391  127.0659   62.3815 H   0  0  0  0  0  0  0  0  0  0  0  0
  126.9349  128.8715   61.8111 H   0  0  0  0  0  0  0  0  0  0  0  0
  126.8311  132.2160   64.6491 H   0  0  0  0  0  0  0  0  0  0  0  0
  125.2208  134.0223   64.0769 H   0  0  0  0  0  0  0  0  0  0  0  0
  1  2  2  0
  2  3  1  0
  3  4  2  0
  4  5  1  0
  5  6  2  0
  6  7  1  0
  7  8  2  0
  8  9  1  0
  9 10  1  0
 10 11  2  0
 11 12  1  0
 12 13  2  0
 13 14  1  0
 14 15  1  0
 15 16  2  0
 16 17  1  0
 17 18  2  0
 18 19  1  0
 19 20  2  0
 11 21  1  0
 21 22  1  0
 22 23  1  0
 23 24  2  0
 24 25  1  0
 25 26  2  0
 26 27  1  0
 27 28  2  0
 28 29  1  0
 29 30  2  0
 30 31  1  0
 31 32  2  0
 26 33  1  0
 33 34  2  0
  8 35  1  0
 35 36  2  0
  4 37  1  0
 37 38  2  0
 38  1  1  0
 36  5  1  0
 22  9  2  0
 34 23  1  0
 20 12  1  0
 32 27  1  0
 20 15  1  0
  1 39  1  0
  2 40  1  0
  3 41  1  0
  6 42  1  0
  7 43  1  0
 13 44  1  0
 14 45  1  0
 16 46  1  0
 17 47  1  0
 18 48  1  0
 19 49  1  0
 21 50  1  0
 24 51  1  0
 25 52  1  0
 28 53  1  0
 29 54  1  0
 30 55  1  0
 31 56  1  0
 32 57  1  0
 33 58  1  0
 34 59  1  0
 35 60  1  0
 36 61  1  0
 37 62  1  0
 38 63  1  0
M  END
>  <Binding energies>  (1) 
[-10.22]

>  <Ligand effiencies>  (1) 
[-0.2555]

>  <Interactions>  (1) 
["V-A:ASP:366:CB:3208, V-A:ASP:366:CG:3209, V-A:GLU:543:CD:4905, V-B:LEU:475:CD2:9227, V-B:GLU:543:C:9871, V-B:LYS:547:CE:9919, V-A:LYS:547:CE:4947, V-A:HIS:456:CE1:4066, V-A:GLU:543:C:4899, V-A:GLU:543:CB:4903, V-B:GLU:543:CB:9875, V-B:HIS:456:CE1:9038, V-B:HIS:456:CD2:9036, V-B:TYR:539:CZ:9846, V-B:ASP:366:CG:8181, V-B:GLU:543:CD:9877, V-A:TYR:484:CZ:4343, V-B:TYR:539:CE2:9845, V-A:LEU:475:CD1:4254, V-A:ILE:369:CB:3232, V-B:ILE:369:CD1:8207, V-A:ILE:369:CG2:3233, V-A:GLY:454:CA:4045, H-A:TYR:484:OH:4344, V-B:GLY:454:CA:9017, V-B:LYS:547:CD:9918, H-A:HIS:456:NE2:4067, V-A:LEU:475:CG:4253"]

$$$$
RR4_Rahimova_2017
     RDKit          3D

 66 70  0  0  0  0  0  0  0  0999 V2000
  128.5700  127.3860   73.8520 C   0  0  0  0  0  0  0  0  0  0  0  0
  129.6910  127.0430   73.0450 O   0  0  0  0  0  0  0  0  0  0  0  0
  129.5830  127.1290   71.6700 C   0  0  0  0  0  0  0  0  0  0  0  0
  128.4400  126.5760   71.0970 C   0  0  0  0  0  0  0  0  0  0  0  0
  128.2460  126.6170   69.7200 C   0  0  0  0  0  0  0  0  0  0  0  0
  129.1930  127.2120   68.8730 C   0  0  0  0  0  0  0  0  0  0  0  0
  128.9800  127.2530   67.3860 C   0  0  0  0  0  0  0  0  0  0  0  0
  128.0720  128.1240   66.7750 C   0  0  0  0  0  0  0  0  0  0  0  0
  127.9130  128.1280   65.3830 C   0  0  0  0  0  0  0  0  0  0  0  0
  126.9460  129.1050   64.7990 C   0  0  0  0  0  0  0  0  0  0  0  0
  125.5700  128.8850   64.9140 C   0  0  0  0  0  0  0  0  0  0  0  0
  124.6620  129.7970   64.3830 C   0  0  0  0  0  0  0  0  0  0  0  0
  125.1090  130.9470   63.7330 C   0  0  0  0  0  0  0  0  0  0  0  0
  124.1360  131.7940   63.2390 O   0  0  0  0  0  0  0  0  0  0  0  0
  123.8230  131.7570   61.8500 C   0  0  0  0  0  0  0  0  0  0  0  0
  126.4890  131.1750   63.6210 C   0  0  0  0  0  0  0  0  0  0  0  0
  127.3960  130.2620   64.1530 C   0  0  0  0  0  0  0  0  0  0  0  0
  128.6710  127.2100   64.6150 C   0  0  0  0  0  0  0  0  0  0  0  0
  128.5440  127.1730   63.1550 C   0  0  0  0  0  0  0  0  0  0  0  0
  128.4430  127.1430   62.0020 N   0  0  0  0  0  0  0  0  0  0  0  0
  129.5480  126.3390   65.3010 C   0  0  0  0  0  0  0  0  0  0  0  0
  130.5650  125.1160   64.5000 S   0  0  0  0  0  0  0  0  0  0  0  0
  129.4780  123.7550   63.9600 C   0  0  0  0  0  0  0  0  0  0  0  0
  129.4910  123.4910   62.4480 C   0  0  0  0  0  0  0  0  0  0  0  0
  130.5470  123.2320   61.8670 O   0  0  0  0  0  0  0  0  0  0  0  0
  128.2820  123.5830   61.8460 N   0  0  0  0  0  0  0  0  0  0  0  0
  127.9670  123.3980   60.4980 C   0  0  0  0  0  0  0  0  0  0  0  0
  129.1740  123.3190   59.2430 S   0  0  0  0  0  0  0  0  0  0  0  0
  127.9650  123.1010   58.0160 C   0  0  0  0  0  0  0  0  0  0  0  0
  126.6720  123.0940   58.5610 C   0  0  0  0  0  0  0  0  0  0  0  0
  126.6760  123.2470   59.9690 C   0  0  0  0  0  0  0  0  0  0  0  0
  125.4620  123.2540   60.7800 C   0  0  0  0  0  0  0  0  0  0  0  0
  124.5000  123.2610   61.4220 N   0  0  0  0  0  0  0  0  0  0  0  0
  125.4330  122.8790   57.6840 C   0  0  0  0  0  0  0  0  0  0  0  0
  125.8320  122.2970   56.3090 C   0  0  0  0  0  0  0  0  0  0  0  0
  127.0350  123.0340   55.6940 C   0  0  0  0  0  0  0  0  0  0  0  0
  128.3100  122.8760   56.5490 C   0  0  0  0  0  0  0  0  0  0  0  0
  129.7060  126.3780   66.6440 N   0  0  0  0  0  0  0  0  0  0  0  0
  130.3390  127.7700   69.4600 C   0  0  0  0  0  0  0  0  0  0  0  0
  130.5370  127.7300   70.8370 C   0  0  0  0  0  0  0  0  0  0  0  0
  128.8435  127.3023   74.9142 H   0  0  0  0  0  0  0  0  0  0  0  0
  128.2628  128.4192   73.6328 H   0  0  0  0  0  0  0  0  0  0  0  0
  127.7372  126.7016   73.6328 H   0  0  0  0  0  0  0  0  0  0  0  0
  127.6834  126.1022   71.7397 H   0  0  0  0  0  0  0  0  0  0  0  0
  127.3355  126.1758   69.2884 H   0  0  0  0  0  0  0  0  0  0  0  0
  127.4771  128.8124   67.3933 H   0  0  0  0  0  0  0  0  0  0  0  0
  125.2022  127.9846   65.4279 H   0  0  0  0  0  0  0  0  0  0  0  0
  123.5823  129.6088   64.4770 H   0  0  0  0  0  0  0  0  0  0  0  0
  122.7380  131.6287   61.7219 H   0  0  0  0  0  0  0  0  0  0  0  0
  124.1392  132.6988   61.3777 H   0  0  0  0  0  0  0  0  0  0  0  0
  124.3501  130.9149   61.3777 H   0  0  0  0  0  0  0  0  0  0  0  0
  126.8557  132.0781   63.1112 H   0  0  0  0  0  0  0  0  0  0  0  0
  128.4759  130.4519   64.0647 H   0  0  0  0  0  0  0  0  0  0  0  0
  129.7985  122.8357   64.4720 H   0  0  0  0  0  0  0  0  0  0  0  0
  128.4511  124.0546   64.2162 H   0  0  0  0  0  0  0  0  0  0  0  0
  127.4970  123.8020   62.4410 H   0  0  0  0  0  0  0  0  0  0  0  0
  124.7506  122.1790   58.1883 H   0  0  0  0  0  0  0  0  0  0  0  0
  124.9376  123.8486   57.5276 H   0  0  0  0  0  0  0  0  0  0  0  0
  126.0932  121.2360   56.4355 H   0  0  0  0  0  0  0  0  0  0  0  0
  124.9764  122.4197   55.6287 H   0  0  0  0  0  0  0  0  0  0  0  0
  127.2271  122.6247   54.6912 H   0  0  0  0  0  0  0  0  0  0  0  0
  126.7887  124.1050   55.6468 H   0  0  0  0  0  0  0  0  0  0  0  0
  128.7163  121.8621   56.4186 H   0  0  0  0  0  0  0  0  0  0  0  0
  129.0608  123.6140   56.2301 H   0  0  0  0  0  0  0  0  0  0  0  0
  131.0950  128.2480   68.8197 H   0  0  0  0  0  0  0  0  0  0  0  0
  131.4452  128.1715   71.2732 H   0  0  0  0  0  0  0  0  0  0  0  0
  1  2  1  0
  2  3  1  0
  3  4  2  0
  4  5  1  0
  5  6  2  0
  6  7  1  0
  7  8  2  0
  8  9  1  0
  9 10  1  0
 10 11  2  0
 11 12  1  0
 12 13  2  0
 13 14  1  0
 14 15  1  0
 13 16  1  0
 16 17  2  0
  9 18  2  0
 18 19  1  0
 19 20  3  0
 18 21  1  0
 21 22  1  0
 22 23  1  0
 23 24  1  0
 24 25  2  0
 24 26  1  0
 26 27  1  0
 27 28  1  0
 28 29  1  0
 29 30  2  0
 30 31  1  0
 31 32  1  0
 32 33  3  0
 30 34  1  0
 34 35  1  0
 35 36  1  0
 36 37  1  0
 21 38  2  0
  6 39  1  0
 39 40  2  0
 40  3  1  0
 38  7  1  0
 17 10  1  0
 31 27  2  0
 37 29  1  0
  1 41  1  0
  1 42  1  0
  1 43  1  0
  4 44  1  0
  5 45  1  0
  8 46  1  0
 11 47  1  0
 12 48  1  0
 15 49  1  0
 15 50  1  0
 15 51  1  0
 16 52  1  0
 17 53  1  0
 23 54  1  0
 23 55  1  0
 26 56  1  0
 34 57  1  0
 34 58  1  0
 35 59  1  0
 35 60  1  0
 36 61  1  0
 36 62  1  0
 37 63  1  0
 37 64  1  0
 39 65  1  0
 40 66  1  0
M  END
>  <Binding energies>  (1) 
[-12.5]

>  <Ligand effiencies>  (1) 
[-0.3048780487804878]

>  <Interactions>  (1) 
["V-A:GLU:543:CD:4905, V-B:LYS:547:CE:9919, V-A:LYS:547:CE:4947, H-A:LYS:547:NZ:4948, V-A:GLY:544:C:4909, V-A:HIS:456:CE1:4066, V-A:GLU:543:C:4899, V-A:HIS:456:CD2:4064, V-B:HIS:456:CE1:9038, V-B:HIS:456:CD2:9036, V-B:TYR:539:CE1:9844, V-B:MET:535:CE:9804, V-B:PRO:540:CA:9852, V-B:TYR:539:CZ:9846, V-B:PRO:540:N:9853, V-B:PRO:540:C:9850, V-B:PRO:540:CB:9854, V-B:ASP:366:CG:8181, V-B:LEU:363:CD1:8157, V-B:ALA:541:CB:9861, H-B:GLU:543:OE2:9879, V-B:GLU:543:CD:9877, V-B:GLU:543:CG:9876, V-B:TYR:539:CE2:9845, V-A:GLU:543:CG:4904, H-B:ALA:541:N:9860, V-B:ILE:538:CG2:9832, V-B:ILE:538:CB:9831, V-B:PRO:540:CD:9856, V-B:ILE:369:CD1:8207, V-B:TYR:539:CD1:9842, V-B:ARG:545:CZ:9895, H-B:GLY:454:N:9018"]

$$$$
RR5_Rahimova_2017
     RDKit          3D

 77 82  0  0  0  0  0  0  0  0999 V2000
  128.7490  132.8690   57.2720 O   0  0  0  0  0  0  0  0  0  0  0  0
  129.1120  131.8690   57.8900 C   0  0  0  0  0  0  0  0  0  0  0  0
  130.5090  131.2740   57.6280 C   0  0  0  0  0  0  0  0  0  0  0  0
  131.0400  130.3570   58.7870 C   0  0  2  0  0  0  0  0  0  0  0  0
  130.4640  128.9970   58.8190 N   0  0  0  0  0  0  0  0  0  0  0  0
  129.7370  128.4900   57.7520 C   0  0  0  0  0  0  0  0  0  0  0  0
  129.5240  129.0500   56.6730 O   0  0  0  0  0  0  0  0  0  0  0  0
  129.2800  127.2720   58.0910 O   0  0  0  0  0  0  0  0  0  0  0  0
  128.0100  126.8050   57.6460 C   0  0  0  0  0  0  0  0  0  0  0  0
  127.8040  125.3230   58.0330 C   0  0  0  0  0  0  0  0  0  0  0  0
  126.4000  125.0110   58.5200 C   0  0  0  0  0  0  0  0  0  0  0  0
  125.6850  125.5620   59.5870 C   0  0  0  0  0  0  0  0  0  0  0  0
  124.3810  125.1360   59.8440 C   0  0  0  0  0  0  0  0  0  0  0  0
  123.7910  124.1590   59.0390 C   0  0  0  0  0  0  0  0  0  0  0  0
  124.5040  123.6050   57.9750 C   0  0  0  0  0  0  0  0  0  0  0  0
  125.8080  124.0320   57.7200 C   0  0  0  0  0  0  0  0  0  0  0  0
  126.7770  123.6230   56.6910 C   0  0  0  0  0  0  0  0  0  0  0  0
  126.6860  122.6790   55.6660 C   0  0  0  0  0  0  0  0  0  0  0  0
  127.7800  122.4640   54.8260 C   0  0  0  0  0  0  0  0  0  0  0  0
  128.9570  123.1930   55.0080 C   0  0  0  0  0  0  0  0  0  0  0  0
  129.0420  124.1380   56.0310 C   0  0  0  0  0  0  0  0  0  0  0  0
  127.9500  124.3580   56.8720 C   0  0  0  0  0  0  0  0  0  0  0  0
  130.8430  131.0400   60.1630 C   0  0  0  0  0  0  0  0  0  0  0  0
  131.3360  132.1020   60.4860 O   0  0  0  0  0  0  0  0  0  0  0  0
  130.0190  130.2770   60.9400 O   0  0  0  0  0  0  0  0  0  0  0  0
  128.3800  131.2400   58.8370 N   0  0  0  0  0  0  0  0  0  0  0  0
  127.0150  131.4670   59.4000 C   0  0  0  0  0  0  0  0  0  0  0  0
  126.9370  130.3760   60.5200 C   0  0  0  0  0  0  0  0  0  0  0  0
  127.2790  129.0370   60.2630 C   0  0  0  0  0  0  0  0  0  0  0  0
  127.2070  128.0750   61.2680 C   0  0  0  0  0  0  0  0  0  0  0  0
  126.7820  128.4340   62.5420 C   0  0  0  0  0  0  0  0  0  0  0  0
  126.4390  129.7510   62.8240 C   0  0  0  0  0  0  0  0  0  0  0  0
  126.5210  130.7130   61.8230 C   0  0  0  0  0  0  0  0  0  0  0  0
  126.9830  132.9230   59.9750 C   0  0  0  0  0  0  0  0  0  0  0  0
  125.8150  133.7010   59.9510 C   0  0  0  0  0  0  0  0  0  0  0  0
  125.8140  135.0010   60.4510 C   0  0  0  0  0  0  0  0  0  0  0  0
  126.9830  135.5400   60.9780 C   0  0  0  0  0  0  0  0  0  0  0  0
  128.1520  134.7880   61.0160 C   0  0  0  0  0  0  0  0  0  0  0  0
  128.1480  133.4870   60.5250 C   0  0  0  0  0  0  0  0  0  0  0  0
  126.0120  131.2070   58.2260 C   0  0  0  0  0  0  0  0  0  0  0  0
  126.4520  130.6690   57.0030 C   0  0  0  0  0  0  0  0  0  0  0  0
  125.5660  130.4430   55.9530 C   0  0  0  0  0  0  0  0  0  0  0  0
  124.2190  130.7470   56.1090 C   0  0  0  0  0  0  0  0  0  0  0  0
  123.7510  131.2660   57.3100 C   0  0  0  0  0  0  0  0  0  0  0  0
  124.6400  131.4910   58.3580 C   0  0  0  0  0  0  0  0  0  0  0  0
  130.4626  130.6750   56.7066 H   0  0  0  0  0  0  0  0  0  0  0  0
  131.2059  132.1212   57.5477 H   0  0  0  0  0  0  0  0  0  0  0  0
  132.1108  130.2264   58.5716 H   0  0  0  0  0  0  0  0  0  0  0  0
  130.4580  128.5020   59.6990 H   0  0  0  0  0  0  0  0  0  0  0  0
  127.2193  127.4124   58.1107 H   0  0  0  0  0  0  0  0  0  0  0  0
  127.9661  126.8928   56.5504 H   0  0  0  0  0  0  0  0  0  0  0  0
  128.5763  125.1928   58.8054 H   0  0  0  0  0  0  0  0  0  0  0  0
  126.1492  126.3301   60.2231 H   0  0  0  0  0  0  0  0  0  0  0  0
  123.8168  125.5706   60.6823 H   0  0  0  0  0  0  0  0  0  0  0  0
  122.7629  123.8258   59.2440 H   0  0  0  0  0  0  0  0  0  0  0  0
  124.0404  122.8354   57.3403 H   0  0  0  0  0  0  0  0  0  0  0  0
  125.7571  122.1078   55.5213 H   0  0  0  0  0  0  0  0  0  0  0  0
  127.7148  121.7190   54.0193 H   0  0  0  0  0  0  0  0  0  0  0  0
  129.8176  123.0222   54.3445 H   0  0  0  0  0  0  0  0  0  0  0  0
  129.9704  124.7101   56.1748 H   0  0  0  0  0  0  0  0  0  0  0  0
  129.7470  130.7330   61.7390 H   0  0  0  0  0  0  0  0  0  0  0  0
  128.7900  130.3800   59.1700 H   0  0  0  0  0  0  0  0  0  0  0  0
  127.6079  128.7449   59.2548 H   0  0  0  0  0  0  0  0  0  0  0  0
  127.4860  127.0328   61.0538 H   0  0  0  0  0  0  0  0  0  0  0  0
  126.7168  127.6710   63.3317 H   0  0  0  0  0  0  0  0  0  0  0  0
  126.1044  130.0310   63.8338 H   0  0  0  0  0  0  0  0  0  0  0  0
  126.2563  131.7556   62.0528 H   0  0  0  0  0  0  0  0  0  0  0  0
  124.8894  133.2790   59.5323 H   0  0  0  0  0  0  0  0  0  0  0  0
  124.8914  135.5997   60.4292 H   0  0  0  0  0  0  0  0  0  0  0  0
  126.9827  136.5687   61.3676 H   0  0  0  0  0  0  0  0  0  0  0  0
  129.0743  135.2196   61.4319 H   0  0  0  0  0  0  0  0  0  0  0  0
  129.0706  132.8896   60.5675 H   0  0  0  0  0  0  0  0  0  0  0  0
  127.5161  130.4222   56.8737 H   0  0  0  0  0  0  0  0  0  0  0  0
  125.9310  130.0252   55.0032 H   0  0  0  0  0  0  0  0  0  0  0  0
  123.5196  130.5759   55.2774 H   0  0  0  0  0  0  0  0  0  0  0  0
  122.6828  131.4982   57.4324 H   0  0  0  0  0  0  0  0  0  0  0  0
  124.2625  131.8986   59.3074 H   0  0  0  0  0  0  0  0  0  0  0  0
  1  2  2  0
  2  3  1  0
  3  4  1  0
  4  5  1  0
  5  6  1  0
  6  7  2  0
  6  8  1  0
  8  9  1  0
  9 10  1  0
 10 11  1  0
 11 12  2  0
 12 13  1  0
 13 14  2  0
 14 15  1  0
 15 16  2  0
 16 17  1  0
 17 18  2  0
 18 19  1  0
 19 20  2  0
 20 21  1  0
 21 22  2  0
  4 23  1  0
 23 24  2  0
 23 25  1  0
  2 26  1  0
 26 27  1  0
 27 28  1  0
 28 29  2  0
 29 30  1  0
 30 31  2  0
 31 32  1  0
 32 33  2  0
 27 34  1  0
 34 35  2  0
 35 36  1  0
 36 37  2  0
 37 38  1  0
 38 39  2  0
 27 40  1  0
 40 41  2  0
 41 42  1  0
 42 43  2  0
 43 44  1  0
 44 45  2  0
 22 10  1  0
 33 28  1  0
 39 34  1  0
 45 40  1  0
 16 11  1  0
 22 17  1  0
  3 46  1  0
  3 47  1  0
  4 48  1  6
  5 49  1  0
  9 50  1  0
  9 51  1  0
 10 52  1  0
 12 53  1  0
 13 54  1  0
 14 55  1  0
 15 56  1  0
 18 57  1  0
 19 58  1  0
 20 59  1  0
 21 60  1  0
 25 61  1  0
 26 62  1  0
 29 63  1  0
 30 64  1  0
 31 65  1  0
 32 66  1  0
 33 67  1  0
 35 68  1  0
 36 69  1  0
 37 70  1  0
 38 71  1  0
 39 72  1  0
 41 73  1  0
 42 74  1  0
 43 75  1  0
 44 76  1  0
 45 77  1  0
M  END
>  <Binding energies>  (1) 
[-10.26]

>  <Ligand effiencies>  (1) 
[-0.21375]

>  <Interactions>  (1) 
["V-A:TYR:539:CD2:4871, V-A:ALA:541:CB:4889, V-A:PRO:540:CA:4880, H-A:GLU:543:OE2:4907, V-A:TYR:539:C:4864, V-B:TRP:381:CZ2:8338, V-B:TRP:381:CH2:8340, H-A:ASP:366:OD1:3210, V-A:TYR:539:CE2:4873, V-B:LEU:475:CD2:9227, H-A:ALA:541:N:4888, V-B:ASP:366:CA:8178, V-B:ASP:366:CB:8180, H-A:TYR:531:OH:4792, V-B:TYR:539:CE1:9844, V-B:MET:535:CE:9804, V-B:PRO:540:CA:9852, V-B:TYR:539:CZ:9846, V-B:TYR:531:CZ:9763, V-B:ILE:369:CG2:8205, V-B:PRO:540:CB:9854, V-B:ASP:366:CG:8181, V-B:LEU:363:CD1:8157, V-B:LEU:363:CA:8153, V-A:TYR:539:CZ:4874, V-B:ILE:538:CG2:9832, V-B:ILE:538:CB:9831, V-B:ILE:538:CA:9829, V-B:TYR:539:CD1:9842, V-B:LEU:363:CB:8155, V-A:ALA:541:CA:4887, V-A:PRO:540:C:4878, V-B:TYR:531:CE1:9761, V-B:ILE:369:CB:8204, V-B:ASP:366:C:8176, V-B:ASN:370:CB:8213"]

$$$$
RR5_Rahimova_2017-again1
     RDKit          3D

 76 81  0  0  0  0  0  0  0  0999 V2000
  125.0770  131.0000   58.4820 O   0  0  0  0  0  0  0  0  0  0  0  0
  126.0500  130.9910   57.7280 C   0  0  0  0  0  0  0  0  0  0  0  0
  125.8160  130.7890   56.2160 C   0  0  0  0  0  0  0  0  0  0  0  0
  126.7490  129.7630   55.4930 C   0  0  2  0  0  0  0  0  0  0  0  0
  126.7560  128.4950   56.2540 N   0  0  0  0  0  0  0  0  0  0  0  0
  127.6470  128.2760   57.2990 C   0  0  0  0  0  0  0  0  0  0  0  0
  128.5180  129.0540   57.6970 O   0  0  0  0  0  0  0  0  0  0  0  0
  127.4070  127.0580   57.8210 O   0  0  0  0  0  0  0  0  0  0  0  0
  128.4740  126.2410   58.2910 C   0  0  0  0  0  0  0  0  0  0  0  0
  127.9780  124.8000   58.5170 C   0  0  0  0  0  0  0  0  0  0  0  0
  126.5480  124.7240   59.0230 C   0  0  0  0  0  0  0  0  0  0  0  0
  125.9840  125.2530   60.1870 C   0  0  0  0  0  0  0  0  0  0  0  0
  124.6250  125.0720   60.4480 C   0  0  0  0  0  0  0  0  0  0  0  0
  123.8280  124.3590   59.5500 C   0  0  0  0  0  0  0  0  0  0  0  0
  124.3880  123.8240   58.3890 C   0  0  0  0  0  0  0  0  0  0  0  0
  125.7490  124.0080   58.1300 C   0  0  0  0  0  0  0  0  0  0  0  0
  126.5900  123.5540   57.0120 C   0  0  0  0  0  0  0  0  0  0  0  0
  126.2820  122.8010   55.8770 C   0  0  0  0  0  0  0  0  0  0  0  0
  127.2890  122.4900   54.9610 C   0  0  0  0  0  0  0  0  0  0  0  0
  128.5960  122.9310   55.1800 C   0  0  0  0  0  0  0  0  0  0  0  0
  128.9000  123.6840   56.3150 C   0  0  0  0  0  0  0  0  0  0  0  0
  127.8940  124.0000   57.2330 C   0  0  0  0  0  0  0  0  0  0  0  0
  128.2100  130.3330   55.2860 C   0  0  0  0  0  0  0  0  0  0  0  0
  128.3130  131.5680   55.4720 O   0  0  0  0  0  0  0  0  0  0  0  0
  129.1060  129.5040   55.0000 O   0  0  0  0  0  0  0  0  0  0  0  0
  127.3030  131.2740   58.1440 N   0  0  0  0  0  0  0  0  0  0  0  0
  127.8090  131.5290   59.5170 C   0  0  0  0  0  0  0  0  0  0  0  0
  127.3260  132.9280   60.0150 C   0  0  0  0  0  0  0  0  0  0  0  0
  128.2100  133.8060   60.6680 C   0  0  0  0  0  0  0  0  0  0  0  0
  127.7860  135.0590   61.1020 C   0  0  0  0  0  0  0  0  0  0  0  0
  126.4700  135.4540   60.8850 C   0  0  0  0  0  0  0  0  0  0  0  0
  125.5770  134.6070   60.2370 C   0  0  0  0  0  0  0  0  0  0  0  0
  126.0020  133.3540   59.8050 C   0  0  0  0  0  0  0  0  0  0  0  0
  127.2840  130.5470   60.6130 C   0  0  0  0  0  0  0  0  0  0  0  0
  126.5870  131.0260   61.7360 C   0  0  0  0  0  0  0  0  0  0  0  0
  126.1190  130.1540   62.7160 C   0  0  0  0  0  0  0  0  0  0  0  0
  126.3360  128.7870   62.5820 C   0  0  0  0  0  0  0  0  0  0  0  0
  127.0140  128.2860   61.4740 C   0  0  0  0  0  0  0  0  0  0  0  0
  127.4810  129.1610   60.4970 C   0  0  0  0  0  0  0  0  0  0  0  0
  129.3690  131.5060   59.3610 C   0  0  0  0  0  0  0  0  0  0  0  0
  130.2110  131.1100   60.4150 C   0  0  0  0  0  0  0  0  0  0  0  0
  131.5930  131.0780   60.2550 C   0  0  0  0  0  0  0  0  0  0  0  0
  132.1550  131.4270   59.0320 C   0  0  0  0  0  0  0  0  0  0  0  0
  131.3440  131.7990   57.9660 C   0  0  0  0  0  0  0  0  0  0  0  0
  129.9620  131.8320   58.1290 C   0  0  0  0  0  0  0  0  0  0  0  0
  124.7786  130.4488   56.0816 H   0  0  0  0  0  0  0  0  0  0  0  0
  126.0432  131.7617   55.7553 H   0  0  0  0  0  0  0  0  0  0  0  0
  126.3534  129.5735   54.4842 H   0  0  0  0  0  0  0  0  0  0  0  0
  126.0510  127.8020   56.0460 H   0  0  0  0  0  0  0  0  0  0  0  0
  129.2828  126.2346   57.5455 H   0  0  0  0  0  0  0  0  0  0  0  0
  128.8457  126.6472   59.2433 H   0  0  0  0  0  0  0  0  0  0  0  0
  128.7132  124.4109   59.2368 H   0  0  0  0  0  0  0  0  0  0  0  0
  126.6110  125.8119   60.8973 H   0  0  0  0  0  0  0  0  0  0  0  0
  124.1809  125.4917   61.3627 H   0  0  0  0  0  0  0  0  0  0  0  0
  122.7570  124.2188   59.7580 H   0  0  0  0  0  0  0  0  0  0  0  0
  123.7616  123.2606   57.6817 H   0  0  0  0  0  0  0  0  0  0  0  0
  125.2521  122.4548   55.7055 H   0  0  0  0  0  0  0  0  0  0  0  0
  127.0525  121.8967   54.0654 H   0  0  0  0  0  0  0  0  0  0  0  0
  129.3871  122.6844   54.4566 H   0  0  0  0  0  0  0  0  0  0  0  0
  129.9303  124.0286   56.4872 H   0  0  0  0  0  0  0  0  0  0  0  0
  128.0310  131.1750   57.4510 H   0  0  0  0  0  0  0  0  0  0  0  0
  129.2521  133.4979   60.8383 H   0  0  0  0  0  0  0  0  0  0  0  0
  128.4882  135.7334   61.6140 H   0  0  0  0  0  0  0  0  0  0  0  0
  126.1331  136.4433   61.2283 H   0  0  0  0  0  0  0  0  0  0  0  0
  124.5383  134.9264   60.0665 H   0  0  0  0  0  0  0  0  0  0  0  0
  125.2927  132.6877   59.2923 H   0  0  0  0  0  0  0  0  0  0  0  0
  126.4085  132.1062   61.8423 H   0  0  0  0  0  0  0  0  0  0  0  0
  125.5803  130.5448   63.5918 H   0  0  0  0  0  0  0  0  0  0  0  0
  125.9696  128.0970   63.3564 H   0  0  0  0  0  0  0  0  0  0  0  0
  127.1800  127.2035   61.3710 H   0  0  0  0  0  0  0  0  0  0  0  0
  128.0123  128.7609   59.6209 H   0  0  0  0  0  0  0  0  0  0  0  0
  129.7707  130.8211   61.3807 H   0  0  0  0  0  0  0  0  0  0  0  0
  132.2387  130.7776   61.0933 H   0  0  0  0  0  0  0  0  0  0  0  0
  133.2478  131.4086   58.9073 H   0  0  0  0  0  0  0  0  0  0  0  0
  131.7925  132.0662   56.9978 H   0  0  0  0  0  0  0  0  0  0  0  0
  129.3237  132.1178   57.2800 H   0  0  0  0  0  0  0  0  0  0  0  0
  1  2  2  0
  2  3  1  0
  3  4  1  0
  4  5  1  0
  5  6  1  0
  6  7  2  0
  6  8  1  0
  8  9  1  0
  9 10  1  0
 10 11  1  0
 11 12  2  0
 12 13  1  0
 13 14  2  0
 14 15  1  0
 15 16  2  0
 16 17  1  0
 17 18  2  0
 18 19  1  0
 19 20  2  0
 20 21  1  0
 21 22  2  0
  4 23  1  0
 23 24  2  0
 23 25  1  0
  2 26  1  0
 26 27  1  0
 27 28  1  0
 28 29  2  0
 29 30  1  0
 30 31  2  0
 31 32  1  0
 32 33  2  0
 27 34  1  0
 34 35  2  0
 35 36  1  0
 36 37  2  0
 37 38  1  0
 38 39  2  0
 27 40  1  0
 40 41  2  0
 41 42  1  0
 42 43  2  0
 43 44  1  0
 44 45  2  0
 22 10  1  0
 33 28  1  0
 39 34  1  0
 45 40  1  0
 16 11  1  0
 22 17  1  0
  3 46  1  0
  3 47  1  0
  4 48  1  6
  5 49  1  0
  9 50  1  0
  9 51  1  0
 10 52  1  0
 12 53  1  0
 13 54  1  0
 14 55  1  0
 15 56  1  0
 18 57  1  0
 19 58  1  0
 20 59  1  0
 21 60  1  0
 26 61  1  0
 29 62  1  0
 30 63  1  0
 31 64  1  0
 32 65  1  0
 33 66  1  0
 35 67  1  0
 36 68  1  0
 37 69  1  0
 38 70  1  0
 39 71  1  0
 41 72  1  0
 42 73  1  0
 43 74  1  0
 44 75  1  0
 45 76  1  0
M  CHG  1  25  -1
M  END
>  <Binding energies>  (1) 
[-9.58]

>  <Ligand effiencies>  (1) 
[-0.20382978723404255]

>  <Interactions>  (1) 
["V-A:TYR:539:CD2:4871, V-A:PRO:540:CB:4882, V-A:ALA:541:CB:4889, V-A:PRO:540:CA:4880, V-A:PRO:540:N:4881, V-A:TYR:539:C:4864, V-B:TRP:381:CZ2:8338, V-B:TRP:381:CH2:8340, V-A:TYR:539:CE2:4873, V-B:LEU:475:CD2:9227, H-A:TYR:531:OH:4792, V-B:TYR:539:CE1:9844, V-B:MET:535:CE:9804, V-B:PRO:540:CA:9852, V-B:TYR:539:CZ:9846, V-B:ASN:362:C:8140, V-B:TYR:531:CZ:9763, V-B:ILE:369:CG2:8205, V-B:PRO:540:CB:9854, V-B:ASP:366:CG:8181, V-B:LEU:363:CD1:8157, V-B:LEU:363:CA:8153, H-B:TYR:531:OH:9764, V-A:TYR:539:CZ:4874, V-B:ILE:538:CG2:9832, V-B:ILE:538:CB:9831, V-B:ILE:538:CA:9829, V-B:TYR:539:CD1:9842, V-A:ALA:541:CA:4887, V-A:PRO:540:C:4878, H-B:MET:535:SD:9803, V-B:TYR:531:CE1:9761"]

$$$$
RR6_Rahimova_2017
     RDKit          3D

 63 66  0  0  0  0  0  0  0  0999 V2000
  127.9030  122.5440   55.0080 C   0  0  0  0  0  0  0  0  0  0  0  0
  127.3220  121.7620   56.0420 O   0  0  0  0  0  0  0  0  0  0  0  0
  126.4270  122.3030   56.9080 C   0  0  0  0  0  0  0  0  0  0  0  0
  125.2400  122.4970   56.6260 O   0  0  0  0  0  0  0  0  0  0  0  0
  127.0240  122.6420   58.2440 C   0  0  0  0  0  0  0  0  0  0  0  0
  128.2540  122.1160   58.6640 C   0  0  0  0  0  0  0  0  0  0  0  0
  128.7770  122.4440   59.9130 C   0  0  0  0  0  0  0  0  0  0  0  0
  128.0720  123.3040   60.7670 C   0  0  0  0  0  0  0  0  0  0  0  0
  128.4940  123.6780   62.0570 N   0  0  0  0  0  0  0  0  0  0  0  0
  129.5880  123.2860   62.7460 C   0  0  0  0  0  0  0  0  0  0  0  0
  130.4490  122.5060   62.3370 O   0  0  0  0  0  0  0  0  0  0  0  0
  129.7010  123.8320   64.1740 C   0  0  0  0  0  0  0  0  0  0  0  0
  130.5410  125.4470   64.2770 S   0  0  0  0  0  0  0  0  0  0  0  0
  129.4470  126.5400   65.1610 C   0  0  0  0  0  0  0  0  0  0  0  0
  129.5080  126.4200   66.5090 N   0  0  0  0  0  0  0  0  0  0  0  0
  128.7410  127.2200   67.2910 C   0  0  0  0  0  0  0  0  0  0  0  0
  128.9130  127.0670   68.7740 C   0  0  0  0  0  0  0  0  0  0  0  0
  129.9600  127.7120   69.4500 C   0  0  0  0  0  0  0  0  0  0  0  0
  130.1270  127.5590   70.8240 C   0  0  0  0  0  0  0  0  0  0  0  0
  129.2440  126.7590   71.5490 C   0  0  0  0  0  0  0  0  0  0  0  0
  129.4360  126.5880   73.0450 C   0  0  0  0  0  0  0  0  0  0  0  0
  128.1980  126.1120   70.8970 C   0  0  0  0  0  0  0  0  0  0  0  0
  128.0350  126.2690   69.5250 C   0  0  0  0  0  0  0  0  0  0  0  0
  127.8770  128.1610   66.7210 C   0  0  0  0  0  0  0  0  0  0  0  0
  127.7930  128.3010   65.3290 C   0  0  0  0  0  0  0  0  0  0  0  0
  126.8630  129.3380   64.7890 C   0  0  0  0  0  0  0  0  0  0  0  0
  127.3430  130.6100   64.4620 C   0  0  0  0  0  0  0  0  0  0  0  0
  126.4870  131.5780   63.9420 C   0  0  0  0  0  0  0  0  0  0  0  0
  125.1390  131.2920   63.7350 C   0  0  0  0  0  0  0  0  0  0  0  0
  124.3650  132.3120   63.2140 O   0  0  0  0  0  0  0  0  0  0  0  0
  124.1370  132.3610   61.8100 C   0  0  0  0  0  0  0  0  0  0  0  0
  124.6530  130.0150   64.0560 C   0  0  0  0  0  0  0  0  0  0  0  0
  125.5120  129.0500   64.5740 C   0  0  0  0  0  0  0  0  0  0  0  0
  128.5960  127.4620   64.5180 C   0  0  0  0  0  0  0  0  0  0  0  0
  128.5360  127.5370   63.0550 C   0  0  0  0  0  0  0  0  0  0  0  0
  128.4900  127.5970   61.9000 N   0  0  0  0  0  0  0  0  0  0  0  0
  126.8560  123.8430   60.3460 C   0  0  0  0  0  0  0  0  0  0  0  0
  126.3340  123.5120   59.0980 C   0  0  0  0  0  0  0  0  0  0  0  0
  128.5031  123.3517   55.4523 H   0  0  0  0  0  0  0  0  0  0  0  0
  128.5488  121.9072   54.3855 H   0  0  0  0  0  0  0  0  0  0  0  0
  127.1069  122.9785   54.3855 H   0  0  0  0  0  0  0  0  0  0  0  0
  128.8114  121.4379   58.0010 H   0  0  0  0  0  0  0  0  0  0  0  0
  129.7446  122.0276   60.2297 H   0  0  0  0  0  0  0  0  0  0  0  0
  127.8360  124.2550   62.5590 H   0  0  0  0  0  0  0  0  0  0  0  0
  128.6866  123.9413   64.5853 H   0  0  0  0  0  0  0  0  0  0  0  0
  130.3104  123.1158   64.7447 H   0  0  0  0  0  0  0  0  0  0  0  0
  130.6589  128.3476   68.8864 H   0  0  0  0  0  0  0  0  0  0  0  0
  130.9553  128.0691   71.3376 H   0  0  0  0  0  0  0  0  0  0  0  0
  128.7191  127.2265   73.5820 H   0  0  0  0  0  0  0  0  0  0  0  0
  129.2667  125.5361   73.3185 H   0  0  0  0  0  0  0  0  0  0  0  0
  130.4614  126.8775   73.3185 H   0  0  0  0  0  0  0  0  0  0  0  0
  127.5020  125.4780   71.4658 H   0  0  0  0  0  0  0  0  0  0  0  0
  127.2026  125.7585   69.0185 H   0  0  0  0  0  0  0  0  0  0  0  0
  127.2580  128.7968   67.3711 H   0  0  0  0  0  0  0  0  0  0  0  0
  128.4057  130.8482   64.6167 H   0  0  0  0  0  0  0  0  0  0  0  0
  126.8780  132.5755   63.6929 H   0  0  0  0  0  0  0  0  0  0  0  0
  123.0780  132.5886   61.6182 H   0  0  0  0  0  0  0  0  0  0  0  0
  124.7671  133.1442   61.3633 H   0  0  0  0  0  0  0  0  0  0  0  0
  124.3897  131.3880   61.3633 H   0  0  0  0  0  0  0  0  0  0  0  0
  123.5909  129.7763   63.8979 H   0  0  0  0  0  0  0  0  0  0  0  0
  125.1236  128.0499   64.8168 H   0  0  0  0  0  0  0  0  0  0  0  0
  126.3066  124.5331   61.0033 H   0  0  0  0  0  0  0  0  0  0  0  0
  125.3709  123.9377   58.7799 H   0  0  0  0  0  0  0  0  0  0  0  0
  1  2  1  0
  2  3  1  0
  3  4  2  0
  3  5  1  0
  5  6  2  0
  6  7  1  0
  7  8  2  0
  8  9  1  0
  9 10  1  0
 10 11  2  0
 10 12  1  0
 12 13  1  0
 13 14  1  0
 14 15  2  0
 15 16  1  0
 16 17  1  0
 17 18  2  0
 18 19  1  0
 19 20  2  0
 20 21  1  0
 20 22  1  0
 22 23  2  0
 16 24  2  0
 24 25  1  0
 25 26  1  0
 26 27  2  0
 27 28  1  0
 28 29  2  0
 29 30  1  0
 30 31  1  0
 29 32  1  0
 32 33  2  0
 25 34  2  0
 34 35  1  0
 35 36  3  0
  8 37  1  0
 37 38  2  0
 38  5  1  0
 34 14  1  0
 23 17  1  0
 33 26  1  0
  1 39  1  0
  1 40  1  0
  1 41  1  0
  6 42  1  0
  7 43  1  0
  9 44  1  0
 12 45  1  0
 12 46  1  0
 18 47  1  0
 19 48  1  0
 21 49  1  0
 21 50  1  0
 21 51  1  0
 22 52  1  0
 23 53  1  0
 24 54  1  0
 27 55  1  0
 28 56  1  0
 31 57  1  0
 31 58  1  0
 31 59  1  0
 32 60  1  0
 33 61  1  0
 37 62  1  0
 38 63  1  0
M  END
>  <Binding energies>  (1) 
[-10.7]

>  <Ligand effiencies>  (1) 
[-0.27435897435897433]

>  <Interactions>  (1) 
["V-A:GLU:543:CD:4905, V-B:GLU:543:C:9871, V-B:LYS:547:CE:9919, V-A:HIS:456:CE1:4066, V-A:HIS:456:CD2:4064, V-B:GLU:543:CB:9875, V-B:HIS:456:CE1:9038, V-B:GLY:544:C:9881, V-B:TYR:539:CE1:9844, V-B:MET:535:CE:9804, V-B:PRO:540:CA:9852, V-B:TYR:539:CZ:9846, V-B:PRO:540:N:9853, V-B:PRO:540:CB:9854, H-B:TYR:539:N:9839, V-B:ALA:541:CB:9861, H-B:GLU:543:OE2:9879, V-B:GLU:543:CD:9877, V-B:GLU:543:CG:9876, V-B:TYR:539:CE2:9845, V-A:GLU:543:CG:4904, V-B:ILE:538:CG2:9832, V-B:ILE:538:CB:9831, V-B:PRO:540:CD:9856, V-B:TYR:539:C:9836, V-B:TYR:539:CD2:9843, V-B:ILE:369:CD1:8207, V-B:ILE:538:CA:9829, V-B:TYR:539:CD1:9842, V-B:TYR:539:CG:9841, V-B:ARG:545:CZ:9895, H-B:GLY:454:N:9018"]

$$$$
RR7_Rahimova_2017
     RDKit          3D

 80 86  0  0  0  0  0  0  0  0999 V2000
  133.5380  130.6330   58.5310 C   0  0  0  0  0  0  0  0  0  0  0  0
  132.7770  130.6230   59.7350 O   0  0  0  0  0  0  0  0  0  0  0  0
  131.4200  130.8730   59.6750 C   0  0  0  0  0  0  0  0  0  0  0  0
  130.6100  130.1230   60.5260 C   0  0  0  0  0  0  0  0  0  0  0  0
  129.2310  130.3090   60.5390 C   0  0  0  0  0  0  0  0  0  0  0  0
  128.6250  131.2460   59.6890 C   0  0  0  0  0  0  0  0  0  0  0  0
  127.0860  131.4990   59.7060 C   0  0  0  0  0  0  0  0  0  0  0  0
  126.5450  130.6470   60.7420 O   0  0  0  0  0  0  0  0  0  0  0  0
  125.1710  130.7660   61.1230 C   0  0  0  0  0  0  0  0  0  0  0  0
  125.0460  130.5070   62.6340 C   0  0  1  0  0  0  0  0  0  0  0  0
  125.6870  129.2610   62.8930 O   0  0  0  0  0  0  0  0  0  0  0  0
  126.7340  129.3930   63.8100 C   0  0  1  0  0  0  0  0  0  0  0  0
  127.7900  128.4470   63.5020 N   0  0  0  0  0  0  0  0  0  0  0  0
  128.0380  127.8070   62.3010 C   0  0  0  0  0  0  0  0  0  0  0  0
  129.0370  126.9600   62.3110 N   0  0  0  0  0  0  0  0  0  0  0  0
  129.4730  126.9860   63.6080 C   0  0  0  0  0  0  0  0  0  0  0  0
  130.5050  126.2920   64.2700 C   0  0  0  0  0  0  0  0  0  0  0  0
  131.2950  125.3920   63.5310 N   0  0  0  0  0  0  0  0  0  0  0  0
  132.4430  124.7710   63.8920 C   0  0  0  0  0  0  0  0  0  0  0  0
  133.0050  124.9270   64.9780 O   0  0  0  0  0  0  0  0  0  0  0  0
  133.0520  123.8600   62.8470 C   0  0  0  0  0  0  0  0  0  0  0  0
  134.1670  124.2930   62.1130 C   0  0  0  0  0  0  0  0  0  0  0  0
  134.7450  123.4700   61.1510 C   0  0  0  0  0  0  0  0  0  0  0  0
  134.2170  122.2040   60.9180 C   0  0  0  0  0  0  0  0  0  0  0  0
  133.1140  121.7540   61.6390 C   0  0  0  0  0  0  0  0  0  0  0  0
  132.5340  122.5770   62.6000 C   0  0  0  0  0  0  0  0  0  0  0  0
  130.7060  126.5090   65.6050 N   0  0  0  0  0  0  0  0  0  0  0  0
  129.8890  127.3940   66.2330 C   0  0  0  0  0  0  0  0  0  0  0  0
  128.8710  128.1160   65.6940 N   0  0  0  0  0  0  0  0  0  0  0  0
  128.7020  127.8880   64.3850 C   0  0  0  0  0  0  0  0  0  0  0  0
  127.1450  130.8590   63.7430 C   0  0  0  0  0  0  0  0  0  0  0  0
  125.7890  131.5100   63.5280 C   0  0  2  0  0  0  0  0  0  0  0  0
  125.1130  131.7480   64.7510 O   0  0  0  0  0  0  0  0  0  0  0  0
  126.7310  132.9600   60.0910 C   0  0  0  0  0  0  0  0  0  0  0  0
  125.4530  133.4730   59.8200 C   0  0  0  0  0  0  0  0  0  0  0  0
  125.1280  134.7850   60.1480 C   0  0  0  0  0  0  0  0  0  0  0  0
  126.0820  135.6010   60.7490 C   0  0  0  0  0  0  0  0  0  0  0  0
  127.3550  135.1140   61.0260 C   0  0  0  0  0  0  0  0  0  0  0  0
  127.6790  133.8010   60.6980 C   0  0  0  0  0  0  0  0  0  0  0  0
  126.3400  131.2260   58.3690 C   0  0  0  0  0  0  0  0  0  0  0  0
  127.0510  131.1540   57.1610 C   0  0  0  0  0  0  0  0  0  0  0  0
  126.3920  130.9210   55.9580 C   0  0  0  0  0  0  0  0  0  0  0  0
  125.0090  130.7640   55.9500 C   0  0  0  0  0  0  0  0  0  0  0  0
  124.2820  130.8440   57.1340 C   0  0  0  0  0  0  0  0  0  0  0  0
  124.9430  131.0780   58.3350 C   0  0  0  0  0  0  0  0  0  0  0  0
  129.4460  132.0080   58.8450 C   0  0  0  0  0  0  0  0  0  0  0  0
  130.8260  131.8230   58.8320 C   0  0  0  0  0  0  0  0  0  0  0  0
  134.6105  130.6471   58.7752 H   0  0  0  0  0  0  0  0  0  0  0  0
  133.3074  129.7317   57.9440 H   0  0  0  0  0  0  0  0  0  0  0  0
  133.2838  131.5279   57.9440 H   0  0  0  0  0  0  0  0  0  0  0  0
  131.0653  129.3768   61.1938 H   0  0  0  0  0  0  0  0  0  0  0  0
  128.6088  129.7142   61.2239 H   0  0  0  0  0  0  0  0  0  0  0  0
  124.8105  131.7791   60.8914 H   0  0  0  0  0  0  0  0  0  0  0  0
  124.5669  130.0324   60.5690 H   0  0  0  0  0  0  0  0  0  0  0  0
  123.9720  130.5628   62.8650 H   0  0  0  0  0  0  0  0  0  0  0  0
  126.4520  129.1486   64.8447 H   0  0  0  0  0  0  0  0  0  0  0  0
  127.4373  127.9965   61.3992 H   0  0  0  0  0  0  0  0  0  0  0  0
  130.9470  125.1940   62.6040 H   0  0  0  0  0  0  0  0  0  0  0  0
  134.5879  125.2920   62.2997 H   0  0  0  0  0  0  0  0  0  0  0  0
  135.6160  123.8191   60.5770 H   0  0  0  0  0  0  0  0  0  0  0  0
  134.6745  121.5534   60.1582 H   0  0  0  0  0  0  0  0  0  0  0  0
  132.7025  120.7516   61.4497 H   0  0  0  0  0  0  0  0  0  0  0  0
  131.6636  122.2206   63.1705 H   0  0  0  0  0  0  0  0  0  0  0  0
  130.0733  127.5446   67.3069 H   0  0  0  0  0  0  0  0  0  0  0  0
  127.6135  131.1938   64.6802 H   0  0  0  0  0  0  0  0  0  0  0  0
  127.8957  131.0926   62.9737 H   0  0  0  0  0  0  0  0  0  0  0  0
  125.8636  132.5064   63.0679 H   0  0  0  0  0  0  0  0  0  0  0  0
  125.7640  131.9650   65.4230 H   0  0  0  0  0  0  0  0  0  0  0  0
  124.6993  132.8297   59.3424 H   0  0  0  0  0  0  0  0  0  0  0  0
  124.1223  135.1756   59.9335 H   0  0  0  0  0  0  0  0  0  0  0  0
  125.8271  136.6395   61.0070 H   0  0  0  0  0  0  0  0  0  0  0  0
  128.1031  135.7645   61.5027 H   0  0  0  0  0  0  0  0  0  0  0  0
  128.6868  133.4179   60.9160 H   0  0  0  0  0  0  0  0  0  0  0  0
  128.1433  131.2835   57.1654 H   0  0  0  0  0  0  0  0  0  0  0  0
  126.9608  130.8612   55.0184 H   0  0  0  0  0  0  0  0  0  0  0  0
  124.4866  130.5752   55.0005 H   0  0  0  0  0  0  0  0  0  0  0  0
  123.1888  130.7226   57.1200 H   0  0  0  0  0  0  0  0  0  0  0  0
  124.3658  131.1480   59.2688 H   0  0  0  0  0  0  0  0  0  0  0  0
  128.9935  132.7621   58.1843 H   0  0  0  0  0  0  0  0  0  0  0  0
  131.4529  132.4247   58.1575 H   0  0  0  0  0  0  0  0  0  0  0  0
  1  2  1  0
  2  3  1  0
  3  4  2  0
  4  5  1  0
  5  6  2  0
  6  7  1  0
  7  8  1  0
  8  9  1  0
  9 10  1  0
 10 11  1  0
 11 12  1  0
 12 13  1  0
 13 14  1  0
 14 15  2  0
 15 16  1  0
 16 17  2  0
 17 18  1  0
 18 19  1  0
 19 20  2  0
 19 21  1  0
 21 22  2  0
 22 23  1  0
 23 24  2  0
 24 25  1  0
 25 26  2  0
 17 27  1  0
 27 28  2  0
 28 29  1  0
 29 30  2  0
 12 31  1  0
 31 32  1  0
 32 33  1  0
  7 34  1  0
 34 35  2  0
 35 36  1  0
 36 37  2  0
 37 38  1  0
 38 39  2  0
  7 40  1  0
 40 41  2  0
 41 42  1  0
 42 43  2  0
 43 44  1  0
 44 45  2  0
  6 46  1  0
 46 47  2  0
 47  3  1  0
 32 10  1  0
 39 34  1  0
 45 40  1  0
 30 13  1  0
 30 16  1  0
 26 21  1  0
  1 48  1  0
  1 49  1  0
  1 50  1  0
  4 51  1  0
  5 52  1  0
  9 53  1  0
  9 54  1  0
 10 55  1  1
 12 56  1  1
 14 57  1  0
 18 58  1  0
 22 59  1  0
 23 60  1  0
 24 61  1  0
 25 62  1  0
 26 63  1  0
 28 64  1  0
 31 65  1  0
 31 66  1  0
 32 67  1  6
 33 68  1  0
 35 69  1  0
 36 70  1  0
 37 71  1  0
 38 72  1  0
 39 73  1  0
 41 74  1  0
 42 75  1  0
 43 76  1  0
 44 77  1  0
 45 78  1  0
 46 79  1  0
 47 80  1  0
M  END
>  <Binding energies>  (1) 
[-9.87]

>  <Ligand effiencies>  (1) 
[-0.2014285714285714]

>  <Interactions>  (1) 
["V-A:TYR:539:CD2:4871, V-A:PRO:540:CB:4882, V-A:ALA:541:CB:4889, V-A:PRO:540:CA:4880, V-A:PRO:540:N:4881, V-A:TYR:539:C:4864, V-B:TRP:381:CZ2:8338, V-B:TRP:381:CH2:8340, V-A:ASP:366:CB:3208, V-A:LEU:363:CA:3181, V-A:ASP:366:CG:3209, V-A:GLU:543:CD:4905, V-A:ASN:362:C:3168, V-A:TYR:539:CE2:4873, V-B:LEU:475:CD2:9227, V-A:GLU:543:CB:4903, V-B:ASP:366:CA:8178, V-B:ASP:366:CB:8180, V-B:TYR:531:CZ:9763, V-B:ILE:369:CG2:8205, V-B:ASP:366:CG:8181, V-A:TYR:539:CZ:4874, V-B:GLU:543:CD:9877, V-B:TYR:539:CE2:9845, V-A:LEU:475:CD1:4254, V-A:ILE:369:CG1:3234, V-A:ILE:369:CB:3232, H-A:GLY:454:N:4046, V-A:ILE:369:CG2:3233, V-A:GLY:454:CA:4045, V-A:GLY:453:C:4038, V-A:GLY:453:CA:4040, H-A:TYR:484:OH:4344, H-B:ARG:545:NH2:9897, H-B:TYR:484:OH:9316, H-B:GLY:454:N:9018, V-B:TYR:531:CE1:9761, V-A:LEU:363:CB:3183, V-B:TRP:381:CZ3:8339, V-B:ASP:366:C:8176"]

$$$$
RR8_A_Rahimova_2017
     RDKit          3D

 73 77  0  0  0  0  0  0  0  0999 V2000
  130.6910  127.2500   63.6350 O   0  0  0  0  0  0  0  0  0  0  0  0
  129.5920  127.1370   63.0820 C   0  0  0  0  0  0  0  0  0  0  0  0
  129.3670  126.4040   61.9480 O   0  0  0  0  0  0  0  0  0  0  0  0
  128.9500  125.0760   62.1080 C   0  0  1  0  0  0  0  0  0  0  0  0
  129.3500  124.2770   61.0320 O   0  0  0  0  0  0  0  0  0  0  0  0
  129.7470  122.9760   61.4580 C   0  0  2  0  0  0  0  0  0  0  0  0
  128.9140  121.9340   60.6930 C   0  0  0  0  0  0  0  0  0  0  0  0
  127.5730  122.3950   60.6040 O   0  0  0  0  0  0  0  0  0  0  0  0
  127.2230  122.9110   59.3260 C   0  0  0  0  0  0  0  0  0  0  0  0
  125.8710  123.6050   59.4030 C   0  0  0  0  0  0  0  0  0  0  0  0
  125.3200  124.1860   58.2580 C   0  0  0  0  0  0  0  0  0  0  0  0
  124.0790  124.8160   58.3240 C   0  0  0  0  0  0  0  0  0  0  0  0
  123.3910  124.8600   59.5350 C   0  0  0  0  0  0  0  0  0  0  0  0
  123.9300  124.2780   60.6800 C   0  0  0  0  0  0  0  0  0  0  0  0
  125.1700  123.6470   60.6130 C   0  0  0  0  0  0  0  0  0  0  0  0
  129.5320  123.0070   62.9770 C   0  0  1  0  0  0  0  0  0  0  0  0
  130.5480  122.3170   63.7020 O   0  0  0  0  0  0  0  0  0  0  0  0
  131.7300  123.0630   63.9680 C   0  0  0  0  0  0  0  0  0  0  0  0
  132.6800  122.9710   62.7820 C   0  0  0  0  0  0  0  0  0  0  0  0
  132.7530  121.7880   62.0410 C   0  0  0  0  0  0  0  0  0  0  0  0
  133.6250  121.6940   60.9610 C   0  0  0  0  0  0  0  0  0  0  0  0
  134.4270  122.7830   60.6240 C   0  0  0  0  0  0  0  0  0  0  0  0
  134.3670  123.9630   61.3610 C   0  0  0  0  0  0  0  0  0  0  0  0
  133.4950  124.0570   62.4430 C   0  0  0  0  0  0  0  0  0  0  0  0
  129.6570  124.4810   63.3180 C   0  0  2  0  0  0  0  0  0  0  0  0
  129.0120  124.7670   64.5560 O   0  0  0  0  0  0  0  0  0  0  0  0
  129.7710  124.4850   65.7260 C   0  0  0  0  0  0  0  0  0  0  0  0
  129.7910  125.7040   66.6370 C   0  0  0  0  0  0  0  0  0  0  0  0
  128.7720  125.8980   67.5750 C   0  0  0  0  0  0  0  0  0  0  0  0
  128.8000  127.0100   68.4130 C   0  0  0  0  0  0  0  0  0  0  0  0
  129.8470  127.9230   68.3130 C   0  0  0  0  0  0  0  0  0  0  0  0
  130.8690  127.7340   67.3860 C   0  0  0  0  0  0  0  0  0  0  0  0
  130.8420  126.6220   66.5470 C   0  0  0  0  0  0  0  0  0  0  0  0
  128.3450  127.7930   63.6030 C   0  0  0  0  0  0  0  0  0  0  0  0
  128.2390  128.2350   64.9310 C   0  0  0  0  0  0  0  0  0  0  0  0
  127.0690  128.8390   65.3840 C   0  0  0  0  0  0  0  0  0  0  0  0
  125.9770  129.0150   64.5250 C   0  0  0  0  0  0  0  0  0  0  0  0
  124.7320  129.6590   65.0090 N   0  0  0  0  0  0  0  0  0  0  0  0
  124.0860  130.3510   64.2280 O   0  0  0  0  0  0  0  0  0  0  0  0
  124.3900  129.4780   66.1740 O   0  0  0  0  0  0  0  0  0  0  0  0
  126.0830  128.5710   63.2010 C   0  0  0  0  0  0  0  0  0  0  0  0
  127.2510  127.9670   62.7460 C   0  0  0  0  0  0  0  0  0  0  0  0
  127.8540  125.0909   62.2008 H   0  0  0  0  0  0  0  0  0  0  0  0
  130.7904  122.6985   61.2476 H   0  0  0  0  0  0  0  0  0  0  0  0
  129.3268  121.8006   59.6822 H   0  0  0  0  0  0  0  0  0  0  0  0
  128.9434  120.9704   61.2227 H   0  0  0  0  0  0  0  0  0  0  0  0
  127.9865  123.6337   59.0023 H   0  0  0  0  0  0  0  0  0  0  0  0
  127.1659  122.0836   58.6034 H   0  0  0  0  0  0  0  0  0  0  0  0
  125.8662  124.1460   57.3040 H   0  0  0  0  0  0  0  0  0  0  0  0
  123.6444  125.2764   57.4245 H   0  0  0  0  0  0  0  0  0  0  0  0
  122.4123  125.3594   59.5873 H   0  0  0  0  0  0  0  0  0  0  0  0
  123.3796  124.3165   61.6316 H   0  0  0  0  0  0  0  0  0  0  0  0
  125.5986  123.1811   61.5126 H   0  0  0  0  0  0  0  0  0  0  0  0
  128.5764  122.5297   63.2397 H   0  0  0  0  0  0  0  0  0  0  0  0
  131.4649  124.1163   64.1418 H   0  0  0  0  0  0  0  0  0  0  0  0
  132.2244  122.6513   64.8602 H   0  0  0  0  0  0  0  0  0  0  0  0
  132.1201  120.9301   62.3122 H   0  0  0  0  0  0  0  0  0  0  0  0
  133.6813  120.7644   60.3757 H   0  0  0  0  0  0  0  0  0  0  0  0
  135.1138  122.7097   59.7679 H   0  0  0  0  0  0  0  0  0  0  0  0
  135.0053  124.8169   61.0899 H   0  0  0  0  0  0  0  0  0  0  0  0
  133.4469  124.9852   63.0313 H   0  0  0  0  0  0  0  0  0  0  0  0
  130.6753  124.8676   63.4714 H   0  0  0  0  0  0  0  0  0  0  0  0
  129.3163  123.6378   66.2603 H   0  0  0  0  0  0  0  0  0  0  0  0
  130.8017  124.2322   65.4367 H   0  0  0  0  0  0  0  0  0  0  0  0
  127.9486  125.1725   67.6509 H   0  0  0  0  0  0  0  0  0  0  0  0
  127.9989  127.1665   69.1504 H   0  0  0  0  0  0  0  0  0  0  0  0
  129.8669  128.8026   68.9732 H   0  0  0  0  0  0  0  0  0  0  0  0
  131.6934  128.4590   67.3166 H   0  0  0  0  0  0  0  0  0  0  0  0
  131.6472  126.4662   65.8140 H   0  0  0  0  0  0  0  0  0  0  0  0
  129.0869  128.1032   65.6193 H   0  0  0  0  0  0  0  0  0  0  0  0
  127.0018  129.1814   66.4272 H   0  0  0  0  0  0  0  0  0  0  0  0
  125.2341  128.7011   62.5137 H   0  0  0  0  0  0  0  0  0  0  0  0
  127.3158  127.6229   61.7032 H   0  0  0  0  0  0  0  0  0  0  0  0
  1  2  2  0
  2  3  1  0
  3  4  1  0
  4  5  1  0
  5  6  1  0
  6  7  1  0
  7  8  1  0
  8  9  1  0
  9 10  1  0
 10 11  2  0
 11 12  1  0
 12 13  2  0
 13 14  1  0
 14 15  2  0
  6 16  1  0
 16 17  1  0
 17 18  1  0
 18 19  1  0
 19 20  2  0
 20 21  1  0
 21 22  2  0
 22 23  1  0
 23 24  2  0
 16 25  1  0
 25 26  1  0
 26 27  1  0
 27 28  1  0
 28 29  2  0
 29 30  1  0
 30 31  2  0
 31 32  1  0
 32 33  2  0
  2 34  1  0
 34 35  2  0
 35 36  1  0
 36 37  2  0
 37 38  1  0
 38 39  2  0
 38 40  1  0
 37 41  1  0
 41 42  2  0
 25  4  1  0
 33 28  1  0
 42 34  1  0
 15 10  1  0
 24 19  1  0
  4 43  1  1
  6 44  1  1
  7 45  1  0
  7 46  1  0
  9 47  1  0
  9 48  1  0
 11 49  1  0
 12 50  1  0
 13 51  1  0
 14 52  1  0
 15 53  1  0
 16 54  1  6
 18 55  1  0
 18 56  1  0
 20 57  1  0
 21 58  1  0
 22 59  1  0
 23 60  1  0
 24 61  1  0
 25 62  1  1
 27 63  1  0
 27 64  1  0
 29 65  1  0
 30 66  1  0
 31 67  1  0
 32 68  1  0
 33 69  1  0
 35 70  1  0
 36 71  1  0
 41 72  1  0
 42 73  1  0
M  CHG  2  38   1  40  -1
M  END
>  <Binding energies>  (1) 
[-9.88]

>  <Ligand effiencies>  (1) 
[-0.23523809523809525]

>  <Interactions>  (1) 
["V-A:ASP:366:CG:3209, V-A:GLU:543:CD:4905, V-A:HIS:456:CE1:4066, V-A:GLU:543:CB:4903, V-B:GLU:543:CB:9875, V-B:HIS:456:CE1:9038, V-B:ASP:366:CB:8180, V-B:ASN:362:CB:8144, V-B:PRO:540:CA:9852, V-B:ASN:362:C:8140, V-B:PRO:540:N:9853, V-B:PRO:540:CB:9854, V-B:ASP:366:CG:8181, V-B:LEU:363:CD1:8157, V-B:LEU:363:CA:8153, V-B:ALA:541:CB:9861, V-B:GLU:543:CD:9877, V-B:GLU:543:CG:9876, V-A:TYR:484:CZ:4343, H-A:ARG:545:NH2:4925, V-B:TYR:539:CE2:9845, V-A:TYR:484:CE1:4341, H-B:ALA:541:N:9860, V-A:LEU:475:CD1:4254, V-A:ILE:369:CG1:3234, V-A:ILE:369:CB:3232, V-B:TYR:539:CD2:9843, V-A:ILE:369:CG2:3233, V-A:GLY:454:CA:4045, V-B:ARG:545:CZ:9895, V-A:GLY:453:CA:4040, H-B:ARG:545:NE:9893, H-B:TYR:484:OH:9316, H-B:GLY:454:N:9018, H-B:HIS:456:ND1:9035"]

$$$$
RR8_B_Rahimova_2017
     RDKit          3D

 73 77  0  0  0  0  0  0  0  0999 V2000
  131.4330  124.9990   60.8360 O   0  0  0  0  0  0  0  0  0  0  0  0
  130.5910  125.4540   60.0550 C   0  0  0  0  0  0  0  0  0  0  0  0
  130.2490  126.7750   59.9710 O   0  0  0  0  0  0  0  0  0  0  0  0
  130.4860  127.5950   61.0890 C   0  0  2  0  0  0  0  0  0  0  0  0
  129.4700  127.4800   62.0450 O   0  0  0  0  0  0  0  0  0  0  0  0
  128.4460  128.4520   61.8370 C   0  0  2  0  0  0  0  0  0  0  0  0
  127.0960  127.7400   61.6350 C   0  0  0  0  0  0  0  0  0  0  0  0
  127.1620  126.9350   60.4650 O   0  0  0  0  0  0  0  0  0  0  0  0
  127.0810  125.5360   60.6970 C   0  0  0  0  0  0  0  0  0  0  0  0
  125.8980  124.9690   59.9270 C   0  0  0  0  0  0  0  0  0  0  0  0
  125.7660  125.2360   58.5610 C   0  0  0  0  0  0  0  0  0  0  0  0
  124.6720  124.7400   57.8560 C   0  0  0  0  0  0  0  0  0  0  0  0
  123.7140  123.9760   58.5200 C   0  0  0  0  0  0  0  0  0  0  0  0
  123.8420  123.7010   59.8790 C   0  0  0  0  0  0  0  0  0  0  0  0
  124.9340  124.1990   60.5850 C   0  0  0  0  0  0  0  0  0  0  0  0
  128.9420  129.2760   60.6430 C   0  0  1  0  0  0  0  0  0  0  0  0
  128.5610  130.6450   60.8060 O   0  0  0  0  0  0  0  0  0  0  0  0
  127.4880  131.1230   59.9900 C   0  0  0  0  0  0  0  0  0  0  0  0
  127.1740  132.5930   60.2520 C   0  0  0  0  0  0  0  0  0  0  0  0
  125.8930  133.0920   59.9990 C   0  0  0  0  0  0  0  0  0  0  0  0
  125.6000  134.4260   60.2690 C   0  0  0  0  0  0  0  0  0  0  0  0
  126.5910  135.2580   60.7880 C   0  0  0  0  0  0  0  0  0  0  0  0
  127.8710  134.7680   61.0390 C   0  0  0  0  0  0  0  0  0  0  0  0
  128.1630  133.4330   60.7720 C   0  0  0  0  0  0  0  0  0  0  0  0
  130.4510  129.0620   60.6630 C   0  0  2  0  0  0  0  0  0  0  0  0
  131.0040  129.2980   59.3700 O   0  0  0  0  0  0  0  0  0  0  0  0
  131.8290  130.4470   59.2570 C   0  0  0  0  0  0  0  0  0  0  0  0
  131.4200  131.2050   58.0060 C   0  0  0  0  0  0  0  0  0  0  0  0
  132.3610  131.4880   57.0120 C   0  0  0  0  0  0  0  0  0  0  0  0
  131.9790  132.2000   55.8780 C   0  0  0  0  0  0  0  0  0  0  0  0
  130.6600  132.6270   55.7420 C   0  0  0  0  0  0  0  0  0  0  0  0
  129.7160  132.3460   56.7280 C   0  0  0  0  0  0  0  0  0  0  0  0
  130.0970  131.6340   57.8610 C   0  0  0  0  0  0  0  0  0  0  0  0
  129.8000  124.5960   59.1110 C   0  0  0  0  0  0  0  0  0  0  0  0
  129.5180  125.0060   57.7990 C   0  0  0  0  0  0  0  0  0  0  0  0
  128.7750  124.1950   56.9490 C   0  0  0  0  0  0  0  0  0  0  0  0
  128.2860  122.9590   57.3900 C   0  0  0  0  0  0  0  0  0  0  0  0
  127.4700  122.1060   56.4890 N   0  0  0  0  0  0  0  0  0  0  0  0
  126.3610  121.7410   56.8690 O   0  0  0  0  0  0  0  0  0  0  0  0
  127.9320  121.8000   55.3920 O   0  0  0  0  0  0  0  0  0  0  0  0
  128.5730  122.5470   58.6970 C   0  0  0  0  0  0  0  0  0  0  0  0
  129.3220  123.3540   59.5460 C   0  0  0  0  0  0  0  0  0  0  0  0
  131.4564  127.2829   61.5023 H   0  0  0  0  0  0  0  0  0  0  0  0
  128.2634  129.1261   62.6869 H   0  0  0  0  0  0  0  0  0  0  0  0
  126.8811  127.1047   62.5069 H   0  0  0  0  0  0  0  0  0  0  0  0
  126.2969  128.4878   61.5242 H   0  0  0  0  0  0  0  0  0  0  0  0
  128.0081  125.0522   60.3557 H   0  0  0  0  0  0  0  0  0  0  0  0
  126.9470  125.3468   61.7723 H   0  0  0  0  0  0  0  0  0  0  0  0
  126.5267  125.8382   58.0427 H   0  0  0  0  0  0  0  0  0  0  0  0
  124.5648  124.9500   56.7816 H   0  0  0  0  0  0  0  0  0  0  0  0
  122.8480  123.5863   57.9649 H   0  0  0  0  0  0  0  0  0  0  0  0
  123.0833  123.0926   60.3930 H   0  0  0  0  0  0  0  0  0  0  0  0
  125.0382  123.9869   61.6593 H   0  0  0  0  0  0  0  0  0  0  0  0
  128.5142  128.9774   59.6746 H   0  0  0  0  0  0  0  0  0  0  0  0
  127.7669  131.0035   58.9327 H   0  0  0  0  0  0  0  0  0  0  0  0
  126.5901  130.5372   60.2364 H   0  0  0  0  0  0  0  0  0  0  0  0
  125.1166  132.4308   59.5867 H   0  0  0  0  0  0  0  0  0  0  0  0
  124.5922  134.8213   60.0739 H   0  0  0  0  0  0  0  0  0  0  0  0
  126.3601  136.3121   61.0015 H   0  0  0  0  0  0  0  0  0  0  0  0
  128.6472  135.4327   61.4462 H   0  0  0  0  0  0  0  0  0  0  0  0
  129.1710  133.0397   60.9701 H   0  0  0  0  0  0  0  0  0  0  0  0
  131.0390  129.7260   61.3137 H   0  0  0  0  0  0  0  0  0  0  0  0
  131.6968  131.0885   60.1408 H   0  0  0  0  0  0  0  0  0  0  0  0
  132.8862  130.1502   59.1923 H   0  0  0  0  0  0  0  0  0  0  0  0
  133.4013  131.1489   57.1254 H   0  0  0  0  0  0  0  0  0  0  0  0
  132.7158  132.4244   55.0927 H   0  0  0  0  0  0  0  0  0  0  0  0
  130.3604  133.1919   54.8469 H   0  0  0  0  0  0  0  0  0  0  0  0
  128.6761  132.6850   56.6112 H   0  0  0  0  0  0  0  0  0  0  0  0
  129.3571  131.4084   58.6431 H   0  0  0  0  0  0  0  0  0  0  0  0
  129.8881  125.9777   57.4400 H   0  0  0  0  0  0  0  0  0  0  0  0
  128.5693  124.5271   55.9207 H   0  0  0  0  0  0  0  0  0  0  0  0
  128.2023  121.5754   59.0556 H   0  0  0  0  0  0  0  0  0  0  0  0
  129.5410  123.0136   60.5688 H   0  0  0  0  0  0  0  0  0  0  0  0
  1  2  2  0
  2  3  1  0
  3  4  1  0
  4  5  1  0
  5  6  1  0
  6  7  1  0
  7  8  1  0
  8  9  1  0
  9 10  1  0
 10 11  2  0
 11 12  1  0
 12 13  2  0
 13 14  1  0
 14 15  2  0
  6 16  1  0
 16 17  1  0
 17 18  1  0
 18 19  1  0
 19 20  2  0
 20 21  1  0
 21 22  2  0
 22 23  1  0
 23 24  2  0
 16 25  1  0
 25 26  1  0
 26 27  1  0
 27 28  1  0
 28 29  2  0
 29 30  1  0
 30 31  2  0
 31 32  1  0
 32 33  2  0
  2 34  1  0
 34 35  2  0
 35 36  1  0
 36 37  2  0
 37 38  1  0
 38 39  2  0
 38 40  1  0
 37 41  1  0
 41 42  2  0
 25  4  1  0
 33 28  1  0
 42 34  1  0
 15 10  1  0
 24 19  1  0
  4 43  1  1
  6 44  1  1
  7 45  1  0
  7 46  1  0
  9 47  1  0
  9 48  1  0
 11 49  1  0
 12 50  1  0
 13 51  1  0
 14 52  1  0
 15 53  1  0
 16 54  1  6
 18 55  1  0
 18 56  1  0
 20 57  1  0
 21 58  1  0
 22 59  1  0
 23 60  1  0
 24 61  1  0
 25 62  1  1
 27 63  1  0
 27 64  1  0
 29 65  1  0
 30 66  1  0
 31 67  1  0
 32 68  1  0
 33 69  1  0
 35 70  1  0
 36 71  1  0
 41 72  1  0
 42 73  1  0
M  CHG  2  38   1  40  -1
M  END
>  <Binding energies>  (1) 
[-9.48]

>  <Ligand effiencies>  (1) 
[-0.22571428571428573]

>  <Interactions>  (1) 
["V-A:TYR:539:CD2:4871, V-A:PRO:540:CB:4882, V-A:ALA:541:CB:4889, V-A:PRO:540:CA:4880, V-A:PRO:540:N:4881, V-A:LEU:363:CD1:3185, V-A:TYR:539:C:4864, V-B:TRP:381:CZ2:8338, V-B:TRP:381:CH2:8340, V-A:TYR:539:CE2:4873, V-B:LEU:475:CD2:9227, V-A:ILE:538:CD1:4862, V-B:TYR:539:CE1:9844, V-B:MET:535:CE:9804, V-B:PRO:540:CA:9852, V-B:TYR:539:CZ:9846, V-B:ASN:362:C:8140, V-B:PRO:540:N:9853, V-B:ILE:369:CG2:8205, V-B:PRO:540:CB:9854, H-B:TYR:539:N:9839, V-B:LEU:363:CD1:8157, V-B:LEU:363:CA:8153, V-A:ILE:538:CG2:4860, V-A:PRO:540:CD:4884, V-B:TYR:539:CE2:9845, V-B:TYR:539:C:9836, V-B:TYR:539:CD2:9843, V-A:ILE:538:CA:4857, V-B:ILE:538:CA:9829, V-B:TYR:539:CD1:9842, V-B:TYR:539:CG:9841, V-B:LEU:363:CB:8155, V-A:ALA:541:CA:4887, V-B:TYR:539:CA:9838"]

$$$$
RR9_Rahimova_2017
     RDKit          3D

 64 68  0  0  0  0  0  0  0  0999 V2000
  124.0960  133.3000   62.5280 C   0  0  0  0  0  0  0  0  0  0  0  0
  123.6780  131.8260   62.5180 C   0  0  0  0  0  0  0  0  0  0  0  0
  124.1540  131.2070   63.7090 O   0  0  0  0  0  0  0  0  0  0  0  0
  125.1740  130.2780   63.6300 C   0  0  0  0  0  0  0  0  0  0  0  0
  125.6190  129.9490   62.3510 C   0  0  0  0  0  0  0  0  0  0  0  0
  126.6400  129.0210   62.1730 C   0  0  0  0  0  0  0  0  0  0  0  0
  127.2470  128.3950   63.2720 C   0  0  0  0  0  0  0  0  0  0  0  0
  128.3450  127.3910   63.0850 C   0  0  0  0  0  0  0  0  0  0  0  0
  128.2330  126.3410   62.1600 C   0  0  0  0  0  0  0  0  0  0  0  0
  129.2720  125.4090   61.9800 C   0  0  0  0  0  0  0  0  0  0  0  0
  129.1330  124.3680   60.9020 C   0  0  0  0  0  0  0  0  0  0  0  0
  129.8270  124.4270   59.8870 O   0  0  0  0  0  0  0  0  0  0  0  0
  128.2040  123.4170   61.1230 N   0  0  0  0  0  0  0  0  0  0  0  0
  127.7940  122.3790   60.1710 C   0  0  0  0  0  0  0  0  0  0  0  0
  127.1080  122.9510   58.9090 C   0  0  0  0  0  0  0  0  0  0  0  0
  125.7790  123.6510   59.1680 C   0  0  0  0  0  0  0  0  0  0  0  0
  125.2250  123.6520   60.4520 C   0  0  0  0  0  0  0  0  0  0  0  0
  124.0280  124.3220   60.6920 C   0  0  0  0  0  0  0  0  0  0  0  0
  123.3860  124.9830   59.6480 C   0  0  0  0  0  0  0  0  0  0  0  0
  123.9300  124.9830   58.3650 C   0  0  0  0  0  0  0  0  0  0  0  0
  125.1280  124.3140   58.1240 C   0  0  0  0  0  0  0  0  0  0  0  0
  130.4110  125.5730   62.8050 C   0  0  0  0  0  0  0  0  0  0  0  0
  131.6760  124.9220   63.0530 C   0  0  0  0  0  0  0  0  0  0  0  0
  132.2180  123.6530   62.4820 C   0  0  0  0  0  0  0  0  0  0  0  0
  133.5650  123.5630   62.1200 C   0  0  0  0  0  0  0  0  0  0  0  0
  134.0650  122.3840   61.5720 C   0  0  0  0  0  0  0  0  0  0  0  0
  133.2190  121.2890   61.3890 C   0  0  0  0  0  0  0  0  0  0  0  0
  133.7590  120.0100   60.7750 C   0  0  0  0  0  0  0  0  0  0  0  0
  131.8730  121.3750   61.7470 C   0  0  0  0  0  0  0  0  0  0  0  0
  131.3760  122.5530   62.2970 C   0  0  0  0  0  0  0  0  0  0  0  0
  132.3780  125.5970   63.9350 N   0  0  0  0  0  0  0  0  0  0  0  0
  131.6360  126.6390   64.3430 N   0  0  0  0  0  0  0  0  0  0  0  0
  130.4210  126.6710   63.6990 C   0  0  0  0  0  0  0  0  0  0  0  0
  129.4470  127.5630   63.8680 N   0  0  0  0  0  0  0  0  0  0  0  0
  126.7920  128.7300   64.5550 C   0  0  0  0  0  0  0  0  0  0  0  0
  125.7710  129.6590   64.7360 C   0  0  0  0  0  0  0  0  0  0  0  0
  124.1942  133.6462   63.5675 H   0  0  0  0  0  0  0  0  0  0  0  0
  125.0610  133.4110   62.0119 H   0  0  0  0  0  0  0  0  0  0  0  0
  123.3329  133.9010   62.0119 H   0  0  0  0  0  0  0  0  0  0  0  0
  122.5812  131.7528   62.4760 H   0  0  0  0  0  0  0  0  0  0  0  0
  124.1045  131.3220   61.6381 H   0  0  0  0  0  0  0  0  0  0  0  0
  125.1586  130.4275   61.4740 H   0  0  0  0  0  0  0  0  0  0  0  0
  126.9764  128.7743   61.1552 H   0  0  0  0  0  0  0  0  0  0  0  0
  127.3139  126.2447   61.5634 H   0  0  0  0  0  0  0  0  0  0  0  0
  127.7440  123.4000   62.0210 H   0  0  0  0  0  0  0  0  0  0  0  0
  128.6868  121.8168   59.8599 H   0  0  0  0  0  0  0  0  0  0  0  0
  127.0605  121.7372   60.6809 H   0  0  0  0  0  0  0  0  0  0  0  0
  127.7929  123.6766   58.4459 H   0  0  0  0  0  0  0  0  0  0  0  0
  126.8848  122.0912   58.2602 H   0  0  0  0  0  0  0  0  0  0  0  0
  125.7343  123.1240   61.2717 H   0  0  0  0  0  0  0  0  0  0  0  0
  123.5916  124.3290   61.7017 H   0  0  0  0  0  0  0  0  0  0  0  0
  122.4397  125.5106   59.8380 H   0  0  0  0  0  0  0  0  0  0  0  0
  123.4161  125.5086   57.5467 H   0  0  0  0  0  0  0  0  0  0  0  0
  125.5612  124.3076   57.1129 H   0  0  0  0  0  0  0  0  0  0  0  0
  134.2318  124.4252   62.2682 H   0  0  0  0  0  0  0  0  0  0  0  0
  135.1245  122.3160   61.2840 H   0  0  0  0  0  0  0  0  0  0  0  0
  134.0526  119.3146   61.5752 H   0  0  0  0  0  0  0  0  0  0  0  0
  132.9804  119.5449   60.1525 H   0  0  0  0  0  0  0  0  0  0  0  0
  134.6353  120.2436   60.1525 H   0  0  0  0  0  0  0  0  0  0  0  0
  131.2061  120.5135   61.5948 H   0  0  0  0  0  0  0  0  0  0  0  0
  130.3169  122.6184   62.5870 H   0  0  0  0  0  0  0  0  0  0  0  0
  131.9890  127.2820   65.0370 H   0  0  0  0  0  0  0  0  0  0  0  0
  127.2493  128.2509   65.4333 H   0  0  0  0  0  0  0  0  0  0  0  0
  125.4314  129.9082   65.7522 H   0  0  0  0  0  0  0  0  0  0  0  0
  1  2  1  0
  2  3  1  0
  3  4  1  0
  4  5  2  0
  5  6  1  0
  6  7  2  0
  7  8  1  0
  8  9  2  0
  9 10  1  0
 10 11  1  0
 11 12  2  0
 11 13  1  0
 13 14  1  0
 14 15  1  0
 15 16  1  0
 16 17  2  0
 17 18  1  0
 18 19  2  0
 19 20  1  0
 20 21  2  0
 10 22  2  0
 22 23  1  0
 23 24  1  0
 24 25  2  0
 25 26  1  0
 26 27  2  0
 27 28  1  0
 27 29  1  0
 29 30  2  0
 23 31  2  0
 31 32  1  0
 32 33  1  0
 33 34  2  0
  7 35  1  0
 35 36  2  0
 36  4  1  0
 34  8  1  0
 21 16  1  0
 33 22  1  0
 30 24  1  0
  1 37  1  0
  1 38  1  0
  1 39  1  0
  2 40  1  0
  2 41  1  0
  5 42  1  0
  6 43  1  0
  9 44  1  0
 13 45  1  0
 14 46  1  0
 14 47  1  0
 15 48  1  0
 15 49  1  0
 17 50  1  0
 18 51  1  0
 19 52  1  0
 20 53  1  0
 21 54  1  0
 25 55  1  0
 26 56  1  0
 28 57  1  0
 28 58  1  0
 28 59  1  0
 29 60  1  0
 30 61  1  0
 32 62  1  0
 35 63  1  0
 36 64  1  0
M  END
>  <Binding energies>  (1) 
[-9.17]

>  <Ligand effiencies>  (1) 
[-0.2413157894736842]

>  <Interactions>  (1) 
["H-A:GLU:543:OE1:4906, V-A:GLU:543:CD:4905, V-B:LEU:475:CD2:9227, V-B:ASP:366:CB:8180, V-B:ASN:362:CB:8144, V-B:PRO:540:CA:9852, V-B:ASN:362:C:8140, V-B:PRO:540:N:9853, V-B:PRO:540:C:9850, V-B:PRO:540:CB:9854, V-B:ASP:366:CG:8181, V-B:LEU:363:CD1:8157, V-B:LEU:363:CA:8153, V-B:ALA:541:CB:9861, H-B:GLU:543:OE2:9879, V-B:GLU:543:CD:9877, V-A:ARG:545:CZ:4923, H-A:ARG:545:NH2:4925, V-B:TYR:539:CE2:9845, H-A:ARG:545:NE:4921, V-A:LEU:475:CD1:4254, V-A:ILE:369:CG1:3234, V-B:TYR:539:CD2:9843, V-B:ILE:369:CD1:8207, V-A:ILE:369:CG2:3233, V-A:GLY:454:CA:4045, H-B:GLY:454:N:9018, V-B:GLY:454:CA:9017"]

$$$$
