1a_Ghoteimi_2023
     RDKit          3D

 40 43  0  0  0  0  0  0  0  0999 V2000
  125.0940  123.5130   55.8090 C   0  0  0  0  0  0  0  0  0  0  0  0
  125.4290  122.6130   57.0020 C   0  0  0  0  0  0  0  0  0  0  0  0
  126.7510  122.1090   56.8560 O   0  0  0  0  0  0  0  0  0  0  0  0
  127.8250  122.8250   57.2790 C   0  0  0  0  0  0  0  0  0  0  0  0
  128.9760  122.6260   56.8790 O   0  0  0  0  0  0  0  0  0  0  0  0
  127.4710  123.8870   58.2800 C   0  0  0  0  0  0  0  0  0  0  0  0
  127.3110  123.5980   59.6440 C   0  0  0  0  0  0  0  0  0  0  0  0
  126.9800  124.6040   60.5480 C   0  0  0  0  0  0  0  0  0  0  0  0
  126.8070  125.9230   60.1030 C   0  0  0  0  0  0  0  0  0  0  0  0
  126.4680  127.0140   60.9260 N   0  0  0  0  0  0  0  0  0  0  0  0
  127.1880  127.6270   61.8910 C   0  0  0  0  0  0  0  0  0  0  0  0
  128.3340  127.3300   62.2260 O   0  0  0  0  0  0  0  0  0  0  0  0
  126.4860  128.7860   62.5980 C   0  0  0  0  0  0  0  0  0  0  0  0
  127.6750  129.9050   63.3960 S   0  0  0  0  0  0  0  0  0  0  0  0
  127.8200  131.3180   62.3270 C   0  0  0  0  0  0  0  0  0  0  0  0
  128.8110  131.2130   61.4090 N   0  0  0  0  0  0  0  0  0  0  0  0
  129.0240  132.2240   60.5270 C   0  0  0  0  0  0  0  0  0  0  0  0
  130.1270  132.0230   59.5280 C   0  0  0  0  0  0  0  0  0  0  0  0
  131.4190  131.6500   59.9330 C   0  0  0  0  0  0  0  0  0  0  0  0
  132.4390  131.4640   59.0050 C   0  0  0  0  0  0  0  0  0  0  0  0
  132.2030  131.6470   57.6450 C   0  0  0  0  0  0  0  0  0  0  0  0
  133.2730  131.4380   56.7950 O   0  0  0  0  0  0  0  0  0  0  0  0
  134.3810  130.6700   57.2520 C   0  0  0  0  0  0  0  0  0  0  0  0
  130.9200  132.0240   57.2250 C   0  0  0  0  0  0  0  0  0  0  0  0
  129.9020  132.2090   58.1550 C   0  0  0  0  0  0  0  0  0  0  0  0
  128.2290  133.3760   60.5580 C   0  0  0  0  0  0  0  0  0  0  0  0
  127.2140  133.5180   61.5140 C   0  0  0  0  0  0  0  0  0  0  0  0
  126.4270  134.7880   61.5080 C   0  0  0  0  0  0  0  0  0  0  0  0
  125.0390  134.7710   61.3360 C   0  0  0  0  0  0  0  0  0  0  0  0
  124.3110  135.9570   61.3470 C   0  0  0  0  0  0  0  0  0  0  0  0
  124.9520  137.1810   61.5360 C   0  0  0  0  0  0  0  0  0  0  0  0
  124.1490  138.3040   61.5330 O   0  0  0  0  0  0  0  0  0  0  0  0
  124.7320  139.5750   61.2640 C   0  0  0  0  0  0  0  0  0  0  0  0
  126.3430  137.2020   61.7170 C   0  0  0  0  0  0  0  0  0  0  0  0
  127.0700  136.0140   61.7050 C   0  0  0  0  0  0  0  0  0  0  0  0
  126.9950  132.4590   62.4270 C   0  0  0  0  0  0  0  0  0  0  0  0
  125.9380  132.5430   63.4400 C   0  0  0  0  0  0  0  0  0  0  0  0
  125.1030  132.6110   64.2390 N   0  0  0  0  0  0  0  0  0  0  0  0
  126.9610  126.2130   58.7470 C   0  0  0  0  0  0  0  0  0  0  0  0
  127.2930  125.2060   57.8430 C   0  0  0  0  0  0  0  0  0  0  0  0
  1  2  1  0
  2  3  1  0
  3  4  1  0
  4  5  2  0
  4  6  1  0
  6  7  2  0
  7  8  1  0
  8  9  2  0
  9 10  1  0
 10 11  1  0
 11 12  2  0
 11 13  1  0
 13 14  1  0
 14 15  1  0
 15 16  2  0
 16 17  1  0
 17 18  1  0
 18 19  2  0
 19 20  1  0
 20 21  2  0
 21 22  1  0
 22 23  1  0
 21 24  1  0
 24 25  2  0
 17 26  2  0
 26 27  1  0
 27 28  1  0
 28 29  2  0
 29 30  1  0
 30 31  2  0
 31 32  1  0
 32 33  1  0
 31 34  1  0
 34 35  2  0
 27 36  2  0
 36 37  1  0
 37 38  3  0
  9 39  1  0
 39 40  2  0
 40  6  1  0
 36 15  1  0
 25 18  1  0
 35 28  1  0
M  END
>  <Binding energies>  (1) 
[-9.91]

>  <Ligand effiencies>  (1) 
[-0.24170731707317072]

>  <Interactions>  (1) 
["V-A:LEU:363:CA:3182, V-A:TYR:539:CD1:4871, V-A:TYR:531:CE2:4791, V-A:TYR:539:C:4865, V-A:PRO:540:CB:4883, V-A:TYR:531:CZ:4792, V-A:TYR:539:CE1:4873, V-B:LEU:475:CD2:9230, V-A:PRO:540:CA:4881, H-A:TYR:531:OH:4793, V-A:LEU:363:CD1:3186, V-A:ALA:541:CB:4890, V-B:ILE:538:CB:9834, V-B:PRO:540:N:9856, V-B:PRO:540:CA:9855, H-B:ASP:366:OD2:8186, V-B:TYR:531:CE2:9765, V-B:TYR:539:C:9839, V-B:TYR:531:CZ:9766, V-B:PRO:540:CB:9857, V-B:LEU:363:CD1:8160, V-B:ILE:538:CG2:9835, V-B:PRO:482:CB:9297, V-B:ILE:369:CG2:8208, V-B:SER:385:CB:8380, V-B:LEU:373:CD1:8251, V-B:HIS:383:CB:8360, V-B:PRO:482:CG:9298, V-A:PRO:540:N:4882, V-A:ASP:366:CG:3210, V-A:LEU:363:CB:3184, H-B:TYR:539:N:9842, V-B:PRO:540:CD:9859, V-B:ASP:366:CG:8184, V-B:ARG:545:CZ:9898, V-B:SER:385:CA:8378, H-B:SER:385:N:8379, H-B:GLY:454:N:9021, V-B:SER:385:C:8376, V-A:ASP:366:CB:3209, H-B:ASP:366:OD1:8185, H-B:TYR:484:OH:9319, V-A:LEU:363:C:3180, V-A:LEU:363:CG:3185"]

$$$$
1b_Ghoteimi_2023
     RDKit          3D

 34 37  0  0  0  0  0  0  0  0999 V2000
  134.1930  130.7040   57.2360 C   0  0  0  0  0  0  0  0  0  0  0  0
  132.8930  131.1490   56.8680 O   0  0  0  0  0  0  0  0  0  0  0  0
  131.9640  131.4060   57.8570 C   0  0  0  0  0  0  0  0  0  0  0  0
  130.6610  131.6700   57.4380 C   0  0  0  0  0  0  0  0  0  0  0  0
  129.6590  131.9420   58.3640 C   0  0  0  0  0  0  0  0  0  0  0  0
  129.9270  131.9540   59.7410 C   0  0  0  0  0  0  0  0  0  0  0  0
  128.8420  132.2500   60.7380 C   0  0  0  0  0  0  0  0  0  0  0  0
  128.0920  133.4300   60.7180 C   0  0  0  0  0  0  0  0  0  0  0  0
  127.0880  133.6560   61.6690 C   0  0  0  0  0  0  0  0  0  0  0  0
  126.3300  134.9400   61.5900 C   0  0  0  0  0  0  0  0  0  0  0  0
  124.9520  134.9330   61.3600 C   0  0  0  0  0  0  0  0  0  0  0  0
  124.2420  136.1280   61.2770 C   0  0  0  0  0  0  0  0  0  0  0  0
  124.8970  137.3520   61.4190 C   0  0  0  0  0  0  0  0  0  0  0  0
  124.1120  138.4860   61.3220 O   0  0  0  0  0  0  0  0  0  0  0  0
  124.7320  139.7660   61.3890 C   0  0  0  0  0  0  0  0  0  0  0  0
  126.2810  137.3640   61.6420 C   0  0  0  0  0  0  0  0  0  0  0  0
  126.9880  136.1680   61.7240 C   0  0  0  0  0  0  0  0  0  0  0  0
  126.8440  132.6560   62.6420 C   0  0  0  0  0  0  0  0  0  0  0  0
  125.7420  132.8010   63.5980 C   0  0  0  0  0  0  0  0  0  0  0  0
  124.8720  132.9160   64.3530 N   0  0  0  0  0  0  0  0  0  0  0  0
  127.6510  131.4970   62.6190 C   0  0  0  0  0  0  0  0  0  0  0  0
  127.4930  130.1440   63.7660 S   0  0  0  0  0  0  0  0  0  0  0  0
  125.7270  129.7010   63.8730 C   0  0  0  0  0  0  0  0  0  0  0  0
  124.9200  129.9340   62.5870 C   0  0  0  0  0  0  0  0  0  0  0  0
  123.6900  130.0190   62.6220 O   0  0  0  0  0  0  0  0  0  0  0  0
  125.6650  130.0280   61.4630 N   0  0  0  0  0  0  0  0  0  0  0  0
  125.2100  130.2370   60.1670 C   0  0  0  0  0  0  0  0  0  0  0  0
  125.6290  129.4710   59.0800 C   0  0  0  0  0  0  0  0  0  0  0  0
  124.9560  129.9890   57.9970 C   0  0  0  0  0  0  0  0  0  0  0  0
  124.1710  131.0120   58.4110 O   0  0  0  0  0  0  0  0  0  0  0  0
  124.3410  131.1600   59.7880 N   0  0  0  0  0  0  0  0  0  0  0  0
  128.6070  131.2980   61.6790 N   0  0  0  0  0  0  0  0  0  0  0  0
  131.2430  131.6890   60.1520 C   0  0  0  0  0  0  0  0  0  0  0  0
  132.2490  131.4180   59.2290 C   0  0  0  0  0  0  0  0  0  0  0  0
  1  2  1  0
  2  3  1  0
  3  4  2  0
  4  5  1  0
  5  6  2  0
  6  7  1  0
  7  8  2  0
  8  9  1  0
  9 10  1  0
 10 11  2  0
 11 12  1  0
 12 13  2  0
 13 14  1  0
 14 15  1  0
 13 16  1  0
 16 17  2  0
  9 18  2  0
 18 19  1  0
 19 20  3  0
 18 21  1  0
 21 22  1  0
 22 23  1  0
 23 24  1  0
 24 25  2  0
 24 26  1  0
 26 27  1  0
 27 28  1  0
 28 29  2  0
 29 30  1  0
 30 31  1  0
 21 32  2  0
  6 33  1  0
 33 34  2  0
 34  3  1  0
 32  7  1  0
 17 10  1  0
 31 27  2  0
M  END
>  <Binding energies>  (2) 
[-8.79]

>  <Ligand effiencies>  (2) 
[-0.2511428571428571]

>  <Interactions>  (2) 
["V-A:LEU:363:CA:3182, V-A:TYR:539:CD1:4871, V-A:TYR:531:CE2:4791, V-A:TYR:539:C:4865, V-A:TYR:539:CZ:4875, V-A:PRO:540:CB:4883, V-A:TYR:531:CZ:4792, V-A:TYR:539:CE1:4873, V-B:LEU:475:CD2:9230, V-A:PRO:540:CA:4881, H-A:TYR:531:OH:4793, V-A:LEU:363:CD1:3186, V-A:ALA:541:CB:4890, V-B:GLY:454:CA:9020, V-B:PRO:482:CB:9297, V-B:HIS:383:CG:8361, V-B:ILE:369:CG2:8208, V-B:SER:385:CB:8380, V-B:LEU:373:CD1:8251, V-B:HIS:383:CB:8360, V-B:PRO:482:CG:9298, V-A:ASP:366:CG:3210, V-A:LEU:363:CB:3184, V-B:ASP:366:CB:8183, V-B:ASP:366:CG:8184, V-B:ARG:545:CZ:9898, V-B:SER:385:CA:8378, H-A:TYR:539:OH:4876, H-B:SER:385:N:8379, V-B:ASP:366:CA:8181, H-B:GLY:454:N:9021, V-B:SER:385:C:8376, V-A:ASP:366:CB:3209, H-B:ARG:545:NH2:9900, H-B:TYR:484:OH:9319, V-A:LEU:363:C:3180, H-B:ARG:545:NH1:9899"]

$$$$
1c_Ghoteimi_2023
     RDKit          3D

 34 37  0  0  0  0  0  0  0  0999 V2000
  133.5900  131.0020   57.2520 C   0  0  0  0  0  0  0  0  0  0  0  0
  133.5800  131.3100   58.6420 O   0  0  0  0  0  0  0  0  0  0  0  0
  132.3790  131.5920   59.2630 C   0  0  0  0  0  0  0  0  0  0  0  0
  131.3550  132.0760   58.4530 C   0  0  0  0  0  0  0  0  0  0  0  0
  130.1120  132.3900   58.9950 C   0  0  0  0  0  0  0  0  0  0  0  0
  129.8550  132.2300   60.3650 C   0  0  0  0  0  0  0  0  0  0  0  0
  128.5170  132.5720   60.9540 C   0  0  0  0  0  0  0  0  0  0  0  0
  128.0150  133.8770   60.9830 C   0  0  0  0  0  0  0  0  0  0  0  0
  126.7490  134.1440   61.5190 C   0  0  0  0  0  0  0  0  0  0  0  0
  126.2490  135.5490   61.4560 C   0  0  0  0  0  0  0  0  0  0  0  0
  124.9220  135.8170   61.1070 C   0  0  0  0  0  0  0  0  0  0  0  0
  124.4630  137.1280   61.0280 C   0  0  0  0  0  0  0  0  0  0  0  0
  125.3210  138.1950   61.2910 C   0  0  0  0  0  0  0  0  0  0  0  0
  124.7790  139.4620   61.1880 O   0  0  0  0  0  0  0  0  0  0  0  0
  123.6560  139.6700   60.3380 C   0  0  0  0  0  0  0  0  0  0  0  0
  126.6560  137.9310   61.6350 C   0  0  0  0  0  0  0  0  0  0  0  0
  127.1120  136.6180   61.7130 C   0  0  0  0  0  0  0  0  0  0  0  0
  126.0050  133.0670   62.0570 C   0  0  0  0  0  0  0  0  0  0  0  0
  124.6870  133.2850   62.6630 C   0  0  0  0  0  0  0  0  0  0  0  0
  123.6480  133.4590   63.1400 N   0  0  0  0  0  0  0  0  0  0  0  0
  126.5640  131.7740   61.9790 C   0  0  0  0  0  0  0  0  0  0  0  0
  125.6720  130.3110   62.4590 S   0  0  0  0  0  0  0  0  0  0  0  0
  124.1770  130.3140   61.4180 C   0  0  0  0  0  0  0  0  0  0  0  0
  124.4850  130.6900   59.9640 C   0  0  0  0  0  0  0  0  0  0  0  0
  124.0780  131.7620   59.5140 O   0  0  0  0  0  0  0  0  0  0  0  0
  125.2410  129.7980   59.2870 N   0  0  0  0  0  0  0  0  0  0  0  0
  125.7860  129.9640   58.0230 C   0  0  0  0  0  0  0  0  0  0  0  0
  125.2950  129.5560   56.8730 N   0  0  0  0  0  0  0  0  0  0  0  0
  126.0610  129.9250   55.8640 C   0  0  0  0  0  0  0  0  0  0  0  0
  127.2010  130.6520   56.1900 C   0  0  0  0  0  0  0  0  0  0  0  0
  127.2680  130.8570   57.9150 S   0  0  0  0  0  0  0  0  0  0  0  0
  127.7810  131.5360   61.4350 N   0  0  0  0  0  0  0  0  0  0  0  0
  130.8920  131.7360   61.1710 C   0  0  0  0  0  0  0  0  0  0  0  0
  132.1370  131.4220   60.6340 C   0  0  0  0  0  0  0  0  0  0  0  0
  1  2  1  0
  2  3  1  0
  3  4  2  0
  4  5  1  0
  5  6  2  0
  6  7  1  0
  7  8  2  0
  8  9  1  0
  9 10  1  0
 10 11  2  0
 11 12  1  0
 12 13  2  0
 13 14  1  0
 14 15  1  0
 13 16  1  0
 16 17  2  0
  9 18  2  0
 18 19  1  0
 19 20  3  0
 18 21  1  0
 21 22  1  0
 22 23  1  0
 23 24  1  0
 24 25  2  0
 24 26  1  0
 26 27  1  0
 27 28  2  0
 28 29  1  0
 29 30  2  0
 30 31  1  0
 21 32  2  0
  6 33  1  0
 33 34  2  0
 34  3  1  0
 32  7  1  0
 17 10  1  0
 31 27  1  0
M  END
>  <Binding energies>  (3) 
[-8.47]

>  <Ligand effiencies>  (3) 
[-0.24200000000000002]

>  <Interactions>  (3) 
["V-A:LEU:363:CA:3182, V-A:PRO:540:C:4879, V-A:TYR:539:CD1:4871, V-A:TYR:531:CE2:4791, V-A:TYR:539:C:4865, V-A:TYR:539:CZ:4875, V-A:PRO:540:CB:4883, V-A:TYR:531:CZ:4792, V-A:TYR:539:CE1:4873, V-B:LEU:475:CD2:9230, V-A:PRO:540:CA:4881, V-A:LEU:363:CD1:3186, V-A:ALA:541:CB:4890, H-B:ASP:366:OD2:8186, V-B:TYR:531:CZ:9766, H-B:TYR:531:OH:9767, V-B:GLY:454:CA:9020, V-B:PRO:482:CB:9297, V-B:HIS:383:CG:8361, V-B:ILE:369:CG2:8208, V-B:SER:385:CB:8380, V-B:LEU:373:CD1:8251, V-B:HIS:383:CB:8360, V-B:PRO:482:CG:9298, V-B:LEU:373:CD2:8252, V-A:PRO:540:N:4882, V-A:ASP:366:CG:3210, V-A:MET:535:CE:4833, V-B:ASP:366:CB:8183, V-B:ASP:366:CG:8184, V-B:VAL:384:C:8368, V-B:SER:385:CA:8378, H-A:TYR:539:OH:4876, H-B:GLY:454:N:9021, V-A:ASP:366:CB:3209, H-B:ASP:366:OD1:8185, V-B:TYR:531:CE1:9764, V-B:HIS:383:CA:8358, V-B:HIS:383:C:8356"]

$$$$
1d_Ghoteimi_2023
     RDKit          3D

 30 32  0  0  0  0  0  0  0  0999 V2000
  127.0620  128.8010   66.9260 C   0  0  0  0  0  0  0  0  0  0  0  0
  125.6930  128.8310   66.5510 O   0  0  0  0  0  0  0  0  0  0  0  0
  125.2920  129.5510   65.4830 C   0  0  0  0  0  0  0  0  0  0  0  0
  124.1470  129.6080   65.0310 O   0  0  0  0  0  0  0  0  0  0  0  0
  126.4390  130.3290   64.8430 C   0  0  0  0  0  0  0  0  0  0  0  0
  126.4100  129.9760   63.0600 S   0  0  0  0  0  0  0  0  0  0  0  0
  126.9870  131.4410   62.2300 C   0  0  0  0  0  0  0  0  0  0  0  0
  128.1830  131.2840   61.6140 N   0  0  0  0  0  0  0  0  0  0  0  0
  128.7430  132.3250   60.9460 C   0  0  0  0  0  0  0  0  0  0  0  0
  130.0670  132.0660   60.2870 C   0  0  0  0  0  0  0  0  0  0  0  0
  131.1880  131.6720   61.0340 C   0  0  0  0  0  0  0  0  0  0  0  0
  132.4160  131.4390   60.4220 C   0  0  0  0  0  0  0  0  0  0  0  0
  132.5630  131.5940   59.0450 C   0  0  0  0  0  0  0  0  0  0  0  0
  133.8180  131.3450   58.5250 O   0  0  0  0  0  0  0  0  0  0  0  0
  133.9290  130.6860   57.2680 C   0  0  0  0  0  0  0  0  0  0  0  0
  131.4530  131.9880   58.2850 C   0  0  0  0  0  0  0  0  0  0  0  0
  130.2260  132.2190   58.9010 C   0  0  0  0  0  0  0  0  0  0  0  0
  128.0900  133.5610   60.8760 C   0  0  0  0  0  0  0  0  0  0  0  0
  126.8590  133.7560   61.5160 C   0  0  0  0  0  0  0  0  0  0  0  0
  126.2210  135.1030   61.4080 C   0  0  0  0  0  0  0  0  0  0  0  0
  124.8620  135.2140   61.0970 C   0  0  0  0  0  0  0  0  0  0  0  0
  124.2610  136.4660   60.9940 C   0  0  0  0  0  0  0  0  0  0  0  0
  125.0020  137.6280   61.2050 C   0  0  0  0  0  0  0  0  0  0  0  0
  124.3240  138.8250   61.0750 O   0  0  0  0  0  0  0  0  0  0  0  0
  124.8580  139.9960   61.6840 C   0  0  0  0  0  0  0  0  0  0  0  0
  126.3630  137.5210   61.5300 C   0  0  0  0  0  0  0  0  0  0  0  0
  126.9610  136.2680   61.6330 C   0  0  0  0  0  0  0  0  0  0  0  0
  126.2940  132.6730   62.2350 C   0  0  0  0  0  0  0  0  0  0  0  0
  125.0620  132.8500   63.0090 C   0  0  0  0  0  0  0  0  0  0  0  0
  124.0890  132.9910   63.6190 N   0  0  0  0  0  0  0  0  0  0  0  0
  1  2  1  0
  2  3  1  0
  3  4  2  0
  3  5  1  0
  5  6  1  0
  6  7  1  0
  7  8  2  0
  8  9  1  0
  9 10  1  0
 10 11  2  0
 11 12  1  0
 12 13  2  0
 13 14  1  0
 14 15  1  0
 13 16  1  0
 16 17  2  0
  9 18  2  0
 18 19  1  0
 19 20  1  0
 20 21  2  0
 21 22  1  0
 22 23  2  0
 23 24  1  0
 24 25  1  0
 23 26  1  0
 26 27  2  0
 19 28  2  0
 28 29  1  0
 29 30  3  0
 28  7  1  0
 17 10  1  0
 27 20  1  0
M  END
>  <Binding energies>  (4) 
[-8.24]

>  <Ligand effiencies>  (4) 
[-0.27466666666666667]

>  <Interactions>  (4) 
["V-A:LEU:363:CA:3182, V-A:PRO:540:C:4879, V-A:TYR:539:CD1:4871, V-A:TYR:531:CE2:4791, V-A:TYR:539:C:4865, V-A:PRO:540:CB:4883, V-A:TYR:531:CZ:4792, V-A:TYR:539:CE1:4873, V-B:LEU:475:CD2:9230, V-A:PRO:540:CA:4881, V-A:LEU:363:CD1:3186, V-A:ALA:541:CB:4890, V-B:GLY:454:CA:9020, V-B:PRO:482:CB:9297, V-B:HIS:383:CG:8361, V-B:ILE:369:CG2:8208, V-B:SER:385:CB:8380, V-B:LEU:373:CD1:8251, V-B:HIS:383:CB:8360, V-B:PRO:482:CG:9298, V-A:PRO:540:N:4882, V-A:ASP:366:CG:3210, V-B:GLU:543:CD:9880, V-B:ARG:545:CZ:9898, V-B:SER:385:CA:8378, H-B:GLY:454:N:9021, V-A:ASP:366:CB:3209, H-B:ARG:545:NH2:9900, H-B:ARG:545:NE:9896, H-B:TYR:484:OH:9319, V-B:HIS:456:CE1:9040, V-B:ARG:545:CD:9895, H-B:ARG:545:NH1:9899, H-A:LEU:363:N:3183"]

$$$$
1j_Grossjean_2025
     RDKit          3D

 20 21  0  0  0  0  0  0  0  0999 V2000
  132.3870  131.0950   62.5930 C   0  0  0  0  0  0  0  0  0  0  0  0
  131.7930  131.4910   61.2540 C   0  0  0  0  0  0  0  0  0  0  0  0
  132.5380  131.4290   60.0790 C   0  0  0  0  0  0  0  0  0  0  0  0
  131.9340  131.7940   58.8720 C   0  0  0  0  0  0  0  0  0  0  0  0
  132.7660  131.7000   57.5930 C   0  0  0  0  0  0  0  0  0  0  0  0
  130.5880  132.2240   58.8750 C   0  0  0  0  0  0  0  0  0  0  0  0
  129.9200  132.5610   57.6150 C   0  0  0  0  0  0  0  0  0  0  0  0
  129.3950  132.8250   56.6180 N   0  0  0  0  0  0  0  0  0  0  0  0
  129.9160  132.2820   60.1180 C   0  0  0  0  0  0  0  0  0  0  0  0
  128.2250  132.8010   60.3080 S   0  0  0  0  0  0  0  0  0  0  0  0
  128.1540  133.9530   61.7130 C   0  0  0  0  0  0  0  0  0  0  0  0
  126.9630  134.9080   61.6130 C   0  0  0  0  0  0  0  0  0  0  0  0
  125.8230  134.4700   61.7710 O   0  0  0  0  0  0  0  0  0  0  0  0
  127.2710  136.1970   61.3530 N   0  0  0  0  0  0  0  0  0  0  0  0
  126.3770  137.2490   61.2090 C   0  0  0  0  0  0  0  0  0  0  0  0
  125.1770  137.3670   61.7370 N   0  0  0  0  0  0  0  0  0  0  0  0
  124.6050  138.5020   61.3880 C   0  0  0  0  0  0  0  0  0  0  0  0
  125.3470  139.3370   60.5580 C   0  0  0  0  0  0  0  0  0  0  0  0
  126.8780  138.5840   60.2230 S   0  0  0  0  0  0  0  0  0  0  0  0
  130.5040  131.9050   61.2810 N   0  0  0  0  0  0  0  0  0  0  0  0
  1  2  1  0
  2  3  2  0
  3  4  1  0
  4  5  1  0
  4  6  2  0
  6  7  1  0
  7  8  3  0
  6  9  1  0
  9 10  1  0
 10 11  1  0
 11 12  1  0
 12 13  2  0
 12 14  1  0
 14 15  1  0
 15 16  2  0
 16 17  1  0
 17 18  2  0
 18 19  1  0
  9 20  2  0
 20  2  1  0
 19 15  1  0
M  END
>  <Binding energies>  (5) 
[-8.12]

>  <Ligand effiencies>  (5) 
[-0.3866666666666666]

>  <Interactions>  (5) 
["V-A:TYR:539:CD1:4871, V-A:TYR:539:C:4865, V-A:ALA:541:CA:4888, V-A:PRO:540:CB:4883, V-A:TYR:539:CE1:4873, V-B:LEU:475:CD2:9230, V-A:PRO:540:CA:4881, V-A:LEU:363:CD1:3186, V-A:ALA:541:CB:4890, V-B:PRO:482:CB:9297, V-A:VAL:344:CG1:2998, V-B:SER:385:CB:8380, V-A:TYR:539:CB:4869, V-B:LEU:373:CD1:8251, V-B:PRO:482:CG:9298, V-A:ASN:362:CB:3173, V-A:GLU:543:CD:4906, V-A:PRO:540:N:4882, H-A:TYR:539:N:4868, V-A:TYR:539:CG:4870, V-B:SER:385:CA:8378, V-A:ARG:545:CZ:4924, H-A:TYR:539:O:4866, H-A:ALA:541:N:4889"]

$$$$
1o_Grossjean_2025
     RDKit          3D

 26 27  0  0  0  0  0  0  0  0999 V2000
  128.5580  122.4200   59.1190 C   0  0  0  0  0  0  0  0  0  0  0  0
  128.2230  122.0760   57.7820 O   0  0  0  0  0  0  0  0  0  0  0  0
  127.2620  122.7550   57.1040 C   0  0  0  0  0  0  0  0  0  0  0  0
  126.3810  122.2030   56.4380 O   0  0  0  0  0  0  0  0  0  0  0  0
  127.3750  124.2450   57.2480 C   0  0  0  0  0  0  0  0  0  0  0  0
  126.3800  125.0070   57.8790 C   0  0  0  0  0  0  0  0  0  0  0  0
  126.5170  126.3880   57.9980 C   0  0  0  0  0  0  0  0  0  0  0  0
  127.6420  127.0350   57.4870 C   0  0  0  0  0  0  0  0  0  0  0  0
  127.6820  128.4310   57.6700 N   0  0  0  0  0  0  0  0  0  0  0  0
  127.1070  129.4160   56.9450 C   0  0  0  0  0  0  0  0  0  0  0  0
  126.3730  129.2450   55.9720 O   0  0  0  0  0  0  0  0  0  0  0  0
  127.3940  130.8460   57.4280 C   0  0  0  0  0  0  0  0  0  0  0  0
  127.3620  130.9900   58.9620 C   0  0  0  0  0  0  0  0  0  0  0  0
  128.2870  132.4250   59.5880 S   0  0  0  0  0  0  0  0  0  0  0  0
  130.0280  132.0550   59.5010 C   0  0  0  0  0  0  0  0  0  0  0  0
  130.5710  131.7280   60.7010 N   0  0  0  0  0  0  0  0  0  0  0  0
  131.8870  131.4190   60.7580 C   0  0  0  0  0  0  0  0  0  0  0  0
  132.4190  131.0500   62.1300 C   0  0  0  0  0  0  0  0  0  0  0  0
  132.7120  131.4340   59.6350 C   0  0  0  0  0  0  0  0  0  0  0  0
  132.1690  131.7940   58.3980 C   0  0  0  0  0  0  0  0  0  0  0  0
  133.0960  131.8170   57.1840 C   0  0  0  0  0  0  0  0  0  0  0  0
  130.7970  132.1260   58.3140 C   0  0  0  0  0  0  0  0  0  0  0  0
  130.2240  132.5620   57.0390 C   0  0  0  0  0  0  0  0  0  0  0  0
  129.7730  132.9060   56.0300 N   0  0  0  0  0  0  0  0  0  0  0  0
  128.6440  126.2790   56.8590 C   0  0  0  0  0  0  0  0  0  0  0  0
  128.5060  124.8980   56.7420 C   0  0  0  0  0  0  0  0  0  0  0  0
  1  2  1  0
  2  3  1  0
  3  4  2  0
  3  5  1  0
  5  6  2  0
  6  7  1  0
  7  8  2  0
  8  9  1  0
  9 10  1  0
 10 11  2  0
 10 12  1  0
 12 13  1  0
 13 14  1  0
 14 15  1  0
 15 16  2  0
 16 17  1  0
 17 18  1  0
 17 19  2  0
 19 20  1  0
 20 21  1  0
 20 22  2  0
 22 23  1  0
 23 24  3  0
  8 25  1  0
 25 26  2  0
 26  5  1  0
 22 15  1  0
M  END
>  <Binding energies>  (6) 
[-8.44]

>  <Ligand effiencies>  (6) 
[-0.3125925925925926]

>  <Interactions>  (6) 
["V-A:TYR:531:CE2:4791, V-A:TYR:539:C:4865, V-A:TYR:539:CZ:4875, V-A:PRO:540:CB:4883, V-A:TYR:539:CE1:4873, V-A:PRO:540:CA:4881, V-A:LEU:363:CD1:3186, V-B:PRO:540:N:9856, V-B:TYR:539:CE1:9847, V-B:PRO:540:CA:9855, V-B:TYR:539:CD1:9845, V-B:TYR:539:C:9839, H-B:TYR:531:OH:9767, V-A:ASN:362:CB:3173, V-A:GLU:543:CD:4906, V-A:PRO:540:N:4882, V-A:ASP:366:CG:3210, H-A:TYR:539:N:4868, V-A:MET:535:CE:4833, V-B:MET:535:CE:9807, H-B:TYR:539:N:9842, V-B:ASP:366:CG:8184, V-A:ARG:545:CZ:4924, H-A:ALA:541:N:4889"]

$$$$
1p_Grossjean_2025
     RDKit          3D

 21 22  0  0  0  0  0  0  0  0999 V2000
  132.6780  131.3910   62.4480 C   0  0  0  0  0  0  0  0  0  0  0  0
  132.1680  131.6580   61.0450 C   0  0  0  0  0  0  0  0  0  0  0  0
  132.9810  131.4710   59.9270 C   0  0  0  0  0  0  0  0  0  0  0  0
  132.4620  131.7460   58.6570 C   0  0  0  0  0  0  0  0  0  0  0  0
  133.3750  131.5490   57.4480 C   0  0  0  0  0  0  0  0  0  0  0  0
  131.1280  132.1960   58.5380 C   0  0  0  0  0  0  0  0  0  0  0  0
  130.5780  132.5350   57.2240 C   0  0  0  0  0  0  0  0  0  0  0  0
  130.1440  132.8030   56.1850 N   0  0  0  0  0  0  0  0  0  0  0  0
  130.3690  132.3340   59.7240 C   0  0  0  0  0  0  0  0  0  0  0  0
  128.6760  132.8780   59.7520 S   0  0  0  0  0  0  0  0  0  0  0  0
  128.2260  133.1060   61.4970 C   0  0  0  0  0  0  0  0  0  0  0  0
  128.3060  131.8140   62.3340 C   0  0  0  0  0  0  0  0  0  0  0  0
  127.0250  131.5160   63.1270 C   0  0  0  0  0  0  0  0  0  0  0  0
  125.9840  132.1140   62.8470 O   0  0  0  0  0  0  0  0  0  0  0  0
  127.1410  130.5780   64.0930 N   0  0  0  0  0  0  0  0  0  0  0  0
  126.1440  130.1230   64.9470 C   0  0  0  0  0  0  0  0  0  0  0  0
  126.4110  129.4290   66.1280 C   0  0  0  0  0  0  0  0  0  0  0  0
  125.1760  129.1640   66.6740 C   0  0  0  0  0  0  0  0  0  0  0  0
  124.2160  129.6700   65.8650 O   0  0  0  0  0  0  0  0  0  0  0  0
  124.8420  130.2750   64.7730 N   0  0  0  0  0  0  0  0  0  0  0  0
  130.8880  132.0860   60.9540 N   0  0  0  0  0  0  0  0  0  0  0  0
  1  2  1  0
  2  3  2  0
  3  4  1  0
  4  5  1  0
  4  6  2  0
  6  7  1  0
  7  8  3  0
  6  9  1  0
  9 10  1  0
 10 11  1  0
 11 12  1  0
 12 13  1  0
 13 14  2  0
 13 15  1  0
 15 16  1  0
 16 17  1  0
 17 18  2  0
 18 19  1  0
 19 20  1  0
  9 21  2  0
 21  2  1  0
 20 16  2  0
M  END
>  <Binding energies>  (7) 
[-8.18]

>  <Ligand effiencies>  (7) 
[-0.3718181818181818]

>  <Interactions>  (7) 
["V-A:LEU:363:CA:3182, V-A:PRO:540:C:4879, V-A:TYR:539:CD1:4871, V-A:TYR:531:CE2:4791, V-A:TYR:539:C:4865, V-A:PRO:540:CB:4883, V-A:PRO:540:CA:4881, V-A:LEU:363:CD1:3186, V-A:ALA:541:CB:4890, V-A:ASN:362:CB:3173, V-A:GLU:543:CD:4906, V-A:PRO:540:N:4882, V-A:ASP:366:CG:3210, H-A:TYR:539:N:4868, V-B:ARG:545:CZ:9898, V-A:ARG:545:CZ:4924, H-B:GLY:454:N:9021, H-A:ALA:541:N:4889, H-A:GLU:543:OE1:4907, H-A:GLU:543:OE2:4908, H-B:ARG:545:NE:9896, H-B:TYR:484:OH:9319, V-B:HIS:456:CE1:9040, V-B:ARG:545:CG:9894, V-B:ARG:545:CD:9895"]

$$$$
2a_Ghoteimi_2023
     RDKit          3D

 48 53  0  0  0  0  0  0  0  0999 V2000
  132.4700  125.8220   74.4800 C   0  0  0  0  0  0  0  0  0  0  0  0
  131.4190  124.7080   74.5030 C   0  0  0  0  0  0  0  0  0  0  0  0
  130.3020  125.0970   73.7160 O   0  0  0  0  0  0  0  0  0  0  0  0
  129.9200  126.3980   73.6320 C   0  0  0  0  0  0  0  0  0  0  0  0
  129.7830  127.1300   74.6170 O   0  0  0  0  0  0  0  0  0  0  0  0
  129.6880  126.8580   72.2220 C   0  0  0  0  0  0  0  0  0  0  0  0
  130.7410  127.2760   71.3940 C   0  0  0  0  0  0  0  0  0  0  0  0
  130.4910  127.6960   70.0910 C   0  0  0  0  0  0  0  0  0  0  0  0
  129.1900  127.7020   69.5860 C   0  0  0  0  0  0  0  0  0  0  0  0
  129.0530  128.1490   68.2570 N   0  0  0  0  0  0  0  0  0  0  0  0
  127.9590  128.1850   67.4650 C   0  0  0  0  0  0  0  0  0  0  0  0
  126.8450  127.7630   67.7760 O   0  0  0  0  0  0  0  0  0  0  0  0
  128.1870  128.7680   66.0650 C   0  0  0  0  0  0  0  0  0  0  0  0
  127.3700  130.3700   65.7730 S   0  0  0  0  0  0  0  0  0  0  0  0
  127.4570  130.6410   64.0180 C   0  0  0  0  0  0  0  0  0  0  0  0
  127.0920  131.8880   63.6380 N   0  0  0  0  0  0  0  0  0  0  0  0
  127.1080  132.2140   62.3210 C   0  0  0  0  0  0  0  0  0  0  0  0
  126.6830  133.6050   61.9740 C   0  0  0  0  0  0  0  0  0  0  0  0
  127.5990  134.6640   61.9690 C   0  0  0  0  0  0  0  0  0  0  0  0
  127.1950  135.9590   61.6570 C   0  0  0  0  0  0  0  0  0  0  0  0
  125.8620  136.2430   61.3290 C   0  0  0  0  0  0  0  0  0  0  0  0
  125.4650  137.5550   61.0470 N   0  0  0  0  0  0  0  0  0  0  0  0
  125.9740  138.2750   59.8620 C   0  0  0  0  0  0  0  0  0  0  0  0
  125.1700  139.5450   59.5120 C   0  0  0  0  0  0  0  0  0  0  0  0
  125.1020  140.4040   60.6390 O   0  0  0  0  0  0  0  0  0  0  0  0
  124.4580  139.7720   61.7330 C   0  0  0  0  0  0  0  0  0  0  0  0
  125.2390  138.5090   62.1530 C   0  0  0  0  0  0  0  0  0  0  0  0
  124.9450  135.1800   61.3470 C   0  0  0  0  0  0  0  0  0  0  0  0
  125.3490  133.8850   61.6580 C   0  0  0  0  0  0  0  0  0  0  0  0
  127.5070  131.2900   61.3520 C   0  0  0  0  0  0  0  0  0  0  0  0
  127.8900  129.9940   61.7220 C   0  0  0  0  0  0  0  0  0  0  0  0
  128.3000  129.0550   60.6350 C   0  0  0  0  0  0  0  0  0  0  0  0
  129.6350  128.9920   60.2260 C   0  0  0  0  0  0  0  0  0  0  0  0
  130.0230  128.1360   59.2010 C   0  0  0  0  0  0  0  0  0  0  0  0
  129.0890  127.3120   58.5540 C   0  0  0  0  0  0  0  0  0  0  0  0
  129.4550  126.4580   57.5100 N   0  0  0  0  0  0  0  0  0  0  0  0
  129.0130  125.0490   57.5400 C   0  0  0  0  0  0  0  0  0  0  0  0
  129.1440  124.3410   56.1740 C   0  0  0  0  0  0  0  0  0  0  0  0
  130.4780  124.4410   55.7000 O   0  0  0  0  0  0  0  0  0  0  0  0
  130.8740  125.7930   55.5320 C   0  0  0  0  0  0  0  0  0  0  0  0
  130.7860  126.5420   56.8780 C   0  0  0  0  0  0  0  0  0  0  0  0
  127.7490  127.3890   58.9630 C   0  0  0  0  0  0  0  0  0  0  0  0
  127.3600  128.2470   59.9870 C   0  0  0  0  0  0  0  0  0  0  0  0
  127.8720  129.6540   63.0970 C   0  0  0  0  0  0  0  0  0  0  0  0
  128.3150  128.3320   63.5510 C   0  0  0  0  0  0  0  0  0  0  0  0
  128.6630  127.2870   63.9070 N   0  0  0  0  0  0  0  0  0  0  0  0
  128.1310  127.2930   70.4100 C   0  0  0  0  0  0  0  0  0  0  0  0
  128.3820  126.8720   71.7130 C   0  0  0  0  0  0  0  0  0  0  0  0
  1  2  1  0
  2  3  1  0
  3  4  1  0
  4  5  2  0
  4  6  1  0
  6  7  2  0
  7  8  1  0
  8  9  2  0
  9 10  1  0
 10 11  1  0
 11 12  2  0
 11 13  1  0
 13 14  1  0
 14 15  1  0
 15 16  2  0
 16 17  1  0
 17 18  1  0
 18 19  2  0
 19 20  1  0
 20 21  2  0
 21 22  1  0
 22 23  1  0
 23 24  1  0
 24 25  1  0
 25 26  1  0
 26 27  1  0
 21 28  1  0
 28 29  2  0
 17 30  2  0
 30 31  1  0
 31 32  1  0
 32 33  2  0
 33 34  1  0
 34 35  2  0
 35 36  1  0
 36 37  1  0
 37 38  1  0
 38 39  1  0
 39 40  1  0
 40 41  1  0
 35 42  1  0
 42 43  2  0
 31 44  2  0
 44 45  1  0
 45 46  3  0
  9 47  1  0
 47 48  2  0
 48  6  1  0
 44 15  1  0
 29 18  1  0
 43 32  1  0
 27 22  1  0
 41 36  1  0
M  END
>  <Binding energies>  (8) 
[-9.88]

>  <Ligand effiencies>  (8) 
[-0.2016326530612245]

>  <Interactions>  (8) 
["V-A:TYR:539:CD1:4871, V-A:TYR:531:CZ:4792, V-A:TYR:539:CE1:4873, V-B:LEU:475:CD2:9230, V-A:ALA:541:CB:4890, V-B:TYR:539:CZ:9849, V-B:HIS:383:CD2:8363, V-A:ILE:343:CD1:2991, V-B:PRO:482:CB:9297, V-B:HIS:383:CG:8361, V-B:ILE:369:CG2:8208, V-B:SER:385:CB:8380, V-A:TYR:539:CB:4869, V-B:LEU:373:CD1:8251, V-B:HIS:383:CB:8360, V-B:PRO:482:CG:9298, V-B:LEU:373:CD2:8252, V-A:GLU:543:CD:4906, V-B:GLU:543:CD:9880, V-B:MET:535:CE:9807, V-A:TYR:539:CG:4870, V-B:SER:385:CA:8378, H-B:TYR:539:OH:9850, V-B:GLU:543:CG:9879, H-A:ASN:370:ND2:3245, H-A:GLU:543:OE2:4908, H-B:TYR:484:OH:9319, V-A:HIS:456:CE1:4066, V-B:LYS:547:CE:9922, V-B:GLY:544:CA:9886, V-A:HIS:456:CD2:4065, H-A:LYS:547:NZ:4949, V-A:HIS:456:CB:4062, V-A:HIS:456:CG:4063, V-B:GLU:543:C:9874, V-A:TYR:531:CE1:4790, V-A:GLU:543:CB:4904, H-B:LYS:547:NZ:9923, V-A:GLU:543:CG:4905, V-B:GLY:544:C:9884, V-B:HIS:456:CD2:9039, V-A:GLY:544:CA:4912, V-B:HIS:456:CE1:9040, V-A:GLY:544:C:4910, H-B:HIS:456:NE2:9041, V-A:GLU:543:C:4900, H-B:HIS:383:ND1:8362, H-A:GLU:543:O:4901"]

$$$$
2aa_Ghoteimi_2023
     RDKit          3D

 48 53  0  0  0  0  0  0  0  0999 V2000
  129.4540  122.0490   73.0260 C   0  0  0  0  0  0  0  0  0  0  0  0
  130.0060  123.2730   73.7640 C   0  0  0  0  0  0  0  0  0  0  0  0
  129.2790  124.4290   73.3680 O   0  0  0  0  0  0  0  0  0  0  0  0
  129.8750  125.6480   73.3130 C   0  0  0  0  0  0  0  0  0  0  0  0
  130.6200  126.0830   74.1980 O   0  0  0  0  0  0  0  0  0  0  0  0
  129.5490  126.4110   72.0610 C   0  0  0  0  0  0  0  0  0  0  0  0
  128.2290  126.5740   71.6150 C   0  0  0  0  0  0  0  0  0  0  0  0
  127.9590  127.2900   70.4520 C   0  0  0  0  0  0  0  0  0  0  0  0
  128.9990  127.8490   69.7080 C   0  0  0  0  0  0  0  0  0  0  0  0
  128.6130  128.5550   68.5520 N   0  0  0  0  0  0  0  0  0  0  0  0
  127.6270  128.2920   67.6680 C   0  0  0  0  0  0  0  0  0  0  0  0
  126.8360  127.3500   67.7470 O   0  0  0  0  0  0  0  0  0  0  0  0
  127.5220  129.2960   66.5120 C   0  0  0  0  0  0  0  0  0  0  0  0
  128.1010  128.7320   65.3300 O   0  0  0  0  0  0  0  0  0  0  0  0
  127.6780  129.1530   64.0770 C   0  0  0  0  0  0  0  0  0  0  0  0
  127.5200  128.2120   63.1040 N   0  0  0  0  0  0  0  0  0  0  0  0
  127.1040  128.5890   61.8700 C   0  0  0  0  0  0  0  0  0  0  0  0
  126.9590  127.5020   60.8520 C   0  0  0  0  0  0  0  0  0  0  0  0
  127.0100  126.1570   61.2310 C   0  0  0  0  0  0  0  0  0  0  0  0
  126.8690  125.1410   60.2890 C   0  0  0  0  0  0  0  0  0  0  0  0
  126.6560  125.4340   58.9320 C   0  0  0  0  0  0  0  0  0  0  0  0
  126.5250  124.4260   57.9710 N   0  0  0  0  0  0  0  0  0  0  0  0
  127.6630  123.5590   57.6040 C   0  0  0  0  0  0  0  0  0  0  0  0
  127.4430  122.7610   56.3020 C   0  0  0  0  0  0  0  0  0  0  0  0
  126.2420  122.0110   56.3880 O   0  0  0  0  0  0  0  0  0  0  0  0
  125.1160  122.8550   56.5750 C   0  0  0  0  0  0  0  0  0  0  0  0
  125.2660  123.6560   57.8860 C   0  0  0  0  0  0  0  0  0  0  0  0
  126.6270  126.7840   58.5550 C   0  0  0  0  0  0  0  0  0  0  0  0
  126.7710  127.7990   59.4970 C   0  0  0  0  0  0  0  0  0  0  0  0
  126.8490  129.9310   61.5720 C   0  0  0  0  0  0  0  0  0  0  0  0
  127.0140  130.9190   62.5500 C   0  0  0  0  0  0  0  0  0  0  0  0
  126.7500  132.3400   62.1650 C   0  0  0  0  0  0  0  0  0  0  0  0
  125.4540  132.7570   61.8520 C   0  0  0  0  0  0  0  0  0  0  0  0
  125.2050  134.0730   61.4730 C   0  0  0  0  0  0  0  0  0  0  0  0
  126.2490  135.0080   61.3830 C   0  0  0  0  0  0  0  0  0  0  0  0
  126.0210  136.3350   61.0080 N   0  0  0  0  0  0  0  0  0  0  0  0
  127.1170  137.3230   60.9750 C   0  0  0  0  0  0  0  0  0  0  0  0
  126.7570  138.6140   60.2110 C   0  0  0  0  0  0  0  0  0  0  0  0
  125.5770  139.1860   60.7530 O   0  0  0  0  0  0  0  0  0  0  0  0
  124.4740  138.2980   60.6580 C   0  0  0  0  0  0  0  0  0  0  0  0
  124.7730  136.9990   61.4350 C   0  0  0  0  0  0  0  0  0  0  0  0
  127.5440  134.5810   61.7060 C   0  0  0  0  0  0  0  0  0  0  0  0
  127.7930  133.2660   62.0850 C   0  0  0  0  0  0  0  0  0  0  0  0
  127.4260  130.5170   63.8420 C   0  0  0  0  0  0  0  0  0  0  0  0
  127.5760  131.4740   64.9400 C   0  0  0  0  0  0  0  0  0  0  0  0
  127.6940  132.2310   65.8070 N   0  0  0  0  0  0  0  0  0  0  0  0
  130.3210  127.6960   70.1510 C   0  0  0  0  0  0  0  0  0  0  0  0
  130.5880  126.9830   71.3160 C   0  0  0  0  0  0  0  0  0  0  0  0
  1  2  1  0
  2  3  1  0
  3  4  1  0
  4  5  2  0
  4  6  1  0
  6  7  2  0
  7  8  1  0
  8  9  2  0
  9 10  1  0
 10 11  1  0
 11 12  2  0
 11 13  1  0
 13 14  1  0
 14 15  1  0
 15 16  2  0
 16 17  1  0
 17 18  1  0
 18 19  2  0
 19 20  1  0
 20 21  2  0
 21 22  1  0
 22 23  1  0
 23 24  1  0
 24 25  1  0
 25 26  1  0
 26 27  1  0
 21 28  1  0
 28 29  2  0
 17 30  2  0
 30 31  1  0
 31 32  1  0
 32 33  2  0
 33 34  1  0
 34 35  2  0
 35 36  1  0
 36 37  1  0
 37 38  1  0
 38 39  1  0
 39 40  1  0
 40 41  1  0
 35 42  1  0
 42 43  2  0
 31 44  2  0
 44 45  1  0
 45 46  3  0
  9 47  1  0
 47 48  2  0
 48  6  1  0
 44 15  1  0
 29 18  1  0
 43 32  1  0
 27 22  1  0
 41 36  1  0
M  END
>  <Binding energies>  (9) 
[-10.98]

>  <Ligand effiencies>  (9) 
[-0.22408163265306125]

>  <Interactions>  (9) 
["V-A:TYR:539:CD1:4871, V-A:TYR:539:CE1:4873, V-B:LEU:475:CD2:9230, V-A:ALA:541:CB:4890, V-B:ILE:538:CB:9834, V-B:PRO:540:N:9856, V-B:PRO:540:CA:9855, V-B:PRO:540:CB:9857, V-B:LEU:363:CD1:8160, V-B:ILE:538:CG2:9835, V-B:PRO:482:CB:9297, V-B:ILE:369:CG2:8208, V-A:VAL:344:CG1:2998, V-B:SER:385:CB:8380, V-A:TYR:539:CB:4869, V-B:LEU:373:CD1:8251, V-B:PRO:482:CG:9298, V-B:LEU:373:CD2:8252, V-A:GLU:543:CD:4906, V-B:GLU:543:CD:9880, V-B:ILE:538:CA:9832, V-B:MET:535:CE:9807, H-B:TYR:539:N:9842, V-B:PRO:540:CD:9859, V-B:ASP:366:CG:8184, V-A:TYR:539:CG:4870, V-B:VAL:384:C:8368, V-B:SER:385:CA:8378, H-B:ARG:545:NH2:9900, H-A:GLU:543:OE2:4908, H-B:TYR:484:OH:9319, V-A:HIS:456:CE1:4066, V-B:LYS:547:CE:9922, V-B:GLY:544:CA:9886, V-A:HIS:456:CD2:4065, H-A:LYS:547:NZ:4949, V-A:TYR:484:CB:4338, V-A:HIS:456:CG:4063, V-B:GLU:543:C:9874, V-B:TYR:484:CE2:9317, V-B:TYR:484:CZ:9318, V-A:GLU:543:CB:4904, H-B:LYS:547:NZ:9923, V-A:GLU:543:CG:4905, V-B:GLY:544:C:9884, V-B:HIS:456:CD2:9039, V-B:HIS:456:CE1:9040, V-A:GLY:544:C:4910, V-A:GLU:543:C:4900, H-A:GLU:543:O:4901"]

$$$$
2b_Ghoteimi_2023
     RDKit          3D

 42 47  0  0  0  0  0  0  0  0999 V2000
  127.1600  126.5020   58.5220 N   0  0  0  0  0  0  0  0  0  0  0  0
  126.9840  127.5800   58.9040 C   0  0  0  0  0  0  0  0  0  0  0  0
  126.7660  128.9440   59.3920 C   0  0  0  0  0  0  0  0  0  0  0  0
  127.4950  129.4370   60.5040 C   0  0  0  0  0  0  0  0  0  0  0  0
  128.5150  128.6380   61.2480 C   0  0  0  0  0  0  0  0  0  0  0  0
  128.1980  128.0650   62.4800 C   0  0  0  0  0  0  0  0  0  0  0  0
  129.1440  127.3210   63.1780 C   0  0  0  0  0  0  0  0  0  0  0  0
  130.4410  127.1450   62.6700 C   0  0  0  0  0  0  0  0  0  0  0  0
  131.4040  126.3920   63.3450 N   0  0  0  0  0  0  0  0  0  0  0  0
  131.0650  125.8010   64.6550 C   0  0  0  0  0  0  0  0  0  0  0  0
  132.3010  125.3320   65.4520 C   0  0  0  0  0  0  0  0  0  0  0  0
  133.0750  124.4350   64.6710 O   0  0  0  0  0  0  0  0  0  0  0  0
  133.5300  125.0420   63.4710 C   0  0  0  0  0  0  0  0  0  0  0  0
  132.3240  125.4930   62.6210 C   0  0  0  0  0  0  0  0  0  0  0  0
  130.7510  127.7270   61.4330 C   0  0  0  0  0  0  0  0  0  0  0  0
  129.8030  128.4680   60.7330 C   0  0  0  0  0  0  0  0  0  0  0  0
  127.2560  130.7490   60.9310 C   0  0  0  0  0  0  0  0  0  0  0  0
  126.3410  131.5580   60.2510 C   0  0  0  0  0  0  0  0  0  0  0  0
  126.0710  132.9750   60.6480 C   0  0  0  0  0  0  0  0  0  0  0  0
  127.1200  133.8250   61.0140 C   0  0  0  0  0  0  0  0  0  0  0  0
  126.8780  135.1500   61.3690 C   0  0  0  0  0  0  0  0  0  0  0  0
  125.5750  135.6710   61.3830 C   0  0  0  0  0  0  0  0  0  0  0  0
  125.3190  137.0080   61.7080 N   0  0  0  0  0  0  0  0  0  0  0  0
  126.3100  137.7780   62.4870 C   0  0  0  0  0  0  0  0  0  0  0  0
  125.7410  139.0780   63.0970 C   0  0  0  0  0  0  0  0  0  0  0  0
  125.1600  139.8780   62.0800 O   0  0  0  0  0  0  0  0  0  0  0  0
  124.0930  139.2030   61.4330 C   0  0  0  0  0  0  0  0  0  0  0  0
  124.6100  137.9050   60.7760 C   0  0  0  0  0  0  0  0  0  0  0  0
  124.5270  134.8170   61.0090 C   0  0  0  0  0  0  0  0  0  0  0  0
  124.7710  133.4930   60.6520 C   0  0  0  0  0  0  0  0  0  0  0  0
  125.6450  131.0850   59.1860 N   0  0  0  0  0  0  0  0  0  0  0  0
  125.8340  129.8090   58.7750 C   0  0  0  0  0  0  0  0  0  0  0  0
  124.8370  129.3560   57.3720 S   0  0  0  0  0  0  0  0  0  0  0  0
  125.8110  129.6980   55.8750 C   0  0  0  0  0  0  0  0  0  0  0  0
  127.2610  130.0580   56.2010 C   0  0  0  0  0  0  0  0  0  0  0  0
  128.0840  129.1570   56.3700 O   0  0  0  0  0  0  0  0  0  0  0  0
  127.5260  131.3800   56.2860 N   0  0  0  0  0  0  0  0  0  0  0  0
  128.7490  131.9770   56.5560 C   0  0  0  0  0  0  0  0  0  0  0  0
  129.5370  131.6340   57.6530 C   0  0  0  0  0  0  0  0  0  0  0  0
  130.6470  132.4410   57.5630 C   0  0  0  0  0  0  0  0  0  0  0  0
  130.5340  133.2290   56.4680 O   0  0  0  0  0  0  0  0  0  0  0  0
  129.3260  132.9250   55.8350 N   0  0  0  0  0  0  0  0  0  0  0  0
  1  2  3  0
  2  3  1  0
  3  4  2  0
  4  5  1  0
  5  6  2  0
  6  7  1  0
  7  8  2  0
  8  9  1  0
  9 10  1  0
 10 11  1  0
 11 12  1  0
 12 13  1  0
 13 14  1  0
  8 15  1  0
 15 16  2  0
  4 17  1  0
 17 18  2  0
 18 19  1  0
 19 20  2  0
 20 21  1  0
 21 22  2  0
 22 23  1  0
 23 24  1  0
 24 25  1  0
 25 26  1  0
 26 27  1  0
 27 28  1  0
 22 29  1  0
 29 30  2  0
 18 31  1  0
 31 32  2  0
 32 33  1  0
 33 34  1  0
 34 35  1  0
 35 36  2  0
 35 37  1  0
 37 38  1  0
 38 39  1  0
 39 40  2  0
 40 41  1  0
 41 42  1  0
 32  3  1  0
 42 38  2  0
 16  5  1  0
 30 19  1  0
 14  9  1  0
 28 23  1  0
M  END
>  <Binding energies>  (10) 
[-9.45]

>  <Ligand effiencies>  (10) 
[-0.2197674418604651]

>  <Interactions>  (10) 
["V-A:TYR:539:CD1:4871, V-A:TYR:539:C:4865, V-A:TYR:539:CZ:4875, V-A:TYR:539:CE1:4873, V-B:LEU:475:CD2:9230, V-A:PRO:540:CA:4881, V-B:TYR:531:CZ:9766, H-B:TYR:531:OH:9767, V-B:PRO:482:CB:9297, V-B:ILE:369:CG2:8208, V-B:SER:385:CB:8380, V-B:LEU:373:CD1:8251, V-B:CYS:476:C:9235, V-B:LEU:475:CG:9228, V-B:HIS:383:CB:8360, V-B:PRO:482:CG:9298, V-A:TYR:539:CE2:4874, V-A:GLU:543:CD:4906, V-A:PRO:540:N:4882, H-A:TYR:539:N:4868, V-A:MET:535:CE:4833, V-B:GLU:543:CD:9880, V-B:ASP:366:CB:8183, V-B:ASP:366:CG:8184, V-B:VAL:384:C:8368, V-B:SER:385:CA:8378, H-A:TYR:539:OH:4876, V-A:ARG:545:CZ:4924, V-A:GLY:453:CA:4041, H-A:TYR:484:OH:4345, H-A:GLY:454:N:4047, V-B:TYR:531:CE1:9764, V-A:GLY:453:C:4039"]

$$$$
2c_Ghoteimi_2023
     RDKit          3D

 42 47  0  0  0  0  0  0  0  0999 V2000
  127.0190  126.5340   58.5380 N   0  0  0  0  0  0  0  0  0  0  0  0
  126.8650  127.6170   58.9140 C   0  0  0  0  0  0  0  0  0  0  0  0
  126.6740  128.9890   59.3940 C   0  0  0  0  0  0  0  0  0  0  0  0
  127.4340  129.4850   60.4830 C   0  0  0  0  0  0  0  0  0  0  0  0
  128.4590  128.6830   61.2150 C   0  0  0  0  0  0  0  0  0  0  0  0
  128.1640  128.1400   62.4670 C   0  0  0  0  0  0  0  0  0  0  0  0
  129.1120  127.3870   63.1540 C   0  0  0  0  0  0  0  0  0  0  0  0
  130.3890  127.1670   62.6150 C   0  0  0  0  0  0  0  0  0  0  0  0
  131.3490  126.3990   63.2770 N   0  0  0  0  0  0  0  0  0  0  0  0
  131.0050  125.7700   64.5680 C   0  0  0  0  0  0  0  0  0  0  0  0
  132.2400  125.2920   65.3610 C   0  0  0  0  0  0  0  0  0  0  0  0
  133.0210  124.4160   64.5630 O   0  0  0  0  0  0  0  0  0  0  0  0
  133.4810  125.0530   63.3810 C   0  0  0  0  0  0  0  0  0  0  0  0
  132.2790  125.5250   62.5360 C   0  0  0  0  0  0  0  0  0  0  0  0
  130.6780  127.7200   61.3590 C   0  0  0  0  0  0  0  0  0  0  0  0
  129.7280  128.4700   60.6710 C   0  0  0  0  0  0  0  0  0  0  0  0
  127.2180  130.8040   60.9010 C   0  0  0  0  0  0  0  0  0  0  0  0
  126.2900  131.6140   60.2390 C   0  0  0  0  0  0  0  0  0  0  0  0
  126.0350  133.0330   60.6360 C   0  0  0  0  0  0  0  0  0  0  0  0
  127.0910  133.8730   61.0020 C   0  0  0  0  0  0  0  0  0  0  0  0
  126.8600  135.1970   61.3670 C   0  0  0  0  0  0  0  0  0  0  0  0
  125.5610  135.7270   61.3920 C   0  0  0  0  0  0  0  0  0  0  0  0
  125.3140  137.0610   61.7320 N   0  0  0  0  0  0  0  0  0  0  0  0
  126.3200  137.8220   62.5020 C   0  0  0  0  0  0  0  0  0  0  0  0
  125.7680  139.1200   63.1280 C   0  0  0  0  0  0  0  0  0  0  0  0
  125.1810  139.9320   62.1250 O   0  0  0  0  0  0  0  0  0  0  0  0
  124.1020  139.2690   61.4850 C   0  0  0  0  0  0  0  0  0  0  0  0
  124.6010  137.9720   60.8130 C   0  0  0  0  0  0  0  0  0  0  0  0
  124.5060  134.8840   61.0120 C   0  0  0  0  0  0  0  0  0  0  0  0
  124.7390  133.5610   60.6450 C   0  0  0  0  0  0  0  0  0  0  0  0
  125.5650  131.1380   59.1950 N   0  0  0  0  0  0  0  0  0  0  0  0
  125.7340  129.8560   58.7910 C   0  0  0  0  0  0  0  0  0  0  0  0
  124.6970  129.3980   57.4210 S   0  0  0  0  0  0  0  0  0  0  0  0
  125.5940  129.8130   55.8950 C   0  0  0  0  0  0  0  0  0  0  0  0
  127.0830  130.0490   56.1510 C   0  0  0  0  0  0  0  0  0  0  0  0
  127.8380  129.0820   56.2620 O   0  0  0  0  0  0  0  0  0  0  0  0
  127.4610  131.3420   56.2410 N   0  0  0  0  0  0  0  0  0  0  0  0
  128.7470  131.8180   56.4510 C   0  0  0  0  0  0  0  0  0  0  0  0
  129.6150  132.2220   55.5490 N   0  0  0  0  0  0  0  0  0  0  0  0
  130.7430  132.6170   56.1050 C   0  0  0  0  0  0  0  0  0  0  0  0
  130.8060  132.5360   57.4930 C   0  0  0  0  0  0  0  0  0  0  0  0
  129.3000  131.9080   58.0920 S   0  0  0  0  0  0  0  0  0  0  0  0
  1  2  3  0
  2  3  1  0
  3  4  2  0
  4  5  1  0
  5  6  2  0
  6  7  1  0
  7  8  2  0
  8  9  1  0
  9 10  1  0
 10 11  1  0
 11 12  1  0
 12 13  1  0
 13 14  1  0
  8 15  1  0
 15 16  2  0
  4 17  1  0
 17 18  2  0
 18 19  1  0
 19 20  2  0
 20 21  1  0
 21 22  2  0
 22 23  1  0
 23 24  1  0
 24 25  1  0
 25 26  1  0
 26 27  1  0
 27 28  1  0
 22 29  1  0
 29 30  2  0
 18 31  1  0
 31 32  2  0
 32 33  1  0
 33 34  1  0
 34 35  1  0
 35 36  2  0
 35 37  1  0
 37 38  1  0
 38 39  2  0
 39 40  1  0
 40 41  2  0
 41 42  1  0
 32  3  1  0
 42 38  1  0
 16  5  1  0
 30 19  1  0
 14  9  1  0
 28 23  1  0
M  END
>  <Binding energies>  (11) 
[-8.47]

>  <Ligand effiencies>  (11) 
[-0.19697674418604652]

>  <Interactions>  (11) 
["V-A:ILE:538:CB:4860, V-A:TYR:539:CD1:4871, V-A:TYR:539:C:4865, V-A:TYR:539:CZ:4875, V-A:ILE:538:CG2:4861, V-A:TYR:539:CE1:4873, V-B:LEU:475:CD2:9230, V-A:PRO:540:CA:4881, V-B:TYR:531:CZ:9766, H-B:TYR:531:OH:9767, V-B:PRO:482:CB:9297, V-B:ILE:369:CG2:8208, V-B:SER:385:CB:8380, V-B:LEU:373:CD1:8251, V-B:CYS:476:C:9235, V-B:LEU:475:CG:9228, V-B:HIS:383:CB:8360, V-B:PRO:482:CG:9298, V-A:ILE:538:CA:4858, V-A:PRO:540:CD:4885, V-A:TYR:539:CE2:4874, V-A:GLU:543:CD:4906, V-A:PRO:540:N:4882, V-A:MET:535:CE:4833, V-B:GLU:543:CD:9880, V-B:ASP:366:CB:8183, V-B:ASP:366:CG:8184, V-A:ILE:538:C:4856, V-B:VAL:384:C:8368, V-B:SER:385:CA:8378, H-A:TYR:539:OH:4876, V-A:ARG:545:CZ:4924, V-A:GLY:453:CA:4041, H-A:TYR:484:OH:4345, H-A:GLY:454:N:4047, V-B:ASN:370:CG:8217, V-B:TYR:531:CE1:9764, V-B:ASN:370:CB:8216"]

$$$$
2j_Grossjean_2025
     RDKit          3D

 23 24  0  0  0  0  0  0  0  0999 V2000
  125.1140  123.8500   62.4770 C   0  0  0  0  0  0  0  0  0  0  0  0
  125.7310  123.5450   61.1250 C   0  0  0  0  0  0  0  0  0  0  0  0
  124.9890  123.6260   59.9490 C   0  0  0  0  0  0  0  0  0  0  0  0
  125.6050  123.3370   58.7230 C   0  0  0  0  0  0  0  0  0  0  0  0
  124.7690  123.4320   57.4320 C   0  0  0  0  0  0  0  0  0  0  0  0
  123.5540  123.9050   57.7090 F   0  0  0  0  0  0  0  0  0  0  0  0
  125.3630  124.2490   56.5610 F   0  0  0  0  0  0  0  0  0  0  0  0
  124.6130  122.2500   56.8310 F   0  0  0  0  0  0  0  0  0  0  0  0
  126.9740  122.9700   58.7230 C   0  0  0  0  0  0  0  0  0  0  0  0
  127.6690  122.6570   57.4700 C   0  0  0  0  0  0  0  0  0  0  0  0
  128.2170  122.4110   56.4810 N   0  0  0  0  0  0  0  0  0  0  0  0
  127.6520  122.9130   59.9650 C   0  0  0  0  0  0  0  0  0  0  0  0
  129.3770  122.4640   60.0850 S   0  0  0  0  0  0  0  0  0  0  0  0
  129.7110  121.9180   61.7940 C   0  0  0  0  0  0  0  0  0  0  0  0
  130.8700  122.6470   62.4900 C   0  0  0  0  0  0  0  0  0  0  0  0
  132.0390  122.4180   62.1720 O   0  0  0  0  0  0  0  0  0  0  0  0
  130.4950  123.5190   63.4520 N   0  0  0  0  0  0  0  0  0  0  0  0
  131.3330  124.3060   64.2310 C   0  0  0  0  0  0  0  0  0  0  0  0
  132.6240  124.5070   64.0780 N   0  0  0  0  0  0  0  0  0  0  0  0
  133.1020  125.3180   65.0020 C   0  0  0  0  0  0  0  0  0  0  0  0
  132.1860  125.7950   65.9360 C   0  0  0  0  0  0  0  0  0  0  0  0
  130.6170  125.1400   65.5740 S   0  0  0  0  0  0  0  0  0  0  0  0
  127.0380  123.1980   61.1410 N   0  0  0  0  0  0  0  0  0  0  0  0
  1  2  1  0
  2  3  2  0
  3  4  1  0
  4  5  1  0
  5  6  1  0
  5  7  1  0
  5  8  1  0
  4  9  2  0
  9 10  1  0
 10 11  3  0
  9 12  1  0
 12 13  1  0
 13 14  1  0
 14 15  1  0
 15 16  2  0
 15 17  1  0
 17 18  1  0
 18 19  2  0
 19 20  1  0
 20 21  2  0
 21 22  1  0
 12 23  2  0
 23  2  1  0
 22 18  1  0
M  END
>  <Binding energies>  (12) 
[-7.29]

>  <Ligand effiencies>  (12) 
[-0.30375]

>  <Interactions>  (12) 
["V-B:ILE:538:CB:9834, V-B:PRO:540:N:9856, V-B:LEU:363:CA:8156, V-B:PRO:540:CA:9855, V-B:TYR:531:CE2:9765, V-B:ALA:541:CB:9864, V-B:TYR:539:CD1:9845, V-B:TYR:539:C:9839, V-B:PRO:540:C:9853, V-B:TYR:531:CZ:9766, V-B:PRO:540:CB:9857, V-B:LEU:363:CD1:8160, V-A:LEU:475:CD2:4256, V-B:ILE:538:CG2:9835, V-B:GLU:543:CD:9880, V-B:ASP:366:CB:8183, H-B:TYR:539:N:9842, V-B:PRO:540:CG:9858, V-B:PRO:540:CD:9859, V-B:ASN:362:CB:8147, V-B:LEU:363:CB:8158, V-B:ARG:545:CZ:9898, V-A:ARG:545:CZ:4924, V-B:GLU:543:CB:9878, H-B:ALA:541:N:9863, H-B:GLU:543:OE1:9881, H-A:TYR:484:OH:4345, H-A:GLY:454:N:4047, V-A:HIS:456:CE1:4066, V-A:ARG:545:CD:4921, V-A:ARG:545:CG:4920, V-B:LEU:363:CG:8159"]

$$$$
3ab_Grossjean_2025
     RDKit          3D

 33 35  0  0  0  0  0  0  0  0999 V2000
  133.8320  124.4870   58.7450 C   0  0  0  0  0  0  0  0  0  0  0  0
  132.5830  124.6030   58.0760 O   0  0  0  0  0  0  0  0  0  0  0  0
  132.4100  125.4980   57.0700 C   0  0  0  0  0  0  0  0  0  0  0  0
  133.1660  125.5840   56.0980 O   0  0  0  0  0  0  0  0  0  0  0  0
  131.2040  126.3730   57.2560 C   0  0  0  0  0  0  0  0  0  0  0  0
  131.2460  127.5420   58.0310 C   0  0  0  0  0  0  0  0  0  0  0  0
  130.1120  128.3350   58.1850 C   0  0  0  0  0  0  0  0  0  0  0  0
  128.9080  127.9680   57.5630 C   0  0  0  0  0  0  0  0  0  0  0  0
  127.7050  128.6950   57.6450 N   0  0  0  0  0  0  0  0  0  0  0  0
  126.8370  129.0470   56.6730 C   0  0  0  0  0  0  0  0  0  0  0  0
  126.9620  128.7890   55.4750 O   0  0  0  0  0  0  0  0  0  0  0  0
  125.6110  129.8330   57.1410 C   0  0  0  0  0  0  0  0  0  0  0  0
  125.4980  129.9090   58.9540 S   0  0  0  0  0  0  0  0  0  0  0  0
  126.6650  131.1340   59.5110 C   0  0  0  0  0  0  0  0  0  0  0  0
  127.8100  131.1580   58.7890 N   0  0  0  0  0  0  0  0  0  0  0  0
  128.7870  132.0480   59.1010 C   0  0  0  0  0  0  0  0  0  0  0  0
  130.0230  132.0130   58.2520 C   0  0  0  0  0  0  0  0  0  0  0  0
  129.9590  132.2950   56.8780 C   0  0  0  0  0  0  0  0  0  0  0  0
  131.1030  132.2640   56.0840 C   0  0  0  0  0  0  0  0  0  0  0  0
  132.3310  131.9480   56.6560 C   0  0  0  0  0  0  0  0  0  0  0  0
  132.4220  131.6600   58.0140 C   0  0  0  0  0  0  0  0  0  0  0  0
  131.2750  131.6930   58.8030 C   0  0  0  0  0  0  0  0  0  0  0  0
  128.6350  132.9310   60.1760 C   0  0  0  0  0  0  0  0  0  0  0  0
  127.4660  132.9120   60.9510 C   0  0  0  0  0  0  0  0  0  0  0  0
  127.3400  133.8960   62.1300 C   0  0  0  0  0  0  0  0  0  0  0  0
  128.2550  134.8670   62.0920 F   0  0  0  0  0  0  0  0  0  0  0  0
  126.1400  134.4780   62.1170 F   0  0  0  0  0  0  0  0  0  0  0  0
  127.4920  133.2450   63.2840 F   0  0  0  0  0  0  0  0  0  0  0  0
  126.4480  131.9820   60.6190 C   0  0  0  0  0  0  0  0  0  0  0  0
  125.2320  131.8820   61.4300 C   0  0  0  0  0  0  0  0  0  0  0  0
  124.2730  131.8050   62.0730 N   0  0  0  0  0  0  0  0  0  0  0  0
  128.8650  126.8090   56.7870 C   0  0  0  0  0  0  0  0  0  0  0  0
  129.9990  126.0180   56.6360 C   0  0  0  0  0  0  0  0  0  0  0  0
  1  2  1  0
  2  3  1  0
  3  4  2  0
  3  5  1  0
  5  6  2  0
  6  7  1  0
  7  8  2  0
  8  9  1  0
  9 10  1  0
 10 11  2  0
 10 12  1  0
 12 13  1  0
 13 14  1  0
 14 15  2  0
 15 16  1  0
 16 17  1  0
 17 18  2  0
 18 19  1  0
 19 20  2  0
 20 21  1  0
 21 22  2  0
 16 23  2  0
 23 24  1  0
 24 25  1  0
 25 26  1  0
 25 27  1  0
 25 28  1  0
 24 29  2  0
 29 30  1  0
 30 31  3  0
  8 32  1  0
 32 33  2  0
 33  5  1  0
 29 14  1  0
 22 17  1  0
M  END
>  <Binding energies>  (13) 
[-7.79]

>  <Ligand effiencies>  (13) 
[-0.22911764705882354]

>  <Interactions>  (13) 
["V-A:PRO:540:C:4879, V-A:ILE:538:CB:4860, V-A:TYR:539:CD1:4871, V-A:TYR:531:CE2:4791, V-A:TYR:539:C:4865, V-A:ALA:541:CA:4888, V-A:TYR:539:CZ:4875, V-A:ILE:538:CG2:4861, V-A:PRO:540:CB:4883, V-A:TYR:539:CE1:4873, V-B:LEU:475:CD2:9230, V-A:PRO:540:CA:4881, H-A:TYR:531:OH:4793, V-A:LEU:363:CD1:3186, V-A:ALA:541:CB:4890, V-B:TYR:539:CZ:9849, H-B:TYR:531:OH:9767, V-A:ILE:538:CA:4858, V-A:PRO:540:N:4882, V-A:ASP:366:CG:3210, V-A:MET:535:CE:4833, V-B:MET:535:CE:9807, H-B:TYR:539:OH:9850, V-A:ILE:369:CG2:3234, V-A:ASP:366:CA:3207, V-A:ASP:366:C:3205, V-A:ASP:366:CB:3209, V-A:ILE:369:CB:3233"]

$$$$
3ac_Grossjean_2025
     RDKit          3D

 31 33  0  0  0  0  0  0  0  0999 V2000
  124.9940  129.9690   64.7210 C   0  0  0  0  0  0  0  0  0  0  0  0
  124.1320  130.2950   63.6350 O   0  0  0  0  0  0  0  0  0  0  0  0
  124.6580  130.3940   62.3620 C   0  0  0  0  0  0  0  0  0  0  0  0
  125.7150  129.5360   62.0570 C   0  0  0  0  0  0  0  0  0  0  0  0
  126.3070  129.5600   60.7980 C   0  0  0  0  0  0  0  0  0  0  0  0
  125.8540  130.4520   59.8240 C   0  0  0  0  0  0  0  0  0  0  0  0
  126.5000  130.3890   58.5760 N   0  0  0  0  0  0  0  0  0  0  0  0
  125.9770  130.1290   57.3580 C   0  0  0  0  0  0  0  0  0  0  0  0
  124.7830  129.9370   57.1230 O   0  0  0  0  0  0  0  0  0  0  0  0
  126.9800  130.0810   56.2060 C   0  0  0  0  0  0  0  0  0  0  0  0
  127.8660  131.6570   55.9990 S   0  0  0  0  0  0  0  0  0  0  0  0
  129.0640  131.8150   57.3090 C   0  0  0  0  0  0  0  0  0  0  0  0
  128.5040  132.0700   58.5160 N   0  0  0  0  0  0  0  0  0  0  0  0
  129.2930  132.2090   59.6130 C   0  0  0  0  0  0  0  0  0  0  0  0
  128.5950  132.4970   60.9080 C   0  0  0  0  0  0  0  0  0  0  0  0
  127.8050  133.6490   61.0590 C   0  0  0  0  0  0  0  0  0  0  0  0
  127.1500  133.9190   62.2560 C   0  0  0  0  0  0  0  0  0  0  0  0
  127.2770  133.0390   63.3260 C   0  0  0  0  0  0  0  0  0  0  0  0
  128.0570  131.8940   63.2060 C   0  0  0  0  0  0  0  0  0  0  0  0
  128.7110  131.6280   62.0060 C   0  0  0  0  0  0  0  0  0  0  0  0
  130.6840  132.1110   59.5110 C   0  0  0  0  0  0  0  0  0  0  0  0
  131.2910  131.8700   58.2700 C   0  0  0  0  0  0  0  0  0  0  0  0
  132.8280  131.7750   58.2030 C   0  0  0  0  0  0  0  0  0  0  0  0
  133.4010  131.7870   59.4080 F   0  0  0  0  0  0  0  0  0  0  0  0
  133.1950  130.6420   57.6010 F   0  0  0  0  0  0  0  0  0  0  0  0
  133.3160  132.8070   57.5140 F   0  0  0  0  0  0  0  0  0  0  0  0
  130.4640  131.7310   57.1270 C   0  0  0  0  0  0  0  0  0  0  0  0
  131.0550  131.5550   55.7990 C   0  0  0  0  0  0  0  0  0  0  0  0
  131.5230  131.4170   54.7490 N   0  0  0  0  0  0  0  0  0  0  0  0
  124.7860  131.3140   60.1200 C   0  0  0  0  0  0  0  0  0  0  0  0
  124.1960  131.2860   61.3810 C   0  0  0  0  0  0  0  0  0  0  0  0
  1  2  1  0
  2  3  1  0
  3  4  2  0
  4  5  1  0
  5  6  2  0
  6  7  1  0
  7  8  1  0
  8  9  2  0
  8 10  1  0
 10 11  1  0
 11 12  1  0
 12 13  2  0
 13 14  1  0
 14 15  1  0
 15 16  2  0
 16 17  1  0
 17 18  2  0
 18 19  1  0
 19 20  2  0
 14 21  2  0
 21 22  1  0
 22 23  1  0
 23 24  1  0
 23 25  1  0
 23 26  1  0
 22 27  2  0
 27 28  1  0
 28 29  3  0
  6 30  1  0
 30 31  2  0
 31  3  1  0
 27 12  1  0
 20 15  1  0
M  END
>  <Binding energies>  (14) 
[-7.29]

>  <Ligand effiencies>  (14) 
[-0.2278125]

>  <Interactions>  (14) 
["V-A:LEU:363:CA:3182, V-A:TYR:539:CD1:4871, V-A:TYR:531:CE2:4791, V-A:TYR:539:C:4865, V-A:TYR:539:CZ:4875, V-A:ILE:538:CG2:4861, V-A:PRO:540:CB:4883, V-A:TYR:531:CZ:4792, V-A:TYR:539:CE1:4873, V-B:LEU:475:CD2:9230, V-A:PRO:540:CA:4881, H-A:TYR:531:OH:4793, V-A:LEU:363:CD1:3186, V-A:ALA:541:CB:4890, H-B:TYR:531:OH:9767, V-B:ILE:369:CD1:8210, V-A:PRO:540:CD:4885, V-A:PRO:540:N:4882, V-A:ASP:366:CG:3210, V-A:LEU:363:CB:3184, V-A:MET:535:CE:4833, V-B:ASP:366:CG:8184, V-B:ARG:545:CZ:9898, H-A:TYR:539:OH:4876, H-B:GLY:454:N:9021, V-A:ASP:366:CB:3209, V-A:PRO:540:CG:4884, V-A:LEU:363:CG:3185"]

$$$$
3af_Grossjean_2025
     RDKit          3D

 29 31  0  0  0  0  0  0  0  0999 V2000
  123.9300  130.7360   60.8030 N   0  0  0  0  0  0  0  0  0  0  0  0
  124.9460  130.9270   60.2820 C   0  0  0  0  0  0  0  0  0  0  0  0
  126.2310  131.1680   59.6220 C   0  0  0  0  0  0  0  0  0  0  0  0
  126.4940  130.6350   58.3360 C   0  0  0  0  0  0  0  0  0  0  0  0
  125.4500  129.8250   57.5420 C   0  0  0  0  0  0  0  0  0  0  0  0
  125.4110  128.5390   57.8990 F   0  0  0  0  0  0  0  0  0  0  0  0
  124.2330  130.3340   57.7390 F   0  0  0  0  0  0  0  0  0  0  0  0
  125.7320  129.8670   56.2390 F   0  0  0  0  0  0  0  0  0  0  0  0
  127.7590  130.8470   57.7680 C   0  0  0  0  0  0  0  0  0  0  0  0
  128.7350  131.5680   58.4630 C   0  0  0  0  0  0  0  0  0  0  0  0
  130.1080  131.8080   57.9110 C   0  0  0  0  0  0  0  0  0  0  0  0
  131.2500  131.5020   58.6690 C   0  0  0  0  0  0  0  0  0  0  0  0
  132.5280  131.7200   58.1610 C   0  0  0  0  0  0  0  0  0  0  0  0
  132.6810  132.2480   56.8840 C   0  0  0  0  0  0  0  0  0  0  0  0
  131.5670  132.5570   56.1110 C   0  0  0  0  0  0  0  0  0  0  0  0
  130.2910  132.3370   56.6220 C   0  0  0  0  0  0  0  0  0  0  0  0
  128.4800  132.0750   59.6960 N   0  0  0  0  0  0  0  0  0  0  0  0
  127.2580  131.9030   60.2570 C   0  0  0  0  0  0  0  0  0  0  0  0
  127.1090  132.6500   61.8670 S   0  0  0  0  0  0  0  0  0  0  0  0
  127.7930  134.3320   61.7720 C   0  0  0  0  0  0  0  0  0  0  0  0
  126.7030  135.3770   61.5380 C   0  0  0  0  0  0  0  0  0  0  0  0
  125.5240  135.0550   61.6820 O   0  0  0  0  0  0  0  0  0  0  0  0
  127.1440  136.6000   61.1730 N   0  0  0  0  0  0  0  0  0  0  0  0
  126.4120  137.7670   60.8770 C   0  0  0  0  0  0  0  0  0  0  0  0
  126.7350  138.7100   59.8850 C   0  0  0  0  0  0  0  0  0  0  0  0
  125.9180  139.8280   59.7010 C   0  0  0  0  0  0  0  0  0  0  0  0
  124.7950  139.9760   60.5150 C   0  0  0  0  0  0  0  0  0  0  0  0
  124.4610  139.0810   61.4770 N   0  0  0  0  0  0  0  0  0  0  0  0
  125.2650  138.0000   61.6440 C   0  0  0  0  0  0  0  0  0  0  0  0
  1  2  3  0
  2  3  1  0
  3  4  2  0
  4  5  1  0
  5  6  1  0
  5  7  1  0
  5  8  1  0
  4  9  1  0
  9 10  2  0
 10 11  1  0
 11 12  2  0
 12 13  1  0
 13 14  2  0
 14 15  1  0
 15 16  2  0
 10 17  1  0
 17 18  2  0
 18 19  1  0
 19 20  1  0
 20 21  1  0
 21 22  2  0
 21 23  1  0
 23 24  1  0
 24 25  2  0
 25 26  1  0
 26 27  2  0
 27 28  1  0
 28 29  2  0
 18  3  1  0
 29 24  1  0
 16 11  1  0
M  END
>  <Binding energies>  (15) 
[-8.86]

>  <Ligand effiencies>  (15) 
[-0.29533333333333334]

>  <Interactions>  (15) 
["V-A:ILE:538:CB:4860, V-A:TYR:539:CD1:4871, V-A:TYR:531:CE2:4791, V-A:TYR:539:C:4865, V-A:TYR:539:CZ:4875, V-A:ILE:538:CG2:4861, V-A:PRO:540:CB:4883, V-A:TYR:539:CE1:4873, V-B:LEU:475:CD2:9230, V-A:PRO:540:CA:4881, V-A:LEU:363:CD1:3186, V-A:ALA:541:CB:4890, V-B:TYR:531:CZ:9766, V-B:HIS:383:CD2:8363, V-B:PRO:482:CB:9297, V-B:HIS:383:CG:8361, V-A:VAL:344:CG1:2998, V-B:SER:385:CB:8380, V-A:TYR:539:CB:4869, V-B:HIS:383:CB:8360, V-B:PRO:482:CG:9298, V-A:ILE:538:CA:4858, V-A:PRO:540:CD:4885, V-B:ASP:366:CB:8183, V-B:ASP:366:CG:8184, V-A:TYR:539:CG:4870, V-B:SER:385:CA:8378, H-A:TYR:539:O:4866, V-B:ASP:366:C:8179, V-B:ASP:366:CA:8181, V-B:TYR:531:CE1:9764"]

$$$$
3ag_Grossjean_2025
     RDKit          3D

 30 32  0  0  0  0  0  0  0  0999 V2000
  124.4830  129.9980   64.3590 N   0  0  0  0  0  0  0  0  0  0  0  0
  125.1320  130.2440   63.4330 C   0  0  0  0  0  0  0  0  0  0  0  0
  125.9570  130.5540   62.2620 C   0  0  0  0  0  0  0  0  0  0  0  0
  127.2160  129.9330   62.0790 C   0  0  0  0  0  0  0  0  0  0  0  0
  127.7670  128.8670   63.0460 C   0  0  0  0  0  0  0  0  0  0  0  0
  127.6260  129.2090   64.3280 F   0  0  0  0  0  0  0  0  0  0  0  0
  127.1230  127.7140   62.8650 F   0  0  0  0  0  0  0  0  0  0  0  0
  129.0680  128.6750   62.8260 F   0  0  0  0  0  0  0  0  0  0  0  0
  127.9920  130.3030   60.9690 C   0  0  0  0  0  0  0  0  0  0  0  0
  127.5290  131.2750   60.0760 C   0  0  0  0  0  0  0  0  0  0  0  0
  128.3170  131.7090   58.8770 C   0  0  0  0  0  0  0  0  0  0  0  0
  129.4970  132.4550   59.0270 C   0  0  0  0  0  0  0  0  0  0  0  0
  130.2330  132.8620   57.9170 C   0  0  0  0  0  0  0  0  0  0  0  0
  129.7970  132.5290   56.6390 C   0  0  0  0  0  0  0  0  0  0  0  0
  128.6290  131.7930   56.4640 C   0  0  0  0  0  0  0  0  0  0  0  0
  127.8960  131.3890   57.5750 C   0  0  0  0  0  0  0  0  0  0  0  0
  126.3160  131.8590   60.2480 N   0  0  0  0  0  0  0  0  0  0  0  0
  125.5410  131.5030   61.3010 C   0  0  0  0  0  0  0  0  0  0  0  0
  123.9880  132.3670   61.3660 S   0  0  0  0  0  0  0  0  0  0  0  0
  124.2520  133.8860   62.3300 C   0  0  0  0  0  0  0  0  0  0  0  0
  124.8460  135.0120   61.4820 C   0  0  0  0  0  0  0  0  0  0  0  0
  124.1550  135.5660   60.6260 O   0  0  0  0  0  0  0  0  0  0  0  0
  126.1240  135.3410   61.7380 N   0  0  0  0  0  0  0  0  0  0  0  0
  126.8750  136.4070   61.0750 C   0  0  0  0  0  0  0  0  0  0  0  0
  126.1950  137.7710   61.1240 C   0  0  0  0  0  0  0  0  0  0  0  0
  125.8200  138.3150   62.3550 C   0  0  0  0  0  0  0  0  0  0  0  0
  125.2250  139.5730   62.4060 C   0  0  0  0  0  0  0  0  0  0  0  0
  125.0180  140.2870   61.2280 C   0  0  0  0  0  0  0  0  0  0  0  0
  125.4030  139.7560   59.9990 C   0  0  0  0  0  0  0  0  0  0  0  0
  125.9980  138.4990   59.9460 C   0  0  0  0  0  0  0  0  0  0  0  0
  1  2  3  0
  2  3  1  0
  3  4  2  0
  4  5  1  0
  5  6  1  0
  5  7  1  0
  5  8  1  0
  4  9  1  0
  9 10  2  0
 10 11  1  0
 11 12  2  0
 12 13  1  0
 13 14  2  0
 14 15  1  0
 15 16  2  0
 10 17  1  0
 17 18  2  0
 18 19  1  0
 19 20  1  0
 20 21  1  0
 21 22  2  0
 21 23  1  0
 23 24  1  0
 24 25  1  0
 25 26  2  0
 26 27  1  0
 27 28  2  0
 28 29  1  0
 29 30  2  0
 18  3  1  0
 30 25  1  0
 16 11  1  0
M  END
>  <Binding energies>  (16) 
[-8.41]

>  <Ligand effiencies>  (16) 
[-0.27129032258064517]

>  <Interactions>  (16) 
["V-A:TYR:539:CD1:4871, V-A:TYR:539:C:4865, V-A:TYR:539:CZ:4875, V-A:TYR:539:CE1:4873, V-B:LEU:475:CD2:9230, V-A:PRO:540:CA:4881, V-B:HIS:383:CD2:8363, V-B:PRO:482:CB:9297, V-B:HIS:383:CG:8361, V-B:ILE:369:CG2:8208, V-B:SER:385:CB:8380, V-A:TYR:539:CB:4869, V-B:LEU:373:CD1:8251, V-B:LEU:475:CG:9228, V-B:HIS:383:CB:8360, V-B:PRO:482:CG:9298, V-B:LEU:373:CD2:8252, V-A:PRO:540:CD:4885, V-A:TYR:539:CE2:4874, V-A:GLU:543:CD:4906, V-A:PRO:540:N:4882, V-A:MET:535:CE:4833, V-B:GLU:543:CD:9880, V-B:ARG:545:CZ:9898, V-A:TYR:539:CG:4870, H-B:GLY:454:N:9021, H-B:ARG:545:NH2:9900, H-B:ARG:545:NE:9896, V-A:TYR:539:CA:4867"]

$$$$
3bc_Grossjean_2025
     RDKit          3D

 28 30  0  0  0  0  0  0  0  0999 V2000
  132.7180  132.4320   56.3820 C   0  0  0  0  0  0  0  0  0  0  0  0
  131.6220  133.2800   56.7090 O   0  0  0  0  0  0  0  0  0  0  0  0
  130.4140  132.7110   57.0650 C   0  0  0  0  0  0  0  0  0  0  0  0
  130.1750  132.5660   58.4320 C   0  0  0  0  0  0  0  0  0  0  0  0
  128.9850  132.0030   58.8880 C   0  0  0  0  0  0  0  0  0  0  0  0
  128.0190  131.5690   57.9780 C   0  0  0  0  0  0  0  0  0  0  0  0
  126.8450  131.0250   58.5320 N   0  0  0  0  0  0  0  0  0  0  0  0
  125.8390  130.3670   57.9180 C   0  0  0  0  0  0  0  0  0  0  0  0
  125.8100  130.0920   56.7170 O   0  0  0  0  0  0  0  0  0  0  0  0
  124.7010  129.9230   58.8480 C   0  0  0  0  0  0  0  0  0  0  0  0
  123.7870  131.2800   59.6560 S   0  0  0  0  0  0  0  0  0  0  0  0
  124.9030  132.0970   60.7760 C   0  0  0  0  0  0  0  0  0  0  0  0
  124.8590  133.4500   60.6990 N   0  0  0  0  0  0  0  0  0  0  0  0
  125.6600  134.1990   61.5010 C   0  0  0  0  0  0  0  0  0  0  0  0
  125.5670  135.6870   61.3390 C   0  0  0  0  0  0  0  0  0  0  0  0
  126.7190  136.4870   61.3860 C   0  0  0  0  0  0  0  0  0  0  0  0
  126.6400  137.8690   61.2360 C   0  0  0  0  0  0  0  0  0  0  0  0
  125.4030  138.4720   61.0380 C   0  0  0  0  0  0  0  0  0  0  0  0
  124.2440  137.7030   60.9900 C   0  0  0  0  0  0  0  0  0  0  0  0
  124.3280  136.3210   61.1410 C   0  0  0  0  0  0  0  0  0  0  0  0
  126.5340  133.5950   62.4100 C   0  0  0  0  0  0  0  0  0  0  0  0
  126.5740  132.2000   62.5190 C   0  0  0  0  0  0  0  0  0  0  0  0
  127.5310  131.5840   63.5380 C   0  0  0  0  0  0  0  0  0  0  0  0
  125.7350  131.4190   61.6940 C   0  0  0  0  0  0  0  0  0  0  0  0
  125.7250  129.9600   61.8250 C   0  0  0  0  0  0  0  0  0  0  0  0
  125.7190  128.8080   61.9300 N   0  0  0  0  0  0  0  0  0  0  0  0
  128.2460  131.7240   56.6020 C   0  0  0  0  0  0  0  0  0  0  0  0
  129.4370  132.2880   56.1510 C   0  0  0  0  0  0  0  0  0  0  0  0
  1  2  1  0
  2  3  1  0
  3  4  2  0
  4  5  1  0
  5  6  2  0
  6  7  1  0
  7  8  1  0
  8  9  2  0
  8 10  1  0
 10 11  1  0
 11 12  1  0
 12 13  2  0
 13 14  1  0
 14 15  1  0
 15 16  2  0
 16 17  1  0
 17 18  2  0
 18 19  1  0
 19 20  2  0
 14 21  2  0
 21 22  1  0
 22 23  1  0
 22 24  2  0
 24 25  1  0
 25 26  3  0
  6 27  1  0
 27 28  2  0
 28  3  1  0
 24 12  1  0
 20 15  1  0
M  END
>  <Binding energies>  (17) 
[-8.52]

>  <Ligand effiencies>  (17) 
[-0.29379310344827586]

>  <Interactions>  (17) 
["V-A:ILE:538:CB:4860, V-A:TYR:539:CD1:4871, V-A:TYR:531:CE2:4791, V-A:TYR:539:C:4865, V-A:TYR:539:CZ:4875, V-A:ILE:538:CG2:4861, V-A:TYR:539:CE1:4873, V-B:LEU:475:CD2:9230, V-A:PRO:540:CA:4881, V-A:LEU:363:CD1:3186, H-B:TYR:531:OH:9767, V-B:PRO:482:CB:9297, V-B:ILE:369:CG2:8208, V-B:SER:385:CB:8380, V-B:LEU:373:CD1:8251, V-B:PRO:482:CG:9298, V-A:ILE:538:CA:4858, V-A:PRO:540:CD:4885, V-A:TYR:539:CE2:4874, V-A:PRO:540:N:4882, H-A:TYR:539:N:4868, V-A:MET:535:CE:4833, V-B:ASP:366:CB:8183, V-B:ASP:366:CG:8184, V-B:VAL:384:C:8368, V-B:SER:385:CA:8378, H-A:TYR:539:OH:4876, V-B:ASP:366:CA:8181, H-B:ARG:545:NH2:9900"]

$$$$
3bd_Grossjean_2025
     RDKit          3D

 26 28  0  0  0  0  0  0  0  0999 V2000
  132.8190  125.1930   57.6570 C   0  0  0  0  0  0  0  0  0  0  0  0
  131.6730  124.4910   58.3830 C   0  0  0  0  0  0  0  0  0  0  0  0
  130.4680  124.3070   57.6960 C   0  0  0  0  0  0  0  0  0  0  0  0
  129.3930  123.6720   58.3280 C   0  0  0  0  0  0  0  0  0  0  0  0
  128.0760  123.4380   57.6480 C   0  0  0  0  0  0  0  0  0  0  0  0
  128.0080  123.2680   56.2560 C   0  0  0  0  0  0  0  0  0  0  0  0
  126.7890  123.0520   55.6180 C   0  0  0  0  0  0  0  0  0  0  0  0
  125.6170  123.0040   56.3670 C   0  0  0  0  0  0  0  0  0  0  0  0
  125.6570  123.1730   57.7470 C   0  0  0  0  0  0  0  0  0  0  0  0
  126.8780  123.3880   58.3800 C   0  0  0  0  0  0  0  0  0  0  0  0
  129.5060  123.2160   59.6030 N   0  0  0  0  0  0  0  0  0  0  0  0
  130.6670  123.3870   60.2850 C   0  0  0  0  0  0  0  0  0  0  0  0
  130.6840  122.7550   61.9540 S   0  0  0  0  0  0  0  0  0  0  0  0
  130.1190  121.0270   61.9080 C   0  0  0  0  0  0  0  0  0  0  0  0
  131.0620  120.1380   61.0960 C   0  0  0  0  0  0  0  0  0  0  0  0
  132.0650  120.6380   60.5850 O   0  0  0  0  0  0  0  0  0  0  0  0
  130.6990  118.8410   60.9920 N   0  0  0  0  0  0  0  0  0  0  0  0
  131.3640  117.7850   60.3420 C   0  0  0  0  0  0  0  0  0  0  0  0
  132.7230  117.6410   60.6360 C   0  0  0  0  0  0  0  0  0  0  0  0
  133.4670  116.6290   60.0340 C   0  0  0  0  0  0  0  0  0  0  0  0
  132.8540  115.7660   59.1300 C   0  0  0  0  0  0  0  0  0  0  0  0
  131.5040  115.9080   58.8190 C   0  0  0  0  0  0  0  0  0  0  0  0
  130.7570  116.9180   59.4200 C   0  0  0  0  0  0  0  0  0  0  0  0
  131.7870  124.0270   59.7110 C   0  0  0  0  0  0  0  0  0  0  0  0
  133.0360  124.2040   60.4580 C   0  0  0  0  0  0  0  0  0  0  0  0
  134.0230  124.3430   61.0450 N   0  0  0  0  0  0  0  0  0  0  0  0
  1  2  1  0
  2  3  2  0
  3  4  1  0
  4  5  1  0
  5  6  2  0
  6  7  1  0
  7  8  2  0
  8  9  1  0
  9 10  2  0
  4 11  2  0
 11 12  1  0
 12 13  1  0
 13 14  1  0
 14 15  1  0
 15 16  2  0
 15 17  1  0
 17 18  1  0
 18 19  2  0
 19 20  1  0
 20 21  2  0
 21 22  1  0
 22 23  2  0
 12 24  2  0
 24 25  1  0
 25 26  3  0
 24  2  1  0
 10  5  1  0
 23 18  1  0
M  END
>  <Binding energies>  (18) 
[-8.64]

>  <Ligand effiencies>  (18) 
[-0.32]

>  <Interactions>  (18) 
["V-B:ILE:538:CB:9834, V-B:PRO:540:N:9856, V-B:TYR:539:CE1:9847, V-B:PRO:540:CA:9855, V-B:ALA:541:CB:9864, V-B:TYR:539:CD1:9845, V-B:TYR:539:CZ:9849, V-B:TYR:539:CG:9844, V-B:PRO:540:CB:9857, V-A:LEU:475:CD2:4256, V-B:ILE:538:CG2:9835, V-A:ASP:366:CG:3210, V-B:ILE:538:CA:9832, V-B:MET:535:CE:9807, V-B:PRO:540:CD:9859, V-A:SER:385:CA:3404, V-A:LEU:373:CD2:3278, V-A:PRO:482:CG:4324, V-B:TYR:539:CB:9843, V-A:PRO:482:CB:4323, V-A:SER:385:CB:3406, V-A:LEU:373:CD1:3277, V-B:VAL:344:CG1:7972, V-A:ASP:366:CA:3207, V-A:ASP:366:CB:3209, V-A:HIS:383:CG:3387, V-A:HIS:383:CB:3386, V-A:VAL:384:C:3394, V-A:LEU:373:CG:3276, H-B:TYR:539:O:9840, V-B:ILE:343:CD1:7965, V-A:HIS:383:CD2:3389"]

$$$$
3be_Grossjean_2025
     RDKit          3D

 27 29  0  0  0  0  0  0  0  0999 V2000
  126.6490  140.4170   58.7480 C   0  0  0  0  0  0  0  0  0  0  0  0
  126.1300  139.4600   59.8030 C   0  0  0  0  0  0  0  0  0  0  0  0
  124.9320  139.6980   60.4800 C   0  0  0  0  0  0  0  0  0  0  0  0
  124.5170  138.7760   61.4410 C   0  0  0  0  0  0  0  0  0  0  0  0
  125.3020  137.6490   61.7000 C   0  0  0  0  0  0  0  0  0  0  0  0
  126.4900  137.4690   60.9830 C   0  0  0  0  0  0  0  0  0  0  0  0
  127.2410  136.3210   61.2970 N   0  0  0  0  0  0  0  0  0  0  0  0
  126.8020  135.0790   61.5930 C   0  0  0  0  0  0  0  0  0  0  0  0
  125.6150  134.7490   61.6410 O   0  0  0  0  0  0  0  0  0  0  0  0
  127.9120  134.0550   61.8770 C   0  0  0  0  0  0  0  0  0  0  0  0
  127.3840  132.3080   61.8460 S   0  0  0  0  0  0  0  0  0  0  0  0
  127.5310  131.7160   60.1750 C   0  0  0  0  0  0  0  0  0  0  0  0
  128.7710  131.8720   59.6490 N   0  0  0  0  0  0  0  0  0  0  0  0
  129.0270  131.4590   58.3800 C   0  0  0  0  0  0  0  0  0  0  0  0
  130.4200  131.6810   57.8700 C   0  0  0  0  0  0  0  0  0  0  0  0
  131.5320  131.2440   58.6060 C   0  0  0  0  0  0  0  0  0  0  0  0
  132.8270  131.4490   58.1400 C   0  0  0  0  0  0  0  0  0  0  0  0
  133.0290  132.0980   56.9270 C   0  0  0  0  0  0  0  0  0  0  0  0
  131.9450  132.5430   56.1780 C   0  0  0  0  0  0  0  0  0  0  0  0
  130.6510  132.3370   56.6490 C   0  0  0  0  0  0  0  0  0  0  0  0
  128.0230  130.8750   57.6000 C   0  0  0  0  0  0  0  0  0  0  0  0
  126.7450  130.6830   58.1350 C   0  0  0  0  0  0  0  0  0  0  0  0
  125.6850  130.0250   57.2530 C   0  0  0  0  0  0  0  0  0  0  0  0
  126.4800  131.0990   59.4580 C   0  0  0  0  0  0  0  0  0  0  0  0
  125.1650  130.8590   60.0560 C   0  0  0  0  0  0  0  0  0  0  0  0
  124.1250  130.6680   60.5270 N   0  0  0  0  0  0  0  0  0  0  0  0
  126.9030  138.3700   60.0440 N   0  0  0  0  0  0  0  0  0  0  0  0
  1  2  1  0
  2  3  2  0
  3  4  1  0
  4  5  2  0
  5  6  1  0
  6  7  1  0
  7  8  1  0
  8  9  2  0
  8 10  1  0
 10 11  1  0
 11 12  1  0
 12 13  2  0
 13 14  1  0
 14 15  1  0
 15 16  2  0
 16 17  1  0
 17 18  2  0
 18 19  1  0
 19 20  2  0
 14 21  2  0
 21 22  1  0
 22 23  1  0
 22 24  2  0
 24 25  1  0
 25 26  3  0
  6 27  2  0
 27  2  1  0
 24 12  1  0
 20 15  1  0
M  END
>  <Binding energies>  (19) 
[-9.39]

>  <Ligand effiencies>  (19) 
[-0.33535714285714285]

>  <Interactions>  (19) 
["V-A:ILE:538:CB:4860, V-A:TYR:539:CD1:4871, V-A:TYR:531:CE2:4791, V-A:TYR:539:C:4865, V-A:TYR:539:CZ:4875, V-A:ILE:538:CG2:4861, V-A:PRO:540:CB:4883, V-A:TYR:539:CE1:4873, V-B:LEU:475:CD2:9230, V-A:PRO:540:CA:4881, V-A:LEU:363:CD1:3186, V-A:ALA:541:CB:4890, V-B:HIS:383:CD2:8363, V-A:ILE:343:CD1:2991, V-B:PRO:482:CB:9297, V-A:ILE:343:CG1:2990, V-B:HIS:383:CG:8361, V-B:HIS:383:CE1:8365, V-A:VAL:344:CG1:2998, V-B:SER:385:CB:8380, V-A:TYR:539:CB:4869, V-B:LEU:373:CD1:8251, V-B:HIS:383:CB:8360, V-B:PRO:482:CG:9298, V-A:ILE:538:CA:4858, V-A:PRO:540:CD:4885, V-B:SER:385:CA:8378, H-A:TYR:539:O:4866"]

$$$$
3bf_Grossjean_2025
     RDKit          3D

 26 28  0  0  0  0  0  0  0  0999 V2000
  125.8700  129.9230   56.4700 C   0  0  0  0  0  0  0  0  0  0  0  0
  126.7720  130.5860   57.5080 C   0  0  0  0  0  0  0  0  0  0  0  0
  128.1180  130.7840   57.1820 C   0  0  0  0  0  0  0  0  0  0  0  0
  128.9760  131.4020   58.0990 C   0  0  0  0  0  0  0  0  0  0  0  0
  130.4220  131.6640   57.8010 C   0  0  0  0  0  0  0  0  0  0  0  0
  130.8000  132.3570   56.6410 C   0  0  0  0  0  0  0  0  0  0  0  0
  132.1410  132.6040   56.3580 C   0  0  0  0  0  0  0  0  0  0  0  0
  133.1240  132.1580   57.2350 C   0  0  0  0  0  0  0  0  0  0  0  0
  132.7760  131.4670   58.3900 C   0  0  0  0  0  0  0  0  0  0  0  0
  131.4340  131.2210   58.6690 C   0  0  0  0  0  0  0  0  0  0  0  0
  128.5200  131.8150   59.3110 N   0  0  0  0  0  0  0  0  0  0  0  0
  127.2250  131.6060   59.6520 C   0  0  0  0  0  0  0  0  0  0  0  0
  126.8100  132.2050   61.2760 S   0  0  0  0  0  0  0  0  0  0  0  0
  127.4560  133.9040   61.4350 C   0  0  0  0  0  0  0  0  0  0  0  0
  126.3950  135.0140   61.3800 C   0  0  0  0  0  0  0  0  0  0  0  0
  125.2190  134.7730   61.6560 O   0  0  0  0  0  0  0  0  0  0  0  0
  126.8710  136.2320   61.0430 N   0  0  0  0  0  0  0  0  0  0  0  0
  126.1710  137.4430   60.8930 C   0  0  0  0  0  0  0  0  0  0  0  0
  126.8340  138.4880   60.2410 C   0  0  0  0  0  0  0  0  0  0  0  0
  126.1880  139.7110   60.0490 C   0  0  0  0  0  0  0  0  0  0  0  0
  124.8810  139.8540   60.5160 C   0  0  0  0  0  0  0  0  0  0  0  0
  124.2090  138.8550   61.1410 N   0  0  0  0  0  0  0  0  0  0  0  0
  124.8510  137.6710   61.3210 C   0  0  0  0  0  0  0  0  0  0  0  0
  126.2990  131.0080   58.7700 C   0  0  0  0  0  0  0  0  0  0  0  0
  124.8820  130.8540   59.1130 C   0  0  0  0  0  0  0  0  0  0  0  0
  123.7630  130.7310   59.3830 N   0  0  0  0  0  0  0  0  0  0  0  0
  1  2  1  0
  2  3  2  0
  3  4  1  0
  4  5  1  0
  5  6  2  0
  6  7  1  0
  7  8  2  0
  8  9  1  0
  9 10  2  0
  4 11  2  0
 11 12  1  0
 12 13  1  0
 13 14  1  0
 14 15  1  0
 15 16  2  0
 15 17  1  0
 17 18  1  0
 18 19  2  0
 19 20  1  0
 20 21  2  0
 21 22  1  0
 22 23  2  0
 12 24  2  0
 24 25  1  0
 25 26  3  0
 24  2  1  0
 10  5  1  0
 23 18  1  0
M  END
>  <Binding energies>  (20) 
[-9.17]

>  <Ligand effiencies>  (20) 
[-0.3396296296296296]

>  <Interactions>  (20) 
["V-A:LEU:363:CA:3182, V-A:ILE:538:CB:4860, V-A:TYR:539:CD1:4871, V-A:TYR:539:CZ:4875, V-A:ILE:538:CG2:4861, V-A:PRO:540:CB:4883, V-A:TYR:539:CE1:4873, V-B:LEU:475:CD2:9230, V-A:PRO:540:CA:4881, V-A:LEU:363:CD1:3186, V-A:ALA:541:CB:4890, V-B:HIS:383:CD2:8363, V-B:HIS:383:CG:8361, V-A:VAL:344:CG1:2998, V-B:SER:385:CB:8380, V-A:TYR:539:CB:4869, V-B:LEU:373:CD1:8251, V-B:HIS:383:CB:8360, V-B:PRO:482:CG:9298, V-A:PRO:540:CD:4885, V-A:PRO:540:N:4882, V-A:MET:535:CE:4833, V-B:ASP:366:CG:8184, V-A:TYR:539:CG:4870, V-B:SER:385:CA:8378, H-A:TYR:539:OH:4876, H-A:TYR:539:O:4866, H-B:SER:385:N:8379, V-B:TYR:531:CE1:9764, V-A:PRO:540:CG:4884"]

$$$$
3bg_Grossjean_2025
     RDKit          3D

 27 29  0  0  0  0  0  0  0  0999 V2000
  128.0040  122.8440   61.8350 C   0  0  0  0  0  0  0  0  0  0  0  0
  129.4820  122.4790   61.7060 C   0  0  0  0  0  0  0  0  0  0  0  0
  129.8110  121.1590   61.3820 C   0  0  0  0  0  0  0  0  0  0  0  0
  131.1540  120.7830   61.2470 C   0  0  0  0  0  0  0  0  0  0  0  0
  131.5760  119.3850   60.8890 C   0  0  0  0  0  0  0  0  0  0  0  0
  132.9170  119.0840   60.5990 C   0  0  0  0  0  0  0  0  0  0  0  0
  133.3140  117.7880   60.2850 C   0  0  0  0  0  0  0  0  0  0  0  0
  132.3720  116.7660   60.2530 C   0  0  0  0  0  0  0  0  0  0  0  0
  131.0350  117.0350   60.5240 C   0  0  0  0  0  0  0  0  0  0  0  0
  130.6420  118.3340   60.8350 C   0  0  0  0  0  0  0  0  0  0  0  0
  132.1470  121.6980   61.4110 N   0  0  0  0  0  0  0  0  0  0  0  0
  131.8450  122.9840   61.7220 C   0  0  0  0  0  0  0  0  0  0  0  0
  133.2380  124.0910   61.8760 S   0  0  0  0  0  0  0  0  0  0  0  0
  134.2500  123.9480   60.3670 C   0  0  0  0  0  0  0  0  0  0  0  0
  133.4410  124.2660   59.1060 C   0  0  0  0  0  0  0  0  0  0  0  0
  133.8660  123.9240   58.0020 O   0  0  0  0  0  0  0  0  0  0  0  0
  132.2930  124.9410   59.2860 N   0  0  0  0  0  0  0  0  0  0  0  0
  131.4620  125.5040   58.2210 C   0  0  0  0  0  0  0  0  0  0  0  0
  130.3360  124.5580   57.8220 C   0  0  0  0  0  0  0  0  0  0  0  0
  129.6180  123.8690   58.8050 C   0  0  0  0  0  0  0  0  0  0  0  0
  128.5960  122.9980   58.4410 C   0  0  0  0  0  0  0  0  0  0  0  0
  128.2850  122.8260   57.0930 C   0  0  0  0  0  0  0  0  0  0  0  0
  128.9820  123.5230   56.1080 C   0  0  0  0  0  0  0  0  0  0  0  0
  130.0050  124.3950   56.4740 C   0  0  0  0  0  0  0  0  0  0  0  0
  130.5150  123.4230   61.8900 C   0  0  0  0  0  0  0  0  0  0  0  0
  130.2010  124.8150   62.2220 C   0  0  0  0  0  0  0  0  0  0  0  0
  129.9520  125.9130   62.4850 N   0  0  0  0  0  0  0  0  0  0  0  0
  1  2  1  0
  2  3  2  0
  3  4  1  0
  4  5  1  0
  5  6  2  0
  6  7  1  0
  7  8  2  0
  8  9  1  0
  9 10  2  0
  4 11  2  0
 11 12  1  0
 12 13  1  0
 13 14  1  0
 14 15  1  0
 15 16  2  0
 15 17  1  0
 17 18  1  0
 18 19  1  0
 19 20  2  0
 20 21  1  0
 21 22  2  0
 22 23  1  0
 23 24  2  0
 12 25  2  0
 25 26  1  0
 26 27  3  0
 25  2  1  0
 10  5  1  0
 24 19  1  0
M  END
>  <Binding energies>  (21) 
[-8.18]

>  <Ligand effiencies>  (21) 
[-0.29214285714285715]

>  <Interactions>  (21) 
["V-B:TYR:539:CE1:9847, V-B:PRO:540:CA:9855, V-B:ALA:541:CB:9864, V-B:TYR:539:CD1:9845, V-B:ALA:541:CA:9862, V-B:TYR:539:CZ:9849, V-B:TYR:539:C:9839, V-B:PRO:540:C:9853, V-B:TYR:539:CG:9844, V-A:LEU:475:CD2:4256, V-A:ASP:366:CG:3210, V-B:TYR:539:CE2:9848, V-B:MET:535:CE:9807, V-A:SER:385:CA:3404, H-B:TYR:539:OH:9850, V-A:ILE:369:CG2:3234, V-A:PRO:482:CG:4324, V-B:TYR:539:CB:9843, V-A:PRO:482:CB:4323, V-A:SER:385:CB:3406, V-A:LEU:373:CD1:3277, V-A:ILE:369:CD1:3236, V-A:ASP:366:CA:3207, V-A:ASP:366:CB:3209, V-A:ILE:369:CB:3233, H-A:ASP:366:OD1:3211"]

$$$$
3ca_Grossjean_2025
     RDKit          3D

 31 33  0  0  0  0  0  0  0  0999 V2000
  128.9410  123.1510   55.7740 C   0  0  0  0  0  0  0  0  0  0  0  0
  127.4620  122.8210   55.5580 C   0  0  0  0  0  0  0  0  0  0  0  0
  126.9770  122.0720   56.6650 O   0  0  0  0  0  0  0  0  0  0  0  0
  126.2580  122.6640   57.6520 C   0  0  0  0  0  0  0  0  0  0  0  0
  125.0290  122.7820   57.6210 O   0  0  0  0  0  0  0  0  0  0  0  0
  127.1050  123.1580   58.7900 C   0  0  0  0  0  0  0  0  0  0  0  0
  126.6740  124.2630   59.5350 C   0  0  0  0  0  0  0  0  0  0  0  0
  127.4370  124.7440   60.5950 C   0  0  0  0  0  0  0  0  0  0  0  0
  128.6480  124.1350   60.9280 C   0  0  0  0  0  0  0  0  0  0  0  0
  129.3390  124.7000   62.0170 N   0  0  0  0  0  0  0  0  0  0  0  0
  130.0970  125.8160   62.0720 C   0  0  0  0  0  0  0  0  0  0  0  0
  130.3080  126.5810   61.1310 O   0  0  0  0  0  0  0  0  0  0  0  0
  130.7060  126.1270   63.4430 C   0  0  0  0  0  0  0  0  0  0  0  0
  132.1850  125.1280   63.8160 S   0  0  0  0  0  0  0  0  0  0  0  0
  132.5150  124.0060   62.4640 C   0  0  0  0  0  0  0  0  0  0  0  0
  133.2860  124.5020   61.4630 N   0  0  0  0  0  0  0  0  0  0  0  0
  133.5930  123.7020   60.4180 C   0  0  0  0  0  0  0  0  0  0  0  0
  134.4710  124.3230   59.3500 C   0  0  0  0  0  0  0  0  0  0  0  0
  133.1370  122.3900   60.3190 C   0  0  0  0  0  0  0  0  0  0  0  0
  132.3260  121.8600   61.3310 C   0  0  0  0  0  0  0  0  0  0  0  0
  131.8500  120.4530   61.1750 C   0  0  0  0  0  0  0  0  0  0  0  0
  130.5250  120.1210   61.4840 C   0  0  0  0  0  0  0  0  0  0  0  0
  130.0740  118.8100   61.3520 C   0  0  0  0  0  0  0  0  0  0  0  0
  130.9520  117.8220   60.9120 C   0  0  0  0  0  0  0  0  0  0  0  0
  132.2740  118.1330   60.6070 C   0  0  0  0  0  0  0  0  0  0  0  0
  132.7210  119.4460   60.7420 C   0  0  0  0  0  0  0  0  0  0  0  0
  132.0100  122.6840   62.4420 C   0  0  0  0  0  0  0  0  0  0  0  0
  131.2070  122.1680   63.5550 C   0  0  0  0  0  0  0  0  0  0  0  0
  130.5740  121.7590   64.4340 N   0  0  0  0  0  0  0  0  0  0  0  0
  129.0830  123.0220   60.1930 C   0  0  0  0  0  0  0  0  0  0  0  0
  128.3180  122.5420   59.1340 C   0  0  0  0  0  0  0  0  0  0  0  0
  1  2  1  0
  2  3  1  0
  3  4  1  0
  4  5  2  0
  4  6  1  0
  6  7  2  0
  7  8  1  0
  8  9  2  0
  9 10  1  0
 10 11  1  0
 11 12  2  0
 11 13  1  0
 13 14  1  0
 14 15  1  0
 15 16  2  0
 16 17  1  0
 17 18  1  0
 17 19  2  0
 19 20  1  0
 20 21  1  0
 21 22  2  0
 22 23  1  0
 23 24  2  0
 24 25  1  0
 25 26  2  0
 20 27  2  0
 27 28  1  0
 28 29  3  0
  9 30  1  0
 30 31  2  0
 31  6  1  0
 27 15  1  0
 26 21  1  0
M  END
>  <Binding energies>  (22) 
[-8.97]

>  <Ligand effiencies>  (22) 
[-0.2803125]

>  <Interactions>  (22) 
["V-B:ILE:538:CB:9834, V-B:PRO:540:N:9856, V-B:TYR:539:CE1:9847, V-B:PRO:540:CA:9855, V-B:ALA:541:CB:9864, V-B:TYR:539:CD1:9845, V-B:TYR:539:CZ:9849, V-B:TYR:539:C:9839, V-B:PRO:540:CB:9857, V-A:LEU:475:CD2:4256, V-B:ILE:538:CG2:9835, V-A:ASP:366:CG:3210, V-B:TYR:539:CE2:9848, V-B:ILE:538:CA:9832, V-B:MET:535:CE:9807, H-B:TYR:539:N:9842, V-B:TYR:539:CD2:9846, V-B:PRO:540:CD:9859, V-A:SER:385:CA:3404, V-A:ILE:369:CG2:3234, V-A:PRO:482:CG:4324, V-A:PRO:482:CB:4323, V-A:SER:385:CB:3406, V-A:LEU:373:CD1:3277, V-B:ILE:538:C:9830, H-A:ARG:545:NH2:4926, V-A:ILE:369:CD1:3236, V-A:ASP:366:CA:3207, H-B:GLU:543:OE1:9881, V-A:ASP:366:CB:3209, V-A:ILE:369:CB:3233, H-A:TYR:484:OH:4345, V-A:ILE:369:CG1:3235"]

$$$$
3ce_Grossjean_2025
     RDKit          3D

 27 29  0  0  0  0  0  0  0  0999 V2000
  123.9650  140.3740   61.7480 C   0  0  0  0  0  0  0  0  0  0  0  0
  124.9390  139.2930   61.3230 C   0  0  0  0  0  0  0  0  0  0  0  0
  126.2240  139.6030   60.8700 C   0  0  0  0  0  0  0  0  0  0  0  0
  127.0700  138.5560   60.5050 C   0  0  0  0  0  0  0  0  0  0  0  0
  126.6180  137.2380   60.5990 C   0  0  0  0  0  0  0  0  0  0  0  0
  125.3150  136.9970   61.0500 C   0  0  0  0  0  0  0  0  0  0  0  0
  124.9210  135.6520   61.1420 N   0  0  0  0  0  0  0  0  0  0  0  0
  125.6870  134.5740   61.4200 C   0  0  0  0  0  0  0  0  0  0  0  0
  126.8970  134.6070   61.6490 O   0  0  0  0  0  0  0  0  0  0  0  0
  124.9570  133.2320   61.4490 C   0  0  0  0  0  0  0  0  0  0  0  0
  126.1020  131.8410   61.6890 S   0  0  0  0  0  0  0  0  0  0  0  0
  126.7610  131.4750   60.0780 C   0  0  0  0  0  0  0  0  0  0  0  0
  125.8810  130.8600   59.2500 N   0  0  0  0  0  0  0  0  0  0  0  0
  126.2810  130.5530   57.9940 C   0  0  0  0  0  0  0  0  0  0  0  0
  125.2440  129.8790   57.1170 C   0  0  0  0  0  0  0  0  0  0  0  0
  127.5630  130.8330   57.5270 C   0  0  0  0  0  0  0  0  0  0  0  0
  128.4940  131.4440   58.3760 C   0  0  0  0  0  0  0  0  0  0  0  0
  129.8630  131.7010   57.8380 C   0  0  0  0  0  0  0  0  0  0  0  0
  130.9820  131.1380   58.4630 C   0  0  0  0  0  0  0  0  0  0  0  0
  132.2620  131.3770   57.9700 C   0  0  0  0  0  0  0  0  0  0  0  0
  132.4300  132.1880   56.8520 C   0  0  0  0  0  0  0  0  0  0  0  0
  131.3290  132.7640   56.2240 C   0  0  0  0  0  0  0  0  0  0  0  0
  130.0500  132.5220   56.7180 C   0  0  0  0  0  0  0  0  0  0  0  0
  128.0870  131.7820   59.6920 C   0  0  0  0  0  0  0  0  0  0  0  0
  129.0130  132.4370   60.6210 C   0  0  0  0  0  0  0  0  0  0  0  0
  129.7440  132.9540   61.3530 N   0  0  0  0  0  0  0  0  0  0  0  0
  124.4840  138.0170   61.4170 N   0  0  0  0  0  0  0  0  0  0  0  0
  1  2  1  0
  2  3  2  0
  3  4  1  0
  4  5  2  0
  5  6  1  0
  6  7  1  0
  7  8  1  0
  8  9  2  0
  8 10  1  0
 10 11  1  0
 11 12  1  0
 12 13  2  0
 13 14  1  0
 14 15  1  0
 14 16  2  0
 16 17  1  0
 17 18  1  0
 18 19  2  0
 19 20  1  0
 20 21  2  0
 21 22  1  0
 22 23  2  0
 17 24  2  0
 24 25  1  0
 25 26  3  0
  6 27  2  0
 27  2  1  0
 24 12  1  0
 23 18  1  0
M  END
>  <Binding energies>  (23) 
[-9.05]

>  <Ligand effiencies>  (23) 
[-0.32321428571428573]

>  <Interactions>  (23) 
["V-A:ILE:538:CB:4860, V-A:TYR:539:CD1:4871, V-A:TYR:539:CZ:4875, V-A:ILE:538:CG2:4861, V-A:PRO:540:CB:4883, V-A:TYR:539:CE1:4873, V-B:LEU:475:CD2:9230, V-A:PRO:540:CA:4881, V-A:LEU:363:CD1:3186, V-B:PRO:482:CB:9297, V-B:HIS:383:CG:8361, V-B:ILE:369:CG2:8208, V-A:VAL:344:CG1:2998, V-B:SER:385:CB:8380, V-A:TYR:539:CB:4869, V-B:LEU:373:CD1:8251, V-B:THR:477:CA:9241, V-B:THR:477:CG2:9244, V-B:HIS:383:CB:8360, V-B:PRO:482:CG:9298, V-A:ILE:538:CA:4858, V-A:PRO:540:CD:4885, V-A:PRO:540:N:4882, V-B:ASP:366:CB:8183, V-A:TYR:539:CG:4870, V-B:SER:385:CA:8378, H-A:TYR:539:OH:4876, H-A:ALA:541:N:4889, H-B:SER:385:O:8377, V-B:HIS:383:C:8356, V-B:THR:477:CB:9243"]

$$$$
3cj_Grossjean_2025
     RDKit          3D

 25 27  0  0  0  0  0  0  0  0999 V2000
  131.8170  125.4190   56.6550 C   0  0  0  0  0  0  0  0  0  0  0  0
  130.8160  124.7730   57.5940 C   0  0  0  0  0  0  0  0  0  0  0  0
  129.4790  124.6160   57.2370 C   0  0  0  0  0  0  0  0  0  0  0  0
  128.5930  123.9920   58.1260 C   0  0  0  0  0  0  0  0  0  0  0  0
  127.1860  123.7860   57.6760 C   0  0  0  0  0  0  0  0  0  0  0  0
  126.1240  124.3820   58.3670 C   0  0  0  0  0  0  0  0  0  0  0  0
  124.8100  124.1780   57.9540 C   0  0  0  0  0  0  0  0  0  0  0  0
  124.5530  123.3720   56.8490 C   0  0  0  0  0  0  0  0  0  0  0  0
  125.5970  122.7650   56.1570 C   0  0  0  0  0  0  0  0  0  0  0  0
  126.9110  122.9700   56.5720 C   0  0  0  0  0  0  0  0  0  0  0  0
  129.0880  123.5690   59.3840 C   0  0  0  0  0  0  0  0  0  0  0  0
  128.2050  122.9360   60.3690 C   0  0  0  0  0  0  0  0  0  0  0  0
  127.5070  122.4350   61.1460 N   0  0  0  0  0  0  0  0  0  0  0  0
  130.4600  123.7640   59.6610 C   0  0  0  0  0  0  0  0  0  0  0  0
  131.2380  123.1610   61.1440 S   0  0  0  0  0  0  0  0  0  0  0  0
  130.5510  121.4910   61.3850 C   0  0  0  0  0  0  0  0  0  0  0  0
  131.5630  120.4000   61.0220 C   0  0  0  0  0  0  0  0  0  0  0  0
  132.7690  120.6270   61.1410 O   0  0  0  0  0  0  0  0  0  0  0  0
  131.0300  119.2260   60.6230 N   0  0  0  0  0  0  0  0  0  0  0  0
  131.7150  118.0490   60.3700 C   0  0  0  0  0  0  0  0  0  0  0  0
  132.9820  117.7850   60.6060 N   0  0  0  0  0  0  0  0  0  0  0  0
  133.2900  116.5490   60.2660 C   0  0  0  0  0  0  0  0  0  0  0  0
  132.2570  115.7790   59.7390 C   0  0  0  0  0  0  0  0  0  0  0  0
  130.8070  116.7370   59.6890 S   0  0  0  0  0  0  0  0  0  0  0  0
  131.3100  124.3470   58.7780 N   0  0  0  0  0  0  0  0  0  0  0  0
  1  2  1  0
  2  3  2  0
  3  4  1  0
  4  5  1  0
  5  6  2  0
  6  7  1  0
  7  8  2  0
  8  9  1  0
  9 10  2  0
  4 11  2  0
 11 12  1  0
 12 13  3  0
 11 14  1  0
 14 15  1  0
 15 16  1  0
 16 17  1  0
 17 18  2  0
 17 19  1  0
 19 20  1  0
 20 21  2  0
 21 22  1  0
 22 23  2  0
 23 24  1  0
 14 25  2  0
 25  2  1  0
 10  5  1  0
 24 20  1  0
M  END
>  <Binding energies>  (24) 
[-8.59]

>  <Ligand effiencies>  (24) 
[-0.3303846153846154]

>  <Interactions>  (24) 
["V-B:ILE:538:CB:9834, V-B:TYR:539:CE1:9847, V-B:PRO:540:CA:9855, V-B:TYR:531:CE2:9765, V-B:ALA:541:CB:9864, V-B:TYR:539:CD1:9845, V-B:TYR:539:CZ:9849, V-B:TYR:539:CG:9844, V-B:LEU:363:CD1:8160, V-A:LEU:475:CD2:4256, V-B:ILE:538:CG2:9835, V-B:ILE:538:CA:9832, V-B:PRO:540:CD:9859, V-A:SER:385:CA:3404, H-B:TYR:539:OH:9850, V-A:PRO:482:CG:4324, V-B:TYR:539:CB:9843, V-A:SER:385:CB:3406, V-A:LEU:373:CD1:3277, V-B:VAL:344:CG1:7972, H-B:ALA:541:N:9863, V-A:HIS:383:CG:3387, V-A:VAL:384:C:3394, H-B:TYR:539:O:9840"]

$$$$
4ba_Grossjean_2025
     RDKit          3D

 28 30  0  0  0  0  0  0  0  0999 V2000
  126.2760  137.8100   60.6380 C   0  0  0  0  0  0  0  0  0  0  0  0
  125.9100  136.5080   61.3760 C   0  0  0  0  0  0  0  0  0  0  0  0
  127.1070  135.6100   61.7500 C   0  0  0  0  0  0  0  0  0  0  0  0
  128.0920  136.1080   62.3000 O   0  0  0  0  0  0  0  0  0  0  0  0
  127.0100  134.1470   61.4250 C   0  0  0  0  0  0  0  0  0  0  0  0
  128.1790  133.4210   61.1660 C   0  0  0  0  0  0  0  0  0  0  0  0
  128.1190  132.0650   60.8610 C   0  0  0  0  0  0  0  0  0  0  0  0
  126.8900  131.4050   60.8120 C   0  0  0  0  0  0  0  0  0  0  0  0
  126.9430  130.0360   60.4860 N   0  0  0  0  0  0  0  0  0  0  0  0
  126.7960  128.9450   61.2760 C   0  0  0  0  0  0  0  0  0  0  0  0
  126.6210  128.9920   62.4950 O   0  0  0  0  0  0  0  0  0  0  0  0
  126.8820  127.6560   60.5850 C   0  0  0  0  0  0  0  0  0  0  0  0
  126.5010  127.5440   58.8690 S   0  0  0  0  0  0  0  0  0  0  0  0
  126.7800  125.8190   58.8720 C   0  0  0  0  0  0  0  0  0  0  0  0
  126.6370  125.0900   57.7660 N   0  0  0  0  0  0  0  0  0  0  0  0
  126.8790  123.7650   57.8920 C   0  0  0  0  0  0  0  0  0  0  0  0
  126.7020  122.9530   56.6220 C   0  0  0  0  0  0  0  0  0  0  0  0
  127.2620  123.1580   59.0850 C   0  0  0  0  0  0  0  0  0  0  0  0
  127.4150  123.9210   60.2540 C   0  0  0  0  0  0  0  0  0  0  0  0
  127.8400  123.2090   61.5420 C   0  0  0  0  0  0  0  0  0  0  0  0
  128.8900  123.7820   62.1340 F   0  0  0  0  0  0  0  0  0  0  0  0
  126.8340  123.2170   62.4180 F   0  0  0  0  0  0  0  0  0  0  0  0
  128.1760  121.9470   61.2700 F   0  0  0  0  0  0  0  0  0  0  0  0
  127.1610  125.3220   60.1560 C   0  0  0  0  0  0  0  0  0  0  0  0
  127.2010  126.3960   61.1180 C   0  0  0  0  0  0  0  0  0  0  0  0
  127.5260  126.1980   62.4360 N   0  0  0  0  0  0  0  0  0  0  0  0
  125.7130  132.1260   61.0640 C   0  0  0  0  0  0  0  0  0  0  0  0
  125.7760  133.4830   61.3690 C   0  0  0  0  0  0  0  0  0  0  0  0
  1  2  1  0
  2  3  1  0
  3  4  2  0
  3  5  1  0
  5  6  2  0
  6  7  1  0
  7  8  2  0
  8  9  1  0
  9 10  1  0
 10 11  2  0
 10 12  1  0
 12 13  1  0
 13 14  1  0
 14 15  2  0
 15 16  1  0
 16 17  1  0
 16 18  2  0
 18 19  1  0
 19 20  1  0
 20 21  1  0
 20 22  1  0
 20 23  1  0
 19 24  2  0
 24 25  1  0
 25 26  1  0
  8 27  1  0
 27 28  2  0
 28  5  1  0
 25 12  2  0
 24 14  1  0
M  END
>  <Binding energies>  (25) 
[-6.08]

>  <Ligand effiencies>  (25) 
[-0.19612903225806452]

>  <Interactions>  (25) 
["V-A:TYR:539:CD1:4871, V-A:TYR:539:C:4865, V-A:TYR:539:CE1:4873, V-B:LEU:475:CD2:9230, V-A:ALA:541:CB:4890, V-B:PRO:540:N:9856, V-B:PRO:540:CA:9855, V-B:ALA:541:CB:9864, V-B:ALA:541:CA:9862, V-B:TYR:539:C:9839, V-B:PRO:540:C:9853, H-B:TYR:531:OH:9767, V-A:TYR:539:CB:4869, V-B:LEU:373:CD1:8251, V-B:PRO:482:CG:9298, V-B:GLU:543:CD:9880, V-B:ALA:541:C:9860, V-B:ASP:366:CB:8183, V-B:ASP:366:CG:8184, V-A:TYR:539:CG:4870, H-B:GLU:543:OE1:9881, H-B:ARG:545:NH2:9900, H-B:GLU:543:OE2:9882"]

$$$$
4bb_Grossjean_2025
     RDKit          3D

 27 29  0  0  0  0  0  0  0  0999 V2000
  131.1840  126.9270   72.5960 C   0  0  0  0  0  0  0  0  0  0  0  0
  129.7380  126.7500   72.1290 C   0  0  0  0  0  0  0  0  0  0  0  0
  128.9210  126.2940   72.9310 O   0  0  0  0  0  0  0  0  0  0  0  0
  129.3940  127.1290   70.7200 C   0  0  0  0  0  0  0  0  0  0  0  0
  128.0820  126.9570   70.2620 C   0  0  0  0  0  0  0  0  0  0  0  0
  127.7370  127.3000   68.9580 C   0  0  0  0  0  0  0  0  0  0  0  0
  128.6940  127.8300   68.0900 C   0  0  0  0  0  0  0  0  0  0  0  0
  128.2380  128.1410   66.7930 N   0  0  0  0  0  0  0  0  0  0  0  0
  127.7060  129.2890   66.3090 C   0  0  0  0  0  0  0  0  0  0  0  0
  127.5010  130.2960   66.9850 O   0  0  0  0  0  0  0  0  0  0  0  0
  127.3440  129.2590   64.8890 C   0  0  0  0  0  0  0  0  0  0  0  0
  128.3230  128.3450   63.7430 S   0  0  0  0  0  0  0  0  0  0  0  0
  127.3090  128.8410   62.4080 C   0  0  0  0  0  0  0  0  0  0  0  0
  127.5520  128.4370   61.1630 N   0  0  0  0  0  0  0  0  0  0  0  0
  126.6980  128.8880   60.2150 C   0  0  0  0  0  0  0  0  0  0  0  0
  126.9920  128.4140   58.8030 C   0  0  0  0  0  0  0  0  0  0  0  0
  125.6190  129.7260   60.4800 C   0  0  0  0  0  0  0  0  0  0  0  0
  125.3580  130.1550   61.7900 C   0  0  0  0  0  0  0  0  0  0  0  0
  124.1580  131.0770   62.0330 C   0  0  0  0  0  0  0  0  0  0  0  0
  123.5120  131.4000   60.9100 F   0  0  0  0  0  0  0  0  0  0  0  0
  123.2820  130.4740   62.8390 F   0  0  0  0  0  0  0  0  0  0  0  0
  124.5670  132.2120   62.5990 F   0  0  0  0  0  0  0  0  0  0  0  0
  126.2390  129.6980   62.8160 C   0  0  0  0  0  0  0  0  0  0  0  0
  126.2890  129.9210   64.2390 C   0  0  0  0  0  0  0  0  0  0  0  0
  125.3790  130.7080   64.8970 N   0  0  0  0  0  0  0  0  0  0  0  0
  130.0120  127.9990   68.5400 C   0  0  0  0  0  0  0  0  0  0  0  0
  130.3550  127.6530   69.8440 C   0  0  0  0  0  0  0  0  0  0  0  0
  1  2  1  0
  2  3  2  0
  2  4  1  0
  4  5  2  0
  5  6  1  0
  6  7  2  0
  7  8  1  0
  8  9  1  0
  9 10  2  0
  9 11  1  0
 11 12  1  0
 12 13  1  0
 13 14  2  0
 14 15  1  0
 15 16  1  0
 15 17  2  0
 17 18  1  0
 18 19  1  0
 19 20  1  0
 19 21  1  0
 19 22  1  0
 18 23  2  0
 23 24  1  0
 24 25  1  0
  7 26  1  0
 26 27  2  0
 27  4  1  0
 24 11  2  0
 23 13  1  0
M  END
>  <Binding energies>  (26) 
[-5.84]

>  <Ligand effiencies>  (26) 
[-0.19466666666666665]

>  <Interactions>  (26) 
["V-B:GLY:454:CA:9020, V-B:ILE:369:CG2:8208, V-B:ILE:369:CD1:8210, V-B:ILE:369:CB:8207, V-A:GLU:543:CD:4906, V-B:GLU:543:CD:9880, V-B:ASP:366:CG:8184, V-B:ARG:545:CZ:9898, V-B:GLU:543:CG:9879, V-B:ILE:369:CG1:8209, H-B:GLU:543:OE1:9881, H-B:GLU:543:OE2:9882, H-A:GLU:543:OE2:4908, H-B:TYR:484:OH:9319, V-A:HIS:456:CE1:4066, V-B:GLY:544:CA:9886, V-A:HIS:456:CD2:4065, V-A:HIS:456:CG:4063, V-B:GLU:543:C:9874, V-A:GLU:543:CB:4904, H-B:LYS:547:NZ:9923, V-A:GLU:543:CG:4905, V-B:GLY:544:C:9884, V-B:HIS:456:CE1:9040, V-A:GLY:544:C:4910, H-B:HIS:456:NE2:9041, V-B:GLY:453:C:9013, V-B:GLY:453:CA:9015, V-A:GLU:543:C:4900"]

$$$$
4bd_Grossjean_2025
     RDKit          3D

 24 26  0  0  0  0  0  0  0  0999 V2000
  125.6570  129.1570   65.3790 C   0  0  0  0  0  0  0  0  0  0  0  0
  125.9730  130.2770   64.4040 C   0  0  0  0  0  0  0  0  0  0  0  0
  127.1730  130.2970   63.6980 C   0  0  0  0  0  0  0  0  0  0  0  0
  127.4530  131.3400   62.8010 C   0  0  0  0  0  0  0  0  0  0  0  0
  128.7880  131.3220   62.0500 C   0  0  0  0  0  0  0  0  0  0  0  0
  129.6660  132.2100   62.5230 F   0  0  0  0  0  0  0  0  0  0  0  0
  129.3470  130.1160   62.1500 F   0  0  0  0  0  0  0  0  0  0  0  0
  128.5860  131.6080   60.7640 F   0  0  0  0  0  0  0  0  0  0  0  0
  126.4630  132.3560   62.6520 C   0  0  0  0  0  0  0  0  0  0  0  0
  126.3960  133.5510   61.8470 C   0  0  0  0  0  0  0  0  0  0  0  0
  127.4020  133.9250   60.9950 N   0  0  0  0  0  0  0  0  0  0  0  0
  125.2130  134.2910   62.0150 C   0  0  0  0  0  0  0  0  0  0  0  0
  124.8250  135.5510   61.3740 C   0  0  0  0  0  0  0  0  0  0  0  0
  123.7720  135.6360   60.7410 O   0  0  0  0  0  0  0  0  0  0  0  0
  125.6920  136.5810   61.5440 N   0  0  0  0  0  0  0  0  0  0  0  0
  125.6370  137.8900   61.0310 C   0  0  0  0  0  0  0  0  0  0  0  0
  126.3780  138.1240   59.8690 C   0  0  0  0  0  0  0  0  0  0  0  0
  126.3800  139.3850   59.2800 C   0  0  0  0  0  0  0  0  0  0  0  0
  125.6330  140.4140   59.8470 C   0  0  0  0  0  0  0  0  0  0  0  0
  124.8790  140.1900   60.9970 C   0  0  0  0  0  0  0  0  0  0  0  0
  124.8750  138.9300   61.5900 C   0  0  0  0  0  0  0  0  0  0  0  0
  124.1390  133.5200   63.1790 S   0  0  0  0  0  0  0  0  0  0  0  0
  125.2760  132.2180   63.4360 C   0  0  0  0  0  0  0  0  0  0  0  0
  125.0150  131.2250   64.2850 N   0  0  0  0  0  0  0  0  0  0  0  0
  1  2  1  0
  2  3  2  0
  3  4  1  0
  4  5  1  0
  5  6  1  0
  5  7  1  0
  5  8  1  0
  4  9  2  0
  9 10  1  0
 10 11  1  0
 10 12  2  0
 12 13  1  0
 13 14  2  0
 13 15  1  0
 15 16  1  0
 16 17  2  0
 17 18  1  0
 18 19  2  0
 19 20  1  0
 20 21  2  0
 12 22  1  0
 22 23  1  0
 23 24  2  0
 24  2  1  0
 23  9  1  0
 21 16  1  0
M  END
>  <Binding energies>  (27) 
[-6.8]

>  <Ligand effiencies>  (27) 
[-0.2518518518518518]

>  <Interactions>  (27) 
["V-A:TYR:539:CD1:4871, V-A:ALA:541:CA:4888, V-A:TYR:539:CE1:4873, V-B:LEU:475:CD2:9230, V-A:ALA:541:CB:4890, V-B:GLY:454:CA:9020, V-B:HIS:383:CD2:8363, V-A:ILE:343:CD1:2991, V-A:ILE:343:CG1:2990, V-B:HIS:383:CG:8361, V-B:ILE:369:CG2:8208, V-B:HIS:383:CE1:8365, V-A:VAL:344:CG1:2998, V-B:SER:385:CB:8380, V-A:TYR:539:CB:4869, V-B:LEU:373:CD1:8251, V-B:HIS:383:CB:8360, V-A:GLU:543:CD:4906, V-B:ARG:545:CZ:9898, V-A:TYR:539:CG:4870, V-B:SER:385:CA:8378, H-A:TYR:539:O:4866, H-B:GLY:454:N:9021, H-B:TYR:484:OH:9319, V-B:ARG:545:CD:9895"]

$$$$
4be_Grossjean_2025
     RDKit          3D

 25 27  0  0  0  0  0  0  0  0999 V2000
  126.7500  140.3690   58.7490 C   0  0  0  0  0  0  0  0  0  0  0  0
  126.4010  139.5940   60.0060 C   0  0  0  0  0  0  0  0  0  0  0  0
  125.9230  140.2370   61.1510 C   0  0  0  0  0  0  0  0  0  0  0  0
  125.6250  139.4610   62.2720 C   0  0  0  0  0  0  0  0  0  0  0  0
  125.8100  138.0780   62.2220 C   0  0  0  0  0  0  0  0  0  0  0  0
  126.2870  137.4970   61.0410 C   0  0  0  0  0  0  0  0  0  0  0  0
  126.4580  136.1010   61.0590 N   0  0  0  0  0  0  0  0  0  0  0  0
  125.5670  135.1380   61.4030 C   0  0  0  0  0  0  0  0  0  0  0  0
  124.4110  135.3700   61.7640 O   0  0  0  0  0  0  0  0  0  0  0  0
  126.0710  133.7640   61.3420 C   0  0  0  0  0  0  0  0  0  0  0  0
  124.9450  132.4080   61.3110 S   0  0  0  0  0  0  0  0  0  0  0  0
  126.2610  131.2570   61.2790 C   0  0  0  0  0  0  0  0  0  0  0  0
  126.0350  129.9450   61.2430 N   0  0  0  0  0  0  0  0  0  0  0  0
  127.1330  129.1540   61.2190 C   0  0  0  0  0  0  0  0  0  0  0  0
  126.8550  127.6630   61.1820 C   0  0  0  0  0  0  0  0  0  0  0  0
  128.4370  129.6410   61.2270 C   0  0  0  0  0  0  0  0  0  0  0  0
  128.6820  131.0220   61.2640 C   0  0  0  0  0  0  0  0  0  0  0  0
  130.1340  131.5100   61.2680 C   0  0  0  0  0  0  0  0  0  0  0  0
  131.0190  130.5140   61.1740 F   0  0  0  0  0  0  0  0  0  0  0  0
  130.3400  132.3230   60.2330 F   0  0  0  0  0  0  0  0  0  0  0  0
  130.3870  132.1650   62.4000 F   0  0  0  0  0  0  0  0  0  0  0  0
  127.5450  131.8840   61.2950 C   0  0  0  0  0  0  0  0  0  0  0  0
  127.4030  133.3190   61.3420 C   0  0  0  0  0  0  0  0  0  0  0  0
  128.4780  134.1700   61.3750 N   0  0  0  0  0  0  0  0  0  0  0  0
  126.5850  138.2510   59.9420 N   0  0  0  0  0  0  0  0  0  0  0  0
  1  2  1  0
  2  3  2  0
  3  4  1  0
  4  5  2  0
  5  6  1  0
  6  7  1  0
  7  8  1  0
  8  9  2  0
  8 10  1  0
 10 11  1  0
 11 12  1  0
 12 13  2  0
 13 14  1  0
 14 15  1  0
 14 16  2  0
 16 17  1  0
 17 18  1  0
 18 19  1  0
 18 20  1  0
 18 21  1  0
 17 22  2  0
 22 23  1  0
 23 24  1  0
  6 25  2  0
 25  2  1  0
 23 10  2  0
 22 12  1  0
M  END
>  <Binding energies>  (28) 
[-6.81]

>  <Ligand effiencies>  (28) 
[-0.2432142857142857]

>  <Interactions>  (28) 
["V-A:PRO:540:C:4879, V-A:TYR:539:CD1:4871, V-A:TYR:539:C:4865, V-A:ALA:541:CA:4888, V-A:PRO:540:CB:4883, V-A:TYR:539:CE1:4873, V-B:LEU:475:CD2:9230, V-A:PRO:540:CA:4881, V-A:ALA:541:CB:4890, V-B:HIS:383:CD2:8363, V-A:ILE:343:CD1:2991, V-B:PRO:482:CB:9297, V-A:ILE:343:CG1:2990, V-B:HIS:383:CG:8361, V-B:HIS:383:CE1:8365, V-A:VAL:344:CG1:2998, V-B:SER:385:CB:8380, V-A:TYR:539:CB:4869, V-B:LEU:475:CG:9228, V-B:PRO:482:CG:9298, V-A:ALA:541:C:4886, V-A:GLU:543:CD:4906, V-A:PRO:540:N:4882, V-B:ASP:366:CG:8184, V-A:TYR:539:CG:4870, H-A:TYR:539:O:4866"]

$$$$
4bg_Grossjean_2025
     RDKit          3D

 25 27  0  0  0  0  0  0  0  0999 V2000
  124.1240  123.9110   56.8010 C   0  0  0  0  0  0  0  0  0  0  0  0
  125.0410  123.6670   57.9860 C   0  0  0  0  0  0  0  0  0  0  0  0
  124.6040  123.8910   59.2890 C   0  0  0  0  0  0  0  0  0  0  0  0
  125.4650  123.6670   60.3760 C   0  0  0  0  0  0  0  0  0  0  0  0
  124.9400  123.9280   61.7920 C   0  0  0  0  0  0  0  0  0  0  0  0
  123.8170  124.6490   61.8070 F   0  0  0  0  0  0  0  0  0  0  0  0
  124.6790  122.7690   62.3960 F   0  0  0  0  0  0  0  0  0  0  0  0
  125.8540  124.5950   62.4960 F   0  0  0  0  0  0  0  0  0  0  0  0
  126.7820  123.2050   60.0800 C   0  0  0  0  0  0  0  0  0  0  0  0
  127.9170  122.8800   60.9080 C   0  0  0  0  0  0  0  0  0  0  0  0
  127.8960  122.9920   62.2750 N   0  0  0  0  0  0  0  0  0  0  0  0
  129.0380  122.4320   60.1910 C   0  0  0  0  0  0  0  0  0  0  0  0
  130.3540  122.0500   60.7020 C   0  0  0  0  0  0  0  0  0  0  0  0
  131.1200  122.8810   61.1930 O   0  0  0  0  0  0  0  0  0  0  0  0
  130.6530  120.7360   60.6380 N   0  0  0  0  0  0  0  0  0  0  0  0
  131.9110  120.1300   61.0740 C   0  0  0  0  0  0  0  0  0  0  0  0
  132.0590  118.6700   60.6640 C   0  0  0  0  0  0  0  0  0  0  0  0
  130.9250  117.8990   60.3940 C   0  0  0  0  0  0  0  0  0  0  0  0
  131.0650  116.5760   59.9820 C   0  0  0  0  0  0  0  0  0  0  0  0
  132.3380  116.0320   59.8280 C   0  0  0  0  0  0  0  0  0  0  0  0
  133.4730  116.8000   60.0780 C   0  0  0  0  0  0  0  0  0  0  0  0
  133.3340  118.1230   60.4920 C   0  0  0  0  0  0  0  0  0  0  0  0
  128.7330  122.4350   58.4560 S   0  0  0  0  0  0  0  0  0  0  0  0
  127.1010  123.0090   58.7000 C   0  0  0  0  0  0  0  0  0  0  0  0
  126.2800  123.2260   57.6730 N   0  0  0  0  0  0  0  0  0  0  0  0
  1  2  1  0
  2  3  2  0
  3  4  1  0
  4  5  1  0
  5  6  1  0
  5  7  1  0
  5  8  1  0
  4  9  2  0
  9 10  1  0
 10 11  1  0
 10 12  2  0
 12 13  1  0
 13 14  2  0
 13 15  1  0
 15 16  1  0
 16 17  1  0
 17 18  2  0
 18 19  1  0
 19 20  2  0
 20 21  1  0
 21 22  2  0
 12 23  1  0
 23 24  1  0
 24 25  2  0
 25  2  1  0
 24  9  1  0
 22 17  1  0
M  END
>  <Binding energies>  (29) 
[-7.52]

>  <Ligand effiencies>  (29) 
[-0.26857142857142857]

>  <Interactions>  (29) 
["V-B:PRO:540:N:9856, V-B:TYR:539:CE1:9847, V-B:PRO:540:CA:9855, V-B:TYR:531:CE2:9765, V-B:ALA:541:CB:9864, V-B:TYR:539:CD1:9845, V-B:ALA:541:CA:9862, V-B:TYR:539:CZ:9849, V-B:TYR:539:C:9839, V-B:PRO:540:C:9853, V-B:TYR:531:CZ:9766, V-B:TYR:539:CG:9844, V-B:PRO:540:CB:9857, V-B:LEU:363:CD1:8160, V-A:LEU:475:CD2:4256, V-B:GLU:543:CD:9880, V-B:ALA:541:C:9860, V-B:ASN:362:C:8143, V-B:ASN:362:CB:8147, V-B:ASP:366:CG:8184, V-B:ARG:545:CZ:9898, V-A:SER:385:CA:3404, V-A:LEU:373:CD2:3278, V-A:PRO:482:CG:4324, V-B:TYR:539:CB:9843, V-A:PRO:482:CB:4323, V-A:SER:385:CB:3406, V-A:LEU:373:CD1:3277, V-B:VAL:344:CG1:7972, H-B:GLU:543:OE1:9881, H-B:ALA:541:O:9861, V-A:VAL:384:C:3394, H-B:TYR:539:O:9840, V-B:ASN:362:CG:8148, V-B:ASN:362:CA:8145"]

$$$$
4ca_Grossjean_2025
     RDKit          3D

 34 37  0  0  0  0  0  0  0  0999 V2000
  123.7830  132.3180   62.6300 C   0  0  0  0  0  0  0  0  0  0  0  0
  124.2400  133.2470   61.5020 C   0  0  0  0  0  0  0  0  0  0  0  0
  125.1060  132.5380   60.6260 O   0  0  0  0  0  0  0  0  0  0  0  0
  124.6640  131.4650   59.9180 C   0  0  0  0  0  0  0  0  0  0  0  0
  123.7480  131.5280   59.0910 O   0  0  0  0  0  0  0  0  0  0  0  0
  125.4010  130.1990   60.2400 C   0  0  0  0  0  0  0  0  0  0  0  0
  125.8370  129.3760   59.1930 C   0  0  0  0  0  0  0  0  0  0  0  0
  126.5270  128.1960   59.4590 C   0  0  0  0  0  0  0  0  0  0  0  0
  126.7900  127.8120   60.7740 C   0  0  0  0  0  0  0  0  0  0  0  0
  127.5020  126.6070   60.9280 N   0  0  0  0  0  0  0  0  0  0  0  0
  127.0600  125.3670   61.2530 C   0  0  0  0  0  0  0  0  0  0  0  0
  125.8760  125.0800   61.4290 O   0  0  0  0  0  0  0  0  0  0  0  0
  128.1000  124.3430   61.3700 C   0  0  0  0  0  0  0  0  0  0  0  0
  127.8960  122.7790   60.5840 S   0  0  0  0  0  0  0  0  0  0  0  0
  129.4650  122.2450   61.1400 C   0  0  0  0  0  0  0  0  0  0  0  0
  129.9310  121.0350   60.8420 N   0  0  0  0  0  0  0  0  0  0  0  0
  131.1660  120.7130   61.3060 C   0  0  0  0  0  0  0  0  0  0  0  0
  131.6690  119.3450   60.9440 C   0  0  0  0  0  0  0  0  0  0  0  0
  133.0260  119.1320   60.6520 C   0  0  0  0  0  0  0  0  0  0  0  0
  133.4970  117.8670   60.3100 C   0  0  0  0  0  0  0  0  0  0  0  0
  132.6140  116.7930   60.2540 C   0  0  0  0  0  0  0  0  0  0  0  0
  131.2650  116.9770   60.5360 C   0  0  0  0  0  0  0  0  0  0  0  0
  130.7980  118.2430   60.8770 C   0  0  0  0  0  0  0  0  0  0  0  0
  131.9160  121.5990   62.0870 C   0  0  0  0  0  0  0  0  0  0  0  0
  131.4310  122.8750   62.4110 C   0  0  0  0  0  0  0  0  0  0  0  0
  132.3070  123.7970   63.2680 C   0  0  0  0  0  0  0  0  0  0  0  0
  132.5780  124.9610   62.6750 F   0  0  0  0  0  0  0  0  0  0  0  0
  131.6880  124.0690   64.4160 F   0  0  0  0  0  0  0  0  0  0  0  0
  133.4720  123.2010   63.5260 F   0  0  0  0  0  0  0  0  0  0  0  0
  130.1440  123.2300   61.9140 C   0  0  0  0  0  0  0  0  0  0  0  0
  129.3400  124.4220   62.0270 C   0  0  0  0  0  0  0  0  0  0  0  0
  129.7530  125.5310   62.7190 N   0  0  0  0  0  0  0  0  0  0  0  0
  126.3630  128.6310   61.8290 C   0  0  0  0  0  0  0  0  0  0  0  0
  125.6740  129.8120   61.5610 C   0  0  0  0  0  0  0  0  0  0  0  0
  1  2  1  0
  2  3  1  0
  3  4  1  0
  4  5  2  0
  4  6  1  0
  6  7  2  0
  7  8  1  0
  8  9  2  0
  9 10  1  0
 10 11  1  0
 11 12  2  0
 11 13  1  0
 13 14  1  0
 14 15  1  0
 15 16  2  0
 16 17  1  0
 17 18  1  0
 18 19  2  0
 19 20  1  0
 20 21  2  0
 21 22  1  0
 22 23  2  0
 17 24  2  0
 24 25  1  0
 25 26  1  0
 26 27  1  0
 26 28  1  0
 26 29  1  0
 25 30  2  0
 30 31  1  0
 31 32  1  0
  9 33  1  0
 33 34  2  0
 34  6  1  0
 31 13  2  0
 30 15  1  0
 23 18  1  0
M  END
>  <Binding energies>  (30) 
[-7.41]

>  <Ligand effiencies>  (30) 
[-0.20027027027027028]

>  <Interactions>  (30) 
["V-A:TYR:539:CZ:4875, V-A:TYR:539:CE1:4873, V-B:TYR:539:CE1:9847, V-B:PRO:540:CA:9855, V-B:ALA:541:CB:9864, V-B:TYR:539:CD1:9845, V-B:PRO:540:C:9853, V-A:LEU:475:CD2:4256, V-B:GLY:454:CA:9020, V-B:ILE:369:CG2:8208, V-B:ILE:369:CD1:8210, V-B:GLU:543:CD:9880, V-B:ASP:366:CB:8183, V-B:ASP:366:CG:8184, H-A:TYR:539:OH:4876, V-A:SER:385:CA:3404, V-A:ARG:545:CZ:4924, V-A:ILE:369:CG2:3234, V-A:PRO:482:CG:4324, V-B:TYR:539:CB:9843, V-A:PRO:482:CB:4323, V-A:GLY:454:CA:4046, V-A:SER:385:CB:3406, V-A:LEU:373:CD1:3277, H-B:GLU:543:OE1:9881, H-B:ARG:545:NH2:9900, H-B:GLU:543:OE2:9882, H-A:GLU:543:OE2:4908, V-A:GLY:453:C:4039, V-A:VAL:384:C:3394"]

$$$$
4cb_Grossjean_2025
     RDKit          3D

 33 36  0  0  0  0  0  0  0  0999 V2000
  133.6450  122.5500   61.2030 C   0  0  0  0  0  0  0  0  0  0  0  0
  132.7460  122.9060   60.1620 O   0  0  0  0  0  0  0  0  0  0  0  0
  133.0580  123.8840   59.2740 C   0  0  0  0  0  0  0  0  0  0  0  0
  133.8850  123.7420   58.3670 O   0  0  0  0  0  0  0  0  0  0  0  0
  132.2960  125.1590   59.5020 C   0  0  0  0  0  0  0  0  0  0  0  0
  132.0140  125.5610   60.8140 C   0  0  0  0  0  0  0  0  0  0  0  0
  131.3170  126.7410   61.0580 C   0  0  0  0  0  0  0  0  0  0  0  0
  130.8820  127.5380   59.9980 C   0  0  0  0  0  0  0  0  0  0  0  0
  130.2000  128.7160   60.3600 N   0  0  0  0  0  0  0  0  0  0  0  0
  130.6580  129.8390   60.9640 C   0  0  0  0  0  0  0  0  0  0  0  0
  131.8370  130.0300   61.2670 O   0  0  0  0  0  0  0  0  0  0  0  0
  129.6450  130.8640   61.2300 C   0  0  0  0  0  0  0  0  0  0  0  0
  129.7590  132.4450   60.4600 S   0  0  0  0  0  0  0  0  0  0  0  0
  128.2730  132.9710   61.2170 C   0  0  0  0  0  0  0  0  0  0  0  0
  127.7800  134.1890   61.0070 N   0  0  0  0  0  0  0  0  0  0  0  0
  126.6150  134.5040   61.6310 C   0  0  0  0  0  0  0  0  0  0  0  0
  126.0800  135.8820   61.3700 C   0  0  0  0  0  0  0  0  0  0  0  0
  124.7000  136.1040   61.2400 C   0  0  0  0  0  0  0  0  0  0  0  0
  124.1970  137.3790   60.9940 C   0  0  0  0  0  0  0  0  0  0  0  0
  125.0710  138.4540   60.8750 C   0  0  0  0  0  0  0  0  0  0  0  0
  126.4440  138.2620   60.9960 C   0  0  0  0  0  0  0  0  0  0  0  0
  126.9410  136.9850   61.2400 C   0  0  0  0  0  0  0  0  0  0  0  0
  125.9630  133.6010   62.4780 C   0  0  0  0  0  0  0  0  0  0  0  0
  126.4770  132.3160   62.7090 C   0  0  0  0  0  0  0  0  0  0  0  0
  125.7110  131.3760   63.6490 C   0  0  0  0  0  0  0  0  0  0  0  0
  125.3920  130.2130   63.0780 F   0  0  0  0  0  0  0  0  0  0  0  0
  126.4580  131.1040   64.7190 F   0  0  0  0  0  0  0  0  0  0  0  0
  124.5760  131.9550   64.0390 F   0  0  0  0  0  0  0  0  0  0  0  0
  127.6900  131.9700   62.0470 C   0  0  0  0  0  0  0  0  0  0  0  0
  128.4950  130.7720   62.0310 C   0  0  0  0  0  0  0  0  0  0  0  0
  128.1610  129.6460   62.7400 N   0  0  0  0  0  0  0  0  0  0  0  0
  131.1630  127.1440   58.6810 C   0  0  0  0  0  0  0  0  0  0  0  0
  131.8620  125.9650   58.4390 C   0  0  0  0  0  0  0  0  0  0  0  0
  1  2  1  0
  2  3  1  0
  3  4  2  0
  3  5  1  0
  5  6  2  0
  6  7  1  0
  7  8  2  0
  8  9  1  0
  9 10  1  0
 10 11  2  0
 10 12  1  0
 12 13  1  0
 13 14  1  0
 14 15  2  0
 15 16  1  0
 16 17  1  0
 17 18  2  0
 18 19  1  0
 19 20  2  0
 20 21  1  0
 21 22  2  0
 16 23  2  0
 23 24  1  0
 24 25  1  0
 25 26  1  0
 25 27  1  0
 25 28  1  0
 24 29  2  0
 29 30  1  0
 30 31  1  0
  8 32  1  0
 32 33  2  0
 33  5  1  0
 30 12  2  0
 29 14  1  0
 22 17  1  0
M  END
>  <Binding energies>  (31) 
[-7.26]

>  <Ligand effiencies>  (31) 
[-0.20166666666666666]

>  <Interactions>  (31) 
["V-A:PRO:540:C:4879, V-A:TYR:539:CD1:4871, V-A:TYR:539:C:4865, V-A:TYR:539:CE1:4873, V-B:LEU:475:CD2:9230, V-A:PRO:540:CA:4881, V-A:ALA:541:CB:4890, V-B:TYR:539:CE1:9847, V-B:TYR:539:CZ:9849, V-B:GLY:454:CA:9020, V-B:PRO:482:CB:9297, V-B:ILE:369:CG2:8208, V-B:SER:385:CB:8380, V-A:TYR:539:CB:4869, V-B:LEU:373:CD1:8251, V-B:PRO:482:CG:9298, V-A:GLU:543:CD:4906, V-A:PRO:540:N:4882, V-A:ASP:366:CG:3210, V-B:VAL:384:C:8368, V-B:SER:385:CA:8378, H-B:TYR:539:OH:9850, V-A:ILE:369:CG2:3234, H-A:ARG:545:NH2:4926, V-A:ILE:369:CD1:3236, V-A:ASP:366:CB:3209, H-A:GLU:543:OE1:4907, H-A:GLU:543:OE2:4908, V-B:TYR:484:CZ:9318, V-B:GLY:453:C:9013"]

$$$$
4cc_Grossjean_2025
     RDKit          3D

 31 34  0  0  0  0  0  0  0  0999 V2000
  124.0320  133.4450   62.3030 C   0  0  0  0  0  0  0  0  0  0  0  0
  123.7510  132.3270   63.1380 O   0  0  0  0  0  0  0  0  0  0  0  0
  124.6230  131.2560   63.1470 C   0  0  0  0  0  0  0  0  0  0  0  0
  124.7870  130.5770   61.9410 C   0  0  0  0  0  0  0  0  0  0  0  0
  125.6470  129.4850   61.8520 C   0  0  0  0  0  0  0  0  0  0  0  0
  126.3490  129.0510   62.9780 C   0  0  0  0  0  0  0  0  0  0  0  0
  127.2060  127.9500   62.7890 N   0  0  0  0  0  0  0  0  0  0  0  0
  127.5660  127.3320   61.6390 C   0  0  0  0  0  0  0  0  0  0  0  0
  127.2000  127.6940   60.5190 O   0  0  0  0  0  0  0  0  0  0  0  0
  128.4470  126.1710   61.7970 C   0  0  0  0  0  0  0  0  0  0  0  0
  128.2660  124.7690   60.7430 S   0  0  0  0  0  0  0  0  0  0  0  0
  129.5860  123.9460   61.5380 C   0  0  0  0  0  0  0  0  0  0  0  0
  129.9740  122.7290   61.1610 N   0  0  0  0  0  0  0  0  0  0  0  0
  131.0160  122.1730   61.8320 C   0  0  0  0  0  0  0  0  0  0  0  0
  131.4290  120.8010   61.3860 C   0  0  0  0  0  0  0  0  0  0  0  0
  130.5130  119.7360   61.4010 C   0  0  0  0  0  0  0  0  0  0  0  0
  130.8890  118.4590   60.9910 C   0  0  0  0  0  0  0  0  0  0  0  0
  132.1910  118.2280   60.5600 C   0  0  0  0  0  0  0  0  0  0  0  0
  133.1190  119.2640   60.5400 C   0  0  0  0  0  0  0  0  0  0  0  0
  132.7390  120.5390   60.9510 C   0  0  0  0  0  0  0  0  0  0  0  0
  131.6520  122.8340   62.8870 C   0  0  0  0  0  0  0  0  0  0  0  0
  131.2500  124.1160   63.2940 C   0  0  0  0  0  0  0  0  0  0  0  0
  131.9960  124.7840   64.4550 C   0  0  0  0  0  0  0  0  0  0  0  0
  132.2930  126.0650   64.2200 F   0  0  0  0  0  0  0  0  0  0  0  0
  131.2460  124.7450   65.5560 F   0  0  0  0  0  0  0  0  0  0  0  0
  133.1430  124.1440   64.6810 F   0  0  0  0  0  0  0  0  0  0  0  0
  130.1640  124.7130   62.5920 C   0  0  0  0  0  0  0  0  0  0  0  0
  129.4880  125.9800   62.7190 C   0  0  0  0  0  0  0  0  0  0  0  0
  129.8380  126.9160   63.6600 N   0  0  0  0  0  0  0  0  0  0  0  0
  126.1990  129.7370   64.1930 C   0  0  0  0  0  0  0  0  0  0  0  0
  125.3390  130.8280   64.2760 C   0  0  0  0  0  0  0  0  0  0  0  0
  1  2  1  0
  2  3  1  0
  3  4  2  0
  4  5  1  0
  5  6  2  0
  6  7  1  0
  7  8  1  0
  8  9  2  0
  8 10  1  0
 10 11  1  0
 11 12  1  0
 12 13  2  0
 13 14  1  0
 14 15  1  0
 15 16  2  0
 16 17  1  0
 17 18  2  0
 18 19  1  0
 19 20  2  0
 14 21  2  0
 21 22  1  0
 22 23  1  0
 23 24  1  0
 23 25  1  0
 23 26  1  0
 22 27  2  0
 27 28  1  0
 28 29  1  0
  6 30  1  0
 30 31  2  0
 31  3  1  0
 28 10  2  0
 27 12  1  0
 20 15  1  0
M  END
>  <Binding energies>  (32) 
[-7.47]

>  <Ligand effiencies>  (32) 
[-0.21970588235294117]

>  <Interactions>  (32) 
["V-B:LEU:475:CD2:9230, V-B:TYR:539:CE1:9847, V-B:ALA:541:CB:9864, V-B:TYR:539:CD1:9845, V-A:LEU:475:CD2:4256, V-B:GLY:454:CA:9020, V-B:ILE:369:CG2:8208, V-B:ILE:369:CD1:8210, V-A:GLU:543:CD:4906, V-B:GLU:543:CD:9880, V-B:ASP:366:CG:8184, V-B:ARG:545:CZ:9898, V-A:SER:385:CA:3404, V-A:ARG:545:CZ:4924, V-A:ILE:369:CG2:3234, V-A:PRO:482:CG:4324, V-A:PRO:482:CB:4323, V-A:GLY:454:CA:4046, V-A:SER:385:CB:3406, V-A:LEU:373:CD1:3277, H-B:GLY:454:N:9021, H-B:GLU:543:OE1:9881, H-B:GLU:543:OE2:9882, H-A:GLU:543:OE1:4907, H-A:GLU:543:OE2:4908, V-A:TYR:484:CZ:4344, V-A:TYR:484:CE2:4343"]

$$$$
4ce_Grossjean_2025
     RDKit          3D

 30 33  0  0  0  0  0  0  0  0999 V2000
  133.8730  124.1750   60.9250 C   0  0  0  0  0  0  0  0  0  0  0  0
  133.0040  124.5770   62.1010 C   0  0  0  0  0  0  0  0  0  0  0  0
  133.0260  123.8650   63.3040 C   0  0  0  0  0  0  0  0  0  0  0  0
  132.2050  124.2980   64.3460 C   0  0  0  0  0  0  0  0  0  0  0  0
  131.3930  125.4190   64.1650 C   0  0  0  0  0  0  0  0  0  0  0  0
  131.4160  126.0820   62.9330 C   0  0  0  0  0  0  0  0  0  0  0  0
  130.5940  127.2180   62.8200 N   0  0  0  0  0  0  0  0  0  0  0  0
  130.1730  127.8540   61.6970 C   0  0  0  0  0  0  0  0  0  0  0  0
  130.4590  127.4880   60.5560 O   0  0  0  0  0  0  0  0  0  0  0  0
  129.3340  129.0330   61.9190 C   0  0  0  0  0  0  0  0  0  0  0  0
  129.5970  130.4980   60.9760 S   0  0  0  0  0  0  0  0  0  0  0  0
  128.2660  131.3030   61.7710 C   0  0  0  0  0  0  0  0  0  0  0  0
  127.9250  132.5520   61.4620 N   0  0  0  0  0  0  0  0  0  0  0  0
  126.8660  133.0880   62.1230 C   0  0  0  0  0  0  0  0  0  0  0  0
  126.5050  134.4950   61.7480 C   0  0  0  0  0  0  0  0  0  0  0  0
  125.1910  134.8220   61.3740 C   0  0  0  0  0  0  0  0  0  0  0  0
  124.8510  136.1250   61.0180 C   0  0  0  0  0  0  0  0  0  0  0  0
  125.8210  137.1210   61.0330 C   0  0  0  0  0  0  0  0  0  0  0  0
  127.1290  136.8230   61.3990 C   0  0  0  0  0  0  0  0  0  0  0  0
  127.4670  135.5190   61.7520 C   0  0  0  0  0  0  0  0  0  0  0  0
  126.1680  132.3760   63.1050 C   0  0  0  0  0  0  0  0  0  0  0  0
  126.5220  131.0600   63.4410 C   0  0  0  0  0  0  0  0  0  0  0  0
  125.7140  130.3370   64.5240 C   0  0  0  0  0  0  0  0  0  0  0  0
  126.4670  129.9000   65.5360 F   0  0  0  0  0  0  0  0  0  0  0  0
  124.8020  131.1660   65.0350 F   0  0  0  0  0  0  0  0  0  0  0  0
  125.1000  129.2790   63.9970 F   0  0  0  0  0  0  0  0  0  0  0  0
  127.6220  130.4820   62.7440 C   0  0  0  0  0  0  0  0  0  0  0  0
  128.2570  129.1880   62.8080 C   0  0  0  0  0  0  0  0  0  0  0  0
  127.8400  128.1990   63.6610 N   0  0  0  0  0  0  0  0  0  0  0  0
  132.2190  125.6680   61.9100 N   0  0  0  0  0  0  0  0  0  0  0  0
  1  2  1  0
  2  3  2  0
  3  4  1  0
  4  5  2  0
  5  6  1  0
  6  7  1  0
  7  8  1  0
  8  9  2  0
  8 10  1  0
 10 11  1  0
 11 12  1  0
 12 13  2  0
 13 14  1  0
 14 15  1  0
 15 16  2  0
 16 17  1  0
 17 18  2  0
 18 19  1  0
 19 20  2  0
 14 21  2  0
 21 22  1  0
 22 23  1  0
 23 24  1  0
 23 25  1  0
 23 26  1  0
 22 27  2  0
 27 28  1  0
 28 29  1  0
  6 30  2  0
 30  2  1  0
 28 10  2  0
 27 12  1  0
 20 15  1  0
M  END
>  <Binding energies>  (33) 
[-7.74]

>  <Ligand effiencies>  (33) 
[-0.23454545454545456]

>  <Interactions>  (33) 
["V-A:TYR:539:CD1:4871, V-A:TYR:539:CE1:4873, V-B:LEU:475:CD2:9230, V-A:ALA:541:CB:4890, V-B:GLY:454:CA:9020, V-B:PRO:482:CB:9297, V-B:ILE:369:CG2:8208, V-A:TYR:539:CB:4869, V-B:LEU:373:CD1:8251, V-B:PRO:482:CG:9298, V-A:GLU:543:CD:4906, V-B:GLU:543:CD:9880, V-B:ARG:545:CZ:9898, V-B:SER:385:CA:8378, V-A:ARG:545:CZ:4924, V-A:GLY:454:CA:4046, H-A:ARG:545:NH2:4926, V-A:ILE:369:CD1:3236, H-B:GLU:543:OE1:9881, H-B:GLU:543:OE2:9882, H-A:GLU:543:OE1:4907, H-A:GLU:543:OE2:4908, V-B:TYR:484:CZ:9318, V-B:GLY:453:C:9013"]

$$$$
4cf_Grossjean_2025
     RDKit          3D

 29 32  0  0  0  0  0  0  0  0999 V2000
  128.2090  128.0680   63.7080 N   0  0  0  0  0  0  0  0  0  0  0  0
  128.5430  129.0470   62.8080 C   0  0  0  0  0  0  0  0  0  0  0  0
  129.5790  128.9100   61.8710 C   0  0  0  0  0  0  0  0  0  0  0  0
  130.4980  127.7840   61.6820 C   0  0  0  0  0  0  0  0  0  0  0  0
  131.0180  127.5760   60.5850 O   0  0  0  0  0  0  0  0  0  0  0  0
  130.7240  127.0290   62.7840 N   0  0  0  0  0  0  0  0  0  0  0  0
  131.5020  125.8640   62.9300 C   0  0  0  0  0  0  0  0  0  0  0  0
  131.4970  124.7630   62.0520 C   0  0  0  0  0  0  0  0  0  0  0  0
  132.3090  123.6600   62.3240 C   0  0  0  0  0  0  0  0  0  0  0  0
  133.1060  123.6820   63.4690 C   0  0  0  0  0  0  0  0  0  0  0  0
  133.1240  124.7270   64.3340 N   0  0  0  0  0  0  0  0  0  0  0  0
  132.3280  125.7920   64.0580 C   0  0  0  0  0  0  0  0  0  0  0  0
  129.7280  130.3540   60.8710 S   0  0  0  0  0  0  0  0  0  0  0  0
  128.4110  131.1300   61.7180 C   0  0  0  0  0  0  0  0  0  0  0  0
  128.0100  132.3600   61.4020 N   0  0  0  0  0  0  0  0  0  0  0  0
  126.9890  132.8860   62.1290 C   0  0  0  0  0  0  0  0  0  0  0  0
  126.5640  134.2760   61.7550 C   0  0  0  0  0  0  0  0  0  0  0  0
  125.2370  134.5460   61.3870 C   0  0  0  0  0  0  0  0  0  0  0  0
  124.8340  135.8330   61.0400 C   0  0  0  0  0  0  0  0  0  0  0  0
  125.7580  136.8720   61.0580 C   0  0  0  0  0  0  0  0  0  0  0  0
  127.0790  136.6340   61.4210 C   0  0  0  0  0  0  0  0  0  0  0  0
  127.4770  135.3460   61.7680 C   0  0  0  0  0  0  0  0  0  0  0  0
  126.3610  132.1670   63.1500 C   0  0  0  0  0  0  0  0  0  0  0  0
  126.7730  130.8690   63.4880 C   0  0  0  0  0  0  0  0  0  0  0  0
  126.0440  130.1400   64.6230 C   0  0  0  0  0  0  0  0  0  0  0  0
  124.9370  130.7690   65.0240 F   0  0  0  0  0  0  0  0  0  0  0  0
  125.6850  128.9210   64.2180 F   0  0  0  0  0  0  0  0  0  0  0  0
  126.8470  130.0330   65.6810 F   0  0  0  0  0  0  0  0  0  0  0  0
  127.8550  130.3130   62.7460 C   0  0  0  0  0  0  0  0  0  0  0  0
  1  2  1  0
  2  3  2  0
  3  4  1  0
  4  5  2  0
  4  6  1  0
  6  7  1  0
  7  8  2  0
  8  9  1  0
  9 10  2  0
 10 11  1  0
 11 12  2  0
  3 13  1  0
 13 14  1  0
 14 15  2  0
 15 16  1  0
 16 17  1  0
 17 18  2  0
 18 19  1  0
 19 20  2  0
 20 21  1  0
 21 22  2  0
 16 23  2  0
 23 24  1  0
 24 25  1  0
 25 26  1  0
 25 27  1  0
 25 28  1  0
 24 29  2  0
 29  2  1  0
 12  7  1  0
 29 14  1  0
 22 17  1  0
M  END
>  <Binding energies>  (34) 
[-7.54]

>  <Ligand effiencies>  (34) 
[-0.235625]

>  <Interactions>  (34) 
["V-A:TYR:539:CD1:4871, V-A:TYR:539:CE1:4873, V-B:LEU:475:CD2:9230, V-A:ALA:541:CB:4890, V-B:GLY:454:CA:9020, V-B:PRO:482:CB:9297, V-B:ILE:369:CG2:8208, V-B:LEU:373:CD1:8251, V-B:PRO:482:CG:9298, V-A:GLU:543:CD:4906, V-B:GLU:543:CD:9880, V-B:ARG:545:CZ:9898, V-B:SER:385:CA:8378, V-A:ARG:545:CZ:4924, V-A:GLY:454:CA:4046, H-A:ARG:545:NH2:4926, H-B:GLU:543:OE1:9881, H-B:GLU:543:OE2:9882, H-A:GLU:543:OE1:4907, H-A:GLU:543:OE2:4908, H-A:TYR:484:OH:4345, H-A:GLY:454:N:4047, V-B:TYR:484:CZ:9318"]

$$$$
4ci_Grossjean_2025
     RDKit          3D

 28 31  0  0  0  0  0  0  0  0999 V2000
  132.4890  125.7390   61.9990 N   0  0  0  0  0  0  0  0  0  0  0  0
  131.9530  124.5610   62.4520 C   0  0  0  0  0  0  0  0  0  0  0  0
  131.1510  124.4730   63.6020 C   0  0  0  0  0  0  0  0  0  0  0  0
  130.7270  125.5470   64.5040 C   0  0  0  0  0  0  0  0  0  0  0  0
  130.0820  126.5080   64.0780 O   0  0  0  0  0  0  0  0  0  0  0  0
  131.1040  125.4040   65.7990 N   0  0  0  0  0  0  0  0  0  0  0  0
  130.8420  126.2660   66.8560 C   0  0  0  0  0  0  0  0  0  0  0  0
  129.6140  126.3160   67.5140 C   0  0  0  0  0  0  0  0  0  0  0  0
  129.7630  127.2840   68.4800 C   0  0  0  0  0  0  0  0  0  0  0  0
  131.0180  127.7910   68.4080 O   0  0  0  0  0  0  0  0  0  0  0  0
  131.6910  127.1380   67.3750 N   0  0  0  0  0  0  0  0  0  0  0  0
  130.6260  122.8150   63.8860 S   0  0  0  0  0  0  0  0  0  0  0  0
  131.4880  122.2520   62.4730 C   0  0  0  0  0  0  0  0  0  0  0  0
  131.4780  120.9690   62.1180 N   0  0  0  0  0  0  0  0  0  0  0  0
  132.1740  120.6270   61.0030 C   0  0  0  0  0  0  0  0  0  0  0  0
  132.1480  119.1720   60.6300 C   0  0  0  0  0  0  0  0  0  0  0  0
  130.9390  118.4580   60.6010 C   0  0  0  0  0  0  0  0  0  0  0  0
  130.9090  117.1090   60.2550 C   0  0  0  0  0  0  0  0  0  0  0  0
  132.0920  116.4520   59.9350 C   0  0  0  0  0  0  0  0  0  0  0  0
  133.3030  117.1330   59.9610 C   0  0  0  0  0  0  0  0  0  0  0  0
  133.3300  118.4810   60.3080 C   0  0  0  0  0  0  0  0  0  0  0  0
  132.8910  121.5720   60.2610 C   0  0  0  0  0  0  0  0  0  0  0  0
  132.9080  122.9280   60.6270 C   0  0  0  0  0  0  0  0  0  0  0  0
  133.7140  123.9090   59.7680 C   0  0  0  0  0  0  0  0  0  0  0  0
  134.8510  124.2990   60.3460 F   0  0  0  0  0  0  0  0  0  0  0  0
  134.0330  123.3340   58.6090 F   0  0  0  0  0  0  0  0  0  0  0  0
  132.9890  125.0030   59.5320 F   0  0  0  0  0  0  0  0  0  0  0  0
  132.1700  123.2990   61.7870 C   0  0  0  0  0  0  0  0  0  0  0  0
  1  2  1  0
  2  3  2  0
  3  4  1  0
  4  5  2  0
  4  6  1  0
  6  7  1  0
  7  8  1  0
  8  9  2  0
  9 10  1  0
 10 11  1  0
  3 12  1  0
 12 13  1  0
 13 14  2  0
 14 15  1  0
 15 16  1  0
 16 17  2  0
 17 18  1  0
 18 19  2  0
 19 20  1  0
 20 21  2  0
 15 22  2  0
 22 23  1  0
 23 24  1  0
 24 25  1  0
 24 26  1  0
 24 27  1  0
 23 28  2  0
 28  2  1  0
 11  7  2  0
 28 13  1  0
 21 16  1  0
M  END
>  <Binding energies>  (35) 
[-7.2]

>  <Ligand effiencies>  (35) 
[-0.23225806451612904]

>  <Interactions>  (35) 
["H-A:ASP:366:OD2:3212, V-B:TYR:539:CE1:9847, V-B:ALA:541:CB:9864, V-B:TYR:539:CD1:9845, V-B:TYR:539:CZ:9849, V-B:TYR:539:CG:9844, V-A:LEU:475:CD2:4256, V-A:GLU:543:CD:4906, V-A:ASP:366:CG:3210, V-B:GLU:543:CD:9880, V-A:SER:385:CA:3404, V-A:ARG:545:CZ:4924, V-A:ILE:369:CG2:3234, V-A:PRO:482:CG:4324, V-B:TYR:539:CB:9843, V-A:PRO:482:CB:4323, V-A:SER:385:CB:3406, V-A:LEU:373:CD1:3277, V-B:VAL:344:CG1:7972, V-B:GLU:543:CB:9878, V-B:GLU:543:CG:9879, V-A:ILE:369:CD1:3236, V-A:ASP:366:CA:3207, V-A:ASP:366:CB:3209, V-A:ILE:369:CB:3233, H-A:ARG:545:NE:4922, H-A:TYR:484:OH:4345, H-A:ASP:366:OD1:3211, V-A:HIS:456:CE1:4066, V-A:ILE:369:CG1:3235, V-A:GLU:543:CG:4905, V-A:VAL:384:C:3394"]

$$$$
8a_Ghoteimi_2023
     RDKit          3D

 40 44  0  0  0  0  0  0  0  0999 V2000
  133.1190  122.4470   62.8550 C   0  0  0  0  0  0  0  0  0  0  0  0
  133.8570  122.5130   61.5140 C   0  0  0  0  0  0  0  0  0  0  0  0
  132.9130  122.6770   60.4630 O   0  0  0  0  0  0  0  0  0  0  0  0
  133.1380  123.5530   59.4490 C   0  0  0  0  0  0  0  0  0  0  0  0
  133.8870  123.3140   58.4970 O   0  0  0  0  0  0  0  0  0  0  0  0
  132.3890  124.8450   59.6050 C   0  0  0  0  0  0  0  0  0  0  0  0
  132.1050  125.3200   60.8920 C   0  0  0  0  0  0  0  0  0  0  0  0
  131.4110  126.5140   61.0690 C   0  0  0  0  0  0  0  0  0  0  0  0
  130.9850  127.2570   59.9670 C   0  0  0  0  0  0  0  0  0  0  0  0
  130.2890  128.4440   60.2670 N   0  0  0  0  0  0  0  0  0  0  0  0
  130.5210  129.7200   59.8730 C   0  0  0  0  0  0  0  0  0  0  0  0
  131.4470  130.0620   59.1380 O   0  0  0  0  0  0  0  0  0  0  0  0
  129.5690  130.7130   60.3810 C   0  0  0  0  0  0  0  0  0  0  0  0
  129.3370  132.2410   59.5310 S   0  0  0  0  0  0  0  0  0  0  0  0
  128.1620  132.7730   60.7120 C   0  0  0  0  0  0  0  0  0  0  0  0
  127.5800  133.9690   60.6310 N   0  0  0  0  0  0  0  0  0  0  0  0
  126.6850  134.2870   61.6030 C   0  0  0  0  0  0  0  0  0  0  0  0
  126.0600  135.6410   61.5040 C   0  0  0  0  0  0  0  0  0  0  0  0
  124.7090  135.7910   61.1610 C   0  0  0  0  0  0  0  0  0  0  0  0
  124.1350  137.0560   61.0580 C   0  0  0  0  0  0  0  0  0  0  0  0
  124.8940  138.1990   61.2990 C   0  0  0  0  0  0  0  0  0  0  0  0
  124.2420  139.4110   61.1720 O   0  0  0  0  0  0  0  0  0  0  0  0
  124.3940  140.3900   62.1940 C   0  0  0  0  0  0  0  0  0  0  0  0
  126.2450  138.0600   61.6490 C   0  0  0  0  0  0  0  0  0  0  0  0
  126.8170  136.7940   61.7480 C   0  0  0  0  0  0  0  0  0  0  0  0
  126.3710  133.4090   62.6430 C   0  0  0  0  0  0  0  0  0  0  0  0
  126.9670  132.1460   62.7230 C   0  0  0  0  0  0  0  0  0  0  0  0
  126.5730  131.2400   63.8320 C   0  0  0  0  0  0  0  0  0  0  0  0
  127.4850  130.9270   64.8420 C   0  0  0  0  0  0  0  0  0  0  0  0
  127.1130  130.0950   65.8940 C   0  0  0  0  0  0  0  0  0  0  0  0
  125.8240  129.5650   65.9580 C   0  0  0  0  0  0  0  0  0  0  0  0
  125.5440  128.7500   67.0380 O   0  0  0  0  0  0  0  0  0  0  0  0
  126.5540  127.8740   67.5260 C   0  0  0  0  0  0  0  0  0  0  0  0
  124.9030  129.8850   64.9480 C   0  0  0  0  0  0  0  0  0  0  0  0
  125.2770  130.7190   63.8970 C   0  0  0  0  0  0  0  0  0  0  0  0
  127.9240  131.8010   61.7280 C   0  0  0  0  0  0  0  0  0  0  0  0
  128.7560  130.6410   61.5230 C   0  0  0  0  0  0  0  0  0  0  0  0
  128.7570  129.5730   62.3860 N   0  0  0  0  0  0  0  0  0  0  0  0
  131.2690  126.7910   58.6740 C   0  0  0  0  0  0  0  0  0  0  0  0
  131.9640  125.5960   58.4980 C   0  0  0  0  0  0  0  0  0  0  0  0
  1  2  1  0
  2  3  1  0
  3  4  1  0
  4  5  2  0
  4  6  1  0
  6  7  2  0
  7  8  1  0
  8  9  2  0
  9 10  1  0
 10 11  1  0
 11 12  2  0
 11 13  1  0
 13 14  1  0
 14 15  1  0
 15 16  2  0
 16 17  1  0
 17 18  1  0
 18 19  2  0
 19 20  1  0
 20 21  2  0
 21 22  1  0
 22 23  1  0
 21 24  1  0
 24 25  2  0
 17 26  2  0
 26 27  1  0
 27 28  1  0
 28 29  2  0
 29 30  1  0
 30 31  2  0
 31 32  1  0
 32 33  1  0
 31 34  1  0
 34 35  2  0
 27 36  2  0
 36 37  1  0
 37 38  1  0
  9 39  1  0
 39 40  2  0
 40  6  1  0
 37 13  2  0
 36 15  1  0
 25 18  1  0
 35 28  1  0
M  END
>  <Binding energies>  (36) 
[-8.23]

>  <Ligand effiencies>  (36) 
[-0.19139534883720932]

>  <Interactions>  (36) 
["V-A:TYR:539:CD1:4871, V-A:TYR:539:C:4865, V-A:TYR:539:CE1:4873, V-B:LEU:475:CD2:9230, V-A:PRO:540:CA:4881, V-B:TYR:539:CE1:9847, V-B:TYR:539:CZ:9849, V-A:LEU:475:CD2:4256, V-B:PRO:482:CB:9297, V-B:ILE:369:CG2:8208, V-B:SER:385:CB:8380, V-B:LEU:373:CD1:8251, V-B:CYS:476:C:9235, V-B:THR:477:CA:9241, V-B:THR:477:CG2:9244, V-B:HIS:383:CB:8360, V-B:PRO:482:CG:9298, V-A:GLU:543:CD:4906, V-A:ASP:366:CG:3210, V-B:GLU:543:CD:9880, V-B:ARG:545:CZ:9898, V-B:VAL:384:C:8368, V-B:SER:385:CA:8378, H-B:TYR:539:OH:9850, V-A:ILE:369:CG2:3234, V-A:GLY:454:CA:4046, V-B:GLU:543:CG:9879, V-A:ILE:369:CD1:3236, V-A:ASP:366:CB:3209, H-A:GLU:543:OE1:4907, H-A:GLU:543:OE2:4908, H-B:ARG:545:NE:9896, H-B:TYR:484:OH:9319, V-B:TYR:484:CZ:9318, V-A:GLU:543:CB:4904, V-B:HIS:456:CE1:9040, V-B:ARG:545:CG:9894, V-B:ARG:545:CD:9895, V-B:THR:477:CB:9243"]

$$$$
8c_Ghoteimi_2023
     RDKit          3D

 34 38  0  0  0  0  0  0  0  0999 V2000
  124.7100  139.4350   60.7380 C   0  0  0  0  0  0  0  0  0  0  0  0
  124.4390  138.4500   61.7280 O   0  0  0  0  0  0  0  0  0  0  0  0
  125.0410  137.2100   61.6280 C   0  0  0  0  0  0  0  0  0  0  0  0
  126.4290  137.1800   61.7450 C   0  0  0  0  0  0  0  0  0  0  0  0
  127.1200  135.9750   61.6540 C   0  0  0  0  0  0  0  0  0  0  0  0
  126.4390  134.7680   61.4430 C   0  0  0  0  0  0  0  0  0  0  0  0
  127.1770  133.4700   61.3400 C   0  0  0  0  0  0  0  0  0  0  0  0
  128.2370  133.2930   60.4470 C   0  0  0  0  0  0  0  0  0  0  0  0
  128.9120  132.0700   60.3720 C   0  0  0  0  0  0  0  0  0  0  0  0
  130.0250  131.9130   59.4090 C   0  0  0  0  0  0  0  0  0  0  0  0
  131.2940  131.5330   59.8540 C   0  0  0  0  0  0  0  0  0  0  0  0
  132.3360  131.3770   58.9460 C   0  0  0  0  0  0  0  0  0  0  0  0
  132.1300  131.6000   57.5840 C   0  0  0  0  0  0  0  0  0  0  0  0
  133.2220  131.4180   56.7560 O   0  0  0  0  0  0  0  0  0  0  0  0
  134.3320  130.6630   57.2270 C   0  0  0  0  0  0  0  0  0  0  0  0
  130.8560  131.9860   57.1380 C   0  0  0  0  0  0  0  0  0  0  0  0
  129.8130  132.1410   58.0480 C   0  0  0  0  0  0  0  0  0  0  0  0
  128.4920  131.0220   61.2330 C   0  0  0  0  0  0  0  0  0  0  0  0
  128.9500  129.6710   61.4220 C   0  0  0  0  0  0  0  0  0  0  0  0
  129.9910  129.1410   60.7020 N   0  0  0  0  0  0  0  0  0  0  0  0
  128.2370  128.9590   62.4000 C   0  0  0  0  0  0  0  0  0  0  0  0
  128.4340  127.5790   62.8480 C   0  0  0  0  0  0  0  0  0  0  0  0
  127.5040  126.7700   62.8230 O   0  0  0  0  0  0  0  0  0  0  0  0
  129.6840  127.2810   63.2810 N   0  0  0  0  0  0  0  0  0  0  0  0
  130.1340  126.0560   63.7520 C   0  0  0  0  0  0  0  0  0  0  0  0
  130.5310  125.7550   64.9700 N   0  0  0  0  0  0  0  0  0  0  0  0
  130.8890  124.4900   65.0640 C   0  0  0  0  0  0  0  0  0  0  0  0
  130.7870  123.7330   63.9020 C   0  0  0  0  0  0  0  0  0  0  0  0
  130.1880  124.7430   62.6200 S   0  0  0  0  0  0  0  0  0  0  0  0
  126.9730  129.9580   63.1190 S   0  0  0  0  0  0  0  0  0  0  0  0
  127.4050  131.3160   62.1070 C   0  0  0  0  0  0  0  0  0  0  0  0
  126.7600  132.4810   62.1770 N   0  0  0  0  0  0  0  0  0  0  0  0
  125.0430  134.8060   61.3280 C   0  0  0  0  0  0  0  0  0  0  0  0
  124.3490  136.0090   61.4180 C   0  0  0  0  0  0  0  0  0  0  0  0
  1  2  1  0
  2  3  1  0
  3  4  2  0
  4  5  1  0
  5  6  2  0
  6  7  1  0
  7  8  2  0
  8  9  1  0
  9 10  1  0
 10 11  2  0
 11 12  1  0
 12 13  2  0
 13 14  1  0
 14 15  1  0
 13 16  1  0
 16 17  2  0
  9 18  2  0
 18 19  1  0
 19 20  1  0
 19 21  2  0
 21 22  1  0
 22 23  2  0
 22 24  1  0
 24 25  1  0
 25 26  2  0
 26 27  1  0
 27 28  2  0
 28 29  1  0
 21 30  1  0
 30 31  1  0
 31 32  2  0
  6 33  1  0
 33 34  2  0
 34  3  1  0
 32  7  1  0
 17 10  1  0
 31 18  1  0
 29 25  1  0
M  END
>  <Binding energies>  (37) 
[-8.0]

>  <Ligand effiencies>  (37) 
[-0.21621621621621623]

>  <Interactions>  (37) 
["V-A:LEU:363:CA:3182, V-A:TYR:539:CD1:4871, V-A:TYR:531:CE2:4791, V-A:TYR:539:C:4865, H-A:ASP:366:OD2:3212, V-A:PRO:540:CB:4883, V-A:TYR:531:CZ:4792, V-A:TYR:539:CE1:4873, V-B:LEU:475:CD2:9230, V-A:PRO:540:CA:4881, H-A:TYR:531:OH:4793, V-A:LEU:363:CD1:3186, V-A:ALA:541:CB:4890, V-B:PRO:482:CB:9297, V-B:HIS:383:CG:8361, V-B:ILE:369:CG2:8208, V-B:SER:385:CB:8380, V-B:LEU:373:CD1:8251, V-B:HIS:383:CB:8360, V-B:PRO:482:CG:9298, V-A:GLU:543:CD:4906, V-A:PRO:540:N:4882, V-A:ASP:366:CG:3210, V-A:LEU:363:CB:3184, V-B:GLU:543:CD:9880, V-B:SER:385:CA:8378, V-B:GLU:543:CB:9878, V-B:SER:385:C:8376, V-A:ASP:366:CB:3209, H-B:ARG:545:NH2:9900, H-A:GLU:543:OE1:4907, H-A:GLU:543:OE2:4908, V-A:TYR:484:CZ:4344, V-A:LEU:363:C:3180"]

$$$$
8d_Ghoteimi_2023
     RDKit          3D

 30 33  0  0  0  0  0  0  0  0999 V2000
  129.5160  132.5750   55.7110 C   0  0  0  0  0  0  0  0  0  0  0  0
  130.6930  133.2490   56.1340 O   0  0  0  0  0  0  0  0  0  0  0  0
  131.5110  132.7010   57.0700 C   0  0  0  0  0  0  0  0  0  0  0  0
  132.7380  132.8250   57.0710 O   0  0  0  0  0  0  0  0  0  0  0  0
  130.7760  131.9330   58.0990 C   0  0  0  0  0  0  0  0  0  0  0  0
  129.5390  132.7280   59.0750 S   0  0  0  0  0  0  0  0  0  0  0  0
  129.2170  131.2450   59.9440 C   0  0  0  0  0  0  0  0  0  0  0  0
  128.2990  131.1800   60.9080 N   0  0  0  0  0  0  0  0  0  0  0  0
  128.1260  129.9780   61.5190 C   0  0  0  0  0  0  0  0  0  0  0  0
  127.0930  129.9330   62.6000 C   0  0  0  0  0  0  0  0  0  0  0  0
  125.7340  130.1180   62.3110 C   0  0  0  0  0  0  0  0  0  0  0  0
  124.7760  130.0760   63.3200 C   0  0  0  0  0  0  0  0  0  0  0  0
  125.1520  129.8510   64.6440 C   0  0  0  0  0  0  0  0  0  0  0  0
  124.1350  129.8250   65.5790 O   0  0  0  0  0  0  0  0  0  0  0  0
  124.4500  129.5500   66.9400 C   0  0  0  0  0  0  0  0  0  0  0  0
  126.5080  129.6630   64.9440 C   0  0  0  0  0  0  0  0  0  0  0  0
  127.4630  129.7040   63.9310 C   0  0  0  0  0  0  0  0  0  0  0  0
  128.8750  128.8500   61.1710 C   0  0  0  0  0  0  0  0  0  0  0  0
  129.8370  128.9170   60.1580 C   0  0  0  0  0  0  0  0  0  0  0  0
  130.6080  127.7020   59.8050 C   0  0  0  0  0  0  0  0  0  0  0  0
  130.6850  127.2800   58.4770 C   0  0  0  0  0  0  0  0  0  0  0  0
  131.4030  126.1340   58.1470 C   0  0  0  0  0  0  0  0  0  0  0  0
  132.0550  125.3960   59.1360 C   0  0  0  0  0  0  0  0  0  0  0  0
  132.7410  124.2740   58.7160 O   0  0  0  0  0  0  0  0  0  0  0  0
  134.1640  124.2800   58.7390 C   0  0  0  0  0  0  0  0  0  0  0  0
  131.9790  125.8260   60.4710 C   0  0  0  0  0  0  0  0  0  0  0  0
  131.2600  126.9720   60.7990 C   0  0  0  0  0  0  0  0  0  0  0  0
  130.0310  130.1620   59.5040 C   0  0  0  0  0  0  0  0  0  0  0  0
  130.9120  130.5840   58.4500 C   0  0  0  0  0  0  0  0  0  0  0  0
  131.8070  129.7350   57.8500 N   0  0  0  0  0  0  0  0  0  0  0  0
  1  2  1  0
  2  3  1  0
  3  4  2  0
  3  5  1  0
  5  6  1  0
  6  7  1  0
  7  8  2  0
  8  9  1  0
  9 10  1  0
 10 11  2  0
 11 12  1  0
 12 13  2  0
 13 14  1  0
 14 15  1  0
 13 16  1  0
 16 17  2  0
  9 18  2  0
 18 19  1  0
 19 20  1  0
 20 21  2  0
 21 22  1  0
 22 23  2  0
 23 24  1  0
 24 25  1  0
 23 26  1  0
 26 27  2  0
 19 28  2  0
 28 29  1  0
 29 30  1  0
 29  5  2  0
 28  7  1  0
 17 10  1  0
 27 20  1  0
M  END
>  <Binding energies>  (38) 
[-7.77]

>  <Ligand effiencies>  (38) 
[-0.2428125]

>  <Interactions>  (38) 
["V-A:ILE:538:CB:4860, V-A:TYR:539:CD1:4871, V-A:TYR:539:C:4865, H-A:ASP:366:OD2:3212, V-A:PRO:540:CB:4883, V-A:TYR:531:CZ:4792, V-A:TYR:539:CE1:4873, V-A:PRO:540:CA:4881, H-A:TYR:531:OH:4793, V-A:ILE:538:CA:4858, V-A:PRO:540:CD:4885, V-A:TYR:539:CE2:4874, V-A:GLU:543:CD:4906, V-A:PRO:540:N:4882, V-A:ASP:366:CG:3210, H-A:TYR:539:N:4868, V-A:MET:535:CE:4833, V-B:ARG:545:CZ:9898, H-B:TYR:539:OH:9850, V-A:ILE:369:CG2:3234, V-A:ILE:369:CD1:3236, H-B:GLY:454:N:9021, V-A:ASP:366:CA:3207, V-A:ASP:366:C:3205, V-A:ASP:366:CB:3209, V-A:ILE:369:CB:3233, H-B:ARG:545:NE:9896, H-B:TYR:484:OH:9319, H-A:ASP:366:OD1:3211, V-B:TYR:484:CZ:9318, V-B:HIS:456:CE1:9040, V-B:ARG:545:CG:9894, V-B:ARG:545:CD:9895"]

$$$$
9a_Ghoteimi_2023
     RDKit          3D

 48 54  0  0  0  0  0  0  0  0999 V2000
  129.0870  122.4880   72.9810 C   0  0  0  0  0  0  0  0  0  0  0  0
  128.8330  123.9690   72.6840 C   0  0  0  0  0  0  0  0  0  0  0  0
  129.8260  124.7590   73.3280 O   0  0  0  0  0  0  0  0  0  0  0  0
  129.7470  126.1140   73.3370 C   0  0  0  0  0  0  0  0  0  0  0  0
  129.9830  126.8030   74.3350 O   0  0  0  0  0  0  0  0  0  0  0  0
  129.3360  126.6940   72.0140 C   0  0  0  0  0  0  0  0  0  0  0  0
  130.3200  127.1810   71.1440 C   0  0  0  0  0  0  0  0  0  0  0  0
  129.9710  127.7260   69.9120 C   0  0  0  0  0  0  0  0  0  0  0  0
  128.6330  127.7950   69.5220 C   0  0  0  0  0  0  0  0  0  0  0  0
  128.3980  128.3650   68.2570 N   0  0  0  0  0  0  0  0  0  0  0  0
  128.6140  127.8660   67.0140 C   0  0  0  0  0  0  0  0  0  0  0  0
  129.0840  126.7510   66.7880 O   0  0  0  0  0  0  0  0  0  0  0  0
  128.2390  128.7540   65.9090 C   0  0  0  0  0  0  0  0  0  0  0  0
  127.7120  130.4060   66.2340 S   0  0  0  0  0  0  0  0  0  0  0  0
  127.4990  130.7210   64.5280 C   0  0  0  0  0  0  0  0  0  0  0  0
  127.0990  131.9120   64.0820 N   0  0  0  0  0  0  0  0  0  0  0  0
  126.9760  132.0570   62.7360 C   0  0  0  0  0  0  0  0  0  0  0  0
  126.5370  133.4030   62.2580 C   0  0  0  0  0  0  0  0  0  0  0  0
  125.2070  133.6260   61.8840 C   0  0  0  0  0  0  0  0  0  0  0  0
  124.7890  134.8770   61.4390 C   0  0  0  0  0  0  0  0  0  0  0  0
  125.6830  135.9570   61.3640 C   0  0  0  0  0  0  0  0  0  0  0  0
  125.2820  137.2140   60.9010 N   0  0  0  0  0  0  0  0  0  0  0  0
  124.4780  138.1250   61.7400 C   0  0  0  0  0  0  0  0  0  0  0  0
  123.8310  139.2860   60.9550 C   0  0  0  0  0  0  0  0  0  0  0  0
  124.8230  139.9990   60.2350 O   0  0  0  0  0  0  0  0  0  0  0  0
  125.4920  139.1630   59.3040 C   0  0  0  0  0  0  0  0  0  0  0  0
  126.1910  138.0040   60.0440 C   0  0  0  0  0  0  0  0  0  0  0  0
  127.0180  135.7240   61.7260 C   0  0  0  0  0  0  0  0  0  0  0  0
  127.4360  134.4720   62.1680 C   0  0  0  0  0  0  0  0  0  0  0  0
  127.2250  131.0090   61.8470 C   0  0  0  0  0  0  0  0  0  0  0  0
  127.6260  129.7510   62.3130 C   0  0  0  0  0  0  0  0  0  0  0  0
  127.8420  128.6610   61.3270 C   0  0  0  0  0  0  0  0  0  0  0  0
  129.1250  128.3750   60.8520 C   0  0  0  0  0  0  0  0  0  0  0  0
  129.3270  127.3450   59.9390 C   0  0  0  0  0  0  0  0  0  0  0  0
  128.2540  126.5590   59.4890 C   0  0  0  0  0  0  0  0  0  0  0  0
  128.4310  125.5270   58.5650 N   0  0  0  0  0  0  0  0  0  0  0  0
  127.6840  124.2660   58.7430 C   0  0  0  0  0  0  0  0  0  0  0  0
  127.6730  123.3790   57.4800 C   0  0  0  0  0  0  0  0  0  0  0  0
  129.0030  123.1240   57.0530 O   0  0  0  0  0  0  0  0  0  0  0  0
  129.6910  124.3240   56.7380 C   0  0  0  0  0  0  0  0  0  0  0  0
  129.7560  125.2370   57.9820 C   0  0  0  0  0  0  0  0  0  0  0  0
  126.9710  126.8530   59.9750 C   0  0  0  0  0  0  0  0  0  0  0  0
  126.7680  127.8870   60.8840 C   0  0  0  0  0  0  0  0  0  0  0  0
  127.7960  129.5870   63.7170 C   0  0  0  0  0  0  0  0  0  0  0  0
  128.2400  128.4830   64.5320 C   0  0  0  0  0  0  0  0  0  0  0  0
  128.6390  127.2850   63.9980 N   0  0  0  0  0  0  0  0  0  0  0  0
  127.6400  127.3060   70.3860 C   0  0  0  0  0  0  0  0  0  0  0  0
  127.9910  126.7620   71.6190 C   0  0  0  0  0  0  0  0  0  0  0  0
  1  2  1  0
  2  3  1  0
  3  4  1  0
  4  5  2  0
  4  6  1  0
  6  7  2  0
  7  8  1  0
  8  9  2  0
  9 10  1  0
 10 11  1  0
 11 12  2  0
 11 13  1  0
 13 14  1  0
 14 15  1  0
 15 16  2  0
 16 17  1  0
 17 18  1  0
 18 19  2  0
 19 20  1  0
 20 21  2  0
 21 22  1  0
 22 23  1  0
 23 24  1  0
 24 25  1  0
 25 26  1  0
 26 27  1  0
 21 28  1  0
 28 29  2  0
 17 30  2  0
 30 31  1  0
 31 32  1  0
 32 33  2  0
 33 34  1  0
 34 35  2  0
 35 36  1  0
 36 37  1  0
 37 38  1  0
 38 39  1  0
 39 40  1  0
 40 41  1  0
 35 42  1  0
 42 43  2  0
 31 44  2  0
 44 45  1  0
 45 46  1  0
  9 47  1  0
 47 48  2  0
 48  6  1  0
 45 13  2  0
 44 15  1  0
 29 18  1  0
 43 32  1  0
 27 22  1  0
 41 36  1  0
M  END
>  <Binding energies>  (39) 
[-7.32]

>  <Ligand effiencies>  (39) 
[-0.14352941176470588]

>  <Interactions>  (39) 
["V-A:TYR:539:CD1:4871, V-A:TYR:539:CE1:4873, V-B:LEU:475:CD2:9230, V-A:ALA:541:CB:4890, V-B:TYR:539:CE1:9847, V-B:TYR:539:CZ:9849, V-B:HIS:383:CD2:8363, V-A:ILE:343:CD1:2991, V-B:ILE:369:CG2:8208, V-B:SER:385:CB:8380, V-A:TYR:539:CB:4869, V-B:LEU:373:CD1:8251, V-B:HIS:383:CB:8360, V-B:LEU:373:CD2:8252, V-A:GLU:543:CD:4906, V-B:GLU:543:CD:9880, V-B:MET:535:CE:9807, V-B:ASP:366:CG:8184, V-B:LEU:373:CG:8250, V-A:TYR:539:CG:4870, V-B:VAL:384:C:8368, V-B:SER:385:CA:8378, V-B:GLU:543:CG:9879, H-B:GLU:543:OE1:9881, H-B:GLU:543:OE2:9882, H-A:GLU:543:OE1:4907, H-A:GLU:543:OE2:4908, H-B:HIS:456:ND1:9038, H-B:TYR:484:OH:9319, V-A:HIS:456:CE1:4066, V-B:LYS:547:CE:9922, V-B:GLY:544:CA:9886, V-A:HIS:456:CD2:4065, H-A:LYS:547:NZ:4949, V-A:HIS:456:CG:4063, V-B:GLU:543:C:9874, V-B:TYR:484:CE2:9317, V-B:TYR:484:CZ:9318, V-A:GLU:543:CB:4904, H-B:LYS:547:NZ:9923, V-A:GLU:543:CG:4905, V-B:GLY:544:C:9884, V-B:HIS:456:CD2:9039, V-B:HIS:456:CE1:9040, V-A:GLY:544:C:4910, H-A:HIS:456:NE2:4067, V-A:GLU:543:C:4900, H-A:GLU:543:O:4901"]

$$$$
9b_Ghoteimi_2023
     RDKit          3D

 42 48  0  0  0  0  0  0  0  0999 V2000
  127.2140  126.8550   62.7610 N   0  0  0  0  0  0  0  0  0  0  0  0
  126.8510  127.7150   61.7560 C   0  0  0  0  0  0  0  0  0  0  0  0
  126.6530  127.3110   60.4260 C   0  0  0  0  0  0  0  0  0  0  0  0
  126.7580  125.9650   59.8550 C   0  0  0  0  0  0  0  0  0  0  0  0
  127.4300  125.0960   60.4130 O   0  0  0  0  0  0  0  0  0  0  0  0
  126.0790  125.7700   58.6970 N   0  0  0  0  0  0  0  0  0  0  0  0
  126.0130  124.6070   57.9400 C   0  0  0  0  0  0  0  0  0  0  0  0
  124.8600  124.1990   57.2710 C   0  0  0  0  0  0  0  0  0  0  0  0
  125.2060  123.0220   56.6480 C   0  0  0  0  0  0  0  0  0  0  0  0
  126.5000  122.7360   56.9280 O   0  0  0  0  0  0  0  0  0  0  0  0
  127.0010  123.7480   57.7480 N   0  0  0  0  0  0  0  0  0  0  0  0
  126.2270  128.6800   59.4000 S   0  0  0  0  0  0  0  0  0  0  0  0
  126.3340  129.7830   60.7510 C   0  0  0  0  0  0  0  0  0  0  0  0
  126.1280  131.0910   60.6020 N   0  0  0  0  0  0  0  0  0  0  0  0
  126.2520  131.8650   61.7120 C   0  0  0  0  0  0  0  0  0  0  0  0
  126.0370  133.3300   61.5130 C   0  0  0  0  0  0  0  0  0  0  0  0
  124.7680  133.8420   61.2170 C   0  0  0  0  0  0  0  0  0  0  0  0
  124.5750  135.2060   61.0190 C   0  0  0  0  0  0  0  0  0  0  0  0
  125.6480  136.1070   61.0950 C   0  0  0  0  0  0  0  0  0  0  0  0
  125.4700  137.4820   60.9010 N   0  0  0  0  0  0  0  0  0  0  0  0
  124.1360  138.1070   61.0070 C   0  0  0  0  0  0  0  0  0  0  0  0
  124.1750  139.6460   61.1090 C   0  0  0  0  0  0  0  0  0  0  0  0
  124.9030  140.1860   60.0190 O   0  0  0  0  0  0  0  0  0  0  0  0
  126.2430  139.7210   60.0070 C   0  0  0  0  0  0  0  0  0  0  0  0
  126.2700  138.1830   59.8750 C   0  0  0  0  0  0  0  0  0  0  0  0
  126.9130  135.5920   61.4120 C   0  0  0  0  0  0  0  0  0  0  0  0
  127.1050  134.2280   61.6140 C   0  0  0  0  0  0  0  0  0  0  0  0
  126.5550  131.3290   62.9660 C   0  0  0  0  0  0  0  0  0  0  0  0
  126.7520  129.9530   63.1310 C   0  0  0  0  0  0  0  0  0  0  0  0
  127.0410  129.4290   64.4900 C   0  0  0  0  0  0  0  0  0  0  0  0
  128.2500  128.7830   64.7540 C   0  0  0  0  0  0  0  0  0  0  0  0
  128.5320  128.3080   66.0300 C   0  0  0  0  0  0  0  0  0  0  0  0
  127.6120  128.4660   67.0800 C   0  0  0  0  0  0  0  0  0  0  0  0
  127.8820  128.0110   68.3730 N   0  0  0  0  0  0  0  0  0  0  0  0
  127.0090  126.9840   68.9730 C   0  0  0  0  0  0  0  0  0  0  0  0
  127.1680  126.8710   70.5050 C   0  0  0  0  0  0  0  0  0  0  0  0
  128.5270  126.6300   70.8360 O   0  0  0  0  0  0  0  0  0  0  0  0
  129.3720  127.6770   70.3820 C   0  0  0  0  0  0  0  0  0  0  0  0
  129.2660  127.8150   68.8480 C   0  0  0  0  0  0  0  0  0  0  0  0
  126.4090  129.1330   66.8070 C   0  0  0  0  0  0  0  0  0  0  0  0
  126.1270  129.6080   65.5290 C   0  0  0  0  0  0  0  0  0  0  0  0
  126.6600  129.1270   61.9750 C   0  0  0  0  0  0  0  0  0  0  0  0
  1  2  1  0
  2  3  2  0
  3  4  1  0
  4  5  2  0
  4  6  1  0
  6  7  1  0
  7  8  1  0
  8  9  2  0
  9 10  1  0
 10 11  1  0
  3 12  1  0
 12 13  1  0
 13 14  2  0
 14 15  1  0
 15 16  1  0
 16 17  2  0
 17 18  1  0
 18 19  2  0
 19 20  1  0
 20 21  1  0
 21 22  1  0
 22 23  1  0
 23 24  1  0
 24 25  1  0
 19 26  1  0
 26 27  2  0
 15 28  2  0
 28 29  1  0
 29 30  1  0
 30 31  2  0
 31 32  1  0
 32 33  2  0
 33 34  1  0
 34 35  1  0
 35 36  1  0
 36 37  1  0
 37 38  1  0
 38 39  1  0
 33 40  1  0
 40 41  2  0
 29 42  2  0
 42  2  1  0
 11  7  2  0
 42 13  1  0
 27 16  1  0
 41 30  1  0
 25 20  1  0
 39 34  1  0
M  END
>  <Binding energies>  (40) 
[-7.38]

>  <Ligand effiencies>  (40) 
[-0.164]

>  <Interactions>  (40) 
["V-A:TYR:539:CD1:4871, V-A:TYR:539:CE1:4873, V-B:LEU:475:CD2:9230, V-A:ALA:541:CB:4890, V-B:ILE:538:CB:9834, H-B:ASP:366:OD2:8186, V-B:TYR:531:CE2:9765, V-B:TYR:531:CZ:9766, H-B:TYR:531:OH:9767, V-B:LEU:363:CD1:8160, V-B:ILE:538:CG2:9835, V-B:HIS:383:CG:8361, V-B:ILE:369:CG2:8208, V-A:VAL:344:CG1:2998, V-B:SER:385:CB:8380, V-A:TYR:539:CB:4869, V-B:LEU:373:CD1:8251, V-B:HIS:383:CB:8360, V-B:PRO:482:CG:9298, V-A:GLU:543:CD:4906, V-B:GLU:543:CD:9880, V-B:ASP:366:CB:8183, H-B:TYR:539:N:9842, V-B:PRO:540:CD:9859, V-B:ASP:366:CG:8184, V-B:ARG:545:CZ:9898, V-A:TYR:539:CG:4870, V-B:VAL:384:C:8368, V-B:SER:385:CA:8378, V-B:GLU:543:CG:9879, H-B:GLU:543:OE1:9881, H-B:GLU:543:OE2:9882, V-A:HIS:456:CE1:4066, V-B:GLY:544:CA:9886, V-B:GLU:543:C:9874, V-A:GLU:543:CB:4904, V-A:GLU:543:CG:4905, V-B:GLY:544:C:9884, V-B:HIS:456:CE1:9040, V-B:ARG:545:CG:9894, H-A:HIS:456:NE2:4067, H-B:HIS:383:ND1:8362, V-B:ARG:545:CA:9891"]

$$$$
9c_Ghoteimi_2023
     RDKit          3D

 42 48  0  0  0  0  0  0  0  0999 V2000
  127.3840  126.9270   62.7280 N   0  0  0  0  0  0  0  0  0  0  0  0
  126.9680  127.7790   61.7360 C   0  0  0  0  0  0  0  0  0  0  0  0
  126.7570  127.3750   60.4090 C   0  0  0  0  0  0  0  0  0  0  0  0
  126.9040  126.0380   59.8260 C   0  0  0  0  0  0  0  0  0  0  0  0
  127.5130  125.1510   60.4270 O   0  0  0  0  0  0  0  0  0  0  0  0
  126.3350  125.8700   58.6070 N   0  0  0  0  0  0  0  0  0  0  0  0
  126.3420  124.7160   57.8350 C   0  0  0  0  0  0  0  0  0  0  0  0
  127.2780  124.3010   57.0100 N   0  0  0  0  0  0  0  0  0  0  0  0
  126.9480  123.1590   56.4370 C   0  0  0  0  0  0  0  0  0  0  0  0
  125.7140  122.6230   56.7980 C   0  0  0  0  0  0  0  0  0  0  0  0
  124.9550  123.6800   57.9500 S   0  0  0  0  0  0  0  0  0  0  0  0
  126.2560  128.7330   59.4020 S   0  0  0  0  0  0  0  0  0  0  0  0
  126.3500  129.8320   60.7570 C   0  0  0  0  0  0  0  0  0  0  0  0
  126.0890  131.1310   60.6210 N   0  0  0  0  0  0  0  0  0  0  0  0
  126.2080  131.9030   61.7330 C   0  0  0  0  0  0  0  0  0  0  0  0
  125.9310  133.3600   61.5480 C   0  0  0  0  0  0  0  0  0  0  0  0
  124.6470  133.8190   61.2310 C   0  0  0  0  0  0  0  0  0  0  0  0
  124.3960  135.1750   61.0510 C   0  0  0  0  0  0  0  0  0  0  0  0
  125.4240  136.1240   61.1690 C   0  0  0  0  0  0  0  0  0  0  0  0
  125.1870  137.4930   60.9980 N   0  0  0  0  0  0  0  0  0  0  0  0
  125.7860  138.2420   59.8750 C   0  0  0  0  0  0  0  0  0  0  0  0
  125.1480  139.6280   59.6400 C   0  0  0  0  0  0  0  0  0  0  0  0
  125.1900  140.3890   60.8360 O   0  0  0  0  0  0  0  0  0  0  0  0
  124.4690  139.7540   61.8800 C   0  0  0  0  0  0  0  0  0  0  0  0
  125.0820  138.3690   62.1830 C   0  0  0  0  0  0  0  0  0  0  0  0
  126.7040  135.6600   61.5060 C   0  0  0  0  0  0  0  0  0  0  0  0
  126.9530  134.3030   61.6900 C   0  0  0  0  0  0  0  0  0  0  0  0
  126.5570  131.3710   62.9770 C   0  0  0  0  0  0  0  0  0  0  0  0
  126.8100  130.0040   63.1280 C   0  0  0  0  0  0  0  0  0  0  0  0
  127.1470  129.4820   64.4760 C   0  0  0  0  0  0  0  0  0  0  0  0
  128.2900  128.7030   64.6650 C   0  0  0  0  0  0  0  0  0  0  0  0
  128.6180  128.2260   65.9320 C   0  0  0  0  0  0  0  0  0  0  0  0
  127.8110  128.5160   67.0430 C   0  0  0  0  0  0  0  0  0  0  0  0
  128.1280  128.0570   68.3250 N   0  0  0  0  0  0  0  0  0  0  0  0
  127.2580  127.0490   68.9640 C   0  0  0  0  0  0  0  0  0  0  0  0
  127.4850  126.9280   70.4870 C   0  0  0  0  0  0  0  0  0  0  0  0
  128.8520  126.6540   70.7540 O   0  0  0  0  0  0  0  0  0  0  0  0
  129.6980  127.6830   70.2650 C   0  0  0  0  0  0  0  0  0  0  0  0
  129.5260  127.8280   68.7370 C   0  0  0  0  0  0  0  0  0  0  0  0
  126.6770  129.3170   66.8450 C   0  0  0  0  0  0  0  0  0  0  0  0
  126.3480  129.7940   65.5780 C   0  0  0  0  0  0  0  0  0  0  0  0
  126.7270  129.1810   61.9690 C   0  0  0  0  0  0  0  0  0  0  0  0
  1  2  1  0
  2  3  2  0
  3  4  1  0
  4  5  2  0
  4  6  1  0
  6  7  1  0
  7  8  2  0
  8  9  1  0
  9 10  2  0
 10 11  1  0
  3 12  1  0
 12 13  1  0
 13 14  2  0
 14 15  1  0
 15 16  1  0
 16 17  2  0
 17 18  1  0
 18 19  2  0
 19 20  1  0
 20 21  1  0
 21 22  1  0
 22 23  1  0
 23 24  1  0
 24 25  1  0
 19 26  1  0
 26 27  2  0
 15 28  2  0
 28 29  1  0
 29 30  1  0
 30 31  2  0
 31 32  1  0
 32 33  2  0
 33 34  1  0
 34 35  1  0
 35 36  1  0
 36 37  1  0
 37 38  1  0
 38 39  1  0
 33 40  1  0
 40 41  2  0
 29 42  2  0
 42  2  1  0
 11  7  1  0
 42 13  1  0
 27 16  1  0
 41 30  1  0
 25 20  1  0
 39 34  1  0
M  END
>  <Binding energies>  (41) 
[-7.44]

>  <Ligand effiencies>  (41) 
[-0.16533333333333333]

>  <Interactions>  (41) 
["V-A:TYR:539:CD1:4871, V-A:TYR:539:CE1:4873, V-B:LEU:475:CD2:9230, V-A:ALA:541:CB:4890, V-B:ILE:538:CB:9834, V-B:PRO:540:N:9856, V-B:PRO:540:CA:9855, H-B:ASP:366:OD2:8186, H-B:TYR:531:OH:9767, V-B:PRO:540:CB:9857, V-B:ILE:538:CG2:9835, V-B:HIS:383:CD2:8363, V-B:HIS:383:CG:8361, V-B:ILE:369:CG2:8208, V-B:SER:385:CB:8380, V-A:TYR:539:CB:4869, V-B:LEU:373:CD1:8251, V-B:THR:477:CA:9241, V-B:HIS:383:CB:8360, V-B:LEU:373:CD2:8252, V-A:GLU:543:CD:4906, V-B:GLU:543:CD:9880, V-B:MET:535:CE:9807, V-B:ASP:366:CB:8183, V-B:PRO:540:CD:9859, V-B:ASP:366:CG:8184, V-A:TYR:539:CG:4870, V-B:SER:385:CA:8378, V-B:GLU:543:CG:9879, H-B:GLU:543:OE1:9881, H-B:GLU:543:OE2:9882, V-A:HIS:456:CE1:4066, V-B:GLY:544:CA:9886, V-B:GLU:543:C:9874, V-B:TYR:484:CZ:9318, V-A:GLU:543:CB:4904, V-A:GLU:543:CG:4905, V-B:GLY:544:C:9884, V-B:HIS:456:CE1:9040, V-B:ARG:545:CG:9894, H-A:HIS:456:NE2:4067, V-A:GLU:543:C:4900, H-B:HIS:383:ND1:8362"]

$$$$
RR11_Rahimova_2017
     RDKit          3D

 33 38  0  0  0  0  0  0  0  0999 V2000
  124.3940  139.8860   60.7370 N   0  0  0  0  0  0  0  0  0  0  0  0
  124.9230  138.6170   60.9650 C   0  0  0  0  0  0  0  0  0  0  0  0
  126.2820  138.4700   61.2360 C   0  0  0  0  0  0  0  0  0  0  0  0
  126.8090  137.2030   61.4660 C   0  0  0  0  0  0  0  0  0  0  0  0
  125.9830  136.0710   61.4280 C   0  0  0  0  0  0  0  0  0  0  0  0
  126.5520  134.7060   61.6820 C   0  0  0  0  0  0  0  0  0  0  0  0
  126.0200  133.8200   62.4960 N   0  0  0  0  0  0  0  0  0  0  0  0
  126.8390  132.7240   62.4210 C   0  0  0  0  0  0  0  0  0  0  0  0
  126.7320  131.4910   63.0800 C   0  0  0  0  0  0  0  0  0  0  0  0
  127.6970  130.5110   62.8200 C   0  0  0  0  0  0  0  0  0  0  0  0
  127.6100  129.1640   63.5260 C   0  0  0  0  0  0  0  0  0  0  0  0
  128.0960  128.0090   62.6620 C   0  0  0  0  0  0  0  0  0  0  0  0
  129.0210  127.0990   63.1860 C   0  0  0  0  0  0  0  0  0  0  0  0
  129.4900  126.0190   62.4360 C   0  0  0  0  0  0  0  0  0  0  0  0
  129.0030  125.8590   61.1320 C   0  0  0  0  0  0  0  0  0  0  0  0
  129.3070  124.8980   60.2030 N   0  0  0  0  0  0  0  0  0  0  0  0
  128.5880  125.1990   59.1440 C   0  0  0  0  0  0  0  0  0  0  0  0
  128.6060  124.4250   57.8570 C   0  0  0  0  0  0  0  0  0  0  0  0
  129.6480  124.5990   56.9370 C   0  0  0  0  0  0  0  0  0  0  0  0
  129.6600  123.8890   55.7400 C   0  0  0  0  0  0  0  0  0  0  0  0
  128.6280  122.9980   55.4530 C   0  0  0  0  0  0  0  0  0  0  0  0
  128.6370  122.2900   54.2520 N   0  0  0  0  0  0  0  0  0  0  0  0
  127.5880  122.8120   56.3590 C   0  0  0  0  0  0  0  0  0  0  0  0
  127.5770  123.5220   57.5570 C   0  0  0  0  0  0  0  0  0  0  0  0
  127.8140  126.3220   59.3470 N   0  0  0  0  0  0  0  0  0  0  0  0
  128.0580  126.7790   60.6200 C   0  0  0  0  0  0  0  0  0  0  0  0
  127.5810  127.8600   61.3670 C   0  0  0  0  0  0  0  0  0  0  0  0
  128.7570  130.7690   61.9440 C   0  0  0  0  0  0  0  0  0  0  0  0
  128.8950  131.9880   61.2760 C   0  0  0  0  0  0  0  0  0  0  0  0
  127.9160  132.9510   61.5310 C   0  0  0  0  0  0  0  0  0  0  0  0
  127.6990  134.2320   61.0800 N   0  0  0  0  0  0  0  0  0  0  0  0
  124.6190  136.2330   61.1530 C   0  0  0  0  0  0  0  0  0  0  0  0
  124.0890  137.5000   60.9230 C   0  0  0  0  0  0  0  0  0  0  0  0
  1  2  1  0
  2  3  2  0
  3  4  1  0
  4  5  2  0
  5  6  1  0
  6  7  2  0
  7  8  1  0
  8  9  2  0
  9 10  1  0
 10 11  1  0
 11 12  1  0
 12 13  2  0
 13 14  1  0
 14 15  2  0
 15 16  1  0
 16 17  2  0
 17 18  1  0
 18 19  2  0
 19 20  1  0
 20 21  2  0
 21 22  1  0
 21 23  1  0
 23 24  2  0
 17 25  1  0
 25 26  1  0
 26 27  2  0
 10 28  2  0
 28 29  1  0
 29 30  2  0
 30 31  1  0
  5 32  1  0
 32 33  2  0
 33  2  1  0
 31  6  1  0
 30  8  1  0
 27 12  1  0
 26 15  1  0
 24 18  1  0
M  END
>  <Binding energies>  (42) 
[-7.75]

>  <Ligand effiencies>  (42) 
[-0.1987179487179487]

>  <Interactions>  (42) 
["V-A:TYR:539:CD1:4871, V-A:TYR:539:C:4865, V-A:TYR:539:CE1:4873, V-B:LEU:475:CD2:9230, V-A:ALA:541:CB:4890, V-B:ILE:538:CB:9834, V-B:TYR:539:CE1:9847, H-B:ASP:366:OD2:8186, V-B:TYR:539:CZ:9849, V-B:PRO:482:CB:9297, V-B:HIS:383:CG:8361, V-B:ILE:369:CG2:8208, V-B:SER:385:CB:8380, V-B:LEU:373:CD1:8251, V-B:HIS:383:CB:8360, V-B:PRO:482:CG:9298, V-B:LEU:373:CD2:8252, V-A:GLU:543:CD:4906, V-B:GLU:543:CD:9880, V-B:TYR:539:CE2:9848, V-B:ILE:538:CA:9832, V-B:MET:535:CE:9807, V-B:TYR:539:CD2:9846, V-B:VAL:384:C:8368, V-B:SER:385:CA:8378, V-B:ILE:538:C:9830, H-A:TYR:539:O:4866, V-B:HIS:383:CA:8358, H-B:VAL:537:O:9823, V-B:VAL:537:C:9822"]

$$$$
RR16_Rahimova_2017
     RDKit          3D

 44 49  0  0  0  0  0  0  0  0999 V2000
  122.9070  130.6170   62.1650 O   0  0  0  0  0  0  0  0  0  0  0  0
  124.1740  131.3580   62.1600 S   0  0  0  0  0  0  0  0  0  0  0  0
  125.1910  131.1170   63.1900 O   0  0  0  0  0  0  0  0  0  0  0  0
  123.7840  133.0790   62.1670 N   0  0  0  0  0  0  0  0  0  0  0  0
  124.6650  134.0620   61.4960 C   0  0  0  0  0  0  0  0  0  0  0  0
  123.9680  135.4480   61.4850 C   0  0  0  0  0  0  0  0  0  0  0  0
  124.7790  136.6430   60.9470 C   0  0  0  0  0  0  0  0  0  0  0  0
  126.0110  136.9950   61.7980 C   0  0  0  0  0  0  0  0  0  0  0  0
  127.2990  136.2160   61.4680 C   0  0  0  0  0  0  0  0  0  0  0  0
  127.1880  134.6820   61.3670 C   0  0  0  0  0  0  0  0  0  0  0  0
  126.0550  134.0170   62.1730 C   0  0  0  0  0  0  0  0  0  0  0  0
  124.9310  131.0800   60.5630 C   0  0  0  0  0  0  0  0  0  0  0  0
  124.1560  130.6590   59.4790 C   0  0  0  0  0  0  0  0  0  0  0  0
  124.7750  130.3290   58.2770 C   0  0  0  0  0  0  0  0  0  0  0  0
  126.1640  130.4210   58.1640 C   0  0  0  0  0  0  0  0  0  0  0  0
  126.9750  129.8620   56.6670 S   0  0  0  0  0  0  0  0  0  0  0  0
  127.7660  130.9870   56.1500 O   0  0  0  0  0  0  0  0  0  0  0  0
  125.9550  129.2250   55.8260 O   0  0  0  0  0  0  0  0  0  0  0  0
  128.0960  128.6050   57.2240 N   0  0  0  0  0  0  0  0  0  0  0  0
  128.1380  127.3930   56.3650 C   0  0  0  0  0  0  0  0  0  0  0  0
  128.8840  126.2490   57.0810 C   0  0  0  0  0  0  0  0  0  0  0  0
  130.2860  126.6930   57.5690 C   0  0  0  0  0  0  0  0  0  0  0  0
  131.0250  125.5850   58.3240 C   0  0  0  0  0  0  0  0  0  0  0  0
  132.4260  125.5720   58.3430 C   0  0  0  0  0  0  0  0  0  0  0  0
  133.1410  124.5850   59.0240 C   0  0  0  0  0  0  0  0  0  0  0  0
  134.5120  124.5910   59.0350 O   0  0  0  0  0  0  0  0  0  0  0  0
  132.4170  123.5930   59.7030 C   0  0  0  0  0  0  0  0  0  0  0  0
  132.8360  122.5340   60.4540 N   0  0  0  0  0  0  0  0  0  0  0  0
  131.7130  121.8860   60.9210 N   0  0  0  0  0  0  0  0  0  0  0  0
  130.6260  122.5110   60.4280 N   0  0  0  0  0  0  0  0  0  0  0  0
  129.2910  122.0870   60.8310 C   0  0  0  0  0  0  0  0  0  0  0  0
  128.2000  122.6550   59.9350 C   0  0  0  0  0  0  0  0  0  0  0  0
  127.1440  123.3850   60.4910 C   0  0  0  0  0  0  0  0  0  0  0  0
  126.1540  123.9260   59.6700 C   0  0  0  0  0  0  0  0  0  0  0  0
  126.2140  123.7400   58.2880 C   0  0  0  0  0  0  0  0  0  0  0  0
  127.2650  123.0140   57.7270 C   0  0  0  0  0  0  0  0  0  0  0  0
  127.3490  122.7910   56.0180 Cl  0  0  0  0  0  0  0  0  0  0  0  0
  128.2540  122.4690   58.5490 C   0  0  0  0  0  0  0  0  0  0  0  0
  131.0020  123.6090   59.6720 C   0  0  0  0  0  0  0  0  0  0  0  0
  130.2850  124.5950   58.9860 C   0  0  0  0  0  0  0  0  0  0  0  0
  130.2380  128.0290   58.3570 C   0  0  0  0  0  0  0  0  0  0  0  0
  129.4400  129.1130   57.6060 C   0  0  0  0  0  0  0  0  0  0  0  0
  126.9330  130.8810   59.2360 C   0  0  0  0  0  0  0  0  0  0  0  0
  126.3150  131.2080   60.4380 C   0  0  0  0  0  0  0  0  0  0  0  0
  1  2  2  0
  2  3  2  0
  2  4  1  0
  4  5  1  0
  5  6  1  0
  6  7  1  0
  7  8  1  0
  8  9  1  0
  9 10  1  0
 10 11  1  0
  2 12  1  0
 12 13  2  0
 13 14  1  0
 14 15  2  0
 15 16  1  0
 16 17  2  0
 16 18  2  0
 16 19  1  0
 19 20  1  0
 20 21  1  0
 21 22  1  0
 22 23  1  0
 23 24  2  0
 24 25  1  0
 25 26  1  0
 25 27  2  0
 27 28  1  0
 28 29  2  0
 29 30  1  0
 30 31  1  0
 31 32  1  0
 32 33  2  0
 33 34  1  0
 34 35  2  0
 35 36  1  0
 36 37  1  0
 36 38  2  0
 30 39  1  0
 39 40  2  0
 22 41  1  0
 41 42  1  0
 15 43  1  0
 43 44  2  0
 11  5  1  0
 44 12  1  0
 42 19  1  0
 40 23  1  0
 39 27  1  0
 38 32  1  0
M  END
>  <Binding energies>  (43) 
[-11.17]

>  <Ligand effiencies>  (43) 
[-0.23270833333333332]

>  <Interactions>  (43) 
["V-A:TYR:539:CD1:4871, V-A:TYR:539:C:4865, V-A:TYR:539:CZ:4875, V-A:TYR:539:CE1:4873, V-B:LEU:475:CD2:9230, V-A:ALA:541:CB:4890, V-B:ILE:538:CB:9834, V-B:PRO:540:N:9856, V-B:TYR:539:CE1:9847, V-B:PRO:540:CA:9855, V-B:ALA:541:CB:9864, V-B:TYR:539:CD1:9845, V-B:TYR:539:CZ:9849, V-B:TYR:539:C:9839, V-B:TYR:539:CG:9844, H-B:TYR:531:OH:9767, V-B:PRO:540:CB:9857, V-B:PRO:482:CB:9297, V-B:ILE:369:CG2:8208, V-B:ILE:369:CD1:8210, V-B:SER:385:CB:8380, V-B:LEU:373:CD1:8251, V-B:PRO:482:CG:9298, V-A:ASP:366:CG:3210, V-A:MET:535:CE:4833, V-B:ILE:538:CA:9832, V-B:MET:535:CE:9807, V-B:ASP:366:CB:8183, V-B:ASP:366:CG:8184, V-B:SER:385:CA:8378, H-A:TYR:539:OH:4876, V-B:ASP:366:CA:8181, H-B:GLY:454:N:9021, V-B:SER:385:C:8376, V-A:ASP:366:CA:3207, V-A:ASP:366:CB:3209, H-A:ASP:366:OD1:3211, H-B:SER:385:O:8377, H-A:CYS:365:O:3203"]

$$$$
RR18_Rahimova_2017
     RDKit          3D

 36 41  0  0  0  0  0  0  0  0999 V2000
  133.1200  125.4240   56.3710 C   0  0  0  0  0  0  0  0  0  0  0  0
  132.8700  125.0760   57.8170 C   0  0  0  0  0  0  0  0  0  0  0  0
  133.6190  124.4570   58.8040 C   0  0  0  0  0  0  0  0  0  0  0  0
  132.8280  124.4270   59.9510 C   0  0  0  0  0  0  0  0  0  0  0  0
  131.6240  125.0300   59.6250 C   0  0  0  0  0  0  0  0  0  0  0  0
  130.3440  125.3280   60.4020 C   0  0  1  0  0  0  0  0  0  0  0  0
  130.1810  124.3720   61.6210 C   0  0  0  0  0  0  0  0  0  0  0  0
  129.9910  122.9400   61.4170 C   0  0  0  0  0  0  0  0  0  0  0  0
  128.8730  122.4510   61.2440 O   0  0  0  0  0  0  0  0  0  0  0  0
  131.1380  122.2220   61.4210 N   0  0  0  0  0  0  0  0  0  0  0  0
  131.3460  120.8330   61.2770 C   0  0  0  0  0  0  0  0  0  0  0  0
  130.3120  119.8820   61.3530 C   0  0  0  0  0  0  0  0  0  0  0  0
  130.5860  118.5230   61.2090 C   0  0  0  0  0  0  0  0  0  0  0  0
  131.8920  118.0930   60.9940 C   0  0  0  0  0  0  0  0  0  0  0  0
  132.9280  119.0220   60.9280 C   0  0  0  0  0  0  0  0  0  0  0  0
  132.6680  120.3890   61.0700 C   0  0  0  0  0  0  0  0  0  0  0  0
  133.8380  121.3660   60.9950 C   0  0  0  0  0  0  0  0  0  0  0  0
  130.3240  124.8880   62.8710 C   0  0  0  0  0  0  0  0  0  0  0  0
  130.4830  126.2110   63.1520 N   0  0  0  0  0  0  0  0  0  0  0  0
  130.4210  127.0690   62.2020 C   0  0  0  0  0  0  0  0  0  0  0  0
  130.4570  128.8020   62.4270 S   0  0  0  0  0  0  0  0  0  0  0  0
  130.2870  129.0870   60.6660 C   0  0  0  0  0  0  0  0  0  0  0  0
  130.2310  130.3030   60.0210 C   0  0  0  0  0  0  0  0  0  0  0  0
  130.2270  131.5540   60.7940 C   0  0  0  0  0  0  0  0  0  0  0  0
  130.2940  131.7340   62.0090 O   0  0  0  0  0  0  0  0  0  0  0  0
  130.1110  132.5610   59.9220 N   0  0  0  0  0  0  0  0  0  0  0  0
  130.0700  132.1410   58.6280 C   0  0  0  0  0  0  0  0  0  0  0  0
  129.9690  132.9240   57.4780 C   0  0  0  0  0  0  0  0  0  0  0  0
  129.9750  132.2960   56.2350 C   0  0  0  0  0  0  0  0  0  0  0  0
  130.0900  130.9090   56.1630 C   0  0  0  0  0  0  0  0  0  0  0  0
  130.1890  130.1470   57.3300 C   0  0  0  0  0  0  0  0  0  0  0  0
  130.1610  130.7600   58.5970 C   0  0  0  0  0  0  0  0  0  0  0  0
  130.2020  127.7850   60.0040 C   0  0  0  0  0  0  0  0  0  0  0  0
  130.0280  127.5850   58.8060 O   0  0  0  0  0  0  0  0  0  0  0  0
  130.3160  126.7540   60.8850 N   0  0  0  0  0  0  0  0  0  0  0  0
  131.6580  125.4220   58.3230 O   0  0  0  0  0  0  0  0  0  0  0  0
  1  2  1  0
  2  3  2  0
  3  4  1  0
  4  5  2  0
  6  5  1  1
  6  7  1  0
  7  8  1  0
  8  9  2  0
  8 10  1  0
 10 11  1  0
 11 12  2  0
 12 13  1  0
 13 14  2  0
 14 15  1  0
 15 16  2  0
 16 17  1  0
  7 18  2  0
 18 19  1  0
 19 20  2  0
 20 21  1  0
 21 22  1  0
 22 23  2  0
 23 24  1  0
 24 25  2  0
 24 26  1  0
 26 27  1  0
 27 28  2  0
 28 29  1  0
 29 30  2  0
 30 31  1  0
 31 32  2  0
 22 33  1  0
 33 34  2  0
 33 35  1  0
  5 36  1  0
 36  2  1  0
 35  6  1  0
 16 11  1  0
 35 20  1  0
 32 23  1  0
 32 27  1  0
M  END
>  <Binding energies>  (44) 
[-8.87]

>  <Ligand effiencies>  (44) 
[-0.23342105263157892]

>  <Interactions>  (44) 
["V-A:PRO:540:C:4879, V-A:TYR:539:CD1:4871, V-A:TYR:539:C:4865, V-A:TYR:531:CZ:4792, V-A:PRO:540:CA:4881, V-B:TYR:539:CE1:9847, V-B:ALA:541:CB:9864, V-B:TYR:539:CD1:9845, V-B:TYR:539:CZ:9849, V-A:LEU:475:CD2:4256, V-A:ILE:538:CA:4858, V-A:GLU:543:CD:4906, V-A:PRO:540:N:4882, V-A:ASP:366:CG:3210, V-A:MET:535:CE:4833, V-B:GLU:543:CD:9880, V-A:TYR:539:CG:4870, V-A:SER:385:CA:3404, V-A:ILE:369:CG2:3234, V-A:PRO:482:CG:4324, V-A:PRO:482:CB:4323, V-A:SER:385:CB:3406, V-A:LEU:373:CD1:3277, H-A:ARG:545:NH2:4926, H-B:ALA:541:N:9863, V-A:ILE:369:CD1:3236, H-A:TYR:539:O:4866, V-A:ASP:366:CA:3207, V-A:ASP:366:C:3205, V-A:ASP:366:CB:3209, V-A:ILE:369:CB:3233, H-A:ALA:541:N:4889, V-A:TYR:531:CE1:4790, V-A:TYR:539:CA:4867, V-A:ASN:370:CB:3242"]

$$$$
RR20_Rahimova_2017
     RDKit          3D

 38 43  0  0  0  0  0  0  0  0999 V2000
  133.8350  131.5550   60.2190 C   0  0  0  0  0  0  0  0  0  0  0  0
  132.6390  131.6780   59.2920 C   0  0  0  0  0  0  0  0  0  0  0  0
  132.8270  131.6570   57.9100 C   0  0  0  0  0  0  0  0  0  0  0  0
  131.7310  131.7610   57.0580 C   0  0  0  0  0  0  0  0  0  0  0  0
  130.4400  131.9010   57.5800 C   0  0  0  0  0  0  0  0  0  0  0  0
  129.2610  131.9910   56.6380 C   0  0  0  0  0  0  0  0  0  0  0  0
  129.1860  132.9840   55.9100 O   0  0  0  0  0  0  0  0  0  0  0  0
  128.3420  130.9810   56.6160 N   0  0  0  0  0  0  0  0  0  0  0  0
  127.1560  131.0360   55.7460 C   0  0  0  0  0  0  0  0  0  0  0  0
  126.4650  129.6900   55.8800 C   0  0  0  0  0  0  0  0  0  0  0  0
  127.5160  128.8370   56.5230 C   0  0  0  0  0  0  0  0  0  0  0  0
  127.4840  127.4730   56.8150 C   0  0  0  0  0  0  0  0  0  0  0  0
  128.5040  126.8820   57.5720 C   0  0  0  0  0  0  0  0  0  0  0  0
  128.4750  125.4110   57.8800 C   0  0  0  0  0  0  0  0  0  0  0  0
  129.2800  124.9500   58.8240 N   0  0  0  0  0  0  0  0  0  0  0  0
  129.1570  123.6620   59.0210 C   0  0  0  0  0  0  0  0  0  0  0  0
  129.8390  122.8680   59.9300 N   0  0  0  0  0  0  0  0  0  0  0  0
  129.2980  122.1000   60.9080 C   0  0  0  0  0  0  0  0  0  0  0  0
  128.0870  121.9890   61.1060 O   0  0  0  0  0  0  0  0  0  0  0  0
  130.2590  121.2930   61.8120 C   0  0  0  0  0  0  0  0  0  0  0  0
  131.0970  122.1490   62.6720 N   0  0  0  0  0  0  0  0  0  0  0  0
  132.1310  122.8680   61.9110 C   0  0  0  0  0  0  0  0  0  0  0  0
  133.1380  123.5310   62.8770 C   0  0  0  0  0  0  0  0  0  0  0  0
  132.4610  124.2700   64.0310 C   0  0  0  0  0  0  0  0  0  0  0  0
  133.1820  125.1480   64.8480 C   0  0  0  0  0  0  0  0  0  0  0  0
  132.5740  125.7910   65.9230 C   0  0  0  0  0  0  0  0  0  0  0  0
  131.2290  125.5640   66.1940 C   0  0  0  0  0  0  0  0  0  0  0  0
  130.4960  124.6990   65.3840 C   0  0  0  0  0  0  0  0  0  0  0  0
  131.0950  124.0450   64.3010 C   0  0  0  0  0  0  0  0  0  0  0  0
  130.2780  123.1410   63.3780 C   0  0  0  0  0  0  0  0  0  0  0  0
  128.0010  122.8940   58.0040 S   0  0  0  0  0  0  0  0  0  0  0  0
  127.6680  124.4370   57.2530 C   0  0  0  0  0  0  0  0  0  0  0  0
  126.6750  124.5370   56.1160 C   0  0  0  0  0  0  0  0  0  0  0  0
  129.5250  127.7020   58.0760 C   0  0  0  0  0  0  0  0  0  0  0  0
  129.5480  129.0700   57.8020 C   0  0  0  0  0  0  0  0  0  0  0  0
  128.5700  129.6330   56.9730 C   0  0  0  0  0  0  0  0  0  0  0  0
  130.2560  131.8910   58.9690 C   0  0  0  0  0  0  0  0  0  0  0  0
  131.3520  131.7860   59.8220 C   0  0  0  0  0  0  0  0  0  0  0  0
  1  2  1  0
  2  3  2  0
  3  4  1  0
  4  5  2  0
  5  6  1  0
  6  7  2  0
  6  8  1  0
  8  9  1  0
  9 10  1  0
 10 11  1  0
 11 12  2  0
 12 13  1  0
 13 14  1  0
 14 15  1  0
 15 16  2  0
 16 17  1  0
 17 18  1  0
 18 19  2  0
 18 20  1  0
 20 21  1  0
 21 22  1  0
 22 23  1  0
 23 24  1  0
 24 25  2  0
 25 26  1  0
 26 27  2  0
 27 28  1  0
 28 29  2  0
 29 30  1  0
 16 31  1  0
 31 32  1  0
 32 33  1  0
 13 34  2  0
 34 35  1  0
 35 36  2  0
  5 37  1  0
 37 38  2  0
 38  2  1  0
 36  8  1  0
 36 11  1  0
 32 14  2  0
 30 21  1  0
 29 24  1  0
M  END
>  <Binding energies>  (45) 
[-10.19]

>  <Ligand effiencies>  (45) 
[-0.2612820512820513]

>  <Interactions>  (45) 
["V-A:LEU:363:CA:3182, V-A:TYR:539:CZ:4875, V-A:PRO:540:CB:4883, V-A:TYR:539:CE1:4873, V-A:PRO:540:CA:4881, V-A:LEU:363:CD1:3186, V-B:PRO:540:N:9856, V-B:TYR:539:CE1:9847, V-B:ALA:541:CB:9864, V-B:TYR:539:CD1:9845, V-B:TYR:539:C:9839, V-B:TYR:531:CZ:9766, V-A:LEU:475:CD2:4256, V-A:ASN:362:CB:3173, V-A:TYR:539:CE2:4874, V-A:PRO:540:N:4882, V-A:ASN:362:C:3169, V-A:ASP:366:CG:3210, H-A:TYR:539:N:4868, V-A:MET:535:CE:4833, V-B:GLU:543:CD:9880, V-B:MET:535:CE:9807, V-A:ARG:545:CZ:4924, V-A:GLY:454:CA:4046, V-B:GLU:543:CB:9878, H-B:ALA:541:N:9863, V-B:GLU:543:CG:9879, V-A:HIS:456:CE1:4066, V-B:TYR:531:CE1:9764, V-A:ARG:545:CD:4921, V-A:ARG:545:CG:4920"]

$$$$
RR21_Rahimova_2017
     RDKit          3D

 40 45  0  0  0  0  0  0  0  0999 V2000
  134.2580  130.6970   57.2380 C   0  0  0  0  0  0  0  0  0  0  0  0
  133.9530  131.6590   58.2430 O   0  0  0  0  0  0  0  0  0  0  0  0
  132.8150  131.4970   59.0110 C   0  0  0  0  0  0  0  0  0  0  0  0
  132.8120  131.4290   60.4140 C   0  0  0  0  0  0  0  0  0  0  0  0
  131.6170  131.2670   61.1150 C   0  0  0  0  0  0  0  0  0  0  0  0
  130.3980  131.1730   60.4340 C   0  0  0  0  0  0  0  0  0  0  0  0
  129.1150  131.0040   61.1890 C   0  0  0  0  0  0  0  0  0  0  0  0
  128.1610  131.9060   61.0710 N   0  0  0  0  0  0  0  0  0  0  0  0
  127.1460  131.4990   61.8480 N   0  0  0  0  0  0  0  0  0  0  0  0
  125.9380  132.2370   61.9380 C   0  0  0  0  0  0  0  0  0  0  0  0
  124.7740  131.6490   62.4560 C   0  0  0  0  0  0  0  0  0  0  0  0
  123.5950  132.3860   62.5430 C   0  0  0  0  0  0  0  0  0  0  0  0
  123.5760  133.7110   62.1140 C   0  0  0  0  0  0  0  0  0  0  0  0
  124.7230  134.3050   61.5950 C   0  0  0  0  0  0  0  0  0  0  0  0
  125.9030  133.5710   61.5060 C   0  0  0  0  0  0  0  0  0  0  0  0
  127.4620  130.3090   62.4540 C   0  0  0  0  0  0  0  0  0  0  0  0
  128.7450  129.9560   62.0630 C   0  0  0  0  0  0  0  0  0  0  0  0
  129.4930  128.7570   62.4090 C   0  0  0  0  0  0  0  0  0  0  0  0
  130.1820  127.9330   61.5870 C   0  0  0  0  0  0  0  0  0  0  0  0
  130.3760  128.0620   59.8250 S   0  0  0  0  0  0  0  0  0  0  0  0
  131.3860  126.6230   59.8450 C   0  0  0  0  0  0  0  0  0  0  0  0
  131.9750  126.0500   58.8410 N   0  0  0  0  0  0  0  0  0  0  0  0
  132.7800  124.8890   58.9960 C   0  0  0  0  0  0  0  0  0  0  0  0
  133.3860  124.3000   58.1020 O   0  0  0  0  0  0  0  0  0  0  0  0
  132.8610  124.3910   60.4140 C   0  0  0  0  0  0  0  0  0  0  0  0
  133.6870  123.1310   60.7010 C   0  0  0  0  0  0  0  0  0  0  0  0
  132.8620  121.8500   60.8120 C   0  0  0  0  0  0  0  0  0  0  0  0
  131.4930  121.9200   61.0850 C   0  0  0  0  0  0  0  0  0  0  0  0
  130.7380  120.7530   61.1680 C   0  0  0  0  0  0  0  0  0  0  0  0
  131.3490  119.5130   60.9770 C   0  0  0  0  0  0  0  0  0  0  0  0
  130.5200  118.2440   61.0570 C   0  0  0  0  0  0  0  0  0  0  0  0
  132.7150  119.4400   60.6920 C   0  0  0  0  0  0  0  0  0  0  0  0
  133.4700  120.6070   60.6090 C   0  0  0  0  0  0  0  0  0  0  0  0
  132.2640  124.9700   61.4040 N   0  0  0  0  0  0  0  0  0  0  0  0
  131.5120  126.1140   61.1100 N   0  0  0  0  0  0  0  0  0  0  0  0
  130.8800  126.7690   62.1150 C   0  0  0  0  0  0  0  0  0  0  0  0
  130.9030  126.4270   63.3030 O   0  0  0  0  0  0  0  0  0  0  0  0
  130.4010  131.2350   59.0370 C   0  0  0  0  0  0  0  0  0  0  0  0
  131.5950  131.3960   58.3340 C   0  0  0  0  0  0  0  0  0  0  0  0
  131.5630  131.4530   56.9820 F   0  0  0  0  0  0  0  0  0  0  0  0
  1  2  1  0
  2  3  1  0
  3  4  2  0
  4  5  1  0
  5  6  2  0
  6  7  1  0
  7  8  2  0
  8  9  1  0
  9 10  1  0
 10 11  2  0
 11 12  1  0
 12 13  2  0
 13 14  1  0
 14 15  2  0
  9 16  1  0
 16 17  2  0
 17 18  1  0
 18 19  2  0
 19 20  1  0
 20 21  1  0
 21 22  2  0
 22 23  1  0
 23 24  2  0
 23 25  1  0
 25 26  1  0
 26 27  1  0
 27 28  2  0
 28 29  1  0
 29 30  2  0
 30 31  1  0
 30 32  1  0
 32 33  2  0
 25 34  2  0
 34 35  1  0
 35 36  1  0
 36 37  2  0
  6 38  1  0
 38 39  2  0
 39 40  1  0
 39  3  1  0
 17  7  1  0
 36 19  1  0
 15 10  1  0
 35 21  1  0
 33 27  1  0
M  END
>  <Binding energies>  (46) 
[-9.49]

>  <Ligand effiencies>  (46) 
[-0.23725000000000002]

>  <Interactions>  (46) 
["V-A:LEU:363:CA:3182, V-A:TYR:539:CD1:4871, V-A:TYR:531:CE2:4791, V-A:PRO:540:CB:4883, V-A:TYR:531:CZ:4792, V-A:TYR:539:CE1:4873, V-B:LEU:475:CD2:9230, V-A:PRO:540:CA:4881, V-A:LEU:363:CD1:3186, V-B:TYR:539:CE1:9847, V-B:ALA:541:CB:9864, V-B:TYR:539:CD1:9845, V-A:LEU:475:CD2:4256, V-B:GLY:454:CA:9020, V-B:ILE:369:CG2:8208, V-B:ILE:369:CD1:8210, V-A:GLU:543:CD:4906, V-A:ASP:366:CG:3210, V-A:LEU:363:CB:3184, V-A:SER:385:CA:3404, H-B:TYR:539:OH:9850, V-A:ILE:369:CG2:3234, V-A:PRO:482:CG:4324, V-A:PRO:482:CB:4323, V-A:LEU:373:CD1:3277, H-A:ARG:545:NH2:4926, V-A:ILE:369:CD1:3236, V-B:SER:385:C:8376, V-A:ASP:366:CB:3209, V-A:LEU:363:C:3180, V-B:GLY:453:C:9013, H-A:LEU:363:N:3183"]

$$$$
RR23_Rahimova_2017
     RDKit          3D

 39 44  0  0  0  0  0  0  0  0999 V2000
  126.2750  138.9660   60.4870 C   0  0  0  0  0  0  0  0  0  0  0  0
  125.8690  137.5690   60.9200 C   0  0  0  0  0  0  0  0  0  0  0  0
  126.8390  136.6610   61.3460 C   0  0  0  0  0  0  0  0  0  0  0  0
  126.4650  135.3820   61.7530 C   0  0  0  0  0  0  0  0  0  0  0  0
  125.1190  134.9990   61.7260 C   0  0  0  0  0  0  0  0  0  0  0  0
  124.7310  133.6130   62.1910 C   0  0  0  0  0  0  0  0  0  0  0  0
  124.1430  133.5170   63.2700 O   0  0  0  0  0  0  0  0  0  0  0  0
  125.0270  132.5350   61.4060 N   0  0  0  0  0  0  0  0  0  0  0  0
  123.9700  131.6840   60.8360 C   0  0  0  0  0  0  0  0  0  0  0  0
  124.6660  130.6950   59.9150 C   0  0  0  0  0  0  0  0  0  0  0  0
  126.0260  131.3020   59.7420 C   0  0  0  0  0  0  0  0  0  0  0  0
  127.0780  130.8810   58.9290 C   0  0  0  0  0  0  0  0  0  0  0  0
  128.3370  131.4920   59.0250 C   0  0  0  0  0  0  0  0  0  0  0  0
  129.5230  131.0600   58.1490 C   0  0  2  0  0  0  0  0  0  0  0  0
  129.4220  129.6760   57.7380 N   0  0  0  0  0  0  0  0  0  0  0  0
  130.5660  129.1340   57.6140 C   0  0  0  0  0  0  0  0  0  0  0  0
  130.8530  127.8490   57.2720 N   0  0  0  0  0  0  0  0  0  0  0  0
  129.9990  126.8090   57.1180 C   0  0  0  0  0  0  0  0  0  0  0  0
  128.7730  126.8660   57.2270 O   0  0  0  0  0  0  0  0  0  0  0  0
  130.6550  125.4580   56.7840 C   0  0  0  0  0  0  0  0  0  0  0  0
  131.5110  125.0410   57.9170 N   0  0  0  0  0  0  0  0  0  0  0  0
  132.8230  124.7260   57.5880 N   0  0  0  0  0  0  0  0  0  0  0  0
  133.6730  124.3460   58.4880 N   0  0  0  0  0  0  0  0  0  0  0  0
  133.2740  124.2490   59.8230 C   0  0  0  0  0  0  0  0  0  0  0  0
  134.2150  123.8350   60.7690 C   0  0  0  0  0  0  0  0  0  0  0  0
  133.8460  123.7280   62.1110 C   0  0  0  0  0  0  0  0  0  0  0  0
  132.5420  124.0340   62.5080 C   0  0  0  0  0  0  0  0  0  0  0  0
  131.6000  124.4470   61.5640 C   0  0  0  0  0  0  0  0  0  0  0  0
  131.9700  124.5560   60.2180 C   0  0  0  0  0  0  0  0  0  0  0  0
  130.9650  124.9980   59.1810 C   0  0  0  0  0  0  0  0  0  0  0  0
  129.7900  125.2770   59.4380 O   0  0  0  0  0  0  0  0  0  0  0  0
  131.9910  130.1640   57.9420 S   0  0  0  0  0  0  0  0  0  0  0  0
  130.9100  131.3440   58.7700 C   0  0  2  0  0  0  0  0  0  0  0  0
  131.0370  131.1570   60.2960 C   0  0  0  0  0  0  0  0  0  0  0  0
  128.5300  132.4940   59.9830 C   0  0  0  0  0  0  0  0  0  0  0  0
  127.4830  132.9010   60.8120 C   0  0  0  0  0  0  0  0  0  0  0  0
  126.2080  132.3430   60.6540 C   0  0  0  0  0  0  0  0  0  0  0  0
  124.1480  135.9250   61.3230 C   0  0  0  0  0  0  0  0  0  0  0  0
  124.5230  137.2030   60.9180 C   0  0  0  0  0  0  0  0  0  0  0  0
  1  2  1  0
  2  3  2  0
  3  4  1  0
  4  5  2  0
  5  6  1  0
  6  7  2  0
  6  8  1  0
  8  9  1  0
  9 10  1  0
 10 11  1  0
 11 12  2  0
 12 13  1  0
 14 13  1  1
 14 15  1  0
 15 16  2  0
 16 17  1  0
 17 18  1  0
 18 19  2  0
 18 20  1  0
 20 21  1  0
 21 22  1  0
 22 23  2  0
 23 24  1  0
 24 25  2  0
 25 26  1  0
 26 27  2  0
 27 28  1  0
 28 29  2  0
 29 30  1  0
 30 31  2  0
 16 32  1  0
 32 33  1  0
 33 34  1  1
 13 35  2  0
 35 36  1  0
 36 37  2  0
  5 38  1  0
 38 39  2  0
 39  2  1  0
 37  8  1  0
 37 11  1  0
 33 14  1  0
 30 21  1  0
 29 24  1  0
M  END
>  <Binding energies>  (47) 
[-10.62]

>  <Ligand effiencies>  (47) 
[-0.26549999999999996]

>  <Interactions>  (47) 
["V-A:TYR:539:CD1:4871, H-A:ASP:366:OD2:3212, V-A:TYR:539:CZ:4875, V-A:TYR:531:CZ:4792, V-A:TYR:539:CE1:4873, V-B:LEU:475:CD2:9230, V-A:PRO:540:CA:4881, H-A:TYR:531:OH:4793, V-B:TYR:539:CE1:9847, V-B:TYR:539:CZ:9849, V-B:PRO:482:CB:9297, V-B:ILE:369:CG2:8208, V-B:ILE:369:CD1:8210, V-A:VAL:344:CG1:2998, V-B:SER:385:CB:8380, V-B:LEU:373:CD1:8251, V-B:ILE:369:CB:8207, V-B:PRO:482:CG:9298, V-A:ASP:366:CG:3210, V-B:ASP:366:CG:8184, V-B:SER:385:CA:8378, H-B:TYR:539:OH:9850, V-A:ILE:369:CG2:3234, V-A:GLY:454:CA:4046, V-A:ILE:369:CD1:3236, H-B:GLY:454:N:9021, V-B:SER:385:C:8376, V-A:ILE:369:CB:3233"]

$$$$
RR26_Rahimova_2017
     RDKit          3D

 38 44  0  0  0  0  0  0  0  0999 V2000
  128.5890  130.7890   57.4630 C   0  0  0  0  0  0  0  0  0  0  0  0
  130.0210  131.2740   57.2720 C   0  0  0  0  0  0  0  0  0  0  0  0
  130.2230  132.5230   56.6740 C   0  0  0  0  0  0  0  0  0  0  0  0
  131.5080  133.0340   56.5100 C   0  0  0  0  0  0  0  0  0  0  0  0
  132.6060  132.3020   56.9500 C   0  0  0  0  0  0  0  0  0  0  0  0
  132.4180  131.0570   57.5480 C   0  0  0  0  0  0  0  0  0  0  0  0
  131.1320  130.5220   57.7130 C   0  0  0  0  0  0  0  0  0  0  0  0
  131.0190  129.1680   58.3530 C   0  0  0  0  0  0  0  0  0  0  0  0
  131.0000  128.0450   57.6410 N   0  0  0  0  0  0  0  0  0  0  0  0
  130.9070  127.1360   58.5730 C   0  0  0  0  0  0  0  0  0  0  0  0
  130.8110  125.4140   58.6170 S   0  0  0  0  0  0  0  0  0  0  0  0
  130.7360  125.4870   60.4180 C   0  0  0  0  0  0  0  0  0  0  0  0
  130.6350  124.4550   61.2850 C   0  0  0  0  0  0  0  0  0  0  0  0
  130.5690  123.0340   60.9830 C   0  0  0  0  0  0  0  0  0  0  0  0
  131.4840  122.0450   61.3100 C   0  0  0  0  0  0  0  0  0  0  0  0
  130.9900  120.8470   60.8600 N   0  0  0  0  0  0  0  0  0  0  0  0
  131.5740  119.5590   60.9730 C   0  0  0  0  0  0  0  0  0  0  0  0
  130.8550  118.4900   61.5280 C   0  0  0  0  0  0  0  0  0  0  0  0
  131.4410  117.2320   61.6350 C   0  0  0  0  0  0  0  0  0  0  0  0
  132.7450  117.0370   61.1860 C   0  0  0  0  0  0  0  0  0  0  0  0
  133.4690  118.0890   60.6300 C   0  0  0  0  0  0  0  0  0  0  0  0
  132.8870  119.3490   60.5240 C   0  0  0  0  0  0  0  0  0  0  0  0
  129.7900  121.0250   60.2870 N   0  0  0  0  0  0  0  0  0  0  0  0
  129.5310  122.3160   60.3480 C   0  0  0  0  0  0  0  0  0  0  0  0
  128.2520  122.8480   59.7760 C   0  0  0  0  0  0  0  0  0  0  0  0
  127.4800  123.7690   60.5000 C   0  0  0  0  0  0  0  0  0  0  0  0
  126.2850  124.2680   59.9780 C   0  0  0  0  0  0  0  0  0  0  0  0
  125.8520  123.8450   58.7230 C   0  0  0  0  0  0  0  0  0  0  0  0
  126.6240  122.9380   57.9820 C   0  0  0  0  0  0  0  0  0  0  0  0
  127.8130  122.4370   58.5090 C   0  0  0  0  0  0  0  0  0  0  0  0
  126.2120  122.4580   56.7540 O   0  0  0  0  0  0  0  0  0  0  0  0
  125.2110  123.2590   56.1190 C   0  0  0  0  0  0  0  0  0  0  0  0
  124.1160  123.6690   57.1340 C   0  0  0  0  0  0  0  0  0  0  0  0
  124.6900  124.3990   58.2240 O   0  0  0  0  0  0  0  0  0  0  0  0
  130.7820  126.8570   60.9200 C   0  0  0  0  0  0  0  0  0  0  0  0
  130.7460  127.2600   62.0840 O   0  0  0  0  0  0  0  0  0  0  0  0
  130.8790  127.6940   59.7970 N   0  0  0  0  0  0  0  0  0  0  0  0
  130.9560  129.0210   59.6670 N   0  0  0  0  0  0  0  0  0  0  0  0
  1  2  1  0
  2  3  2  0
  3  4  1  0
  4  5  2  0
  5  6  1  0
  6  7  2  0
  7  8  1  0
  8  9  1  0
  9 10  2  0
 10 11  1  0
 11 12  1  0
 12 13  2  0
 13 14  1  0
 14 15  2  0
 15 16  1  0
 16 17  1  0
 17 18  2  0
 18 19  1  0
 19 20  2  0
 20 21  1  0
 21 22  2  0
 16 23  1  0
 23 24  2  0
 24 25  1  0
 25 26  2  0
 26 27  1  0
 27 28  2  0
 28 29  1  0
 29 30  2  0
 29 31  1  0
 31 32  1  0
 32 33  1  0
 33 34  1  0
 12 35  1  0
 35 36  2  0
 35 37  1  0
 37 38  1  0
  7  2  1  0
 38  8  2  0
 37 10  1  0
 24 14  1  0
 30 25  1  0
 22 17  1  0
 34 28  1  0
M  END
>  <Binding energies>  (48) 
[-9.76]

>  <Ligand effiencies>  (48) 
[-0.25684210526315787]

>  <Interactions>  (48) 
["V-A:ILE:538:CB:4860, V-A:TYR:531:CE2:4791, V-A:TYR:539:C:4865, V-A:ILE:538:CG2:4861, V-A:PRO:540:CB:4883, H-A:TYR:531:OH:4793, V-A:LEU:363:CD1:3186, V-B:ILE:538:CB:9834, V-B:PRO:540:N:9856, V-B:TYR:539:CE1:9847, V-B:LEU:363:CA:8156, V-B:PRO:540:CA:9855, V-B:TYR:531:CE2:9765, V-B:TYR:539:CD1:9845, V-B:TYR:539:C:9839, V-B:TYR:531:CZ:9766, H-B:TYR:531:OH:9767, V-B:PRO:540:CB:9857, V-B:LEU:363:CD1:8160, V-A:LEU:475:CD2:4256, V-B:ILE:538:CG2:9835, V-A:ILE:538:CA:4858, V-A:PRO:540:CD:4885, V-A:PRO:540:N:4882, V-A:ASP:366:CG:3210, V-A:MET:535:CE:4833, H-B:TYR:539:N:9842, V-B:PRO:540:CD:9859, V-A:ILE:538:C:4856, V-A:SER:385:CA:3404, V-A:ILE:369:CG2:3234, V-A:PRO:482:CG:4324, V-A:PRO:482:CB:4323, V-A:SER:385:CB:3406, V-A:LEU:373:CD1:3277, H-A:ARG:545:NH2:4926, V-B:TYR:539:CA:9841, V-A:VAL:384:C:3394, V-A:LEU:475:CG:4254"]

$$$$
RR2_Rahimova_2017
     RDKit          3D

 46 50  0  0  0  0  0  0  0  0999 V2000
  133.5160  122.9900   60.4810 C   0  0  0  0  0  0  0  0  0  0  0  0
  133.5090  123.3170   59.0960 O   0  0  0  0  0  0  0  0  0  0  0  0
  132.7230  124.3640   58.6540 C   0  0  0  0  0  0  0  0  0  0  0  0
  131.5250  124.7660   59.2610 C   0  0  0  0  0  0  0  0  0  0  0  0
  130.7970  125.8330   58.7420 C   0  0  0  0  0  0  0  0  0  0  0  0
  131.2440  126.5190   57.6050 C   0  0  0  0  0  0  0  0  0  0  0  0
  130.4290  127.6740   57.0550 C   0  0  0  0  0  0  0  0  0  0  0  0
  129.3780  127.4570   56.4410 O   0  0  0  0  0  0  0  0  0  0  0  0
  130.9350  128.9100   57.2720 N   0  0  0  0  0  0  0  0  0  0  0  0
  130.2750  129.9970   56.7090 N   0  0  0  0  0  0  0  0  0  0  0  0
  130.9480  131.1600   56.5910 C   0  0  0  0  0  0  0  0  0  0  0  0
  132.0460  131.3950   57.1040 O   0  0  0  0  0  0  0  0  0  0  0  0
  130.2690  132.2320   55.7280 C   0  0  0  0  0  0  0  0  0  0  0  0
  128.6260  132.7790   56.3230 S   0  0  0  0  0  0  0  0  0  0  0  0
  127.9300  131.2330   56.8240 C   0  0  0  0  0  0  0  0  0  0  0  0
  127.0720  130.5670   56.0940 N   0  0  0  0  0  0  0  0  0  0  0  0
  126.6860  129.4490   56.8200 N   0  0  0  0  0  0  0  0  0  0  0  0
  127.3480  129.4660   57.9520 C   0  0  0  0  0  0  0  0  0  0  0  0
  127.2120  128.4090   59.0000 C   0  0  0  0  0  0  0  0  0  0  0  0
  126.4990  128.6800   60.1710 C   0  0  0  0  0  0  0  0  0  0  0  0
  126.3740  127.7050   61.1560 C   0  0  0  0  0  0  0  0  0  0  0  0
  126.9470  126.4420   60.9710 C   0  0  0  0  0  0  0  0  0  0  0  0
  126.8610  125.4240   61.9330 N   0  0  0  0  0  0  0  0  0  0  0  0
  126.2560  123.7830   61.6200 S   0  0  0  0  0  0  0  0  0  0  0  0
  124.8210  123.8160   61.9250 O   0  0  0  0  0  0  0  0  0  0  0  0
  127.1470  122.8320   62.2960 O   0  0  0  0  0  0  0  0  0  0  0  0
  126.4020  123.5600   59.8480 C   0  0  0  0  0  0  0  0  0  0  0  0
  125.3510  123.9110   58.9980 C   0  0  0  0  0  0  0  0  0  0  0  0
  125.4780  123.7150   57.6260 C   0  0  0  0  0  0  0  0  0  0  0  0
  126.6560  123.1750   57.1040 C   0  0  0  0  0  0  0  0  0  0  0  0
  126.7870  122.9480   55.6090 C   0  0  0  0  0  0  0  0  0  0  0  0
  127.7030  122.8210   57.9570 C   0  0  0  0  0  0  0  0  0  0  0  0
  127.5770  123.0150   59.3290 C   0  0  0  0  0  0  0  0  0  0  0  0
  127.6560  126.1720   59.8000 C   0  0  0  0  0  0  0  0  0  0  0  0
  127.7870  127.1480   58.8170 C   0  0  0  0  0  0  0  0  0  0  0  0
  128.1620  130.5850   58.0230 N   0  0  0  0  0  0  0  0  0  0  0  0
  128.9970  130.9960   59.0830 C   0  0  0  0  0  0  0  0  0  0  0  0
  129.8750  130.0860   59.6710 C   0  0  0  0  0  0  0  0  0  0  0  0
  130.7000  130.5000   60.7140 C   0  0  0  0  0  0  0  0  0  0  0  0
  130.6540  131.8160   61.1760 C   0  0  0  0  0  0  0  0  0  0  0  0
  131.5090  132.1310   62.2150 O   0  0  0  0  0  0  0  0  0  0  0  0
  132.7450  131.4350   62.3350 C   0  0  0  0  0  0  0  0  0  0  0  0
  129.7660  132.7250   60.5780 C   0  0  0  0  0  0  0  0  0  0  0  0
  128.9420  132.3170   59.5340 C   0  0  0  0  0  0  0  0  0  0  0  0
  132.4470  126.1150   57.0060 C   0  0  0  0  0  0  0  0  0  0  0  0
  133.1750  125.0490   57.5280 C   0  0  0  0  0  0  0  0  0  0  0  0
  1  2  1  0
  2  3  1  0
  3  4  2  0
  4  5  1  0
  5  6  2  0
  6  7  1  0
  7  8  2  0
  7  9  1  0
  9 10  1  0
 10 11  1  0
 11 12  2  0
 11 13  1  0
 13 14  1  0
 14 15  1  0
 15 16  2  0
 16 17  1  0
 17 18  2  0
 18 19  1  0
 19 20  2  0
 20 21  1  0
 21 22  2  0
 22 23  1  0
 23 24  1  0
 24 25  2  0
 24 26  2  0
 24 27  1  0
 27 28  2  0
 28 29  1  0
 29 30  2  0
 30 31  1  0
 30 32  1  0
 32 33  2  0
 22 34  1  0
 34 35  2  0
 18 36  1  0
 36 37  1  0
 37 38  2  0
 38 39  1  0
 39 40  2  0
 40 41  1  0
 41 42  1  0
 40 43  1  0
 43 44  2  0
  6 45  1  0
 45 46  2  0
 46  3  1  0
 36 15  1  0
 44 37  1  0
 35 19  1  0
 33 27  1  0
M  END
>  <Binding energies>  (49) 
[-11.29]

>  <Ligand effiencies>  (49) 
[-0.2304081632653061]

>  <Interactions>  (49) 
["V-A:PRO:540:C:4879, V-A:ILE:538:CB:4860, V-A:TYR:539:CD1:4871, V-A:TYR:539:C:4865, H-A:ASP:366:OD2:3212, V-A:TYR:539:CZ:4875, V-A:ILE:538:CG2:4861, V-A:TYR:531:CZ:4792, V-A:TYR:539:CE1:4873, V-A:PRO:540:CA:4881, H-A:TYR:531:OH:4793, V-B:ILE:538:CB:9834, V-B:PRO:540:N:9856, V-B:TYR:539:CE1:9847, V-B:PRO:540:CA:9855, V-B:TYR:539:CZ:9849, V-B:TYR:539:C:9839, H-B:TYR:531:OH:9767, V-B:PRO:540:CB:9857, V-B:ILE:538:CG2:9835, V-A:ILE:538:CA:4858, V-A:ASN:362:CB:3173, V-A:TYR:539:CE2:4874, V-A:GLU:543:CD:4906, V-A:PRO:540:N:4882, V-A:ASP:366:CG:3210, H-A:TYR:539:N:4868, V-A:MET:535:CE:4833, V-B:GLU:543:CD:9880, V-B:ILE:538:CA:9832, V-B:MET:535:CE:9807, V-B:ASP:366:CG:8184, H-A:TYR:539:OH:4876, V-A:ARG:545:CZ:4924, H-B:TYR:539:OH:9850, V-A:ILE:369:CG2:3234, H-B:ALA:541:N:9863, V-A:ILE:369:CD1:3236, V-A:ASP:366:CA:3207, H-B:GLU:543:OE1:9881, V-A:ASP:366:C:3205, V-A:ASP:366:CB:3209, H-B:ARG:545:NH2:9900, H-B:GLU:543:OE2:9882, H-B:ASN:370:ND2:8219, H-A:ALA:541:N:4889, V-A:TYR:531:CE1:4790"]

$$$$
RR33_Rahimova_2017
     RDKit          3D

 18 19  0  0  0  0  0  0  0  0999 V2000
  125.2520  140.4150   62.0870 C   0  0  0  0  0  0  0  0  0  0  0  0
  124.8350  139.9520   60.6880 C   0  0  0  0  0  0  0  0  0  0  0  0
  124.2220  138.6700   60.7940 O   0  0  0  0  0  0  0  0  0  0  0  0
  125.0080  137.5600   61.0330 C   0  0  0  0  0  0  0  0  0  0  0  0
  124.3470  136.3350   61.1130 C   0  0  0  0  0  0  0  0  0  0  0  0
  125.0570  135.1620   61.3540 C   0  0  0  0  0  0  0  0  0  0  0  0
  126.4440  135.1970   61.5200 C   0  0  0  0  0  0  0  0  0  0  0  0
  127.2050  133.9370   61.7800 C   0  0  0  0  0  0  0  0  0  0  0  0
  128.3740  133.5890   61.2890 N   0  0  0  0  0  0  0  0  0  0  0  0
  128.6300  132.3980   61.8080 C   0  0  0  0  0  0  0  0  0  0  0  0
  129.9150  131.6670   61.4800 C   0  0  0  0  0  0  0  0  0  0  0  0
  131.0120  132.1650   62.2960 N   0  0  0  0  0  0  0  0  0  0  0  0
  132.2290  131.4160   62.0320 C   0  0  0  0  0  0  0  0  0  0  0  0
  127.5830  132.0150   62.6370 C   0  0  0  0  0  0  0  0  0  0  0  0
  127.2800  130.8120   63.4970 C   0  0  0  0  0  0  0  0  0  0  0  0
  126.6670  133.0100   62.6150 O   0  0  0  0  0  0  0  0  0  0  0  0
  127.1120  136.4230   61.4370 C   0  0  0  0  0  0  0  0  0  0  0  0
  126.4020  137.5970   61.1960 C   0  0  0  0  0  0  0  0  0  0  0  0
  1  2  1  0
  2  3  1  0
  3  4  1  0
  4  5  2  0
  5  6  1  0
  6  7  2  0
  7  8  1  0
  8  9  2  0
  9 10  1  0
 10 11  1  0
 11 12  1  0
 12 13  1  0
 10 14  2  0
 14 15  1  0
 14 16  1  0
  7 17  1  0
 17 18  2  0
 18  4  1  0
 16  8  1  0
M  END
>  <Binding energies>  (50) 
[-6.28]

>  <Ligand effiencies>  (50) 
[-0.3305263157894737]

>  <Interactions>  (50) 
["V-A:TYR:539:CD1:4871, V-A:TYR:539:CE1:4873, V-B:LEU:475:CD2:9230, V-A:PRO:540:CA:4881, V-A:ALA:541:CB:4890, V-B:HIS:383:CD2:8363, V-B:PRO:482:CB:9297, V-B:HIS:383:CG:8361, V-B:ILE:369:CG2:8208, V-B:SER:385:CB:8380, V-B:LEU:373:CD1:8251, V-B:THR:477:CA:9241, V-B:HIS:383:CB:8360, V-B:PRO:482:CG:9298, V-B:SER:385:CA:8378, H-A:ALA:541:N:4889, H-A:GLU:543:OE1:4907, H-A:ALA:541:O:4887"]

$$$$
RR3_Rahimova_2017
     RDKit          3D

 38 44  0  0  0  0  0  0  0  0999 V2000
  124.7970  140.2980   59.6660 C   0  0  0  0  0  0  0  0  0  0  0  0
  123.8820  139.6490   60.4870 C   0  0  0  0  0  0  0  0  0  0  0  0
  124.1900  138.3950   61.0080 C   0  0  0  0  0  0  0  0  0  0  0  0
  125.4150  137.7770   60.7170 C   0  0  0  0  0  0  0  0  0  0  0  0
  125.7460  136.4290   61.2790 C   0  0  0  0  0  0  0  0  0  0  0  0
  124.7580  135.4450   61.4210 C   0  0  0  0  0  0  0  0  0  0  0  0
  125.0660  134.1940   61.9460 C   0  0  0  0  0  0  0  0  0  0  0  0
  126.3710  133.8990   62.3500 C   0  0  0  0  0  0  0  0  0  0  0  0
  126.7070  132.5570   62.9220 C   0  0  0  0  0  0  0  0  0  0  0  0
  126.0560  132.1070   63.9880 N   0  0  0  0  0  0  0  0  0  0  0  0
  126.5230  130.9060   64.2330 C   0  0  0  0  0  0  0  0  0  0  0  0
  126.0850  130.0390   65.3240 C   0  0  0  0  0  0  0  0  0  0  0  0
  124.7830  129.8960   65.7720 C   0  0  0  0  0  0  0  0  0  0  0  0
  124.7350  128.9950   66.8040 N   0  0  0  0  0  0  0  0  0  0  0  0
  125.9990  128.5170   67.0690 C   0  0  0  0  0  0  0  0  0  0  0  0
  126.4460  127.5930   68.0190 C   0  0  0  0  0  0  0  0  0  0  0  0
  127.8120  127.3140   68.0390 C   0  0  0  0  0  0  0  0  0  0  0  0
  128.6980  127.9250   67.1570 C   0  0  0  0  0  0  0  0  0  0  0  0
  128.2530  128.8450   66.2090 C   0  0  0  0  0  0  0  0  0  0  0  0
  126.8840  129.1620   66.1480 C   0  0  0  0  0  0  0  0  0  0  0  0
  127.4910  130.5640   63.3300 N   0  0  0  0  0  0  0  0  0  0  0  0
  127.6560  131.6230   62.4730 C   0  0  0  0  0  0  0  0  0  0  0  0
  128.6790  131.6330   61.3850 C   0  0  0  0  0  0  0  0  0  0  0  0
  128.3440  132.1020   60.1140 C   0  0  0  0  0  0  0  0  0  0  0  0
  129.2900  132.1010   59.0940 C   0  0  0  0  0  0  0  0  0  0  0  0
  130.5930  131.6360   59.3200 C   0  0  0  0  0  0  0  0  0  0  0  0
  131.6020  131.6180   58.2160 C   0  0  0  0  0  0  0  0  0  0  0  0
  132.9620  131.3990   58.4870 C   0  0  0  0  0  0  0  0  0  0  0  0
  133.9010  131.3780   57.4570 C   0  0  0  0  0  0  0  0  0  0  0  0
  133.4880  131.5760   56.1430 C   0  0  0  0  0  0  0  0  0  0  0  0
  132.1460  131.7940   55.8520 C   0  0  0  0  0  0  0  0  0  0  0  0
  131.2100  131.8160   56.8830 C   0  0  0  0  0  0  0  0  0  0  0  0
  130.9220  131.1840   60.6060 C   0  0  0  0  0  0  0  0  0  0  0  0
  129.9780  131.1830   61.6290 C   0  0  0  0  0  0  0  0  0  0  0  0
  127.3650  134.8680   62.2010 C   0  0  0  0  0  0  0  0  0  0  0  0
  127.0540  136.1190   61.6750 C   0  0  0  0  0  0  0  0  0  0  0  0
  126.3230  138.4500   59.8860 C   0  0  0  0  0  0  0  0  0  0  0  0
  126.0180  139.7040   59.3630 C   0  0  0  0  0  0  0  0  0  0  0  0
  1  2  2  0
  2  3  1  0
  3  4  2  0
  4  5  1  0
  5  6  2  0
  6  7  1  0
  7  8  2  0
  8  9  1  0
  9 10  1  0
 10 11  2  0
 11 12  1  0
 12 13  2  0
 13 14  1  0
 14 15  1  0
 15 16  2  0
 16 17  1  0
 17 18  2  0
 18 19  1  0
 19 20  2  0
 11 21  1  0
 21 22  1  0
 22 23  1  0
 23 24  2  0
 24 25  1  0
 25 26  2  0
 26 27  1  0
 27 28  2  0
 28 29  1  0
 29 30  2  0
 30 31  1  0
 31 32  2  0
 26 33  1  0
 33 34  2  0
  8 35  1  0
 35 36  2  0
  4 37  1  0
 37 38  2  0
 38  1  1  0
 36  5  1  0
 22  9  2  0
 34 23  1  0
 20 12  1  0
 32 27  1  0
 20 15  1  0
M  END
>  <Binding energies>  (51) 
[-9.45]

>  <Ligand effiencies>  (51) 
[-0.23625]

>  <Interactions>  (51) 
["V-A:LEU:363:CA:3182, V-A:ILE:538:CB:4860, V-A:TYR:539:CD1:4871, V-A:TYR:531:CE2:4791, V-A:TYR:539:C:4865, V-A:ILE:538:CG2:4861, V-A:PRO:540:CB:4883, V-A:TYR:531:CZ:4792, V-A:TYR:539:CE1:4873, V-B:LEU:475:CD2:9230, V-A:PRO:540:CA:4881, V-A:LEU:363:CD1:3186, V-A:ALA:541:CB:4890, V-B:GLY:454:CA:9020, V-B:HIS:383:CD2:8363, V-A:ILE:343:CD1:2991, V-B:PRO:482:CB:9297, V-B:HIS:383:CG:8361, V-B:ILE:369:CG2:8208, V-B:HIS:383:CE1:8365, V-A:VAL:344:CG1:2998, V-B:SER:385:CB:8380, V-A:TYR:539:CB:4869, V-B:LEU:373:CD1:8251, V-B:HIS:383:CB:8360, V-B:PRO:482:CG:9298, V-B:LEU:373:CD2:8252, V-A:GLU:543:CD:4906, V-A:ASP:366:CG:3210, V-A:LEU:363:CB:3184, V-B:GLU:543:CD:9880, V-B:ARG:545:CZ:9898, V-A:TYR:539:CG:4870, V-B:VAL:384:C:8368, V-B:SER:385:CA:8378, V-B:GLU:543:CB:9878, V-B:GLU:543:CG:9879, V-A:ASP:366:CB:3209, H-A:GLU:543:OE1:4907, H-A:GLU:543:OE2:4908, H-B:HIS:456:ND1:9038, H-B:TYR:484:OH:9319, V-A:GLU:543:CB:4904, V-A:GLU:543:CG:4905, V-B:HIS:456:CE1:9040, V-B:ARG:545:CG:9894, V-B:ARG:545:CD:9895, V-A:LEU:363:CG:3185, V-B:HIS:383:CA:8358, V-B:HIS:383:C:8356, V-A:TYR:531:CD2:4789, V-B:ARG:545:CB:9893, H-B:ILE:455:O:9024"]

$$$$
RR4_Rahimova_2017
     RDKit          3D

 40 44  0  0  0  0  0  0  0  0999 V2000
  134.2000  130.6860   57.2980 C   0  0  0  0  0  0  0  0  0  0  0  0
  133.0220  131.2010   56.6890 O   0  0  0  0  0  0  0  0  0  0  0  0
  131.9060  131.4330   57.4690 C   0  0  0  0  0  0  0  0  0  0  0  0
  132.0030  131.0910   58.8160 C   0  0  0  0  0  0  0  0  0  0  0  0
  130.9290  131.2900   59.6780 C   0  0  0  0  0  0  0  0  0  0  0  0
  129.7220  131.8360   59.2170 C   0  0  0  0  0  0  0  0  0  0  0  0
  128.5640  132.0490   60.1500 C   0  0  0  0  0  0  0  0  0  0  0  0
  128.0020  133.3080   60.3850 C   0  0  0  0  0  0  0  0  0  0  0  0
  126.9190  133.4540   61.2620 C   0  0  0  0  0  0  0  0  0  0  0  0
  126.3530  134.8250   61.4410 C   0  0  0  0  0  0  0  0  0  0  0  0
  127.1940  135.8960   61.7550 C   0  0  0  0  0  0  0  0  0  0  0  0
  126.6770  137.1790   61.9130 C   0  0  0  0  0  0  0  0  0  0  0  0
  125.3120  137.4170   61.7530 C   0  0  0  0  0  0  0  0  0  0  0  0
  124.8890  138.7210   61.9280 O   0  0  0  0  0  0  0  0  0  0  0  0
  124.5780  139.5090   60.7830 C   0  0  0  0  0  0  0  0  0  0  0  0
  124.4640  136.3460   61.4330 C   0  0  0  0  0  0  0  0  0  0  0  0
  124.9850  135.0640   61.2760 C   0  0  0  0  0  0  0  0  0  0  0  0
  126.4280  132.3030   61.9260 C   0  0  0  0  0  0  0  0  0  0  0  0
  125.2970  132.3990   62.8530 C   0  0  0  0  0  0  0  0  0  0  0  0
  124.4040  132.4750   63.5850 N   0  0  0  0  0  0  0  0  0  0  0  0
  127.0630  131.0670   61.6640 C   0  0  0  0  0  0  0  0  0  0  0  0
  126.5880  129.5250   62.4150 S   0  0  0  0  0  0  0  0  0  0  0  0
  127.9360  129.0120   63.5320 C   0  0  0  0  0  0  0  0  0  0  0  0
  129.0720  128.2400   62.8470 C   0  0  0  0  0  0  0  0  0  0  0  0
  129.7680  128.7830   61.9860 O   0  0  0  0  0  0  0  0  0  0  0  0
  129.2130  126.9580   63.2570 N   0  0  0  0  0  0  0  0  0  0  0  0
  130.1450  126.0070   62.8310 C   0  0  0  0  0  0  0  0  0  0  0  0
  130.4640  125.6790   61.1490 S   0  0  0  0  0  0  0  0  0  0  0  0
  131.6420  124.4680   61.5520 C   0  0  0  0  0  0  0  0  0  0  0  0
  131.7790  124.3220   62.9410 C   0  0  0  0  0  0  0  0  0  0  0  0
  130.9410  125.2060   63.6640 C   0  0  0  0  0  0  0  0  0  0  0  0
  130.9070  125.2690   65.1220 C   0  0  0  0  0  0  0  0  0  0  0  0
  130.8790  125.3170   66.2780 N   0  0  0  0  0  0  0  0  0  0  0  0
  132.7870  123.3400   63.5500 C   0  0  0  0  0  0  0  0  0  0  0  0
  133.8250  122.8990   62.4930 C   0  0  0  0  0  0  0  0  0  0  0  0
  133.1670  122.5240   61.1540 C   0  0  0  0  0  0  0  0  0  0  0  0
  132.4580  123.7280   60.4990 C   0  0  0  0  0  0  0  0  0  0  0  0
  128.0870  130.9490   60.7870 N   0  0  0  0  0  0  0  0  0  0  0  0
  129.6350  132.1820   57.8590 C   0  0  0  0  0  0  0  0  0  0  0  0
  130.7070  131.9840   56.9940 C   0  0  0  0  0  0  0  0  0  0  0  0
  1  2  1  0
  2  3  1  0
  3  4  2  0
  4  5  1  0
  5  6  2  0
  6  7  1  0
  7  8  2  0
  8  9  1  0
  9 10  1  0
 10 11  2  0
 11 12  1  0
 12 13  2  0
 13 14  1  0
 14 15  1  0
 13 16  1  0
 16 17  2  0
  9 18  2  0
 18 19  1  0
 19 20  3  0
 18 21  1  0
 21 22  1  0
 22 23  1  0
 23 24  1  0
 24 25  2  0
 24 26  1  0
 26 27  1  0
 27 28  1  0
 28 29  1  0
 29 30  2  0
 30 31  1  0
 31 32  1  0
 32 33  3  0
 30 34  1  0
 34 35  1  0
 35 36  1  0
 36 37  1  0
 21 38  2  0
  6 39  1  0
 39 40  2  0
 40  3  1  0
 38  7  1  0
 17 10  1  0
 31 27  2  0
 37 29  1  0
M  END
>  <Binding energies>  (52) 
[-10.16]

>  <Ligand effiencies>  (52) 
[-0.24780487804878049]

>  <Interactions>  (52) 
["V-A:LEU:363:CA:3182, V-A:TYR:539:CD1:4871, V-A:TYR:531:CE2:4791, V-A:TYR:539:C:4865, V-A:PRO:540:CB:4883, V-A:TYR:531:CZ:4792, V-A:TYR:539:CE1:4873, V-B:LEU:475:CD2:9230, V-A:PRO:540:CA:4881, H-A:TYR:531:OH:4793, V-A:LEU:363:CD1:3186, V-A:ALA:541:CB:4890, V-B:TYR:539:CE1:9847, V-B:PRO:482:CB:9297, V-B:HIS:383:CG:8361, V-B:ILE:369:CG2:8208, V-B:SER:385:CB:8380, V-B:LEU:373:CD1:8251, V-B:HIS:383:CB:8360, V-B:PRO:482:CG:9298, V-A:GLU:543:CD:4906, V-A:ASP:366:CG:3210, V-A:LEU:363:CB:3184, V-B:GLU:543:CD:9880, V-B:SER:385:CA:8378, V-A:ILE:369:CG2:3234, V-A:GLY:454:CA:4046, H-A:ARG:545:NH2:4926, V-A:ILE:369:CD1:3236, H-B:GLY:454:N:9021, H-B:GLU:543:OE1:9881, V-A:ASP:366:CB:3209, H-B:ARG:545:NH2:9900, H-B:GLU:543:OE2:9882, H-A:GLU:543:OE2:4908, H-A:TYR:484:OH:4345, V-A:GLY:453:C:4039, V-A:LEU:363:C:3180"]

$$$$
RR6_Rahimova_2017
     RDKit          3D

 38 41  0  0  0  0  0  0  0  0999 V2000
  124.8680  122.8250   56.4810 C   0  0  0  0  0  0  0  0  0  0  0  0
  125.9970  122.0580   56.8770 O   0  0  0  0  0  0  0  0  0  0  0  0
  127.1950  122.6500   57.1140 C   0  0  0  0  0  0  0  0  0  0  0  0
  128.2250  122.3750   56.4890 O   0  0  0  0  0  0  0  0  0  0  0  0
  127.1460  123.6740   58.2120 C   0  0  0  0  0  0  0  0  0  0  0  0
  126.4470  123.4490   59.4070 C   0  0  0  0  0  0  0  0  0  0  0  0
  126.4140  124.4220   60.4030 C   0  0  0  0  0  0  0  0  0  0  0  0
  127.0780  125.6430   60.2170 C   0  0  0  0  0  0  0  0  0  0  0  0
  127.0850  126.7030   61.1430 N   0  0  0  0  0  0  0  0  0  0  0  0
  128.1320  127.3930   61.6460 C   0  0  0  0  0  0  0  0  0  0  0  0
  129.3140  127.2090   61.3560 O   0  0  0  0  0  0  0  0  0  0  0  0
  127.7840  128.4420   62.7070 C   0  0  0  0  0  0  0  0  0  0  0  0
  126.3520  129.4830   62.2680 S   0  0  0  0  0  0  0  0  0  0  0  0
  127.0040  131.0330   61.6820 C   0  0  0  0  0  0  0  0  0  0  0  0
  128.1950  130.9320   61.0450 N   0  0  0  0  0  0  0  0  0  0  0  0
  128.7790  132.0430   60.5280 C   0  0  0  0  0  0  0  0  0  0  0  0
  130.0650  131.8360   59.7840 C   0  0  0  0  0  0  0  0  0  0  0  0
  130.0970  131.8380   58.3810 C   0  0  0  0  0  0  0  0  0  0  0  0
  131.2890  131.6330   57.6910 C   0  0  0  0  0  0  0  0  0  0  0  0
  132.4750  131.4260   58.3930 C   0  0  0  0  0  0  0  0  0  0  0  0
  133.7700  131.1930   57.6370 C   0  0  0  0  0  0  0  0  0  0  0  0
  132.4660  131.4220   59.7860 C   0  0  0  0  0  0  0  0  0  0  0  0
  131.2720  131.6290   60.4710 C   0  0  0  0  0  0  0  0  0  0  0  0
  128.1710  133.2960   60.6570 C   0  0  0  0  0  0  0  0  0  0  0  0
  126.9400  133.4270   61.3160 C   0  0  0  0  0  0  0  0  0  0  0  0
  126.3390  134.7910   61.4020 C   0  0  0  0  0  0  0  0  0  0  0  0
  124.9720  134.9720   61.1710 C   0  0  0  0  0  0  0  0  0  0  0  0
  124.3990  136.2380   61.2650 C   0  0  0  0  0  0  0  0  0  0  0  0
  125.1800  137.3450   61.5950 C   0  0  0  0  0  0  0  0  0  0  0  0
  124.5270  138.5600   61.6670 O   0  0  0  0  0  0  0  0  0  0  0  0
  124.6390  139.4730   60.5800 C   0  0  0  0  0  0  0  0  0  0  0  0
  126.5510  137.1680   61.8330 C   0  0  0  0  0  0  0  0  0  0  0  0
  127.1200  135.9010   61.7390 C   0  0  0  0  0  0  0  0  0  0  0  0
  126.3370  132.2630   61.8530 C   0  0  0  0  0  0  0  0  0  0  0  0
  125.0650  132.3340   62.5800 C   0  0  0  0  0  0  0  0  0  0  0  0
  124.0600  132.3890   63.1510 N   0  0  0  0  0  0  0  0  0  0  0  0
  127.7880  125.8640   59.0360 C   0  0  0  0  0  0  0  0  0  0  0  0
  127.8180  124.8910   58.0400 C   0  0  0  0  0  0  0  0  0  0  0  0
  1  2  1  0
  2  3  1  0
  3  4  2  0
  3  5  1  0
  5  6  2  0
  6  7  1  0
  7  8  2  0
  8  9  1  0
  9 10  1  0
 10 11  2  0
 10 12  1  0
 12 13  1  0
 13 14  1  0
 14 15  2  0
 15 16  1  0
 16 17  1  0
 17 18  2  0
 18 19  1  0
 19 20  2  0
 20 21  1  0
 20 22  1  0
 22 23  2  0
 16 24  2  0
 24 25  1  0
 25 26  1  0
 26 27  2  0
 27 28  1  0
 28 29  2  0
 29 30  1  0
 30 31  1  0
 29 32  1  0
 32 33  2  0
 25 34  2  0
 34 35  1  0
 35 36  3  0
  8 37  1  0
 37 38  2  0
 38  5  1  0
 34 14  1  0
 23 17  1  0
 33 26  1  0
M  END
>  <Binding energies>  (53) 
[-10.4]

>  <Ligand effiencies>  (53) 
[-0.26666666666666666]

>  <Interactions>  (53) 
["V-A:LEU:363:CA:3182, V-A:TYR:539:CD1:4871, V-A:TYR:531:CE2:4791, V-A:TYR:539:C:4865, V-A:PRO:540:CB:4883, V-A:TYR:539:CE1:4873, V-B:LEU:475:CD2:9230, V-A:PRO:540:CA:4881, V-A:LEU:363:CD1:3186, V-A:ALA:541:CB:4890, V-B:ILE:538:CB:9834, V-B:PRO:540:N:9856, V-B:PRO:540:CA:9855, H-B:ASP:366:OD2:8186, V-B:TYR:531:CE2:9765, V-B:TYR:539:C:9839, V-B:PRO:540:CB:9857, V-B:LEU:363:CD1:8160, V-B:ILE:538:CG2:9835, V-B:PRO:482:CB:9297, V-B:HIS:383:CG:8361, V-B:ILE:369:CG2:8208, V-B:SER:385:CB:8380, V-B:LEU:373:CD1:8251, V-B:HIS:383:CB:8360, V-B:PRO:482:CG:9298, V-B:LEU:373:CD2:8252, V-A:ASP:366:CG:3210, V-A:LEU:363:CB:3184, H-B:TYR:539:N:9842, V-B:PRO:540:CD:9859, V-B:SER:385:CA:8378, H-B:GLY:454:N:9021, V-A:ASP:366:CB:3209, H-B:ARG:545:NH2:9900, H-B:ASP:366:OD1:8185"]

$$$$
RR7_Rahimova_2017
     RDKit          3D

 47 53  0  0  0  0  0  0  0  0999 V2000
  134.0030  124.2930   59.3370 C   0  0  0  0  0  0  0  0  0  0  0  0
  133.1760  124.4100   58.1830 O   0  0  0  0  0  0  0  0  0  0  0  0
  131.8500  124.7670   58.3380 C   0  0  0  0  0  0  0  0  0  0  0  0
  131.1460  125.0710   57.1740 C   0  0  0  0  0  0  0  0  0  0  0  0
  129.8050  125.4350   57.2310 C   0  0  0  0  0  0  0  0  0  0  0  0
  129.1360  125.5170   58.4610 C   0  0  0  0  0  0  0  0  0  0  0  0
  127.6240  125.8910   58.5520 C   0  0  0  0  0  0  0  0  0  0  0  0
  127.3020  125.9460   59.9600 O   0  0  0  0  0  0  0  0  0  0  0  0
  127.1820  127.2110   60.6190 C   0  0  0  0  0  0  0  0  0  0  0  0
  128.5360  127.5780   61.2490 C   0  0  1  0  0  0  0  0  0  0  0  0
  128.7870  128.9420   60.9220 O   0  0  0  0  0  0  0  0  0  0  0  0
  128.9430  129.7330   62.0650 C   0  0  1  0  0  0  0  0  0  0  0  0
  128.4360  131.0700   61.8190 N   0  0  0  0  0  0  0  0  0  0  0  0
  129.1590  132.2280   61.5930 C   0  0  0  0  0  0  0  0  0  0  0  0
  128.4450  133.3160   61.4450 N   0  0  0  0  0  0  0  0  0  0  0  0
  127.1570  132.8880   61.6260 C   0  0  0  0  0  0  0  0  0  0  0  0
  125.9250  133.5700   61.6080 C   0  0  0  0  0  0  0  0  0  0  0  0
  125.9240  134.9550   61.3510 N   0  0  0  0  0  0  0  0  0  0  0  0
  124.8730  135.8020   61.2530 C   0  0  0  0  0  0  0  0  0  0  0  0
  123.6930  135.4610   61.3630 O   0  0  0  0  0  0  0  0  0  0  0  0
  125.2200  137.2460   60.9570 C   0  0  0  0  0  0  0  0  0  0  0  0
  126.5270  137.5790   60.5670 C   0  0  0  0  0  0  0  0  0  0  0  0
  126.8660  138.8990   60.2850 C   0  0  0  0  0  0  0  0  0  0  0  0
  125.9020  139.8960   60.3860 C   0  0  0  0  0  0  0  0  0  0  0  0
  124.5990  139.5860   60.7660 C   0  0  0  0  0  0  0  0  0  0  0  0
  124.2580  138.2660   61.0500 C   0  0  0  0  0  0  0  0  0  0  0  0
  124.7720  132.8740   61.8430 N   0  0  0  0  0  0  0  0  0  0  0  0
  124.8750  131.5410   62.0870 C   0  0  0  0  0  0  0  0  0  0  0  0
  126.0060  130.7860   62.1240 N   0  0  0  0  0  0  0  0  0  0  0  0
  127.1180  131.4930   61.8830 C   0  0  0  0  0  0  0  0  0  0  0  0
  128.2370  128.9720   63.1800 C   0  0  0  0  0  0  0  0  0  0  0  0
  128.5680  127.5430   62.7840 C   0  0  2  0  0  0  0  0  0  0  0  0
  129.8260  127.1290   63.2900 O   0  0  0  0  0  0  0  0  0  0  0  0
  127.3270  127.2970   57.9640 C   0  0  0  0  0  0  0  0  0  0  0  0
  128.3620  128.0650   57.4080 C   0  0  0  0  0  0  0  0  0  0  0  0
  128.1100  129.3310   56.8910 C   0  0  0  0  0  0  0  0  0  0  0  0
  126.8180  129.8450   56.9260 C   0  0  0  0  0  0  0  0  0  0  0  0
  125.7760  129.1020   57.4730 C   0  0  0  0  0  0  0  0  0  0  0  0
  126.0290  127.8350   57.9910 C   0  0  0  0  0  0  0  0  0  0  0  0
  126.6420  124.9220   57.8330 C   0  0  0  0  0  0  0  0  0  0  0  0
  126.7940  124.6430   56.4660 C   0  0  0  0  0  0  0  0  0  0  0  0
  125.9150  123.7850   55.8120 C   0  0  0  0  0  0  0  0  0  0  0  0
  124.8670  123.2030   56.5180 C   0  0  0  0  0  0  0  0  0  0  0  0
  124.6890  123.4760   57.8710 C   0  0  0  0  0  0  0  0  0  0  0  0
  125.5690  124.3340   58.5230 C   0  0  0  0  0  0  0  0  0  0  0  0
  129.8450  125.1970   59.6280 C   0  0  0  0  0  0  0  0  0  0  0  0
  131.1870  124.8310   59.5710 C   0  0  0  0  0  0  0  0  0  0  0  0
  1  2  1  0
  2  3  1  0
  3  4  2  0
  4  5  1  0
  5  6  2  0
  6  7  1  0
  7  8  1  0
  8  9  1  0
 10  9  1  1
 10 11  1  0
 11 12  1  0
 12 13  1  6
 13 14  1  0
 14 15  2  0
 15 16  1  0
 16 17  2  0
 17 18  1  0
 18 19  1  0
 19 20  2  0
 19 21  1  0
 21 22  2  0
 22 23  1  0
 23 24  2  0
 24 25  1  0
 25 26  2  0
 17 27  1  0
 27 28  2  0
 28 29  1  0
 29 30  2  0
 12 31  1  0
 31 32  1  0
 32 33  1  6
  7 34  1  0
 34 35  2  0
 35 36  1  0
 36 37  2  0
 37 38  1  0
 38 39  2  0
  7 40  1  0
 40 41  2  0
 41 42  1  0
 42 43  2  0
 43 44  1  0
 44 45  2  0
  6 46  1  0
 46 47  2  0
 47  3  1  0
 32 10  1  0
 39 34  1  0
 45 40  1  0
 30 13  1  0
 30 16  1  0
 26 21  1  0
M  END
>  <Binding energies>  (54) 
[-11.14]

>  <Ligand effiencies>  (54) 
[-0.2273469387755102]

>  <Interactions>  (54) 
["V-A:TYR:539:CD1:4871, V-A:TYR:539:CE1:4873, V-B:LEU:475:CD2:9230, V-A:ALA:541:CB:4890, V-B:ILE:538:CB:9834, V-B:TYR:539:CE1:9847, V-B:PRO:540:CA:9855, V-B:TYR:531:CE2:9765, V-B:TYR:539:CZ:9849, V-B:TYR:531:CZ:9766, V-B:PRO:540:CB:9857, V-B:LEU:363:CD1:8160, V-B:ILE:538:CG2:9835, V-B:HIS:383:CG:8361, V-B:ILE:369:CG2:8208, V-A:VAL:344:CG1:2998, V-B:SER:385:CB:8380, V-A:TYR:539:CB:4869, V-B:LEU:373:CD1:8251, V-B:HIS:383:CB:8360, V-B:PRO:482:CG:9298, V-A:GLU:543:CD:4906, V-A:ASP:366:CG:3210, V-A:MET:535:CE:4833, V-B:GLU:543:CD:9880, V-B:MET:535:CE:9807, V-B:ASP:366:CB:8183, V-B:ASP:366:CG:8184, V-A:TYR:539:CG:4870, V-B:VAL:384:C:8368, V-B:SER:385:CA:8378, H-B:TYR:539:OH:9850, V-A:ILE:369:CG2:3234, V-A:ILE:369:CD1:3236, H-A:TYR:539:O:4866, V-A:ASP:366:CA:3207, V-A:ASP:366:CB:3209, V-A:ILE:369:CB:3233, H-B:GLU:543:OE2:9882, H-A:ALA:541:N:4889, H-A:GLU:543:OE1:4907, H-A:GLU:543:OE2:4908"]

$$$$
RR8_A_Rahimova_2017
     RDKit          3D

 42 46  0  0  0  0  0  0  0  0999 V2000
  129.8300  132.5440   61.4130 O   0  0  0  0  0  0  0  0  0  0  0  0
  129.3620  131.4030   61.4930 C   0  0  0  0  0  0  0  0  0  0  0  0
  129.7430  130.3540   60.6990 O   0  0  0  0  0  0  0  0  0  0  0  0
  129.0520  130.1680   59.4950 C   0  0  1  0  0  0  0  0  0  0  0  0
  128.3830  128.9400   59.4690 O   0  0  0  0  0  0  0  0  0  0  0  0
  127.1140  129.0410   58.8290 C   0  0  2  0  0  0  0  0  0  0  0  0
  127.0600  128.0190   57.6810 C   0  0  0  0  0  0  0  0  0  0  0  0
  126.1570  126.9800   58.0350 O   0  0  0  0  0  0  0  0  0  0  0  0
  126.7920  125.7680   58.4210 C   0  0  0  0  0  0  0  0  0  0  0  0
  126.1080  124.5890   57.7440 C   0  0  0  0  0  0  0  0  0  0  0  0
  126.8100  123.8140   56.8180 C   0  0  0  0  0  0  0  0  0  0  0  0
  126.1880  122.7300   56.2020 C   0  0  0  0  0  0  0  0  0  0  0  0
  124.8660  122.4230   56.5170 C   0  0  0  0  0  0  0  0  0  0  0  0
  124.1600  123.1880   57.4440 C   0  0  0  0  0  0  0  0  0  0  0  0
  124.7820  124.2700   58.0610 C   0  0  0  0  0  0  0  0  0  0  0  0
  127.0350  130.5140   58.4060 C   0  0  1  0  0  0  0  0  0  0  0  0
  125.7330  131.0740   58.5620 O   0  0  0  0  0  0  0  0  0  0  0  0
  124.9020  130.4410   59.5280 C   0  0  0  0  0  0  0  0  0  0  0  0
  124.6620  131.3810   60.7020 C   0  0  0  0  0  0  0  0  0  0  0  0
  123.7980  130.9970   61.7320 C   0  0  0  0  0  0  0  0  0  0  0  0
  123.5660  131.8550   62.8040 C   0  0  0  0  0  0  0  0  0  0  0  0
  124.1970  133.0970   62.8420 C   0  0  0  0  0  0  0  0  0  0  0  0
  125.0530  133.4910   61.8170 C   0  0  0  0  0  0  0  0  0  0  0  0
  125.2840  132.6330   60.7440 C   0  0  0  0  0  0  0  0  0  0  0  0
  127.9480  131.2130   59.3960 C   0  0  2  0  0  0  0  0  0  0  0  0
  128.3890  132.4640   58.8770 O   0  0  0  0  0  0  0  0  0  0  0  0
  128.6540  132.4930   57.4780 C   0  0  0  0  0  0  0  0  0  0  0  0
  130.1380  132.2710   57.2270 C   0  0  0  0  0  0  0  0  0  0  0  0
  131.0250  132.1630   58.3030 C   0  0  0  0  0  0  0  0  0  0  0  0
  132.3810  131.9510   58.0690 C   0  0  0  0  0  0  0  0  0  0  0  0
  132.8470  131.8430   56.7600 C   0  0  0  0  0  0  0  0  0  0  0  0
  131.9690  131.9440   55.6830 C   0  0  0  0  0  0  0  0  0  0  0  0
  130.6120  132.1560   55.9170 C   0  0  0  0  0  0  0  0  0  0  0  0
  128.3100  131.0190   62.4930 C   0  0  0  0  0  0  0  0  0  0  0  0
  127.7670  131.9500   63.3920 C   0  0  0  0  0  0  0  0  0  0  0  0
  126.7940  131.5630   64.3090 C   0  0  0  0  0  0  0  0  0  0  0  0
  126.3400  130.2380   64.3530 C   0  0  0  0  0  0  0  0  0  0  0  0
  125.3020  129.8280   65.3290 N   0  0  0  0  0  0  0  0  0  0  0  0
  125.6530  129.5030   66.4600 O   0  0  0  0  0  0  0  0  0  0  0  0
  124.1270  129.8280   64.9730 O   0  0  0  0  0  0  0  0  0  0  0  0
  126.8840  129.3100   63.4570 C   0  0  0  0  0  0  0  0  0  0  0  0
  127.8570  129.6950   62.5390 C   0  0  0  0  0  0  0  0  0  0  0  0
  1  2  2  0
  2  3  1  0
  4  3  1  1
  4  5  1  0
  5  6  1  0
  6  7  1  6
  7  8  1  0
  8  9  1  0
  9 10  1  0
 10 11  2  0
 11 12  1  0
 12 13  2  0
 13 14  1  0
 14 15  2  0
  6 16  1  0
 16 17  1  1
 17 18  1  0
 18 19  1  0
 19 20  2  0
 20 21  1  0
 21 22  2  0
 22 23  1  0
 23 24  2  0
 16 25  1  0
 25 26  1  6
 26 27  1  0
 27 28  1  0
 28 29  2  0
 29 30  1  0
 30 31  2  0
 31 32  1  0
 32 33  2  0
  2 34  1  0
 34 35  2  0
 35 36  1  0
 36 37  2  0
 37 38  1  0
 38 39  2  0
 38 40  1  0
 37 41  1  0
 41 42  2  0
 25  4  1  0
 33 28  1  0
 42 34  1  0
 15 10  1  0
 24 19  1  0
M  CHG  2  38   1  40  -1
M  END
>  <Binding energies>  (55) 
[-10.3]

>  <Ligand effiencies>  (55) 
[-0.24523809523809526]

>  <Interactions>  (55) 
["V-A:ILE:538:CB:4860, V-A:TYR:539:CD1:4871, V-A:TYR:531:CE2:4791, V-A:TYR:539:C:4865, V-A:TYR:539:CZ:4875, V-A:ILE:538:CG2:4861, V-A:PRO:540:CB:4883, V-A:TYR:531:CZ:4792, V-A:TYR:539:CE1:4873, V-B:LEU:475:CD2:9230, V-A:PRO:540:CA:4881, V-A:LEU:363:CD1:3186, V-A:ALA:541:CB:4890, V-B:ILE:538:CB:9834, V-B:PRO:540:N:9856, V-B:LEU:363:CA:8156, V-B:TYR:531:CE2:9765, H-B:TYR:531:OH:9767, V-B:PRO:540:CB:9857, V-B:LEU:363:CD1:8160, V-B:ILE:538:CG2:9835, V-B:GLY:454:CA:9020, V-B:ILE:369:CG2:8208, V-B:ILE:369:CD1:8210, V-A:ILE:538:CA:4858, V-A:TYR:539:CD2:4872, V-A:PRO:540:CD:4885, V-A:TYR:539:CE2:4874, V-A:GLU:543:CD:4906, V-A:PRO:540:N:4882, V-A:MET:535:CE:4833, V-B:ILE:538:CA:9832, V-B:MET:535:CE:9807, V-B:ASP:366:CB:8183, V-B:PRO:540:CG:9858, V-B:PRO:540:CD:9859, V-B:LEU:363:CB:8158, V-B:ASP:366:CG:8184, V-B:ARG:545:CZ:9898, V-A:TYR:539:CG:4870, H-A:TYR:539:OH:4876, H-B:GLY:454:N:9021, H-B:ARG:545:NH2:9900, H-A:ALA:541:N:4889, H-B:ARG:545:NE:9896, H-B:TYR:484:OH:9319, V-B:GLY:453:C:9013, V-B:GLY:453:CA:9015, H-B:ARG:545:NH1:9899"]

$$$$
RR8_B_Rahimova_2017
     RDKit          3D

 42 46  0  0  0  0  0  0  0  0999 V2000
  124.1280  129.6030   57.5150 O   0  0  0  0  0  0  0  0  0  0  0  0
  124.9640  130.1880   58.2110 C   0  0  0  0  0  0  0  0  0  0  0  0
  126.0850  130.7990   57.7210 O   0  0  0  0  0  0  0  0  0  0  0  0
  126.6260  130.3240   56.5120 C   0  0  2  0  0  0  0  0  0  0  0  0
  126.5250  128.9320   56.4070 O   0  0  0  0  0  0  0  0  0  0  0  0
  127.6890  128.2840   56.9160 C   0  0  2  0  0  0  0  0  0  0  0  0
  127.2870  127.3210   58.0480 C   0  0  0  0  0  0  0  0  0  0  0  0
  128.1220  126.1710   58.0030 O   0  0  0  0  0  0  0  0  0  0  0  0
  127.6810  125.0800   58.7970 C   0  0  0  0  0  0  0  0  0  0  0  0
  126.7130  124.2300   57.9880 C   0  0  0  0  0  0  0  0  0  0  0  0
  127.1740  123.5260   56.8720 C   0  0  0  0  0  0  0  0  0  0  0  0
  126.2880  122.7660   56.1130 C   0  0  0  0  0  0  0  0  0  0  0  0
  124.9430  122.7110   56.4740 C   0  0  0  0  0  0  0  0  0  0  0  0
  124.4780  123.4050   57.5890 C   0  0  0  0  0  0  0  0  0  0  0  0
  125.3630  124.1680   58.3470 C   0  0  0  0  0  0  0  0  0  0  0  0
  128.6150  129.4350   57.3270 C   0  0  1  0  0  0  0  0  0  0  0  0
  129.9760  129.0780   57.0710 O   0  0  0  0  0  0  0  0  0  0  0  0
  130.7940  128.7780   58.2050 C   0  0  0  0  0  0  0  0  0  0  0  0
  131.0340  127.2790   58.3640 C   0  0  0  0  0  0  0  0  0  0  0  0
  131.1650  126.4670   57.2330 C   0  0  0  0  0  0  0  0  0  0  0  0
  131.4170  125.1060   57.3810 C   0  0  0  0  0  0  0  0  0  0  0  0
  131.5330  124.5610   58.6580 C   0  0  0  0  0  0  0  0  0  0  0  0
  131.3990  125.3630   59.7890 C   0  0  0  0  0  0  0  0  0  0  0  0
  131.1510  126.7260   59.6420 C   0  0  0  0  0  0  0  0  0  0  0  0
  128.1270  130.6050   56.4800 C   0  0  2  0  0  0  0  0  0  0  0  0
  128.4940  131.8430   57.0850 O   0  0  0  0  0  0  0  0  0  0  0  0
  129.5360  132.5570   56.4380 C   0  0  0  0  0  0  0  0  0  0  0  0
  130.8540  132.1560   57.0770 C   0  0  0  0  0  0  0  0  0  0  0  0
  130.9780  132.1030   58.4680 C   0  0  0  0  0  0  0  0  0  0  0  0
  132.1970  131.7530   59.0420 C   0  0  0  0  0  0  0  0  0  0  0  0
  133.2870  131.4590   58.2260 C   0  0  0  0  0  0  0  0  0  0  0  0
  133.1700  131.5090   56.8380 C   0  0  0  0  0  0  0  0  0  0  0  0
  131.9510  131.8580   56.2630 C   0  0  0  0  0  0  0  0  0  0  0  0
  124.8720  130.2730   59.7070 C   0  0  0  0  0  0  0  0  0  0  0  0
  125.7710  129.5930   60.5430 C   0  0  0  0  0  0  0  0  0  0  0  0
  125.6570  129.6840   61.9250 C   0  0  0  0  0  0  0  0  0  0  0  0
  124.6380  130.4450   62.5090 C   0  0  0  0  0  0  0  0  0  0  0  0
  124.5020  130.5180   63.9850 N   0  0  0  0  0  0  0  0  0  0  0  0
  124.8840  131.5330   64.5610 O   0  0  0  0  0  0  0  0  0  0  0  0
  124.0070  129.5630   64.5780 O   0  0  0  0  0  0  0  0  0  0  0  0
  123.7440  131.1290   61.6740 C   0  0  0  0  0  0  0  0  0  0  0  0
  123.8610  131.0450   60.2910 C   0  0  0  0  0  0  0  0  0  0  0  0
  1  2  2  0
  2  3  1  0
  4  3  1  1
  4  5  1  0
  5  6  1  0
  6  7  1  1
  7  8  1  0
  8  9  1  0
  9 10  1  0
 10 11  2  0
 11 12  1  0
 12 13  2  0
 13 14  1  0
 14 15  2  0
  6 16  1  0
 16 17  1  6
 17 18  1  0
 18 19  1  0
 19 20  2  0
 20 21  1  0
 21 22  2  0
 22 23  1  0
 23 24  2  0
 16 25  1  0
 25 26  1  1
 26 27  1  0
 27 28  1  0
 28 29  2  0
 29 30  1  0
 30 31  2  0
 31 32  1  0
 32 33  2  0
  2 34  1  0
 34 35  2  0
 35 36  1  0
 36 37  2  0
 37 38  1  0
 38 39  2  0
 38 40  1  0
 37 41  1  0
 41 42  2  0
 25  4  1  0
 33 28  1  0
 42 34  1  0
 15 10  1  0
 24 19  1  0
M  CHG  2  38   1  40  -1
M  END
>  <Binding energies>  (56) 
[-10.39]

>  <Ligand effiencies>  (56) 
[-0.2473809523809524]

>  <Interactions>  (56) 
["V-A:LEU:363:CA:3182, V-A:ILE:538:CB:4860, V-A:TYR:531:CE2:4791, V-A:TYR:539:C:4865, V-A:TYR:539:CZ:4875, V-A:ILE:538:CG2:4861, V-A:PRO:540:CB:4883, V-A:TYR:531:CZ:4792, V-A:TYR:539:CE1:4873, V-A:PRO:540:CA:4881, H-A:TYR:531:OH:4793, V-A:LEU:363:CD1:3186, V-B:ILE:538:CB:9834, V-B:PRO:540:N:9856, V-B:TYR:539:CE1:9847, V-B:TYR:539:CZ:9849, H-B:TYR:531:OH:9767, V-B:PRO:540:CB:9857, V-B:LEU:363:CD1:8160, V-B:ILE:538:CG2:9835, V-B:GLY:454:CA:9020, V-B:ILE:369:CG2:8208, V-B:ILE:369:CD1:8210, V-B:ILE:369:CB:8207, V-A:ILE:538:CA:4858, V-A:PRO:540:N:4882, V-A:ASP:366:CG:3210, V-A:MET:535:CE:4833, V-B:ILE:538:CA:9832, V-B:MET:535:CE:9807, V-B:ASP:366:CB:8183, V-B:PRO:540:CD:9859, V-B:ASP:366:CG:8184, V-B:ARG:545:CZ:9898, H-A:TYR:539:OH:4876, V-B:ASP:366:CA:8181, H-B:GLY:454:N:9021, V-A:ASP:366:CB:3209, H-B:ARG:545:NH2:9900, H-B:ARG:545:NE:9896, H-B:TYR:484:OH:9319, V-B:GLY:453:C:9013, V-B:GLY:453:CA:9015, H-B:ARG:545:NH1:9899"]

$$$$
RR9_Rahimova_2017
     RDKit          3D

 36 40  0  0  0  0  0  0  0  0999 V2000
  126.3790  139.8800   58.7880 C   0  0  0  0  0  0  0  0  0  0  0  0
  126.1220  140.3970   60.2080 C   0  0  0  0  0  0  0  0  0  0  0  0
  125.0730  139.6300   60.7910 O   0  0  0  0  0  0  0  0  0  0  0  0
  125.2590  138.2790   61.0060 C   0  0  0  0  0  0  0  0  0  0  0  0
  126.5660  137.8600   61.2470 C   0  0  0  0  0  0  0  0  0  0  0  0
  126.8500  136.5170   61.4720 C   0  0  0  0  0  0  0  0  0  0  0  0
  125.8320  135.5510   61.4620 C   0  0  0  0  0  0  0  0  0  0  0  0
  126.1330  134.1010   61.6990 C   0  0  0  0  0  0  0  0  0  0  0  0
  127.4140  133.5700   61.4810 C   0  0  0  0  0  0  0  0  0  0  0  0
  127.6940  132.2120   61.7170 C   0  0  0  0  0  0  0  0  0  0  0  0
  129.1090  131.7260   61.5620 C   0  0  0  0  0  0  0  0  0  0  0  0
  130.0230  132.2580   62.1920 O   0  0  0  0  0  0  0  0  0  0  0  0
  129.2880  130.7150   60.6890 N   0  0  0  0  0  0  0  0  0  0  0  0
  130.5790  130.1590   60.2700 C   0  0  0  0  0  0  0  0  0  0  0  0
  131.5230  131.2190   59.6550 C   0  0  0  0  0  0  0  0  0  0  0  0
  131.1100  131.7150   58.2740 C   0  0  0  0  0  0  0  0  0  0  0  0
  132.0310  131.7090   57.2220 C   0  0  0  0  0  0  0  0  0  0  0  0
  131.6410  132.1310   55.9530 C   0  0  0  0  0  0  0  0  0  0  0  0
  130.3330  132.5610   55.7420 C   0  0  0  0  0  0  0  0  0  0  0  0
  129.4110  132.5730   56.7870 C   0  0  0  0  0  0  0  0  0  0  0  0
  129.8000  132.1510   58.0560 C   0  0  0  0  0  0  0  0  0  0  0  0
  126.6070  131.4140   62.1520 C   0  0  0  0  0  0  0  0  0  0  0  0
  126.3370  130.0360   62.4870 C   0  0  0  0  0  0  0  0  0  0  0  0
  127.2330  128.8450   62.3970 C   0  0  0  0  0  0  0  0  0  0  0  0
  128.2490  128.6560   63.3380 C   0  0  0  0  0  0  0  0  0  0  0  0
  129.0940  127.5530   63.2440 C   0  0  0  0  0  0  0  0  0  0  0  0
  128.9220  126.6320   62.2090 C   0  0  0  0  0  0  0  0  0  0  0  0
  129.8550  125.4390   62.0950 C   0  0  0  0  0  0  0  0  0  0  0  0
  127.9100  126.8170   61.2670 C   0  0  0  0  0  0  0  0  0  0  0  0
  127.0650  127.9190   61.3640 C   0  0  0  0  0  0  0  0  0  0  0  0
  125.0970  129.8960   62.8990 N   0  0  0  0  0  0  0  0  0  0  0  0
  124.4940  131.0920   62.8080 N   0  0  0  0  0  0  0  0  0  0  0  0
  125.3600  132.0550   62.3470 C   0  0  0  0  0  0  0  0  0  0  0  0
  125.0890  133.3420   62.1350 N   0  0  0  0  0  0  0  0  0  0  0  0
  124.5200  135.9800   61.2170 C   0  0  0  0  0  0  0  0  0  0  0  0
  124.2320  137.3250   60.9930 C   0  0  0  0  0  0  0  0  0  0  0  0
  1  2  1  0
  2  3  1  0
  3  4  1  0
  4  5  2  0
  5  6  1  0
  6  7  2  0
  7  8  1  0
  8  9  2  0
  9 10  1  0
 10 11  1  0
 11 12  2  0
 11 13  1  0
 13 14  1  0
 14 15  1  0
 15 16  1  0
 16 17  2  0
 17 18  1  0
 18 19  2  0
 19 20  1  0
 20 21  2  0
 10 22  2  0
 22 23  1  0
 23 24  1  0
 24 25  2  0
 25 26  1  0
 26 27  2  0
 27 28  1  0
 27 29  1  0
 29 30  2  0
 23 31  2  0
 31 32  1  0
 32 33  1  0
 33 34  2  0
  7 35  1  0
 35 36  2  0
 36  4  1  0
 34  8  1  0
 21 16  1  0
 33 22  1  0
 30 24  1  0
M  END
>  <Binding energies>  (57) 
[-9.58]

>  <Ligand effiencies>  (57) 
[-0.2521052631578947]

>  <Interactions>  (57) 
["V-A:ILE:538:CB:4860, V-A:TYR:539:CD1:4871, V-A:TYR:531:CE2:4791, V-A:TYR:539:C:4865, V-A:ILE:538:CG2:4861, V-A:PRO:540:CB:4883, V-A:TYR:539:CE1:4873, V-B:LEU:475:CD2:9230, V-A:PRO:540:CA:4881, V-A:ALA:541:CB:4890, V-B:HIS:383:CD2:8363, V-A:ILE:343:CD1:2991, V-B:PRO:482:CB:9297, V-A:ILE:343:CG1:2990, V-B:HIS:383:CG:8361, V-B:ILE:369:CG2:8208, V-B:HIS:383:CE1:8365, V-A:VAL:344:CG1:2998, V-B:SER:385:CB:8380, V-A:TYR:539:CB:4869, V-B:LEU:373:CD1:8251, V-B:HIS:383:CB:8360, V-B:PRO:482:CG:9298, V-A:ILE:538:CA:4858, V-A:GLU:543:CD:4906, V-A:PRO:540:N:4882, V-A:MET:535:CE:4833, V-B:GLU:543:CD:9880, V-A:ILE:538:C:4856, V-A:TYR:539:CG:4870, V-B:VAL:384:C:8368, V-B:SER:385:CA:8378, H-B:ARG:545:NH2:9900, H-A:ALA:541:N:4889"]

$$$$
