1a_Grossjean_2025
     RDKit          3D

 26 27  0  0  0  0  0  0  0  0999 V2000
  126.5830  140.3410   59.0490 C   0  0  0  0  0  0  0  0  0  0  0  0
  125.2680  139.5580   59.1070 C   0  0  0  0  0  0  0  0  0  0  0  0
  124.4870  140.0230   60.2010 O   0  0  0  0  0  0  0  0  0  0  0  0
  124.5410  139.4100   61.4120 C   0  0  0  0  0  0  0  0  0  0  0  0
  124.0130  139.8680   62.4290 O   0  0  0  0  0  0  0  0  0  0  0  0
  125.3210  138.1270   61.3930 C   0  0  0  0  0  0  0  0  0  0  0  0
  124.6330  136.9100   61.3030 C   0  0  0  0  0  0  0  0  0  0  0  0
  125.3280  135.7040   61.2880 C   0  0  0  0  0  0  0  0  0  0  0  0
  126.7210  135.6880   61.3650 C   0  0  0  0  0  0  0  0  0  0  0  0
  127.3190  134.4130   61.3450 N   0  0  0  0  0  0  0  0  0  0  0  0
  126.7870  133.2010   61.6110 C   0  0  0  0  0  0  0  0  0  0  0  0
  125.6190  132.9870   61.9350 O   0  0  0  0  0  0  0  0  0  0  0  0
  127.7530  132.0200   61.4870 C   0  0  0  0  0  0  0  0  0  0  0  0
  129.4910  132.5530   61.4890 S   0  0  0  0  0  0  0  0  0  0  0  0
  130.1520  132.2270   59.8700 C   0  0  0  0  0  0  0  0  0  0  0  0
  129.2790  132.4780   58.8620 N   0  0  0  0  0  0  0  0  0  0  0  0
  129.6780  132.2590   57.5870 C   0  0  0  0  0  0  0  0  0  0  0  0
  128.6450  132.5490   56.5140 C   0  0  0  0  0  0  0  0  0  0  0  0
  130.9520  131.7960   57.2660 C   0  0  0  0  0  0  0  0  0  0  0  0
  131.8660  131.5540   58.2970 C   0  0  0  0  0  0  0  0  0  0  0  0
  133.2620  131.0610   57.9210 C   0  0  0  0  0  0  0  0  0  0  0  0
  131.4740  131.7790   59.6370 C   0  0  0  0  0  0  0  0  0  0  0  0
  132.4300  131.5790   60.7290 C   0  0  0  0  0  0  0  0  0  0  0  0
  133.1870  131.4210   61.5900 N   0  0  0  0  0  0  0  0  0  0  0  0
  127.4190  136.9020   61.4480 C   0  0  0  0  0  0  0  0  0  0  0  0
  126.7230  138.1080   61.4630 C   0  0  0  0  0  0  0  0  0  0  0  0
  1  2  1  0
  2  3  1  0
  3  4  1  0
  4  5  2  0
  4  6  1  0
  6  7  2  0
  7  8  1  0
  8  9  2  0
  9 10  1  0
 10 11  1  0
 11 12  2  0
 11 13  1  0
 13 14  1  0
 14 15  1  0
 15 16  2  0
 16 17  1  0
 17 18  1  0
 17 19  2  0
 19 20  1  0
 20 21  1  0
 20 22  2  0
 22 23  1  0
 23 24  3  0
  9 25  1  0
 25 26  2  0
 26  6  1  0
 22 15  1  0
M  END
>  <Binding energies>  (1) 
[-8.69]

>  <Ligand effiencies>  (1) 
[-0.32185185185185183]

>  <Interactions>  (1) 
["V-A:LEU:363:CA:3182, V-A:TYR:539:CD1:4871, V-A:TYR:539:C:4865, V-A:TYR:539:CZ:4875, V-A:PRO:540:CB:4883, V-A:TYR:539:CE1:4873, V-B:LEU:475:CD2:9230, V-A:PRO:540:CA:4881, V-A:LEU:363:CD1:3186, V-A:ALA:541:CB:4890, V-B:HIS:383:CD2:8363, V-A:ILE:343:CD1:2991, V-B:PRO:482:CB:9297, V-A:ILE:343:CG1:2990, V-B:HIS:383:CG:8361, V-B:HIS:383:CE1:8365, V-A:VAL:344:CG1:2998, V-B:SER:385:CB:8380, V-A:TYR:539:CB:4869, V-B:LEU:373:CD1:8251, V-B:HIS:383:CB:8360, V-B:PRO:482:CG:9298, V-B:LEU:373:CD2:8252, V-A:TYR:539:CD2:4872, V-A:TYR:539:CE2:4874, V-A:PRO:540:N:4882, V-A:ASP:366:CG:3210, V-A:MET:535:CE:4833, V-B:LEU:373:CG:8250, V-A:TYR:539:CG:4870, V-B:SER:385:CA:8378, H-A:ARG:545:NH2:4926, H-A:TYR:539:O:4866, H-B:SER:385:N:8379, V-A:ASP:366:CB:3209, H-A:ALA:541:N:4889, H-B:SER:385:OG:8381"]

$$$$
1aa_Ghoteimi_2023
     RDKit          3D

 40 43  0  0  0  0  0  0  0  0999 V2000
  133.3590  121.6610   61.2260 C   0  0  0  0  0  0  0  0  0  0  0  0
  133.9200  122.7600   62.1330 C   0  0  0  0  0  0  0  0  0  0  0  0
  133.1980  123.9660   61.9180 O   0  0  0  0  0  0  0  0  0  0  0  0
  133.0350  124.8720   62.9160 C   0  0  0  0  0  0  0  0  0  0  0  0
  133.8580  125.0450   63.8200 O   0  0  0  0  0  0  0  0  0  0  0  0
  131.7510  125.6450   62.8130 C   0  0  0  0  0  0  0  0  0  0  0  0
  131.3460  126.2540   61.6150 C   0  0  0  0  0  0  0  0  0  0  0  0
  130.1500  126.9640   61.5480 C   0  0  0  0  0  0  0  0  0  0  0  0
  129.3330  127.0760   62.6830 C   0  0  0  0  0  0  0  0  0  0  0  0
  128.1080  127.7660   62.7340 N   0  0  0  0  0  0  0  0  0  0  0  0
  127.4990  128.5400   61.8070 C   0  0  0  0  0  0  0  0  0  0  0  0
  127.9460  128.7780   60.6850 O   0  0  0  0  0  0  0  0  0  0  0  0
  126.1470  129.1640   62.1880 C   0  0  0  0  0  0  0  0  0  0  0  0
  126.3430  130.4080   62.8720 O   0  0  0  0  0  0  0  0  0  0  0  0
  126.8960  131.4940   62.2080 C   0  0  0  0  0  0  0  0  0  0  0  0
  128.1000  131.3250   61.5950 N   0  0  0  0  0  0  0  0  0  0  0  0
  128.6810  132.3680   60.9470 C   0  0  0  0  0  0  0  0  0  0  0  0
  130.0060  132.0990   60.2950 C   0  0  0  0  0  0  0  0  0  0  0  0
  131.1170  131.7040   61.0540 C   0  0  0  0  0  0  0  0  0  0  0  0
  132.3480  131.4560   60.4520 C   0  0  0  0  0  0  0  0  0  0  0  0
  132.5060  131.5930   59.0750 C   0  0  0  0  0  0  0  0  0  0  0  0
  133.7630  131.3270   58.5660 O   0  0  0  0  0  0  0  0  0  0  0  0
  133.8810  130.8120   57.2440 C   0  0  0  0  0  0  0  0  0  0  0  0
  131.4040  131.9830   58.3020 C   0  0  0  0  0  0  0  0  0  0  0  0
  130.1750  132.2290   58.9060 C   0  0  0  0  0  0  0  0  0  0  0  0
  128.0440  133.6140   60.8860 C   0  0  0  0  0  0  0  0  0  0  0  0
  126.7990  133.8120   61.4990 C   0  0  0  0  0  0  0  0  0  0  0  0
  126.1670  135.1600   61.3890 C   0  0  0  0  0  0  0  0  0  0  0  0
  124.8100  135.2770   61.0720 C   0  0  0  0  0  0  0  0  0  0  0  0
  124.2110  136.5300   60.9770 C   0  0  0  0  0  0  0  0  0  0  0  0
  124.9520  137.6890   61.2020 C   0  0  0  0  0  0  0  0  0  0  0  0
  124.2750  138.8880   61.0850 O   0  0  0  0  0  0  0  0  0  0  0  0
  124.7130  140.0100   61.8430 C   0  0  0  0  0  0  0  0  0  0  0  0
  126.3120  137.5770   61.5280 C   0  0  0  0  0  0  0  0  0  0  0  0
  126.9100  136.3230   61.6220 C   0  0  0  0  0  0  0  0  0  0  0  0
  126.2150  132.7230   62.1870 C   0  0  0  0  0  0  0  0  0  0  0  0
  124.9390  132.8470   62.8940 C   0  0  0  0  0  0  0  0  0  0  0  0
  123.9310  132.9420   63.4540 N   0  0  0  0  0  0  0  0  0  0  0  0
  129.7350  126.4730   63.8760 C   0  0  0  0  0  0  0  0  0  0  0  0
  130.9300  125.7640   63.9410 C   0  0  0  0  0  0  0  0  0  0  0  0
  1  2  1  0
  2  3  1  0
  3  4  1  0
  4  5  2  0
  4  6  1  0
  6  7  2  0
  7  8  1  0
  8  9  2  0
  9 10  1  0
 10 11  1  0
 11 12  2  0
 11 13  1  0
 13 14  1  0
 14 15  1  0
 15 16  2  0
 16 17  1  0
 17 18  1  0
 18 19  2  0
 19 20  1  0
 20 21  2  0
 21 22  1  0
 22 23  1  0
 21 24  1  0
 24 25  2  0
 17 26  2  0
 26 27  1  0
 27 28  1  0
 28 29  2  0
 29 30  1  0
 30 31  2  0
 31 32  1  0
 32 33  1  0
 31 34  1  0
 34 35  2  0
 27 36  2  0
 36 37  1  0
 37 38  3  0
  9 39  1  0
 39 40  2  0
 40  6  1  0
 36 15  1  0
 25 18  1  0
 35 28  1  0
M  END
>  <Binding energies>  (2) 
[-8.69]

>  <Ligand effiencies>  (2) 
[-0.21195121951219512]

>  <Interactions>  (2) 
["V-A:LEU:363:CA:3182, V-A:PRO:540:C:4879, V-A:TYR:539:CD1:4871, V-A:TYR:531:CE2:4791, V-A:TYR:539:C:4865, V-A:PRO:540:CB:4883, V-A:TYR:531:CZ:4792, V-A:TYR:539:CE1:4873, V-B:LEU:475:CD2:9230, V-A:PRO:540:CA:4881, V-A:LEU:363:CD1:3186, V-A:ALA:541:CB:4890, V-A:LEU:475:CD2:4256, V-B:GLY:454:CA:9020, V-B:PRO:482:CB:9297, V-B:ILE:369:CG2:8208, V-B:SER:385:CB:8380, V-B:LEU:373:CD1:8251, V-B:THR:477:CA:9241, V-B:HIS:383:CB:8360, V-B:PRO:482:CG:9298, V-A:GLU:543:CD:4906, V-A:PRO:540:N:4882, V-A:ASP:366:CG:3210, V-B:GLU:543:CD:9880, V-B:SER:385:CA:8378, V-A:ARG:545:CZ:4924, V-A:ILE:369:CG2:3234, V-A:GLY:454:CA:4046, H-A:ARG:545:NH2:4926, V-A:ILE:369:CD1:3236, H-B:GLY:454:N:9021, H-B:GLU:543:OE1:9881, V-A:ASP:366:CB:3209, H-B:GLU:543:OE2:9882, H-A:ARG:545:NE:4922, H-A:GLY:454:N:4047, H-A:ARG:545:NH1:4925, H-A:LEU:363:N:3183"]

$$$$
1b_Grossjean_2025
     RDKit          3D

 25 26  0  0  0  0  0  0  0  0999 V2000
  125.2060  139.7150   59.1050 C   0  0  0  0  0  0  0  0  0  0  0  0
  124.2860  139.9580   60.1600 O   0  0  0  0  0  0  0  0  0  0  0  0
  124.4920  139.4420   61.3990 C   0  0  0  0  0  0  0  0  0  0  0  0
  124.0710  139.9680   62.4340 O   0  0  0  0  0  0  0  0  0  0  0  0
  125.2770  138.1620   61.3850 C   0  0  0  0  0  0  0  0  0  0  0  0
  124.6490  136.9070   61.3800 C   0  0  0  0  0  0  0  0  0  0  0  0
  125.4060  135.7390   61.3680 C   0  0  0  0  0  0  0  0  0  0  0  0
  126.8000  135.7980   61.3620 C   0  0  0  0  0  0  0  0  0  0  0  0
  127.4610  134.5550   61.3520 N   0  0  0  0  0  0  0  0  0  0  0  0
  127.4450  133.5520   62.2580 C   0  0  0  0  0  0  0  0  0  0  0  0
  126.8050  133.5490   63.3090 O   0  0  0  0  0  0  0  0  0  0  0  0
  128.2970  132.3340   61.9020 C   0  0  0  0  0  0  0  0  0  0  0  0
  128.4190  132.0830   60.1050 S   0  0  0  0  0  0  0  0  0  0  0  0
  130.1470  131.9290   59.7060 C   0  0  0  0  0  0  0  0  0  0  0  0
  130.9250  131.5970   60.7670 N   0  0  0  0  0  0  0  0  0  0  0  0
  132.2570  131.4520   60.5760 C   0  0  0  0  0  0  0  0  0  0  0  0
  133.0610  131.0650   61.8030 C   0  0  0  0  0  0  0  0  0  0  0  0
  132.8630  131.6410   59.3360 C   0  0  0  0  0  0  0  0  0  0  0  0
  132.0730  132.0060   58.2420 C   0  0  0  0  0  0  0  0  0  0  0  0
  132.7620  132.2240   56.8960 C   0  0  0  0  0  0  0  0  0  0  0  0
  130.6790  132.1630   58.4170 C   0  0  0  0  0  0  0  0  0  0  0  0
  129.8380  132.5870   57.2950 C   0  0  0  0  0  0  0  0  0  0  0  0
  129.1760  132.9220   56.4070 N   0  0  0  0  0  0  0  0  0  0  0  0
  127.4350  137.0490   61.3680 C   0  0  0  0  0  0  0  0  0  0  0  0
  126.6770  138.2160   61.3780 C   0  0  0  0  0  0  0  0  0  0  0  0
  1  2  1  0
  2  3  1  0
  3  4  2  0
  3  5  1  0
  5  6  2  0
  6  7  1  0
  7  8  2  0
  8  9  1  0
  9 10  1  0
 10 11  2  0
 10 12  1  0
 12 13  1  0
 13 14  1  0
 14 15  2  0
 15 16  1  0
 16 17  1  0
 16 18  2  0
 18 19  1  0
 19 20  1  0
 19 21  2  0
 21 22  1  0
 22 23  3  0
  8 24  1  0
 24 25  2  0
 25  5  1  0
 21 14  1  0
M  END
>  <Binding energies>  (3) 
[-8.8]

>  <Ligand effiencies>  (3) 
[-0.3384615384615385]

>  <Interactions>  (3) 
["V-A:TYR:539:CD1:4871, V-A:TYR:531:CE2:4791, V-A:TYR:539:C:4865, V-A:PRO:540:CB:4883, V-A:TYR:539:CE1:4873, V-B:LEU:475:CD2:9230, V-A:PRO:540:CA:4881, V-A:LEU:363:CD1:3186, V-A:ALA:541:CB:4890, V-B:HIS:383:CD2:8363, V-A:ILE:343:CD1:2991, V-B:PRO:482:CB:9297, V-B:HIS:383:CG:8361, V-B:SER:385:CB:8380, V-A:TYR:539:CB:4869, V-B:LEU:373:CD1:8251, V-B:HIS:383:CB:8360, V-B:PRO:482:CG:9298, V-B:LEU:373:CD2:8252, V-A:ASN:362:CB:3173, V-A:PRO:540:CD:4885, V-A:PRO:540:N:4882, H-A:TYR:539:N:4868, V-B:LEU:373:CG:8250, V-B:SER:385:CA:8378, V-A:ARG:545:CZ:4924, H-A:TYR:539:O:4866, H-A:ALA:541:N:4889, H-B:SER:385:OG:8381"]

$$$$
1c_Grossjean_2025
     RDKit          3D

 23 24  0  0  0  0  0  0  0  0999 V2000
  123.9560  140.4080   62.0790 C   0  0  0  0  0  0  0  0  0  0  0  0
  123.8220  139.3970   61.0860 O   0  0  0  0  0  0  0  0  0  0  0  0
  124.6230  138.2730   61.1570 C   0  0  0  0  0  0  0  0  0  0  0  0
  125.9790  138.4900   61.4030 C   0  0  0  0  0  0  0  0  0  0  0  0
  126.8660  137.4210   61.4930 C   0  0  0  0  0  0  0  0  0  0  0  0
  126.3990  136.1070   61.3420 C   0  0  0  0  0  0  0  0  0  0  0  0
  127.2080  134.9570   61.4040 N   0  0  0  0  0  0  0  0  0  0  0  0
  127.0040  133.8000   62.0690 C   0  0  0  0  0  0  0  0  0  0  0  0
  126.0170  133.5340   62.7550 O   0  0  0  0  0  0  0  0  0  0  0  0
  128.1140  132.7560   61.9250 C   0  0  0  0  0  0  0  0  0  0  0  0
  128.5480  132.4650   60.1840 S   0  0  0  0  0  0  0  0  0  0  0  0
  130.2900  132.1070   60.0910 C   0  0  0  0  0  0  0  0  0  0  0  0
  130.8620  131.8890   61.3030 N   0  0  0  0  0  0  0  0  0  0  0  0
  132.1850  131.6080   61.3580 C   0  0  0  0  0  0  0  0  0  0  0  0
  132.7490  131.3660   62.7460 C   0  0  0  0  0  0  0  0  0  0  0  0
  132.9870  131.5430   60.2220 C   0  0  0  0  0  0  0  0  0  0  0  0
  132.4150  131.7900   58.9700 C   0  0  0  0  0  0  0  0  0  0  0  0
  133.3190  131.7310   57.7410 C   0  0  0  0  0  0  0  0  0  0  0  0
  131.0350  132.0890   58.8880 C   0  0  0  0  0  0  0  0  0  0  0  0
  130.4290  132.4040   57.5920 C   0  0  0  0  0  0  0  0  0  0  0  0
  129.9510  132.6520   56.5680 N   0  0  0  0  0  0  0  0  0  0  0  0
  125.0450  135.8870   61.0850 C   0  0  0  0  0  0  0  0  0  0  0  0
  124.1610  136.9580   60.9950 C   0  0  0  0  0  0  0  0  0  0  0  0
  1  2  1  0
  2  3  1  0
  3  4  2  0
  4  5  1  0
  5  6  2  0
  6  7  1  0
  7  8  1  0
  8  9  2  0
  8 10  1  0
 10 11  1  0
 11 12  1  0
 12 13  2  0
 13 14  1  0
 14 15  1  0
 14 16  2  0
 16 17  1  0
 17 18  1  0
 17 19  2  0
 19 20  1  0
 20 21  3  0
  6 22  1  0
 22 23  2  0
 23  3  1  0
 19 12  1  0
M  END
>  <Binding energies>  (4) 
[-8.74]

>  <Ligand effiencies>  (4) 
[-0.3641666666666667]

>  <Interactions>  (4) 
["V-A:LEU:363:CA:3182, V-A:PRO:540:C:4879, V-A:TYR:539:CD1:4871, V-A:TYR:539:C:4865, V-A:PRO:540:CB:4883, V-A:TYR:539:CE1:4873, V-B:LEU:475:CD2:9230, V-A:PRO:540:CA:4881, V-A:LEU:363:CD1:3186, V-A:ALA:541:CB:4890, V-B:PRO:482:CB:9297, V-B:HIS:383:CG:8361, V-B:SER:385:CB:8380, V-B:LEU:373:CD1:8251, V-B:THR:477:CA:9241, V-B:THR:477:CG2:9244, V-B:HIS:383:CB:8360, V-B:PRO:482:CG:9298, V-A:ASN:362:CB:3173, V-A:ALA:541:C:4886, V-A:GLU:543:CD:4906, V-A:PRO:540:N:4882, V-A:ASP:366:CG:3210, H-A:TYR:539:N:4868, V-A:LEU:363:CB:3184, V-B:VAL:384:C:8368, V-B:SER:385:CA:8378, V-A:ARG:545:CZ:4924, H-A:TYR:539:O:4866, H-B:SER:385:N:8379, H-A:ALA:541:N:4889, V-A:ASN:362:CG:3174, V-B:THR:477:CB:9243"]

$$$$
1d_Grossjean_2025
     RDKit          3D

 21 22  0  0  0  0  0  0  0  0999 V2000
  132.3700  131.1680   62.5400 C   0  0  0  0  0  0  0  0  0  0  0  0
  131.7890  131.5520   61.1940 C   0  0  0  0  0  0  0  0  0  0  0  0
  132.5380  131.4610   60.0230 C   0  0  0  0  0  0  0  0  0  0  0  0
  131.9470  131.8200   58.8070 C   0  0  0  0  0  0  0  0  0  0  0  0
  132.7840  131.6960   57.5350 C   0  0  0  0  0  0  0  0  0  0  0  0
  130.6080  132.2740   58.7970 C   0  0  0  0  0  0  0  0  0  0  0  0
  129.9530  132.6090   57.5300 C   0  0  0  0  0  0  0  0  0  0  0  0
  129.4390  132.8730   56.5280 N   0  0  0  0  0  0  0  0  0  0  0  0
  129.9310  132.3580   60.0360 C   0  0  0  0  0  0  0  0  0  0  0  0
  128.2480  132.9090   60.2090 S   0  0  0  0  0  0  0  0  0  0  0  0
  128.1590  133.9170   61.7200 C   0  0  0  0  0  0  0  0  0  0  0  0
  127.0410  134.9590   61.6520 C   0  0  0  0  0  0  0  0  0  0  0  0
  125.8770  134.6030   61.8320 O   0  0  0  0  0  0  0  0  0  0  0  0
  127.4450  136.2260   61.4160 N   0  0  0  0  0  0  0  0  0  0  0  0
  126.6870  137.4030   61.2770 C   0  0  0  0  0  0  0  0  0  0  0  0
  127.0740  138.2540   60.2380 C   0  0  0  0  0  0  0  0  0  0  0  0
  126.3870  139.4430   60.0090 C   0  0  0  0  0  0  0  0  0  0  0  0
  125.3050  139.7810   60.8180 C   0  0  0  0  0  0  0  0  0  0  0  0
  124.9040  138.9380   61.8520 C   0  0  0  0  0  0  0  0  0  0  0  0
  125.5890  137.7490   62.0830 C   0  0  0  0  0  0  0  0  0  0  0  0
  130.5070  131.9870   61.2080 N   0  0  0  0  0  0  0  0  0  0  0  0
  1  2  1  0
  2  3  2  0
  3  4  1  0
  4  5  1  0
  4  6  2  0
  6  7  1  0
  7  8  3  0
  6  9  1  0
  9 10  1  0
 10 11  1  0
 11 12  1  0
 12 13  2  0
 12 14  1  0
 14 15  1  0
 15 16  2  0
 16 17  1  0
 17 18  2  0
 18 19  1  0
 19 20  2  0
  9 21  2  0
 21  2  1  0
 20 15  1  0
M  END
>  <Binding energies>  (5) 
[-9.07]

>  <Ligand effiencies>  (5) 
[-0.4122727272727273]

>  <Interactions>  (5) 
["V-A:PRO:540:C:4879, V-A:TYR:539:CD1:4871, V-A:TYR:539:C:4865, V-A:PRO:540:CB:4883, V-A:TYR:539:CE1:4873, V-B:LEU:475:CD2:9230, V-A:PRO:540:CA:4881, V-A:LEU:363:CD1:3186, V-A:ALA:541:CB:4890, V-B:PRO:482:CB:9297, V-B:HIS:383:CG:8361, V-A:VAL:344:CG1:2998, V-B:SER:385:CB:8380, V-A:TYR:539:CB:4869, V-B:LEU:475:CG:9228, V-B:HIS:383:CB:8360, V-B:PRO:482:CG:9298, V-A:ASN:362:CB:3173, V-A:GLU:543:CD:4906, V-A:PRO:540:N:4882, H-A:TYR:539:N:4868, V-A:TYR:539:CG:4870, V-B:SER:385:CA:8378, V-A:ARG:545:CZ:4924, H-A:TYR:539:O:4866, H-A:ALA:541:N:4889"]

$$$$
1e_Grossjean_2025
     RDKit          3D

 22 23  0  0  0  0  0  0  0  0999 V2000
  123.9530  129.5490   67.1880 C   0  0  0  0  0  0  0  0  0  0  0  0
  124.8700  129.6130   65.9810 C   0  0  0  0  0  0  0  0  0  0  0  0
  126.2510  129.4340   66.1010 C   0  0  0  0  0  0  0  0  0  0  0  0
  127.0320  129.5090   64.9480 C   0  0  0  0  0  0  0  0  0  0  0  0
  126.4230  129.7600   63.7160 C   0  0  0  0  0  0  0  0  0  0  0  0
  125.0340  129.9240   63.6660 C   0  0  0  0  0  0  0  0  0  0  0  0
  124.4790  130.1860   62.4000 N   0  0  0  0  0  0  0  0  0  0  0  0
  124.4170  131.3610   61.7360 C   0  0  0  0  0  0  0  0  0  0  0  0
  124.8460  132.4350   62.1590 O   0  0  0  0  0  0  0  0  0  0  0  0
  123.7290  131.3170   60.3700 C   0  0  0  0  0  0  0  0  0  0  0  0
  124.6570  130.3130   59.1720 S   0  0  0  0  0  0  0  0  0  0  0  0
  126.3090  130.9670   59.0370 C   0  0  0  0  0  0  0  0  0  0  0  0
  126.6920  131.6920   60.1200 N   0  0  0  0  0  0  0  0  0  0  0  0
  127.9280  132.2430   60.1320 C   0  0  0  0  0  0  0  0  0  0  0  0
  128.2880  133.0310   61.3760 C   0  0  0  0  0  0  0  0  0  0  0  0
  128.8220  132.1070   59.0720 C   0  0  0  0  0  0  0  0  0  0  0  0
  128.4290  131.3840   57.9410 C   0  0  0  0  0  0  0  0  0  0  0  0
  129.4210  131.2650   56.7850 C   0  0  0  0  0  0  0  0  0  0  0  0
  127.1410  130.8020   57.9040 C   0  0  0  0  0  0  0  0  0  0  0  0
  126.6930  130.0910   56.7040 C   0  0  0  0  0  0  0  0  0  0  0  0
  126.3420  129.5300   55.7550 N   0  0  0  0  0  0  0  0  0  0  0  0
  124.2640  129.8560   64.7920 N   0  0  0  0  0  0  0  0  0  0  0  0
  1  2  1  0
  2  3  2  0
  3  4  1  0
  4  5  2  0
  5  6  1  0
  6  7  1  0
  7  8  1  0
  8  9  2  0
  8 10  1  0
 10 11  1  0
 11 12  1  0
 12 13  2  0
 13 14  1  0
 14 15  1  0
 14 16  2  0
 16 17  1  0
 17 18  1  0
 17 19  2  0
 19 20  1  0
 20 21  3  0
  6 22  2  0
 22  2  1  0
 19 12  1  0
M  END
>  <Binding energies>  (6) 
[-7.57]

>  <Ligand effiencies>  (6) 
[-0.3291304347826087]

>  <Interactions>  (6) 
["V-A:TYR:539:CD1:4871, V-A:TYR:539:CZ:4875, V-A:TYR:539:CE1:4873, V-A:ALA:541:CB:4890, H-B:ASP:366:OD2:8186, H-B:TYR:531:OH:9767, V-B:GLY:454:CA:9020, V-B:ILE:369:CG2:8208, V-B:ILE:369:CD1:8210, V-B:ILE:369:CB:8207, V-A:GLU:543:CD:4906, V-A:MET:535:CE:4833, V-B:ARG:545:CZ:9898, H-A:TYR:539:OH:4876, H-B:GLY:454:N:9021, H-B:ARG:545:NH2:9900, H-B:ASN:370:ND2:8219, H-B:ASP:366:OD1:8185, H-B:ARG:545:NE:9896, H-B:TYR:484:OH:9319, V-B:HIS:456:CE1:9040, V-B:ARG:545:CG:9894, V-B:ARG:545:CD:9895, H-B:ARG:545:NH1:9899, V-B:ARG:545:CB:9893"]

$$$$
1f_Grossjean_2025
     RDKit          3D

 21 22  0  0  0  0  0  0  0  0999 V2000
  132.3980  131.4060   62.5960 C   0  0  0  0  0  0  0  0  0  0  0  0
  131.7740  131.6950   61.2430 C   0  0  0  0  0  0  0  0  0  0  0  0
  132.4990  131.5620   60.0620 C   0  0  0  0  0  0  0  0  0  0  0  0
  131.8730  131.8550   58.8450 C   0  0  0  0  0  0  0  0  0  0  0  0
  132.6940  131.7200   57.5640 C   0  0  0  0  0  0  0  0  0  0  0  0
  130.5220  132.2690   58.8440 C   0  0  0  0  0  0  0  0  0  0  0  0
  129.8660  132.6330   57.5850 C   0  0  0  0  0  0  0  0  0  0  0  0
  129.3510  132.9200   56.5900 N   0  0  0  0  0  0  0  0  0  0  0  0
  129.8540  132.3480   60.0890 C   0  0  0  0  0  0  0  0  0  0  0  0
  128.1560  132.8490   60.2850 S   0  0  0  0  0  0  0  0  0  0  0  0
  128.0590  134.0290   61.6740 C   0  0  0  0  0  0  0  0  0  0  0  0
  126.8750  135.0050   61.6120 C   0  0  0  0  0  0  0  0  0  0  0  0
  125.7180  134.5880   61.6750 O   0  0  0  0  0  0  0  0  0  0  0  0
  127.2220  136.3010   61.4630 N   0  0  0  0  0  0  0  0  0  0  0  0
  126.4070  137.4460   61.3780 C   0  0  0  0  0  0  0  0  0  0  0  0
  125.9340  138.1980   62.4700 C   0  0  0  0  0  0  0  0  0  0  0  0
  125.1330  139.3200   62.2410 C   0  0  0  0  0  0  0  0  0  0  0  0
  124.8260  139.6650   60.9240 C   0  0  0  0  0  0  0  0  0  0  0  0
  125.2740  138.9600   59.8550 N   0  0  0  0  0  0  0  0  0  0  0  0
  126.0510  137.8720   60.0940 C   0  0  0  0  0  0  0  0  0  0  0  0
  130.4780  132.0860   61.2650 N   0  0  0  0  0  0  0  0  0  0  0  0
  1  2  1  0
  2  3  2  0
  3  4  1  0
  4  5  1  0
  4  6  2  0
  6  7  1  0
  7  8  3  0
  6  9  1  0
  9 10  1  0
 10 11  1  0
 11 12  1  0
 12 13  2  0
 12 14  1  0
 14 15  1  0
 15 16  2  0
 16 17  1  0
 17 18  2  0
 18 19  1  0
 19 20  2  0
  9 21  2  0
 21  2  1  0
 20 15  1  0
M  END
>  <Binding energies>  (7) 
[-8.67]

>  <Ligand effiencies>  (7) 
[-0.3940909090909091]

>  <Interactions>  (7) 
["V-A:PRO:540:C:4879, V-A:TYR:539:CD1:4871, V-A:TYR:539:C:4865, V-A:PRO:540:CB:4883, V-A:TYR:539:CE1:4873, V-B:LEU:475:CD2:9230, V-A:PRO:540:CA:4881, V-A:LEU:363:CD1:3186, V-A:ALA:541:CB:4890, V-B:PRO:482:CB:9297, V-B:HIS:383:CG:8361, V-B:SER:385:CB:8380, V-A:TYR:539:CB:4869, V-B:LEU:373:CD1:8251, V-B:LEU:475:CG:9228, V-B:HIS:383:CB:8360, V-B:PRO:482:CG:9298, V-A:ASN:362:CB:3173, V-A:ALA:541:C:4886, V-A:GLU:543:CD:4906, V-A:PRO:540:N:4882, H-A:TYR:539:N:4868, V-A:TYR:539:CG:4870, V-A:ARG:545:CZ:4924, H-A:TYR:539:O:4866, H-A:ALA:541:N:4889"]

$$$$
1g_Grossjean_2025
     RDKit          3D

 22 23  0  0  0  0  0  0  0  0999 V2000
  132.6550  131.4100   62.4080 C   0  0  0  0  0  0  0  0  0  0  0  0
  132.0760  131.6680   61.0290 C   0  0  0  0  0  0  0  0  0  0  0  0
  132.8290  131.4700   59.8730 C   0  0  0  0  0  0  0  0  0  0  0  0
  132.2470  131.7390   58.6300 C   0  0  0  0  0  0  0  0  0  0  0  0
  133.0970  131.5300   57.3770 C   0  0  0  0  0  0  0  0  0  0  0  0
  130.9110  132.1950   58.5750 C   0  0  0  0  0  0  0  0  0  0  0  0
  130.2980  132.5330   57.2880 C   0  0  0  0  0  0  0  0  0  0  0  0
  129.8170  132.8010   56.2700 N   0  0  0  0  0  0  0  0  0  0  0  0
  130.2140  132.3430   59.7980 C   0  0  0  0  0  0  0  0  0  0  0  0
  128.5270  132.8960   59.9130 S   0  0  0  0  0  0  0  0  0  0  0  0
  128.2640  133.4750   61.6160 C   0  0  0  0  0  0  0  0  0  0  0  0
  126.8640  134.0600   61.8120 C   0  0  0  0  0  0  0  0  0  0  0  0
  125.9930  133.3970   62.3770 O   0  0  0  0  0  0  0  0  0  0  0  0
  126.6650  135.3000   61.3350 N   0  0  0  0  0  0  0  0  0  0  0  0
  125.4280  136.0700   61.4630 C   0  0  0  0  0  0  0  0  0  0  0  0
  125.5040  137.4810   60.8880 C   0  0  0  0  0  0  0  0  0  0  0  0
  124.4070  138.3420   61.0030 C   0  0  0  0  0  0  0  0  0  0  0  0
  124.4760  139.6300   60.4780 C   0  0  0  0  0  0  0  0  0  0  0  0
  125.6430  140.0550   59.8450 C   0  0  0  0  0  0  0  0  0  0  0  0
  126.7400  139.2040   59.7320 C   0  0  0  0  0  0  0  0  0  0  0  0
  126.6720  137.9150   60.2550 C   0  0  0  0  0  0  0  0  0  0  0  0
  130.7940  132.1010   61.0010 N   0  0  0  0  0  0  0  0  0  0  0  0
  1  2  1  0
  2  3  2  0
  3  4  1  0
  4  5  1  0
  4  6  2  0
  6  7  1  0
  7  8  3  0
  6  9  1  0
  9 10  1  0
 10 11  1  0
 11 12  1  0
 12 13  2  0
 12 14  1  0
 14 15  1  0
 15 16  1  0
 16 17  2  0
 17 18  1  0
 18 19  2  0
 19 20  1  0
 20 21  2  0
  9 22  2  0
 22  2  1  0
 21 16  1  0
M  END
>  <Binding energies>  (8) 
[-9.32]

>  <Ligand effiencies>  (8) 
[-0.40521739130434786]

>  <Interactions>  (8) 
["V-A:LEU:363:CA:3182, V-A:PRO:540:C:4879, V-A:TYR:539:CD1:4871, V-A:TYR:531:CE2:4791, V-A:TYR:539:C:4865, V-A:PRO:540:CB:4883, V-A:TYR:539:CE1:4873, V-B:LEU:475:CD2:9230, V-A:PRO:540:CA:4881, V-A:LEU:363:CD1:3186, V-A:ALA:541:CB:4890, V-B:HIS:383:CD2:8363, V-B:HIS:383:CG:8361, V-B:HIS:383:CE1:8365, V-A:VAL:344:CG1:2998, V-B:SER:385:CB:8380, V-A:TYR:539:CB:4869, V-B:LEU:373:CD1:8251, V-B:HIS:383:CB:8360, V-B:PRO:482:CG:9298, V-B:LEU:373:CD2:8252, V-A:ASN:362:CB:3173, V-A:GLU:543:CD:4906, V-A:PRO:540:N:4882, V-A:ASP:366:CG:3210, H-A:TYR:539:N:4868, V-A:TYR:539:CG:4870, V-B:VAL:384:C:8368, V-B:SER:385:CA:8378, V-A:ARG:545:CZ:4924, H-A:TYR:539:O:4866, H-A:ALA:541:N:4889"]

$$$$
1h_Grossjean_2025
     RDKit          3D

 28 29  0  0  0  0  0  0  0  0999 V2000
  131.3500  130.9070   60.4630 C   0  0  0  0  0  0  0  0  0  0  0  0
  130.5850  132.0020   59.9730 O   0  0  0  0  0  0  0  0  0  0  0  0
  129.6490  131.7840   58.9780 C   0  0  0  0  0  0  0  0  0  0  0  0
  128.5360  130.9400   59.1210 C   0  0  0  0  0  0  0  0  0  0  0  0
  127.6380  130.7570   58.0690 C   0  0  0  0  0  0  0  0  0  0  0  0
  126.4210  129.8550   58.2450 C   0  0  0  0  0  0  0  0  0  0  0  0
  125.7110  130.0530   59.5090 N   0  0  0  0  0  0  0  0  0  0  0  0
  124.6130  130.8120   59.6730 C   0  0  0  0  0  0  0  0  0  0  0  0
  124.0570  131.4150   58.7560 O   0  0  0  0  0  0  0  0  0  0  0  0
  124.0590  130.9110   61.0950 C   0  0  0  0  0  0  0  0  0  0  0  0
  123.7900  132.6360   61.6020 S   0  0  0  0  0  0  0  0  0  0  0  0
  125.3770  133.4520   61.6530 C   0  0  0  0  0  0  0  0  0  0  0  0
  126.4370  132.6610   61.9650 N   0  0  0  0  0  0  0  0  0  0  0  0
  127.6710  133.2150   62.0170 C   0  0  0  0  0  0  0  0  0  0  0  0
  128.8040  132.2670   62.3670 C   0  0  0  0  0  0  0  0  0  0  0  0
  127.9010  134.5660   61.7660 C   0  0  0  0  0  0  0  0  0  0  0  0
  126.8170  135.3910   61.4470 C   0  0  0  0  0  0  0  0  0  0  0  0
  127.0910  136.8680   61.1740 C   0  0  0  0  0  0  0  0  0  0  0  0
  125.5200  134.8330   61.3860 C   0  0  0  0  0  0  0  0  0  0  0  0
  124.3660  135.6740   61.0570 C   0  0  0  0  0  0  0  0  0  0  0  0
  123.4550  136.3390   60.7960 N   0  0  0  0  0  0  0  0  0  0  0  0
  127.8290  131.4490   56.8720 C   0  0  0  0  0  0  0  0  0  0  0  0
  128.9300  132.3030   56.7030 C   0  0  0  0  0  0  0  0  0  0  0  0
  129.1830  133.0180   55.5460 O   0  0  0  0  0  0  0  0  0  0  0  0
  128.2810  132.9140   54.4490 C   0  0  0  0  0  0  0  0  0  0  0  0
  129.8390  132.4540   57.7610 C   0  0  0  0  0  0  0  0  0  0  0  0
  130.9180  133.2920   57.6120 O   0  0  0  0  0  0  0  0  0  0  0  0
  131.9940  132.7240   56.8780 C   0  0  0  0  0  0  0  0  0  0  0  0
  1  2  1  0
  2  3  1  0
  3  4  2  0
  4  5  1  0
  5  6  1  0
  6  7  1  0
  7  8  1  0
  8  9  2  0
  8 10  1  0
 10 11  1  0
 11 12  1  0
 12 13  2  0
 13 14  1  0
 14 15  1  0
 14 16  2  0
 16 17  1  0
 17 18  1  0
 17 19  2  0
 19 20  1  0
 20 21  3  0
  5 22  2  0
 22 23  1  0
 23 24  1  0
 24 25  1  0
 23 26  2  0
 26 27  1  0
 27 28  1  0
 26  3  1  0
 19 12  1  0
M  END
>  <Binding energies>  (9) 
[-7.39]

>  <Ligand effiencies>  (9) 
[-0.25482758620689655]

>  <Interactions>  (9) 
["V-A:ILE:538:CB:4860, V-A:TYR:539:CD1:4871, V-A:TYR:539:C:4865, V-A:TYR:539:CZ:4875, V-A:ILE:538:CG2:4861, V-A:PRO:540:CB:4883, V-A:TYR:539:CE1:4873, V-B:LEU:475:CD2:9230, V-A:PRO:540:CA:4881, V-A:LEU:363:CD1:3186, V-A:ALA:541:CB:4890, V-B:PRO:482:CB:9297, V-B:ILE:369:CG2:8208, V-B:ILE:369:CD1:8210, V-A:TYR:539:CB:4869, V-B:LEU:373:CD1:8251, V-B:PRO:482:CG:9298, V-A:ILE:538:CA:4858, V-A:TYR:539:CD2:4872, V-A:PRO:540:CD:4885, V-A:TYR:539:CE2:4874, V-A:PRO:540:N:4882, H-A:TYR:539:N:4868, V-A:MET:535:CE:4833, V-B:ASP:366:CG:8184, V-A:TYR:539:CG:4870, V-B:SER:385:CA:8378, H-A:TYR:539:OH:4876, H-B:SER:385:N:8379, H-B:ASP:366:OD1:8185, V-A:VAL:537:C:4848"]

$$$$
1i_Grossjean_2025
     RDKit          3D

 20 21  0  0  0  0  0  0  0  0999 V2000
  123.7440  131.0980   61.5690 C   0  0  0  0  0  0  0  0  0  0  0  0
  124.6950  132.2770   61.6410 C   0  0  0  0  0  0  0  0  0  0  0  0
  124.2720  133.5740   61.3570 C   0  0  0  0  0  0  0  0  0  0  0  0
  125.1920  134.6240   61.4500 C   0  0  0  0  0  0  0  0  0  0  0  0
  124.7010  136.0390   61.1490 C   0  0  0  0  0  0  0  0  0  0  0  0
  126.5270  134.3440   61.8230 C   0  0  0  0  0  0  0  0  0  0  0  0
  127.4930  135.4340   61.9760 C   0  0  0  0  0  0  0  0  0  0  0  0
  128.2540  136.2980   62.0970 N   0  0  0  0  0  0  0  0  0  0  0  0
  126.8730  132.9940   62.0700 C   0  0  0  0  0  0  0  0  0  0  0  0
  128.5020  132.4620   62.5470 S   0  0  0  0  0  0  0  0  0  0  0  0
  129.1200  131.3490   61.2490 C   0  0  0  0  0  0  0  0  0  0  0  0
  129.3930  132.0900   59.9380 C   0  0  0  0  0  0  0  0  0  0  0  0
  128.6350  132.9960   59.5880 O   0  0  0  0  0  0  0  0  0  0  0  0
  130.4820  131.6780   59.2520 N   0  0  0  0  0  0  0  0  0  0  0  0
  130.9500  132.1710   58.0430 C   0  0  0  0  0  0  0  0  0  0  0  0
  132.2200  131.8850   57.5450 C   0  0  0  0  0  0  0  0  0  0  0  0
  132.2930  132.5530   56.3440 C   0  0  0  0  0  0  0  0  0  0  0  0
  131.1270  133.2090   56.1310 O   0  0  0  0  0  0  0  0  0  0  0  0
  130.2840  132.9600   57.2150 N   0  0  0  0  0  0  0  0  0  0  0  0
  125.9690  131.9850   61.9960 N   0  0  0  0  0  0  0  0  0  0  0  0
  1  2  1  0
  2  3  2  0
  3  4  1  0
  4  5  1  0
  4  6  2  0
  6  7  1  0
  7  8  3  0
  6  9  1  0
  9 10  1  0
 10 11  1  0
 11 12  1  0
 12 13  2  0
 12 14  1  0
 14 15  1  0
 15 16  1  0
 16 17  2  0
 17 18  1  0
 18 19  1  0
  9 20  2  0
 20  2  1  0
 19 15  2  0
M  END
>  <Binding energies>  (10) 
[-7.06]

>  <Ligand effiencies>  (10) 
[-0.33619047619047615]

>  <Interactions>  (10) 
["V-A:ILE:538:CB:4860, V-A:TYR:539:CD1:4871, V-A:TYR:539:C:4865, H-A:ASP:366:OD2:3212, V-A:ILE:538:CG2:4861, V-A:PRO:540:CB:4883, V-A:TYR:539:CE1:4873, V-B:LEU:475:CD2:9230, V-A:PRO:540:CA:4881, V-A:LEU:363:CD1:3186, V-A:ALA:541:CB:4890, V-B:PRO:482:CB:9297, V-B:ILE:369:CG2:8208, V-B:ILE:369:CD1:8210, V-B:SER:385:CB:8380, V-B:LEU:373:CD1:8251, V-A:PRO:540:CD:4885, V-A:PRO:540:N:4882, H-A:TYR:539:N:4868, V-B:SER:385:CA:8378, H-A:ALA:541:N:4889"]

$$$$
1k_Grossjean_2025
     RDKit          3D

 25 25  0  0  0  0  0  0  0  0999 V2000
  125.0510  129.9850   58.3690 C   0  0  0  0  0  0  0  0  0  0  0  0
  124.1140  131.0460   58.4590 O   0  0  0  0  0  0  0  0  0  0  0  0
  123.3160  131.0000   59.6340 C   0  0  0  0  0  0  0  0  0  0  0  0
  123.7950  132.0740   60.6200 C   0  0  0  0  0  0  0  0  0  0  0  0
  124.4650  131.4520   61.7090 O   0  0  0  0  0  0  0  0  0  0  0  0
  123.6110  131.1380   62.8010 C   0  0  0  0  0  0  0  0  0  0  0  0
  124.1820  129.9370   63.5660 C   0  0  0  0  0  0  0  0  0  0  0  0
  124.8540  130.3940   64.7330 O   0  0  0  0  0  0  0  0  0  0  0  0
  125.9610  129.5850   65.1090 C   0  0  0  0  0  0  0  0  0  0  0  0
  126.8210  129.2790   63.8680 C   0  0  0  0  0  0  0  0  0  0  0  0
  126.7580  130.3100   62.8310 N   0  0  0  0  0  0  0  0  0  0  0  0
  127.4510  130.2940   61.6790 C   0  0  0  0  0  0  0  0  0  0  0  0
  128.2240  129.3840   61.3720 O   0  0  0  0  0  0  0  0  0  0  0  0
  127.2250  131.4990   60.7530 C   0  0  0  0  0  0  0  0  0  0  0  0
  128.3890  132.8910   60.9690 S   0  0  0  0  0  0  0  0  0  0  0  0
  130.0400  132.3460   60.5550 C   0  0  0  0  0  0  0  0  0  0  0  0
  130.8590  132.0840   61.6070 N   0  0  0  0  0  0  0  0  0  0  0  0
  132.1250  131.6760   61.3630 C   0  0  0  0  0  0  0  0  0  0  0  0
  132.9800  131.4130   62.5880 C   0  0  0  0  0  0  0  0  0  0  0  0
  132.6250  131.5050   60.0740 C   0  0  0  0  0  0  0  0  0  0  0  0
  131.7900  131.7640   58.9820 C   0  0  0  0  0  0  0  0  0  0  0  0
  132.3570  131.5710   57.5780 C   0  0  0  0  0  0  0  0  0  0  0  0
  130.4650  132.1950   59.2150 C   0  0  0  0  0  0  0  0  0  0  0  0
  129.5680  132.4770   58.0900 C   0  0  0  0  0  0  0  0  0  0  0  0
  128.8610  132.7000   57.2010 N   0  0  0  0  0  0  0  0  0  0  0  0
  1  2  1  0
  2  3  1  0
  3  4  1  0
  4  5  1  0
  5  6  1  0
  6  7  1  0
  7  8  1  0
  8  9  1  0
  9 10  1  0
 10 11  1  0
 11 12  1  0
 12 13  2  0
 12 14  1  0
 14 15  1  0
 15 16  1  0
 16 17  2  0
 17 18  1  0
 18 19  1  0
 18 20  2  0
 20 21  1  0
 21 22  1  0
 21 23  2  0
 23 24  1  0
 24 25  3  0
 23 16  1  0
M  END
>  <Binding energies>  (11) 
[-5.82]

>  <Ligand effiencies>  (11) 
[-0.22384615384615386]

>  <Interactions>  (11) 
["V-A:PRO:540:C:4879, V-A:TYR:539:CD1:4871, V-A:TYR:539:C:4865, V-A:PRO:540:CB:4883, V-A:TYR:539:CE1:4873, V-A:PRO:540:CA:4881, V-B:GLY:454:CA:9020, V-B:ILE:369:CG2:8208, V-B:ILE:369:CD1:8210, V-B:ILE:369:CB:8207, V-A:ASN:362:CB:3173, V-A:ALA:541:C:4886, V-A:GLU:543:CD:4906, V-A:PRO:540:N:4882, H-A:TYR:539:N:4868, V-B:ASP:366:CB:8183, V-B:ASP:366:CG:8184, V-B:ARG:545:CZ:9898, H-A:TYR:539:OH:4876, V-A:ARG:545:CZ:4924, V-B:ILE:369:CG1:8209, V-B:ASP:366:CA:8181, H-B:GLY:454:N:9021, H-A:ALA:541:N:4889, H-B:TYR:484:OH:9319, V-A:ASN:362:CG:3174, V-B:GLY:453:C:9013, V-B:GLY:453:CA:9015"]

$$$$
1l_Grossjean_2025
     RDKit          3D

 17 17  0  0  0  0  0  0  0  0999 V2000
  131.3020  117.4080   60.1190 C   0  0  0  0  0  0  0  0  0  0  0  0
  131.4380  118.3660   61.1600 O   0  0  0  0  0  0  0  0  0  0  0  0
  130.4940  119.3790   60.9990 N   0  0  0  0  0  0  0  0  0  0  0  0
  130.8160  120.6350   61.3620 C   0  0  0  0  0  0  0  0  0  0  0  0
  131.9660  121.0000   61.6190 O   0  0  0  0  0  0  0  0  0  0  0  0
  129.6370  121.6170   61.4250 C   0  0  0  0  0  0  0  0  0  0  0  0
  129.2790  122.4940   59.8650 S   0  0  0  0  0  0  0  0  0  0  0  0
  127.5480  122.9290   59.8570 C   0  0  0  0  0  0  0  0  0  0  0  0
  127.0050  123.2110   61.0700 N   0  0  0  0  0  0  0  0  0  0  0  0
  125.6950  123.5480   61.1370 C   0  0  0  0  0  0  0  0  0  0  0  0
  125.1620  123.8480   62.5250 C   0  0  0  0  0  0  0  0  0  0  0  0
  124.8780  123.6190   60.0110 C   0  0  0  0  0  0  0  0  0  0  0  0
  125.4260  123.3320   58.7560 C   0  0  0  0  0  0  0  0  0  0  0  0
  124.5130  123.4170   57.5350 C   0  0  0  0  0  0  0  0  0  0  0  0
  126.7910  122.9780   58.6640 C   0  0  0  0  0  0  0  0  0  0  0  0
  127.3910  122.6720   57.3610 C   0  0  0  0  0  0  0  0  0  0  0  0
  127.8640  122.4310   56.3330 N   0  0  0  0  0  0  0  0  0  0  0  0
  1  2  1  0
  2  3  1  0
  3  4  1  0
  4  5  2  0
  4  6  1  0
  6  7  1  0
  7  8  1  0
  8  9  2  0
  9 10  1  0
 10 11  1  0
 10 12  2  0
 12 13  1  0
 13 14  1  0
 13 15  2  0
 15 16  1  0
 16 17  3  0
 15  8  1  0
M  END
>  <Binding energies>  (12) 
[-6.69]

>  <Ligand effiencies>  (12) 
[-0.3716666666666667]

>  <Interactions>  (12) 
["V-B:PRO:540:N:9856, V-B:TYR:539:CE1:9847, V-B:PRO:540:CA:9855, V-B:ALA:541:CB:9864, V-B:TYR:539:CD1:9845, V-B:TYR:539:C:9839, V-B:PRO:540:C:9853, V-B:TYR:539:CG:9844, V-B:PRO:540:CB:9857, V-B:LEU:363:CD1:8160, V-A:LEU:475:CD2:4256, V-B:GLU:543:CD:9880, H-B:TYR:539:N:9842, V-B:ASN:362:CB:8147, V-B:ARG:545:CZ:9898, V-A:PRO:482:CG:4324, V-B:TYR:539:CB:9843, V-A:LEU:373:CD1:3277, H-B:ALA:541:N:9863, H-B:TYR:539:O:9840"]

$$$$
1m_Grossjean_2025
     RDKit          3D

 20 20  0  0  0  0  0  0  0  0999 V2000
  126.7590  139.1250   59.5240 C   0  0  0  0  0  0  0  0  0  0  0  0
  126.7280  137.9920   60.3800 O   0  0  0  0  0  0  0  0  0  0  0  0
  125.6680  137.7690   61.1830 C   0  0  0  0  0  0  0  0  0  0  0  0
  124.9480  138.6400   61.6800 O   0  0  0  0  0  0  0  0  0  0  0  0
  125.4390  136.2610   61.4120 C   0  0  0  0  0  0  0  0  0  0  0  0
  126.6820  135.4780   61.3330 N   0  0  0  0  0  0  0  0  0  0  0  0
  126.8540  134.2280   61.8040 C   0  0  0  0  0  0  0  0  0  0  0  0
  125.9650  133.5990   62.3820 O   0  0  0  0  0  0  0  0  0  0  0  0
  128.2470  133.6240   61.5840 C   0  0  0  0  0  0  0  0  0  0  0  0
  128.5060  132.8860   59.9340 S   0  0  0  0  0  0  0  0  0  0  0  0
  130.1940  132.3270   59.8400 C   0  0  0  0  0  0  0  0  0  0  0  0
  130.7460  132.0630   61.0520 N   0  0  0  0  0  0  0  0  0  0  0  0
  132.0250  131.6240   61.1030 C   0  0  0  0  0  0  0  0  0  0  0  0
  132.5660  131.3320   62.4890 C   0  0  0  0  0  0  0  0  0  0  0  0
  132.8040  131.4420   59.9620 C   0  0  0  0  0  0  0  0  0  0  0  0
  132.2540  131.7360   58.7100 C   0  0  0  0  0  0  0  0  0  0  0  0
  133.1310  131.5450   57.4750 C   0  0  0  0  0  0  0  0  0  0  0  0
  130.9200  132.1970   58.6310 C   0  0  0  0  0  0  0  0  0  0  0  0
  130.3410  132.5580   57.3350 C   0  0  0  0  0  0  0  0  0  0  0  0
  129.8830  132.8420   56.3120 N   0  0  0  0  0  0  0  0  0  0  0  0
  1  2  1  0
  2  3  1  0
  3  4  2  0
  3  5  1  0
  5  6  1  0
  6  7  1  0
  7  8  2  0
  7  9  1  0
  9 10  1  0
 10 11  1  0
 11 12  2  0
 12 13  1  0
 13 14  1  0
 13 15  2  0
 15 16  1  0
 16 17  1  0
 16 18  2  0
 18 19  1  0
 19 20  3  0
 18 11  1  0
M  END
>  <Binding energies>  (13) 
[-6.8]

>  <Ligand effiencies>  (13) 
[-0.3238095238095238]

>  <Interactions>  (13) 
["V-A:LEU:363:CA:3182, V-A:PRO:540:C:4879, V-A:TYR:539:CD1:4871, V-A:TYR:531:CE2:4791, V-A:TYR:539:C:4865, V-A:PRO:540:CB:4883, V-A:TYR:539:CE1:4873, V-B:LEU:475:CD2:9230, V-A:PRO:540:CA:4881, V-A:LEU:363:CD1:3186, V-A:ALA:541:CB:4890, V-A:ILE:343:CD1:2991, V-A:VAL:344:CG1:2998, V-A:TYR:539:CB:4869, V-B:LEU:373:CD1:8251, V-B:PRO:482:CG:9298, V-A:ASN:362:CB:3173, V-A:GLU:543:CD:4906, V-A:PRO:540:N:4882, V-A:ASP:366:CG:3210, H-A:TYR:539:N:4868, V-A:TYR:539:CG:4870, V-A:ARG:545:CZ:4924, H-A:TYR:539:O:4866, H-A:ALA:541:N:4889"]

$$$$
1n_Grossjean_2025
     RDKit          3D

 27 28  0  0  0  0  0  0  0  0999 V2000
  132.7680  132.4970   56.8690 C   0  0  0  0  0  0  0  0  0  0  0  0
  131.5530  132.3270   55.9510 C   0  0  0  0  0  0  0  0  0  0  0  0
  130.4190  132.9410   56.5510 O   0  0  0  0  0  0  0  0  0  0  0  0
  129.8110  132.3880   57.6320 C   0  0  0  0  0  0  0  0  0  0  0  0
  129.2850  133.0510   58.5300 O   0  0  0  0  0  0  0  0  0  0  0  0
  129.8320  130.8860   57.6190 C   0  0  0  0  0  0  0  0  0  0  0  0
  128.8890  130.1370   56.8990 C   0  0  0  0  0  0  0  0  0  0  0  0
  128.9340  128.7460   56.9100 C   0  0  0  0  0  0  0  0  0  0  0  0
  129.9120  128.0750   57.6460 C   0  0  0  0  0  0  0  0  0  0  0  0
  129.8620  126.6690   57.5920 N   0  0  0  0  0  0  0  0  0  0  0  0
  130.3020  125.8250   56.6330 C   0  0  0  0  0  0  0  0  0  0  0  0
  130.8600  126.1610   55.5890 O   0  0  0  0  0  0  0  0  0  0  0  0
  130.0730  124.3330   56.9080 C   0  0  0  0  0  0  0  0  0  0  0  0
  129.2820  123.6260   55.7860 C   0  0  0  0  0  0  0  0  0  0  0  0
  127.9110  122.5860   56.3720 S   0  0  0  0  0  0  0  0  0  0  0  0
  127.7830  122.8040   58.1340 C   0  0  0  0  0  0  0  0  0  0  0  0
  128.9120  122.4640   58.8060 N   0  0  0  0  0  0  0  0  0  0  0  0
  128.9350  122.6050   60.1520 C   0  0  0  0  0  0  0  0  0  0  0  0
  130.2320  122.2160   60.8340 C   0  0  0  0  0  0  0  0  0  0  0  0
  127.8440  123.0780   60.8780 C   0  0  0  0  0  0  0  0  0  0  0  0
  126.6680  123.4120   60.1960 C   0  0  0  0  0  0  0  0  0  0  0  0
  125.4800  123.9160   61.0130 C   0  0  0  0  0  0  0  0  0  0  0  0
  126.6190  123.2680   58.7910 C   0  0  0  0  0  0  0  0  0  0  0  0
  125.3830  123.5620   58.0630 C   0  0  0  0  0  0  0  0  0  0  0  0
  124.4050  123.7940   57.4900 N   0  0  0  0  0  0  0  0  0  0  0  0
  130.8640  128.8170   58.3600 C   0  0  0  0  0  0  0  0  0  0  0  0
  130.8200  130.2090   58.3440 C   0  0  0  0  0  0  0  0  0  0  0  0
  1  2  1  0
  2  3  1  0
  3  4  1  0
  4  5  2  0
  4  6  1  0
  6  7  2  0
  7  8  1  0
  8  9  2  0
  9 10  1  0
 10 11  1  0
 11 12  2  0
 11 13  1  0
 13 14  1  0
 14 15  1  0
 15 16  1  0
 16 17  2  0
 17 18  1  0
 18 19  1  0
 18 20  2  0
 20 21  1  0
 21 22  1  0
 21 23  2  0
 23 24  1  0
 24 25  3  0
  9 26  1  0
 26 27  2  0
 27  6  1  0
 23 16  1  0
M  END
>  <Binding energies>  (14) 
[-8.27]

>  <Ligand effiencies>  (14) 
[-0.2953571428571428]

>  <Interactions>  (14) 
["V-A:ILE:538:CB:4860, V-A:TYR:539:C:4865, V-A:ILE:538:CG2:4861, V-A:PRO:540:CB:4883, V-A:PRO:540:CA:4881, H-A:TYR:531:OH:4793, V-A:LEU:363:CD1:3186, V-B:PRO:540:N:9856, V-B:TYR:539:CE1:9847, V-B:PRO:540:CA:9855, V-B:TYR:539:CD1:9845, V-B:TYR:539:CZ:9849, V-B:TYR:539:C:9839, H-B:TYR:531:OH:9767, V-B:PRO:540:CB:9857, V-A:ILE:538:CA:4858, V-A:PRO:540:CD:4885, V-A:PRO:540:N:4882, V-A:ASP:366:CG:3210, H-A:TYR:539:N:4868, V-A:MET:535:CE:4833, V-B:TYR:539:CE2:9848, V-B:MET:535:CE:9807, H-B:TYR:539:N:9842, V-A:PRO:540:CG:4884"]

$$$$
1q_Grossjean_2025
     RDKit          3D

 21 21  0  0  0  0  0  0  0  0999 V2000
  131.6670  125.4550   59.6710 C   0  0  0  0  0  0  0  0  0  0  0  0
  132.0450  124.2880   58.9550 O   0  0  0  0  0  0  0  0  0  0  0  0
  133.2840  123.7580   59.1080 C   0  0  0  0  0  0  0  0  0  0  0  0
  134.2420  123.9500   58.3580 O   0  0  0  0  0  0  0  0  0  0  0  0
  133.4210  122.8230   60.3290 C   0  0  0  0  0  0  0  0  0  0  0  0
  132.1430  122.2230   60.7390 N   0  0  0  0  0  0  0  0  0  0  0  0
  131.9360  120.9220   61.0190 C   0  0  0  0  0  0  0  0  0  0  0  0
  132.8250  120.0700   60.9600 O   0  0  0  0  0  0  0  0  0  0  0  0
  130.5080  120.5440   61.4410 C   0  0  0  0  0  0  0  0  0  0  0  0
  129.5180  121.7260   61.4540 C   0  0  0  0  0  0  0  0  0  0  0  0
  129.2150  122.4390   59.8100 S   0  0  0  0  0  0  0  0  0  0  0  0
  127.4920  122.8760   59.6900 C   0  0  0  0  0  0  0  0  0  0  0  0
  126.9330  123.1970   60.8850 N   0  0  0  0  0  0  0  0  0  0  0  0
  125.6260  123.5450   60.9220 C   0  0  0  0  0  0  0  0  0  0  0  0
  125.0690  123.8730   62.2940 C   0  0  0  0  0  0  0  0  0  0  0  0
  124.8300  123.5980   59.7790 C   0  0  0  0  0  0  0  0  0  0  0  0
  125.4010  123.2950   58.5400 C   0  0  0  0  0  0  0  0  0  0  0  0
  124.5110  123.3780   57.2990 C   0  0  0  0  0  0  0  0  0  0  0  0
  126.7650  122.9310   58.4760 C   0  0  0  0  0  0  0  0  0  0  0  0
  127.3930  122.6660   57.1800 C   0  0  0  0  0  0  0  0  0  0  0  0
  127.8870  122.4570   56.1540 N   0  0  0  0  0  0  0  0  0  0  0  0
  1  2  1  0
  2  3  1  0
  3  4  2  0
  3  5  1  0
  5  6  1  0
  6  7  1  0
  7  8  2  0
  7  9  1  0
  9 10  1  0
 10 11  1  0
 11 12  1  0
 12 13  2  0
 13 14  1  0
 14 15  1  0
 14 16  2  0
 16 17  1  0
 17 18  1  0
 17 19  2  0
 19 20  1  0
 20 21  3  0
 19 12  1  0
M  END
>  <Binding energies>  (15) 
[-6.7]

>  <Ligand effiencies>  (15) 
[-0.30454545454545456]

>  <Interactions>  (15) 
["V-B:PRO:540:N:9856, V-B:TYR:539:CE1:9847, V-B:PRO:540:CA:9855, V-B:TYR:531:CE2:9765, V-B:ALA:541:CB:9864, V-B:TYR:539:CD1:9845, V-B:TYR:539:CZ:9849, V-B:TYR:539:C:9839, V-B:PRO:540:C:9853, V-B:PRO:540:CB:9857, V-B:LEU:363:CD1:8160, V-A:LEU:475:CD2:4256, V-A:ASP:366:CG:3210, H-B:TYR:539:N:9842, V-B:PRO:540:CD:9859, V-B:ASN:362:CB:8147, V-B:ARG:545:CZ:9898, H-B:TYR:539:OH:9850, V-A:ILE:369:CG2:3234, H-B:ALA:541:N:9863, V-A:ILE:369:CD1:3236, V-A:ILE:369:CB:3233"]

$$$$
2a_Grossjean_2025
     RDKit          3D

 29 30  0  0  0  0  0  0  0  0999 V2000
  133.4890  131.1790   57.5990 C   0  0  0  0  0  0  0  0  0  0  0  0
  132.6410  131.9990   56.6220 C   0  0  0  0  0  0  0  0  0  0  0  0
  131.8510  132.9300   57.3530 O   0  0  0  0  0  0  0  0  0  0  0  0
  130.4980  132.8220   57.3920 C   0  0  0  0  0  0  0  0  0  0  0  0
  129.7760  132.9490   56.3980 O   0  0  0  0  0  0  0  0  0  0  0  0
  129.9690  132.5110   58.7630 C   0  0  0  0  0  0  0  0  0  0  0  0
  128.6750  132.8780   59.1590 C   0  0  0  0  0  0  0  0  0  0  0  0
  128.2160  132.5760   60.4380 C   0  0  0  0  0  0  0  0  0  0  0  0
  129.0390  131.9100   61.3470 C   0  0  0  0  0  0  0  0  0  0  0  0
  128.4760  131.6700   62.6140 N   0  0  0  0  0  0  0  0  0  0  0  0
  127.7740  132.4930   63.4230 C   0  0  0  0  0  0  0  0  0  0  0  0
  127.5120  133.6730   63.1880 O   0  0  0  0  0  0  0  0  0  0  0  0
  127.2840  131.8700   64.7350 C   0  0  0  0  0  0  0  0  0  0  0  0
  126.1890  130.4330   64.4860 S   0  0  0  0  0  0  0  0  0  0  0  0
  126.0720  130.0580   62.7410 C   0  0  0  0  0  0  0  0  0  0  0  0
  126.9690  129.1530   62.2720 N   0  0  0  0  0  0  0  0  0  0  0  0
  126.9470  128.8310   60.9590 C   0  0  0  0  0  0  0  0  0  0  0  0
  127.9970  127.8340   60.5050 C   0  0  0  0  0  0  0  0  0  0  0  0
  126.0330  129.3830   60.0660 C   0  0  0  0  0  0  0  0  0  0  0  0
  125.0910  130.3140   60.5300 C   0  0  0  0  0  0  0  0  0  0  0  0
  124.0860  130.9150   59.5290 C   0  0  0  0  0  0  0  0  0  0  0  0
  124.2800  130.3930   58.3170 F   0  0  0  0  0  0  0  0  0  0  0  0
  122.8390  130.6500   59.9210 F   0  0  0  0  0  0  0  0  0  0  0  0
  124.1990  132.2410   59.4190 F   0  0  0  0  0  0  0  0  0  0  0  0
  125.1060  130.6630   61.9040 C   0  0  0  0  0  0  0  0  0  0  0  0
  124.1460  131.6330   62.4430 C   0  0  0  0  0  0  0  0  0  0  0  0
  123.3880  132.3980   62.8670 N   0  0  0  0  0  0  0  0  0  0  0  0
  130.3310  131.5330   60.9550 C   0  0  0  0  0  0  0  0  0  0  0  0
  130.7870  131.8320   59.6740 C   0  0  0  0  0  0  0  0  0  0  0  0
  1  2  1  0
  2  3  1  0
  3  4  1  0
  4  5  2  0
  4  6  1  0
  6  7  2  0
  7  8  1  0
  8  9  2  0
  9 10  1  0
 10 11  1  0
 11 12  2  0
 11 13  1  0
 13 14  1  0
 14 15  1  0
 15 16  2  0
 16 17  1  0
 17 18  1  0
 17 19  2  0
 19 20  1  0
 20 21  1  0
 21 22  1  0
 21 23  1  0
 21 24  1  0
 20 25  2  0
 25 26  1  0
 26 27  3  0
  9 28  1  0
 28 29  2  0
 29  6  1  0
 25 15  1  0
M  END
>  <Binding energies>  (16) 
[-6.83]

>  <Ligand effiencies>  (16) 
[-0.22766666666666666]

>  <Interactions>  (16) 
["V-A:LEU:363:CA:3182, V-A:TYR:539:CD1:4871, V-A:TYR:531:CE2:4791, V-A:TYR:539:C:4865, V-A:TYR:539:CZ:4875, V-A:PRO:540:CB:4883, V-A:TYR:539:CE1:4873, V-A:PRO:540:CA:4881, V-A:LEU:363:CD1:3186, V-A:ALA:541:CB:4890, V-B:ILE:369:CG2:8208, V-B:ILE:369:CD1:8210, V-B:ILE:369:CB:8207, V-A:PRO:540:CD:4885, V-A:PRO:540:N:4882, V-A:ASP:366:CG:3210, H-A:TYR:539:N:4868, V-B:ASP:366:CB:8183, V-B:ASP:366:CG:8184, V-A:TYR:539:CG:4870, V-B:ILE:369:CG1:8209, V-B:ASP:366:C:8179, V-B:ASP:366:CA:8181, H-B:GLY:454:N:9021, V-A:ASP:366:CB:3209, H-B:ARG:545:NH2:9900, H-A:GLU:543:OE1:4907, H-B:TYR:484:OH:9319, V-A:TYR:539:CA:4867, V-B:TYR:484:CE2:9317, V-B:TYR:484:CZ:9318"]

$$$$
2b_Grossjean_2025
     RDKit          3D

 28 29  0  0  0  0  0  0  0  0999 V2000
  127.8620  122.6030   55.4200 C   0  0  0  0  0  0  0  0  0  0  0  0
  127.5130  122.2860   56.7600 O   0  0  0  0  0  0  0  0  0  0  0  0
  128.0710  122.9510   57.8040 C   0  0  0  0  0  0  0  0  0  0  0  0
  128.5760  122.3860   58.7790 O   0  0  0  0  0  0  0  0  0  0  0  0
  128.0110  124.4440   57.6560 C   0  0  0  0  0  0  0  0  0  0  0  0
  126.8130  125.1570   57.8080 C   0  0  0  0  0  0  0  0  0  0  0  0
  126.7900  126.5410   57.6630 C   0  0  0  0  0  0  0  0  0  0  0  0
  127.9600  127.2410   57.3680 C   0  0  0  0  0  0  0  0  0  0  0  0
  127.8240  128.6360   57.2370 N   0  0  0  0  0  0  0  0  0  0  0  0
  127.0850  129.3510   56.3620 C   0  0  0  0  0  0  0  0  0  0  0  0
  126.3850  128.8770   55.4660 O   0  0  0  0  0  0  0  0  0  0  0  0
  127.1680  130.8720   56.5270 C   0  0  0  0  0  0  0  0  0  0  0  0
  127.5040  131.3890   58.2430 S   0  0  0  0  0  0  0  0  0  0  0  0
  129.2660  131.4070   58.5420 C   0  0  0  0  0  0  0  0  0  0  0  0
  129.6680  130.8900   59.7310 N   0  0  0  0  0  0  0  0  0  0  0  0
  130.9870  130.8760   60.0260 C   0  0  0  0  0  0  0  0  0  0  0  0
  131.3510  130.2950   61.3780 C   0  0  0  0  0  0  0  0  0  0  0  0
  131.9560  131.3640   59.1540 C   0  0  0  0  0  0  0  0  0  0  0  0
  131.5650  131.8960   57.9160 C   0  0  0  0  0  0  0  0  0  0  0  0
  132.6510  132.4260   56.9610 C   0  0  0  0  0  0  0  0  0  0  0  0
  133.8200  132.5070   57.5990 F   0  0  0  0  0  0  0  0  0  0  0  0
  132.7850  131.6060   55.9170 F   0  0  0  0  0  0  0  0  0  0  0  0
  132.3700  133.6400   56.4820 F   0  0  0  0  0  0  0  0  0  0  0  0
  130.1840  131.9230   57.5960 C   0  0  0  0  0  0  0  0  0  0  0  0
  129.7180  132.4730   56.3190 C   0  0  0  0  0  0  0  0  0  0  0  0
  129.3510  132.9060   55.3110 N   0  0  0  0  0  0  0  0  0  0  0  0
  129.1620  126.5350   57.2060 C   0  0  0  0  0  0  0  0  0  0  0  0
  129.1820  125.1510   57.3510 C   0  0  0  0  0  0  0  0  0  0  0  0
  1  2  1  0
  2  3  1  0
  3  4  2  0
  3  5  1  0
  5  6  2  0
  6  7  1  0
  7  8  2  0
  8  9  1  0
  9 10  1  0
 10 11  2  0
 10 12  1  0
 12 13  1  0
 13 14  1  0
 14 15  2  0
 15 16  1  0
 16 17  1  0
 16 18  2  0
 18 19  1  0
 19 20  1  0
 20 21  1  0
 20 22  1  0
 20 23  1  0
 19 24  2  0
 24 25  1  0
 25 26  3  0
  8 27  1  0
 27 28  2  0
 28  5  1  0
 24 14  1  0
M  END
>  <Binding energies>  (17) 
[-7.08]

>  <Ligand effiencies>  (17) 
[-0.24413793103448275]

>  <Interactions>  (17) 
["V-A:LEU:363:CA:3182, V-A:ILE:538:CB:4860, V-A:TYR:531:CE2:4791, V-A:TYR:539:C:4865, V-A:TYR:539:CZ:4875, V-A:ILE:538:CG2:4861, V-A:PRO:540:CB:4883, V-A:TYR:531:CZ:4792, V-A:TYR:539:CE1:4873, V-A:PRO:540:CA:4881, V-A:LEU:363:CD1:3186, V-B:ILE:538:CB:9834, V-B:PRO:540:N:9856, V-B:TYR:539:CE1:9847, V-B:TYR:539:CD1:9845, V-B:TYR:539:C:9839, H-B:TYR:531:OH:9767, V-B:ILE:538:CG2:9835, V-A:ILE:538:CA:4858, V-A:PRO:540:CD:4885, V-A:TYR:539:CE2:4874, V-A:PRO:540:N:4882, H-A:TYR:539:N:4868, V-A:LEU:363:CB:3184, V-A:MET:535:CE:4833, V-B:TYR:539:CE2:9848, V-B:ILE:538:CA:9832, V-B:MET:535:CE:9807, H-B:TYR:539:N:9842, V-B:TYR:539:CD2:9846, V-A:ILE:538:C:4856, H-A:TYR:539:OH:4876, V-B:ILE:538:C:9830, V-A:PRO:540:CG:4884, V-A:LEU:363:CG:3185, V-A:ILE:538:CD1:4863, V-A:ILE:538:CG1:4862"]

$$$$
2c_Grossjean_2025
     RDKit          3D

 26 27  0  0  0  0  0  0  0  0999 V2000
  133.0130  125.4150   65.1220 C   0  0  0  0  0  0  0  0  0  0  0  0
  133.7130  125.0310   63.9430 O   0  0  0  0  0  0  0  0  0  0  0  0
  133.0420  125.0160   62.7360 C   0  0  0  0  0  0  0  0  0  0  0  0
  131.8810  125.7850   62.6600 C   0  0  0  0  0  0  0  0  0  0  0  0
  131.1360  125.8330   61.4850 C   0  0  0  0  0  0  0  0  0  0  0  0
  131.5450  125.0940   60.3650 C   0  0  0  0  0  0  0  0  0  0  0  0
  130.8690  125.0940   59.1320 N   0  0  0  0  0  0  0  0  0  0  0  0
  131.3890  125.0580   57.8860 C   0  0  0  0  0  0  0  0  0  0  0  0
  132.5940  125.0730   57.6280 O   0  0  0  0  0  0  0  0  0  0  0  0
  130.3520  125.0340   56.7530 C   0  0  0  0  0  0  0  0  0  0  0  0
  129.3580  123.5060   56.6290 S   0  0  0  0  0  0  0  0  0  0  0  0
  128.0700  123.5320   57.8690 C   0  0  0  0  0  0  0  0  0  0  0  0
  128.4950  123.5320   59.1590 N   0  0  0  0  0  0  0  0  0  0  0  0
  127.5770  123.5420   60.1490 C   0  0  0  0  0  0  0  0  0  0  0  0
  128.1310  123.5230   61.5600 C   0  0  0  0  0  0  0  0  0  0  0  0
  126.2060  123.5610   59.9020 C   0  0  0  0  0  0  0  0  0  0  0  0
  125.7440  123.5700   58.5790 C   0  0  0  0  0  0  0  0  0  0  0  0
  124.2240  123.5930   58.3220 C   0  0  0  0  0  0  0  0  0  0  0  0
  123.8650  122.5250   57.6080 F   0  0  0  0  0  0  0  0  0  0  0  0
  123.5640  123.5820   59.4800 F   0  0  0  0  0  0  0  0  0  0  0  0
  123.8320  124.6770   57.6470 F   0  0  0  0  0  0  0  0  0  0  0  0
  126.6960  123.5540   57.5290 C   0  0  0  0  0  0  0  0  0  0  0  0
  126.2700  123.5600   56.1250 C   0  0  0  0  0  0  0  0  0  0  0  0
  125.9330  123.5650   55.0180 N   0  0  0  0  0  0  0  0  0  0  0  0
  132.7150  124.3360   60.4310 C   0  0  0  0  0  0  0  0  0  0  0  0
  133.4580  124.2910   61.6080 C   0  0  0  0  0  0  0  0  0  0  0  0
  1  2  1  0
  2  3  1  0
  3  4  2  0
  4  5  1  0
  5  6  2  0
  6  7  1  0
  7  8  1  0
  8  9  2  0
  8 10  1  0
 10 11  1  0
 11 12  1  0
 12 13  2  0
 13 14  1  0
 14 15  1  0
 14 16  2  0
 16 17  1  0
 17 18  1  0
 18 19  1  0
 18 20  1  0
 18 21  1  0
 17 22  2  0
 22 23  1  0
 23 24  3  0
  6 25  1  0
 25 26  2  0
 26  3  1  0
 22 12  1  0
M  END
>  <Binding energies>  (18) 
[-6.38]

>  <Ligand effiencies>  (18) 
[-0.23629629629629628]

>  <Interactions>  (18) 
["V-B:PRO:540:N:9856, V-B:TYR:539:CE1:9847, V-B:LEU:363:CA:8156, V-B:PRO:540:CA:9855, V-B:TYR:531:CE2:9765, V-B:TYR:539:CZ:9849, V-B:TYR:531:CZ:9766, H-B:TYR:531:OH:9767, V-B:PRO:540:CB:9857, V-B:LEU:363:CD1:8160, V-B:ILE:538:CG2:9835, V-B:MET:535:CE:9807, V-B:ASP:366:CB:8183, V-B:ASN:362:C:8143, V-B:PRO:540:CG:9858, V-B:PRO:540:CD:9859, V-B:LEU:363:CB:8158, V-B:ASP:366:CG:8184, V-A:ARG:545:CZ:4924, H-B:TYR:539:OH:9850, H-A:ARG:545:NH2:4926, H-A:ARG:545:NE:4922, H-A:GLY:454:N:4047, V-A:ARG:545:CD:4921, V-B:LEU:363:CG:8159"]

$$$$
2d_Ghoteimi_2023
     RDKit          3D

 38 42  0  0  0  0  0  0  0  0999 V2000
  123.9620  129.5630   63.7750 C   0  0  0  0  0  0  0  0  0  0  0  0
  124.6700  130.2180   64.8160 O   0  0  0  0  0  0  0  0  0  0  0  0
  124.7260  129.6800   66.0520 C   0  0  0  0  0  0  0  0  0  0  0  0
  123.8910  129.8490   66.9450 O   0  0  0  0  0  0  0  0  0  0  0  0
  125.9750  128.8030   66.2220 C   0  0  0  0  0  0  0  0  0  0  0  0
  127.4660  129.6460   65.5910 S   0  0  0  0  0  0  0  0  0  0  0  0
  127.1130  130.2570   63.9550 C   0  0  0  0  0  0  0  0  0  0  0  0
  127.0620  129.2790   63.0180 N   0  0  0  0  0  0  0  0  0  0  0  0
  126.8080  129.6020   61.7250 C   0  0  0  0  0  0  0  0  0  0  0  0
  126.7850  128.4730   60.7450 C   0  0  0  0  0  0  0  0  0  0  0  0
  126.4260  128.6950   59.4110 C   0  0  0  0  0  0  0  0  0  0  0  0
  126.4020  127.6480   58.4930 C   0  0  0  0  0  0  0  0  0  0  0  0
  126.7480  126.3420   58.8750 C   0  0  0  0  0  0  0  0  0  0  0  0
  126.7120  125.2760   57.9690 N   0  0  0  0  0  0  0  0  0  0  0  0
  127.9080  124.4550   57.6960 C   0  0  0  0  0  0  0  0  0  0  0  0
  127.7860  123.5890   56.4240 C   0  0  0  0  0  0  0  0  0  0  0  0
  126.6240  122.7790   56.5000 O   0  0  0  0  0  0  0  0  0  0  0  0
  125.4470  123.5630   56.6060 C   0  0  0  0  0  0  0  0  0  0  0  0
  125.5020  124.4340   57.8790 C   0  0  0  0  0  0  0  0  0  0  0  0
  127.0930  126.1230   60.2160 C   0  0  0  0  0  0  0  0  0  0  0  0
  127.1150  127.1690   61.1340 C   0  0  0  0  0  0  0  0  0  0  0  0
  126.5930  130.9290   61.3420 C   0  0  0  0  0  0  0  0  0  0  0  0
  126.6070  131.9540   62.2950 C   0  0  0  0  0  0  0  0  0  0  0  0
  126.3410  133.3440   61.8180 C   0  0  0  0  0  0  0  0  0  0  0  0
  125.0630  133.7090   61.3940 C   0  0  0  0  0  0  0  0  0  0  0  0
  124.8010  135.0050   60.9590 C   0  0  0  0  0  0  0  0  0  0  0  0
  125.8170  135.9750   60.9330 C   0  0  0  0  0  0  0  0  0  0  0  0
  125.5740  137.2860   60.5130 N   0  0  0  0  0  0  0  0  0  0  0  0
  126.6810  138.2290   60.2590 C   0  0  0  0  0  0  0  0  0  0  0  0
  126.2500  139.4850   59.4700 C   0  0  0  0  0  0  0  0  0  0  0  0
  125.1750  140.1300   60.1350 O   0  0  0  0  0  0  0  0  0  0  0  0
  124.0470  139.2780   60.2570 C   0  0  0  0  0  0  0  0  0  0  0  0
  124.4210  138.0190   61.0690 C   0  0  0  0  0  0  0  0  0  0  0  0
  127.0930  135.6050   61.3780 C   0  0  0  0  0  0  0  0  0  0  0  0
  127.3530  134.3090   61.8140 C   0  0  0  0  0  0  0  0  0  0  0  0
  126.8690  131.6150   63.6470 C   0  0  0  0  0  0  0  0  0  0  0  0
  126.8750  132.6500   64.6850 C   0  0  0  0  0  0  0  0  0  0  0  0
  126.8790  133.4710   65.5020 N   0  0  0  0  0  0  0  0  0  0  0  0
  1  2  1  0
  2  3  1  0
  3  4  2  0
  3  5  1  0
  5  6  1  0
  6  7  1  0
  7  8  2  0
  8  9  1  0
  9 10  1  0
 10 11  2  0
 11 12  1  0
 12 13  2  0
 13 14  1  0
 14 15  1  0
 15 16  1  0
 16 17  1  0
 17 18  1  0
 18 19  1  0
 13 20  1  0
 20 21  2  0
  9 22  2  0
 22 23  1  0
 23 24  1  0
 24 25  2  0
 25 26  1  0
 26 27  2  0
 27 28  1  0
 28 29  1  0
 29 30  1  0
 30 31  1  0
 31 32  1  0
 32 33  1  0
 27 34  1  0
 34 35  2  0
 23 36  2  0
 36 37  1  0
 37 38  3  0
 36  7  1  0
 21 10  1  0
 35 24  1  0
 19 14  1  0
 33 28  1  0
M  END
>  <Binding energies>  (19) 
[-9.28]

>  <Ligand effiencies>  (19) 
[-0.24421052631578946]

>  <Interactions>  (19) 
["V-A:TYR:539:CD1:4871, V-A:TYR:539:CE1:4873, V-B:LEU:475:CD2:9230, V-A:ALA:541:CB:4890, V-B:TYR:531:CE2:9765, V-B:HIS:383:CD2:8363, V-A:ILE:343:CD1:2991, V-B:HIS:383:CG:8361, V-B:ILE:369:CG2:8208, V-A:VAL:344:CG1:2998, V-B:SER:385:CB:8380, V-A:TYR:539:CB:4869, V-B:LEU:373:CD1:8251, V-B:HIS:383:CB:8360, V-B:PRO:482:CG:9298, V-B:LEU:373:CD2:8252, V-A:GLU:543:CD:4906, V-B:GLU:543:CD:9880, V-B:MET:535:CE:9807, V-B:ASP:366:CB:8183, H-B:TYR:539:N:9842, V-B:ASP:366:CG:8184, V-B:LEU:373:CG:8250, V-B:ARG:545:CZ:9898, V-A:TYR:539:CG:4870, V-B:VAL:384:C:8368, V-B:SER:385:CA:8378, H-B:GLY:454:N:9021, H-B:ARG:545:NH2:9900, H-B:ARG:545:NE:9896, H-B:TYR:484:OH:9319, V-B:TYR:484:CE2:9317, V-B:TYR:484:CZ:9318, V-B:HIS:456:CE1:9040, V-B:ARG:545:CG:9894, V-B:ARG:545:CD:9895, V-B:GLY:453:C:9013, V-B:GLY:453:CA:9015, H-B:HIS:383:ND1:8362, H-B:ILE:455:N:9026"]

$$$$
2d_Grossjean_2025
     RDKit          3D

 24 25  0  0  0  0  0  0  0  0999 V2000
  125.5870  123.8360   62.6500 C   0  0  0  0  0  0  0  0  0  0  0  0
  126.0330  123.5240   61.2340 C   0  0  0  0  0  0  0  0  0  0  0  0
  125.1380  123.5470   60.1660 C   0  0  0  0  0  0  0  0  0  0  0  0
  125.6000  123.2560   58.8740 C   0  0  0  0  0  0  0  0  0  0  0  0
  124.5980  123.2960   57.7030 C   0  0  0  0  0  0  0  0  0  0  0  0
  123.3900  123.6440   58.1490 F   0  0  0  0  0  0  0  0  0  0  0  0
  124.9950  124.1860   56.7920 F   0  0  0  0  0  0  0  0  0  0  0  0
  124.4750  122.1190   57.0880 F   0  0  0  0  0  0  0  0  0  0  0  0
  126.9710  122.9390   58.6990 C   0  0  0  0  0  0  0  0  0  0  0  0
  127.5120  122.6740   57.3630 C   0  0  0  0  0  0  0  0  0  0  0  0
  127.9380  122.4660   56.3070 N   0  0  0  0  0  0  0  0  0  0  0  0
  127.8000  122.9160   59.8450 C   0  0  0  0  0  0  0  0  0  0  0  0
  129.5350  122.5090   59.8100 S   0  0  0  0  0  0  0  0  0  0  0  0
  129.9510  121.5880   61.3280 C   0  0  0  0  0  0  0  0  0  0  0  0
  130.9500  120.4530   61.0850 C   0  0  0  0  0  0  0  0  0  0  0  0
  132.1560  120.6900   61.1630 O   0  0  0  0  0  0  0  0  0  0  0  0
  130.4100  119.2580   60.7680 N   0  0  0  0  0  0  0  0  0  0  0  0
  131.0540  118.0360   60.4950 C   0  0  0  0  0  0  0  0  0  0  0  0
  132.3880  117.9430   60.8960 C   0  0  0  0  0  0  0  0  0  0  0  0
  133.1120  116.7760   60.6650 C   0  0  0  0  0  0  0  0  0  0  0  0
  132.5010  115.7020   60.0210 C   0  0  0  0  0  0  0  0  0  0  0  0
  131.1750  115.7880   59.6040 C   0  0  0  0  0  0  0  0  0  0  0  0
  130.4490  116.9520   59.8360 C   0  0  0  0  0  0  0  0  0  0  0  0
  127.3420  123.2210   61.0840 N   0  0  0  0  0  0  0  0  0  0  0  0
  1  2  1  0
  2  3  2  0
  3  4  1  0
  4  5  1  0
  5  6  1  0
  5  7  1  0
  5  8  1  0
  4  9  2  0
  9 10  1  0
 10 11  3  0
  9 12  1  0
 12 13  1  0
 13 14  1  0
 14 15  1  0
 15 16  2  0
 15 17  1  0
 17 18  1  0
 18 19  2  0
 19 20  1  0
 20 21  2  0
 21 22  1  0
 22 23  2  0
 12 24  2  0
 24  2  1  0
 23 18  1  0
M  END
>  <Binding energies>  (20) 
[-8.71]

>  <Ligand effiencies>  (20) 
[-0.34840000000000004]

>  <Interactions>  (20) 
["V-B:ILE:538:CB:9834, V-B:PRO:540:N:9856, V-B:TYR:539:CE1:9847, V-B:LEU:363:CA:8156, V-B:PRO:540:CA:9855, V-B:TYR:531:CE2:9765, V-B:ALA:541:CB:9864, V-B:TYR:539:CD1:9845, V-B:TYR:539:C:9839, V-B:PRO:540:C:9853, V-B:TYR:531:CZ:9766, V-B:TYR:539:CG:9844, V-B:PRO:540:CB:9857, V-B:LEU:363:CD1:8160, V-A:LEU:475:CD2:4256, V-B:GLU:543:CD:9880, H-B:TYR:539:N:9842, V-B:PRO:540:CG:9858, V-B:PRO:540:CD:9859, V-B:LEU:363:CB:8158, V-B:ARG:545:CZ:9898, V-A:SER:385:CA:3404, V-A:PRO:482:CG:4324, V-B:TYR:539:CB:9843, V-A:SER:385:CB:3406, V-A:LEU:373:CD1:3277, V-B:VAL:344:CG1:7972, H-B:ALA:541:N:9863, V-A:HIS:383:CG:3387, V-A:HIS:383:CB:3386, H-B:TYR:539:O:9840, V-B:LEU:363:C:8154, V-B:LEU:363:CG:8159"]

$$$$
2e_Grossjean_2025
     RDKit          3D

 25 26  0  0  0  0  0  0  0  0999 V2000
  125.8190  139.9980   58.8010 C   0  0  0  0  0  0  0  0  0  0  0  0
  125.8900  139.2490   60.1180 C   0  0  0  0  0  0  0  0  0  0  0  0
  125.2040  139.6950   61.2510 C   0  0  0  0  0  0  0  0  0  0  0  0
  125.3070  138.9480   62.4260 C   0  0  0  0  0  0  0  0  0  0  0  0
  126.0840  137.7870   62.4400 C   0  0  0  0  0  0  0  0  0  0  0  0
  126.7530  137.4030   61.2730 C   0  0  0  0  0  0  0  0  0  0  0  0
  127.4860  136.2060   61.3310 N   0  0  0  0  0  0  0  0  0  0  0  0
  127.0290  134.9610   61.5910 C   0  0  0  0  0  0  0  0  0  0  0  0
  125.8440  134.6620   61.7520 O   0  0  0  0  0  0  0  0  0  0  0  0
  128.0990  133.8740   61.7310 C   0  0  0  0  0  0  0  0  0  0  0  0
  128.1690  132.7890   60.2690 S   0  0  0  0  0  0  0  0  0  0  0  0
  129.8650  132.2680   60.1440 C   0  0  0  0  0  0  0  0  0  0  0  0
  130.4620  131.9980   61.3310 N   0  0  0  0  0  0  0  0  0  0  0  0
  131.7660  131.6380   61.3310 C   0  0  0  0  0  0  0  0  0  0  0  0
  132.3700  131.3510   62.6920 C   0  0  0  0  0  0  0  0  0  0  0  0
  132.5190  131.5400   60.1620 C   0  0  0  0  0  0  0  0  0  0  0  0
  131.9180  131.8250   58.9270 C   0  0  0  0  0  0  0  0  0  0  0  0
  132.7690  131.7330   57.6470 C   0  0  0  0  0  0  0  0  0  0  0  0
  132.2520  130.8270   56.8170 F   0  0  0  0  0  0  0  0  0  0  0  0
  132.7980  132.9160   57.0330 F   0  0  0  0  0  0  0  0  0  0  0  0
  134.0320  131.3760   57.8920 F   0  0  0  0  0  0  0  0  0  0  0  0
  130.5510  132.1980   58.9100 C   0  0  0  0  0  0  0  0  0  0  0  0
  129.8740  132.5370   57.6550 C   0  0  0  0  0  0  0  0  0  0  0  0
  129.3390  132.8050   56.6640 N   0  0  0  0  0  0  0  0  0  0  0  0
  126.6510  138.1240   60.1180 N   0  0  0  0  0  0  0  0  0  0  0  0
  1  2  1  0
  2  3  2  0
  3  4  1  0
  4  5  2  0
  5  6  1  0
  6  7  1  0
  7  8  1  0
  8  9  2  0
  8 10  1  0
 10 11  1  0
 11 12  1  0
 12 13  2  0
 13 14  1  0
 14 15  1  0
 14 16  2  0
 16 17  1  0
 17 18  1  0
 18 19  1  0
 18 20  1  0
 18 21  1  0
 17 22  2  0
 22 23  1  0
 23 24  3  0
  6 25  2  0
 25  2  1  0
 22 12  1  0
M  END
>  <Binding energies>  (21) 
[-9.0]

>  <Ligand effiencies>  (21) 
[-0.34615384615384615]

>  <Interactions>  (21) 
["V-A:LEU:363:CA:3182, V-A:PRO:540:C:4879, V-A:ILE:538:CB:4860, V-A:TYR:539:CD1:4871, V-A:TYR:531:CE2:4791, V-A:TYR:539:C:4865, V-A:PRO:540:CB:4883, V-A:TYR:531:CZ:4792, V-A:TYR:539:CE1:4873, V-B:LEU:475:CD2:9230, V-A:PRO:540:CA:4881, V-A:LEU:363:CD1:3186, V-A:ALA:541:CB:4890, V-B:HIS:383:CD2:8363, V-A:ILE:343:CD1:2991, V-B:PRO:482:CB:9297, V-A:ILE:343:CG1:2990, V-B:HIS:383:CG:8361, V-B:HIS:383:CE1:8365, V-B:SER:385:CB:8380, V-A:TYR:539:CB:4869, V-B:LEU:373:CD1:8251, V-B:LEU:475:CG:9228, V-B:HIS:383:CB:8360, V-B:PRO:482:CG:9298, V-B:LEU:373:CD2:8252, V-A:ASN:362:CB:3173, V-A:PRO:540:CD:4885, V-A:ALA:541:C:4886, V-A:GLU:543:CD:4906, V-A:PRO:540:N:4882, V-A:ASP:366:CG:3210, H-A:TYR:539:N:4868, V-A:LEU:363:CB:3184, V-A:ARG:545:CZ:4924, H-A:TYR:539:O:4866, V-A:ASP:366:CB:3209, H-A:ALA:541:N:4889, V-A:PRO:540:CG:4884, V-A:LEU:363:C:3180"]

$$$$
2f_Grossjean_2025
     RDKit          3D

 24 25  0  0  0  0  0  0  0  0999 V2000
  132.4290  131.3640   62.6160 C   0  0  0  0  0  0  0  0  0  0  0  0
  131.8050  131.6600   61.2650 C   0  0  0  0  0  0  0  0  0  0  0  0
  132.5270  131.5220   60.0820 C   0  0  0  0  0  0  0  0  0  0  0  0
  131.9080  131.8160   58.8570 C   0  0  0  0  0  0  0  0  0  0  0  0
  132.7260  131.6690   57.5610 C   0  0  0  0  0  0  0  0  0  0  0  0
  132.0650  130.9120   56.6830 F   0  0  0  0  0  0  0  0  0  0  0  0
  132.9410  132.8690   57.0200 F   0  0  0  0  0  0  0  0  0  0  0  0
  133.9170  131.1000   57.7620 F   0  0  0  0  0  0  0  0  0  0  0  0
  130.5540  132.2390   58.8670 C   0  0  0  0  0  0  0  0  0  0  0  0
  129.8800  132.6120   57.6200 C   0  0  0  0  0  0  0  0  0  0  0  0
  129.3490  132.9050   56.6340 N   0  0  0  0  0  0  0  0  0  0  0  0
  129.8920  132.3250   60.1150 C   0  0  0  0  0  0  0  0  0  0  0  0
  128.1930  132.8260   60.3130 S   0  0  0  0  0  0  0  0  0  0  0  0
  128.1130  134.0220   61.6890 C   0  0  0  0  0  0  0  0  0  0  0  0
  126.9710  135.0440   61.5970 C   0  0  0  0  0  0  0  0  0  0  0  0
  125.7990  134.6910   61.7390 O   0  0  0  0  0  0  0  0  0  0  0  0
  127.3700  136.3080   61.3370 N   0  0  0  0  0  0  0  0  0  0  0  0
  126.6000  137.4790   61.1990 C   0  0  0  0  0  0  0  0  0  0  0  0
  126.3800  138.1740   59.9950 C   0  0  0  0  0  0  0  0  0  0  0  0
  125.5880  139.3240   59.9960 C   0  0  0  0  0  0  0  0  0  0  0  0
  125.0310  139.7500   61.2030 C   0  0  0  0  0  0  0  0  0  0  0  0
  125.2210  139.0930   62.3750 N   0  0  0  0  0  0  0  0  0  0  0  0
  125.9920  137.9760   62.3570 C   0  0  0  0  0  0  0  0  0  0  0  0
  130.5130  132.0590   61.2890 N   0  0  0  0  0  0  0  0  0  0  0  0
  1  2  1  0
  2  3  2  0
  3  4  1  0
  4  5  1  0
  5  6  1  0
  5  7  1  0
  5  8  1  0
  4  9  2  0
  9 10  1  0
 10 11  3  0
  9 12  1  0
 12 13  1  0
 13 14  1  0
 14 15  1  0
 15 16  2  0
 15 17  1  0
 17 18  1  0
 18 19  2  0
 19 20  1  0
 20 21  2  0
 21 22  1  0
 22 23  2  0
 12 24  2  0
 24  2  1  0
 23 18  1  0
M  END
>  <Binding energies>  (22) 
[-8.64]

>  <Ligand effiencies>  (22) 
[-0.3456]

>  <Interactions>  (22) 
["V-A:LEU:363:CA:3182, V-A:PRO:540:C:4879, V-A:ILE:538:CB:4860, V-A:TYR:539:CD1:4871, V-A:TYR:531:CE2:4791, V-A:TYR:539:C:4865, V-A:PRO:540:CB:4883, V-A:TYR:531:CZ:4792, V-A:TYR:539:CE1:4873, V-B:LEU:475:CD2:9230, V-A:PRO:540:CA:4881, V-A:LEU:363:CD1:3186, V-A:ALA:541:CB:4890, V-B:PRO:482:CB:9297, V-B:HIS:383:CG:8361, V-A:VAL:344:CG1:2998, V-B:SER:385:CB:8380, V-A:TYR:539:CB:4869, V-B:LEU:373:CD1:8251, V-B:LEU:475:CG:9228, V-B:HIS:383:CB:8360, V-B:PRO:482:CG:9298, V-A:ASN:362:CB:3173, V-A:PRO:540:CD:4885, V-A:ALA:541:C:4886, V-A:GLU:543:CD:4906, V-A:PRO:540:N:4882, V-A:ASP:366:CG:3210, H-A:TYR:539:N:4868, V-A:LEU:363:CB:3184, V-A:TYR:539:CG:4870, V-A:ARG:545:CZ:4924, H-A:TYR:539:O:4866, V-A:ASP:366:CB:3209, H-A:ALA:541:N:4889, V-A:PRO:540:CG:4884"]

$$$$
2g_Grossjean_2025
     RDKit          3D

 25 26  0  0  0  0  0  0  0  0999 V2000
  132.8740  131.1730   62.1200 C   0  0  0  0  0  0  0  0  0  0  0  0
  132.1750  131.5110   60.8180 C   0  0  0  0  0  0  0  0  0  0  0  0
  132.8540  131.5050   59.6020 C   0  0  0  0  0  0  0  0  0  0  0  0
  132.1630  131.8320   58.4250 C   0  0  0  0  0  0  0  0  0  0  0  0
  132.9330  131.8290   57.0900 C   0  0  0  0  0  0  0  0  0  0  0  0
  134.1380  131.2780   57.2520 F   0  0  0  0  0  0  0  0  0  0  0  0
  132.2570  131.1270   56.1790 F   0  0  0  0  0  0  0  0  0  0  0  0
  133.1190  133.0550   56.5980 F   0  0  0  0  0  0  0  0  0  0  0  0
  130.7840  132.1510   58.5130 C   0  0  0  0  0  0  0  0  0  0  0  0
  130.0300  132.5550   57.3230 C   0  0  0  0  0  0  0  0  0  0  0  0
  129.4360  132.8740   56.3830 N   0  0  0  0  0  0  0  0  0  0  0  0
  130.1700  132.1020   59.7890 C   0  0  0  0  0  0  0  0  0  0  0  0
  128.4480  132.4480   60.0760 S   0  0  0  0  0  0  0  0  0  0  0  0
  128.3520  133.6530   61.4440 C   0  0  0  0  0  0  0  0  0  0  0  0
  126.9550  134.2430   61.6830 C   0  0  0  0  0  0  0  0  0  0  0  0
  125.9940  133.5240   61.9630 O   0  0  0  0  0  0  0  0  0  0  0  0
  126.8630  135.5790   61.5580 N   0  0  0  0  0  0  0  0  0  0  0  0
  125.6450  136.3680   61.7460 C   0  0  0  0  0  0  0  0  0  0  0  0
  125.6360  137.6990   61.0010 C   0  0  0  0  0  0  0  0  0  0  0  0
  126.7610  138.0940   60.2710 C   0  0  0  0  0  0  0  0  0  0  0  0
  126.7420  139.2920   59.5590 C   0  0  0  0  0  0  0  0  0  0  0  0
  125.5960  140.0830   59.5710 C   0  0  0  0  0  0  0  0  0  0  0  0
  124.4670  139.6880   60.2870 C   0  0  0  0  0  0  0  0  0  0  0  0
  124.4860  138.4910   60.9980 C   0  0  0  0  0  0  0  0  0  0  0  0
  130.8590  131.8060   60.9190 N   0  0  0  0  0  0  0  0  0  0  0  0
  1  2  1  0
  2  3  2  0
  3  4  1  0
  4  5  1  0
  5  6  1  0
  5  7  1  0
  5  8  1  0
  4  9  2  0
  9 10  1  0
 10 11  3  0
  9 12  1  0
 12 13  1  0
 13 14  1  0
 14 15  1  0
 15 16  2  0
 15 17  1  0
 17 18  1  0
 18 19  1  0
 19 20  2  0
 20 21  1  0
 21 22  2  0
 22 23  1  0
 23 24  2  0
 12 25  2  0
 25  2  1  0
 24 19  1  0
M  END
>  <Binding energies>  (23) 
[-8.96]

>  <Ligand effiencies>  (23) 
[-0.34461538461538466]

>  <Interactions>  (23) 
["V-A:LEU:363:CA:3182, V-A:ILE:538:CB:4860, V-A:TYR:539:CD1:4871, V-A:TYR:531:CE2:4791, V-A:TYR:539:C:4865, V-A:ILE:538:CG2:4861, V-A:PRO:540:CB:4883, V-A:TYR:531:CZ:4792, V-A:TYR:539:CE1:4873, V-B:LEU:475:CD2:9230, V-A:PRO:540:CA:4881, V-A:LEU:363:CD1:3186, V-A:ALA:541:CB:4890, V-B:HIS:383:CD2:8363, V-A:ILE:343:CD1:2991, V-B:HIS:383:CG:8361, V-B:HIS:383:CE1:8365, V-A:VAL:344:CG1:2998, V-B:SER:385:CB:8380, V-A:TYR:539:CB:4869, V-B:LEU:373:CD1:8251, V-B:HIS:383:CB:8360, V-B:PRO:482:CG:9298, V-B:LEU:373:CD2:8252, V-A:ASN:362:CB:3173, V-A:PRO:540:CD:4885, V-A:PRO:540:N:4882, V-A:ASP:366:CG:3210, H-A:TYR:539:N:4868, V-A:LEU:363:CB:3184, V-A:TYR:539:CG:4870, V-B:VAL:384:C:8368, V-B:SER:385:CA:8378, V-A:ARG:545:CZ:4924, H-A:TYR:539:O:4866, V-A:ASP:366:CB:3209, H-A:ALA:541:N:4889, V-A:PRO:540:CG:4884, V-A:LEU:363:C:3180, V-A:LEU:363:CG:3185"]

$$$$
2h_Grossjean_2025
     RDKit          3D

 31 32  0  0  0  0  0  0  0  0999 V2000
  124.9430  130.0280   65.0550 C   0  0  0  0  0  0  0  0  0  0  0  0
  124.4910  130.6870   63.8770 O   0  0  0  0  0  0  0  0  0  0  0  0
  125.0320  130.3370   62.6530 C   0  0  0  0  0  0  0  0  0  0  0  0
  126.0150  129.3480   62.4840 C   0  0  0  0  0  0  0  0  0  0  0  0
  126.5070  129.0450   61.2170 C   0  0  0  0  0  0  0  0  0  0  0  0
  126.0310  129.7200   60.0920 C   0  0  0  0  0  0  0  0  0  0  0  0
  126.5720  129.3550   58.7110 C   0  0  0  0  0  0  0  0  0  0  0  0
  127.0060  130.5120   57.9270 N   0  0  0  0  0  0  0  0  0  0  0  0
  128.0010  130.4990   57.0210 C   0  0  0  0  0  0  0  0  0  0  0  0
  128.7130  129.5150   56.8140 O   0  0  0  0  0  0  0  0  0  0  0  0
  128.1980  131.8040   56.2360 C   0  0  0  0  0  0  0  0  0  0  0  0
  129.5210  132.8900   56.8660 S   0  0  0  0  0  0  0  0  0  0  0  0
  129.6680  132.5640   58.6100 C   0  0  0  0  0  0  0  0  0  0  0  0
  128.5680  132.9090   59.3240 N   0  0  0  0  0  0  0  0  0  0  0  0
  128.5790  132.7210   60.6620 C   0  0  0  0  0  0  0  0  0  0  0  0
  127.3180  133.1370   61.3960 C   0  0  0  0  0  0  0  0  0  0  0  0
  129.6720  132.1810   61.3370 C   0  0  0  0  0  0  0  0  0  0  0  0
  130.8110  131.7990   60.6120 C   0  0  0  0  0  0  0  0  0  0  0  0
  132.0060  131.1960   61.3750 C   0  0  0  0  0  0  0  0  0  0  0  0
  133.1490  131.5660   60.7960 F   0  0  0  0  0  0  0  0  0  0  0  0
  132.0580  131.5900   62.6490 F   0  0  0  0  0  0  0  0  0  0  0  0
  131.9290  129.8650   61.3690 F   0  0  0  0  0  0  0  0  0  0  0  0
  130.8120  131.9830   59.2060 C   0  0  0  0  0  0  0  0  0  0  0  0
  131.9530  131.5460   58.3970 C   0  0  0  0  0  0  0  0  0  0  0  0
  132.8540  131.1970   57.7600 N   0  0  0  0  0  0  0  0  0  0  0  0
  125.0670  130.7270   60.2480 C   0  0  0  0  0  0  0  0  0  0  0  0
  124.5960  131.3990   59.1450 O   0  0  0  0  0  0  0  0  0  0  0  0
  123.2690  131.0510   58.7690 C   0  0  0  0  0  0  0  0  0  0  0  0
  124.5570  131.0180   61.5250 C   0  0  0  0  0  0  0  0  0  0  0  0
  123.5990  131.9910   61.6790 O   0  0  0  0  0  0  0  0  0  0  0  0
  124.0980  133.2250   62.1770 C   0  0  0  0  0  0  0  0  0  0  0  0
  1  2  1  0
  2  3  1  0
  3  4  2  0
  4  5  1  0
  5  6  2  0
  6  7  1  0
  7  8  1  0
  8  9  1  0
  9 10  2  0
  9 11  1  0
 11 12  1  0
 12 13  1  0
 13 14  2  0
 14 15  1  0
 15 16  1  0
 15 17  2  0
 17 18  1  0
 18 19  1  0
 19 20  1  0
 19 21  1  0
 19 22  1  0
 18 23  2  0
 23 24  1  0
 24 25  3  0
  6 26  1  0
 26 27  1  0
 27 28  1  0
 26 29  2  0
 29 30  1  0
 30 31  1  0
 29  3  1  0
 23 13  1  0
M  END
>  <Binding energies>  (24) 
[-6.31]

>  <Ligand effiencies>  (24) 
[-0.1971875]

>  <Interactions>  (24) 
["V-A:PRO:540:C:4879, V-A:TYR:539:CD1:4871, V-A:TYR:539:C:4865, V-A:ALA:541:CA:4888, V-A:TYR:539:CZ:4875, V-A:PRO:540:CB:4883, V-A:TYR:539:CE1:4873, V-B:LEU:475:CD2:9230, V-A:PRO:540:CA:4881, H-A:TYR:531:OH:4793, V-A:ALA:541:CB:4890, V-B:GLY:454:CA:9020, V-B:ILE:369:CG2:8208, V-B:ILE:369:CD1:8210, V-B:ILE:369:CB:8207, V-A:ASN:362:CB:3173, V-A:ALA:541:C:4886, V-A:TYR:539:CE2:4874, V-A:GLU:543:CD:4906, V-A:PRO:540:N:4882, V-A:ASP:366:CG:3210, H-A:TYR:539:N:4868, V-A:MET:535:CE:4833, V-B:ASP:366:CB:8183, V-B:ASP:366:CG:8184, V-B:ARG:545:CZ:9898, H-A:TYR:539:OH:4876, V-A:ARG:545:CZ:4924, V-B:ASP:366:C:8179, V-B:ASP:366:CA:8181, H-B:GLY:454:N:9021"]

$$$$
2i_Grossjean_2025
     RDKit          3D

 23 24  0  0  0  0  0  0  0  0999 V2000
  132.5890  131.1260   62.4770 C   0  0  0  0  0  0  0  0  0  0  0  0
  131.9480  131.5040   61.1550 C   0  0  0  0  0  0  0  0  0  0  0  0
  132.6540  131.4400   59.9570 C   0  0  0  0  0  0  0  0  0  0  0  0
  132.0150  131.7980   58.7600 C   0  0  0  0  0  0  0  0  0  0  0  0
  132.8110  131.7210   57.4430 C   0  0  0  0  0  0  0  0  0  0  0  0
  133.9750  131.1020   57.6490 F   0  0  0  0  0  0  0  0  0  0  0  0
  132.1170  131.0440   56.5280 F   0  0  0  0  0  0  0  0  0  0  0  0
  133.0820  132.9240   56.9320 F   0  0  0  0  0  0  0  0  0  0  0  0
  130.6610  132.2170   58.8140 C   0  0  0  0  0  0  0  0  0  0  0  0
  129.9450  132.6010   57.5940 C   0  0  0  0  0  0  0  0  0  0  0  0
  129.3790  132.9040   56.6310 N   0  0  0  0  0  0  0  0  0  0  0  0
  130.0220  132.2550   60.0740 C   0  0  0  0  0  0  0  0  0  0  0  0
  128.3230  132.7730   60.2650 S   0  0  0  0  0  0  0  0  0  0  0  0
  128.2200  133.8410   61.7330 C   0  0  0  0  0  0  0  0  0  0  0  0
  126.9610  134.7110   61.7300 C   0  0  0  0  0  0  0  0  0  0  0  0
  125.8820  134.2040   62.0420 O   0  0  0  0  0  0  0  0  0  0  0  0
  127.1350  135.9950   61.3500 N   0  0  0  0  0  0  0  0  0  0  0  0
  126.1540  136.9680   61.2490 C   0  0  0  0  0  0  0  0  0  0  0  0
  126.2560  138.3640   61.3250 C   0  0  0  0  0  0  0  0  0  0  0  0
  124.9680  138.8190   61.1540 C   0  0  0  0  0  0  0  0  0  0  0  0
  124.1430  137.7590   60.9790 O   0  0  0  0  0  0  0  0  0  0  0  0
  124.9110  136.5930   61.0360 N   0  0  0  0  0  0  0  0  0  0  0  0
  130.6580  131.9030   61.2210 N   0  0  0  0  0  0  0  0  0  0  0  0
  1  2  1  0
  2  3  2  0
  3  4  1  0
  4  5  1  0
  5  6  1  0
  5  7  1  0
  5  8  1  0
  4  9  2  0
  9 10  1  0
 10 11  3  0
  9 12  1  0
 12 13  1  0
 13 14  1  0
 14 15  1  0
 15 16  2  0
 15 17  1  0
 17 18  1  0
 18 19  1  0
 19 20  2  0
 20 21  1  0
 21 22  1  0
 12 23  2  0
 23  2  1  0
 22 18  2  0
M  END
>  <Binding energies>  (25) 
[-7.91]

>  <Ligand effiencies>  (25) 
[-0.32958333333333334]

>  <Interactions>  (25) 
["V-A:LEU:363:CA:3182, V-A:ILE:538:CB:4860, V-A:TYR:539:CD1:4871, V-A:TYR:531:CE2:4791, V-A:TYR:539:C:4865, V-A:ALA:541:CA:4888, V-A:PRO:540:CB:4883, V-A:TYR:531:CZ:4792, V-A:TYR:539:CE1:4873, V-B:LEU:475:CD2:9230, V-A:PRO:540:CA:4881, V-A:LEU:363:CD1:3186, V-A:ALA:541:CB:4890, V-B:PRO:482:CB:9297, V-B:SER:385:CB:8380, V-B:LEU:373:CD1:8251, V-B:PRO:482:CG:9298, V-A:ASN:362:CB:3173, V-A:PRO:540:CD:4885, V-A:GLU:543:CD:4906, V-A:PRO:540:N:4882, V-A:ASP:366:CG:3210, H-A:TYR:539:N:4868, V-A:LEU:363:CB:3184, V-B:SER:385:CA:8378, V-A:ARG:545:CZ:4924, H-A:TYR:539:O:4866, H-B:SER:385:N:8379, V-A:ASP:366:CB:3209, H-A:ALA:541:N:4889, V-A:PRO:540:CG:4884, V-A:LEU:363:C:3180"]

$$$$
2k_Grossjean_2025
     RDKit          3D

 28 28  0  0  0  0  0  0  0  0999 V2000
  127.2180  130.0170   56.6720 C   0  0  0  0  0  0  0  0  0  0  0  0
  126.0090  129.4830   56.1540 O   0  0  0  0  0  0  0  0  0  0  0  0
  124.9040  129.6210   57.0390 C   0  0  0  0  0  0  0  0  0  0  0  0
  125.3820  130.1980   58.3780 C   0  0  0  0  0  0  0  0  0  0  0  0
  124.4160  131.1240   58.8530 O   0  0  0  0  0  0  0  0  0  0  0  0
  124.4080  131.2870   60.2660 C   0  0  0  0  0  0  0  0  0  0  0  0
  125.3590  130.2510   60.8790 C   0  0  0  0  0  0  0  0  0  0  0  0
  125.4440  130.5090   62.2720 O   0  0  0  0  0  0  0  0  0  0  0  0
  126.1210  129.5170   63.0290 C   0  0  0  0  0  0  0  0  0  0  0  0
  127.6020  129.9170   63.1660 C   0  0  0  0  0  0  0  0  0  0  0  0
  127.9330  131.1430   62.4350 N   0  0  0  0  0  0  0  0  0  0  0  0
  127.4310  132.3670   62.6910 C   0  0  0  0  0  0  0  0  0  0  0  0
  126.6430  132.5980   63.6100 O   0  0  0  0  0  0  0  0  0  0  0  0
  127.8880  133.4860   61.7430 C   0  0  0  0  0  0  0  0  0  0  0  0
  128.2640  132.9590   60.0350 S   0  0  0  0  0  0  0  0  0  0  0  0
  129.9520  132.3760   59.9520 C   0  0  0  0  0  0  0  0  0  0  0  0
  130.5150  132.0290   61.1370 N   0  0  0  0  0  0  0  0  0  0  0  0
  131.7910  131.5830   61.1490 C   0  0  0  0  0  0  0  0  0  0  0  0
  132.3500  131.2270   62.5130 C   0  0  0  0  0  0  0  0  0  0  0  0
  132.5520  131.4530   59.9910 C   0  0  0  0  0  0  0  0  0  0  0  0
  131.9880  131.7980   58.7530 C   0  0  0  0  0  0  0  0  0  0  0  0
  132.8430  131.6430   57.4800 C   0  0  0  0  0  0  0  0  0  0  0  0
  133.1210  132.8110   56.8990 F   0  0  0  0  0  0  0  0  0  0  0  0
  134.0040  131.0570   57.7780 F   0  0  0  0  0  0  0  0  0  0  0  0
  132.1980  130.8930   56.5860 F   0  0  0  0  0  0  0  0  0  0  0  0
  130.6530  132.2740   58.7260 C   0  0  0  0  0  0  0  0  0  0  0  0
  130.0150  132.6530   57.4610 C   0  0  0  0  0  0  0  0  0  0  0  0
  129.5120  132.9510   56.4620 N   0  0  0  0  0  0  0  0  0  0  0  0
  1  2  1  0
  2  3  1  0
  3  4  1  0
  4  5  1  0
  5  6  1  0
  6  7  1  0
  7  8  1  0
  8  9  1  0
  9 10  1  0
 10 11  1  0
 11 12  1  0
 12 13  2  0
 12 14  1  0
 14 15  1  0
 15 16  1  0
 16 17  2  0
 17 18  1  0
 18 19  1  0
 18 20  2  0
 20 21  1  0
 21 22  1  0
 22 23  1  0
 22 24  1  0
 22 25  1  0
 21 26  2  0
 26 27  1  0
 27 28  3  0
 26 16  1  0
M  END
>  <Binding energies>  (26) 
[-6.16]

>  <Ligand effiencies>  (26) 
[-0.21241379310344827]

>  <Interactions>  (26) 
["V-A:LEU:363:CA:3182, V-A:PRO:540:C:4879, V-A:ILE:538:CB:4860, V-A:TYR:539:CD1:4871, V-A:TYR:531:CE2:4791, V-A:TYR:539:C:4865, V-A:TYR:539:CZ:4875, V-A:PRO:540:CB:4883, V-A:TYR:531:CZ:4792, V-A:TYR:539:CE1:4873, V-A:PRO:540:CA:4881, V-A:LEU:363:CD1:3186, V-A:ALA:541:CB:4890, V-B:TYR:531:CZ:9766, H-B:TYR:531:OH:9767, V-B:ILE:369:CG2:8208, V-A:ASN:362:CB:3173, V-A:PRO:540:CD:4885, V-A:GLU:543:CD:4906, V-A:PRO:540:N:4882, V-A:ASP:366:CG:3210, H-A:TYR:539:N:4868, V-A:LEU:363:CB:3184, V-A:MET:535:CE:4833, V-B:ASP:366:CB:8183, V-B:ASP:366:CG:8184, V-B:ARG:545:CZ:9898, H-A:TYR:539:OH:4876, V-A:ARG:545:CZ:4924, V-A:ASP:366:CB:3209, H-A:ALA:541:N:4889, H-A:GLU:543:OE1:4907, V-B:TYR:531:CE1:9764, V-A:PRO:540:CG:4884, V-A:LEU:363:C:3180"]

$$$$
3aa_Grossjean_2025
     RDKit          3D

 34 36  0  0  0  0  0  0  0  0999 V2000
  126.3760  139.5730   59.1540 C   0  0  0  0  0  0  0  0  0  0  0  0
  126.0690  140.3430   60.4420 C   0  0  0  0  0  0  0  0  0  0  0  0
  125.6300  139.4340   61.4440 O   0  0  0  0  0  0  0  0  0  0  0  0
  124.8190  138.3910   61.1350 C   0  0  0  0  0  0  0  0  0  0  0  0
  123.6490  138.5250   60.7610 O   0  0  0  0  0  0  0  0  0  0  0  0
  125.4810  137.0530   61.3070 C   0  0  0  0  0  0  0  0  0  0  0  0
  124.7650  135.8510   61.2020 C   0  0  0  0  0  0  0  0  0  0  0  0
  125.4110  134.6280   61.3630 C   0  0  0  0  0  0  0  0  0  0  0  0
  126.7810  134.5800   61.6240 C   0  0  0  0  0  0  0  0  0  0  0  0
  127.3360  133.2920   61.7650 N   0  0  0  0  0  0  0  0  0  0  0  0
  127.5280  132.5560   62.8820 C   0  0  0  0  0  0  0  0  0  0  0  0
  127.2570  132.9130   64.0290 O   0  0  0  0  0  0  0  0  0  0  0  0
  128.1470  131.1750   62.6620 C   0  0  0  0  0  0  0  0  0  0  0  0
  129.8700  131.2910   62.0900 S   0  0  0  0  0  0  0  0  0  0  0  0
  129.8350  131.2090   60.3130 C   0  0  0  0  0  0  0  0  0  0  0  0
  128.6130  130.9170   59.8060 N   0  0  0  0  0  0  0  0  0  0  0  0
  128.4470  130.8230   58.4620 C   0  0  0  0  0  0  0  0  0  0  0  0
  127.0630  130.5110   57.9790 C   0  0  0  0  0  0  0  0  0  0  0  0
  126.8290  130.2040   56.6290 C   0  0  0  0  0  0  0  0  0  0  0  0
  125.5460  129.9130   56.1720 C   0  0  0  0  0  0  0  0  0  0  0  0
  124.4780  129.9250   57.0620 C   0  0  0  0  0  0  0  0  0  0  0  0
  124.6830  130.2240   58.4050 C   0  0  0  0  0  0  0  0  0  0  0  0
  125.9680  130.5120   58.8590 C   0  0  0  0  0  0  0  0  0  0  0  0
  129.5200  131.0300   57.5890 C   0  0  0  0  0  0  0  0  0  0  0  0
  130.7990  131.3160   58.0910 C   0  0  0  0  0  0  0  0  0  0  0  0
  131.9580  131.5270   57.0980 C   0  0  0  0  0  0  0  0  0  0  0  0
  132.4640  132.7610   57.1470 F   0  0  0  0  0  0  0  0  0  0  0  0
  132.9510  130.6780   57.3630 F   0  0  0  0  0  0  0  0  0  0  0  0
  131.5310  131.3160   55.8520 F   0  0  0  0  0  0  0  0  0  0  0  0
  130.9710  131.3980   59.4950 C   0  0  0  0  0  0  0  0  0  0  0  0
  132.2940  131.6360   60.0770 C   0  0  0  0  0  0  0  0  0  0  0  0
  133.3400  131.8240   60.5370 N   0  0  0  0  0  0  0  0  0  0  0  0
  127.5010  135.7790   61.7430 C   0  0  0  0  0  0  0  0  0  0  0  0
  126.8530  137.0000   61.5850 C   0  0  0  0  0  0  0  0  0  0  0  0
  1  2  1  0
  2  3  1  0
  3  4  1  0
  4  5  2  0
  4  6  1  0
  6  7  2  0
  7  8  1  0
  8  9  2  0
  9 10  1  0
 10 11  1  0
 11 12  2  0
 11 13  1  0
 13 14  1  0
 14 15  1  0
 15 16  2  0
 16 17  1  0
 17 18  1  0
 18 19  2  0
 19 20  1  0
 20 21  2  0
 21 22  1  0
 22 23  2  0
 17 24  2  0
 24 25  1  0
 25 26  1  0
 26 27  1  0
 26 28  1  0
 26 29  1  0
 25 30  2  0
 30 31  1  0
 31 32  3  0
  9 33  1  0
 33 34  2  0
 34  6  1  0
 30 15  1  0
 23 18  1  0
M  END
>  <Binding energies>  (27) 
[-8.19]

>  <Ligand effiencies>  (27) 
[-0.23399999999999999]

>  <Interactions>  (27) 
["V-A:ILE:538:CB:4860, V-A:TYR:539:CD1:4871, V-A:TYR:531:CE2:4791, V-A:TYR:539:C:4865, V-A:TYR:539:CZ:4875, V-A:ILE:538:CG2:4861, V-A:PRO:540:CB:4883, V-A:TYR:531:CZ:4792, V-A:TYR:539:CE1:4873, V-B:LEU:475:CD2:9230, V-A:PRO:540:CA:4881, V-A:LEU:363:CD1:3186, V-A:ALA:541:CB:4890, V-B:TYR:531:CZ:9766, V-B:HIS:383:CD2:8363, V-A:ILE:343:CD1:2991, V-B:PRO:482:CB:9297, V-A:ILE:343:CG1:2990, V-B:HIS:383:CG:8361, V-B:ILE:369:CG2:8208, V-B:HIS:383:CE1:8365, V-A:VAL:344:CG1:2998, V-B:SER:385:CB:8380, V-A:TYR:539:CB:4869, V-B:LEU:373:CD1:8251, V-B:HIS:383:CB:8360, V-B:PRO:482:CG:9298, V-A:PRO:540:CD:4885, V-A:PRO:540:N:4882, V-A:ASP:366:CG:3210, V-A:MET:535:CE:4833, V-B:ASP:366:CB:8183, V-B:ASP:366:CG:8184, V-B:SER:385:CA:8378, H-A:TYR:539:O:4866, V-B:ASP:366:C:8179, H-B:SER:385:N:8379, V-B:ASP:366:CA:8181, V-A:ASP:366:CB:3209, V-B:ASN:370:CG:8217, V-B:TYR:531:CE1:9764, V-B:ASN:370:CB:8216, V-A:PRO:540:CG:4884"]

$$$$
3ad_Grossjean_2025
     RDKit          3D

 29 31  0  0  0  0  0  0  0  0999 V2000
  126.5240  129.9210   62.6550 N   0  0  0  0  0  0  0  0  0  0  0  0
  126.4430  131.0400   62.3690 C   0  0  0  0  0  0  0  0  0  0  0  0
  126.3440  132.4570   62.0050 C   0  0  0  0  0  0  0  0  0  0  0  0
  127.5010  133.1980   61.6620 C   0  0  0  0  0  0  0  0  0  0  0  0
  128.9060  132.5690   61.6040 C   0  0  0  0  0  0  0  0  0  0  0  0
  128.8980  131.3260   61.1200 F   0  0  0  0  0  0  0  0  0  0  0  0
  129.7000  133.3010   60.8200 F   0  0  0  0  0  0  0  0  0  0  0  0
  129.4360  132.5180   62.8270 F   0  0  0  0  0  0  0  0  0  0  0  0
  127.3580  134.5630   61.3670 C   0  0  0  0  0  0  0  0  0  0  0  0
  126.0990  135.1700   61.4170 C   0  0  0  0  0  0  0  0  0  0  0  0
  125.8930  136.6270   61.1260 C   0  0  0  0  0  0  0  0  0  0  0  0
  124.6260  137.2140   61.2700 C   0  0  0  0  0  0  0  0  0  0  0  0
  124.4270  138.5660   61.0030 C   0  0  0  0  0  0  0  0  0  0  0  0
  125.4980  139.3520   60.5870 C   0  0  0  0  0  0  0  0  0  0  0  0
  126.7640  138.7940   60.4400 C   0  0  0  0  0  0  0  0  0  0  0  0
  126.9580  137.4420   60.7090 C   0  0  0  0  0  0  0  0  0  0  0  0
  124.9950  134.4560   61.7530 N   0  0  0  0  0  0  0  0  0  0  0  0
  125.1040  133.1340   62.0210 C   0  0  0  0  0  0  0  0  0  0  0  0
  123.5560  132.3580   62.4280 S   0  0  0  0  0  0  0  0  0  0  0  0
  123.4160  130.8620   61.4050 C   0  0  0  0  0  0  0  0  0  0  0  0
  124.0280  131.0530   60.0150 C   0  0  0  0  0  0  0  0  0  0  0  0
  123.3930  131.6750   59.1620 O   0  0  0  0  0  0  0  0  0  0  0  0
  125.2490  130.5050   59.8390 N   0  0  0  0  0  0  0  0  0  0  0  0
  126.0840  130.5090   58.7060 C   0  0  0  0  0  0  0  0  0  0  0  0
  125.5610  129.8900   57.5670 C   0  0  0  0  0  0  0  0  0  0  0  0
  126.3060  129.8340   56.3920 C   0  0  0  0  0  0  0  0  0  0  0  0
  127.5790  130.3940   56.3560 C   0  0  0  0  0  0  0  0  0  0  0  0
  128.1150  131.0080   57.4850 C   0  0  0  0  0  0  0  0  0  0  0  0
  127.3740  131.0660   58.6620 C   0  0  0  0  0  0  0  0  0  0  0  0
  1  2  3  0
  2  3  1  0
  3  4  2  0
  4  5  1  0
  5  6  1  0
  5  7  1  0
  5  8  1  0
  4  9  1  0
  9 10  2  0
 10 11  1  0
 11 12  2  0
 12 13  1  0
 13 14  2  0
 14 15  1  0
 15 16  2  0
 10 17  1  0
 17 18  2  0
 18 19  1  0
 19 20  1  0
 20 21  1  0
 21 22  2  0
 21 23  1  0
 23 24  1  0
 24 25  2  0
 25 26  1  0
 26 27  2  0
 27 28  1  0
 28 29  2  0
 18  3  1  0
 29 24  1  0
 16 11  1  0
M  END
>  <Binding energies>  (28) 
[-7.83]

>  <Ligand effiencies>  (28) 
[-0.261]

>  <Interactions>  (28) 
["V-A:PRO:540:C:4879, V-A:TYR:539:CD1:4871, V-A:TYR:539:C:4865, V-A:ALA:541:CA:4888, V-A:TYR:539:CZ:4875, V-A:TYR:539:CE1:4873, V-B:LEU:475:CD2:9230, V-A:PRO:540:CA:4881, V-A:ALA:541:CB:4890, V-B:PRO:482:CB:9297, V-B:ILE:369:CG2:8208, V-B:ILE:369:CD1:8210, V-A:VAL:344:CG1:2998, V-B:SER:385:CB:8380, V-A:TYR:539:CB:4869, V-B:LEU:373:CD1:8251, V-B:ILE:369:CB:8207, V-B:PRO:482:CG:9298, V-A:GLU:543:CD:4906, V-A:PRO:540:N:4882, V-A:MET:535:CE:4833, V-B:ASP:366:CB:8183, V-B:ASP:366:CG:8184, V-A:TYR:539:CG:4870, V-B:VAL:384:C:8368, V-B:SER:385:CA:8378, H-A:TYR:539:OH:4876, V-B:ASP:366:CA:8181, H-B:GLY:454:N:9021, H-B:ASP:366:OD1:8185"]

$$$$
3ai_Grossjean_2025
     RDKit          3D

 28 30  0  0  0  0  0  0  0  0999 V2000
  123.7170  131.3610   59.2560 N   0  0  0  0  0  0  0  0  0  0  0  0
  124.8420  131.3850   59.5260 C   0  0  0  0  0  0  0  0  0  0  0  0
  126.2670  131.4160   59.8700 C   0  0  0  0  0  0  0  0  0  0  0  0
  126.7780  132.4010   60.7510 C   0  0  0  0  0  0  0  0  0  0  0  0
  125.8820  133.4560   61.4280 C   0  0  0  0  0  0  0  0  0  0  0  0
  126.5480  134.5650   61.7590 F   0  0  0  0  0  0  0  0  0  0  0  0
  124.8950  133.8110   60.6040 F   0  0  0  0  0  0  0  0  0  0  0  0
  125.3540  132.9600   62.5470 F   0  0  0  0  0  0  0  0  0  0  0  0
  128.1570  132.4180   61.0110 C   0  0  0  0  0  0  0  0  0  0  0  0
  129.0020  131.4810   60.4080 C   0  0  0  0  0  0  0  0  0  0  0  0
  130.4820  131.4590   60.6410 C   0  0  0  0  0  0  0  0  0  0  0  0
  131.3780  131.4730   59.5600 C   0  0  0  0  0  0  0  0  0  0  0  0
  132.7540  131.4570   59.7690 C   0  0  0  0  0  0  0  0  0  0  0  0
  133.2550  131.4300   61.0670 C   0  0  0  0  0  0  0  0  0  0  0  0
  132.3890  131.4180   62.1550 C   0  0  0  0  0  0  0  0  0  0  0  0
  131.0140  131.4340   61.9420 C   0  0  0  0  0  0  0  0  0  0  0  0
  128.5090  130.5440   59.5580 N   0  0  0  0  0  0  0  0  0  0  0  0
  127.1780  130.4920   59.3100 C   0  0  0  0  0  0  0  0  0  0  0  0
  126.7150  129.1860   58.1920 S   0  0  0  0  0  0  0  0  0  0  0  0
  126.4880  129.9210   56.5370 C   0  0  0  0  0  0  0  0  0  0  0  0
  127.5490  130.9560   56.1350 C   0  0  0  0  0  0  0  0  0  0  0  0
  127.3040  131.8110   55.2810 O   0  0  0  0  0  0  0  0  0  0  0  0
  128.7280  130.8360   56.7850 N   0  0  0  0  0  0  0  0  0  0  0  0
  129.8580  131.6300   56.6320 C   0  0  0  0  0  0  0  0  0  0  0  0
  131.0740  131.1420   56.1550 C   0  0  0  0  0  0  0  0  0  0  0  0
  131.9200  132.2260   56.1570 C   0  0  0  0  0  0  0  0  0  0  0  0
  131.2500  133.3120   56.6110 O   0  0  0  0  0  0  0  0  0  0  0  0
  129.9430  132.9210   56.9080 N   0  0  0  0  0  0  0  0  0  0  0  0
  1  2  3  0
  2  3  1  0
  3  4  2  0
  4  5  1  0
  5  6  1  0
  5  7  1  0
  5  8  1  0
  4  9  1  0
  9 10  2  0
 10 11  1  0
 11 12  2  0
 12 13  1  0
 13 14  2  0
 14 15  1  0
 15 16  2  0
 10 17  1  0
 17 18  2  0
 18 19  1  0
 19 20  1  0
 20 21  1  0
 21 22  2  0
 21 23  1  0
 23 24  1  0
 24 25  1  0
 25 26  2  0
 26 27  1  0
 27 28  1  0
 18  3  1  0
 28 24  2  0
 16 11  1  0
M  END
>  <Binding energies>  (29) 
[-7.83]

>  <Ligand effiencies>  (29) 
[-0.27]

>  <Interactions>  (29) 
["V-A:ILE:538:CB:4860, V-A:TYR:539:CD1:4871, V-A:TYR:531:CE2:4791, V-A:TYR:539:CZ:4875, V-A:ILE:538:CG2:4861, V-A:PRO:540:CB:4883, V-A:TYR:531:CZ:4792, V-A:TYR:539:CE1:4873, V-B:LEU:475:CD2:9230, V-A:PRO:540:CA:4881, V-A:LEU:363:CD1:3186, V-B:ILE:369:CG2:8208, V-A:ASN:362:CB:3173, V-A:TYR:539:CE2:4874, V-A:GLU:543:CD:4906, V-A:ASN:362:C:3169, V-A:ASP:366:CG:3210, H-A:TYR:539:N:4868, V-A:MET:535:CE:4833, H-A:TYR:539:OH:4876, H-B:ASN:370:ND2:8219"]

$$$$
3aj_Grossjean_2025
     RDKit          3D

 28 30  0  0  0  0  0  0  0  0999 V2000
  124.0100  131.0690   60.9070 N   0  0  0  0  0  0  0  0  0  0  0  0
  125.0290  131.2030   60.3770 C   0  0  0  0  0  0  0  0  0  0  0  0
  126.3190  131.3730   59.7020 C   0  0  0  0  0  0  0  0  0  0  0  0
  126.6040  130.6800   58.5000 C   0  0  0  0  0  0  0  0  0  0  0  0
  125.5820  129.7550   57.8110 C   0  0  0  0  0  0  0  0  0  0  0  0
  125.5350  128.5380   58.3580 F   0  0  0  0  0  0  0  0  0  0  0  0
  124.3600  130.2830   57.8950 F   0  0  0  0  0  0  0  0  0  0  0  0
  125.8990  129.6020   56.5250 F   0  0  0  0  0  0  0  0  0  0  0  0
  127.8720  130.8400   57.9190 C   0  0  0  0  0  0  0  0  0  0  0  0
  128.8280  131.6630   58.5230 C   0  0  0  0  0  0  0  0  0  0  0  0
  130.1980  131.8600   57.9500 C   0  0  0  0  0  0  0  0  0  0  0  0
  131.3400  131.5340   58.6970 C   0  0  0  0  0  0  0  0  0  0  0  0
  132.6180  131.7110   58.1700 C   0  0  0  0  0  0  0  0  0  0  0  0
  132.7680  132.2200   56.8840 C   0  0  0  0  0  0  0  0  0  0  0  0
  131.6520  132.5500   56.1230 C   0  0  0  0  0  0  0  0  0  0  0  0
  130.3780  132.3700   56.6530 C   0  0  0  0  0  0  0  0  0  0  0  0
  128.5530  132.3190   59.6790 N   0  0  0  0  0  0  0  0  0  0  0  0
  127.3290  132.2000   60.2460 C   0  0  0  0  0  0  0  0  0  0  0  0
  127.1440  133.1480   61.7410 S   0  0  0  0  0  0  0  0  0  0  0  0
  125.7620  134.3140   61.4970 C   0  0  0  0  0  0  0  0  0  0  0  0
  126.1650  135.7940   61.4250 C   0  0  0  0  0  0  0  0  0  0  0  0
  127.3330  136.1400   61.6190 O   0  0  0  0  0  0  0  0  0  0  0  0
  125.1520  136.6410   61.1380 N   0  0  0  0  0  0  0  0  0  0  0  0
  125.2380  138.0210   61.0060 C   0  0  0  0  0  0  0  0  0  0  0  0
  124.5510  138.9380   61.6520 N   0  0  0  0  0  0  0  0  0  0  0  0
  124.8940  140.1550   61.2780 C   0  0  0  0  0  0  0  0  0  0  0  0
  125.8840  140.2430   60.3030 C   0  0  0  0  0  0  0  0  0  0  0  0
  126.3840  138.6390   59.8590 S   0  0  0  0  0  0  0  0  0  0  0  0
  1  2  3  0
  2  3  1  0
  3  4  2  0
  4  5  1  0
  5  6  1  0
  5  7  1  0
  5  8  1  0
  4  9  1  0
  9 10  2  0
 10 11  1  0
 11 12  2  0
 12 13  1  0
 13 14  2  0
 14 15  1  0
 15 16  2  0
 10 17  1  0
 17 18  2  0
 18 19  1  0
 19 20  1  0
 20 21  1  0
 21 22  2  0
 21 23  1  0
 23 24  1  0
 24 25  2  0
 25 26  1  0
 26 27  2  0
 27 28  1  0
 18  3  1  0
 28 24  1  0
 16 11  1  0
M  END
>  <Binding energies>  (30) 
[-8.05]

>  <Ligand effiencies>  (30) 
[-0.2775862068965517]

>  <Interactions>  (30) 
["V-A:ILE:538:CB:4860, V-A:TYR:539:CD1:4871, V-A:TYR:531:CE2:4791, V-A:TYR:539:CZ:4875, V-A:ILE:538:CG2:4861, V-A:PRO:540:CB:4883, V-A:TYR:539:CE1:4873, V-B:LEU:475:CD2:9230, V-A:PRO:540:CA:4881, V-A:LEU:363:CD1:3186, V-B:TYR:531:CZ:9766, V-B:HIS:383:CD2:8363, V-B:HIS:383:CG:8361, V-B:HIS:383:CE1:8365, V-A:VAL:344:CG1:2998, V-B:SER:385:CB:8380, V-A:TYR:539:CB:4869, V-B:LEU:373:CD1:8251, V-B:HIS:383:CB:8360, V-B:PRO:482:CG:9298, V-A:ILE:538:CA:4858, V-A:PRO:540:CD:4885, V-B:ASP:366:CB:8183, V-B:ASP:366:CG:8184, V-A:TYR:539:CG:4870, V-B:SER:385:CA:8378, H-B:VAL:384:O:8369, V-B:ASP:366:C:8179, V-B:ASP:366:CA:8181, V-B:TYR:531:CE1:9764"]

$$$$
3ak_Grossjean_2025
     RDKit          3D

 33 34  0  0  0  0  0  0  0  0999 V2000
  131.5050  130.8680   61.7510 C   0  0  0  0  0  0  0  0  0  0  0  0
  130.8460  132.1240   61.7500 O   0  0  0  0  0  0  0  0  0  0  0  0
  129.4430  132.0260   61.5450 C   0  0  0  0  0  0  0  0  0  0  0  0
  129.0710  132.7840   60.2650 C   0  0  0  0  0  0  0  0  0  0  0  0
  129.1450  131.8900   59.1600 O   0  0  0  0  0  0  0  0  0  0  0  0
  130.4500  131.6750   58.6300 C   0  0  0  0  0  0  0  0  0  0  0  0
  130.6560  132.2750   57.2270 C   0  0  0  0  0  0  0  0  0  0  0  0
  129.5070  133.0300   56.8680 O   0  0  0  0  0  0  0  0  0  0  0  0
  129.1470  132.9160   55.4980 C   0  0  0  0  0  0  0  0  0  0  0  0
  127.8750  132.0610   55.3520 C   0  0  0  0  0  0  0  0  0  0  0  0
  127.5050  131.3470   56.5760 N   0  0  0  0  0  0  0  0  0  0  0  0
  126.7650  130.2240   56.6420 C   0  0  0  0  0  0  0  0  0  0  0  0
  126.3230  129.6570   55.6420 O   0  0  0  0  0  0  0  0  0  0  0  0
  126.4550  129.6220   58.0230 C   0  0  0  0  0  0  0  0  0  0  0  0
  125.0060  130.3070   58.9080 S   0  0  0  0  0  0  0  0  0  0  0  0
  125.5630  131.0390   60.4390 C   0  0  0  0  0  0  0  0  0  0  0  0
  125.5210  132.3930   60.4910 N   0  0  0  0  0  0  0  0  0  0  0  0
  125.9300  133.0420   61.6100 C   0  0  0  0  0  0  0  0  0  0  0  0
  125.8490  134.5390   61.5810 C   0  0  0  0  0  0  0  0  0  0  0  0
  124.6200  135.1880   61.3850 C   0  0  0  0  0  0  0  0  0  0  0  0
  124.5390  136.5780   61.3600 C   0  0  0  0  0  0  0  0  0  0  0  0
  125.6890  137.3400   61.5340 C   0  0  0  0  0  0  0  0  0  0  0  0
  126.9180  136.7230   61.7340 C   0  0  0  0  0  0  0  0  0  0  0  0
  126.9970  135.3330   61.7580 C   0  0  0  0  0  0  0  0  0  0  0  0
  126.3820  132.3310   62.7270 C   0  0  0  0  0  0  0  0  0  0  0  0
  126.4340  130.9290   62.7010 C   0  0  0  0  0  0  0  0  0  0  0  0
  126.9390  130.1810   63.9490 C   0  0  0  0  0  0  0  0  0  0  0  0
  127.8930  129.3140   63.6070 F   0  0  0  0  0  0  0  0  0  0  0  0
  127.4390  131.0480   64.8310 F   0  0  0  0  0  0  0  0  0  0  0  0
  125.9760  129.4930   64.5670 F   0  0  0  0  0  0  0  0  0  0  0  0
  126.0150  130.2590   61.5260 C   0  0  0  0  0  0  0  0  0  0  0  0
  126.0480  128.7960   61.4410 C   0  0  0  0  0  0  0  0  0  0  0  0
  126.0740  127.6400   61.3730 N   0  0  0  0  0  0  0  0  0  0  0  0
  1  2  1  0
  2  3  1  0
  3  4  1  0
  4  5  1  0
  5  6  1  0
  6  7  1  0
  7  8  1  0
  8  9  1  0
  9 10  1  0
 10 11  1  0
 11 12  1  0
 12 13  2  0
 12 14  1  0
 14 15  1  0
 15 16  1  0
 16 17  2  0
 17 18  1  0
 18 19  1  0
 19 20  2  0
 20 21  1  0
 21 22  2  0
 22 23  1  0
 23 24  2  0
 18 25  2  0
 25 26  1  0
 26 27  1  0
 27 28  1  0
 27 29  1  0
 27 30  1  0
 26 31  2  0
 31 32  1  0
 32 33  3  0
 31 16  1  0
 24 19  1  0
M  END
>  <Binding energies>  (31) 
[-6.75]

>  <Ligand effiencies>  (31) 
[-0.19852941176470587]

>  <Interactions>  (31) 
["V-A:ILE:538:CB:4860, V-A:TYR:539:CD1:4871, V-A:TYR:539:C:4865, V-A:TYR:539:CZ:4875, V-A:TYR:539:CE1:4873, V-B:LEU:475:CD2:9230, V-A:PRO:540:CA:4881, V-A:ALA:541:CB:4890, H-B:TYR:531:OH:9767, V-B:PRO:482:CB:9297, V-B:ILE:369:CG2:8208, V-B:SER:385:CB:8380, V-B:LEU:373:CD1:8251, V-B:PRO:482:CG:9298, V-A:ILE:538:CA:4858, V-A:TYR:539:CD2:4872, V-A:TYR:539:CE2:4874, V-A:GLU:543:CD:4906, V-A:PRO:540:N:4882, H-A:TYR:539:N:4868, V-A:MET:535:CE:4833, V-B:ASP:366:CG:8184, V-A:ILE:538:C:4856, V-B:ARG:545:CZ:9898, V-A:TYR:539:CG:4870, V-B:SER:385:CA:8378, H-A:TYR:539:OH:4876, H-B:ARG:545:NH2:9900, H-B:ASN:370:ND2:8219, H-A:ALA:541:N:4889, V-A:GLU:543:CB:4904"]

$$$$
3bk_Grossjean_2025
     RDKit          3D

 30 31  0  0  0  0  0  0  0  0999 V2000
  132.1690  132.4590   56.7400 C   0  0  0  0  0  0  0  0  0  0  0  0
  130.9990  133.2310   56.5180 O   0  0  0  0  0  0  0  0  0  0  0  0
  130.0780  132.6190   55.6250 C   0  0  0  0  0  0  0  0  0  0  0  0
  128.8220  132.1880   56.3960 C   0  0  0  0  0  0  0  0  0  0  0  0
  129.1420  131.0930   57.2430 O   0  0  0  0  0  0  0  0  0  0  0  0
  129.2970  131.4510   58.6100 C   0  0  0  0  0  0  0  0  0  0  0  0
  128.6530  130.3730   59.4910 C   0  0  0  0  0  0  0  0  0  0  0  0
  128.2920  129.2590   58.6860 O   0  0  0  0  0  0  0  0  0  0  0  0
  126.9290  129.2600   58.2810 C   0  0  0  0  0  0  0  0  0  0  0  0
  126.2980  130.6200   58.6140 C   0  0  0  0  0  0  0  0  0  0  0  0
  125.4970  130.5780   59.8390 N   0  0  0  0  0  0  0  0  0  0  0  0
  124.2880  131.1420   60.0010 C   0  0  0  0  0  0  0  0  0  0  0  0
  123.6960  131.7560   59.1120 O   0  0  0  0  0  0  0  0  0  0  0  0
  123.6320  130.9660   61.3720 C   0  0  0  0  0  0  0  0  0  0  0  0
  123.6670  132.5040   62.3470 S   0  0  0  0  0  0  0  0  0  0  0  0
  125.1760  133.3860   61.9850 C   0  0  0  0  0  0  0  0  0  0  0  0
  125.0340  134.6970   61.6630 N   0  0  0  0  0  0  0  0  0  0  0  0
  126.1290  135.4470   61.3690 C   0  0  0  0  0  0  0  0  0  0  0  0
  125.8850  136.8900   61.0450 C   0  0  0  0  0  0  0  0  0  0  0  0
  126.9390  137.7210   60.6320 C   0  0  0  0  0  0  0  0  0  0  0  0
  126.7190  139.0640   60.3340 C   0  0  0  0  0  0  0  0  0  0  0  0
  125.4380  139.5950   60.4450 C   0  0  0  0  0  0  0  0  0  0  0  0
  124.3760  138.7920   60.8480 C   0  0  0  0  0  0  0  0  0  0  0  0
  124.5990  137.4500   61.1430 C   0  0  0  0  0  0  0  0  0  0  0  0
  127.4110  134.8880   61.4000 C   0  0  0  0  0  0  0  0  0  0  0  0
  127.5760  133.5380   61.7290 C   0  0  0  0  0  0  0  0  0  0  0  0
  128.9930  132.9670   61.7500 C   0  0  0  0  0  0  0  0  0  0  0  0
  126.4400  132.7580   62.0310 C   0  0  0  0  0  0  0  0  0  0  0  0
  126.5820  131.3420   62.3810 C   0  0  0  0  0  0  0  0  0  0  0  0
  126.6940  130.2240   62.6570 N   0  0  0  0  0  0  0  0  0  0  0  0
  1  2  1  0
  2  3  1  0
  3  4  1  0
  4  5  1  0
  5  6  1  0
  6  7  1  0
  7  8  1  0
  8  9  1  0
  9 10  1  0
 10 11  1  0
 11 12  1  0
 12 13  2  0
 12 14  1  0
 14 15  1  0
 15 16  1  0
 16 17  2  0
 17 18  1  0
 18 19  1  0
 19 20  2  0
 20 21  1  0
 21 22  2  0
 22 23  1  0
 23 24  2  0
 18 25  2  0
 25 26  1  0
 26 27  1  0
 26 28  2  0
 28 29  1  0
 29 30  3  0
 28 16  1  0
 24 19  1  0
M  END
>  <Binding energies>  (32) 
[-7.55]

>  <Ligand effiencies>  (32) 
[-0.24354838709677418]

>  <Interactions>  (32) 
["V-A:PRO:540:C:4879, V-A:ILE:538:CB:4860, V-A:TYR:539:CD1:4871, V-A:TYR:539:C:4865, V-A:ALA:541:CA:4888, V-A:TYR:539:CZ:4875, V-A:ILE:538:CG2:4861, V-A:PRO:540:CB:4883, V-A:TYR:539:CE1:4873, V-B:LEU:475:CD2:9230, V-A:PRO:540:CA:4881, V-A:LEU:363:CD1:3186, V-A:ALA:541:CB:4890, V-B:PRO:482:CB:9297, V-B:HIS:383:CG:8361, V-B:ILE:369:CG2:8208, V-B:ILE:369:CD1:8210, V-A:VAL:344:CG1:2998, V-B:SER:385:CB:8380, V-A:TYR:539:CB:4869, V-B:LEU:373:CD1:8251, V-B:HIS:383:CB:8360, V-B:PRO:482:CG:9298, V-A:ILE:538:CA:4858, V-A:TYR:539:CD2:4872, V-A:PRO:540:CD:4885, V-A:TYR:539:CE2:4874, V-A:PRO:540:N:4882, H-A:TYR:539:N:4868, V-A:MET:535:CE:4833, V-B:ASP:366:CG:8184, V-A:ILE:538:C:4856, V-A:TYR:539:CG:4870, V-B:VAL:384:C:8368, V-B:SER:385:CA:8378, H-A:TYR:539:OH:4876, H-B:GLY:454:N:9021, H-B:ASP:366:OD1:8185"]

$$$$
3cb_Grossjean_2025
     RDKit          3D

 30 32  0  0  0  0  0  0  0  0999 V2000
  124.8470  140.1000   62.4500 C   0  0  0  0  0  0  0  0  0  0  0  0
  124.3540  139.5470   61.2390 O   0  0  0  0  0  0  0  0  0  0  0  0
  125.1720  138.8590   60.4010 C   0  0  0  0  0  0  0  0  0  0  0  0
  125.6700  139.3480   59.3830 O   0  0  0  0  0  0  0  0  0  0  0  0
  125.4080  137.4400   60.8350 C   0  0  0  0  0  0  0  0  0  0  0  0
  124.3560  136.5240   60.9890 C   0  0  0  0  0  0  0  0  0  0  0  0
  124.6110  135.2160   61.3890 C   0  0  0  0  0  0  0  0  0  0  0  0
  125.9150  134.7950   61.6490 C   0  0  0  0  0  0  0  0  0  0  0  0
  126.0580  133.4500   62.0450 N   0  0  0  0  0  0  0  0  0  0  0  0
  125.4120  132.7560   63.0070 C   0  0  0  0  0  0  0  0  0  0  0  0
  124.5240  133.2100   63.7300 O   0  0  0  0  0  0  0  0  0  0  0  0
  125.8580  131.2920   63.1430 C   0  0  0  0  0  0  0  0  0  0  0  0
  127.6340  130.9960   62.8420 S   0  0  0  0  0  0  0  0  0  0  0  0
  127.9000  131.0320   61.0810 C   0  0  0  0  0  0  0  0  0  0  0  0
  126.8040  130.6890   60.3630 N   0  0  0  0  0  0  0  0  0  0  0  0
  126.8890  130.6810   59.0140 C   0  0  0  0  0  0  0  0  0  0  0  0
  125.6200  130.3000   58.2750 C   0  0  0  0  0  0  0  0  0  0  0  0
  128.0590  131.0050   58.3350 C   0  0  0  0  0  0  0  0  0  0  0  0
  129.2100  131.3470   59.0570 C   0  0  0  0  0  0  0  0  0  0  0  0
  130.4440  131.6820   58.2820 C   0  0  0  0  0  0  0  0  0  0  0  0
  131.6660  131.0830   58.6110 C   0  0  0  0  0  0  0  0  0  0  0  0
  132.8190  131.3800   57.8880 C   0  0  0  0  0  0  0  0  0  0  0  0
  132.7520  132.2770   56.8250 C   0  0  0  0  0  0  0  0  0  0  0  0
  131.5440  132.8750   56.4790 C   0  0  0  0  0  0  0  0  0  0  0  0
  130.3930  132.5750   57.2030 C   0  0  0  0  0  0  0  0  0  0  0  0
  129.1410  131.3470   60.4740 C   0  0  0  0  0  0  0  0  0  0  0  0
  130.3380  131.6050   61.2810 C   0  0  0  0  0  0  0  0  0  0  0  0
  131.2820  131.8100   61.9180 N   0  0  0  0  0  0  0  0  0  0  0  0
  126.9730  135.7030   61.4930 C   0  0  0  0  0  0  0  0  0  0  0  0
  126.7180  137.0120   61.0920 C   0  0  0  0  0  0  0  0  0  0  0  0
  1  2  1  0
  2  3  1  0
  3  4  2  0
  3  5  1  0
  5  6  2  0
  6  7  1  0
  7  8  2  0
  8  9  1  0
  9 10  1  0
 10 11  2  0
 10 12  1  0
 12 13  1  0
 13 14  1  0
 14 15  2  0
 15 16  1  0
 16 17  1  0
 16 18  2  0
 18 19  1  0
 19 20  1  0
 20 21  2  0
 21 22  1  0
 22 23  2  0
 23 24  1  0
 24 25  2  0
 19 26  2  0
 26 27  1  0
 27 28  3  0
  8 29  1  0
 29 30  2  0
 30  5  1  0
 26 14  1  0
 25 20  1  0
M  END
>  <Binding energies>  (33) 
[-9.15]

>  <Ligand effiencies>  (33) 
[-0.29516129032258065]

>  <Interactions>  (33) 
["V-A:ILE:538:CB:4860, V-A:TYR:539:CD1:4871, V-A:TYR:531:CE2:4791, V-A:TYR:539:C:4865, V-A:TYR:539:CZ:4875, V-A:ILE:538:CG2:4861, V-A:PRO:540:CB:4883, V-A:TYR:539:CE1:4873, V-B:LEU:475:CD2:9230, V-A:PRO:540:CA:4881, V-A:LEU:363:CD1:3186, V-B:PRO:482:CB:9297, V-B:ILE:369:CG2:8208, V-B:SER:385:CB:8380, V-A:TYR:539:CB:4869, V-B:LEU:373:CD1:8251, V-B:CYS:476:C:9235, V-B:THR:477:CA:9241, V-B:THR:477:CG2:9244, V-B:PRO:482:CG:9298, V-A:ILE:538:CA:4858, V-A:PRO:540:CD:4885, V-A:PRO:540:N:4882, V-A:TYR:539:CG:4870, V-B:SER:385:CA:8378, H-B:GLY:454:N:9021, H-A:ALA:541:N:4889"]

$$$$
3ch_Grossjean_2025
     RDKit          3D

 32 34  0  0  0  0  0  0  0  0999 V2000
  131.0360  125.3360   56.4450 C   0  0  0  0  0  0  0  0  0  0  0  0
  130.1950  124.1870   56.4260 O   0  0  0  0  0  0  0  0  0  0  0  0
  128.9370  124.2530   56.9980 C   0  0  0  0  0  0  0  0  0  0  0  0
  128.4910  125.3200   57.7940 C   0  0  0  0  0  0  0  0  0  0  0  0
  127.1960  125.3220   58.3330 C   0  0  0  0  0  0  0  0  0  0  0  0
  126.6590  126.3460   59.1370 N   0  0  0  0  0  0  0  0  0  0  0  0
  127.2810  127.3790   59.7470 C   0  0  0  0  0  0  0  0  0  0  0  0
  128.4860  127.6220   59.6910 O   0  0  0  0  0  0  0  0  0  0  0  0
  126.3710  128.3270   60.5280 C   0  0  0  0  0  0  0  0  0  0  0  0
  125.8320  129.7440   59.5260 S   0  0  0  0  0  0  0  0  0  0  0  0
  127.1690  130.9180   59.5730 C   0  0  0  0  0  0  0  0  0  0  0  0
  127.0480  131.8500   60.5500 N   0  0  0  0  0  0  0  0  0  0  0  0
  128.0100  132.7940   60.6640 C   0  0  0  0  0  0  0  0  0  0  0  0
  127.8100  133.8090   61.7730 C   0  0  0  0  0  0  0  0  0  0  0  0
  129.1160  132.8460   59.8190 C   0  0  0  0  0  0  0  0  0  0  0  0
  129.2630  131.8860   58.8080 C   0  0  0  0  0  0  0  0  0  0  0  0
  130.4600  131.9870   57.9190 C   0  0  0  0  0  0  0  0  0  0  0  0
  130.3110  132.3570   56.5780 C   0  0  0  0  0  0  0  0  0  0  0  0
  131.4210  132.4450   55.7410 C   0  0  0  0  0  0  0  0  0  0  0  0
  132.6870  132.1580   56.2440 C   0  0  0  0  0  0  0  0  0  0  0  0
  132.8520  131.7820   57.5740 C   0  0  0  0  0  0  0  0  0  0  0  0
  131.7390  131.6940   58.4080 C   0  0  0  0  0  0  0  0  0  0  0  0
  128.2720  130.8780   58.6880 C   0  0  0  0  0  0  0  0  0  0  0  0
  128.4220  129.7950   57.7110 C   0  0  0  0  0  0  0  0  0  0  0  0
  128.5400  128.9400   56.9390 N   0  0  0  0  0  0  0  0  0  0  0  0
  126.3550  124.2370   58.0850 C   0  0  0  0  0  0  0  0  0  0  0  0
  126.7780  123.1580   57.2930 C   0  0  0  0  0  0  0  0  0  0  0  0
  125.9910  122.0560   57.0030 O   0  0  0  0  0  0  0  0  0  0  0  0
  124.6640  122.2500   56.5250 C   0  0  0  0  0  0  0  0  0  0  0  0
  128.0720  123.1770   56.7580 C   0  0  0  0  0  0  0  0  0  0  0  0
  128.4930  122.1350   55.9660 O   0  0  0  0  0  0  0  0  0  0  0  0
  128.5890  122.4570   54.5860 C   0  0  0  0  0  0  0  0  0  0  0  0
  1  2  1  0
  2  3  1  0
  3  4  2  0
  4  5  1  0
  5  6  1  0
  6  7  1  0
  7  8  2  0
  7  9  1  0
  9 10  1  0
 10 11  1  0
 11 12  2  0
 12 13  1  0
 13 14  1  0
 13 15  2  0
 15 16  1  0
 16 17  1  0
 17 18  2  0
 18 19  1  0
 19 20  2  0
 20 21  1  0
 21 22  2  0
 16 23  2  0
 23 24  1  0
 24 25  3  0
  5 26  2  0
 26 27  1  0
 27 28  1  0
 28 29  1  0
 27 30  2  0
 30 31  1  0
 31 32  1  0
 30  3  1  0
 23 11  1  0
 22 17  1  0
M  END
>  <Binding energies>  (34) 
[-7.93]

>  <Ligand effiencies>  (34) 
[-0.2403030303030303]

>  <Interactions>  (34) 
["V-A:ILE:538:CB:4860, V-A:TYR:539:CD1:4871, V-A:TYR:531:CE2:4791, V-A:TYR:539:C:4865, V-A:ILE:538:CG2:4861, V-A:PRO:540:CB:4883, V-A:TYR:539:CE1:4873, V-A:PRO:540:CA:4881, V-A:LEU:363:CD1:3186, V-A:ALA:541:CB:4890, V-B:ILE:538:CB:9834, V-B:PRO:540:N:9856, H-B:ASP:366:OD2:8186, V-B:TYR:539:CZ:9849, H-B:TYR:531:OH:9767, V-B:PRO:540:CB:9857, V-B:LEU:363:CD1:8160, V-B:ILE:538:CG2:9835, V-A:ILE:538:CA:4858, V-A:PRO:540:N:4882, V-B:TYR:539:CE2:9848, V-B:ILE:538:CA:9832, V-B:MET:535:CE:9807, H-B:TYR:539:N:9842, V-B:PRO:540:CG:9858, V-B:TYR:539:CD2:9846, V-B:PRO:540:CD:9859, V-B:ASP:366:CG:8184, H-B:TYR:539:OH:9850, V-B:ILE:538:C:9830, H-B:ASP:366:OD1:8185, V-B:VAL:537:C:9822"]

$$$$
3ci_Grossjean_2025
     RDKit          3D

 25 27  0  0  0  0  0  0  0  0999 V2000
  127.7900  133.7270   62.1780 C   0  0  0  0  0  0  0  0  0  0  0  0
  127.7720  132.8830   60.9180 C   0  0  0  0  0  0  0  0  0  0  0  0
  128.8320  132.8910   60.0170 C   0  0  0  0  0  0  0  0  0  0  0  0
  128.7760  132.0800   58.8750 C   0  0  0  0  0  0  0  0  0  0  0  0
  129.9440  132.1100   57.9440 C   0  0  0  0  0  0  0  0  0  0  0  0
  131.2260  131.7630   58.3910 C   0  0  0  0  0  0  0  0  0  0  0  0
  132.3130  131.8010   57.5210 C   0  0  0  0  0  0  0  0  0  0  0  0
  132.1230  132.1910   56.1990 C   0  0  0  0  0  0  0  0  0  0  0  0
  130.8570  132.5470   55.7410 C   0  0  0  0  0  0  0  0  0  0  0  0
  129.7730  132.5090   56.6130 C   0  0  0  0  0  0  0  0  0  0  0  0
  127.6220  131.2820   58.6710 C   0  0  0  0  0  0  0  0  0  0  0  0
  127.4890  130.4470   57.4720 C   0  0  0  0  0  0  0  0  0  0  0  0
  127.3850  129.7870   56.5260 N   0  0  0  0  0  0  0  0  0  0  0  0
  126.5910  131.3300   59.6400 C   0  0  0  0  0  0  0  0  0  0  0  0
  125.1030  130.3490   59.4950 S   0  0  0  0  0  0  0  0  0  0  0  0
  123.7560  131.1450   60.4290 C   0  0  0  0  0  0  0  0  0  0  0  0
  123.7230  130.7460   61.9090 C   0  0  0  0  0  0  0  0  0  0  0  0
  122.6360  130.6310   62.4780 O   0  0  0  0  0  0  0  0  0  0  0  0
  124.9280  130.5620   62.4940 N   0  0  0  0  0  0  0  0  0  0  0  0
  125.1770  130.1740   63.8030 C   0  0  0  0  0  0  0  0  0  0  0  0
  126.4630  130.0080   64.3160 C   0  0  0  0  0  0  0  0  0  0  0  0
  126.2790  129.6210   65.6240 C   0  0  0  0  0  0  0  0  0  0  0  0
  124.9510  129.5590   65.8840 O   0  0  0  0  0  0  0  0  0  0  0  0
  124.2630  129.9100   64.7220 N   0  0  0  0  0  0  0  0  0  0  0  0
  126.6680  132.1240   60.7380 N   0  0  0  0  0  0  0  0  0  0  0  0
  1  2  1  0
  2  3  2  0
  3  4  1  0
  4  5  1  0
  5  6  2  0
  6  7  1  0
  7  8  2  0
  8  9  1  0
  9 10  2  0
  4 11  2  0
 11 12  1  0
 12 13  3  0
 11 14  1  0
 14 15  1  0
 15 16  1  0
 16 17  1  0
 17 18  2  0
 17 19  1  0
 19 20  1  0
 20 21  1  0
 21 22  2  0
 22 23  1  0
 23 24  1  0
 14 25  2  0
 25  2  1  0
 10  5  1  0
 24 20  2  0
M  END
>  <Binding energies>  (35) 
[-8.1]

>  <Ligand effiencies>  (35) 
[-0.31153846153846154]

>  <Interactions>  (35) 
["V-A:ILE:538:CB:4860, V-A:TYR:539:CD1:4871, V-A:TYR:531:CE2:4791, V-A:TYR:539:C:4865, V-A:TYR:539:CZ:4875, V-A:ILE:538:CG2:4861, V-A:PRO:540:CB:4883, V-A:TYR:539:CE1:4873, V-B:LEU:475:CD2:9230, V-A:PRO:540:CA:4881, V-A:LEU:363:CD1:3186, V-A:ALA:541:CB:4890, V-B:ILE:369:CG2:8208, V-B:ILE:369:CD1:8210, V-B:ILE:369:CB:8207, V-A:ILE:538:CA:4858, V-A:PRO:540:N:4882, V-A:MET:535:CE:4833, V-B:ASP:366:CG:8184, V-B:ARG:545:CZ:9898, H-B:GLY:454:N:9021, H-B:ARG:545:NH2:9900, H-B:ARG:545:NE:9896, H-B:TYR:484:OH:9319"]

$$$$
3ck_Grossjean_2025
     RDKit          3D

 30 31  0  0  0  0  0  0  0  0999 V2000
  130.1970  125.6380   56.5750 C   0  0  0  0  0  0  0  0  0  0  0  0
  131.2190  126.0740   55.6920 O   0  0  0  0  0  0  0  0  0  0  0  0
  132.4680  125.4320   55.9120 C   0  0  0  0  0  0  0  0  0  0  0  0
  132.7790  125.4120   57.4140 C   0  0  0  0  0  0  0  0  0  0  0  0
  133.6950  124.3610   57.6910 O   0  0  0  0  0  0  0  0  0  0  0  0
  134.1160  124.3060   59.0470 C   0  0  0  0  0  0  0  0  0  0  0  0
  132.8830  124.1820   59.9500 C   0  0  0  0  0  0  0  0  0  0  0  0
  132.7580  122.8260   60.3530 O   0  0  0  0  0  0  0  0  0  0  0  0
  133.8510  122.3260   61.1090 C   0  0  0  0  0  0  0  0  0  0  0  0
  133.8750  123.0070   62.4910 C   0  0  0  0  0  0  0  0  0  0  0  0
  132.6520  123.7530   62.8030 N   0  0  0  0  0  0  0  0  0  0  0  0
  132.4940  124.6050   63.8320 C   0  0  0  0  0  0  0  0  0  0  0  0
  133.3940  124.8760   64.6290 O   0  0  0  0  0  0  0  0  0  0  0  0
  131.1000  125.2410   63.9560 C   0  0  0  0  0  0  0  0  0  0  0  0
  130.3450  125.7870   62.3860 S   0  0  0  0  0  0  0  0  0  0  0  0
  129.7440  124.3580   61.4980 C   0  0  0  0  0  0  0  0  0  0  0  0
  130.2510  123.1640   61.8970 N   0  0  0  0  0  0  0  0  0  0  0  0
  129.8430  122.0410   61.2650 C   0  0  0  0  0  0  0  0  0  0  0  0
  130.4550  120.7460   61.7640 C   0  0  0  0  0  0  0  0  0  0  0  0
  128.9240  122.0600   60.2200 C   0  0  0  0  0  0  0  0  0  0  0  0
  128.3920  123.2810   59.7870 C   0  0  0  0  0  0  0  0  0  0  0  0
  127.4270  123.2550   58.6470 C   0  0  0  0  0  0  0  0  0  0  0  0
  127.8680  122.9330   57.3580 C   0  0  0  0  0  0  0  0  0  0  0  0
  126.9750  122.9160   56.2890 C   0  0  0  0  0  0  0  0  0  0  0  0
  125.6370  123.2290   56.5050 C   0  0  0  0  0  0  0  0  0  0  0  0
  125.1830  123.5600   57.7790 C   0  0  0  0  0  0  0  0  0  0  0  0
  126.0780  123.5760   58.8460 C   0  0  0  0  0  0  0  0  0  0  0  0
  128.8020  124.4670   60.4490 C   0  0  0  0  0  0  0  0  0  0  0  0
  128.2460  125.7700   60.0660 C   0  0  0  0  0  0  0  0  0  0  0  0
  127.8080  126.7980   59.7640 N   0  0  0  0  0  0  0  0  0  0  0  0
  1  2  1  0
  2  3  1  0
  3  4  1  0
  4  5  1  0
  5  6  1  0
  6  7  1  0
  7  8  1  0
  8  9  1  0
  9 10  1  0
 10 11  1  0
 11 12  1  0
 12 13  2  0
 12 14  1  0
 14 15  1  0
 15 16  1  0
 16 17  2  0
 17 18  1  0
 18 19  1  0
 18 20  2  0
 20 21  1  0
 21 22  1  0
 22 23  2  0
 23 24  1  0
 24 25  2  0
 25 26  1  0
 26 27  2  0
 21 28  2  0
 28 29  1  0
 29 30  3  0
 28 16  1  0
 27 22  1  0
M  END
>  <Binding energies>  (36) 
[-7.18]

>  <Ligand effiencies>  (36) 
[-0.23161290322580644]

>  <Interactions>  (36) 
["V-A:TYR:531:CZ:4792, H-A:TYR:531:OH:4793, V-B:ILE:538:CB:9834, V-B:PRO:540:N:9856, V-B:TYR:539:CE1:9847, V-B:PRO:540:CA:9855, V-B:ALA:541:CB:9864, V-B:TYR:539:CD1:9845, V-B:TYR:539:CZ:9849, V-B:TYR:539:C:9839, V-B:PRO:540:CB:9857, V-A:LEU:475:CD2:4256, V-B:ILE:538:CG2:9835, V-A:ASP:366:CG:3210, V-B:ILE:538:CA:9832, V-B:MET:535:CE:9807, H-B:TYR:539:OH:9850, V-A:ILE:369:CG2:3234, V-A:GLY:454:CA:4046, V-A:ILE:369:CD1:3236, V-A:ASP:366:CA:3207, V-A:ASP:366:C:3205, V-A:ASP:366:CB:3209, V-A:ILE:369:CB:3233, H-A:ARG:545:NE:4922, H-A:TYR:484:OH:4345, H-A:GLY:454:N:4047, V-A:TYR:531:CE1:4790, V-A:ASN:370:CG:3243, V-A:GLY:453:C:4039, V-A:ASN:370:CB:3242"]

$$$$
4aa_Grossjean_2025
     RDKit          3D

 26 28  0  0  0  0  0  0  0  0999 V2000
  126.5870  140.4080   59.2460 C   0  0  0  0  0  0  0  0  0  0  0  0
  125.2580  139.6870   58.9970 C   0  0  0  0  0  0  0  0  0  0  0  0
  124.3300  140.0440   60.0130 O   0  0  0  0  0  0  0  0  0  0  0  0
  124.4360  139.5370   61.2690 C   0  0  0  0  0  0  0  0  0  0  0  0
  124.0810  140.1490   62.2820 O   0  0  0  0  0  0  0  0  0  0  0  0
  125.0310  138.1600   61.3050 C   0  0  0  0  0  0  0  0  0  0  0  0
  126.3800  138.0060   61.6510 C   0  0  0  0  0  0  0  0  0  0  0  0
  126.9630  136.7420   61.6880 C   0  0  0  0  0  0  0  0  0  0  0  0
  126.2080  135.6070   61.3900 C   0  0  0  0  0  0  0  0  0  0  0  0
  126.8990  134.3810   61.4500 N   0  0  0  0  0  0  0  0  0  0  0  0
  126.6100  133.2480   62.1350 C   0  0  0  0  0  0  0  0  0  0  0  0
  125.6520  133.1270   62.8980 O   0  0  0  0  0  0  0  0  0  0  0  0
  127.5470  132.1410   61.9340 C   0  0  0  0  0  0  0  0  0  0  0  0
  127.1480  130.5220   62.5150 S   0  0  0  0  0  0  0  0  0  0  0  0
  128.6820  129.8930   61.9570 C   0  0  0  0  0  0  0  0  0  0  0  0
  129.0180  128.6120   62.1130 N   0  0  0  0  0  0  0  0  0  0  0  0
  130.2370  128.2550   61.6400 C   0  0  0  0  0  0  0  0  0  0  0  0
  130.6030  126.7940   61.8320 C   0  0  0  0  0  0  0  0  0  0  0  0
  131.1160  129.1390   61.0180 C   0  0  0  0  0  0  0  0  0  0  0  0
  130.7600  130.4820   60.8550 C   0  0  0  0  0  0  0  0  0  0  0  0
  131.7520  131.4090   60.1690 C   0  0  0  0  0  0  0  0  0  0  0  0
  129.4900  130.8960   61.3420 C   0  0  0  0  0  0  0  0  0  0  0  0
  128.8210  132.1690   61.3460 C   0  0  0  0  0  0  0  0  0  0  0  0
  129.3920  133.2980   60.8150 N   0  0  0  0  0  0  0  0  0  0  0  0
  124.8590  135.7500   61.0370 C   0  0  0  0  0  0  0  0  0  0  0  0
  124.2780  137.0160   60.9960 C   0  0  0  0  0  0  0  0  0  0  0  0
  1  2  1  0
  2  3  1  0
  3  4  1  0
  4  5  2  0
  4  6  1  0
  6  7  2  0
  7  8  1  0
  8  9  2  0
  9 10  1  0
 10 11  1  0
 11 12  2  0
 11 13  1  0
 13 14  1  0
 14 15  1  0
 15 16  2  0
 16 17  1  0
 17 18  1  0
 17 19  2  0
 19 20  1  0
 20 21  1  0
 20 22  2  0
 22 23  1  0
 23 24  1  0
  9 25  1  0
 25 26  2  0
 26  6  1  0
 23 13  2  0
 22 15  1  0
M  END
>  <Binding energies>  (37) 
[-7.1]

>  <Ligand effiencies>  (37) 
[-0.24482758620689654]

>  <Interactions>  (37) 
["V-A:PRO:540:C:4879, V-A:TYR:539:CD1:4871, V-A:TYR:539:C:4865, V-A:PRO:540:CB:4883, V-A:TYR:539:CE1:4873, V-B:LEU:475:CD2:9230, V-A:PRO:540:CA:4881, V-A:ALA:541:CB:4890, V-B:HIS:383:CD2:8363, V-A:ILE:343:CD1:2991, V-B:PRO:482:CB:9297, V-A:ILE:343:CG1:2990, V-B:HIS:383:CG:8361, V-B:ILE:369:CG2:8208, V-B:HIS:383:CE1:8365, V-A:VAL:344:CG1:2998, V-B:SER:385:CB:8380, V-B:LEU:373:CD1:8251, V-B:HIS:383:CB:8360, V-B:PRO:482:CG:9298, V-B:LEU:373:CD2:8252, V-A:PRO:540:N:4882, V-A:ASP:366:CG:3210, V-B:LEU:373:CG:8250, V-B:SER:385:CA:8378, H-A:TYR:539:O:4866"]

$$$$
4ab_Grossjean_2025
     RDKit          3D

 25 27  0  0  0  0  0  0  0  0999 V2000
  125.2710  139.7570   58.8960 C   0  0  0  0  0  0  0  0  0  0  0  0
  124.2210  140.0460   59.8090 O   0  0  0  0  0  0  0  0  0  0  0  0
  124.2230  139.5250   61.0620 C   0  0  0  0  0  0  0  0  0  0  0  0
  123.6410  140.0490   62.0180 O   0  0  0  0  0  0  0  0  0  0  0  0
  125.0080  138.2500   61.1740 C   0  0  0  0  0  0  0  0  0  0  0  0
  124.3500  137.0250   61.0030 C   0  0  0  0  0  0  0  0  0  0  0  0
  125.0510  135.8260   61.1020 C   0  0  0  0  0  0  0  0  0  0  0  0
  126.4210  135.8260   61.3650 C   0  0  0  0  0  0  0  0  0  0  0  0
  127.0260  134.5580   61.4520 N   0  0  0  0  0  0  0  0  0  0  0  0
  126.5700  133.4080   62.0050 C   0  0  0  0  0  0  0  0  0  0  0  0
  125.4940  133.3020   62.5940 O   0  0  0  0  0  0  0  0  0  0  0  0
  127.4680  132.2580   61.8840 C   0  0  0  0  0  0  0  0  0  0  0  0
  127.0540  130.7210   62.6480 S   0  0  0  0  0  0  0  0  0  0  0  0
  128.5440  129.9910   62.0960 C   0  0  0  0  0  0  0  0  0  0  0  0
  128.8550  128.7250   62.3730 N   0  0  0  0  0  0  0  0  0  0  0  0
  130.0410  128.2820   61.8880 C   0  0  0  0  0  0  0  0  0  0  0  0
  130.3780  126.8400   62.2190 C   0  0  0  0  0  0  0  0  0  0  0  0
  130.9120  129.0670   61.1360 C   0  0  0  0  0  0  0  0  0  0  0  0
  130.5830  130.3970   60.8470 C   0  0  0  0  0  0  0  0  0  0  0  0
  131.5680  131.2140   60.0240 C   0  0  0  0  0  0  0  0  0  0  0  0
  129.3490  130.8980   61.3430 C   0  0  0  0  0  0  0  0  0  0  0  0
  128.7140  132.1850   61.2430 C   0  0  0  0  0  0  0  0  0  0  0  0
  129.2900  133.2350   60.5720 N   0  0  0  0  0  0  0  0  0  0  0  0
  127.0870  137.0480   61.5430 C   0  0  0  0  0  0  0  0  0  0  0  0
  126.3850  138.2460   61.4460 C   0  0  0  0  0  0  0  0  0  0  0  0
  1  2  1  0
  2  3  1  0
  3  4  2  0
  3  5  1  0
  5  6  2  0
  6  7  1  0
  7  8  2  0
  8  9  1  0
  9 10  1  0
 10 11  2  0
 10 12  1  0
 12 13  1  0
 13 14  1  0
 14 15  2  0
 15 16  1  0
 16 17  1  0
 16 18  2  0
 18 19  1  0
 19 20  1  0
 19 21  2  0
 21 22  1  0
 22 23  1  0
  8 24  1  0
 24 25  2  0
 25  5  1  0
 22 12  2  0
 21 14  1  0
M  END
>  <Binding energies>  (38) 
[-6.85]

>  <Ligand effiencies>  (38) 
[-0.24464285714285713]

>  <Interactions>  (38) 
["V-A:PRO:540:C:4879, V-A:TYR:539:CD1:4871, V-A:TYR:539:C:4865, V-A:PRO:540:CB:4883, V-A:TYR:539:CE1:4873, V-B:LEU:475:CD2:9230, V-A:PRO:540:CA:4881, V-B:HIS:383:CD2:8363, V-A:ILE:343:CD1:2991, V-B:PRO:482:CB:9297, V-B:HIS:383:CG:8361, V-B:SER:385:CB:8380, V-B:LEU:373:CD1:8251, V-B:HIS:383:CB:8360, V-B:PRO:482:CG:9298, V-B:LEU:373:CD2:8252, V-A:GLU:543:CD:4906, V-A:PRO:540:N:4882, V-B:LEU:373:CG:8250, V-B:VAL:384:C:8368, V-B:SER:385:CA:8378, H-A:TYR:539:O:4866, H-B:SER:385:N:8379"]

$$$$
4ac_Grossjean_2025
     RDKit          3D

 23 25  0  0  0  0  0  0  0  0999 V2000
  124.0220  129.5580   67.3720 C   0  0  0  0  0  0  0  0  0  0  0  0
  123.8080  129.5550   65.9640 O   0  0  0  0  0  0  0  0  0  0  0  0
  124.8630  129.8450   65.1210 C   0  0  0  0  0  0  0  0  0  0  0  0
  124.5370  130.1530   63.8010 C   0  0  0  0  0  0  0  0  0  0  0  0
  125.5340  130.4600   62.8780 C   0  0  0  0  0  0  0  0  0  0  0  0
  126.8730  130.4710   63.2690 C   0  0  0  0  0  0  0  0  0  0  0  0
  127.8110  130.7790   62.2660 N   0  0  0  0  0  0  0  0  0  0  0  0
  128.0030  131.9430   61.6000 C   0  0  0  0  0  0  0  0  0  0  0  0
  127.3160  132.9530   61.7660 O   0  0  0  0  0  0  0  0  0  0  0  0
  129.1020  131.9380   60.6310 C   0  0  0  0  0  0  0  0  0  0  0  0
  128.7780  132.1780   58.9140 S   0  0  0  0  0  0  0  0  0  0  0  0
  130.4770  132.0340   58.5240 C   0  0  0  0  0  0  0  0  0  0  0  0
  130.9250  132.1330   57.2720 N   0  0  0  0  0  0  0  0  0  0  0  0
  132.2640  132.0020   57.1070 C   0  0  0  0  0  0  0  0  0  0  0  0
  132.7530  132.1180   55.6760 C   0  0  0  0  0  0  0  0  0  0  0  0
  133.1550  131.7740   58.1540 C   0  0  0  0  0  0  0  0  0  0  0  0
  132.6810  131.6700   59.4670 C   0  0  0  0  0  0  0  0  0  0  0  0
  133.6930  131.4210   60.5750 C   0  0  0  0  0  0  0  0  0  0  0  0
  131.2830  131.8050   59.6790 C   0  0  0  0  0  0  0  0  0  0  0  0
  130.4740  131.7570   60.8670 C   0  0  0  0  0  0  0  0  0  0  0  0
  131.0140  131.5490   62.1110 N   0  0  0  0  0  0  0  0  0  0  0  0
  127.2100  130.1490   64.5920 C   0  0  0  0  0  0  0  0  0  0  0  0
  126.2110  129.8430   65.5120 C   0  0  0  0  0  0  0  0  0  0  0  0
  1  2  1  0
  2  3  1  0
  3  4  2  0
  4  5  1  0
  5  6  2  0
  6  7  1  0
  7  8  1  0
  8  9  2  0
  8 10  1  0
 10 11  1  0
 11 12  1  0
 12 13  2  0
 13 14  1  0
 14 15  1  0
 14 16  2  0
 16 17  1  0
 17 18  1  0
 17 19  2  0
 19 20  1  0
 20 21  1  0
  6 22  1  0
 22 23  2  0
 23  3  1  0
 20 10  2  0
 19 12  1  0
M  END
>  <Binding energies>  (39) 
[-6.97]

>  <Ligand effiencies>  (39) 
[-0.26807692307692305]

>  <Interactions>  (39) 
["V-A:LEU:363:CA:3182, V-A:ILE:538:CB:4860, V-A:TYR:539:CD1:4871, V-A:TYR:531:CE2:4791, V-A:TYR:539:C:4865, V-A:ILE:538:CG2:4861, V-A:PRO:540:CB:4883, V-A:TYR:531:CZ:4792, V-A:TYR:539:CE1:4873, V-A:PRO:540:CA:4881, V-A:LEU:363:CD1:3186, V-A:ASN:362:CB:3173, V-A:GLU:543:CD:4906, V-A:PRO:540:N:4882, V-A:ASN:362:C:3169, V-A:ASP:366:CG:3210, V-B:ARG:545:CZ:9898, H-B:GLY:454:N:9021, H-A:GLU:543:OE1:4907, H-A:GLU:543:OE2:4908, H-B:ARG:545:NE:9896, H-B:TYR:484:OH:9319, H-A:ALA:541:O:4887, V-B:TYR:484:CZ:9318, V-B:HIS:456:CE1:9040, V-B:ARG:545:CG:9894, V-B:ARG:545:CD:9895, V-B:ARG:545:CB:9893, V-B:ILE:455:C:9023"]

$$$$
4ad_Grossjean_2025
     RDKit          3D

 21 23  0  0  0  0  0  0  0  0999 V2000
  125.4220  129.2100   65.4810 C   0  0  0  0  0  0  0  0  0  0  0  0
  125.8040  130.2800   64.4750 C   0  0  0  0  0  0  0  0  0  0  0  0
  127.0350  130.2450   63.8230 C   0  0  0  0  0  0  0  0  0  0  0  0
  127.3680  131.2440   62.9010 C   0  0  0  0  0  0  0  0  0  0  0  0
  128.7240  131.1650   62.2160 C   0  0  0  0  0  0  0  0  0  0  0  0
  126.4150  132.2720   62.6650 C   0  0  0  0  0  0  0  0  0  0  0  0
  126.4250  133.4250   61.8060 C   0  0  0  0  0  0  0  0  0  0  0  0
  127.4900  133.7210   60.9920 N   0  0  0  0  0  0  0  0  0  0  0  0
  125.2590  134.2040   61.8810 C   0  0  0  0  0  0  0  0  0  0  0  0
  124.9410  135.4400   61.1650 C   0  0  0  0  0  0  0  0  0  0  0  0
  124.1170  135.4410   60.2480 O   0  0  0  0  0  0  0  0  0  0  0  0
  125.6010  136.5450   61.5920 N   0  0  0  0  0  0  0  0  0  0  0  0
  125.5560  137.8620   61.0970 C   0  0  0  0  0  0  0  0  0  0  0  0
  126.5960  138.2280   60.2360 C   0  0  0  0  0  0  0  0  0  0  0  0
  126.6350  139.5060   59.6860 C   0  0  0  0  0  0  0  0  0  0  0  0
  125.6280  140.4190   59.9890 C   0  0  0  0  0  0  0  0  0  0  0  0
  124.5800  140.0630   60.8330 C   0  0  0  0  0  0  0  0  0  0  0  0
  124.5380  138.7860   61.3860 C   0  0  0  0  0  0  0  0  0  0  0  0
  124.1070  133.5150   63.0260 S   0  0  0  0  0  0  0  0  0  0  0  0
  125.1920  132.1950   63.3980 C   0  0  0  0  0  0  0  0  0  0  0  0
  124.8730  131.2430   64.2760 N   0  0  0  0  0  0  0  0  0  0  0  0
  1  2  1  0
  2  3  2  0
  3  4  1  0
  4  5  1  0
  4  6  2  0
  6  7  1  0
  7  8  1  0
  7  9  2  0
  9 10  1  0
 10 11  2  0
 10 12  1  0
 12 13  1  0
 13 14  2  0
 14 15  1  0
 15 16  2  0
 16 17  1  0
 17 18  2  0
  9 19  1  0
 19 20  1  0
 20 21  2  0
 21  2  1  0
 20  6  1  0
 18 13  1  0
M  END
>  <Binding energies>  (40) 
[-7.11]

>  <Ligand effiencies>  (40) 
[-0.29625]

>  <Interactions>  (40) 
["V-A:TYR:539:CD1:4871, V-A:TYR:539:CE1:4873, V-B:LEU:475:CD2:9230, V-B:GLY:454:CA:9020, V-B:HIS:383:CD2:8363, V-B:HIS:383:CG:8361, V-B:ILE:369:CG2:8208, V-B:ILE:369:CD1:8210, V-B:HIS:383:CE1:8365, V-A:VAL:344:CG1:2998, V-B:SER:385:CB:8380, V-A:TYR:539:CB:4869, V-B:LEU:373:CD1:8251, V-B:HIS:383:CB:8360, V-B:PRO:482:CG:9298, V-B:ARG:545:CZ:9898, V-A:TYR:539:CG:4870, V-B:SER:385:CA:8378, H-A:TYR:539:O:4866, H-B:GLY:454:N:9021, H-B:TYR:484:OH:9319, V-B:ARG:545:CG:9894, V-B:ARG:545:CD:9895"]

$$$$
4ae_Grossjean_2025
     RDKit          3D

 22 24  0  0  0  0  0  0  0  0999 V2000
  123.5240  140.4100   61.7470 C   0  0  0  0  0  0  0  0  0  0  0  0
  124.7210  139.6590   61.1950 C   0  0  0  0  0  0  0  0  0  0  0  0
  125.6860  140.2970   60.4100 C   0  0  0  0  0  0  0  0  0  0  0  0
  126.7560  139.5410   59.9310 C   0  0  0  0  0  0  0  0  0  0  0  0
  126.8340  138.1810   60.2420 C   0  0  0  0  0  0  0  0  0  0  0  0
  125.8380  137.6080   61.0390 C   0  0  0  0  0  0  0  0  0  0  0  0
  125.9610  136.2320   61.3010 N   0  0  0  0  0  0  0  0  0  0  0  0
  124.9830  135.2960   61.3970 C   0  0  0  0  0  0  0  0  0  0  0  0
  123.7830  135.5430   61.2680 O   0  0  0  0  0  0  0  0  0  0  0  0
  125.4440  133.9350   61.6780 C   0  0  0  0  0  0  0  0  0  0  0  0
  127.1080  133.4670   61.3240 S   0  0  0  0  0  0  0  0  0  0  0  0
  126.8150  131.8320   61.8690 C   0  0  0  0  0  0  0  0  0  0  0  0
  127.7680  130.9000   61.8480 N   0  0  0  0  0  0  0  0  0  0  0  0
  127.4100  129.6720   62.2920 C   0  0  0  0  0  0  0  0  0  0  0  0
  128.5080  128.6240   62.2530 C   0  0  0  0  0  0  0  0  0  0  0  0
  126.1330  129.3560   62.7550 C   0  0  0  0  0  0  0  0  0  0  0  0
  125.1350  130.3380   62.7770 C   0  0  0  0  0  0  0  0  0  0  0  0
  123.7570  129.9450   63.2870 C   0  0  0  0  0  0  0  0  0  0  0  0
  125.4740  131.6390   62.3160 C   0  0  0  0  0  0  0  0  0  0  0  0
  124.7130  132.8540   62.1980 C   0  0  0  0  0  0  0  0  0  0  0  0
  123.3940  132.9320   62.5650 N   0  0  0  0  0  0  0  0  0  0  0  0
  124.7850  138.3400   61.5070 N   0  0  0  0  0  0  0  0  0  0  0  0
  1  2  1  0
  2  3  2  0
  3  4  1  0
  4  5  2  0
  5  6  1  0
  6  7  1  0
  7  8  1  0
  8  9  2  0
  8 10  1  0
 10 11  1  0
 11 12  1  0
 12 13  2  0
 13 14  1  0
 14 15  1  0
 14 16  2  0
 16 17  1  0
 17 18  1  0
 17 19  2  0
 19 20  1  0
 20 21  1  0
  6 22  2  0
 22  2  1  0
 20 10  2  0
 19 12  1  0
M  END
>  <Binding energies>  (41) 
[-7.11]

>  <Ligand effiencies>  (41) 
[-0.2844]

>  <Interactions>  (41) 
["V-A:TYR:539:CD1:4871, V-A:TYR:539:CE1:4873, V-B:LEU:475:CD2:9230, V-B:GLY:454:CA:9020, V-B:HIS:383:CD2:8363, V-B:HIS:383:CG:8361, V-B:ILE:369:CG2:8208, V-B:ILE:369:CD1:8210, V-B:HIS:383:CE1:8365, V-A:VAL:344:CG1:2998, V-B:SER:385:CB:8380, V-A:TYR:539:CB:4869, V-B:LEU:373:CD1:8251, V-B:THR:477:CA:9241, V-B:THR:477:CG2:9244, V-B:HIS:383:CB:8360, V-B:PRO:482:CG:9298, V-B:ARG:545:CZ:9898, V-A:TYR:539:CG:4870, V-B:VAL:384:C:8368, V-B:SER:385:CA:8378, H-A:TYR:539:O:4866, H-B:SER:385:O:8377, V-B:GLY:453:C:9013, V-B:HIS:383:CA:8358, V-B:HIS:383:C:8356, V-B:GLY:453:CA:9015, V-B:THR:477:CB:9243"]

$$$$
4af_Grossjean_2025
     RDKit          3D

 21 23  0  0  0  0  0  0  0  0999 V2000
  132.3080  132.2020   55.8460 C   0  0  0  0  0  0  0  0  0  0  0  0
  131.7630  131.9290   57.2360 C   0  0  0  0  0  0  0  0  0  0  0  0
  132.6180  131.7970   58.3280 C   0  0  0  0  0  0  0  0  0  0  0  0
  132.0930  131.5430   59.6010 C   0  0  0  0  0  0  0  0  0  0  0  0
  133.0650  131.4050   60.7620 C   0  0  0  0  0  0  0  0  0  0  0  0
  130.6820  131.4270   59.7250 C   0  0  0  0  0  0  0  0  0  0  0  0
  129.8250  131.1720   60.8530 C   0  0  0  0  0  0  0  0  0  0  0  0
  130.3190  130.9870   62.1200 N   0  0  0  0  0  0  0  0  0  0  0  0
  128.4590  131.1350   60.5340 C   0  0  0  0  0  0  0  0  0  0  0  0
  127.3230  130.8730   61.4200 C   0  0  0  0  0  0  0  0  0  0  0  0
  126.1680  131.0150   61.0180 O   0  0  0  0  0  0  0  0  0  0  0  0
  127.6460  130.4600   62.6700 N   0  0  0  0  0  0  0  0  0  0  0  0
  126.8070  130.1740   63.7640 C   0  0  0  0  0  0  0  0  0  0  0  0
  127.2370  129.7280   65.0270 C   0  0  0  0  0  0  0  0  0  0  0  0
  126.2950  129.4630   66.0230 C   0  0  0  0  0  0  0  0  0  0  0  0
  124.9430  129.6460   65.7310 C   0  0  0  0  0  0  0  0  0  0  0  0
  124.5020  130.0670   64.5190 N   0  0  0  0  0  0  0  0  0  0  0  0
  125.4290  130.3200   63.5610 C   0  0  0  0  0  0  0  0  0  0  0  0
  128.1990  131.4140   58.8100 S   0  0  0  0  0  0  0  0  0  0  0  0
  129.9170  131.5820   58.5300 C   0  0  0  0  0  0  0  0  0  0  0  0
  130.4140  131.8250   57.3170 N   0  0  0  0  0  0  0  0  0  0  0  0
  1  2  1  0
  2  3  2  0
  3  4  1  0
  4  5  1  0
  4  6  2  0
  6  7  1  0
  7  8  1  0
  7  9  2  0
  9 10  1  0
 10 11  2  0
 10 12  1  0
 12 13  1  0
 13 14  2  0
 14 15  1  0
 15 16  2  0
 16 17  1  0
 17 18  2  0
  9 19  1  0
 19 20  1  0
 20 21  2  0
 21  2  1  0
 20  6  1  0
 18 13  1  0
M  END
>  <Binding energies>  (42) 
[-7.12]

>  <Ligand effiencies>  (42) 
[-0.2966666666666667]

>  <Interactions>  (42) 
["V-A:ILE:538:CB:4860, V-A:TYR:539:CD1:4871, V-A:TYR:531:CE2:4791, V-A:ILE:538:CG2:4861, V-A:PRO:540:CB:4883, V-A:TYR:539:CE1:4873, V-A:PRO:540:CA:4881, V-A:LEU:363:CD1:3186, V-A:ASN:362:CB:3173, V-A:GLU:543:CD:4906, V-A:PRO:540:N:4882, V-A:ASP:366:CG:3210, V-B:ARG:545:CZ:9898, H-B:GLY:454:N:9021, H-B:ARG:545:NH2:9900, H-A:GLU:543:OE1:4907, H-A:GLU:543:OE2:4908, H-B:ARG:545:NE:9896, H-B:TYR:484:OH:9319, H-A:ALA:541:O:4887, V-B:HIS:456:CE1:9040, V-B:ARG:545:CG:9894, V-B:ARG:545:CD:9895"]

$$$$
4ag_Grossjean_2025
     RDKit          3D

 22 24  0  0  0  0  0  0  0  0999 V2000
  123.9070  123.9750   57.2490 C   0  0  0  0  0  0  0  0  0  0  0  0
  124.8990  123.7120   58.3660 C   0  0  0  0  0  0  0  0  0  0  0  0
  124.5480  123.9130   59.7000 C   0  0  0  0  0  0  0  0  0  0  0  0
  125.4780  123.6630   60.7150 C   0  0  0  0  0  0  0  0  0  0  0  0
  125.0470  123.8960   62.1550 C   0  0  0  0  0  0  0  0  0  0  0  0
  126.7680  123.2050   60.3340 C   0  0  0  0  0  0  0  0  0  0  0  0
  127.9370  122.8590   61.0950 C   0  0  0  0  0  0  0  0  0  0  0  0
  127.9690  122.9310   62.4650 N   0  0  0  0  0  0  0  0  0  0  0  0
  129.0260  122.4480   60.3110 C   0  0  0  0  0  0  0  0  0  0  0  0
  130.3530  122.0190   60.7520 C   0  0  0  0  0  0  0  0  0  0  0  0
  131.1880  122.8300   61.1570 O   0  0  0  0  0  0  0  0  0  0  0  0
  130.6060  120.6960   60.6710 N   0  0  0  0  0  0  0  0  0  0  0  0
  131.8500  120.0450   61.0800 C   0  0  0  0  0  0  0  0  0  0  0  0
  131.9710  118.5960   60.6210 C   0  0  0  0  0  0  0  0  0  0  0  0
  133.2240  117.9770   60.5930 C   0  0  0  0  0  0  0  0  0  0  0  0
  133.3340  116.6460   60.1980 C   0  0  0  0  0  0  0  0  0  0  0  0
  132.1890  115.9350   59.8430 C   0  0  0  0  0  0  0  0  0  0  0  0
  130.9350  116.5410   59.8840 C   0  0  0  0  0  0  0  0  0  0  0  0
  130.8250  117.8720   60.2790 C   0  0  0  0  0  0  0  0  0  0  0  0
  128.6220  122.4700   58.5940 S   0  0  0  0  0  0  0  0  0  0  0  0
  127.0030  123.0380   58.9360 C   0  0  0  0  0  0  0  0  0  0  0  0
  126.1180  123.2750   57.9660 N   0  0  0  0  0  0  0  0  0  0  0  0
  1  2  1  0
  2  3  2  0
  3  4  1  0
  4  5  1  0
  4  6  2  0
  6  7  1  0
  7  8  1  0
  7  9  2  0
  9 10  1  0
 10 11  2  0
 10 12  1  0
 12 13  1  0
 13 14  1  0
 14 15  2  0
 15 16  1  0
 16 17  2  0
 17 18  1  0
 18 19  2  0
  9 20  1  0
 20 21  1  0
 21 22  2  0
 22  2  1  0
 21  6  1  0
 19 14  1  0
M  END
>  <Binding energies>  (43) 
[-7.86]

>  <Ligand effiencies>  (43) 
[-0.3144]

>  <Interactions>  (43) 
["V-B:PRO:540:N:9856, V-B:TYR:539:CE1:9847, V-B:LEU:363:CA:8156, V-B:PRO:540:CA:9855, V-B:TYR:531:CE2:9765, V-B:ALA:541:CB:9864, V-B:TYR:539:CD1:9845, V-B:ALA:541:CA:9862, V-B:TYR:539:C:9839, V-B:PRO:540:C:9853, V-B:TYR:531:CZ:9766, V-B:TYR:539:CG:9844, V-B:PRO:540:CB:9857, V-B:LEU:363:CD1:8160, V-A:LEU:475:CD2:4256, V-B:GLU:543:CD:9880, V-B:ASN:362:CB:8147, V-B:ASP:366:CG:8184, V-B:ARG:545:CZ:9898, V-A:SER:385:CA:3404, V-A:PRO:482:CG:4324, V-B:TYR:539:CB:9843, V-A:SER:385:CB:3406, V-A:LEU:373:CD1:3277, V-B:VAL:344:CG1:7972, H-B:GLU:543:OE1:9881, H-B:ALA:541:O:9861, V-A:VAL:384:C:3394, H-B:TYR:539:O:9840"]

$$$$
4ah_Grossjean_2025
     RDKit          3D

 28 30  0  0  0  0  0  0  0  0999 V2000
  128.6550  132.5440   55.7630 C   0  0  0  0  0  0  0  0  0  0  0  0
  129.0060  133.2630   56.9390 O   0  0  0  0  0  0  0  0  0  0  0  0
  129.7510  132.6350   57.9220 C   0  0  0  0  0  0  0  0  0  0  0  0
  129.2050  132.1060   59.1020 C   0  0  0  0  0  0  0  0  0  0  0  0
  130.0190  131.4870   60.0510 C   0  0  0  0  0  0  0  0  0  0  0  0
  129.4020  130.8770   61.3050 C   0  0  0  0  0  0  0  0  0  0  0  0
  129.9440  129.5610   61.6430 N   0  0  0  0  0  0  0  0  0  0  0  0
  129.9490  128.4850   60.8280 C   0  0  0  0  0  0  0  0  0  0  0  0
  129.4470  128.5010   59.7030 O   0  0  0  0  0  0  0  0  0  0  0  0
  130.5510  127.2700   61.3760 C   0  0  0  0  0  0  0  0  0  0  0  0
  131.6160  126.2800   60.3760 S   0  0  0  0  0  0  0  0  0  0  0  0
  131.8270  125.1210   61.6690 C   0  0  0  0  0  0  0  0  0  0  0  0
  132.5950  124.0410   61.5310 N   0  0  0  0  0  0  0  0  0  0  0  0
  132.6750  123.2240   62.6090 C   0  0  0  0  0  0  0  0  0  0  0  0
  133.5530  121.9990   62.4290 C   0  0  0  0  0  0  0  0  0  0  0  0
  132.0120  123.4610   63.8110 C   0  0  0  0  0  0  0  0  0  0  0  0
  131.2030  124.5950   63.9540 C   0  0  0  0  0  0  0  0  0  0  0  0
  130.4990  124.8100   65.2840 C   0  0  0  0  0  0  0  0  0  0  0  0
  131.0930  125.4740   62.8420 C   0  0  0  0  0  0  0  0  0  0  0  0
  130.3650  126.6980   62.6430 C   0  0  0  0  0  0  0  0  0  0  0  0
  129.5720  127.2480   63.6180 N   0  0  0  0  0  0  0  0  0  0  0  0
  131.3890  131.3680   59.8110 C   0  0  0  0  0  0  0  0  0  0  0  0
  131.9630  131.8930   58.6430 C   0  0  0  0  0  0  0  0  0  0  0  0
  133.3130  131.8250   58.3490 O   0  0  0  0  0  0  0  0  0  0  0  0
  133.8100  130.7150   57.6080 C   0  0  0  0  0  0  0  0  0  0  0  0
  131.1340  132.5300   57.7090 C   0  0  0  0  0  0  0  0  0  0  0  0
  131.6800  133.0320   56.5520 O   0  0  0  0  0  0  0  0  0  0  0  0
  131.8710  132.0600   55.5330 C   0  0  0  0  0  0  0  0  0  0  0  0
  1  2  1  0
  2  3  1  0
  3  4  2  0
  4  5  1  0
  5  6  1  0
  6  7  1  0
  7  8  1  0
  8  9  2  0
  8 10  1  0
 10 11  1  0
 11 12  1  0
 12 13  2  0
 13 14  1  0
 14 15  1  0
 14 16  2  0
 16 17  1  0
 17 18  1  0
 17 19  2  0
 19 20  1  0
 20 21  1  0
  5 22  2  0
 22 23  1  0
 23 24  1  0
 24 25  1  0
 23 26  2  0
 26 27  1  0
 27 28  1  0
 26  3  1  0
 20 10  2  0
 19 12  1  0
M  END
>  <Binding energies>  (44) 
[-6.92]

>  <Ligand effiencies>  (44) 
[-0.2232258064516129]

>  <Interactions>  (44) 
["V-A:LEU:363:CA:3182, V-A:ILE:538:CB:4860, V-A:TYR:539:CD1:4871, V-A:TYR:531:CE2:4791, V-A:TYR:539:C:4865, V-A:TYR:539:CZ:4875, V-A:ILE:538:CG2:4861, V-A:PRO:540:CB:4883, V-A:TYR:531:CZ:4792, V-A:TYR:539:CE1:4873, V-A:PRO:540:CA:4881, V-A:LEU:363:CD1:3186, V-A:LEU:475:CD2:4256, V-A:ILE:538:CA:4858, V-A:TYR:539:CD2:4872, V-A:PRO:540:CD:4885, V-A:TYR:539:CE2:4874, V-A:GLU:543:CD:4906, V-A:PRO:540:N:4882, V-A:ASP:366:CG:3210, H-A:TYR:539:N:4868, V-A:MET:535:CE:4833, V-B:GLU:543:CD:9880, V-A:TYR:539:CG:4870, V-A:GLY:454:CA:4046, V-B:GLU:543:CB:9878, V-B:GLU:543:CG:9879, H-B:GLU:543:OE1:9881, V-A:ASP:366:CB:3209, H-B:GLU:543:OE2:9882, H-A:GLU:543:OE1:4907, H-A:GLU:543:OE2:4908"]

$$$$
4ai_Grossjean_2025
     RDKit          3D

 20 22  0  0  0  0  0  0  0  0999 V2000
  132.4020  132.1880   55.8330 C   0  0  0  0  0  0  0  0  0  0  0  0
  131.8390  131.9720   57.2260 C   0  0  0  0  0  0  0  0  0  0  0  0
  132.6830  131.8010   58.3220 C   0  0  0  0  0  0  0  0  0  0  0  0
  132.1420  131.6090   59.5980 C   0  0  0  0  0  0  0  0  0  0  0  0
  133.1040  131.4300   60.7630 C   0  0  0  0  0  0  0  0  0  0  0  0
  130.7260  131.5980   59.7240 C   0  0  0  0  0  0  0  0  0  0  0  0
  129.8550  131.4310   60.8550 C   0  0  0  0  0  0  0  0  0  0  0  0
  130.3350  131.2290   62.1250 N   0  0  0  0  0  0  0  0  0  0  0  0
  128.4890  131.5000   60.5390 C   0  0  0  0  0  0  0  0  0  0  0  0
  127.3380  131.3630   61.4350 C   0  0  0  0  0  0  0  0  0  0  0  0
  126.2410  131.8320   61.1250 O   0  0  0  0  0  0  0  0  0  0  0  0
  127.5750  130.6850   62.5850 N   0  0  0  0  0  0  0  0  0  0  0  0
  126.6700  130.4010   63.6000 C   0  0  0  0  0  0  0  0  0  0  0  0
  126.9980  129.6450   64.7250 C   0  0  0  0  0  0  0  0  0  0  0  0
  125.8440  129.5940   65.4720 C   0  0  0  0  0  0  0  0  0  0  0  0
  124.8710  130.2840   64.8320 O   0  0  0  0  0  0  0  0  0  0  0  0
  125.4070  130.7930   63.6470 N   0  0  0  0  0  0  0  0  0  0  0  0
  128.2480  131.7510   58.8090 S   0  0  0  0  0  0  0  0  0  0  0  0
  129.9740  131.7830   58.5240 C   0  0  0  0  0  0  0  0  0  0  0  0
  130.4860  131.9650   57.3070 N   0  0  0  0  0  0  0  0  0  0  0  0
  1  2  1  0
  2  3  2  0
  3  4  1  0
  4  5  1  0
  4  6  2  0
  6  7  1  0
  7  8  1  0
  7  9  2  0
  9 10  1  0
 10 11  2  0
 10 12  1  0
 12 13  1  0
 13 14  1  0
 14 15  2  0
 15 16  1  0
 16 17  1  0
  9 18  1  0
 18 19  1  0
 19 20  2  0
 20  2  1  0
 19  6  1  0
 17 13  2  0
M  END
>  <Binding energies>  (45) 
[-6.77]

>  <Ligand effiencies>  (45) 
[-0.2943478260869565]

>  <Interactions>  (45) 
["V-A:ILE:538:CB:4860, V-A:TYR:539:CD1:4871, V-A:TYR:531:CE2:4791, V-A:TYR:539:CZ:4875, V-A:ILE:538:CG2:4861, V-A:PRO:540:CB:4883, V-A:TYR:531:CZ:4792, V-A:TYR:539:CE1:4873, V-A:PRO:540:CA:4881, V-A:LEU:363:CD1:3186, V-A:ASN:362:CB:3173, V-A:GLU:543:CD:4906, V-A:PRO:540:N:4882, V-A:ASP:366:CG:3210, V-B:ARG:545:CZ:9898, H-B:GLY:454:N:9021, H-A:GLU:543:OE1:4907, H-A:GLU:543:OE2:4908, H-B:TYR:484:OH:9319, H-A:ALA:541:O:4887"]

$$$$
4aj_Grossjean_2025
     RDKit          3D

 20 22  0  0  0  0  0  0  0  0999 V2000
  128.0790  128.8930   62.2550 C   0  0  0  0  0  0  0  0  0  0  0  0
  127.0850  130.0390   62.2240 C   0  0  0  0  0  0  0  0  0  0  0  0
  125.7460  129.8350   62.5490 C   0  0  0  0  0  0  0  0  0  0  0  0
  124.8440  130.9050   62.5090 C   0  0  0  0  0  0  0  0  0  0  0  0
  123.3930  130.6310   62.8720 C   0  0  0  0  0  0  0  0  0  0  0  0
  125.3450  132.1800   62.1320 C   0  0  0  0  0  0  0  0  0  0  0  0
  124.7150  133.4650   61.9880 C   0  0  0  0  0  0  0  0  0  0  0  0
  123.3770  133.6550   62.2210 N   0  0  0  0  0  0  0  0  0  0  0  0
  125.5920  134.4880   61.5960 C   0  0  0  0  0  0  0  0  0  0  0  0
  125.2910  135.9000   61.3480 C   0  0  0  0  0  0  0  0  0  0  0  0
  124.1370  136.3230   61.4370 O   0  0  0  0  0  0  0  0  0  0  0  0
  126.3580  136.6760   61.0350 N   0  0  0  0  0  0  0  0  0  0  0  0
  126.3480  138.0380   60.7670 C   0  0  0  0  0  0  0  0  0  0  0  0
  126.9000  138.6650   59.7500 N   0  0  0  0  0  0  0  0  0  0  0  0
  126.6880  139.9660   59.8100 C   0  0  0  0  0  0  0  0  0  0  0  0
  125.9490  140.4200   60.8990 C   0  0  0  0  0  0  0  0  0  0  0  0
  125.5110  139.0600   61.8900 S   0  0  0  0  0  0  0  0  0  0  0  0
  127.2320  133.8750   61.3780 S   0  0  0  0  0  0  0  0  0  0  0  0
  126.7370  132.2580   61.8250 C   0  0  0  0  0  0  0  0  0  0  0  0
  127.5980  131.2400   61.8620 N   0  0  0  0  0  0  0  0  0  0  0  0
  1  2  1  0
  2  3  2  0
  3  4  1  0
  4  5  1  0
  4  6  2  0
  6  7  1  0
  7  8  1  0
  7  9  2  0
  9 10  1  0
 10 11  2  0
 10 12  1  0
 12 13  1  0
 13 14  2  0
 14 15  1  0
 15 16  2  0
 16 17  1  0
  9 18  1  0
 18 19  1  0
 19 20  2  0
 20  2  1  0
 19  6  1  0
 17 13  1  0
M  END
>  <Binding energies>  (46) 
[-6.49]

>  <Ligand effiencies>  (46) 
[-0.2821739130434783]

>  <Interactions>  (46) 
["V-A:TYR:539:CD1:4871, V-A:TYR:539:CE1:4873, V-B:LEU:475:CD2:9230, V-B:GLY:454:CA:9020, V-B:HIS:383:CD2:8363, V-B:HIS:383:CG:8361, V-B:ILE:369:CG2:8208, V-B:ILE:369:CD1:8210, V-B:HIS:383:CE1:8365, V-A:VAL:344:CG1:2998, V-B:SER:385:CB:8380, V-A:TYR:539:CB:4869, V-B:LEU:373:CD1:8251, V-B:HIS:383:CB:8360, V-B:PRO:482:CG:9298, V-A:TYR:539:CG:4870, V-B:ILE:369:CG1:8209, H-A:TYR:539:O:4866, V-B:SER:385:C:8376, H-B:SER:385:O:8377, V-B:GLY:453:C:9013, V-B:GLY:453:CA:9015"]

$$$$
4ak_Grossjean_2025
     RDKit          3D

 25 26  0  0  0  0  0  0  0  0999 V2000
  124.5130  129.8490   57.3220 C   0  0  0  0  0  0  0  0  0  0  0  0
  124.3910  130.7230   58.4330 O   0  0  0  0  0  0  0  0  0  0  0  0
  125.4910  130.6540   59.3320 C   0  0  0  0  0  0  0  0  0  0  0  0
  124.9720  130.4520   60.7610 C   0  0  0  0  0  0  0  0  0  0  0  0
  124.3970  131.6650   61.2290 O   0  0  0  0  0  0  0  0  0  0  0  0
  123.6020  131.5110   62.3970 C   0  0  0  0  0  0  0  0  0  0  0  0
  124.4970  131.6130   63.6370 C   0  0  0  0  0  0  0  0  0  0  0  0
  124.9380  130.3130   64.0060 O   0  0  0  0  0  0  0  0  0  0  0  0
  126.2560  130.2830   64.5400 C   0  0  0  0  0  0  0  0  0  0  0  0
  126.9210  131.6550   64.3290 C   0  0  0  0  0  0  0  0  0  0  0  0
  127.8530  131.6870   63.2020 N   0  0  0  0  0  0  0  0  0  0  0  0
  127.7080  132.4380   62.0910 C   0  0  0  0  0  0  0  0  0  0  0  0
  126.7570  133.2050   61.9320 O   0  0  0  0  0  0  0  0  0  0  0  0
  128.7550  132.2990   61.0800 C   0  0  0  0  0  0  0  0  0  0  0  0
  128.3760  132.5170   59.3720 S   0  0  0  0  0  0  0  0  0  0  0  0
  130.0380  132.2170   58.9170 C   0  0  0  0  0  0  0  0  0  0  0  0
  130.4360  132.2360   57.6440 N   0  0  0  0  0  0  0  0  0  0  0  0
  131.7510  131.9850   57.4290 C   0  0  0  0  0  0  0  0  0  0  0  0
  132.1840  132.0120   55.9740 C   0  0  0  0  0  0  0  0  0  0  0  0
  132.6660  131.7210   58.4450 C   0  0  0  0  0  0  0  0  0  0  0  0
  132.2460  131.7030   59.7800 C   0  0  0  0  0  0  0  0  0  0  0  0
  133.2810  131.4060   60.8530 C   0  0  0  0  0  0  0  0  0  0  0  0
  130.8740  131.9600   60.0450 C   0  0  0  0  0  0  0  0  0  0  0  0
  130.1170  132.0190   61.2670 C   0  0  0  0  0  0  0  0  0  0  0  0
  130.6910  131.8130   62.4960 N   0  0  0  0  0  0  0  0  0  0  0  0
  1  2  1  0
  2  3  1  0
  3  4  1  0
  4  5  1  0
  5  6  1  0
  6  7  1  0
  7  8  1  0
  8  9  1  0
  9 10  1  0
 10 11  1  0
 11 12  1  0
 12 13  2  0
 12 14  1  0
 14 15  1  0
 15 16  1  0
 16 17  2  0
 17 18  1  0
 18 19  1  0
 18 20  2  0
 20 21  1  0
 21 22  1  0
 21 23  2  0
 23 24  1  0
 24 25  1  0
 24 14  2  0
 23 16  1  0
M  END
>  <Binding energies>  (47) 
[-5.96]

>  <Ligand effiencies>  (47) 
[-0.21285714285714286]

>  <Interactions>  (47) 
["V-A:PRO:540:C:4879, V-A:ILE:538:CB:4860, V-A:TYR:539:CD1:4871, V-A:TYR:531:CE2:4791, V-A:TYR:539:C:4865, V-A:ALA:541:CA:4888, V-A:TYR:539:CZ:4875, V-A:ILE:538:CG2:4861, V-A:PRO:540:CB:4883, V-A:TYR:531:CZ:4792, V-A:TYR:539:CE1:4873, V-A:PRO:540:CA:4881, V-A:LEU:363:CD1:3186, V-A:ALA:541:CB:4890, V-B:GLY:454:CA:9020, V-B:ILE:369:CD1:8210, V-A:ASN:362:CB:3173, V-A:GLU:543:CD:4906, V-A:PRO:540:N:4882, V-A:ASN:362:C:3169, V-A:ASP:366:CG:3210, V-B:ASP:366:CB:8183, V-B:ASP:366:CG:8184, H-A:TYR:539:OH:4876, V-B:ASP:366:C:8179, V-B:ASP:366:CA:8181, H-B:GLY:454:N:9021, H-A:GLU:543:OE1:4907, V-B:TYR:531:CE1:9764, H-A:ALA:541:O:4887, V-B:GLY:453:C:9013"]

$$$$
4al_Grossjean_2025
     RDKit          3D

 16 17  0  0  0  0  0  0  0  0999 V2000
  129.7330  123.8590   62.3640 C   0  0  0  0  0  0  0  0  0  0  0  0
  128.7120  122.8760   62.2810 O   0  0  0  0  0  0  0  0  0  0  0  0
  127.4850  123.1860   61.7880 C   0  0  0  0  0  0  0  0  0  0  0  0
  126.5170  123.4910   62.4900 O   0  0  0  0  0  0  0  0  0  0  0  0
  127.4240  123.1220   60.3120 C   0  0  0  0  0  0  0  0  0  0  0  0
  128.8330  122.5850   59.3940 S   0  0  0  0  0  0  0  0  0  0  0  0
  127.9780  122.7910   57.8820 C   0  0  0  0  0  0  0  0  0  0  0  0
  128.5500  122.5270   56.7070 N   0  0  0  0  0  0  0  0  0  0  0  0
  127.7780  122.7280   55.6100 C   0  0  0  0  0  0  0  0  0  0  0  0
  128.4480  122.4220   54.2840 C   0  0  0  0  0  0  0  0  0  0  0  0
  126.4620  123.1830   55.6620 C   0  0  0  0  0  0  0  0  0  0  0  0
  125.8650  123.4600   56.8960 C   0  0  0  0  0  0  0  0  0  0  0  0
  124.4270  123.9540   56.9020 C   0  0  0  0  0  0  0  0  0  0  0  0
  126.6430  123.2600   58.0680 C   0  0  0  0  0  0  0  0  0  0  0  0
  126.3560  123.4400   59.4640 C   0  0  0  0  0  0  0  0  0  0  0  0
  125.1400  123.8830   59.9170 N   0  0  0  0  0  0  0  0  0  0  0  0
  1  2  1  0
  2  3  1  0
  3  4  2  0
  3  5  1  0
  5  6  1  0
  6  7  1  0
  7  8  2  0
  8  9  1  0
  9 10  1  0
  9 11  2  0
 11 12  1  0
 12 13  1  0
 12 14  2  0
 14 15  1  0
 15 16  1  0
 15  5  2  0
 14  7  1  0
M  END
>  <Binding energies>  (48) 
[-5.72]

>  <Ligand effiencies>  (48) 
[-0.31777777777777777]

>  <Interactions>  (48) 
["V-B:ILE:538:CB:9834, V-B:PRO:540:N:9856, V-B:TYR:539:CE1:9847, V-B:PRO:540:CA:9855, H-B:ASP:366:OD2:8186, V-B:TYR:531:CE2:9765, V-B:ALA:541:CB:9864, V-B:TYR:539:CD1:9845, V-B:ALA:541:CA:9862, V-B:TYR:539:C:9839, V-B:PRO:540:C:9853, V-B:TYR:531:CZ:9766, V-B:PRO:540:CB:9857, V-B:LEU:363:CD1:8160, V-B:ILE:538:CG2:9835, V-B:TYR:539:CE2:9848, V-B:ILE:538:CA:9832, V-B:MET:535:CE:9807, H-B:TYR:539:N:9842, V-B:TYR:539:CD2:9846, V-B:ASP:366:CG:8184, V-B:ILE:538:C:9830, H-B:ALA:541:N:9863, V-B:VAL:537:C:9822"]

$$$$
4bc_Grossjean_2025
     RDKit          3D

 26 28  0  0  0  0  0  0  0  0999 V2000
  134.4710  125.0630   66.9900 C   0  0  0  0  0  0  0  0  0  0  0  0
  134.4520  125.5310   65.6460 O   0  0  0  0  0  0  0  0  0  0  0  0
  133.3410  125.2850   64.8620 C   0  0  0  0  0  0  0  0  0  0  0  0
  133.5780  125.0110   63.5160 C   0  0  0  0  0  0  0  0  0  0  0  0
  132.5200  124.7510   62.6480 C   0  0  0  0  0  0  0  0  0  0  0  0
  131.2060  124.7540   63.1210 C   0  0  0  0  0  0  0  0  0  0  0  0
  130.2030  124.4960   62.1690 N   0  0  0  0  0  0  0  0  0  0  0  0
  130.1740  123.5630   61.1860 C   0  0  0  0  0  0  0  0  0  0  0  0
  131.0970  122.7830   60.9510 O   0  0  0  0  0  0  0  0  0  0  0  0
  128.9480  123.5340   60.3820 C   0  0  0  0  0  0  0  0  0  0  0  0
  129.0410  123.4450   58.6250 S   0  0  0  0  0  0  0  0  0  0  0  0
  127.2990  123.4570   58.4860 C   0  0  0  0  0  0  0  0  0  0  0  0
  126.6950  123.4020   57.2990 N   0  0  0  0  0  0  0  0  0  0  0  0
  125.3430  123.4200   57.3190 C   0  0  0  0  0  0  0  0  0  0  0  0
  124.6750  123.3510   55.9570 C   0  0  0  0  0  0  0  0  0  0  0  0
  124.5860  123.4930   58.4860 C   0  0  0  0  0  0  0  0  0  0  0  0
  125.2160  123.5520   59.7390 C   0  0  0  0  0  0  0  0  0  0  0  0
  124.3400  123.6330   60.9950 C   0  0  0  0  0  0  0  0  0  0  0  0
  124.4090  122.5350   61.7500 F   0  0  0  0  0  0  0  0  0  0  0  0
  124.7290  124.6620   61.7470 F   0  0  0  0  0  0  0  0  0  0  0  0
  123.0650  123.7990   60.6460 F   0  0  0  0  0  0  0  0  0  0  0  0
  126.6430  123.5330   59.7530 C   0  0  0  0  0  0  0  0  0  0  0  0
  127.6140  123.5720   60.8190 C   0  0  0  0  0  0  0  0  0  0  0  0
  127.2590  123.6410   62.1420 N   0  0  0  0  0  0  0  0  0  0  0  0
  130.9590  125.0420   64.4720 C   0  0  0  0  0  0  0  0  0  0  0  0
  132.0190  125.3020   65.3360 C   0  0  0  0  0  0  0  0  0  0  0  0
  1  2  1  0
  2  3  1  0
  3  4  2  0
  4  5  1  0
  5  6  2  0
  6  7  1  0
  7  8  1  0
  8  9  2  0
  8 10  1  0
 10 11  1  0
 11 12  1  0
 12 13  2  0
 13 14  1  0
 14 15  1  0
 14 16  2  0
 16 17  1  0
 17 18  1  0
 18 19  1  0
 18 20  1  0
 18 21  1  0
 17 22  2  0
 22 23  1  0
 23 24  1  0
  6 25  1  0
 25 26  2  0
 26  3  1  0
 23 10  2  0
 22 12  1  0
M  END
>  <Binding energies>  (49) 
[-6.25]

>  <Ligand effiencies>  (49) 
[-0.21551724137931033]

>  <Interactions>  (49) 
["V-B:ILE:538:CB:9834, V-B:PRO:540:N:9856, V-B:TYR:539:CE1:9847, V-B:LEU:363:CA:8156, V-B:PRO:540:CA:9855, V-B:TYR:531:CE2:9765, V-B:ALA:541:CB:9864, V-B:TYR:539:CD1:9845, V-B:ALA:541:CA:9862, V-B:PRO:540:C:9853, V-B:TYR:531:CZ:9766, V-B:PRO:540:CB:9857, V-B:LEU:363:CD1:8160, V-B:ILE:538:CG2:9835, V-B:GLU:543:CD:9880, V-B:ALA:541:C:9860, V-B:ASN:362:C:8143, V-B:ASN:362:CB:8147, V-B:LEU:363:CB:8158, V-B:ASP:366:CG:8184, V-B:ARG:545:CZ:9898, V-A:ARG:545:CZ:4924, V-A:GLY:454:CA:4046, V-A:GLY:453:CA:4041, H-B:GLU:543:OE1:9881, H-B:GLU:543:OE2:9882, H-A:ARG:545:NE:4922, H-A:TYR:484:OH:4345, H-A:GLY:454:N:4047, V-A:HIS:456:CE1:4066, V-A:TYR:484:CZ:4344, V-A:ARG:545:CD:4921, V-A:ARG:545:CG:4920, V-A:GLY:453:C:4039, H-B:ALA:541:O:9861, V-A:GLY:454:C:4044, V-A:ILE:455:C:4049, V-B:ASN:362:CA:8145, V-A:ARG:545:CB:4919, V-A:ILE:455:CA:4051"]

$$$$
4bf_Grossjean_2025
     RDKit          3D

 24 26  0  0  0  0  0  0  0  0999 V2000
  125.0980  123.1450   55.9090 C   0  0  0  0  0  0  0  0  0  0  0  0
  125.7310  123.3110   57.2790 C   0  0  0  0  0  0  0  0  0  0  0  0
  124.9490  123.3600   58.4300 C   0  0  0  0  0  0  0  0  0  0  0  0
  125.5470  123.5170   59.6890 C   0  0  0  0  0  0  0  0  0  0  0  0
  124.6450  123.5690   60.9270 C   0  0  0  0  0  0  0  0  0  0  0  0
  124.8170  122.5250   61.7420 F   0  0  0  0  0  0  0  0  0  0  0  0
  124.9050  124.6710   61.6300 F   0  0  0  0  0  0  0  0  0  0  0  0
  123.3650  123.5760   60.5530 F   0  0  0  0  0  0  0  0  0  0  0  0
  126.9690  123.6220   59.7280 C   0  0  0  0  0  0  0  0  0  0  0  0
  127.9120  123.7900   60.8070 C   0  0  0  0  0  0  0  0  0  0  0  0
  127.5250  123.8790   62.1200 N   0  0  0  0  0  0  0  0  0  0  0  0
  129.2530  123.8480   60.3940 C   0  0  0  0  0  0  0  0  0  0  0  0
  130.4540  124.0420   61.2130 C   0  0  0  0  0  0  0  0  0  0  0  0
  131.5640  123.7300   60.7810 O   0  0  0  0  0  0  0  0  0  0  0  0
  130.2410  124.5880   62.4350 N   0  0  0  0  0  0  0  0  0  0  0  0
  131.1580  124.8550   63.4700 C   0  0  0  0  0  0  0  0  0  0  0  0
  130.8190  125.2270   64.7830 C   0  0  0  0  0  0  0  0  0  0  0  0
  131.8310  125.4800   65.7120 C   0  0  0  0  0  0  0  0  0  0  0  0
  133.1600  125.3600   65.3020 C   0  0  0  0  0  0  0  0  0  0  0  0
  133.5120  125.0100   64.0400 N   0  0  0  0  0  0  0  0  0  0  0  0
  132.5170  124.7670   63.1480 C   0  0  0  0  0  0  0  0  0  0  0  0
  129.3870  123.7010   58.6430 S   0  0  0  0  0  0  0  0  0  0  0  0
  127.6540  123.5570   58.4750 C   0  0  0  0  0  0  0  0  0  0  0  0
  127.0810  123.4060   57.2820 N   0  0  0  0  0  0  0  0  0  0  0  0
  1  2  1  0
  2  3  2  0
  3  4  1  0
  4  5  1  0
  5  6  1  0
  5  7  1  0
  5  8  1  0
  4  9  2  0
  9 10  1  0
 10 11  1  0
 10 12  2  0
 12 13  1  0
 13 14  2  0
 13 15  1  0
 15 16  1  0
 16 17  2  0
 17 18  1  0
 18 19  2  0
 19 20  1  0
 20 21  2  0
 12 22  1  0
 22 23  1  0
 23 24  2  0
 24  2  1  0
 23  9  1  0
 21 16  1  0
M  END
>  <Binding energies>  (50) 
[-6.84]

>  <Ligand effiencies>  (50) 
[-0.25333333333333335]

>  <Interactions>  (50) 
["V-B:ILE:538:CB:9834, V-B:PRO:540:N:9856, V-B:TYR:539:CE1:9847, V-B:LEU:363:CA:8156, V-B:PRO:540:CA:9855, V-B:TYR:531:CE2:9765, V-B:TYR:539:CD1:9845, V-B:ALA:541:CA:9862, V-B:TYR:539:CZ:9849, V-B:PRO:540:C:9853, V-B:PRO:540:CB:9857, V-B:LEU:363:CD1:8160, V-B:ILE:538:CG2:9835, V-B:GLU:543:CD:9880, V-B:ALA:541:C:9860, V-B:ASN:362:C:8143, V-B:PRO:540:CD:9859, V-B:ASN:362:CB:8147, V-B:LEU:363:CB:8158, V-B:ASP:366:CG:8184, V-B:ARG:545:CZ:9898, V-A:ARG:545:CZ:4924, H-A:ARG:545:NH2:4926, H-B:GLU:543:OE1:9881, H-B:GLU:543:OE2:9882, H-A:ARG:545:NE:4922, H-A:TYR:484:OH:4345, H-A:GLY:454:N:4047, V-A:HIS:456:CE1:4066, V-A:ARG:545:CD:4921, V-A:ARG:545:CG:4920, H-B:ALA:541:O:9861, V-B:ASN:362:CA:8145"]

$$$$
4bh_Grossjean_2025
     RDKit          3D

 31 33  0  0  0  0  0  0  0  0999 V2000
  125.3660  129.6450   65.3920 C   0  0  0  0  0  0  0  0  0  0  0  0
  124.5380  130.4890   64.6010 O   0  0  0  0  0  0  0  0  0  0  0  0
  125.0220  130.9880   63.4060 C   0  0  0  0  0  0  0  0  0  0  0  0
  124.7260  130.4370   62.1490 C   0  0  0  0  0  0  0  0  0  0  0  0
  125.2520  130.9920   60.9820 C   0  0  0  0  0  0  0  0  0  0  0  0
  124.8840  130.4080   59.6240 C   0  0  0  0  0  0  0  0  0  0  0  0
  125.8890  129.4870   59.0920 N   0  0  0  0  0  0  0  0  0  0  0  0
  125.9720  129.0750   57.8100 C   0  0  0  0  0  0  0  0  0  0  0  0
  125.1580  129.4170   56.9500 O   0  0  0  0  0  0  0  0  0  0  0  0
  127.0660  128.1530   57.5000 C   0  0  0  0  0  0  0  0  0  0  0  0
  128.5950  128.7750   56.8860 S   0  0  0  0  0  0  0  0  0  0  0  0
  129.2470  127.1580   56.7520 C   0  0  0  0  0  0  0  0  0  0  0  0
  130.4850  126.9430   56.3090 N   0  0  0  0  0  0  0  0  0  0  0  0
  130.8780  125.6490   56.2520 C   0  0  0  0  0  0  0  0  0  0  0  0
  132.2910  125.4260   55.7430 C   0  0  0  0  0  0  0  0  0  0  0  0
  130.0730  124.5770   56.6250 C   0  0  0  0  0  0  0  0  0  0  0  0
  128.7660  124.7980   57.0910 C   0  0  0  0  0  0  0  0  0  0  0  0
  127.9180  123.5860   57.4920 C   0  0  0  0  0  0  0  0  0  0  0  0
  128.5720  122.4280   57.3800 F   0  0  0  0  0  0  0  0  0  0  0  0
  127.5340  123.7060   58.7620 F   0  0  0  0  0  0  0  0  0  0  0  0
  126.8390  123.5130   56.7120 F   0  0  0  0  0  0  0  0  0  0  0  0
  128.3190  126.1500   57.1610 C   0  0  0  0  0  0  0  0  0  0  0  0
  127.0740  126.7520   57.5710 C   0  0  0  0  0  0  0  0  0  0  0  0
  125.9990  126.0160   57.9990 N   0  0  0  0  0  0  0  0  0  0  0  0
  126.0600  132.1280   61.0640 C   0  0  0  0  0  0  0  0  0  0  0  0
  126.3780  132.6960   62.3070 C   0  0  0  0  0  0  0  0  0  0  0  0
  127.1820  133.8110   62.4640 O   0  0  0  0  0  0  0  0  0  0  0  0
  126.9000  134.9860   61.7110 C   0  0  0  0  0  0  0  0  0  0  0  0
  125.8570  132.1130   63.4710 C   0  0  0  0  0  0  0  0  0  0  0  0
  126.1460  132.6700   64.6950 O   0  0  0  0  0  0  0  0  0  0  0  0
  127.4940  132.4920   65.1070 C   0  0  0  0  0  0  0  0  0  0  0  0
  1  2  1  0
  2  3  1  0
  3  4  2  0
  4  5  1  0
  5  6  1  0
  6  7  1  0
  7  8  1  0
  8  9  2  0
  8 10  1  0
 10 11  1  0
 11 12  1  0
 12 13  2  0
 13 14  1  0
 14 15  1  0
 14 16  2  0
 16 17  1  0
 17 18  1  0
 18 19  1  0
 18 20  1  0
 18 21  1  0
 17 22  2  0
 22 23  1  0
 23 24  1  0
  5 25  2  0
 25 26  1  0
 26 27  1  0
 27 28  1  0
 26 29  2  0
 29 30  1  0
 30 31  1  0
 29  3  1  0
 23 10  2  0
 22 12  1  0
M  END
>  <Binding energies>  (51) 
[-6.07]

>  <Ligand effiencies>  (51) 
[-0.17852941176470588]

>  <Interactions>  (51) 
["V-A:TYR:539:CD1:4871, V-A:TYR:531:CZ:4792, V-A:TYR:539:CE1:4873, V-B:LEU:475:CD2:9230, H-A:TYR:531:OH:4793, V-A:ALA:541:CB:4890, V-B:TYR:539:CE1:9847, H-B:ASP:366:OD2:8186, V-B:TYR:539:CD1:9845, V-B:TYR:539:CZ:9849, V-B:TYR:539:C:9839, V-B:TYR:531:CZ:9766, V-B:TYR:539:CG:9844, H-B:TYR:531:OH:9767, V-A:MET:535:CE:4833, V-B:TYR:539:CE2:9848, V-B:MET:535:CE:9807, V-B:ASP:366:CB:8183, V-B:TYR:539:CD2:9846, V-B:ASP:366:CG:8184, V-B:ARG:545:CZ:9898, H-A:TYR:539:OH:4876, H-B:GLY:454:N:9021, H-B:TYR:484:OH:9319, V-A:TYR:531:CE1:4790, V-A:ASN:370:CG:3243, V-B:TYR:539:CA:9841, V-B:TYR:484:CE2:9317, V-B:TYR:484:CZ:9318, V-A:GLU:543:CB:4904, V-B:ARG:545:CD:9895, V-A:ASN:370:CB:3242"]

$$$$
4bi_Grossjean_2025
     RDKit          3D

 23 25  0  0  0  0  0  0  0  0999 V2000
  124.9490  123.2210   55.9840 C   0  0  0  0  0  0  0  0  0  0  0  0
  125.6260  123.3550   57.3360 C   0  0  0  0  0  0  0  0  0  0  0  0
  124.8780  123.4280   58.5090 C   0  0  0  0  0  0  0  0  0  0  0  0
  125.5180  123.5470   59.7540 C   0  0  0  0  0  0  0  0  0  0  0  0
  124.6530  123.6170   61.0160 C   0  0  0  0  0  0  0  0  0  0  0  0
  124.8810  124.7110   61.7460 F   0  0  0  0  0  0  0  0  0  0  0  0
  123.3630  123.6230   60.6810 F   0  0  0  0  0  0  0  0  0  0  0  0
  124.9020  122.5610   61.7930 F   0  0  0  0  0  0  0  0  0  0  0  0
  126.9440  123.5920   59.7520 C   0  0  0  0  0  0  0  0  0  0  0  0
  127.9220  123.7100   60.8050 C   0  0  0  0  0  0  0  0  0  0  0  0
  127.5780  123.8170   62.1280 N   0  0  0  0  0  0  0  0  0  0  0  0
  129.2540  123.6980   60.3560 C   0  0  0  0  0  0  0  0  0  0  0  0
  130.4840  123.8110   61.1440 C   0  0  0  0  0  0  0  0  0  0  0  0
  131.5630  123.4310   60.6840 O   0  0  0  0  0  0  0  0  0  0  0  0
  130.3410  124.3690   62.3720 N   0  0  0  0  0  0  0  0  0  0  0  0
  131.3330  124.6060   63.3140 C   0  0  0  0  0  0  0  0  0  0  0  0
  131.1100  125.3160   64.4930 C   0  0  0  0  0  0  0  0  0  0  0  0
  132.3250  125.3280   65.1390 C   0  0  0  0  0  0  0  0  0  0  0  0
  133.2320  124.6590   64.3890 O   0  0  0  0  0  0  0  0  0  0  0  0
  132.5910  124.2060   63.2340 N   0  0  0  0  0  0  0  0  0  0  0  0
  129.3320  123.5650   58.6010 S   0  0  0  0  0  0  0  0  0  0  0  0
  127.5900  123.5070   58.4810 C   0  0  0  0  0  0  0  0  0  0  0  0
  126.9780  123.3920   57.3020 N   0  0  0  0  0  0  0  0  0  0  0  0
  1  2  1  0
  2  3  2  0
  3  4  1  0
  4  5  1  0
  5  6  1  0
  5  7  1  0
  5  8  1  0
  4  9  2  0
  9 10  1  0
 10 11  1  0
 10 12  2  0
 12 13  1  0
 13 14  2  0
 13 15  1  0
 15 16  1  0
 16 17  1  0
 17 18  2  0
 18 19  1  0
 19 20  1  0
 12 21  1  0
 21 22  1  0
 22 23  2  0
 23  2  1  0
 22  9  1  0
 20 16  2  0
M  END
>  <Binding energies>  (52) 
[-6.49]

>  <Ligand effiencies>  (52) 
[-0.24961538461538463]

>  <Interactions>  (52) 
["V-B:ILE:538:CB:9834, V-B:PRO:540:N:9856, V-B:TYR:539:CE1:9847, V-B:LEU:363:CA:8156, V-B:PRO:540:CA:9855, V-B:TYR:531:CE2:9765, V-B:TYR:539:CD1:9845, V-B:ALA:541:CA:9862, V-B:TYR:539:CZ:9849, V-B:PRO:540:C:9853, V-B:TYR:531:CZ:9766, V-B:PRO:540:CB:9857, V-B:LEU:363:CD1:8160, V-B:ILE:538:CG2:9835, V-B:GLU:543:CD:9880, V-B:ALA:541:C:9860, V-B:ASN:362:C:8143, V-B:ASN:362:CB:8147, V-B:ASP:366:CG:8184, V-B:ARG:545:CZ:9898, V-A:ARG:545:CZ:4924, H-B:GLU:543:OE1:9881, H-B:GLU:543:OE2:9882, H-A:TYR:484:OH:4345, H-A:GLY:454:N:4047, H-B:ALA:541:O:9861, V-B:ASN:362:CA:8145"]

$$$$
4bj_Grossjean_2025
     RDKit          3D

 23 25  0  0  0  0  0  0  0  0999 V2000
  125.6290  129.1730   64.9860 C   0  0  0  0  0  0  0  0  0  0  0  0
  125.9750  130.3480   64.0900 C   0  0  0  0  0  0  0  0  0  0  0  0
  127.2200  130.4360   63.4720 C   0  0  0  0  0  0  0  0  0  0  0  0
  127.5290  131.5320   62.6510 C   0  0  0  0  0  0  0  0  0  0  0  0
  128.9140  131.5870   61.9940 C   0  0  0  0  0  0  0  0  0  0  0  0
  129.5940  130.4450   62.1160 F   0  0  0  0  0  0  0  0  0  0  0  0
  128.7850  131.8380   60.6920 F   0  0  0  0  0  0  0  0  0  0  0  0
  129.6420  132.5490   62.5600 F   0  0  0  0  0  0  0  0  0  0  0  0
  126.5210  132.5270   62.4840 C   0  0  0  0  0  0  0  0  0  0  0  0
  126.4750  133.7630   61.7410 C   0  0  0  0  0  0  0  0  0  0  0  0
  127.5320  134.2190   60.9950 N   0  0  0  0  0  0  0  0  0  0  0  0
  125.2550  134.4500   61.8450 C   0  0  0  0  0  0  0  0  0  0  0  0
  124.8710  135.7250   61.2360 C   0  0  0  0  0  0  0  0  0  0  0  0
  123.7400  135.8890   60.7720 O   0  0  0  0  0  0  0  0  0  0  0  0
  125.8290  136.6850   61.2400 N   0  0  0  0  0  0  0  0  0  0  0  0
  125.7190  137.9750   60.7400 C   0  0  0  0  0  0  0  0  0  0  0  0
  126.0020  138.3990   59.5270 N   0  0  0  0  0  0  0  0  0  0  0  0
  125.7730  139.6900   59.3980 C   0  0  0  0  0  0  0  0  0  0  0  0
  125.2920  140.3450   60.5270 C   0  0  0  0  0  0  0  0  0  0  0  0
  125.1380  139.1980   61.8240 S   0  0  0  0  0  0  0  0  0  0  0  0
  124.1270  133.5920   62.8910 S   0  0  0  0  0  0  0  0  0  0  0  0
  125.2860  132.3140   63.1700 C   0  0  0  0  0  0  0  0  0  0  0  0
  124.9980  131.2730   63.9510 N   0  0  0  0  0  0  0  0  0  0  0  0
  1  2  1  0
  2  3  2  0
  3  4  1  0
  4  5  1  0
  5  6  1  0
  5  7  1  0
  5  8  1  0
  4  9  2  0
  9 10  1  0
 10 11  1  0
 10 12  2  0
 12 13  1  0
 13 14  2  0
 13 15  1  0
 15 16  1  0
 16 17  2  0
 17 18  1  0
 18 19  2  0
 19 20  1  0
 12 21  1  0
 21 22  1  0
 22 23  2  0
 23  2  1  0
 22  9  1  0
 20 16  1  0
M  END
>  <Binding energies>  (53) 
[-6.35]

>  <Ligand effiencies>  (53) 
[-0.24423076923076922]

>  <Interactions>  (53) 
["V-A:PRO:540:C:4879, V-A:TYR:539:CD1:4871, V-A:TYR:539:C:4865, V-A:ALA:541:CA:4888, V-A:TYR:539:CE1:4873, V-B:LEU:475:CD2:9230, V-A:ALA:541:CB:4890, V-B:GLY:454:CA:9020, V-B:HIS:383:CD2:8363, V-A:ILE:343:CD1:2991, V-B:HIS:383:CG:8361, V-B:ILE:369:CG2:8208, V-B:ILE:369:CD1:8210, V-B:HIS:383:CE1:8365, V-B:SER:385:CB:8380, V-B:LEU:373:CD1:8251, V-B:HIS:383:CB:8360, V-B:LEU:373:CD2:8252, V-A:GLU:543:CD:4906, V-B:ARG:545:CZ:9898, V-B:SER:385:CA:8378, H-A:TYR:539:O:4866, H-B:GLY:454:N:9021, H-B:TYR:484:OH:9319, V-B:ARG:545:CD:9895"]

$$$$
4bk_Grossjean_2025
     RDKit          3D

 28 29  0  0  0  0  0  0  0  0999 V2000
  126.7660  130.5520   55.7530 C   0  0  0  0  0  0  0  0  0  0  0  0
  126.2720  129.2810   56.1460 O   0  0  0  0  0  0  0  0  0  0  0  0
  125.7430  129.2630   57.4660 C   0  0  0  0  0  0  0  0  0  0  0  0
  124.3570  129.9210   57.4710 C   0  0  0  0  0  0  0  0  0  0  0  0
  124.3320  130.9620   58.4370 O   0  0  0  0  0  0  0  0  0  0  0  0
  124.5700  130.5180   59.7660 C   0  0  0  0  0  0  0  0  0  0  0  0
  123.6430  131.2710   60.7300 C   0  0  0  0  0  0  0  0  0  0  0  0
  123.9950  130.9490   62.0680 O   0  0  0  0  0  0  0  0  0  0  0  0
  124.4950  132.0530   62.8130 C   0  0  0  0  0  0  0  0  0  0  0  0
  124.9160  133.1720   61.8450 C   0  0  0  0  0  0  0  0  0  0  0  0
  126.1750  132.9030   61.1480 N   0  0  0  0  0  0  0  0  0  0  0  0
  127.3660  132.6870   61.7450 C   0  0  0  0  0  0  0  0  0  0  0  0
  127.4990  132.6770   62.9700 O   0  0  0  0  0  0  0  0  0  0  0  0
  128.5010  132.4520   60.8500 C   0  0  0  0  0  0  0  0  0  0  0  0
  128.2760  132.5080   59.1040 S   0  0  0  0  0  0  0  0  0  0  0  0
  129.9710  132.1820   58.8320 C   0  0  0  0  0  0  0  0  0  0  0  0
  130.4730  132.0910   57.6010 N   0  0  0  0  0  0  0  0  0  0  0  0
  131.7990  131.8380   57.5160 C   0  0  0  0  0  0  0  0  0  0  0  0
  132.3500  131.7410   56.1050 C   0  0  0  0  0  0  0  0  0  0  0  0
  132.6280  131.6740   58.6240 C   0  0  0  0  0  0  0  0  0  0  0  0
  132.1060  131.7660   59.9230 C   0  0  0  0  0  0  0  0  0  0  0  0
  133.0550  131.5740   61.1100 C   0  0  0  0  0  0  0  0  0  0  0  0
  133.2740  132.7010   61.7910 F   0  0  0  0  0  0  0  0  0  0  0  0
  132.5410  130.6860   61.9600 F   0  0  0  0  0  0  0  0  0  0  0  0
  134.2360  131.1350   60.6760 F   0  0  0  0  0  0  0  0  0  0  0  0
  130.7090  132.0340   60.0470 C   0  0  0  0  0  0  0  0  0  0  0  0
  129.8390  132.1990   61.1850 C   0  0  0  0  0  0  0  0  0  0  0  0
  130.2850  132.1120   62.4790 N   0  0  0  0  0  0  0  0  0  0  0  0
  1  2  1  0
  2  3  1  0
  3  4  1  0
  4  5  1  0
  5  6  1  0
  6  7  1  0
  7  8  1  0
  8  9  1  0
  9 10  1  0
 10 11  1  0
 11 12  1  0
 12 13  2  0
 12 14  1  0
 14 15  1  0
 15 16  1  0
 16 17  2  0
 17 18  1  0
 18 19  1  0
 18 20  2  0
 20 21  1  0
 21 22  1  0
 22 23  1  0
 22 24  1  0
 22 25  1  0
 21 26  2  0
 26 27  1  0
 27 28  1  0
 27 14  2  0
 26 16  1  0
M  END
>  <Binding energies>  (54) 
[-5.46]

>  <Ligand effiencies>  (54) 
[-0.1761290322580645]

>  <Interactions>  (54) 
["V-A:LEU:363:CA:3182, V-A:PRO:540:C:4879, V-A:ILE:538:CB:4860, V-A:TYR:539:CD1:4871, V-A:TYR:531:CE2:4791, V-A:TYR:539:C:4865, V-A:ALA:541:CA:4888, V-A:TYR:539:CZ:4875, V-A:ILE:538:CG2:4861, V-A:PRO:540:CB:4883, V-A:TYR:531:CZ:4792, V-A:TYR:539:CE1:4873, V-B:LEU:475:CD2:9230, V-A:PRO:540:CA:4881, V-A:LEU:363:CD1:3186, V-A:ALA:541:CB:4890, H-B:TYR:531:OH:9767, V-B:GLY:454:CA:9020, V-B:ILE:369:CG2:8208, V-B:ILE:369:CD1:8210, V-B:ILE:369:CB:8207, V-A:ASN:362:CB:3173, V-A:ALA:541:C:4886, V-A:ASN:362:CA:3171, V-A:GLU:543:CD:4906, V-A:PRO:540:N:4882, V-A:ASN:362:C:3169, V-A:ASP:366:CG:3210, V-A:MET:535:CE:4833, V-B:ASP:366:CB:8183, V-B:ASP:366:CG:8184, V-A:TYR:539:CG:4870, H-A:TYR:539:OH:4876, V-A:ARG:545:CZ:4924, V-B:ASP:366:C:8179, V-B:ASP:366:CA:8181, H-A:GLU:543:OE1:4907, H-A:ALA:541:O:4887"]

$$$$
4cd_Grossjean_2025
     RDKit          3D

 29 32  0  0  0  0  0  0  0  0999 V2000
  127.8440  128.1940   63.6850 N   0  0  0  0  0  0  0  0  0  0  0  0
  128.2450  129.1710   62.8090 C   0  0  0  0  0  0  0  0  0  0  0  0
  129.3050  129.0030   61.9030 C   0  0  0  0  0  0  0  0  0  0  0  0
  130.1720  127.8360   61.7170 C   0  0  0  0  0  0  0  0  0  0  0  0
  130.5350  127.4960   60.5910 O   0  0  0  0  0  0  0  0  0  0  0  0
  130.5320  127.1930   62.8550 N   0  0  0  0  0  0  0  0  0  0  0  0
  131.3010  126.0260   63.0200 C   0  0  0  0  0  0  0  0  0  0  0  0
  130.9570  125.2140   64.1040 C   0  0  0  0  0  0  0  0  0  0  0  0
  131.6500  124.0310   64.3440 C   0  0  0  0  0  0  0  0  0  0  0  0
  132.6870  123.6550   63.4940 C   0  0  0  0  0  0  0  0  0  0  0  0
  133.0320  124.4470   62.4020 C   0  0  0  0  0  0  0  0  0  0  0  0
  132.3400  125.6320   62.1590 C   0  0  0  0  0  0  0  0  0  0  0  0
  129.5400  130.4500   60.9250 S   0  0  0  0  0  0  0  0  0  0  0  0
  128.2290  131.2690   61.7400 C   0  0  0  0  0  0  0  0  0  0  0  0
  127.8840  132.5150   61.4230 N   0  0  0  0  0  0  0  0  0  0  0  0
  126.8600  133.0720   62.1220 C   0  0  0  0  0  0  0  0  0  0  0  0
  126.4950  134.4780   61.7440 C   0  0  0  0  0  0  0  0  0  0  0  0
  125.1790  134.8070   61.3800 C   0  0  0  0  0  0  0  0  0  0  0  0
  124.8340  136.1090   61.0290 C   0  0  0  0  0  0  0  0  0  0  0  0
  125.8040  137.1050   61.0370 C   0  0  0  0  0  0  0  0  0  0  0  0
  127.1140  136.8090   61.3960 C   0  0  0  0  0  0  0  0  0  0  0  0
  127.4540  135.5060   61.7480 C   0  0  0  0  0  0  0  0  0  0  0  0
  126.1770  132.3710   63.1190 C   0  0  0  0  0  0  0  0  0  0  0  0
  126.5310  131.0550   63.4590 C   0  0  0  0  0  0  0  0  0  0  0  0
  125.7420  130.3450   64.5650 C   0  0  0  0  0  0  0  0  0  0  0  0
  125.0820  129.2680   64.1310 F   0  0  0  0  0  0  0  0  0  0  0  0
  126.5740  129.9430   65.5260 F   0  0  0  0  0  0  0  0  0  0  0  0
  124.8420  131.1810   65.0840 F   0  0  0  0  0  0  0  0  0  0  0  0
  127.6100  130.4640   62.7420 C   0  0  0  0  0  0  0  0  0  0  0  0
  1  2  1  0
  2  3  2  0
  3  4  1  0
  4  5  2  0
  4  6  1  0
  6  7  1  0
  7  8  2  0
  8  9  1  0
  9 10  2  0
 10 11  1  0
 11 12  2  0
  3 13  1  0
 13 14  1  0
 14 15  2  0
 15 16  1  0
 16 17  1  0
 17 18  2  0
 18 19  1  0
 19 20  2  0
 20 21  1  0
 21 22  2  0
 16 23  2  0
 23 24  1  0
 24 25  1  0
 25 26  1  0
 25 27  1  0
 25 28  1  0
 24 29  2  0
 29  2  1  0
 12  7  1  0
 29 14  1  0
 22 17  1  0
M  END
>  <Binding energies>  (55) 
[-7.57]

>  <Ligand effiencies>  (55) 
[-0.2365625]

>  <Interactions>  (55) 
["V-A:TYR:539:CD1:4871, V-A:TYR:539:CE1:4873, V-B:LEU:475:CD2:9230, V-A:ALA:541:CB:4890, V-B:GLY:454:CA:9020, V-B:PRO:482:CB:9297, V-B:ILE:369:CG2:8208, V-A:TYR:539:CB:4869, V-B:LEU:373:CD1:8251, V-B:PRO:482:CG:9298, V-A:GLU:543:CD:4906, V-B:GLU:543:CD:9880, V-B:ARG:545:CZ:9898, V-B:SER:385:CA:8378, V-A:ARG:545:CZ:4924, V-A:GLY:454:CA:4046, H-B:GLU:543:OE1:9881, H-B:GLU:543:OE2:9882, H-A:GLU:543:OE1:4907, H-A:GLU:543:OE2:4908, V-B:TYR:484:CZ:9318, V-B:GLY:453:C:9013"]

$$$$
4cg_Grossjean_2025
     RDKit          3D

 30 33  0  0  0  0  0  0  0  0999 V2000
  130.4610  128.0240   62.8680 N   0  0  0  0  0  0  0  0  0  0  0  0
  130.6510  127.1960   61.7920 C   0  0  0  0  0  0  0  0  0  0  0  0
  130.5740  127.6360   60.4630 C   0  0  0  0  0  0  0  0  0  0  0  0
  130.3410  128.9900   59.9620 C   0  0  0  0  0  0  0  0  0  0  0  0
  129.3900  129.2460   59.2200 O   0  0  0  0  0  0  0  0  0  0  0  0
  131.2480  129.9200   60.3280 N   0  0  0  0  0  0  0  0  0  0  0  0
  131.2030  131.3360   59.9650 C   0  0  0  0  0  0  0  0  0  0  0  0
  131.5030  131.5940   58.4930 C   0  0  0  0  0  0  0  0  0  0  0  0
  130.4790  132.0160   57.6400 C   0  0  0  0  0  0  0  0  0  0  0  0
  130.7550  132.2830   56.3010 C   0  0  0  0  0  0  0  0  0  0  0  0
  132.0550  132.1370   55.8230 C   0  0  0  0  0  0  0  0  0  0  0  0
  133.0830  131.7330   56.6720 C   0  0  0  0  0  0  0  0  0  0  0  0
  132.8080  131.4670   58.0110 C   0  0  0  0  0  0  0  0  0  0  0  0
  130.8900  126.3220   59.3320 S   0  0  0  0  0  0  0  0  0  0  0  0
  131.1000  125.1880   60.6460 C   0  0  0  0  0  0  0  0  0  0  0  0
  131.3810  123.9080   60.4190 N   0  0  0  0  0  0  0  0  0  0  0  0
  131.5310  123.1010   61.5020 C   0  0  0  0  0  0  0  0  0  0  0  0
  131.8460  121.6610   61.2120 C   0  0  0  0  0  0  0  0  0  0  0  0
  130.8450  120.6780   61.2740 C   0  0  0  0  0  0  0  0  0  0  0  0
  131.1320  119.3420   61.0080 C   0  0  0  0  0  0  0  0  0  0  0  0
  132.4300  118.9680   60.6760 C   0  0  0  0  0  0  0  0  0  0  0  0
  133.4410  119.9200   60.6100 C   0  0  0  0  0  0  0  0  0  0  0  0
  133.1500  121.2550   60.8770 C   0  0  0  0  0  0  0  0  0  0  0  0
  131.3790  123.5830   62.8070 C   0  0  0  0  0  0  0  0  0  0  0  0
  131.0820  124.9320   63.0580 C   0  0  0  0  0  0  0  0  0  0  0  0
  130.9290  125.3920   64.5120 C   0  0  0  0  0  0  0  0  0  0  0  0
  131.9700  126.1040   64.9490 F   0  0  0  0  0  0  0  0  0  0  0  0
  129.8440  126.1580   64.6300 F   0  0  0  0  0  0  0  0  0  0  0  0
  130.8080  124.3330   65.3100 F   0  0  0  0  0  0  0  0  0  0  0  0
  130.9370  125.7890   61.9290 C   0  0  0  0  0  0  0  0  0  0  0  0
  1  2  1  0
  2  3  2  0
  3  4  1  0
  4  5  2  0
  4  6  1  0
  6  7  1  0
  7  8  1  0
  8  9  2  0
  9 10  1  0
 10 11  2  0
 11 12  1  0
 12 13  2  0
  3 14  1  0
 14 15  1  0
 15 16  2  0
 16 17  1  0
 17 18  1  0
 18 19  2  0
 19 20  1  0
 20 21  2  0
 21 22  1  0
 22 23  2  0
 17 24  2  0
 24 25  1  0
 25 26  1  0
 26 27  1  0
 26 28  1  0
 26 29  1  0
 25 30  2  0
 30  2  1  0
 13  8  1  0
 30 15  1  0
 23 18  1  0
M  END
>  <Binding energies>  (56) 
[-7.8]

>  <Ligand effiencies>  (56) 
[-0.23636363636363636]

>  <Interactions>  (56) 
["V-A:ILE:538:CB:4860, V-A:TYR:531:CE2:4791, H-A:ASP:366:OD2:3212, V-A:ILE:538:CG2:4861, V-A:PRO:540:CB:4883, V-A:TYR:531:CZ:4792, V-A:PRO:540:CA:4881, V-A:LEU:363:CD1:3186, V-B:TYR:539:CE1:9847, V-B:ALA:541:CB:9864, V-B:TYR:539:CD1:9845, V-A:LEU:475:CD2:4256, V-A:ILE:538:CA:4858, V-A:GLU:543:CD:4906, V-A:PRO:540:N:4882, V-A:ASP:366:CG:3210, V-A:MET:535:CE:4833, V-B:GLU:543:CD:9880, V-A:SER:385:CA:3404, V-A:ARG:545:CZ:4924, V-A:ILE:369:CG2:3234, V-A:LEU:373:CD1:3277, V-B:GLU:543:CB:9878, H-A:GLU:543:OE1:4907, H-A:GLU:543:OE2:4908, V-A:TYR:484:CZ:4344, V-A:TYR:484:CE2:4343"]

$$$$
4ch_Grossjean_2025
     RDKit          3D

 36 39  0  0  0  0  0  0  0  0999 V2000
  123.4120  124.6780   57.6740 C   0  0  0  0  0  0  0  0  0  0  0  0
  123.9080  123.5340   58.3610 O   0  0  0  0  0  0  0  0  0  0  0  0
  125.2620  123.4340   58.6220 C   0  0  0  0  0  0  0  0  0  0  0  0
  125.8710  123.8980   59.8000 C   0  0  0  0  0  0  0  0  0  0  0  0
  127.2460  123.7620   59.9960 C   0  0  0  0  0  0  0  0  0  0  0  0
  127.8920  124.2960   61.2690 C   0  0  0  0  0  0  0  0  0  0  0  0
  127.6460  125.7170   61.5170 N   0  0  0  0  0  0  0  0  0  0  0  0
  127.6510  126.6890   60.5810 C   0  0  0  0  0  0  0  0  0  0  0  0
  127.8430  126.4570   59.3850 O   0  0  0  0  0  0  0  0  0  0  0  0
  127.3760  128.0440   61.0610 C   0  0  0  0  0  0  0  0  0  0  0  0
  127.0230  129.3320   59.9140 S   0  0  0  0  0  0  0  0  0  0  0  0
  126.8100  130.4850   61.2090 C   0  0  0  0  0  0  0  0  0  0  0  0
  126.5080  131.7580   60.9630 N   0  0  0  0  0  0  0  0  0  0  0  0
  126.3560  132.5800   62.0340 C   0  0  0  0  0  0  0  0  0  0  0  0
  126.0220  134.0100   61.7230 C   0  0  0  0  0  0  0  0  0  0  0  0
  124.7090  134.3880   61.3960 C   0  0  0  0  0  0  0  0  0  0  0  0
  124.3930  135.7120   61.1040 C   0  0  0  0  0  0  0  0  0  0  0  0
  125.3890  136.6820   61.1360 C   0  0  0  0  0  0  0  0  0  0  0  0
  126.6990  136.3350   61.4520 C   0  0  0  0  0  0  0  0  0  0  0  0
  127.0110  135.0090   61.7410 C   0  0  0  0  0  0  0  0  0  0  0  0
  126.5240  132.1230   63.3450 C   0  0  0  0  0  0  0  0  0  0  0  0
  126.8440  130.7830   63.6170 C   0  0  0  0  0  0  0  0  0  0  0  0
  127.0140  130.3490   65.0770 C   0  0  0  0  0  0  0  0  0  0  0  0
  127.8670  129.3330   65.2260 F   0  0  0  0  0  0  0  0  0  0  0  0
  127.4780  131.3680   65.7990 F   0  0  0  0  0  0  0  0  0  0  0  0
  125.8400  129.9590   65.5710 F   0  0  0  0  0  0  0  0  0  0  0  0
  126.9930  129.9100   62.5010 C   0  0  0  0  0  0  0  0  0  0  0  0
  127.3050  128.5060   62.3850 C   0  0  0  0  0  0  0  0  0  0  0  0
  127.5230  127.7000   63.4730 N   0  0  0  0  0  0  0  0  0  0  0  0
  128.0280  123.1730   59.0020 C   0  0  0  0  0  0  0  0  0  0  0  0
  127.4470  122.7020   57.8140 C   0  0  0  0  0  0  0  0  0  0  0  0
  128.1600  122.1070   56.7890 O   0  0  0  0  0  0  0  0  0  0  0  0
  128.5670  122.8920   55.6730 C   0  0  0  0  0  0  0  0  0  0  0  0
  126.0620  122.8330   57.6390 C   0  0  0  0  0  0  0  0  0  0  0  0
  125.4820  122.3900   56.4750 O   0  0  0  0  0  0  0  0  0  0  0  0
  125.2960  123.4050   55.4980 C   0  0  0  0  0  0  0  0  0  0  0  0
  1  2  1  0
  2  3  1  0
  3  4  2  0
  4  5  1  0
  5  6  1  0
  6  7  1  0
  7  8  1  0
  8  9  2  0
  8 10  1  0
 10 11  1  0
 11 12  1  0
 12 13  2  0
 13 14  1  0
 14 15  1  0
 15 16  2  0
 16 17  1  0
 17 18  2  0
 18 19  1  0
 19 20  2  0
 14 21  2  0
 21 22  1  0
 22 23  1  0
 23 24  1  0
 23 25  1  0
 23 26  1  0
 22 27  2  0
 27 28  1  0
 28 29  1  0
  5 30  2  0
 30 31  1  0
 31 32  1  0
 32 33  1  0
 31 34  2  0
 34 35  1  0
 35 36  1  0
 34  3  1  0
 28 10  2  0
 27 12  1  0
 20 15  1  0
M  END
>  <Binding energies>  (57) 
[-7.95]

>  <Ligand effiencies>  (57) 
[-0.20384615384615384]

>  <Interactions>  (57) 
["V-A:TYR:539:CD1:4871, V-A:TYR:539:CE1:4873, V-B:LEU:475:CD2:9230, V-A:ALA:541:CB:4890, V-B:ILE:538:CB:9834, V-B:PRO:540:N:9856, V-B:TYR:539:CE1:9847, V-B:LEU:363:CA:8156, V-B:PRO:540:CA:9855, V-B:TYR:531:CE2:9765, V-B:TYR:539:CZ:9849, V-B:TYR:539:C:9839, V-B:TYR:531:CZ:9766, V-B:TYR:539:CG:9844, V-B:PRO:540:CB:9857, V-B:LEU:363:CD1:8160, V-B:ILE:538:CG2:9835, V-B:ILE:369:CG2:8208, V-B:SER:385:CB:8380, V-B:LEU:373:CD1:8251, V-B:PRO:482:CG:9298, V-A:GLU:543:CD:4906, V-B:GLU:543:CD:9880, V-B:TYR:539:CE2:9848, V-B:ILE:538:CA:9832, V-B:MET:535:CE:9807, V-B:ASP:366:CB:8183, H-B:TYR:539:N:9842, V-B:TYR:539:CD2:9846, V-B:PRO:540:CD:9859, V-B:LEU:363:CB:8158, V-B:ASP:366:CG:8184, V-B:SER:385:CA:8378, H-B:GLU:543:OE1:9881, H-B:GLU:543:OE2:9882, H-A:GLU:543:OE2:4908, V-B:TYR:484:CE2:9317, V-B:TYR:484:CZ:9318, V-A:GLU:543:CB:4904, V-A:GLU:543:CG:4905, V-B:LEU:363:C:8154"]

$$$$
4cj_Grossjean_2025
     RDKit          3D

 28 31  0  0  0  0  0  0  0  0999 V2000
  127.8540  128.1330   63.6640 N   0  0  0  0  0  0  0  0  0  0  0  0
  128.2780  129.1270   62.8190 C   0  0  0  0  0  0  0  0  0  0  0  0
  129.3630  128.9780   61.9400 C   0  0  0  0  0  0  0  0  0  0  0  0
  130.2190  127.8070   61.7350 C   0  0  0  0  0  0  0  0  0  0  0  0
  130.5360  127.4480   60.5990 O   0  0  0  0  0  0  0  0  0  0  0  0
  130.6110  127.1680   62.8650 N   0  0  0  0  0  0  0  0  0  0  0  0
  131.4190  126.0420   62.9490 C   0  0  0  0  0  0  0  0  0  0  0  0
  131.9910  125.3840   61.9630 N   0  0  0  0  0  0  0  0  0  0  0  0
  132.6930  124.3600   62.4060 C   0  0  0  0  0  0  0  0  0  0  0  0
  132.7010  124.1700   63.7850 C   0  0  0  0  0  0  0  0  0  0  0  0
  131.7320  125.4060   64.5320 S   0  0  0  0  0  0  0  0  0  0  0  0
  129.6230  130.4430   60.9960 S   0  0  0  0  0  0  0  0  0  0  0  0
  128.2840  131.2420   61.7850 C   0  0  0  0  0  0  0  0  0  0  0  0
  127.9380  132.4890   61.4730 N   0  0  0  0  0  0  0  0  0  0  0  0
  126.8800  133.0240   62.1340 C   0  0  0  0  0  0  0  0  0  0  0  0
  126.5080  134.4280   61.7490 C   0  0  0  0  0  0  0  0  0  0  0  0
  125.1940  134.7450   61.3700 C   0  0  0  0  0  0  0  0  0  0  0  0
  124.8440  136.0430   61.0060 C   0  0  0  0  0  0  0  0  0  0  0  0
  125.8090  137.0460   61.0150 C   0  0  0  0  0  0  0  0  0  0  0  0
  127.1180  136.7580   61.3840 C   0  0  0  0  0  0  0  0  0  0  0  0
  127.4630  135.4590   61.7470 C   0  0  0  0  0  0  0  0  0  0  0  0
  126.1890  132.3140   63.1210 C   0  0  0  0  0  0  0  0  0  0  0  0
  126.5460  130.9990   63.4590 C   0  0  0  0  0  0  0  0  0  0  0  0
  125.7430  130.2770   64.5480 C   0  0  0  0  0  0  0  0  0  0  0  0
  126.5030  129.8330   65.5510 F   0  0  0  0  0  0  0  0  0  0  0  0
  124.8420  131.1100   65.0690 F   0  0  0  0  0  0  0  0  0  0  0  0
  125.1170  129.2230   64.0240 F   0  0  0  0  0  0  0  0  0  0  0  0
  127.6430  130.4210   62.7590 C   0  0  0  0  0  0  0  0  0  0  0  0
  1  2  1  0
  2  3  2  0
  3  4  1  0
  4  5  2  0
  4  6  1  0
  6  7  1  0
  7  8  2  0
  8  9  1  0
  9 10  2  0
 10 11  1  0
  3 12  1  0
 12 13  1  0
 13 14  2  0
 14 15  1  0
 15 16  1  0
 16 17  2  0
 17 18  1  0
 18 19  2  0
 19 20  1  0
 20 21  2  0
 15 22  2  0
 22 23  1  0
 23 24  1  0
 24 25  1  0
 24 26  1  0
 24 27  1  0
 23 28  2  0
 28  2  1  0
 11  7  1  0
 28 13  1  0
 21 16  1  0
M  END
>  <Binding energies>  (58) 
[-7.03]

>  <Ligand effiencies>  (58) 
[-0.2267741935483871]

>  <Interactions>  (58) 
["V-A:TYR:539:CD1:4871, V-A:TYR:539:CE1:4873, V-B:LEU:475:CD2:9230, V-A:ALA:541:CB:4890, V-B:GLY:454:CA:9020, V-B:PRO:482:CB:9297, V-B:ILE:369:CG2:8208, V-A:TYR:539:CB:4869, V-B:LEU:373:CD1:8251, V-B:PRO:482:CG:9298, V-A:GLU:543:CD:4906, V-B:GLU:543:CD:9880, V-B:ARG:545:CZ:9898, V-B:SER:385:CA:8378, V-A:ARG:545:CZ:4924, V-A:GLY:454:CA:4046, H-A:ARG:545:NH2:4926, H-B:GLU:543:OE1:9881, H-B:GLU:543:OE2:9882, H-A:GLU:543:OE1:4907, H-A:GLU:543:OE2:4908, V-B:TYR:484:CZ:9318, V-B:GLY:453:C:9013"]

$$$$
4ck_Grossjean_2025
     RDKit          3D

 33 35  0  0  0  0  0  0  0  0999 V2000
  127.9250  122.7400   55.6170 C   0  0  0  0  0  0  0  0  0  0  0  0
  127.0550  122.1390   56.5640 O   0  0  0  0  0  0  0  0  0  0  0  0
  125.7520  122.7050   56.5730 C   0  0  0  0  0  0  0  0  0  0  0  0
  125.6590  123.7280   57.7120 C   0  0  0  0  0  0  0  0  0  0  0  0
  126.9710  124.0640   58.1430 O   0  0  0  0  0  0  0  0  0  0  0  0
  127.3800  125.3680   57.7520 C   0  0  0  0  0  0  0  0  0  0  0  0
  126.2550  126.3620   58.0640 C   0  0  0  0  0  0  0  0  0  0  0  0
  126.7700  127.6830   57.9600 O   0  0  0  0  0  0  0  0  0  0  0  0
  126.0020  128.6560   58.6560 C   0  0  0  0  0  0  0  0  0  0  0  0
  126.5190  128.7850   60.0970 C   0  0  0  0  0  0  0  0  0  0  0  0
  127.3380  127.6390   60.4920 N   0  0  0  0  0  0  0  0  0  0  0  0
  127.6210  127.2690   61.7590 C   0  0  0  0  0  0  0  0  0  0  0  0
  127.1770  127.8650   62.7410 O   0  0  0  0  0  0  0  0  0  0  0  0
  128.4850  126.0970   61.9040 C   0  0  0  0  0  0  0  0  0  0  0  0
  128.2290  124.6780   60.8920 S   0  0  0  0  0  0  0  0  0  0  0  0
  129.5990  123.8650   61.6100 C   0  0  0  0  0  0  0  0  0  0  0  0
  129.9580  122.6410   61.2320 N   0  0  0  0  0  0  0  0  0  0  0  0
  131.0360  122.0890   61.8470 C   0  0  0  0  0  0  0  0  0  0  0  0
  131.4260  120.7150   61.3840 C   0  0  0  0  0  0  0  0  0  0  0  0
  130.4900  119.6680   61.3710 C   0  0  0  0  0  0  0  0  0  0  0  0
  130.8450  118.3910   60.9450 C   0  0  0  0  0  0  0  0  0  0  0  0
  132.1470  118.1410   60.5240 C   0  0  0  0  0  0  0  0  0  0  0  0
  133.0930  119.1610   60.5220 C   0  0  0  0  0  0  0  0  0  0  0  0
  132.7330  120.4370   60.9470 C   0  0  0  0  0  0  0  0  0  0  0  0
  131.7540  122.7740   62.8340 C   0  0  0  0  0  0  0  0  0  0  0  0
  131.3840  124.0650   63.2420 C   0  0  0  0  0  0  0  0  0  0  0  0
  132.2130  124.7560   64.3320 C   0  0  0  0  0  0  0  0  0  0  0  0
  133.2460  124.0220   64.7470 F   0  0  0  0  0  0  0  0  0  0  0  0
  132.6990  125.9060   63.8660 F   0  0  0  0  0  0  0  0  0  0  0  0
  131.4440  125.0000   65.3930 F   0  0  0  0  0  0  0  0  0  0  0  0
  130.2530  124.6520   62.6040 C   0  0  0  0  0  0  0  0  0  0  0  0
  129.5960  125.9290   62.7450 C   0  0  0  0  0  0  0  0  0  0  0  0
  130.0210  126.8890   63.6270 N   0  0  0  0  0  0  0  0  0  0  0  0
  1  2  1  0
  2  3  1  0
  3  4  1  0
  4  5  1  0
  5  6  1  0
  6  7  1  0
  7  8  1  0
  8  9  1  0
  9 10  1  0
 10 11  1  0
 11 12  1  0
 12 13  2  0
 12 14  1  0
 14 15  1  0
 15 16  1  0
 16 17  2  0
 17 18  1  0
 18 19  1  0
 19 20  2  0
 20 21  1  0
 21 22  2  0
 22 23  1  0
 23 24  2  0
 18 25  2  0
 25 26  1  0
 26 27  1  0
 27 28  1  0
 27 29  1  0
 27 30  1  0
 26 31  2  0
 31 32  1  0
 32 33  1  0
 32 14  2  0
 31 16  1  0
 24 19  1  0
M  END
>  <Binding energies>  (59) 
[-6.02]

>  <Ligand effiencies>  (59) 
[-0.16722222222222222]

>  <Interactions>  (59) 
["V-B:ILE:538:CB:9834, V-B:PRO:540:N:9856, V-B:TYR:539:CE1:9847, V-B:ALA:541:CB:9864, V-B:TYR:539:CD1:9845, H-B:TYR:531:OH:9767, V-A:LEU:475:CD2:4256, V-B:ILE:538:CG2:9835, V-A:GLU:543:CD:4906, V-B:GLU:543:CD:9880, V-B:TYR:539:CE2:9848, V-B:ILE:538:CA:9832, V-B:MET:535:CE:9807, V-B:ASP:366:CB:8183, H-B:TYR:539:N:9842, V-B:TYR:539:CD2:9846, V-B:PRO:540:CD:9859, V-B:ASP:366:CG:8184, V-A:SER:385:CA:3404, V-A:ARG:545:CZ:4924, V-A:ILE:369:CG2:3234, V-A:PRO:482:CG:4324, V-A:PRO:482:CB:4323, V-A:GLY:454:CA:4046, V-A:SER:385:CB:3406, V-A:LEU:373:CD1:3277, V-B:ILE:538:C:9830, H-B:GLU:543:OE1:9881, H-B:ARG:545:NH2:9900, H-B:GLU:543:OE2:9882, H-A:GLU:543:OE1:4907, H-A:GLU:543:OE2:4908, V-A:TYR:484:CZ:4344, V-A:GLY:453:C:4039"]

$$$$
4dd_Grossjean_2025
     RDKit          3D

 26 29  0  0  0  0  0  0  0  0999 V2000
  130.6730  125.3940   64.4360 C   0  0  0  0  0  0  0  0  0  0  0  0
  130.9600  124.9560   63.0080 C   0  0  0  0  0  0  0  0  0  0  0  0
  131.2490  123.6060   62.7760 C   0  0  0  0  0  0  0  0  0  0  0  0
  131.5220  123.1400   61.4840 C   0  0  0  0  0  0  0  0  0  0  0  0
  131.8390  121.7000   61.2070 C   0  0  0  0  0  0  0  0  0  0  0  0
  130.8360  120.7190   61.2580 C   0  0  0  0  0  0  0  0  0  0  0  0
  131.1240  119.3810   60.9990 C   0  0  0  0  0  0  0  0  0  0  0  0
  132.4250  119.0040   60.6860 C   0  0  0  0  0  0  0  0  0  0  0  0
  133.4380  119.9550   60.6260 C   0  0  0  0  0  0  0  0  0  0  0  0
  133.1460  121.2920   60.8840 C   0  0  0  0  0  0  0  0  0  0  0  0
  131.5310  123.9720   60.4070 N   0  0  0  0  0  0  0  0  0  0  0  0
  131.2500  125.2560   60.6250 C   0  0  0  0  0  0  0  0  0  0  0  0
  131.2080  126.4300   59.3290 S   0  0  0  0  0  0  0  0  0  0  0  0
  130.7890  127.7250   60.4520 C   0  0  0  0  0  0  0  0  0  0  0  0
  130.5750  129.0890   59.9650 C   0  0  0  0  0  0  0  0  0  0  0  0
  129.8390  129.8660   60.5760 O   0  0  0  0  0  0  0  0  0  0  0  0
  131.2400  129.4100   58.8290 N   0  0  0  0  0  0  0  0  0  0  0  0
  131.2120  130.6010   58.0790 C   0  0  0  0  0  0  0  0  0  0  0  0
  132.4520  131.0830   57.6510 C   0  0  0  0  0  0  0  0  0  0  0  0
  132.5280  132.2470   56.8910 C   0  0  0  0  0  0  0  0  0  0  0  0
  131.3620  132.9270   56.5510 C   0  0  0  0  0  0  0  0  0  0  0  0
  130.1190  132.4510   56.9600 C   0  0  0  0  0  0  0  0  0  0  0  0
  130.0390  131.2870   57.7210 C   0  0  0  0  0  0  0  0  0  0  0  0
  130.6970  127.2430   61.7670 C   0  0  0  0  0  0  0  0  0  0  0  0
  130.3890  128.0300   62.8500 N   0  0  0  0  0  0  0  0  0  0  0  0
  130.9530  125.8320   61.8920 C   0  0  0  0  0  0  0  0  0  0  0  0
  1  2  1  0
  2  3  2  0
  3  4  1  0
  4  5  1  0
  5  6  2  0
  6  7  1  0
  7  8  2  0
  8  9  1  0
  9 10  2  0
  4 11  2  0
 11 12  1  0
 12 13  1  0
 13 14  1  0
 14 15  1  0
 15 16  2  0
 15 17  1  0
 17 18  1  0
 18 19  2  0
 19 20  1  0
 20 21  2  0
 21 22  1  0
 22 23  2  0
 14 24  2  0
 24 25  1  0
 24 26  1  0
 26  2  1  0
 10  5  1  0
 26 12  2  0
 23 18  1  0
M  END
>  <Binding energies>  (60) 
[-7.64]

>  <Ligand effiencies>  (60) 
[-0.263448275862069]

>  <Interactions>  (60) 
["V-A:ILE:538:CB:4860, V-A:TYR:539:C:4865, H-A:ASP:366:OD2:3212, V-A:ILE:538:CG2:4861, V-A:PRO:540:CB:4883, H-A:TYR:531:OH:4793, V-A:LEU:363:CD1:3186, V-B:TYR:539:CE1:9847, V-B:ALA:541:CB:9864, V-B:TYR:539:CD1:9845, V-A:LEU:475:CD2:4256, V-A:ILE:538:CA:4858, V-A:PRO:540:CD:4885, V-A:GLU:543:CD:4906, V-A:PRO:540:N:4882, V-A:ASP:366:CG:3210, V-B:GLU:543:CD:9880, V-A:ILE:538:C:4856, V-A:SER:385:CA:3404, V-A:ILE:369:CG2:3234, V-A:LEU:373:CD1:3277, H-A:GLU:543:OE1:4907, H-A:GLU:543:OE2:4908"]

$$$$
4dg_Grossjean_2025
     RDKit          3D

 27 30  0  0  0  0  0  0  0  0999 V2000
  123.1560  130.8970   62.7600 C   0  0  0  0  0  0  0  0  0  0  0  0
  124.6360  130.9550   62.4130 C   0  0  0  0  0  0  0  0  0  0  0  0
  125.3640  129.7590   62.4270 C   0  0  0  0  0  0  0  0  0  0  0  0
  126.7290  129.7440   62.1160 C   0  0  0  0  0  0  0  0  0  0  0  0
  127.5370  128.4770   62.1210 C   0  0  0  0  0  0  0  0  0  0  0  0
  127.1080  127.3460   61.4060 C   0  0  0  0  0  0  0  0  0  0  0  0
  127.8510  126.1680   61.4110 C   0  0  0  0  0  0  0  0  0  0  0  0
  129.0370  126.1020   62.1330 C   0  0  0  0  0  0  0  0  0  0  0  0
  129.4840  127.2060   62.8530 C   0  0  0  0  0  0  0  0  0  0  0  0
  128.7380  128.3810   62.8470 C   0  0  0  0  0  0  0  0  0  0  0  0
  127.3990  130.8770   61.7720 N   0  0  0  0  0  0  0  0  0  0  0  0
  126.7080  132.0160   61.7590 C   0  0  0  0  0  0  0  0  0  0  0  0
  127.4480  133.5440   61.3420 S   0  0  0  0  0  0  0  0  0  0  0  0
  125.9210  134.3960   61.5690 C   0  0  0  0  0  0  0  0  0  0  0  0
  125.8560  135.8460   61.4000 C   0  0  0  0  0  0  0  0  0  0  0  0
  124.8100  136.4690   61.5900 O   0  0  0  0  0  0  0  0  0  0  0  0
  126.9950  136.4430   60.9900 N   0  0  0  0  0  0  0  0  0  0  0  0
  127.1690  137.8800   60.7780 C   0  0  0  0  0  0  0  0  0  0  0  0
  125.9180  138.6940   61.0890 C   0  0  0  0  0  0  0  0  0  0  0  0
  125.7650  139.2770   62.3500 C   0  0  0  0  0  0  0  0  0  0  0  0
  124.6390  140.0470   62.6270 C   0  0  0  0  0  0  0  0  0  0  0  0
  123.6760  140.2410   61.6400 C   0  0  0  0  0  0  0  0  0  0  0  0
  123.8300  139.6760   60.3760 C   0  0  0  0  0  0  0  0  0  0  0  0
  124.9560  138.9070   60.0980 C   0  0  0  0  0  0  0  0  0  0  0  0
  124.9010  133.5170   61.9660 C   0  0  0  0  0  0  0  0  0  0  0  0
  123.6130  133.9110   62.2260 N   0  0  0  0  0  0  0  0  0  0  0  0
  125.3240  132.1460   62.0700 C   0  0  0  0  0  0  0  0  0  0  0  0
  1  2  1  0
  2  3  2  0
  3  4  1  0
  4  5  1  0
  5  6  2  0
  6  7  1  0
  7  8  2  0
  8  9  1  0
  9 10  2  0
  4 11  2  0
 11 12  1  0
 12 13  1  0
 13 14  1  0
 14 15  1  0
 15 16  2  0
 15 17  1  0
 17 18  1  0
 18 19  1  0
 19 20  2  0
 20 21  1  0
 21 22  2  0
 22 23  1  0
 23 24  2  0
 14 25  2  0
 25 26  1  0
 25 27  1  0
 27  2  1  0
 10  5  1  0
 27 12  2  0
 24 19  1  0
M  END
>  <Binding energies>  (61) 
[-8.23]

>  <Ligand effiencies>  (61) 
[-0.2743333333333334]

>  <Interactions>  (61) 
["V-A:TYR:539:CD1:4871, V-A:TYR:539:C:4865, V-A:TYR:539:CE1:4873, V-B:LEU:475:CD2:9230, V-A:ALA:541:CB:4890, V-B:GLY:454:CA:9020, V-B:PRO:482:CB:9297, V-B:HIS:383:CG:8361, V-B:ILE:369:CG2:8208, V-B:ILE:369:CD1:8210, V-A:VAL:344:CG1:2998, V-B:SER:385:CB:8380, V-A:TYR:539:CB:4869, V-B:LEU:373:CD1:8251, V-B:CYS:476:C:9235, V-B:THR:477:CA:9241, V-B:THR:477:CG2:9244, V-B:HIS:383:CB:8360, V-B:PRO:482:CG:9298, V-B:LEU:373:CD2:8252, V-A:GLU:543:CD:4906, V-B:GLU:543:CD:9880, V-B:ARG:545:CZ:9898, V-A:TYR:539:CG:4870, V-B:VAL:384:C:8368, V-B:SER:385:CA:8378, H-A:TYR:539:O:4866, V-B:SER:385:C:8376, H-B:SER:385:O:8377, V-B:GLY:453:C:9013, V-B:HIS:383:CA:8358, V-B:HIS:383:C:8356, V-B:GLY:453:CA:9015, V-B:THR:477:CB:9243"]

$$$$
4dj_Grossjean_2025
     RDKit          3D

 25 28  0  0  0  0  0  0  0  0999 V2000
  134.1420  123.6740   59.9800 C   0  0  0  0  0  0  0  0  0  0  0  0
  133.2060  122.7640   60.7630 C   0  0  0  0  0  0  0  0  0  0  0  0
  133.1140  121.4220   60.3750 C   0  0  0  0  0  0  0  0  0  0  0  0
  132.2700  120.5340   61.0530 C   0  0  0  0  0  0  0  0  0  0  0  0
  132.1550  119.0880   60.6630 C   0  0  0  0  0  0  0  0  0  0  0  0
  130.9020  118.4570   60.5970 C   0  0  0  0  0  0  0  0  0  0  0  0
  130.7870  117.1170   60.2370 C   0  0  0  0  0  0  0  0  0  0  0  0
  131.9320  116.3830   59.9400 C   0  0  0  0  0  0  0  0  0  0  0  0
  133.1860  116.9810   60.0010 C   0  0  0  0  0  0  0  0  0  0  0  0
  133.2950  118.3210   60.3610 C   0  0  0  0  0  0  0  0  0  0  0  0
  131.5210  120.9270   62.1190 N   0  0  0  0  0  0  0  0  0  0  0  0
  131.6070  122.2040   62.4890 C   0  0  0  0  0  0  0  0  0  0  0  0
  130.6940  122.8440   63.8360 S   0  0  0  0  0  0  0  0  0  0  0  0
  131.3830  124.4510   63.6010 C   0  0  0  0  0  0  0  0  0  0  0  0
  130.9920  125.5590   64.4730 C   0  0  0  0  0  0  0  0  0  0  0  0
  130.4750  126.5780   64.0060 O   0  0  0  0  0  0  0  0  0  0  0  0
  131.2450  125.3800   65.7930 N   0  0  0  0  0  0  0  0  0  0  0  0
  130.9770  126.2700   66.8230 C   0  0  0  0  0  0  0  0  0  0  0  0
  131.7880  127.1590   67.3560 N   0  0  0  0  0  0  0  0  0  0  0  0
  131.1980  127.8390   68.3180 C   0  0  0  0  0  0  0  0  0  0  0  0
  129.8730  127.5070   68.5840 C   0  0  0  0  0  0  0  0  0  0  0  0
  129.3840  126.2320   67.5090 S   0  0  0  0  0  0  0  0  0  0  0  0
  132.2750  124.4650   62.5170 C   0  0  0  0  0  0  0  0  0  0  0  0
  132.9550  125.5830   62.1030 N   0  0  0  0  0  0  0  0  0  0  0  0
  132.4230  123.1910   61.8660 C   0  0  0  0  0  0  0  0  0  0  0  0
  1  2  1  0
  2  3  2  0
  3  4  1  0
  4  5  1  0
  5  6  2  0
  6  7  1  0
  7  8  2  0
  8  9  1  0
  9 10  2  0
  4 11  2  0
 11 12  1  0
 12 13  1  0
 13 14  1  0
 14 15  1  0
 15 16  2  0
 15 17  1  0
 17 18  1  0
 18 19  2  0
 19 20  1  0
 20 21  2  0
 21 22  1  0
 14 23  2  0
 23 24  1  0
 23 25  1  0
 25  2  1  0
 10  5  1  0
 25 12  2  0
 22 18  1  0
M  END
>  <Binding energies>  (62) 
[-7.45]

>  <Ligand effiencies>  (62) 
[-0.26607142857142857]

>  <Interactions>  (62) 
["H-A:ASP:366:OD2:3212, V-B:TYR:539:CE1:9847, V-B:ALA:541:CB:9864, V-B:TYR:539:CD1:9845, V-B:TYR:539:CG:9844, V-A:LEU:475:CD2:4256, V-A:GLU:543:CD:4906, V-A:ASP:366:CG:3210, V-B:GLU:543:CD:9880, V-A:SER:385:CA:3404, V-A:ARG:545:CZ:4924, V-A:ILE:369:CG2:3234, V-A:PRO:482:CG:4324, V-B:TYR:539:CB:9843, V-A:PRO:482:CB:4323, V-A:SER:385:CB:3406, V-A:LEU:373:CD1:3277, V-B:VAL:344:CG1:7972, H-A:ARG:545:NH2:4926, V-B:GLU:543:CB:9878, V-B:GLU:543:CG:9879, V-A:ILE:369:CD1:3236, V-A:ILE:369:CB:3233, H-A:ARG:545:NE:4922, H-A:TYR:484:OH:4345, H-A:ASP:366:OD1:3211, V-A:HIS:456:CE1:4066, V-A:ILE:369:CG1:3235, V-A:ARG:545:CG:4920, V-A:GLU:543:CB:4904, V-A:GLU:543:CG:4905, V-A:VAL:384:C:3394, V-A:GLU:543:C:4900"]

$$$$
4ea_Grossjean_2025
     RDKit          3D

 31 34  0  0  0  0  0  0  0  0999 V2000
  126.5250  140.4110   59.0470 C   0  0  0  0  0  0  0  0  0  0  0  0
  125.2030  139.6390   59.0620 C   0  0  0  0  0  0  0  0  0  0  0  0
  124.4030  140.0920   60.1460 O   0  0  0  0  0  0  0  0  0  0  0  0
  124.4980  139.5220   61.3750 C   0  0  0  0  0  0  0  0  0  0  0  0
  123.9960  140.0110   62.3920 O   0  0  0  0  0  0  0  0  0  0  0  0
  125.2750  138.2370   61.3740 C   0  0  0  0  0  0  0  0  0  0  0  0
  124.5810  137.0200   61.3520 C   0  0  0  0  0  0  0  0  0  0  0  0
  125.2720  135.8110   61.3500 C   0  0  0  0  0  0  0  0  0  0  0  0
  126.6670  135.7930   61.3710 C   0  0  0  0  0  0  0  0  0  0  0  0
  127.2570  134.5140   61.3670 N   0  0  0  0  0  0  0  0  0  0  0  0
  126.8840  133.3730   61.9980 C   0  0  0  0  0  0  0  0  0  0  0  0
  125.8960  133.2740   62.7260 O   0  0  0  0  0  0  0  0  0  0  0  0
  127.7510  132.2160   61.7590 C   0  0  0  0  0  0  0  0  0  0  0  0
  127.6530  130.7950   62.8020 S   0  0  0  0  0  0  0  0  0  0  0  0
  128.9070  129.9820   61.8950 C   0  0  0  0  0  0  0  0  0  0  0  0
  129.3270  128.7570   62.2140 N   0  0  0  0  0  0  0  0  0  0  0  0
  130.3050  128.2390   61.4310 C   0  0  0  0  0  0  0  0  0  0  0  0
  130.7670  126.8450   61.8130 C   0  0  0  0  0  0  0  0  0  0  0  0
  130.8670  128.9100   60.3480 C   0  0  0  0  0  0  0  0  0  0  0  0
  130.4240  130.1950   60.0160 C   0  0  0  0  0  0  0  0  0  0  0  0
  131.0310  130.8950   58.8620 C   0  0  0  0  0  0  0  0  0  0  0  0
  132.3280  131.4090   58.9540 C   0  0  0  0  0  0  0  0  0  0  0  0
  132.9010  132.0660   57.8690 C   0  0  0  0  0  0  0  0  0  0  0  0
  132.1740  132.2120   56.6900 C   0  0  0  0  0  0  0  0  0  0  0  0
  130.8790  131.7080   56.5880 C   0  0  0  0  0  0  0  0  0  0  0  0
  130.3080  131.0510   57.6750 C   0  0  0  0  0  0  0  0  0  0  0  0
  129.3980  130.7740   60.8130 C   0  0  0  0  0  0  0  0  0  0  0  0
  128.7220  132.0440   60.7590 C   0  0  0  0  0  0  0  0  0  0  0  0
  129.0130  132.9880   59.8080 N   0  0  0  0  0  0  0  0  0  0  0  0
  127.3700  137.0080   61.3940 C   0  0  0  0  0  0  0  0  0  0  0  0
  126.6770  138.2150   61.3950 C   0  0  0  0  0  0  0  0  0  0  0  0
  1  2  1  0
  2  3  1  0
  3  4  1  0
  4  5  2  0
  4  6  1  0
  6  7  2  0
  7  8  1  0
  8  9  2  0
  9 10  1  0
 10 11  1  0
 11 12  2  0
 11 13  1  0
 13 14  1  0
 14 15  1  0
 15 16  2  0
 16 17  1  0
 17 18  1  0
 17 19  2  0
 19 20  1  0
 20 21  1  0
 21 22  2  0
 22 23  1  0
 23 24  2  0
 24 25  1  0
 25 26  2  0
 20 27  2  0
 27 28  1  0
 28 29  1  0
  9 30  1  0
 30 31  2  0
 31  6  1  0
 28 13  2  0
 27 15  1  0
 26 21  1  0
M  END
>  <Binding energies>  (63) 
[-8.67]

>  <Ligand effiencies>  (63) 
[-0.255]

>  <Interactions>  (63) 
["V-A:ILE:538:CB:4860, V-A:TYR:539:CD1:4871, V-A:TYR:539:C:4865, V-A:ILE:538:CG2:4861, V-A:PRO:540:CB:4883, V-A:TYR:539:CE1:4873, V-B:LEU:475:CD2:9230, V-A:PRO:540:CA:4881, V-A:LEU:363:CD1:3186, V-A:ALA:541:CB:4890, V-B:HIS:383:CD2:8363, V-A:ILE:343:CD1:2991, V-B:PRO:482:CB:9297, V-A:ILE:343:CG1:2990, V-B:HIS:383:CG:8361, V-B:HIS:383:CE1:8365, V-A:VAL:344:CG1:2998, V-B:SER:385:CB:8380, V-A:TYR:539:CB:4869, V-B:LEU:373:CD1:8251, V-B:HIS:383:CB:8360, V-B:PRO:482:CG:9298, V-B:LEU:373:CD2:8252, V-A:PRO:540:CD:4885, V-A:GLU:543:CD:4906, V-A:PRO:540:N:4882, V-A:ASP:366:CG:3210, V-A:MET:535:CE:4833, V-B:LEU:373:CG:8250, V-B:SER:385:CA:8378, H-A:TYR:539:O:4866, H-B:SER:385:N:8379, V-A:PRO:540:CG:4884, H-B:SER:385:OG:8381"]

$$$$
4eb_Grossjean_2025
     RDKit          3D

 30 33  0  0  0  0  0  0  0  0999 V2000
  125.2610  139.8590   59.1000 C   0  0  0  0  0  0  0  0  0  0  0  0
  124.2950  140.0400   60.1250 O   0  0  0  0  0  0  0  0  0  0  0  0
  124.4920  139.5310   61.3690 C   0  0  0  0  0  0  0  0  0  0  0  0
  124.0700  140.0670   62.3980 O   0  0  0  0  0  0  0  0  0  0  0  0
  125.2760  138.2500   61.3680 C   0  0  0  0  0  0  0  0  0  0  0  0
  124.5900  137.0290   61.3680 C   0  0  0  0  0  0  0  0  0  0  0  0
  125.2870  135.8250   61.3670 C   0  0  0  0  0  0  0  0  0  0  0  0
  126.6830  135.8150   61.3670 C   0  0  0  0  0  0  0  0  0  0  0  0
  127.2810  134.5400   61.3660 N   0  0  0  0  0  0  0  0  0  0  0  0
  126.9930  133.4340   62.0950 C   0  0  0  0  0  0  0  0  0  0  0  0
  126.0940  133.3720   62.9350 O   0  0  0  0  0  0  0  0  0  0  0  0
  127.8380  132.2690   61.8240 C   0  0  0  0  0  0  0  0  0  0  0  0
  127.7440  130.8390   62.8550 S   0  0  0  0  0  0  0  0  0  0  0  0
  128.9650  130.0180   61.9110 C   0  0  0  0  0  0  0  0  0  0  0  0
  129.3750  128.7840   62.2090 N   0  0  0  0  0  0  0  0  0  0  0  0
  130.3260  128.2600   61.3990 C   0  0  0  0  0  0  0  0  0  0  0  0
  130.7780  126.8550   61.7560 C   0  0  0  0  0  0  0  0  0  0  0  0
  130.8730  128.9330   60.3080 C   0  0  0  0  0  0  0  0  0  0  0  0
  130.4400  130.2280   60.0000 C   0  0  0  0  0  0  0  0  0  0  0  0
  131.0300  130.9320   58.8370 C   0  0  0  0  0  0  0  0  0  0  0  0
  130.2730  131.1320   57.6790 C   0  0  0  0  0  0  0  0  0  0  0  0
  130.8260  131.7950   56.5860 C   0  0  0  0  0  0  0  0  0  0  0  0
  132.1390  132.2550   56.6520 C   0  0  0  0  0  0  0  0  0  0  0  0
  132.9030  132.0580   57.8010 C   0  0  0  0  0  0  0  0  0  0  0  0
  132.3480  131.3950   58.8920 C   0  0  0  0  0  0  0  0  0  0  0  0
  129.4420  130.8130   60.8260 C   0  0  0  0  0  0  0  0  0  0  0  0
  128.7820  132.0920   60.8010 C   0  0  0  0  0  0  0  0  0  0  0  0
  129.0640  133.0430   59.8520 N   0  0  0  0  0  0  0  0  0  0  0  0
  127.3790  137.0330   61.3670 C   0  0  0  0  0  0  0  0  0  0  0  0
  126.6790  138.2370   61.3680 C   0  0  0  0  0  0  0  0  0  0  0  0
  1  2  1  0
  2  3  1  0
  3  4  2  0
  3  5  1  0
  5  6  2  0
  6  7  1  0
  7  8  2  0
  8  9  1  0
  9 10  1  0
 10 11  2  0
 10 12  1  0
 12 13  1  0
 13 14  1  0
 14 15  2  0
 15 16  1  0
 16 17  1  0
 16 18  2  0
 18 19  1  0
 19 20  1  0
 20 21  2  0
 21 22  1  0
 22 23  2  0
 23 24  1  0
 24 25  2  0
 19 26  2  0
 26 27  1  0
 27 28  1  0
  8 29  1  0
 29 30  2  0
 30  5  1  0
 27 12  2  0
 26 14  1  0
 25 20  1  0
M  END
>  <Binding energies>  (64) 
[-8.43]

>  <Ligand effiencies>  (64) 
[-0.25545454545454543]

>  <Interactions>  (64) 
["V-A:ILE:538:CB:4860, V-A:TYR:539:CD1:4871, V-A:TYR:539:C:4865, V-A:ILE:538:CG2:4861, V-A:PRO:540:CB:4883, V-A:TYR:539:CE1:4873, V-B:LEU:475:CD2:9230, V-A:PRO:540:CA:4881, V-A:LEU:363:CD1:3186, V-A:ALA:541:CB:4890, V-B:HIS:383:CD2:8363, V-A:ILE:343:CD1:2991, V-B:PRO:482:CB:9297, V-B:HIS:383:CG:8361, V-B:SER:385:CB:8380, V-A:TYR:539:CB:4869, V-B:LEU:373:CD1:8251, V-B:HIS:383:CB:8360, V-B:PRO:482:CG:9298, V-B:LEU:373:CD2:8252, V-A:PRO:540:CD:4885, V-A:GLU:543:CD:4906, V-A:PRO:540:N:4882, V-A:ASP:366:CG:3210, V-A:MET:535:CE:4833, V-B:SER:385:CA:8378, H-A:TYR:539:O:4866, V-A:PRO:540:CG:4884"]

$$$$
8b_Ghoteimi_2023
     RDKit          3D

 34 38  0  0  0  0  0  0  0  0999 V2000
  125.2360  139.5800   61.9250 C   0  0  0  0  0  0  0  0  0  0  0  0
  124.4310  138.4260   61.7080 O   0  0  0  0  0  0  0  0  0  0  0  0
  125.0390  137.1900   61.6060 C   0  0  0  0  0  0  0  0  0  0  0  0
  126.4280  137.1670   61.7220 C   0  0  0  0  0  0  0  0  0  0  0  0
  127.1260  135.9680   61.6310 C   0  0  0  0  0  0  0  0  0  0  0  0
  126.4520  134.7560   61.4220 C   0  0  0  0  0  0  0  0  0  0  0  0
  127.1980  133.4630   61.3220 C   0  0  0  0  0  0  0  0  0  0  0  0
  128.2660  133.2950   60.4340 C   0  0  0  0  0  0  0  0  0  0  0  0
  128.9480  132.0770   60.3600 C   0  0  0  0  0  0  0  0  0  0  0  0
  130.0680  131.9290   59.4020 C   0  0  0  0  0  0  0  0  0  0  0  0
  131.3530  131.6400   59.8630 C   0  0  0  0  0  0  0  0  0  0  0  0
  132.4030  131.4920   58.9610 C   0  0  0  0  0  0  0  0  0  0  0  0
  132.1860  131.6330   57.5890 C   0  0  0  0  0  0  0  0  0  0  0  0
  133.2860  131.4680   56.7700 O   0  0  0  0  0  0  0  0  0  0  0  0
  134.3590  130.6400   57.2060 C   0  0  0  0  0  0  0  0  0  0  0  0
  130.8930  131.9280   57.1300 C   0  0  0  0  0  0  0  0  0  0  0  0
  129.8440  132.0750   58.0330 C   0  0  0  0  0  0  0  0  0  0  0  0
  128.5280  131.0230   61.2160 C   0  0  0  0  0  0  0  0  0  0  0  0
  128.9950  129.6740   61.4050 C   0  0  0  0  0  0  0  0  0  0  0  0
  130.0450  129.1540   60.6920 N   0  0  0  0  0  0  0  0  0  0  0  0
  128.2800  128.9570   62.3770 C   0  0  0  0  0  0  0  0  0  0  0  0
  128.4840  127.5770   62.8240 C   0  0  0  0  0  0  0  0  0  0  0  0
  127.5590  126.7620   62.7900 O   0  0  0  0  0  0  0  0  0  0  0  0
  129.7340  127.2870   63.2650 N   0  0  0  0  0  0  0  0  0  0  0  0
  130.2020  126.0690   63.7390 C   0  0  0  0  0  0  0  0  0  0  0  0
  130.3610  124.9470   62.9270 C   0  0  0  0  0  0  0  0  0  0  0  0
  130.8330  123.9630   63.7650 C   0  0  0  0  0  0  0  0  0  0  0  0
  130.9550  124.4660   65.0150 O   0  0  0  0  0  0  0  0  0  0  0  0
  130.5540  125.8030   64.9870 N   0  0  0  0  0  0  0  0  0  0  0  0
  127.0040  129.9460   63.0880 S   0  0  0  0  0  0  0  0  0  0  0  0
  127.4340  131.3090   62.0820 C   0  0  0  0  0  0  0  0  0  0  0  0
  126.7820  132.4690   62.1510 N   0  0  0  0  0  0  0  0  0  0  0  0
  125.0560  134.7850   61.3090 C   0  0  0  0  0  0  0  0  0  0  0  0
  124.3540  135.9840   61.3980 C   0  0  0  0  0  0  0  0  0  0  0  0
  1  2  1  0
  2  3  1  0
  3  4  2  0
  4  5  1  0
  5  6  2  0
  6  7  1  0
  7  8  2  0
  8  9  1  0
  9 10  1  0
 10 11  2  0
 11 12  1  0
 12 13  2  0
 13 14  1  0
 14 15  1  0
 13 16  1  0
 16 17  2  0
  9 18  2  0
 18 19  1  0
 19 20  1  0
 19 21  2  0
 21 22  1  0
 22 23  2  0
 22 24  1  0
 24 25  1  0
 25 26  1  0
 26 27  2  0
 27 28  1  0
 28 29  1  0
 21 30  1  0
 30 31  1  0
 31 32  2  0
  6 33  1  0
 33 34  2  0
 34  3  1  0
 32  7  1  0
 17 10  1  0
 31 18  1  0
 29 25  2  0
M  END
>  <Binding energies>  (65) 
[-7.79]

>  <Ligand effiencies>  (65) 
[-0.21054054054054056]

>  <Interactions>  (65) 
["V-A:LEU:363:CA:3182, V-A:TYR:539:CD1:4871, V-A:TYR:531:CE2:4791, V-A:TYR:539:C:4865, H-A:ASP:366:OD2:3212, V-A:PRO:540:CB:4883, V-A:TYR:531:CZ:4792, V-A:TYR:539:CE1:4873, V-B:LEU:475:CD2:9230, V-A:PRO:540:CA:4881, H-A:TYR:531:OH:4793, V-A:LEU:363:CD1:3186, V-A:ALA:541:CB:4890, V-B:PRO:482:CB:9297, V-B:ILE:369:CG2:8208, V-B:SER:385:CB:8380, V-B:LEU:373:CD1:8251, V-B:PRO:482:CG:9298, V-A:GLU:543:CD:4906, V-A:PRO:540:N:4882, V-A:ASP:366:CG:3210, V-A:LEU:363:CB:3184, V-B:GLU:543:CD:9880, V-B:SER:385:CA:8378, V-B:SER:385:C:8376, V-A:ASP:366:CB:3209, H-B:ARG:545:NH2:9900, H-A:GLU:543:OE1:4907, H-A:GLU:543:OE2:4908, H-A:TYR:484:OH:4345, V-A:LEU:363:C:3180"]

$$$$
9d_Ghoteimi_2023
     RDKit          3D

 38 43  0  0  0  0  0  0  0  0999 V2000
  129.8590  126.5150   67.1620 C   0  0  0  0  0  0  0  0  0  0  0  0
  129.3820  127.8520   67.1870 O   0  0  0  0  0  0  0  0  0  0  0  0
  128.0680  128.1270   66.9810 C   0  0  0  0  0  0  0  0  0  0  0  0
  127.1510  127.6660   67.6660 O   0  0  0  0  0  0  0  0  0  0  0  0
  127.8420  129.0390   65.8380 C   0  0  0  0  0  0  0  0  0  0  0  0
  127.1650  130.6430   66.1150 S   0  0  0  0  0  0  0  0  0  0  0  0
  127.2560  131.0200   64.4110 C   0  0  0  0  0  0  0  0  0  0  0  0
  126.8860  132.2100   63.9390 N   0  0  0  0  0  0  0  0  0  0  0  0
  127.0120  132.4090   62.6010 C   0  0  0  0  0  0  0  0  0  0  0  0
  126.6160  133.7600   62.0970 C   0  0  0  0  0  0  0  0  0  0  0  0
  125.3150  133.9930   61.6390 C   0  0  0  0  0  0  0  0  0  0  0  0
  124.9360  135.2460   61.1660 C   0  0  0  0  0  0  0  0  0  0  0  0
  125.8430  136.3170   61.1450 C   0  0  0  0  0  0  0  0  0  0  0  0
  125.4820  137.5780   60.6560 N   0  0  0  0  0  0  0  0  0  0  0  0
  124.4570  138.3990   61.3310 C   0  0  0  0  0  0  0  0  0  0  0  0
  123.9410  139.5780   60.4800 C   0  0  0  0  0  0  0  0  0  0  0  0
  125.0300  140.3770   60.0480 O   0  0  0  0  0  0  0  0  0  0  0  0
  125.9360  139.6330   59.2510 C   0  0  0  0  0  0  0  0  0  0  0  0
  126.5140  138.4540   60.0620 C   0  0  0  0  0  0  0  0  0  0  0  0
  127.1500  136.0740   61.5910 C   0  0  0  0  0  0  0  0  0  0  0  0
  127.5290  134.8200   62.0610 C   0  0  0  0  0  0  0  0  0  0  0  0
  127.4740  131.4110   61.7380 C   0  0  0  0  0  0  0  0  0  0  0  0
  127.8450  130.1530   62.2270 C   0  0  0  0  0  0  0  0  0  0  0  0
  128.3030  129.1190   61.2630 C   0  0  0  0  0  0  0  0  0  0  0  0
  127.5280  127.9840   61.0130 C   0  0  0  0  0  0  0  0  0  0  0  0
  127.9530  127.0270   60.0940 C   0  0  0  0  0  0  0  0  0  0  0  0
  129.1560  127.1880   59.3900 C   0  0  0  0  0  0  0  0  0  0  0  0
  129.6080  126.2390   58.4710 N   0  0  0  0  0  0  0  0  0  0  0  0
  130.7200  126.5890   57.5650 C   0  0  0  0  0  0  0  0  0  0  0  0
  131.3680  125.3600   56.8940 C   0  0  0  0  0  0  0  0  0  0  0  0
  130.3810  124.5990   56.2140 O   0  0  0  0  0  0  0  0  0  0  0  0
  129.3730  124.1360   57.1010 C   0  0  0  0  0  0  0  0  0  0  0  0
  128.6730  125.3360   57.7730 C   0  0  0  0  0  0  0  0  0  0  0  0
  129.9270  128.3310   59.6500 C   0  0  0  0  0  0  0  0  0  0  0  0
  129.5030  129.2860   60.5690 C   0  0  0  0  0  0  0  0  0  0  0  0
  127.7610  129.9380   63.6310 C   0  0  0  0  0  0  0  0  0  0  0  0
  128.1050  128.8260   64.4790 C   0  0  0  0  0  0  0  0  0  0  0  0
  128.6630  127.6690   64.0000 N   0  0  0  0  0  0  0  0  0  0  0  0
  1  2  1  0
  2  3  1  0
  3  4  2  0
  3  5  1  0
  5  6  1  0
  6  7  1  0
  7  8  2  0
  8  9  1  0
  9 10  1  0
 10 11  2  0
 11 12  1  0
 12 13  2  0
 13 14  1  0
 14 15  1  0
 15 16  1  0
 16 17  1  0
 17 18  1  0
 18 19  1  0
 13 20  1  0
 20 21  2  0
  9 22  2  0
 22 23  1  0
 23 24  1  0
 24 25  2  0
 25 26  1  0
 26 27  2  0
 27 28  1  0
 28 29  1  0
 29 30  1  0
 30 31  1  0
 31 32  1  0
 32 33  1  0
 27 34  1  0
 34 35  2  0
 23 36  2  0
 36 37  1  0
 37 38  1  0
 37  5  2  0
 36  7  1  0
 21 10  1  0
 35 24  1  0
 19 14  1  0
 33 28  1  0
M  END
>  <Binding energies>  (66) 
[-6.51]

>  <Ligand effiencies>  (66) 
[-0.16275]

>  <Interactions>  (66) 
["V-A:TYR:539:CD1:4871, V-A:TYR:539:CE1:4873, V-B:LEU:475:CD2:9230, V-A:ALA:541:CB:4890, V-B:TYR:539:CE1:9847, V-B:TYR:539:CZ:9849, V-B:HIS:383:CD2:8363, V-A:ILE:343:CD1:2991, V-B:PRO:482:CB:9297, V-B:HIS:383:CG:8361, V-B:ILE:369:CG2:8208, V-A:VAL:344:CG1:2998, V-B:SER:385:CB:8380, V-A:TYR:539:CB:4869, V-B:LEU:373:CD1:8251, V-B:HIS:383:CB:8360, V-B:PRO:482:CG:9298, V-B:LEU:373:CD2:8252, V-A:GLU:543:CD:4906, V-B:GLU:543:CD:9880, V-A:TYR:539:CG:4870, V-B:VAL:384:C:8368, V-B:SER:385:CA:8378, H-B:TYR:539:OH:9850, V-B:GLU:543:CB:9878, V-B:GLU:543:CG:9879, H-B:GLU:543:OE1:9881, H-B:GLU:543:OE2:9882, H-A:GLU:543:OE1:4907, H-A:GLU:543:OE2:4908, H-B:TYR:484:OH:9319, V-A:HIS:456:CE1:4066, V-B:TYR:484:CE2:9317, V-B:TYR:484:CZ:9318, V-A:GLU:543:CB:4904, V-A:GLU:543:CG:4905, V-B:HIS:456:CE1:9040, V-B:HIS:383:CA:8358, V-B:HIS:383:C:8356, H-B:HIS:383:ND1:8362"]

$$$$
RR10_Rahimova_2017
     RDKit          3D

 34 38  0  0  0  0  0  0  0  0999 V2000
  127.7850  122.7960   54.9860 C   0  0  0  0  0  0  0  0  0  0  0  0
  127.0650  122.6140   56.3330 C   0  0  1  0  0  0  0  0  0  0  0  0
  127.9450  123.0640   57.5220 C   0  0  0  0  0  0  0  0  0  0  0  0
  127.2160  122.8400   58.8670 C   0  0  0  0  0  0  0  0  0  0  0  0
  125.8590  123.5880   58.9270 C   0  0  1  0  0  0  0  0  0  0  0  0
  126.0660  125.0410   58.9630 N   0  0  0  0  0  0  0  0  0  0  0  0
  127.0240  125.6750   59.6650 C   0  0  0  0  0  0  0  0  0  0  0  0
  127.8590  125.0810   60.3500 O   0  0  0  0  0  0  0  0  0  0  0  0
  127.0320  127.2170   59.5930 C   0  0  1  0  0  0  0  0  0  0  0  0
  126.2550  127.6770   58.3320 C   0  0  0  0  0  0  0  0  0  0  0  0
  126.1810  129.2220   58.3050 C   0  0  0  0  0  0  0  0  0  0  0  0
  125.6400  129.8130   59.6270 C   0  0  0  0  0  0  0  0  0  0  0  0
  126.3950  129.2740   60.7910 N   0  0  0  0  0  0  0  0  0  0  0  0
  126.0660  130.0980   62.3240 S   0  0  0  0  0  0  0  0  0  0  0  0
  126.9690  129.5480   63.3420 O   0  0  0  0  0  0  0  0  0  0  0  0
  124.6130  130.0860   62.5400 O   0  0  0  0  0  0  0  0  0  0  0  0
  126.5680  131.7990   62.0560 C   0  0  0  0  0  0  0  0  0  0  0  0
  127.9300  132.1160   62.0410 C   0  0  0  0  0  0  0  0  0  0  0  0
  128.3860  133.4220   61.8400 C   0  0  0  0  0  0  0  0  0  0  0  0
  127.4100  134.4020   61.6490 C   0  0  0  0  0  0  0  0  0  0  0  0
  127.4520  135.7590   61.4320 N   0  0  0  0  0  0  0  0  0  0  0  0
  126.1530  136.2110   61.3180 C   0  0  0  0  0  0  0  0  0  0  0  0
  125.7920  137.6500   61.0850 C   0  0  0  0  0  0  0  0  0  0  0  0
  124.4900  138.1040   61.3330 C   0  0  0  0  0  0  0  0  0  0  0  0
  124.1540  139.4390   61.1200 C   0  0  0  0  0  0  0  0  0  0  0  0
  125.1210  140.3280   60.6570 C   0  0  0  0  0  0  0  0  0  0  0  0
  126.4190  139.8930   60.4060 C   0  0  0  0  0  0  0  0  0  0  0  0
  126.7540  138.5580   60.6190 C   0  0  0  0  0  0  0  0  0  0  0  0
  125.2800  135.2370   61.4410 N   0  0  0  0  0  0  0  0  0  0  0  0
  126.0250  134.1060   61.6500 C   0  0  0  0  0  0  0  0  0  0  0  0
  125.5970  132.7870   61.8520 C   0  0  0  0  0  0  0  0  0  0  0  0
  126.3770  127.7910   60.8730 C   0  0  0  0  0  0  0  0  0  0  0  0
  124.9930  123.1390   57.7180 C   0  0  0  0  0  0  0  0  0  0  0  0
  125.7150  123.3690   56.3720 C   0  0  0  0  0  0  0  0  0  0  0  0
  2  1  1  6
  2  3  1  0
  3  4  1  0
  4  5  1  0
  5  6  1  6
  6  7  1  0
  7  8  2  0
  9  7  1  1
  9 10  1  0
 10 11  1  0
 11 12  1  0
 12 13  1  0
 13 14  1  0
 14 15  2  0
 14 16  2  0
 14 17  1  0
 17 18  2  0
 18 19  1  0
 19 20  2  0
 20 21  1  0
 21 22  1  0
 22 23  1  0
 23 24  2  0
 24 25  1  0
 25 26  2  0
 26 27  1  0
 27 28  2  0
 22 29  2  0
 29 30  1  0
 30 31  2  0
 13 32  1  0
  5 33  1  0
 33 34  1  0
 34  2  1  0
 32  9  1  0
 31 17  1  0
 30 20  1  0
 28 23  1  0
M  END
>  <Binding energies>  (67) 
[-11.23]

>  <Ligand effiencies>  (67) 
[-0.31194444444444447]

>  <Interactions>  (67) 
["V-A:TYR:539:CD1:4871, V-A:TYR:539:C:4865, V-A:ALA:541:CA:4888, V-A:TYR:539:CE1:4873, V-B:LEU:475:CD2:9230, V-A:ALA:541:CB:4890, V-B:ILE:538:CB:9834, V-B:PRO:540:N:9856, V-B:PRO:540:CA:9855, H-B:ASP:366:OD2:8186, V-B:TYR:539:C:9839, H-B:TYR:531:OH:9767, V-B:PRO:540:CB:9857, V-B:LEU:363:CD1:8160, V-B:ILE:538:CG2:9835, V-B:HIS:383:CD2:8363, V-B:HIS:383:CG:8361, V-A:VAL:344:CG1:2998, V-B:SER:385:CB:8380, V-A:TYR:539:CB:4869, V-B:LEU:373:CD1:8251, V-B:HIS:383:CB:8360, V-B:PRO:482:CG:9298, V-B:ILE:538:CA:9832, V-B:MET:535:CE:9807, V-B:ASP:366:CB:8183, V-B:PRO:540:CD:9859, V-B:ASP:366:CG:8184, V-B:VAL:384:C:8368, V-B:SER:385:CA:8378, V-B:ILE:538:C:9830, H-A:TYR:539:O:4866, H-B:ARG:545:NH2:9900"]

$$$$
RR12_Rahimova_2017
     RDKit          3D

 26 28  0  0  0  0  0  0  0  0999 V2000
  124.1230  132.6690   62.3110 C   0  0  0  0  0  0  0  0  0  0  0  0
  124.3640  133.7730   61.2740 C   0  0  0  0  0  0  0  0  0  0  0  0
  124.1580  135.1850   61.8530 C   0  0  0  0  0  0  0  0  0  0  0  0
  125.2880  136.0500   61.5230 N   0  0  0  0  0  0  0  0  0  0  0  0
  126.6380  135.7450   61.6080 C   0  0  0  0  0  0  0  0  0  0  0  0
  127.1770  134.4220   62.1240 C   0  0  0  0  0  0  0  0  0  0  0  0
  128.0090  133.6750   61.0650 C   0  0  0  0  0  0  0  0  0  0  0  0
  127.9100  132.1440   61.2020 C   0  0  0  0  0  0  0  0  0  0  0  0
  129.1040  131.4320   60.7470 N   0  0  0  0  0  0  0  0  0  0  0  0
  130.3110  131.4940   61.3390 C   0  0  0  0  0  0  0  0  0  0  0  0
  130.5380  132.1730   62.3420 O   0  0  0  0  0  0  0  0  0  0  0  0
  131.4130  130.6500   60.6860 C   0  0  0  0  0  0  0  0  0  0  0  0
  131.0120  130.2800   59.3660 O   0  0  0  0  0  0  0  0  0  0  0  0
  131.2830  131.1330   58.3120 C   0  0  0  0  0  0  0  0  0  0  0  0
  130.1770  131.6640   57.6440 C   0  0  0  0  0  0  0  0  0  0  0  0
  130.3490  132.5350   56.5720 C   0  0  0  0  0  0  0  0  0  0  0  0
  131.6350  132.8790   56.1640 C   0  0  0  0  0  0  0  0  0  0  0  0
  132.7490  132.3570   56.8170 C   0  0  0  0  0  0  0  0  0  0  0  0
  132.5750  131.4850   57.8890 C   0  0  0  0  0  0  0  0  0  0  0  0
  127.4170  136.7220   61.2150 N   0  0  0  0  0  0  0  0  0  0  0  0
  126.5630  137.7170   60.8240 C   0  0  0  0  0  0  0  0  0  0  0  0
  126.8640  138.9850   60.3050 C   0  0  0  0  0  0  0  0  0  0  0  0
  125.8030  139.8270   59.9720 C   0  0  0  0  0  0  0  0  0  0  0  0
  124.4780  139.4270   60.1470 C   0  0  0  0  0  0  0  0  0  0  0  0
  124.1460  138.1730   60.6630 C   0  0  0  0  0  0  0  0  0  0  0  0
  125.2120  137.3280   60.9980 C   0  0  0  0  0  0  0  0  0  0  0  0
  1  2  1  0
  2  3  1  0
  3  4  1  0
  4  5  1  0
  5  6  1  0
  6  7  1  0
  7  8  1  0
  8  9  1  0
  9 10  1  0
 10 11  2  0
 10 12  1  0
 12 13  1  0
 13 14  1  0
 14 15  2  0
 15 16  1  0
 16 17  2  0
 17 18  1  0
 18 19  2  0
  5 20  2  0
 20 21  1  0
 21 22  2  0
 22 23  1  0
 23 24  2  0
 24 25  1  0
 25 26  2  0
 26  4  1  0
 19 14  1  0
 26 21  1  0
M  END
>  <Binding energies>  (68) 
[-7.97]

>  <Ligand effiencies>  (68) 
[-0.29518518518518516]

>  <Interactions>  (68) 
["V-A:ILE:538:CB:4860, V-A:TYR:539:CD1:4871, V-A:TYR:531:CE2:4791, V-A:TYR:539:C:4865, V-A:ILE:538:CG2:4861, V-A:PRO:540:CB:4883, V-A:TYR:539:CE1:4873, V-B:LEU:475:CD2:9230, V-A:PRO:540:CA:4881, V-A:LEU:363:CD1:3186, V-A:ALA:541:CB:4890, V-B:GLY:454:CA:9020, V-B:HIS:383:CD2:8363, V-B:HIS:383:CG:8361, V-B:ILE:369:CG2:8208, V-B:ILE:369:CD1:8210, V-A:VAL:344:CG1:2998, V-B:SER:385:CB:8380, V-A:TYR:539:CB:4869, V-B:LEU:373:CD1:8251, V-B:HIS:383:CB:8360, V-B:PRO:482:CG:9298, V-B:LEU:373:CD2:8252, V-A:ILE:538:CA:4858, V-A:PRO:540:CD:4885, V-A:PRO:540:N:4882, V-A:ILE:538:C:4856, V-B:VAL:384:C:8368, V-B:SER:385:CA:8378, V-B:SER:385:C:8376, H-A:ALA:541:N:4889"]

$$$$
RR13_Rahimova_2017
     RDKit          3D

 48 54  0  0  0  0  0  0  0  0999 V2000
  127.6830  123.5060   60.3550 Cl  0  0  0  0  0  0  0  0  0  0  0  0
  128.0460  123.4640   58.6630 C   0  0  0  0  0  0  0  0  0  0  0  0
  127.2140  122.7040   57.8380 C   0  0  0  0  0  0  0  0  0  0  0  0
  127.4660  122.6130   56.4720 C   0  0  0  0  0  0  0  0  0  0  0  0
  128.5560  123.2810   55.9200 C   0  0  0  0  0  0  0  0  0  0  0  0
  129.3900  124.0420   56.7370 C   0  0  0  0  0  0  0  0  0  0  0  0
  129.1460  124.1560   58.1160 C   0  0  0  0  0  0  0  0  0  0  0  0
  130.1000  124.9850   59.0030 C   0  0  1  0  0  0  0  0  0  0  0  0
  131.5670  124.7340   58.6210 C   0  0  0  0  0  0  0  0  0  0  0  0
  132.1830  125.1690   57.5440 N   0  0  0  0  0  0  0  0  0  0  0  0
  133.4800  124.6700   57.6200 N   0  0  0  0  0  0  0  0  0  0  0  0
  133.6280  123.9050   58.7600 N   0  0  0  0  0  0  0  0  0  0  0  0
  132.4280  123.9400   59.3480 N   0  0  0  0  0  0  0  0  0  0  0  0
  132.2100  123.2630   60.6210 C   0  0  0  0  0  0  0  0  0  0  0  0
  133.1780  122.0730   60.7660 C   0  0  0  0  0  0  0  0  0  0  0  0
  132.4450  120.7440   60.8530 C   0  0  0  0  0  0  0  0  0  0  0  0
  131.1160  120.7070   61.2830 C   0  0  0  0  0  0  0  0  0  0  0  0
  130.4480  119.4880   61.3700 C   0  0  0  0  0  0  0  0  0  0  0  0
  131.1110  118.3110   61.0280 C   0  0  0  0  0  0  0  0  0  0  0  0
  132.4360  118.3420   60.6000 C   0  0  0  0  0  0  0  0  0  0  0  0
  133.1050  119.5600   60.5120 C   0  0  0  0  0  0  0  0  0  0  0  0
  129.7660  126.4290   59.0410 N   0  0  0  0  0  0  0  0  0  0  0  0
  128.8500  126.7180   60.1600 C   0  0  0  0  0  0  0  0  0  0  0  0
  128.6020  128.2390   60.2880 C   0  0  0  0  0  0  0  0  0  0  0  0
  127.9790  128.7680   59.0630 N   0  0  0  0  0  0  0  0  0  0  0  0
  127.6480  130.2080   59.1720 C   0  0  1  0  0  0  0  0  0  0  0  0
  128.4110  131.1420   58.2070 C   0  0  0  0  0  0  0  0  0  0  0  0
  127.9270  131.2400   56.8950 C   0  0  0  0  0  0  0  0  0  0  0  0
  128.5420  132.0710   55.9600 C   0  0  0  0  0  0  0  0  0  0  0  0
  129.6600  132.8160   56.3240 C   0  0  0  0  0  0  0  0  0  0  0  0
  130.1670  132.7210   57.6160 C   0  0  0  0  0  0  0  0  0  0  0  0
  129.5600  131.8880   58.5600 C   0  0  0  0  0  0  0  0  0  0  0  0
  130.3060  131.7850   60.1190 Cl  0  0  0  0  0  0  0  0  0  0  0  0
  126.1450  130.4870   59.0960 C   0  0  0  0  0  0  0  0  0  0  0  0
  125.4100  130.4090   58.0110 N   0  0  0  0  0  0  0  0  0  0  0  0
  124.1140  130.7260   58.4040 N   0  0  0  0  0  0  0  0  0  0  0  0
  124.0800  130.9830   59.7590 N   0  0  0  0  0  0  0  0  0  0  0  0
  125.3420  130.8090   60.1690 N   0  0  0  0  0  0  0  0  0  0  0  0
  125.6900  131.0210   61.5700 C   0  0  0  0  0  0  0  0  0  0  0  0
  126.8120  132.0690   61.6920 C   0  0  0  0  0  0  0  0  0  0  0  0
  126.2880  133.4890   61.5510 C   0  0  0  0  0  0  0  0  0  0  0  0
  127.1810  134.5640   61.5300 C   0  0  0  0  0  0  0  0  0  0  0  0
  126.7020  135.8640   61.3940 C   0  0  0  0  0  0  0  0  0  0  0  0
  125.3300  136.0860   61.2800 C   0  0  0  0  0  0  0  0  0  0  0  0
  124.4350  135.0170   61.2990 C   0  0  0  0  0  0  0  0  0  0  0  0
  124.9130  133.7170   61.4340 C   0  0  0  0  0  0  0  0  0  0  0  0
  128.9000  128.4820   57.9480 C   0  0  0  0  0  0  0  0  0  0  0  0
  129.1350  126.9590   57.8200 C   0  0  0  0  0  0  0  0  0  0  0  0
  1  2  1  0
  2  3  2  0
  3  4  1  0
  4  5  2  0
  5  6  1  0
  6  7  2  0
  7  8  1  0
  8  9  1  0
  9 10  2  0
 10 11  1  0
 11 12  2  0
 12 13  1  0
 13 14  1  0
 14 15  1  0
 15 16  1  0
 16 17  2  0
 17 18  1  0
 18 19  2  0
 19 20  1  0
 20 21  2  0
  8 22  1  6
 22 23  1  0
 23 24  1  0
 24 25  1  0
 26 25  1  6
 26 27  1  0
 27 28  2  0
 28 29  1  0
 29 30  2  0
 30 31  1  0
 31 32  2  0
 32 33  1  0
 26 34  1  0
 34 35  2  0
 35 36  1  0
 36 37  2  0
 37 38  1  0
 38 39  1  0
 39 40  1  0
 40 41  1  0
 41 42  2  0
 42 43  1  0
 43 44  2  0
 44 45  1  0
 45 46  2  0
 25 47  1  0
 47 48  1  0
  7  2  1  0
 13  9  1  0
 21 16  1  0
 48 22  1  0
 32 27  1  0
 38 34  1  0
 46 41  1  0
M  END
>  <Binding energies>  (69) 
[-14.46]

>  <Ligand effiencies>  (69) 
[-0.30125]

>  <Interactions>  (69) 
["V-A:TYR:539:CD1:4871, V-A:TYR:539:C:4865, V-A:TYR:539:CZ:4875, V-A:TYR:539:CE1:4873, V-B:LEU:475:CD2:9230, V-A:PRO:540:CA:4881, V-A:ALA:541:CB:4890, V-B:PRO:540:N:9856, V-B:TYR:539:CE1:9847, V-B:PRO:540:CA:9855, V-B:ALA:541:CB:9864, V-B:TYR:539:CD1:9845, V-B:TYR:539:CZ:9849, V-B:TYR:539:C:9839, V-A:LEU:475:CD2:4256, V-B:ILE:369:CG2:8208, V-B:LEU:373:CD1:8251, V-A:ILE:538:CA:4858, V-A:TYR:539:CD2:4872, V-A:TYR:539:CE2:4874, V-A:PRO:540:N:4882, V-A:MET:535:CE:4833, V-B:TYR:539:CE2:9848, V-B:ILE:538:CA:9832, V-B:MET:535:CE:9807, V-B:TYR:539:CD2:9846, V-A:ILE:538:C:4856, V-B:SER:385:CA:8378, H-A:TYR:539:OH:4876, V-A:SER:385:CA:3404, H-B:TYR:539:OH:9850, V-A:ILE:369:CG2:3234, V-A:PRO:482:CG:4324, V-A:PRO:482:CB:4323, V-A:SER:385:CB:3406, V-A:LEU:373:CD1:3277, V-A:TYR:539:CA:4867"]

$$$$
RR14_Rahimova_2017
     RDKit          3D

 39 43  0  0  0  0  0  0  0  0999 V2000
  126.4450  129.8260   56.1370 C   0  0  0  0  0  0  0  0  0  0  0  0
  127.0980  128.6110   55.7860 O   0  0  0  0  0  0  0  0  0  0  0  0
  127.9330  128.0060   56.7060 C   0  0  0  0  0  0  0  0  0  0  0  0
  128.2810  128.7640   57.8240 C   0  0  0  0  0  0  0  0  0  0  0  0
  129.1370  128.2480   58.7910 C   0  0  0  0  0  0  0  0  0  0  0  0
  129.6610  126.9620   58.6450 C   0  0  0  0  0  0  0  0  0  0  0  0
  130.6510  126.4180   59.6680 C   0  0  0  0  0  0  0  0  0  0  0  0
  131.6530  125.5250   59.0870 N   0  0  0  0  0  0  0  0  0  0  0  0
  132.1220  125.7470   57.8540 N   0  0  0  0  0  0  0  0  0  0  0  0
  133.0090  124.7140   57.6240 N   0  0  0  0  0  0  0  0  0  0  0  0
  133.0580  123.8710   58.7300 N   0  0  0  0  0  0  0  0  0  0  0  0
  132.2210  124.3800   59.6030 C   0  0  0  0  0  0  0  0  0  0  0  0
  131.9130  123.7880   60.9710 C   0  0  0  0  0  0  0  0  0  0  0  0
  130.8090  122.8140   60.9270 N   0  0  0  0  0  0  0  0  0  0  0  0
  131.0700  121.6500   61.7830 C   0  0  0  0  0  0  0  0  0  0  0  0
  131.5920  120.4220   61.0050 C   0  0  0  0  0  0  0  0  0  0  0  0
  130.6290  119.2170   61.0310 C   0  0  0  0  0  0  0  0  0  0  0  0
  131.3040  117.9300   60.8330 N   0  0  0  0  0  0  0  0  0  0  0  0
  132.6970  118.1430   60.4200 C   0  0  0  0  0  0  0  0  0  0  0  0
  133.4220  116.8070   60.1520 C   0  0  0  0  0  0  0  0  0  0  0  0
  132.6900  116.0340   59.2060 O   0  0  0  0  0  0  0  0  0  0  0  0
  131.3760  115.7320   59.6580 C   0  0  0  0  0  0  0  0  0  0  0  0
  130.5880  117.0360   59.9090 C   0  0  0  0  0  0  0  0  0  0  0  0
  129.5470  123.4630   61.3100 C   0  0  0  0  0  0  0  0  0  0  0  0
  128.4200  123.3990   60.2820 C   0  0  0  0  0  0  0  0  0  0  0  0
  128.6870  123.3530   58.9540 C   0  0  0  0  0  0  0  0  0  0  0  0
  127.6150  123.3300   57.9370 C   0  0  0  0  0  0  0  0  0  0  0  0
  127.8560  123.2640   56.5540 C   0  0  0  0  0  0  0  0  0  0  0  0
  129.2700  123.2080   55.9910 C   0  0  0  0  0  0  0  0  0  0  0  0
  126.7690  123.2450   55.6760 C   0  0  0  0  0  0  0  0  0  0  0  0
  125.4620  123.2910   56.1590 C   0  0  0  0  0  0  0  0  0  0  0  0
  125.2130  123.3550   57.5330 C   0  0  0  0  0  0  0  0  0  0  0  0
  123.7740  123.4020   58.0300 C   0  0  0  0  0  0  0  0  0  0  0  0
  126.2970  123.3750   58.4240 C   0  0  0  0  0  0  0  0  0  0  0  0
  126.0940  123.4420   59.8190 N   0  0  0  0  0  0  0  0  0  0  0  0
  127.0450  123.4660   60.7860 C   0  0  0  0  0  0  0  0  0  0  0  0
  126.7250  123.5420   61.9730 O   0  0  0  0  0  0  0  0  0  0  0  0
  129.2960  126.1830   57.5450 C   0  0  0  0  0  0  0  0  0  0  0  0
  128.4400  126.7020   56.5770 C   0  0  0  0  0  0  0  0  0  0  0  0
  1  2  1  0
  2  3  1  0
  3  4  2  0
  4  5  1  0
  5  6  2  0
  6  7  1  0
  7  8  1  0
  8  9  1  0
  9 10  2  0
 10 11  1  0
 11 12  2  0
 12 13  1  0
 13 14  1  0
 14 15  1  0
 15 16  1  0
 16 17  1  0
 17 18  1  0
 18 19  1  0
 19 20  1  0
 20 21  1  0
 21 22  1  0
 22 23  1  0
 14 24  1  0
 24 25  1  0
 25 26  2  0
 26 27  1  0
 27 28  2  0
 28 29  1  0
 28 30  1  0
 30 31  2  0
 31 32  1  0
 32 33  1  0
 32 34  2  0
 34 35  1  0
 35 36  1  0
 36 37  2  0
  6 38  1  0
 38 39  2  0
 39  3  1  0
 12  8  1  0
 23 18  1  0
 36 25  1  0
 34 27  1  0
M  END
>  <Binding energies>  (70) 
[-10.98]

>  <Ligand effiencies>  (70) 
[-0.2745]

>  <Interactions>  (70) 
["V-B:ILE:538:CB:9834, V-B:PRO:540:N:9856, V-B:TYR:539:CE1:9847, V-B:LEU:363:CA:8156, V-B:PRO:540:CA:9855, H-B:ASP:366:OD2:8186, V-B:TYR:531:CE2:9765, V-B:TYR:539:CD1:9845, V-B:TYR:539:CZ:9849, V-B:TYR:539:CG:9844, H-B:TYR:531:OH:9767, V-B:PRO:540:CB:9857, V-B:LEU:363:CD1:8160, V-A:LEU:475:CD2:4256, V-B:ILE:538:CG2:9835, V-A:ASP:366:CG:3210, V-A:MET:535:CE:4833, V-B:TYR:539:CE2:9848, V-B:ILE:538:CA:9832, V-B:MET:535:CE:9807, V-B:PRO:540:CG:9858, V-B:TYR:539:CD2:9846, V-B:LEU:363:CB:8158, V-A:SER:385:CA:3404, H-B:TYR:539:OH:9850, V-A:PRO:482:CG:4324, V-B:TYR:539:CB:9843, V-A:SER:385:CB:3406, V-A:LEU:373:CD1:3277, V-B:VAL:344:CG1:7972, H-B:ALA:541:N:9863, V-B:TYR:531:CE1:9764, V-A:VAL:384:C:3394, V-B:LEU:363:CG:8159"]

$$$$
RR15_Rahimova_2017
     RDKit          3D

 45 49  0  0  0  0  0  0  0  0999 V2000
  126.5320  139.9920   59.5300 C   0  0  0  0  0  0  0  0  0  0  0  0
  126.5770  139.4130   60.8300 O   0  0  0  0  0  0  0  0  0  0  0  0
  126.1980  138.0930   61.0020 C   0  0  0  0  0  0  0  0  0  0  0  0
  127.1020  137.0520   61.2630 C   0  0  0  0  0  0  0  0  0  0  0  0
  126.6540  135.7430   61.4240 C   0  0  0  0  0  0  0  0  0  0  0  0
  125.2930  135.4350   61.3250 C   0  0  0  0  0  0  0  0  0  0  0  0
  124.8100  134.0210   61.4910 C   0  0  0  0  0  0  0  0  0  0  0  0
  124.0440  133.6350   62.5030 N   0  0  0  0  0  0  0  0  0  0  0  0
  123.8190  132.2860   62.3190 N   0  0  0  0  0  0  0  0  0  0  0  0
  124.4520  132.0150   61.1770 N   0  0  0  0  0  0  0  0  0  0  0  0
  124.6100  130.6480   60.6840 C   0  0  0  0  0  0  0  0  0  0  0  0
  124.6400  130.5130   59.1410 C   0  0  0  0  0  0  0  0  0  0  0  0
  123.6310  130.8330   58.5080 O   0  0  0  0  0  0  0  0  0  0  0  0
  125.7800  130.0780   58.5210 N   0  0  0  0  0  0  0  0  0  0  0  0
  125.7880  128.8470   57.7060 C   0  0  0  0  0  0  0  0  0  0  0  0
  126.3590  127.6190   58.4470 C   0  0  0  0  0  0  0  0  0  0  0  0
  127.1780  126.6500   57.5630 C   0  0  0  0  0  0  0  0  0  0  0  0
  126.9810  125.2360   57.8970 N   0  0  0  0  0  0  0  0  0  0  0  0
  125.7530  124.6630   57.3260 C   0  0  0  0  0  0  0  0  0  0  0  0
  125.6360  123.1540   57.6340 C   0  0  0  0  0  0  0  0  0  0  0  0
  126.8050  122.4720   57.1930 O   0  0  0  0  0  0  0  0  0  0  0  0
  127.9860  122.9550   57.8230 C   0  0  0  0  0  0  0  0  0  0  0  0
  128.1680  124.4580   57.5160 C   0  0  0  0  0  0  0  0  0  0  0  0
  127.0360  130.8850   58.4490 C   0  0  2  0  0  0  0  0  0  0  0  0
  127.4930  131.2220   56.9950 C   0  0  0  0  0  0  0  0  0  0  0  0
  126.8660  130.8100   56.0200 O   0  0  0  0  0  0  0  0  0  0  0  0
  128.5750  132.0140   56.8950 N   0  0  0  0  0  0  0  0  0  0  0  0
  129.1220  132.5420   55.6500 C   0  0  0  0  0  0  0  0  0  0  0  0
  130.6450  132.7440   55.7520 C   0  0  2  0  0  0  0  0  0  0  0  0
  131.4910  131.4680   55.5980 C   0  0  0  0  0  0  0  0  0  0  0  0
  131.8740  131.0950   57.0100 C   0  0  0  0  0  0  0  0  0  0  0  0
  132.0020  132.4630   57.6570 C   0  0  0  0  0  0  0  0  0  0  0  0
  130.9020  133.1720   57.0960 O   0  0  0  0  0  0  0  0  0  0  0  0
  128.0870  130.3330   59.4050 C   0  0  0  0  0  0  0  0  0  0  0  0
  127.9710  130.6440   60.7650 C   0  0  0  0  0  0  0  0  0  0  0  0
  128.9010  130.1680   61.6830 C   0  0  0  0  0  0  0  0  0  0  0  0
  129.9570  129.3720   61.2470 C   0  0  0  0  0  0  0  0  0  0  0  0
  130.8610  128.9080   62.1400 F   0  0  0  0  0  0  0  0  0  0  0  0
  130.0880  129.0500   59.8990 C   0  0  0  0  0  0  0  0  0  0  0  0
  129.1570  129.5280   58.9810 C   0  0  0  0  0  0  0  0  0  0  0  0
  125.1140  133.0510   60.6490 N   0  0  0  0  0  0  0  0  0  0  0  0
  124.3930  136.4760   61.0660 C   0  0  0  0  0  0  0  0  0  0  0  0
  124.8290  137.8030   60.9050 C   0  0  0  0  0  0  0  0  0  0  0  0
  123.9780  138.8650   60.6520 O   0  0  0  0  0  0  0  0  0  0  0  0
  123.8760  139.9250   61.5970 C   0  0  0  0  0  0  0  0  0  0  0  0
  1  2  1  0
  2  3  1  0
  3  4  2  0
  4  5  1  0
  5  6  2  0
  6  7  1  0
  7  8  1  0
  8  9  2  0
  9 10  1  0
 10 11  1  0
 11 12  1  0
 12 13  2  0
 12 14  1  0
 14 15  1  0
 15 16  1  0
 16 17  1  0
 17 18  1  0
 18 19  1  0
 19 20  1  0
 20 21  1  0
 21 22  1  0
 22 23  1  0
 24 14  1  6
 24 25  1  0
 25 26  2  0
 25 27  1  0
 27 28  1  0
 29 28  1  1
 29 30  1  0
 30 31  1  0
 31 32  1  0
 32 33  1  0
 24 34  1  0
 34 35  2  0
 35 36  1  0
 36 37  2  0
 37 38  1  0
 37 39  1  0
 39 40  2  0
 10 41  1  0
  6 42  1  0
 42 43  2  0
 43 44  1  0
 44 45  1  0
 43  3  1  0
 41  7  2  0
 23 18  1  0
 33 29  1  0
 40 34  1  0
M  END
>  <Binding energies>  (71) 
[-10.89]

>  <Ligand effiencies>  (71) 
[-0.23673913043478262]

>  <Interactions>  (71) 
["V-A:ILE:538:CB:4860, V-A:TYR:539:CD1:4871, V-A:TYR:531:CE2:4791, V-A:TYR:539:CZ:4875, V-A:ILE:538:CG2:4861, V-A:PRO:540:CB:4883, V-A:TYR:531:CZ:4792, V-A:TYR:539:CE1:4873, V-B:LEU:475:CD2:9230, V-A:PRO:540:CA:4881, V-B:PRO:540:N:9856, V-B:TYR:539:CE1:9847, V-B:PRO:540:CA:9855, V-B:TYR:539:CD1:9845, V-B:TYR:539:C:9839, V-B:TYR:531:CZ:9766, H-B:TYR:531:OH:9767, V-B:PRO:540:CB:9857, V-B:HIS:383:CD2:8363, V-A:ILE:343:CD1:2991, V-B:PRO:482:CB:9297, V-B:HIS:383:CG:8361, V-B:ILE:369:CG2:8208, V-B:ILE:369:CD1:8210, V-B:HIS:383:CE1:8365, V-A:VAL:344:CG1:2998, V-B:SER:385:CB:8380, V-A:TYR:539:CB:4869, V-B:LEU:373:CD1:8251, V-B:THR:477:CG2:9244, V-B:HIS:383:CB:8360, V-B:PRO:482:CG:9298, V-A:ILE:538:CA:4858, V-A:TYR:539:CD2:4872, V-A:PRO:540:CD:4885, V-A:TYR:539:CE2:4874, V-A:GLU:543:CD:4906, V-A:PRO:540:N:4882, H-A:TYR:539:N:4868, V-A:MET:535:CE:4833, V-B:ASP:366:CB:8183, H-B:TYR:539:N:9842, V-B:PRO:540:CD:9859, V-B:ASP:366:CG:8184, V-A:ILE:538:C:4856, V-B:VAL:384:C:8368, V-B:SER:385:CA:8378, H-A:TYR:539:OH:4876, V-A:ARG:545:CZ:4924, H-B:SER:385:N:8379, V-B:ASP:366:CA:8181, H-B:GLY:454:N:9021, H-B:ASN:370:ND2:8219, V-A:PRO:540:CG:4884"]

$$$$
RR17_Rahimova_2017
     RDKit          3D

 38 41  0  0  0  0  0  0  0  0999 V2000
  124.3910  140.3210   61.8520 C   0  0  0  0  0  0  0  0  0  0  0  0
  124.8780  139.7920   60.4990 C   0  0  0  0  0  0  0  0  0  0  0  0
  126.1100  139.1030   60.6940 O   0  0  0  0  0  0  0  0  0  0  0  0
  126.0920  137.7540   60.9940 C   0  0  0  0  0  0  0  0  0  0  0  0
  124.8740  137.0960   60.8310 C   0  0  0  0  0  0  0  0  0  0  0  0
  124.7590  135.7380   61.1100 C   0  0  0  0  0  0  0  0  0  0  0  0
  125.8660  135.0060   61.5620 C   0  0  0  0  0  0  0  0  0  0  0  0
  125.7120  133.5410   61.8530 C   0  0  0  0  0  0  0  0  0  0  0  0
  126.5570  132.9000   62.4850 O   0  0  0  0  0  0  0  0  0  0  0  0
  124.4420  132.8480   61.3110 C   0  0  0  0  0  0  0  0  0  0  0  0
  124.5490  131.0260   61.4280 S   0  0  0  0  0  0  0  0  0  0  0  0
  124.9260  130.6340   59.7430 C   0  0  0  0  0  0  0  0  0  0  0  0
  124.0490  130.2960   58.8260 N   0  0  0  0  0  0  0  0  0  0  0  0
  124.7370  130.0770   57.6390 N   0  0  0  0  0  0  0  0  0  0  0  0
  126.0050  130.2950   57.8820 C   0  0  0  0  0  0  0  0  0  0  0  0
  127.1150  130.1800   56.8480 C   0  0  0  0  0  0  0  0  0  0  0  0
  127.9660  131.3650   56.7620 N   0  0  0  0  0  0  0  0  0  0  0  0
  129.3360  131.3670   57.0820 C   0  0  0  0  0  0  0  0  0  0  0  0
  130.0260  132.5700   56.9430 C   0  0  0  0  0  0  0  0  0  0  0  0
  131.3850  132.6410   57.2380 C   0  0  0  0  0  0  0  0  0  0  0  0
  132.0690  131.5060   57.6810 C   0  0  0  0  0  0  0  0  0  0  0  0
  133.5620  131.5990   57.9950 C   0  0  0  0  0  0  0  0  0  0  0  0
  133.8170  131.4380   59.2950 F   0  0  0  0  0  0  0  0  0  0  0  0
  134.2380  130.6650   57.3240 F   0  0  0  0  0  0  0  0  0  0  0  0
  134.0120  132.7990   57.6260 F   0  0  0  0  0  0  0  0  0  0  0  0
  131.3770  130.3000   57.8290 C   0  0  0  0  0  0  0  0  0  0  0  0
  130.0190  130.2300   57.5350 C   0  0  0  0  0  0  0  0  0  0  0  0
  126.1970  130.6420   59.2040 N   0  0  0  0  0  0  0  0  0  0  0  0
  127.4040  130.9610   59.8430 C   0  0  0  0  0  0  0  0  0  0  0  0
  127.8710  132.2750   59.8140 C   0  0  0  0  0  0  0  0  0  0  0  0
  129.0710  132.5910   60.4450 C   0  0  0  0  0  0  0  0  0  0  0  0
  129.8070  131.5940   61.1060 C   0  0  0  0  0  0  0  0  0  0  0  0
  131.0050  131.8150   61.7590 O   0  0  0  0  0  0  0  0  0  0  0  0
  132.1050  130.9490   61.5010 C   0  0  0  0  0  0  0  0  0  0  0  0
  129.3250  130.2830   61.1230 C   0  0  0  0  0  0  0  0  0  0  0  0
  128.1250  129.9610   60.4950 C   0  0  0  0  0  0  0  0  0  0  0  0
  127.0920  135.6680   61.7240 C   0  0  0  0  0  0  0  0  0  0  0  0
  127.2050  137.0280   61.4430 C   0  0  0  0  0  0  0  0  0  0  0  0
  1  2  1  0
  2  3  1  0
  3  4  1  0
  4  5  2  0
  5  6  1  0
  6  7  2  0
  7  8  1  0
  8  9  2  0
  8 10  1  0
 10 11  1  0
 11 12  1  0
 12 13  2  0
 13 14  1  0
 14 15  2  0
 15 16  1  0
 16 17  1  0
 17 18  1  0
 18 19  2  0
 19 20  1  0
 20 21  2  0
 21 22  1  0
 22 23  1  0
 22 24  1  0
 22 25  1  0
 21 26  1  0
 26 27  2  0
 15 28  1  0
 28 29  1  0
 29 30  2  0
 30 31  1  0
 31 32  2  0
 32 33  1  0
 33 34  1  0
 32 35  1  0
 35 36  2  0
  7 37  1  0
 37 38  2  0
 38  4  1  0
 28 12  1  0
 36 29  1  0
 27 18  1  0
M  END
>  <Binding energies>  (72) 
[-9.26]

>  <Ligand effiencies>  (72) 
[-0.23743589743589744]

>  <Interactions>  (72) 
["V-A:LEU:363:CA:3182, V-A:TYR:539:CD1:4871, V-A:TYR:531:CE2:4791, V-A:TYR:539:C:4865, V-A:TYR:539:CZ:4875, V-A:PRO:540:CB:4883, V-A:TYR:531:CZ:4792, V-A:TYR:539:CE1:4873, V-B:LEU:475:CD2:9230, V-A:PRO:540:CA:4881, V-A:LEU:363:CD1:3186, V-A:ALA:541:CB:4890, V-B:HIS:383:CD2:8363, V-B:PRO:482:CB:9297, V-B:HIS:383:CG:8361, V-B:ILE:369:CG2:8208, V-B:ILE:369:CD1:8210, V-B:SER:385:CB:8380, V-A:TYR:539:CB:4869, V-B:LEU:373:CD1:8251, V-B:THR:477:CA:9241, V-B:THR:477:CG2:9244, V-B:HIS:383:CB:8360, V-B:PRO:482:CG:9298, V-A:PRO:540:CD:4885, V-A:TYR:539:CE2:4874, V-A:PRO:540:N:4882, V-A:ASN:362:C:3169, V-A:ASP:366:CG:3210, V-A:LEU:363:CB:3184, V-A:MET:535:CE:4833, V-B:ASP:366:CG:8184, V-B:SER:385:CA:8378, H-A:TYR:539:OH:4876, V-A:ASP:366:CB:3209, H-A:ALA:541:N:4889, V-A:PRO:540:CG:4884, V-A:LEU:363:C:3180, V-A:LEU:363:CG:3185, V-B:THR:477:CB:9243"]

$$$$
RR19_Rahimova_2017
     RDKit          3D

 46 51  0  0  0  0  0  0  0  0999 V2000
  134.0960  124.0390   60.2440 O   0  0  0  0  0  0  0  0  0  0  0  0
  132.8800  123.9010   60.4050 C   0  0  0  0  0  0  0  0  0  0  0  0
  131.9070  124.4250   59.6170 N   0  0  0  0  0  0  0  0  0  0  0  0
  131.9250  125.0250   58.3820 C   0  0  0  0  0  0  0  0  0  0  0  0
  133.2470  125.0670   57.3260 S   0  0  0  0  0  0  0  0  0  0  0  0
  130.6930  125.5840   58.1470 N   0  0  0  0  0  0  0  0  0  0  0  0
  130.1320  126.1590   57.0530 C   0  0  0  0  0  0  0  0  0  0  0  0
  130.5850  126.1450   55.9060 O   0  0  0  0  0  0  0  0  0  0  0  0
  128.8080  126.9080   57.3460 C   0  0  2  0  0  0  0  0  0  0  0  0
  127.5830  126.4140   56.5230 C   0  0  0  0  0  0  0  0  0  0  0  0
  127.1050  125.0090   56.8510 C   0  0  0  0  0  0  0  0  0  0  0  0
  127.8940  123.8820   56.5310 C   0  0  0  0  0  0  0  0  0  0  0  0
  127.4780  122.6130   56.9100 C   0  0  0  0  0  0  0  0  0  0  0  0
  126.2950  122.4460   57.6200 C   0  0  0  0  0  0  0  0  0  0  0  0
  125.5240  123.5480   57.9680 C   0  0  0  0  0  0  0  0  0  0  0  0
  125.9240  124.8260   57.6010 C   0  0  0  0  0  0  0  0  0  0  0  0
  128.9840  128.3820   57.2350 N   0  0  0  0  0  0  0  0  0  0  0  0
  130.1160  128.9960   57.6820 C   0  0  0  0  0  0  0  0  0  0  0  0
  131.0840  128.4690   58.2330 O   0  0  0  0  0  0  0  0  0  0  0  0
  129.9400  130.4340   57.3600 C   0  0  0  0  0  0  0  0  0  0  0  0
  130.7720  131.5300   57.5880 C   0  0  0  0  0  0  0  0  0  0  0  0
  130.3460  132.7940   57.1630 C   0  0  0  0  0  0  0  0  0  0  0  0
  129.1090  132.9440   56.5210 C   0  0  0  0  0  0  0  0  0  0  0  0
  128.2900  131.8310   56.3010 C   0  0  0  0  0  0  0  0  0  0  0  0
  128.7320  130.5800   56.7340 C   0  0  0  0  0  0  0  0  0  0  0  0
  128.1030  129.2390   56.6370 C   0  0  0  0  0  0  0  0  0  0  0  0
  127.0210  128.9620   56.1190 O   0  0  0  0  0  0  0  0  0  0  0  0
  132.3560  123.0730   61.6080 C   0  0  2  0  0  0  0  0  0  0  0  0
  133.1670  123.2840   62.9200 C   0  0  0  0  0  0  0  0  0  0  0  0
  132.4310  124.0850   63.9770 C   0  0  0  0  0  0  0  0  0  0  0  0
  131.1300  123.7070   64.3750 C   0  0  0  0  0  0  0  0  0  0  0  0
  130.4980  124.3790   65.4140 C   0  0  0  0  0  0  0  0  0  0  0  0
  131.1510  125.4050   66.0830 C   0  0  0  0  0  0  0  0  0  0  0  0
  132.4460  125.7630   65.7290 C   0  0  0  0  0  0  0  0  0  0  0  0
  133.0950  125.1040   64.6920 C   0  0  0  0  0  0  0  0  0  0  0  0
  132.1850  121.6240   61.3000 N   0  0  0  0  0  0  0  0  0  0  0  0
  133.2510  120.8150   61.0430 C   0  0  0  0  0  0  0  0  0  0  0  0
  134.4400  121.1350   61.0090 O   0  0  0  0  0  0  0  0  0  0  0  0
  132.6750  119.4670   60.8130 C   0  0  0  0  0  0  0  0  0  0  0  0
  133.2870  118.2510   60.5040 C   0  0  0  0  0  0  0  0  0  0  0  0
  132.4820  117.1180   60.3420 C   0  0  0  0  0  0  0  0  0  0  0  0
  131.0920  117.2110   60.4920 C   0  0  0  0  0  0  0  0  0  0  0  0
  130.4970  118.4390   60.8040 C   0  0  0  0  0  0  0  0  0  0  0  0
  131.3180  119.5580   60.9590 C   0  0  0  0  0  0  0  0  0  0  0  0
  130.9880  120.9660   61.2870 C   0  0  0  0  0  0  0  0  0  0  0  0
  129.8720  121.4410   61.5030 O   0  0  0  0  0  0  0  0  0  0  0  0
  1  2  2  0
  2  3  1  0
  3  4  1  0
  4  5  2  0
  4  6  1  0
  6  7  1  0
  7  8  2  0
  7  9  1  0
  9 10  1  6
 10 11  1  0
 11 12  2  0
 12 13  1  0
 13 14  2  0
 14 15  1  0
 15 16  2  0
  9 17  1  0
 17 18  1  0
 18 19  2  0
 18 20  1  0
 20 21  2  0
 21 22  1  0
 22 23  2  0
 23 24  1  0
 24 25  2  0
 25 26  1  0
 26 27  2  0
  2 28  1  0
 28 29  1  1
 29 30  1  0
 30 31  2  0
 31 32  1  0
 32 33  2  0
 33 34  1  0
 34 35  2  0
 28 36  1  0
 36 37  1  0
 37 38  2  0
 37 39  1  0
 39 40  2  0
 40 41  1  0
 41 42  2  0
 42 43  1  0
 43 44  2  0
 44 45  1  0
 45 46  2  0
 16 11  1  0
 26 17  1  0
 35 30  1  0
 45 36  1  0
 25 20  1  0
 44 39  1  0
M  END
>  <Binding energies>  (73) 
[-13.13]

>  <Ligand effiencies>  (73) 
[-0.2735416666666667]

>  <Interactions>  (73) 
["V-A:TYR:539:CD1:4871, V-A:TYR:539:C:4865, V-A:TYR:539:CZ:4875, V-A:TYR:539:CE1:4873, V-A:PRO:540:CA:4881, H-A:TYR:531:OH:4793, V-B:PRO:540:N:9856, V-B:TYR:539:CE1:9847, V-B:PRO:540:CA:9855, V-B:TYR:539:CD1:9845, V-B:TYR:539:CZ:9849, V-B:TYR:539:C:9839, H-B:TYR:531:OH:9767, V-B:PRO:540:CB:9857, V-A:LEU:475:CD2:4256, V-A:ILE:538:CA:4858, V-A:TYR:539:CD2:4872, V-A:PRO:540:CD:4885, V-A:TYR:539:CE2:4874, V-A:PRO:540:N:4882, V-A:ASP:366:CG:3210, V-A:MET:535:CE:4833, V-B:GLU:543:CD:9880, V-B:MET:535:CE:9807, V-B:PRO:540:CD:9859, V-A:ILE:538:C:4856, V-A:TYR:539:CG:4870, V-A:SER:385:CA:3404, V-A:ARG:545:CZ:4924, V-A:ILE:369:CG2:3234, V-A:PRO:482:CG:4324, V-B:TYR:539:CB:9843, V-A:PRO:482:CB:4323, V-A:GLY:454:CA:4046, V-A:SER:385:CB:3406, V-A:LEU:373:CD1:3277, V-B:GLU:543:CB:9878, V-B:GLU:543:CG:9879, V-A:ASP:366:CA:3207, V-A:ASP:366:C:3205, V-A:ASP:366:CB:3209, V-A:HIS:456:CE1:4066, V-A:TYR:484:CZ:4344, V-A:TYR:484:CE2:4343, V-A:TYR:539:CA:4867, V-A:ARG:545:CD:4921, V-A:ARG:545:CG:4920"]

$$$$
RR1_Rahimova_2017
     RDKit          3D

 41 44  0  0  0  0  0  0  0  0999 V2000
  132.0680  132.8750   56.4800 C   0  0  0  0  0  0  0  0  0  0  0  0
  130.6890  133.2130   56.5710 O   0  0  0  0  0  0  0  0  0  0  0  0
  129.8910  132.5510   57.4840 C   0  0  0  0  0  0  0  0  0  0  0  0
  130.1560  132.4810   58.8610 C   0  0  0  0  0  0  0  0  0  0  0  0
  129.2980  131.7840   59.7060 C   0  0  0  0  0  0  0  0  0  0  0  0
  128.1620  131.1530   59.1950 C   0  0  0  0  0  0  0  0  0  0  0  0
  127.3820  130.4360   60.1220 N   0  0  0  0  0  0  0  0  0  0  0  0
  126.0410  130.2820   60.1730 C   0  0  0  0  0  0  0  0  0  0  0  0
  125.2420  130.8310   59.4140 O   0  0  0  0  0  0  0  0  0  0  0  0
  125.5470  129.3440   61.2860 C   0  0  0  0  0  0  0  0  0  0  0  0
  124.4190  130.1030   62.5070 S   0  0  0  0  0  0  0  0  0  0  0  0
  125.2260  131.6630   62.6420 C   0  0  0  0  0  0  0  0  0  0  0  0
  124.9770  132.6900   61.8700 N   0  0  0  0  0  0  0  0  0  0  0  0
  125.7890  133.6370   62.3280 C   0  0  0  0  0  0  0  0  0  0  0  0
  125.8300  135.0170   61.7350 C   0  0  0  0  0  0  0  0  0  0  0  0
  124.6600  135.6770   61.3290 C   0  0  0  0  0  0  0  0  0  0  0  0
  124.7300  136.9580   60.7780 C   0  0  0  0  0  0  0  0  0  0  0  0
  125.9810  137.5560   60.6440 C   0  0  0  0  0  0  0  0  0  0  0  0
  127.1320  136.9480   61.0260 N   0  0  0  0  0  0  0  0  0  0  0  0
  127.0430  135.7030   61.5600 C   0  0  0  0  0  0  0  0  0  0  0  0
  126.5540  133.2840   63.3440 N   0  0  0  0  0  0  0  0  0  0  0  0
  126.1950  132.0130   63.5470 N   0  0  0  0  0  0  0  0  0  0  0  0
  126.8010  131.2330   64.6270 C   0  0  0  0  0  0  0  0  0  0  0  0
  126.8940  129.7200   64.3620 C   0  0  0  0  0  0  0  0  0  0  0  0
  125.9870  128.9590   64.7160 O   0  0  0  0  0  0  0  0  0  0  0  0
  128.0180  129.3220   63.7360 N   0  0  0  0  0  0  0  0  0  0  0  0
  128.1070  127.9960   63.3330 N   0  0  0  0  0  0  0  0  0  0  0  0
  128.6460  127.7410   62.1210 C   0  0  0  0  0  0  0  0  0  0  0  0
  129.1570  128.6000   61.3950 O   0  0  0  0  0  0  0  0  0  0  0  0
  128.6200  126.2900   61.6850 C   0  0  0  0  0  0  0  0  0  0  0  0
  129.7240  125.7390   61.0260 C   0  0  0  0  0  0  0  0  0  0  0  0
  129.7170  124.4130   60.6060 C   0  0  0  0  0  0  0  0  0  0  0  0
  128.5960  123.5960   60.8260 C   0  0  0  0  0  0  0  0  0  0  0  0
  128.5190  122.2750   60.4220 O   0  0  0  0  0  0  0  0  0  0  0  0
  129.3720  121.3070   61.0230 C   0  0  0  0  0  0  0  0  0  0  0  0
  127.4770  124.1310   61.4780 C   0  0  0  0  0  0  0  0  0  0  0  0
  126.3910  123.2900   61.6520 O   0  0  0  0  0  0  0  0  0  0  0  0
  125.0820  123.8410   61.7440 C   0  0  0  0  0  0  0  0  0  0  0  0
  127.5000  125.4710   61.9030 C   0  0  0  0  0  0  0  0  0  0  0  0
  127.8930  131.2220   57.8200 C   0  0  0  0  0  0  0  0  0  0  0  0
  128.7540  131.9210   56.9780 C   0  0  0  0  0  0  0  0  0  0  0  0
  1  2  1  0
  2  3  1  0
  3  4  2  0
  4  5  1  0
  5  6  2  0
  6  7  1  0
  7  8  1  0
  8  9  2  0
  8 10  1  0
 10 11  1  0
 11 12  1  0
 12 13  2  0
 13 14  1  0
 14 15  1  0
 15 16  2  0
 16 17  1  0
 17 18  2  0
 18 19  1  0
 19 20  2  0
 14 21  2  0
 21 22  1  0
 22 23  1  0
 23 24  1  0
 24 25  2  0
 24 26  1  0
 26 27  1  0
 27 28  1  0
 28 29  2  0
 28 30  1  0
 30 31  2  0
 31 32  1  0
 32 33  2  0
 33 34  1  0
 34 35  1  0
 33 36  1  0
 36 37  1  0
 37 38  1  0
 36 39  2  0
  6 40  1  0
 40 41  2  0
 41  3  1  0
 22 12  1  0
 39 30  1  0
 20 15  1  0
M  END
>  <Binding energies>  (74) 
[-8.81]

>  <Ligand effiencies>  (74) 
[-0.20022727272727273]

>  <Interactions>  (74) 
["V-A:ILE:538:CB:4860, V-A:TYR:539:CD1:4871, V-A:TYR:539:C:4865, V-A:TYR:539:CZ:4875, V-A:ILE:538:CG2:4861, V-A:PRO:540:CB:4883, V-A:TYR:539:CE1:4873, V-B:LEU:475:CD2:9230, V-A:PRO:540:CA:4881, V-A:LEU:363:CD1:3186, V-B:PRO:540:CA:9855, V-B:ALA:541:CB:9864, V-B:TYR:539:CD1:9845, V-B:TYR:539:C:9839, V-B:PRO:540:C:9853, V-B:PRO:540:CB:9857, V-B:ILE:369:CG2:8208, V-B:SER:385:CB:8380, V-A:TYR:539:CB:4869, V-B:LEU:373:CD1:8251, V-A:ILE:538:CA:4858, V-A:PRO:540:CD:4885, V-A:TYR:539:CE2:4874, V-A:GLU:543:CD:4906, V-A:PRO:540:N:4882, H-A:TYR:539:N:4868, V-A:MET:535:CE:4833, V-B:GLU:543:CD:9880, V-B:ASN:362:CB:8147, V-B:ASP:366:CG:8184, V-A:TYR:539:CG:4870, V-B:SER:385:CA:8378, H-A:TYR:539:OH:4876, H-B:ALA:541:N:9863, H-B:GLU:543:OE1:9881, H-B:ARG:545:NH2:9900, H-B:GLU:543:OE2:9882, H-A:GLU:543:OE1:4907, H-A:GLU:543:OE2:4908, H-B:ARG:545:NE:9896"]

$$$$
RR22_Rahimova_2017
     RDKit          3D

 31 36  0  0  0  0  0  0  0  0999 V2000
  126.0770  122.8830   61.0010 O   0  0  0  0  0  0  0  0  0  0  0  0
  127.2550  123.1670   60.7940 C   0  0  0  0  0  0  0  0  0  0  0  0
  128.2490  123.3810   61.7330 N   0  0  0  0  0  0  0  0  0  0  0  0
  129.5940  123.6460   61.3230 C   0  0  1  0  0  0  0  0  0  0  0  0
  129.9400  124.8850   61.9470 O   0  0  0  0  0  0  0  0  0  0  0  0
  131.0250  124.9060   62.8240 C   0  0  0  0  0  0  0  0  0  0  0  0
  131.1100  126.0020   63.6830 C   0  0  0  0  0  0  0  0  0  0  0  0
  132.1880  126.1130   64.5610 C   0  0  0  0  0  0  0  0  0  0  0  0
  133.1820  125.1340   64.5730 C   0  0  0  0  0  0  0  0  0  0  0  0
  133.0980  124.0380   63.7130 C   0  0  0  0  0  0  0  0  0  0  0  0
  132.0100  123.9000   62.8450 C   0  0  0  0  0  0  0  0  0  0  0  0
  131.8470  122.7760   61.8470 C   0  0  1  0  0  0  0  0  0  0  0  0
  132.3670  121.3760   62.1060 C   0  0  0  0  0  0  0  0  0  0  0  0
  131.3450  120.5660   61.3020 C   0  0  0  0  0  0  0  0  0  0  0  0
  131.5850  119.1700   60.8840 C   0  0  0  0  0  0  0  0  0  0  0  0
  130.5090  118.3070   60.6310 C   0  0  0  0  0  0  0  0  0  0  0  0
  130.7410  116.9920   60.2350 C   0  0  0  0  0  0  0  0  0  0  0  0
  132.0470  116.5330   60.0900 C   0  0  0  0  0  0  0  0  0  0  0  0
  133.1260  117.3780   60.3370 C   0  0  0  0  0  0  0  0  0  0  0  0
  132.8960  118.6930   60.7320 C   0  0  0  0  0  0  0  0  0  0  0  0
  130.2850  121.2480   61.0810 N   0  0  0  0  0  0  0  0  0  0  0  0
  130.4510  122.5060   61.6840 N   0  0  0  0  0  0  0  0  0  0  0  0
  129.5490  123.8990   59.8230 C   0  0  0  0  0  0  0  0  0  0  0  0
  130.5530  124.5080   59.1480 C   0  0  0  0  0  0  0  0  0  0  0  0
  130.6470  124.7950   57.7040 C   0  0  0  0  0  0  0  0  0  0  0  0
  129.9510  124.0660   56.7290 C   0  0  0  0  0  0  0  0  0  0  0  0
  130.0900  124.3960   55.3800 C   0  0  0  0  0  0  0  0  0  0  0  0
  130.9340  125.4520   55.0360 C   0  0  0  0  0  0  0  0  0  0  0  0
  131.6260  126.1690   55.9560 N   0  0  0  0  0  0  0  0  0  0  0  0
  131.4770  125.8340   57.2640 C   0  0  0  0  0  0  0  0  0  0  0  0
  127.9960  123.3850   59.1480 S   0  0  0  0  0  0  0  0  0  0  0  0
  1  2  2  0
  2  3  1  0
  4  3  1  1
  4  5  1  0
  5  6  1  0
  6  7  2  0
  7  8  1  0
  8  9  2  0
  9 10  1  0
 10 11  2  0
 11 12  1  0
 12 13  1  1
 13 14  1  0
 14 15  1  0
 15 16  2  0
 16 17  1  0
 17 18  2  0
 18 19  1  0
 19 20  2  0
 14 21  2  0
 21 22  1  0
  4 23  1  0
 23 24  2  0
 24 25  1  0
 25 26  2  0
 26 27  1  0
 27 28  2  0
 28 29  1  0
 29 30  2  0
 23 31  1  0
 31  2  1  0
 22  4  1  0
 30 25  1  0
 11  6  1  0
 22 12  1  0
 20 15  1  0
M  END
>  <Binding energies>  (75) 
[-9.49]

>  <Ligand effiencies>  (75) 
[-0.2965625]

>  <Interactions>  (75) 
["H-A:TYR:531:OH:4793, V-B:TYR:539:CE1:9847, V-B:PRO:540:CA:9855, V-B:ALA:541:CB:9864, V-B:TYR:539:CD1:9845, V-B:TYR:539:CZ:9849, V-B:TYR:539:C:9839, V-B:PRO:540:C:9853, V-B:TYR:539:CG:9844, V-A:LEU:475:CD2:4256, V-B:TYR:539:CE2:9848, V-B:MET:535:CE:9807, V-A:SER:385:CA:3404, V-A:ARG:545:CZ:4924, H-B:TYR:539:OH:9850, V-A:PRO:482:CG:4324, V-B:TYR:539:CB:9843, V-A:PRO:482:CB:4323, V-A:GLY:454:CA:4046, V-A:SER:385:CB:3406, V-A:LEU:373:CD1:3277, V-B:VAL:344:CG1:7972, H-B:ALA:541:N:9863, H-B:GLU:543:OE1:9881, V-A:TYR:531:CE1:4790, V-A:ASN:370:CG:3243"]

$$$$
RR24_Rahimova_2017
     RDKit          3D

 43 49  0  0  0  0  0  0  0  0999 V2000
  126.6320  130.2640   58.6310 C   0  0  0  0  0  0  0  0  0  0  0  0
  127.1120  130.6550   57.2260 C   0  0  2  0  0  0  0  0  0  0  0  0
  126.7690  129.5910   56.1420 C   0  0  0  0  0  0  0  0  0  0  0  0
  125.6590  129.5380   55.6030 O   0  0  0  0  0  0  0  0  0  0  0  0
  127.8090  128.7410   55.8960 O   0  0  0  0  0  0  0  0  0  0  0  0
  127.9620  127.6130   56.6700 C   0  0  0  0  0  0  0  0  0  0  0  0
  126.9950  127.3050   57.6300 C   0  0  0  0  0  0  0  0  0  0  0  0
  127.1340  126.1620   58.4110 C   0  0  0  0  0  0  0  0  0  0  0  0
  128.2330  125.3180   58.2320 C   0  0  0  0  0  0  0  0  0  0  0  0
  128.3910  124.0700   59.1090 C   0  0  1  0  0  0  0  0  0  0  0  0
  129.7610  124.0370   59.8270 C   0  0  0  0  0  0  0  0  0  0  0  0
  129.8840  123.8390   61.1520 C   0  0  0  0  0  0  0  0  0  0  0  0
  128.7960  123.6520   61.9690 N   0  0  0  0  0  0  0  0  0  0  0  0
  127.5160  123.6600   61.4670 C   0  0  0  0  0  0  0  0  0  0  0  0
  126.5550  123.4520   62.4030 N   0  0  0  0  0  0  0  0  0  0  0  0
  125.2270  123.5030   62.1070 C   0  0  0  0  0  0  0  0  0  0  0  0
  124.4110  123.6270   63.0220 O   0  0  0  0  0  0  0  0  0  0  0  0
  124.9530  123.5770   60.7500 N   0  0  0  0  0  0  0  0  0  0  0  0
  123.5260  123.5440   60.3690 C   0  0  0  0  0  0  0  0  0  0  0  0
  125.8500  123.7900   59.7170 C   0  0  0  0  0  0  0  0  0  0  0  0
  125.5270  123.8970   58.5300 O   0  0  0  0  0  0  0  0  0  0  0  0
  127.2500  123.8560   60.1490 C   0  0  0  0  0  0  0  0  0  0  0  0
  131.2820  123.8580   61.5500 C   0  0  0  0  0  0  0  0  0  0  0  0
  131.9230  123.7090   62.7800 C   0  0  0  0  0  0  0  0  0  0  0  0
  133.3170  123.7800   62.8360 C   0  0  0  0  0  0  0  0  0  0  0  0
  134.0580  123.9960   61.6700 C   0  0  0  0  0  0  0  0  0  0  0  0
  133.4100  124.1440   60.4400 C   0  0  0  0  0  0  0  0  0  0  0  0
  132.0170  124.0740   60.3920 C   0  0  0  0  0  0  0  0  0  0  0  0
  131.0900  124.1910   59.2460 C   0  0  0  0  0  0  0  0  0  0  0  0
  131.3320  124.3770   58.0540 O   0  0  0  0  0  0  0  0  0  0  0  0
  129.1900  125.6190   57.2570 C   0  0  0  0  0  0  0  0  0  0  0  0
  129.0510  126.7610   56.4740 C   0  0  0  0  0  0  0  0  0  0  0  0
  128.5550  131.0350   57.2120 N   0  0  0  0  0  0  0  0  0  0  0  0
  129.4800  130.3530   57.9440 C   0  0  0  0  0  0  0  0  0  0  0  0
  129.2830  129.3890   58.6870 O   0  0  0  0  0  0  0  0  0  0  0  0
  130.7770  131.0150   57.6600 C   0  0  0  0  0  0  0  0  0  0  0  0
  132.0630  130.7460   58.1300 C   0  0  0  0  0  0  0  0  0  0  0  0
  133.1200  131.5470   57.6830 C   0  0  0  0  0  0  0  0  0  0  0  0
  132.8820  132.5920   56.7820 C   0  0  0  0  0  0  0  0  0  0  0  0
  131.5860  132.8450   56.3210 C   0  0  0  0  0  0  0  0  0  0  0  0
  130.5450  132.0370   56.7790 C   0  0  0  0  0  0  0  0  0  0  0  0
  129.0920  132.0560   56.4760 C   0  0  0  0  0  0  0  0  0  0  0  0
  128.4990  132.8250   55.7190 O   0  0  0  0  0  0  0  0  0  0  0  0
  2  1  1  1
  2  3  1  0
  3  4  2  0
  3  5  1  0
  5  6  1  0
  6  7  2  0
  7  8  1  0
  8  9  2  0
 10  9  1  1
 10 11  1  0
 11 12  2  0
 12 13  1  0
 13 14  1  0
 14 15  1  0
 15 16  1  0
 16 17  2  0
 16 18  1  0
 18 19  1  0
 18 20  1  0
 20 21  2  0
 20 22  1  0
 12 23  1  0
 23 24  2  0
 24 25  1  0
 25 26  2  0
 26 27  1  0
 27 28  2  0
 28 29  1  0
 29 30  2  0
  9 31  1  0
 31 32  2  0
  2 33  1  0
 33 34  1  0
 34 35  2  0
 34 36  1  0
 36 37  2  0
 37 38  1  0
 38 39  2  0
 39 40  1  0
 40 41  2  0
 41 42  1  0
 42 43  2  0
 32  6  1  0
 42 33  1  0
 22 10  1  0
 28 23  1  0
 41 36  1  0
 29 11  1  0
 22 14  2  0
M  END
>  <Binding energies>  (76) 
[-11.82]

>  <Ligand effiencies>  (76) 
[-0.26266666666666666]

>  <Interactions>  (76) 
["V-A:LEU:363:CA:3182, V-A:ILE:538:CB:4860, V-A:TYR:539:CZ:4875, V-A:ILE:538:CG2:4861, V-A:PRO:540:CB:4883, V-A:TYR:539:CE1:4873, V-A:LEU:363:CD1:3186, V-B:TYR:539:CE1:9847, V-B:LEU:363:CA:8156, V-B:PRO:540:CA:9855, V-B:ALA:541:CB:9864, V-B:ALA:541:CA:9862, V-B:TYR:539:CZ:9849, V-B:PRO:540:C:9853, H-B:TYR:531:OH:9767, V-B:PRO:540:CB:9857, V-A:ILE:538:CA:4858, V-A:PRO:540:CD:4885, V-A:PRO:540:N:4882, V-A:ASP:366:CG:3210, H-A:TYR:539:N:4868, V-A:MET:535:CE:4833, V-B:GLU:543:CD:9880, V-B:ALA:541:C:9860, V-B:MET:535:CE:9807, V-B:ASN:362:C:8143, V-B:ASN:362:CB:8147, V-B:LEU:363:CB:8158, V-B:ASP:366:CG:8184, H-A:TYR:539:OH:4876, H-B:TYR:539:OH:9850, V-A:GLY:454:CA:4046, V-A:ILE:369:CD1:3236, H-B:GLU:543:OE1:9881, H-B:ARG:545:NH2:9900, H-B:ASN:370:ND2:8219, H-B:ALA:541:O:9861, V-A:PRO:540:CG:4884, H-B:ASN:362:ND2:8150, V-B:ASN:362:CA:8145"]

$$$$
RR25_Rahimova_2017
     RDKit          3D

 39 44  0  0  0  0  0  0  0  0999 V2000
  132.4840  125.4520   56.2430 O   0  0  0  0  0  0  0  0  0  0  0  0
  132.2170  125.1850   57.4150 C   0  0  0  0  0  0  0  0  0  0  0  0
  133.0910  124.3460   58.0610 O   0  0  0  0  0  0  0  0  0  0  0  0
  133.0440  124.1700   59.4320 C   0  0  0  0  0  0  0  0  0  0  0  0
  134.2300  123.7870   60.0570 C   0  0  0  0  0  0  0  0  0  0  0  0
  134.2520  123.5840   61.4350 C   0  0  0  0  0  0  0  0  0  0  0  0
  133.0920  123.7560   62.2050 C   0  0  0  0  0  0  0  0  0  0  0  0
  133.1200  123.5470   63.6740 N   0  0  0  0  0  0  0  0  0  0  0  0
  133.4770  124.4770   64.3930 O   0  0  0  0  0  0  0  0  0  0  0  0
  132.7860  122.4520   64.1180 O   0  0  0  0  0  0  0  0  0  0  0  0
  131.9050  124.1290   61.5550 C   0  0  0  0  0  0  0  0  0  0  0  0
  131.8640  124.3290   60.1720 C   0  0  0  0  0  0  0  0  0  0  0  0
  130.6090  124.7440   59.4250 C   0  0  0  0  0  0  0  0  0  0  0  0
  130.9900  125.6740   58.2390 C   0  0  2  0  0  0  0  0  0  0  0  0
  129.7380  126.0400   57.3890 C   0  0  0  0  0  0  0  0  0  0  0  0
  129.2850  125.1410   56.6750 O   0  0  0  0  0  0  0  0  0  0  0  0
  129.0980  127.2410   57.5180 N   0  0  0  0  0  0  0  0  0  0  0  0
  129.7460  128.4370   58.0970 C   0  0  0  0  0  0  0  0  0  0  0  0
  128.7040  129.2260   58.9160 C   0  0  0  0  0  0  0  0  0  0  0  0
  127.5250  129.5530   58.1090 N   0  0  0  0  0  0  0  0  0  0  0  0
  126.5910  130.4170   58.8450 C   0  0  0  0  0  0  0  0  0  0  0  0
  127.2590  131.7170   59.3680 C   0  0  0  0  0  0  0  0  0  0  0  0
  128.7440  131.7850   59.2500 N   0  0  0  0  0  0  0  0  0  0  0  0
  129.4370  131.6160   60.4300 C   0  0  0  0  0  0  0  0  0  0  0  0
  128.8830  131.4540   61.5240 O   0  0  0  0  0  0  0  0  0  0  0  0
  130.9460  131.6220   60.2830 C   0  0  0  0  0  0  0  0  0  0  0  0
  131.7490  131.4320   61.4150 C   0  0  0  0  0  0  0  0  0  0  0  0
  133.1390  131.4240   61.3150 C   0  0  0  0  0  0  0  0  0  0  0  0
  133.7700  131.6010   60.0850 C   0  0  0  0  0  0  0  0  0  0  0  0
  133.0000  131.7970   58.9130 C   0  0  0  0  0  0  0  0  0  0  0  0
  133.5750  131.9820   57.6330 C   0  0  0  0  0  0  0  0  0  0  0  0
  132.7580  132.1670   56.5190 C   0  0  0  0  0  0  0  0  0  0  0  0
  131.3700  132.1740   56.6430 C   0  0  0  0  0  0  0  0  0  0  0  0
  130.7570  131.9950   57.8900 C   0  0  0  0  0  0  0  0  0  0  0  0
  131.5820  131.8060   59.0280 C   0  0  0  0  0  0  0  0  0  0  0  0
  129.2430  132.0010   57.9820 C   0  0  0  0  0  0  0  0  0  0  0  0
  128.5270  132.1690   56.9890 O   0  0  0  0  0  0  0  0  0  0  0  0
  126.8770  128.3220   57.6530 C   0  0  0  0  0  0  0  0  0  0  0  0
  127.8290  127.4630   56.7870 C   0  0  0  0  0  0  0  0  0  0  0  0
  1  2  2  0
  2  3  1  0
  3  4  1  0
  4  5  2  0
  5  6  1  0
  6  7  2  0
  7  8  1  0
  8  9  2  0
  8 10  1  0
  7 11  1  0
 11 12  2  0
 12 13  1  0
 13 14  1  0
 14 15  1  6
 15 16  2  0
 15 17  1  0
 17 18  1  0
 18 19  1  0
 19 20  1  0
 20 21  1  0
 21 22  1  0
 22 23  1  0
 23 24  1  0
 24 25  2  0
 24 26  1  0
 26 27  2  0
 27 28  1  0
 28 29  2  0
 29 30  1  0
 30 31  2  0
 31 32  1  0
 32 33  2  0
 33 34  1  0
 34 35  2  0
 34 36  1  0
 36 37  2  0
 20 38  1  0
 38 39  1  0
 14  2  1  0
 39 17  1  0
 12  4  1  0
 36 23  1  0
 35 26  1  0
 35 30  1  0
M  CHG  2   8   1  10  -1
M  END
>  <Binding energies>  (77) 
[-10.46]

>  <Ligand effiencies>  (77) 
[-0.2682051282051282]

>  <Interactions>  (77) 
["V-A:LEU:363:CA:3182, V-A:ILE:538:CB:4860, V-A:TYR:539:CD1:4871, V-A:TYR:531:CE2:4791, V-A:TYR:539:CZ:4875, V-A:ILE:538:CG2:4861, V-A:PRO:540:CB:4883, V-A:TYR:539:CE1:4873, V-A:PRO:540:CA:4881, H-A:TYR:531:OH:4793, V-A:LEU:363:CD1:3186, V-B:TYR:539:CE1:9847, V-B:TYR:539:CZ:9849, V-A:ASN:362:CB:3173, V-A:PRO:540:N:4882, V-A:ASN:362:C:3169, V-A:ASP:366:CG:3210, V-A:LEU:363:CB:3184, V-B:MET:535:CE:9807, H-B:TYR:539:OH:9850, V-A:ILE:369:CG2:3234, V-A:GLY:454:CA:4046, V-A:ILE:369:CD1:3236, V-A:ASP:366:CB:3209, V-A:ILE:369:CB:3233, H-A:ASN:370:ND2:3245, H-A:TYR:484:OH:4345, H-A:GLY:454:N:4047, V-A:ILE:369:CG1:3235, V-A:PRO:540:CG:4884"]

$$$$
RR27_Rahimova_2017
     RDKit          3D

 39 44  0  0  0  0  0  0  0  0999 V2000
  129.7630  132.4910   61.3680 O   0  0  0  0  0  0  0  0  0  0  0  0
  128.5410  132.3200   61.3390 C   0  0  0  0  0  0  0  0  0  0  0  0
  127.6790  132.9560   62.4680 C   0  0  0  0  0  0  0  0  0  0  0  0
  126.8880  131.9160   63.2840 C   0  0  0  0  0  0  0  0  0  0  0  0
  125.5740  132.1550   63.7140 C   0  0  0  0  0  0  0  0  0  0  0  0
  124.8870  131.1920   64.4470 C   0  0  0  0  0  0  0  0  0  0  0  0
  125.5100  129.9860   64.7550 C   0  0  0  0  0  0  0  0  0  0  0  0
  126.8140  129.7350   64.3370 C   0  0  0  0  0  0  0  0  0  0  0  0
  127.5000  130.6980   63.6040 C   0  0  0  0  0  0  0  0  0  0  0  0
  126.8460  134.1440   61.9510 C   0  0  0  0  0  0  0  0  0  0  0  0
  125.5360  133.9780   61.4810 C   0  0  0  0  0  0  0  0  0  0  0  0
  124.8150  135.0730   61.0090 C   0  0  0  0  0  0  0  0  0  0  0  0
  125.4030  136.3350   61.0010 C   0  0  0  0  0  0  0  0  0  0  0  0
  126.7070  136.5130   61.4550 C   0  0  0  0  0  0  0  0  0  0  0  0
  127.4270  135.4190   61.9250 C   0  0  0  0  0  0  0  0  0  0  0  0
  127.9270  131.7250   60.2760 N   0  0  0  0  0  0  0  0  0  0  0  0
  126.5290  131.2700   60.2970 C   0  0  0  0  0  0  0  0  0  0  0  0
  126.5360  129.8300   60.8580 C   0  0  0  0  0  0  0  0  0  0  0  0
  127.4810  128.8760   60.0600 C   0  0  0  0  0  0  0  0  0  0  0  0
  127.6110  127.4580   60.6460 C   0  0  0  0  0  0  0  0  0  0  0  0
  128.6020  127.2680   61.5650 N   0  0  0  0  0  0  0  0  0  0  0  0
  128.7430  126.0390   62.1330 C   0  0  0  0  0  0  0  0  0  0  0  0
  129.6940  125.7280   63.0680 O   0  0  0  0  0  0  0  0  0  0  0  0
  127.8600  125.0120   61.7470 C   0  0  0  0  0  0  0  0  0  0  0  0
  127.7210  123.7040   62.1110 N   0  0  0  0  0  0  0  0  0  0  0  0
  126.6690  123.1840   61.3810 N   0  0  0  0  0  0  0  0  0  0  0  0
  126.1650  124.1550   60.5900 N   0  0  0  0  0  0  0  0  0  0  0  0
  125.0530  123.8730   59.6860 C   0  0  0  0  0  0  0  0  0  0  0  0
  125.4830  123.6080   58.2500 C   0  0  0  0  0  0  0  0  0  0  0  0
  124.5230  123.4630   57.2430 C   0  0  0  0  0  0  0  0  0  0  0  0
  124.9180  123.2320   55.9240 C   0  0  0  0  0  0  0  0  0  0  0  0
  126.2730  123.1490   55.6050 C   0  0  0  0  0  0  0  0  0  0  0  0
  127.2360  123.3020   56.6040 C   0  0  0  0  0  0  0  0  0  0  0  0
  128.9150  123.2270   56.2070 Cl  0  0  0  0  0  0  0  0  0  0  0  0
  126.8420  123.5260   57.9230 C   0  0  0  0  0  0  0  0  0  0  0  0
  126.8820  125.3250   60.7790 C   0  0  0  0  0  0  0  0  0  0  0  0
  126.7280  126.5190   60.2000 N   0  0  0  0  0  0  0  0  0  0  0  0
  128.8560  129.5450   59.7510 C   0  0  0  0  0  0  0  0  0  0  0  0
  128.7250  131.0120   59.2660 C   0  0  0  0  0  0  0  0  0  0  0  0
  1  2  2  0
  2  3  1  0
  3  4  1  0
  4  5  2  0
  5  6  1  0
  6  7  2  0
  7  8  1  0
  8  9  2  0
  3 10  1  0
 10 11  2  0
 11 12  1  0
 12 13  2  0
 13 14  1  0
 14 15  2  0
  2 16  1  0
 16 17  1  0
 17 18  1  0
 18 19  1  0
 19 20  1  0
 20 21  2  0
 21 22  1  0
 22 23  1  0
 22 24  2  0
 24 25  1  0
 25 26  2  0
 26 27  1  0
 27 28  1  0
 28 29  1  0
 29 30  2  0
 30 31  1  0
 31 32  2  0
 32 33  1  0
 33 34  1  0
 33 35  2  0
 27 36  1  0
 36 37  2  0
 19 38  1  0
 38 39  1  0
  9  4  1  0
 15 10  1  0
 39 16  1  0
 37 20  1  0
 36 24  1  0
 35 29  1  0
M  END
>  <Binding energies>  (78) 
[-10.83]

>  <Ligand effiencies>  (78) 
[-0.27075]

>  <Interactions>  (78) 
["V-A:TYR:539:CD1:4871, V-A:TYR:539:CE1:4873, V-B:LEU:475:CD2:9230, V-A:ALA:541:CB:4890, V-B:ILE:538:CB:9834, V-B:PRO:540:N:9856, V-B:TYR:539:CE1:9847, V-B:PRO:540:CA:9855, V-B:TYR:531:CE2:9765, V-B:TYR:539:CD1:9845, V-B:TYR:539:CZ:9849, V-B:TYR:531:CZ:9766, V-B:PRO:540:CB:9857, V-B:LEU:363:CD1:8160, V-B:ILE:538:CG2:9835, V-B:GLY:454:CA:9020, V-B:PRO:482:CB:9297, V-B:ILE:369:CG2:8208, V-B:LEU:373:CD1:8251, V-B:PRO:482:CG:9298, V-A:GLU:543:CD:4906, V-B:GLU:543:CD:9880, V-B:TYR:539:CE2:9848, V-B:ILE:538:CA:9832, V-B:MET:535:CE:9807, V-B:TYR:539:CD2:9846, V-B:ASP:366:CG:8184, V-B:ARG:545:CZ:9898, H-B:ALA:541:N:9863, H-B:GLU:543:OE1:9881, H-B:GLU:543:OE2:9882, H-A:ALA:541:N:4889"]

$$$$
RR28_Rahimova_2017
     RDKit          3D

 46 49  0  0  0  0  0  0  0  0999 V2000
  127.5120  132.3500   65.1140 C   0  0  0  0  0  0  0  0  0  0  0  0
  127.4480  132.6530   63.6210 C   0  0  0  0  0  0  0  0  0  0  0  0
  128.4690  132.5750   62.9410 O   0  0  0  0  0  0  0  0  0  0  0  0
  126.2390  132.9980   63.1330 N   0  0  0  0  0  0  0  0  0  0  0  0
  125.8800  133.3510   61.7410 C   0  0  0  0  0  0  0  0  0  0  0  0
  125.8460  134.9020   61.6260 C   0  0  0  0  0  0  0  0  0  0  0  0
  124.6230  135.5480   61.3880 C   0  0  0  0  0  0  0  0  0  0  0  0
  124.5550  136.9330   61.2750 C   0  0  0  0  0  0  0  0  0  0  0  0
  125.7110  137.7060   61.3960 C   0  0  0  0  0  0  0  0  0  0  0  0
  125.6180  139.2250   61.2650 C   0  0  0  0  0  0  0  0  0  0  0  0
  124.3890  139.6320   60.9390 F   0  0  0  0  0  0  0  0  0  0  0  0
  125.9540  139.8110   62.4140 F   0  0  0  0  0  0  0  0  0  0  0  0
  126.4580  139.6350   60.3130 F   0  0  0  0  0  0  0  0  0  0  0  0
  126.9360  137.0750   61.6310 C   0  0  0  0  0  0  0  0  0  0  0  0
  127.0020  135.6890   61.7440 C   0  0  0  0  0  0  0  0  0  0  0  0
  124.5340  132.6570   61.3270 C   0  0  0  0  0  0  0  0  0  0  0  0
  124.6340  131.1120   61.2630 C   0  0  0  0  0  0  0  0  0  0  0  0
  125.6900  130.8030   60.2840 N   0  0  0  0  0  0  0  0  0  0  0  0
  125.3730  130.5700   58.9810 C   0  0  0  0  0  0  0  0  0  0  0  0
  124.2060  130.4410   58.6050 O   0  0  0  0  0  0  0  0  0  0  0  0
  126.5140  130.2970   57.9710 C   0  0  0  0  0  0  0  0  0  0  0  0
  126.1080  129.5390   56.6780 C   0  0  0  0  0  0  0  0  0  0  0  0
  127.1190  128.4710   56.1980 C   0  0  0  0  0  0  0  0  0  0  0  0
  127.3720  128.4140   54.9910 O   0  0  0  0  0  0  0  0  0  0  0  0
  127.7990  127.7250   57.1140 N   0  0  0  0  0  0  0  0  0  0  0  0
  127.3370  127.5190   58.4910 C   0  0  0  0  0  0  0  0  0  0  0  0
  126.3580  126.3240   58.4540 C   0  0  0  0  0  0  0  0  0  0  0  0
  126.9580  125.0040   57.8560 C   0  0  0  0  0  0  0  0  0  0  0  0
  125.8530  124.0860   57.5050 N   0  0  0  0  0  0  0  0  0  0  0  0
  125.9270  122.9020   56.8640 C   0  0  0  0  0  0  0  0  0  0  0  0
  124.6050  122.1800   56.6230 C   0  0  0  0  0  0  0  0  0  0  0  0
  126.9780  122.3940   56.4750 O   0  0  0  0  0  0  0  0  0  0  0  0
  127.8000  124.3200   58.9810 C   0  0  0  0  0  0  0  0  0  0  0  0
  129.1240  123.8930   58.7880 C   0  0  0  0  0  0  0  0  0  0  0  0
  129.8400  123.2880   59.8170 C   0  0  0  0  0  0  0  0  0  0  0  0
  129.2490  123.0920   61.0670 C   0  0  0  0  0  0  0  0  0  0  0  0
  130.0230  122.4330   62.2090 C   0  0  0  0  0  0  0  0  0  0  0  0
  129.4460  122.6970   63.3820 F   0  0  0  0  0  0  0  0  0  0  0  0
  130.0320  121.1130   62.0260 F   0  0  0  0  0  0  0  0  0  0  0  0
  131.2870  122.8560   62.2690 F   0  0  0  0  0  0  0  0  0  0  0  0
  127.9310  123.5030   61.2730 C   0  0  0  0  0  0  0  0  0  0  0  0
  127.2180  124.1070   60.2420 C   0  0  0  0  0  0  0  0  0  0  0  0
  127.8060  125.3590   56.5740 C   0  0  0  0  0  0  0  0  0  0  0  0
  128.6820  126.6380   56.6690 C   0  0  0  0  0  0  0  0  0  0  0  0
  127.0250  131.2490   60.7080 C   0  0  0  0  0  0  0  0  0  0  0  0
  126.9850  132.7980   60.7820 C   0  0  0  0  0  0  0  0  0  0  0  0
  1  2  1  0
  2  3  2  0
  2  4  1  0
  4  5  1  0
  5  6  1  0
  6  7  2  0
  7  8  1  0
  8  9  2  0
  9 10  1  0
 10 11  1  0
 10 12  1  0
 10 13  1  0
  9 14  1  0
 14 15  2  0
  5 16  1  0
 16 17  1  0
 17 18  1  0
 18 19  1  0
 19 20  2  0
 19 21  1  0
 21 22  1  0
 22 23  1  0
 23 24  2  0
 23 25  1  0
 25 26  1  0
 26 27  1  0
 27 28  1  0
 28 29  1  0
 29 30  1  0
 30 31  1  0
 30 32  2  0
 28 33  1  0
 33 34  2  0
 34 35  1  0
 35 36  2  0
 36 37  1  0
 37 38  1  0
 37 39  1  0
 37 40  1  0
 36 41  1  0
 41 42  2  0
 28 43  1  0
 43 44  1  0
 18 45  1  0
 45 46  1  0
 46  5  1  0
 15  6  1  0
 44 25  1  0
 42 33  1  0
M  END
>  <Binding energies>  (79) 
[-10.54]

>  <Ligand effiencies>  (79) 
[-0.21958333333333332]

>  <Interactions>  (79) 
["V-A:TYR:539:CD1:4871, V-A:TYR:539:CZ:4875, V-A:TYR:539:CE1:4873, V-B:LEU:475:CD2:9230, V-A:ALA:541:CB:4890, V-B:ILE:538:CB:9834, V-B:PRO:540:N:9856, V-B:TYR:539:CE1:9847, V-B:PRO:540:CA:9855, H-B:ASP:366:OD2:8186, V-B:ALA:541:CB:9864, V-B:TYR:539:CD1:9845, V-B:TYR:531:CZ:9766, H-B:TYR:531:OH:9767, V-B:PRO:540:CB:9857, V-B:LEU:363:CD1:8160, V-A:LEU:475:CD2:4256, V-B:ILE:538:CG2:9835, V-B:PRO:482:CB:9297, V-B:HIS:383:CG:8361, V-B:ILE:369:CG2:8208, V-B:ILE:369:CD1:8210, V-A:VAL:344:CG1:2998, V-B:SER:385:CB:8380, V-B:LEU:373:CD1:8251, V-B:HIS:383:CB:8360, V-B:PRO:482:CG:9298, V-A:MET:535:CE:4833, V-B:GLU:543:CD:9880, V-B:MET:535:CE:9807, V-B:ASP:366:CB:8183, H-B:TYR:539:N:9842, V-B:PRO:540:CG:9858, V-B:PRO:540:CD:9859, V-B:ASP:366:CG:8184, V-B:SER:385:CA:8378, H-A:TYR:539:OH:4876, H-B:TYR:484:OH:9319, V-B:TYR:531:CE1:9764, V-B:TYR:484:CE2:9317, V-B:TYR:484:CZ:9318, V-A:GLU:543:CB:4904"]

$$$$
RR29_Rahimova_2017
     RDKit          3D

 18 19  0  0  0  0  0  0  0  0999 V2000
  134.1480  124.1760   61.4900 C   0  0  0  0  0  0  0  0  0  0  0  0
  133.2530  123.7480   62.6450 C   0  0  0  0  0  0  0  0  0  0  0  0
  132.5930  122.3700   62.4170 C   0  0  0  0  0  0  0  0  0  0  0  0
  133.0970  121.7030   61.1210 C   0  0  0  0  0  0  0  0  0  0  0  0
  132.5600  120.2900   60.9530 C   0  0  0  0  0  0  0  0  0  0  0  0
  131.1880  120.0310   61.1470 C   0  0  0  0  0  0  0  0  0  0  0  0
  130.6720  118.7360   60.9960 C   0  0  0  0  0  0  0  0  0  0  0  0
  131.5640  117.7240   60.6610 C   0  0  0  0  0  0  0  0  0  0  0  0
  132.8950  117.9690   60.4730 C   0  0  0  0  0  0  0  0  0  0  0  0
  133.4330  119.2440   60.6060 C   0  0  0  0  0  0  0  0  0  0  0  0
  133.5200  116.8130   60.1220 O   0  0  0  0  0  0  0  0  0  0  0  0
  132.5700  115.7980   60.3080 C   0  0  0  0  0  0  0  0  0  0  0  0
  131.3120  116.4070   60.4330 O   0  0  0  0  0  0  0  0  0  0  0  0
  133.1270  124.5360   63.6480 N   0  0  0  0  0  0  0  0  0  0  0  0
  132.2530  124.1900   64.6550 N   0  0  0  0  0  0  0  0  0  0  0  0
  131.2520  124.9760   65.0830 C   0  0  0  0  0  0  0  0  0  0  0  0
  130.9600  126.1780   64.5850 N   0  0  0  0  0  0  0  0  0  0  0  0
  130.4960  124.5260   66.0740 N   0  0  0  0  0  0  0  0  0  0  0  0
  1  2  1  0
  2  3  1  0
  3  4  1  0
  4  5  1  0
  5  6  2  0
  6  7  1  0
  7  8  2  0
  8  9  1  0
  9 10  2  0
  9 11  1  0
 11 12  1  0
 12 13  1  0
  2 14  2  0
 14 15  1  0
 15 16  1  0
 16 17  1  0
 16 18  2  0
 10  5  1  0
 13  8  1  0
M  CHG  1  18   1
M  END
>  <Binding energies>  (80) 
[-7.72]

>  <Ligand effiencies>  (80) 
[-0.3356521739130435]

>  <Interactions>  (80) 
["V-B:TYR:539:CE1:9847, V-B:TYR:539:CD1:9845, V-A:LEU:475:CD2:4256, V-A:GLU:543:CD:4906, V-B:GLU:543:CD:9880, V-A:SER:385:CA:3404, V-A:ILE:369:CG2:3234, V-A:PRO:482:CG:4324, V-A:PRO:482:CB:4323, V-A:GLY:454:CA:4046, V-A:SER:385:CB:3406, V-A:LEU:373:CD1:3277, V-B:GLU:543:CB:9878, V-A:SER:385:C:3402, V-B:GLU:543:CG:9879, V-A:ILE:369:CD1:3236, H-B:GLU:543:OE1:9881, H-B:GLU:543:OE2:9882, H-A:GLU:543:OE2:4908, H-A:TYR:484:OH:4345, H-A:GLY:454:N:4047, V-A:HIS:456:CE1:4066, V-A:TYR:484:CZ:4344, V-A:TYR:484:CE2:4343, H-A:SER:385:N:3405"]

$$$$
RR30_Rahimova_2017
     RDKit          3D

 18 19  0  0  0  0  0  0  0  0999 V2000
  131.2460  125.4320   56.2850 C   0  0  0  0  0  0  0  0  0  0  0  0
  131.9690  125.8950   57.5580 C   0  0  0  0  0  0  0  0  0  0  0  0
  132.3390  124.7380   58.4600 C   0  0  0  0  0  0  0  0  0  0  0  0
  133.5050  124.1570   58.5960 N   0  0  0  0  0  0  0  0  0  0  0  0
  133.3210  123.1460   59.5350 N   0  0  0  0  0  0  0  0  0  0  0  0
  132.0590  123.1960   59.8790 C   0  0  0  0  0  0  0  0  0  0  0  0
  131.2200  122.1750   61.0470 S   0  0  0  0  0  0  0  0  0  0  0  0
  129.8350  123.2740   61.4850 C   0  0  0  0  0  0  0  0  0  0  0  0
  128.6010  123.0250   60.6130 C   0  0  0  0  0  0  0  0  0  0  0  0
  127.5180  122.7940   61.1540 O   0  0  0  0  0  0  0  0  0  0  0  0
  128.8090  123.0450   59.2770 N   0  0  0  0  0  0  0  0  0  0  0  0
  127.8530  122.8450   58.2920 C   0  0  0  0  0  0  0  0  0  0  0  0
  127.9200  122.0620   57.2390 N   0  0  0  0  0  0  0  0  0  0  0  0
  126.7680  122.1160   56.4660 N   0  0  0  0  0  0  0  0  0  0  0  0
  125.8570  122.9320   56.9440 C   0  0  0  0  0  0  0  0  0  0  0  0
  124.5200  123.1640   56.2780 C   0  0  0  0  0  0  0  0  0  0  0  0
  126.3550  123.7150   58.4200 S   0  0  0  0  0  0  0  0  0  0  0  0
  131.3780  124.1830   59.2410 O   0  0  0  0  0  0  0  0  0  0  0  0
  1  2  1  0
  2  3  1  0
  3  4  2  0
  4  5  1  0
  5  6  2  0
  6  7  1  0
  7  8  1  0
  8  9  1  0
  9 10  2  0
  9 11  1  0
 11 12  1  0
 12 13  2  0
 13 14  1  0
 14 15  2  0
 15 16  1  0
 15 17  1  0
  6 18  1  0
 18  3  1  0
 17 12  1  0
M  END
>  <Binding energies>  (81) 
[-6.79]

>  <Ligand effiencies>  (81) 
[-0.35736842105263156]

>  <Interactions>  (81) 
["V-B:ILE:538:CB:9834, V-B:PRO:540:N:9856, V-B:TYR:539:CE1:9847, V-B:PRO:540:CA:9855, V-B:TYR:531:CE2:9765, V-B:TYR:539:CD1:9845, V-B:TYR:539:CZ:9849, V-B:TYR:539:C:9839, V-B:LEU:363:CD1:8160, V-B:ILE:538:CG2:9835, V-A:ASP:366:CG:3210, H-B:TYR:539:N:9842, V-B:PRO:540:CD:9859, H-B:TYR:539:OH:9850, H-B:ALA:541:N:9863, V-A:ASP:366:CB:3209"]

$$$$
RR31_Rahimova_2017
     RDKit          3D

 18 19  0  0  0  0  0  0  0  0999 V2000
  126.3840  140.3360   59.8550 C   0  0  0  0  0  0  0  0  0  0  0  0
  126.1670  138.9200   60.3730 C   0  0  0  0  0  0  0  0  0  0  0  0
  127.2670  138.0740   60.5200 C   0  0  0  0  0  0  0  0  0  0  0  0
  127.1020  136.7740   60.9950 C   0  0  0  0  0  0  0  0  0  0  0  0
  125.8330  136.2850   61.3450 C   0  0  0  0  0  0  0  0  0  0  0  0
  125.6500  134.9810   61.8130 N   0  0  0  0  0  0  0  0  0  0  0  0
  124.4090  134.2260   61.5570 C   0  0  0  0  0  0  0  0  0  0  0  0
  124.2180  132.9960   62.4760 C   0  0  0  0  0  0  0  0  0  0  0  0
  125.3690  132.0930   62.3870 N   0  0  0  0  0  0  0  0  0  0  0  0
  125.2010  130.8980   63.2210 C   0  0  0  0  0  0  0  0  0  0  0  0
  126.5280  130.3910   63.8200 C   0  0  0  0  0  0  0  0  0  0  0  0
  126.9900  129.0710   63.1810 C   0  0  0  0  0  0  0  0  0  0  0  0
  128.0700  128.4180   64.0500 N   0  0  0  0  0  0  0  0  0  0  0  0
  126.5460  132.8400   62.8280 C   0  0  0  0  0  0  0  0  0  0  0  0
  126.7980  134.0580   61.9090 C   0  0  0  0  0  0  0  0  0  0  0  0
  124.7360  137.1430   61.1840 C   0  0  0  0  0  0  0  0  0  0  0  0
  124.8880  138.4500   60.7060 C   0  0  0  0  0  0  0  0  0  0  0  0
  123.6550  139.3320   60.5510 C   0  0  0  0  0  0  0  0  0  0  0  0
  1  2  1  0
  2  3  2  0
  3  4  1  0
  4  5  2  0
  5  6  1  0
  6  7  1  0
  7  8  1  0
  8  9  1  0
  9 10  1  0
 10 11  1  0
 11 12  1  0
 12 13  1  0
  9 14  1  0
 14 15  1  0
  5 16  1  0
 16 17  2  0
 17 18  1  0
 17  2  1  0
 15  6  1  0
M  CHG  1  13   1
M  END
>  <Binding energies>  (82) 
[-8.36]

>  <Ligand effiencies>  (82) 
[-0.39809523809523806]

>  <Interactions>  (82) 
["V-A:TYR:539:CD1:4871, V-A:TYR:539:C:4865, V-A:TYR:539:CE1:4873, V-B:LEU:475:CD2:9230, V-A:ALA:541:CB:4890, V-B:GLY:454:CA:9020, V-B:HIS:383:CD2:8363, V-B:PRO:482:CB:9297, V-B:HIS:383:CG:8361, V-B:ILE:369:CG2:8208, V-B:ILE:369:CD1:8210, V-B:HIS:383:CE1:8365, V-A:VAL:344:CG1:2998, V-B:SER:385:CB:8380, V-A:TYR:539:CB:4869, V-B:LEU:373:CD1:8251, V-B:HIS:383:CB:8360, V-B:PRO:482:CG:9298, V-B:LEU:373:CD2:8252, V-A:GLU:543:CD:4906, V-B:GLU:543:CD:9880, V-A:TYR:539:CG:4870, V-B:VAL:384:C:8368, V-B:SER:385:CA:8378, H-B:GLU:543:OE1:9881, H-B:GLU:543:OE2:9882, H-A:GLU:543:OE1:4907, H-A:GLU:543:OE2:4908, V-B:HIS:383:CA:8358, V-B:HIS:383:C:8356"]

$$$$
RR32_Rahimova_2017
     RDKit          3D

 18 20  0  0  0  0  0  0  0  0999 V2000
  132.3320  131.0580   61.3240 C   0  0  0  0  0  0  0  0  0  0  0  0
  131.3370  131.6240   60.3160 C   0  0  0  0  0  0  0  0  0  0  0  0
  130.0710  131.9900   60.7730 C   0  0  0  0  0  0  0  0  0  0  0  0
  129.1380  132.5120   59.8820 C   0  0  0  0  0  0  0  0  0  0  0  0
  127.8820  132.8740   60.3400 N   0  0  0  0  0  0  0  0  0  0  0  0
  126.9360  131.7870   60.6460 C   0  0  0  0  0  0  0  0  0  0  0  0
  125.5100  132.2920   60.9730 C   0  0  0  0  0  0  0  0  0  0  0  0
  125.5490  133.2110   62.1100 N   0  0  0  0  0  0  0  0  0  0  0  0
  124.2010  133.6620   62.4390 C   0  0  0  0  0  0  0  0  0  0  0  0
  126.3890  134.3490   61.7420 C   0  0  0  0  0  0  0  0  0  0  0  0
  127.8260  133.8750   61.4230 C   0  0  0  0  0  0  0  0  0  0  0  0
  129.4030  132.6850   58.5620 N   0  0  0  0  0  0  0  0  0  0  0  0
  130.6290  132.3350   58.0850 C   0  0  0  0  0  0  0  0  0  0  0  0
  130.8770  132.5240   56.7040 C   0  0  0  0  0  0  0  0  0  0  0  0
  132.1110  132.1840   56.1610 C   0  0  0  0  0  0  0  0  0  0  0  0
  133.1140  131.6560   56.9660 C   0  0  0  0  0  0  0  0  0  0  0  0
  132.9020  131.4580   58.3270 C   0  0  0  0  0  0  0  0  0  0  0  0
  131.6530  131.7910   58.9270 C   0  0  0  0  0  0  0  0  0  0  0  0
  1  2  1  0
  2  3  2  0
  3  4  1  0
  4  5  1  0
  5  6  1  0
  6  7  1  0
  7  8  1  0
  8  9  1  0
  8 10  1  0
 10 11  1  0
  4 12  2  0
 12 13  1  0
 13 14  2  0
 14 15  1  0
 15 16  2  0
 16 17  1  0
 17 18  2  0
 18  2  1  0
 11  5  1  0
 18 13  1  0
M  END
>  <Binding energies>  (83) 
[-6.67]

>  <Ligand effiencies>  (83) 
[-0.3705555555555555]

>  <Interactions>  (83) 
["V-A:ILE:538:CB:4860, V-A:TYR:539:CD1:4871, V-A:TYR:531:CE2:4791, V-A:TYR:539:C:4865, V-A:ILE:538:CG2:4861, V-A:PRO:540:CB:4883, V-A:TYR:531:CZ:4792, V-A:TYR:539:CE1:4873, V-B:LEU:475:CD2:9230, V-A:PRO:540:CA:4881, V-A:LEU:363:CD1:3186, V-A:ALA:541:CB:4890, V-B:GLY:454:CA:9020, V-B:ILE:369:CG2:8208, V-B:ILE:369:CD1:8210, V-A:PRO:540:N:4882"]

$$$$
RR5_Rahimova_2017
     RDKit          3D

 45 50  0  0  0  0  0  0  0  0999 V2000
  128.8220  130.6960   58.0120 O   0  0  0  0  0  0  0  0  0  0  0  0
  129.7380  129.8760   57.9520 C   0  0  0  0  0  0  0  0  0  0  0  0
  131.1900  130.3640   57.7890 C   0  0  0  0  0  0  0  0  0  0  0  0
  131.4390  131.8180   58.3270 C   0  0  2  0  0  0  0  0  0  0  0  0
  130.5050  132.2610   59.3810 N   0  0  0  0  0  0  0  0  0  0  0  0
  130.8240  132.1530   60.7280 C   0  0  0  0  0  0  0  0  0  0  0  0
  131.8860  131.7420   61.2030 O   0  0  0  0  0  0  0  0  0  0  0  0
  129.7650  132.5620   61.4480 O   0  0  0  0  0  0  0  0  0  0  0  0
  128.5200  132.8740   60.8290 C   0  0  0  0  0  0  0  0  0  0  0  0
  127.4470  133.2050   61.8890 C   0  0  0  0  0  0  0  0  0  0  0  0
  126.8360  134.5860   61.7260 C   0  0  0  0  0  0  0  0  0  0  0  0
  127.4570  135.8380   61.7210 C   0  0  0  0  0  0  0  0  0  0  0  0
  126.6940  136.9910   61.5310 C   0  0  0  0  0  0  0  0  0  0  0  0
  125.3140  136.8970   61.3480 C   0  0  0  0  0  0  0  0  0  0  0  0
  124.6910  135.6470   61.3560 C   0  0  0  0  0  0  0  0  0  0  0  0
  125.4560  134.4950   61.5460 C   0  0  0  0  0  0  0  0  0  0  0  0
  125.0700  133.0760   61.6080 C   0  0  0  0  0  0  0  0  0  0  0  0
  123.8220  132.4570   61.5010 C   0  0  0  0  0  0  0  0  0  0  0  0
  123.7280  131.0700   61.6200 C   0  0  0  0  0  0  0  0  0  0  0  0
  124.8760  130.3060   61.8410 C   0  0  0  0  0  0  0  0  0  0  0  0
  126.1200  130.9280   61.9420 C   0  0  0  0  0  0  0  0  0  0  0  0
  126.2200  132.3160   61.8210 C   0  0  0  0  0  0  0  0  0  0  0  0
  131.4370  132.8420   57.1650 C   0  0  0  0  0  0  0  0  0  0  0  0
  132.4290  133.2160   56.5700 O   0  0  0  0  0  0  0  0  0  0  0  0
  130.1570  133.2390   56.9040 O   0  0  0  0  0  0  0  0  0  0  0  0
  129.5810  128.5370   58.0500 N   0  0  0  0  0  0  0  0  0  0  0  0
  128.3900  127.6510   58.2160 C   0  0  0  0  0  0  0  0  0  0  0  0
  127.2730  128.4640   57.4800 C   0  0  0  0  0  0  0  0  0  0  0  0
  127.3950  128.8200   56.1270 C   0  0  0  0  0  0  0  0  0  0  0  0
  126.3940  129.5420   55.4820 C   0  0  0  0  0  0  0  0  0  0  0  0
  125.2590  129.9310   56.1840 C   0  0  0  0  0  0  0  0  0  0  0  0
  125.1100  129.5920   57.5240 C   0  0  0  0  0  0  0  0  0  0  0  0
  126.1060  128.8610   58.1640 C   0  0  0  0  0  0  0  0  0  0  0  0
  128.7140  126.2950   57.5040 C   0  0  0  0  0  0  0  0  0  0  0  0
  127.7310  125.3120   57.3060 C   0  0  0  0  0  0  0  0  0  0  0  0
  128.0470  124.1040   56.6880 C   0  0  0  0  0  0  0  0  0  0  0  0
  129.3490  123.8630   56.2620 C   0  0  0  0  0  0  0  0  0  0  0  0
  130.3390  124.8220   56.4450 C   0  0  0  0  0  0  0  0  0  0  0  0
  130.0210  126.0320   57.0540 C   0  0  0  0  0  0  0  0  0  0  0  0
  128.1440  127.5360   59.7580 C   0  0  0  0  0  0  0  0  0  0  0  0
  127.4130  126.4620   60.2970 C   0  0  0  0  0  0  0  0  0  0  0  0
  127.1850  126.3600   61.6660 C   0  0  0  0  0  0  0  0  0  0  0  0
  127.6900  127.3290   62.5250 C   0  0  0  0  0  0  0  0  0  0  0  0
  128.4290  128.3940   62.0240 C   0  0  0  0  0  0  0  0  0  0  0  0
  128.6550  128.4930   60.6540 C   0  0  0  0  0  0  0  0  0  0  0  0
  1  2  2  0
  2  3  1  0
  4  3  1  6
  4  5  1  0
  5  6  1  0
  6  7  2  0
  6  8  1  0
  8  9  1  0
  9 10  1  0
 10 11  1  0
 11 12  2  0
 12 13  1  0
 13 14  2  0
 14 15  1  0
 15 16  2  0
 16 17  1  0
 17 18  2  0
 18 19  1  0
 19 20  2  0
 20 21  1  0
 21 22  2  0
  4 23  1  0
 23 24  2  0
 23 25  1  0
  2 26  1  0
 26 27  1  0
 27 28  1  0
 28 29  2  0
 29 30  1  0
 30 31  2  0
 31 32  1  0
 32 33  2  0
 27 34  1  0
 34 35  2  0
 35 36  1  0
 36 37  2  0
 37 38  1  0
 38 39  2  0
 27 40  1  0
 40 41  2  0
 41 42  1  0
 42 43  2  0
 43 44  1  0
 44 45  2  0
 22 10  1  0
 33 28  1  0
 39 34  1  0
 45 40  1  0
 16 11  1  0
 22 17  1  0
M  END
>  <Binding energies>  (84) 
[-10.46]

>  <Ligand effiencies>  (84) 
[-0.21791666666666668]

>  <Interactions>  (84) 
["V-A:PRO:540:C:4879, V-A:ILE:538:CB:4860, V-A:TYR:539:CD1:4871, V-A:TYR:539:C:4865, V-A:TYR:539:CZ:4875, V-A:PRO:540:CB:4883, V-A:TYR:539:CE1:4873, V-B:LEU:475:CD2:9230, V-A:PRO:540:CA:4881, H-A:TYR:531:OH:4793, V-A:ALA:541:CB:4890, V-B:TYR:539:CE1:9847, V-B:TYR:539:CZ:9849, V-B:TYR:531:CZ:9766, V-B:PRO:482:CB:9297, V-B:ILE:369:CG2:8208, V-B:ILE:369:CD1:8210, V-B:SER:385:CB:8380, V-B:LEU:373:CD1:8251, V-B:ILE:369:CB:8207, V-B:PRO:482:CG:9298, V-A:PRO:540:CD:4885, V-A:PRO:540:N:4882, H-A:TYR:539:N:4868, V-A:MET:535:CE:4833, V-B:GLU:543:CD:9880, V-B:TYR:539:CE2:9848, V-B:MET:535:CE:9807, V-B:ASP:366:CB:8183, V-B:ASP:366:CG:8184, V-B:SER:385:CA:8378, H-A:TYR:539:O:4866, H-A:ALA:541:N:4889, V-B:ASN:370:CG:8217, V-B:TYR:531:CE1:9764, V-B:ASN:370:CB:8216"]

$$$$
